drugbank_target|Q08345 Epithelial discoidin domain-containing receptor 1 (DB00619; DB12010; DB15822)
 OpenBabel12092119483D

  0  0  0     0  0            999 V3000
M  V30 BEGIN CTAB
M  V30 COUNTS 14133 14332 0 0 0
M  V30 BEGIN ATOM
M  V30 1 H -0.908 1.98254 -0.117106 0
M  V30 2 N 0 1.576 0 0
M  V30 3 C 0.933 2.03868 1.02534 0
M  V30 4 C 1.911 0.928543 1.3348 0
M  V30 5 O 3.095 1.19667 1.45644 0
M  V30 6 C 0.222 2.43627 2.35294 0
M  V30 7 C -0.732 3.65373 2.2001 0
M  V30 8 S 0.101 5.13292 1.52614 0
M  V30 9 C 1.257 5.56322 2.86805 0
M  V30 10 H 1.49 2.90518 0.631377 0
M  V30 11 H -0.977 1.52953 0.210867 0
M  V30 12 H 0.981 2.67203 3.11629 0
M  V30 13 H -0.358 1.57376 2.7183 0
M  V30 14 H -1.165 3.90944 3.18086 0
M  V30 15 H -1.563 3.418 1.51819 0
M  V30 16 H 0.729 5.58782 3.83104 0
M  V30 17 H 1.672 6.56266 2.65933 0
M  V30 18 H 2.08 4.83886 2.90714 0
M  V30 19 N 1.4781 -0.272755 1.55222 0
M  V30 20 C 2.7261 -1.00234 1.75492 0
M  V30 21 C 3.0471 -1.8681 0.5592 0
M  V30 22 O 2.3171 -1.91215 -0.425882 0
M  V30 23 H 0.8971 -0.373076 0.647166 0
M  V30 24 H 3.5591 -0.296926 1.92625 0
M  V30 25 H 2.6551 -1.63913 2.65592 0
M  V30 26 N 2.9562 -1.48159 -0.537278 0
M  V30 27 C 4.3672 -1.49429 -1.11928 0
M  V30 28 C 4.7182 -0.26 -1.9447 0
M  V30 29 O 3.8432 0.633489 -2.0692 0
M  V30 30 C 4.4382 -2.70758 -2.03656 0
M  V30 31 C 2.9972 -2.74923 -2.57088 0
M  V30 32 C 2.1442 -2.42835 -1.3389 0
M  V30 33 H 5.0952 -1.55381 -0.322886 0
M  V30 34 H 5.1162 -2.48861 -2.87834 0
M  V30 35 H 4.6282 -3.60575 -1.43553 0
M  V30 36 H 2.7292 -1.89296 -3.20933 0
M  V30 37 H 2.8422 -3.76157 -2.9672 0
M  V30 38 H 1.2062 -1.93836 -1.65226 0
M  V30 39 H 1.9892 -3.34884 -0.755504 0
M  V30 40 N 4.4343 0.785586 -1.36625 0
M  V30 41 C 5.3443 1.92964 -1.33425 0
M  V30 42 C 6.3603 1.72394 -0.235851 0
M  V30 43 O 7.5363 1.95866 -0.468878 0
M  V30 44 C 4.6013 3.27884 -1.12662 0
M  V30 45 C 3.6623 3.61204 -2.32013 0
M  V30 46 C 2.8953 4.89687 -2.12231 0
M  V30 47 O 3.1183 5.59704 -1.09945 0
M  V30 48 O 2.0523 5.21752 -3.00098 0
M  V30 49 H 5.8783 1.98613 -2.29753 0
M  V30 50 H 3.4633 0.926384 -1.17211 0
M  V30 51 H 5.3453 4.08614 -1.03016 0
M  V30 52 H 4.0203 3.23118 -0.193991 0
M  V30 53 H 2.9273 2.80765 -2.47228 0
M  V30 54 H 4.2603 3.70698 -3.23796 0
M  V30 55 N 5.9124 1.20967 1.01018 0
M  V30 56 C 6.8754 0.965918 2.07853 0
M  V30 57 C 7.8754 -0.0610545 1.60684 0
M  V30 58 O 9.0654 0.175681 1.73312 0
M  V30 59 C 6.1974 0.455513 3.37843 0
M  V30 60 H 7.3904 1.91365 2.3091 0
M  V30 61 H 4.9434 1.02594 1.17916 0
M  V30 62 H 5.6784 -0.497381 3.20463 0
M  V30 63 H 5.4634 1.19622 3.73407 0
M  V30 64 H 6.9534 0.304667 4.16487 0
M  V30 65 N 7.3905 -1.2043 1.01659 0
M  V30 66 C 8.3205 -2.25466 0.607226 0
M  V30 67 C 9.3015 -1.65853 -0.377716 0
M  V30 68 O 10.4865 -1.92409 -0.263149 0
M  V30 69 C 7.6165 -3.47256 -0.0552949 0
M  V30 70 C 6.5705 -4.19462 0.850632 0
M  V30 71 C 5.8965 -5.34673 0.0538859 0
M  V30 72 C 7.1965 -4.75603 2.15868 0
M  V30 73 H 8.8905 -2.59962 1.48526 0
M  V30 74 H 6.4365 -1.2496 0.715605 0
M  V30 75 H 8.3895 -4.19917 -0.353233 0
M  V30 76 H 7.1135 -3.11924 -0.968045 0
M  V30 77 H 5.7725 -3.48667 1.13257 0
M  V30 78 H 5.4205 -4.95585 -0.860514 0
M  V30 79 H 5.1205 -5.83913 0.657192 0
M  V30 80 H 6.6445 -6.10138 -0.237598 0
M  V30 81 H 8.0585 -5.40083 1.92311 0
M  V30 82 H 6.4555 -5.3528 2.71284 0
M  V30 83 H 7.5255 -3.94346 2.82169 0
M  V30 84 N 8.8686 -0.792821 -1.36206 0
M  V30 85 C 10.0936 -0.377701 -2.03932 0
M  V30 86 C 10.5186 0.998947 -1.59382 0
M  V30 87 O 9.8766 1.64421 -0.763903 0
M  V30 88 C 9.9246 -0.453635 -3.57735 0
M  V30 89 O 9.0286 0.538151 -4.08874 0
M  V30 90 H 8.3696 -0.159855 -0.644471 0
M  V30 91 H 10.8996 -1.07488 -1.7409 0
M  V30 92 H 10.9096 -0.318464 -4.06755 0
M  V30 93 H 9.5846 -1.45784 -3.89512 0
M  V30 94 H 8.1616 0.364359 -3.71116 0
M  V30 95 N 10.3467 1.47872 -0.545128 0
M  V30 96 C 11.5717 2.07391 -0.0190611 0
M  V30 97 C 11.9967 1.39688 1.25971 0
M  V30 98 O 11.3547 0.467816 1.7516 0
M  V30 99 C 11.4027 3.60188 0.172335 0
M  V30 100 O 10.5067 3.9339 1.23766 0
M  V30 101 H 9.8477 0.662411 -0.0459059 0
M  V30 102 H 12.3777 1.90066 -0.757365 0
M  V30 103 H 12.3877 4.06129 0.390305 0
M  V30 104 H 11.0627 4.08865 -0.761725 0
M  V30 105 H 9.6397 3.5921 1.00114 0
M  V30 106 N 11.8248 0.280983 1.55075 0
M  V30 107 C 12.7548 -0.597469 2.25727 0
M  V30 108 C 13.7358 -1.15417 1.24952 0
M  V30 109 O 14.9208 -1.18722 1.53684 0
M  V30 110 C 12.0508 -1.7789 2.98283 0
M  V30 111 C 11.0048 -1.35347 4.06036 0
M  V30 112 C 10.3308 -2.61846 4.66198 0
M  V30 113 C 11.6308 -0.499354 5.19907 0
M  V30 114 H 13.3248 -0.00824265 2.99399 0
M  V30 115 H 10.8708 -0.0025244 1.44 0
M  V30 116 H 12.8238 -2.39937 3.46422 0
M  V30 117 H 11.5478 -2.39405 2.22155 0
M  V30 118 H 10.2068 -0.756156 3.58717 0
M  V30 119 H 9.8548 -3.21632 3.86732 0
M  V30 120 H 9.5548 -2.3409 5.38958 0
M  V30 121 H 11.0788 -3.24732 5.1709 0
M  V30 122 H 12.4928 -1.02498 5.64063 0
M  V30 123 H 10.8898 -0.316424 5.99265 0
M  V30 124 H 11.9598 0.480459 4.82514 0
M  V30 125 N 13.3029 -1.57598 0.00835791 0
M  V30 126 C 14.2329 -2.1198 -0.979113 0
M  V30 127 C 15.2139 -1.03091 -1.35301 0
M  V30 128 O 16.3989 -1.30818 -1.43528 0
M  V30 129 C 13.5289 -2.62995 -2.26828 0
M  V30 130 C 12.4829 -3.76485 -2.03576 0
M  V30 131 C 11.8089 -4.13846 -3.38579 0
M  V30 132 C 13.1089 -5.0342 -1.39161 0
M  V30 133 H 14.8029 -2.94738 -0.526281 0
M  V30 134 H 12.3489 -1.41783 -0.251704 0
M  V30 135 H 14.3019 -2.99669 -2.96271 0
M  V30 136 H 13.0259 -1.7737 -2.7424 0
M  V30 137 H 11.6849 -3.40217 -1.36557 0
M  V30 138 H 11.3329 -3.25232 -3.83709 0
M  V30 139 H 11.0329 -4.90312 -3.23834 0
M  V30 140 H 12.5569 -4.53086 -4.09323 0
M  V30 141 H 13.9709 -5.37812 -1.98573 0
M  V30 142 H 12.3679 -5.84746 -1.34878 0
M  V30 143 H 13.4379 -4.83548 -0.361868 0
M  V30 144 N 14.781 0.264519 -1.55364 0
M  V30 145 C 15.711 1.33121 -1.91836 0
M  V30 146 C 16.692 1.51101 -0.781192 0
M  V30 147 O 17.877 1.64003 -1.04003 0
M  V30 148 C 15.007 2.68921 -2.19769 0
M  V30 149 C 13.961 2.65661 -3.35571 0
M  V30 150 C 13.287 4.05093 -3.49004 0
M  V30 151 C 14.587 2.24187 -4.71739 0
M  V30 152 H 16.281 1.02844 -2.81182 0
M  V30 153 H 13.827 0.493286 -1.35287 0
M  V30 154 H 15.78 3.43663 -2.43872 0
M  V30 155 H 14.504 3.00799 -1.27231 0
M  V30 156 H 13.163 1.93377 -3.1145 0
M  V30 157 H 12.811 4.34206 -2.53917 0
M  V30 158 H 12.511 4.03804 -4.26868 0
M  V30 159 H 14.035 4.81561 -3.75408 0
M  V30 160 H 15.449 2.88654 -4.9533 0
M  V30 161 H 13.846 2.34044 -5.52579 0
M  V30 162 H 14.916 1.19327 -4.69988 0
M  V30 163 N 16.2591 1.48442 0.529413 0
M  V30 164 C 17.1891 1.65902 1.64313 0
M  V30 165 C 18.1701 0.507897 1.6234 0
M  V30 166 O 19.3551 0.740503 1.79528 0
M  V30 167 C 16.4851 1.69911 3.02898 0
M  V30 168 C 15.4391 2.8453 3.19729 0
M  V30 169 C 14.7651 2.73629 4.59381 0
M  V30 170 C 16.0651 4.25821 3.02447 0
M  V30 171 H 17.7591 2.5914 1.49955 0
M  V30 172 H 15.3051 1.24709 0.719982 0
M  V30 173 H 17.2581 1.80715 3.80684 0
M  V30 174 H 15.9821 0.732524 3.18279 0
M  V30 175 H 14.6411 2.73283 2.44361 0
M  V30 176 H 14.2891 1.74938 4.71599 0
M  V30 177 H 13.9891 3.50541 4.71588 0
M  V30 178 H 15.5131 2.86401 5.39265 0
M  V30 179 H 16.9271 4.37898 3.70024 0
M  V30 180 H 15.3241 5.03735 3.26146 0
M  V30 181 H 16.3941 4.42244 1.98867 0
M  V30 182 N 17.7372 -0.778329 1.37039 0
M  V30 183 C 18.6672 -1.90546 1.34962 0
M  V30 184 C 19.6482 -1.68681 0.219274 0
M  V30 185 O 20.8332 -1.89634 0.418624 0
M  V30 186 C 17.9632 -3.27734 1.14925 0
M  V30 187 C 16.9172 -3.64147 2.24902 0
M  V30 188 C 16.2432 -4.99806 1.89996 0
M  V30 189 C 17.5432 -3.71579 3.67051 0
M  V30 190 H 19.2372 -1.92541 2.29277 0
M  V30 191 H 16.7832 -0.924948 1.10366 0
M  V30 192 H 18.7362 -4.06215 1.12104 0
M  V30 193 H 17.4602 -3.26154 0.170631 0
M  V30 194 H 16.1192 -2.8797 2.26868 0
M  V30 195 H 15.7672 -4.94759 0.906796 0
M  V30 196 H 15.4672 -5.25139 2.63634 0
M  V30 197 H 16.9912 -5.80694 1.88749 0
M  V30 198 H 18.4052 -4.40227 3.67251 0
M  V30 199 H 16.8022 -4.08405 4.39688 0
M  V30 200 H 17.8722 -2.72404 4.01154 0
M  V30 201 N 19.2153 -1.21501 -1.00376 0
M  V30 202 C 20.1453 -0.999478 -2.11028 0
M  V30 203 C 21.1263 0.0759671 -1.6993 0
M  V30 204 O 22.3113 -0.0841106 -1.94018 0
M  V30 205 C 19.4413 -0.564709 -3.42678 0
M  V30 206 C 18.3953 -1.58486 -3.97576 0
M  V30 207 C 17.7213 -1.00628 -5.25146 0
M  V30 208 C 19.0213 -2.97204 -4.29496 0
M  V30 209 H 20.7153 -1.92495 -2.29317 0
M  V30 210 H 18.2613 -0.92693 -1.102 0
M  V30 211 H 20.2143 -0.401091 -4.19487 0
M  V30 212 H 18.9383 0.396411 -3.24185 0
M  V30 213 H 17.5973 -1.73606 -3.22888 0
M  V30 214 H 17.2453 -0.0368439 -5.02987 0
M  V30 215 H 16.9453 -1.68771 -5.62841 0
M  V30 216 H 18.4693 -0.854015 -6.04598 0
M  V30 217 H 19.8833 -2.8552 -4.97143 0
M  V30 218 H 18.2803 -3.62372 -4.78338 0
M  V30 219 H 19.3503 -3.47956 -3.3772 0
M  V30 220 N 20.6934 1.19889 -1.02296 0
M  V30 221 C 21.9394 1.89701 -0.717033 0
M  V30 222 C 22.2724 1.7905 0.751989 0
M  V30 223 O 21.5474 1.17891 1.547 0
M  V30 224 C 21.8304 3.40858 -1.16136 0
M  V30 225 C 21.6834 3.60411 -2.69117 0
M  V30 226 C 23.0024 4.33876 -0.737549 0
M  V30 227 H 20.1214 0.688874 -0.261957 0
M  V30 228 H 22.7634 1.41154 -1.27183 0
M  V30 229 H 20.9134 3.82335 -0.689342 0
M  V30 230 H 22.5854 3.28145 -3.2422 0
M  V30 231 H 20.8284 3.03665 -3.0979 0
M  V30 232 H 21.4994 4.66396 -2.95261 0
M  V30 233 H 23.9754 4.00081 -1.14344 0
M  V30 234 H 22.8514 5.38242 -1.0764 0
M  V30 235 H 23.1124 4.40628 0.360436 0
M  V30 236 N 22.1715 0.800033 1.35784 0
M  V30 237 C 23.1345 0.211565 2.28221 0
M  V30 238 C 24.1345 -0.59728 1.49296 0
M  V30 239 O 25.3245 -0.416721 1.69142 0
M  V30 240 C 22.4565 -0.705846 3.33513 0
M  V30 241 H 23.6495 1.02677 2.81776 0
M  V30 242 H 21.2025 0.570211 1.45528 0
M  V30 243 H 21.9375 -1.54498 2.85133 0
M  V30 244 H 21.7225 -0.127655 3.91892 0
M  V30 245 H 23.2125 -1.11211 4.02519 0
M  V30 246 N 23.6496 -1.47581 0.552962 0
M  V30 247 C 24.8746 -2.07378 0.0300593 0
M  V30 248 C 25.2996 -1.40355 -1.25229 0
M  V30 249 O 24.6576 -0.477099 -1.7491 0
M  V30 250 C 24.7056 -3.60274 -0.153231 0
M  V30 251 O 23.8096 -3.94041 -1.21678 0
M  V30 252 H 23.1506 -0.662158 0.0494182 0
M  V30 253 H 25.6806 -1.89662 0.767434 0
M  V30 254 H 25.6906 -4.0633 -0.368761 0
M  V30 255 H 24.3656 -4.08455 0.783397 0
M  V30 256 H 22.9426 -3.59735 -0.982079 0
M  V30 257 N 25.1277 -0.289203 -1.54924 0
M  V30 258 C 26.3757 0.322879 -1.99504 0
M  V30 259 C 26.6967 1.55313 -1.1791 0
M  V30 260 O 25.9667 1.94001 -0.272097 0
M  V30 261 H 24.5467 0.122291 -0.736922 0
M  V30 262 H 27.2087 -0.397802 -1.90797 0
M  V30 263 H 26.3047 0.603061 -3.06218 0
M  V30 264 N 26.6058 1.57591 -0.0167156 0
M  V30 265 C 27.8828 1.82547 0.702564 0
M  V30 266 C 28.2628 0.898018 1.91047 0
M  V30 267 O 27.6108 -0.0493456 2.28447 0
M  V30 268 C 27.8208 3.31459 1.09251 0
M  V30 269 C 29.1688 3.97622 1.48937 0
M  V30 270 O 30.1928 3.35881 1.18584 0
M  V30 271 O 29.0518 5.06415 2.05442 0
M  V30 272 H 26.1458 0.752268 0.343544 0
M  V30 273 H 28.6918 1.69644 -0.0434495 0
M  V30 274 H 27.4638 3.9061 0.23227 0
M  V30 275 H 27.0868 3.49422 1.89709 0
M  V30 276 N 28.0839 -0.256276 1.55502 0
M  V30 277 C 29.0469 -1.30047 1.88734 0
M  V30 278 C 30.0469 -1.4154 0.763086 0
M  V30 279 O 31.2369 -1.40403 1.03115 0
M  V30 280 C 28.3689 -2.67953 2.10747 0
M  V30 281 H 29.5619 -1.01802 2.82093 0
M  V30 282 H 27.1149 -0.495134 1.4825 0
M  V30 283 H 27.8499 -3.01351 1.19825 0
M  V30 284 H 27.6349 -2.60993 2.92617 0
M  V30 285 H 29.1249 -3.43368 2.37673 0
M  V30 286 N 29.562 -1.4872 -0.521534 0
M  V30 287 C 30.839 -1.4766 -1.2828 0
M  V30 288 C 31.219 -0.19292 -2.10217 0
M  V30 289 O 30.567 0.825193 -2.13079 0
M  V30 290 C 30.777 -2.74358 -2.15705 0
M  V30 291 C 32.125 -3.23028 -2.75569 0
M  V30 292 O 33.149 -2.75333 -2.25987 0
M  V30 293 O 32.008 -4.0604 -3.65778 0
M  V30 294 H 29.102 -0.590085 -0.579421 0
M  V30 295 H 31.648 -1.60963 -0.537492 0
M  V30 296 H 30.42 -3.59292 -1.54999 0
M  V30 297 H 30.043 -2.63816 -2.97467 0
M  V30 298 N 31.0401 0.771051 -1.3745 0
M  V30 299 C 31.9731 1.89166 -1.27638 0
M  V30 300 C 32.9511 1.61842 -0.156782 0
M  V30 301 O 34.1351 1.85569 -0.331111 0
M  V30 302 C 31.2621 3.24405 -0.973621 0
M  V30 303 C 30.3081 3.70638 -2.1102 0
M  V30 304 S 31.1411 3.84228 -3.73 0
M  V30 305 C 32.2971 5.22313 -3.44876 0
M  V30 306 H 32.5301 1.972 -2.22485 0
M  V30 307 H 30.0631 0.932224 -1.23081 0
M  V30 308 H 32.0211 4.02514 -0.805766 0
M  V30 309 H 30.6821 3.14071 -0.0426279 0
M  V30 310 H 29.8751 4.68685 -1.85338 0
M  V30 311 H 29.4771 2.99632 -2.23822 0
M  V30 312 H 31.7691 6.07505 -2.99908 0
M  V30 313 H 32.7121 5.53008 -4.42253 0
M  V30 314 H 33.1201 4.90284 -2.79789 0
M  V30 315 N 32.5182 1.22032 0.997298 0
M  V30 316 C 33.4652 0.986467 2.08656 0
M  V30 317 C 34.4352 -0.0902671 1.65855 0
M  V30 318 O 35.6202 0.0584294 1.90711 0
M  V30 319 C 32.7602 0.565569 3.40434 0
M  V30 320 C 31.8732 1.71259 3.96604 0
M  V30 321 C 31.0082 1.24011 5.16522 0
M  V30 322 C 30.0472 2.35896 5.64818 0
M  V30 323 N 29.1842 1.89726 6.7598 0
M  V30 324 H 34.0242 1.91892 2.27994 0
M  V30 325 H 31.5612 0.956199 1.11782 0
M  V30 326 H 33.5192 0.302738 4.161 0
M  V30 327 H 32.1492 -0.329879 3.2111 0
M  V30 328 H 31.2012 2.08986 3.17851 0
M  V30 329 H 32.5132 2.55436 4.28432 0
M  V30 330 H 31.6672 0.934395 5.99461 0
M  V30 331 H 30.4062 0.368487 4.86306 0
M  V30 332 H 29.4112 2.67261 4.8047 0
M  V30 333 H 30.6362 3.23567 5.97061 0
M  V30 334 H 28.5822 1.0492 6.47555 0
M  V30 335 H 28.4992 2.67471 7.07103 0
M  V30 336 H 29.7672 1.62211 7.62435 0
M  V30 337 N 33.9963 -1.19345 1.0293 0
M  V30 338 C 35.2443 -1.88665 0.724574 0
M  V30 339 C 35.5653 -1.80036 -0.749144 0
M  V30 340 O 34.8353 -1.2111 -1.53978 0
M  V30 341 H 33.4153 -0.698406 0.265025 0
M  V30 342 H 36.0773 -1.44885 1.30362 0
M  V30 343 H 35.1733 -2.94987 1.01926 0
M  V30 344 N 35.4744 -0.807222 -1.35358 0
M  V30 345 C 36.4244 -0.190706 -2.27201 0
M  V30 346 C 37.4084 0.635838 -1.47804 0
M  V30 347 O 38.6004 0.492991 -1.69996 0
M  V30 348 C 35.7294 0.659337 -3.36909 0
M  V30 349 C 34.8154 -0.176971 -4.23731 0
M  V30 350 N 35.2064 -1.24029 -4.90357 0
M  V30 351 C 33.5044 0.0412953 -4.45981 0
M  V30 352 C 34.2054 -1.75092 -5.54723 0
M  V30 353 N 33.1814 -1.05727 -5.33219 0
M  V30 354 H 36.9834 -1.0043 -2.76208 0
M  V30 355 H 34.4974 -0.648445 -1.48892 0
M  V30 356 H 36.4944 1.11706 -4.01656 0
M  V30 357 H 35.1544 1.47127 -2.89454 0
M  V30 358 H 36.1654 -1.62295 -4.91814 0
M  V30 359 H 32.8424 0.82232 -4.09322 0
M  V30 360 H 34.2324 -2.63963 -6.17878 0
M  V30 361 N 36.9525 1.47285 -0.560781 0
M  V30 362 C 38.1995 2.02464 -0.038062 0
M  V30 363 C 38.5275 1.43474 1.31322 0
M  V30 364 O 37.7825 0.581311 1.86867 0
M  V30 365 C 38.0815 3.57258 0.100784 0
M  V30 366 C 37.7475 4.35184 -1.18007 0
M  V30 367 C 36.4095 4.56194 -1.53103 0
M  V30 368 C 38.7615 4.80098 -2.02867 0
M  V30 369 C 36.0895 5.19367 -2.729 0
M  V30 370 C 38.4415 5.44593 -3.21871 0
M  V30 371 C 37.1055 5.63835 -3.57276 0
M  V30 372 H 36.3755 0.740869 -0.0139279 0
M  V30 373 H 39.0225 1.76916 -0.733012 0
M  V30 374 H 37.3275 3.81819 0.878724 0
M  V30 375 H 39.0245 3.97606 0.520639 0
M  V30 376 H 35.6145 4.19113 -0.8968 0
M  V30 377 H 39.7985 4.63642 -1.7706 0
M  V30 378 H 35.0545 5.32459 -3.00496 0
M  V30 379 H 39.2285 5.78358 -3.87911 0
M  V30 380 H 36.8555 6.12557 -4.50197 0
M  V30 381 N 38.4306 0.297415 1.54768 0
M  V30 382 C 39.7076 -0.365847 1.92148 0
M  V30 383 C 40.0876 -1.71975 1.22424 0
M  V30 384 O 39.4356 -2.25666 0.358739 0
M  V30 385 C 39.6456 -0.484056 3.45627 0
M  V30 386 C 40.9936 -0.756594 4.17805 0
M  V30 387 O 42.0176 -0.568007 3.51642 0
M  V30 388 O 40.8766 -1.11863 5.34929 0
M  V30 389 H 37.9706 -0.203919 0.801465 0
M  V30 390 H 40.5166 0.34521 1.66152 0
M  V30 391 H 39.2886 0.467865 3.88493 0
M  V30 392 H 38.9116 -1.24372 3.77647 0
M  V30 393 N 39.9087 -1.5758 0.0250728 0
M  V30 394 C 41.3197 -1.79476 -0.514323 0
M  V30 395 C 41.6707 -0.934956 -1.72491 0
M  V30 396 O 40.7957 -0.144245 -2.15919 0
M  V30 397 C 41.3907 -3.25503 -0.939842 0
M  V30 398 C 39.9497 -3.48408 -1.42438 0
M  V30 399 C 39.0967 -2.74583 -0.387201 0
M  V30 400 H 42.0477 -1.567 0.25113 0
M  V30 401 H 42.0687 -3.34992 -1.80445 0
M  V30 402 H 41.5807 -3.88056 -0.0585628 0
M  V30 403 H 39.6817 -2.91103 -2.32572 0
M  V30 404 H 39.7947 -4.57119 -1.43455 0
M  V30 405 H 38.1587 -2.39942 -0.854409 0
M  V30 406 H 38.9417 -3.39849 0.485543 0
M  V30 407 N 41.3868 0.248026 -1.55636 0
M  V30 408 C 42.3498 1.29044 -1.89421 0
M  V30 409 C 43.3498 1.41134 -0.770581 0
M  V30 410 O 44.5398 1.39854 -1.03858 0
M  V30 411 C 41.6718 2.66831 -2.12165 0
M  V30 412 H 42.8648 1.00305 -2.82629 0
M  V30 413 H 40.4178 0.487265 -1.48511 0
M  V30 414 H 41.1528 3.00711 -1.21422 0
M  V30 415 H 40.9378 2.59438 -2.93997 0
M  V30 416 H 42.4278 3.42103 -2.3949 0
M  V30 417 N 42.8649 1.48995 0.513639 0
M  V30 418 C 43.8119 1.6473 1.61656 0
M  V30 419 C 44.7819 0.488984 1.58739 0
M  V30 420 O 45.9669 0.714478 1.76918 0
M  V30 421 C 43.1069 1.7082 2.99858 0
M  V30 422 C 42.2199 2.9787 3.12885 0
M  V30 423 C 41.3549 2.95017 4.41744 0
M  V30 424 C 40.3939 4.16702 4.48359 0
M  V30 425 N 39.5309 4.11832 5.68629 0
M  V30 426 H 44.3709 2.58909 1.47547 0
M  V30 427 H 41.9079 1.28382 0.71808 0
M  V30 428 H 43.8659 1.72331 3.79944 0
M  V30 429 H 42.4959 0.801181 3.12699 0
M  V30 430 H 41.5479 3.06029 2.25944 0
M  V30 431 H 42.8599 3.8786 3.13633 0
M  V30 432 H 42.0139 2.95021 5.30139 0
M  V30 433 H 40.7529 2.02784 4.43542 0
M  V30 434 H 39.7579 4.16955 3.58369 0
M  V30 435 H 40.9829 5.10113 4.48287 0
M  V30 436 H 38.9289 3.22428 5.71293 0
M  V30 437 H 38.8459 4.95543 5.7094 0
M  V30 438 H 40.1139 4.1592 6.59266 0
M  V30 439 N 44.343 -0.763751 1.37857 0
M  V30 440 C 45.583 -1.53551 1.34913 0
M  V30 441 C 45.947 -1.91895 -0.0635882 0
M  V30 442 O 47.148 -2.67916 -0.217825 0
M  V30 443 C 45.419 -2.76126 2.26912 0
M  V30 444 S 46.978 -3.66105 2.41893 0
M  V30 445 H 43.796 -0.52559 0.478828 0
M  V30 446 H 46.398 -0.897435 1.73685 0
M  V30 447 H 45.102 -2.4605 3.28463 0
M  V30 448 H 44.633 -3.44887 1.89253 0
M  V30 449 H 46.648 -4.68473 1.63545 0
M  V30 450 N 45.8211 -1.22559 -0.990812 0
M  V30 451 C 47.2371 -0.985996 -1.255 0
M  V30 452 C 47.4371 0.319173 -1.98956 0
M  V30 453 O 46.4931 1.04127 -2.3003 0
M  V30 454 C 47.8061 -2.18607 -2.06474 0
M  V30 455 C 49.3541 -2.22985 -2.19651 0
M  V30 456 C 49.8291 -3.4255 -3.04012 0
M  V30 457 N 51.3201 -3.42725 -3.11599 0
M  V30 458 C 52.0551 -4.31892 -3.7717 0
M  V30 459 N 51.5511 -5.31279 -4.44651 0
M  V30 460 N 53.3441 -4.19662 -3.73952 0
M  V30 461 H 45.4951 -2.06469 -0.49841 0
M  V30 462 H 47.7581 -0.904853 -0.282747 0
M  V30 463 H 47.4641 -3.13267 -1.59865 0
M  V30 464 H 47.3381 -2.18838 -3.07229 0
M  V30 465 H 49.7251 -1.28871 -2.65474 0
M  V30 466 H 49.8061 -2.26791 -1.18319 0
M  V30 467 H 49.4501 -4.36965 -2.58889 0
M  V30 468 H 49.3801 -3.35984 -4.0549 0
M  V30 469 H 51.8711 -2.70807 -2.63575 0
M  V30 470 H 52.1841 -5.95593 -4.92431 0
M  V30 471 H 50.5291 -5.3519 -4.43392 0
M  V30 472 H 53.7201 -3.41268 -3.20396 0
M  V30 473 H 53.8931 -4.89358 -4.24774 0
M  V30 474 N 47.2992 1.18797 -1.03562 0
M  V30 475 C 48.5292 1.92319 -0.754773 0
M  V30 476 C 48.9372 1.7612 0.691248 0
M  V30 477 O 48.2802 1.08491 1.48241 0
M  V30 478 C 48.3422 3.44284 -1.03484 0
M  V30 479 C 48.0062 3.84258 -2.47376 0
M  V30 480 C 49.0032 3.88459 -3.45537 0
M  V30 481 C 46.6882 4.15701 -2.81954 0
M  V30 482 C 48.6822 4.23545 -4.76328 0
M  V30 483 C 46.3692 4.50458 -4.12954 0
M  V30 484 C 47.3672 4.54356 -5.09951 0
M  V30 485 O 47.0552 4.88305 -6.38603 0
M  V30 486 H 46.7872 0.617527 -0.275021 0
M  V30 487 H 49.3412 1.51683 -1.38497 0
M  V30 488 H 47.5712 3.85135 -0.347513 0
M  V30 489 H 49.2602 3.99049 -0.7426 0
M  V30 490 H 50.0262 3.6431 -3.20162 0
M  V30 491 H 45.9052 4.11847 -2.0713 0
M  V30 492 H 49.4492 4.26502 -5.52035 0
M  V30 493 H 45.3462 4.74067 -4.38099 0
M  V30 494 H 46.1142 5.06227 -6.43177 0
M  V30 495 N 48.7773 0.814389 1.34928 0
M  V30 496 C 49.7403 0.235759 2.27984 0
M  V30 497 C 50.7403 -0.581412 1.49921 0
M  V30 498 O 51.9303 -0.398758 1.69575 0
M  V30 499 C 49.0623 -0.670433 3.34242 0
M  V30 500 H 50.2553 1.05659 2.80671 0
M  V30 501 H 47.8083 0.585614 1.44915 0
M  V30 502 H 48.5433 -1.51466 2.86755 0
M  V30 503 H 48.3283 -0.0860822 3.92005 0
M  V30 504 H 49.8183 -1.06935 4.03676 0
M  V30 505 N 50.2554 -1.46986 0.568584 0
M  V30 506 C 51.1854 -2.32946 -0.160753 0
M  V30 507 C 52.1664 -1.44487 -0.897631 0
M  V30 508 O 53.3514 -1.73327 -0.875867 0
M  V30 509 C 50.4814 -3.26494 -1.18403 0
M  V30 510 C 49.4354 -4.24282 -0.562895 0
M  V30 511 C 48.7614 -5.07236 -1.69163 0
M  V30 512 C 50.0614 -5.19989 0.490761 0
M  V30 513 H 51.7554 -2.94175 0.556916 0
M  V30 514 H 49.3014 -1.4146 0.26927 0
M  V30 515 H 51.2544 -3.85477 -1.70251 0
M  V30 516 H 49.9784 -2.63343 -1.93179 0
M  V30 517 H 48.6374 -3.66541 -0.0656164 0
M  V30 518 H 48.2854 -4.4048 -2.42871 0
M  V30 519 H 47.9854 -5.7345 -1.28174 0
M  V30 520 H 49.5094 -5.6908 -2.21314 0
M  V30 521 H 50.9234 -5.73271 0.0579047 0
M  V30 522 H 49.3204 -5.94469 0.820165 0
M  V30 523 H 50.3904 -4.64777 1.3824 0
M  V30 524 N 51.7335 -0.305618 -1.54608 0
M  V30 525 C 52.9815 0.301701 -1.99835 0
M  V30 526 C 53.3025 1.54054 -1.19551 0
M  V30 527 O 52.5725 1.93702 -0.292658 0
M  V30 528 H 51.1525 0.114468 -0.738178 0
M  V30 529 H 53.8145 -0.418016 -1.90364 0
M  V30 530 H 52.9105 0.570548 -3.06841 0
M  V30 531 N 53.2116 1.57565 -0.0334293 0
M  V30 532 C 54.1446 2.05997 0.981866 0
M  V30 533 C 55.1226 0.956647 1.3148 0
M  V30 534 O 56.3066 1.22729 1.43073 0
M  V30 535 C 53.4336 2.48564 2.30074 0
M  V30 536 C 52.4796 3.69958 2.12211 0
M  V30 537 S 53.3126 5.16414 1.41692 0
M  V30 538 C 54.4686 5.6228 2.7494 0
M  V30 539 H 54.7016 2.91792 0.569612 0
M  V30 540 H 52.2346 1.53366 0.178376 0
M  V30 541 H 54.1926 2.73753 3.05892 0
M  V30 542 H 52.8536 1.63106 2.68431 0
M  V30 543 H 52.0466 3.97603 3.09722 0
M  V30 544 H 51.6486 3.44943 1.44535 0
M  V30 545 H 53.9406 5.66783 3.71165 0
M  V30 546 H 54.8836 6.61759 2.51953 0
M  V30 547 H 55.2916 4.89944 2.80384 0
M  V30 548 N 54.6897 -0.239769 1.55765 0
M  V30 549 C 55.6217 -1.32001 1.87372 0
M  V30 550 C 56.6347 -1.43944 0.760522 0
M  V30 551 O 57.8237 -1.45167 1.0387 0
M  V30 552 C 54.9237 -2.69779 2.05115 0
M  V30 553 C 54.0967 -2.80014 3.36022 0
M  V30 554 C 53.1557 -3.98684 3.4342 0
M  V30 555 O 52.1817 -3.87877 4.16582 0
M  V30 556 N 53.3837 -5.12176 2.73232 0
M  V30 557 H 56.1487 -1.0522 2.80622 0
M  V30 558 H 53.7097 -0.429857 1.56089 0
M  V30 559 H 55.7017 -3.47517 2.07399 0
M  V30 560 H 54.2717 -2.89237 1.18577 0
M  V30 561 H 53.4917 -1.88896 3.45994 0
M  V30 562 H 54.7797 -2.83808 4.22292 0
M  V30 563 H 54.1777 -5.2385 2.13536 0
M  V30 564 H 52.7347 -5.88022 2.81199 0
M  V30 565 N 56.1678 -1.49265 -0.50573 0
M  V30 566 C 57.4448 -1.49012 -1.26707 0
M  V30 567 C 57.8248 -0.215205 -2.1 0
M  V30 568 O 57.1728 0.802547 -2.13943 0
M  V30 569 C 57.3828 -2.7663 -2.12783 0
M  V30 570 C 58.7308 -3.25932 -2.72127 0
M  V30 571 O 59.7548 -2.77715 -2.23054 0
M  V30 572 O 58.6138 -4.09897 -3.61451 0
M  V30 573 H 55.7078 -0.596197 -0.57313 0
M  V30 574 H 58.2538 -1.61524 -0.52039 0
M  V30 575 H 57.0258 -3.60916 -1.5118 0
M  V30 576 H 56.6488 -2.66956 -2.94653 0
M  V30 577 N 57.6459 0.756429 -1.3826 0
M  V30 578 C 59.0619 1.0591 -1.19395 0
M  V30 579 C 59.2619 2.01459 -0.0406567 0
M  V30 580 O 58.3179 2.44909 0.614467 0
M  V30 581 C 59.6309 1.64191 -2.51916 0
M  V30 582 C 61.1789 1.76376 -2.58574 0
M  V30 583 C 61.6539 2.38069 -3.91264 0
M  V30 584 N 63.1449 2.45503 -3.92788 0
M  V30 585 C 63.8799 2.94126 -4.92217 0
M  V30 586 N 63.3759 3.42805 -6.02043 0
M  V30 587 N 65.1689 2.9314 -4.7961 0
M  V30 588 H 57.3199 0.122313 -2.12048 0
M  V30 589 H 59.5829 0.116892 -0.940766 0
M  V30 590 H 59.2889 1.01451 -3.3675 0
M  V30 591 H 59.1629 2.6329 -2.70108 0
M  V30 592 H 61.5499 2.38244 -1.74137 0
M  V30 593 H 61.6309 0.759894 -2.44252 0
M  V30 594 H 61.2749 1.76835 -4.76121 0
M  V30 595 H 61.2049 3.39091 -4.02895 0
M  V30 596 H 63.6959 2.1107 -3.13461 0
M  V30 597 H 64.0089 3.78354 -6.73846 0
M  V30 598 H 62.3539 3.4087 -6.05667 0
M  V30 599 H 65.5449 2.54419 -3.92923 0
M  V30 600 H 65.7179 3.30721 -5.5725 0
M  V30 601 N 59.124 1.23083 0.984299 0
M  V30 602 C 60.352 1.08714 1.76037 0
M  V30 603 C 60.767 -0.361691 1.85303 0
M  V30 604 O 60.124 -1.25034 1.32939 0
M  V30 605 C 60.175 1.70206 3.18923 0
M  V30 606 O 59.896 3.09423 3.10144 0
M  V30 607 C 61.397 1.61227 4.12941 0
M  V30 608 H 58.617 0.380664 0.552572 0
M  V30 609 H 61.161 1.62853 1.23689 0
M  V30 610 H 59.316 1.20109 3.6831 0
M  V30 611 H 59.73 3.39188 4.00065 0
M  V30 612 H 61.204 2.08962 5.10919 0
M  V30 613 H 61.681 0.570375 4.35481 0
M  V30 614 H 62.287 2.10671 3.69456 0
M  V30 615 N 60.6021 -1.18246 1.0419 0
M  V30 616 C 61.8511 -1.87588 0.741194 0
M  V30 617 C 62.1641 -1.81303 -0.734066 0
M  V30 618 O 63.3701 -2.46019 -1.14834 0
M  V30 619 C 61.8261 -3.36538 1.27555 0
M  V30 620 C 61.4341 -3.51349 2.77953 0
M  V30 621 C 63.1781 -4.11273 1.05143 0
M  V30 622 C 61.0851 -4.94265 3.2474 0
M  V30 623 H 60.0151 -0.702622 0.273565 0
M  V30 624 H 62.6661 -1.33601 1.25789 0
M  V30 625 H 61.0481 -3.9 0.686703 0
M  V30 626 H 62.2221 -3.08153 3.42605 0
M  V30 627 H 60.5371 -2.90022 2.98791 0
M  V30 628 H 63.1341 -5.16689 1.37611 0
M  V30 629 H 63.4771 -4.16298 -0.0112774 0
M  V30 630 H 64.0101 -3.63987 1.60495 0
M  V30 631 H 60.7491 -4.94408 4.30396 0
M  V30 632 H 60.2691 -5.38172 2.64823 0
M  V30 633 H 61.9481 -5.62987 3.18834 0
M  V30 634 N 62.0802 -0.821533 -1.34494 0
M  V30 635 C 63.4912 -0.467956 -1.8074 0
M  V30 636 C 63.8422 1.01151 -1.68116 0
M  V30 637 O 62.9672 1.78707 -1.22036 0
M  V30 638 C 63.5622 -0.842627 -3.28154 0
M  V30 639 C 62.1212 -0.541439 -3.72485 0
M  V30 640 C 61.2682 -1.06028 -2.56229 0
M  V30 641 H 64.2192 -1.01183 -1.22261 0
M  V30 642 H 64.2402 -0.145876 -3.8022 0
M  V30 643 H 63.7522 -1.91945 -3.37311 0
M  V30 644 H 61.8532 0.526034 -3.68868 0
M  V30 645 H 61.9662 -1.08453 -4.66663 0
M  V30 646 H 60.3302 -0.481892 -2.501 0
M  V30 647 H 61.1132 -2.14352 -2.68157 0
M  V30 648 N 63.5583 1.46682 -0.576371 0
M  V30 649 C 64.8353 1.95599 0.00703437 0
M  V30 650 C 65.2153 1.51904 1.46589 0
M  V30 651 O 64.5633 0.766755 2.15251 0
M  V30 652 C 64.7733 3.4864 -0.158404 0
M  V30 653 C 66.1213 4.24594 -0.0229439 0
M  V30 654 O 67.1453 3.56094 -0.0869173 0
M  V30 655 O 66.0043 5.46373 0.118015 0
M  V30 656 H 63.0983 0.825275 0.053384 0
M  V30 657 H 65.6443 1.56996 -0.644244 0
M  V30 658 H 64.4163 3.7331 -1.17282 0
M  V30 659 H 64.0393 3.94057 0.5296 0
M  V30 660 N 65.0364 0.313813 1.54444 0
M  V30 661 C 66.2614 -0.296681 2.05267 0
M  V30 662 C 66.6864 -1.45757 1.18897 0
M  V30 663 O 66.0444 -1.80239 0.195886 0
M  V30 664 C 66.0924 -0.71831 3.53373 0
M  V30 665 O 65.1964 -1.82175 3.69981 0
M  V30 666 H 64.5374 -0.0554061 0.661684 0
M  V30 667 H 67.0674 0.459387 1.99376 0
M  V30 668 H 67.0774 -1.00364 3.95463 0
M  V30 669 H 65.7524 0.130821 4.15694 0
M  V30 670 H 64.3294 -1.53598 3.39797 0
M  V30 671 N 66.5145 -1.57545 0.0417849 0
M  V30 672 C 67.7915 -1.83642 -0.673433 0
M  V30 673 C 68.1715 -0.928298 -1.89594 0
M  V30 674 O 67.5195 0.0129955 -2.28496 0
M  V30 675 C 67.7295 -3.33155 -1.03964 0
M  V30 676 C 69.0775 -3.99941 -1.42592 0
M  V30 677 O 70.1015 -3.37725 -1.13226 0
M  V30 678 O 68.9605 -5.09619 -1.9736 0
M  V30 679 H 66.0545 -0.757638 -0.331533 0
M  V30 680 H 68.6005 -1.69554 0.070433 0
M  V30 681 H 67.3725 -3.9093 -0.170098 0
M  V30 682 H 66.9955 -3.52396 -1.84126 0
M  V30 683 N 67.9926 0.231505 -1.5589 0
M  V30 684 C 69.2416 0.955346 -1.7764 0
M  V30 685 C 69.5546 1.85893 -0.608546 0
M  V30 686 O 70.7606 2.62067 -0.70943 0
M  V30 687 C 69.2166 1.74886 -3.14552 0
M  V30 688 C 68.8246 0.891915 -4.39032 0
M  V30 689 C 70.5686 2.46452 -3.45633 0
M  V30 690 C 68.4756 1.68221 -5.66971 0
M  V30 691 H 67.4056 0.360446 -0.662265 0
M  V30 692 H 70.0566 0.209516 -1.823 0
M  V30 693 H 68.4386 2.53723 -3.04041 0
M  V30 694 H 69.6126 0.144793 -4.60572 0
M  V30 695 H 67.9276 0.288863 -4.15397 0
M  V30 696 H 70.5246 3.06061 -4.38441 0
M  V30 697 H 70.8676 3.18841 -2.67668 0
M  V30 698 H 71.4006 1.74613 -3.57428 0
M  V30 699 H 68.1396 1.00178 -6.478 0
M  V30 700 H 67.6596 2.4042 -5.49507 0
M  V30 701 H 69.3386 2.24544 -6.06786 0
M  V30 702 N 69.4707 1.49531 0.497807 0
M  V30 703 C 70.6957 1.63159 1.28039 0
M  V30 704 C 71.1207 0.30418 1.85624 0
M  V30 705 O 70.4787 -0.728618 1.66015 0
M  V30 706 C 70.5267 2.70537 2.38416 0
M  V30 707 O 69.6307 2.29931 3.42353 0
M  V30 708 H 68.9717 0.546001 0.377861 0
M  V30 709 H 71.5017 1.9574 0.59558 0
M  V30 710 H 71.5117 2.92802 2.84132 0
M  V30 711 H 70.1867 3.6689 1.95869 0
M  V30 712 H 68.7637 2.18009 3.02533 0
M  V30 713 N 70.9488 -0.749086 1.3866 0
M  V30 714 C 71.9118 -1.84457 1.36045 0
M  V30 715 C 72.9118 -1.58682 0.260122 0
M  V30 716 O 74.1018 -1.66343 0.517261 0
M  V30 717 C 71.2338 -3.22008 1.11911 0
M  V30 718 H 72.4268 -1.88182 2.33512 0
M  V30 719 H 69.9798 -0.951266 1.24019 0
M  V30 720 H 70.7148 -3.2395 0.150686 0
M  V30 721 H 70.4998 -3.42111 1.91579 0
M  V30 722 H 71.9898 -4.0208 1.12788 0
M  V30 723 N 72.4269 -1.23603 -0.977757 0
M  V30 724 C 73.6519 -1.09735 -1.75991 0
M  V30 725 C 74.0769 0.346858 -1.84874 0
M  V30 726 O 73.4349 1.25093 -1.3123 0
M  V30 727 C 73.4829 -1.73051 -3.16363 0
M  V30 728 O 72.5869 -0.994452 -4.0023 0
M  V30 729 H 71.9279 -0.384476 -0.541364 0
M  V30 730 H 74.4579 -1.6371 -1.2272 0
M  V30 731 H 74.4679 -1.78398 -3.66931 0
M  V30 732 H 73.1429 -2.78137 -3.09213 0
M  V30 733 H 71.7199 -1.01812 -3.58732 0
M  V30 734 N 73.905 1.17692 -1.04816 0
M  V30 735 C 75.13 1.92327 -0.776207 0
M  V30 736 C 75.555 1.76082 0.661581 0
M  V30 737 O 74.913 1.076 1.45917 0
M  V30 738 C 74.961 3.41539 -1.15687 0
M  V30 739 O 74.065 4.11402 -0.286775 0
M  V30 740 H 73.406 0.599735 -0.284981 0
M  V30 741 H 75.936 1.49201 -1.4 0
M  V30 742 H 75.946 3.92269 -1.12202 0
M  V30 743 H 74.621 3.52684 -2.20425 0
M  V30 744 H 73.198 3.70939 -0.381903 0
M  V30 745 N 75.3831 0.828654 1.34056 0
M  V30 746 C 76.6081 0.431637 2.02859 0
M  V30 747 C 77.0331 -0.956339 1.61975 0
M  V30 748 O 76.3911 -1.62338 0.807228 0
M  V30 749 C 76.4391 0.548323 3.56407 0
M  V30 750 O 75.5431 -0.429556 4.10157 0
M  V30 751 H 74.8841 0.176886 0.640006 0
M  V30 752 H 77.4141 1.12066 1.71179 0
M  V30 753 H 77.4241 0.426196 4.05768 0
M  V30 754 H 76.0991 1.5606 3.8551 0
M  V30 755 H 74.6761 -0.265836 3.71951 0
M  V30 756 N 76.8612 -1.46375 0.584142 0
M  V30 757 C 78.1072 -2.03248 0.0787103 0
M  V30 758 C 78.4622 -1.44737 -1.26763 0
M  V30 759 O 77.7552 -0.603625 -1.81843 0
M  V30 760 C 77.9492 -3.57373 -0.0439342 0
M  V30 761 C 77.7782 -4.30831 1.28897 0
M  V30 762 C 76.5482 -4.69683 1.8635 0
M  V30 763 C 78.7462 -4.64278 2.21248 0
M  V30 764 N 76.7282 -5.27898 3.13365 0
M  V30 765 C 78.0992 -5.23078 3.32851 0
M  V30 766 C 80.1542 -4.46209 2.20911 0
M  V30 767 C 78.8572 -5.65715 4.44251 0
M  V30 768 C 80.8832 -4.89864 3.31341 0
M  V30 769 C 80.2452 -5.48736 4.41665 0
M  V30 770 H 76.3442 -0.778714 0.0716144 0
M  V30 771 H 78.9282 -1.78509 0.777355 0
M  V30 772 H 77.0992 -3.81823 -0.711749 0
M  V30 773 H 78.8312 -4.00892 -0.553881 0
M  V30 774 H 75.5862 -4.52488 1.39826 0
M  V30 775 H 76.0102 -5.61525 3.78178 0
M  V30 776 H 80.6522 -4.00027 1.36888 0
M  V30 777 H 78.3702 -6.10875 5.29015 0
M  V30 778 H 81.9562 -4.77634 3.322 0
M  V30 779 H 80.8362 -5.81898 5.25704 0
M  V30 780 N 78.3393 -0.321999 -1.54275 0
M  V30 781 C 79.5643 0.285791 -2.05422 0
M  V30 782 C 79.9893 1.45124 -1.19669 0
M  V30 783 O 79.3473 1.80132 -0.205441 0
M  V30 784 C 79.3953 0.69956 -3.53749 0
M  V30 785 O 78.4993 1.8021 -3.70942 0
M  V30 786 H 77.8403 0.0518962 -0.661969 0
M  V30 787 H 80.3703 -0.469954 -1.9913 0
M  V30 788 H 80.3803 0.982649 -3.9599 0
M  V30 789 H 79.0553 -0.152864 -4.15619 0
M  V30 790 H 77.6323 1.51794 -3.40607 0
M  V30 791 N 79.8174 1.5752 -0.0501392 0
M  V30 792 C 81.0944 1.83996 0.663685 0
M  V30 793 C 81.4744 0.938339 1.89099 0
M  V30 794 O 80.8224 -0.00087759 2.285 0
M  V30 795 C 81.0324 3.33702 1.02196 0
M  V30 796 C 82.3804 4.00691 1.40469 0
M  V30 797 O 83.4044 3.38321 1.11433 0
M  V30 798 O 82.2634 5.10658 1.94654 0
M  V30 799 H 79.3574 0.759385 0.32751 0
M  V30 800 H 81.9034 1.69514 -0.0794238 0
M  V30 801 H 80.6754 3.91015 0.149364 0
M  V30 802 H 80.2984 3.53368 1.82255 0
M  V30 803 N 81.2955 -0.223234 1.56011 0
M  V30 804 C 82.5205 -0.968978 1.83373 0
M  V30 805 C 82.9455 -1.77227 0.630254 0
M  V30 806 O 82.3035 -1.76345 -0.420959 0
M  V30 807 C 82.3515 -1.86363 3.08709 0
M  V30 808 O 81.4555 -2.95873 2.87285 0
M  V30 809 H 80.7965 -0.274461 0.604622 0
M  V30 810 H 83.3265 -0.237056 2.03222 0
M  V30 811 H 83.3365 -2.27376 3.38768 0
M  V30 812 H 82.0115 -1.27319 3.95933 0
M  V30 813 H 80.5885 -2.58818 2.68454 0
M  V30 814 N 82.7736 -1.49793 -0.48987 0
M  V30 815 C 84.0016 -1.63568 -1.26701 0
M  V30 816 C 84.4166 -0.311465 -1.86213 0
M  V30 817 O 83.7736 0.704416 -1.68357 0
M  V30 818 C 83.8246 -2.71284 -2.38929 0
M  V30 819 O 83.5456 -3.9857 -1.81861 0
M  V30 820 C 85.0466 -2.95864 -3.3012 0
M  V30 821 H 82.2666 -0.550342 -0.383881 0
M  V30 822 H 84.8106 -1.95898 -0.586864 0
M  V30 823 H 82.9656 -2.417 -3.02753 0
M  V30 824 H 83.3796 -4.57993 -2.55622 0
M  V30 825 H 84.8536 -3.74941 -4.05121 0
M  V30 826 H 85.3306 -2.06206 -3.87783 0
M  V30 827 H 85.9366 -3.26907 -2.72051 0
M  V30 828 N 84.2517 0.741722 -1.39055 0
M  V30 829 C 85.2147 1.83733 -1.37021 0
M  V30 830 C 86.2147 1.58542 -0.268534 0
M  V30 831 O 87.4047 1.66067 -0.526076 0
M  V30 832 C 84.5367 3.2141 -1.13617 0
M  V30 833 H 85.7297 1.86941 -2.34506 0
M  V30 834 H 83.2827 0.944676 -1.24521 0
M  V30 835 H 84.0177 3.23865 -0.167863 0
M  V30 836 H 83.8027 3.4109 -1.93391 0
M  V30 837 H 85.2927 4.01477 -1.14918 0
M  V30 838 N 85.7298 1.2412 0.971189 0
M  V30 839 C 86.6928 1.03156 2.04674 0
M  V30 840 C 87.6928 -0.00990322 1.60797 0
M  V30 841 O 88.8828 0.230729 1.72665 0
M  V30 842 C 86.0148 0.562765 3.36223 0
M  V30 843 H 87.2078 1.98614 2.24705 0
M  V30 844 H 84.7608 1.06293 1.14593 0
M  V30 845 H 85.4958 -0.395176 3.21883 0
M  V30 846 H 85.2808 1.31441 3.69413 0
M  V30 847 H 86.7708 0.437015 4.15307 0
M  V30 848 N 87.2079 -1.17134 1.05439 0
M  V30 849 C 88.6239 -1.39454 0.776201 0
M  V30 850 C 88.8239 -1.91454 -0.628307 0
M  V30 851 O 87.8799 -2.10777 -1.39031 0
M  V30 852 C 89.1929 -2.38305 1.83388 0
M  V30 853 C 90.7409 -2.52006 1.85639 0
M  V30 854 C 91.2159 -3.54133 2.90437 0
M  V30 855 N 92.7069 -3.61653 2.89415 0
M  V30 856 C 93.4419 -4.4044 3.67152 0
M  V30 857 N 92.9379 -5.22721 4.54681 0
M  V30 858 N 94.7309 -4.35337 3.55581 0
M  V30 859 H 86.8819 -0.817134 1.96053 0
M  V30 860 H 89.1449 -0.421626 0.849079 0
M  V30 861 H 88.8509 -2.07173 2.84204 0
M  V30 862 H 88.7249 -3.37841 1.67761 0
M  V30 863 H 91.1119 -2.82447 0.85486 0
M  V30 864 H 91.1929 -1.52537 2.05344 0
M  V30 865 H 90.8369 -3.24431 3.90777 0
M  V30 866 H 90.7669 -4.53313 2.67983 0
M  V30 867 H 93.2579 -3.02909 2.25952 0
M  V30 868 H 93.5709 -5.80027 5.10674 0
M  V30 869 H 91.9159 -5.22093 4.58741 0
M  V30 870 H 95.1069 -3.70112 2.86592 0
M  V30 871 H 95.2799 -4.96494 4.1641 0
M  V30 872 N 88.686 -0.835752 -1.33615 0
M  V30 873 C 89.636 -0.238856 -2.26745 0
M  V30 874 C 90.62 0.604343 -1.49119 0
M  V30 875 O 91.812 0.456822 -1.71003 0
M  V30 876 C 88.941 0.587725 -3.38232 0
M  V30 877 C 88.027 -0.266811 -4.2326 0
M  V30 878 N 88.418 -1.34403 -4.87616 0
M  V30 879 C 86.716 -0.0533131 -4.45968 0
M  V30 880 C 87.417 -1.86819 -5.50884 0
M  V30 881 N 86.393 -1.17013 -5.30857 0
M  V30 882 H 90.195 -1.06266 -2.74016 0
M  V30 883 H 87.709 -0.679881 -1.47483 0
M  V30 884 H 89.706 1.03161 -4.03935 0
M  V30 885 H 88.366 1.40954 -2.9251 0
M  V30 886 H 89.377 -1.7269 -4.88261 0
M  V30 887 H 86.054 0.735312 -4.10974 0
M  V30 888 H 87.444 -2.7701 -6.1214 0
M  V30 889 N 90.1641 1.46063 -0.591896 0
M  V30 890 C 91.3891 2.07226 -0.0850314 0
M  V30 891 C 91.8141 1.43625 1.21463 0
M  V30 892 O 91.1721 0.523305 1.73583 0
M  V30 893 C 91.2201 3.60554 0.0576567 0
M  V30 894 O 90.3241 3.97128 1.11188 0
M  V30 895 H 89.6651 0.660615 -0.0669568 0
M  V30 896 H 92.1951 1.8756 -0.81745 0
M  V30 897 H 92.2051 4.07165 0.2609 0
M  V30 898 H 90.8801 4.06235 -0.891416 0
M  V30 899 H 89.4571 3.62213 0.886356 0
M  V30 900 N 91.6422 0.330177 1.54103 0
M  V30 901 C 93.0582 -0.0222371 1.59585 0
M  V30 902 C 93.2582 -1.49902 1.34654 0
M  V30 903 O 92.3142 -2.25592 1.13421 0
M  V30 904 C 93.6272 0.401932 2.98002 0
M  V30 905 C 95.1752 0.353145 3.11001 0
M  V30 906 C 95.6502 0.752576 4.51775 0
M  V30 907 N 97.1412 0.706239 4.57784 0
M  V30 908 C 97.8762 0.987417 5.64834 0
M  V30 909 N 97.3722 1.33607 6.79795 0
M  V30 910 N 99.1652 0.91254 5.54643 0
M  V30 911 H 91.3162 1.29228 1.68564 0
M  V30 912 H 93.5792 0.525906 0.78875 0
M  V30 913 H 93.2852 1.4311 3.21267 0
M  V30 914 H 93.1592 -0.229699 3.765 0
M  V30 915 H 95.5462 -0.666822 2.87467 0
M  V30 916 H 95.6272 1.0198 2.34593 0
M  V30 917 H 95.2712 1.77049 4.76042 0
M  V30 918 H 95.2012 0.0635409 5.26562 0
M  V30 919 H 97.6922 0.44889 3.75224 0
M  V30 920 H 98.0052 1.53582 7.57385 0
M  V30 921 H 96.3502 1.37439 6.81275 0
M  V30 922 H 99.5412 0.639601 4.6371 0
M  V30 923 H 99.7142 1.13503 6.37982 0
M  V30 924 N 93.1203 -1.57491 0.0584922 0
M  V30 925 C 94.0503 -2.14988 -0.911178 0
M  V30 926 C 95.0313 -1.07343 -1.31952 0
M  V30 927 O 96.2163 -1.35318 -1.39294 0
M  V30 928 C 93.3463 -2.70078 -2.18347 0
M  V30 929 C 92.3003 -3.82771 -1.91495 0
M  V30 930 C 91.6263 -4.24408 -3.25241 0
M  V30 931 C 92.9263 -5.07592 -1.23075 0
M  V30 932 H 94.6203 -2.96263 -0.432246 0
M  V30 933 H 92.1663 -1.42512 -0.206469 0
M  V30 934 H 94.1193 -3.08943 -2.86587 0
M  V30 935 H 92.8433 -1.86005 -2.68458 0
M  V30 936 H 91.5023 -3.44389 -1.25664 0
M  V30 937 H 91.1503 -3.37275 -3.73168 0
M  V30 938 H 90.8503 -5.00366 -3.08071 0
M  V30 939 H 92.3743 -4.65879 -3.94701 0
M  V30 940 H 93.7883 -5.43857 -1.81362 0
M  V30 941 H 92.1853 -5.88741 -1.16207 0
M  V30 942 H 93.2553 -4.84454 -0.207847 0
M  V30 943 N 94.5984 0.214957 -1.56127 0
M  V30 944 C 95.5084 1.28727 -1.96129 0
M  V30 945 C 96.5244 1.50916 -0.866044 0
M  V30 946 O 97.7004 1.63918 -1.17016 0
M  V30 947 C 94.7654 2.61569 -2.27558 0
M  V30 948 C 93.8264 2.47625 -3.50685 0
M  V30 949 C 93.0594 3.74132 -3.80606 0
M  V30 950 O 93.2824 4.77438 -3.12104 0
M  V30 951 O 92.2164 3.70849 -4.74083 0
M  V30 952 H 96.0424 0.977855 -2.87527 0
M  V30 953 H 93.6274 0.418358 -1.43423 0
M  V30 954 H 95.5094 3.40012 -2.48938 0
M  V30 955 H 94.1844 2.92178 -1.39332 0
M  V30 956 H 93.0914 1.67361 -3.34576 0
M  V30 957 H 94.4244 2.21954 -4.39315 0
M  V30 958 N 96.0765 1.50051 0.48192 0
M  V30 959 C 97.3015 1.64508 1.26301 0
M  V30 960 C 97.7265 0.323851 1.85291 0
M  V30 961 O 97.0845 -0.710969 1.66778 0
M  V30 962 C 97.1325 2.7305 2.35533 0
M  V30 963 O 96.2365 2.3355 3.39895 0
M  V30 964 H 95.5775 0.549978 0.372048 0
M  V30 965 H 98.1075 1.9636 0.574786 0
M  V30 966 H 98.1175 2.95799 2.8101 0
M  V30 967 H 96.7925 3.68946 1.91967 0
M  V30 968 H 95.3695 2.21205 3.00204 0
M  V30 969 N 97.5546 -0.734337 1.39446 0
M  V30 970 C 98.7796 -1.52866 1.40167 0
M  V30 971 C 99.2046 -1.881 -0.00171513 0
M  V30 972 O 98.5626 -1.51957 -0.988879 0
M  V30 973 C 98.6106 -2.79235 2.28167 0
M  V30 974 O 97.7146 -3.75185 1.71201 0
M  V30 975 H 97.0556 -0.461618 0.477289 0
M  V30 976 H 99.5856 -0.905949 1.8345 0
M  V30 977 H 99.5956 -3.27963 2.42702 0
M  V30 978 H 98.2706 -2.52923 3.30156 0
M  V30 979 H 96.8476 -3.33958 1.65912 0
M  V30 980 N 99.0327 -1.24633 -0.964593 0
M  V30 981 C 100.31 -0.995809 -1.68354 0
M  V30 982 C 100.69 0.480964 -2.05548 0
M  V30 983 O 100.038 1.45599 -1.76105 0
M  V30 984 C 100.248 -1.92177 -2.91323 0
M  V30 985 C 101.596 -2.19446 -3.63495 0
M  V30 986 O 102.62 -1.89855 -3.01386 0
M  V30 987 O 101.479 -2.69714 -4.75307 0
M  V30 988 H 98.5727 -0.376854 -0.736146 0
M  V30 989 H 101.119 -1.35745 -1.0184 0
M  V30 990 H 99.8907 -2.91938 -2.60553 0
M  V30 991 H 99.5137 -1.56349 -3.65569 0
M  V30 992 N 100.511 1.16574 -1.06058 0
M  V30 993 C 101.759 1.86677 -0.77434 0
M  V30 994 C 102.08 1.81959 0.701147 0
M  V30 995 O 101.35 1.2515 1.50713 0
M  V30 996 H 99.9298 0.691134 -0.283449 0
M  V30 997 H 102.592 1.41378 -1.34158 0
M  V30 998 H 101.688 2.92181 -1.09711 0
M  V30 999 N 101.989 0.842826 1.3317 0
M  V30 1000 C 103.266 0.362216 1.92217 0
M  V30 1001 C 103.646 -1.15289 1.76838 0
M  V30 1002 O 102.994 -1.96914 1.15919 0
M  V30 1003 C 103.204 0.813495 3.39387 0
M  V30 1004 C 104.552 0.823804 4.16532 0
M  V30 1005 O 105.576 0.757358 3.48055 0
M  V30 1006 O 104.435 0.915193 5.38782 0
M  V30 1007 H 101.529 0.103317 0.820521 0
M  V30 1008 H 104.075 0.928942 1.42017 0
M  V30 1009 H 102.847 1.85624 3.4447 0
M  V30 1010 H 102.47 0.223561 3.96971 0
M  V30 1011 N 103.467 -1.45747 0.599634 0
M  V30 1012 C 104.715 -2.01893 0.0915472 0
M  V30 1013 C 105.036 -1.47155 -1.27946 0
M  V30 1014 O 104.306 -0.66273 -1.84349 0
M  V30 1015 H 102.886 -0.746363 0.0308524 0
M  V30 1016 H 105.548 -1.78645 0.779237 0
M  V30 1017 H 104.644 -3.1208 0.0353086 0
M  V30 1018 N 104.945 -0.338344 -1.53925 0
M  V30 1019 C 105.908 0.508299 -2.23493 0
M  V30 1020 C 106.908 1.03175 -1.23335 0
M  V30 1021 O 108.098 0.921826 -1.47811 0
M  V30 1022 C 105.23 1.70754 -2.95052 0
M  V30 1023 H 106.423 -0.100058 -2.99733 0
M  V30 1024 H 103.976 -0.0896198 -1.56043 0
M  V30 1025 H 104.711 2.35474 -2.22986 0
M  V30 1026 H 104.496 1.33946 -3.68512 0
M  V30 1027 H 105.986 2.30818 -3.48013 0
M  V30 1028 N 106.423 1.57458 -0.0668435 0
M  V30 1029 C 107.669 1.94401 0.598316 0
M  V30 1030 C 108.024 0.946335 1.67518 0
M  V30 1031 O 107.317 -0.0321442 1.91573 0
M  V30 1032 C 107.511 3.35784 1.22409 0
M  V30 1033 C 107.34 4.49212 0.209367 0
M  V30 1034 C 106.11 5.04887 -0.204218 0
M  V30 1035 C 108.308 5.11335 -0.551431 0
M  V30 1036 N 106.29 6.01854 -1.21016 0
M  V30 1037 C 107.661 6.03754 -1.41 0
M  V30 1038 C 109.716 4.94173 -0.608038 0
M  V30 1039 C 108.419 6.80854 -2.32013 0
M  V30 1040 C 110.445 5.71912 -1.50566 0
M  V30 1041 C 109.807 6.63976 -2.35191 0
M  V30 1042 H 105.906 0.758538 0.190114 0
M  V30 1043 H 108.49 1.94175 -0.142832 0
M  V30 1044 H 106.661 3.36757 1.93518 0
M  V30 1045 H 108.393 3.59976 1.84931 0
M  V30 1046 H 105.148 4.73266 0.177908 0
M  V30 1047 H 105.572 6.55035 -1.71049 0
M  V30 1048 H 110.214 4.22788 0.032022 0
M  V30 1049 H 107.932 7.5152 -2.97057 0
M  V30 1050 H 111.518 5.60656 -1.55423 0
M  V30 1051 H 110.398 7.2308 -3.03522 0
M  V30 1052 N 107.901 -0.206675 1.56239 0
M  V30 1053 C 109.141 -0.93574 1.81723 0
M  V30 1054 C 109.505 -1.80927 0.642609 0
M  V30 1055 O 110.706 -2.57323 0.777081 0
M  V30 1056 C 108.977 -1.74012 3.12177 0
M  V30 1057 S 110.536 -2.52279 3.59028 0
M  V30 1058 H 107.354 -0.314065 0.637875 0
M  V30 1059 H 109.956 -0.200071 1.94474 0
M  V30 1060 H 108.66 -1.0888 3.95693 0
M  V30 1061 H 108.191 -2.51782 3.02274 0
M  V30 1062 H 110.206 -3.76209 3.23545 0
M  V30 1063 N 109.379 -1.50304 -0.473955 0
M  V30 1064 C 110.79 -1.54042 -1.0549 0
M  V30 1065 C 111.141 -0.342248 -1.93192 0
M  V30 1066 O 110.266 0.545157 -2.09421 0
M  V30 1067 C 110.861 -2.79152 -1.91989 0
M  V30 1068 C 109.42 -2.8558 -2.45196 0
M  V30 1069 C 108.567 -2.48295 -1.2347 0
M  V30 1070 H 111.518 -1.5661 -0.256693 0
M  V30 1071 H 111.539 -2.60845 -2.7702 0
M  V30 1072 H 111.051 -3.66339 -1.28131 0
M  V30 1073 H 109.152 -2.02738 -3.12615 0
M  V30 1074 H 109.265 -3.88403 -2.80499 0
M  V30 1075 H 107.629 -2.00669 -1.56856 0
M  V30 1076 H 108.412 -3.37787 -0.612789 0
M  V30 1077 N 110.857 0.726932 -1.39834 0
M  V30 1078 C 111.82 1.82269 -1.38962 0
M  V30 1079 C 112.82 1.58248 -0.285334 0
M  V30 1080 O 114.01 1.65499 -0.54366 0
M  V30 1081 C 111.142 3.20186 -1.17019 0
M  V30 1082 H 112.335 1.84443 -2.36476 0
M  V30 1083 H 109.888 0.931416 -1.25516 0
M  V30 1084 H 110.623 3.23669 -0.202204 0
M  V30 1085 H 110.408 3.3902 -1.96998 0
M  V30 1086 H 111.898 4.00235 -1.1917 0
M  V30 1087 N 112.336 1.25143 0.95797 0
M  V30 1088 C 113.584 1.09476 1.69881 0
M  V30 1089 C 113.905 -0.365502 1.91544 0
M  V30 1090 O 113.175 -1.25985 1.50015 0
M  V30 1091 H 111.755 0.402128 0.629525 0
M  V30 1092 H 114.417 1.57214 1.15194 0
M  V30 1093 H 113.513 1.60046 2.6794 0
M  V30 1094 N 113.814 -1.1601 1.06675 0
M  V30 1095 C 115.039 -1.91068 0.806706 0
M  V30 1096 C 115.464 -1.77112 -0.633485 0
M  V30 1097 O 114.822 -1.09908 -1.44187 0
M  V30 1098 C 114.87 -3.39655 1.21106 0
M  V30 1099 O 113.974 -4.10893 0.352189 0
M  V30 1100 H 113.315 -0.595125 0.294486 0
M  V30 1101 H 115.845 -1.46955 1.42356 0
M  V30 1102 H 115.855 -3.90434 1.18428 0
M  V30 1103 H 114.53 -3.49132 2.26008 0
M  V30 1104 H 113.107 -3.70285 0.440868 0
M  V30 1105 N 115.292 -0.849877 -1.32721 0
M  V30 1106 C 116.538 -0.451591 -1.97708 0
M  V30 1107 C 116.871 0.989175 -1.6712 0
M  V30 1108 O 116.146 1.69334 -0.956891 0
M  V30 1109 C 116.429 -0.685598 -3.53513 0
M  V30 1110 C 116.282 -2.17444 -3.93749 0
M  V30 1111 C 117.601 -0.138874 -4.39881 0
M  V30 1112 H 114.72 -0.16555 -0.718166 0
M  V30 1113 H 117.362 -1.06742 -1.57182 0
M  V30 1114 H 115.512 -0.161416 -3.88165 0
M  V30 1115 H 117.184 -2.76433 -3.693 0
M  V30 1116 H 115.427 -2.65476 -3.43081 0
M  V30 1117 H 116.098 -2.28888 -5.02309 0
M  V30 1118 H 118.574 -0.587068 -4.11938 0
M  V30 1119 H 117.45 -0.332213 -5.47894 0
M  V30 1120 H 117.711 0.95806 -4.31594 0
M  V30 1121 N 116.77 1.45427 -0.607355 0
M  V30 1122 C 118.017 2.02241 -0.102455 0
M  V30 1123 C 118.345 1.4758 1.26691 0
M  V30 1124 O 117.6 0.640468 1.84923 0
M  V30 1125 C 117.899 3.57398 -0.0129263 0
M  V30 1126 C 117.565 4.3121 -1.31792 0
M  V30 1127 C 116.227 4.51092 -1.67539 0
M  V30 1128 C 118.579 4.73401 -2.18039 0
M  V30 1129 C 115.907 5.10422 -2.89285 0
M  V30 1130 C 118.259 5.34078 -3.39034 0
M  V30 1131 C 116.923 5.52184 -3.75033 0
M  V30 1132 H 116.193 0.740051 -0.037491 0
M  V30 1133 H 118.84 1.74494 -0.788926 0
M  V30 1134 H 117.145 3.84421 0.756806 0
M  V30 1135 H 118.842 3.99061 0.393881 0
M  V30 1136 H 115.432 4.16047 -1.02968 0
M  V30 1137 H 119.616 4.57774 -1.91721 0
M  V30 1138 H 114.872 5.22629 -3.17283 0
M  V30 1139 H 119.046 5.65724 -4.06115 0
M  V30 1140 H 116.673 5.97925 -4.69457 0
M  V30 1141 N 118.248 0.346503 1.53744 0
M  V30 1142 C 119.659 -0.136779 1.86198 0
M  V30 1143 C 120.01 -1.49749 1.26766 0
M  V30 1144 O 119.135 -2.08417 0.582355 0
M  V30 1145 C 119.73 -0.254966 3.37839 0
M  V30 1146 C 118.289 -0.682482 3.70161 0
M  V30 1147 C 117.436 0.181981 2.76702 0
M  V30 1148 H 120.387 0.565994 1.48264 0
M  V30 1149 H 120.408 -1.08195 3.64793 0
M  V30 1150 H 119.92 0.735526 3.81066 0
M  V30 1151 H 118.021 -1.68189 3.3248 0
M  V30 1152 H 118.134 -0.470326 4.76786 0
M  V30 1153 H 116.498 -0.34615 2.52337 0
M  V30 1154 H 117.281 1.16966 3.2276 0
M  V30 1155 N 119.726 -1.57421 0.075193 0
M  V30 1156 C 120.673 -2.12915 -0.890843 0
M  V30 1157 C 121.643 -1.04252 -1.29309 0
M  V30 1158 O 122.828 -1.31933 -1.37834 0
M  V30 1159 C 119.968 -2.69795 -2.15186 0
M  V30 1160 C 119.081 -3.92624 -1.80194 0
M  V30 1161 C 118.216 -4.37736 -3.00933 0
M  V30 1162 C 117.255 -5.53205 -2.61974 0
M  V30 1163 N 116.392 -5.9326 -3.75483 0
M  V30 1164 H 121.232 -2.95156 -0.410735 0
M  V30 1165 H 118.769 -1.45854 -0.191086 0
M  V30 1166 H 120.727 -3.00883 -2.89008 0
M  V30 1167 H 119.357 -1.90313 -2.60731 0
M  V30 1168 H 118.409 -3.67977 -0.964218 0
M  V30 1169 H 119.721 -4.76482 -1.47534 0
M  V30 1170 H 118.875 -4.70503 -3.8303 0
M  V30 1171 H 117.614 -3.52739 -3.36789 0
M  V30 1172 H 116.619 -5.20086 -1.783 0
M  V30 1173 H 117.844 -6.39936 -2.27284 0
M  V30 1174 H 115.79 -5.11212 -4.11094 0
M  V30 1175 H 115.707 -6.71865 -3.46602 0
M  V30 1176 H 116.975 -6.30651 -4.58148 0
M  V30 1177 N 121.204 0.198386 -1.56346 0
M  V30 1178 C 122.114 1.2664 -1.97483 0
M  V30 1179 C 123.13 1.49989 -0.882002 0
M  V30 1180 O 124.306 1.62668 -1.18748 0
M  V30 1181 C 121.371 2.59141 -2.30319 0
M  V30 1182 C 120.432 2.43892 -3.53292 0
M  V30 1183 C 119.665 3.70074 -3.84553 0
M  V30 1184 O 119.888 4.74101 -3.1715 0
M  V30 1185 O 118.822 3.658 -4.7799 0
M  V30 1186 H 122.648 0.947304 -2.88548 0
M  V30 1187 H 120.233 0.403123 -1.43859 0
M  V30 1188 H 122.115 3.37352 -2.5253 0
M  V30 1189 H 120.79 2.90684 -1.42423 0
M  V30 1190 H 119.697 1.63803 -3.36332 0
M  V30 1191 H 121.03 2.17282 -4.41644 0
M  V30 1192 N 122.682 1.50554 0.465978 0
M  V30 1193 C 123.592 1.72585 1.58907 0
M  V30 1194 C 124.608 0.60911 1.6299 0
M  V30 1195 O 125.784 0.88804 1.80765 0
M  V30 1196 C 122.849 1.81995 2.95091 0
M  V30 1197 C 121.91 3.05751 3.01355 0
M  V30 1198 C 121.143 3.14702 4.31043 0
M  V30 1199 O 121.366 2.30313 5.21835 0
M  V30 1200 O 120.3 4.07468 4.43005 0
M  V30 1201 H 124.126 2.67799 1.43239 0
M  V30 1202 H 121.711 1.34711 0.646013 0
M  V30 1203 H 123.593 1.90335 3.75966 0
M  V30 1204 H 122.268 0.899659 3.10947 0
M  V30 1205 H 121.175 3.02908 2.19539 0
M  V30 1206 H 122.508 3.97375 2.90437 0
M  V30 1207 N 124.16 -0.719506 1.40217 0
M  V30 1208 C 125.07 -1.86378 1.42479 0
M  V30 1209 C 126.086 -1.71073 0.317834 0
M  V30 1210 O 127.262 -1.93406 0.561794 0
M  V30 1211 C 124.327 -3.22136 1.28178 0
M  V30 1212 C 123.388 -3.49723 2.48982 0
M  V30 1213 C 122.621 -4.79004 2.35353 0
M  V30 1214 O 122.844 -5.53821 1.36524 0
M  V30 1215 O 121.778 -5.06839 3.2465 0
M  V30 1216 H 125.604 -1.87425 2.38968 0
M  V30 1217 H 123.189 -0.869405 1.21498 0
M  V30 1218 H 125.071 -4.03234 1.22395 0
M  V30 1219 H 123.746 -3.21825 0.347934 0
M  V30 1220 H 122.653 -2.6865 2.60342 0
M  V30 1221 H 123.986 -3.54828 3.41113 0
M  V30 1222 N 125.638 -1.25649 -0.95132 0
M  V30 1223 C 126.868 -1.13179 -1.72841 0
M  V30 1224 C 127.276 0.316827 -1.86528 0
M  V30 1225 O 126.619 1.22948 -1.3649 0
M  V30 1226 C 126.681 -1.71644 -3.15878 0
M  V30 1227 C 126.345 -3.20667 -3.25609 0
M  V30 1228 C 127.342 -4.17616 -3.09666 0
M  V30 1229 C 125.027 -3.6094 -3.49324 0
M  V30 1230 C 127.021 -5.52817 -3.17289 0
M  V30 1231 C 124.708 -4.96278 -3.56584 0
M  V30 1232 C 125.706 -5.92025 -3.40581 0
M  V30 1233 O 125.394 -7.24899 -3.47528 0
M  V30 1234 H 125.126 -0.395389 -0.54831 0
M  V30 1235 H 127.68 -1.66566 -1.20187 0
M  V30 1236 H 125.91 -1.12707 -3.69911 0
M  V30 1237 H 127.599 -1.54225 -3.75459 0
M  V30 1238 H 128.365 -3.87842 -2.91211 0
M  V30 1239 H 124.244 -2.86907 -3.6084 0
M  V30 1240 H 127.788 -6.2753 -3.04716 0
M  V30 1241 H 123.685 -5.25716 -3.74556 0
M  V30 1242 H 124.453 -7.33039 -3.64138 0
M  V30 1243 N 127.117 1.15442 -1.07289 0
M  V30 1244 C 128.047 2.22312 -0.714107 0
M  V30 1245 C 129.028 1.67467 0.298155 0
M  V30 1246 O 130.213 1.93445 0.171048 0
M  V30 1247 C 127.343 3.47124 -0.110448 0
M  V30 1248 C 126.297 4.14926 -1.04979 0
M  V30 1249 C 125.623 5.33807 -0.308924 0
M  V30 1250 C 126.923 4.64762 -2.38314 0
M  V30 1251 H 128.617 2.5258 -1.6076 0
M  V30 1252 H 126.163 1.21404 -0.77441 0
M  V30 1253 H 128.116 4.21124 0.152482 0
M  V30 1254 H 126.84 3.16187 0.81812 0
M  V30 1255 H 125.499 3.42866 -1.29764 0
M  V30 1256 H 125.147 4.99126 0.623084 0
M  V30 1257 H 124.847 5.80113 -0.935036 0
M  V30 1258 H 126.371 6.10576 -0.0537771 0
M  V30 1259 H 127.785 5.30292 -2.1786 0
M  V30 1260 H 126.182 5.21728 -2.96514 0
M  V30 1261 H 127.252 3.80434 -3.00663 0
M  V30 1262 N 128.595 0.856903 1.32268 0
M  V30 1263 C 129.527 0.260412 2.27716 0
M  V30 1264 C 130.54 -0.569137 1.52528 0
M  V30 1265 O 131.729 -0.39326 1.74114 0
M  V30 1266 C 128.829 -0.650477 3.32599 0
M  V30 1267 C 128.002 0.14372 4.37164 0
M  V30 1268 C 127.061 -0.69328 5.21613 0
M  V30 1269 O 126.087 -0.12599 5.69061 0
M  V30 1270 N 127.289 -2.00761 5.44679 0
M  V30 1271 H 130.054 1.08059 2.79541 0
M  V30 1272 H 127.615 0.717103 1.45152 0
M  V30 1273 H 129.607 -1.21581 3.86005 0
M  V30 1274 H 128.177 -1.37133 2.80915 0
M  V30 1275 H 127.397 0.890486 3.8401 0
M  V30 1276 H 128.685 0.68915 5.04111 0
M  V30 1277 H 128.083 -2.49181 5.07863 0
M  V30 1278 H 126.64 -2.52103 6.01072 0
M  V30 1279 N 130.073 -1.45103 0.615059 0
M  V30 1280 C 131.319 -2.02483 0.113347 0
M  V30 1281 C 131.652 -1.48146 -1.25564 0
M  V30 1282 O 130.927 -0.659104 -1.82992 0
M  V30 1283 C 131.21 -3.60005 0.0825278 0
M  V30 1284 C 131.063 -4.2466 1.48271 0
M  V30 1285 C 132.382 -4.35972 -0.601401 0
M  V30 1286 H 129.501 -0.735764 0.0426632 0
M  V30 1287 H 132.143 -1.72868 0.788461 0
M  V30 1288 H 130.293 -3.85367 -0.492378 0
M  V30 1289 H 131.965 -4.10458 2.10527 0
M  V30 1290 H 130.208 -3.82772 2.04127 0
M  V30 1291 H 130.879 -5.336 1.41332 0
M  V30 1292 H 133.355 -4.15947 -0.112666 0
M  V30 1293 H 132.231 -5.45697 -0.592097 0
M  V30 1294 H 132.492 -4.09391 -1.66887 0
M  V30 1295 N 131.551 -0.354651 -1.53558 0
M  V30 1296 C 132.828 0.294281 -1.93374 0
M  V30 1297 C 133.208 1.67313 -1.28723 0
M  V30 1298 O 132.556 2.24179 -0.442247 0
M  V30 1299 C 132.766 0.355445 -3.47185 0
M  V30 1300 C 134.114 0.601007 -4.20325 0
M  V30 1301 O 135.138 0.437106 -3.53508 0
M  V30 1302 O 133.997 0.919322 -5.38712 0
M  V30 1303 H 131.091 0.174033 -0.808481 0
M  V30 1304 H 133.637 -0.406638 -1.64756 0
M  V30 1305 H 132.409 -0.611729 -3.86489 0
M  V30 1306 H 132.032 1.1027 -3.82003 0
M  V30 1307 N 133.029 1.57378 -0.0835403 0
M  V30 1308 C 133.959 2.1641 0.87686 0
M  V30 1309 C 134.94 1.09429 1.30228 0
M  V30 1310 O 136.125 1.37516 1.37124 0
M  V30 1311 C 133.255 2.73517 2.14022 0
M  V30 1312 C 132.209 3.85769 1.85381 0
M  V30 1313 C 131.535 4.29529 3.18448 0
M  V30 1314 C 132.835 5.09486 1.14984 0
M  V30 1315 H 134.529 2.96914 0.385059 0
M  V30 1316 H 132.075 1.42823 0.18377 0
M  V30 1317 H 134.028 3.13463 2.81636 0
M  V30 1318 H 132.752 1.90252 2.65465 0
M  V30 1319 H 131.411 3.46345 1.20169 0
M  V30 1320 H 131.059 3.43169 3.67755 0
M  V30 1321 H 130.759 5.05204 3.00071 0
M  V30 1322 H 132.283 4.72099 3.8724 0
M  V30 1323 H 133.697 5.46674 1.72687 0
M  V30 1324 H 132.094 5.90515 1.06826 0
M  V30 1325 H 133.164 4.84724 0.130749 0
M  V30 1326 N 134.507 -0.190092 1.56449 0
M  V30 1327 C 135.439 -1.25973 1.91477 0
M  V30 1328 C 136.452 -1.41452 0.805931 0
M  V30 1329 O 137.641 -1.41789 1.08435 0
M  V30 1330 C 134.741 -2.63117 2.13594 0
M  V30 1331 C 133.914 -2.69182 3.4476 0
M  V30 1332 C 132.973 -3.87557 3.5593 0
M  V30 1333 O 131.999 -3.74427 4.28711 0
M  V30 1334 N 133.201 -5.03224 2.89388 0
M  V30 1335 H 135.966 -0.962394 2.83828 0
M  V30 1336 H 133.527 -0.379981 1.57378 0
M  V30 1337 H 135.519 -3.40742 2.1835 0
M  V30 1338 H 134.089 -2.85319 1.27719 0
M  V30 1339 H 133.309 -1.77793 3.51828 0
M  V30 1340 H 134.597 -2.70229 4.31107 0
M  V30 1341 H 133.995 -5.16791 2.30094 0
M  V30 1342 H 132.552 -5.78778 2.99764 0
M  V30 1343 N 135.985 -1.50799 -0.457987 0
M  V30 1344 C 137.401 -1.38515 -0.792819 0
M  V30 1345 C 137.601 -0.451409 -1.96379 0
M  V30 1346 O 136.657 0.10112 -2.52297 0
M  V30 1347 C 137.97 -2.80149 -1.09258 0
M  V30 1348 C 139.518 -2.89156 -1.19825 0
M  V30 1349 C 139.993 -4.31651 -1.53106 0
M  V30 1350 N 141.484 -4.34662 -1.60072 0
M  V30 1351 C 142.219 -5.41928 -1.87354 0
M  V30 1352 N 141.715 -6.59384 -2.12568 0
M  V30 1353 N 143.508 -5.29385 -1.88965 0
M  V30 1354 H 135.659 -2.10073 0.313511 0
M  V30 1355 H 137.922 -0.944803 0.0777862 0
M  V30 1356 H 137.628 -3.50374 -0.305084 0
M  V30 1357 H 137.502 -3.18204 -2.02549 0
M  V30 1358 H 139.889 -2.19141 -1.97639 0
M  V30 1359 H 139.97 -2.54626 -0.244821 0
M  V30 1360 H 139.614 -5.02208 -0.758266 0
M  V30 1361 H 139.544 -4.63678 -2.49621 0
M  V30 1362 H 142.035 -3.49973 -1.42573 0
M  V30 1363 H 142.348 -7.36934 -2.32696 0
M  V30 1364 H 140.693 -6.62535 -2.09933 0
M  V30 1365 H 143.884 -4.36616 -1.68772 0
M  V30 1366 H 144.057 -6.13066 -2.09891 0
M  V30 1367 N 137.463 0.71206 -1.40597 0
M  V30 1368 C 138.393 1.83889 -1.43899 0
M  V30 1369 C 139.374 1.67442 -0.299504 0
M  V30 1370 O 140.559 1.87421 -0.508624 0
M  V30 1371 C 137.689 3.21877 -1.30431 0
M  V30 1372 C 136.643 3.53002 -2.42019 0
M  V30 1373 C 135.969 4.90172 -2.13626 0
M  V30 1374 C 137.269 3.53643 -3.84362 0
M  V30 1375 H 138.963 1.81383 -2.38203 0
M  V30 1376 H 136.509 0.871237 -1.14654 0
M  V30 1377 H 138.462 4.00404 -1.31357 0
M  V30 1378 H 137.186 3.24968 -0.326049 0
M  V30 1379 H 135.845 2.76818 -2.40349 0
M  V30 1380 H 135.493 4.89869 -1.14182 0
M  V30 1381 H 135.193 5.11962 -2.88389 0
M  V30 1382 H 136.717 5.71028 -2.1624 0
M  V30 1383 H 138.131 4.22203 -3.87837 0
M  V30 1384 H 136.528 3.86961 -4.58673 0
M  V30 1385 H 137.598 2.52954 -4.13693 0
M  V30 1386 N 138.941 1.26152 0.944643 0
M  V30 1387 C 139.891 1.04081 2.02857 0
M  V30 1388 C 140.875 -0.0256555 1.6088 0
M  V30 1389 O 142.067 0.190884 1.75968 0
M  V30 1390 C 139.196 0.672118 3.36656 0
M  V30 1391 C 138.282 1.77586 3.85128 0
M  V30 1392 N 138.673 3.01272 4.06287 0
M  V30 1393 C 136.971 1.65867 4.1401 0
M  V30 1394 C 137.672 3.72983 4.46384 0
M  V30 1395 N 136.648 3.00653 4.52889 0
M  V30 1396 H 140.45 1.97968 2.17223 0
M  V30 1397 H 137.964 1.16618 1.13022 0
M  V30 1398 H 139.961 0.495166 4.13949 0
M  V30 1399 H 138.621 -0.259307 3.23663 0
M  V30 1400 H 139.632 3.37213 3.93075 0
M  V30 1401 H 136.309 0.796907 4.09824 0
M  V30 1402 H 137.699 4.792 4.70975 0
M  V30 1403 N 140.419 -1.14872 1.07899 0
M  V30 1404 C 141.349 -2.2193 0.725887 0
M  V30 1405 C 142.33 -1.67622 -0.28927 0
M  V30 1406 O 143.515 -1.93533 -0.160787 0
M  V30 1407 C 140.645 -3.47061 0.128856 0
M  V30 1408 C 139.599 -4.14363 1.07178 0
M  V30 1409 C 138.925 -5.33636 0.337229 0
M  V30 1410 C 140.225 -4.63492 2.40775 0
M  V30 1411 H 141.919 -2.51724 1.62097 0
M  V30 1412 H 139.465 -1.20991 0.780838 0
M  V30 1413 H 141.418 -4.21199 -0.130147 0
M  V30 1414 H 140.142 -3.16617 -0.80134 0
M  V30 1415 H 138.801 -3.42173 1.3158 0
M  V30 1416 H 138.449 -4.99449 -0.596606 0
M  V30 1417 H 138.149 -5.79609 0.965788 0
M  V30 1418 H 139.673 -6.10539 0.0861567 0
M  V30 1419 H 141.087 -5.2913 2.20669 0
M  V30 1420 H 139.484 -5.20148 2.99276 0
M  V30 1421 H 140.554 -3.78834 3.02676 0
M  V30 1422 N 141.898 -0.863906 -1.31812 0
M  V30 1423 C 143.144 -0.472535 -1.97218 0
M  V30 1424 C 143.477 0.971394 -1.68159 0
M  V30 1425 O 142.752 1.68309 -0.974798 0
M  V30 1426 C 143.035 -0.723054 -3.52766 0
M  V30 1427 C 142.888 -2.21608 -3.91421 0
M  V30 1428 C 144.207 -0.185522 -4.39709 0
M  V30 1429 H 141.326 -0.173158 -0.71637 0
M  V30 1430 H 143.968 -1.08403 -1.56041 0
M  V30 1431 H 142.118 -0.202577 -3.87971 0
M  V30 1432 H 143.79 -2.80334 -3.66347 0
M  V30 1433 H 142.033 -2.691 -3.40246 0
M  V30 1434 H 142.704 -2.34203 -4.99853 0
M  V30 1435 H 145.18 -0.630726 -4.11292 0
M  V30 1436 H 144.056 -0.390306 -5.47511 0
M  V30 1437 H 144.317 0.912229 -4.32586 0
M  V30 1438 N 143.376 1.44774 -0.622745 0
M  V30 1439 C 144.339 2.29069 0.0774015 0
M  V30 1440 C 145.339 1.4059 0.780461 0
M  V30 1441 O 146.529 1.62551 0.626322 0
M  V30 1442 C 143.661 3.21974 1.12006 0
M  V30 1443 H 144.854 2.92459 -0.663901 0
M  V30 1444 H 142.407 1.51548 -0.382486 0
M  V30 1445 H 143.142 2.63417 1.89162 0
M  V30 1446 H 142.927 3.87168 0.619951 0
M  V30 1447 H 144.417 3.85318 1.60995 0
M  V30 1448 N 144.854 0.36279 1.53368 0
M  V30 1449 C 145.784 -0.476976 2.28576 0
M  V30 1450 C 146.765 -1.08631 1.30894 0
M  V30 1451 O 147.95 -1.10409 1.59761 0
M  V30 1452 C 145.08 -1.61828 3.07293 0
M  V30 1453 C 144.034 -1.13633 4.1264 0
M  V30 1454 C 143.36 -2.36766 4.79423 0
M  V30 1455 C 144.66 -0.223061 5.21823 0
M  V30 1456 H 146.354 0.150474 2.99022 0
M  V30 1457 H 143.9 0.0738103 1.43811 0
M  V30 1458 H 145.853 -2.21237 3.58653 0
M  V30 1459 H 144.577 -2.27292 2.34533 0
M  V30 1460 H 143.236 -0.564945 3.62221 0
M  V30 1461 H 142.884 -3.0068 4.03238 0
M  V30 1462 H 142.584 -2.05192 5.50609 0
M  V30 1463 H 144.108 -2.96865 5.33576 0
M  V30 1464 H 145.522 -0.724545 5.68703 0
M  V30 1465 H 143.919 0.001678 6.001 0
M  V30 1466 H 144.989 0.735553 4.79289 0
M  V30 1467 N 146.332 -1.57332 0.0918853 0
M  V30 1468 C 147.578 -1.94524 -0.573425 0
M  V30 1469 C 147.911 -0.973578 -1.68033 0
M  V30 1470 O 147.186 -0.00609226 -1.94499 0
M  V30 1471 C 147.469 -3.41858 -1.13161 0
M  V30 1472 C 147.322 -4.4979 -0.0299747 0
M  V30 1473 C 148.641 -3.90435 -2.03098 0
M  V30 1474 H 145.76 -0.70734 -0.206975 0
M  V30 1475 H 148.402 -1.89309 0.161942 0
M  V30 1476 H 146.552 -3.46433 -1.7583 0
M  V30 1477 H 148.224 -4.57327 0.604112 0
M  V30 1478 H 146.467 -4.291 0.636833 0
M  V30 1479 H 147.138 -5.50069 -0.461287 0
M  V30 1480 H 149.614 -3.87992 -1.50338 0
M  V30 1481 H 148.49 -4.94097 -2.39081 0
M  V30 1482 H 148.751 -3.29541 -2.94712 0
M  V30 1483 N 147.81 0.181792 -1.56548 0
M  V30 1484 C 149.058 0.89832 -1.81038 0
M  V30 1485 C 149.379 1.83232 -0.667164 0
M  V30 1486 O 148.649 1.93372 0.313673 0
M  V30 1487 H 147.229 0.33471 -0.667816 0
M  V30 1488 H 149.891 0.184116 -1.94028 0
M  V30 1489 H 148.987 1.4815 -2.74696 0
M  V30 1490 N 149.288 1.51039 0.449983 0
M  V30 1491 C 150.516 1.66869 1.2232 0
M  V30 1492 C 150.931 0.360727 1.85322 0
M  V30 1493 O 150.288 -0.659531 1.70166 0
M  V30 1494 C 150.339 2.77524 2.31652 0
M  V30 1495 O 150.06 4.03252 1.7123 0
M  V30 1496 C 151.561 3.04512 3.2216 0
M  V30 1497 H 148.781 0.560326 0.369155 0
M  V30 1498 H 151.325 1.97385 0.534719 0
M  V30 1499 H 149.48 2.49642 2.96239 0
M  V30 1500 H 149.894 4.64609 2.43389 0
M  V30 1501 H 151.368 3.85551 3.95038 0
M  V30 1502 H 151.845 2.16415 3.8218 0
M  V30 1503 H 152.451 3.34005 2.63288 0
M  V30 1504 N 150.766 -0.704594 1.40972 0
M  V30 1505 C 151.698 -1.82974 1.38033 0
M  V30 1506 C 152.711 -1.60305 0.283931 0
M  V30 1507 O 153.9 -1.69975 0.545042 0
M  V30 1508 C 151 -3.19578 1.12795 0
M  V30 1509 C 150.173 -3.69352 2.34302 0
M  V30 1510 C 149.232 -4.84601 2.05058 0
M  V30 1511 O 148.258 -4.96682 2.7802 0
M  V30 1512 N 149.46 -5.71194 1.03528 0
M  V30 1513 H 152.225 -1.85991 2.35005 0
M  V30 1514 H 149.786 -0.886567 1.35468 0
M  V30 1515 H 151.778 -3.9429 0.911987 0
M  V30 1516 H 150.348 -3.11642 0.24452 0
M  V30 1517 H 149.568 -2.85649 2.71659 0
M  V30 1518 H 150.856 -3.99345 3.1528 0
M  V30 1519 H 150.254 -5.64054 0.431217 0
M  V30 1520 H 148.811 -6.45843 0.879205 0
M  V30 1521 N 152.244 -1.26651 -0.937939 0
M  V30 1522 C 153.492 -1.12165 -1.68118 0
M  V30 1523 C 153.813 0.334983 -1.92101 0
M  V30 1524 O 153.083 1.23583 -1.52 0
M  V30 1525 H 151.663 -0.412093 -0.623048 0
M  V30 1526 H 154.325 -1.59027 -1.12678 0
M  V30 1527 H 153.421 -1.64289 -2.6536 0
M  V30 1528 N 153.722 1.14298 -1.08507 0
M  V30 1529 C 155.138 1.37347 -0.812901 0
M  V30 1530 C 155.338 1.93052 0.577325 0
M  V30 1531 O 154.394 2.14389 1.33393 0
M  V30 1532 C 155.707 2.33359 -1.89642 0
M  V30 1533 C 157.255 2.46996 -1.92255 0
M  V30 1534 C 157.73 3.46309 -2.99724 0
M  V30 1535 N 159.221 3.53853 -2.98902 0
M  V30 1536 C 159.956 4.3055 -3.787 0
M  V30 1537 N 159.452 5.10482 -4.6838 0
M  V30 1538 N 161.245 4.25757 -3.66998 0
M  V30 1539 H 153.396 0.764867 -1.9815 0
M  V30 1540 H 155.659 0.398966 -0.859959 0
M  V30 1541 H 155.365 1.99565 -2.89597 0
M  V30 1542 H 155.239 3.33274 -1.76659 0
M  V30 1543 H 157.626 2.80081 -0.929445 0
M  V30 1544 H 157.707 1.47039 -2.09316 0
M  V30 1545 H 157.351 3.13957 -3.99241 0
M  V30 1546 H 157.281 4.46049 -2.79907 0
M  V30 1547 H 159.772 2.96812 -2.33904 0
M  V30 1548 H 160.085 5.66284 -5.25873 0
M  V30 1549 H 158.43 5.09747 -4.72422 0
M  V30 1550 H 161.621 3.62383 -2.96304 0
M  V30 1551 H 161.794 4.85279 -4.29427 0
M  V30 1552 N 155.201 0.870884 1.31352 0
M  V30 1553 C 156.151 0.298889 2.26032 0
M  V30 1554 C 157.135 -0.564595 1.50669 0
M  V30 1555 O 158.327 -0.411323 1.72154 0
M  V30 1556 C 155.456 -0.497842 3.39671 0
M  V30 1557 C 154.542 0.378937 4.22404 0
M  V30 1558 N 154.933 1.47284 4.83881 0
M  V30 1559 C 153.231 0.171535 4.4567 0
M  V30 1560 C 153.932 2.01359 5.45738 0
M  V30 1561 N 152.908 1.31047 5.27568 0
M  V30 1562 H 156.71 1.13494 2.71102 0
M  V30 1563 H 154.224 0.718745 1.45629 0
M  V30 1564 H 156.221 -0.924155 4.06528 0
M  V30 1565 H 154.881 -1.33149 2.96144 0
M  V30 1566 H 155.892 1.85575 4.8351 0
M  V30 1567 H 152.569 -0.626091 4.12779 0
M  V30 1568 H 153.959 2.93143 6.0458 0
M  V30 1569 N 156.679 -1.44442 0.630414 0
M  V30 1570 C 157.642 -2.29107 -0.0652523 0
M  V30 1571 C 158.642 -1.41002 -0.772995 0
M  V30 1572 O 159.832 -1.62881 -0.617692 0
M  V30 1573 C 156.964 -3.22564 -1.10296 0
M  V30 1574 H 158.157 -2.92103 0.679401 0
M  V30 1575 H 155.71 -1.51343 0.390517 0
M  V30 1576 H 156.445 -2.64416 -1.87762 0
M  V30 1577 H 156.23 -3.87491 -0.59941 0
M  V30 1578 H 157.72 -3.86167 -1.5895 0
M  V30 1579 N 158.157 -0.370918 -1.53173 0
M  V30 1580 C 159.405 0.216673 -2.00935 0
M  V30 1581 C 159.726 1.48845 -1.25977 0
M  V30 1582 O 158.996 1.92286 -0.374551 0
M  V30 1583 H 157.576 0.0830565 -0.742368 0
M  V30 1584 H 160.238 -0.49838 -1.8842 0
M  V30 1585 H 159.334 0.439893 -3.08984 0
M  V30 1586 N 159.635 1.57281 -0.100228 0
M  V30 1587 C 160.883 1.94153 0.561157 0
M  V30 1588 C 161.204 0.983157 1.68401 0
M  V30 1589 O 160.474 0.0361132 1.95867 0
M  V30 1590 H 159.054 0.716791 0.210283 0
M  V30 1591 H 161.716 1.94202 -0.164765 0
M  V30 1592 H 160.812 2.96709 0.968008 0
M  V30 1593 N 161.113 -0.173488 1.56642 0
M  V30 1594 C 162.043 -1.2171 1.99271 0
M  V30 1595 C 163.024 -1.46289 0.867959 0
M  V30 1596 O 164.209 -1.5766 1.13388 0
M  V30 1597 C 161.339 -2.55651 2.35074 0
M  V30 1598 C 160.293 -2.45645 3.50489 0
M  V30 1599 C 159.619 -3.84056 3.72028 0
M  V30 1600 C 160.919 -1.96302 4.84007 0
M  V30 1601 H 162.613 -0.86275 2.867 0
M  V30 1602 H 160.159 -0.413571 1.37933 0
M  V30 1603 H 162.112 -3.2886 2.63494 0
M  V30 1604 H 160.836 -2.92869 1.44552 0
M  V30 1605 H 159.495 -1.7489 3.22194 0
M  V30 1606 H 159.143 -4.18664 2.788 0
M  V30 1607 H 158.843 -3.7823 4.49684 0
M  V30 1608 H 160.367 -4.58854 4.02846 0
M  V30 1609 H 161.781 -2.59284 5.11317 0
M  V30 1610 H 160.178 -2.01429 5.65284 0
M  V30 1611 H 161.248 -0.917226 4.76146 0
M  V30 1612 N 162.591 -1.51276 -0.441967 0
M  V30 1613 C 163.839 -1.63392 -1.18943 0
M  V30 1614 C 164.16 -0.350159 -1.9183 0
M  V30 1615 O 163.43 0.633784 -1.85364 0
M  V30 1616 H 162.01 -0.602164 -0.442049 0
M  V30 1617 H 164.672 -1.88186 -0.507165 0
M  V30 1618 H 163.768 -2.45934 -1.92154 0
M  V30 1619 N 164.069 0.697108 -1.41344 0
M  V30 1620 C 165.016 1.81106 -1.43071 0
M  V30 1621 C 165.986 1.63632 -0.285275 0
M  V30 1622 O 167.171 1.84504 -0.486091 0
M  V30 1623 C 164.311 3.18975 -1.31715 0
M  V30 1624 C 163.424 3.47892 -2.56115 0
M  V30 1625 C 162.559 4.75367 -2.37064 0
M  V30 1626 C 161.598 4.97247 -3.56948 0
M  V30 1627 N 160.735 6.15947 -3.36977 0
M  V30 1628 H 165.575 1.78965 -2.38276 0
M  V30 1629 H 163.112 0.873975 -1.18322 0
M  V30 1630 H 165.07 3.98615 -1.23133 0
M  V30 1631 H 163.7 3.20297 -0.401183 0
M  V30 1632 H 162.752 2.62669 -2.75153 0
M  V30 1633 H 164.064 3.59962 -3.45295 0
M  V30 1634 H 163.218 5.63059 -2.25941 0
M  V30 1635 H 161.957 4.65541 -1.45338 0
M  V30 1636 H 160.962 4.08004 -3.68527 0
M  V30 1637 H 162.187 5.08934 -4.49626 0
M  V30 1638 H 160.133 6.07336 -2.47949 0
M  V30 1639 H 160.05 6.28777 -4.19732 0
M  V30 1640 H 161.318 7.06377 -3.29623 0
M  V30 1641 N 165.547 1.27147 0.931209 0
M  V30 1642 C 166.457 1.11372 2.06478 0
M  V30 1643 C 167.473 0.044645 1.73943 0
M  V30 1644 O 168.649 0.250417 1.99837 0
M  V30 1645 C 165.714 0.758838 3.38294 0
M  V30 1646 C 164.775 1.90841 3.84549 0
M  V30 1647 C 164.008 1.57036 5.10074 0
M  V30 1648 O 164.231 0.476645 5.68405 0
M  V30 1649 O 163.165 2.40839 5.51616 0
M  V30 1650 H 166.991 2.06493 2.22698 0
M  V30 1651 H 164.576 1.06301 1.04978 0
M  V30 1652 H 166.458 0.574098 4.17471 0
M  V30 1653 H 165.133 -0.162879 3.2329 0
M  V30 1654 H 164.04 2.14819 3.06274 0
M  V30 1655 H 165.373 2.81021 4.04089 0
M  V30 1656 N 167.025 -1.13721 1.09112 0
M  V30 1657 C 168.272 -1.84924 0.825192 0
M  V30 1658 C 168.6 -1.83347 -0.649151 0
M  V30 1659 O 167.855 -1.26449 -1.49362 0
M  V30 1660 C 168.154 -3.32861 1.30146 0
M  V30 1661 C 167.82 -3.54621 2.78486 0
M  V30 1662 C 166.482 -3.60268 3.18999 0
M  V30 1663 C 168.834 -3.62855 3.74146 0
M  V30 1664 C 166.162 -3.71679 4.53951 0
M  V30 1665 C 168.514 -3.75793 5.08883 0
M  V30 1666 C 167.178 -3.79692 5.4899 0
M  V30 1667 H 166.448 -0.676684 0.301959 0
M  V30 1668 H 169.095 -1.3428 1.36533 0
M  V30 1669 H 167.4 -3.85835 0.681064 0
M  V30 1670 H 169.097 -3.86395 1.07236 0
M  V30 1671 H 165.687 -3.50879 2.46134 0
M  V30 1672 H 169.871 -3.57775 3.43963 0
M  V30 1673 H 165.127 -3.72963 4.84467 0
M  V30 1674 H 169.301 -3.81107 5.82864 0
M  V30 1675 H 166.928 -3.88287 6.53558 0
M  V30 1676 N 168.503 -0.877838 -1.30888 0
M  V30 1677 C 169.728 -0.506629 -2.01117 0
M  V30 1678 C 170.153 0.895564 -1.65412 0
M  V30 1679 O 169.511 1.5923 -0.866922 0
M  V30 1680 C 169.559 -0.680223 -3.54126 0
M  V30 1681 O 168.663 0.277033 -4.11468 0
M  V30 1682 H 168.004 -0.200518 -0.633 0
M  V30 1683 H 170.534 -1.18342 -1.66902 0
M  V30 1684 H 170.544 -0.5765 -4.03907 0
M  V30 1685 H 169.219 -1.70261 -3.79452 0
M  V30 1686 H 167.796 0.127606 -3.72682 0
M  V30 1687 N 169.982 1.44106 -0.638065 0
M  V30 1688 C 171.398 1.56672 -0.304286 0
M  V30 1689 C 171.598 1.6244 1.19228 0
M  V30 1690 O 170.654 1.57121 1.9766 0
M  V30 1691 C 171.967 2.83503 -1.00231 0
M  V30 1692 C 173.515 2.97226 -0.981116 0
M  V30 1693 C 173.99 4.26868 -1.65974 0
M  V30 1694 N 175.481 4.33698 -1.62666 0
M  V30 1695 C 176.216 5.32745 -2.12063 0
M  V30 1696 N 175.712 6.38157 -2.6968 0
M  V30 1697 N 177.505 5.24299 -2.02651 0
M  V30 1698 H 169.656 1.38605 -1.60942 0
M  V30 1699 H 171.919 0.664661 -0.675965 0
M  V30 1700 H 171.625 2.85251 -2.0573 0
M  V30 1701 H 171.499 3.73251 -0.54439 0
M  V30 1702 H 173.886 2.95027 0.0654188 0
M  V30 1703 H 173.967 2.08808 -1.47759 0
M  V30 1704 H 173.611 4.29826 -2.70576 0
M  V30 1705 H 173.541 5.14156 -1.13804 0
M  V30 1706 H 176.032 3.58138 -1.20606 0
M  V30 1707 H 176.345 7.10029 -3.05087 0
M  V30 1708 H 174.69 6.38823 -2.73734 0
M  V30 1709 H 177.881 4.4086 -1.57353 0
M  V30 1710 H 178.054 6.01334 -2.41457 0
M  V30 1711 N 171.46 0.379036 1.52974 0
M  V30 1712 C 172.685 -0.209353 2.06341 0
M  V30 1713 C 173.11 -1.40583 1.24972 0
M  V30 1714 O 172.468 -1.79246 0.272155 0
M  V30 1715 C 172.516 -0.567786 3.56102 0
M  V30 1716 O 171.62 -1.66318 3.77375 0
M  V30 1717 H 170.961 -0.0272919 0.663439 0
M  V30 1718 H 173.491 0.543536 1.97248 0
M  V30 1719 H 173.501 -0.835003 3.99364 0
M  V30 1720 H 172.176 0.307013 4.14765 0
M  V30 1721 H 170.753 -1.39048 3.46006 0
M  V30 1722 N 172.938 -1.57226 0.108567 0
M  V30 1723 C 174.168 -1.9889 -0.559142 0
M  V30 1724 C 174.576 -0.986889 -1.61422 0
M  V30 1725 O 173.919 0.0298705 -1.83676 0
M  V30 1726 C 173.981 -3.36952 -1.25315 0
M  V30 1727 C 173.645 -4.55679 -0.347248 0
M  V30 1728 C 174.642 -5.18281 0.409996 0
M  V30 1729 C 172.327 -5.0162 -0.261367 0
M  V30 1730 C 174.321 -6.25203 1.24096 0
M  V30 1731 C 172.008 -6.08405 0.573238 0
M  V30 1732 C 173.006 -6.70063 1.32304 0
M  V30 1733 O 172.694 -7.74788 2.14381 0
M  V30 1734 H 172.426 -0.658343 -0.153492 0
M  V30 1735 H 174.98 -2.04532 0.188584 0
M  V30 1736 H 173.21 -3.28032 -2.04773 0
M  V30 1737 H 174.899 -3.62974 -1.81673 0
M  V30 1738 H 175.665 -4.8371 0.353457 0
M  V30 1739 H 171.544 -4.53381 -0.834656 0
M  V30 1740 H 175.088 -6.73259 1.82669 0
M  V30 1741 H 170.985 -6.42406 0.631208 0
M  V30 1742 H 171.753 -7.91837 2.07209 0
M  V30 1743 N 174.416 0.165178 -1.56732 0
M  V30 1744 C 175.832 0.517174 -1.50988 0
M  V30 1745 C 176.032 1.84331 -0.813894 0
M  V30 1746 O 175.088 2.49672 -0.37682 0
M  V30 1747 C 176.401 0.544261 -2.95733 0
M  V30 1748 C 177.949 0.631039 -3.06573 0
M  V30 1749 C 178.424 0.68896 -4.52788 0
M  V30 1750 N 179.915 0.751683 -4.5706 0
M  V30 1751 C 180.65 0.817177 -5.67547 0
M  V30 1752 N 180.146 0.843129 -6.8765 0
M  V30 1753 N 181.939 0.856668 -5.55534 0
M  V30 1754 H 174.09 -0.704318 -2.00382 0
M  V30 1755 H 176.353 -0.254687 -0.913148 0
M  V30 1756 H 176.059 -0.361607 -3.49836 0
M  V30 1757 H 175.933 1.3886 -3.5071 0
M  V30 1758 H 178.32 1.52733 -2.52501 0
M  V30 1759 H 178.401 -0.240095 -2.54671 0
M  V30 1760 H 178.045 -0.2031 -5.07494 0
M  V30 1761 H 177.975 1.57633 -5.02454 0
M  V30 1762 H 180.466 0.739661 -3.70591 0
M  V30 1763 H 180.779 0.894448 -7.67606 0
M  V30 1764 H 179.124 0.811304 -6.90248 0
M  V30 1765 H 182.315 0.833437 -4.60621 0
M  V30 1766 H 182.488 0.904247 -6.4166 0
M  V30 1767 N 175.894 1.51508 0.433938 0
M  V30 1768 C 176.824 1.76016 1.53429 0
M  V30 1769 C 177.805 0.610112 1.58782 0
M  V30 1770 O 178.99 0.853177 1.74455 0
M  V30 1771 C 176.12 1.88831 2.9148 0
M  V30 1772 C 175.074 3.04288 3.00987 0
M  V30 1773 C 174.4 3.0229 4.4105 0
M  V30 1774 C 175.7 4.44193 2.74754 0
M  V30 1775 H 177.394 2.68152 1.33171 0
M  V30 1776 H 174.94 1.29035 0.639214 0
M  V30 1777 H 176.893 2.04559 3.6842 0
M  V30 1778 H 175.617 0.933455 3.12976 0
M  V30 1779 H 174.276 2.8827 2.26486 0
M  V30 1780 H 173.924 2.04576 4.59519 0
M  V30 1781 H 173.624 3.79822 4.4834 0
M  V30 1782 H 175.148 3.20116 5.1996 0
M  V30 1783 H 176.562 4.60544 3.41426 0
M  V30 1784 H 174.959 5.23457 2.9345 0
M  V30 1785 H 176.029 4.53996 1.70339 0
M  V30 1786 N 177.372 -0.689602 1.41712 0
M  V30 1787 C 178.788 -1.00093 1.24312 0
M  V30 1788 C 178.988 -2.01036 0.136729 0
M  V30 1789 O 178.044 -2.47562 -0.496918 0
M  V30 1790 C 179.357 -1.51985 2.59463 0
M  V30 1791 C 180.905 -1.63838 2.66695 0
M  V30 1792 C 181.38 -2.1913 4.02177 0
M  V30 1793 N 182.871 -2.26483 4.04054 0
M  V30 1794 C 183.606 -2.70306 5.0569 0
M  V30 1795 N 183.102 -3.13691 6.17713 0
M  V30 1796 N 184.895 -2.69923 4.9305 0
M  V30 1797 H 177.046 -0.0210029 2.1239 0
M  V30 1798 H 179.309 -0.0718733 0.945272 0
M  V30 1799 H 179.015 -0.85269 3.41207 0
M  V30 1800 H 178.889 -2.50103 2.82362 0
M  V30 1801 H 181.276 -2.29664 1.85306 0
M  V30 1802 H 181.357 -0.642492 2.476 0
M  V30 1803 H 181.001 -1.53918 4.84016 0
M  V30 1804 H 180.931 -3.19482 4.18615 0
M  V30 1805 H 183.422 -1.95874 3.23174 0
M  V30 1806 H 183.735 -3.45773 6.9113 0
M  V30 1807 H 182.08 -3.11585 6.21241 0
M  V30 1808 H 185.271 -2.35382 4.04614 0
M  V30 1809 H 185.444 -3.03758 5.72394 0
M  V30 1810 N 178.85 -1.27639 -0.924453 0
M  V30 1811 C 180.08 -1.16819 -1.70402 0
M  V30 1812 C 180.488 0.277191 -1.87158 0
M  V30 1813 O 179.831 1.20025 -1.39067 0
M  V30 1814 C 179.893 -1.78305 -3.12166 0
M  V30 1815 C 179.557 -3.27502 -3.18734 0
M  V30 1816 C 180.554 -4.2409 -3.00738 0
M  V30 1817 C 178.239 -3.68269 -3.4159 0
M  V30 1818 C 180.233 -5.59422 -3.05492 0
M  V30 1819 C 177.92 -5.0373 -3.45977 0
M  V30 1820 C 178.918 -5.99116 -3.27946 0
M  V30 1821 O 178.606 -7.32108 -3.32074 0
M  V30 1822 H 178.338 -0.406931 -0.539799 0
M  V30 1823 H 180.892 -1.69078 -1.16626 0
M  V30 1824 H 179.122 -1.20528 -3.67437 0
M  V30 1825 H 180.811 -1.62154 -3.72103 0
M  V30 1826 H 181.577 -3.93931 -2.82919 0
M  V30 1827 H 177.456 -2.94496 -3.54673 0
M  V30 1828 H 181 -6.33852 -2.91337 0
M  V30 1829 H 176.897 -5.33543 -3.63321 0
M  V30 1830 H 177.665 -7.40598 -3.48507 0
M  V30 1831 N 180.328 1.1314 -1.09713 0
M  V30 1832 C 181.553 1.88862 -0.857081 0
M  V30 1833 C 181.978 1.78729 0.586304 0
M  V30 1834 O 181.336 1.13692 1.41222 0
M  V30 1835 C 181.384 3.36325 -1.30069 0
M  V30 1836 O 180.488 4.09815 -0.461007 0
M  V30 1837 H 179.829 0.587108 -0.310162 0
M  V30 1838 H 182.359 1.43129 -1.46203 0
M  V30 1839 H 182.369 3.87157 -1.28738 0
M  V30 1840 H 181.044 3.43017 -2.35185 0
M  V30 1841 H 179.621 3.68986 -0.538888 0
M  V30 1842 N 181.806 0.884767 1.30421 0
M  V30 1843 C 183.222 0.57874 1.48737 0
M  V30 1844 C 183.422 -0.883567 1.81095 0
M  V30 1845 O 182.478 -1.6648 1.89844 0
M  V30 1846 C 183.791 1.49171 2.61091 0
M  V30 1847 C 185.339 1.49532 2.74971 0
M  V30 1848 C 185.814 2.39421 3.90438 0
M  V30 1849 N 187.305 2.37383 3.97748 0
M  V30 1850 C 188.04 3.03647 4.86401 0
M  V30 1851 N 187.536 3.79136 5.79852 0
M  V30 1852 N 189.329 2.9288 4.79768 0
M  V30 1853 H 181.48 1.83075 1.0769 0
M  V30 1854 H 183.743 0.783637 0.533495 0
M  V30 1855 H 183.449 2.53291 2.44001 0
M  V30 1856 H 183.323 1.20113 3.57565 0
M  V30 1857 H 185.71 0.46163 2.91467 0
M  V30 1858 H 185.791 1.8262 1.79119 0
M  V30 1859 H 185.435 3.42874 3.74699 0
M  V30 1860 H 185.365 2.03649 4.85628 0
M  V30 1861 H 187.856 1.82525 3.30897 0
M  V30 1862 H 188.169 4.26789 6.4426 0
M  V30 1863 H 186.514 3.83243 5.79784 0
M  V30 1864 H 189.705 2.33433 4.05742 0
M  V30 1865 H 189.878 3.448 5.4865 0
M  V30 1866 N 183.284 -1.43765 0.645699 0
M  V30 1867 C 184.561 -1.9541 0.0862963 0
M  V30 1868 C 184.941 -1.58725 -1.39175 0
M  V30 1869 O 184.289 -0.868581 -2.11348 0
M  V30 1870 C 184.499 -3.47488 0.324565 0
M  V30 1871 C 185.847 -4.24001 0.225497 0
M  V30 1872 O 186.871 -3.55274 0.256715 0
M  V30 1873 O 185.73 -5.46313 0.142801 0
M  V30 1874 H 182.824 -0.826882 -0.0139483 0
M  V30 1875 H 185.37 -1.53743 0.718415 0
M  V30 1876 H 184.142 -3.67289 1.3496 0
M  V30 1877 H 183.765 -3.96135 -0.340987 0
M  V30 1878 N 184.763 -0.387143 -1.52771 0
M  V30 1879 C 186.011 0.195349 -2.01154 0
M  V30 1880 C 186.332 1.475 -1.27549 0
M  V30 1881 O 185.602 1.91878 -0.394924 0
M  V30 1882 H 184.182 0.075178 -0.743207 0
M  V30 1883 H 186.844 -0.518337 -1.87881 0
M  V30 1884 H 185.94 0.407096 -3.09434 0
M  V30 1885 N 186.241 1.57166 -0.116904 0
M  V30 1886 C 187.657 1.5779 0.239693 0
M  V30 1887 C 187.857 1.1295 1.66867 0
M  V30 1888 O 186.913 0.81592 2.38954 0
M  V30 1889 C 188.226 3.00699 0.00828202 0
M  V30 1890 C 189.774 3.12912 0.0743438 0
M  V30 1891 C 190.249 4.57817 -0.129348 0
M  V30 1892 N 191.74 4.63139 -0.075247 0
M  V30 1893 C 192.475 5.73023 -0.207788 0
M  V30 1894 N 191.971 6.91665 -0.396382 0
M  V30 1895 N 193.764 5.61906 -0.14751 0
M  V30 1896 H 185.915 1.84615 -1.05029 0
M  V30 1897 H 188.178 0.85311 -0.41341 0
M  V30 1898 H 187.884 3.37784 -0.979531 0
M  V30 1899 H 187.758 3.69848 0.741077 0
M  V30 1900 H 190.145 2.75686 1.05268 0
M  V30 1901 H 190.226 2.4631 -0.690297 0
M  V30 1902 H 189.87 4.95742 -1.10465 0
M  V30 1903 H 189.8 5.22507 0.655253 0
M  V30 1904 H 192.291 3.7784 0.0670898 0
M  V30 1905 H 192.604 7.71255 -0.488437 0
M  V30 1906 H 190.949 6.93654 -0.432329 0
M  V30 1907 H 194.14 4.681 -0.00115036 0
M  V30 1908 H 194.313 6.47501 -0.254247 0
M  V30 1909 N 187.719 -0.156864 1.56817 0
M  V30 1910 C 189.135 -0.50916 1.5126 0
M  V30 1911 C 189.335 -1.83897 0.823658 0
M  V30 1912 O 188.391 -2.49469 0.390055 0
M  V30 1913 C 189.704 -0.52857 2.96018 0
M  V30 1914 C 191.252 -0.614771 3.06903 0
M  V30 1915 C 191.727 -0.664938 4.53147 0
M  V30 1916 N 193.218 -0.727433 4.57452 0
M  V30 1917 C 193.953 -0.787067 5.67973 0
M  V30 1918 N 193.449 -0.806649 6.88088 0
M  V30 1919 N 195.242 -0.827195 5.5598 0
M  V30 1920 H 187.393 0.714935 2.00006 0
M  V30 1921 H 189.656 0.259526 0.911784 0
M  V30 1922 H 189.362 0.380154 3.49639 0
M  V30 1923 H 189.236 -1.36998 3.51442 0
M  V30 1924 H 191.623 -1.51392 2.53307 0
M  V30 1925 H 191.704 0.253597 2.5454 0
M  V30 1926 H 191.348 0.230011 5.07379 0
M  V30 1927 H 191.278 -1.54966 5.03282 0
M  V30 1928 H 193.769 -0.719998 3.70978 0
M  V30 1929 H 194.082 -0.853727 7.6807 0
M  V30 1930 H 192.427 -0.774687 6.90669 0
M  V30 1931 H 195.618 -0.808998 4.61056 0
M  V30 1932 H 195.791 -0.870206 6.4213 0
M  V30 1933 N 189.197 -1.51736 -0.425897 0
M  V30 1934 C 190.443 -1.66174 -1.17294 0
M  V30 1935 C 190.798 -0.37876 -1.88635 0
M  V30 1936 O 190.091 0.626021 -1.81084 0
M  V30 1937 C 190.285 -2.81103 -2.20717 0
M  V30 1938 C 190.114 -4.20453 -1.59529 0
M  V30 1939 C 188.884 -4.86225 -1.37525 0
M  V30 1940 C 191.082 -5.03146 -1.06528 0
M  V30 1941 N 189.064 -6.09657 -0.720537 0
M  V30 1942 C 190.435 -6.17674 -0.536506 0
M  V30 1943 C 192.49 -4.88594 -0.958127 0
M  V30 1944 C 191.193 -7.19245 0.0888917 0
M  V30 1945 C 193.219 -5.90383 -0.346608 0
M  V30 1946 C 192.581 -7.04191 0.171564 0
M  V30 1947 H 188.68 -0.661871 -0.416475 0
M  V30 1948 H 191.264 -1.88997 -0.467801 0
M  V30 1949 H 189.435 -2.59924 -2.88607 0
M  V30 1950 H 191.167 -2.84662 -2.87663 0
M  V30 1951 H 187.922 -4.44293 -1.64015 0
M  V30 1952 H 188.346 -6.75756 -0.410292 0
M  V30 1953 H 192.988 -4.0085 -1.34459 0
M  V30 1954 H 190.706 -8.06628 0.48746 0
M  V30 1955 H 194.292 -5.81194 -0.265451 0
M  V30 1956 H 193.172 -7.81606 0.637309 0
M  V30 1957 N 190.675 0.682077 -1.42076 0
M  V30 1958 C 191.608 1.80666 -1.3941 0
M  V30 1959 C 192.586 1.60518 -0.25939 0
M  V30 1960 O 193.77 1.83088 -0.448456 0
M  V30 1961 C 190.897 3.17556 -1.17796 0
M  V30 1962 C 189.943 3.56468 -2.34164 0
M  V30 1963 S 190.776 3.59729 -3.96681 0
M  V30 1964 C 191.932 4.99323 -3.77395 0
M  V30 1965 H 192.165 1.82652 -2.34575 0
M  V30 1966 H 189.698 0.852062 -1.2876 0
M  V30 1967 H 191.656 3.96575 -1.06012 0
M  V30 1968 H 190.317 3.13164 -0.242279 0
M  V30 1969 H 189.51 4.5595 -2.1477 0
M  V30 1970 H 189.112 2.84792 -2.42425 0
M  V30 1971 H 191.404 5.87202 -3.37935 0
M  V30 1972 H 192.347 5.23763 -4.76527 0
M  V30 1973 H 192.755 4.71498 -3.10403 0
M  V30 1974 N 192.153 1.28127 0.917671 0
M  V30 1975 C 193.401 1.14825 1.66312 0
M  V30 1976 C 193.722 -0.304379 1.9261 0
M  V30 1977 O 192.992 -1.21149 1.53947 0
M  V30 1978 H 191.572 0.421953 0.616413 0
M  V30 1979 H 194.234 1.608 1.10134 0
M  V30 1980 H 193.33 1.68489 2.62712 0
M  V30 1981 N 193.631 -1.12557 1.10312 0
M  V30 1982 C 194.877 -1.84515 0.855901 0
M  V30 1983 C 195.232 -1.82409 -0.611936 0
M  V30 1984 O 194.525 -1.25778 -1.44535 0
M  V30 1985 C 194.719 -3.31462 1.33669 0
M  V30 1986 C 194.548 -3.47879 2.84974 0
M  V30 1987 C 193.318 -3.61589 3.52961 0
M  V30 1988 C 195.516 -3.43152 3.83081 0
M  V30 1989 N 193.498 -3.66359 4.926 0
M  V30 1990 C 194.869 -3.54401 5.08724 0
M  V30 1991 C 196.924 -3.2661 3.75807 0
M  V30 1992 C 195.627 -3.50815 6.2795 0
M  V30 1993 C 197.653 -3.24335 4.94531 0
M  V30 1994 C 197.015 -3.36144 6.19021 0
M  V30 1995 H 193.114 -0.690967 0.366182 0
M  V30 1996 H 195.698 -1.34763 1.40524 0
M  V30 1997 H 193.869 -3.7976 0.814686 0
M  V30 1998 H 195.601 -3.91272 1.03385 0
M  V30 1999 H 192.356 -3.63652 3.03404 0
M  V30 2000 H 192.78 -3.72411 5.65366 0
M  V30 2001 H 197.422 -3.16375 2.80476 0
M  V30 2002 H 195.14 -3.5982 7.23571 0
M  V30 2003 H 198.726 -3.12719 4.9061 0
M  V30 2004 H 197.606 -3.34357 7.09348 0
M  V30 2005 N 195.109 -0.891671 -1.2995 0
M  V30 2006 C 196.056 -0.361736 -2.27948 0
M  V30 2007 C 197.026 0.551761 -1.56668 0
M  V30 2008 O 198.211 0.478736 -1.84696 0
M  V30 2009 C 195.351 0.411825 -3.42634 0
M  V30 2010 C 194.464 -0.531651 -4.28716 0
M  V30 2011 C 193.599 0.258167 -5.30572 0
M  V30 2012 C 192.638 -0.680349 -6.08307 0
M  V30 2013 N 191.775 0.0745613 -7.0206 0
M  V30 2014 H 196.615 -1.20254 -2.72659 0
M  V30 2015 H 194.152 -0.604352 -1.34112 0
M  V30 2016 H 196.11 0.876304 -4.07893 0
M  V30 2017 H 194.74 1.21715 -2.98974 0
M  V30 2018 H 193.792 -1.11463 -3.63703 0
M  V30 2019 H 195.104 -1.25038 -4.82874 0
M  V30 2020 H 194.258 0.784204 -6.0161 0
M  V30 2021 H 192.997 1.01008 -4.77126 0
M  V30 2022 H 192.002 -1.21796 -5.3614 0
M  V30 2023 H 193.227 -1.43145 -6.63842 0
M  V30 2024 H 191.173 0.808883 -6.50994 0
M  V30 2025 H 191.09 -0.584409 -7.53738 0
M  V30 2026 H 192.358 0.581123 -7.77331 0
M  V30 2027 N 196.587 1.43421 -0.653314 0
M  V30 2028 C 197.864 1.95361 -0.0966581 0
M  V30 2029 C 198.244 1.59461 1.38331 0
M  V30 2030 O 197.592 0.879777 2.10884 0
M  V30 2031 C 197.802 3.47311 -0.342988 0
M  V30 2032 C 199.15 4.23875 -0.24798 0
M  V30 2033 O 200.174 3.55133 -0.275553 0
M  V30 2034 O 199.033 5.4623 -0.171771 0
M  V30 2035 H 196.127 0.826945 0.00956291 0
M  V30 2036 H 198.673 1.5336 -0.726558 0
M  V30 2037 H 197.445 3.66569 -1.36906 0
M  V30 2038 H 197.068 3.9631 0.319975 0
M  V30 2039 N 198.065 0.39524 1.52563 0
M  V30 2040 C 199.481 0.0454682 1.59535 0
M  V30 2041 C 199.681 -1.44056 1.4089 0
M  V30 2042 O 198.737 -2.20579 1.22888 0
M  V30 2043 C 200.05 0.527963 2.96029 0
M  V30 2044 C 201.598 0.484733 3.09224 0
M  V30 2045 C 202.073 0.943512 4.48176 0
M  V30 2046 N 203.564 0.899765 4.54377 0
M  V30 2047 C 204.299 1.22609 5.60138 0
M  V30 2048 N 203.795 1.62319 6.73516 0
M  V30 2049 N 205.588 1.14696 5.50274 0
M  V30 2050 H 197.739 1.36261 1.62931 0
M  V30 2051 H 200.002 0.558887 0.765735 0
M  V30 2052 H 199.708 1.56607 3.14908 0
M  V30 2053 H 199.582 -0.0698056 3.77135 0
M  V30 2054 H 201.969 -0.544298 2.90037 0
M  V30 2055 H 202.05 1.11838 2.30056 0
M  V30 2056 H 201.694 1.9708 4.68104 0
M  V30 2057 H 201.624 0.286817 5.25818 0
M  V30 2058 H 204.115 0.607632 3.72983 0
M  V30 2059 H 204.428 1.85567 7.5019 0
M  V30 2060 H 202.773 1.66211 6.74833 0
M  V30 2061 H 205.964 0.835701 4.6058 0
M  V30 2062 H 206.137 1.40459 6.32594 0
M  V30 2063 N 199.544 -1.57102 0.125237 0
M  V30 2064 C 200.79 -1.96488 -0.525753 0
M  V30 2065 C 201.145 -1.00786 -1.6389 0
M  V30 2066 O 200.438 -0.038979 -1.9156 0
M  V30 2067 C 200.632 -3.40096 -1.09862 0
M  V30 2068 C 200.461 -4.4968 -0.0425004 0
M  V30 2069 C 199.231 -5.03781 0.391463 0
M  V30 2070 C 201.429 -5.08936 0.740829 0
M  V30 2071 N 199.411 -5.96948 1.4327 0
M  V30 2072 C 200.782 -5.98105 1.6331 0
M  V30 2073 C 202.837 -4.91576 0.791029 0
M  V30 2074 C 201.54 -6.71774 2.57122 0
M  V30 2075 C 203.566 -5.6593 1.71688 0
M  V30 2076 C 202.928 -6.5479 2.59672 0
M  V30 2077 H 199.027 -0.765072 -0.161831 0
M  V30 2078 H 201.611 -1.93511 0.214801 0
M  V30 2079 H 199.782 -3.43707 -1.80887 0
M  V30 2080 H 201.514 -3.66591 -1.71444 0
M  V30 2081 H 198.269 -4.736 -0.00213584 0
M  V30 2082 H 198.693 -6.48236 1.95243 0
M  V30 2083 H 203.335 -4.22615 0.124915 0
M  V30 2084 H 201.053 -7.39977 3.24744 0
M  V30 2085 H 204.639 -5.54501 1.76125 0
M  V30 2086 H 203.519 -7.11316 3.30149 0
M  V30 2087 N 201.022 0.148545 -1.56898 0
M  V30 2088 C 202.27 0.859717 -1.82902 0
M  V30 2089 C 202.591 1.81775 -0.70588 0
M  V30 2090 O 201.861 1.93994 0.272586 0
M  V30 2091 H 200.441 0.320469 -0.674766 0
M  V30 2092 H 203.103 0.142918 -1.94375 0
M  V30 2093 H 202.199 1.4229 -2.77777 0
M  V30 2094 N 202.5 1.5196 0.417844 0
M  V30 2095 C 203.432 1.70895 1.52733 0
M  V30 2096 C 204.445 0.589405 1.51756 0
M  V30 2097 O 205.634 0.864312 1.56179 0
M  V30 2098 C 202.734 1.72627 2.91639 0
M  V30 2099 C 201.907 3.01479 3.16905 0
M  V30 2100 C 200.966 2.95139 4.35637 0
M  V30 2101 O 199.992 3.69059 4.3334 0
M  V30 2102 N 201.194 2.12328 5.40275 0
M  V30 2103 H 203.959 2.66612 1.36888 0
M  V30 2104 H 201.52 1.50089 0.607037 0
M  V30 2105 H 203.512 1.65928 3.6912 0
M  V30 2106 H 202.082 0.844216 3.00985 0
M  V30 2107 H 201.302 3.21895 2.27546 0
M  V30 2108 H 202.59 3.86736 3.30625 0
M  V30 2109 H 201.988 1.51685 5.44985 0
M  V30 2110 H 200.545 2.11494 6.16534 0
M  V30 2111 N 203.978 -0.674533 1.42435 0
M  V30 2112 C 204.888 -1.81751 1.48337 0
M  V30 2113 C 205.904 -1.69975 0.372099 0
M  V30 2114 O 207.08 -1.91521 0.62304 0
M  V30 2115 C 204.145 -3.17895 1.38361 0
M  V30 2116 C 203.206 -3.41625 2.59982 0
M  V30 2117 C 202.439 -4.71274 2.50473 0
M  V30 2118 O 202.662 -5.49197 1.54075 0
M  V30 2119 O 201.596 -4.96254 3.4061 0
M  V30 2120 H 205.422 -1.79728 2.44809 0
M  V30 2121 H 203.007 -0.830312 1.24202 0
M  V30 2122 H 204.889 -3.99136 1.35161 0
M  V30 2123 H 203.564 -3.20555 0.450144 0
M  V30 2124 H 202.471 -2.60231 2.68757 0
M  V30 2125 H 203.804 -3.43796 3.52229 0
M  V30 2126 N 205.456 -1.28612 -0.910864 0
M  V30 2127 C 206.702 -1.16106 -1.66274 0
M  V30 2128 C 207.035 0.289113 -1.92036 0
M  V30 2129 O 206.31 1.21 -1.52281 0
M  V30 2130 C 206.593 -1.96309 -3.01885 0
M  V30 2131 C 206.446 -3.49405 -2.8326 0
M  V30 2132 C 207.765 -1.78076 -4.02463 0
M  V30 2133 H 204.884 -0.423152 -0.603417 0
M  V30 2134 H 207.526 -1.57961 -1.05586 0
M  V30 2135 H 205.676 -1.60742 -3.53687 0
M  V30 2136 H 207.348 -3.94894 -2.38446 0
M  V30 2137 H 205.591 -3.74893 -2.18261 0
M  V30 2138 H 206.262 -4.00784 -3.79574 0
M  V30 2139 H 208.738 -2.0912 -3.59733 0
M  V30 2140 H 207.614 -2.36561 -4.95308 0
M  V30 2141 H 207.875 -0.733008 -4.35981 0
M  V30 2142 N 206.934 1.1197 -1.10907 0
M  V30 2143 C 208.183 1.82947 -0.849302 0
M  V30 2144 C 208.496 1.85275 0.627112 0
M  V30 2145 O 209.702 2.52296 1.00295 0
M  V30 2146 C 208.158 3.28529 -1.46959 0
M  V30 2147 C 207.766 3.34546 -2.97965 0
M  V30 2148 C 209.51 4.04443 -1.28942 0
M  V30 2149 C 207.417 4.74491 -3.53004 0
M  V30 2150 H 206.347 0.685477 -0.314065 0
M  V30 2151 H 208.998 1.2604 -1.33365 0
M  V30 2152 H 207.38 3.85333 -0.912917 0
M  V30 2153 H 208.554 2.87654 -3.59989 0
M  V30 2154 H 206.869 2.72108 -3.15192 0
M  V30 2155 H 209.466 5.07787 -1.67502 0
M  V30 2156 H 209.809 4.15656 -0.231456 0
M  V30 2157 H 210.342 3.5401 -1.81443 0
M  V30 2158 H 207.081 4.68474 -4.58489 0
M  V30 2159 H 206.601 5.21816 -2.9575 0
M  V30 2160 H 208.28 5.4344 -3.51115 0
M  V30 2161 N 208.412 0.89855 1.29475 0
M  V30 2162 C 209.637 0.538561 2.00285 0
M  V30 2163 C 210.062 -0.869135 1.66816 0
M  V30 2164 O 209.42 -1.57831 0.892145 0
M  V30 2165 C 209.468 0.736475 3.52999 0
M  V30 2166 O 208.572 -0.211537 4.11857 0
M  V30 2167 H 207.913 0.210563 0.62973 0
M  V30 2168 H 210.443 1.20982 1.64998 0
M  V30 2169 H 210.453 0.640685 4.02938 0
M  V30 2170 H 209.128 1.76276 3.76696 0
M  V30 2171 H 207.705 -0.0682991 3.72837 0
M  V30 2172 N 209.89 -1.43072 0.660911 0
M  V30 2173 C 211.138 -2.01323 0.177094 0
M  V30 2174 C 211.459 -1.5245 -1.2159 0
M  V30 2175 O 210.729 -0.740322 -1.81373 0
M  V30 2176 H 209.309 -0.744382 0.0624804 0
M  V30 2177 H 211.971 -1.75179 0.854305 0
M  V30 2178 H 211.067 -3.11649 0.167641 0
M  V30 2179 N 211.368 -0.403325 -1.52352 0
M  V30 2180 C 212.316 0.439752 -2.28405 0
M  V30 2181 C 213.31 1.05089 -1.32863 0
M  V30 2182 O 214.516 0.989759 -1.50345 0
M  V30 2183 H 210.891 0.160587 -0.734653 0
M  V30 2184 H 212.862 -0.222983 -2.97566 0
M  V30 2185 C 211.611 1.54736 -3.11371 0
M  V30 2186 H 210.934 1.08643 -3.84755 0
M  V30 2187 H 212.374 2.1112 -3.67701 0
M  V30 2188 C 210.833 2.51141 -2.24566 0
M  V30 2189 O 211.363 3.54887 -1.88196 0
M  V30 2190 N 209.569 2.21213 -1.8845 0
M  V30 2191 H 209.116 1.36878 -2.18225 0
M  V30 2192 H 209.074 2.85963 -1.30662 0
M  V30 2193 N 212.846 1.57033 -0.133567 0
M  V30 2194 C 213.756 2.19632 0.824564 0
M  V30 2195 C 214.772 1.17666 1.28182 0
M  V30 2196 O 215.948 1.50193 1.3418 0
M  V30 2197 C 213.013 2.79499 2.05137 0
M  V30 2198 C 212.074 3.96548 1.64464 0
M  V30 2199 C 211.307 4.5355 2.81297 0
M  V30 2200 O 211.53 4.09438 3.97136 0
M  V30 2201 O 210.464 5.44018 2.57542 0
M  V30 2202 H 214.29 3.01991 0.321766 0
M  V30 2203 H 211.875 1.49112 0.0927889 0
M  V30 2204 H 213.757 3.17602 2.7696 0
M  V30 2205 H 212.432 2.00162 2.54395 0
M  V30 2206 H 211.339 3.63186 0.897048 0
M  V30 2207 H 212.672 4.77364 1.19934 0
M  V30 2208 N 214.325 -0.140222 1.56975 0
M  V30 2209 C 215.602 -0.880769 1.74648 0
M  V30 2210 C 215.982 -1.99036 0.703404 0
M  V30 2211 O 215.33 -2.26821 -0.27648 0
M  V30 2212 C 215.54 -1.417 3.18939 0
M  V30 2213 C 216.888 -1.87774 3.80823 0
M  V30 2214 O 217.912 -1.51427 3.2241 0
M  V30 2215 O 216.771 -2.54827 4.83452 0
M  V30 2216 H 213.865 -0.416713 0.714338 0
M  V30 2217 H 216.411 -0.125618 1.69234 0
M  V30 2218 H 215.183 -0.619902 3.86359 0
M  V30 2219 H 214.806 -2.23546 3.28805 0
M  V30 2220 N 215.803 -1.52179 -0.40978 0
M  V30 2221 C 217.214 -1.58377 -0.988615 0
M  V30 2222 C 217.565 -0.423879 -1.91566 0
M  V30 2223 O 216.69 0.455844 -2.11544 0
M  V30 2224 C 217.285 -2.87044 -1.79976 0
M  V30 2225 C 215.844 -2.95722 -2.32863 0
M  V30 2226 C 214.991 -2.53309 -1.12828 0
M  V30 2227 H 217.942 -1.57558 -0.190039 0
M  V30 2228 H 217.963 -2.7236 -2.65707 0
M  V30 2229 H 217.475 -3.71444 -1.12478 0
M  V30 2230 H 215.576 -2.15814 -3.03735 0
M  V30 2231 H 215.689 -3.99951 -2.63773 0
M  V30 2232 H 214.053 -2.07142 -1.48204 0
M  V30 2233 H 214.836 -3.40082 -0.46897 0
M  V30 2234 N 217.281 0.66697 -1.42791 0
M  V30 2235 C 218.191 1.80962 -1.49299 0
M  V30 2236 C 219.207 1.69775 -0.381108 0
M  V30 2237 O 220.383 1.91188 -0.633188 0
M  V30 2238 C 217.448 3.17156 -1.40045 0
M  V30 2239 C 216.509 3.40242 -2.6179 0
M  V30 2240 C 215.742 4.69939 -2.52969 0
M  V30 2241 O 215.965 5.48372 -1.56985 0
M  V30 2242 O 214.899 4.94441 -3.43237 0
M  V30 2243 H 218.725 1.78427 -2.45759 0
M  V30 2244 H 216.31 0.823713 -1.24641 0
M  V30 2245 H 218.192 3.98413 -1.37276 0
M  V30 2246 H 216.867 3.20312 -0.467138 0
M  V30 2247 H 215.774 2.58802 -2.70134 0
M  V30 2248 H 217.107 3.41923 -3.54047 0
M  V30 2249 N 218.759 1.29093 0.90403 0
M  V30 2250 C 220.007 1.16583 1.65085 0
M  V30 2251 C 220.328 -0.283933 1.92922 0
M  V30 2252 O 219.598 -1.19509 1.55224 0
M  V30 2253 H 218.178 0.428467 0.611903 0
M  V30 2254 H 220.84 1.61959 1.08422 0
M  V30 2255 H 219.936 1.71266 2.6091 0
M  V30 2256 N 220.237 -1.11381 1.11499 0
M  V30 2257 C 221.483 -1.83403 0.865512 0
M  V30 2258 C 221.816 -1.84459 -0.607329 0
M  V30 2259 O 221.091 -1.29811 -1.44842 0
M  V30 2260 C 221.374 -3.30552 1.42855 0
M  V30 2261 C 221.227 -3.37886 2.96906 0
M  V30 2262 C 222.546 -4.26643 1.08 0
M  V30 2263 H 219.665 -0.665879 0.31587 0
M  V30 2264 H 222.307 -1.30601 1.37998 0
M  V30 2265 H 220.457 -3.75648 0.990985 0
M  V30 2266 H 222.129 -3.01343 3.49271 0
M  V30 2267 H 220.372 -2.78088 3.32941 0
M  V30 2268 H 221.043 -4.41458 3.31389 0
M  V30 2269 H 223.519 -3.89729 1.45775 0
M  V30 2270 H 222.395 -5.27986 1.50072 0
M  V30 2271 H 222.656 -4.42099 -0.00915037 0
M  V30 2272 N 221.715 -0.905404 -1.28997 0
M  V30 2273 C 222.961 -0.535039 -1.95615 0
M  V30 2274 C 223.294 0.917404 -1.71165 0
M  V30 2275 O 222.569 1.65123 -1.02785 0
M  V30 2276 C 222.852 -0.834918 -3.50287 0
M  V30 2277 C 222.705 -2.33948 -3.84172 0
M  V30 2278 C 224.024 -0.325318 -4.38896 0
M  V30 2279 H 221.143 -0.195861 -0.710498 0
M  V30 2280 H 223.785 -1.13313 -1.52513 0
M  V30 2281 H 221.935 -0.325904 -3.87131 0
M  V30 2282 H 223.607 -2.91847 -3.57243 0
M  V30 2283 H 221.85 -2.79789 -3.31513 0
M  V30 2284 H 222.521 -2.49987 -4.92149 0
M  V30 2285 H 224.997 -0.761256 -4.09077 0
M  V30 2286 H 223.873 -0.564295 -5.45992 0
M  V30 2287 H 224.134 0.774144 -4.35269 0
M  V30 2288 N 223.193 1.4272 -0.668489 0
M  V30 2289 C 224.123 2.335 -0.000100175 0
M  V30 2290 C 225.104 1.50328 0.795964 0
M  V30 2291 O 226.289 1.78949 0.754385 0
M  V30 2292 C 223.419 3.33874 0.956302 0
M  V30 2293 C 222.373 4.27152 0.269278 0
M  V30 2294 C 221.699 5.17684 1.33818 0
M  V30 2295 C 222.999 5.15373 -0.847805 0
M  V30 2296 H 224.693 2.89639 -0.758244 0
M  V30 2297 H 222.239 1.39269 -0.366079 0
M  V30 2298 H 224.192 3.9629 1.43292 0
M  V30 2299 H 222.916 2.76025 1.74579 0
M  V30 2300 H 221.575 3.66123 -0.187042 0
M  V30 2301 H 221.223 4.56165 2.1195 0
M  V30 2302 H 220.923 5.80918 0.883659 0
M  V30 2303 H 222.447 5.82974 1.81586 0
M  V30 2304 H 223.861 5.7151 -0.452681 0
M  V30 2305 H 222.258 5.87407 -1.22773 0
M  V30 2306 H 223.328 4.5415 -1.69929 0
M  V30 2307 N 224.671 0.411399 1.52136 0
M  V30 2308 C 225.618 -0.412975 2.27075 0
M  V30 2309 C 226.588 -1.03912 1.29582 0
M  V30 2310 O 227.773 -1.06296 1.58448 0
M  V30 2311 C 224.913 -1.52247 3.09701 0
M  V30 2312 C 224.026 -0.917021 4.22155 0
M  V30 2313 C 223.161 -1.9994 4.92135 0
M  V30 2314 C 222.2 -1.37101 5.96548 0
M  V30 2315 N 221.337 -2.39364 6.60038 0
M  V30 2316 H 226.177 0.232499 2.97092 0
M  V30 2317 H 223.714 0.126496 1.46555 0
M  V30 2318 H 225.672 -2.17674 3.55913 0
M  V30 2319 H 224.302 -2.13794 2.41851 0
M  V30 2320 H 223.354 -0.151742 3.80097 0
M  V30 2321 H 224.666 -0.418006 4.97045 0
M  V30 2322 H 223.82 -2.73088 5.41763 0
M  V30 2323 H 222.559 -2.53208 4.16818 0
M  V30 2324 H 221.564 -0.624873 5.46237 0
M  V30 2325 H 222.789 -0.845998 6.7381 0
M  V30 2326 H 220.735 -2.91759 5.87548 0
M  V30 2327 H 220.652 -1.9428 7.3061 0
M  V30 2328 H 221.92 -3.12074 7.14304 0
M  V30 2329 N 226.149 -1.5696 0.141893 0
M  V30 2330 C 227.426 -1.87553 -0.555281 0
M  V30 2331 C 227.806 -1.04699 -1.83306 0
M  V30 2332 O 227.154 -0.132346 -2.28116 0
M  V30 2333 C 227.364 -3.39093 -0.825664 0
M  V30 2334 C 228.712 -4.08199 -1.16869 0
M  V30 2335 O 229.736 -3.44242 -0.915185 0
M  V30 2336 O 228.595 -5.21139 -1.6455 0
M  V30 2337 H 225.689 -0.777188 -0.282679 0
M  V30 2338 H 228.235 -1.68763 0.17812 0
M  V30 2339 H 227.007 -3.91221 0.0788633 0
M  V30 2340 H 226.63 -3.63393 -1.61343 0
M  V30 2341 N 227.627 0.131896 -1.57047 0
M  V30 2342 C 228.557 1.16384 -2.02428 0
M  V30 2343 C 229.538 1.43936 -0.90644 0
M  V30 2344 O 230.723 1.54599 -1.17528 0
M  V30 2345 C 227.853 2.49328 -2.4177 0
M  V30 2346 C 226.807 2.36266 -3.56879 0
M  V30 2347 C 226.133 3.74057 -3.8208 0
M  V30 2348 C 227.433 1.834 -4.89042 0
M  V30 2349 H 229.127 0.786433 -2.88887 0
M  V30 2350 H 226.673 0.376855 -1.38981 0
M  V30 2351 H 228.626 3.21759 -2.7212 0
M  V30 2352 H 227.35 2.88934 -1.52266 0
M  V30 2353 H 226.009 1.66286 -3.26718 0
M  V30 2354 H 225.657 4.11125 -2.89803 0
M  V30 2355 H 225.357 3.66174 -4.59554 0
M  V30 2356 H 226.881 4.48012 -4.1487 0
M  V30 2357 H 228.295 2.45636 -5.18011 0
M  V30 2358 H 226.692 1.8637 -5.70426 0
M  V30 2359 H 227.762 0.790662 -4.7841 0
M  V30 2360 N 229.106 1.52395 0.401703 0
M  V30 2361 C 230.354 1.66488 1.14569 0
M  V30 2362 C 230.675 0.400897 1.90835 0
M  V30 2363 O 229.945 -0.584415 1.8698 0
M  V30 2364 H 228.525 0.613672 0.425929 0
M  V30 2365 H 231.187 1.89464 0.457093 0
M  V30 2366 H 230.283 2.50942 1.85566 0
M  V30 2367 N 230.584 -0.659388 1.43143 0
M  V30 2368 C 231.995 -1.24041 1.39537 0
M  V30 2369 C 232.346 -1.95963 0.0963364 0
M  V30 2370 O 231.471 -2.00892 -0.804438 0
M  V30 2371 C 232.066 -2.25601 2.52764 0
M  V30 2372 C 230.625 -2.79195 2.52443 0
M  V30 2373 C 229.772 -1.53743 2.30778 0
M  V30 2374 H 232.723 -0.451792 1.52133 0
M  V30 2375 H 232.744 -3.07651 2.23899 0
M  V30 2376 H 232.256 -1.73226 3.47296 0
M  V30 2377 H 230.357 -3.35649 1.61773 0
M  V30 2378 H 230.47 -3.2716 3.50004 0
M  V30 2379 H 228.834 -1.80869 1.79328 0
M  V30 2380 H 229.617 -1.03312 3.27386 0
M  V30 2381 N 232.062 -1.29571 -0.897171 0
M  V30 2382 C 233.473 -1.15964 -1.46319 0
M  V30 2383 C 233.824 0.244267 -1.94674 0
M  V30 2384 O 232.949 1.13998 -1.83939 0
M  V30 2385 C 233.544 -2.09906 -2.65942 0
M  V30 2386 C 232.103 -2.00314 -3.18671 0
M  V30 2387 C 231.25 -2.00687 -1.91363 0
M  V30 2388 H 234.201 -1.42019 -0.708268 0
M  V30 2389 H 234.222 -1.67276 -3.41759 0
M  V30 2390 H 233.734 -3.12075 -2.30718 0
M  V30 2391 H 231.835 -1.01242 -3.58582 0
M  V30 2392 H 231.948 -2.88102 -3.82798 0
M  V30 2393 H 230.312 -1.45319 -2.09175 0
M  V30 2394 H 231.095 -3.04566 -1.58413 0
M  V30 2395 N 233.54 1.10788 -1.12088 0
M  V30 2396 C 234.473 2.16237 -0.729168 0
M  V30 2397 C 235.451 1.60207 0.277921 0
M  V30 2398 O 236.635 1.87707 0.172737 0
M  V30 2399 C 233.762 3.38609 -0.0786848 0
M  V30 2400 C 232.808 4.13322 -1.05201 0
M  V30 2401 S 233.641 4.69371 -2.57781 0
M  V30 2402 C 234.797 5.95058 -1.94053 0
M  V30 2403 H 235.03 2.4913 -1.62239 0
M  V30 2404 H 232.563 1.22519 -0.939603 0
M  V30 2405 H 234.521 4.09473 0.290254 0
M  V30 2406 H 233.182 3.03962 0.791593 0
M  V30 2407 H 232.375 5.01051 -0.544433 0
M  V30 2408 H 231.977 3.48251 -1.36371 0
M  V30 2409 H 234.269 6.65278 -1.28107 0
M  V30 2410 H 235.212 6.50472 -2.79807 0
M  V30 2411 H 235.62 5.46918 -1.39787 0
M  V30 2412 N 235.018 0.912232 1.28515 0
M  V30 2413 C 236.264 0.545405 1.95328 0
M  V30 2414 C 236.597 -0.908313 1.71649 0
M  V30 2415 O 235.872 -1.64575 1.03659 0
M  V30 2416 C 236.155 0.853483 3.4984 0
M  V30 2417 C 236.008 2.35982 3.82926 0
M  V30 2418 C 237.327 0.348589 4.38717 0
M  V30 2419 H 234.446 0.199626 0.709449 0
M  V30 2420 H 237.088 1.1412 1.5191 0
M  V30 2421 H 235.238 0.34643 3.86952 0
M  V30 2422 H 236.91 2.93738 3.55691 0
M  V30 2423 H 235.153 2.81543 3.30024 0
M  V30 2424 H 235.824 2.52593 4.90816 0
M  V30 2425 H 238.3 0.78294 4.08668 0
M  V30 2426 H 237.176 0.593242 5.45685 0
M  V30 2427 H 237.437 -0.751049 4.35674 0
M  V30 2428 N 236.496 -1.42363 0.676048 0
M  V30 2429 C 237.459 -2.29199 0.00766941 0
M  V30 2430 C 238.459 -1.43389 -0.727745 0
M  V30 2431 O 239.649 -1.64764 -0.56556 0
M  V30 2432 C 236.781 -3.2591 -0.999785 0
M  V30 2433 H 237.974 -2.89794 0.771988 0
M  V30 2434 H 235.527 -1.50024 0.438468 0
M  V30 2435 H 236.262 -2.70256 -1.79255 0
M  V30 2436 H 236.047 -3.89202 -0.475829 0
M  V30 2437 H 237.537 -3.91028 -1.46583 0
M  V30 2438 N 237.974 -0.419461 -1.51915 0
M  V30 2439 C 239.39 -0.0708431 -1.59443 0
M  V30 2440 C 239.59 1.41796 -1.43164 0
M  V30 2441 O 238.646 2.18596 -1.26381 0
M  V30 2442 C 239.959 -0.574991 -2.95151 0
M  V30 2443 C 241.507 -0.533867 -3.08413 0
M  V30 2444 C 241.982 -1.01469 -4.46618 0
M  V30 2445 N 243.473 -0.971939 -4.52888 0
M  V30 2446 C 244.208 -1.31505 -5.58116 0
M  V30 2447 N 243.704 -1.73014 -6.70849 0
M  V30 2448 N 245.497 -1.23436 -5.48379 0
M  V30 2449 H 237.648 -1.38836 -1.60743 0
M  V30 2450 H 239.911 -0.570998 -0.756747 0
M  V30 2451 H 239.617 -1.61597 -3.12377 0
M  V30 2452 H 239.491 0.00979777 -3.77199 0
M  V30 2453 H 241.878 0.498086 -2.90866 0
M  V30 2454 H 241.959 -1.15484 -2.28248 0
M  V30 2455 H 241.603 -2.04502 -4.6491 0
M  V30 2456 H 241.533 -0.370433 -5.25295 0
M  V30 2457 H 244.024 -0.666893 -3.71969 0
M  V30 2458 H 244.337 -1.97479 -7.47143 0
M  V30 2459 H 242.682 -1.76926 -6.72103 0
M  V30 2460 H 245.873 -0.908869 -4.59192 0
M  V30 2461 H 246.046 -1.50506 -6.30279 0
M  V30 2462 N 239.452 1.56882 -0.150215 0
M  V30 2463 C 240.382 2.19935 0.784284 0
M  V30 2464 C 241.363 1.14854 1.25469 0
M  V30 2465 O 242.548 1.43209 1.31168 0
M  V30 2466 C 239.678 2.82349 2.02229 0
M  V30 2467 C 238.632 3.93285 1.68853 0
M  V30 2468 C 237.958 4.42649 2.99944 0
M  V30 2469 C 239.258 5.13904 0.932714 0
M  V30 2470 H 240.952 2.9828 0.258781 0
M  V30 2471 H 238.498 1.43473 0.123029 0
M  V30 2472 H 240.451 3.25126 2.68088 0
M  V30 2473 H 239.175 2.0134 2.57157 0
M  V30 2474 H 237.834 3.5113 1.05371 0
M  V30 2475 H 237.482 3.58458 3.52869 0
M  V30 2476 H 237.182 5.17476 2.78374 0
M  V30 2477 H 238.706 4.88099 3.66868 0
M  V30 2478 H 240.12 5.53506 1.49345 0
M  V30 2479 H 238.517 5.94515 0.81684 0
M  V30 2480 H 239.587 4.84842 -0.0749568 0
M  V30 2481 N 240.93 -0.123565 1.57115 0
M  V30 2482 C 242.176 -0.833386 1.84885 0
M  V30 2483 C 242.509 -1.79742 0.735292 0
M  V30 2484 O 241.784 -1.92764 -0.25925 0
M  V30 2485 C 242.067 -1.5873 3.23228 0
M  V30 2486 C 241.92 -0.643183 4.45178 0
M  V30 2487 C 243.239 -2.54453 3.59085 0
M  V30 2488 H 240.358 -0.301518 0.6725 0
M  V30 2489 H 243 -0.097778 1.89748 0
M  V30 2490 H 241.15 -2.21438 3.19214 0
M  V30 2491 H 242.822 -0.0253015 4.61293 0
M  V30 2492 H 241.065 0.0456139 4.33776 0
M  V30 2493 H 241.736 -1.20724 5.38637 0
M  V30 2494 H 244.212 -2.01853 3.63861 0
M  V30 2495 H 243.088 -3.04238 4.5687 0
M  V30 2496 H 243.349 -3.36906 2.86264 0
M  V30 2497 N 242.408 -1.52605 -0.393616 0
M  V30 2498 C 243.824 -1.41753 -0.733357 0
M  V30 2499 C 244.024 -0.534293 -1.94287 0
M  V30 2500 O 243.08 -0.0059787 -2.52499 0
M  V30 2501 C 244.393 -2.84531 -0.972772 0
M  V30 2502 C 245.941 -2.93978 -1.07453 0
M  V30 2503 C 246.416 -4.37756 -1.3466 0
M  V30 2504 N 247.907 -4.4106 -1.41492 0
M  V30 2505 C 248.642 -5.49387 -1.642 0
M  V30 2506 N 248.138 -6.67806 -1.8441 0
M  V30 2507 N 249.931 -5.36923 -1.66342 0
M  V30 2508 H 242.082 -2.08555 0.402328 0
M  V30 2509 H 244.345 -0.940654 0.117789 0
M  V30 2510 H 244.051 -3.51353 -0.156204 0
M  V30 2511 H 243.925 -3.26508 -1.88871 0
M  V30 2512 H 246.312 -2.27326 -1.88167 0
M  V30 2513 H 246.393 -2.55435 -0.136605 0
M  V30 2514 H 246.037 -5.04972 -0.544581 0
M  V30 2515 H 245.967 -4.73848 -2.2973 0
M  V30 2516 H 248.458 -3.55705 -1.27601 0
M  V30 2517 H 248.771 -7.46141 -2.01231 0
M  V30 2518 H 247.116 -6.70843 -1.81644 0
M  V30 2519 H 250.307 -4.43381 -1.50102 0
M  V30 2520 H 250.48 -6.21416 -1.837 0
M  V30 2521 N 243.887 0.651787 -1.4349 0
M  V30 2522 C 245.134 1.41167 -1.45183 0
M  V30 2523 C 245.462 1.94349 -0.0766601 0
M  V30 2524 O 244.717 1.72804 0.918555 0
M  V30 2525 C 245.016 2.60914 -2.44251 0
M  V30 2526 C 244.682 2.26142 -3.9009 0
M  V30 2527 C 243.344 2.16371 -4.2981 0
M  V30 2528 C 245.696 1.98334 -4.81989 0
M  V30 2529 C 243.024 1.7695 -5.5938 0
M  V30 2530 C 245.376 1.6041 -6.11924 0
M  V30 2531 C 244.04 1.49166 -6.5062 0
M  V30 2532 H 243.31 0.516566 -0.531263 0
M  V30 2533 H 245.957 0.741099 -1.76579 0
M  V30 2534 H 244.262 3.3311 -2.06265 0
M  V30 2535 H 245.959 3.19127 -2.42815 0
M  V30 2536 H 242.549 2.34658 -3.58655 0
M  V30 2537 H 246.733 2.04803 -4.52072 0
M  V30 2538 H 241.989 1.66831 -5.88198 0
M  V30 2539 H 246.163 1.37925 -6.82605 0
M  V30 2540 H 243.79 1.1839 -7.50925 0
M  V30 2541 N 245.365 1.30045 0.890287 0
M  V30 2542 C 246.595 1.21296 1.67245 0
M  V30 2543 C 247.003 -0.227471 1.87828 0
M  V30 2544 O 246.346 -1.16296 1.422 0
M  V30 2545 C 246.408 1.86519 3.07329 0
M  V30 2546 C 246.072 3.35837 3.09939 0
M  V30 2547 C 247.069 4.31915 2.89389 0
M  V30 2548 C 244.754 3.77196 3.31706 0
M  V30 2549 C 246.748 5.67325 2.90552 0
M  V30 2550 C 244.435 5.12725 3.32499 0
M  V30 2551 C 245.433 6.076 3.11947 0
M  V30 2552 O 245.121 7.40655 3.12547 0
M  V30 2553 H 244.853 0.4211 0.528821 0
M  V30 2554 H 247.407 1.72111 1.12103 0
M  V30 2555 H 245.637 1.30228 3.64112 0
M  V30 2556 H 247.326 1.71963 3.67673 0
M  V30 2557 H 248.092 4.01294 2.72375 0
M  V30 2558 H 243.971 3.03796 3.4674 0
M  V30 2559 H 247.515 6.41354 2.74429 0
M  V30 2560 H 243.412 5.42988 3.49047 0
M  V30 2561 H 244.18 7.49577 3.28749 0
M  V30 2562 N 246.843 -1.10192 1.12674 0
M  V30 2563 C 248.254 -1.63707 0.897604 0
M  V30 2564 C 248.605 -1.87812 -0.567546 0
M  V30 2565 O 247.73 -1.62196 -1.43253 0
M  V30 2566 C 248.325 -2.974 1.62292 0
M  V30 2567 C 246.884 -3.47772 1.43986 0
M  V30 2568 C 246.031 -2.22332 1.65722 0
M  V30 2569 H 248.982 -0.936587 1.28116 0
M  V30 2570 H 249.003 -3.64986 1.07541 0
M  V30 2571 H 248.515 -2.79824 2.68924 0
M  V30 2572 H 246.616 -3.70487 0.396206 0
M  V30 2573 H 246.729 -4.25723 2.19765 0
M  V30 2574 H 245.093 -2.30599 1.08149 0
M  V30 2575 H 245.876 -2.07285 2.73657 0
M  V30 2576 N 248.321 -0.919034 -1.28029 0
M  V30 2577 C 249.737 -0.617972 -1.4715 0
M  V30 2578 C 249.937 0.835242 -1.83374 0
M  V30 2579 O 248.993 1.61388 -1.94191 0
M  V30 2580 C 250.306 -1.56041 -2.57044 0
M  V30 2581 C 251.854 -1.56769 -2.7091 0
M  V30 2582 C 252.329 -2.49688 -3.83953 0
M  V30 2583 N 253.82 -2.47845 -3.91314 0
M  V30 2584 C 254.555 -3.16437 -4.78179 0
M  V30 2585 N 254.051 -3.94376 -5.69596 0
M  V30 2586 N 255.844 -3.05498 -4.71834 0
M  V30 2587 H 247.995 -1.85866 -1.02798 0
M  V30 2588 H 250.258 -0.797506 -0.512531 0
M  V30 2589 H 249.964 -2.59671 -2.372 0
M  V30 2590 H 249.838 -1.29551 -3.54255 0
M  V30 2591 H 252.225 -0.538745 -2.90141 0
M  V30 2592 H 252.306 -1.87305 -1.74214 0
M  V30 2593 H 251.95 -3.52688 -3.65477 0
M  V30 2594 H 251.88 -2.16453 -4.80058 0
M  V30 2595 H 254.371 -1.91234 -3.25941 0
M  V30 2596 H 254.684 -4.43721 -6.32718 0
M  V30 2597 H 253.029 -3.98481 -5.69419 0
M  V30 2598 H 256.22 -2.44108 -3.99411 0
M  V30 2599 H 256.393 -3.59225 -5.39316 0
M  V30 2600 N 249.799 1.42003 -0.683588 0
M  V30 2601 C 250.762 2.29191 -0.0198243 0
M  V30 2602 C 251.762 1.43773 0.72013 0
M  V30 2603 O 252.952 1.65061 0.556815 0
M  V30 2604 C 250.084 3.26435 0.982487 0
M  V30 2605 H 251.277 2.8938 -0.787345 0
M  V30 2606 H 248.83 1.49789 -0.446418 0
M  V30 2607 H 249.565 2.71203 1.77819 0
M  V30 2608 H 249.35 3.89449 0.455182 0
M  V30 2609 H 250.84 3.918 1.44508 0
M  V30 2610 N 251.277 0.427512 1.51691 0
M  V30 2611 C 252.554 -0.201684 1.94557 0
M  V30 2612 C 252.934 -1.60981 1.36559 0
M  V30 2613 O 252.282 -2.21814 0.548702 0
M  V30 2614 C 252.492 -0.189394 3.48486 0
M  V30 2615 C 253.84 -0.39978 4.22714 0
M  V30 2616 O 254.864 -0.267945 3.55191 0
M  V30 2617 O 253.723 -0.661249 5.42485 0
M  V30 2618 H 250.817 -0.135261 0.815864 0
M  V30 2619 H 253.363 0.484782 1.62628 0
M  V30 2620 H 252.135 0.795431 3.8313 0
M  V30 2621 H 251.758 -0.919187 3.86829 0
M  V30 2622 N 252.755 -1.56801 0.158532 0
M  V30 2623 C 254.171 -1.5837 -0.197774 0
M  V30 2624 C 254.371 -1.17334 -1.63814 0
M  V30 2625 O 253.427 -0.878988 -2.36707 0
M  V30 2626 C 254.74 -3.00615 0.0714459 0
M  V30 2627 C 256.288 -3.12999 0.00864533 0
M  V30 2628 C 256.763 -4.57313 0.250685 0
M  V30 2629 N 258.254 -4.62777 0.198014 0
M  V30 2630 C 258.989 -5.72271 0.359642 0
M  V30 2631 N 258.485 -6.90371 0.579625 0
M  V30 2632 N 260.278 -5.61318 0.296438 0
M  V30 2633 H 252.429 -1.81765 1.09887 0
M  V30 2634 H 254.692 -0.841849 0.435884 0
M  V30 2635 H 254.398 -3.35068 1.06874 0
M  V30 2636 H 254.272 -3.71683 -0.642757 0
M  V30 2637 H 256.659 -2.7838 -0.979217 0
M  V30 2638 H 256.74 -2.44393 0.755359 0
M  V30 2639 H 256.384 -4.92639 1.2357 0
M  V30 2640 H 256.314 -5.24061 -0.516489 0
M  V30 2641 H 258.805 -3.77885 0.0331115 0
M  V30 2642 H 259.118 -7.69689 0.69275 0
M  V30 2643 H 257.463 -6.92264 0.616087 0
M  V30 2644 H 260.654 -4.67932 0.125258 0
M  V30 2645 H 260.827 -6.46599 0.425831 0
M  V30 2646 N 254.233 0.115231 -1.57178 0
M  V30 2647 C 255.479 0.82357 -1.85325 0
M  V30 2648 C 255.812 1.79349 -0.744814 0
M  V30 2649 O 255.087 1.92899 0.249024 0
M  V30 2650 C 255.37 1.57014 -3.24066 0
M  V30 2651 C 255.223 0.619565 -4.45513 0
M  V30 2652 C 256.542 2.52545 -3.60429 0
M  V30 2653 H 253.661 0.297948 -0.674089 0
M  V30 2654 H 256.303 0.0877138 -1.89797 0
M  V30 2655 H 254.453 2.19742 -3.20383 0
M  V30 2656 H 256.125 0.000837639 -4.613 0
M  V30 2657 H 254.368 -0.0686174 -4.33746 0
M  V30 2658 H 255.039 1.17866 -5.3927 0
M  V30 2659 H 257.515 1.9992 -3.64926 0
M  V30 2660 H 256.391 3.01811 -4.58477 0
M  V30 2661 H 256.652 3.35383 -2.88047 0
M  V30 2662 N 255.711 1.52812 0.385517 0
M  V30 2663 C 256.644 1.72592 1.49289 0
M  V30 2664 C 257.622 0.573819 1.52138 0
M  V30 2665 O 258.806 0.80404 1.70492 0
M  V30 2666 C 255.933 1.78669 2.87741 0
M  V30 2667 C 254.979 3.00455 3.02703 0
M  V30 2668 S 255.812 4.60366 2.73538 0
M  V30 2669 C 256.968 4.69263 4.14177 0
M  V30 2670 H 257.201 2.66248 1.32285 0
M  V30 2671 H 254.734 1.43148 0.578611 0
M  V30 2672 H 256.692 1.82855 3.67524 0
M  V30 2673 H 255.353 0.861 3.02069 0
M  V30 2674 H 254.546 3.01258 4.04054 0
M  V30 2675 H 254.148 2.94278 2.30817 0
M  V30 2676 H 256.44 4.48092 5.08153 0
M  V30 2677 H 257.383 5.71276 4.18388 0
M  V30 2678 H 257.791 3.98072 4.00249 0
M  V30 2679 N 257.189 -0.644168 1.43834 0
M  V30 2680 C 258.414 -1.43642 1.49605 0
M  V30 2681 C 258.839 -1.8773 0.117913 0
M  V30 2682 O 258.197 -1.57938 -0.890239 0
M  V30 2683 C 258.245 -2.6416 2.45463 0
M  V30 2684 O 257.349 -3.63538 1.94714 0
M  V30 2685 H 256.69 -0.430329 0.50568 0
M  V30 2686 H 259.22 -0.787448 1.8884 0
M  V30 2687 H 259.23 -3.11864 2.63068 0
M  V30 2688 H 257.905 -2.31414 3.45572 0
M  V30 2689 H 256.482 -3.2273 1.86814 0
M  V30 2690 N 258.668 -1.30515 -0.883378 0
M  V30 2691 C 259.914 -1.19607 -1.63774 0
M  V30 2692 C 260.247 0.248314 -1.92606 0
M  V30 2693 O 259.522 1.17742 -1.54813 0
M  V30 2694 C 259.805 -2.02669 -2.97653 0
M  V30 2695 C 259.658 -3.55335 -2.75784 0
M  V30 2696 C 260.977 -1.86573 -3.98596 0
M  V30 2697 H 258.096 -0.435856 -0.594305 0
M  V30 2698 H 260.738 -1.60165 -1.02212 0
M  V30 2699 H 258.888 -1.68208 -3.50197 0
M  V30 2700 H 260.56 -3.99863 -2.30016 0
M  V30 2701 H 258.803 -3.79438 -2.1026 0
M  V30 2702 H 259.474 -4.08745 -3.70988 0
M  V30 2703 H 261.95 -2.16703 -3.55217 0
M  V30 2704 H 260.826 -2.47014 -4.90179 0
M  V30 2705 H 261.087 -0.825321 -4.34328 0
M  V30 2706 N 260.146 1.09593 -1.13257 0
M  V30 2707 C 261.386 1.83349 -0.903472 0
M  V30 2708 C 261.75 1.83641 0.560351 0
M  V30 2709 O 262.951 2.53037 0.906947 0
M  V30 2710 C 261.222 3.25629 -1.47311 0
M  V30 2711 S 262.781 4.16408 -1.38382 0
M  V30 2712 H 259.599 0.632014 -0.325699 0
M  V30 2713 H 262.201 1.31817 -1.44376 0
M  V30 2714 H 260.905 3.22991 -2.53189 0
M  V30 2715 H 260.436 3.82233 -0.930689 0
M  V30 2716 H 262.451 4.94884 -0.361113 0
M  V30 2717 N 261.624 0.925811 1.2754 0
M  V30 2718 C 262.554 0.440748 2.29303 0
M  V30 2719 C 263.535 -0.497971 1.62648 0
M  V30 2720 O 264.72 -0.403126 1.8997 0
M  V30 2721 C 261.85 -0.309048 3.45922 0
M  V30 2722 C 260.804 0.54166 4.24559 0
M  V30 2723 C 260.13 -0.337191 5.33636 0
M  V30 2724 C 261.43 1.80516 4.90114 0
M  V30 2725 H 263.124 1.29121 2.70126 0
M  V30 2726 H 260.67 0.622323 1.29858 0
M  V30 2727 H 262.623 -0.659315 4.1621 0
M  V30 2728 H 261.347 -1.19352 3.04011 0
M  V30 2729 H 260.006 0.874609 3.56014 0
M  V30 2730 H 259.654 -1.22056 4.87966 0
M  V30 2731 H 259.354 0.228497 5.87156 0
M  V30 2732 H 260.878 -0.683072 6.06767 0
M  V30 2733 H 262.292 1.52307 5.52698 0
M  V30 2734 H 260.689 2.3142 5.53683 0
M  V30 2735 H 261.759 2.52581 4.13921 0
M  V30 2736 N 263.102 -1.41638 0.69111 0
M  V30 2737 C 264.518 -1.55435 0.362224 0
M  V30 2738 C 264.718 -1.66754 -1.13117 0
M  V30 2739 O 263.774 -1.64348 -1.91692 0
M  V30 2740 C 265.087 -2.79588 1.10684 0
M  V30 2741 C 266.635 -2.9338 1.09075 0
M  V30 2742 C 267.11 -4.20414 1.81703 0
M  V30 2743 N 268.601 -4.27362 1.7865 0
M  V30 2744 C 269.336 -5.24507 2.31689 0
M  V30 2745 N 268.832 -6.27708 2.93179 0
M  V30 2746 N 270.625 -5.16416 2.2197 0
M  V30 2747 H 262.776 -1.32536 1.65976 0
M  V30 2748 H 265.039 -0.639115 0.700168 0
M  V30 2749 H 264.745 -2.77419 2.16175 0
M  V30 2750 H 264.619 -3.70973 0.682545 0
M  V30 2751 H 267.006 -2.95067 0.0441238 0
M  V30 2752 H 267.087 -2.0318 1.55407 0
M  V30 2753 H 266.731 -4.19488 2.86343 0
M  V30 2754 H 266.661 -5.09578 1.32808 0
M  V30 2755 H 269.152 -3.53415 1.33815 0
M  V30 2756 H 269.465 -6.98217 3.31229 0
M  V30 2757 H 267.81 -6.28223 2.97255 0
M  V30 2758 H 271.001 -4.34716 1.73607 0
M  V30 2759 H 271.174 -5.91958 2.63609 0
M  V30 2760 N 264.58 -0.43555 -1.51462 0
M  V30 2761 C 265.826 0.131709 -2.02372 0
M  V30 2762 C 266.159 1.42516 -1.3192 0
M  V30 2763 O 265.434 1.89606 -0.433573 0
M  V30 2764 C 265.717 0.352301 -3.58373 0
M  V30 2765 C 265.57 -0.959676 -4.39443 0
M  V30 2766 C 266.889 1.12286 -4.25535 0
M  V30 2767 H 264.008 0.0463936 -0.735538 0
M  V30 2768 H 266.65 -0.574197 -1.81116 0
M  V30 2769 H 264.8 0.9536 -3.76615 0
M  V30 2770 H 266.472 -1.59482 -4.32855 0
M  V30 2771 H 264.715 -1.56468 -4.04599 0
M  V30 2772 H 265.386 -0.759394 -5.46752 0
M  V30 2773 H 267.862 0.613545 -4.11552 0
M  V30 2774 H 266.738 1.24598 -5.34571 0
M  V30 2775 H 266.999 2.15048 -3.86273 0
M  V30 2776 N 266.058 1.56714 -0.166846 0
M  V30 2777 C 266.968 2.21331 0.777791 0
M  V30 2778 C 267.984 1.20358 1.25658 0
M  V30 2779 O 269.16 1.53005 1.30964 0
M  V30 2780 C 266.225 2.83787 1.99163 0
M  V30 2781 C 265.286 3.99947 1.56016 0
M  V30 2782 C 264.519 4.59415 2.71613 0
M  V30 2783 O 264.742 4.17769 3.88362 0
M  V30 2784 O 263.676 5.49359 2.45945 0
M  V30 2785 H 267.502 3.02605 0.257636 0
M  V30 2786 H 265.087 1.49275 0.0611393 0
M  V30 2787 H 266.969 3.23405 2.70161 0
M  V30 2788 H 265.644 2.05513 2.50092 0
M  V30 2789 H 264.551 3.65007 0.819809 0
M  V30 2790 H 265.884 4.79801 1.09782 0
M  V30 2791 N 267.536 -0.106894 1.57237 0
M  V30 2792 C 268.466 -1.13148 2.04254 0
M  V30 2793 C 269.447 -1.42476 0.929224 0
M  V30 2794 O 270.632 -1.52709 1.19973 0
M  V30 2795 C 267.762 -2.4545 2.45706 0
M  V30 2796 C 266.716 -2.30558 3.60592 0
M  V30 2797 C 266.042 -3.67931 3.87983 0
M  V30 2798 C 267.342 -1.75597 4.91897 0
M  V30 2799 H 269.036 -0.740374 2.90101 0
M  V30 2800 H 266.582 -0.354696 1.39563 0
M  V30 2801 H 268.535 -3.17389 2.77205 0
M  V30 2802 H 267.259 -2.86475 1.56843 0
M  V30 2803 H 265.918 -1.61067 3.29322 0
M  V30 2804 H 265.566 -4.06462 2.96306 0
M  V30 2805 H 265.266 -3.58817 4.65322 0
M  V30 2806 H 266.79 -4.41356 4.21945 0
M  V30 2807 H 268.204 -2.37364 5.21854 0
M  V30 2808 H 266.601 -1.77272 5.73319 0
M  V30 2809 H 267.671 -0.714451 4.79608 0
M  V30 2810 N 269.014 -1.53014 -0.377408 0
M  V30 2811 C 270.244 -1.72265 -1.14054 0
M  V30 2812 C 270.652 -0.44601 -1.83868 0
M  V30 2813 O 269.995 0.590095 -1.73964 0
M  V30 2814 C 270.057 -2.82492 -2.22348 0
M  V30 2815 C 269.721 -4.23233 -1.72402 0
M  V30 2816 C 270.718 -5.05992 -1.19448 0
M  V30 2817 C 268.403 -4.696 -1.78273 0
M  V30 2818 C 270.397 -6.33203 -0.730268 0
M  V30 2819 C 268.084 -5.96792 -1.31464 0
M  V30 2820 C 269.082 -6.78424 -0.789297 0
M  V30 2821 O 268.77 -8.0323 -0.328077 0
M  V30 2822 H 268.502 -0.579873 -0.347453 0
M  V30 2823 H 271.056 -2.00502 -0.445882 0
M  V30 2824 H 269.286 -2.49702 -2.95272 0
M  V30 2825 H 270.975 -2.90034 -2.83963 0
M  V30 2826 H 271.741 -4.71349 -1.14259 0
M  V30 2827 H 267.62 -4.06142 -2.18106 0
M  V30 2828 H 271.164 -6.96868 -0.319542 0
M  V30 2829 H 267.061 -6.30937 -1.36342 0
M  V30 2830 H 267.829 -8.1727 -0.448493 0
M  V30 2831 N 270.492 0.636531 -1.44174 0
M  V30 2832 C 271.74 1.39343 -1.46383 0
M  V30 2833 C 272.061 1.94766 -0.0955715 0
M  V30 2834 O 271.331 1.75452 0.871395 0
M  V30 2835 H 269.911 0.517199 -0.538994 0
M  V30 2836 H 272.573 0.74957 -1.7991 0
M  V30 2837 H 271.669 2.22746 -2.18611 0
M  V30 2838 N 271.97 1.30982 0.876444 0
M  V30 2839 C 273.21 1.21589 1.64303 0
M  V30 2840 C 273.574 -0.223962 1.90689 0
M  V30 2841 O 274.775 -0.44128 2.65153 0
M  V30 2842 C 273.046 2.03007 2.94148 0
M  V30 2843 S 274.605 2.10405 3.85065 0
M  V30 2844 H 271.423 0.433161 0.563819 0
M  V30 2845 H 274.025 1.65565 1.03964 0
M  V30 2846 H 272.729 3.06719 2.72675 0
M  V30 2847 H 272.26 1.59725 3.59515 0
M  V30 2848 H 274.275 1.23765 4.80517 0
M  V30 2849 N 273.449 -1.08991 1.13837 0
M  V30 2850 C 274.379 -2.17771 0.842507 0
M  V30 2851 C 275.36 -1.6892 -0.20001 0
M  V30 2852 O 276.545 -1.94113 -0.0579731 0
M  V30 2853 C 273.675 -3.4589 0.312644 0
M  V30 2854 C 272.629 -4.08099 1.28992 0
M  V30 2855 C 271.955 -5.31098 0.619623 0
M  V30 2856 C 273.255 -4.50077 2.65005 0
M  V30 2857 H 274.949 -2.42777 1.75213 0
M  V30 2858 H 272.495 -1.16682 0.843875 0
M  V30 2859 H 274.448 -4.21297 0.0933043 0
M  V30 2860 H 273.172 -3.20419 -0.632382 0
M  V30 2861 H 271.831 -3.34717 1.49533 0
M  V30 2862 H 271.479 -5.0191 -0.33102 0
M  V30 2863 H 271.179 -5.73674 1.27167 0
M  V30 2864 H 272.703 -6.09224 0.409669 0
M  V30 2865 H 274.117 -5.16688 2.48407 0
M  V30 2866 H 272.514 -5.03553 3.26427 0
M  V30 2867 H 273.584 -3.62257 3.22332 0
M  V30 2868 N 274.927 -0.932562 -1.27047 0
M  V30 2869 C 276.173 -0.585913 -1.94778 0
M  V30 2870 C 276.528 0.864142 -1.71902 0
M  V30 2871 O 275.821 1.60894 -1.04037 0
M  V30 2872 C 276.015 -0.853713 -3.47054 0
M  V30 2873 C 275.844 -2.32825 -3.84737 0
M  V30 2874 C 274.614 -2.98184 -4.07939 0
M  V30 2875 C 276.812 -3.30612 -3.93954 0
M  V30 2876 N 274.794 -4.3574 -4.3244 0
M  V30 2877 C 276.165 -4.53395 -4.22887 0
M  V30 2878 C 278.22 -3.25755 -3.76548 0
M  V30 2879 C 276.923 -5.71927 -4.36224 0
M  V30 2880 C 278.949 -4.43604 -3.91113 0
M  V30 2881 C 278.311 -5.65166 -4.20437 0
M  V30 2882 H 274.41 -0.264617 -0.735868 0
M  V30 2883 H 276.994 -1.20019 -1.53309 0
M  V30 2884 H 275.165 -0.268557 -3.8747 0
M  V30 2885 H 276.897 -0.469202 -4.01971 0
M  V30 2886 H 273.652 -2.48835 -4.02961 0
M  V30 2887 H 274.076 -5.06915 -4.48738 0
M  V30 2888 H 278.718 -2.32835 -3.52913 0
M  V30 2889 H 276.436 -6.65308 -4.58683 0
M  V30 2890 H 280.022 -4.41368 -3.79059 0
M  V30 2891 H 278.902 -6.54836 -4.31462 0
M  V30 2892 N 276.405 1.4127 -0.698611 0
M  V30 2893 C 277.821 1.55241 -0.370462 0
M  V30 2894 C 278.021 1.67351 1.12231 0
M  V30 2895 O 277.077 1.65363 1.90818 0
M  V30 2896 C 278.39 2.78997 -1.12165 0
M  V30 2897 C 279.938 2.92797 -1.1063 0
M  V30 2898 C 280.413 4.19445 -1.8393 0
M  V30 2899 N 281.904 4.26409 -1.80914 0
M  V30 2900 C 282.639 5.23271 -2.34467 0
M  V30 2901 N 282.135 6.26145 -2.96504 0
M  V30 2902 N 283.928 5.15232 -2.24706 0
M  V30 2903 H 276.079 1.31654 -1.66676 0
M  V30 2904 H 278.342 0.635393 -0.703548 0
M  V30 2905 H 278.048 2.76268 -2.17644 0
M  V30 2906 H 277.922 3.70606 -0.702209 0
M  V30 2907 H 280.309 2.95039 -0.0597713 0
M  V30 2908 H 280.39 2.02353 -1.56483 0
M  V30 2909 H 280.034 4.17964 -2.88563 0
M  V30 2910 H 279.964 5.08866 -1.35509 0
M  V30 2911 H 282.455 3.527 -1.35687 0
M  V30 2912 H 282.768 6.96451 -3.34927 0
M  V30 2913 H 281.113 6.26638 -3.00583 0
M  V30 2914 H 284.304 4.33789 -1.7591 0
M  V30 2915 H 284.477 5.90552 -2.66745 0
M  V30 2916 N 277.883 0.443576 1.51229 0
M  V30 2917 C 279.16 -0.181038 1.9476 0
M  V30 2918 C 279.54 -1.59523 1.38259 0
M  V30 2919 O 278.888 -2.2122 0.572198 0
M  V30 2920 C 279.098 -0.152422 3.48667 0
M  V30 2921 C 280.446 -0.354923 4.23114 0
M  V30 2922 O 281.47 -0.230257 3.55455 0
M  V30 2923 O 280.329 -0.603674 5.43156 0
M  V30 2924 H 277.423 -0.1266 0.817252 0
M  V30 2925 H 279.969 0.502004 1.62105 0
M  V30 2926 H 278.741 0.836022 3.82265 0
M  V30 2927 H 278.364 -0.878107 3.87782 0
M  V30 2928 N 279.361 -1.56624 0.175154 0
M  V30 2929 C 280.609 -1.96609 -0.467885 0
M  V30 2930 C 280.93 -1.06238 -1.63519 0
M  V30 2931 O 280.2 -0.129523 -1.95471 0
M  V30 2932 H 278.78 -0.726008 -0.175845 0
M  V30 2933 H 281.442 -1.93195 0.257234 0
M  V30 2934 H 280.538 -3.00989 -0.825342 0
M  V30 2935 N 280.839 0.0985539 -1.57292 0
M  V30 2936 C 281.769 1.12064 -2.04851 0
M  V30 2937 C 282.75 1.41981 -0.936767 0
M  V30 2938 O 283.935 1.52071 -1.20781 0
M  V30 2939 C 281.065 2.44144 -2.47004 0
M  V30 2940 C 280.019 2.28643 -3.6181 0
M  V30 2941 C 279.345 3.65869 -3.89929 0
M  V30 2942 C 280.645 1.72986 -4.92822 0
M  V30 2943 H 282.339 0.724979 -2.9049 0
M  V30 2944 H 279.885 0.34729 -1.39749 0
M  V30 2945 H 281.838 3.15914 -2.78884 0
M  V30 2946 H 280.562 2.85639 -1.5836 0
M  V30 2947 H 279.221 1.59318 -3.30172 0
M  V30 2948 H 278.869 4.04885 -2.98458 0
M  V30 2949 H 278.569 3.56344 -4.67218 0
M  V30 2950 H 280.093 4.39112 -4.2428 0
M  V30 2951 H 281.507 2.34593 -5.23105 0
M  V30 2952 H 279.904 1.74229 -5.74251 0
M  V30 2953 H 280.974 0.689007 -4.7998 0
M  V30 2954 N 282.317 1.53212 0.369288 0
M  V30 2955 C 283.247 1.82365 1.45826 0
M  V30 2956 C 284.228 0.676907 1.56051 0
M  V30 2957 O 285.413 0.926401 1.70679 0
M  V30 2958 C 282.543 2.01023 2.83208 0
M  V30 2959 C 281.497 3.1678 2.8781 0
M  V30 2960 C 280.823 3.20724 4.27832 0
M  V30 2961 C 282.123 4.55447 2.55667 0
M  V30 2962 H 283.817 2.73559 1.21678 0
M  V30 2963 H 281.363 1.3163 0.583911 0
M  V30 2964 H 283.316 2.20001 3.59413 0
M  V30 2965 H 282.04 1.06536 3.08736 0
M  V30 2966 H 280.699 2.97616 2.14056 0
M  V30 2967 H 280.347 2.23882 4.50429 0
M  V30 2968 H 280.047 3.98496 4.31827 0
M  V30 2969 H 281.571 3.41881 5.05915 0
M  V30 2970 H 282.985 4.74611 3.21586 0
M  V30 2971 H 281.382 5.35432 2.70984 0
M  V30 2972 H 282.452 4.60812 1.5093 0
M  V30 2973 N 283.795 -0.628877 1.44509 0
M  V30 2974 C 285.02 -1.42048 1.5112 0
M  V30 2975 C 285.445 -1.87594 0.137818 0
M  V30 2976 O 284.803 -1.58873 -0.873437 0
M  V30 2977 C 284.851 -2.61541 2.48251 0
M  V30 2978 O 283.955 -3.61453 1.98559 0
M  V30 2979 H 283.296 -0.424942 0.510216 0
M  V30 2980 H 285.826 -0.767374 1.89664 0
M  V30 2981 H 285.836 -3.09057 2.66361 0
M  V30 2982 H 284.511 -2.27736 3.48007 0
M  V30 2983 H 283.088 -3.20731 1.90227 0
M  V30 2984 N 285.273 -1.31445 -0.869486 0
M  V30 2985 C 286.503 -1.23942 -1.65294 0
M  V30 2986 C 286.911 0.197561 -1.88166 0
M  V30 2987 O 286.254 1.14019 -1.44033 0
M  V30 2988 C 286.316 -1.91385 -3.04322 0
M  V30 2989 C 285.98 -3.40726 -3.04557 0
M  V30 2990 C 286.977 -4.36464 -2.82481 0
M  V30 2991 C 284.662 -3.82425 -3.25663 0
M  V30 2992 C 286.656 -5.71876 -2.8149 0
M  V30 2993 C 284.343 -5.1795 -3.243 0
M  V30 2994 C 285.341 -6.12486 -3.02241 0
M  V30 2995 O 285.029 -7.45534 -3.00724 0
M  V30 2996 H 284.761 -0.429459 -0.522054 0
M  V30 2997 H 287.315 -1.73873 -1.0935 0
M  V30 2998 H 285.545 -1.36004 -3.61994 0
M  V30 2999 H 287.234 -1.77791 -3.64891 0
M  V30 3000 H 288 -4.05576 -2.65956 0
M  V30 3001 H 283.879 -3.09274 -3.41863 0
M  V30 3002 H 287.423 -6.45638 -2.64191 0
M  V30 3003 H 283.32 -5.48473 -3.40365 0
M  V30 3004 H 284.088 -7.54713 -3.16782 0
M  V30 3005 N 286.751 1.08385 -1.14413 0
M  V30 3006 C 287.979 1.84517 -0.936001 0
M  V30 3007 C 288.394 1.81626 0.515503 0
M  V30 3008 O 287.751 1.22008 1.35721 0
M  V30 3009 C 287.802 3.32049 -1.42918 0
M  V30 3010 O 287.523 3.34951 -2.82381 0
M  V30 3011 C 289.024 4.24986 -1.26103 0
M  V30 3012 H 286.244 0.582491 -0.333084 0
M  V30 3013 H 288.788 1.36885 -1.5193 0
M  V30 3014 H 286.943 3.7707 -0.888641 0
M  V30 3015 H 287.357 4.27048 -3.04517 0
M  V30 3016 H 288.831 5.26615 -1.6547 0
M  V30 3017 H 289.308 4.38726 -0.20392 0
M  V30 3018 H 289.914 3.85791 -1.79012 0
M  V30 3019 N 288.23 0.939286 1.26551 0
M  V30 3020 C 289.193 0.451987 2.24699 0
M  V30 3021 C 290.193 -0.435869 1.5478 0
M  V30 3022 O 291.383 -0.235314 1.72603 0
M  V30 3023 C 288.515 -0.348801 3.39111 0
M  V30 3024 H 289.708 1.3193 2.69322 0
M  V30 3025 H 287.261 0.721072 1.38673 0
M  V30 3026 H 287.996 -1.23444 2.99887 0
M  V30 3027 H 287.781 0.287945 3.91041 0
M  V30 3028 H 289.271 -0.679726 4.12031 0
M  V30 3029 N 289.708 -1.40897 0.706093 0
M  V30 3030 C 291.119 -1.84023 0.315052 0
M  V30 3031 C 291.47 -1.5906 -1.14866 0
M  V30 3032 O 290.595 -1.06651 -1.88293 0
M  V30 3033 C 291.19 -3.34055 0.565038 0
M  V30 3034 C 289.749 -3.7571 0.227806 0
M  V30 3035 C 288.896 -2.64204 0.842122 0
M  V30 3036 H 291.847 -1.303 0.905963 0
M  V30 3037 H 291.868 -3.80107 -0.172843 0
M  V30 3038 H 291.38 -3.52192 1.63042 0
M  V30 3039 H 289.481 -3.63172 -0.832895 0
M  V30 3040 H 289.594 -4.74103 0.690174 0
M  V30 3041 H 287.958 -2.53255 0.270893 0
M  V30 3042 H 288.741 -2.85155 1.91158 0
M  V30 3043 N 291.186 -0.45159 -1.50991 0
M  V30 3044 C 292.432 0.110237 -2.025 0
M  V30 3045 C 292.765 1.41109 -1.33424 0
M  V30 3046 O 292.04 1.89135 -0.453659 0
M  V30 3047 C 292.323 0.314271 -3.58726 0
M  V30 3048 C 292.176 -1.00623 -4.38401 0
M  V30 3049 C 293.495 1.07767 -4.26702 0
M  V30 3050 H 290.614 0.0385897 -0.735989 0
M  V30 3051 H 293.256 -0.593374 -1.80497 0
M  V30 3052 H 291.406 0.913601 -3.77605 0
M  V30 3053 H 293.078 -1.64064 -4.31139 0
M  V30 3054 H 291.321 -1.6075 -4.02917 0
M  V30 3055 H 291.992 -0.817341 -5.45915 0
M  V30 3056 H 294.468 0.56986 -4.12179 0
M  V30 3057 H 293.344 1.18921 -5.35863 0
M  V30 3058 H 293.605 2.10939 -3.88532 0
M  V30 3059 N 292.664 1.56529 -0.183458 0
M  V30 3060 C 293.912 1.96855 0.457452 0
M  V30 3061 C 294.233 1.07104 1.62953 0
M  V30 3062 O 293.503 0.139887 1.954 0
M  V30 3063 H 292.083 0.72693 0.171992 0
M  V30 3064 H 294.745 1.93056 -0.267476 0
M  V30 3065 H 293.841 3.01423 0.809368 0
M  V30 3066 N 294.142 -0.090211 1.57342 0
M  V30 3067 C 295.074 -1.13541 1.99101 0
M  V30 3068 C 296.087 -1.3604 0.894258 0
M  V30 3069 O 297.276 -1.34606 1.17233 0
M  V30 3070 C 294.376 -2.49001 2.29895 0
M  V30 3071 C 293.549 -2.46712 3.61182 0
M  V30 3072 C 292.608 -3.64136 3.79857 0
M  V30 3073 O 291.634 -3.46405 4.51655 0
M  V30 3074 N 292.836 -4.83802 3.20806 0
M  V30 3075 H 295.601 -0.779942 2.89373 0
M  V30 3076 H 293.162 -0.279125 1.59476 0
M  V30 3077 H 295.154 -3.26166 2.39578 0
M  V30 3078 H 293.724 -2.76619 1.45605 0
M  V30 3079 H 292.944 -1.55058 3.62423 0
M  V30 3080 H 294.232 -2.42265 4.4742 0
M  V30 3081 H 293.63 -5.01112 2.62494 0
M  V30 3082 H 292.187 -5.58543 3.35966 0
M  V30 3083 N 295.62 -1.53406 -0.361157 0
M  V30 3084 C 296.848 -1.73717 -1.12383 0
M  V30 3085 C 297.263 -0.468161 -1.82904 0
M  V30 3086 O 296.62 0.559198 -1.73722 0
M  V30 3087 C 296.671 -2.90558 -2.15078 0
M  V30 3088 O 296.392 -4.12549 -1.47428 0
M  V30 3089 C 297.893 -3.22777 -3.03858 0
M  V30 3090 H 295.113 -0.580896 -0.335858 0
M  V30 3091 H 297.657 -2.00167 -0.418728 0
M  V30 3092 H 295.812 -2.66489 -2.8118 0
M  V30 3093 H 296.226 -4.78009 -2.15887 0
M  V30 3094 H 297.7 -4.07927 -3.71887 0
M  V30 3095 H 298.177 -2.38329 -3.68912 0
M  V30 3096 H 298.783 -3.48787 -2.43367 0
M  V30 3097 N 297.098 0.621204 -1.44841 0
M  V30 3098 C 298.031 1.7459 -1.46947 0
M  V30 3099 C 299.009 1.59273 -0.327238 0
M  V30 3100 O 300.193 1.81021 -0.525706 0
M  V30 3101 C 297.32 3.12274 -1.31159 0
M  V30 3102 C 296.366 3.46216 -2.49072 0
M  V30 3103 S 297.199 3.4258 -4.11581 0
M  V30 3104 C 298.355 4.82867 -3.98233 0
M  V30 3105 H 298.588 1.72538 -2.42111 0
M  V30 3106 H 296.121 0.796683 -1.32259 0
M  V30 3107 H 298.079 3.91722 -1.22737 0
M  V30 3108 H 296.74 3.11855 -0.374885 0
M  V30 3109 H 295.933 4.4643 -2.33915 0
M  V30 3110 H 295.535 2.74253 -2.54286 0
M  V30 3111 H 297.827 5.7234 -3.62537 0
M  V30 3112 H 298.77 5.0308 -4.98313 0
M  V30 3113 H 299.178 4.57908 -3.30121 0
M  V30 3114 N 298.576 1.31904 0.862503 0
M  V30 3115 C 299.806 1.24817 1.64634 0
M  V30 3116 C 300.214 -0.187579 1.88268 0
M  V30 3117 O 299.557 -1.13253 1.44635 0
M  V30 3118 C 299.619 1.92996 3.03303 0
M  V30 3119 C 299.283 3.42336 3.02746 0
M  V30 3120 C 300.28 4.37956 2.80162 0
M  V30 3121 C 297.965 3.84147 3.2363 0
M  V30 3122 C 299.959 5.73361 2.78453 0
M  V30 3123 C 297.646 5.19663 3.21549 0
M  V30 3124 C 298.644 6.14081 2.98988 0
M  V30 3125 O 298.332 7.47118 2.96766 0
M  V30 3126 H 298.064 0.432222 0.519769 0
M  V30 3127 H 300.618 1.7445 1.08427 0
M  V30 3128 H 298.848 1.37922 3.61268 0
M  V30 3129 H 300.537 1.79723 3.63943 0
M  V30 3130 H 301.303 4.06981 2.63802 0
M  V30 3131 H 297.182 3.11083 3.40218 0
M  V30 3132 H 300.726 6.4703 2.60763 0
M  V30 3133 H 296.623 5.5027 3.37451 0
M  V30 3134 H 297.391 7.56382 3.12775 0
M  V30 3135 N 300.054 -1.07777 1.14986 0
M  V30 3136 C 300.984 -2.16865 0.865557 0
M  V30 3137 C 301.965 -1.69123 -0.182083 0
M  V30 3138 O 303.15 -1.94164 -0.0373815 0
M  V30 3139 C 300.28 -3.45539 0.349313 0
M  V30 3140 C 299.234 -4.06708 1.33313 0
M  V30 3141 C 298.56 -5.30411 0.675918 0
M  V30 3142 C 299.86 -4.47241 2.69764 0
M  V30 3143 H 301.554 -2.40905 1.77778 0
M  V30 3144 H 299.1 -1.15781 0.856203 0
M  V30 3145 H 301.053 -4.21174 0.137983 0
M  V30 3146 H 299.777 -3.21072 -0.598362 0
M  V30 3147 H 298.436 -3.33112 1.53075 0
M  V30 3148 H 298.084 -5.02232 -0.277767 0
M  V30 3149 H 297.784 -5.72293 1.33244 0
M  V30 3150 H 299.308 -6.08755 0.474262 0
M  V30 3151 H 300.722 -5.14025 2.53873 0
M  V30 3152 H 299.119 -5.00062 3.3175 0
M  V30 3153 H 300.189 -3.58818 3.26156 0
M  V30 3154 N 301.532 -0.945985 -1.26051 0
M  V30 3155 C 302.757 -0.612525 -1.98149 0
M  V30 3156 C 303.182 0.806623 -1.69927 0
M  V30 3157 O 302.54 1.54411 -0.950108 0
M  V30 3158 C 302.588 -0.866981 -3.50023 0
M  V30 3159 O 301.692 0.0585333 -4.12358 0
M  V30 3160 H 301.033 -0.23379 -0.621481 0
M  V30 3161 H 303.563 -1.27023 -1.60395 0
M  V30 3162 H 303.573 -0.789792 -4.00283 0
M  V30 3163 H 302.248 -1.90135 -3.69894 0
M  V30 3164 H 300.825 -0.0701241 -3.72834 0
M  V30 3165 N 303.011 1.40521 -0.713556 0
M  V30 3166 C 303.921 2.34522 -0.0606667 0
M  V30 3167 C 304.937 1.57193 0.74607 0
M  V30 3168 O 306.113 1.89591 0.679493 0
M  V30 3169 C 303.178 3.36081 0.851491 0
M  V30 3170 C 302.239 4.29286 0.0349339 0
M  V30 3171 C 301.472 5.25994 0.903649 0
M  V30 3172 O 301.695 5.28616 2.14292 0
M  V30 3173 O 300.629 6.00918 0.343723 0
M  V30 3174 H 304.455 2.91968 -0.835972 0
M  V30 3175 H 302.04 1.41681 -0.47402 0
M  V30 3176 H 303.922 3.98369 1.37404 0
M  V30 3177 H 302.597 2.81052 1.60598 0
M  V30 3178 H 301.504 3.70289 -0.532633 0
M  V30 3179 H 302.837 4.87462 -0.681287 0
M  V30 3180 N 304.489 0.459591 1.5075 0
M  V30 3181 C 305.452 -0.329093 2.26825 0
M  V30 3182 C 306.452 -0.930481 1.31144 0
M  V30 3183 O 307.642 -0.801453 1.54669 0
M  V30 3184 C 304.774 -1.46768 3.07688 0
M  V30 3185 H 305.967 0.337924 2.9799 0
M  V30 3186 H 303.52 0.213336 1.54837 0
M  V30 3187 H 304.255 -2.17009 2.40993 0
M  V30 3188 H 304.04 -1.04238 3.77991 0
M  V30 3189 H 305.53 -2.02433 3.65254 0
M  V30 3190 N 305.967 -1.56429 0.191757 0
M  V30 3191 C 307.213 -1.97777 -0.448554 0
M  V30 3192 C 307.546 -1.07847 -1.61501 0
M  V30 3193 O 306.821 -0.129774 -1.94067 0
M  V30 3194 C 307.104 -3.48362 -0.911906 0
M  V30 3195 C 306.957 -4.4907 0.256136 0
M  V30 3196 C 308.276 -4.02561 -1.77857 0
M  V30 3197 H 305.395 -0.719071 -0.161572 0
M  V30 3198 H 308.037 -1.87896 0.282007 0
M  V30 3199 H 306.187 -3.56914 -1.53442 0
M  V30 3200 H 307.859 -4.5256 0.893733 0
M  V30 3201 H 306.102 -4.24181 0.908436 0
M  V30 3202 H 306.773 -5.51889 -0.11053 0
M  V30 3203 H 309.249 -3.96767 -1.25359 0
M  V30 3204 H 308.125 -5.08301 -2.07174 0
M  V30 3205 H 308.386 -3.47616 -2.73158 0
M  V30 3206 N 307.445 0.0818655 -1.57387 0
M  V30 3207 C 308.675 0.794954 -1.90694 0
M  V30 3208 C 309.083 1.72147 -0.784982 0
M  V30 3209 O 308.426 1.81974 0.251196 0
M  V30 3210 C 308.488 1.65042 -3.19376 0
M  V30 3211 C 308.152 0.894337 -4.48164 0
M  V30 3212 C 309.149 0.21813 -5.19442 0
M  V30 3213 C 306.834 0.864495 -4.94805 0
M  V30 3214 C 308.828 -0.477802 -6.35607 0
M  V30 3215 C 306.515 0.164785 -6.10878 0
M  V30 3216 C 307.513 -0.505173 -6.81129 0
M  V30 3217 O 307.201 -1.19363 -7.94989 0
M  V30 3218 H 306.933 0.231779 -0.635023 0
M  V30 3219 H 309.487 0.059493 -2.05314 0
M  V30 3220 H 307.717 2.42844 -3.00938 0
M  V30 3221 H 309.406 2.24127 -3.38411 0
M  V30 3222 H 310.172 0.232558 -4.84442 0
M  V30 3223 H 306.051 1.37542 -4.40004 0
M  V30 3224 H 309.595 -1.00129 -6.90377 0
M  V30 3225 H 305.492 0.148249 -6.4533 0
M  V30 3226 H 306.26 -1.10188 -8.11049 0
M  V30 3227 N 308.923 1.53595 0.353017 0
M  V30 3228 C 309.853 1.83902 1.43883 0
M  V30 3229 C 310.834 0.693421 1.55324 0
M  V30 3230 O 312.019 0.944452 1.69687 0
M  V30 3231 C 309.149 2.04016 2.8106 0
M  V30 3232 C 308.103 3.19814 2.84434 0
M  V30 3233 C 307.429 3.25244 4.24406 0
M  V30 3234 C 308.729 4.58133 2.50822 0
M  V30 3235 H 310.423 2.74835 1.1877 0
M  V30 3236 H 307.969 1.32242 0.569917 0
M  V30 3237 H 309.922 2.238 3.57059 0
M  V30 3238 H 308.646 1.09804 3.07588 0
M  V30 3239 H 307.305 2.9987 2.10887 0
M  V30 3240 H 306.953 2.28646 4.48029 0
M  V30 3241 H 306.653 4.03054 4.27576 0
M  V30 3242 H 308.177 3.47228 5.0226 0
M  V30 3243 H 309.591 4.77995 3.16534 0
M  V30 3244 H 307.988 5.38276 2.6529 0
M  V30 3245 H 309.058 4.62387 1.46034 0
M  V30 3246 N 310.401 -0.613514 1.45168 0
M  V30 3247 C 311.349 -1.74572 1.53712 0
M  V30 3248 C 312.343 -1.64426 0.407505 0
M  V30 3249 O 313.549 -1.70291 0.583176 0
M  V30 3250 H 309.924 -0.576641 0.48269 0
M  V30 3251 H 311.895 -1.64492 2.48968 0
M  V30 3252 C 310.644 -3.12943 1.51532 0
M  V30 3253 H 309.967 -3.21407 2.37776 0
M  V30 3254 H 311.407 -3.9201 1.61569 0
M  V30 3255 C 309.866 -3.36053 0.238798 0
M  V30 3256 O 310.396 -3.95837 -0.6838 0
M  V30 3257 N 308.602 -2.9028 0.136359 0
M  V30 3258 H 308.149 -2.41811 0.887999 0
M  V30 3259 H 308.107 -3.06116 -0.716944 0
M  V30 3260 N 311.879 -1.3236 -0.855495 0
M  V30 3261 C 313.156 -1.13491 -1.59309 0
M  V30 3262 C 313.536 0.30503 -2.08885 0
M  V30 3263 O 312.884 1.30151 -1.87811 0
M  V30 3264 C 313.094 -2.16176 -2.73987 0
M  V30 3265 C 314.442 -2.49463 -3.43589 0
M  V30 3266 O 315.466 -2.14715 -2.84211 0
M  V30 3267 O 314.325 -3.09027 -4.50738 0
M  V30 3268 H 311.419 -0.437887 -0.701559 0
M  V30 3269 H 313.965 -1.43887 -0.899696 0
M  V30 3270 H 312.737 -3.1297 -2.34873 0
M  V30 3271 H 312.36 -1.86769 -3.51003 0
M  V30 3272 N 313.357 1.07166 -1.15556 0
M  V30 3273 C 314.582 1.84053 -0.955988 0
M  V30 3274 C 315.007 1.81586 0.490739 0
M  V30 3275 O 314.365 1.21018 1.34997 0
M  V30 3276 C 314.413 3.28957 -1.47714 0
M  V30 3277 O 313.517 4.06795 -0.677593 0
M  V30 3278 H 312.858 0.569842 -0.340847 0
M  V30 3279 H 315.388 1.35178 -1.53584 0
M  V30 3280 H 315.398 3.79788 -1.4908 0
M  V30 3281 H 314.073 3.30068 -2.53037 0
M  V30 3282 H 312.65 3.6561 -0.733721 0
M  V30 3283 N 314.835 0.952656 1.25548 0
M  V30 3284 C 316.063 0.623496 1.97282 0
M  V30 3285 C 316.478 -0.803987 1.70826 0
M  V30 3286 O 315.835 -1.53755 0.983147 0
M  V30 3287 C 315.886 0.870209 3.5087 0
M  V30 3288 O 315.607 2.24156 3.76412 0
M  V30 3289 C 317.108 0.553164 4.39835 0
M  V30 3290 H 314.328 0.233931 0.628902 0
M  V30 3291 H 316.872 1.27649 1.59768 0
M  V30 3292 H 315.027 0.263652 3.86502 0
M  V30 3293 H 315.441 2.31021 4.70882 0
M  V30 3294 H 316.915 0.776342 5.46513 0
M  V30 3295 H 317.392 -0.512215 4.36203 0
M  V30 3296 H 317.998 1.13896 4.09766 0
M  V30 3297 N 316.313 -1.40141 0.720998 0
M  V30 3298 C 317.543 -2.04798 0.27226 0
M  V30 3299 C 317.951 -1.54442 -1.09289 0
M  V30 3300 O 317.294 -0.698342 -1.69908 0
M  V30 3301 C 317.356 -3.59048 0.18027 0
M  V30 3302 C 317.02 -4.32317 1.48159 0
M  V30 3303 C 318.017 -4.59902 2.42458 0
M  V30 3304 C 315.702 -4.71125 1.74202 0
M  V30 3305 C 317.696 -5.25288 3.61042 0
M  V30 3306 C 315.383 -5.36242 2.93066 0
M  V30 3307 C 316.381 -5.63254 3.86308 0
M  V30 3308 O 316.069 -6.27024 5.03086 0
M  V30 3309 H 315.801 -0.665419 0.119139 0
M  V30 3310 H 318.355 -1.80436 0.981432 0
M  V30 3311 H 316.585 -3.82251 -0.58489 0
M  V30 3312 H 318.274 -4.05221 -0.234618 0
M  V30 3313 H 319.04 -4.30379 2.23604 0
M  V30 3314 H 314.919 -4.49466 1.02477 0
M  V30 3315 H 318.463 -5.46289 4.33837 0
M  V30 3316 H 314.36 -5.65185 3.11826 0
M  V30 3317 H 315.128 -6.4552 5.03235 0
M  V30 3318 N 317.792 -0.46758 -1.50504 0
M  V30 3319 C 319.069 0.15003 -1.95024 0
M  V30 3320 C 319.449 1.57304 -1.40779 0
M  V30 3321 O 318.797 2.20281 -0.607319 0
M  V30 3322 C 319.007 0.0969324 -3.48865 0
M  V30 3323 C 320.355 0.287565 -4.23625 0
M  V30 3324 O 321.379 0.173678 -3.55776 0
M  V30 3325 O 320.238 0.517186 -5.44047 0
M  V30 3326 H 317.332 0.113582 -0.819163 0
M  V30 3327 H 319.878 -0.52773 -1.61286 0
M  V30 3328 H 318.65 -0.896732 -3.80886 0
M  V30 3329 H 318.273 0.816303 -3.8913 0
M  V30 3330 N 319.27 1.56325 -0.20005 0
M  V30 3331 C 320.518 1.97329 0.436547 0
M  V30 3332 C 320.839 1.08826 1.61808 0
M  V30 3333 O 320.109 0.160604 1.95241 0
M  V30 3334 H 318.689 0.728714 0.164272 0
M  V30 3335 H 321.351 1.92761 -0.287937 0
M  V30 3336 H 320.447 3.02264 0.777353 0
M  V30 3337 N 320.748 -0.0735177 1.57428 0
M  V30 3338 C 321.698 -1.09442 2.00016 0
M  V30 3339 C 322.682 -1.34575 0.881947 0
M  V30 3340 O 323.874 -1.34905 1.14585 0
M  V30 3341 C 321.003 -2.40865 2.4462 0
M  V30 3342 C 320.089 -2.19014 3.63172 0
M  V30 3343 N 320.48 -1.67087 4.77405 0
M  V30 3344 C 318.778 -2.49494 3.69688 0
M  V30 3345 C 319.479 -1.6001 5.5926 0
M  V30 3346 N 318.455 -2.05999 5.03056 0
M  V30 3347 H 322.257 -0.686227 2.85776 0
M  V30 3348 H 319.771 -0.280617 1.59957 0
M  V30 3349 H 321.768 -3.14763 2.73368 0
M  V30 3350 H 320.428 -2.82403 1.60246 0
M  V30 3351 H 321.439 -1.35975 4.99731 0
M  V30 3352 H 318.116 -2.94409 2.96023 0
M  V30 3353 H 319.506 -1.2073 6.60964 0
M  V30 3354 N 322.226 -1.5378 -0.344866 0
M  V30 3355 C 323.454 -1.74899 -1.10534 0
M  V30 3356 C 323.869 -0.487534 -1.82397 0
M  V30 3357 O 323.226 0.540741 -1.74305 0
M  V30 3358 C 323.277 -2.92822 -2.11984 0
M  V30 3359 O 322.998 -4.14089 -1.43044 0
M  V30 3360 C 324.499 -3.25982 -3.00417 0
M  V30 3361 H 321.719 -0.584426 -0.329678 0
M  V30 3362 H 324.263 -2.006 -0.397474 0
M  V30 3363 H 322.418 -2.69457 -2.78338 0
M  V30 3364 H 322.832 -4.80272 -2.10805 0
M  V30 3365 H 324.306 -4.11848 -3.67539 0
M  V30 3366 H 324.783 -2.42228 -3.66363 0
M  V30 3367 H 325.389 -3.51349 -2.39654 0
M  V30 3368 N 323.704 0.605807 -1.45491 0
M  V30 3369 C 324.95 1.36679 -1.49823 0
M  V30 3370 C 325.283 1.93693 -0.140175 0
M  V30 3371 O 324.558 1.75158 0.845581 0
M  V30 3372 C 324.841 2.51337 -2.57879 0
M  V30 3373 C 324.694 1.99508 -4.03134 0
M  V30 3374 C 326.013 3.53463 -2.62205 0
M  V30 3375 H 323.132 0.495617 -0.545466 0
M  V30 3376 H 325.774 0.682732 -1.7731 0
M  V30 3377 H 323.924 3.09691 -2.34571 0
M  V30 3378 H 325.596 1.45789 -4.37656 0
M  V30 3379 H 323.839 1.30496 -4.13707 0
M  V30 3380 H 324.51 2.82169 -4.74431 0
M  V30 3381 H 326.986 3.04953 -2.83095 0
M  V30 3382 H 325.862 4.31178 -3.39672 0
M  V30 3383 H 326.123 4.09197 -1.67363 0
M  V30 3384 N 325.182 1.32811 0.848464 0
M  V30 3385 C 326.43 1.23479 1.59991 0
M  V30 3386 C 326.751 -0.201853 1.93952 0
M  V30 3387 O 326.021 -1.12818 1.60153 0
M  V30 3388 H 324.601 0.454034 0.593179 0
M  V30 3389 H 327.263 1.66412 1.01455 0
M  V30 3390 H 326.359 1.82178 2.53412 0
M  V30 3391 N 326.66 -1.06551 1.16123 0
M  V30 3392 C 327.908 -1.78947 0.939267 0
M  V30 3393 C 328.229 -1.87532 -0.534476 0
M  V30 3394 O 327.499 -1.38211 -1.38833 0
M  V30 3395 H 326.079 -0.662807 0.344523 0
M  V30 3396 H 328.741 -1.28725 1.46342 0
M  V30 3397 H 327.837 -2.81117 1.35572 0
M  V30 3398 N 328.138 -0.959301 -1.25041 0
M  V30 3399 C 329.068 -0.501388 -2.28053 0
M  V30 3400 C 330.049 0.454673 -1.63911 0
M  V30 3401 O 331.234 0.352618 -1.90972 0
M  V30 3402 C 328.364 0.217224 -3.4662 0
M  V30 3403 C 327.318 -0.654034 -4.22973 0
M  V30 3404 C 326.644 0.195589 -5.34342 0
M  V30 3405 C 327.944 -1.93447 -4.85155 0
M  V30 3406 H 329.638 -1.36238 -2.66608 0
M  V30 3407 H 327.184 -0.656534 -1.28163 0
M  V30 3408 H 329.137 0.548732 -4.17812 0
M  V30 3409 H 327.861 1.1125 -3.07068 0
M  V30 3410 H 326.52 -0.968693 -3.5357 0
M  V30 3411 H 326.168 1.09076 -4.91031 0
M  V30 3412 H 325.868 -0.384091 -5.86343 0
M  V30 3413 H 327.392 0.521958 -6.08365 0
M  V30 3414 H 328.806 -1.66908 -5.48466 0
M  V30 3415 H 327.203 -2.46018 -5.47353 0
M  V30 3416 H 328.273 -2.63466 -4.07079 0
M  V30 3417 N 329.616 1.39756 -0.72842 0
M  V30 3418 C 330.548 2.29157 -0.0446202 0
M  V30 3419 C 331.561 1.46484 0.710367 0
M  V30 3420 O 332.75 1.69632 0.55562 0
M  V30 3421 C 329.85 3.24987 0.961071 0
M  V30 3422 C 329.023 4.36572 0.268967 0
M  V30 3423 C 328.082 5.12756 1.18184 0
M  V30 3424 O 327.108 5.6534 0.661794 0
M  V30 3425 N 328.31 5.23331 2.51206 0
M  V30 3426 H 331.075 2.88482 -0.812295 0
M  V30 3427 H 328.636 1.51265 -0.577098 0
M  V30 3428 H 330.628 3.72827 1.57423 0
M  V30 3429 H 329.198 2.66739 1.63 0
M  V30 3430 H 328.418 3.90694 -0.524574 0
M  V30 3431 H 329.706 5.08363 -0.210934 0
M  V30 3432 H 329.104 4.82116 2.9594 0
M  V30 3433 H 327.661 5.74634 3.07634 0
M  V30 3434 N 331.094 0.475555 1.50254 0
M  V30 3435 C 332.324 -0.0753399 2.06463 0
M  V30 3436 C 332.732 -1.33661 1.33908 0
M  V30 3437 O 332.075 -1.79219 0.403257 0
M  V30 3438 C 332.137 -0.424921 3.5698 0
M  V30 3439 C 331.801 0.734965 4.51051 0
M  V30 3440 C 332.798 1.61827 4.94073 0
M  V30 3441 C 330.483 0.926557 4.9368 0
M  V30 3442 C 332.477 2.67754 5.78434 0
M  V30 3443 C 330.164 1.98904 5.77824 0
M  V30 3444 C 331.162 2.8629 6.20103 0
M  V30 3445 O 330.85 3.90708 7.02568 0
M  V30 3446 H 330.582 0.00576308 0.675975 0
M  V30 3447 H 333.136 0.664662 1.94349 0
M  V30 3448 H 331.366 -1.21817 3.67012 0
M  V30 3449 H 333.055 -0.911422 3.95535 0
M  V30 3450 H 333.821 1.48196 4.61804 0
M  V30 3451 H 329.7 0.25584 4.6029 0
M  V30 3452 H 333.244 3.35992 6.11355 0
M  V30 3453 H 329.141 2.12541 6.09505 0
M  V30 3454 H 329.909 3.87751 7.20827 0
M  V30 3455 N 332.573 -1.56217 0.208337 0
M  V30 3456 C 333.821 -1.97558 -0.426076 0
M  V30 3457 C 334.142 -1.09683 -1.61229 0
M  V30 3458 O 333.412 -0.170956 -1.95153 0
M  V30 3459 H 331.992 -0.729575 -0.160405 0
M  V30 3460 H 334.654 -1.92606 0.298155 0
M  V30 3461 H 333.75 -3.02672 -0.761312 0
M  V30 3462 N 334.051 0.0651679 -1.57465 0
M  V30 3463 C 335.299 0.761555 -1.87202 0
M  V30 3464 C 335.62 1.77778 -0.801243 0
M  V30 3465 O 334.89 1.95166 0.16937 0
M  V30 3466 H 333.47 0.284251 -0.690804 0
M  V30 3467 H 336.132 0.0396827 -1.9486 0
M  V30 3468 H 335.228 1.27365 -2.84929 0
M  V30 3469 N 335.529 1.53961 0.336706 0
M  V30 3470 C 336.459 1.85417 1.41925 0
M  V30 3471 C 337.44 0.709856 1.5458 0
M  V30 3472 O 338.625 0.962396 1.68676 0
M  V30 3473 C 335.755 2.06985 2.78881 0
M  V30 3474 C 334.709 3.22813 2.81026 0
M  V30 3475 C 334.035 3.29727 4.20932 0
M  V30 3476 C 335.335 4.60767 2.45949 0
M  V30 3477 H 337.029 2.76079 1.15848 0
M  V30 3478 H 334.575 1.32839 0.555859 0
M  V30 3479 H 336.528 2.27575 3.54665 0
M  V30 3480 H 335.252 1.13061 3.06406 0
M  V30 3481 H 333.911 3.0209 2.07695 0
M  V30 3482 H 333.559 2.33385 4.45579 0
M  V30 3483 H 333.259 4.07566 4.23277 0
M  V30 3484 H 334.783 3.52536 4.98549 0
M  V30 3485 H 336.197 4.81325 3.11446 0
M  V30 3486 H 334.594 5.4106 2.59566 0
M  V30 3487 H 335.664 4.6391 1.41122 0
M  V30 3488 N 337.007 -0.598083 1.45811 0
M  V30 3489 C 338.255 -1.35413 1.50026 0
M  V30 3490 C 338.576 -1.94444 0.147177 0
M  V30 3491 O 337.846 -1.77701 -0.824571 0
M  V30 3492 H 336.426 -0.502727 0.552517 0
M  V30 3493 H 339.088 -0.701606 1.81834 0
M  V30 3494 H 338.184 -2.16871 2.2444 0
M  V30 3495 N 338.485 -1.33259 -0.841409 0
M  V30 3496 C 339.417 -1.19136 -1.95804 0
M  V30 3497 C 340.43 -0.122965 -1.62335 0
M  V30 3498 O 341.619 -0.373154 -1.74556 0
M  V30 3499 C 338.719 -0.804268 -3.29218 0
M  V30 3500 C 337.892 -1.96376 -3.90839 0
M  V30 3501 C 336.951 -1.55806 -5.02604 0
M  V30 3502 O 335.977 -2.27203 -5.21888 0
M  V30 3503 N 337.179 -0.461609 -5.78662 0
M  V30 3504 H 339.944 -2.15326 -2.08458 0
M  V30 3505 H 337.505 -1.25971 -1.017 0
M  V30 3506 H 339.497 -0.51501 -4.0141 0
M  V30 3507 H 338.067 0.0668809 -3.12528 0
M  V30 3508 H 337.287 -2.41879 -3.11269 0
M  V30 3509 H 338.575 -2.73966 -4.28742 0
M  V30 3510 H 337.973 0.132343 -5.65545 0
M  V30 3511 H 336.53 -0.232013 -6.51387 0
M  V30 3512 N 339.963 1.05934 -1.16686 0
M  V30 3513 C 340.893 2.1546 -0.899949 0
M  V30 3514 C 341.874 1.69391 0.155154 0
M  V30 3515 O 343.059 1.94199 0.00648693 0
M  V30 3516 C 340.189 3.44939 -0.404241 0
M  V30 3517 C 339.143 4.04536 -1.39767 0
M  V30 3518 C 338.469 5.29268 -0.760216 0
M  V30 3519 C 339.769 4.42893 -2.76845 0
M  V30 3520 H 341.463 2.38046 -1.81588 0
M  V30 3521 H 339.009 1.14404 -0.874514 0
M  V30 3522 H 340.962 4.20901 -0.204971 0
M  V30 3523 H 339.686 3.21983 0.547206 0
M  V30 3524 H 338.345 3.30635 -1.58355 0
M  V30 3525 H 337.993 5.02611 0.197831 0
M  V30 3526 H 337.693 5.70101 -1.42332 0
M  V30 3527 H 339.217 6.07924 -0.57105 0
M  V30 3528 H 340.631 5.09921 -2.62019 0
M  V30 3529 H 339.028 4.94721 -3.39663 0
M  V30 3530 H 340.098 3.53584 -3.31823 0
M  V30 3531 N 341.441 0.965919 1.2453 0
M  V30 3532 C 342.404 0.499547 2.2369 0
M  V30 3533 C 343.404 -0.40294 1.5567 0
M  V30 3534 O 344.594 -0.19865 1.73064 0
M  V30 3535 C 341.726 -0.276792 3.39774 0
M  V30 3536 H 342.919 1.37613 2.66463 0
M  V30 3537 H 340.472 0.750324 1.37112 0
M  V30 3538 H 341.207 -1.17055 3.02438 0
M  V30 3539 H 340.992 0.370826 3.90343 0
M  V30 3540 H 342.482 -0.592175 4.1338 0
M  V30 3541 N 342.919 -1.39368 0.735821 0
M  V30 3542 C 344.196 -1.94465 0.210395 0
M  V30 3543 C 344.576 -1.67254 -1.28799 0
M  V30 3544 O 343.924 -1.00123 -2.05396 0
M  V30 3545 C 344.134 -3.4472 0.544897 0
M  V30 3546 C 345.482 -4.21708 0.494689 0
M  V30 3547 O 346.506 -3.52922 0.482136 0
M  V30 3548 O 345.365 -5.44299 0.489947 0
M  V30 3549 H 342.459 -0.826096 0.0386666 0
M  V30 3550 H 345.005 -1.48863 0.814735 0
M  V30 3551 H 343.777 -3.57963 1.58045 0
M  V30 3552 H 343.4 -3.97502 -0.08837 0
M  V30 3553 N 344.397 -0.483516 -1.5 0
M  V30 3554 C 345.645 0.067027 -2.01989 0
M  V30 3555 C 345.966 1.3909 -1.36671 0
M  V30 3556 O 345.236 1.88978 -0.516152 0
M  V30 3557 H 343.816 0.0277606 -0.746484 0
M  V30 3558 H 346.478 -0.636773 -1.84204 0
M  V30 3559 H 345.574 0.209484 -3.11396 0
M  V30 3560 N 345.875 1.56104 -0.216619 0
M  V30 3561 C 347.121 1.98466 0.417033 0
M  V30 3562 C 347.454 1.10403 1.59765 0
M  V30 3563 O 346.729 0.160632 1.93836 0
M  V30 3564 C 347.012 3.49769 0.85637 0
M  V30 3565 C 346.865 4.48606 -0.327546 0
M  V30 3566 C 348.184 4.05339 1.7143 0
M  V30 3567 H 345.303 0.721551 0.150112 0
M  V30 3568 H 347.945 1.87423 -0.311864 0
M  V30 3569 H 346.095 3.5931 1.47745 0
M  V30 3570 H 347.767 4.5108 -0.965618 0
M  V30 3571 H 346.01 4.22682 -0.975805 0
M  V30 3572 H 346.681 5.51995 0.0227149 0
M  V30 3573 H 349.157 3.98712 1.19031 0
M  V30 3574 H 348.033 5.11533 1.99061 0
M  V30 3575 H 348.294 3.51918 2.67593 0
M  V30 3576 N 347.353 -0.0568162 1.57498 0
M  V30 3577 C 348.599 -0.75422 1.88253 0
M  V30 3578 C 348.932 -1.76461 0.810865 0
M  V30 3579 O 348.207 -1.93691 -0.177259 0
M  V30 3580 C 348.49 -1.44878 3.2967 0
M  V30 3581 C 348.343 -0.453789 4.47505 0
M  V30 3582 C 349.662 -2.38994 3.69554 0
M  V30 3583 H 346.781 -0.272724 0.684683 0
M  V30 3584 H 349.423 -0.0172113 1.89992 0
M  V30 3585 H 347.573 -2.077 3.28318 0
M  V30 3586 H 349.245 0.170371 4.60985 0
M  V30 3587 H 347.488 0.229552 4.33192 0
M  V30 3588 H 348.159 -0.977699 5.43273 0
M  V30 3589 H 350.635 -1.86239 3.72095 0
M  V30 3590 H 349.511 -2.84587 4.69363 0
M  V30 3591 H 349.772 -3.24461 3.00296 0
M  V30 3592 N 348.832 -1.54138 -0.328536 0
M  V30 3593 C 350.08 -1.71765 -1.06496 0
M  V30 3594 C 350.401 -0.49149 -1.88704 0
M  V30 3595 O 349.671 0.494539 -1.89555 0
M  V30 3596 H 348.251 -0.633295 -0.396164 0
M  V30 3597 H 350.913 -1.91429 -0.366176 0
M  V30 3598 H 350.009 -2.5951 -1.73381 0
M  V30 3599 N 350.31 0.590341 -1.46126 0
M  V30 3600 C 351.24 1.71032 -1.58966 0
M  V30 3601 C 352.221 1.64302 -0.440335 0
M  V30 3602 O 353.406 1.82436 -0.665634 0
M  V30 3603 C 350.536 3.09665 -1.57241 0
M  V30 3604 C 349.49 3.31221 -2.71066 0
M  V30 3605 C 348.816 4.70303 -2.54399 0
M  V30 3606 C 350.116 3.19796 -4.1295 0
M  V30 3607 H 351.81 1.60543 -2.52718 0
M  V30 3608 H 349.356 0.770933 -1.21625 0
M  V30 3609 H 351.309 3.87831 -1.64819 0
M  V30 3610 H 350.033 3.21036 -0.600289 0
M  V30 3611 H 348.692 2.55452 -2.62944 0
M  V30 3612 H 348.34 4.78429 -1.55288 0
M  V30 3613 H 348.04 4.85679 -3.30741 0
M  V30 3614 H 349.564 5.50647 -2.63857 0
M  V30 3615 H 350.978 3.87815 -4.22223 0
M  V30 3616 H 349.375 3.46696 -4.89818 0
M  V30 3617 H 350.445 2.16983 -4.33643 0
M  V30 3618 N 351.788 1.33704 0.83433 0
M  V30 3619 C 353.065 1.16011 1.57483 0
M  V30 3620 C 353.445 -0.27176 2.09343 0
M  V30 3621 O 352.793 -1.27146 1.89858 0
M  V30 3622 C 353.003 2.20507 2.70514 0
M  V30 3623 C 354.351 2.54898 3.39577 0
M  V30 3624 O 355.375 2.19209 2.80759 0
M  V30 3625 O 354.234 3.16158 4.45765 0
M  V30 3626 H 351.328 0.448992 0.694503 0
M  V30 3627 H 353.874 1.453 0.876691 0
M  V30 3628 H 352.646 3.16667 2.29865 0
M  V30 3629 H 352.269 1.92329 3.47987 0
M  V30 3630 N 353.266 -1.05314 1.17247 0
M  V30 3631 C 354.543 -1.75184 0.87005 0
M  V30 3632 C 354.923 -2.01481 -0.629965 0
M  V30 3633 O 354.271 -1.64988 -1.58086 0
M  V30 3634 C 354.481 -3.04594 1.70363 0
M  V30 3635 C 355.829 -3.78567 1.92281 0
M  V30 3636 O 356.853 -3.14461 1.67311 0
M  V30 3637 O 355.712 -4.93755 2.3424 0
M  V30 3638 H 352.806 -0.761729 0.322021 0
M  V30 3639 H 355.352 -1.11493 1.27935 0
M  V30 3640 H 354.124 -2.81201 2.72106 0
M  V30 3641 H 353.747 -3.76022 1.29202 0
M  V30 3642 N 354.744 -0.972509 -1.24016 0
M  V30 3643 C 355.991 -0.637034 -1.92219 0
M  V30 3644 C 356.319 0.828418 -1.75976 0
M  V30 3645 O 355.574 1.61206 -1.10955 0
M  V30 3646 C 355.873 -0.963694 -3.44162 0
M  V30 3647 C 355.539 -2.41807 -3.80579 0
M  V30 3648 C 354.201 -2.81556 -3.9023 0
M  V30 3649 C 356.553 -3.36172 -3.98293 0
M  V30 3650 C 353.881 -4.14702 -4.15017 0
M  V30 3651 C 356.233 -4.68952 -4.24578 0
M  V30 3652 C 354.897 -5.08472 -4.32449 0
M  V30 3653 H 354.167 -0.233107 -0.703379 0
M  V30 3654 H 356.814 -1.2249 -1.47202 0
M  V30 3655 H 355.119 -0.29365 -3.90698 0
M  V30 3656 H 356.816 -0.682449 -3.9515 0
M  V30 3657 H 353.406 -2.09988 -3.73635 0
M  V30 3658 H 357.59 -3.06644 -3.90234 0
M  V30 3659 H 352.846 -4.4494 -4.19331 0
M  V30 3660 H 357.02 -5.42037 -4.37229 0
M  V30 3661 H 354.647 -6.11665 -4.51409 0
M  V30 3662 N 356.222 1.38976 -0.743202 0
M  V30 3663 C 357.638 1.53984 -0.419664 0
M  V30 3664 C 357.838 1.70837 1.0685 0
M  V30 3665 O 356.894 1.7135 1.8546 0
M  V30 3666 C 358.207 2.75287 -1.20985 0
M  V30 3667 C 359.755 2.89129 -1.19889 0
M  V30 3668 C 360.23 4.13381 -1.97181 0
M  V30 3669 N 361.721 4.20437 -1.94389 0
M  V30 3670 C 362.456 5.15547 -2.50996 0
M  V30 3671 N 361.952 6.16395 -3.16274 0
M  V30 3672 N 363.745 5.07822 -2.40984 0
M  V30 3673 H 355.896 1.26285 -1.7078 0
M  V30 3674 H 358.159 0.612689 -0.723406 0
M  V30 3675 H 357.865 2.69204 -2.26323 0
M  V30 3676 H 357.739 3.68184 -0.819759 0
M  V30 3677 H 360.126 2.947 -0.153606 0
M  V30 3678 H 360.207 1.97272 -1.62841 0
M  V30 3679 H 359.851 4.08572 -3.01714 0
M  V30 3680 H 359.781 5.04298 -1.51629 0
M  V30 3681 H 362.272 3.48205 -1.46839 0
M  V30 3682 H 362.585 6.85443 -3.56915 0
M  V30 3683 H 360.93 6.16758 -3.20367 0
M  V30 3684 H 364.121 4.27973 -1.89622 0
M  V30 3685 H 364.294 5.81767 -2.85397 0
M  V30 3686 N 357.7 0.491464 1.49741 0
M  V30 3687 C 358.647 -0.292027 2.28945 0
M  V30 3688 C 359.617 -0.968973 1.34908 0
M  V30 3689 O 360.802 -0.97748 1.6386 0
M  V30 3690 C 357.942 -1.35617 3.17336 0
M  V30 3691 C 357.055 -0.691957 4.26422 0
M  V30 3692 C 356.19 -1.73572 5.02042 0
M  V30 3693 C 355.229 -1.05286 6.02977 0
M  V30 3694 N 354.366 -2.0404 6.71798 0
M  V30 3695 H 359.206 0.389654 2.95442 0
M  V30 3696 H 356.743 0.204003 1.45679 0
M  V30 3697 H 358.701 -1.98502 3.66951 0
M  V30 3698 H 357.331 -2.00674 2.52844 0
M  V30 3699 H 356.383 0.0499523 3.80367 0
M  V30 3700 H 357.695 -0.153946 4.98562 0
M  V30 3701 H 356.849 -2.43987 5.55478 0
M  V30 3702 H 355.588 -2.30757 4.29654 0
M  V30 3703 H 354.593 -0.334446 5.48782 0
M  V30 3704 H 355.818 -0.487636 6.77347 0
M  V30 3705 H 353.764 -2.60205 6.02187 0
M  V30 3706 H 353.681 -1.55279 7.39881 0
M  V30 3707 H 354.949 -2.73772 7.29842 0
M  V30 3708 N 359.178 -1.55987 0.224894 0
M  V30 3709 C 360.403 -2.03232 -0.41369 0
M  V30 3710 C 360.828 -1.10359 -1.52323 0
M  V30 3711 O 360.186 -0.092395 -1.81064 0
M  V30 3712 C 360.234 -3.48682 -0.919405 0
M  V30 3713 O 359.338 -3.58947 -2.03054 0
M  V30 3714 H 358.679 -0.657428 -0.0931903 0
M  V30 3715 H 361.209 -2.01679 0.34451 0
M  V30 3716 H 361.219 -3.8907 -1.22835 0
M  V30 3717 H 359.894 -4.15761 -0.107339 0
M  V30 3718 H 358.471 -3.30448 -1.72796 0
M  V30 3719 N 360.656 0.0484629 -1.57525 0
M  V30 3720 C 361.588 1.08222 -2.02041 0
M  V30 3721 C 362.601 1.33621 -0.930012 0
M  V30 3722 O 363.79 1.3145 -1.20761 0
M  V30 3723 C 360.89 2.42818 -2.36416 0
M  V30 3724 C 360.063 2.37049 -3.67596 0
M  V30 3725 C 359.122 3.53937 -3.89378 0
M  V30 3726 O 358.148 3.34308 -4.60681 0
M  V30 3727 N 359.35 4.75126 -3.3352 0
M  V30 3728 H 362.115 0.702946 -2.9134 0
M  V30 3729 H 359.676 0.236745 -1.6016 0
M  V30 3730 H 361.668 3.197 -2.48141 0
M  V30 3731 H 360.238 2.72661 -1.52888 0
M  V30 3732 H 359.458 1.45395 -3.66407 0
M  V30 3733 H 360.746 2.30318 -4.53686 0
M  V30 3734 H 360.144 4.93976 -2.75688 0
M  V30 3735 H 358.701 5.49439 -3.50656 0
M  V30 3736 N 362.134 1.5431 0.320358 0
M  V30 3737 C 363.044 1.86946 1.41734 0
M  V30 3738 C 364.06 0.761689 1.56443 0
M  V30 3739 O 365.236 1.05629 1.71477 0
M  V30 3740 C 362.301 2.09293 2.76401 0
M  V30 3741 C 361.362 3.33082 2.70841 0
M  V30 3742 C 360.595 3.54353 3.99086 0
M  V30 3743 O 360.818 2.79002 4.97508 0
M  V30 3744 O 359.752 4.47838 4.0215 0
M  V30 3745 H 363.578 2.80232 1.17062 0
M  V30 3746 H 361.163 1.40255 0.514673 0
M  V30 3747 H 363.045 2.25303 3.56113 0
M  V30 3748 H 361.72 1.19194 3.00956 0
M  V30 3749 H 360.627 3.22454 1.89668 0
M  V30 3750 H 361.96 4.23249 2.5124 0
M  V30 3751 N 363.613 -0.582584 1.46437 0
M  V30 3752 C 364.543 -1.70187 1.59871 0
M  V30 3753 C 365.524 -1.64066 0.449042 0
M  V30 3754 O 366.709 -1.82081 0.6753 0
M  V30 3755 C 363.839 -3.08827 1.58881 0
M  V30 3756 C 362.793 -3.29779 2.72819 0
M  V30 3757 C 362.119 -4.68947 2.5689 0
M  V30 3758 C 363.419 -3.17601 4.1464 0
M  V30 3759 H 365.113 -1.592 2.53566 0
M  V30 3760 H 362.659 -0.764472 1.22032 0
M  V30 3761 H 364.612 -3.86951 1.66873 0
M  V30 3762 H 363.336 -3.20713 0.617306 0
M  V30 3763 H 361.995 -2.54054 2.64296 0
M  V30 3764 H 361.643 -4.77599 1.57823 0
M  V30 3765 H 361.343 -4.83919 3.33312 0
M  V30 3766 H 362.867 -5.4924 2.66773 0
M  V30 3767 H 364.281 -3.8557 4.24274 0
M  V30 3768 H 362.678 -3.44094 4.9165 0
M  V30 3769 H 363.748 -2.14681 4.34788 0
M  V30 3770 N 365.091 -1.34144 -0.827227 0
M  V30 3771 C 366.507 -1.13732 -1.11969 0
M  V30 3772 C 366.707 0.0640463 -2.01398 0
M  V30 3773 O 365.763 0.740856 -2.41387 0
M  V30 3774 C 367.076 -2.43047 -1.77055 0
M  V30 3775 C 368.624 -2.49063 -1.89569 0
M  V30 3776 C 369.099 -3.78369 -2.58072 0
M  V30 3777 N 370.59 -3.79505 -2.65575 0
M  V30 3778 C 371.325 -4.76274 -3.19297 0
M  V30 3779 N 370.821 -5.83424 -3.73616 0
M  V30 3780 N 372.614 -4.63735 -3.17658 0
M  V30 3781 H 364.765 -2.11126 -0.232296 0
M  V30 3782 H 367.028 -0.933424 -0.165602 0
M  V30 3783 H 366.734 -3.31025 -1.18807 0
M  V30 3784 H 366.608 -2.56066 -2.76966 0
M  V30 3785 H 368.995 -1.61527 -2.46968 0
M  V30 3786 H 369.076 -2.39975 -0.885745 0
M  V30 3787 H 368.72 -4.66293 -2.01329 0
M  V30 3788 H 368.65 -3.84737 -3.59562 0
M  V30 3789 H 371.141 -3.02074 -2.27068 0
M  V30 3790 H 371.454 -6.53282 -4.12846 0
M  V30 3791 H 369.799 -5.87143 -3.71871 0
M  V30 3792 H 372.99 -3.79177 -2.74486 0
M  V30 3793 H 373.163 -5.39318 -3.59221 0
M  V30 3794 N 366.569 1.04691 -1.17803 0
M  V30 3795 C 367.815 1.78045 -0.970969 0
M  V30 3796 C 368.148 1.87686 0.498751 0
M  V30 3797 O 367.423 1.38035 1.37027 0
M  V30 3798 C 367.706 3.2166 -1.61884 0
M  V30 3799 C 367.559 3.20001 -3.161 0
M  V30 3800 C 368.878 4.1962 -1.3269 0
M  V30 3801 H 365.997 0.64633 -0.354155 0
M  V30 3802 H 368.639 1.22333 -1.45378 0
M  V30 3803 H 366.789 3.69232 -1.20831 0
M  V30 3804 H 368.461 2.80467 -3.66246 0
M  V30 3805 H 366.704 2.58203 -3.48588 0
M  V30 3806 H 367.375 4.21386 -3.56564 0
M  V30 3807 H 369.851 3.80567 -1.68249 0
M  V30 3808 H 368.727 5.18339 -1.80599 0
M  V30 3809 H 368.988 4.414 -0.248622 0
M  V30 3810 N 368.047 0.979072 1.23499 0
M  V30 3811 C 369.293 0.6578 1.9247 0
M  V30 3812 C 369.648 -0.799746 1.74991 0
M  V30 3813 O 368.941 -1.56922 1.09937 0
M  V30 3814 C 369.135 0.981932 3.43646 0
M  V30 3815 C 368.964 2.46944 3.75831 0
M  V30 3816 C 367.734 3.13119 3.96591 0
M  V30 3817 C 369.932 3.45006 3.81412 0
M  V30 3818 N 367.914 4.51489 4.15969 0
M  V30 3819 C 369.285 4.68778 4.05768 0
M  V30 3820 C 371.34 3.39505 3.64198 0
M  V30 3821 C 370.043 5.87723 4.14697 0
M  V30 3822 C 372.069 4.57814 3.7438 0
M  V30 3823 C 371.431 5.80381 3.99171 0
M  V30 3824 H 367.53 0.291746 0.72554 0
M  V30 3825 H 370.114 1.25626 1.48749 0
M  V30 3826 H 368.285 0.412179 3.86207 0
M  V30 3827 H 370.017 0.618068 3.99953 0
M  V30 3828 H 366.772 2.63619 3.93449 0
M  V30 3829 H 367.196 5.23221 4.29615 0
M  V30 3830 H 371.838 2.45773 3.44029 0
M  V30 3831 H 369.556 6.81874 4.33675 0
M  V30 3832 H 373.142 4.55132 3.62417 0
M  V30 3833 H 372.022 6.70398 4.06861 0
M  V30 3834 N 369.525 -1.3858 0.750561 0
M  V30 3835 C 370.936 -1.82927 0.373438 0
M  V30 3836 C 371.287 -1.62634 -1.09748 0
M  V30 3837 O 370.412 -1.12588 -1.84805 0
M  V30 3838 C 371.007 -3.32088 0.671029 0
M  V30 3839 C 369.566 -3.74795 0.34722 0
M  V30 3840 C 368.713 -2.61391 0.92575 0
M  V30 3841 H 371.664 -1.27351 0.946958 0
M  V30 3842 H 371.685 -3.80465 -0.0518269 0
M  V30 3843 H 371.197 -3.46826 1.74164 0
M  V30 3844 H 369.298 -3.65638 -0.716933 0
M  V30 3845 H 369.411 -4.71667 0.840656 0
M  V30 3846 H 367.775 -2.52265 0.351327 0
M  V30 3847 H 368.558 -2.78929 2.00133 0
M  V30 3848 N 371.003 -0.499398 -1.49478 0
M  V30 3849 C 372.251 0.0455996 -2.02049 0
M  V30 3850 C 372.572 1.37633 -1.38138 0
M  V30 3851 O 371.842 1.8842 -0.536166 0
M  V30 3852 H 370.422 0.0198416 -0.746736 0
M  V30 3853 H 373.084 -0.656274 -1.83519 0
M  V30 3854 H 372.18 0.176445 -3.11601 0
M  V30 3855 N 372.481 1.55866 -0.233164 0
M  V30 3856 C 373.711 2.02704 0.399325 0
M  V30 3857 C 374.119 1.11204 1.53069 0
M  V30 3858 O 373.462 0.116182 1.83332 0
M  V30 3859 C 373.524 3.45844 0.981429 0
M  V30 3860 C 373.188 4.56997 -0.0159561 0
M  V30 3861 C 374.185 5.13384 -0.820552 0
M  V30 3862 C 371.87 5.0211 -0.138072 0
M  V30 3863 C 373.864 6.13365 -1.73386 0
M  V30 3864 C 371.551 6.01926 -1.0549 0
M  V30 3865 C 372.549 6.57431 -1.85132 0
M  V30 3866 O 372.237 7.55302 -2.75272 0
M  V30 3867 H 371.969 0.668459 0.100692 0
M  V30 3868 H 374.523 2.02387 -0.35052 0
M  V30 3869 H 372.753 3.43267 1.78058 0
M  V30 3870 H 374.442 3.76262 1.52255 0
M  V30 3871 H 375.208 4.79372 -0.736721 0
M  V30 3872 H 371.087 4.5858 0.471737 0
M  V30 3873 H 374.631 6.56614 -2.35592 0
M  V30 3874 H 370.528 6.35359 -1.1397 0
M  V30 3875 H 371.296 7.72867 -2.69477 0
M  V30 3876 N 373.959 -0.0401083 1.57549 0
M  V30 3877 C 375.236 -0.767917 1.79896 0
M  V30 3878 C 375.616 -1.9416 0.82856 0
M  V30 3879 O 374.964 -2.2812 -0.131671 0
M  V30 3880 C 375.174 -1.2113 3.27305 0
M  V30 3881 C 376.522 -1.63175 3.91994 0
M  V30 3882 O 377.546 -1.30616 3.31388 0
M  V30 3883 O 376.405 -2.23565 4.98679 0
M  V30 3884 H 373.499 -0.370441 0.739393 0
M  V30 3885 H 376.045 -0.017737 1.69691 0
M  V30 3886 H 374.817 -0.372937 3.89519 0
M  V30 3887 H 374.44 -2.02183 3.42356 0
M  V30 3888 N 375.437 -1.54477 -0.31217 0
M  V30 3889 C 376.667 -1.76948 -1.06645 0
M  V30 3890 C 377.075 -0.523593 -1.81811 0
M  V30 3891 O 376.418 0.51578 -1.76311 0
M  V30 3892 C 376.48 -2.91668 -2.10166 0
M  V30 3893 C 376.144 -4.30165 -1.54296 0
M  V30 3894 C 377.141 -5.10603 -0.978793 0
M  V30 3895 C 374.826 -4.76738 -1.58196 0
M  V30 3896 C 376.82 -6.3573 -0.461048 0
M  V30 3897 C 374.507 -6.01831 -1.06034 0
M  V30 3898 C 375.505 -6.81161 -0.500844 0
M  V30 3899 O 375.193 -8.03899 0.0128958 0
M  V30 3900 H 374.925 -0.594088 -0.322546 0
M  V30 3901 H 377.479 -2.02213 -0.360441 0
M  V30 3902 H 375.709 -2.62001 -2.84416 0
M  V30 3903 H 377.398 -3.01817 -2.71406 0
M  V30 3904 H 378.164 -4.75771 -0.941651 0
M  V30 3905 H 374.043 -4.15027 -2.00683 0
M  V30 3906 H 377.587 -6.97596 -0.0236894 0
M  V30 3907 H 373.484 -6.36152 -1.09459 0
M  V30 3908 H 374.252 -8.18437 -0.101457 0
M  V30 3909 N 376.915 0.57481 -1.46744 0
M  V30 3910 C 378.161 1.3347 -1.52688 0
M  V30 3911 C 378.494 1.93353 -0.181229 0
M  V30 3912 O 377.769 1.76912 0.808237 0
M  V30 3913 C 378.052 2.45811 -2.63152 0
M  V30 3914 C 377.905 1.90912 -4.07275 0
M  V30 3915 C 379.224 3.47822 -2.69644 0
M  V30 3916 H 376.343 0.483935 -0.555856 0
M  V30 3917 H 378.985 0.644968 -1.78718 0
M  V30 3918 H 377.135 3.04646 -2.41088 0
M  V30 3919 H 378.807 1.36473 -4.4065 0
M  V30 3920 H 377.05 1.21691 -4.16382 0
M  V30 3921 H 377.721 2.72042 -4.80309 0
M  V30 3922 H 380.197 2.9888 -2.895 0
M  V30 3923 H 379.073 4.23876 -3.48742 0
M  V30 3924 H 379.334 4.05555 -1.76005 0
M  V30 3925 N 378.394 1.34581 0.820102 0
M  V30 3926 C 379.642 1.26845 1.57336 0
M  V30 3927 C 379.963 -0.160667 1.94337 0
M  V30 3928 O 379.233 -1.09396 1.6251 0
M  V30 3929 H 377.813 0.466514 0.583415 0
M  V30 3930 H 380.475 1.68526 0.979027 0
M  V30 3931 H 379.571 1.87513 2.4949 0
M  V30 3932 N 379.872 -1.04064 1.18357 0
M  V30 3933 C 381.118 -1.77658 0.990412 0
M  V30 3934 C 381.473 -1.86446 -0.474944 0
M  V30 3935 O 380.766 -1.36153 -1.34807 0
M  V30 3936 C 380.96 -3.20634 1.57888 0
M  V30 3937 C 380.789 -3.25782 3.09994 0
M  V30 3938 C 379.559 -3.34411 3.7881 0
M  V30 3939 C 381.757 -3.13791 4.0748 0
M  V30 3940 N 379.739 -3.28809 5.18418 0
M  V30 3941 C 381.11 -3.15689 5.33611 0
M  V30 3942 C 383.165 -2.97833 3.98998 0
M  V30 3943 C 381.868 -3.03268 6.52243 0
M  V30 3944 C 383.894 -2.86759 5.17227 0
M  V30 3945 C 383.256 -2.893 6.4225 0
M  V30 3946 H 379.355 -0.661901 0.416427 0
M  V30 3947 H 381.939 -1.23968 1.50133 0
M  V30 3948 H 380.11 -3.7267 1.09414 0
M  V30 3949 H 381.842 -3.82525 1.32124 0
M  V30 3950 H 378.597 -3.40144 3.29543 0
M  V30 3951 H 379.021 -3.29448 5.91433 0
M  V30 3952 H 383.663 -2.94698 3.03171 0
M  V30 3953 H 381.381 -3.05156 7.48268 0
M  V30 3954 H 384.967 -2.75465 5.12455 0
M  V30 3955 H 383.847 -2.80818 7.32196 0
M  V30 3956 N 381.35 -0.985608 -1.22978 0
M  V30 3957 C 382.575 -0.675254 -1.961 0
M  V30 3958 C 383 0.752154 -1.72407 0
M  V30 3959 O 382.358 1.5131 -0.998751 0
M  V30 3960 C 382.406 -0.977899 -3.47087 0
M  V30 3961 O 381.51 -0.072685 -4.12336 0
M  V30 3962 H 380.851 -0.253443 -0.613728 0
M  V30 3963 H 383.381 -1.32061 -1.56272 0
M  V30 3964 H 383.391 -0.916739 -3.97567 0
M  V30 3965 H 382.066 -2.01807 -3.63657 0
M  V30 3966 H 380.643 -0.188703 -3.72422 0
M  V30 3967 N 382.828 1.3818 -0.7579 0
M  V30 3968 C 383.776 2.32277 -0.122482 0
M  V30 3969 C 384.77 1.54238 0.700505 0
M  V30 3970 O 385.976 1.69737 0.599119 0
M  V30 3971 H 382.351 0.751712 -0.0208143 0
M  V30 3972 H 384.322 2.83469 -0.932099 0
M  V30 3973 C 383.071 3.39447 0.753076 0
M  V30 3974 H 382.394 3.99591 0.129184 0
M  V30 3975 H 383.834 4.07684 1.16489 0
M  V30 3976 C 382.293 2.78375 1.8976 0
M  V30 3977 O 382.823 2.68025 2.99208 0
M  V30 3978 N 381.029 2.36121 1.69397 0
M  V30 3979 H 380.576 2.4474 0.803762 0
M  V30 3980 H 380.534 1.95602 2.46145 0
M  V30 3981 N 384.306 0.507319 1.49211 0
M  V30 3982 C 385.256 -0.287112 2.26185 0
M  V30 3983 C 386.24 -0.929983 1.31302 0
M  V30 3984 O 387.432 -0.836538 1.55984 0
M  V30 3985 C 384.561 -1.34718 3.15763 0
M  V30 3986 C 383.647 -0.710235 4.18111 0
M  V30 3987 N 384.038 0.190836 5.0544 0
M  V30 3988 C 382.336 -0.97009 4.35322 0
M  V30 3989 C 383.037 0.55606 5.79036 0
M  V30 3990 N 382.013 -0.0775232 5.43545 0
M  V30 3991 H 385.815 0.406445 2.91076 0
M  V30 3992 H 383.329 0.323814 1.59139 0
M  V30 3993 H 385.326 -1.92982 3.69545 0
M  V30 3994 H 383.986 -2.04235 2.52424 0
M  V30 3995 H 384.997 0.562047 5.14841 0
M  V30 3996 H 381.674 -1.65753 3.83187 0
M  V30 3997 H 383.064 1.2936 6.5933 0
M  V30 3998 N 385.784 -1.5574 0.241426 0
M  V30 3999 C 387.009 -2.0366 -0.392111 0
M  V30 4000 C 387.434 -1.11969 -1.51144 0
M  V30 4001 O 386.792 -0.111594 -1.80956 0
M  V30 4002 C 386.84 -3.49638 -0.882371 0
M  V30 4003 O 385.944 -3.6108 -1.99235 0
M  V30 4004 H 385.285 -0.658379 -0.0862122 0
M  V30 4005 H 387.815 -2.01302 0.365881 0
M  V30 4006 H 387.825 -3.90351 -1.18702 0
M  V30 4007 H 386.5 -4.15852 -0.0632361 0
M  V30 4008 H 385.077 -3.32262 -1.69282 0
M  V30 4009 N 387.262 0.0317525 -1.57568 0
M  V30 4010 C 388.509 0.723104 -1.89149 0
M  V30 4011 C 388.837 1.75504 -0.838377 0
M  V30 4012 O 388.092 1.95037 0.160982 0
M  V30 4013 C 388.391 1.43167 -3.27472 0
M  V30 4014 C 388.057 0.535972 -4.47703 0
M  V30 4015 C 386.719 0.289262 -4.8033 0
M  V30 4016 C 389.071 -0.0826125 -5.21135 0
M  V30 4017 C 386.399 -0.584853 -5.83778 0
M  V30 4018 C 388.751 -0.944414 -6.25511 0
M  V30 4019 C 387.415 -1.20061 -6.56614 0
M  V30 4020 H 386.685 0.264602 -0.692146 0
M  V30 4021 H 389.332 -0.0169496 -1.91492 0
M  V30 4022 H 387.637 2.24497 -3.21105 0
M  V30 4023 H 389.334 1.97209 -3.49155 0
M  V30 4024 H 385.924 0.738414 -4.22191 0
M  V30 4025 H 390.108 0.0950302 -4.96209 0
M  V30 4026 H 385.364 -0.79168 -6.06253 0
M  V30 4027 H 389.538 -1.43026 -6.81554 0
M  V30 4028 H 387.165 -1.87967 -7.36595 0
M  V30 4029 N 388.74 1.54641 0.303973 0
M  V30 4030 C 389.965 1.78092 1.06292 0
M  V30 4031 C 390.39 0.537342 1.80262 0
M  V30 4032 O 389.748 -0.511993 1.7392 0
M  V30 4033 C 389.796 2.98612 2.02147 0
M  V30 4034 O 388.9 2.71528 3.10397 0
M  V30 4035 H 388.241 0.589548 0.305497 0
M  V30 4036 H 390.771 2.01716 0.3423 0
M  V30 4037 H 390.781 3.265 2.44667 0
M  V30 4038 H 389.456 3.88785 1.47714 0
M  V30 4039 H 388.033 2.54648 2.72413 0
M  V30 4040 N 390.218 -0.567019 1.47046 0
M  V30 4041 C 391.443 -1.3551 1.57009 0
M  V30 4042 C 391.868 -1.86841 0.217259 0
M  V30 4043 O 391.226 -1.62435 -0.805268 0
M  V30 4044 C 391.274 -2.50777 2.5912 0
M  V30 4045 O 390.378 -3.52706 2.13711 0
M  V30 4046 H 389.719 -0.402919 0.52778 0
M  V30 4047 H 392.249 -0.686241 1.92748 0
M  V30 4048 H 392.259 -2.97481 2.79229 0
M  V30 4049 H 390.934 -2.12771 3.57353 0
M  V30 4050 H 389.511 -3.12374 2.03659 0
M  V30 4051 N 391.696 -1.35014 -0.812953 0
M  V30 4052 C 392.944 -1.27678 -1.56661 0
M  V30 4053 C 393.265 0.150359 -1.94419 0
M  V30 4054 O 392.535 1.08532 -1.63088 0
M  V30 4055 H 391.115 -0.469602 -0.580933 0
M  V30 4056 H 393.777 -1.69043 -0.970076 0
M  V30 4057 H 392.873 -1.88833 -2.48492 0
M  V30 4058 N 393.175 1.03435 -1.18907 0
M  V30 4059 C 394.405 1.8012 -1.01195 0
M  V30 4060 C 394.813 1.8395 0.442613 0
M  V30 4061 O 394.156 1.27836 1.31923 0
M  V30 4062 C 394.218 3.26792 -1.49823 0
M  V30 4063 C 393.882 3.46609 -2.97844 0
M  V30 4064 C 394.879 3.37278 -3.95651 0
M  V30 4065 C 392.564 3.73001 -3.36416 0
M  V30 4066 C 394.558 3.54054 -5.30023 0
M  V30 4067 C 392.245 3.89423 -4.70949 0
M  V30 4068 C 393.243 3.79951 -5.67562 0
M  V30 4069 O 392.931 3.95895 -6.99659 0
M  V30 4070 H 392.663 0.573865 -0.357289 0
M  V30 4071 H 395.217 1.31207 -1.58031 0
M  V30 4072 H 393.447 3.76703 -0.873578 0
M  V30 4073 H 395.136 3.85055 -1.28404 0
M  V30 4074 H 395.902 3.16846 -3.67197 0
M  V30 4075 H 391.781 3.79469 -2.61772 0
M  V30 4076 H 395.325 3.46577 -6.05417 0
M  V30 4077 H 391.222 4.09351 -4.99101 0
M  V30 4078 H 391.99 4.13019 -7.06653 0
M  V30 4079 N 394.653 0.992116 1.22453 0
M  V30 4080 C 395.899 0.668523 1.91464 0
M  V30 4081 C 396.232 -0.797313 1.77078 0
M  V30 4082 O 395.507 -1.5765 1.13916 0
M  V30 4083 C 395.79 1.07424 3.43703 0
M  V30 4084 C 395.643 2.59857 3.67143 0
M  V30 4085 C 396.962 0.626891 4.35612 0
M  V30 4086 H 394.081 0.244341 0.695318 0
M  V30 4087 H 396.723 1.2355 1.44345 0
M  V30 4088 H 394.873 0.591816 3.83966 0
M  V30 4089 H 396.545 3.15764 3.3629 0
M  V30 4090 H 394.788 3.01961 3.11451 0
M  V30 4091 H 395.459 2.83296 4.73759 0
M  V30 4092 H 397.935 1.04125 4.02861 0
M  V30 4093 H 396.811 0.939076 5.40807 0
M  V30 4094 H 397.072 -0.472457 4.39568 0
M  V30 4095 N 396.131 -1.37776 0.765217 0
M  V30 4096 C 397.041 -2.34135 0.147666 0
M  V30 4097 C 398.057 -1.59854 -0.687215 0
M  V30 4098 O 399.233 -1.91983 -0.608659 0
M  V30 4099 C 396.298 -3.3901 -0.72617 0
M  V30 4100 C 395.359 -4.2912 0.124417 0
M  V30 4101 C 394.592 -5.28986 -0.707807 0
M  V30 4102 O 394.815 -5.36205 -1.94525 0
M  V30 4103 O 393.749 -6.01779 -0.12046 0
M  V30 4104 H 397.575 -2.88664 0.943758 0
M  V30 4105 H 395.16 -1.39824 0.526277 0
M  V30 4106 H 397.042 -4.03195 -1.22524 0
M  V30 4107 H 395.717 -2.86819 -1.50056 0
M  V30 4108 H 394.624 -3.68057 0.669696 0
M  V30 4109 H 395.957 -4.84598 0.861736 0
M  V30 4110 N 397.609 -0.515225 -1.4894 0
M  V30 4111 C 398.542 0.302518 -2.26186 0
M  V30 4112 C 399.52 0.957895 -1.31389 0
M  V30 4113 O 400.704 0.985198 -1.60705 0
M  V30 4114 C 397.831 1.42719 -3.07163 0
M  V30 4115 C 396.877 0.884736 -4.17223 0
M  V30 4116 S 397.71 -0.235767 -5.34981 0
M  V30 4117 C 398.866 0.891731 -6.19515 0
M  V30 4118 H 399.099 -0.353076 -2.95196 0
M  V30 4119 H 396.632 -0.300753 -1.51443 0
M  V30 4120 H 398.59 2.07152 -3.54398 0
M  V30 4121 H 397.251 2.05445 -2.37595 0
M  V30 4122 H 396.444 1.72801 -4.73451 0
M  V30 4123 H 396.046 0.317362 -3.72651 0
M  V30 4124 H 398.338 1.79377 -6.53322 0
M  V30 4125 H 399.281 0.367751 -7.07144 0
M  V30 4126 H 399.689 1.16548 -5.52338 0
M  V30 4127 N 399.087 1.5561 -0.249682 0
M  V30 4128 C 399.997 2.25143 0.659375 0
M  V30 4129 C 401.013 1.2685 1.19101 0
M  V30 4130 O 402.189 1.59732 1.22669 0
M  V30 4131 C 399.254 2.93945 1.8384 0
M  V30 4132 C 398.315 4.07655 1.34596 0
M  V30 4133 C 397.548 4.73167 2.46878 0
M  V30 4134 O 397.771 4.37768 3.65671 0
M  V30 4135 O 396.705 5.61623 2.16478 0
M  V30 4136 H 400.531 3.03545 0.0968698 0
M  V30 4137 H 398.116 1.49389 -0.018074 0
M  V30 4138 H 399.998 3.37271 2.52638 0
M  V30 4139 H 398.673 2.18481 2.38847 0
M  V30 4140 H 397.58 3.68839 0.625174 0
M  V30 4141 H 398.913 4.84946 0.841941 0
M  V30 4142 N 400.565 -0.0233959 1.57583 0
M  V30 4143 C 401.812 -0.713063 1.8953 0
M  V30 4144 C 402.14 -1.75056 0.847673 0
M  V30 4145 O 401.395 -1.95119 -0.150636 0
M  V30 4146 C 401.694 -1.41428 3.28227 0
M  V30 4147 C 401.36 -0.512222 4.47981 0
M  V30 4148 C 400.022 -0.263785 4.80476 0
M  V30 4149 C 402.374 0.110248 5.21083 0
M  V30 4150 C 399.702 0.615804 5.83459 0
M  V30 4151 C 402.054 0.977573 6.25001 0
M  V30 4152 C 400.718 1.23542 6.55968 0
M  V30 4153 H 399.988 -0.260928 0.69354 0
M  V30 4154 H 402.635 0.0271047 1.91481 0
M  V30 4155 H 400.94 -2.22791 3.22291 0
M  V30 4156 H 402.637 -1.95355 3.50196 0
M  V30 4157 H 399.227 -0.716013 4.22577 0
M  V30 4158 H 403.411 -0.0687137 4.96252 0
M  V30 4159 H 398.667 0.82382 6.05824 0
M  V30 4160 H 402.841 1.46638 6.80786 0
M  V30 4161 H 400.468 1.91871 7.35588 0
M  V30 4162 N 402.043 -1.548 -0.295768 0
M  V30 4163 C 402.953 -1.89177 -1.38742 0
M  V30 4164 C 403.969 -0.786481 -1.55211 0
M  V30 4165 O 405.145 -1.08344 -1.69775 0
M  V30 4166 C 402.21 -2.13663 -2.73036 0
M  V30 4167 C 401.271 -3.37349 -2.65508 0
M  V30 4168 C 400.504 -3.60658 -3.93398 0
M  V30 4169 O 400.727 -2.86882 -4.93006 0
M  V30 4170 O 399.661 -4.54179 -3.94975 0
M  V30 4171 H 403.487 -2.82059 -1.12589 0
M  V30 4172 H 401.072 -1.41056 -0.492295 0
M  V30 4173 H 402.954 -2.3094 -3.52484 0
M  V30 4174 H 401.629 -1.23967 -2.99022 0
M  V30 4175 H 400.536 -3.25431 -1.84514 0
M  V30 4176 H 401.869 -4.27192 -2.44474 0
M  V30 4177 N 403.521 0.559213 -1.47345 0
M  V30 4178 C 404.768 1.31648 -1.53867 0
M  V30 4179 C 405.096 1.93468 -0.200104 0
M  V30 4180 O 404.351 1.78295 0.806799 0
M  V30 4181 C 404.65 2.44853 -2.6035 0
M  V30 4182 C 404.316 2.00876 -4.03683 0
M  V30 4183 C 402.978 1.88599 -4.42701 0
M  V30 4184 C 405.33 1.67279 -4.93626 0
M  V30 4185 C 402.658 1.41017 -5.69501 0
M  V30 4186 C 405.01 1.21169 -6.20887 0
M  V30 4187 C 403.674 1.07487 -6.58789 0
M  V30 4188 H 402.944 0.481734 -0.56304 0
M  V30 4189 H 405.591 0.627301 -1.80934 0
M  V30 4190 H 403.896 3.19318 -2.27032 0
M  V30 4191 H 405.593 3.03039 -2.62619 0
M  V30 4192 H 402.183 2.11374 -3.72853 0
M  V30 4193 H 406.367 1.75638 -4.64182 0
M  V30 4194 H 401.623 1.29086 -5.97618 0
M  V30 4195 H 405.797 0.942345 -6.89995 0
M  V30 4196 H 403.424 0.703946 -7.56934 0
M  V30 4197 N 404.999 1.35443 0.805782 0
M  V30 4198 C 406.276 1.19325 1.54987 0
M  V30 4199 C 406.656 -0.227294 2.09873 0
M  V30 4200 O 406.004 -1.2309 1.92512 0
M  V30 4201 C 406.214 2.26196 2.65775 0
M  V30 4202 C 407.562 2.62043 3.34094 0
M  V30 4203 O 408.586 2.25115 2.76046 0
M  V30 4204 O 407.445 3.25542 4.38958 0
M  V30 4205 H 404.539 0.463623 0.684823 0
M  V30 4206 H 407.085 1.47127 0.845674 0
M  V30 4207 H 405.857 3.21471 2.23096 0
M  V30 4208 H 405.48 1.99667 3.43829 0
M  V30 4209 N 406.477 -1.02803 1.19454 0
M  V30 4210 C 407.893 -1.28473 0.946937 0
M  V30 4211 C 408.093 -1.97881 -0.380202 0
M  V30 4212 O 407.149 -2.26719 -1.11151 0
M  V30 4213 C 408.462 -2.13099 2.12154 0
M  V30 4214 C 410.01 -2.26404 2.16126 0
M  V30 4215 C 410.485 -3.14402 3.33039 0
M  V30 4216 N 411.976 -3.21991 3.32981 0
M  V30 4217 C 412.711 -3.90272 4.20089 0
M  V30 4218 N 412.207 -4.60777 5.17355 0
M  V30 4219 N 414 -3.8668 4.07964 0
M  V30 4220 H 406.151 -0.561665 2.04839 0
M  V30 4221 H 408.414 -0.310438 0.89573 0
M  V30 4222 H 408.12 -1.69422 3.08203 0
M  V30 4223 H 407.994 -3.13813 2.09287 0
M  V30 4224 H 410.381 -2.69311 1.20647 0
M  V30 4225 H 410.462 -1.25237 2.23045 0
M  V30 4226 H 410.106 -2.72204 4.28798 0
M  V30 4227 H 410.036 -4.1563 3.23356 0
M  V30 4228 H 412.527 -2.71778 2.62574 0
M  V30 4229 H 412.84 -5.10513 5.80169 0
M  V30 4230 H 411.185 -4.5964 5.21302 0
M  V30 4231 H 414.376 -3.30739 3.31254 0
M  V30 4232 H 414.549 -4.39621 4.76064 0
M  V30 4233 N 407.956 -0.998596 -1.21925 0
M  V30 4234 C 408.886 -0.573688 -2.26343 0
M  V30 4235 C 409.867 0.402296 -1.65274 0
M  V30 4236 O 411.052 0.291683 -1.91997 0
M  V30 4237 C 408.182 0.106839 -3.47136 0
M  V30 4238 C 407.136 -0.788269 -4.20678 0
M  V30 4239 C 406.462 0.0254927 -5.34694 0
M  V30 4240 C 407.762 -2.08784 -4.78755 0
M  V30 4241 H 409.456 -1.44651 -2.62138 0
M  V30 4242 H 407.002 -0.696975 -1.26009 0
M  V30 4243 H 408.955 0.415531 -4.19346 0
M  V30 4244 H 407.679 1.01424 -3.10452 0
M  V30 4245 H 406.338 -1.08069 -3.50309 0
M  V30 4246 H 405.986 0.933989 -4.94253 0
M  V30 4247 H 405.686 -0.570437 -5.84825 0
M  V30 4248 H 407.21 0.328147 -6.09718 0
M  V30 4249 H 408.624 -1.84272 -5.42878 0
M  V30 4250 H 407.021 -2.63307 -5.39249 0
M  V30 4251 H 408.091 -2.76284 -3.98491 0
M  V30 4252 N 409.434 1.37368 -0.772513 0
M  V30 4253 C 410.85 1.53059 -0.452231 0
M  V30 4254 C 411.05 1.73065 1.03203 0
M  V30 4255 O 410.106 1.75245 1.81784 0
M  V30 4256 C 411.419 2.72659 -1.26797 0
M  V30 4257 C 412.967 2.86521 -1.25995 0
M  V30 4258 C 413.442 4.09105 -2.05905 0
M  V30 4259 N 414.933 4.16219 -2.03263 0
M  V30 4260 C 415.668 5.10107 -2.61875 0
M  V30 4261 N 415.164 6.09547 -3.29278 0
M  V30 4262 N 416.957 5.02596 -2.51701 0
M  V30 4263 H 409.108 1.22634 -1.7342 0
M  V30 4264 H 411.371 0.597206 -0.736239 0
M  V30 4265 H 411.077 2.64343 -2.31982 0
M  V30 4266 H 410.951 3.66363 -0.897672 0
M  V30 4267 H 413.338 2.94308 -0.216081 0
M  V30 4268 H 413.419 1.93774 -1.66989 0
M  V30 4269 H 413.063 4.0208 -3.10313 0
M  V30 4270 H 412.993 5.00968 -1.62292 0
M  V30 4271 H 415.484 3.45012 -1.54192 0
M  V30 4272 H 415.797 6.77718 -3.71374 0
M  V30 4273 H 414.142 6.09824 -3.33377 0
M  V30 4274 H 417.333 4.23855 -1.98657 0
M  V30 4275 H 417.506 5.75582 -2.97673 0
M  V30 4276 N 410.912 0.523116 1.48665 0
M  V30 4277 C 411.875 -0.232592 2.28017 0
M  V30 4278 C 412.875 -0.874021 1.34972 0
M  V30 4279 O 414.065 -0.735132 1.57929 0
M  V30 4280 C 411.197 -1.33586 3.13636 0
M  V30 4281 H 412.39 0.464008 2.96289 0
M  V30 4282 H 409.943 0.278816 1.53793 0
M  V30 4283 H 410.678 -2.06593 2.4998 0
M  V30 4284 H 410.463 -0.881125 3.82071 0
M  V30 4285 H 411.953 -1.86759 3.73511 0
M  V30 4286 N 412.39 -1.55475 0.257931 0
M  V30 4287 C 413.637 -1.99207 -0.363728 0
M  V30 4288 C 413.965 -1.1462 -1.57139 0
M  V30 4289 O 413.22 -0.199653 -1.94679 0
M  V30 4290 C 413.519 -3.48183 -0.806433 0
M  V30 4291 C 413.185 -4.49936 0.294684 0
M  V30 4292 C 411.847 -4.77481 0.597076 0
M  V30 4293 C 414.199 -5.10769 1.03751 0
M  V30 4294 C 411.527 -5.63132 1.64618 0
M  V30 4295 C 413.879 -5.97558 2.07622 0
M  V30 4296 C 412.543 -6.23432 2.38514 0
M  V30 4297 H 411.813 -0.728949 -0.133097 0
M  V30 4298 H 414.46 -1.8793 0.368059 0
M  V30 4299 H 412.765 -3.56848 -1.61761 0
M  V30 4300 H 414.462 -3.79415 -1.29789 0
M  V30 4301 H 411.052 -4.28572 0.0488649 0
M  V30 4302 H 415.236 -4.89527 0.817149 0
M  V30 4303 H 410.492 -5.8143 1.89074 0
M  V30 4304 H 414.666 -6.43735 2.65666 0
M  V30 4305 H 412.293 -6.89594 3.19943 0
M  V30 4306 N 413.868 0.0150385 -1.57593 0
M  V30 4307 C 414.8 1.03912 -2.04291 0
M  V30 4308 C 415.813 1.31618 -0.958146 0
M  V30 4309 O 417.002 1.28859 -1.23522 0
M  V30 4310 C 414.102 2.37749 -2.41514 0
M  V30 4311 C 413.275 2.29198 -3.72541 0
M  V30 4312 C 412.334 3.45598 -3.96797 0
M  V30 4313 O 411.36 3.24461 -4.67668 0
M  V30 4314 N 412.562 4.67945 -3.43523 0
M  V30 4315 H 415.327 0.64099 -2.92765 0
M  V30 4316 H 412.888 0.20272 -1.60626 0
M  V30 4317 H 414.88 3.14364 -2.54867 0
M  V30 4318 H 413.45 2.69357 -1.58637 0
M  V30 4319 H 412.67 1.3759 -3.69408 0
M  V30 4320 H 413.958 2.20642 -4.5847 0
M  V30 4321 H 413.356 4.88017 -2.86104 0
M  V30 4322 H 411.913 5.41878 -3.62232 0
M  V30 4323 N 415.346 1.54954 0.287554 0
M  V30 4324 C 416.309 1.86076 1.33823 0
M  V30 4325 C 417.309 0.734414 1.43049 0
M  V30 4326 O 418.499 1.00266 1.42452 0
M  V30 4327 C 415.631 2.05305 2.72144 0
M  V30 4328 H 416.824 2.79984 1.07465 0
M  V30 4329 H 414.377 1.47223 0.524902 0
M  V30 4330 H 415.112 1.1373 3.03704 0
M  V30 4331 H 414.897 2.873 2.66836 0
M  V30 4332 H 416.387 2.30706 3.48087 0
M  V30 4333 N 416.824 -0.551391 1.4764 0
M  V30 4334 C 417.757 -1.6738 1.5511 0
M  V30 4335 C 418.735 -1.5753 0.402856 0
M  V30 4336 O 419.919 -1.78307 0.611475 0
M  V30 4337 C 417.046 -3.05661 1.45908 0
M  V30 4338 C 416.092 -3.33938 2.65307 0
M  V30 4339 S 416.925 -3.22553 4.27457 0
M  V30 4340 C 418.081 -4.63317 4.20818 0
M  V30 4341 H 418.314 -1.6079 2.50068 0
M  V30 4342 H 415.847 -0.732674 1.35909 0
M  V30 4343 H 417.805 -3.8542 1.41286 0
M  V30 4344 H 416.466 -3.09711 0.523248 0
M  V30 4345 H 415.659 -4.34761 2.54948 0
M  V30 4346 H 415.261 -2.61809 2.67081 0
M  V30 4347 H 417.553 -5.54391 3.89431 0
M  V30 4348 H 418.496 -4.78732 5.21748 0
M  V30 4349 H 418.904 -4.41636 3.51593 0
M  V30 4350 N 418.302 -1.35869 -0.798587 0
M  V30 4351 C 419.234 -1.25305 -1.91915 0
M  V30 4352 C 420.247 -0.174548 -1.61862 0
M  V30 4353 O 421.436 -0.428499 -1.73281 0
M  V30 4354 C 418.536 -0.9086 -3.26493 0
M  V30 4355 C 417.709 -2.08711 -3.84394 0
M  V30 4356 C 416.768 -1.71717 -4.97393 0
M  V30 4357 O 415.794 -2.43692 -5.14396 0
M  V30 4358 N 416.996 -0.645473 -5.769 0
M  V30 4359 H 419.761 -2.21849 -2.01502 0
M  V30 4360 H 417.322 -1.29143 -0.976408 0
M  V30 4361 H 419.314 -0.642455 -3.99568 0
M  V30 4362 H 417.884 -0.0325815 -3.12583 0
M  V30 4363 H 417.104 -2.51659 -3.03416 0
M  V30 4364 H 418.392 -2.87468 -4.19809 0
M  V30 4365 H 417.79 -0.047648 -5.6568 0
M  V30 4366 H 416.347 -0.43913 -6.50319 0
M  V30 4367 N 419.78 1.02168 -1.19998 0
M  V30 4368 C 421.026 1.75945 -1.00852 0
M  V30 4369 C 421.359 1.88702 0.458828 0
M  V30 4370 O 420.634 1.40911 1.34069 0
M  V30 4371 C 420.917 3.18154 -1.68671 0
M  V30 4372 C 420.77 3.13224 -3.22817 0
M  V30 4373 C 422.089 4.16711 -1.41561 0
M  V30 4374 H 419.208 0.638673 -0.367785 0
M  V30 4375 H 421.85 1.19222 -1.4794 0
M  V30 4376 H 420 3.66586 -1.28636 0
M  V30 4377 H 421.672 2.72635 -3.72112 0
M  V30 4378 H 419.915 2.50751 -3.53986 0
M  V30 4379 H 420.586 4.13728 -3.65422 0
M  V30 4380 H 423.062 3.76913 -1.76284 0
M  V30 4381 H 421.938 5.14391 -1.91553 0
M  V30 4382 H 422.199 4.40774 -0.342193 0
M  V30 4383 N 421.258 1.00505 1.21394 0
M  V30 4384 C 422.208 0.536503 2.21598 0
M  V30 4385 C 423.192 -0.401914 1.55799 0
M  V30 4386 O 424.384 -0.226757 1.75541 0
M  V30 4387 C 421.513 -0.135446 3.43033 0
M  V30 4388 C 420.599 0.823992 4.16018 0
M  V30 4389 N 420.99 1.97683 4.6557 0
M  V30 4390 C 419.288 0.642387 4.4135 0
M  V30 4391 C 419.989 2.58003 5.21354 0
M  V30 4392 N 418.965 1.86162 5.1073 0
M  V30 4393 H 422.767 1.41557 2.57563 0
M  V30 4394 H 420.281 0.868878 1.37202 0
M  V30 4395 H 422.278 -0.488584 4.14027 0
M  V30 4396 H 420.938 -1.01049 3.08576 0
M  V30 4397 H 421.949 2.3572 4.61147 0
M  V30 4398 H 418.626 -0.185578 4.17087 0
M  V30 4399 H 420.016 3.555 5.70149 0
M  V30 4400 N 422.737 -1.36956 0.779787 0
M  V30 4401 C 423.977 -2.01328 0.353043 0
M  V30 4402 C 424.341 -1.60558 -1.05286 0
M  V30 4403 O 425.542 -2.1745 -1.58016 0
M  V30 4404 C 423.813 -3.53874 0.500822 0
M  V30 4405 S 425.372 -4.38506 0.16053 0
M  V30 4406 H 422.19 -0.69799 0.13539 0
M  V30 4407 H 424.792 -1.67016 1.01617 0
M  V30 4408 H 423.496 -3.81034 1.52451 0
M  V30 4409 H 423.027 -3.92994 -0.178574 0
M  V30 4410 H 425.042 -4.85153 -1.04121 0
M  V30 4411 N 424.215 -0.530993 -1.48385 0
M  V30 4412 C 425.163 0.244595 -2.3131 0
M  V30 4413 C 426.157 0.93451 -1.41291 0
M  V30 4414 O 427.363 0.85878 -1.58193 0
M  V30 4415 H 423.738 0.0977472 -0.74562 0
M  V30 4416 H 425.709 -0.474369 -2.94605 0
M  V30 4417 C 424.458 1.2779 -3.23365 0
M  V30 4418 H 423.781 0.756439 -3.92579 0
M  V30 4419 H 425.221 1.79198 -3.84271 0
M  V30 4420 C 423.68 2.31205 -2.45042 0
M  V30 4421 O 424.21 3.37661 -2.17596 0
M  V30 4422 N 422.416 2.04446 -2.0652 0
M  V30 4423 H 421.963 1.17891 -2.2904 0
M  V30 4424 H 421.921 2.73861 -1.54427 0
M  V30 4425 N 425.693 1.55336 -0.266172 0
M  V30 4426 C 426.641 2.23587 0.641228 0
M  V30 4427 C 427.635 1.22986 1.16494 0
M  V30 4428 O 428.841 1.40943 1.1196 0
M  V30 4429 H 425.216 0.717452 0.225315 0
M  V30 4430 H 427.187 2.9837 0.0426561 0
M  V30 4431 C 425.936 2.96369 1.81826 0
M  V30 4432 H 425.259 3.73563 1.42445 0
M  V30 4433 H 426.699 3.47459 2.42998 0
M  V30 4434 C 425.158 2.0133 2.70125 0
M  V30 4435 O 425.688 1.55875 3.70224 0
M  V30 4436 N 423.894 1.6802 2.37102 0
M  V30 4437 H 423.441 2.05181 1.55751 0
M  V30 4438 H 423.399 1.047 2.96454 0
M  V30 4439 N 427.171 -0.0066808 1.57599 0
M  V30 4440 C 428.104 -1.03397 2.03431 0
M  V30 4441 C 429.082 -1.33872 0.922877 0
M  V30 4442 O 430.266 -1.4615 1.19048 0
M  V30 4443 C 427.393 -2.36325 2.42628 0
M  V30 4444 C 426.439 -2.21557 3.64438 0
M  V30 4445 S 427.272 -1.54789 5.12641 0
M  V30 4446 C 428.428 -2.8916 5.55101 0
M  V30 4447 H 428.661 -0.643687 2.90248 0
M  V30 4448 H 426.194 -0.217349 1.52863 0
M  V30 4449 H 428.152 -3.12759 2.65879 0
M  V30 4450 H 426.813 -2.72495 1.56222 0
M  V30 4451 H 426.006 -3.1974 3.89592 0
M  V30 4452 H 425.608 -1.53267 3.41153 0
M  V30 4453 H 427.9 -3.8547 5.57153 0
M  V30 4454 H 428.843 -2.68713 6.55133 0
M  V30 4455 H 429.251 -2.92762 4.82649 0
M  V30 4456 N 428.649 -1.55105 -0.279332 0
M  V30 4457 C 429.599 -1.83937 -1.34727 0
M  V30 4458 C 430.583 -0.69785 -1.44979 0
M  V30 4459 O 431.775 -0.95904 -1.48766 0
M  V30 4460 C 428.904 -2.1092 -2.70864 0
M  V30 4461 C 427.99 -3.31314 -2.64748 0
M  V30 4462 N 428.381 -4.51371 -2.2825 0
M  V30 4463 C 426.679 -3.33777 -2.95819 0
M  V30 4464 C 427.38 -5.33447 -2.31969 0
M  V30 4465 N 426.356 -4.71697 -2.7019 0
M  V30 4466 H 430.158 -2.74309 -1.05506 0
M  V30 4467 H 427.672 -1.54896 -0.487959 0
M  V30 4468 H 429.669 -2.2973 -3.47893 0
M  V30 4469 H 428.329 -1.21828 -3.00979 0
M  V30 4470 H 429.34 -4.77584 -2.00335 0
M  V30 4471 H 426.017 -2.54858 -3.30687 0
M  V30 4472 H 427.407 -6.39424 -2.06365 0
M  V30 4473 N 430.127 0.543554 -1.4793 0
M  V30 4474 C 431.355 1.32516 -1.58894 0
M  V30 4475 C 431.77 1.87215 -0.244131 0
M  V30 4476 O 431.127 1.65709 0.764652 0
M  V30 4477 C 431.178 2.48554 -2.62494 0
M  V30 4478 O 430.899 1.96112 -3.91755 0
M  V30 4479 C 432.4 3.40572 -2.8377 0
M  V30 4480 H 429.62 0.403472 -0.536145 0
M  V30 4481 H 432.164 0.657106 -1.93655 0
M  V30 4482 H 430.319 3.1127 -2.30629 0
M  V30 4483 H 430.733 2.71967 -4.4848 0
M  V30 4484 H 432.207 4.18375 -3.60093 0
M  V30 4485 H 432.684 3.94965 -1.92092 0
M  V30 4486 H 433.29 2.8366 -3.16887 0
M  V30 4487 N 431.605 1.3629 0.791371 0
M  V30 4488 C 432.535 1.33137 1.91825 0
M  V30 4489 C 433.516 0.203168 1.68882 0
M  V30 4490 O 434.701 0.400509 1.90025 0
M  V30 4491 C 431.831 1.11793 3.28816 0
M  V30 4492 C 430.785 2.21417 3.66277 0
M  V30 4493 C 430.111 1.85218 5.01596 0
M  V30 4494 C 431.411 3.63489 3.75064 0
M  V30 4495 H 433.105 2.2743 1.9472 0
M  V30 4496 H 430.651 1.09479 0.935437 0
M  V30 4497 H 432.604 1.08222 4.07266 0
M  V30 4498 H 431.328 0.139501 3.26302 0
M  V30 4499 H 429.987 2.2411 2.90121 0
M  V30 4500 H 429.635 0.859544 4.95602 0
M  V30 4501 H 429.335 2.58611 5.27631 0
M  V30 4502 H 430.859 1.832 5.82469 0
M  V30 4503 H 432.273 3.63034 4.43711 0
M  V30 4504 H 430.67 4.35771 4.12582 0
M  V30 4505 H 431.74 3.98536 2.76219 0
M  V30 4506 N 433.083 -1.0153 1.20538 0
M  V30 4507 C 434.331 -1.74803 1.01432 0
M  V30 4508 C 434.652 -1.8963 -0.454456 0
M  V30 4509 O 433.922 -1.43975 -1.32846 0
M  V30 4510 H 432.502 -0.647598 0.372324 0
M  V30 4511 H 435.164 -1.22402 1.5167 0
M  V30 4512 H 434.26 -2.75114 1.47373 0
M  V30 4513 N 434.561 -1.01147 -1.20859 0
M  V30 4514 C 435.524 -0.582224 -2.21682 0
M  V30 4515 C 436.524 0.344887 -1.57058 0
M  V30 4516 O 437.714 0.134281 -1.73682 0
M  V30 4517 C 434.846 0.150496 -3.40568 0
M  V30 4518 H 436.039 -1.47408 -2.61172 0
M  V30 4519 H 433.592 -0.800695 -1.34233 0
M  V30 4520 H 434.327 1.0575 -3.06574 0
M  V30 4521 H 434.112 -0.515444 -3.88697 0
M  V30 4522 H 435.602 0.438344 -4.15293 0
M  V30 4523 N 436.039 1.36541 -0.78704 0
M  V30 4524 C 437.455 1.52571 -0.46844 0
M  V30 4525 C 437.655 1.7415 1.01361 0
M  V30 4526 O 436.711 1.77163 1.79915 0
M  V30 4527 C 438.024 2.71299 -1.29682 0
M  V30 4528 C 439.572 2.85169 -1.29027 0
M  V30 4529 C 440.047 4.06898 -2.10233 0
M  V30 4530 N 441.538 4.1404 -2.07666 0
M  V30 4531 C 442.273 5.07301 -2.67271 0
M  V30 4532 N 441.769 6.06021 -3.35724 0
M  V30 4533 N 443.562 4.99898 -2.57018 0
M  V30 4534 H 435.713 1.20788 -1.74711 0
M  V30 4535 H 437.976 0.589364 -0.742532 0
M  V30 4536 H 437.682 2.61868 -2.34773 0
M  V30 4537 H 437.556 3.6539 -0.936479 0
M  V30 4538 H 439.943 2.94062 -0.247284 0
M  V30 4539 H 440.024 1.91992 -1.69035 0
M  V30 4540 H 439.668 3.98766 -3.1456 0
M  V30 4541 H 439.598 4.99218 -1.67597 0
M  V30 4542 H 442.089 3.43357 -1.57843 0
M  V30 4543 H 442.402 6.73741 -3.78541 0
M  V30 4544 H 440.747 6.06253 -3.39826 0
M  V30 4545 H 443.938 4.21724 -2.03142 0
M  V30 4546 H 444.111 5.72392 -3.03761 0
M  V30 4547 N 437.518 0.538854 1.48102 0
M  V30 4548 C 438.448 -0.207654 2.32575 0
M  V30 4549 C 439.429 -0.926559 1.4265 0
M  V30 4550 O 440.614 -0.91061 1.71527 0
M  V30 4551 C 437.744 -1.24957 3.24042 0
M  V30 4552 C 436.698 -0.648263 4.23062 0
M  V30 4553 C 436.024 -1.79348 5.03725 0
M  V30 4554 C 437.324 0.385897 5.20872 0
M  V30 4555 H 439.018 0.497534 2.95237 0
M  V30 4556 H 436.564 0.240715 1.41974 0
M  V30 4557 H 438.517 -1.77983 3.81969 0
M  V30 4558 H 437.241 -1.98446 2.59397 0
M  V30 4559 H 435.9 -0.139452 3.66335 0
M  V30 4560 H 435.548 -2.51696 4.35498 0
M  V30 4561 H 435.248 -1.39702 5.70751 0
M  V30 4562 H 436.772 -2.32735 5.64506 0
M  V30 4563 H 438.186 -0.057607 5.73271 0
M  V30 4564 H 436.583 0.700227 5.96001 0
M  V30 4565 H 437.653 1.28848 4.67468 0
M  V30 4566 N 438.996 -1.55193 0.274407 0
M  V30 4567 C 440.407 -1.85358 -0.223488 0
M  V30 4568 C 440.758 -1.19642 -1.555 0
M  V30 4569 O 439.883 -0.484498 -2.10907 0
M  V30 4570 C 440.478 -3.36282 -0.412285 0
M  V30 4571 C 439.037 -3.66574 -0.854413 0
M  V30 4572 C 438.184 -2.7725 0.0527056 0
M  V30 4573 H 441.135 -1.50743 0.496215 0
M  V30 4574 H 441.156 -3.59349 -1.25094 0
M  V30 4575 H 440.668 -3.84083 0.556965 0
M  V30 4576 H 438.769 -3.24273 -1.83516 0
M  V30 4577 H 438.882 -4.74073 -0.692226 0
M  V30 4578 H 437.246 -2.50447 -0.463484 0
M  V30 4579 H 438.029 -3.27865 1.01783 0
M  V30 4580 N 440.474 -0.00167713 -1.576 0
M  V30 4581 C 441.722 0.681471 -1.90264 0
M  V30 4582 C 442.043 1.7422 -0.875924 0
M  V30 4583 O 441.313 1.95709 0.0864412 0
M  V30 4584 H 439.893 0.254696 -0.702239 0
M  V30 4585 H 442.555 -0.0429996 -1.94853 0
M  V30 4586 H 441.651 1.15166 -2.90075 0
M  V30 4587 N 441.952 1.55251 0.271103 0
M  V30 4588 C 443.2 1.75599 1.00047 0
M  V30 4589 C 443.521 0.561188 1.8675 0
M  V30 4590 O 442.791 -0.423846 1.9126 0
M  V30 4591 H 441.371 0.647562 0.372387 0
M  V30 4592 H 444.033 1.92656 0.294876 0
M  V30 4593 H 443.129 2.65766 1.6363 0
M  V30 4594 N 443.43 -0.535701 1.48216 0
M  V30 4595 C 444.676 -1.29375 1.56173 0
M  V30 4596 C 445.009 -1.92804 0.232429 0
M  V30 4597 O 444.284 -1.78992 -0.761048 0
M  V30 4598 C 444.567 -2.38747 2.69577 0
M  V30 4599 C 444.42 -1.80046 4.12193 0
M  V30 4600 C 445.739 -3.40551 2.78771 0
M  V30 4601 H 442.858 -0.469027 0.568491 0
M  V30 4602 H 445.5 -0.597358 1.80365 0
M  V30 4603 H 443.65 -2.98147 2.4908 0
M  V30 4604 H 445.322 -1.24742 4.44114 0
M  V30 4605 H 443.565 -1.10609 4.19462 0
M  V30 4606 H 444.236 -2.59212 4.87353 0
M  V30 4607 H 446.712 -2.91099 2.97322 0
M  V30 4608 H 445.588 -4.1448 3.59857 0
M  V30 4609 H 445.849 -4.00746 1.86696 0
M  V30 4610 N 444.908 -1.36708 -0.784132 0
M  V30 4611 C 445.818 -1.3363 -1.92822 0
M  V30 4612 C 446.834 -0.237686 -1.72369 0
M  V30 4613 O 448.01 -0.470962 -1.95816 0
M  V30 4614 C 445.075 -1.13011 -3.27764 0
M  V30 4615 C 444.136 -2.32397 -3.60957 0
M  V30 4616 C 443.369 -2.12752 -4.89461 0
M  V30 4617 O 443.592 -1.10541 -5.59586 0
M  V30 4618 O 442.526 -3.00653 -5.21432 0
M  V30 4619 H 446.352 -2.29964 -1.98369 0
M  V30 4620 H 443.937 -1.1731 -0.925136 0
M  V30 4621 H 445.819 -1.03451 -4.08504 0
M  V30 4622 H 444.494 -0.19743 -3.23097 0
M  V30 4623 H 443.401 -2.47527 -2.80502 0
M  V30 4624 H 444.734 -3.2419 -3.70354 0
M  V30 4625 N 446.386 1.0089 -1.21074 0
M  V30 4626 C 447.626 1.76142 -1.03699 0
M  V30 4627 C 447.99 1.87292 0.422587 0
M  V30 4628 O 449.191 2.59068 0.716752 0
M  V30 4629 C 447.462 3.13805 -1.7106 0
M  V30 4630 S 449.021 4.04996 -1.68889 0
M  V30 4631 H 445.839 0.606113 -0.371683 0
M  V30 4632 H 448.441 1.20744 -1.53756 0
M  V30 4633 H 447.145 3.0332 -2.76451 0
M  V30 4634 H 446.676 3.74276 -1.21166 0
M  V30 4635 H 448.691 4.90842 -0.727211 0
M  V30 4636 N 447.864 1.01787 1.20321 0
M  V30 4637 C 449.28 0.732951 1.41774 0
M  V30 4638 C 449.48 -0.686883 1.89431 0
M  V30 4639 O 448.536 -1.45446 2.06402 0
M  V30 4640 C 449.849 1.75973 2.43832 0
M  V30 4641 C 451.397 1.77802 2.57596 0
M  V30 4642 C 451.872 2.7941 3.62897 0
M  V30 4643 N 453.363 2.78157 3.70382 0
M  V30 4644 C 454.098 3.53434 4.51521 0
M  V30 4645 N 453.594 4.38392 5.36455 0
M  V30 4646 N 455.387 3.42026 4.46066 0
M  V30 4647 H 447.538 1.93447 0.877035 0
M  V30 4648 H 449.801 0.835712 0.447536 0
M  V30 4649 H 449.507 2.77699 2.15815 0
M  V30 4650 H 449.381 1.57292 3.4284 0
M  V30 4651 H 451.768 0.767602 2.84942 0
M  V30 4652 H 451.849 2.00557 1.58779 0
M  V30 4653 H 451.493 3.80616 3.36295 0
M  V30 4654 H 451.423 2.53916 4.61339 0
M  V30 4655 H 453.914 2.16531 3.09714 0
M  V30 4656 H 454.227 4.92596 5.95457 0
M  V30 4657 H 452.572 4.4247 5.35953 0
M  V30 4658 H 455.763 2.75075 3.78749 0
M  V30 4659 H 455.936 4.00946 5.09064 0
M  V30 4660 N 449.342 -1.36122 0.79427 0
M  V30 4661 C 450.589 -1.99111 0.368905 0
M  V30 4662 C 450.917 -1.63032 -1.0607 0
M  V30 4663 O 450.172 -0.879303 -1.74833 0
M  V30 4664 C 450.471 -3.5409 0.48527 0
M  V30 4665 C 450.137 -4.10003 1.87638 0
M  V30 4666 C 448.799 -4.24986 2.257 0
M  V30 4667 C 451.151 -4.40423 2.78706 0
M  V30 4668 C 448.479 -4.67701 3.54221 0
M  V30 4669 C 450.831 -4.84573 4.0666 0
M  V30 4670 C 449.495 -4.97761 4.44737 0
M  V30 4671 H 448.765 -0.7286 0.134992 0
M  V30 4672 H 451.412 -1.62534 1.01267 0
M  V30 4673 H 449.717 -3.91052 -0.241984 0
M  V30 4674 H 451.414 -4.00766 0.137109 0
M  V30 4675 H 448.004 -3.98784 1.57064 0
M  V30 4676 H 452.188 -4.28412 2.50553 0
M  V30 4677 H 447.444 -4.761 3.83587 0
M  V30 4678 H 451.618 -5.07074 4.77336 0
M  V30 4679 H 449.245 -5.30618 5.44379 0
M  V30 4680 N 450.82 -0.546701 -1.47814 0
M  V30 4681 C 452.236 -0.205717 -1.58269 0
M  V30 4682 C 452.436 1.29153 -1.54667 0
M  V30 4683 O 451.492 2.07098 -1.44453 0
M  V30 4684 C 452.805 -0.823065 -2.89216 0
M  V30 4685 C 454.353 -0.793328 -3.02779 0
M  V30 4686 C 454.828 -1.38955 -4.36412 0
M  V30 4687 N 456.319 -1.35227 -4.43021 0
M  V30 4688 C 457.054 -1.78333 -5.44963 0
M  V30 4689 N 456.55 -2.29246 -6.53772 0
M  V30 4690 N 458.343 -1.69467 -5.35945 0
M  V30 4691 H 450.494 -1.5196 -1.48398 0
M  V30 4692 H 452.757 -0.633078 -0.705632 0
M  V30 4693 H 452.463 -1.8749 -2.97558 0
M  V30 4694 H 452.337 -0.309915 -3.75925 0
M  V30 4695 H 454.724 0.249784 -2.94041 0
M  V30 4696 H 454.805 -1.34412 -2.17639 0
M  V30 4697 H 454.449 -2.43168 -4.45906 0
M  V30 4698 H 454.379 -0.814291 -5.20266 0
M  V30 4699 H 456.87 -0.979739 -3.64979 0
M  V30 4700 H 457.183 -2.60089 -7.27718 0
M  V30 4701 H 455.528 -2.3325 -6.5469 0
M  V30 4702 H 458.719 -1.29477 -4.49837 0
M  V30 4703 H 458.892 -2.03381 -6.15256 0
M  V30 4704 N 452.299 1.55045 -0.282633 0
M  V30 4705 C 453.715 1.59441 0.0712997 0
M  V30 4706 C 453.915 1.2998 1.53972 0
M  V30 4707 O 452.971 1.06431 2.28973 0
M  V30 4708 C 454.284 2.99097 -0.310104 0
M  V30 4709 C 455.832 3.1194 -0.257343 0
M  V30 4710 C 456.307 4.53875 -0.613297 0
M  V30 4711 N 457.798 4.5974 -0.565134 0
M  V30 4712 C 458.533 5.67603 -0.81326 0
M  V30 4713 N 458.029 6.83582 -1.1264 0
M  V30 4714 N 459.822 5.57187 -0.741553 0
M  V30 4715 H 451.973 1.72458 -1.23984 0
M  V30 4716 H 454.236 0.804549 -0.501403 0
M  V30 4717 H 453.942 3.25516 -1.33163 0
M  V30 4718 H 453.816 3.75616 0.345366 0
M  V30 4719 H 456.203 2.85281 0.754905 0
M  V30 4720 H 456.284 2.37618 -0.947178 0
M  V30 4721 H 455.928 4.81261 -1.62327 0
M  V30 4722 H 455.858 5.26508 0.09841 0
M  V30 4723 H 458.349 3.76427 -0.333294 0
M  V30 4724 H 458.662 7.6175 -1.30219 0
M  V30 4725 H 457.007 6.85179 -1.16425 0
M  V30 4726 H 460.198 4.65457 -0.496705 0
M  V30 4727 H 460.371 6.41171 -0.938306 0
M  V30 4728 N 453.777 0.010035 1.57597 0
M  V30 4729 C 455.025 -0.671371 1.90623 0
M  V30 4730 C 455.346 -1.73753 0.885151 0
M  V30 4731 O 454.616 -1.95752 -0.0760611 0
M  V30 4732 H 453.196 -0.250968 0.703579 0
M  V30 4733 H 455.858 0.0533325 1.94827 0
M  V30 4734 H 454.954 -1.13626 2.90681 0
M  V30 4735 N 455.255 -1.55392 -0.262866 0
M  V30 4736 C 456.666 -1.67079 -0.833158 0
M  V30 4737 C 457.017 -0.604539 -1.86654 0
M  V30 4738 O 456.142 0.252138 -2.14926 0
M  V30 4739 C 456.737 -3.02891 -1.51797 0
M  V30 4740 C 455.296 -3.16571 -2.03617 0
M  V30 4741 C 454.443 -2.62909 -0.881701 0
M  V30 4742 H 457.394 -1.58652 -0.0389986 0
M  V30 4743 H 457.415 -2.96445 -2.38538 0
M  V30 4744 H 456.927 -3.80473 -0.765619 0
M  V30 4745 H 455.028 -2.43782 -2.81782 0
M  V30 4746 H 455.141 -4.23271 -2.24452 0
M  V30 4747 H 453.505 -2.20324 -1.27786 0
M  V30 4748 H 454.288 -3.43003 -0.14269 0
M  V30 4749 N 456.733 0.527833 -1.48498 0
M  V30 4750 C 457.696 1.61439 -1.62696 0
M  V30 4751 C 458.696 1.52824 -0.500136 0
M  V30 4752 O 459.886 1.56456 -0.765976 0
M  V30 4753 C 457.018 3.01063 -1.59918 0
M  V30 4754 H 458.211 1.50189 -2.59583 0
M  V30 4755 H 455.764 0.750055 -1.37127 0
M  V30 4756 H 456.499 3.17818 -0.645163 0
M  V30 4757 H 456.284 3.08725 -2.41726 0
M  V30 4758 H 457.774 3.80057 -1.73051 0
M  V30 4759 N 458.211 1.37122 0.776871 0
M  V30 4760 C 459.144 1.26835 1.89705 0
M  V30 4761 C 460.122 0.14992 1.61907 0
M  V30 4762 O 461.306 0.323242 1.85708 0
M  V30 4763 C 458.433 0.95986 3.24814 0
M  V30 4764 C 457.479 2.09447 3.7153 0
M  V30 4765 S 458.312 3.71368 3.85806 0
M  V30 4766 C 459.468 3.42659 5.23771 0
M  V30 4767 H 459.701 2.21647 1.98141 0
M  V30 4768 H 457.234 1.22685 0.937433 0
M  V30 4769 H 459.192 0.788696 4.02852 0
M  V30 4770 H 457.853 0.0293137 3.14086 0
M  V30 4771 H 457.046 1.8335 4.69467 0
M  V30 4772 H 456.648 2.2255 3.00578 0
M  V30 4773 H 458.94 2.9733 6.0877 0
M  V30 4774 H 459.883 4.39905 5.54878 0
M  V30 4775 H 460.291 2.77708 4.91466 0
M  V30 4776 N 459.689 -1.00246 1.21608 0
M  V30 4777 C 460.652 -2.07233 0.979133 0
M  V30 4778 C 461.652 -1.6072 -0.0508219 0
M  V30 4779 O 462.842 -1.73196 0.186712 0
M  V30 4780 C 459.974 -3.37546 0.477016 0
M  V30 4781 H 461.167 -2.29687 1.92831 0
M  V30 4782 H 458.72 -1.17261 1.03342 0
M  V30 4783 H 459.455 -3.20773 -0.476966 0
M  V30 4784 H 459.24 -3.72638 1.21997 0
M  V30 4785 H 460.73 -4.16285 0.331181 0
M  V30 4786 N 461.167 -1.02423 -1.1978 0
M  V30 4787 C 462.413 -0.72878 -1.89896 0
M  V30 4788 C 462.768 0.734248 -1.77839 0
M  V30 4789 O 462.061 1.52733 -1.15685 0
M  V30 4790 C 462.255 -1.1088 -3.39765 0
M  V30 4791 C 462.084 -2.60722 -3.66407 0
M  V30 4792 C 460.854 -3.27623 -3.84696 0
M  V30 4793 C 463.052 -3.58924 -3.68345 0
M  V30 4794 N 461.034 -4.66617 -3.98926 0
M  V30 4795 C 462.405 -4.83514 -3.8809 0
M  V30 4796 C 464.46 -3.52788 -3.51347 0
M  V30 4797 C 463.163 -6.0271 -3.92598 0
M  V30 4798 C 465.189 -4.71394 -3.5713 0
M  V30 4799 C 464.551 -5.94796 -3.77356 0
M  V30 4800 H 460.65 -0.318473 -0.714212 0
M  V30 4801 H 463.234 -1.3106 -1.43984 0
M  V30 4802 H 461.405 -0.555233 -3.84411 0
M  V30 4803 H 463.137 -0.766082 -3.97383 0
M  V30 4804 H 459.892 -2.7804 -3.83393 0
M  V30 4805 H 460.316 -5.38805 -4.099 0
M  V30 4806 H 464.958 -2.58372 -3.3467 0
M  V30 4807 H 462.676 -6.97499 -4.08069 0
M  V30 4808 H 466.262 -4.6827 -3.45275 0
M  V30 4809 H 465.142 -6.85037 -3.81699 0
M  V30 4810 N 462.645 1.35699 -0.801477 0
M  V30 4811 C 463.555 2.33661 -0.209691 0
M  V30 4812 C 464.571 1.6162 0.644591 0
M  V30 4813 O 465.747 1.93529 0.557545 0
M  V30 4814 C 462.812 3.40816 0.636033 0
M  V30 4815 C 461.873 4.28639 -0.238147 0
M  V30 4816 C 461.106 5.30676 0.567307 0
M  V30 4817 O 461.329 5.41174 1.8024 0
M  V30 4818 O 460.263 6.01887 -0.0391336 0
M  V30 4819 H 464.089 2.8606 -1.01996 0
M  V30 4820 H 461.674 1.38379 -0.563164 0
M  V30 4821 H 463.556 4.06301 1.11791 0
M  V30 4822 H 462.231 2.90696 1.42399 0
M  V30 4823 H 461.138 3.66152 -0.767044 0
M  V30 4824 H 462.471 4.82143 -0.989915 0
M  V30 4825 N 464.123 0.554532 1.47522 0
M  V30 4826 C 465.371 0.0294208 2.02079 0
M  V30 4827 C 465.692 -1.32411 1.43151 0
M  V30 4828 O 464.962 -1.863 0.605728 0
M  V30 4829 H 463.542 0.00788672 0.746958 0
M  V30 4830 H 466.204 0.723934 1.80956 0
M  V30 4831 H 465.3 -0.0606745 3.12041 0
M  V30 4832 N 465.601 -1.54893 0.290851 0
M  V30 4833 C 466.511 -2.26812 -0.59945 0
M  V30 4834 C 467.527 -1.29963 -1.15696 0
M  V30 4835 O 468.703 -1.62928 -1.18391 0
M  V30 4836 C 465.768 -2.98716 -1.75982 0
M  V30 4837 C 464.829 -4.1108 -1.2374 0
M  V30 4838 C 464.062 -4.79546 -2.34246 0
M  V30 4839 O 464.285 -4.47309 -3.53936 0
M  V30 4840 O 463.219 -5.67165 -2.01512 0
M  V30 4841 H 467.045 -3.03696 -0.0163561 0
M  V30 4842 H 464.63 -1.49289 0.0576755 0
M  V30 4843 H 466.512 -3.43851 -2.43607 0
M  V30 4844 H 465.187 -2.24737 -2.3297 0
M  V30 4845 H 464.094 -3.70367 -0.527163 0
M  V30 4846 H 465.427 -4.87007 -0.71307 0
M  V30 4847 N 467.08 -0.0183926 -1.57589 0
M  V30 4848 C 468.491 0.521927 -1.79256 0
M  V30 4849 C 468.842 1.72885 -0.927636 0
M  V30 4850 O 467.967 2.15978 -0.135091 0
M  V30 4851 C 468.562 0.953632 -3.25102 0
M  V30 4852 C 467.121 1.43913 -3.47801 0
M  V30 4853 C 466.268 0.398837 -2.74417 0
M  V30 4854 H 469.219 -0.244485 -1.56805 0
M  V30 4855 H 469.24 1.81863 -3.34224 0
M  V30 4856 H 468.752 0.0750123 -3.88028 0
M  V30 4857 H 466.853 2.33804 -2.90115 0
M  V30 4858 H 466.966 1.45391 -4.56507 0
M  V30 4859 H 465.33 0.864572 -2.39577 0
M  V30 4860 H 466.113 -0.471132 -3.40052 0
M  V30 4861 N 468.558 1.5553 0.254621 0
M  V30 4862 C 469.491 1.84624 1.34124 0
M  V30 4863 C 470.469 0.700693 1.46728 0
M  V30 4864 O 471.653 0.94564 1.63064 0
M  V30 4865 C 468.78 2.02412 2.71564 0
M  V30 4866 C 467.826 3.25028 2.7615 0
M  V30 4867 S 468.659 4.81893 2.33538 0
M  V30 4868 C 469.815 5.02677 3.72917 0
M  V30 4869 H 470.048 2.76501 1.09245 0
M  V30 4870 H 467.581 1.47537 0.455211 0
M  V30 4871 H 469.539 2.13345 3.50705 0
M  V30 4872 H 468.2 1.11391 2.93685 0
M  V30 4873 H 467.393 3.34418 3.77069 0
M  V30 4874 H 466.995 3.12781 2.05046 0
M  V30 4875 H 469.287 4.89546 4.68349 0
M  V30 4876 H 470.23 6.0468 3.68467 0
M  V30 4877 H 470.638 4.30561 3.65072 0
M  V30 4878 N 470.036 -0.519951 1.48776 0
M  V30 4879 C 471.452 -0.849418 1.35119 0
M  V30 4880 C 471.652 -1.98077 0.36982 0
M  V30 4881 O 470.708 -2.51664 -0.205359 0
M  V30 4882 C 472.021 -1.20748 2.75391 0
M  V30 4883 C 473.569 -1.31679 2.83954 0
M  V30 4884 C 474.044 -1.70824 4.24951 0
M  V30 4885 N 475.535 -1.77908 4.27672 0
M  V30 4886 C 476.27 -2.09603 5.33717 0
M  V30 4887 N 475.766 -2.39652 6.5003 0
M  V30 4888 N 477.559 -2.10694 5.21119 0
M  V30 4889 H 469.71 0.226377 2.1119 0
M  V30 4890 H 471.973 0.0386519 0.947212 0
M  V30 4891 H 471.679 -0.449703 3.48813 0
M  V30 4892 H 471.553 -2.15534 3.09556 0
M  V30 4893 H 473.94 -2.06532 2.10781 0
M  V30 4894 H 474.021 -0.3499 2.53396 0
M  V30 4895 H 473.665 -0.965282 4.98643 0
M  V30 4896 H 473.595 -2.6858 4.52959 0
M  V30 4897 H 476.086 -1.56923 3.43779 0
M  V30 4898 H 476.399 -2.6297 7.26682 0
M  V30 4899 H 474.744 -2.37149 6.53288 0
M  V30 4900 H 477.935 -1.86682 4.29264 0
M  V30 4901 H 478.108 -2.35062 6.03863 0
M  V30 4902 N 471.514 -1.37532 -0.769588 0
M  V30 4903 C 472.464 -1.29984 -1.87318 0
M  V30 4904 C 473.448 -0.187242 -1.59807 0
M  V30 4905 O 474.64 -0.421827 -1.719 0
M  V30 4906 C 471.769 -1.11126 -3.24817 0
M  V30 4907 C 470.855 -2.26939 -3.58273 0
M  V30 4908 N 471.246 -3.52336 -3.62895 0
M  V30 4909 C 469.544 -2.19141 -3.8845 0
M  V30 4910 C 470.245 -4.28719 -3.9316 0
M  V30 4911 N 469.221 -3.57884 -4.0917 0
M  V30 4912 H 473.023 -2.24946 -1.89147 0
M  V30 4913 H 470.537 -1.30535 -0.966143 0
M  V30 4914 H 472.534 -1.03803 -4.0377 0
M  V30 4915 H 471.194 -0.17083 -3.2425 0
M  V30 4916 H 472.205 -3.86216 -3.45048 0
M  V30 4917 H 468.882 -1.33167 -3.95693 0
M  V30 4918 H 470.272 -5.37254 -4.03494 0
M  V30 4919 N 472.992 0.995999 -1.22138 0
M  V30 4920 C 473.94 2.10673 -0.985876 0
M  V30 4921 C 474.934 1.69255 0.0699553 0
M  V30 4922 O 476.14 1.79812 -0.0822176 0
M  V30 4923 H 472.515 0.688865 -0.30161 0
M  V30 4924 H 474.486 2.27711 -1.92848 0
M  V30 4925 C 473.235 3.42881 -0.576909 0
M  V30 4926 H 472.558 3.75191 -1.38101 0
M  V30 4927 H 473.998 4.21589 -0.451518 0
M  V30 4928 C 472.457 3.29265 0.713196 0
M  V30 4929 O 472.987 3.60777 1.76643 0
M  V30 4930 N 471.193 2.82456 0.683162 0
M  V30 4931 H 470.74 2.5701 -0.174242 0
M  V30 4932 H 470.698 2.73727 1.54663 0
M  V30 4933 N 474.47 1.03057 1.19235 0
M  V30 4934 C 475.4 0.633497 2.24742 0
M  V30 4935 C 476.381 -0.358335 1.66283 0
M  V30 4936 O 477.566 -0.240676 1.92703 0
M  V30 4937 C 474.696 -0.0147648 3.47297 0
M  V30 4938 C 473.65 0.899527 4.18441 0
M  V30 4939 C 472.976 0.116281 5.34574 0
M  V30 4940 C 474.276 2.21404 4.73051 0
M  V30 4941 H 475.97 1.5155 2.58211 0
M  V30 4942 H 473.516 0.73014 1.24117 0
M  V30 4943 H 475.469 -0.304202 4.20301 0
M  V30 4944 H 474.193 -0.931577 3.13032 0
M  V30 4945 H 472.852 1.17319 3.47321 0
M  V30 4946 H 472.5 -0.802619 4.96555 0
M  V30 4947 H 472.2 0.725293 5.83107 0
M  V30 4948 H 473.724 -0.166376 6.10373 0
M  V30 4949 H 475.138 1.98601 5.37802 0
M  V30 4950 H 473.535 2.77512 5.32078 0
M  V30 4951 H 474.605 2.86752 3.91026 0
M  V30 4952 N 475.948 -1.35272 0.808662 0
M  V30 4953 C 477.196 -1.98316 0.389233 0
M  V30 4954 C 477.517 -1.64465 -1.04767 0
M  V30 4955 O 476.787 -0.928175 -1.72516 0
M  V30 4956 H 475.367 -0.733585 0.140935 0
M  V30 4957 H 478.029 -1.6515 1.03496 0
M  V30 4958 H 477.125 -3.08123 0.496631 0
M  V30 4959 N 477.426 -0.562348 -1.47226 0
M  V30 4960 C 478.674 -0.0401371 -2.0206 0
M  V30 4961 C 478.995 1.3165 -1.43852 0
M  V30 4962 O 478.265 1.85976 -0.615599 0
M  V30 4963 H 476.845 -0.0118479 -0.746906 0
M  V30 4964 H 479.507 -0.73352 -1.8057 0
M  V30 4965 H 478.603 0.0441254 -3.12069 0
M  V30 4966 N 478.904 1.54736 -0.299062 0
M  V30 4967 C 479.852 2.24897 0.593658 0
M  V30 4968 C 480.846 1.25429 1.13859 0
M  V30 4969 O 482.052 1.43286 1.08945 0
M  V30 4970 H 478.427 0.72207 0.210046 0
M  V30 4971 H 480.398 2.98393 -0.0206421 0
M  V30 4972 C 479.147 3.00159 1.75499 0
M  V30 4973 H 478.47 3.76501 1.34489 0
M  V30 4974 H 479.91 3.52535 2.35574 0
M  V30 4975 C 478.369 2.07015 2.65794 0
M  V30 4976 O 478.899 1.63692 3.66835 0
M  V30 4977 N 477.105 1.73012 2.33485 0
M  V30 4978 H 476.652 2.08439 1.51364 0
M  V30 4979 H 476.61 1.10965 2.94167 0
M  V30 4980 N 480.382 0.0267497 1.57577 0
M  V30 4981 C 481.312 -0.954308 2.13108 0
M  V30 4982 C 482.293 -1.34088 1.04663 0
M  V30 4983 O 483.478 -1.41992 1.32484 0
M  V30 4984 C 480.608 -2.23744 2.65624 0
M  V30 4985 C 479.562 -1.99168 3.78835 0
M  V30 4986 C 478.888 -3.33726 4.17769 0
M  V30 4987 C 480.188 -1.33277 5.0501 0
M  V30 4988 H 481.882 -0.491848 2.95332 0
M  V30 4989 H 479.428 -0.23514 1.42067 0
M  V30 4990 H 481.381 -2.92754 3.03106 0
M  V30 4991 H 480.105 -2.72151 1.80558 0
M  V30 4992 H 478.764 -1.32577 3.41788 0
M  V30 4993 H 478.412 -3.79888 3.29688 0
M  V30 4994 H 478.112 -3.18089 4.94058 0
M  V30 4995 H 479.636 -4.04008 4.57832 0
M  V30 4996 H 481.05 -1.92283 5.40093 0
M  V30 4997 H 479.447 -1.28045 5.8628 0
M  V30 4998 H 480.517 -0.305411 4.83937 0
M  V30 4999 N 481.861 -1.55662 -0.24637 0
M  V30 5000 C 483.109 -1.77168 -0.972411 0
M  V30 5001 C 483.43 -0.590827 -1.85834 0
M  V30 5002 O 482.7 0.393365 -1.9191 0
M  V30 5003 H 481.28 -0.653405 -0.362038 0
M  V30 5004 H 483.942 -1.93101 -0.264189 0
M  V30 5005 H 483.038 -2.68335 -1.59382 0
M  V30 5006 N 483.339 0.512053 -1.4905 0
M  V30 5007 C 484.616 1.27337 -1.48474 0
M  V30 5008 C 484.996 2.1009 -0.206301 0
M  V30 5009 O 484.344 2.136 0.811609 0
M  V30 5010 C 484.554 2.13954 -2.75726 0
M  V30 5011 C 485.902 2.73507 -3.24776 0
M  V30 5012 O 486.926 2.24229 -2.76767 0
M  V30 5013 O 485.785 3.63186 -4.08361 0
M  V30 5014 H 482.879 0.575652 -0.593762 0
M  V30 5015 H 485.425 0.527232 -1.61302 0
M  V30 5016 H 484.197 1.52709 -3.60272 0
M  V30 5017 H 483.82 2.95782 -2.65705 0
M  V30 5018 N 484.817 1.37938 0.762283 0
M  V30 5019 C 486.228 1.30094 1.33912 0
M  V30 5020 C 486.579 -0.0472026 1.96143 0
M  V30 5021 O 485.704 -0.94917 1.94473 0
M  V30 5022 C 486.299 2.35592 2.43478 0
M  V30 5023 C 484.858 2.31353 2.96905 0
M  V30 5024 C 484.005 2.18919 1.70205 0
M  V30 5025 H 486.956 1.48423 0.561816 0
M  V30 5026 H 486.977 2.00806 3.23199 0
M  V30 5027 H 486.489 3.33701 1.98155 0
M  V30 5028 H 484.59 1.36799 3.46579 0
M  V30 5029 H 484.703 3.25147 3.51875 0
M  V30 5030 H 483.067 1.65624 1.93496 0
M  V30 5031 H 483.85 3.18956 1.26973 0
M  V30 5032 N 486.295 -0.989507 1.22664 0
M  V30 5033 C 487.711 -1.25395 0.987331 0
M  V30 5034 C 487.911 -1.9899 -0.317056 0
M  V30 5035 O 486.967 -2.30141 -1.03882 0
M  V30 5036 C 488.28 -2.06242 2.18826 0
M  V30 5037 C 489.828 -2.19413 2.23219 0
M  V30 5038 C 490.303 -3.03648 3.42873 0
M  V30 5039 N 491.794 -3.11234 3.43056 0
M  V30 5040 C 492.529 -3.7671 4.32293 0
M  V30 5041 N 492.025 -4.44085 5.31752 0
M  V30 5042 N 493.818 -3.73505 4.2006 0
M  V30 5043 H 485.969 -0.496212 2.06522 0
M  V30 5044 H 488.232 -0.281784 0.905153 0
M  V30 5045 H 487.938 -1.59531 3.13437 0
M  V30 5046 H 487.812 -3.06996 2.19165 0
M  V30 5047 H 490.199 -2.65336 1.29154 0
M  V30 5048 H 490.28 -1.18078 2.26917 0
M  V30 5049 H 489.924 -2.58424 4.37241 0
M  V30 5050 H 489.854 -4.05132 3.36416 0
M  V30 5051 H 492.345 -2.63287 2.71088 0
M  V30 5052 H 492.658 -4.91797 5.96117 0
M  V30 5053 H 491.003 -4.42822 5.35662 0
M  V30 5054 H 494.194 -3.20033 3.41609 0
M  V30 5055 H 494.367 -4.24253 4.8981 0
M  V30 5056 N 487.773 -1.03688 -1.18687 0
M  V30 5057 C 488.736 -0.629115 -2.20397 0
M  V30 5058 C 489.736 0.311495 -1.57754 0
M  V30 5059 O 490.926 0.0974107 -1.73927 0
M  V30 5060 C 488.058 0.0782231 -3.4081 0
M  V30 5061 H 489.251 -1.52915 -2.57987 0
M  V30 5062 H 486.804 -0.828988 -1.32505 0
M  V30 5063 H 487.539 0.992233 -3.08748 0
M  V30 5064 H 487.324 -0.597776 -3.87517 0
M  V30 5065 H 488.814 0.350156 -4.16129 0
M  V30 5066 N 489.251 1.34841 -0.815825 0
M  V30 5067 C 490.667 1.51543 -0.500697 0
M  V30 5068 C 490.867 1.76261 0.976444 0
M  V30 5069 O 489.923 1.8094 1.76117 0
M  V30 5070 C 491.236 2.68487 -1.35407 0
M  V30 5071 C 492.784 2.82368 -1.35046 0
M  V30 5072 C 493.259 4.02347 -2.18816 0
M  V30 5073 N 494.75 4.09542 -2.16402 0
M  V30 5074 C 495.485 5.01517 -2.77971 0
M  V30 5075 N 494.981 5.98763 -3.48503 0
M  V30 5076 N 496.774 4.94334 -2.67563 0
M  V30 5077 H 488.925 1.17055 -1.77234 0
M  V30 5078 H 491.188 0.573481 -0.754866 0
M  V30 5079 H 490.894 2.56829 -2.40274 0
M  V30 5080 H 490.768 3.63321 -1.01377 0
M  V30 5081 H 493.155 2.93471 -0.309604 0
M  V30 5082 H 493.236 1.88363 -1.73069 0
M  V30 5083 H 492.88 3.92004 -3.22948 0
M  V30 5084 H 492.81 4.95551 -1.78148 0
M  V30 5085 H 495.301 3.39932 -1.65091 0
M  V30 5086 H 495.614 6.6556 -3.92747 0
M  V30 5087 H 493.959 5.98909 -3.52609 0
M  V30 5088 H 497.15 4.1732 -2.12041 0
M  V30 5089 H 497.323 5.6582 -3.15834 0
M  V30 5090 N 490.729 0.570148 1.46925 0
M  V30 5091 C 491.692 -0.159933 2.28641 0
M  V30 5092 C 492.692 -0.830638 1.37685 0
M  V30 5093 O 493.882 -0.684516 1.60187 0
M  V30 5094 C 491.014 -1.2354 3.17727 0
M  V30 5095 H 492.207 0.558035 2.94662 0
M  V30 5096 H 489.76 0.327603 1.52828 0
M  V30 5097 H 490.495 -1.98535 2.56426 0
M  V30 5098 H 490.28 -0.759125 3.84681 0
M  V30 5099 H 491.77 -1.74782 3.79264 0
M  V30 5100 N 492.207 -1.54576 0.307264 0
M  V30 5101 C 493.453 -2.0056 -0.300612 0
M  V30 5102 C 493.786 -1.1953 -1.53057 0
M  V30 5103 O 493.061 -0.27337 -1.92569 0
M  V30 5104 C 493.344 -3.54167 -0.650987 0
M  V30 5105 C 493.197 -4.45933 0.588539 0
M  V30 5106 C 494.516 -4.14645 -1.47506 0
M  V30 5107 H 491.635 -0.729075 -0.107788 0
M  V30 5108 H 494.277 -1.85286 0.420606 0
M  V30 5109 H 492.427 -3.67313 -1.26544 0
M  V30 5110 H 494.099 -4.44683 1.22697 0
M  V30 5111 H 492.342 -4.16274 1.22058 0
M  V30 5112 H 493.013 -5.51189 0.299153 0
M  V30 5113 H 495.489 -4.04973 -0.955821 0
M  V30 5114 H 494.365 -5.22269 -1.68899 0
M  V30 5115 H 494.626 -3.66921 -2.4662 0
M  V30 5116 N 493.685 -0.035106 -1.57561 0
M  V30 5117 C 494.91 0.655802 -1.96759 0
M  V30 5118 C 495.335 1.64523 -0.911809 0
M  V30 5119 O 494.693 1.80857 0.126673 0
M  V30 5120 C 494.741 1.33326 -3.35047 0
M  V30 5121 O 493.845 2.44866 -3.31835 0
M  V30 5122 H 493.186 0.171807 -0.641388 0
M  V30 5123 H 495.716 -0.0987369 -2.04362 0
M  V30 5124 H 495.726 1.68867 -3.71413 0
M  V30 5125 H 494.401 0.608033 -4.11431 0
M  V30 5126 H 492.978 2.11392 -3.07193 0
M  V30 5127 N 495.163 1.55791 0.238111 0
M  V30 5128 C 496.409 1.78297 0.966337 0
M  V30 5129 C 496.742 0.601903 1.84637 0
M  V30 5130 O 496.017 -0.399499 1.90353 0
M  V30 5131 C 496.3 3.10758 1.81939 0
M  V30 5132 C 496.153 4.39283 0.966958 0
M  V30 5133 C 497.472 3.39519 2.80027 0
M  V30 5134 H 494.591 0.648654 0.349882 0
M  V30 5135 H 497.233 1.88525 0.236253 0
M  V30 5136 H 495.383 3.02168 2.44185 0
M  V30 5137 H 497.055 4.59873 0.362514 0
M  V30 5138 H 495.298 4.32948 0.271669 0
M  V30 5139 H 495.969 5.28368 1.59784 0
M  V30 5140 H 498.445 3.48128 2.27917 0
M  V30 5141 H 497.321 4.33402 3.36829 0
M  V30 5142 H 497.582 2.60864 3.56934 0
M  V30 5143 N 496.642 -0.504142 1.49319 0
M  V30 5144 C 498.053 -1.08572 1.51885 0
M  V30 5145 C 498.404 -1.93842 0.303255 0
M  V30 5146 O 497.529 -2.0828 -0.58724 0
M  V30 5147 C 498.124 -1.97574 2.75227 0
M  V30 5148 C 496.683 -2.509 2.80581 0
M  V30 5149 C 495.83 -1.28447 2.45757 0
M  V30 5150 H 498.781 -0.288194 1.56061 0
M  V30 5151 H 498.802 -2.82219 2.55211 0
M  V30 5152 H 498.314 -1.35486 3.63683 0
M  V30 5153 H 496.415 -3.16636 1.96398 0
M  V30 5154 H 496.528 -2.88268 3.82673 0
M  V30 5155 H 494.892 -1.60868 1.97468 0
M  V30 5156 H 495.675 -0.68072 3.36483 0
M  V30 5157 N 498.12 -1.38341 -0.754957 0
M  V30 5158 C 499.05 -1.38176 -1.88227 0
M  V30 5159 C 500.031 -0.247873 -1.68284 0
M  V30 5160 O 501.216 -0.45075 -1.88896 0
M  V30 5161 C 498.346 -1.20471 -3.25736 0
M  V30 5162 C 497.3 -2.3105 -3.60278 0
M  V30 5163 C 496.626 -1.98452 -4.96509 0
M  V30 5164 C 497.926 -3.73305 -3.65295 0
M  V30 5165 H 499.62 -2.32512 -1.88622 0
M  V30 5166 H 497.166 -1.1192 -0.906082 0
M  V30 5167 H 499.119 -1.18982 -4.04254 0
M  V30 5168 H 497.843 -0.225965 -3.25817 0
M  V30 5169 H 496.502 -2.31723 -2.84078 0
M  V30 5170 H 496.15 -0.990641 -4.93148 0
M  V30 5171 H 495.85 -2.7251 -5.20588 0
M  V30 5172 H 497.374 -1.98578 -5.77407 0
M  V30 5173 H 498.788 -3.7467 -4.3393 0
M  V30 5174 H 497.185 -4.46557 -4.00883 0
M  V30 5175 H 498.255 -4.05719 -2.65556 0
M  V30 5176 N 499.598 0.982988 -1.23187 0
M  V30 5177 C 500.846 1.72052 -1.06031 0
M  V30 5178 C 501.167 1.90769 0.404019 0
M  V30 5179 O 500.437 1.47446 1.28982 0
M  V30 5180 H 499.017 0.637499 -0.389363 0
M  V30 5181 H 501.679 1.18338 -1.54862 0
M  V30 5182 H 500.775 2.7111 -1.54615 0
M  V30 5183 N 501.076 1.04316 1.18135 0
M  V30 5184 C 502.324 0.746542 1.87806 0
M  V30 5185 C 502.645 -0.728082 1.80898 0
M  V30 5186 O 501.915 -1.52554 1.22899 0
M  V30 5187 H 500.495 0.273157 0.695265 0
M  V30 5188 H 503.157 1.32044 1.43354 0
M  V30 5189 H 502.253 1.05362 2.93778 0
M  V30 5190 N 502.554 -1.34406 0.822964 0
M  V30 5191 C 503.97 -1.51275 0.508727 0
M  V30 5192 C 504.17 -1.76776 -0.967083 0
M  V30 5193 O 503.226 -1.81871 -1.75155 0
M  V30 5194 C 504.539 -2.67765 1.36829 0
M  V30 5195 C 506.087 -2.81647 1.36542 0
M  V30 5196 C 506.562 -4.01181 2.20947 0
M  V30 5197 N 508.053 -4.08388 2.18571 0
M  V30 5198 C 508.788 -5.00036 2.80627 0
M  V30 5199 N 508.284 -5.96906 3.51674 0
M  V30 5200 N 510.077 -4.92908 2.70181 0
M  V30 5201 H 502.228 -1.16113 1.77852 0
M  V30 5202 H 504.491 -0.56947 0.757897 0
M  V30 5203 H 504.197 -2.55551 2.41633 0
M  V30 5204 H 504.071 -3.62779 1.03303 0
M  V30 5205 H 506.458 -2.93303 0.325163 0
M  V30 5206 H 506.539 -1.87443 1.74066 0
M  V30 5207 H 506.183 -3.90286 3.25022 0
M  V30 5208 H 506.113 -4.94599 1.80774 0
M  V30 5209 H 508.604 -3.39051 1.66891 0
M  V30 5210 H 508.917 -6.63468 3.96271 0
M  V30 5211 H 507.262 -5.9703 3.5578 0
M  V30 5212 H 510.453 -4.1619 2.14251 0
M  V30 5213 H 510.626 -5.64137 3.18831 0
M  V30 5214 N 504.032 -0.577932 -1.46621 0
M  V30 5215 C 505.278 -0.0617793 -2.02706 0
M  V30 5216 C 505.611 1.29294 -1.44903 0
M  V30 5217 O 504.886 1.8461 -0.61232 0
M  V30 5218 C 505.169 0.00911824 -3.60099 0
M  V30 5219 C 505.022 -1.37416 -4.28295 0
M  V30 5220 C 506.341 0.712159 -4.343 0
M  V30 5221 H 503.46 -0.0239246 -0.736612 0
M  V30 5222 H 506.102 -0.744211 -1.74818 0
M  V30 5223 H 504.252 0.590292 -3.83989 0
M  V30 5224 H 505.924 -2.00013 -4.15683 0
M  V30 5225 H 504.167 -1.94319 -3.87843 0
M  V30 5226 H 504.838 -1.27707 -5.37024 0
M  V30 5227 H 507.314 0.218486 -4.15526 0
M  V30 5228 H 506.19 0.730782 -5.44014 0
M  V30 5229 H 506.451 1.77251 -4.05012 0
M  V30 5230 N 505.51 1.54411 -0.315457 0
M  V30 5231 C 506.473 2.22713 0.54142 0
M  V30 5232 C 507.473 1.2179 1.04995 0
M  V30 5233 O 508.663 1.46426 0.943667 0
M  V30 5234 C 505.795 2.92485 1.75116 0
M  V30 5235 H 506.988 2.99849 -0.0555508 0
M  V30 5236 H 504.541 1.56159 -0.0664453 0
M  V30 5237 H 505.276 2.19466 2.38758 0
M  V30 5238 H 505.061 3.66483 1.39401 0
M  V30 5239 H 506.551 3.44548 2.35959 0
M  V30 5240 N 506.988 0.0434614 1.5754 0
M  V30 5241 C 508.404 -0.313039 1.565 0
M  V30 5242 C 508.604 -1.71954 1.05043 0
M  V30 5243 O 507.66 -2.425 0.703564 0
M  V30 5244 C 508.973 -0.148544 3.00333 0
M  V30 5245 C 510.521 -0.220231 3.12224 0
M  V30 5246 C 510.996 -0.0843565 4.57922 0
M  V30 5247 N 512.487 -0.140881 4.62986 0
M  V30 5248 C 513.222 -0.0597443 5.73369 0
M  V30 5249 N 512.718 0.0733004 6.92761 0
M  V30 5250 N 514.511 -0.11477 5.61983 0
M  V30 5251 H 506.662 0.96303 1.89313 0
M  V30 5252 H 508.925 0.373164 0.871466 0
M  V30 5253 H 508.631 0.820894 3.41986 0
M  V30 5254 H 508.505 -0.912798 3.65989 0
M  V30 5255 H 510.892 -1.18014 2.70475 0
M  V30 5256 H 510.973 0.574646 2.49262 0
M  V30 5257 H 510.617 0.872192 5.00355 0
M  V30 5258 H 510.547 -0.898281 5.18882 0
M  V30 5259 H 513.038 -0.243273 3.77116 0
M  V30 5260 H 513.351 0.128128 7.72694 0
M  V30 5261 H 511.696 0.10828 6.94916 0
M  V30 5262 H 514.887 -0.217212 4.67596 0
M  V30 5263 H 515.06 -0.0480779 6.47982 0
M  V30 5264 N 508.466 -1.55915 -0.229846 0
M  V30 5265 C 509.713 -1.78542 -0.955452 0
M  V30 5266 C 510.041 -0.610785 -1.84661 0
M  V30 5267 O 509.296 0.405213 -1.91459 0
M  V30 5268 C 509.595 -3.06845 -1.8325 0
M  V30 5269 C 509.261 -4.37395 -1.09528 0
M  V30 5270 C 507.923 -4.72868 -0.891598 0
M  V30 5271 C 510.275 -5.18029 -0.574046 0
M  V30 5272 C 507.603 -5.86496 -0.154655 0
M  V30 5273 C 509.955 -6.32423 0.149513 0
M  V30 5274 C 508.619 -6.66504 0.364519 0
M  V30 5275 H 507.889 -0.653333 -0.349625 0
M  V30 5276 H 510.536 -1.90183 -0.224235 0
M  V30 5277 H 508.841 -2.90291 -2.63132 0
M  V30 5278 H 510.538 -3.21553 -2.39592 0
M  V30 5279 H 507.128 -4.09538 -1.26399 0
M  V30 5280 H 511.312 -4.91066 -0.718899 0
M  V30 5281 H 506.568 -6.11396 0.0222356 0
M  V30 5282 H 510.742 -6.94137 0.560947 0
M  V30 5283 H 508.369 -7.54397 0.937495 0
M  V30 5284 N 509.944 0.496216 -1.49584 0
M  V30 5285 C 510.874 1.60576 -1.69521 0
M  V30 5286 C 511.855 1.61169 -0.543933 0
M  V30 5287 O 513.04 1.77834 -0.78031 0
M  V30 5288 C 510.17 2.99038 -1.76616 0
M  V30 5289 C 509.124 3.13312 -2.91581 0
M  V30 5290 C 508.45 4.53172 -2.83794 0
M  V30 5291 C 509.75 2.92886 -4.32452 0
M  V30 5292 H 511.444 1.44146 -2.62416 0
M  V30 5293 H 508.99 0.692024 -1.26282 0
M  V30 5294 H 510.943 3.76564 -1.8915 0
M  V30 5295 H 509.667 3.16568 -0.80324 0
M  V30 5296 H 508.326 2.38213 -2.78658 0
M  V30 5297 H 507.974 4.67585 -1.854 0
M  V30 5298 H 507.674 4.63662 -3.60958 0
M  V30 5299 H 509.198 5.32752 -2.98342 0
M  V30 5300 H 510.612 3.60178 -4.46032 0
M  V30 5301 H 509.009 3.14844 -5.10875 0
M  V30 5302 H 510.079 1.88966 -4.46565 0
M  V30 5303 N 511.423 1.38739 0.74761 0
M  V30 5304 C 512.355 1.32341 1.87132 0
M  V30 5305 C 513.368 0.234502 1.61102 0
M  V30 5306 O 514.557 0.492516 1.71571 0
M  V30 5307 C 511.657 1.02915 3.22896 0
M  V30 5308 C 510.83 2.22834 3.76383 0
M  V30 5309 C 509.889 1.90059 4.90677 0
M  V30 5310 O 508.915 2.62615 5.04997 0
M  V30 5311 N 510.117 0.859141 5.74107 0
M  V30 5312 H 512.882 2.29175 1.93129 0
M  V30 5313 H 510.443 1.32678 0.927805 0
M  V30 5314 H 512.435 0.79031 3.96908 0
M  V30 5315 H 511.005 0.148572 3.12247 0
M  V30 5316 H 510.225 2.62747 2.93867 0
M  V30 5317 H 511.513 3.02851 4.08851 0
M  V30 5318 H 510.911 0.257564 5.65113 0
M  V30 5319 H 509.468 0.680189 6.48241 0
M  V30 5320 N 512.901 -0.976442 1.23707 0
M  V30 5321 C 514.141 -1.73331 1.08332 0
M  V30 5322 C 514.505 -1.88346 -0.372781 0
M  V30 5323 O 515.706 -2.60877 -0.647813 0
M  V30 5324 C 513.977 -3.09159 1.7932 0
M  V30 5325 S 515.536 -4.00376 1.79567 0
M  V30 5326 H 512.354 -0.596045 0.387622 0
M  V30 5327 H 514.956 -1.16625 1.56904 0
M  V30 5328 H 513.66 -2.95884 2.84395 0
M  V30 5329 H 513.191 -3.70932 1.31046 0
M  V30 5330 H 515.206 -4.88742 0.857094 0
M  V30 5331 N 514.379 -1.04941 -1.1758 0
M  V30 5332 C 515.795 -0.770282 -1.39781 0
M  V30 5333 C 515.995 0.636417 -1.91186 0
M  V30 5334 O 515.051 1.39923 -2.10185 0
M  V30 5335 C 516.364 -1.82376 -2.3908 0
M  V30 5336 C 517.912 -1.84569 -2.52791 0
M  V30 5337 C 518.387 -2.88933 -3.55361 0
M  V30 5338 N 519.878 -2.8788 -3.62877 0
M  V30 5339 C 520.613 -3.65282 -4.41992 0
M  V30 5340 N 520.109 -4.52461 -5.24643 0
M  V30 5341 N 521.902 -3.53732 -4.36841 0
M  V30 5342 H 514.053 -1.95705 -0.825438 0
M  V30 5343 H 516.316 -0.847284 -0.425222 0
M  V30 5344 H 516.022 -2.83323 -2.08376 0
M  V30 5345 H 515.896 -1.66327 -3.38549 0
M  V30 5346 H 518.283 -0.842879 -2.82807 0
M  V30 5347 H 518.364 -2.04696 -1.53406 0
M  V30 5348 H 518.008 -3.89398 -3.26085 0
M  V30 5349 H 517.938 -2.66059 -4.54445 0
M  V30 5350 H 520.429 -2.24666 -3.03864 0
M  V30 5351 H 520.742 -5.08211 -5.82187 0
M  V30 5352 H 519.087 -4.56524 -5.24033 0
M  V30 5353 H 522.278 -2.85021 -3.71323 0
M  V30 5354 H 522.451 -4.14302 -4.98255 0
M  V30 5355 N 515.857 1.33968 -0.830081 0
M  V30 5356 C 517.104 1.98063 -0.421566 0
M  V30 5357 C 517.432 1.65787 1.0171 0
M  V30 5358 O 516.687 0.925348 1.72441 0
M  V30 5359 C 516.986 3.52679 -0.57898 0
M  V30 5360 C 516.652 4.04884 -1.98443 0
M  V30 5361 C 515.314 4.18852 -2.36888 0
M  V30 5362 C 517.666 4.32879 -2.90285 0
M  V30 5363 C 514.994 4.58145 -3.66497 0
M  V30 5364 C 517.346 4.7362 -4.19364 0
M  V30 5365 C 516.01 4.85794 -4.57778 0
M  V30 5366 H 515.28 0.724765 -0.154262 0
M  V30 5367 H 517.927 1.59792 -1.05541 0
M  V30 5368 H 516.232 3.91556 0.138219 0
M  V30 5369 H 517.929 4.00261 -0.243317 0
M  V30 5370 H 514.519 3.9448 -1.67581 0
M  V30 5371 H 518.703 4.21619 -2.61823 0
M  V30 5372 H 513.959 4.65762 -3.96075 0
M  V30 5373 H 518.133 4.9424 -4.90612 0
M  V30 5374 H 515.76 5.15998 -5.58256 0
M  V30 5375 N 517.335 0.585699 1.46312 0
M  V30 5376 C 518.265 -0.133556 2.33118 0
M  V30 5377 C 519.246 -0.880707 1.45525 0
M  V30 5378 O 520.431 -0.855579 1.74337 0
M  V30 5379 C 517.561 -1.14585 3.27853 0
M  V30 5380 C 516.515 -0.513341 4.2491 0
M  V30 5381 C 515.841 -1.63231 5.09175 0
M  V30 5382 C 517.141 0.551413 5.19381 0
M  V30 5383 H 518.835 0.59121 2.93505 0
M  V30 5384 H 516.381 0.285761 1.41136 0
M  V30 5385 H 518.334 -1.65741 3.87438 0
M  V30 5386 H 517.058 -1.90093 2.65579 0
M  V30 5387 H 515.717 -0.0228349 3.66593 0
M  V30 5388 H 515.365 -2.37713 4.43285 0
M  V30 5389 H 515.065 -1.21473 5.74907 0
M  V30 5390 H 516.589 -2.14658 5.71624 0
M  V30 5391 H 518.003 0.124804 5.73164 0
M  V30 5392 H 516.4 0.889486 5.93471 0
M  V30 5393 H 517.47 1.43655 4.63132 0
M  V30 5394 N 518.813 -1.54241 0.323641 0
M  V30 5395 C 520.06 -2.0057 -0.27891 0
M  V30 5396 C 520.388 -1.21181 -1.52136 0
M  V30 5397 O 519.643 -0.282043 -1.93657 0
M  V30 5398 C 519.942 -3.5129 -0.658031 0
M  V30 5399 C 519.608 -4.48281 0.485252 0
M  V30 5400 C 518.27 -4.74519 0.799055 0
M  V30 5401 C 520.622 -5.05909 1.25322 0
M  V30 5402 C 517.95 -5.55643 1.88354 0
M  V30 5403 C 520.302 -5.88215 2.32779 0
M  V30 5404 C 518.966 -6.12755 2.64741 0
M  V30 5405 H 518.236 -0.733938 -0.10206 0
M  V30 5406 H 520.883 -1.862 0.447435 0
M  V30 5407 H 519.188 -3.63388 -1.4648 0
M  V30 5408 H 520.885 -3.84578 -1.1358 0
M  V30 5409 H 517.475 -4.27979 0.230593 0
M  V30 5410 H 521.659 -4.8562 1.02404 0
M  V30 5411 H 516.915 -5.72888 2.13564 0
M  V30 5412 H 521.089 -6.31888 2.92729 0
M  V30 5413 H 518.716 -6.75404 3.48904 0
M  V30 5414 N 520.291 -0.0518155 -1.57515 0
M  V30 5415 C 521.254 0.907547 -2.10467 0
M  V30 5416 C 522.254 1.23947 -1.02439 0
M  V30 5417 O 523.444 1.17604 -1.2851 0
M  V30 5418 C 520.576 2.21723 -2.58944 0
M  V30 5419 H 521.769 0.44851 -2.96527 0
M  V30 5420 H 519.322 0.196598 -1.55059 0
M  V30 5421 H 520.057 2.72206 -1.76279 0
M  V30 5422 H 519.842 1.98935 -3.37886 0
M  V30 5423 H 521.332 2.90441 -3.00056 0
M  V30 5424 N 521.769 1.56035 0.221574 0
M  V30 5425 C 523.017 1.78693 0.944102 0
M  V30 5426 C 523.338 0.620317 1.8487 0
M  V30 5427 O 522.608 -0.362784 1.92512 0
M  V30 5428 H 521.188 0.659082 0.351597 0
M  V30 5429 H 523.85 1.93497 0.233435 0
M  V30 5430 H 522.946 2.70837 1.55093 0
M  V30 5431 N 523.247 -0.488276 1.49845 0
M  V30 5432 C 524.658 -1.06955 1.53028 0
M  V30 5433 C 525.009 -1.9351 0.323797 0
M  V30 5434 O 524.134 -2.08891 -0.565116 0
M  V30 5435 C 524.729 -1.94643 2.77307 0
M  V30 5436 C 523.288 -2.4791 2.83227 0
M  V30 5437 C 522.435 -1.25833 2.47106 0
M  V30 5438 H 525.386 -0.271626 1.56358 0
M  V30 5439 H 525.407 -2.79496 2.5819 0
M  V30 5440 H 524.919 -1.31621 3.65099 0
M  V30 5441 H 523.02 -3.14535 1.99745 0
M  V30 5442 H 523.133 -2.84193 3.85709 0
M  V30 5443 H 521.497 -1.58764 1.99163 0
M  V30 5444 H 522.28 -0.644993 3.37186 0
M  V30 5445 N 524.725 -1.39134 -0.740242 0
M  V30 5446 C 525.971 -1.37278 -1.50088 0
M  V30 5447 C 526.326 0.0329967 -1.92372 0
M  V30 5448 O 525.619 0.998447 -1.63529 0
M  V30 5449 C 525.813 -2.27457 -2.75678 0
M  V30 5450 C 525.642 -3.76662 -2.45674 0
M  V30 5451 C 524.412 -4.45617 -2.38229 0
M  V30 5452 C 526.61 -4.6877 -2.11563 0
M  V30 5453 N 524.592 -5.80187 -2.00641 0
M  V30 5454 C 525.963 -5.91951 -1.84376 0
M  V30 5455 C 528.018 -4.56843 -1.97987 0
M  V30 5456 C 526.721 -7.04538 -1.4498 0
M  V30 5457 C 528.747 -5.69347 -1.59994 0
M  V30 5458 C 528.109 -6.91597 -1.33687 0
M  V30 5459 H 524.208 -0.557611 -0.548265 0
M  V30 5460 H 526.792 -1.74638 -0.860784 0
M  V30 5461 H 524.963 -1.92263 -3.37475 0
M  V30 5462 H 526.695 -2.16631 -3.41838 0
M  V30 5463 H 523.45 -3.98993 -2.5515 0
M  V30 5464 H 523.874 -6.51387 -1.84454 0
M  V30 5465 H 528.516 -3.62868 -2.16995 0
M  V30 5466 H 526.234 -7.98419 -1.24712 0
M  V30 5467 H 529.82 -5.62104 -1.50102 0
M  V30 5468 H 528.7 -7.77176 -1.04728 0
M  V30 5469 N 526.204 0.969867 -1.24223 0
M  V30 5470 C 527.134 2.08191 -1.05729 0
M  V30 5471 C 528.115 1.70075 0.0290765 0
M  V30 5472 O 529.3 1.93712 -0.137583 0
M  V30 5473 C 526.43 3.40991 -0.658995 0
M  V30 5474 C 525.384 3.93054 -1.69389 0
M  V30 5475 C 524.71 5.22171 -1.15072 0
M  V30 5476 C 526.01 4.21137 -3.08935 0
M  V30 5477 H 527.704 2.23921 -1.98746 0
M  V30 5478 H 525.25 1.07602 -0.956967 0
M  V30 5479 H 527.203 4.18221 -0.51662 0
M  V30 5480 H 525.927 3.25155 0.30686 0
M  V30 5481 H 524.586 3.17977 -1.82444 0
M  V30 5482 H 524.234 5.02694 -0.175539 0
M  V30 5483 H 523.934 5.57973 -1.84229 0
M  V30 5484 H 525.458 6.02013 -1.02042 0
M  V30 5485 H 526.872 4.8908 -2.99121 0
M  V30 5486 H 525.269 4.68163 -3.75425 0
M  V30 5487 H 526.339 3.27996 -3.57137 0
M  V30 5488 N 527.682 1.05563 1.17022 0
M  V30 5489 C 528.612 0.681026 2.23348 0
M  V30 5490 C 529.593 -0.322983 1.67005 0
M  V30 5491 O 530.778 -0.199746 1.9317 0
M  V30 5492 C 527.908 0.0589053 3.4725 0
M  V30 5493 C 526.862 0.988082 4.16438 0
M  V30 5494 C 526.188 0.229646 5.34207 0
M  V30 5495 C 527.488 2.31388 4.68249 0
M  V30 5496 H 529.182 1.56993 2.54938 0
M  V30 5497 H 526.728 0.756302 1.2254 0
M  V30 5498 H 528.681 -0.214982 4.20851 0
M  V30 5499 H 527.405 -0.864968 3.14938 0
M  V30 5500 H 526.064 1.24659 3.44754 0
M  V30 5501 H 525.712 -0.697111 4.98146 0
M  V30 5502 H 525.412 0.848815 5.81437 0
M  V30 5503 H 526.936 -0.0368694 6.10589 0
M  V30 5504 H 528.35 2.09964 5.33468 0
M  V30 5505 H 526.747 2.88736 5.26072 0
M  V30 5506 H 527.817 2.94982 3.84855 0
M  V30 5507 N 529.16 -1.33526 0.837174 0
M  V30 5508 C 530.407 -1.97837 0.432064 0
M  V30 5509 C 530.735 -1.66324 -1.00829 0
M  V30 5510 O 529.99 -0.93448 -1.71948 0
M  V30 5511 C 530.289 -3.52367 0.597675 0
M  V30 5512 C 529.955 -4.03826 2.00587 0
M  V30 5513 C 528.617 -4.1759 2.39106 0
M  V30 5514 C 530.969 -4.31333 2.92576 0
M  V30 5515 C 528.297 -4.56195 3.68921 0
M  V30 5516 C 530.649 -4.7139 4.2187 0
M  V30 5517 C 529.313 -4.8336 4.60347 0
M  V30 5518 H 528.583 -0.723937 0.158104 0
M  V30 5519 H 531.23 -1.5923 1.06387 0
M  V30 5520 H 529.535 -3.91624 -0.117452 0
M  V30 5521 H 531.232 -4.00126 0.26454 0
M  V30 5522 H 527.822 -3.93586 1.69671 0
M  V30 5523 H 532.006 -4.20224 2.64056 0
M  V30 5524 H 527.262 -4.63655 3.9854 0
M  V30 5525 H 531.436 -4.91631 4.93226 0
M  V30 5526 H 529.063 -5.1303 5.60985 0
M  V30 5527 N 530.638 -0.59345 -1.46 0
M  V30 5528 C 531.863 -0.0872365 -2.07216 0
M  V30 5529 C 532.288 1.2131 -1.43755 0
M  V30 5530 O 531.646 1.73528 -0.525152 0
M  V30 5531 C 531.694 0.0538197 -3.6056 0
M  V30 5532 O 530.798 1.10765 -3.97247 0
M  V30 5533 H 530.139 -0.0676598 -0.660544 0
M  V30 5534 H 532.669 -0.819445 -1.87473 0
M  V30 5535 H 532.679 0.256567 -4.07193 0
M  V30 5536 H 531.354 -0.895739 -4.0614 0
M  V30 5537 H 529.931 0.882501 -3.62307 0
M  V30 5538 N 532.116 1.54067 -0.331816 0
M  V30 5539 C 533.026 2.28322 0.539104 0
M  V30 5540 C 534.042 1.32985 1.1221 0
M  V30 5541 O 535.218 1.6601 1.1403 0
M  V30 5542 C 532.283 3.03277 1.68 0
M  V30 5543 C 531.344 4.14216 1.12798 0
M  V30 5544 C 530.577 4.85588 2.2145 0
M  V30 5545 O 530.8 4.56536 3.41952 0
M  V30 5546 O 529.734 5.72309 1.86404 0
M  V30 5547 H 533.56 3.03632 -0.0641692 0
M  V30 5548 H 531.145 1.49083 -0.0972365 0
M  V30 5549 H 533.027 3.50189 2.34405 0
M  V30 5550 H 531.702 2.30834 2.2693 0
M  V30 5551 H 530.609 3.71635 0.428782 0
M  V30 5552 H 531.942 4.88727 0.583698 0
M  V30 5553 N 533.594 0.0601682 1.57485 0
M  V30 5554 C 534.843 -0.611101 1.9222 0
M  V30 5555 C 535.156 -1.71469 0.941159 0
M  V30 5556 O 536.362 -2.44473 1.18089 0
M  V30 5557 C 534.818 -1.13832 3.41424 0
M  V30 5558 C 534.426 -0.0663596 4.47951 0
M  V30 5559 C 536.17 -1.78432 3.85178 0
M  V30 5560 C 534.077 -0.606965 5.88277 0
M  V30 5561 H 533.007 -0.232033 0.71741 0
M  V30 5562 H 535.658 0.130518 1.83035 0
M  V30 5563 H 534.04 -1.93254 3.45643 0
M  V30 5564 H 535.214 0.707682 4.55333 0
M  V30 5565 H 533.529 0.482715 4.13593 0
M  V30 5566 H 536.126 -2.1989 4.87394 0
M  V30 5567 H 536.469 -2.63966 3.21913 0
M  V30 5568 H 537.002 -1.05651 3.83514 0
M  V30 5569 H 533.741 0.21095 6.5516 0
M  V30 5570 H 533.261 -1.34879 5.84438 0
M  V30 5571 H 534.94 -1.08704 6.37803 0
M  V30 5572 N 535.072 -1.5615 -0.213296 0
M  V30 5573 C 536.297 -1.83986 -0.957282 0
M  V30 5574 C 536.722 -0.641526 -1.76822 0
M  V30 5575 O 536.08 0.409722 -1.7661 0
M  V30 5576 C 536.128 -3.09889 -1.84393 0
M  V30 5577 O 535.232 -2.89163 -2.94038 0
M  V30 5578 H 534.573 -0.606357 -0.270605 0
M  V30 5579 H 537.103 -2.03369 -0.224111 0
M  V30 5580 H 537.113 -3.40209 -2.25215 0
M  V30 5581 H 535.788 -3.96735 -1.24795 0
M  V30 5582 H 534.365 -2.70097 -2.57103 0
M  V30 5583 N 536.55 0.480323 -1.50102 0
M  V30 5584 C 537.797 1.23307 -1.60629 0
M  V30 5585 C 538.125 1.92135 -0.302375 0
M  V30 5586 O 537.38 1.82321 0.711154 0
M  V30 5587 C 537.679 2.30708 -2.72963 0
M  V30 5588 C 537.345 1.79195 -4.13763 0
M  V30 5589 C 536.007 1.64867 -4.52076 0
M  V30 5590 C 538.359 1.40878 -5.018 0
M  V30 5591 C 535.687 1.10631 -5.76175 0
M  V30 5592 C 538.039 0.880872 -6.26437 0
M  V30 5593 C 536.703 0.724146 -6.6356 0
M  V30 5594 H 535.973 0.451211 -0.587784 0
M  V30 5595 H 538.62 0.53051 -1.84005 0
M  V30 5596 H 536.925 3.06834 -2.43639 0
M  V30 5597 H 538.622 2.88692 -2.78313 0
M  V30 5598 H 535.212 1.91313 -3.83533 0
M  V30 5599 H 539.396 1.50786 -4.7284 0
M  V30 5600 H 534.652 0.972263 -6.0362 0
M  V30 5601 H 538.826 0.575269 -6.9402 0
M  V30 5602 H 536.453 0.301722 -7.59601 0
M  V30 5603 N 538.028 1.39524 0.732853 0
M  V30 5604 C 539.277 1.36175 1.48792 0
M  V30 5605 C 539.59 -0.0388195 1.95561 0
M  V30 5606 O 540.796 -0.194899 2.708 0
M  V30 5607 C 539.252 2.39242 2.68871 0
M  V30 5608 C 538.86 3.85024 2.29042 0
M  V30 5609 C 540.604 2.44972 3.46683 0
M  V30 5610 C 538.511 4.79727 3.45856 0
M  V30 5611 H 537.441 0.506267 0.558757 0
M  V30 5612 H 540.092 1.65181 0.799226 0
M  V30 5613 H 538.474 2.0331 3.39825 0
M  V30 5614 H 539.648 4.30008 1.6562 0
M  V30 5615 H 537.963 3.82609 1.64316 0
M  V30 5616 H 540.56 3.12918 4.33574 0
M  V30 5617 H 540.903 1.4749 3.89297 0
M  V30 5618 H 541.436 2.79808 2.82759 0
M  V30 5619 H 538.175 5.78479 3.08289 0
M  V30 5620 H 537.695 4.39421 4.08251 0
M  V30 5621 H 539.374 4.98731 4.12161 0
M  V30 5622 N 539.506 -0.963266 1.24736 0
M  V30 5623 C 540.731 -1.74699 1.11781 0
M  V30 5624 C 541.156 -1.85267 -0.325258 0
M  V30 5625 O 540.514 -1.32681 -1.23553 0
M  V30 5626 C 540.562 -3.14322 1.76731 0
M  V30 5627 O 539.666 -3.99043 1.04109 0
M  V30 5628 H 539.007 -0.53684 0.390767 0
M  V30 5629 H 541.537 -1.20801 1.65131 0
M  V30 5630 H 541.547 -3.64824 1.82668 0
M  V30 5631 H 540.222 -3.05946 2.81726 0
M  V30 5632 H 538.799 -3.5752 1.05991 0
M  V30 5633 N 540.985 -1.06182 -1.16461 0
M  V30 5634 C 542.262 -0.691364 -1.82974 0
M  V30 5635 C 542.642 0.827377 -1.9421 0
M  V30 5636 O 541.99 1.73723 -1.48434 0
M  V30 5637 C 542.2 -1.39199 -3.20038 0
M  V30 5638 C 543.548 -1.53647 -3.95825 0
M  V30 5639 O 544.572 -1.35181 -3.29552 0
M  V30 5640 O 543.431 -1.83932 -5.14618 0
M  V30 5641 H 540.525 -0.244605 -0.789998 0
M  V30 5642 H 543.071 -1.16203 -1.23673 0
M  V30 5643 H 541.843 -2.42766 -3.06888 0
M  V30 5644 H 541.466 -0.911335 -3.87015 0
M  V30 5645 N 542.463 1.3308 -0.844243 0
M  V30 5646 C 543.709 1.97898 -0.443206 0
M  V30 5647 C 544.042 1.66699 0.99625 0
M  V30 5648 O 543.317 0.949704 1.69738 0
M  V30 5649 C 543.6 3.53801 -0.670606 0
M  V30 5650 C 543.453 3.94667 -2.15772 0
M  V30 5651 C 544.772 4.39936 -0.120226 0
M  V30 5652 H 541.891 0.718861 -0.162504 0
M  V30 5653 H 544.533 1.57633 -1.06075 0
M  V30 5654 H 542.683 3.88229 -0.14496 0
M  V30 5655 H 544.355 3.70469 -2.74865 0
M  V30 5656 H 542.598 3.44203 -2.6402 0
M  V30 5657 H 543.269 5.03275 -2.26757 0
M  V30 5658 H 545.745 4.12183 -0.5696 0
M  V30 5659 H 544.621 5.4803 -0.308984 0
M  V30 5660 H 544.882 4.31184 0.976347 0
M  V30 5661 N 543.941 0.601185 1.45683 0
M  V30 5662 C 545.187 0.0940202 2.02582 0
M  V30 5663 C 545.52 -1.26972 1.46941 0
M  V30 5664 O 544.795 -1.83613 0.641612 0
M  V30 5665 C 545.078 0.0481715 3.60068 0
M  V30 5666 C 544.931 1.44212 4.26055 0
M  V30 5667 C 546.25 -0.642975 4.35378 0
M  V30 5668 H 543.369 0.0356404 0.736138 0
M  V30 5669 H 546.011 0.771929 1.73612 0
M  V30 5670 H 544.161 -0.529128 3.8488 0
M  V30 5671 H 545.833 2.06601 4.12449 0
M  V30 5672 H 544.076 2.00465 3.84703 0
M  V30 5673 H 544.747 1.36234 5.34925 0
M  V30 5674 H 547.223 -0.152351 4.15821 0
M  V30 5675 H 546.099 -0.644141 5.45107 0
M  V30 5676 H 546.36 -1.70785 4.0778 0
M  V30 5677 N 545.419 -1.53889 0.339982 0
M  V30 5678 C 546.367 -2.26391 -0.533822 0
M  V30 5679 C 547.361 -1.28404 -1.10493 0
M  V30 5680 O 548.567 -1.46124 -1.05108 0
M  V30 5681 H 544.942 -0.727385 -0.190828 0
M  V30 5682 H 546.913 -2.98233 0.0997484 0
M  V30 5683 C 545.662 -3.04707 -1.67479 0
M  V30 5684 H 544.985 -3.79934 -1.2446 0
M  V30 5685 H 546.425 -3.58657 -2.26144 0
M  V30 5686 C 544.884 -2.13989 -2.60212 0
M  V30 5687 O 545.414 -1.73361 -3.62366 0
M  V30 5688 N 543.62 -1.79141 -2.28816 0
M  V30 5689 H 543.167 -2.12378 -1.45785 0
M  V30 5690 H 543.125 -1.18725 -2.91121 0
M  V30 5691 N 546.897 -0.0685191 -1.57451 0
M  V30 5692 C 547.845 0.917577 -2.13736 0
M  V30 5693 C 548.839 1.31049 -1.07344 0
M  V30 5694 O 550.045 1.28811 -1.25728 0
M  V30 5695 H 546.42 0.313835 -0.683382 0
M  V30 5696 H 548.391 0.417903 -2.95459 0
M  V30 5697 C 547.14 2.17686 -2.71123 0
M  V30 5698 H 546.463 1.88336 -3.52661 0
M  V30 5699 H 547.903 2.84803 -3.14107 0
M  V30 5700 C 546.362 2.9332 -1.65726 0
M  V30 5701 O 546.892 3.86901 -1.08031 0
M  V30 5702 N 545.098 2.56367 -1.36837 0
M  V30 5703 H 544.645 1.80341 -1.83943 0
M  V30 5704 H 544.603 3.07276 -0.665501 0
M  V30 5705 N 548.375 1.56261 0.205012 0
M  V30 5706 C 549.6 1.84491 0.947512 0
M  V30 5707 C 550.025 0.650894 1.76479 0
M  V30 5708 O 549.383 -0.40035 1.76824 0
M  V30 5709 C 549.431 3.10863 1.82747 0
M  V30 5710 O 548.535 2.90719 2.925 0
M  V30 5711 H 547.876 0.607783 0.267386 0
M  V30 5712 H 550.406 2.03485 0.213323 0
M  V30 5713 H 550.416 3.41399 2.23407 0
M  V30 5714 H 549.091 3.97392 1.2269 0
M  V30 5715 H 547.668 2.71457 2.55667 0
M  V30 5716 N 549.853 -0.472356 1.50355 0
M  V30 5717 C 551.078 -1.25251 1.65309 0
M  V30 5718 C 551.503 -1.85081 0.335643 0
M  V30 5719 O 550.861 -1.67227 -0.700335 0
M  V30 5720 C 550.909 -2.3379 2.74544 0
M  V30 5721 O 550.013 -3.38401 2.35709 0
M  V30 5722 H 549.354 -0.368539 0.552336 0
M  V30 5723 H 551.884 -0.562271 1.96722 0
M  V30 5724 H 551.894 -2.79121 2.97583 0
M  V30 5725 H 550.569 -1.89614 3.70161 0
M  V30 5726 H 549.146 -2.9879 2.23112 0
M  V30 5727 N 551.331 -1.39911 -0.725443 0
M  V30 5728 C 552.742 -1.33599 -1.30415 0
M  V30 5729 C 553.093 -0.00481792 -1.96199 0
M  V30 5730 O 552.218 0.897275 -1.96921 0
M  V30 5731 C 552.813 -2.41965 -2.37146 0
M  V30 5732 C 551.372 -2.39144 -2.90667 0
M  V30 5733 C 550.519 -2.23355 -1.64341 0
M  V30 5734 H 553.47 -1.4986 -0.522267 0
M  V30 5735 H 553.491 -2.09304 -3.17761 0
M  V30 5736 H 553.003 -3.38837 -1.89238 0
M  V30 5737 H 551.104 -1.4594 -3.4283 0
M  V30 5738 H 551.217 -3.34362 -3.43131 0
M  V30 5739 H 549.581 -1.70696 -1.89037 0
M  V30 5740 H 550.364 -3.2221 -1.18471 0
M  V30 5741 N 552.809 0.956637 -1.25245 0
M  V30 5742 C 553.772 2.03457 -1.05537 0
M  V30 5743 C 554.772 1.60798 -0.00886317 0
M  V30 5744 O 555.962 1.72384 -0.250865 0
M  V30 5745 C 553.094 3.35543 -0.601965 0
M  V30 5746 H 554.287 2.22372 -2.01223 0
M  V30 5747 H 551.84 1.13344 -1.07623 0
M  V30 5748 H 552.575 3.22323 0.357584 0
M  V30 5749 H 552.36 3.67854 -1.35743 0
M  V30 5750 H 553.85 4.14769 -0.485454 0
M  V30 5751 N 554.287 1.06798 1.15896 0
M  V30 5752 C 555.217 0.704677 2.22613 0
M  V30 5753 C 556.198 -0.305252 1.67339 0
M  V30 5754 O 557.383 -0.179247 1.93371 0
M  V30 5755 C 554.513 0.0957325 3.47168 0
M  V30 5756 C 553.467 1.0322 4.15367 0
M  V30 5757 C 552.793 0.286293 5.33933 0
M  V30 5758 C 554.093 2.36341 4.65768 0
M  V30 5759 H 555.787 1.59688 2.53259 0
M  V30 5760 H 553.333 0.769257 1.21731 0
M  V30 5761 H 555.286 -0.170333 4.21056 0
M  V30 5762 H 554.01 -0.831516 3.15838 0
M  V30 5763 H 552.669 1.28309 3.43413 0
M  V30 5764 H 552.317 -0.644237 4.98857 0
M  V30 5765 H 552.017 0.910436 5.80504 0
M  V30 5766 H 553.541 0.0278938 6.10594 0
M  V30 5767 H 554.955 2.1561 5.31211 0
M  V30 5768 H 553.352 2.94299 5.2298 0
M  V30 5769 H 554.422 2.99047 3.81705 0
M  V30 5770 N 555.766 -1.3263 0.851289 0
M  V30 5771 C 557.014 -1.96978 0.452128 0
M  V30 5772 C 557.335 -1.67715 -0.99482 0
M  V30 5773 O 556.605 -0.98259 -1.69476 0
M  V30 5774 H 555.185 -0.72873 0.164202 0
M  V30 5775 H 557.847 -1.61774 1.08698 0
M  V30 5776 H 556.943 -3.06387 0.594407 0
M  V30 5777 N 557.244 -0.608902 -1.45362 0
M  V30 5778 C 558.492 -0.104401 -2.0183 0
M  V30 5779 C 558.813 1.27007 -1.47967 0
M  V30 5780 O 558.083 1.83924 -0.674455 0
M  V30 5781 H 556.663 -0.0356042 -0.746151 0
M  V30 5782 H 559.325 -0.790596 -1.78145 0
M  V30 5783 H 558.421 -0.0551793 -3.12051 0
M  V30 5784 N 558.722 1.53707 -0.348139 0
M  V30 5785 C 559.95 2.05406 0.248224 0
M  V30 5786 C 560.365 1.22282 1.43849 0
M  V30 5787 O 559.722 0.259244 1.80649 0
M  V30 5788 C 559.773 3.55446 0.658793 0
M  V30 5789 O 559.494 4.35417 -0.484149 0
M  V30 5790 C 560.995 4.23335 1.31539 0
M  V30 5791 H 558.215 0.669344 0.0471075 0
M  V30 5792 H 560.759 1.98257 -0.501456 0
M  V30 5793 H 558.914 3.62803 1.35841 0
M  V30 5794 H 559.328 5.24268 -0.155949 0
M  V30 5795 H 560.802 5.29692 1.55338 0
M  V30 5796 H 561.279 3.75967 2.27036 0
M  V30 5797 H 561.885 4.20184 0.657683 0
M  V30 5798 N 560.2 0.0768682 1.57412 0
M  V30 5799 C 561.447 -0.591085 1.93681 0
M  V30 5800 C 561.775 -1.69311 0.957286 0
M  V30 5801 O 561.03 -1.95682 -0.0262428 0
M  V30 5802 C 561.329 -1.20268 3.36557 0
M  V30 5803 C 560.995 -0.226286 4.50332 0
M  V30 5804 C 559.657 0.0423142 4.81181 0
M  V30 5805 C 562.009 0.441415 5.19327 0
M  V30 5806 C 559.337 0.985616 5.78362 0
M  V30 5807 C 561.689 1.37307 6.17519 0
M  V30 5808 C 560.353 1.65009 6.46783 0
M  V30 5809 H 559.623 -0.216293 0.70873 0
M  V30 5810 H 562.27 0.148824 1.90921 0
M  V30 5811 H 560.575 -2.01844 3.35807 0
M  V30 5812 H 562.272 -1.72688 3.61911 0
M  V30 5813 H 558.862 -0.445821 4.26275 0
M  V30 5814 H 563.046 0.247023 4.95685 0
M  V30 5815 H 558.302 1.20743 5.99359 0
M  V30 5816 H 562.476 1.89637 6.70083 0
M  V30 5817 H 560.103 2.38263 7.21897 0
M  V30 5818 N 561.678 -1.56367 -0.196722 0
M  V30 5819 C 563.089 -1.70462 -0.761545 0
M  V30 5820 C 563.44 -0.683161 -1.83922 0
M  V30 5821 O 562.565 0.160753 -2.15802 0
M  V30 5822 C 563.16 -3.09057 -1.38814 0
M  V30 5823 C 561.719 -3.24922 -1.90007 0
M  V30 5824 C 560.866 -2.66412 -0.769399 0
M  V30 5825 H 563.817 -1.58675 0.0283263 0
M  V30 5826 H 563.838 -3.06296 -2.2575 0
M  V30 5827 H 563.35 -3.83378 -0.603559 0
M  V30 5828 H 561.451 -2.55514 -2.71189 0
M  V30 5829 H 561.564 -4.3241 -2.06297 0
M  V30 5830 H 559.928 -2.25546 -1.18326 0
M  V30 5831 H 560.711 -3.433 0.00291773 0
M  V30 5832 N 563.156 0.464375 -1.50603 0
M  V30 5833 C 564.567 1.04507 -1.5471 0
M  V30 5834 C 564.918 1.9297 -0.354542 0
M  V30 5835 O 564.043 2.09763 0.531812 0
M  V30 5836 C 564.638 1.90207 -2.80369 0
M  V30 5837 C 563.197 2.43373 -2.87135 0
M  V30 5838 C 562.344 1.21886 -2.49076 0
M  V30 5839 H 565.295 0.246716 -1.56771 0
M  V30 5840 H 565.316 2.75353 -2.62604 0
M  V30 5841 H 564.828 1.25796 -3.67147 0
M  V30 5842 H 562.929 3.11318 -2.04724 0
M  V30 5843 H 563.042 2.7802 -3.90181 0
M  V30 5844 H 561.406 1.55575 -2.01664 0
M  V30 5845 H 562.189 0.591268 -3.3817 0
M  V30 5846 N 564.634 1.40294 0.718013 0
M  V30 5847 C 565.597 1.4012 1.81381 0
M  V30 5848 C 566.597 0.295405 1.58063 0
M  V30 5849 O 567.787 0.554187 1.6515 0
M  V30 5850 C 564.919 1.19056 3.19435 0
M  V30 5851 H 566.112 2.37645 1.82933 0
M  V30 5852 H 563.665 1.26107 0.923405 0
M  V30 5853 H 564.4 0.222809 3.23534 0
M  V30 5854 H 564.185 1.99152 3.37758 0
M  V30 5855 H 565.675 1.21716 3.99468 0
M  V30 5856 N 566.112 -0.949982 1.2575 0
M  V30 5857 C 567.523 -1.50989 1.09815 0
M  V30 5858 C 567.874 -1.93497 -0.324556 0
M  V30 5859 O 566.999 -1.79068 -1.21506 0
M  V30 5860 C 567.594 -2.74394 1.98729 0
M  V30 5861 C 566.153 -3.26682 1.86965 0
M  V30 5862 C 565.3 -1.99498 1.92603 0
M  V30 5863 H 568.251 -0.766387 1.38968 0
M  V30 5864 H 568.272 -3.48383 1.53001 0
M  V30 5865 H 567.784 -2.43425 3.02268 0
M  V30 5866 H 565.885 -3.62461 0.863279 0
M  V30 5867 H 565.998 -3.94383 2.72027 0
M  V30 5868 H 564.362 -2.15005 1.36546 0
M  V30 5869 H 565.145 -1.70871 2.97755 0
M  V30 5870 N 567.59 -1.07411 -1.15328 0
M  V30 5871 C 568.836 -0.808666 -1.86634 0
M  V30 5872 C 569.191 0.65816 -1.80793 0
M  V30 5873 O 568.484 1.47689 -1.22059 0
M  V30 5874 C 568.678 -1.25191 -3.34757 0
M  V30 5875 C 568.507 -2.76028 -3.55019 0
M  V30 5876 C 567.277 -3.43644 -3.70455 0
M  V30 5877 C 569.475 -3.74224 -3.5279 0
M  V30 5878 N 567.457 -4.83117 -3.78776 0
M  V30 5879 C 568.828 -4.9954 -3.67233 0
M  V30 5880 C 570.883 -3.67373 -3.36068 0
M  V30 5881 C 569.586 -6.18819 -3.66682 0
M  V30 5882 C 571.612 -4.86116 -3.36816 0
M  V30 5883 C 570.974 -6.10266 -3.51789 0
M  V30 5884 H 567.073 -0.348478 -0.700062 0
M  V30 5885 H 569.657 -1.37049 -1.38295 0
M  V30 5886 H 567.828 -0.717775 -3.8171 0
M  V30 5887 H 569.56 -0.933936 -3.93776 0
M  V30 5888 H 566.315 -2.94051 -3.71256 0
M  V30 5889 H 566.739 -5.55705 -3.86679 0
M  V30 5890 H 571.381 -2.72334 -3.2341 0
M  V30 5891 H 569.099 -7.14179 -3.78118 0
M  V30 5892 H 572.685 -4.82492 -3.25103 0
M  V30 5893 H 571.565 -7.00609 -3.52301 0
M  V30 5894 N 569.068 1.32177 -0.85831 0
M  V30 5895 C 570.314 1.97813 -0.47346 0
M  V30 5896 C 570.669 1.66674 0.961122 0
M  V30 5897 O 569.962 0.94657 1.66585 0
M  V30 5898 C 570.156 3.51372 -0.653658 0
M  V30 5899 C 569.985 3.97433 -2.1042 0
M  V30 5900 C 568.755 4.24338 -2.74345 0
M  V30 5901 C 570.953 4.12233 -3.0752 0
M  V30 5902 N 568.935 4.56672 -4.10272 0
M  V30 5903 C 570.306 4.48146 -4.28445 0
M  V30 5904 C 572.361 3.94577 -3.03667 0
M  V30 5905 C 571.064 4.68246 -5.4602 0
M  V30 5906 C 573.09 4.15864 -4.20489 0
M  V30 5907 C 572.452 4.52098 -5.40173 0
M  V30 5908 H 568.551 0.749808 -0.222061 0
M  V30 5909 H 571.135 1.59927 -1.11047 0
M  V30 5910 H 569.306 3.88372 -0.0463267 0
M  V30 5911 H 571.038 4.03998 -0.238343 0
M  V30 5912 H 567.793 4.16544 -2.25362 0
M  V30 5913 H 568.217 4.77019 -4.80398 0
M  V30 5914 H 572.859 3.65662 -2.12252 0
M  V30 5915 H 570.577 4.96014 -6.37962 0
M  V30 5916 H 574.163 4.03702 -4.18947 0
M  V30 5917 H 573.043 4.68238 -6.29065 0
M  V30 5918 N 570.547 0.616602 1.45037 0
M  V30 5919 C 571.958 0.199359 1.85633 0
M  V30 5920 C 572.309 -1.24588 1.51566 0
M  V30 5921 O 571.434 -1.94594 0.94668 0
M  V30 5922 C 572.029 0.355033 3.36935 0
M  V30 5923 C 570.588 -0.00758748 3.76399 0
M  V30 5924 C 569.735 0.675256 2.68953 0
M  V30 5925 H 572.686 0.822708 1.3571 0
M  V30 5926 H 572.707 -0.410201 3.78282 0
M  V30 5927 H 572.219 1.40699 3.61698 0
M  V30 5928 H 570.32 -1.05837 3.57252 0
M  V30 5929 H 570.433 0.392346 4.77491 0
M  V30 5930 H 568.797 0.111992 2.54454 0
M  V30 5931 H 569.58 1.72952 2.96551 0
M  V30 5932 N 572.025 -1.5352 0.356285 0
M  V30 5933 C 573.436 -1.86282 -0.12492 0
M  V30 5934 C 573.787 -1.27717 -1.48939 0
M  V30 5935 O 572.912 -0.595614 -2.08042 0
M  V30 5936 C 573.507 -3.37995 -0.23345 0
M  V30 5937 C 572.066 -3.70588 -0.658899 0
M  V30 5938 C 571.213 -2.76581 0.199596 0
M  V30 5939 H 574.164 -1.47901 0.575423 0
M  V30 5940 H 574.185 -3.65475 -1.0587 0
M  V30 5941 H 573.697 -3.8059 0.759776 0
M  V30 5942 H 571.798 -3.33544 -1.66069 0
M  V30 5943 H 571.911 -4.77076 -0.439957 0
M  V30 5944 H 570.275 -2.52552 -0.330076 0
M  V30 5945 H 571.058 -3.22008 1.19019 0
M  V30 5946 N 573.503 -0.0852151 -1.57369 0
M  V30 5947 C 574.751 0.579658 -1.93609 0
M  V30 5948 C 575.072 1.69332 -0.967043 0
M  V30 5949 O 574.342 1.95892 -0.0174215 0
M  V30 5950 H 572.922 0.217113 -0.714752 0
M  V30 5951 H 575.584 -0.146226 -1.94351 0
M  V30 5952 H 574.68 0.996276 -2.95771 0
M  V30 5953 N 574.981 1.5647 0.188427 0
M  V30 5954 C 576.392 1.70864 0.752494 0
M  V30 5955 C 576.743 0.692905 1.83557 0
M  V30 5956 O 575.868 -0.149307 2.15884 0
M  V30 5957 C 576.463 3.09789 1.37173 0
M  V30 5958 C 575.022 3.25925 1.88281 0
M  V30 5959 C 574.169 2.66817 0.755259 0
M  V30 5960 H 577.12 1.58657 -0.0367408 0
M  V30 5961 H 577.141 3.07489 2.24122 0
M  V30 5962 H 576.653 3.83693 0.583219 0
M  V30 5963 H 574.754 2.56948 2.6983 0
M  V30 5964 H 574.867 4.33498 2.04001 0
M  V30 5965 H 573.231 2.2617 1.17128 0
M  V30 5966 H 574.014 3.43294 -0.0211237 0
M  V30 5967 N 576.459 -0.456382 1.50847 0
M  V30 5968 C 577.87 -1.03685 1.55262 0
M  V30 5969 C 578.221 -1.92779 0.364771 0
M  V30 5970 O 577.346 -2.10043 -0.52068 0
M  V30 5971 C 577.941 -1.88718 2.81374 0
M  V30 5972 C 576.5 -2.41847 2.88422 0
M  V30 5973 C 575.647 -1.20564 2.49719 0
M  V30 5974 H 578.598 -0.238399 1.56899 0
M  V30 5975 H 578.619 -2.73957 2.6406 0
M  V30 5976 H 578.131 -1.23847 3.67809 0
M  V30 5977 H 576.232 -3.10228 2.06372 0
M  V30 5978 H 576.345 -2.75947 3.9165 0
M  V30 5979 H 574.709 -1.54504 2.02486 0
M  V30 5980 H 575.492 -0.573326 3.38479 0
M  V30 5981 N 577.937 -1.40673 -0.710563 0
M  V30 5982 C 579.348 -1.34975 -1.28991 0
M  V30 5983 C 579.699 -0.0256272 -1.96183 0
M  V30 5984 O 578.824 0.876339 -1.97862 0
M  V30 5985 C 579.419 -2.44467 -2.34567 0
M  V30 5986 C 577.978 -2.42213 -2.88114 0
M  V30 5987 C 577.125 -2.25085 -1.61963 0
M  V30 5988 H 580.076 -1.50406 -0.506343 0
M  V30 5989 H 580.097 -2.12663 -3.15523 0
M  V30 5990 H 579.609 -3.40825 -1.85634 0
M  V30 5991 H 577.71 -1.49568 -3.41263 0
M  V30 5992 H 577.823 -3.37983 -3.39565 0
M  V30 5993 H 576.187 -1.72691 -1.87216 0
M  V30 5994 H 576.97 -3.23449 -1.15047 0
M  V30 5995 N 579.415 0.9433 -1.26252 0
M  V30 5996 C 580.643 1.72367 -1.14443 0
M  V30 5997 C 581.058 1.86392 0.300572 0
M  V30 5998 O 580.415 1.36978 1.20596 0
M  V30 5999 C 580.466 3.13155 -1.806 0
M  V30 6000 O 580.187 2.99803 -3.19452 0
M  V30 6001 C 581.688 4.07417 -1.74717 0
M  V30 6002 H 578.908 0.539758 -0.398626 0
M  V30 6003 H 581.452 1.18268 -1.66832 0
M  V30 6004 H 579.607 3.64162 -1.32154 0
M  V30 6005 H 580.021 3.88697 -3.52158 0
M  V30 6006 H 581.495 5.03773 -2.25647 0
M  V30 6007 H 581.972 4.3337 -0.713244 0
M  V30 6008 H 582.578 3.6233 -2.22704 0
M  V30 6009 N 580.893 1.08022 1.14757 0
M  V30 6010 C 581.841 0.701088 2.21783 0
M  V30 6011 C 582.835 -0.291311 1.66876 0
M  V30 6012 O 584.041 -0.154296 1.79337 0
M  V30 6013 H 580.416 0.208668 0.722469 0
M  V30 6014 H 582.387 1.61321 2.51034 0
M  V30 6015 C 581.136 0.122278 3.47485 0
M  V30 6016 H 580.459 0.877065 3.90061 0
M  V30 6017 H 581.899 -0.105248 4.23869 0
M  V30 6018 C 580.358 -1.13883 3.17068 0
M  V30 6019 O 580.888 -2.22429 3.34497 0
M  V30 6020 N 579.094 -1.04767 2.71058 0
M  V30 6021 H 578.641 -0.164302 2.57075 0
M  V30 6022 H 578.599 -1.89224 2.51081 0
M  V30 6023 N 582.371 -1.3172 0.865308 0
M  V30 6024 C 583.618 -1.96876 0.473931 0
M  V30 6025 C 583.946 -1.68425 -0.972786 0
M  V30 6026 O 583.201 -0.970742 -1.69927 0
M  V30 6027 C 583.5 -3.5102 0.672283 0
M  V30 6028 C 583.166 -3.9948 2.09108 0
M  V30 6029 C 581.828 -4.12425 2.4791 0
M  V30 6030 C 584.18 -4.2503 3.0166 0
M  V30 6031 C 581.508 -4.48267 3.78515 0
M  V30 6032 C 583.86 -4.62335 4.31774 0
M  V30 6033 C 582.524 -4.73486 4.70497 0
M  V30 6034 H 581.794 -0.72042 0.173424 0
M  V30 6035 H 584.441 -1.56937 1.0974 0
M  V30 6036 H 582.746 -3.91785 -0.034356 0
M  V30 6037 H 584.443 -3.99475 0.349353 0
M  V30 6038 H 581.033 -3.89898 1.77981 0
M  V30 6039 H 585.217 -4.14529 2.7291 0
M  V30 6040 H 580.473 -4.55097 4.08285 0
M  V30 6041 H 584.647 -4.81058 5.03543 0
M  V30 6042 H 582.274 -5.01016 5.71741 0
M  V30 6043 N 583.85 -0.624285 -1.44708 0
M  V30 6044 C 585.075 -0.131171 -2.06985 0
M  V30 6045 C 585.5 1.18234 -1.46295 0
M  V30 6046 O 584.858 1.72375 -0.561842 0
M  V30 6047 C 584.906 -0.0226724 -3.60593 0
M  V30 6048 O 584.01 1.02314 -3.99507 0
M  V30 6049 H 583.351 -0.0816556 -0.65896 0
M  V30 6050 H 585.88 -0.859027 -1.85693 0
M  V30 6051 H 585.891 0.170138 -4.07645 0
M  V30 6052 H 584.566 -0.981685 -4.04148 0
M  V30 6053 H 583.143 0.805452 -3.64097 0
M  V30 6054 N 585.328 1.53329 -0.364422 0
M  V30 6055 C 586.553 2.06132 0.229033 0
M  V30 6056 C 586.978 1.23625 1.41769 0
M  V30 6057 O 586.336 0.255038 1.79497 0
M  V30 6058 C 586.384 3.55544 0.60174 0
M  V30 6059 O 585.488 3.75771 1.69912 0
M  V30 6060 H 584.829 0.663148 0.0336213 0
M  V30 6061 H 587.359 1.97758 -0.524689 0
M  V30 6062 H 587.369 3.98549 0.873073 0
M  V30 6063 H 586.044 4.15039 -0.267421 0
M  V30 6064 H 584.621 3.44663 1.42343 0
M  V30 6065 N 586.806 0.0935595 1.57322 0
M  V30 6066 C 587.736 -0.863062 2.16964 0
M  V30 6067 C 588.717 -1.29528 1.10256 0
M  V30 6068 O 589.902 -1.36245 1.38387 0
M  V30 6069 C 587.032 -2.12276 2.74875 0
M  V30 6070 C 585.986 -1.82921 3.86942 0
M  V30 6071 C 585.312 -3.15707 4.31548 0
M  V30 6072 C 586.612 -1.11737 5.10208 0
M  V30 6073 H 588.306 -0.366145 2.97153 0
M  V30 6074 H 585.852 -0.174673 1.42937 0
M  V30 6075 H 587.805 -2.79634 3.1525 0
M  V30 6076 H 586.529 -2.64248 1.91938 0
M  V30 6077 H 585.188 -1.17961 3.47103 0
M  V30 6078 H 584.836 -3.65563 3.45504 0
M  V30 6079 H 584.536 -2.96849 5.07104 0
M  V30 6080 H 586.06 -3.84226 4.74555 0
M  V30 6081 H 587.474 -1.69203 5.47762 0
M  V30 6082 H 585.871 -1.03064 5.91183 0
M  V30 6083 H 586.941 -0.0998818 4.84797 0
M  V30 6084 N 588.284 -1.56567 -0.180126 0
M  V30 6085 C 589.194 -1.98947 -1.24327 0
M  V30 6086 C 590.21 -0.899446 -1.4895 0
M  V30 6087 O 591.386 -1.20639 -1.61271 0
M  V30 6088 C 588.451 -2.33328 -2.56435 0
M  V30 6089 C 587.512 -3.56114 -2.39752 0
M  V30 6090 C 586.745 -3.88845 -3.65561 0
M  V30 6091 O 586.968 -3.22662 -4.70368 0
M  V30 6092 O 585.902 -4.82226 -3.60197 0
M  V30 6093 H 589.728 -2.89634 -0.913565 0
M  V30 6094 H 587.313 -1.44319 -0.386306 0
M  V30 6095 H 589.195 -2.5645 -3.34382 0
M  V30 6096 H 587.87 -1.45806 -2.89002 0
M  V30 6097 H 586.777 -3.38221 -1.59866 0
M  V30 6098 H 588.11 -4.4415 -2.12113 0
M  V30 6099 N 589.762 0.448376 -1.51087 0
M  V30 6100 C 590.692 1.55102 -1.74544 0
M  V30 6101 C 591.673 1.59357 -0.594932 0
M  V30 6102 O 592.858 1.75261 -0.836491 0
M  V30 6103 C 589.988 2.93268 -1.86041 0
M  V30 6104 C 588.942 3.03877 -3.01402 0
M  V30 6105 C 588.268 4.43914 -2.98068 0
M  V30 6106 C 589.568 2.7898 -4.41551 0
M  V30 6107 H 591.262 1.35724 -2.66869 0
M  V30 6108 H 588.808 0.651498 -1.28419 0
M  V30 6109 H 590.761 3.70356 -2.01034 0
M  V30 6110 H 589.485 3.13853 -0.903548 0
M  V30 6111 H 588.144 2.29227 -2.86096 0
M  V30 6112 H 587.792 4.6145 -2.00182 0
M  V30 6113 H 587.492 4.51944 -3.75527 0
M  V30 6114 H 589.016 5.22991 -3.1514 0
M  V30 6115 H 590.43 3.45805 -4.57265 0
M  V30 6116 H 588.827 2.98431 -5.20633 0
M  V30 6117 H 589.897 1.74663 -4.5235 0
M  V30 6118 N 591.24 1.41047 0.703093 0
M  V30 6119 C 592.15 1.44645 1.84703 0
M  V30 6120 C 593.166 0.337778 1.7069 0
M  V30 6121 O 594.342 0.584327 1.92737 0
M  V30 6122 C 591.407 1.31928 3.20618 0
M  V30 6123 C 590.468 2.53047 3.46794 0
M  V30 6124 C 589.701 2.40927 4.76224 0
M  V30 6125 O 589.924 1.42978 5.5219 0
M  V30 6126 O 588.858 3.30543 5.03016 0
M  V30 6127 H 592.684 2.41139 1.84624 0
M  V30 6128 H 590.269 1.22504 0.855167 0
M  V30 6129 H 592.151 1.27092 4.01778 0
M  V30 6130 H 590.826 0.385469 3.21397 0
M  V30 6131 H 589.733 2.6346 2.65593 0
M  V30 6132 H 591.066 3.45231 3.50822 0
M  V30 6133 N 592.718 -0.936591 1.26751 0
M  V30 6134 C 594.129 -1.49816 1.1141 0
M  V30 6135 C 594.48 -1.9383 -0.304015 0
M  V30 6136 O 593.605 -1.80346 -1.196 0
M  V30 6137 C 594.2 -2.72271 2.01629 0
M  V30 6138 C 592.759 -3.2468 1.9042 0
M  V30 6139 C 591.906 -1.97444 1.94708 0
M  V30 6140 H 594.857 -0.751604 1.39773 0
M  V30 6141 H 594.878 -3.46741 1.56688 0
M  V30 6142 H 594.39 -2.40205 3.04833 0
M  V30 6143 H 592.491 -3.61525 0.901674 0
M  V30 6144 H 592.604 -3.91476 2.76195 0
M  V30 6145 H 590.968 -2.13545 1.38818 0
M  V30 6146 H 591.751 -1.67703 2.9955 0
M  V30 6147 N 594.196 -1.08629 -1.14182 0
M  V30 6148 C 595.612 -0.814363 -1.3726 0
M  V30 6149 C 595.812 0.575271 -1.93114 0
M  V30 6150 O 594.868 1.33165 -2.1453 0
M  V30 6151 C 596.181 -1.8989 -2.33157 0
M  V30 6152 C 597.729 -1.92518 -2.46791 0
M  V30 6153 C 598.204 -3.00092 -3.45989 0
M  V30 6154 N 599.695 -2.99279 -3.53534 0
M  V30 6155 C 600.43 -3.79158 -4.30147 0
M  V30 6156 N 599.926 -4.68923 -5.09983 0
M  V30 6157 N 601.719 -3.67451 -4.25366 0
M  V30 6158 H 593.87 -1.98232 -0.762758 0
M  V30 6159 H 596.133 -0.860383 -0.398051 0
M  V30 6160 H 595.839 -2.89809 -1.99257 0
M  V30 6161 H 595.713 -1.77013 -3.33086 0
M  V30 6162 H 598.1 -0.932425 -2.79982 0
M  V30 6163 H 598.181 -2.09473 -1.46816 0
M  V30 6164 H 597.825 -3.99575 -3.13532 0
M  V30 6165 H 597.755 -2.80382 -4.45751 0
M  V30 6166 H 600.246 -2.3422 -2.96563 0
M  V30 6167 H 600.559 -5.26475 -5.65724 0
M  V30 6168 H 598.904 -4.72964 -5.09244 0
M  V30 6169 H 602.095 -2.9669 -3.62067 0
M  V30 6170 H 602.268 -4.29944 -4.84822 0
M  V30 6171 N 595.674 1.31259 -0.872281 0
M  V30 6172 C 596.922 1.96233 -0.483409 0
M  V30 6173 C 597.243 1.69276 0.968012 0
M  V30 6174 O 596.513 1.00943 1.67891 0
M  V30 6175 H 595.093 0.726025 -0.175774 0
M  V30 6176 H 597.755 1.60024 -1.11258 0
M  V30 6177 H 596.851 3.05403 -0.643075 0
M  V30 6178 N 597.152 0.631951 1.44375 0
M  V30 6179 C 598.084 -0.110911 2.28931 0
M  V30 6180 C 599.097 -0.808086 1.41329 0
M  V30 6181 O 600.286 -0.669396 1.65473 0
M  V30 6182 C 597.386 -1.17928 3.1772 0
M  V30 6183 C 596.559 -0.564458 4.33743 0
M  V30 6184 C 595.618 -1.5269 5.0356 0
M  V30 6185 O 594.644 -1.04372 5.59549 0
M  V30 6186 N 595.846 -2.86123 5.05088 0
M  V30 6187 H 598.611 0.614758 2.93327 0
M  V30 6188 H 596.172 0.473171 1.54831 0
M  V30 6189 H 598.164 -1.82348 3.61291 0
M  V30 6190 H 596.734 -1.80717 2.55069 0
M  V30 6191 H 595.954 0.258373 3.93352 0
M  V30 6192 H 597.242 -0.134355 5.08623 0
M  V30 6193 H 596.64 -3.27959 4.60933 0
M  V30 6194 H 595.197 -3.45901 5.52445 0
M  V30 6195 N 598.631 -1.53133 0.372548 0
M  V30 6196 C 599.563 -2.23557 -0.505444 0
M  V30 6197 C 600.576 -1.25211 -1.04049 0
M  V30 6198 O 601.765 -1.51391 -0.945675 0
M  V30 6199 C 598.865 -2.92516 -1.71136 0
M  V30 6200 C 598.038 -4.17428 -1.30661 0
M  V30 6201 C 597.097 -4.69535 -2.37536 0
M  V30 6202 O 596.123 -5.33042 -1.99637 0
M  V30 6203 N 597.325 -4.47947 -3.6922 0
M  V30 6204 H 600.09 -2.9954 0.0978259 0
M  V30 6205 H 597.651 -1.60684 0.198068 0
M  V30 6206 H 599.643 -3.24281 -2.42124 0
M  V30 6207 H 598.213 -2.19944 -2.22134 0
M  V30 6208 H 597.433 -3.91888 -0.426292 0
M  V30 6209 H 598.721 -4.98622 -1.01259 0
M  V30 6210 H 598.119 -3.97219 -4.02783 0
M  V30 6211 H 596.676 -4.84245 -4.36292 0
M  V30 6212 N 600.109 -0.101901 -1.5727 0
M  V30 6213 C 601.52 0.426173 -1.81771 0
M  V30 6214 C 601.871 1.67725 -1.01797 0
M  V30 6215 O 600.996 2.14958 -0.249386 0
M  V30 6216 C 601.591 0.779962 -3.297 0
M  V30 6217 C 600.15 1.25275 -3.54941 0
M  V30 6218 C 599.297 0.252814 -2.76145 0
M  V30 6219 H 602.248 -0.32726 -1.55289 0
M  V30 6220 H 602.269 1.63891 -3.43395 0
M  V30 6221 H 601.781 -0.130778 -3.8788 0
M  V30 6222 H 599.882 2.18097 -3.021 0
M  V30 6223 H 599.995 1.20988 -4.63572 0
M  V30 6224 H 598.359 0.736362 -2.43823 0
M  V30 6225 H 599.142 -0.650724 -3.37076 0
M  V30 6226 N 601.587 1.56661 0.17182 0
M  V30 6227 C 602.833 1.82235 0.889845 0
M  V30 6228 C 603.166 0.679673 1.81918 0
M  V30 6229 O 602.441 -0.318404 1.91876 0
M  V30 6230 C 602.724 3.18195 1.68595 0
M  V30 6231 C 602.577 4.42989 0.779773 0
M  V30 6232 C 603.896 3.5109 2.65375 0
M  V30 6233 H 601.015 0.66291 0.322056 0
M  V30 6234 H 603.657 1.89358 0.15608 0
M  V30 6235 H 601.807 3.12253 2.3115 0
M  V30 6236 H 603.479 4.60997 0.16714 0
M  V30 6237 H 601.722 4.33711 0.0877964 0
M  V30 6238 H 602.393 5.3467 1.3723 0
M  V30 6239 H 604.869 3.57482 2.12946 0
M  V30 6240 H 603.745 4.47298 3.18144 0
M  V30 6241 H 604.006 2.75768 3.45549 0
M  V30 6242 N 603.065 -0.440357 1.51323 0
M  V30 6243 C 604.028 -1.51679 1.71832 0
M  V30 6244 C 605.028 -1.49648 0.588386 0
M  V30 6245 O 606.218 -1.51724 0.855891 0
M  V30 6246 C 603.35 -2.91228 1.77199 0
M  V30 6247 H 604.543 -1.34799 2.67898 0
M  V30 6248 H 602.096 -0.66883 1.41267 0
M  V30 6249 H 602.831 -3.13516 0.829363 0
M  V30 6250 H 602.616 -2.94107 2.59314 0
M  V30 6251 H 604.106 -3.69321 1.94915 0
M  V30 6252 N 604.543 -1.41418 -0.695603 0
M  V30 6253 C 605.49 -1.43264 -1.80954 0
M  V30 6254 C 606.46 -0.287016 -1.63601 0
M  V30 6255 O 607.645 -0.488054 -1.84452 0
M  V30 6256 C 604.785 -1.32054 -3.18835 0
M  V30 6257 C 603.898 -2.56485 -3.4762 0
M  V30 6258 C 603.033 -2.3757 -4.75115 0
M  V30 6259 C 602.072 -3.57477 -4.96867 0
M  V30 6260 N 601.209 -3.37632 -6.15588 0
M  V30 6261 H 606.049 -2.38467 -1.78711 0
M  V30 6262 H 603.586 -1.18415 -0.872715 0
M  V30 6263 H 605.544 -1.23558 -3.98484 0
M  V30 6264 H 604.174 -0.404592 -3.20254 0
M  V30 6265 H 603.226 -2.75432 -2.62376 0
M  V30 6266 H 604.538 -3.45678 -3.59594 0
M  V30 6267 H 603.692 -2.2654 -5.62818 0
M  V30 6268 H 602.431 -1.45834 -4.65386 0
M  V30 6269 H 601.436 -3.68961 -4.07612 0
M  V30 6270 H 602.661 -4.50167 -5.08455 0
M  V30 6271 H 600.607 -2.48596 -6.07072 0
M  V30 6272 H 600.524 -4.20401 -6.2833 0
M  V30 6273 H 601.792 -3.30375 -7.06026 0
M  V30 6274 N 606.021 0.929856 -1.27246 0
M  V30 6275 C 606.984 2.01172 -1.09829 0
M  V30 6276 C 607.984 1.60743 -0.0429687 0
M  V30 6277 O 609.174 1.71813 -0.287373 0
M  V30 6278 C 606.306 3.34191 -0.673003 0
M  V30 6279 H 607.499 2.18054 -2.05895 0
M  V30 6280 H 605.052 1.11036 -1.10003 0
M  V30 6281 H 605.787 3.23009 0.289134 0
M  V30 6282 H 605.572 3.64892 -1.43515 0
M  V30 6283 H 607.062 4.13646 -0.573323 0
M  V30 6284 N 607.499 1.09233 1.13605 0
M  V30 6285 C 608.409 0.741939 2.22559 0
M  V30 6286 C 609.425 -0.255236 1.72118 0
M  V30 6287 O 610.601 -0.0970747 2.01166 0
M  V30 6288 C 607.666 0.165595 3.46304 0
M  V30 6289 C 606.727 1.21846 4.11645 0
M  V30 6290 C 605.96 0.669526 5.29484 0
M  V30 6291 O 606.183 -0.508228 5.68131 0
M  V30 6292 O 605.117 1.42361 5.84822 0
M  V30 6293 H 608.943 1.65107 2.54899 0
M  V30 6294 H 606.528 0.866584 1.21699 0
M  V30 6295 H 608.41 -0.152592 4.21124 0
M  V30 6296 H 607.085 -0.716573 3.15669 0
M  V30 6297 H 605.992 1.58931 3.38662 0
M  V30 6298 H 607.325 2.07321 4.46407 0
M  V30 6299 N 608.977 -1.30795 0.87923 0
M  V30 6300 C 610.225 -1.95974 0.493809 0
M  V30 6301 C 610.546 -1.69787 -0.959021 0
M  V30 6302 O 609.816 -1.01832 -1.67353 0
M  V30 6303 H 608.396 -0.725083 0.179622 0
M  V30 6304 H 611.058 -1.59432 1.12105 0
M  V30 6305 H 610.154 -3.05058 0.659263 0
M  V30 6306 N 610.455 -0.639598 -1.44038 0
M  V30 6307 C 611.68 -0.153117 -2.06834 0
M  V30 6308 C 612.105 1.16676 -1.47541 0
M  V30 6309 O 611.463 1.71769 -0.580093 0
M  V30 6310 C 611.511 -0.0609169 -3.60549 0
M  V30 6311 O 610.615 0.98071 -4.00569 0
M  V30 6312 H 609.956 -0.0886402 -0.658057 0
M  V30 6313 H 612.486 -0.878674 -1.84771 0
M  V30 6314 H 612.496 0.126892 -4.07803 0
M  V30 6315 H 611.171 -1.0245 -4.03084 0
M  V30 6316 H 609.748 0.766789 -3.64931 0
M  V30 6317 N 611.933 1.52934 -0.380664 0
M  V30 6318 C 613.344 1.86457 0.0952684 0
M  V30 6319 C 613.695 1.3007 1.46889 0
M  V30 6320 O 612.82 0.628636 2.07068 0
M  V30 6321 C 613.415 3.38323 0.179648 0
M  V30 6322 C 611.974 3.71589 0.599858 0
M  V30 6323 C 611.121 2.76228 -0.243572 0
M  V30 6324 H 614.072 1.46966 -0.59888 0
M  V30 6325 H 614.093 3.67113 1.00042 0
M  V30 6326 H 613.605 3.79333 -0.820228 0
M  V30 6327 H 611.706 3.36144 1.60742 0
M  V30 6328 H 611.819 4.77715 0.364003 0
M  V30 6329 H 610.183 2.53045 0.289855 0
M  V30 6330 H 610.966 3.20074 -1.24127 0
M  V30 6331 N 613.412 0.11024 1.57214 0
M  V30 6332 C 614.64 -0.557834 1.99238 0
M  V30 6333 C 615.055 -1.60778 0.989734 0
M  V30 6334 O 614.412 -1.82491 -0.0186092 0
M  V30 6335 C 614.463 -1.19189 3.41286 0
M  V30 6336 O 614.184 -0.183919 4.37714 0
M  V30 6337 C 615.685 -1.94413 3.98395 0
M  V30 6338 H 612.905 -0.148392 0.654386 0
M  V30 6339 H 615.449 0.193996 2.03578 0
M  V30 6340 H 613.604 -1.89456 3.37913 0
M  V30 6341 H 614.018 -0.643475 5.20538 0
M  V30 6342 H 615.492 -2.34116 4.99894 0
M  V30 6343 H 615.969 -2.81592 3.3705 0
M  V30 6344 H 616.575 -1.28928 4.05287 0
M  V30 6345 N 614.89 -1.56749 -0.16351 0
M  V30 6346 C 615.853 -1.96121 -1.18613 0
M  V30 6347 C 616.853 -0.845765 -1.36761 0
M  V30 6348 O 618.043 -1.11268 -1.34033 0
M  V30 6349 C 615.175 -2.26282 -2.54969 0
M  V30 6350 H 616.368 -2.87639 -0.848764 0
M  V30 6351 H 613.921 -1.50928 -0.406251 0
M  V30 6352 H 614.656 -1.37504 -2.93706 0
M  V30 6353 H 614.441 -3.07595 -2.43162 0
M  V30 6354 H 615.931 -2.57638 -3.28653 0
M  V30 6355 N 616.368 0.432326 -1.51554 0
M  V30 6356 C 617.617 1.17831 -1.63703 0
M  V30 6357 C 617.93 1.92229 -0.36156 0
M  V30 6358 O 619.136 2.69069 -0.362495 0
M  V30 6359 C 617.592 2.14318 -2.89129 0
M  V30 6360 C 617.2 1.45544 -4.23699 0
M  V30 6361 C 618.944 2.89319 -3.10636 0
M  V30 6362 C 616.851 2.40545 -5.4027 0
M  V30 6363 H 615.781 0.443533 -0.60975 0
M  V30 6364 H 618.432 0.444878 -1.78026 0
M  V30 6365 H 616.814 2.91117 -2.68452 0
M  V30 6366 H 617.988 0.742693 -4.54775 0
M  V30 6367 H 616.303 0.826772 -4.0811 0
M  V30 6368 H 618.9 3.60495 -3.94902 0
M  V30 6369 H 619.243 3.50951 -2.23918 0
M  V30 6370 H 619.776 2.19625 -3.31677 0
M  V30 6371 H 616.515 1.83594 -6.29264 0
M  V30 6372 H 616.035 3.09859 -5.13563 0
M  V30 6373 H 617.714 3.01569 -5.72421 0
M  V30 6374 N 617.846 1.41785 0.688094 0
M  V30 6375 C 618.776 1.47 1.8142 0
M  V30 6376 C 619.757 0.327881 1.6691 0
M  V30 6377 O 620.942 0.540362 1.86531 0
M  V30 6378 C 618.072 1.35876 3.19617 0
M  V30 6379 C 617.026 2.47976 3.48844 0
M  V30 6380 C 616.352 2.21915 4.86475 0
M  V30 6381 C 617.652 3.90309 3.47068 0
M  V30 6382 H 619.346 2.41247 1.77314 0
M  V30 6383 H 616.892 1.16116 0.851651 0
M  V30 6384 H 618.845 1.38134 3.98117 0
M  V30 6385 H 617.569 0.38116 3.24368 0
M  V30 6386 H 616.228 2.45013 2.72698 0
M  V30 6387 H 615.876 1.2248 4.8786 0
M  V30 6388 H 615.576 2.97037 5.06994 0
M  V30 6389 H 617.1 2.25901 5.67275 0
M  V30 6390 H 618.514 3.94947 4.1556 0
M  V30 6391 H 616.911 4.65175 3.7912 0
M  V30 6392 H 617.981 4.17927 2.45896 0
M  V30 6393 N 619.324 -0.923095 1.27737 0
M  V30 6394 C 620.573 -1.66581 1.13727 0
M  V30 6395 C 620.886 -1.9304 -0.315433 0
M  V30 6396 O 622.092 -2.65309 -0.57651 0
M  V30 6397 C 620.548 -3.00047 1.98745 0
M  V30 6398 C 620.156 -2.8127 3.48699 0
M  V30 6399 C 621.9 -3.77887 1.93395 0
M  V30 6400 C 619.807 -4.1032 4.25901 0
M  V30 6401 H 618.737 -0.624834 0.422017 0
M  V30 6402 H 621.388 -1.02514 1.52194 0
M  V30 6403 H 619.77 -3.65197 1.53125 0
M  V30 6404 H 620.944 -2.24859 4.02213 0
M  V30 6405 H 619.259 -2.16854 3.55476 0
M  V30 6406 H 621.856 -4.73526 2.48348 0
M  V30 6407 H 622.199 -4.06264 0.908605 0
M  V30 6408 H 622.732 -3.19541 2.36935 0
M  V30 6409 H 619.471 -3.8712 5.28978 0
M  V30 6410 H 618.991 -4.66377 3.77163 0
M  V30 6411 H 620.67 -4.78648 4.35321 0
M  V30 6412 N 620.802 -1.09834 -1.13024 0
M  V30 6413 C 622.05 -0.835297 -1.8403 0
M  V30 6414 C 622.371 0.640944 -1.84165 0
M  V30 6415 O 621.641 1.46517 -1.30037 0
M  V30 6416 H 620.221 -0.306018 -0.681441 0
M  V30 6417 H 622.883 -1.38734 -1.36891 0
M  V30 6418 H 621.979 -1.19258 -2.88416 0
M  V30 6419 N 622.28 1.30327 -0.886154 0
M  V30 6420 C 623.52 1.97886 -0.511912 0
M  V30 6421 C 623.884 1.68417 0.921944 0
M  V30 6422 O 625.085 2.29319 1.40237 0
M  V30 6423 C 623.356 3.48775 -0.780444 0
M  V30 6424 S 624.915 4.35844 -0.508482 0
M  V30 6425 H 621.733 0.685024 -0.190428 0
M  V30 6426 H 624.335 1.58413 -1.14567 0
M  V30 6427 H 623.039 3.67714 -1.82248 0
M  V30 6428 H 622.57 3.93171 -0.134284 0
M  V30 6429 H 624.585 4.91893 0.65239 0
M  V30 6430 N 623.758 0.647228 1.43697 0
M  V30 6431 C 624.688 -0.0345631 2.33474 0
M  V30 6432 C 625.669 -0.818193 1.4913 0
M  V30 6433 O 626.854 -0.780867 1.77809 0
M  V30 6434 C 623.984 -1.00576 3.32418 0
M  V30 6435 C 622.938 -0.33266 4.26705 0
M  V30 6436 C 622.264 -1.41489 5.1564 0
M  V30 6437 C 623.564 0.771204 5.16575 0
M  V30 6438 H 625.258 0.715163 2.90733 0
M  V30 6439 H 622.804 0.345364 1.39797 0
M  V30 6440 H 624.757 -1.49159 3.94119 0
M  V30 6441 H 623.481 -1.78657 2.73403 0
M  V30 6442 H 622.14 0.13267 3.6636 0
M  V30 6443 H 621.788 -2.18698 4.52968 0
M  V30 6444 H 621.488 -0.969799 5.79542 0
M  V30 6445 H 623.012 -1.9022 5.80214 0
M  V30 6446 H 624.426 0.36779 5.72119 0
M  V30 6447 H 622.823 1.1404 5.89165 0
M  V30 6448 H 623.893 1.63169 4.56622 0
M  V30 6449 N 625.236 -1.5273 0.388769 0
M  V30 6450 C 626.482 -2.01871 -0.193877 0
M  V30 6451 C 626.815 -1.27475 -1.46505 0
M  V30 6452 O 626.09 -0.375063 -1.90849 0
M  V30 6453 C 626.373 -3.5712 -0.462336 0
M  V30 6454 C 626.226 -4.42186 0.824091 0
M  V30 6455 C 627.545 -4.21881 -1.25319 0
M  V30 6456 H 624.664 -0.733764 -0.0689899 0
M  V30 6457 H 627.306 -1.82796 0.518231 0
M  V30 6458 H 625.456 -3.73504 -1.06896 0
M  V30 6459 H 627.128 -4.37554 1.46096 0
M  V30 6460 H 625.371 -4.09219 1.43952 0
M  V30 6461 H 626.042 -5.48828 0.590905 0
M  V30 6462 H 628.518 -4.0947 -0.73981 0
M  V30 6463 H 627.394 -5.30487 -1.40977 0
M  V30 6464 H 627.655 -3.79478 -2.26824 0
M  V30 6465 N 626.714 -0.118576 -1.57153 0
M  V30 6466 C 627.677 0.817464 -2.14127 0
M  V30 6467 C 628.677 1.1949 -1.07604 0
M  V30 6468 O 629.867 1.12048 -1.33382 0
M  V30 6469 C 626.999 2.10541 -2.68115 0
M  V30 6470 H 628.192 0.322339 -2.98163 0
M  V30 6471 H 625.745 0.130655 -1.55753 0
M  V30 6472 H 626.48 2.64485 -1.87665 0
M  V30 6473 H 626.265 1.84425 -3.4602 0
M  V30 6474 H 627.755 2.77453 -3.12105 0
M  V30 6475 N 628.193 1.56834 0.155195 0
M  V30 6476 C 629.442 1.82088 0.867567 0
M  V30 6477 C 629.755 0.69849 1.82703 0
M  V30 6478 O 630.961 0.836407 2.58295 0
M  V30 6479 C 629.417 3.22707 1.59336 0
M  V30 6480 C 629.025 4.42859 0.676719 0
M  V30 6481 C 630.769 3.57242 2.293 0
M  V30 6482 C 628.676 5.74501 1.40367 0
M  V30 6483 H 627.606 0.679057 0.327715 0
M  V30 6484 H 630.257 1.83105 0.120351 0
M  V30 6485 H 628.639 3.16054 2.38591 0
M  V30 6486 H 629.813 4.60731 -0.0800196 0
M  V30 6487 H 628.128 4.16311 0.0859129 0
M  V30 6488 H 630.725 4.52847 2.84312 0
M  V30 6489 H 631.068 2.82901 3.05406 0
M  V30 6490 H 631.601 3.6552 1.56972 0
M  V30 6491 H 628.34 6.51915 0.684623 0
M  V30 6492 H 627.86 5.60579 2.13332 0
M  V30 6493 H 629.539 6.17016 1.94681 0
M  V30 6494 N 629.671 -0.424282 1.51781 0
M  V30 6495 C 630.92 -1.16961 1.64326 0
M  V30 6496 C 631.233 -1.92035 0.371749 0
M  V30 6497 O 632.439 -2.68873 0.37676 0
M  V30 6498 C 630.895 -2.12782 2.90262 0
M  V30 6499 C 630.503 -1.43295 4.24465 0
M  V30 6500 C 632.247 -2.87667 3.12166 0
M  V30 6501 C 630.154 -2.37676 5.41538 0
M  V30 6502 H 629.084 -0.440293 0.612093 0
M  V30 6503 H 631.735 -0.435431 1.78259 0
M  V30 6504 H 630.117 -2.8969 2.69992 0
M  V30 6505 H 631.291 -0.718564 4.55163 0
M  V30 6506 H 629.606 -0.805118 4.08542 0
M  V30 6507 H 632.203 -3.58395 3.96808 0
M  V30 6508 H 632.546 -3.49758 2.25776 0
M  V30 6509 H 633.079 -2.17863 3.32837 0
M  V30 6510 H 629.818 -1.80255 6.30229 0
M  V30 6511 H 629.338 -3.07132 5.15199 0
M  V30 6512 H 631.017 -2.98529 5.74012 0
M  V30 6513 N 631.149 -1.42148 -0.680565 0
M  V30 6514 C 632.079 -1.4796 -1.80638 0
M  V30 6515 C 633.06 -0.336728 -1.66734 0
M  V30 6516 O 634.245 -0.550247 -1.86242 0
M  V30 6517 C 631.375 -1.37569 -3.18892 0
M  V30 6518 C 630.329 -2.49823 -3.47524 0
M  V30 6519 C 629.655 -2.24491 -4.85291 0
M  V30 6520 C 630.955 -3.92144 -3.44994 0
M  V30 6521 H 632.649 -2.42184 -1.76032 0
M  V30 6522 H 630.195 -1.16566 -0.845481 0
M  V30 6523 H 632.148 -1.40243 -3.97379 0
M  V30 6524 H 630.872 -0.398357 -3.24162 0
M  V30 6525 H 629.531 -2.46455 -2.71395 0
M  V30 6526 H 629.179 -1.25066 -4.87204 0
M  V30 6527 H 628.879 -2.99722 -5.05411 0
M  V30 6528 H 630.403 -2.28906 -5.66069 0
M  V30 6529 H 631.817 -3.97145 -4.13459 0
M  V30 6530 H 630.214 -4.67179 -3.76648 0
M  V30 6531 H 631.284 -4.19225 -2.43676 0
M  V30 6532 N 632.627 0.916307 -1.28225 0
M  V30 6533 C 633.557 2.0352 -1.14464 0
M  V30 6534 C 634.538 1.70045 -0.0430844 0
M  V30 6535 O 635.723 1.92954 -0.219619 0
M  V30 6536 C 632.853 3.37889 -0.803027 0
M  V30 6537 C 631.807 3.85516 -1.85908 0
M  V30 6538 C 631.133 5.1682 -1.37116 0
M  V30 6539 C 632.433 4.07655 -3.26519 0
M  V30 6540 H 634.127 2.1529 -2.08064 0
M  V30 6541 H 631.673 1.03446 -1.00174 0
M  V30 6542 H 633.626 4.15654 -0.693537 0
M  V30 6543 H 632.35 3.26164 0.168674 0
M  V30 6544 H 631.009 3.09953 -1.95767 0
M  V30 6545 H 630.657 5.01497 -0.38859 0
M  V30 6546 H 630.357 5.49657 -2.07728 0
M  V30 6547 H 631.881 5.97143 -1.27484 0
M  V30 6548 H 633.295 4.75953 -3.19596 0
M  V30 6549 H 631.692 4.51818 -3.94943 0
M  V30 6550 H 632.762 3.12553 -3.70727 0
M  V30 6551 N 634.105 1.10431 1.1244 0
M  V30 6552 C 635.035 0.775143 2.20258 0
M  V30 6553 C 636.016 -0.25186 1.68225 0
M  V30 6554 O 637.201 -0.117637 1.93843 0
M  V30 6555 C 634.331 0.206133 3.46688 0
M  V30 6556 C 633.285 1.16382 4.11873 0
M  V30 6557 C 632.611 0.456014 5.32752 0
M  V30 6558 C 633.911 2.5104 4.58013 0
M  V30 6559 H 635.605 1.67665 2.4805 0
M  V30 6560 H 633.151 0.807595 1.19222 0
M  V30 6561 H 635.104 -0.036291 4.21384 0
M  V30 6562 H 633.828 -0.730614 3.18323 0
M  V30 6563 H 632.487 1.39169 3.39157 0
M  V30 6564 H 632.135 -0.485203 5.00654 0
M  V30 6565 H 631.835 1.09466 5.77314 0
M  V30 6566 H 633.359 0.222135 6.10196 0
M  V30 6567 H 634.773 2.32401 5.24083 0
M  V30 6568 H 633.17 3.10789 5.13352 0
M  V30 6569 H 634.24 3.11039 3.71998 0
M  V30 6570 N 635.583 -1.29855 0.893053 0
M  V30 6571 C 636.513 -2.3035 0.382249 0
M  V30 6572 C 637.494 -1.61328 -0.539203 0
M  V30 6573 O 638.679 -1.88882 -0.451342 0
M  V30 6574 C 635.809 -3.45024 -0.396983 0
M  V30 6575 C 634.763 -4.258 0.433437 0
M  V30 6576 C 634.089 -5.32605 -0.472889 0
M  V30 6577 C 635.389 -4.94549 1.67984 0
M  V30 6578 H 637.083 -2.73325 1.22205 0
M  V30 6579 H 634.629 -1.314 0.589073 0
M  V30 6580 H 636.582 -4.14398 -0.765024 0
M  V30 6581 H 635.306 -3.00875 -1.2705 0
M  V30 6582 H 633.965 -3.58125 0.783723 0
M  V30 6583 H 633.613 -4.84702 -1.34435 0
M  V30 6584 H 633.313 -5.87547 0.0789958 0
M  V30 6585 H 634.837 -6.04832 -0.837269 0
M  V30 6586 H 636.251 -5.56395 1.38192 0
M  V30 6587 H 634.648 -5.59393 2.17254 0
M  V30 6588 H 635.718 -4.20215 2.41965 0
M  V30 6589 N 637.061 -0.65484 -1.43351 0
M  V30 6590 C 637.991 0.0221809 -2.33489 0
M  V30 6591 C 638.972 0.810272 -1.49561 0
M  V30 6592 O 640.157 0.771426 -1.78221 0
M  V30 6593 C 637.287 0.988117 -3.32947 0
M  V30 6594 C 636.241 0.310026 -4.26876 0
M  V30 6595 C 635.567 1.38752 -5.16384 0
M  V30 6596 C 636.867 -0.798589 -5.16159 0
M  V30 6597 H 638.561 -0.730571 -2.9035 0
M  V30 6598 H 636.107 -0.352773 -1.39612 0
M  V30 6599 H 638.06 1.47067 -3.94904 0
M  V30 6600 H 636.784 1.77205 -2.74346 0
M  V30 6601 H 635.443 -0.152097 -3.66284 0
M  V30 6602 H 635.091 2.16293 -4.54121 0
M  V30 6603 H 634.791 0.939051 -5.80048 0
M  V30 6604 H 636.315 1.87141 -5.81215 0
M  V30 6605 H 637.729 -0.398126 -5.71916 0
M  V30 6606 H 636.126 -1.17163 -5.88552 0
M  V30 6607 H 637.196 -1.65588 -4.55751 0
M  V30 6608 N 638.539 1.52521 -0.396863 0
M  V30 6609 C 639.788 2.00857 0.184184 0
M  V30 6610 C 640.101 1.28733 1.47265 0
M  V30 6611 O 641.307 1.67821 2.13421 0
M  V30 6612 C 639.763 3.57901 0.378787 0
M  V30 6613 C 639.371 4.38931 -0.896873 0
M  V30 6614 C 641.115 4.14504 0.915789 0
M  V30 6615 C 639.022 5.87591 -0.670133 0
M  V30 6616 H 637.952 0.750496 0.0726055 0
M  V30 6617 H 640.603 1.75965 -0.520425 0
M  V30 6618 H 638.985 3.79072 1.14543 0
M  V30 6619 H 640.159 4.29524 -1.66872 0
M  V30 6620 H 638.474 3.93586 -1.35938 0
M  V30 6621 H 641.071 5.23236 1.10126 0
M  V30 6622 H 641.414 3.71076 1.88701 0
M  V30 6623 H 641.947 3.97253 0.208523 0
M  V30 6624 H 638.686 6.35355 -1.61257 0
M  V30 6625 H 638.206 5.99767 0.0626368 0
M  V30 6626 H 639.885 6.46268 -0.307577 0
M  V30 6627 N 640.017 0.126909 1.57088 0
M  V30 6628 C 641.266 -0.529024 1.94639 0
M  V30 6629 C 641.579 -1.67323 1.01304 0
M  V30 6630 O 642.785 -2.39245 1.28352 0
M  V30 6631 C 641.241 -0.992483 3.45945 0
M  V30 6632 C 640.849 0.123691 4.47829 0
M  V30 6633 C 642.593 -1.61934 3.924 0
M  V30 6634 C 640.5 -0.356911 5.90322 0
M  V30 6635 H 639.43 -0.201397 0.726605 0
M  V30 6636 H 642.081 0.208032 1.82317 0
M  V30 6637 H 640.463 -1.7842 3.53528 0
M  V30 6638 H 641.637 0.900168 4.51922 0
M  V30 6639 H 639.952 0.657699 4.11173 0
M  V30 6640 H 642.549 -1.9902 4.96281 0
M  V30 6641 H 642.892 -2.50075 3.32819 0
M  V30 6642 H 643.425 -0.892894 3.8765 0
M  V30 6643 H 640.164 0.488636 6.53676 0
M  V30 6644 H 639.684 -1.0997 5.89633 0
M  V30 6645 H 641.363 -0.815547 6.41839 0
M  V30 6646 N 641.495 -1.56914 -0.146875 0
M  V30 6647 C 642.458 -1.97368 -1.16526 0
M  V30 6648 C 643.458 -0.860223 -1.35856 0
M  V30 6649 O 644.648 -1.12684 -1.32846 0
M  V30 6650 C 641.78 -2.28974 -2.52555 0
M  V30 6651 H 642.973 -2.88523 -0.818209 0
M  V30 6652 H 640.526 -1.5135 -0.390221 0
M  V30 6653 H 641.261 -1.40611 -2.92231 0
M  V30 6654 H 641.046 -3.10157 -2.39886 0
M  V30 6655 H 642.536 -2.61109 -3.25902 0
M  V30 6656 N 642.974 0.416227 -1.52004 0
M  V30 6657 C 643.904 1.51365 -1.77795 0
M  V30 6658 C 644.885 1.58059 -0.628601 0
M  V30 6659 O 646.07 1.73447 -0.873478 0
M  V30 6660 C 643.2 2.89256 -1.92219 0
M  V30 6661 C 642.154 2.97415 -3.0778 0
M  V30 6662 C 641.48 4.37492 -3.07417 0
M  V30 6663 C 642.78 2.69551 -4.47369 0
M  V30 6664 H 644.474 1.30033 -2.69688 0
M  V30 6665 H 642.02 0.624112 -1.29772 0
M  V30 6666 H 643.973 3.66008 -2.08845 0
M  V30 6667 H 642.697 3.11866 -0.969917 0
M  V30 6668 H 641.356 2.23107 -2.90893 0
M  V30 6669 H 641.004 4.571 -2.09925 0
M  V30 6670 H 640.704 4.43877 -3.85029 0
M  V30 6671 H 642.228 5.16188 -3.26162 0
M  V30 6672 H 643.642 3.36028 -4.64497 0
M  V30 6673 H 642.039 2.87321 -5.26846 0
M  V30 6674 H 643.109 1.65029 -4.55953 0
M  V30 6675 N 644.452 1.42507 0.673017 0
M  V30 6676 C 645.385 1.40557 1.79774 0
M  V30 6677 C 646.363 0.269606 1.60349 0
M  V30 6678 O 647.547 0.460105 1.82798 0
M  V30 6679 C 644.674 1.19815 3.168 0
M  V30 6680 C 643.72 2.36429 3.5497 0
M  V30 6681 S 644.553 3.98963 3.57196 0
M  V30 6682 C 645.709 3.80567 4.9691 0
M  V30 6683 H 645.942 2.35734 1.81154 0
M  V30 6684 H 643.475 1.293 0.843846 0
M  V30 6685 H 645.433 1.08535 3.95892 0
M  V30 6686 H 644.094 0.262215 3.13004 0
M  V30 6687 H 643.287 2.17669 4.54573 0
M  V30 6688 H 642.889 2.44233 2.83242 0
M  V30 6689 H 645.181 3.41668 5.85038 0
M  V30 6690 H 646.124 4.79852 5.20718 0
M  V30 6691 H 646.532 3.13399 4.69512 0
M  V30 6692 N 645.93 -0.909495 1.28709 0
M  V30 6693 C 646.86 -2.0291 1.15542 0
M  V30 6694 C 647.841 -1.7002 0.0521017 0
M  V30 6695 O 649.026 -1.92835 0.229849 0
M  V30 6696 C 646.156 -3.37458 0.820935 0
M  V30 6697 C 645.11 -3.84524 1.87949 0
M  V30 6698 C 644.436 -5.16086 1.39854 0
M  V30 6699 C 645.736 -4.05918 3.28676 0
M  V30 6700 H 647.43 -2.14183 2.09203 0
M  V30 6701 H 644.976 -1.02913 1.00722 0
M  V30 6702 H 646.929 -4.1528 0.715571 0
M  V30 6703 H 645.653 -3.26249 -0.151374 0
M  V30 6704 H 644.312 -3.08911 1.97408 0
M  V30 6705 H 643.96 -5.01284 0.41518 0
M  V30 6706 H 643.66 -5.48547 2.1064 0
M  V30 6707 H 645.184 -5.96459 1.30649 0
M  V30 6708 H 646.598 -4.74252 3.22115 0
M  V30 6709 H 644.995 -4.49717 3.97334 0
M  V30 6710 H 646.065 -3.10583 3.72379 0
M  V30 6711 N 647.408 -1.11026 -1.11852 0
M  V30 6712 C 648.654 -0.867633 -1.83967 0
M  V30 6713 C 649.009 0.600309 -1.82795 0
M  V30 6714 O 648.302 1.43731 -1.26696 0
M  V30 6715 C 648.496 -1.35777 -3.30604 0
M  V30 6716 C 648.325 -2.87183 -3.46058 0
M  V30 6717 C 647.095 -3.55256 -3.59334 0
M  V30 6718 C 649.293 -3.85258 -3.40706 0
M  V30 6719 N 647.275 -4.94923 -3.63215 0
M  V30 6720 C 648.646 -5.1097 -3.51155 0
M  V30 6721 C 650.701 -3.77879 -3.2421 0
M  V30 6722 C 649.404 -6.30171 -3.46809 0
M  V30 6723 C 651.43 -4.96586 -3.2118 0
M  V30 6724 C 650.792 -6.21149 -3.32196 0
M  V30 6725 H 646.891 -0.370574 -0.688621 0
M  V30 6726 H 649.475 -1.41379 -1.33865 0
M  V30 6727 H 647.646 -0.83885 -3.79233 0
M  V30 6728 H 649.378 -1.05874 -3.90606 0
M  V30 6729 H 646.133 -3.05714 -3.61713 0
M  V30 6730 H 646.557 -5.67726 -3.68804 0
M  V30 6731 H 651.199 -2.82485 -3.14582 0
M  V30 6732 H 648.917 -7.25847 -3.55206 0
M  V30 6733 H 652.503 -4.92591 -3.09589 0
M  V30 6734 H 651.383 -7.11463 -3.29834 0
M  V30 6735 N 648.886 1.2938 -0.899927 0
M  V30 6736 C 650.302 1.48052 -0.596059 0
M  V30 6737 C 650.502 1.82114 0.862372 0
M  V30 6738 O 649.558 1.91774 1.64253 0
M  V30 6739 C 650.871 2.59332 -1.52208 0
M  V30 6740 C 652.419 2.73208 -1.5273 0
M  V30 6741 C 652.894 3.87617 -2.43961 0
M  V30 6742 N 654.385 3.9495 -2.42009 0
M  V30 6743 C 655.12 4.82824 -3.09303 0
M  V30 6744 N 654.616 5.75387 -3.85877 0
M  V30 6745 N 656.409 4.76317 -2.98459 0
M  V30 6746 H 648.56 1.05546 -1.8432 0
M  V30 6747 H 650.823 0.524314 -0.78981 0
M  V30 6748 H 650.529 2.41029 -2.56121 0
M  V30 6749 H 650.403 3.56139 -1.24278 0
M  V30 6750 H 652.79 2.90908 -0.495614 0
M  V30 6751 H 652.871 1.76975 -1.84698 0
M  V30 6752 H 652.515 3.70672 -3.47224 0
M  V30 6753 H 652.445 4.83218 -2.09303 0
M  V30 6754 H 654.936 3.28744 -1.86375 0
M  V30 6755 H 655.249 6.39235 -4.34279 0
M  V30 6756 H 653.594 5.75272 -3.89984 0
M  V30 6757 H 656.785 4.0299 -2.38152 0
M  V30 6758 H 656.958 5.44589 -3.51179 0
M  V30 6759 N 650.364 0.662433 1.43002 0
M  V30 6760 C 651.294 -0.00979809 2.33498 0
M  V30 6761 C 652.275 -0.802329 1.49989 0
M  V30 6762 O 653.46 -0.761964 1.78627 0
M  V30 6763 C 650.59 -0.970446 3.33466 0
M  V30 6764 C 649.544 -0.287383 4.27034 0
M  V30 6765 C 648.87 -1.36012 5.17112 0
M  V30 6766 C 650.17 0.82595 5.15728 0
M  V30 6767 H 651.864 0.745959 2.89958 0
M  V30 6768 H 649.41 0.360172 1.39423 0
M  V30 6769 H 651.363 -1.44971 3.95679 0
M  V30 6770 H 650.087 -1.75748 2.75282 0
M  V30 6771 H 648.746 0.17152 3.66199 0
M  V30 6772 H 648.394 -2.13882 4.55262 0
M  V30 6773 H 648.094 -0.908276 5.80538 0
M  V30 6774 H 649.618 -1.84056 5.82199 0
M  V30 6775 H 651.032 0.42845 5.71697 0
M  V30 6776 H 649.429 1.20282 5.87922 0
M  V30 6777 H 650.499 1.68003 4.54866 0
M  V30 6778 N 651.842 -1.52309 0.404946 0
M  V30 6779 C 652.792 -2.23717 -0.439864 0
M  V30 6780 C 653.776 -1.24692 -1.0169 0
M  V30 6781 O 654.968 -1.49951 -0.940409 0
M  V30 6782 C 652.097 -3.05898 -1.55825 0
M  V30 6783 C 651.183 -4.12331 -0.992188 0
M  V30 6784 N 651.574 -5.0557 -0.152424 0
M  V30 6785 C 649.872 -4.2774 -1.26312 0
M  V30 6786 C 650.573 -5.81474 0.162041 0
M  V30 6787 N 649.549 -5.41767 -0.44601 0
M  V30 6788 H 653.351 -2.93162 0.208084 0
M  V30 6789 H 650.865 -1.60969 0.215131 0
M  V30 6790 H 652.862 -3.55605 -2.17603 0
M  V30 6791 H 651.522 -2.37991 -2.20886 0
M  V30 6792 H 652.533 -5.17468 0.211556 0
M  V30 6793 H 649.21 -3.71062 -1.91362 0
M  V30 6794 H 650.6 -6.66585 0.843423 0
M  V30 6795 N 653.32 -0.135238 -1.57019 0
M  V30 6796 C 654.566 0.513232 -1.96818 0
M  V30 6797 C 654.921 1.63245 -1.01827 0
M  V30 6798 O 654.214 1.91532 -0.0511756 0
M  V30 6799 C 654.408 1.07694 -3.40788 0
M  V30 6800 C 654.237 0.0138667 -4.49698 0
M  V30 6801 C 653.007 -0.423532 -5.03522 0
M  V30 6802 C 655.205 -0.77322 -5.08454 0
M  V30 6803 N 653.187 -1.47068 -5.96024 0
M  V30 6804 C 654.558 -1.67115 -5.97053 0
M  V30 6805 C 656.613 -0.822313 -4.91063 0
M  V30 6806 C 655.316 -2.61395 -6.70123 0
M  V30 6807 C 657.342 -1.75288 -5.64826 0
M  V30 6808 C 656.704 -2.63836 -6.53123 0
M  V30 6809 H 652.803 0.156956 -0.766087 0
M  V30 6810 H 655.387 -0.227118 -1.93371 0
M  V30 6811 H 653.558 1.78694 -3.44852 0
M  V30 6812 H 655.29 1.69106 -3.67675 0
M  V30 6813 H 652.045 -0.0280202 -4.73592 0
M  V30 6814 H 652.469 -1.99366 -6.46979 0
M  V30 6815 H 657.111 -0.151822 -4.22527 0
M  V30 6816 H 654.829 -3.2945 -7.37895 0
M  V30 6817 H 658.415 -1.79652 -5.53368 0
M  V30 6818 H 657.295 -3.34672 -7.092 0
M  V30 6819 N 654.798 1.5699 0.138552 0
M  V30 6820 C 656.214 1.51844 0.491472 0
M  V30 6821 C 656.414 0.845063 1.82923 0
M  V30 6822 O 655.47 0.419143 2.48997 0
M  V30 6823 C 656.783 2.96615 0.493987 0
M  V30 6824 C 658.331 3.076 0.578913 0
M  V30 6825 C 658.806 4.53893 0.612009 0
M  V30 6826 N 660.297 4.5827 0.673997 0
M  V30 6827 C 661.032 5.68852 0.720729 0
M  V30 6828 N 660.528 6.88982 0.726292 0
M  V30 6829 N 662.321 5.56908 0.762253 0
M  V30 6830 H 654.472 1.99158 -0.738228 0
M  V30 6831 H 656.735 0.908693 -0.270149 0
M  V30 6832 H 656.441 3.49172 -0.420933 0
M  V30 6833 H 656.315 3.53017 1.32887 0
M  V30 6834 H 658.702 2.55057 1.48425 0
M  V30 6835 H 658.783 2.54227 -0.283286 0
M  V30 6836 H 658.427 5.07076 -0.289208 0
M  V30 6837 H 658.357 5.05057 1.49082 0
M  V30 6838 H 660.848 3.71793 0.676654 0
M  V30 6839 H 661.161 7.69014 0.764032 0
M  V30 6840 H 659.506 6.91526 0.69403 0
M  V30 6841 H 662.697 4.61969 0.755135 0
M  V30 6842 H 662.87 6.43102 0.795207 0
M  V30 6843 N 656.276 -0.40816 1.52223 0
M  V30 6844 C 657.692 -0.74685 1.41047 0
M  V30 6845 C 657.892 -1.94788 0.51573 0
M  V30 6846 O 656.948 -2.52494 -0.0181156 0
M  V30 6847 C 658.261 -0.999878 2.83589 0
M  V30 6848 C 659.809 -1.10253 2.92939 0
M  V30 6849 C 660.284 -1.38832 4.36451 0
M  V30 6850 N 661.775 -1.45694 4.3969 0
M  V30 6851 C 662.51 -1.69435 5.47795 0
M  V30 6852 N 662.006 -1.90774 6.66016 0
M  V30 6853 N 663.799 -1.71458 5.35312 0
M  V30 6854 H 655.95 0.382409 2.08929 0
M  V30 6855 H 658.213 0.108807 0.941735 0
M  V30 6856 H 657.919 -0.189723 3.51188 0
M  V30 6857 H 657.793 -1.91978 3.24691 0
M  V30 6858 H 660.18 -1.90328 2.2552 0
M  V30 6859 H 660.261 -0.160973 2.55293 0
M  V30 6860 H 659.905 -0.592741 5.04429 0
M  V30 6861 H 659.835 -2.34241 4.71634 0
M  V30 6862 H 662.326 -1.3099 3.54472 0
M  V30 6863 H 662.639 -2.08342 7.44186 0
M  V30 6864 H 660.984 -1.88037 6.69079 0
M  V30 6865 H 664.175 -1.54326 4.41929 0
M  V30 6866 H 664.348 -1.89621 6.19635 0
M  V30 6867 N 657.755 -1.42862 -0.66545 0
M  V30 6868 C 658.685 -1.49867 -1.79059 0
M  V30 6869 C 659.666 -0.354394 -1.66367 0
M  V30 6870 O 660.851 -0.569969 -1.85647 0
M  V30 6871 C 657.981 -1.40943 -3.17415 0
M  V30 6872 C 656.935 -2.53495 -3.44854 0
M  V30 6873 C 656.261 -2.29626 -4.82883 0
M  V30 6874 C 657.561 -3.95781 -3.40815 0
M  V30 6875 H 659.255 -2.44037 -1.73453 0
M  V30 6876 H 656.801 -1.17456 -0.833071 0
M  V30 6877 H 658.754 -1.4445 -3.95869 0
M  V30 6878 H 657.478 -0.432716 -3.23721 0
M  V30 6879 H 656.137 -2.4932 -2.68766 0
M  V30 6880 H 655.785 -1.30226 -4.8585 0
M  V30 6881 H 655.485 -3.05065 -5.02204 0
M  V30 6882 H 657.009 -2.34897 -5.63609 0
M  V30 6883 H 658.423 -4.01508 -4.09224 0
M  V30 6884 H 656.82 -4.71148 -3.71672 0
M  V30 6885 H 657.89 -4.21786 -2.39216 0
M  V30 6886 N 659.233 0.902656 -1.29189 0
M  V30 6887 C 660.163 2.02294 -1.16616 0
M  V30 6888 C 661.144 1.6999 -0.0611175 0
M  V30 6889 O 662.329 1.9271 -0.240072 0
M  V30 6890 C 659.459 3.37018 -0.83882 0
M  V30 6891 C 658.413 3.83522 -1.89986 0
M  V30 6892 C 657.739 5.15337 -1.42589 0
M  V30 6893 C 659.039 4.04169 -3.30824 0
M  V30 6894 H 660.733 2.13071 -2.10336 0
M  V30 6895 H 658.279 1.02378 -1.01266 0
M  V30 6896 H 660.232 4.14895 -0.737584 0
M  V30 6897 H 658.956 3.26325 0.134071 0
M  V30 6898 H 657.615 3.07859 -1.99043 0
M  V30 6899 H 657.263 5.01056 -0.441759 0
M  V30 6900 H 656.963 5.47423 -2.13547 0
M  V30 6901 H 658.487 5.95758 -1.3381 0
M  V30 6902 H 659.901 4.72537 -3.24626 0
M  V30 6903 H 658.298 4.47604 -3.99713 0
M  V30 6904 H 659.368 3.08604 -3.74021 0
M  V30 6905 N 660.711 1.11618 1.11262 0
M  V30 6906 C 661.936 0.889013 1.8738 0
M  V30 6907 C 662.361 -0.555884 1.79698 0
M  V30 6908 O 661.719 -1.39272 1.16073 0
M  V30 6909 C 661.767 1.35759 3.34069 0
M  V30 6910 O 660.871 0.530499 4.08974 0
M  V30 6911 H 660.212 0.320082 0.581759 0
M  V30 6912 H 662.742 1.48611 1.40627 0
M  V30 6913 H 662.752 1.35291 3.84916 0
M  V30 6914 H 661.427 2.40973 3.38976 0
M  V30 6915 H 660.004 0.601439 3.68018 0
M  V30 6916 N 662.189 -1.289 0.906776 0
M  V30 6917 C 663.136 -2.2751 0.388313 0
M  V30 6918 C 664.106 -1.57301 -0.533439 0
M  V30 6919 O 665.291 -1.85243 -0.457148 0
M  V30 6920 C 662.431 -3.43091 -0.37181 0
M  V30 6921 C 661.544 -4.28066 0.581647 0
M  V30 6922 C 660.679 -5.30837 -0.19623 0
M  V30 6923 C 659.718 -6.07472 0.751294 0
M  V30 6924 N 658.855 -7.021 0.00737727 0
M  V30 6925 H 663.695 -2.71237 1.23428 0
M  V30 6926 H 661.232 -1.33397 0.619962 0
M  V30 6927 H 663.19 -4.08888 -0.828641 0
M  V30 6928 H 661.82 -3.00374 -1.18218 0
M  V30 6929 H 660.872 -3.62378 1.157 0
M  V30 6930 H 662.184 -4.81382 1.30665 0
M  V30 6931 H 661.338 -6.02485 -0.71394 0
M  V30 6932 H 660.077 -4.78272 -0.954324 0
M  V30 6933 H 659.082 -5.34682 1.28044 0
M  V30 6934 H 660.307 -6.62126 1.50883 0
M  V30 6935 H 658.253 -6.51894 -0.732854 0
M  V30 6936 H 658.17 -7.53004 0.672334 0
M  V30 6937 H 659.438 -7.77956 -0.490365 0
M  V30 6938 N 663.667 -0.670007 -1.42649 0
M  V30 6939 C 664.63 0.00204659 -2.292 0
M  V30 6940 C 665.63 0.733817 -1.4308 0
M  V30 6941 O 666.82 0.57254 -1.64522 0
M  V30 6942 C 663.952 1.01359 -3.25483 0
M  V30 6943 H 665.145 -0.759696 -2.90118 0
M  V30 6944 H 662.698 -0.432105 -1.50208 0
M  V30 6945 H 663.433 1.80399 -2.69493 0
M  V30 6946 H 663.218 0.492323 -3.88997 0
M  V30 6947 H 664.708 1.4824 -3.90403 0
M  V30 6948 N 665.145 1.52092 -0.413018 0
M  V30 6949 C 666.055 2.30858 0.417318 0
M  V30 6950 C 667.071 1.38746 1.05003 0
M  V30 6951 O 668.247 1.71821 1.05069 0
M  V30 6952 C 665.312 3.11756 1.51687 0
M  V30 6953 C 664.373 4.19613 0.906825 0
M  V30 6954 C 663.606 4.96644 1.95399 0
M  V30 6955 O 663.829 4.7402 3.17271 0
M  V30 6956 O 662.763 5.81385 1.55805 0
M  V30 6957 H 666.589 3.02865 -0.225028 0
M  V30 6958 H 664.174 1.48358 -0.176126 0
M  V30 6959 H 666.056 3.62122 2.15512 0
M  V30 6960 H 664.731 2.42539 2.14375 0
M  V30 6961 H 663.638 3.73385 0.231183 0
M  V30 6962 H 664.971 4.91134 0.323814 0
M  V30 6963 N 666.623 0.143563 1.56945 0
M  V30 6964 C 668.039 -0.212877 1.58174 0
M  V30 6965 C 668.239 -1.64926 1.15766 0
M  V30 6966 O 667.295 -2.37535 0.856361 0
M  V30 6967 C 668.608 0.0427573 3.0067 0
M  V30 6968 C 670.156 -0.0212221 3.12993 0
M  V30 6969 C 670.631 0.207036 4.57532 0
M  V30 6970 N 672.122 0.153845 4.62944 0
M  V30 6971 C 672.857 0.305018 5.72588 0
M  V30 6972 N 672.353 0.513722 6.90893 0
M  V30 6973 N 674.146 0.242862 5.61575 0
M  V30 6974 H 666.297 1.08148 1.82805 0
M  V30 6975 H 668.56 0.427831 0.84597 0
M  V30 6976 H 668.266 1.03672 3.36073 0
M  V30 6977 H 668.14 -0.678195 3.71053 0
M  V30 6978 H 670.527 -1.00574 2.77433 0
M  V30 6979 H 670.608 0.732004 2.45103 0
M  V30 6980 H 670.252 1.18863 4.93795 0
M  V30 6981 H 670.182 -0.566473 5.23544 0
M  V30 6982 H 672.673 -0.00294866 3.779 0
M  V30 6983 H 672.986 0.619273 7.70315 0
M  V30 6984 H 671.331 0.550001 6.9282 0
M  V30 6985 H 674.522 0.0806015 4.68031 0
M  V30 6986 H 674.695 0.364112 6.46976 0
M  V30 6987 N 668.101 -1.57061 -0.130224 0
M  V30 6988 C 669.517 -1.52103 -0.483413 0
M  V30 6989 C 669.717 -0.854752 -1.82473 0
M  V30 6990 O 668.773 -0.432342 -2.48771 0
M  V30 6991 C 670.086 -2.96872 -0.47825 0
M  V30 6992 C 671.634 -3.07902 -0.562592 0
M  V30 6993 C 672.109 -4.54211 -0.587929 0
M  V30 6994 N 673.6 -4.58621 -0.649684 0
M  V30 6995 C 674.335 -5.69227 -0.690551 0
M  V30 6996 N 673.831 -6.89358 -0.689743 0
M  V30 6997 N 675.624 -5.57304 -0.732708 0
M  V30 6998 H 667.775 -1.98764 0.748779 0
M  V30 6999 H 670.038 -0.907248 0.274965 0
M  V30 7000 H 669.744 -3.48944 0.439444 0
M  V30 7001 H 669.618 -3.53716 -1.31013 0
M  V30 7002 H 672.005 -2.5584 -1.47071 0
M  V30 7003 H 672.086 -2.54073 0.296764 0
M  V30 7004 H 671.73 -5.06915 0.316096 0
M  V30 7005 H 671.66 -5.0584 -1.46401 0
M  V30 7006 H 674.151 -3.72146 -0.656927 0
M  V30 7007 H 674.464 -7.69408 -0.723239 0
M  V30 7008 H 672.809 -6.91884 -0.657347 0
M  V30 7009 H 676 -4.62363 -0.730625 0
M  V30 7010 H 676.173 -6.43515 -0.76109 0
M  V30 7011 N 669.579 0.400081 -1.52437 0
M  V30 7012 C 670.825 1.14788 -1.67187 0
M  V30 7013 C 671.158 1.89928 -0.405074 0
M  V30 7014 O 670.433 1.85118 0.596804 0
M  V30 7015 C 670.716 2.13507 -2.89977 0
M  V30 7016 C 670.569 1.42204 -4.2673 0
M  V30 7017 C 671.888 3.14069 -3.083 0
M  V30 7018 H 669.007 0.415939 -0.608411 0
M  V30 7019 H 671.649 0.432542 -1.85011 0
M  V30 7020 H 669.799 2.7451 -2.74912 0
M  V30 7021 H 671.471 0.842503 -4.53541 0
M  V30 7022 H 669.714 0.723939 -4.27717 0
M  V30 7023 H 670.385 2.14281 -5.08712 0
M  V30 7024 H 672.861 2.63148 -3.22323 0
M  V30 7025 H 671.737 3.80398 -3.95713 0
M  V30 7026 H 671.998 3.82309 -2.22018 0
M  V30 7027 N 671.057 1.43213 0.657864 0
M  V30 7028 C 671.987 1.50815 1.78262 0
M  V30 7029 C 672.968 0.363211 1.66177 0
M  V30 7030 O 674.153 0.579806 1.85343 0
M  V30 7031 C 671.283 1.42625 3.16663 0
M  V30 7032 C 670.237 2.5532 3.43505 0
M  V30 7033 C 669.563 2.32184 4.81658 0
M  V30 7034 C 670.863 3.97583 3.38711 0
M  V30 7035 H 672.557 2.44954 1.72157 0
M  V30 7036 H 670.103 1.17896 0.82683 0
M  V30 7037 H 672.056 1.46548 3.95097 0
M  V30 7038 H 670.78 0.449877 3.23487 0
M  V30 7039 H 669.439 2.50742 2.6744 0
M  V30 7040 H 669.087 1.32801 4.85153 0
M  V30 7041 H 668.787 3.07724 5.00579 0
M  V30 7042 H 670.311 2.37883 5.62356 0
M  V30 7043 H 671.725 4.03673 4.07089 0
M  V30 7044 H 670.122 4.73112 3.69168 0
M  V30 7045 H 671.192 4.23049 2.36976 0
M  V30 7046 N 672.536 -0.895792 1.29666 0
M  V30 7047 C 673.446 -2.03329 1.17024 0
M  V30 7048 C 674.462 -1.73753 0.0925962 0
M  V30 7049 O 675.638 -1.99071 0.305431 0
M  V30 7050 C 672.703 -3.36072 0.851841 0
M  V30 7051 C 671.764 -3.7914 2.01373 0
M  V30 7052 C 670.997 -5.05549 1.71043 0
M  V30 7053 O 671.22 -5.66874 0.633213 0
M  V30 7054 O 670.154 -5.44764 2.5596 0
M  V30 7055 H 673.98 -2.16918 2.12556 0
M  V30 7056 H 671.565 -1.02007 1.09156 0
M  V30 7057 H 673.447 -4.15729 0.689006 0
M  V30 7058 H 672.122 -3.23616 -0.0736634 0
M  V30 7059 H 671.029 -3.00233 2.23183 0
M  V30 7060 H 672.362 -3.96186 2.92058 0
M  V30 7061 N 674.014 -1.12206 -1.10668 0
M  V30 7062 C 674.924 -0.800686 -2.20513 0
M  V30 7063 C 675.94 0.209512 -1.72734 0
M  V30 7064 O 677.116 0.043705 -2.01353 0
M  V30 7065 C 674.181 -0.257353 -3.45744 0
M  V30 7066 C 673.242 -1.32718 -4.0827 0
M  V30 7067 C 672.475 -0.809674 -5.27522 0
M  V30 7068 O 672.698 0.35742 -5.69279 0
M  V30 7069 O 671.632 -1.57816 -5.80842 0
M  V30 7070 H 675.458 -1.71807 -2.50432 0
M  V30 7071 H 673.043 -0.898546 -1.19359 0
M  V30 7072 H 674.925 0.0408849 -4.2138 0
M  V30 7073 H 673.6 0.632627 -3.17458 0
M  V30 7074 H 672.507 -1.67855 -3.34329 0
M  V30 7075 H 673.84 -2.19083 -4.40753 0
M  V30 7076 N 675.492 1.28418 -0.913599 0
M  V30 7077 C 676.402 2.31043 -0.406965 0
M  V30 7078 C 677.418 1.66501 0.505298 0
M  V30 7079 O 678.594 1.97558 0.391522 0
M  V30 7080 C 675.659 3.4498 0.344901 0
M  V30 7081 C 674.72 4.25078 -0.600563 0
M  V30 7082 C 673.953 5.33575 0.115516 0
M  V30 7083 O 674.176 5.54503 1.33727 0
M  V30 7084 O 673.11 5.9939 -0.549095 0
M  V30 7085 H 676.936 2.76387 -1.25873 0
M  V30 7086 H 674.521 1.33109 -0.678415 0
M  V30 7087 H 676.403 4.14314 0.769542 0
M  V30 7088 H 675.078 3.01719 1.1725 0
M  V30 7089 H 673.985 3.58334 -1.0746 0
M  V30 7090 H 675.318 4.72018 -1.39497 0
M  V30 7091 N 676.97 0.677563 1.42291 0
M  V30 7092 C 677.9 0.014968 2.33495 0
M  V30 7093 C 678.881 -0.786376 1.50831 0
M  V30 7094 O 680.066 -0.742975 1.79426 0
M  V30 7095 C 677.196 -0.935023 3.34477 0
M  V30 7096 C 676.15 -0.242074 4.27315 0
M  V30 7097 C 675.476 -1.30519 5.18526 0
M  V30 7098 C 676.776 0.880604 5.14823 0
M  V30 7099 H 678.47 0.776671 2.89151 0
M  V30 7100 H 676.016 0.37494 1.39033 0
M  V30 7101 H 677.969 -1.40766 3.97194 0
M  V30 7102 H 676.693 -1.72818 2.77131 0
M  V30 7103 H 675.352 0.210351 3.65996 0
M  V30 7104 H 675 -2.09041 4.57505 0
M  V30 7105 H 674.7 -0.846652 5.81468 0
M  V30 7106 H 676.224 -1.7787 5.84119 0
M  V30 7107 H 677.638 0.489062 5.7121 0
M  V30 7108 H 676.035 1.26511 5.86613 0
M  V30 7109 H 677.105 1.72818 4.53059 0
M  V30 7110 N 678.448 -1.51871 0.421078 0
M  V30 7111 C 679.676 -2.06356 -0.14994 0
M  V30 7112 C 680.091 -1.29006 -1.37851 0
M  V30 7113 O 679.448 -0.345139 -1.79207 0
M  V30 7114 C 679.499 -3.58185 -0.488454 0
M  V30 7115 O 679.22 -4.32611 0.691341 0
M  V30 7116 C 680.721 -4.29129 -1.11191 0
M  V30 7117 H 677.941 -0.67083 -0.0151186 0
M  V30 7118 H 680.485 -1.95638 0.595476 0
M  V30 7119 H 678.64 -3.68871 -1.18376 0
M  V30 7120 H 679.054 -5.22927 0.405906 0
M  V30 7121 H 680.528 -5.36501 -1.29889 0
M  V30 7122 H 681.005 -3.86371 -2.0884 0
M  V30 7123 H 681.611 -4.22843 -0.456458 0
M  V30 7124 N 679.926 -0.151884 -1.56866 0
M  V30 7125 C 681.172 0.498742 -1.96572 0
M  V30 7126 C 681.505 1.64194 -1.03702 0
M  V30 7127 O 680.78 1.94334 -0.0803432 0
M  V30 7128 C 681.063 1.00027 -3.45929 0
M  V30 7129 C 680.916 -0.141767 -4.49577 0
M  V30 7130 C 682.235 1.88044 -3.97904 0
M  V30 7131 H 679.354 0.17982 -0.714726 0
M  V30 7132 H 681.996 -0.234097 -1.88552 0
M  V30 7133 H 680.146 1.62476 -3.52894 0
M  V30 7134 H 681.818 -0.778269 -4.54687 0
M  V30 7135 H 680.061 -0.80019 -4.26356 0
M  V30 7136 H 680.732 0.250947 -5.51429 0
M  V30 7137 H 683.208 1.35416 -3.93449 0
M  V30 7138 H 682.084 2.20043 -5.02864 0
M  V30 7139 H 682.345 2.81916 -3.40552 0
M  V30 7140 N 681.404 1.57128 0.121893 0
M  V30 7141 C 682.354 1.96556 1.15541 0
M  V30 7142 C 683.338 0.840147 1.37224 0
M  V30 7143 O 684.53 1.10382 1.38365 0
M  V30 7144 C 681.659 2.37097 2.48274 0
M  V30 7145 C 680.745 3.56265 2.30078 0
M  V30 7146 N 681.136 4.72041 1.81688 0
M  V30 7147 C 679.434 3.61841 2.60744 0
M  V30 7148 C 680.135 5.54075 1.77132 0
M  V30 7149 N 679.111 4.96483 2.21371 0
M  V30 7150 H 682.913 2.83531 0.77378 0
M  V30 7151 H 680.427 1.59019 0.329672 0
M  V30 7152 H 682.424 2.6356 3.2302 0
M  V30 7153 H 681.084 1.51486 2.87197 0
M  V30 7154 H 682.095 4.95313 1.51278 0
M  V30 7155 H 678.772 2.8683 3.03373 0
M  V30 7156 H 680.162 6.56939 1.40998 0
M  V30 7157 N 682.882 -0.391992 1.52647 0
M  V30 7158 C 683.812 -1.48517 1.8018 0
M  V30 7159 C 684.793 -1.57039 0.653667 0
M  V30 7160 O 685.978 -1.72036 0.900962 0
M  V30 7161 C 683.108 -2.86161 1.96797 0
M  V30 7162 C 682.062 -2.92481 3.12472 0
M  V30 7163 C 681.388 -4.32546 3.14338 0
M  V30 7164 C 682.688 -2.624 4.51601 0
M  V30 7165 H 684.382 -1.25726 2.71723 0
M  V30 7166 H 681.928 -0.603387 1.30749 0
M  V30 7167 H 683.881 -3.62639 2.14641 0
M  V30 7168 H 682.605 -3.10283 1.01941 0
M  V30 7169 H 681.264 -2.18451 2.94406 0
M  V30 7170 H 680.912 -4.53703 2.1717 0
M  V30 7171 H 680.612 -4.37695 3.92042 0
M  V30 7172 H 682.136 -5.10934 3.34333 0
M  V30 7173 H 683.55 -3.28596 4.69785 0
M  V30 7174 H 681.947 -2.78903 5.3135 0
M  V30 7175 H 683.017 -1.57754 4.58521 0
M  V30 7176 N 684.36 -1.4356 -0.65026 0
M  V30 7177 C 685.585 -1.48995 -1.44275 0
M  V30 7178 C 686.01 -0.109954 -1.87778 0
M  V30 7179 O 685.368 0.896926 -1.57559 0
M  V30 7180 C 685.416 -2.44341 -2.65198 0
M  V30 7181 O 684.52 -1.93172 -3.6436 0
M  V30 7182 H 683.861 -0.503852 -0.432469 0
M  V30 7183 H 686.391 -1.88504 -0.795446 0
M  V30 7184 H 686.401 -2.61743 -3.12977 0
M  V30 7185 H 685.076 -3.44588 -2.32877 0
M  V30 7186 H 683.653 -1.85445 -3.23519 0
M  V30 7187 N 685.838 0.888903 -1.30139 0
M  V30 7188 C 687.084 1.6428 -1.18912 0
M  V30 7189 C 687.417 1.92499 0.256477 0
M  V30 7190 O 686.692 1.54312 1.18397 0
M  V30 7191 C 686.975 2.9851 -2.01405 0
M  V30 7192 C 686.828 2.77288 -3.54163 0
M  V30 7193 C 688.147 3.99383 -1.84882 0
M  V30 7194 H 685.266 0.596148 -0.433333 0
M  V30 7195 H 687.908 1.0289 -1.5973 0
M  V30 7196 H 686.058 3.50907 -1.66722 0
M  V30 7197 H 687.73 2.31709 -3.98884 0
M  V30 7198 H 685.973 2.11867 -3.78543 0
M  V30 7199 H 686.644 3.72717 -4.07168 0
M  V30 7200 H 689.12 3.56132 -2.15196 0
M  V30 7201 H 687.996 4.91222 -2.44934 0
M  V30 7202 H 688.257 4.34674 -0.806902 0
M  V30 7203 N 687.317 1.12792 1.10072 0
M  V30 7204 C 688.728 0.899346 1.63611 0
M  V30 7205 C 689.079 -0.565547 1.87872 0
M  V30 7206 O 688.204 -1.43081 1.62348 0
M  V30 7207 C 688.799 1.62608 2.97227 0
M  V30 7208 C 687.358 1.44356 3.47618 0
M  V30 7209 C 686.505 1.65958 2.22156 0
M  V30 7210 H 689.456 1.28216 0.935223 0
M  V30 7211 H 689.477 1.0793 3.64872 0
M  V30 7212 H 688.989 2.69221 2.79538 0
M  V30 7213 H 687.09 0.400148 3.70445 0
M  V30 7214 H 687.203 2.20218 4.25489 0
M  V30 7215 H 685.567 1.08395 2.30484 0
M  V30 7216 H 686.35 2.73877 2.06993 0
M  V30 7217 N 688.795 -1.27931 0.920396 0
M  V30 7218 C 690.043 -1.94304 0.555906 0
M  V30 7219 C 690.364 -1.72753 -0.904519 0
M  V30 7220 O 689.634 -1.07104 -1.64029 0
M  V30 7221 H 688.214 -0.719001 0.202599 0
M  V30 7222 H 690.876 -1.55785 1.1712 0
M  V30 7223 H 689.972 -3.02806 0.755981 0
M  V30 7224 N 690.273 -0.685099 -1.4193 0
M  V30 7225 C 691.55 -0.140152 -1.95097 0
M  V30 7226 C 691.93 1.34745 -1.62502 0
M  V30 7227 O 691.278 2.08872 -0.926534 0
M  V30 7228 C 691.488 -0.420268 -3.4646 0
M  V30 7229 C 692.836 -0.342338 -4.23218 0
M  V30 7230 O 693.86 -0.354592 -3.54431 0
M  V30 7231 O 692.719 -0.293404 -5.45712 0
M  V30 7232 H 689.813 -0.00885998 -0.826953 0
M  V30 7233 H 692.359 -0.760539 -1.51703 0
M  V30 7234 H 691.131 -1.45037 -3.63428 0
M  V30 7235 H 690.754 0.231616 -3.96925 0
M  V30 7236 N 691.751 1.51645 -0.429126 0
M  V30 7237 C 692.979 2.06433 0.138994 0
M  V30 7238 C 693.394 1.29735 1.37165 0
M  V30 7239 O 692.751 0.354638 1.79021 0
M  V30 7240 C 692.802 3.58439 0.469452 0
M  V30 7241 O 692.523 4.32238 -0.714273 0
M  V30 7242 C 694.024 4.29712 1.08914 0
M  V30 7243 H 691.244 0.6709 0.0115608 0
M  V30 7244 H 693.788 1.9532 -0.605843 0
M  V30 7245 H 691.943 3.69494 1.16419 0
M  V30 7246 H 692.357 5.22704 -0.433633 0
M  V30 7247 H 693.831 5.37182 1.27042 0
M  V30 7248 H 694.308 3.87473 2.06788 0
M  V30 7249 H 694.914 4.2308 0.434028 0
M  V30 7250 N 693.229 0.160201 1.56784 0
M  V30 7251 C 694.478 -0.487619 1.95717 0
M  V30 7252 C 694.791 -1.65136 1.0483 0
M  V30 7253 O 695.997 -2.36468 1.33398 0
M  V30 7254 C 694.453 -0.91888 3.47972 0
M  V30 7255 C 694.061 0.218655 4.47466 0
M  V30 7256 C 695.805 -1.53575 3.95746 0
M  V30 7257 C 693.712 -0.231614 5.90946 0
M  V30 7258 H 692.642 -0.185939 0.730714 0
M  V30 7259 H 695.293 0.246657 1.81835 0
M  V30 7260 H 693.675 -1.70881 3.57234 0
M  V30 7261 H 694.849 0.995825 4.49911 0
M  V30 7262 H 693.164 0.744767 4.09685 0
M  V30 7263 H 695.761 -1.88448 5.00391 0
M  V30 7264 H 696.104 -2.42959 3.38048 0
M  V30 7265 H 696.637 -0.810467 3.89456 0
M  V30 7266 H 693.376 0.62718 6.52493 0
M  V30 7267 H 692.896 -0.974379 5.91833 0
M  V30 7268 H 694.575 -0.67922 6.43425 0
M  V30 7269 N 694.707 -1.5719 -0.113559 0
M  V30 7270 C 695.637 -2.03772 -1.14013 0
M  V30 7271 C 696.618 -0.923176 -1.42869 0
M  V30 7272 O 697.803 -1.19325 -1.53216 0
M  V30 7273 C 694.933 -2.44663 -2.4649 0
M  V30 7274 C 693.887 -3.59612 -2.32085 0
M  V30 7275 C 693.213 -3.8642 -3.69573 0
M  V30 7276 C 694.513 -4.91149 -1.7768 0
M  V30 7277 H 696.207 -2.89785 -0.752665 0
M  V30 7278 H 693.753 -1.39412 -0.360609 0
M  V30 7279 H 695.706 -2.75857 -3.18561 0
M  V30 7280 H 694.43 -1.55628 -2.87137 0
M  V30 7281 H 693.089 -3.28636 -1.62461 0
M  V30 7282 H 692.737 -2.94581 -4.07715 0
M  V30 7283 H 692.437 -4.63797 -3.60786 0
M  V30 7284 H 693.961 -4.2007 -4.4314 0
M  V30 7285 H 695.375 -5.20843 -2.39574 0
M  V30 7286 H 693.772 -5.72562 -1.79701 0
M  V30 7287 H 694.842 -4.79301 -0.734776 0
M  V30 7288 N 696.185 0.383891 -1.52853 0
M  V30 7289 C 697.434 1.12563 -1.67369 0
M  V30 7290 C 697.747 1.90982 -0.422533 0
M  V30 7291 O 698.953 2.6778 -0.447914 0
M  V30 7292 C 697.409 2.05011 -2.95801 0
M  V30 7293 C 697.017 1.31991 -4.28115 0
M  V30 7294 C 698.761 2.79289 -3.19684 0
M  V30 7295 C 696.668 2.23235 -5.4765 0
M  V30 7296 H 695.598 0.42391 -0.623552 0
M  V30 7297 H 698.249 0.388016 -1.79351 0
M  V30 7298 H 696.631 2.82429 -2.77578 0
M  V30 7299 H 697.805 0.597633 -4.56908 0
M  V30 7300 H 696.12 0.696517 -4.10533 0
M  V30 7301 H 698.717 3.47749 -4.06171 0
M  V30 7302 H 699.06 3.43649 -2.3497 0
M  V30 7303 H 699.593 2.08962 -3.38496 0
M  V30 7304 H 696.332 1.63482 -6.34786 0
M  V30 7305 H 695.852 2.93364 -5.23161 0
M  V30 7306 H 697.531 2.83205 -5.81725 0
M  V30 7307 N 697.663 1.43903 0.642637 0
M  V30 7308 C 698.611 1.50164 1.77634 0
M  V30 7309 C 699.605 0.374294 1.65213 0
M  V30 7310 O 700.811 0.548748 1.71431 0
M  V30 7311 H 697.186 0.470974 0.586249 0
M  V30 7312 H 699.157 2.45603 1.69474 0
M  V30 7313 C 697.906 1.45196 3.15933 0
M  V30 7314 H 697.229 2.31253 3.26132 0
M  V30 7315 H 698.669 1.53638 3.95185 0
M  V30 7316 C 697.128 0.171043 3.36466 0
M  V30 7317 O 697.658 -0.763413 3.94379 0
M  V30 7318 N 695.864 0.077847 2.90496 0
M  V30 7319 H 695.411 0.8391 2.43551 0
M  V30 7320 H 695.369 -0.778473 3.0461 0
M  V30 7321 N 699.141 -0.881989 1.30609 0
M  V30 7322 C 700.089 -2.00942 1.17155 0
M  V30 7323 C 701.083 -1.69198 0.0827154 0
M  V30 7324 O 702.289 -1.78342 0.243775 0
M  V30 7325 H 698.664 -0.658913 0.362406 0
M  V30 7326 H 700.635 -2.09423 2.12567 0
M  V30 7327 C 699.384 -3.36294 0.883273 0
M  V30 7328 H 698.707 -3.61233 1.7132 0
M  V30 7329 H 700.147 -4.15812 0.829255 0
M  V30 7330 C 698.606 -3.34348 -0.413851 0
M  V30 7331 O 699.136 -3.75216 -1.43444 0
M  V30 7332 N 697.342 -2.87459 -0.426082 0
M  V30 7333 H 696.889 -2.54397 0.40493 0
M  V30 7334 H 696.847 -2.8654 -1.29391 0
M  V30 7335 N 700.619 -1.13374 -1.09472 0
M  V30 7336 C 702.035 -0.871846 -1.33682 0
M  V30 7337 C 702.235 0.492847 -1.9538 0
M  V30 7338 O 701.291 1.23946 -2.19985 0
M  V30 7339 C 702.604 -1.99608 -2.24893 0
M  V30 7340 C 704.152 -2.02812 -2.38404 0
M  V30 7341 C 704.627 -3.14497 -3.3295 0
M  V30 7342 N 706.118 -3.14004 -3.40523 0
M  V30 7343 C 706.853 -3.97061 -4.13679 0
M  V30 7344 N 706.349 -4.90131 -4.89636 0
M  V30 7345 N 708.142 -3.85162 -4.09398 0
M  V30 7346 H 700.293 -2.01288 -0.677995 0
M  V30 7347 H 702.556 -0.876492 -0.361201 0
M  V30 7348 H 702.262 -2.98 -1.86786 0
M  V30 7349 H 702.136 -1.90981 -3.25278 0
M  V30 7350 H 704.523 -1.05034 -2.75775 0
M  V30 7351 H 704.604 -2.15511 -1.37799 0
M  V30 7352 H 704.248 -4.12514 -2.96302 0
M  V30 7353 H 704.178 -2.99035 -4.33458 0
M  V30 7354 H 706.669 -2.46587 -2.86362 0
M  V30 7355 H 706.982 -5.49996 -5.42885 0
M  V30 7356 H 705.327 -4.94138 -4.88726 0
M  V30 7357 H 708.518 -3.11779 -3.49158 0
M  V30 7358 H 708.691 -4.5012 -4.6615 0
M  V30 7359 N 702.098 1.27442 -0.927168 0
M  V30 7360 C 703.509 1.76385 -0.611979 0
M  V30 7361 C 703.86 1.75715 0.872853 0
M  V30 7362 O 702.985 1.3603 1.683 0
M  V30 7363 C 703.58 3.20303 -1.10414 0
M  V30 7364 C 702.139 3.66916 -0.839628 0
M  V30 7365 C 701.286 2.46859 -1.26317 0
M  V30 7366 H 704.237 1.13716 -1.107 0
M  V30 7367 H 704.258 3.77811 -0.451578 0
M  V30 7368 H 703.77 3.20759 -2.18484 0
M  V30 7369 H 701.871 3.71906 0.227292 0
M  V30 7370 H 701.984 4.56415 -1.45679 0
M  V30 7371 H 700.348 2.45407 -0.681723 0
M  V30 7372 H 701.131 2.50025 -2.3525 0
M  V30 7373 N 703.576 0.692616 1.41565 0
M  V30 7374 C 704.824 0.221896 2.00878 0
M  V30 7375 C 705.145 -1.18164 1.5512 0
M  V30 7376 O 704.415 -1.79679 0.78054 0
M  V30 7377 H 702.995 0.0790463 0.742806 0
M  V30 7378 H 705.657 0.893115 1.73232 0
M  V30 7379 H 704.753 0.23702 3.11199 0
M  V30 7380 N 705.054 -1.51416 0.437162 0
M  V30 7381 C 706.465 -1.86682 -0.0260005 0
M  V30 7382 C 706.816 -1.35432 -1.4196 0
M  V30 7383 O 705.941 -0.705055 -2.04592 0
M  V30 7384 C 706.536 -3.38757 -0.0539577 0
M  V30 7385 C 705.095 -3.7356 -0.461532 0
M  V30 7386 C 704.242 -2.75134 0.345924 0
M  V30 7387 H 707.193 -1.44642 0.653013 0
M  V30 7388 H 707.214 -3.70573 -0.863478 0
M  V30 7389 H 706.726 -3.76028 0.96045 0
M  V30 7390 H 704.827 -3.41878 -1.48155 0
M  V30 7391 H 704.94 -4.78737 -0.186451 0
M  V30 7392 H 703.304 -2.53947 -0.195739 0
M  V30 7393 H 704.087 -3.15247 1.35921 0
M  V30 7394 N 706.532 -0.168513 -1.56696 0
M  V30 7395 C 707.948 0.187686 -1.58493 0
M  V30 7396 C 708.148 1.63063 -1.18375 0
M  V30 7397 O 707.204 2.36142 -0.894042 0
M  V30 7398 C 708.517 -0.0905858 -3.00564 0
M  V30 7399 C 710.065 -0.028575 -3.12987 0
M  V30 7400 C 710.54 -0.279799 -4.57145 0
M  V30 7401 N 712.031 -0.227476 -4.62641 0
M  V30 7402 C 712.766 -0.396073 -5.7203 0
M  V30 7403 N 712.262 -0.623572 -6.89988 0
M  V30 7404 N 714.055 -0.332173 -5.61118 0
M  V30 7405 H 706.206 -1.11042 -1.81062 0
M  V30 7406 H 708.469 -0.441235 -0.839056 0
M  V30 7407 H 708.175 -1.09006 -3.34381 0
M  V30 7408 H 708.049 0.619078 -3.72085 0
M  V30 7409 H 710.436 0.961471 -2.78998 0
M  V30 7410 H 710.517 -0.770905 -2.43907 0
M  V30 7411 H 710.161 -1.26704 -4.91842 0
M  V30 7412 H 710.091 0.48311 -5.24379 0
M  V30 7413 H 712.582 -0.0571723 -3.77857 0
M  V30 7414 H 712.895 -0.741745 -7.69232 0
M  V30 7415 H 711.24 -0.660153 -6.91858 0
M  V30 7416 H 714.431 -0.155051 -4.67843 0
M  V30 7417 H 714.604 -0.466994 -6.46315 0
M  V30 7418 N 708.01 1.57248 0.105221 0
M  V30 7419 C 708.92 2.04653 1.14693 0
M  V30 7420 C 709.936 0.969488 1.44489 0
M  V30 7421 O 711.112 1.28196 1.55331 0
M  V30 7422 C 708.177 2.45297 2.45011 0
M  V30 7423 C 707.238 3.67148 2.22489 0
M  V30 7424 C 706.471 4.05844 3.46592 0
M  V30 7425 O 706.694 3.44736 4.54437 0
M  V30 7426 O 705.628 4.98862 3.36779 0
M  V30 7427 H 709.454 2.93663 0.774336 0
M  V30 7428 H 707.039 1.45998 0.31701 0
M  V30 7429 H 708.921 2.72112 3.21766 0
M  V30 7430 H 707.596 1.59429 2.81717 0
M  V30 7431 H 706.503 3.45463 1.43547 0
M  V30 7432 H 707.836 4.53764 1.9068 0
M  V30 7433 N 709.488 -0.375779 1.53054 0
M  V30 7434 C 710.899 -0.95309 1.6054 0
M  V30 7435 C 711.25 -1.90575 0.466446 0
M  V30 7436 O 710.375 -2.12507 -0.408609 0
M  V30 7437 C 710.97 -1.73537 2.90982 0
M  V30 7438 C 709.529 -2.26218 3.00836 0
M  V30 7439 C 708.676 -1.07157 2.55759 0
M  V30 7440 H 711.627 -0.154895 1.57942 0
M  V30 7441 H 711.648 -2.59574 2.78211 0
M  V30 7442 H 711.16 -1.04176 3.73857 0
M  V30 7443 H 709.261 -2.98852 2.22527 0
M  V30 7444 H 709.374 -2.54799 4.05727 0
M  V30 7445 H 707.738 -1.43553 2.10391 0
M  V30 7446 H 708.521 -0.393099 3.41042 0
M  V30 7447 N 710.966 -1.44241 -0.634997 0
M  V30 7448 C 712.377 -1.41622 -1.21655 0
M  V30 7449 C 712.728 -0.129584 -1.95772 0
M  V30 7450 O 711.853 0.770225 -2.02229 0
M  V30 7451 C 712.448 -2.56557 -2.21278 0
M  V30 7452 C 711.007 -2.57145 -2.7487 0
M  V30 7453 C 710.154 -2.33354 -1.49804 0
M  V30 7454 H 713.105 -1.52878 -0.425905 0
M  V30 7455 H 713.126 -2.29089 -3.03807 0
M  V30 7456 H 712.638 -3.50186 -1.67306 0
M  V30 7457 H 710.739 -1.67447 -3.32855 0
M  V30 7458 H 710.852 -3.55507 -3.21172 0
M  V30 7459 H 709.216 -1.82372 -1.77799 0
M  V30 7460 H 709.999 -3.29092 -0.977402 0
M  V30 7461 N 712.444 0.87505 -1.31075 0
M  V30 7462 C 713.855 1.4433 -1.18431 0
M  V30 7463 C 714.206 1.9506 0.211189 0
M  V30 7464 O 713.331 1.85847 1.10859 0
M  V30 7465 C 713.926 2.62341 -2.14389 0
M  V30 7466 C 712.485 3.15225 -2.05694 0
M  V30 7467 C 711.632 1.87929 -2.03907 0
M  V30 7468 H 714.583 0.684061 -1.432 0
M  V30 7469 H 714.604 3.3887 -1.73053 0
M  V30 7470 H 714.116 2.25388 -3.15946 0
M  V30 7471 H 712.217 3.56812 -1.07314 0
M  V30 7472 H 712.33 3.77853 -2.94558 0
M  V30 7473 H 710.694 2.06679 -1.48849 0
M  V30 7474 H 711.477 1.53221 -3.07211 0
M  V30 7475 N 713.922 1.13953 1.08869 0
M  V30 7476 C 715.152 0.926825 1.84644 0
M  V30 7477 C 715.56 -0.527941 1.81685 0
M  V30 7478 O 714.903 -1.37742 1.21543 0
M  V30 7479 C 714.965 1.34416 3.33426 0
M  V30 7480 C 714.629 2.81351 3.60126 0
M  V30 7481 C 715.626 3.79486 3.55368 0
M  V30 7482 C 713.311 3.1865 3.88288 0
M  V30 7483 C 715.305 5.1293 3.78393 0
M  V30 7484 C 712.992 4.5227 4.10968 0
M  V30 7485 C 713.99 5.4922 4.06013 0
M  V30 7486 O 713.678 6.80429 4.28102 0
M  V30 7487 H 713.41 0.33013 0.589907 0
M  V30 7488 H 715.964 1.51738 1.38436 0
M  V30 7489 H 714.194 0.696901 3.80368 0
M  V30 7490 H 715.883 1.10302 3.90626 0
M  V30 7491 H 716.649 3.52017 3.3363 0
M  V30 7492 H 712.528 2.43785 3.91267 0
M  V30 7493 H 716.072 5.88591 3.74442 0
M  V30 7494 H 711.969 4.79462 4.32188 0
M  V30 7495 H 712.737 6.86617 4.45533 0
M  V30 7496 N 715.4 -1.26948 0.933913 0
M  V30 7497 C 716.332 -2.25768 0.395137 0
M  V30 7498 C 717.345 -1.55637 -0.477585 0
M  V30 7499 O 718.534 -1.76142 -0.289204 0
M  V30 7500 C 715.634 -3.35874 -0.451882 0
M  V30 7501 C 714.807 -4.3554 0.40299 0
M  V30 7502 C 713.866 -5.24809 -0.3824 0
M  V30 7503 O 712.892 -5.68805 0.212057 0
M  V30 7504 N 714.094 -5.55636 -1.68072 0
M  V30 7505 H 716.859 -2.72634 1.24463 0
M  V30 7506 H 714.42 -1.40639 0.802008 0
M  V30 7507 H 716.412 -3.92542 -0.984516 0
M  V30 7508 H 714.982 -2.8856 -1.20215 0
M  V30 7509 H 714.202 -3.78047 1.11688 0
M  V30 7510 H 715.49 -4.99131 0.987201 0
M  V30 7511 H 714.888 -5.2176 -2.18592 0
M  V30 7512 H 713.445 -6.14978 -2.15975 0
M  V30 7513 N 716.879 -0.700114 -1.41195 0
M  V30 7514 C 717.789 -0.0382854 -2.34569 0
M  V30 7515 C 718.805 0.761036 -1.56474 0
M  V30 7516 O 719.981 0.697553 -1.88934 0
M  V30 7517 C 717.046 0.883522 -3.35253 0
M  V30 7518 C 716.107 0.0758957 -4.29233 0
M  V30 7519 C 715.34 0.9538 -5.25108 0
M  V30 7520 O 715.563 2.19326 -5.26547 0
M  V30 7521 O 714.497 0.401049 -6.00562 0
M  V30 7522 H 718.323 -0.808073 -2.92752 0
M  V30 7523 H 715.908 -0.460479 -1.42127 0
M  V30 7524 H 717.79 1.41199 -3.9704 0
M  V30 7525 H 716.465 1.63272 -2.79506 0
M  V30 7526 H 715.372 -0.497274 -3.7078 0
M  V30 7527 H 716.705 -0.634741 -4.8809 0
M  V30 7528 N 718.357 1.51182 -0.445186 0
M  V30 7529 C 719.768 1.86693 0.0160999 0
M  V30 7530 C 720.119 1.36183 1.4124 0
M  V30 7531 O 719.244 0.715895 2.04215 0
M  V30 7532 C 719.839 3.38781 0.0359918 0
M  V30 7533 C 718.398 3.73799 0.441715 0
M  V30 7534 C 717.545 2.74947 -0.360511 0
M  V30 7535 H 720.496 1.44294 -0.660674 0
M  V30 7536 H 720.517 3.71026 0.843813 0
M  V30 7537 H 720.029 3.75513 -0.980378 0
M  V30 7538 H 718.13 3.42659 1.4634 0
M  V30 7539 H 718.243 4.78829 0.16106 0
M  V30 7540 H 716.607 2.54047 0.182269 0
M  V30 7541 H 717.39 3.14521 -1.3759 0
M  V30 7542 N 719.835 0.176821 1.56605 0
M  V30 7543 C 721.251 -0.179278 1.5859 0
M  V30 7544 C 721.451 -1.62433 1.19238 0
M  V30 7545 O 720.507 -2.35665 0.906552 0
M  V30 7546 C 721.82 0.106524 3.00511 0
M  V30 7547 C 723.368 0.0451731 3.12967 0
M  V30 7548 C 723.843 0.304038 4.5699 0
M  V30 7549 N 725.334 0.252008 4.62514 0
M  V30 7550 C 726.069 0.426404 5.71812 0
M  V30 7551 N 725.565 0.660155 6.89648 0
M  V30 7552 N 727.358 0.361926 5.60934 0
M  V30 7553 H 719.509 1.12001 1.8047 0
M  V30 7554 H 721.772 0.445679 0.836704 0
M  V30 7555 H 721.478 1.10778 3.33798 0
M  V30 7556 H 721.352 -0.599337 3.72408 0
M  V30 7557 H 723.739 -0.946662 2.79504 0
M  V30 7558 H 723.82 0.78383 2.43495 0
M  V30 7559 H 723.464 1.29311 4.91163 0
M  V30 7560 H 723.394 -0.455294 5.24628 0
M  V30 7561 H 725.885 0.0772102 3.77821 0
M  V30 7562 H 726.198 0.782529 7.68828 0
M  V30 7563 H 724.543 0.696835 6.91498 0
M  V30 7564 H 727.734 0.17986 4.67754 0
M  V30 7565 H 727.907 0.501263 6.46058 0
M  V30 7566 N 721.313 -1.57302 -0.09688 0
M  V30 7567 C 722.724 -1.7496 -0.651595 0
M  V30 7568 C 723.075 -0.798746 -1.79205 0
M  V30 7569 O 722.2 0.0231858 -2.16388 0
M  V30 7570 C 722.795 -3.17259 -1.18878 0
M  V30 7571 C 721.354 -3.36348 -1.68958 0
M  V30 7572 C 720.501 -2.70766 -0.598413 0
M  V30 7573 H 723.452 -1.58173 0.12918 0
M  V30 7574 H 723.473 -3.20033 -2.05814 0
M  V30 7575 H 722.985 -3.8644 -0.358523 0
M  V30 7576 H 721.086 -2.72243 -2.5439 0
M  V30 7577 H 721.199 -4.44654 -1.7838 0
M  V30 7578 H 719.563 -2.32615 -1.03743 0
M  V30 7579 H 720.346 -3.42586 0.221238 0
M  V30 7580 N 722.791 0.367657 -1.53252 0
M  V30 7581 C 724.207 0.709191 -1.42978 0
M  V30 7582 C 724.407 1.93352 -0.567193 0
M  V30 7583 O 723.463 2.52453 -0.0488349 0
M  V30 7584 C 724.776 0.924338 -2.86141 0
M  V30 7585 C 726.324 1.02448 -2.95759 0
M  V30 7586 C 726.799 1.27211 -4.39979 0
M  V30 7587 N 728.29 1.33986 -4.43398 0
M  V30 7588 C 729.025 1.54852 -5.52095 0
M  V30 7589 N 728.521 1.73049 -6.7084 0
M  V30 7590 N 730.314 1.57205 -5.39669 0
M  V30 7591 H 722.465 -0.437669 -2.07842 0
M  V30 7592 H 724.728 -0.133737 -0.938519 0
M  V30 7593 H 724.434 0.0965455 -3.51567 0
M  V30 7594 H 724.308 1.83302 -3.29667 0
M  V30 7595 H 726.695 1.84282 -2.30487 0
M  V30 7596 H 726.776 0.0932301 -2.5563 0
M  V30 7597 H 726.42 0.458792 -5.05824 0
M  V30 7598 H 726.35 2.21654 -4.77679 0
M  V30 7599 H 728.841 1.21545 -3.5782 0
M  V30 7600 H 729.154 1.88538 -7.49449 0
M  V30 7601 H 727.499 1.70231 -6.7383 0
M  V30 7602 H 730.69 1.42555 -4.45865 0
M  V30 7603 H 730.863 1.73126 -6.24445 0
M  V30 7604 N 724.269 1.44576 0.627338 0
M  V30 7605 C 725.517 1.47267 1.38408 0
M  V30 7606 C 725.838 0.107971 1.94701 0
M  V30 7607 O 725.108 -0.860206 1.76004 0
M  V30 7608 H 723.688 0.542276 0.513756 0
M  V30 7609 H 726.35 1.80383 0.738099 0
M  V30 7610 H 725.446 2.20025 2.21349 0
M  V30 7611 N 725.747 -0.868086 1.31537 0
M  V30 7612 C 726.695 -1.99688 1.1928 0
M  V30 7613 C 727.689 -1.69101 0.100656 0
M  V30 7614 O 728.895 -1.78073 0.262677 0
M  V30 7615 H 725.27 -0.655032 0.369374 0
M  V30 7616 H 727.241 -2.07157 2.14776 0
M  V30 7617 C 725.99 -3.35338 0.918892 0
M  V30 7618 H 725.313 -3.59396 1.75142 0
M  V30 7619 H 726.753 -4.14909 0.873311 0
M  V30 7620 C 725.212 -3.34769 -0.378366 0
M  V30 7621 O 725.742 -3.76716 -1.39456 0
M  V30 7622 N 723.948 -2.87895 -0.39557 0
M  V30 7623 H 723.495 -2.53954 0.431889 0
M  V30 7624 H 723.453 -2.87897 -1.26344 0
M  V30 7625 N 727.225 -1.14528 -1.08264 0
M  V30 7626 C 728.636 -0.925261 -1.6216 0
M  V30 7627 C 728.987 0.535587 -1.88748 0
M  V30 7628 O 728.112 1.4048 -1.64604 0
M  V30 7629 C 728.707 -1.67316 -2.94603 0
M  V30 7630 C 727.266 -1.49868 -3.45278 0
M  V30 7631 C 726.413 -1.69471 -2.19487 0
M  V30 7632 H 729.364 -1.29687 -0.914707 0
M  V30 7633 H 729.385 -1.13721 -3.63109 0
M  V30 7634 H 728.897 -2.73635 -2.75219 0
M  V30 7635 H 726.998 -0.459032 -3.69762 0
M  V30 7636 H 727.111 -2.2696 -4.21931 0
M  V30 7637 H 725.475 -1.12048 -2.2873 0
M  V30 7638 H 726.258 -2.77136 -2.0261 0
M  V30 7639 N 728.703 1.26451 -0.940633 0
M  V30 7640 C 730.114 1.75726 -0.630653 0
M  V30 7641 C 730.465 1.76631 0.854167 0
M  V30 7642 O 729.59 1.37807 1.66848 0
M  V30 7643 C 730.185 3.19114 -1.13805 0
M  V30 7644 C 728.744 3.66005 -0.878497 0
M  V30 7645 C 727.891 2.45505 -1.28928 0
M  V30 7646 H 730.842 1.12535 -1.119 0
M  V30 7647 H 730.863 3.77311 -0.491625 0
M  V30 7648 H 730.375 3.18424 -2.21874 0
M  V30 7649 H 728.476 3.72126 0.187833 0
M  V30 7650 H 728.589 4.54844 -1.50512 0
M  V30 7651 H 726.953 2.4467 -0.707713 0
M  V30 7652 H 727.736 2.47516 -2.37888 0
M  V30 7653 N 730.181 0.707592 1.40822 0
M  V30 7654 C 731.131 0.0265008 2.27985 0
M  V30 7655 C 732.115 -0.740685 1.42838 0
M  V30 7656 O 733.307 -0.6142 1.66002 0
M  V30 7657 C 730.436 -0.900382 3.31282 0
M  V30 7658 C 729.522 -0.128807 4.23904 0
M  V30 7659 N 729.913 0.883744 4.9802 0
M  V30 7660 C 728.211 -0.362539 4.44524 0
M  V30 7661 C 728.912 1.34666 5.65898 0
M  V30 7662 N 727.888 0.670306 5.39451 0
M  V30 7663 H 731.69 0.802667 2.82727 0
M  V30 7664 H 729.204 0.539475 1.53178 0
M  V30 7665 H 731.201 -1.40357 3.92563 0
M  V30 7666 H 729.861 -1.67601 2.781 0
M  V30 7667 H 730.872 1.26435 5.0223 0
M  V30 7668 H 727.549 -1.11512 4.02332 0
M  V30 7669 H 728.939 2.18756 6.35292 0
M  V30 7670 N 731.66 -1.50943 0.453197 0
M  V30 7671 C 732.885 -2.07116 -0.108463 0
M  V30 7672 C 733.31 -1.31681 -1.3432 0
M  V30 7673 O 732.668 -0.359256 -1.77705 0
M  V30 7674 C 732.716 -3.58447 -0.393424 0
M  V30 7675 O 731.82 -3.85038 -1.47714 0
M  V30 7676 H 731.161 -0.66398 0.0050993 0
M  V30 7677 H 733.691 -1.94362 0.639095 0
M  V30 7678 H 733.701 -4.02961 -0.639222 0
M  V30 7679 H 732.376 -4.12774 0.508946 0
M  V30 7680 H 730.953 -3.52376 -1.22006 0
M  V30 7681 N 733.138 -0.185124 -1.56509 0
M  V30 7682 C 734.101 0.72591 -2.17401 0
M  V30 7683 C 735.101 1.14819 -1.12575 0
M  V30 7684 O 736.291 1.0629 -1.38015 0
M  V30 7685 C 733.423 1.98979 -2.76803 0
M  V30 7686 H 734.616 0.195588 -2.99262 0
M  V30 7687 H 732.169 0.0644772 -1.56167 0
M  V30 7688 H 732.904 2.56287 -1.98714 0
M  V30 7689 H 732.689 1.69583 -3.53531 0
M  V30 7690 H 734.179 2.63966 -3.23592 0
M  V30 7691 N 734.616 1.57351 0.0885366 0
M  V30 7692 C 736.027 1.75303 0.642308 0
M  V30 7693 C 736.378 0.808238 1.78779 0
M  V30 7694 O 735.503 -0.01171 2.16397 0
M  V30 7695 C 736.098 3.17885 1.17194 0
M  V30 7696 C 734.657 3.37239 1.67172 0
M  V30 7697 C 733.804 2.7108 0.584045 0
M  V30 7698 H 736.755 1.58103 -0.137567 0
M  V30 7699 H 736.776 3.2112 2.04114 0
M  V30 7700 H 736.288 3.86625 0.338024 0
M  V30 7701 H 734.389 2.73588 2.52943 0
M  V30 7702 H 734.502 4.45594 1.76019 0
M  V30 7703 H 732.866 2.33161 1.02508 0
M  V30 7704 H 733.649 3.42464 -0.239403 0
M  V30 7705 N 736.094 -0.359525 1.53444 0
M  V30 7706 C 737.334 -1.11014 1.71625 0
M  V30 7707 C 737.698 -1.86376 0.46132 0
M  V30 7708 O 738.899 -2.63724 0.519908 0
M  V30 7709 C 737.17 -2.03907 2.93524 0
M  V30 7710 S 738.729 -2.86408 3.3244 0
M  V30 7711 H 735.547 -0.375352 0.603847 0
M  V30 7712 H 738.149 -0.390604 1.91558 0
M  V30 7713 H 736.853 -1.47316 3.83048 0
M  V30 7714 H 736.384 -2.80324 2.76011 0
M  V30 7715 H 738.399 -4.06241 2.84926 0
M  V30 7716 N 737.572 -1.44907 -0.619662 0
M  V30 7717 C 738.818 -1.48512 -1.38102 0
M  V30 7718 C 739.151 -0.121686 -1.93818 0
M  V30 7719 O 738.426 0.862256 -1.74343 0
M  V30 7720 C 738.709 -2.55469 -2.53787 0
M  V30 7721 C 738.562 -4.01212 -2.03345 0
M  V30 7722 C 739.881 -2.58821 -3.55949 0
M  V30 7723 H 737 -0.540712 -0.500799 0
M  V30 7724 H 739.642 -1.7665 -0.69962 0
M  V30 7725 H 737.792 -2.31606 -3.11915 0
M  V30 7726 H 739.464 -4.36245 -1.49959 0
M  V30 7727 H 737.707 -4.12443 -1.34438 0
M  V30 7728 H 738.378 -4.71717 -2.86683 0
M  V30 7729 H 740.854 -2.80172 -3.07641 0
M  V30 7730 H 739.73 -3.35542 -4.34399 0
M  V30 7731 H 739.991 -1.63451 -4.10775 0
M  V30 7732 N 739.05 0.861098 -1.31996 0
M  V30 7733 C 740.461 1.43065 -1.19955 0
M  V30 7734 C 740.812 1.95273 0.190489 0
M  V30 7735 O 739.937 1.87012 1.08882 0
M  V30 7736 C 740.532 2.60052 -2.1716 0
M  V30 7737 C 739.091 3.13026 -2.09026 0
M  V30 7738 C 738.238 1.85756 -2.05888 0
M  V30 7739 H 741.189 0.668834 -1.43918 0
M  V30 7740 H 741.21 3.37016 -1.76637 0
M  V30 7741 H 740.722 2.22024 -3.18319 0
M  V30 7742 H 738.823 3.55653 -1.11092 0
M  V30 7743 H 738.936 3.74707 -2.98549 0
M  V30 7744 H 737.3 2.05088 -1.51033 0
M  V30 7745 H 738.083 1.49954 -3.08818 0
M  V30 7746 N 740.528 1.15101 1.07655 0
M  V30 7747 C 741.476 0.840714 2.16875 0
M  V30 7748 C 742.47 -0.184594 1.68391 0
M  V30 7749 O 743.676 -0.0399315 1.79956 0
M  V30 7750 H 740.051 0.254192 0.707736 0
M  V30 7751 H 742.022 1.76959 2.40266 0
M  V30 7752 C 740.771 0.343018 3.46004 0
M  V30 7753 H 740.094 1.12335 3.83694 0
M  V30 7754 H 741.534 0.16453 4.23681 0
M  V30 7755 C 739.993 -0.934881 3.23669 0
M  V30 7756 O 740.523 -2.00706 3.47965 0
M  V30 7757 N 738.729 -0.873167 2.77172 0
M  V30 7758 H 738.276 -0.000479072 2.576 0
M  V30 7759 H 738.234 -1.72873 2.62607 0
M  V30 7760 N 742.006 -1.2595 0.947325 0
M  V30 7761 C 743.254 -1.93081 0.596996 0
M  V30 7762 C 743.575 -1.74632 -0.867672 0
M  V30 7763 O 742.845 -1.1056 -1.6172 0
M  V30 7764 H 741.425 -0.714542 0.217805 0
M  V30 7765 H 744.087 -1.53265 1.20398 0
M  V30 7766 H 743.183 -3.01134 0.82004 0
M  V30 7767 N 743.484 -0.715051 -1.40445 0
M  V30 7768 C 744.709 -0.26254 -2.05732 0
M  V30 7769 C 745.134 1.08691 -1.53519 0
M  V30 7770 O 744.492 1.68453 -0.670328 0
M  V30 7771 C 744.54 -0.25195 -3.59719 0
M  V30 7772 O 743.644 0.766998 -4.05205 0
M  V30 7773 H 742.985 -0.123398 -0.652433 0
M  V30 7774 H 745.515 -0.975382 -1.79854 0
M  V30 7775 H 745.525 -0.0894537 -4.07902 0
M  V30 7776 H 744.2 -1.23672 -3.97087 0
M  V30 7777 H 742.777 0.572269 -3.68483 0
M  V30 7778 N 744.962 1.50701 -0.461195 0
M  V30 7779 C 745.925 2.2686 0.326679 0
M  V30 7780 C 746.925 1.31243 0.929085 0
M  V30 7781 O 748.115 1.54754 0.799807 0
M  V30 7782 C 745.247 3.07844 1.46441 0
M  V30 7783 H 746.44 2.97954 -0.341095 0
M  V30 7784 H 743.993 1.54814 -0.214984 0
M  V30 7785 H 744.728 2.41223 2.16753 0
M  V30 7786 H 744.513 3.78101 1.03836 0
M  V30 7787 H 746.003 3.65469 2.02044 0
M  V30 7788 N 746.441 0.193421 1.56409 0
M  V30 7789 C 747.371 -0.723334 2.22014 0
M  V30 7790 C 748.352 -1.22254 1.1827 0
M  V30 7791 O 749.537 -1.27168 1.46771 0
M  V30 7792 C 746.667 -1.94366 2.87818 0
M  V30 7793 C 745.621 -1.57943 3.97791 0
M  V30 7794 C 744.947 -2.87623 4.50752 0
M  V30 7795 C 746.247 -0.790639 5.16281 0
M  V30 7796 H 747.941 -0.176426 2.9888 0
M  V30 7797 H 745.487 -0.0834166 1.43758 0
M  V30 7798 H 747.44 -2.5902 3.32396 0
M  V30 7799 H 746.164 -2.51507 2.08355 0
M  V30 7800 H 744.823 -0.956482 3.53903 0
M  V30 7801 H 744.471 -3.4285 3.68053 0
M  V30 7802 H 744.171 -2.63998 5.24956 0
M  V30 7803 H 745.695 -3.53268 4.9803 0
M  V30 7804 H 747.109 -1.34024 5.57414 0
M  V30 7805 H 745.506 -0.65258 5.96541 0
M  V30 7806 H 746.576 0.208633 4.84451 0
M  V30 7807 N 747.919 -1.57396 -0.0801906 0
M  V30 7808 C 748.849 -2.06145 -1.09665 0
M  V30 7809 C 749.83 -0.953273 -1.40878 0
M  V30 7810 O 751.015 -1.22548 -1.50651 0
M  V30 7811 C 748.145 -2.49836 -2.41245 0
M  V30 7812 C 747.099 -3.64454 -2.24405 0
M  V30 7813 C 746.425 -3.94172 -3.61293 0
M  V30 7814 C 747.725 -4.94807 -1.67223 0
M  V30 7815 H 749.419 -2.91316 -0.691028 0
M  V30 7816 H 746.965 -1.40145 -0.330957 0
M  V30 7817 H 748.918 -2.82552 -3.12638 0
M  V30 7818 H 747.642 -1.61683 -2.83771 0
M  V30 7819 H 746.301 -3.32008 -1.55454 0
M  V30 7820 H 745.949 -3.03163 -4.01374 0
M  V30 7821 H 745.649 -4.71345 -3.50867 0
M  V30 7822 H 747.173 -4.29376 -4.3413 0
M  V30 7823 H 748.587 -5.25807 -2.28472 0
M  V30 7824 H 746.984 -5.76245 -1.67515 0
M  V30 7825 H 748.054 -4.80751 -0.632944 0
M  V30 7826 N 749.397 0.351382 -1.53633 0
M  V30 7827 C 750.327 1.43688 -1.84055 0
M  V30 7828 C 751.308 1.55251 -0.695073 0
M  V30 7829 O 752.493 1.69587 -0.946257 0
M  V30 7830 C 749.623 2.80843 -2.04315 0
M  V30 7831 C 748.577 2.84094 -3.20117 0
M  V30 7832 C 747.903 4.2406 -3.25696 0
M  V30 7833 C 749.203 2.50334 -4.58399 0
M  V30 7834 H 750.897 1.18478 -2.74961 0
M  V30 7835 H 748.443 0.568509 -1.32303 0
M  V30 7836 H 750.396 3.56821 -2.2418 0
M  V30 7837 H 749.12 3.07471 -1.10132 0
M  V30 7838 H 747.779 2.10568 -3.00094 0
M  V30 7839 H 747.427 4.47785 -2.29123 0
M  V30 7840 H 747.127 4.27147 -4.03509 0
M  V30 7841 H 748.651 5.0189 -3.47762 0
M  V30 7842 H 750.065 3.16025 -4.78332 0
M  V30 7843 H 748.462 2.64717 -5.38558 0
M  V30 7844 H 749.532 1.45542 -4.62543 0
M  V30 7845 N 750.875 1.45233 0.611969 0
M  V30 7846 C 752.1 1.52767 1.40274 0
M  V30 7847 C 752.525 0.159701 1.87421 0
M  V30 7848 O 751.883 -0.854837 1.59882 0
M  V30 7849 C 751.931 2.51286 2.58626 0
M  V30 7850 O 751.035 2.02764 3.59111 0
M  V30 7851 H 750.376 0.515141 0.418958 0
M  V30 7852 H 752.906 1.90547 0.745188 0
M  V30 7853 H 752.916 2.69949 3.05927 0
M  V30 7854 H 751.591 3.50641 2.23659 0
M  V30 7855 H 750.168 1.93957 3.18489 0
M  V30 7856 N 752.353 -0.854086 1.3245 0
M  V30 7857 C 753.301 -1.98411 1.21391 0
M  V30 7858 C 754.295 -1.68984 0.118586 0
M  V30 7859 O 755.501 -1.77784 0.281549 0
M  V30 7860 H 751.876 -0.651077 0.376301 0
M  V30 7861 H 753.847 -2.04867 2.16961 0
M  V30 7862 C 752.596 -3.34345 0.954407 0
M  V30 7863 H 751.919 -3.57518 1.78944 0
M  V30 7864 H 753.359 -4.13959 0.917269 0
M  V30 7865 C 751.818 -3.35151 -0.342838 0
M  V30 7866 O 752.348 -3.78174 -1.35452 0
M  V30 7867 N 750.554 -2.88298 -0.365012 0
M  V30 7868 H 750.101 -2.53481 0.4588 0
M  V30 7869 H 750.059 -2.8922 -1.23284 0
M  V30 7870 N 753.831 -1.1567 -1.07043 0
M  V30 7871 C 755.242 -0.942408 -1.61169 0
M  V30 7872 C 755.593 0.515537 -1.89306 0
M  V30 7873 O 754.718 1.38726 -1.66084 0
M  V30 7874 C 755.313 -1.70431 -2.92812 0
M  V30 7875 C 753.872 -1.53521 -3.43669 0
M  V30 7876 C 753.019 -1.7179 -2.17678 0
M  V30 7877 H 755.97 -1.3065 -0.9009 0
M  V30 7878 H 755.991 -1.17566 -3.61882 0
M  V30 7879 H 755.503 -2.76538 -2.72302 0
M  V30 7880 H 753.604 -0.498224 -3.69254 0
M  V30 7881 H 753.717 -2.31422 -4.19501 0
M  V30 7882 H 752.081 -1.14468 -2.27529 0
M  V30 7883 H 752.864 -2.79269 -1.99659 0
M  V30 7884 N 755.309 1.25446 -0.953992 0
M  V30 7885 C 756.272 2.24156 -0.478179 0
M  V30 7886 C 757.272 1.55278 0.417776 0
M  V30 7887 O 758.462 1.72866 0.215155 0
M  V30 7888 C 755.594 3.39495 0.309202 0
M  V30 7889 H 756.787 2.67764 -1.35064 0
M  V30 7890 H 754.34 1.37822 -0.737206 0
M  V30 7891 H 755.075 3.01307 1.19936 0
M  V30 7892 H 754.86 3.90679 -0.333562 0
M  V30 7893 H 756.35 4.12796 0.631594 0
M  V30 7894 N 756.787 0.722489 1.40064 0
M  V30 7895 C 758.017 0.274439 2.04769 0
M  V30 7896 C 758.425 -1.09125 1.54559 0
M  V30 7897 O 757.768 -1.69834 0.700149 0
M  V30 7898 C 757.83 0.184091 3.59028 0
M  V30 7899 C 757.494 1.48619 4.32159 0
M  V30 7900 C 758.491 2.42947 4.59644 0
M  V30 7901 C 756.176 1.74703 4.7094 0
M  V30 7902 C 758.17 3.616 5.24904 0
M  V30 7903 C 755.857 2.93636 5.3593 0
M  V30 7904 C 756.855 3.86907 5.62843 0
M  V30 7905 O 756.543 5.03753 6.26489 0
M  V30 7906 H 756.275 0.119847 0.665292 0
M  V30 7907 H 758.829 0.983352 1.80331 0
M  V30 7908 H 757.059 -0.580821 3.82313 0
M  V30 7909 H 758.748 -0.230306 4.05246 0
M  V30 7910 H 759.514 2.24062 4.30141 0
M  V30 7911 H 755.393 1.02955 4.49356 0
M  V30 7912 H 758.937 4.34418 5.45827 0
M  V30 7913 H 754.834 3.12428 5.64853 0
M  V30 7914 H 755.602 5.03922 6.44984 0
M  V30 7915 N 758.265 -1.50454 0.469181 0
M  V30 7916 C 759.681 -1.59124 0.123226 0
M  V30 7917 C 759.881 -1.47749 -1.37013 0
M  V30 7918 O 758.937 -1.335 -2.14322 0
M  V30 7919 C 760.25 -2.93101 0.67172 0
M  V30 7920 C 761.798 -3.06491 0.634978 0
M  V30 7921 C 762.273 -4.43041 1.16098 0
M  V30 7922 N 763.764 -4.49448 1.12031 0
M  V30 7923 C 764.499 -5.53491 1.49784 0
M  V30 7924 N 763.995 -6.64798 1.94976 0
M  V30 7925 N 765.788 -5.44025 1.41399 0
M  V30 7926 H 757.939 -1.56091 1.44046 0
M  V30 7927 H 760.202 -0.737564 0.59557 0
M  V30 7928 H 759.908 -3.06895 1.7178 0
M  V30 7929 H 759.782 -3.77027 0.114222 0
M  V30 7930 H 762.169 -2.92346 -0.402187 0
M  V30 7931 H 762.25 -2.24328 1.22926 0
M  V30 7932 H 761.894 -4.57935 2.19677 0
M  V30 7933 H 761.824 -5.23794 0.542939 0
M  V30 7934 H 764.315 -3.69575 0.788828 0
M  V30 7935 H 764.628 -7.40246 2.21936 0
M  V30 7936 H 762.973 -6.65923 1.98927 0
M  V30 7937 H 766.164 -4.55955 1.05935 0
M  V30 7938 H 766.337 -6.2499 1.71147 0
M  V30 7939 N 759.743 -0.201713 -1.56304 0
M  V30 7940 C 760.673 0.71155 -2.22394 0
M  V30 7941 C 761.654 1.21625 -1.18917 0
M  V30 7942 O 762.839 1.26388 -1.47444 0
M  V30 7943 C 759.969 1.92837 -2.88845 0
M  V30 7944 C 758.923 1.55831 -3.98623 0
M  V30 7945 C 758.249 2.85228 -4.52271 0
M  V30 7946 C 759.549 0.763249 -5.16693 0
M  V30 7947 H 761.243 0.160573 -2.98969 0
M  V30 7948 H 758.789 0.0757916 -1.438 0
M  V30 7949 H 760.742 2.57253 -3.33764 0
M  V30 7950 H 759.466 2.50398 -2.09686 0
M  V30 7951 H 758.125 0.9377 -3.54405 0
M  V30 7952 H 757.773 3.40893 -3.69866 0
M  V30 7953 H 757.473 2.6121 -5.26349 0
M  V30 7954 H 758.997 3.50622 -4.99897 0
M  V30 7955 H 760.411 1.31066 -5.58117 0
M  V30 7956 H 758.808 0.620935 -5.96879 0
M  V30 7957 H 759.878 -0.234322 -4.84334 0
M  V30 7958 N 761.222 1.57436 0.0718424 0
M  V30 7959 C 762.152 2.06724 1.08571 0
M  V30 7960 C 763.133 0.960731 1.40371 0
M  V30 7961 O 764.318 1.23345 1.49999 0
M  V30 7962 C 761.448 2.51112 2.39916 0
M  V30 7963 C 760.402 3.65639 2.22469 0
M  V30 7964 C 759.728 3.96082 3.59198 0
M  V30 7965 C 761.028 4.95687 1.64596 0
M  V30 7966 H 762.722 2.91679 0.675569 0
M  V30 7967 H 760.268 1.40319 0.32352 0
M  V30 7968 H 762.221 2.84206 3.11135 0
M  V30 7969 H 760.945 1.63186 2.8291 0
M  V30 7970 H 759.604 3.32828 1.53691 0
M  V30 7971 H 759.252 3.05287 3.99761 0
M  V30 7972 H 758.952 4.73199 3.48362 0
M  V30 7973 H 760.476 4.31672 4.31847 0
M  V30 7974 H 761.89 5.27011 2.25681 0
M  V30 7975 H 760.287 5.77126 1.64457 0
M  V30 7976 H 761.357 4.8108 0.60744 0
M  V30 7977 N 762.7 -0.34323 1.53817 0
M  V30 7978 C 763.63 -1.42709 1.84814 0
M  V30 7979 C 764.611 -1.5488 0.703297 0
M  V30 7980 O 765.796 -1.69082 0.955237 0
M  V30 7981 C 762.926 -2.79756 2.05801 0
M  V30 7982 C 761.88 -2.82392 3.21619 0
M  V30 7983 C 761.206 -4.22326 3.2794 0
M  V30 7984 C 762.506 -2.479 4.59721 0
M  V30 7985 H 764.2 -1.17018 2.75585 0
M  V30 7986 H 761.746 -0.561485 1.32602 0
M  V30 7987 H 763.699 -3.55627 2.26069 0
M  V30 7988 H 762.423 -3.06883 1.11761 0
M  V30 7989 H 761.082 -2.08974 3.01207 0
M  V30 7990 H 760.73 -4.46564 2.31494 0
M  V30 7991 H 760.43 -4.25001 4.05768 0
M  V30 7992 H 761.954 -5.00039 3.50419 0
M  V30 7993 H 763.368 -3.13484 4.80001 0
M  V30 7994 H 761.765 -2.61857 5.39954 0
M  V30 7995 H 762.835 -1.43087 4.63308 0
M  V30 7996 N 764.178 -1.45556 -0.604258 0
M  V30 7997 C 765.141 -1.54091 -1.69672 0
M  V30 7998 C 766.141 -0.420076 -1.55216 0
M  V30 7999 O 767.331 -0.683671 -1.60224 0
M  V30 8000 C 764.463 -1.44063 -3.08964 0
M  V30 8001 H 765.656 -2.51431 -1.6347 0
M  V30 8002 H 763.209 -1.33046 -0.820273 0
M  V30 8003 H 763.944 -0.479201 -3.2074 0
M  V30 8004 H 763.729 -2.25362 -3.20865 0
M  V30 8005 H 765.219 -1.53075 -3.88533 0
M  V30 8006 N 765.656 0.84705 -1.32902 0
M  V30 8007 C 766.884 1.63403 -1.26913 0
M  V30 8008 C 767.299 1.88108 0.161483 0
M  V30 8009 O 766.656 1.45546 1.10103 0
M  V30 8010 C 766.707 2.98896 -2.03331 0
M  V30 8011 O 766.428 2.75281 -3.40811 0
M  V30 8012 C 767.929 3.93335 -2.04457 0
M  V30 8013 H 765.149 0.508701 -0.437566 0
M  V30 8014 H 767.693 1.05567 -1.75145 0
M  V30 8015 H 765.848 3.53356 -1.58802 0
M  V30 8016 H 766.262 3.61504 -3.8002 0
M  V30 8017 H 767.736 4.85647 -2.62394 0
M  V30 8018 H 768.213 4.26885 -1.03274 0
M  V30 8019 H 768.819 3.44812 -2.48967 0
M  V30 8020 N 767.134 1.16236 1.06428 0
M  V30 8021 C 768.364 0.965782 1.82637 0
M  V30 8022 C 768.772 -0.489284 1.82764 0
M  V30 8023 O 768.115 -1.35133 1.24438 0
M  V30 8024 C 768.177 1.41458 3.30499 0
M  V30 8025 C 767.841 2.88926 3.54077 0
M  V30 8026 C 768.838 3.86939 3.47238 0
M  V30 8027 C 766.523 3.26814 3.81442 0
M  V30 8028 C 768.517 5.20841 3.67428 0
M  V30 8029 C 766.204 4.60886 4.01282 0
M  V30 8030 C 767.202 5.57708 3.94272 0
M  V30 8031 O 766.89 6.89357 4.13573 0
M  V30 8032 H 766.622 0.342569 0.582772 0
M  V30 8033 H 769.176 1.54641 1.35187 0
M  V30 8034 H 767.406 0.777426 3.78805 0
M  V30 8035 H 769.095 1.18563 3.88198 0
M  V30 8036 H 769.861 3.59014 3.26089 0
M  V30 8037 H 765.74 2.5203 3.86008 0
M  V30 8038 H 769.284 5.96401 3.61873 0
M  V30 8039 H 765.181 4.88522 4.21921 0
M  V30 8040 H 765.949 6.95913 4.30869 0
M  V30 8041 N 768.612 -1.24939 0.960631 0
M  V30 8042 C 769.575 -2.239 0.49006 0
M  V30 8043 C 770.575 -1.55497 -0.409535 0
M  V30 8044 O 771.765 -1.72978 -0.205984 0
M  V30 8045 C 768.897 -3.39654 -0.291193 0
M  V30 8046 H 770.09 -2.67044 1.36482 0
M  V30 8047 H 767.643 -1.37429 0.744505 0
M  V30 8048 H 768.378 -3.01939 -1.18336 0
M  V30 8049 H 768.163 -3.90496 0.354276 0
M  V30 8050 H 769.653 -4.13125 -0.609693 0
M  V30 8051 N 770.09 -0.729906 -1.39679 0
M  V30 8052 C 771.506 -0.404951 -1.54377 0
M  V30 8053 C 771.706 1.08476 -1.6981 0
M  V30 8054 O 770.762 1.87087 -1.69572 0
M  V30 8055 C 772.075 -1.18352 -2.76429 0
M  V30 8056 C 773.623 -1.17124 -2.9026 0
M  V30 8057 C 774.098 -1.93227 -4.15244 0
M  V30 8058 N 775.589 -1.90368 -4.22273 0
M  V30 8059 C 776.324 -2.46065 -5.17918 0
M  V30 8060 N 775.82 -3.10378 -6.19385 0
M  V30 8061 N 777.613 -2.36127 -5.10099 0
M  V30 8062 H 769.764 -1.69567 -1.27909 0
M  V30 8063 H 772.027 -0.717527 -0.619564 0
M  V30 8064 H 771.733 -2.23743 -2.71352 0
M  V30 8065 H 771.607 -0.784589 -3.6895 0
M  V30 8066 H 773.994 -0.125478 -2.94833 0
M  V30 8067 H 774.075 -1.60951 -1.98817 0
M  V30 8068 H 773.719 -2.97802 -4.11432 0
M  V30 8069 H 773.649 -1.4681 -5.05722 0
M  V30 8070 H 776.14 -1.4351 -3.4959 0
M  V30 8071 H 776.453 -3.50358 -6.88817 0
M  V30 8072 H 774.798 -3.14467 -6.19787 0
M  V30 8073 H 777.989 -1.85529 -4.29763 0
M  V30 8074 H 778.162 -2.79833 -5.84463 0
M  V30 8075 N 771.568 1.50203 -0.477153 0
M  V30 8076 C 772.979 1.86685 -0.0235041 0
M  V30 8077 C 773.33 1.39148 1.38319 0
M  V30 8078 O 772.455 0.759051 2.02651 0
M  V30 8079 C 773.05 3.38781 -0.0358767 0
M  V30 8080 C 771.609 3.74652 0.362327 0
M  V30 8081 C 770.756 2.7412 -0.41875 0
M  V30 8082 H 773.707 1.4286 -0.691133 0
M  V30 8083 H 773.728 3.72732 0.764924 0
M  V30 8084 H 773.24 3.73349 -1.05981 0
M  V30 8085 H 771.341 3.45686 1.39039 0
M  V30 8086 H 771.454 4.79063 0.059457 0
M  V30 8087 H 769.818 2.54376 0.128341 0
M  V30 8088 H 770.601 3.11532 -1.44231 0
M  V30 8089 N 773.046 0.209999 1.56195 0
M  V30 8090 C 774.457 -0.299943 1.84275 0
M  V30 8091 C 774.808 -1.60314 1.1311 0
M  V30 8092 O 773.933 -2.1273 0.396874 0
M  V30 8093 C 774.528 -0.550986 3.3429 0
M  V30 8094 C 773.087 -1.00526 3.62728 0
M  V30 8095 C 772.234 -0.0619828 2.77231 0
M  V30 8096 H 775.185 0.433458 1.52666 0
M  V30 8097 H 775.206 -1.39846 3.53869 0
M  V30 8098 H 774.718 0.397669 3.86057 0
M  V30 8099 H 772.819 -1.96768 3.16407 0
M  V30 8100 H 772.932 -0.887664 4.70805 0
M  V30 8101 H 771.296 -0.566648 2.48317 0
M  V30 8102 H 772.079 0.881383 3.31793 0
M  V30 8103 N 774.524 -1.57472 -0.0634922 0
M  V30 8104 C 775.94 -1.54016 -0.418466 0
M  V30 8105 C 776.14 -0.931376 -1.78683 0
M  V30 8106 O 775.196 -0.537465 -2.46714 0
M  V30 8107 C 776.509 -2.98634 -0.351906 0
M  V30 8108 C 778.057 -3.10012 -0.431494 0
M  V30 8109 C 778.532 -4.56296 -0.394754 0
M  V30 8110 N 780.023 -4.60964 -0.454583 0
M  V30 8111 C 780.758 -5.71643 -0.448501 0
M  V30 8112 N 780.254 -6.91663 -0.396742 0
M  V30 8113 N 782.047 -5.5991 -0.495677 0
M  V30 8114 H 774.198 -1.95409 0.832408 0
M  V30 8115 H 776.461 -0.894769 0.313197 0
M  V30 8116 H 776.167 -3.46766 0.587048 0
M  V30 8117 H 776.041 -3.58955 -1.15893 0
M  V30 8118 H 778.428 -2.61848 -1.36087 0
M  V30 8119 H 778.509 -2.52585 0.404258 0
M  V30 8120 H 778.153 -5.05119 0.530811 0
M  V30 8121 H 778.083 -5.11594 -1.24815 0
M  V30 8122 H 780.574 -3.74598 -0.498496 0
M  V30 8123 H 780.887 -7.71783 -0.396256 0
M  V30 8124 H 779.232 -6.9405 -0.363304 0
M  V30 8125 H 782.423 -4.65046 -0.533864 0
M  V30 8126 H 782.596 -6.46164 -0.487469 0
M  V30 8127 N 776.003 0.335068 -1.53997 0
M  V30 8128 C 777.251 1.07223 -1.71312 0
M  V30 8129 C 777.572 1.88911 -0.483486 0
M  V30 8130 O 776.842 1.89344 0.50257 0
M  V30 8131 H 775.422 0.398846 -0.63161 0
M  V30 8132 H 778.084 0.374288 -1.91272 0
M  V30 8133 H 777.18 1.7448 -2.58772 0
M  V30 8134 N 777.481 1.45874 0.596531 0
M  V30 8135 C 778.892 1.44798 1.17857 0
M  V30 8136 C 779.243 0.181443 1.95359 0
M  V30 8137 O 778.368 -0.716336 2.042 0
M  V30 8138 C 778.963 2.62333 2.14398 0
M  V30 8139 C 777.522 2.64342 2.67955 0
M  V30 8140 C 776.669 2.37244 1.43564 0
M  V30 8141 H 779.62 1.53954 0.385222 0
M  V30 8142 H 779.641 2.37063 2.97626 0
M  V30 8143 H 779.153 3.54499 1.57963 0
M  V30 8144 H 777.254 1.76213 3.28298 0
M  V30 8145 H 777.367 3.63897 3.11634 0
M  V30 8146 H 775.731 1.87022 1.72901 0
M  V30 8147 H 776.514 3.31568 0.889805 0
M  V30 8148 N 778.959 -0.83999 1.33349 0
M  V30 8149 C 780.207 -1.59202 1.24496 0
M  V30 8150 C 780.528 -1.94077 -0.189499 0
M  V30 8151 O 779.798 -1.60868 -1.11796 0
M  V30 8152 H 778.378 -0.590276 0.457802 0
M  V30 8153 H 781.04 -1.00394 1.67054 0
M  V30 8154 H 780.136 -2.52247 1.83788 0
M  V30 8155 N 780.437 -1.16799 -1.0581 0
M  V30 8156 C 781.848 -0.95945 -1.60161 0
M  V30 8157 C 782.199 0.49543 -1.89842 0
M  V30 8158 O 781.324 1.36957 -1.67546 0
M  V30 8159 C 781.919 -1.73527 -2.90987 0
M  V30 8160 C 780.478 -1.57158 -3.42021 0
M  V30 8161 C 779.625 -1.74089 -2.15843 0
M  V30 8162 H 782.576 -1.31598 -0.886992 0
M  V30 8163 H 782.597 -1.21397 -3.60615 0
M  V30 8164 H 782.109 -2.79411 -2.69353 0
M  V30 8165 H 780.21 -0.537361 -3.68705 0
M  V30 8166 H 780.323 -2.35858 -4.17022 0
M  V30 8167 H 778.687 -1.16874 -2.26302 0
M  V30 8168 H 779.47 -2.81371 -1.96686 0
M  V30 8169 N 781.915 1.24427 -0.967243 0
M  V30 8170 C 783.326 1.74349 -0.667785 0
M  V30 8171 C 783.677 1.78403 0.816509 0
M  V30 8172 O 782.802 1.41315 1.63887 0
M  V30 8173 C 783.397 3.16628 -1.20548 0
M  V30 8174 C 781.956 3.64059 -0.955934 0
M  V30 8175 C 781.103 2.42715 -1.34106 0
M  V30 8176 H 784.054 1.10136 -1.14262 0
M  V30 8177 H 784.075 3.76183 -0.571547 0
M  V30 8178 H 783.587 3.13646 -2.28578 0
M  V30 8179 H 781.688 3.72441 0.108858 0
M  V30 8180 H 781.801 4.51549 -1.60126 0
M  V30 8181 H 780.165 2.43114 -0.759452 0
M  V30 8182 H 780.948 2.42414 -2.43085 0
M  V30 8183 N 783.393 0.737304 1.3929 0
M  V30 8184 C 784.621 0.296573 2.04763 0
M  V30 8185 C 785.036 -1.06941 1.55592 0
M  V30 8186 O 784.393 -1.67619 0.721822 0
M  V30 8187 C 784.444 0.291906 3.6032 0
M  V30 8188 O 784.165 1.60397 4.07682 0
M  V30 8189 C 785.666 -0.164708 4.42994 0
M  V30 8190 H 782.886 0.129251 0.658434 0
M  V30 8191 H 785.43 1.0016 1.78293 0
M  V30 8192 H 783.585 -0.364251 3.85684 0
M  V30 8193 H 783.999 1.51909 5.0202 0
M  V30 8194 H 785.473 -0.116814 5.51876 0
M  V30 8195 H 785.95 -1.21022 4.22197 0
M  V30 8196 H 786.556 0.461968 4.22784 0
M  V30 8197 N 784.871 -1.49948 0.485112 0
M  V30 8198 C 786.282 -1.8667 0.0334041 0
M  V30 8199 C 786.633 -1.3988 -1.37579 0
M  V30 8200 O 785.758 -0.769788 -2.02245 0
M  V30 8201 C 786.353 -3.38757 0.0538426 0
M  V30 8202 C 784.912 -3.74839 -0.342453 0
M  V30 8203 C 784.059 -2.73894 0.433281 0
M  V30 8204 H 787.01 -1.42492 0.698699 0
M  V30 8205 H 787.031 -3.73132 -0.745146 0
M  V30 8206 H 786.543 -3.72782 1.07959 0
M  V30 8207 H 784.644 -3.46419 -1.37203 0
M  V30 8208 H 784.757 -4.79088 -0.0340503 0
M  V30 8209 H 783.121 -2.54441 -0.114849 0
M  V30 8210 H 783.904 -3.10763 1.45881 0
M  V30 8211 N 786.349 -0.21828 -1.56081 0
M  V30 8212 C 787.312 0.679633 -2.18892 0
M  V30 8213 C 788.312 1.12405 -1.14986 0
M  V30 8214 O 789.502 1.03339 -1.40238 0
M  V30 8215 C 786.634 1.93063 -2.80962 0
M  V30 8216 H 787.827 0.132066 -2.99609 0
M  V30 8217 H 785.38 0.0313374 -1.56269 0
M  V30 8218 H 786.115 2.52015 -2.04106 0
M  V30 8219 H 785.9 1.62046 -3.57048 0
M  V30 8220 H 787.39 2.57043 -3.29118 0
M  V30 8221 N 787.827 1.57504 0.0551401 0
M  V30 8222 C 789.073 1.89191 0.74688 0
M  V30 8223 C 789.428 0.813936 1.74335 0
M  V30 8224 O 788.721 -0.180217 1.90751 0
M  V30 8225 C 788.915 3.25311 1.48013 0
M  V30 8226 C 788.744 4.46247 0.556176 0
M  V30 8227 C 787.514 5.04954 0.186891 0
M  V30 8228 C 789.712 5.14068 -0.154295 0
M  V30 8229 N 787.694 6.09411 -0.741041 0
M  V30 8230 C 789.065 6.12851 -0.938809 0
M  V30 8231 C 791.12 4.97396 -0.224007 0
M  V30 8232 C 789.823 6.96759 -1.78658 0
M  V30 8233 C 791.849 5.81845 -1.05881 0
M  V30 8234 C 791.211 6.80178 -1.83133 0
M  V30 8235 H 787.31 0.741562 0.248213 0
M  V30 8236 H 789.894 1.94698 0.00777734 0
M  V30 8237 H 788.065 3.20781 2.18985 0
M  V30 8238 H 789.797 3.44594 2.12219 0
M  V30 8239 H 786.552 4.70472 0.543415 0
M  V30 8240 H 786.976 6.66303 -1.19874 0
M  V30 8241 H 791.618 4.21274 0.358924 0
M  V30 8242 H 789.336 7.72245 -2.38042 0
M  V30 8243 H 792.922 5.70997 -1.11595 0
M  V30 8244 H 791.802 7.44389 -2.46687 0
M  V30 8245 N 789.305 -0.326896 1.54172 0
M  V30 8246 C 790.268 -1.38515 1.8261 0
M  V30 8247 C 791.268 -1.44872 0.697771 0
M  V30 8248 O 792.458 -1.44957 0.966078 0
M  V30 8249 C 789.59 -2.77281 1.98313 0
M  V30 8250 H 790.783 -1.14556 2.77159 0
M  V30 8251 H 788.336 -0.562199 1.45839 0
M  V30 8252 H 789.071 -3.065 1.05964 0
M  V30 8253 H 788.856 -2.74061 2.80416 0
M  V30 8254 H 790.346 -3.53845 2.21773 0
M  V30 8255 N 790.784 -1.46188 -0.588786 0
M  V30 8256 C 791.731 -1.56292 -1.69828 0
M  V30 8257 C 792.701 -0.407581 -1.61022 0
M  V30 8258 O 793.886 -0.623532 -1.80324 0
M  V30 8259 C 791.026 -1.55341 -3.08161 0
M  V30 8260 C 790.139 -2.81564 -3.27636 0
M  V30 8261 C 789.274 -2.72158 -4.56183 0
M  V30 8262 C 788.313 -3.93348 -4.68981 0
M  V30 8263 N 787.45 -3.82365 -5.88848 0
M  V30 8264 H 792.29 -2.51066 -1.6053 0
M  V30 8265 H 789.827 -1.24562 -0.782474 0
M  V30 8266 H 791.785 -1.52776 -3.88221 0
M  V30 8267 H 790.415 -0.641034 -3.16371 0
M  V30 8268 H 789.467 -2.94136 -2.41223 0
M  V30 8269 H 790.779 -3.714 -3.32962 0
M  V30 8270 H 789.933 -2.67665 -5.44464 0
M  V30 8271 H 788.672 -1.79953 -4.53286 0
M  V30 8272 H 787.677 -3.98181 -3.7912 0
M  V30 8273 H 788.902 -4.86643 -4.73662 0
M  V30 8274 H 786.848 -2.92942 -5.86959 0
M  V30 8275 H 786.765 -4.65851 -5.95415 0
M  V30 8276 H 788.033 -3.81836 -6.79575 0
M  V30 8277 N 792.262 0.832906 -1.33792 0
M  V30 8278 C 793.673 1.40489 -1.22963 0
M  V30 8279 C 794.024 1.95633 0.149026 0
M  V30 8280 O 793.149 1.8928 1.04891 0
M  V30 8281 C 793.744 2.55387 -2.22627 0
M  V30 8282 C 792.303 3.08522 -2.15618 0
M  V30 8283 C 791.45 1.81347 -2.09782 0
M  V30 8284 H 794.401 0.638156 -1.45304 0
M  V30 8285 H 794.422 3.33193 -1.83746 0
M  V30 8286 H 793.934 2.15222 -3.22957 0
M  V30 8287 H 792.035 3.53217 -1.18611 0
M  V30 8288 H 792.148 3.6829 -3.0643 0
M  V30 8289 H 790.512 2.01839 -1.55349 0
M  V30 8290 H 791.295 1.43369 -3.1193 0
M  V30 8291 N 793.74 1.17359 1.05189 0
M  V30 8292 C 794.968 0.986529 1.81866 0
M  V30 8293 C 795.383 -0.46522 1.82979 0
M  V30 8294 O 794.74 -1.32305 1.25705 0
M  V30 8295 C 794.791 1.52021 3.27982 0
M  V30 8296 O 794.512 2.91511 3.27037 0
M  V30 8297 C 796.013 1.37774 4.21347 0
M  V30 8298 H 793.233 0.349021 0.573084 0
M  V30 8299 H 795.777 1.55648 1.32643 0
M  V30 8300 H 793.932 0.992287 3.74476 0
M  V30 8301 H 794.346 3.16178 4.18488 0
M  V30 8302 H 795.82 1.7993 5.21852 0
M  V30 8303 H 796.297 0.32483 4.37997 0
M  V30 8304 H 796.903 1.89583 3.80708 0
M  V30 8305 N 795.218 -1.23913 0.973828 0
M  V30 8306 C 796.166 -2.27141 0.50098 0
M  V30 8307 C 797.16 -1.63623 -0.438631 0
M  V30 8308 O 798.366 -1.77253 -0.313247 0
M  V30 8309 H 794.741 -0.73817 0.14356 0
M  V30 8310 H 796.712 -2.64392 1.38346 0
M  V30 8311 C 795.461 -3.47195 -0.187377 0
M  V30 8312 H 794.784 -3.96318 0.526535 0
M  V30 8313 H 796.224 -4.21252 -0.481962 0
M  V30 8314 C 794.683 -3.05678 -1.41642 0
M  V30 8315 O 795.213 -3.1338 -2.51309 0
M  V30 8316 N 793.419 -2.60661 -1.28469 0
M  V30 8317 H 792.966 -2.54594 -0.39238 0
M  V30 8318 H 792.924 -2.33249 -2.10813 0
M  V30 8319 N 796.696 -0.74468 -1.38897 0
M  V30 8320 C 797.924 -0.307428 -2.04603 0
M  V30 8321 C 798.339 1.06115 -1.56157 0
M  V30 8322 O 797.696 1.67233 -0.730701 0
M  V30 8323 C 797.747 -0.31101 -3.6016 0
M  V30 8324 O 797.468 -1.62557 -4.06825 0
M  V30 8325 C 798.969 0.141213 -4.43075 0
M  V30 8326 H 796.189 -0.132741 -0.657739 0
M  V30 8327 H 798.733 -1.01104 -1.77759 0
M  V30 8328 H 796.888 0.343792 -3.85872 0
M  V30 8329 H 797.302 -1.54569 -5.01207 0
M  V30 8330 H 798.776 0.0875449 -5.51931 0
M  V30 8331 H 799.253 1.18782 -4.22833 0
M  V30 8332 H 799.859 -0.484383 -4.22533 0
M  V30 8333 N 798.174 1.49689 -0.493057 0
M  V30 8334 C 799.106 2.26867 0.326195 0
M  V30 8335 C 800.119 1.33083 0.937697 0
M  V30 8336 O 801.308 1.58427 0.822382 0
M  V30 8337 C 798.408 3.0519 1.4735 0
M  V30 8338 C 797.581 4.26491 0.970767 0
M  V30 8339 C 796.64 4.86926 1.99473 0
M  V30 8340 O 795.666 5.47221 1.56647 0
M  V30 8341 N 796.868 4.75871 3.32456 0
M  V30 8342 H 799.633 2.97816 -0.335547 0
M  V30 8343 H 797.194 1.58602 -0.325129 0
M  V30 8344 H 799.186 3.42496 2.15589 0
M  V30 8345 H 797.756 2.369 2.03954 0
M  V30 8346 H 796.976 3.94036 0.113529 0
M  V30 8347 H 798.264 5.05092 0.613156 0
M  V30 8348 H 797.662 4.2797 3.69944 0
M  V30 8349 H 796.219 5.17383 3.96431 0
M  V30 8350 N 799.652 0.226554 1.55963 0
M  V30 8351 C 800.615 -0.668015 2.19249 0
M  V30 8352 C 801.615 -1.11794 1.1558 0
M  V30 8353 O 802.805 -1.02593 1.40784 0
M  V30 8354 C 799.937 -1.91571 2.81981 0
M  V30 8355 H 801.13 -0.116175 2.99675 0
M  V30 8356 H 798.683 -0.0230497 1.56283 0
M  V30 8357 H 799.418 -2.50929 2.05439 0
M  V30 8358 H 799.203 -1.6015 3.57903 0
M  V30 8359 H 800.693 -2.55294 3.30477 0
M  V30 8360 N 801.13 -1.57531 -0.0467866 0
M  V30 8361 C 802.36 -1.92417 -0.752279 0
M  V30 8362 C 802.768 -0.823134 -1.70356 0
M  V30 8363 O 802.111 0.210598 -1.82489 0
M  V30 8364 C 802.173 -3.22974 -1.57887 0
M  V30 8365 C 801.837 -4.50045 -0.794285 0
M  V30 8366 C 802.834 -5.19799 -0.102368 0
M  V30 8367 C 800.519 -4.96608 -0.754061 0
M  V30 8368 C 802.513 -6.34385 0.619267 0
M  V30 8369 C 800.2 -6.11093 -0.0286682 0
M  V30 8370 C 801.198 -6.79835 0.656772 0
M  V30 8371 O 800.886 -7.92133 1.37042 0
M  V30 8372 H 800.618 -0.640029 -0.217576 0
M  V30 8373 H 803.172 -2.05395 -0.0137438 0
M  V30 8374 H 801.402 -3.06273 -2.3608 0
M  V30 8375 H 803.091 -3.43319 -2.16533 0
M  V30 8376 H 803.857 -4.8484 -0.124589 0
M  V30 8377 H 799.736 -4.42958 -1.27706 0
M  V30 8378 H 803.28 -6.87975 1.15483 0
M  V30 8379 H 799.177 -6.455 -0.00446214 0
M  V30 8380 H 799.945 -8.08394 1.28227 0
M  V30 8381 N 802.608 0.318715 -1.54344 0
M  V30 8382 C 803.833 1.07987 -1.77069 0
M  V30 8383 C 804.258 1.80766 -0.520117 0
M  V30 8384 O 803.616 1.73424 0.528566 0
M  V30 8385 C 803.664 2.04987 -2.96669 0
M  V30 8386 O 802.768 3.12974 -2.68554 0
M  V30 8387 H 802.109 0.311109 -0.586606 0
M  V30 8388 H 804.639 0.361533 -2.0138 0
M  V30 8389 H 804.649 2.47771 -3.2415 0
M  V30 8390 H 803.324 1.51417 -3.87357 0
M  V30 8391 H 801.901 2.74831 -2.52037 0
M  V30 8392 N 804.086 1.46499 0.581025 0
M  V30 8393 C 805.334 1.51596 1.33653 0
M  V30 8394 C 805.655 0.169859 1.94259 0
M  V30 8395 O 804.925 -0.803776 1.78651 0
M  V30 8396 H 803.505 0.558346 0.496244 0
M  V30 8397 H 806.167 1.8264 0.680338 0
M  V30 8398 H 805.263 2.26956 2.14237 0
M  V30 8399 N 805.565 -0.825799 1.34232 0
M  V30 8400 C 806.842 -1.56741 1.17011 0
M  V30 8401 C 807.222 -2.09512 -0.258425 0
M  V30 8402 O 806.57 -1.90664 -1.25935 0
M  V30 8403 C 806.78 -2.69104 2.22225 0
M  V30 8404 C 808.128 -3.37947 2.57055 0
M  V30 8405 O 809.152 -2.79358 2.20992 0
M  V30 8406 O 808.011 -4.43743 3.1899 0
M  V30 8407 H 805.105 -0.69163 0.453405 0
M  V30 8408 H 807.651 -0.867422 1.45856 0
M  V30 8409 H 806.423 -2.27844 3.18124 0
M  V30 8410 H 806.046 -3.46756 1.94541 0
M  V30 8411 N 807.043 -1.17915 -1.04565 0
M  V30 8412 C 808.273 -0.994716 -1.81077 0
M  V30 8413 C 808.681 0.460146 -1.83519 0
M  V30 8414 O 808.024 1.33136 -1.26572 0
M  V30 8415 C 808.086 -1.46698 -3.28207 0
M  V30 8416 C 807.75 -2.94523 -3.49436 0
M  V30 8417 C 808.747 -3.92414 -3.41038 0
M  V30 8418 C 806.432 -3.32841 -3.76194 0
M  V30 8419 C 808.426 -5.2662 -3.59096 0
M  V30 8420 C 806.113 -4.67212 -3.93899 0
M  V30 8421 C 807.111 -5.6391 -3.8535 0
M  V30 8422 O 806.799 -6.95849 -4.02554 0
M  V30 8423 H 806.531 -0.351797 -0.577248 0
M  V30 8424 H 809.085 -1.56772 -1.32709 0
M  V30 8425 H 807.315 -0.837592 -3.7752 0
M  V30 8426 H 809.004 -1.24724 -3.86263 0
M  V30 8427 H 809.77 -3.64157 -3.20336 0
M  V30 8428 H 805.649 -2.58139 -3.81949 0
M  V30 8429 H 809.193 -6.02082 -3.52339 0
M  V30 8430 H 805.09 -4.95172 -4.14095 0
M  V30 8431 H 805.858 -7.02679 -4.19743 0
M  V30 8432 N 808.521 1.23394 -0.980386 0
M  V30 8433 C 809.454 2.23404 -0.465404 0
M  V30 8434 C 810.432 1.55735 0.467471 0
M  V30 8435 O 811.616 1.84295 0.395921 0
M  V30 8436 C 808.743 3.3712 0.32672 0
M  V30 8437 C 807.789 4.22935 -0.550296 0
M  V30 8438 S 808.622 4.96824 -1.99814 0
M  V30 8439 C 809.778 6.13991 -1.21516 0
M  V30 8440 H 810.011 2.6674 -1.31289 0
M  V30 8441 H 807.544 1.32874 -0.78638 0
M  V30 8442 H 809.502 4.03065 0.777738 0
M  V30 8443 H 808.163 2.92317 1.14933 0
M  V30 8444 H 807.356 5.03966 0.0585298 0
M  V30 8445 H 806.958 3.62058 -0.937558 0
M  V30 8446 H 809.25 6.75822 -0.476476 0
M  V30 8447 H 810.193 6.7926 -2.0003 0
M  V30 8448 H 810.601 5.59708 -0.733949 0
M  V30 8449 N 809.999 0.752036 1.385 0
M  V30 8450 C 810.909 0.125318 2.34265 0
M  V30 8451 C 811.925 -0.702437 1.59191 0
M  V30 8452 O 813.101 -0.626951 1.91393 0
M  V30 8453 C 810.166 -0.758486 3.38301 0
M  V30 8454 C 809.227 0.0834636 4.29219 0
M  V30 8455 C 808.46 -0.758252 5.28286 0
M  V30 8456 O 808.683 -1.99632 5.34325 0
M  V30 8457 O 807.617 -0.177878 6.01637 0
M  V30 8458 H 811.443 0.91617 2.89551 0
M  V30 8459 H 809.028 0.512911 1.4032 0
M  V30 8460 H 810.91 -1.26365 4.02007 0
M  V30 8461 H 809.585 -1.52786 2.85374 0
M  V30 8462 H 808.492 0.634545 3.68679 0
M  V30 8463 H 809.825 0.815455 4.85398 0
M  V30 8464 N 811.477 -1.49425 0.500989 0
M  V30 8465 C 812.888 -1.86624 0.0532011 0
M  V30 8466 C 813.239 -1.41331 -1.36088 0
M  V30 8467 O 812.364 -0.791195 -2.01418 0
M  V30 8468 C 812.959 -3.38681 0.0897693 0
M  V30 8469 C 811.518 -3.75181 -0.302677 0
M  V30 8470 C 810.665 -2.73419 0.462307 0
M  V30 8471 H 813.616 -1.41743 0.713773 0
M  V30 8472 H 813.637 -3.73902 -0.705528 0
M  V30 8473 H 813.149 -3.71616 1.11907 0
M  V30 8474 H 811.25 -3.47855 -1.33521 0
M  V30 8475 H 811.363 -4.79097 0.0167653 0
M  V30 8476 H 809.727 -2.54548 -0.0878557 0
M  V30 8477 H 810.51 -3.09198 1.49169 0
M  V30 8478 N 812.955 -0.234822 -1.55841 0
M  V30 8479 C 813.865 0.680828 -2.24504 0
M  V30 8480 C 814.881 1.20306 -1.25708 0
M  V30 8481 O 816.057 1.24188 -1.58554 0
M  V30 8482 C 813.122 1.86636 -2.92178 0
M  V30 8483 C 812.183 1.3848 -4.06352 0
M  V30 8484 C 811.416 2.51382 -4.70789 0
M  V30 8485 O 811.639 3.69831 -4.34259 0
M  V30 8486 O 810.573 2.21828 -5.59532 0
M  V30 8487 H 814.399 0.12583 -3.03439 0
M  V30 8488 H 811.984 -0.00381817 -1.494 0
M  V30 8489 H 813.866 2.55845 -3.34845 0
M  V30 8490 H 812.541 2.40921 -2.16192 0
M  V30 8491 H 811.448 0.660341 -3.68226 0
M  V30 8492 H 812.781 0.888177 -4.8412 0
M  V30 8493 N 814.433 1.57553 0.0384317 0
M  V30 8494 C 815.38 2.05942 1.04194 0
M  V30 8495 C 816.35 0.946637 1.36484 0
M  V30 8496 O 817.535 1.21658 1.46983 0
M  V30 8497 C 814.675 2.53588 2.34066 0
M  V30 8498 C 813.788 3.7862 2.08017 0
M  V30 8499 C 812.923 4.14915 3.31692 0
M  V30 8500 C 811.962 5.32891 3.01155 0
M  V30 8501 N 811.099 5.64662 4.17254 0
M  V30 8502 H 815.939 2.91429 0.622341 0
M  V30 8503 H 813.476 1.44098 0.295684 0
M  V30 8504 H 815.434 2.79276 3.09937 0
M  V30 8505 H 814.064 1.71031 2.73767 0
M  V30 8506 H 813.116 3.60073 1.22686 0
M  V30 8507 H 814.428 4.64613 1.81484 0
M  V30 8508 H 813.582 4.41681 4.15936 0
M  V30 8509 H 812.321 3.27555 3.6133 0
M  V30 8510 H 811.326 5.05887 2.15311 0
M  V30 8511 H 812.551 6.21896 2.72804 0
M  V30 8512 H 810.497 4.80261 4.46861 0
M  V30 8513 H 810.414 6.45145 3.94112 0
M  V30 8514 H 811.682 5.96 5.02399 0
M  V30 8515 N 815.911 -0.310526 1.54511 0
M  V30 8516 C 817.322 -0.884142 1.64438 0
M  V30 8517 C 817.673 -1.88425 0.546855 0
M  V30 8518 O 816.798 -2.14049 -0.31811 0
M  V30 8519 C 817.393 -1.6104 2.9808 0
M  V30 8520 C 815.952 -2.13255 3.1016 0
M  V30 8521 C 815.099 -0.96213 2.60074 0
M  V30 8522 H 818.05 -0.0877666 1.58457 0
M  V30 8523 H 818.071 -2.47541 2.8897 0
M  V30 8524 H 817.583 -0.882255 3.77939 0
M  V30 8525 H 815.684 -2.89145 2.35002 0
M  V30 8526 H 815.797 -2.37361 4.16169 0
M  V30 8527 H 814.161 -1.34501 2.16291 0
M  V30 8528 H 814.944 -0.248098 3.42402 0
M  V30 8529 N 817.389 -1.46805 -0.573248 0
M  V30 8530 C 818.637 -1.52302 -1.32847 0
M  V30 8531 C 818.958 -0.180159 -1.94166 0
M  V30 8532 O 818.228 0.794291 -1.79075 0
M  V30 8533 H 816.808 -0.56097 -0.493276 0
M  V30 8534 H 819.47 -1.82998 -0.670642 0
M  V30 8535 H 818.566 -2.28089 -2.13031 0
M  V30 8536 N 818.867 0.818669 -1.34668 0
M  V30 8537 C 819.83 1.9114 -1.26483 0
M  V30 8538 C 820.83 1.598 -0.179044 0
M  V30 8539 O 822.02 1.6876 -0.431952 0
M  V30 8540 C 819.152 3.27285 -0.95381 0
M  V30 8541 H 820.345 1.9982 -2.23634 0
M  V30 8542 H 817.898 1.01314 -1.19018 0
M  V30 8543 H 818.633 3.24297 0.0143428 0
M  V30 8544 H 818.418 3.51416 -1.73924 0
M  V30 8545 H 819.908 4.07299 -0.921827 0
M  V30 8546 N 820.346 1.18468 1.03938 0
M  V30 8547 C 821.757 0.984808 1.58614 0
M  V30 8548 C 822.108 -0.465165 1.90606 0
M  V30 8549 O 821.233 -1.34274 1.69704 0
M  V30 8550 C 821.828 1.78135 2.8819 0
M  V30 8551 C 820.387 1.62579 3.39478 0
M  V30 8552 C 819.534 1.77501 2.13046 0
M  V30 8553 H 822.485 1.32993 0.865944 0
M  V30 8554 H 822.506 1.27119 3.58638 0
M  V30 8555 H 822.018 2.83661 2.64874 0
M  V30 8556 H 820.119 0.59595 3.67803 0
M  V30 8557 H 820.232 2.42463 4.13217 0
M  V30 8558 H 818.596 1.2046 2.24414 0
M  V30 8559 H 819.379 2.84464 1.92185 0
M  V30 8560 N 821.824 -1.22873 0.986916 0
M  V30 8561 C 822.754 -2.2688 0.552064 0
M  V30 8562 C 823.735 -1.64883 -0.418048 0
M  V30 8563 O 824.92 -1.9171 -0.30999 0
M  V30 8564 C 822.05 -3.47018 -0.139959 0
M  V30 8565 C 821.004 -4.21411 0.748091 0
M  V30 8566 C 820.33 -5.34645 -0.0765132 0
M  V30 8567 C 821.63 -4.80726 2.04206 0
M  V30 8568 H 823.324 -2.63507 1.42143 0
M  V30 8569 H 820.87 -1.26668 0.68492 0
M  V30 8570 H 822.823 -4.18931 -0.455527 0
M  V30 8571 H 821.547 -3.0947 -1.04382 0
M  V30 8572 H 820.206 -3.51325 1.04721 0
M  V30 8573 H 819.854 -4.93339 -0.981109 0
M  V30 8574 H 819.554 -5.85342 0.514606 0
M  V30 8575 H 821.078 -6.09377 -0.386313 0
M  V30 8576 H 822.492 -5.44612 1.79083 0
M  V30 8577 H 820.889 -5.41737 2.5815 0
M  V30 8578 H 821.959 -4.01109 2.72469 0
M  V30 8579 N 823.302 -0.75937 -1.38099 0
M  V30 8580 C 824.232 -0.151077 -2.33011 0
M  V30 8581 C 825.213 0.697099 -1.5516 0
M  V30 8582 O 826.398 0.637101 -1.83452 0
M  V30 8583 C 823.528 0.738423 -3.39359 0
M  V30 8584 C 822.482 -0.0074741 -4.27999 0
M  V30 8585 C 821.808 1.00066 -5.25253 0
M  V30 8586 C 823.108 -1.17926 -5.08813 0
M  V30 8587 H 824.802 -0.943933 -2.84131 0
M  V30 8588 H 822.348 -0.455362 -1.36611 0
M  V30 8589 H 824.301 1.17369 -4.04725 0
M  V30 8590 H 823.025 1.56366 -2.86735 0
M  V30 8591 H 821.684 -0.423379 -3.64147 0
M  V30 8592 H 821.332 1.82012 -4.68914 0
M  V30 8593 H 821.032 0.506199 -5.85416 0
M  V30 8594 H 822.556 1.43512 -5.93495 0
M  V30 8595 H 823.97 -0.821262 -5.67387 0
M  V30 8596 H 822.367 -1.60497 -5.78239 0
M  V30 8597 H 823.437 -1.98938 -4.42212 0
M  V30 8598 N 824.78 1.49157 -0.508906 0
M  V30 8599 C 826.191 1.86593 -0.0630975 0
M  V30 8600 C 826.542 1.42051 1.35337 0
M  V30 8601 O 825.667 0.801866 2.00995 0
M  V30 8602 C 826.262 3.38629 -0.107729 0
M  V30 8603 C 824.821 3.75336 0.282776 0
M  V30 8604 C 823.968 2.7317 -0.4768 0
M  V30 8605 H 826.919 1.41362 -0.72128 0
M  V30 8606 H 826.94 3.74271 0.685689 0
M  V30 8607 H 826.452 3.71017 -1.13876 0
M  V30 8608 H 824.553 3.48558 1.31675 0
M  V30 8609 H 824.666 4.79081 -0.0421728 0
M  V30 8610 H 823.03 2.54591 0.0743552 0
M  V30 8611 H 823.813 3.08403 -1.50807 0
M  V30 8612 N 826.258 0.243083 1.55714 0
M  V30 8613 C 827.669 -0.260788 1.8487 0
M  V30 8614 C 828.02 -1.57879 1.16485 0
M  V30 8615 O 827.145 -2.1184 0.441908 0
M  V30 8616 C 827.74 -0.479954 3.35383 0
M  V30 8617 C 826.299 -0.928096 3.64778 0
M  V30 8618 C 825.446 -0.00316416 2.773 0
M  V30 8619 H 828.397 0.465743 1.51712 0
M  V30 8620 H 828.418 -1.32308 3.56756 0
M  V30 8621 H 827.93 0.479468 3.85127 0
M  V30 8622 H 826.031 -1.90012 3.20509 0
M  V30 8623 H 826.144 -0.7876 4.72582 0
M  V30 8624 H 824.508 -0.513849 2.49463 0
M  V30 8625 H 825.291 0.951562 3.29849 0
M  V30 8626 N 827.736 -1.57571 -0.0300757 0
M  V30 8627 C 829.147 -1.77567 -0.576802 0
M  V30 8628 C 829.498 -0.874034 -1.75656 0
M  V30 8629 O 828.623 -0.0686124 -2.16291 0
M  V30 8630 C 829.218 -3.22016 -1.05315 0
M  V30 8631 C 827.777 -3.43212 -1.5454 0
M  V30 8632 C 826.924 -2.73061 -0.483033 0
M  V30 8633 H 829.875 -1.57483 0.196151 0
M  V30 8634 H 829.896 -3.28474 -1.92055 0
M  V30 8635 H 829.408 -3.87613 -0.194298 0
M  V30 8636 H 827.509 -2.82788 -2.42615 0
M  V30 8637 H 827.622 -4.5182 -1.5936 0
M  V30 8638 H 825.986 -2.36805 -0.937835 0
M  V30 8639 H 826.769 -3.4134 0.366341 0
M  V30 8640 N 829.214 0.302327 -1.54673 0
M  V30 8641 C 830.625 0.875409 -1.64904 0
M  V30 8642 C 830.976 1.88132 -0.55684 0
M  V30 8643 O 830.101 2.14215 0.306754 0
M  V30 8644 C 830.696 1.59457 -2.9893 0
M  V30 8645 C 829.255 2.11607 -3.11287 0
M  V30 8646 C 828.402 0.948324 -2.6058 0
M  V30 8647 H 831.353 0.079362 -1.58501 0
M  V30 8648 H 831.374 2.46005 -2.90279 0
M  V30 8649 H 830.886 0.8622 -3.78402 0
M  V30 8650 H 828.987 2.87895 -2.36532 0
M  V30 8651 H 829.1 2.35151 -4.17422 0
M  V30 8652 H 827.464 1.33352 -2.17001 0
M  V30 8653 H 828.247 0.229936 -3.42529 0
M  V30 8654 N 830.692 1.47107 0.565454 0
M  V30 8655 C 831.624 1.55024 1.6882 0
M  V30 8656 C 832.637 0.4371 1.56822 0
M  V30 8657 O 833.826 0.706315 1.63931 0
M  V30 8658 C 830.926 1.43069 3.0722 0
M  V30 8659 C 830.099 2.68807 3.45053 0
M  V30 8660 C 829.158 2.50806 4.62583 0
M  V30 8661 O 828.184 3.24593 4.67577 0
M  V30 8662 N 829.386 1.58093 5.58558 0
M  V30 8663 H 832.151 2.51836 1.62477 0
M  V30 8664 H 829.712 1.43382 0.751885 0
M  V30 8665 H 831.704 1.28773 3.83666 0
M  V30 8666 H 830.274 0.543721 3.07835 0
M  V30 8667 H 829.494 2.97923 2.58138 0
M  V30 8668 H 830.782 3.52298 3.67101 0
M  V30 8669 H 830.18 0.972807 5.57273 0
M  V30 8670 H 828.737 1.49753 6.34364 0
M  V30 8671 N 832.17 -0.811516 1.35101 0
M  V30 8672 C 833.118 -1.94449 1.27642 0
M  V30 8673 C 834.112 -1.68522 0.172287 0
M  V30 8674 O 835.318 -1.76799 0.337967 0
M  V30 8675 H 831.693 -0.638776 0.396824 0
M  V30 8676 H 833.664 -1.97861 2.23369 0
M  V30 8677 C 832.413 -3.31139 1.06029 0
M  V30 8678 H 831.736 -3.51644 1.90227 0
M  V30 8679 H 833.176 -4.10831 1.0485 0
M  V30 8680 C 831.635 -3.36072 -0.236039 0
M  V30 8681 O 832.165 -3.82292 -1.23353 0
M  V30 8682 N 830.371 -2.89314 -0.273107 0
M  V30 8683 H 829.918 -2.51893 0.539211 0
M  V30 8684 H 829.876 -2.92996 -1.1402 0
M  V30 8685 N 833.648 -1.19017 -1.03309 0
M  V30 8686 C 834.873 -1.01598 -1.80811 0
M  V30 8687 C 835.298 0.430773 -1.83101 0
M  V30 8688 O 834.656 1.30946 -1.25391 0
M  V30 8689 C 834.704 -1.5845 -3.23923 0
M  V30 8690 O 833.808 -0.810972 -4.04348 0
M  V30 8691 H 833.149 -0.359398 -0.558327 0
M  V30 8692 H 835.679 -1.57945 -1.30055 0
M  V30 8693 H 835.689 -1.61486 -3.74682 0
M  V30 8694 H 834.364 -2.63752 -3.21571 0
M  V30 8695 H 832.941 -0.85353 -3.63 0
M  V30 8696 N 835.127 1.22348 -0.993418 0
M  V30 8697 C 836.373 1.91393 -0.67056 0
M  V30 8698 C 836.706 1.77163 0.795428 0
M  V30 8699 O 835.981 1.14084 1.57528 0
M  V30 8700 C 836.264 3.43589 -1.0779 0
M  V30 8701 C 836.117 3.66867 -2.60248 0
M  V30 8702 C 837.436 4.35545 -0.631527 0
M  V30 8703 H 834.555 0.695057 -0.24508 0
M  V30 8704 H 837.197 1.44213 -1.23703 0
M  V30 8705 H 835.347 3.83903 -0.595902 0
M  V30 8706 H 837.019 3.35954 -3.16121 0
M  V30 8707 H 835.262 3.1113 -3.02293 0
M  V30 8708 H 835.933 4.73457 -2.838 0
M  V30 8709 H 838.409 4.0275 -1.04554 0
M  V30 8710 H 837.285 5.40707 -0.944831 0
M  V30 8711 H 837.546 4.39618 0.467779 0
M  V30 8712 N 836.605 0.766683 1.37694 0
M  V30 8713 C 838.016 0.394761 1.82479 0
M  V30 8714 C 838.367 -1.07842 1.63904 0
M  V30 8715 O 837.492 -1.83479 1.14737 0
M  V30 8716 C 838.087 0.70974 3.31283 0
M  V30 8717 C 836.646 0.390936 3.74364 0
M  V30 8718 C 835.793 0.956192 2.60293 0
M  V30 8719 H 838.744 0.961756 1.26238 0
M  V30 8720 H 838.765 -0.00742144 3.80499 0
M  V30 8721 H 838.277 1.782 3.4477 0
M  V30 8722 H 836.378 -0.674213 3.66449 0
M  V30 8723 H 836.491 0.895645 4.70654 0
M  V30 8724 H 834.855 0.380744 2.51838 0
M  V30 8725 H 835.638 2.03375 2.76575 0
M  V30 8726 N 838.083 -1.48885 0.516809 0
M  V30 8727 C 839.033 -2.26363 -0.272704 0
M  V30 8728 C 840.017 -1.31891 -0.921604 0
M  V30 8729 O 841.209 -1.56514 -0.826589 0
M  V30 8730 C 838.338 -3.16614 -1.32705 0
M  V30 8731 C 837.424 -4.18554 -0.683598 0
M  V30 8732 N 837.815 -5.05308 0.223015 0
M  V30 8733 C 836.113 -4.35931 -0.942351 0
M  V30 8734 C 836.814 -5.7867 0.592918 0
M  V30 8735 N 835.79 -5.43583 -0.042912 0
M  V30 8736 H 839.592 -2.90811 0.424971 0
M  V30 8737 H 837.106 -1.5893 0.333941 0
M  V30 8738 H 839.103 -3.70766 -1.90625 0
M  V30 8739 H 837.763 -2.5372 -2.02624 0
M  V30 8740 H 838.774 -5.14473 0.594818 0
M  V30 8741 H 835.451 -3.84234 -1.6331 0
M  V30 8742 H 836.841 -6.58493 1.33556 0
M  V30 8743 N 839.561 -0.251338 -1.55583 0
M  V30 8744 C 840.791 0.375642 -2.03156 0
M  V30 8745 C 841.199 1.51761 -1.12983 0
M  V30 8746 O 840.542 1.83184 -0.13757 0
M  V30 8747 C 840.604 0.941001 -3.46966 0
M  V30 8748 C 840.268 -0.0692886 -4.56947 0
M  V30 8749 C 841.265 -0.88041 -5.12391 0
M  V30 8750 C 838.95 -0.196661 -5.01915 0
M  V30 8751 C 840.944 -1.80532 -6.11299 0
M  V30 8752 C 838.631 -1.12507 -6.00654 0
M  V30 8753 C 839.629 -1.92792 -6.55225 0
M  V30 8754 O 839.317 -2.84067 -7.52038 0
M  V30 8755 H 839.049 0.0928836 -0.669588 0
M  V30 8756 H 841.603 -0.374115 -2.01964 0
M  V30 8757 H 839.833 1.7404 -3.45322 0
M  V30 8758 H 841.522 1.47853 -3.78014 0
M  V30 8759 H 842.288 -0.792615 -4.78479 0
M  V30 8760 H 838.167 0.418187 -4.59099 0
M  V30 8761 H 841.711 -2.43239 -6.5382 0
M  V30 8762 H 837.608 -1.21377 -6.33986 0
M  V30 8763 H 838.376 -2.78479 -7.6967 0
M  V30 8764 N 841.039 1.57585 0.0217189 0
M  V30 8765 C 842.002 2.06004 1.00474 0
M  V30 8766 C 843.002 0.965461 1.2859 0
M  V30 8767 O 844.192 1.22884 1.23471 0
M  V30 8768 C 841.324 2.48319 2.33561 0
M  V30 8769 H 842.517 2.94112 0.586346 0
M  V30 8770 H 840.07 1.53973 0.268716 0
M  V30 8771 H 840.805 1.63389 2.80133 0
M  V30 8772 H 840.59 3.28239 2.1448 0
M  V30 8773 H 842.08 2.86181 3.04122 0
M  V30 8774 N 842.517 -0.29412 1.54831 0
M  V30 8775 C 843.427 -1.3854 1.89325 0
M  V30 8776 C 844.443 -1.55127 0.788133 0
M  V30 8777 O 845.619 -1.6966 1.08524 0
M  V30 8778 C 842.684 -2.72809 2.13954 0
M  V30 8779 C 841.745 -2.65148 3.37631 0
M  V30 8780 C 840.978 -3.93014 3.61076 0
M  V30 8781 O 841.201 -4.927 2.87406 0
M  V30 8782 O 840.135 -3.94491 4.54599 0
M  V30 8783 H 843.961 -1.12289 2.82179 0
M  V30 8784 H 841.546 -0.490793 1.41108 0
M  V30 8785 H 843.428 -3.52238 2.31315 0
M  V30 8786 H 842.103 -2.9889 1.24285 0
M  V30 8787 H 841.01 -1.84168 3.25627 0
M  V30 8788 H 842.343 -2.4402 4.27452 0
M  V30 8789 N 843.995 -1.47404 -0.557645 0
M  V30 8790 C 844.958 -1.59411 -1.64684 0
M  V30 8791 C 845.958 -0.469244 -1.53801 0
M  V30 8792 O 847.148 -0.734298 -1.57967 0
M  V30 8793 C 844.28 -1.5382 -3.04224 0
M  V30 8794 H 845.473 -2.56504 -1.55389 0
M  V30 8795 H 843.026 -1.35588 -0.777531 0
M  V30 8796 H 843.761 -0.581 -3.19053 0
M  V30 8797 H 843.546 -2.35456 -3.13533 0
M  V30 8798 H 845.036 -1.65358 -3.83466 0
M  V30 8799 N 845.473 0.80434 -1.35529 0
M  V30 8800 C 846.75 1.5486 -1.1949 0
M  V30 8801 C 847.13 2.09897 0.22506 0
M  V30 8802 O 846.478 1.92643 1.22886 0
M  V30 8803 C 846.688 2.65535 -2.26478 0
M  V30 8804 C 848.036 3.33814 -2.62399 0
M  V30 8805 O 849.06 2.75807 -2.25409 0
M  V30 8806 O 847.919 4.38612 -3.26009 0
M  V30 8807 H 845.013 0.68433 -0.464351 0
M  V30 8808 H 847.559 0.844107 -1.47217 0
M  V30 8809 H 846.331 2.22754 -3.21709 0
M  V30 8810 H 845.954 3.43617 -2.00033 0
M  V30 8811 N 846.951 1.19563 1.02676 0
M  V30 8812 C 848.2 0.993864 1.75514 0
M  V30 8813 C 848.513 -0.475882 1.89723 0
M  V30 8814 O 849.719 -0.796525 2.59553 0
M  V30 8815 C 848.175 1.72937 3.15628 0
M  V30 8816 C 847.783 3.23937 3.09466 0
M  V30 8817 C 849.527 1.61092 3.92746 0
M  V30 8818 C 847.434 3.90067 4.44524 0
M  V30 8819 H 846.364 0.368244 0.657961 0
M  V30 8820 H 849.015 1.43081 1.14891 0
M  V30 8821 H 847.397 1.22025 3.76731 0
M  V30 8822 H 848.571 3.81983 2.57731 0
M  V30 8823 H 846.886 3.3608 2.45843 0
M  V30 8824 H 849.483 2.07848 4.92649 0
M  V30 8825 H 849.826 0.565415 4.12442 0
M  V30 8826 H 850.359 2.09361 3.3825 0
M  V30 8827 H 847.098 4.94725 4.30032 0
M  V30 8828 H 846.618 3.36809 4.96306 0
M  V30 8829 H 848.297 3.93736 5.13401 0
M  V30 8830 N 848.429 -1.21819 0.999893 0
M  V30 8831 C 849.675 -1.91035 0.680701 0
M  V30 8832 C 850.008 -1.77582 -0.786021 0
M  V30 8833 O 849.283 -1.14917 -1.56921 0
M  V30 8834 C 849.566 -3.43013 1.0961 0
M  V30 8835 C 849.419 -3.65481 2.6219 0
M  V30 8836 C 850.738 -4.35204 0.654616 0
M  V30 8837 H 847.857 -0.693748 0.248763 0
M  V30 8838 H 850.499 -1.43555 1.24466 0
M  V30 8839 H 848.649 -3.83581 0.616253 0
M  V30 8840 H 850.321 -3.34273 3.17899 0
M  V30 8841 H 848.564 -3.09522 3.03938 0
M  V30 8842 H 849.235 -4.71945 2.86307 0
M  V30 8843 H 851.711 -4.0219 1.06688 0
M  V30 8844 H 850.587 -5.40198 0.973492 0
M  V30 8845 H 850.848 -4.3986 -0.444458 0
M  V30 8846 N 849.908 -0.773975 -1.37286 0
M  V30 8847 C 851.136 -0.350758 -2.03905 0
M  V30 8848 C 851.551 1.02779 -1.58373 0
M  V30 8849 O 850.908 1.65646 -0.766009 0
M  V30 8850 C 850.959 -0.387335 -3.59419 0
M  V30 8851 O 850.68 -1.7115 -4.03286 0
M  V30 8852 C 852.181 0.047198 -4.43275 0
M  V30 8853 H 849.401 -0.146663 -0.654775 0
M  V30 8854 H 851.945 -1.04852 -1.75574 0
M  V30 8855 H 850.1 0.261865 -3.86514 0
M  V30 8856 H 850.514 -1.65166 -4.97816 0
M  V30 8857 H 851.988 -0.0295474 -5.51992 0
M  V30 8858 H 852.465 1.09786 -4.25257 0
M  V30 8859 H 853.071 -0.573899 -4.2141 0
M  V30 8860 N 851.386 1.48609 -0.524698 0
M  V30 8861 C 852.316 2.32366 0.229837 0
M  V30 8862 C 853.297 1.41759 0.940129 0
M  V30 8863 O 854.482 1.7065 0.926936 0
M  V30 8864 C 851.612 3.22835 1.28043 0
M  V30 8865 C 850.566 4.22424 0.688603 0
M  V30 8866 C 849.892 5.0199 1.84146 0
M  V30 8867 C 851.192 5.21217 -0.336176 0
M  V30 8868 H 852.886 2.95698 -0.469339 0
M  V30 8869 H 850.432 1.42197 -0.227156 0
M  V30 8870 H 852.385 3.80253 1.8162 0
M  V30 8871 H 851.109 2.57492 2.00912 0
M  V30 8872 H 849.768 3.66185 0.174402 0
M  V30 8873 H 849.416 4.33076 2.5584 0
M  V30 8874 H 849.116 5.69392 1.45142 0
M  V30 8875 H 850.64 5.62259 2.38111 0
M  V30 8876 H 852.054 5.7319 0.112307 0
M  V30 8877 H 850.451 5.96642 -0.643324 0
M  V30 8878 H 851.521 4.68676 -1.24381 0
M  V30 8879 N 852.864 0.259585 1.55447 0
M  V30 8880 C 853.796 -0.667548 2.19263 0
M  V30 8881 C 854.809 -1.12925 1.17268 0
M  V30 8882 O 855.998 -1.05384 1.44071 0
M  V30 8883 C 853.098 -1.92066 2.7922 0
M  V30 8884 C 852.271 -1.60832 4.06758 0
M  V30 8885 C 851.33 -2.71231 4.50911 0
M  V30 8886 O 850.356 -2.38077 5.17019 0
M  V30 8887 N 851.558 -4.00984 4.19752 0
M  V30 8888 H 854.323 -0.121449 2.99454 0
M  V30 8889 H 851.884 0.0800519 1.61702 0
M  V30 8890 H 853.876 -2.65186 3.0571 0
M  V30 8891 H 852.446 -2.37621 2.03113 0
M  V30 8892 H 851.666 -0.711685 3.87722 0
M  V30 8893 H 852.954 -1.37445 4.89884 0
M  V30 8894 H 852.352 -4.30748 3.66706 0
M  V30 8895 H 850.909 -4.7053 4.51048 0
M  V30 8896 N 854.342 -1.57594 -0.0133615 0
M  V30 8897 C 855.59 -1.89605 -0.699596 0
M  V30 8898 C 855.911 -0.85926 -1.75048 0
M  V30 8899 O 855.181 0.105112 -1.95618 0
M  V30 8900 H 853.761 -0.699776 -0.261385 0
M  V30 8901 H 856.423 -1.94885 0.0244044 0
M  V30 8902 H 855.519 -2.88962 -1.17928 0
M  V30 8903 N 855.82 0.285905 -1.54985 0
M  V30 8904 C 857.066 1.02071 -1.75241 0
M  V30 8905 C 857.399 1.864 -0.544842 0
M  V30 8906 O 856.674 1.89034 0.457844 0
M  V30 8907 C 856.957 1.91409 -3.05016 0
M  V30 8908 C 856.81 1.10158 -4.36102 0
M  V30 8909 C 858.129 2.90335 -3.30747 0
M  V30 8910 H 855.248 0.369663 -0.637588 0
M  V30 8911 H 857.89 0.294114 -1.8771 0
M  V30 8912 H 856.04 2.53362 -2.94517 0
M  V30 8913 H 857.712 0.503756 -4.58541 0
M  V30 8914 H 855.955 0.404675 -4.31908 0
M  V30 8915 H 856.626 1.75956 -5.23205 0
M  V30 8916 H 859.102 2.38514 -3.40955 0
M  V30 8917 H 857.978 3.49997 -4.2284 0
M  V30 8918 H 858.239 3.64787 -2.49765 0
M  V30 8919 N 857.298 1.47698 0.54982 0
M  V30 8920 C 858.526 1.5833 1.33188 0
M  V30 8921 C 858.941 0.236193 1.87317 0
M  V30 8922 O 858.298 -0.77167 1.65383 0
M  V30 8923 C 858.349 2.61438 2.49664 0
M  V30 8924 O 858.07 3.9092 1.97771 0
M  V30 8925 C 859.571 2.82324 3.41772 0
M  V30 8926 H 856.791 0.53443 0.405741 0
M  V30 8927 H 859.335 1.93375 0.665309 0
M  V30 8928 H 857.49 2.29307 3.12245 0
M  V30 8929 H 857.904 4.47323 2.73866 0
M  V30 8930 H 859.378 3.58316 4.19897 0
M  V30 8931 H 859.855 1.90416 3.95776 0
M  V30 8932 H 860.461 3.15682 2.85 0
M  V30 8933 N 858.776 -0.797141 1.35954 0
M  V30 8934 C 860.024 -1.55161 1.29497 0
M  V30 8935 C 860.345 -1.94582 -0.127659 0
M  V30 8936 O 859.615 -1.64343 -1.06622 0
M  V30 8937 H 858.195 -0.575413 0.47635 0
M  V30 8938 H 860.857 -0.950282 1.70164 0
M  V30 8939 H 859.953 -2.46272 1.9172 0
M  V30 8940 N 860.254 -1.20106 -1.0204 0
M  V30 8941 C 861.502 -1.0069 -1.75231 0
M  V30 8942 C 861.823 0.462491 -1.89436 0
M  V30 8943 O 861.093 1.33455 -1.4341 0
M  V30 8944 H 859.673 -0.369576 -0.649171 0
M  V30 8945 H 862.335 -1.51149 -1.23044 0
M  V30 8946 H 861.431 -1.46205 -2.75736 0
M  V30 8947 N 861.732 1.21287 -1.00634 0
M  V30 8948 C 862.68 2.25733 -0.561026 0
M  V30 8949 C 863.674 1.64728 0.395095 0
M  V30 8950 O 864.88 1.78022 0.266141 0
M  V30 8951 H 861.255 0.734104 -0.163081 0
M  V30 8952 H 863.226 2.60631 -1.45307 0
M  V30 8953 C 861.975 3.47569 0.0952587 0
M  V30 8954 H 861.298 3.94782 -0.631427 0
M  V30 8955 H 862.738 4.22382 0.370105 0
M  V30 8956 C 861.197 3.09326 1.33488 0
M  V30 8957 O 861.727 3.19933 2.42912 0
M  V30 8958 N 859.933 2.63976 1.21512 0
M  V30 8959 H 859.48 2.55545 0.324741 0
M  V30 8960 H 859.438 2.38757 2.04555 0
M  V30 8961 N 863.21 0.781244 1.36873 0
M  V30 8962 C 864.438 0.361566 2.03716 0
M  V30 8963 C 864.853 -1.01937 1.58916 0
M  V30 8964 O 864.21 -1.65237 0.774783 0
M  V30 8965 C 864.261 0.406391 3.59208 0
M  V30 8966 O 863.982 1.73286 4.02372 0
M  V30 8967 C 865.483 -0.0236894 4.43294 0
M  V30 8968 H 862.703 0.150133 0.653988 0
M  V30 8969 H 865.247 1.05781 1.75016 0
M  V30 8970 H 863.402 -0.241364 3.86647 0
M  V30 8971 H 863.816 1.67804 4.96933 0
M  V30 8972 H 865.29 0.0588205 5.51969 0
M  V30 8973 H 865.767 -1.07529 4.25833 0
M  V30 8974 H 866.373 0.59624 4.211 0
M  V30 8975 N 864.689 -1.48329 0.532571 0
M  V30 8976 C 865.919 -2.066 0.00353785 0
M  V30 8977 C 866.327 -1.38913 -1.28451 0
M  V30 8978 O 865.67 -0.471385 -1.77549 0
M  V30 8979 C 865.732 -3.58342 -0.288324 0
M  V30 8980 C 865.396 -4.47917 0.906631 0
M  V30 8981 C 866.393 -4.87534 1.80572 0
M  V30 8982 C 864.078 -4.89783 1.11436 0
M  V30 8983 C 866.072 -5.6779 2.89642 0
M  V30 8984 C 863.759 -5.69809 2.20819 0
M  V30 8985 C 864.757 -6.08721 3.09755 0
M  V30 8986 O 864.445 -6.8714 4.17246 0
M  V30 8987 H 864.177 -0.675263 0.0315661 0
M  V30 8988 H 866.731 -1.91669 0.738375 0
M  V30 8989 H 864.961 -3.71395 -1.07717 0
M  V30 8990 H 866.65 -3.98726 -0.759752 0
M  V30 8991 H 867.416 -4.5581 1.65719 0
M  V30 8992 H 863.295 -4.58977 0.431382 0
M  V30 8993 H 866.839 -5.98082 3.59087 0
M  V30 8994 H 862.736 -6.00947 2.35655 0
M  V30 8995 H 863.504 -7.05498 4.14988 0
M  V30 8996 N 866.167 -0.267825 -1.55308 0
M  V30 8997 C 867.13 0.60965 -2.20943 0
M  V30 8998 C 868.13 1.0869 -1.18504 0
M  V30 8999 O 869.32 0.988248 -1.43455 0
M  V30 9000 C 866.452 1.84027 -2.86961 0
M  V30 9001 H 867.645 0.0366806 -2.99878 0
M  V30 9002 H 865.198 -0.0183941 -1.56289 0
M  V30 9003 H 865.933 2.45394 -2.1202 0
M  V30 9004 H 865.718 1.50605 -3.62023 0
M  V30 9005 H 867.208 2.46442 -3.37129 0
M  V30 9006 N 867.645 1.57599 0.00500368 0
M  V30 9007 C 868.891 1.90631 0.691919 0
M  V30 9008 C 869.224 0.868443 1.737 0
M  V30 9009 O 868.499 -0.113482 1.94169 0
M  V30 9010 C 868.782 3.34255 1.33961 0
M  V30 9011 C 868.635 4.48755 0.306413 0
M  V30 9012 C 869.954 3.77211 2.26715 0
M  V30 9013 H 867.073 0.693279 0.250066 0
M  V30 9014 H 869.715 1.89946 -0.0452634 0
M  V30 9015 H 867.865 3.3497 1.96793 0
M  V30 9016 H 869.537 4.60176 -0.321841 0
M  V30 9017 H 867.78 4.32203 -0.371852 0
M  V30 9018 H 868.451 5.46193 0.798554 0
M  V30 9019 H 870.927 3.78017 1.73904 0
M  V30 9020 H 869.803 4.78466 2.69002 0
M  V30 9021 H 870.064 3.10801 3.14413 0
M  V30 9022 N 869.123 -0.277682 1.55134 0
M  V30 9023 C 870.534 -0.849063 1.66276 0
M  V30 9024 C 870.885 -1.87223 0.5867 0
M  V30 9025 O 870.01 -2.14676 -0.272635 0
M  V30 9026 C 870.605 -1.54681 3.01429 0
M  V30 9027 C 869.164 -2.06628 3.14614 0
M  V30 9028 C 868.311 -0.906748 2.62056 0
M  V30 9029 H 871.262 -0.0541357 1.58608 0
M  V30 9030 H 871.283 -2.41356 2.94156 0
M  V30 9031 H 870.795 -0.80189 3.79725 0
M  V30 9032 H 868.896 -2.84095 2.41082 0
M  V30 9033 H 869.009 -2.2848 4.2111 0
M  V30 9034 H 867.373 -1.29882 2.19095 0
M  V30 9035 H 868.156 -0.175414 3.42852 0
M  V30 9036 N 870.601 -1.47988 -0.541979 0
M  V30 9037 C 871.564 -1.61148 -1.62984 0
M  V30 9038 C 872.564 -0.48553 -1.53295 0
M  V30 9039 O 873.754 -0.751012 -1.5718 0
M  V30 9040 C 870.886 -1.57038 -3.02576 0
M  V30 9041 H 872.079 -2.58138 -1.52659 0
M  V30 9042 H 869.632 -1.36405 -0.763106 0
M  V30 9043 H 870.367 -0.614807 -3.18419 0
M  V30 9044 H 870.152 -2.38769 -3.11018 0
M  V30 9045 H 871.642 -1.69416 -3.81691 0
M  V30 9046 N 872.079 0.78992 -1.36375 0
M  V30 9047 C 873.009 1.91683 -1.33341 0
M  V30 9048 C 873.99 1.68861 -0.204965 0
M  V30 9049 O 875.175 1.89982 -0.402531 0
M  V30 9050 C 872.305 3.28696 -1.12143 0
M  V30 9051 C 871.259 3.66041 -2.21806 0
M  V30 9052 C 870.585 5.01399 -1.85751 0
M  V30 9053 C 871.885 3.74677 -3.63888 0
M  V30 9054 H 873.579 1.94478 -2.27637 0
M  V30 9055 H 871.125 0.934271 -1.09578 0
M  V30 9056 H 873.078 4.07151 -1.08656 0
M  V30 9057 H 871.802 3.26287 -0.142974 0
M  V30 9058 H 870.461 2.89883 -2.24418 0
M  V30 9059 H 870.109 4.9551 -0.864817 0
M  V30 9060 H 869.809 5.27355 -2.59173 0
M  V30 9061 H 871.333 5.82274 -1.83819 0
M  V30 9062 H 872.747 4.43324 -3.63506 0
M  V30 9063 H 871.144 4.12118 -4.3621 0
M  V30 9064 H 872.214 2.75795 -3.9883 0
M  V30 9065 N 873.557 1.20646 1.01402 0
M  V30 9066 C 874.968 1.01823 1.56489 0
M  V30 9067 C 875.319 -0.42463 1.9155 0
M  V30 9068 O 874.444 -1.30644 1.72514 0
M  V30 9069 C 875.039 1.84208 2.84347 0
M  V30 9070 C 873.598 1.69743 3.35953 0
M  V30 9071 C 872.745 1.8198 2.09233 0
M  V30 9072 H 875.696 1.348 0.837539 0
M  V30 9073 H 875.717 1.34698 3.55861 0
M  V30 9074 H 875.229 2.89215 2.58798 0
M  V30 9075 H 873.33 0.673833 3.66456 0
M  V30 9076 H 873.443 2.51173 4.07981 0
M  V30 9077 H 871.807 1.25193 2.21808 0
M  V30 9078 H 872.59 2.88477 1.86107 0
M  V30 9079 N 875.035 -1.20752 1.01276 0
M  V30 9080 C 876.446 -1.7175 0.732033 0
M  V30 9081 C 876.797 -1.8131 -0.749733 0
M  V30 9082 O 875.922 -1.47301 -1.58529 0
M  V30 9083 C 876.517 -3.11936 1.32217 0
M  V30 9084 C 875.076 -3.6026 1.09039 0
M  V30 9085 C 874.223 -2.37571 1.43022 0
M  V30 9086 H 877.174 -1.0582 1.1827 0
M  V30 9087 H 877.195 -3.73802 0.710771 0
M  V30 9088 H 876.707 -3.04946 2.40061 0
M  V30 9089 H 874.808 -3.72588 0.0294464 0
M  V30 9090 H 874.921 -4.45295 1.76775 0
M  V30 9091 H 873.285 -2.40128 0.849159 0
M  V30 9092 H 874.068 -2.33225 2.51915 0
M  V30 9093 N 876.513 -0.788492 -1.36457 0
M  V30 9094 C 877.761 -0.359749 -1.98872 0
M  V30 9095 C 878.082 1.07197 -1.62892 0
M  V30 9096 O 877.352 1.73875 -0.902463 0
M  V30 9097 H 875.932 -0.130029 -0.735596 0
M  V30 9098 H 878.594 -1.01033 -1.66668 0
M  V30 9099 H 877.69 -0.450835 -3.08827 0
M  V30 9100 N 877.991 1.48044 -0.54043 0
M  V30 9101 C 878.954 2.28273 0.205966 0
M  V30 9102 C 879.954 1.35983 0.858209 0
M  V30 9103 O 881.144 1.58776 0.716651 0
M  V30 9104 C 878.276 3.15174 1.29917 0
M  V30 9105 H 879.469 2.95727 -0.498555 0
M  V30 9106 H 877.022 1.53457 -0.296745 0
M  V30 9107 H 877.757 2.52374 2.03661 0
M  V30 9108 H 877.542 3.83074 0.836475 0
M  V30 9109 H 879.032 3.75666 1.82387 0
M  V30 9110 N 879.47 0.276058 1.55163 0
M  V30 9111 C 880.716 -0.340959 1.99913 0
M  V30 9112 C 881.049 -1.55434 1.16422 0
M  V30 9113 O 880.324 -1.93081 0.234517 0
M  V30 9114 C 880.607 -0.722211 3.52783 0
M  V30 9115 C 880.46 0.498575 4.47028 0
M  V30 9116 C 881.779 -1.5583 4.11589 0
M  V30 9117 H 878.898 -0.122455 0.726756 0
M  V30 9118 H 881.54 0.38319 1.86096 0
M  V30 9119 H 879.69 -1.33919 3.64689 0
M  V30 9120 H 881.362 1.13713 4.47065 0
M  V30 9121 H 879.605 1.13646 4.18649 0
M  V30 9122 H 880.276 0.188041 5.5168 0
M  V30 9123 H 882.752 -1.03722 4.02965 0
M  V30 9124 H 881.628 -1.79387 5.1876 0
M  V30 9125 H 881.889 -2.53963 3.61877 0
M  V30 9126 N 880.948 -1.576 0.00335426 0
M  V30 9127 C 882.196 -1.90336 -0.679446 0
M  V30 9128 C 882.517 -0.877777 -1.74127 0
M  V30 9129 O 881.787 0.0843585 -1.95718 0
M  V30 9130 H 880.367 -0.702509 -0.253948 0
M  V30 9131 H 883.029 -1.94848 0.0450731 0
M  V30 9132 H 882.125 -2.90197 -1.14857 0
M  V30 9133 N 882.426 0.269451 -1.5528 0
M  V30 9134 C 883.703 1.02207 -1.66773 0
M  V30 9135 C 884.083 2.04168 -0.536536 0
M  V30 9136 O 883.431 2.23761 0.462956 0
M  V30 9137 C 883.641 1.67569 -3.0614 0
M  V30 9138 C 884.989 2.18599 -3.64005 0
M  V30 9139 O 886.013 1.7755 -3.08795 0
M  V30 9140 O 884.872 2.93903 -4.60742 0
M  V30 9141 H 881.966 0.474314 -0.677462 0
M  V30 9142 H 884.512 0.265026 -1.67618 0
M  V30 9143 H 883.284 0.937029 -3.79915 0
M  V30 9144 H 882.907 2.49951 -3.09209 0
M  V30 9145 N 883.904 1.48273 0.534124 0
M  V30 9146 C 885.152 1.55771 1.28762 0
M  V30 9147 C 885.473 0.231575 1.9362 0
M  V30 9148 O 884.743 -0.746533 1.81118 0
M  V30 9149 H 883.323 0.573851 0.47823 0
M  V30 9150 H 885.985 1.84712 0.621888 0
M  V30 9151 H 885.081 2.33657 2.06908 0
M  V30 9152 N 885.382 -0.782676 1.36792 0
M  V30 9153 C 886.793 -1.35828 1.28092 0
M  V30 9154 C 887.144 -1.96052 -0.076315 0
M  V30 9155 O 886.269 -1.93042 -0.977935 0
M  V30 9156 C 886.864 -2.46949 2.31952 0
M  V30 9157 C 885.423 -3.00307 2.2692 0
M  V30 9158 C 884.57 -1.73436 2.16368 0
M  V30 9159 H 887.521 -0.583788 1.47572 0
M  V30 9160 H 887.542 -3.26144 1.95986 0
M  V30 9161 H 887.054 -2.03087 3.30722 0
M  V30 9162 H 885.155 -3.48571 1.31639 0
M  V30 9163 H 885.268 -3.56663 3.19887 0
M  V30 9164 H 883.632 -1.95934 1.62733 0
M  V30 9165 H 884.415 -1.31693 3.17036 0
M  V30 9166 N 886.86 -1.21182 -1.00761 0
M  V30 9167 C 888.271 -1.02652 -1.55947 0
M  V30 9168 C 888.622 0.414466 -1.91772 0
M  V30 9169 O 887.747 1.29727 -1.73204 0
M  V30 9170 C 888.342 -1.85713 -2.83366 0
M  V30 9171 C 886.901 -1.71523 -3.35048 0
M  V30 9172 C 886.048 -1.83087 -2.08265 0
M  V30 9173 H 888.999 -1.35242 -0.830379 0
M  V30 9174 H 889.02 -1.36583 -3.55141 0
M  V30 9175 H 888.532 -2.90584 -2.5726 0
M  V30 9176 H 886.633 -0.693257 -3.66094 0
M  V30 9177 H 886.746 -2.53333 -4.06644 0
M  V30 9178 H 885.11 -1.26367 -2.21141 0
M  V30 9179 H 885.893 -2.8946 -1.84575 0
M  V30 9180 N 888.338 1.20213 -1.01915 0
M  V30 9181 C 889.754 1.41696 -0.734459 0
M  V30 9182 C 889.954 1.89504 0.684867 0
M  V30 9183 O 889.01 2.06556 1.45227 0
M  V30 9184 C 890.323 2.43644 -1.76233 0
M  V30 9185 C 891.871 2.57406 -1.78076 0
M  V30 9186 C 892.346 3.626 -2.79796 0
M  V30 9187 N 893.837 3.70086 -2.78551 0
M  V30 9188 C 894.572 4.51145 -3.53915 0
M  V30 9189 N 894.068 5.35988 -4.38963 0
M  V30 9190 N 895.861 4.45702 -3.425 0
M  V30 9191 H 888.012 0.874976 -1.93541 0
M  V30 9192 H 890.275 0.446647 -0.836188 0
M  V30 9193 H 889.981 2.15519 -2.77929 0
M  V30 9194 H 889.855 3.42672 -1.57657 0
M  V30 9195 H 892.242 2.8486 -0.770634 0
M  V30 9196 H 892.323 1.58565 -2.00725 0
M  V30 9197 H 891.967 3.35889 -3.80973 0
M  V30 9198 H 891.897 4.61069 -2.54407 0
M  V30 9199 H 894.388 3.09484 -2.1686 0
M  V30 9200 H 894.701 5.94932 -4.9323 0
M  V30 9201 H 893.046 5.35482 -4.4304 0
M  V30 9202 H 896.237 3.78456 -2.75478 0
M  V30 9203 H 896.41 5.08637 -4.01487 0
M  V30 9204 N 889.816 0.795718 1.36037 0
M  V30 9205 C 891.062 0.371574 1.99367 0
M  V30 9206 C 891.395 -1.0557 1.62999 0
M  V30 9207 O 890.67 -1.73051 0.887895 0
M  V30 9208 C 890.953 0.542622 3.55988 0
M  V30 9209 C 890.806 2.01404 4.0219 0
M  V30 9210 C 892.125 -0.0384527 4.40083 0
M  V30 9211 H 889.244 0.136483 0.724252 0
M  V30 9212 H 891.886 1.00323 1.61355 0
M  V30 9213 H 890.036 0.0049053 3.885 0
M  V30 9214 H 891.708 2.6133 3.80137 0
M  V30 9215 H 889.951 2.51439 3.53498 0
M  V30 9216 H 890.622 2.08466 5.11122 0
M  V30 9217 H 893.098 0.420634 4.13968 0
M  V30 9218 H 891.974 0.111214 5.48787 0
M  V30 9219 H 892.235 -1.13116 4.27384 0
M  V30 9220 N 891.294 -1.47756 0.548274 0
M  V30 9221 C 892.571 -1.9555 -0.0443603 0
M  V30 9222 C 892.951 -1.49079 -1.49462 0
M  V30 9223 O 892.299 -0.725538 -2.16675 0
M  V30 9224 C 892.509 -3.48879 0.0918425 0
M  V30 9225 C 893.857 -4.2456 -0.0580879 0
M  V30 9226 O 894.881 -3.56195 0.018946 0
M  V30 9227 O 893.74 -5.46048 -0.222261 0
M  V30 9228 H 890.834 -0.824106 -0.0691235 0
M  V30 9229 H 893.38 -1.58196 0.614166 0
M  V30 9230 H 892.152 -3.7548 1.10137 0
M  V30 9231 H 891.775 -3.92975 -0.604704 0
M  V30 9232 N 892.772 -0.284283 -1.55015 0
M  V30 9233 C 894.019 0.329864 -1.99795 0
M  V30 9234 C 894.347 1.55171 -1.1727 0
M  V30 9235 O 893.602 1.94312 -0.232667 0
M  V30 9236 C 893.901 0.747219 -3.49502 0
M  V30 9237 C 893.567 -0.37101 -4.49371 0
M  V30 9238 C 892.229 -0.678034 -4.76399 0
M  V30 9239 C 894.581 -1.12406 -5.08935 0
M  V30 9240 C 891.909 -1.74152 -5.60257 0
M  V30 9241 C 894.261 -2.17734 -5.93948 0
M  V30 9242 C 892.925 -2.49061 -6.19294 0
M  V30 9243 H 892.195 0.120706 -0.731103 0
M  V30 9244 H 894.842 -0.399904 -1.87278 0
M  V30 9245 H 893.147 1.55681 -3.59542 0
M  V30 9246 H 894.844 1.2333 -3.81563 0
M  V30 9247 H 891.434 -0.1216 -4.28427 0
M  V30 9248 H 895.618 -0.900119 -4.88069 0
M  V30 9249 H 890.874 -1.98915 -5.78137 0
M  V30 9250 H 895.048 -2.76553 -6.39133 0
M  V30 9251 H 892.675 -3.31602 -6.84064 0
M  V30 9252 N 894.251 1.57596 -0.0117121 0
M  V30 9253 C 895.662 1.79033 0.529521 0
M  V30 9254 C 896.013 0.920299 1.73277 0
M  V30 9255 O 895.138 0.125934 2.16033 0
M  V30 9256 C 895.733 3.24695 0.967405 0
M  V30 9257 C 894.292 3.47188 1.45387 0
M  V30 9258 C 893.439 2.74245 0.410466 0
M  V30 9259 H 896.39 1.56908 -0.237836 0
M  V30 9260 H 896.411 3.33451 1.83278 0
M  V30 9261 H 895.923 3.87992 0.0914605 0
M  V30 9262 H 894.024 2.89121 2.35032 0
M  V30 9263 H 894.137 4.55886 1.47325 0
M  V30 9264 H 892.501 2.39209 0.874721 0
M  V30 9265 H 893.284 3.40248 -0.456713 0
M  V30 9266 N 895.729 -0.261212 1.5542 0
M  V30 9267 C 897.145 -0.609012 1.47524 0
M  V30 9268 C 897.345 -1.88986 0.699042 0
M  V30 9269 O 896.401 -2.51517 0.222628 0
M  V30 9270 C 897.714 -0.725025 2.91828 0
M  V30 9271 C 899.262 -0.818302 3.02114 0
M  V30 9272 C 899.737 -0.965996 4.47697 0
M  V30 9273 N 901.228 -1.03123 4.51575 0
M  V30 9274 C 901.963 -1.16451 5.6145 0
M  V30 9275 N 901.459 -1.26425 6.81167 0
M  V30 9276 N 903.252 -1.19655 5.49217 0
M  V30 9277 H 895.403 0.579807 2.04333 0
M  V30 9278 H 897.666 0.198072 0.927077 0
M  V30 9279 H 897.372 0.145871 3.51397 0
M  V30 9280 H 897.246 -1.60156 3.41511 0
M  V30 9281 H 899.633 -1.67966 2.42634 0
M  V30 9282 H 899.714 0.0830895 2.55665 0
M  V30 9283 H 899.358 -0.109251 5.07782 0
M  V30 9284 H 899.288 -1.88221 4.91813 0
M  V30 9285 H 901.779 -0.966072 3.65343 0
M  V30 9286 H 902.092 -1.36462 7.60656 0
M  V30 9287 H 900.437 -1.23408 6.83956 0
M  V30 9288 H 903.628 -1.11501 4.54626 0
M  V30 9289 H 903.801 -1.29698 6.34888 0
M  V30 9290 N 897.207 -1.48554 -0.526253 0
M  V30 9291 C 898.432 -1.60686 -1.31129 0
M  V30 9292 C 898.857 -0.268701 -1.86171 0
M  V30 9293 O 898.215 0.760167 -1.64594 0
M  V30 9294 C 898.263 -2.65938 -2.43536 0
M  V30 9295 O 897.367 -2.23356 -3.46678 0
M  V30 9296 H 896.708 -0.538691 -0.388211 0
M  V30 9297 H 899.238 -1.94567 -0.632826 0
M  V30 9298 H 899.248 -2.87327 -2.89668 0
M  V30 9299 H 897.923 -3.63085 -2.02835 0
M  V30 9300 H 896.5 -2.12196 -3.06639 0
M  V30 9301 N 898.685 0.775411 -1.37205 0
M  V30 9302 C 900.101 1.07546 -1.17924 0
M  V30 9303 C 900.301 2.01496 -0.0128897 0
M  V30 9304 O 899.357 2.44039 0.64816 0
M  V30 9305 C 900.67 1.67647 -2.49629 0
M  V30 9306 C 902.218 1.79923 -2.56119 0
M  V30 9307 C 902.693 2.43438 -3.87946 0
M  V30 9308 N 904.184 2.50893 -3.89368 0
M  V30 9309 C 904.919 3.00881 -4.88117 0
M  V30 9310 N 904.415 3.5107 -5.97262 0
M  V30 9311 N 906.208 2.99722 -4.75524 0
M  V30 9312 H 898.359 0.151524 -2.11859 0
M  V30 9313 H 900.622 0.129845 -0.939066 0
M  V30 9314 H 900.328 1.06082 -3.3532 0
M  V30 9315 H 900.202 2.66988 -2.66453 0
M  V30 9316 H 902.589 2.40621 -1.70838 0
M  V30 9317 H 902.67 0.793482 -2.43182 0
M  V30 9318 H 902.314 1.8338 -4.73639 0
M  V30 9319 H 902.244 3.44611 -3.98184 0
M  V30 9320 H 904.735 2.1537 -3.10522 0
M  V30 9321 H 905.048 3.87604 -6.68568 0
M  V30 9322 H 903.393 3.49184 -6.00912 0
M  V30 9323 H 906.584 2.5981 -3.8938 0
M  V30 9324 H 906.757 3.38369 -5.52639 0
M  V30 9325 N 900.163 1.21714 1.00117 0
M  V30 9326 C 901.093 1.00397 2.10815 0
M  V30 9327 C 902.074 -0.0723502 1.69946 0
M  V30 9328 O 903.259 0.0882398 1.93999 0
M  V30 9329 C 900.389 0.572001 3.42557 0
M  V30 9330 C 899.343 1.59331 3.97237 0
M  V30 9331 C 898.669 1.01746 5.2493 0
M  V30 9332 C 899.969 2.98117 4.28863 0
M  V30 9333 H 901.663 1.92983 2.28906 0
M  V30 9334 H 899.209 0.929273 1.10002 0
M  V30 9335 H 901.162 0.410018 4.19401 0
M  V30 9336 H 899.886 -0.38951 3.24269 0
M  V30 9337 H 898.545 1.74293 3.22518 0
M  V30 9338 H 898.193 0.0475491 5.02978 0
M  V30 9339 H 897.893 1.69969 5.62481 0
M  V30 9340 H 899.417 0.866881 6.04415 0
M  V30 9341 H 900.831 2.86578 4.96534 0
M  V30 9342 H 899.228 3.63389 4.77565 0
M  V30 9343 H 900.298 3.48674 3.36979 0
M  V30 9344 N 901.641 -1.19671 1.02551 0
M  V30 9345 C 903.057 -1.41305 0.741963 0
M  V30 9346 C 903.257 -1.89865 -0.674807 0
M  V30 9347 O 902.313 -2.07323 -1.44129 0
M  V30 9348 C 903.626 -2.42706 1.77522 0
M  V30 9349 C 905.174 -2.56458 1.79438 0
M  V30 9350 C 905.649 -3.61111 2.81715 0
M  V30 9351 N 907.14 -3.68603 2.8051 0
M  V30 9352 C 907.875 -4.49262 3.56302 0
M  V30 9353 N 907.371 -5.33653 4.41799 0
M  V30 9354 N 909.164 -4.43879 3.44859 0
M  V30 9355 H 901.315 -0.8647 1.94002 0
M  V30 9356 H 903.578 -0.442206 0.838545 0
M  V30 9357 H 903.284 -2.14042 2.79068 0
M  V30 9358 H 903.158 -3.41831 1.59472 0
M  V30 9359 H 905.545 -2.84447 0.78573 0
M  V30 9360 H 905.626 -1.57499 2.01563 0
M  V30 9361 H 905.27 -3.33864 3.82749 0
M  V30 9362 H 905.2 -4.59713 2.56849 0
M  V30 9363 H 907.691 -3.08329 2.18498 0
M  V30 9364 H 908.004 -5.92308 4.96378 0
M  V30 9365 H 906.349 -5.33125 4.45873 0
M  V30 9366 H 909.54 -3.7699 2.77482 0
M  V30 9367 H 909.713 -5.06501 4.04179 0
M  V30 9368 N 903.119 -0.802921 -1.35613 0
M  V30 9369 C 904.366 -0.381576 -1.98872 0
M  V30 9370 C 904.694 1.0503 -1.63704 0
M  V30 9371 O 903.949 1.7427 -0.890418 0
M  V30 9372 C 904.248 -0.507806 -3.53774 0
M  V30 9373 C 903.914 -1.90245 -4.088 0
M  V30 9374 C 902.576 -2.28401 -4.2354 0
M  V30 9375 C 904.928 -2.81504 -4.3864 0
M  V30 9376 C 902.256 -3.57192 -4.65436 0
M  V30 9377 C 904.608 -4.09737 -4.81973 0
M  V30 9378 C 903.272 -4.47897 -4.94919 0
M  V30 9379 H 902.542 -0.139629 -0.727726 0
M  V30 9380 H 905.189 -1.023 -1.61886 0
M  V30 9381 H 903.494 0.21708 -3.91198 0
M  V30 9382 H 905.191 -0.162625 -4.0067 0
M  V30 9383 H 901.781 -1.596 -3.97776 0
M  V30 9384 H 905.965 -2.53276 -4.26808 0
M  V30 9385 H 901.221 -3.86611 -4.73648 0
M  V30 9386 H 905.395 -4.80555 -5.04024 0
M  V30 9387 H 903.022 -5.47747 -5.27141 0
M  V30 9388 N 904.597 1.47463 -0.556102 0
M  V30 9389 C 905.544 2.29998 0.192213 0
M  V30 9390 C 906.514 1.38993 0.909403 0
M  V30 9391 O 907.699 1.67954 0.905316 0
M  V30 9392 C 904.839 3.22932 1.21692 0
M  V30 9393 C 903.952 4.29027 0.505908 0
M  V30 9394 C 903.087 5.09114 1.51581 0
M  V30 9395 C 902.126 6.06984 0.789714 0
M  V30 9396 N 901.263 6.80033 1.74639 0
M  V30 9397 H 906.103 2.93468 -0.517734 0
M  V30 9398 H 903.64 1.44654 -0.267147 0
M  V30 9399 H 905.598 3.75234 1.8236 0
M  V30 9400 H 904.228 2.61329 1.89491 0
M  V30 9401 H 903.28 3.7979 -0.215276 0
M  V30 9402 H 904.592 4.9876 -0.062958 0
M  V30 9403 H 903.746 5.6556 2.19606 0
M  V30 9404 H 902.485 4.3928 2.11859 0
M  V30 9405 H 901.49 5.49717 0.0955382 0
M  V30 9406 H 902.715 6.78827 0.192688 0
M  V30 9407 H 900.661 6.12931 2.33777 0
M  V30 9408 H 900.578 7.45933 1.22965 0
M  V30 9409 H 901.846 7.41054 2.41782 0
M  V30 9410 N 906.075 0.2925 1.54862 0
M  V30 9411 C 906.985 -0.597036 2.26876 0
M  V30 9412 C 908.001 -1.15558 1.30086 0
M  V30 9413 O 909.177 -1.18217 1.63054 0
M  V30 9414 C 906.242 -1.75664 2.98903 0
M  V30 9415 C 905.303 -1.23303 4.11212 0
M  V30 9416 C 904.536 -2.33736 4.79795 0
M  V30 9417 O 904.759 -3.53459 4.47686 0
M  V30 9418 O 903.693 -2.00908 5.67379 0
M  V30 9419 H 907.519 -0.0131242 3.03697 0
M  V30 9420 H 905.104 0.0592642 1.49282 0
M  V30 9421 H 906.986 -2.43241 3.4411 0
M  V30 9422 H 905.661 -2.32731 2.24984 0
M  V30 9423 H 904.568 -0.523222 3.70423 0
M  V30 9424 H 905.901 -0.707887 4.87083 0
M  V30 9425 N 907.553 -1.57587 0.0200696 0
M  V30 9426 C 908.5 -2.09667 -0.964791 0
M  V30 9427 C 909.47 -0.99664 -1.32877 0
M  V30 9428 O 910.655 -1.2703 -1.42366 0
M  V30 9429 C 907.795 -2.62101 -2.24493 0
M  V30 9430 C 906.908 -3.8608 -1.93821 0
M  V30 9431 C 906.043 -4.26939 -3.16064 0
M  V30 9432 C 905.082 -5.43701 -2.81169 0
M  V30 9433 N 904.219 -5.79759 -3.9601 0
M  V30 9434 H 909.059 -2.93538 -0.513751 0
M  V30 9435 H 906.596 -1.45096 -0.242 0
M  V30 9436 H 908.554 -2.90587 -2.99358 0
M  V30 9437 H 907.184 -1.81074 -2.6723 0
M  V30 9438 H 906.236 -3.64378 -1.09237 0
M  V30 9439 H 907.548 -4.71028 -1.64115 0
M  V30 9440 H 906.702 -4.56814 -3.99257 0
M  V30 9441 H 905.441 -3.40739 -3.48924 0
M  V30 9442 H 904.446 -5.13529 -1.96387 0
M  V30 9443 H 905.671 -6.31593 -2.49535 0
M  V30 9444 H 903.617 -4.96516 -4.28729 0
M  V30 9445 H 903.534 -6.59327 -3.69896 0
M  V30 9446 H 904.802 -6.14235 -4.79933 0
M  V30 9447 N 909.032 0.252966 -1.55557 0
M  V30 9448 C 909.962 1.31691 -1.9282 0
M  V30 9449 C 910.943 1.50516 -0.7924 0
M  V30 9450 O 912.128 1.63225 -1.05219 0
M  V30 9451 C 909.258 2.67281 -2.21762 0
M  V30 9452 C 908.212 2.6316 -3.37536 0
M  V30 9453 C 907.538 4.02488 -3.52005 0
M  V30 9454 C 908.838 2.20675 -4.73392 0
M  V30 9455 H 910.532 1.00751 -2.81939 0
M  V30 9456 H 908.078 0.483219 -1.3565 0
M  V30 9457 H 910.031 3.41842 -2.46419 0
M  V30 9458 H 908.755 2.99845 -1.29463 0
M  V30 9459 H 907.414 1.91057 -3.12878 0
M  V30 9460 H 907.062 4.32307 -2.57137 0
M  V30 9461 H 906.762 4.00621 -4.29857 0
M  V30 9462 H 908.286 4.78758 -3.78977 0
M  V30 9463 H 909.7 2.84965 -4.97461 0
M  V30 9464 H 908.097 2.29931 -5.54303 0
M  V30 9465 H 909.167 1.15831 -4.70862 0
M  V30 9466 N 910.51 1.48831 0.518367 0
M  V30 9467 C 911.758 1.57128 1.27103 0
M  V30 9468 C 912.079 0.252098 1.93364 0
M  V30 9469 O 911.349 -0.727281 1.819 0
M  V30 9470 H 909.929 0.578891 0.472116 0
M  V30 9471 H 912.591 1.85361 0.602262 0
M  V30 9472 H 911.687 2.35838 2.04418 0
M  V30 9473 N 911.988 -0.768124 1.37614 0
M  V30 9474 C 912.898 -1.91249 1.35871 0
M  V30 9475 C 913.914 -1.7208 0.257786 0
M  V30 9476 O 915.09 -1.95253 0.493782 0
M  V30 9477 C 912.155 -3.26423 1.16829 0
M  V30 9478 C 911.216 -3.5822 2.36594 0
M  V30 9479 C 910.449 -4.86945 2.1845 0
M  V30 9480 O 910.672 -5.58258 1.17064 0
M  V30 9481 O 909.606 -5.17888 3.06718 0
M  V30 9482 H 913.432 -1.95671 2.32264 0
M  V30 9483 H 911.017 -0.911382 1.18382 0
M  V30 9484 H 912.899 -4.07269 1.08212 0
M  V30 9485 H 911.574 -3.22845 0.235123 0
M  V30 9486 H 910.481 -2.77594 2.50783 0
M  V30 9487 H 911.814 -3.66545 3.2849 0
M  V30 9488 N 913.466 -1.22244 -0.994698 0
M  V30 9489 C 914.714 -1.04384 -1.73056 0
M  V30 9490 C 915.035 0.422204 -1.90374 0
M  V30 9491 O 914.305 1.30383 -1.46209 0
M  V30 9492 H 912.885 -0.383263 -0.641185 0
M  V30 9493 H 915.547 -1.53725 -1.1981 0
M  V30 9494 H 914.643 -1.52021 -2.72573 0
M  V30 9495 N 914.944 1.19125 -1.03184 0
M  V30 9496 C 915.876 2.21914 -0.573294 0
M  V30 9497 C 916.889 1.5894 0.352397 0
M  V30 9498 O 918.078 1.77883 0.148318 0
M  V30 9499 C 915.178 3.38403 0.18355 0
M  V30 9500 C 914.351 4.3096 -0.747817 0
M  V30 9501 C 913.41 5.26188 -0.0358489 0
M  V30 9502 O 912.436 5.65321 -0.663388 0
M  V30 9503 N 913.638 5.67235 1.23387 0
M  V30 9504 H 916.403 2.61881 -1.45734 0
M  V30 9505 H 913.964 1.33821 -0.911231 0
M  V30 9506 H 915.956 3.99124 0.669468 0
M  V30 9507 H 914.526 2.97201 0.969043 0
M  V30 9508 H 913.746 3.67976 -1.41377 0
M  V30 9509 H 915.034 4.89708 -1.38071 0
M  V30 9510 H 914.432 5.37481 1.76439 0
M  V30 9511 H 912.989 6.30196 1.66423 0
M  V30 9512 N 916.422 0.810101 1.35185 0
M  V30 9513 C 917.669 0.392117 1.98667 0
M  V30 9514 C 917.997 -1.0416 1.64259 0
M  V30 9515 O 917.252 -1.73795 0.899647 0
M  V30 9516 C 917.551 0.526561 3.535 0
M  V30 9517 C 917.217 1.92411 4.07785 0
M  V30 9518 C 915.879 2.30644 4.22323 0
M  V30 9519 C 918.231 2.83827 4.37141 0
M  V30 9520 C 915.559 3.59655 4.63536 0
M  V30 9521 C 917.911 4.12287 4.79794 0
M  V30 9522 C 916.575 4.50515 4.92536 0
M  V30 9523 H 915.845 0.143486 0.726975 0
M  V30 9524 H 918.492 1.03157 1.61341 0
M  V30 9525 H 916.797 -0.19633 3.91308 0
M  V30 9526 H 918.494 0.183871 4.00578 0
M  V30 9527 H 915.084 1.61707 3.96924 0
M  V30 9528 H 919.268 2.55536 4.25459 0
M  V30 9529 H 914.524 3.89117 4.71591 0
M  V30 9530 H 918.698 4.83221 5.01468 0
M  V30 9531 H 916.325 5.50535 5.24229 0
M  V30 9532 N 917.9 -1.47166 0.563914 0
M  V30 9533 C 919.148 -2.02056 0.0422873 0
M  V30 9534 C 919.469 -1.43992 -1.31497 0
M  V30 9535 O 918.739 -0.617578 -1.85911 0
M  V30 9536 H 917.319 -0.746893 0.0126427 0
M  V30 9537 H 919.981 -1.80492 0.735441 0
M  V30 9538 H 919.077 -3.12073 -0.0408044 0
M  V30 9539 N 919.378 -0.300708 -1.54705 0
M  V30 9540 C 920.288 0.584996 -2.27189 0
M  V30 9541 C 921.304 1.14866 -1.30697 0
M  V30 9542 O 922.48 1.17351 -1.63679 0
M  V30 9543 C 919.545 1.74076 -2.99831 0
M  V30 9544 C 918.606 1.2112 -4.1186 0
M  V30 9545 C 917.839 2.31188 -4.81028 0
M  V30 9546 O 918.062 3.5108 -4.49554 0
M  V30 9547 O 916.996 1.97897 -5.68437 0
M  V30 9548 H 920.822 -0.00298177 -3.037 0
M  V30 9549 H 918.407 -0.0671802 -1.49249 0
M  V30 9550 H 920.289 2.41413 -3.45395 0
M  V30 9551 H 918.964 2.31535 -2.26215 0
M  V30 9552 H 917.871 0.50357 -3.70695 0
M  V30 9553 H 919.204 0.682046 -4.87452 0
M  V30 9554 N 920.856 1.57574 -0.0284266 0
M  V30 9555 C 922.102 1.92056 0.651327 0
M  V30 9556 C 922.435 0.905092 1.71819 0
M  V30 9557 O 921.71 -0.0722703 1.94366 0
M  V30 9558 C 921.993 3.37021 1.26841 0
M  V30 9559 C 921.846 4.49304 0.211157 0
M  V30 9560 C 923.165 3.81936 2.18662 0
M  V30 9561 H 920.284 0.698428 0.235304 0
M  V30 9562 H 922.926 1.89807 -0.0855435 0
M  V30 9563 H 921.076 3.39068 1.89644 0
M  V30 9564 H 922.748 4.5939 -0.419379 0
M  V30 9565 H 920.991 4.31317 -0.463445 0
M  V30 9566 H 921.662 5.47764 0.682518 0
M  V30 9567 H 924.138 3.8162 1.65847 0
M  V30 9568 H 923.014 4.84064 2.58792 0
M  V30 9569 H 923.275 3.174 3.07749 0
M  V30 9570 N 922.334 -0.244713 1.55689 0
M  V30 9571 C 923.284 -1.30596 1.86892 0
M  V30 9572 C 924.268 -1.43388 0.729972 0
M  V30 9573 O 925.46 -1.46593 0.99194 0
M  V30 9574 C 922.589 -2.66099 2.16902 0
M  V30 9575 C 921.675 -2.57302 3.37129 0
M  V30 9576 N 922.066 -2.18139 4.56343 0
M  V30 9577 C 920.364 -2.88311 3.40283 0
M  V30 9578 C 921.065 -2.20028 5.38482 0
M  V30 9579 N 920.041 -2.59616 4.77599 0
M  V30 9580 H 923.843 -0.993699 2.76591 0
M  V30 9581 H 921.357 -0.453334 1.55944 0
M  V30 9582 H 923.354 -3.4269 2.37422 0
M  V30 9583 H 922.014 -2.9819 1.28502 0
M  V30 9584 H 923.025 -1.89647 4.81928 0
M  V30 9585 H 919.702 -3.24928 2.62161 0
M  V30 9586 H 921.092 -1.9207 6.43862 0
M  V30 9587 N 923.813 -1.49104 -0.510467 0
M  V30 9588 C 924.743 -1.67981 -1.62187 0
M  V30 9589 C 925.724 -0.528529 -1.6168 0
M  V30 9590 O 926.909 -0.763305 -1.7857 0
M  V30 9591 C 924.039 -1.73755 -3.0071 0
M  V30 9592 C 922.993 -2.88579 -3.1608 0
M  V30 9593 C 922.319 -2.79457 -4.5586 0
M  V30 9594 C 923.619 -4.29638 -2.97 0
M  V30 9595 H 925.313 -2.61029 -1.46643 0
M  V30 9596 H 922.859 -1.25615 -0.704042 0
M  V30 9597 H 924.812 -1.85548 -3.78352 0
M  V30 9598 H 923.536 -0.772996 -3.17321 0
M  V30 9599 H 922.195 -2.76372 -2.40861 0
M  V30 9600 H 921.843 -1.80929 -4.69333 0
M  V30 9601 H 921.543 -3.56518 -4.67086 0
M  V30 9602 H 923.067 -2.93245 -5.35574 0
M  V30 9603 H 924.481 -4.42575 -3.64418 0
M  V30 9604 H 922.878 -5.07847 -3.19704 0
M  V30 9605 H 923.948 -4.44741 -1.93219 0
M  V30 9606 N 925.291 0.760815 -1.38019 0
M  V30 9607 C 926.531 1.53264 -1.35239 0
M  V30 9608 C 926.895 1.91908 0.0595038 0
M  V30 9609 O 928.096 2.67962 0.212122 0
M  V30 9610 C 926.367 2.75643 -2.27499 0
M  V30 9611 S 927.926 3.6559 -2.42672 0
M  V30 9612 H 924.744 0.52457 -0.479945 0
M  V30 9613 H 927.346 0.893737 -1.73875 0
M  V30 9614 H 926.05 2.4535 -3.28986 0
M  V30 9615 H 925.581 3.44483 -1.89987 0
M  V30 9616 H 927.596 4.68124 -1.64542 0
M  V30 9617 N 926.769 1.22769 0.988202 0
M  V30 9618 C 927.679 1.01844 2.11341 0
M  V30 9619 C 928.695 -0.0346937 1.73965 0
M  V30 9620 O 929.871 0.159061 2.00771 0
M  V30 9621 C 926.936 0.603837 3.41401 0
M  V30 9622 C 925.997 1.73113 3.92849 0
M  V30 9623 C 925.23 1.33621 5.16702 0
M  V30 9624 O 925.453 0.217041 5.69987 0
M  V30 9625 O 924.387 2.15444 5.62021 0
M  V30 9626 H 928.213 1.96127 2.31879 0
M  V30 9627 H 925.798 1.01405 1.09715 0
M  V30 9628 H 927.68 0.383196 4.19654 0
M  V30 9629 H 926.355 -0.310082 3.22211 0
M  V30 9630 H 925.262 2.00634 3.15748 0
M  V30 9631 H 926.595 2.62308 4.1648 0
M  V30 9632 N 928.247 -1.18576 1.03814 0
M  V30 9633 C 929.493 -1.88773 0.741132 0
M  V30 9634 C 929.826 -1.79993 -0.729127 0
M  V30 9635 O 929.101 -1.19851 -1.53186 0
M  V30 9636 C 929.384 -3.39352 1.20468 0
M  V30 9637 C 929.237 -3.56955 2.73684 0
M  V30 9638 C 930.556 -4.32901 0.792741 0
M  V30 9639 H 927.675 -0.685482 0.270708 0
M  V30 9640 H 930.317 -1.39523 1.2897 0
M  V30 9641 H 928.467 -3.81427 0.737974 0
M  V30 9642 H 930.139 -3.2399 3.28372 0
M  V30 9643 H 928.382 -2.99696 3.13632 0
M  V30 9644 H 929.053 -4.62598 3.01176 0
M  V30 9645 H 931.529 -3.98592 1.1943 0
M  V30 9646 H 930.405 -5.36828 1.14486 0
M  V30 9647 H 930.666 -4.41052 -0.304295 0
M  V30 9648 N 929.725 -0.817259 -1.34754 0
M  V30 9649 C 931.002 -0.325468 -1.92873 0
M  V30 9650 C 931.382 1.18643 -1.74606 0
M  V30 9651 O 930.73 1.9909 -1.1214 0
M  V30 9652 C 930.94 -0.74858 -3.40877 0
M  V30 9653 C 932.288 -0.744165 -4.18028 0
M  V30 9654 O 933.312 -0.690799 -3.49437 0
M  V30 9655 O 932.171 -0.812207 -5.40431 0
M  V30 9656 H 929.265 -0.0876397 -0.822343 0
M  V30 9657 H 931.811 -0.901671 -1.43764 0
M  V30 9658 H 930.583 -1.79017 -3.47949 0
M  V30 9659 H 930.206 -0.147764 -3.97325 0
M  V30 9660 N 931.203 1.46865 -0.571711 0
M  V30 9661 C 932.428 2.07323 -0.0564655 0
M  V30 9662 C 932.853 1.41938 1.23431 0
M  V30 9663 O 932.211 0.499334 1.74288 0
M  V30 9664 C 932.259 3.6044 0.107339 0
M  V30 9665 O 931.363 3.95558 1.1665 0
M  V30 9666 H 930.704 0.661475 -0.0578465 0
M  V30 9667 H 933.234 1.88669 -0.791524 0
M  V30 9668 H 933.244 4.06767 0.316987 0
M  V30 9669 H 931.919 4.07425 -0.835348 0
M  V30 9670 H 930.496 3.60957 0.936189 0
M  V30 9671 N 932.681 0.308908 1.54543 0
M  V30 9672 C 934.092 -0.182144 1.85809 0
M  V30 9673 C 934.443 -1.52796 1.23076 0
M  V30 9674 O 933.568 -2.09775 0.531358 0
M  V30 9675 C 934.163 -0.337275 3.37117 0
M  V30 9676 C 932.722 -0.772545 3.68387 0
M  V30 9677 C 931.869 0.114451 2.77064 0
M  V30 9678 H 934.82 0.529671 1.496 0
M  V30 9679 H 934.841 -1.17058 3.62046 0
M  V30 9680 H 934.353 0.642382 3.82747 0
M  V30 9681 H 932.454 -1.76247 3.2828 0
M  V30 9682 H 932.567 -0.586453 4.75497 0
M  V30 9683 H 930.931 -0.407581 2.51418 0
M  V30 9684 H 931.714 1.09061 3.25516 0
M  V30 9685 N 934.159 -1.57557 0.0367827 0
M  V30 9686 C 935.091 -2.07597 -0.971395 0
M  V30 9687 C 936.104 -1.0009 -1.28397 0
M  V30 9688 O 937.293 -1.27692 -1.24728 0
M  V30 9689 C 934.393 -2.492 -2.2968 0
M  V30 9690 C 933.566 -3.79875 -2.16826 0
M  V30 9691 C 932.625 -4.07946 -3.32366 0
M  V30 9692 O 931.651 -4.78083 -3.0891 0
M  V30 9693 N 932.853 -3.58722 -4.56397 0
M  V30 9694 H 935.618 -2.94714 -0.544389 0
M  V30 9695 H 933.179 -1.61205 -0.1498 0
M  V30 9696 H 935.171 -2.65065 -3.05815 0
M  V30 9697 H 933.741 -1.67407 -2.63995 0
M  V30 9698 H 932.961 -3.73732 -1.2537 0
M  V30 9699 H 934.249 -4.65476 -2.0545 0
M  V30 9700 H 933.647 -3.01994 -4.78347 0
M  V30 9701 H 932.204 -3.79852 -5.29675 0
M  V30 9702 N 935.637 0.236453 -1.55816 0
M  V30 9703 C 936.914 0.986463 -1.68903 0
M  V30 9704 C 937.294 2.02984 -0.579722 0
M  V30 9705 O 936.642 2.24693 0.415389 0
M  V30 9706 C 936.852 1.61038 -3.09625 0
M  V30 9707 C 938.2 2.10829 -3.6856 0
M  V30 9708 O 939.224 1.7096 -3.12492 0
M  V30 9709 O 938.083 2.84064 -4.66873 0
M  V30 9710 H 935.177 0.459837 -0.687371 0
M  V30 9711 H 937.723 0.229412 -1.68142 0
M  V30 9712 H 936.495 0.856232 -3.81817 0
M  V30 9713 H 936.118 2.43336 -3.14441 0
M  V30 9714 N 937.115 1.49373 0.502552 0
M  V30 9715 C 938.045 1.68839 1.61294 0
M  V30 9716 C 939.026 0.537096 1.61398 0
M  V30 9717 O 940.211 0.772764 1.78163 0
M  V30 9718 C 937.341 1.75347 2.99784 0
M  V30 9719 C 936.295 2.90251 3.14545 0
M  V30 9720 C 935.621 2.8187 4.54371 0
M  V30 9721 C 936.921 4.31207 2.94717 0
M  V30 9722 H 938.615 2.61803 1.45257 0
M  V30 9723 H 936.161 1.25987 0.697371 0
M  V30 9724 H 938.114 1.87552 3.77362 0
M  V30 9725 H 936.838 0.789814 3.16906 0
M  V30 9726 H 935.497 2.77646 2.39392 0
M  V30 9727 H 935.145 1.83416 4.68367 0
M  V30 9728 H 934.845 3.5899 4.65188 0
M  V30 9729 H 936.369 2.96081 5.34012 0
M  V30 9730 H 937.783 4.44501 3.62065 0
M  V30 9731 H 936.18 5.09536 3.17007 0
M  V30 9732 H 937.25 4.45759 1.90857 0
M  V30 9733 N 938.594 -0.753485 1.38421 0
M  V30 9734 C 939.84 -1.51485 1.34834 0
M  V30 9735 C 940.173 -1.94102 -0.0615381 0
M  V30 9736 O 939.448 -1.65439 -1.02274 0
M  V30 9737 C 939.731 -2.76736 2.30411 0
M  V30 9738 C 939.584 -2.40256 3.80259 0
M  V30 9739 C 940.903 -3.7876 2.24119 0
M  V30 9740 H 938.022 -0.549534 0.491102 0
M  V30 9741 H 940.664 -0.863006 1.6927 0
M  V30 9742 H 938.814 -3.32357 2.01175 0
M  V30 9743 H 940.486 -1.90409 4.20169 0
M  V30 9744 H 938.729 -1.72714 3.97935 0
M  V30 9745 H 939.4 -3.29869 4.42595 0
M  V30 9746 H 941.876 -3.32679 2.49928 0
M  V30 9747 H 940.752 -4.64092 2.93104 0
M  V30 9748 H 941.013 -4.24352 1.24006 0
M  V30 9749 N 940.072 -1.23292 -0.981677 0
M  V30 9750 C 941.297 -1.09176 -1.76339 0
M  V30 9751 C 941.722 0.352726 -1.84763 0
M  V30 9752 O 941.08 1.25509 -1.30832 0
M  V30 9753 C 941.128 -1.72046 -3.16911 0
M  V30 9754 O 940.232 -0.98174 -4.00544 0
M  V30 9755 H 939.573 -0.382755 -0.542581 0
M  V30 9756 H 942.103 -1.63319 -1.23239 0
M  V30 9757 H 942.113 -1.77232 -3.67495 0
M  V30 9758 H 940.788 -2.77154 -3.10095 0
M  V30 9759 H 939.365 -1.00672 -3.59054 0
M  V30 9760 N 941.55 1.18024 -1.04442 0
M  V30 9761 C 942.48 2.23988 -0.659683 0
M  V30 9762 C 943.461 1.6669 0.338904 0
M  V30 9763 O 944.646 1.92971 0.21817 0
M  V30 9764 C 941.776 3.4729 -0.0257672 0
M  V30 9765 C 940.73 4.17362 -0.948299 0
M  V30 9766 C 940.056 5.34401 -0.17866 0
M  V30 9767 C 941.356 4.70435 -2.26909 0
M  V30 9768 H 943.05 2.56425 -1.54553 0
M  V30 9769 H 940.596 1.23256 -0.744575 0
M  V30 9770 H 942.549 4.20627 0.255131 0
M  V30 9771 H 941.273 3.14098 0.894981 0
M  V30 9772 H 939.932 3.45928 -1.21364 0
M  V30 9773 H 939.58 4.97458 0.744614 0
M  V30 9774 H 939.28 5.8222 -0.793294 0
M  V30 9775 H 940.804 6.10526 0.0951315 0
M  V30 9776 H 942.218 5.35447 -2.04864 0
M  V30 9777 H 940.615 5.28803 -2.83703 0
M  V30 9778 H 941.685 3.87653 -2.91296 0
M  V30 9779 N 943.028 0.824394 1.34319 0
M  V30 9780 C 944.305 0.335692 1.92698 0
M  V30 9781 C 944.685 -1.17715 1.75232 0
M  V30 9782 O 944.033 -1.98493 1.13194 0
M  V30 9783 C 944.243 0.766647 3.40475 0
M  V30 9784 C 945.591 0.766323 4.17627 0
M  V30 9785 O 946.615 0.709321 3.49066 0
M  V30 9786 O 945.474 0.840856 5.39992 0
M  V30 9787 H 942.568 0.0919996 0.821867 0
M  V30 9788 H 945.114 0.909282 1.43283 0
M  V30 9789 H 943.886 1.80859 3.46995 0
M  V30 9790 H 943.509 0.168833 3.97241 0
M  V30 9791 N 944.506 -1.46559 0.579492 0
M  V30 9792 C 945.753 -2.02399 0.0638418 0
M  V30 9793 C 946.081 -1.45135 -1.29484 0
M  V30 9794 O 945.336 -0.605061 -1.86112 0
M  V30 9795 C 945.635 -3.57357 -0.0552803 0
M  V30 9796 C 945.301 -4.33646 1.23539 0
M  V30 9797 C 943.963 -4.54207 1.589 0
M  V30 9798 C 946.315 -4.77476 2.08965 0
M  V30 9799 C 943.643 -5.1585 2.79492 0
M  V30 9800 C 945.995 -5.4045 3.2878 0
M  V30 9801 C 944.659 -5.5924 3.64427 0
M  V30 9802 H 943.929 -0.740632 0.0233614 0
M  V30 9803 H 946.576 -1.75968 0.755482 0
M  V30 9804 H 944.881 -3.82907 -0.83003 0
M  V30 9805 H 946.578 -3.98237 -0.469964 0
M  V30 9806 H 943.168 -4.17937 0.9501 0
M  V30 9807 H 947.352 -4.61349 1.8295 0
M  V30 9808 H 942.608 -5.28589 3.07252 0
M  V30 9809 H 946.782 -5.73371 3.95245 0
M  V30 9810 H 944.409 -6.06775 4.57961 0
M  V30 9811 N 945.984 -0.3171 -1.54377 0
M  V30 9812 C 947.395 0.172287 -1.85903 0
M  V30 9813 C 947.746 1.52141 -1.23885 0
M  V30 9814 O 946.871 2.0949 -0.542476 0
M  V30 9815 C 947.466 0.319392 -3.37291 0
M  V30 9816 C 946.025 0.752998 -3.68791 0
M  V30 9817 C 945.172 -0.129143 -2.76999 0
M  V30 9818 H 948.123 -0.537597 -1.49317 0
M  V30 9819 H 948.144 1.15137 -3.62662 0
M  V30 9820 H 947.656 -0.662671 -3.82401 0
M  V30 9821 H 945.757 1.74504 -3.2921 0
M  V30 9822 H 945.87 0.561228 -4.75801 0
M  V30 9823 H 944.234 0.394242 -2.5163 0
M  V30 9824 H 945.017 -1.10785 -3.24933 0
M  V30 9825 N 947.462 1.57535 -0.0451378 0
M  V30 9826 C 948.392 2.14208 0.929372 0
M  V30 9827 C 949.373 1.06221 1.32858 0
M  V30 9828 O 950.558 1.34132 1.40436 0
M  V30 9829 C 947.688 2.68217 2.20629 0
M  V30 9830 C 946.642 3.81134 1.94734 0
M  V30 9831 C 945.968 4.21636 3.28828 0
M  V30 9832 C 947.268 5.06531 1.27374 0
M  V30 9833 H 948.962 2.95886 0.457348 0
M  V30 9834 H 946.508 1.42332 0.218544 0
M  V30 9835 H 948.461 3.06502 2.89196 0
M  V30 9836 H 947.185 1.83722 2.70026 0
M  V30 9837 H 945.844 3.43312 1.28579 0
M  V30 9838 H 945.492 3.34099 3.76014 0
M  V30 9839 H 945.192 4.97736 3.12302 0
M  V30 9840 H 946.716 4.62516 3.98637 0
M  V30 9841 H 948.13 5.423 1.85967 0
M  V30 9842 H 946.527 5.87735 1.21194 0
M  V30 9843 H 947.597 4.84261 0.248913 0
M  V30 9844 N 948.94 -0.228186 1.55939 0
M  V30 9845 C 949.888 -1.30239 1.92719 0
M  V30 9846 C 950.882 -1.48865 0.808424 0
M  V30 9847 O 952.088 -1.50118 0.993204 0
M  V30 9848 H 948.463 -0.436509 0.612343 0
M  V30 9849 H 950.434 -0.964965 2.82367 0
M  V30 9850 C 949.183 -2.647 2.25453 0
M  V30 9851 H 948.506 -2.51173 3.1105 0
M  V30 9852 H 949.946 -3.38691 2.55077 0
M  V30 9853 C 948.405 -3.1921 1.07734 0
M  V30 9854 O 948.935 -4.00301 0.335019 0
M  V30 9855 N 947.141 -2.77492 0.862938 0
M  V30 9856 H 946.688 -2.11657 1.4683 0
M  V30 9857 H 946.646 -3.14306 0.0770119 0
M  V30 9858 N 950.418 -1.49637 -0.494624 0
M  V30 9859 C 951.664 -1.59681 -1.25019 0
M  V30 9860 C 951.997 -0.285511 -1.9209 0
M  V30 9861 O 951.272 0.711398 -1.81023 0
M  V30 9862 C 951.555 -2.76058 -2.31222 0
M  V30 9863 C 951.408 -4.17002 -1.68611 0
M  V30 9864 C 952.727 -2.88056 -3.32734 0
M  V30 9865 H 949.846 -0.581209 -0.453172 0
M  V30 9866 H 952.488 -1.81944 -0.547391 0
M  V30 9867 H 950.638 -2.57207 -2.91164 0
M  V30 9868 H 952.31 -4.47385 -1.12447 0
M  V30 9869 H 950.553 -4.22352 -0.989991 0
M  V30 9870 H 951.224 -4.94316 -2.45674 0
M  V30 9871 H 953.7 -3.05237 -2.82789 0
M  V30 9872 H 952.576 -3.71151 -4.04399 0
M  V30 9873 H 952.837 -1.97676 -3.95445 0
M  V30 9874 N 951.896 0.746133 -1.38819 0
M  V30 9875 C 953.312 1.0502 -1.20179 0
M  V30 9876 C 953.512 2.01423 -0.0556271 0
M  V30 9877 O 952.568 2.45359 0.59625 0
M  V30 9878 C 953.881 1.62315 -2.53129 0
M  V30 9879 C 955.429 1.74449 -2.59878 0
M  V30 9880 C 955.904 2.35155 -3.93022 0
M  V30 9881 N 957.395 2.42577 -3.94602 0
M  V30 9882 C 958.13 2.9046 -4.94389 0
M  V30 9883 N 957.626 3.38322 -6.04574 0
M  V30 9884 N 959.419 2.89568 -4.81775 0
M  V30 9885 H 951.57 0.106551 -2.12133 0
M  V30 9886 H 953.833 0.109897 -0.941609 0
M  V30 9887 H 953.539 0.98946 -3.37495 0
M  V30 9888 H 953.413 2.61276 -2.72057 0
M  V30 9889 H 955.8 2.36943 -1.75903 0
M  V30 9890 H 955.881 0.741721 -2.4481 0
M  V30 9891 H 955.525 1.73292 -4.77422 0
M  V30 9892 H 955.455 3.36088 -4.05404 0
M  V30 9893 H 957.946 2.08735 -3.15021 0
M  V30 9894 H 958.259 3.73336 -6.76639 0
M  V30 9895 H 956.604 3.3636 -6.08184 0
M  V30 9896 H 959.795 2.51492 -3.94803 0
M  V30 9897 H 959.968 3.26571 -5.59692 0
M  V30 9898 N 953.375 1.23811 0.975125 0
M  V30 9899 C 954.322 1.02394 2.06843 0
M  V30 9900 C 955.292 -0.060337 1.6599 0
M  V30 9901 O 956.477 0.0928187 1.90574 0
M  V30 9902 C 953.617 0.626882 3.39359 0
M  V30 9903 C 952.73 1.78385 3.9345 0
M  V30 9904 C 951.865 1.33307 5.14201 0
M  V30 9905 C 950.904 2.46045 5.60471 0
M  V30 9906 N 950.041 2.01888 6.72448 0
M  V30 9907 H 954.881 1.95973 2.24496 0
M  V30 9908 H 952.418 0.976206 1.10039 0
M  V30 9909 H 954.376 0.377742 4.15486 0
M  V30 9910 H 953.006 -0.271907 3.21653 0
M  V30 9911 H 952.058 2.14685 3.14029 0
M  V30 9912 H 953.37 2.63122 4.23755 0
M  V30 9913 H 952.524 1.04237 5.97678 0
M  V30 9914 H 951.263 0.456143 4.85562 0
M  V30 9915 H 950.268 2.75884 4.75571 0
M  V30 9916 H 951.493 3.34283 5.91127 0
M  V30 9917 H 949.439 1.16583 6.45558 0
M  V30 9918 H 949.356 2.80182 7.02164 0
M  V30 9919 H 950.624 1.75937 7.59386 0
M  V30 9920 N 954.853 -1.17469 1.05066 0
M  V30 9921 C 956.101 -1.87327 0.758485 0
M  V30 9922 C 956.422 -1.81358 -0.716549 0
M  V30 9923 O 955.692 -1.23868 -1.51768 0
M  V30 9924 H 954.272 -0.693512 0.277579 0
M  V30 9925 H 956.934 -1.4251 1.32954 0
M  V30 9926 H 956.03 -2.93101 1.0723 0
M  V30 9927 N 956.331 -0.831506 -1.3388 0
M  V30 9928 C 957.281 -0.231656 -2.2682 0
M  V30 9929 C 958.265 0.609075 -1.48926 0
M  V30 9930 O 959.457 0.462249 -1.70857 0
M  V30 9931 C 956.586 0.59846 -3.38043 0
M  V30 9932 C 955.672 -0.253372 -4.23342 0
M  V30 9933 N 956.063 -1.32854 -4.8804 0
M  V30 9934 C 954.361 -0.0391537 -4.45983 0
M  V30 9935 C 955.062 -1.85069 -5.51475 0
M  V30 9936 N 954.038 -1.15327 -5.31226 0
M  V30 9937 H 957.84 -1.05396 -2.74352 0
M  V30 9938 H 955.354 -0.675195 -1.47699 0
M  V30 9939 H 957.351 1.04443 -4.03605 0
M  V30 9940 H 956.011 1.41882 -2.92061 0
M  V30 9941 H 957.022 -1.71139 -4.88806 0
M  V30 9942 H 953.699 0.748356 -4.10738 0
M  V30 9943 H 955.089 -2.75065 -6.13016 0
M  V30 9944 N 957.809 1.4625 -0.587256 0
M  V30 9945 C 959.22 1.85997 -0.161918 0
M  V30 9946 C 959.571 1.49025 1.27616 0
M  V30 9947 O 958.696 0.907282 1.96462 0
M  V30 9948 C 959.291 3.37582 -0.287077 0
M  V30 9949 C 957.85 3.76308 0.0834211 0
M  V30 9950 C 956.997 2.70259 -0.620932 0
M  V30 9951 H 959.948 1.3734 -0.795199 0
M  V30 9952 H 959.969 3.77379 0.486333 0
M  V30 9953 H 959.481 3.64459 -1.33383 0
M  V30 9954 H 957.582 3.55047 1.13013 0
M  V30 9955 H 957.695 4.78184 -0.296064 0
M  V30 9956 H 956.059 2.54628 -0.0607027 0
M  V30 9957 H 956.842 2.99975 -1.66942 0
M  V30 9958 N 959.287 0.325282 1.54207 0
M  V30 9959 C 960.217 -0.532574 2.27345 0
M  V30 9960 C 961.198 -1.11791 1.28206 0
M  V30 9961 O 962.383 -1.14272 1.57021 0
M  V30 9962 C 959.513 -1.69274 3.03255 0
M  V30 9963 C 958.467 -1.23662 4.09746 0
M  V30 9964 C 957.793 -2.48386 4.73506 0
M  V30 9965 C 959.093 -0.350244 5.21124 0
M  V30 9966 H 960.787 0.0775108 2.993 0
M  V30 9967 H 958.333 0.0387193 1.43948 0
M  V30 9968 H 960.286 -2.29917 3.53152 0
M  V30 9969 H 959.01 -2.32944 2.28921 0
M  V30 9970 H 957.669 -0.653106 3.60735 0
M  V30 9971 H 957.317 -3.10424 3.95786 0
M  V30 9972 H 957.017 -2.18558 5.45441 0
M  V30 9973 H 958.541 -3.09789 5.26178 0
M  V30 9974 H 959.955 -0.863011 5.66767 0
M  V30 9975 H 958.352 -0.14466 5.99926 0
M  V30 9976 H 959.422 0.618457 4.8094 0
M  V30 9977 N 960.765 -1.57509 0.0534917 0
M  V30 9978 C 961.695 -2.14698 -0.917999 0
M  V30 9979 C 962.676 -1.06924 -1.32292 0
M  V30 9980 O 963.861 -1.34875 -1.39723 0
M  V30 9981 C 960.991 -2.69383 -2.19203 0
M  V30 9982 C 959.945 -3.82161 -1.9271 0
M  V30 9983 C 959.271 -4.23373 -3.26587 0
M  V30 9984 C 960.571 -5.07199 -1.24686 0
M  V30 9985 H 962.265 -2.96125 -0.44165 0
M  V30 9986 H 959.811 -1.42446 -0.210993 0
M  V30 9987 H 961.764 -3.08031 -2.87567 0
M  V30 9988 H 960.488 -1.85151 -2.69048 0
M  V30 9989 H 959.147 -3.43989 -1.26757 0
M  V30 9990 H 958.795 -3.36089 -3.74237 0
M  V30 9991 H 958.495 -4.99385 -3.09658 0
M  V30 9992 H 960.019 -4.64623 -3.96178 0
M  V30 9993 H 961.433 -5.43279 -1.83088 0
M  V30 9994 H 959.83 -5.88369 -1.18076 0
M  V30 9995 H 960.9 -4.84386 -0.223227 0
M  V30 9996 N 962.243 0.219913 -1.56058 0
M  V30 9997 C 963.489 0.945463 -1.79412 0
M  V30 9998 C 963.822 1.83922 -0.62341 0
M  V30 9999 O 963.097 1.90806 0.377256 0
M  V30 10000 C 963.38 1.783 -3.1286 0
M  V30 10001 C 963.233 0.915626 -4.40382 0
M  V30 10002 C 964.552 2.76045 -3.42764 0
M  V30 10003 H 961.671 0.342288 -0.652693 0
M  V30 10004 H 964.313 0.214235 -1.88788 0
M  V30 10005 H 962.463 2.40642 -3.04998 0
M  V30 10006 H 964.135 0.30882 -4.60265 0
M  V30 10007 H 962.378 0.221124 -4.33236 0
M  V30 10008 H 963.049 1.53607 -5.30197 0
M  V30 10009 H 965.525 2.23838 -3.50764 0
M  V30 10010 H 964.401 3.31748 -4.37304 0
M  V30 10011 H 964.662 3.53866 -2.65012 0
M  V30 10012 N 963.721 1.49897 0.486681 0
M  V30 10013 C 964.684 1.67086 1.56891 0
M  V30 10014 C 965.684 0.54209 1.51387 0
M  V30 10015 O 966.874 0.80883 1.54284 0
M  V30 10016 C 964.006 1.68159 2.96539 0
M  V30 10017 H 965.199 2.63626 1.42974 0
M  V30 10018 H 962.752 1.39143 0.711954 0
M  V30 10019 H 963.487 0.732562 3.15918 0
M  V30 10020 H 963.272 2.50147 3.01942 0
M  V30 10021 H 964.762 1.83466 3.7514 0
M  V30 10022 N 965.199 -0.738761 1.39212 0
M  V30 10023 C 966.445 -1.50046 1.36433 0
M  V30 10024 C 966.778 -1.94157 -0.0409474 0
M  V30 10025 O 966.053 -1.66515 -1.00514 0
M  V30 10026 C 966.336 -2.74277 2.33333 0
M  V30 10027 C 966.189 -2.36209 3.82786 0
M  V30 10028 C 967.508 -3.76361 2.28123 0
M  V30 10029 H 964.627 -0.544294 0.496903 0
M  V30 10030 H 967.269 -0.845005 1.70175 0
M  V30 10031 H 965.419 -3.30204 2.04689 0
M  V30 10032 H 967.091 -1.85942 4.22165 0
M  V30 10033 H 965.334 -1.68483 3.99745 0
M  V30 10034 H 966.005 -3.25156 4.46069 0
M  V30 10035 H 968.481 -3.30009 2.53443 0
M  V30 10036 H 967.357 -4.60957 2.9801 0
M  V30 10037 H 967.618 -4.23013 1.28499 0
M  V30 10038 N 966.677 -1.24326 -0.968545 0
M  V30 10039 C 967.624 -1.0349 -2.06297 0
M  V30 10040 C 968.594 0.0515333 -1.6602 0
M  V30 10041 O 969.779 -0.102924 -1.90522 0
M  V30 10042 C 966.919 -0.64487 -3.39021 0
M  V30 10043 C 966.032 -1.80469 -3.92498 0
M  V30 10044 C 965.167 -1.36032 -5.13487 0
M  V30 10045 C 964.206 -2.49014 -5.59159 0
M  V30 10046 N 963.343 -2.05451 -6.71367 0
M  V30 10047 H 968.183 -1.97161 -2.23454 0
M  V30 10048 H 965.72 -0.982028 -1.0952 0
M  V30 10049 H 967.678 -0.399771 -4.1528 0
M  V30 10050 H 966.308 0.254845 -3.21792 0
M  V30 10051 H 965.36 -2.16348 -3.12886 0
M  V30 10052 H 966.672 -2.65365 -4.22354 0
M  V30 10053 H 965.826 -1.07405 -5.97117 0
M  V30 10054 H 964.565 -0.481887 -4.85313 0
M  V30 10055 H 963.57 -2.78402 -4.74102 0
M  V30 10056 H 964.795 -3.37413 -5.89346 0
M  V30 10057 H 962.741 -1.20004 -6.4493 0
M  V30 10058 H 962.658 -2.83901 -7.00668 0
M  V30 10059 H 963.926 -1.79962 -7.58442 0
M  V30 10060 N 968.156 1.1691 -1.05688 0
M  V30 10061 C 969.405 1.86629 -0.765022 0
M  V30 10062 C 969.718 1.82223 0.710918 0
M  V30 10063 O 970.924 2.47462 1.11691 0
M  V30 10064 C 969.38 3.34886 -1.3183 0
M  V30 10065 C 968.988 3.47781 -2.82404 0
M  V30 10066 C 970.732 4.099 -1.10372 0
M  V30 10067 C 968.639 4.9009 -3.31008 0
M  V30 10068 H 967.569 0.699082 -0.282491 0
M  V30 10069 H 970.22 1.31989 -1.27481 0
M  V30 10070 H 968.602 3.89094 -0.736312 0
M  V30 10071 H 969.776 3.03765 -3.46502 0
M  V30 10072 H 968.091 2.86193 -3.02461 0
M  V30 10073 H 970.688 5.14894 -1.4418 0
M  V30 10074 H 971.031 4.16279 -0.0417372 0
M  V30 10075 H 971.564 3.61913 -1.65117 0
M  V30 10076 H 968.303 4.88887 -4.36657 0
M  V30 10077 H 967.823 5.34756 -2.71655 0
M  V30 10078 H 969.502 5.58881 -3.25977 0
M  V30 10079 N 969.634 0.838594 1.33437 0
M  V30 10080 C 970.564 0.286672 2.31734 0
M  V30 10081 C 971.545 -0.605451 1.5896 0
M  V30 10082 O 972.73 -0.529059 1.86854 0
M  V30 10083 C 969.86 -0.539311 3.43087 0
M  V30 10084 C 968.814 0.256997 4.27228 0
M  V30 10085 C 968.14 -0.692718 5.30194 0
M  V30 10086 C 969.44 1.47391 5.01072 0
M  V30 10087 H 971.134 1.10798 2.78144 0
M  V30 10088 H 968.68 0.534235 1.33723 0
M  V30 10089 H 970.633 -0.935724 4.1088 0
M  V30 10090 H 969.357 -1.39383 2.95364 0
M  V30 10091 H 968.016 0.634967 3.61059 0
M  V30 10092 H 967.664 -1.54363 4.78729 0
M  V30 10093 H 967.364 -0.164023 5.87371 0
M  V30 10094 H 968.888 -1.08665 6.00853 0
M  V30 10095 H 970.302 1.15067 5.61634 0
M  V30 10096 H 968.699 1.93937 5.67898 0
M  V30 10097 H 969.769 2.24382 4.29861 0
M  V30 10098 N 971.112 -1.45937 0.595003 0
M  V30 10099 C 972.528 -1.57507 0.257641 0
M  V30 10100 C 972.728 -1.58829 -1.23998 0
M  V30 10101 O 971.784 -1.51183 -2.02237 0
M  V30 10102 C 973.097 -2.86354 0.917708 0
M  V30 10103 C 974.645 -3.00007 0.892446 0
M  V30 10104 C 975.12 -4.31607 1.53229 0
M  V30 10105 N 976.611 -4.38336 1.49719 0
M  V30 10106 C 977.346 -5.38805 1.96154 0
M  V30 10107 N 976.842 -6.45882 2.50617 0
M  V30 10108 N 978.635 -5.30084 1.86997 0
M  V30 10109 H 970.786 -1.43322 1.56756 0
M  V30 10110 H 973.049 -0.684436 0.655936 0
M  V30 10111 H 972.755 -2.91233 1.97171 0
M  V30 10112 H 972.629 -3.74703 0.433344 0
M  V30 10113 H 975.016 -2.94703 -0.152975 0
M  V30 10114 H 975.097 -2.13103 1.41495 0
M  V30 10115 H 974.741 -4.3767 2.57697 0
M  V30 10116 H 974.671 -5.17308 0.984903 0
M  V30 10117 H 977.162 -3.6156 1.09921 0
M  V30 10118 H 977.475 -7.18774 2.83874 0
M  V30 10119 H 975.82 -6.46668 2.54649 0
M  V30 10120 H 979.011 -4.45337 1.44196 0
M  V30 10121 H 979.184 -6.08237 2.23499 0
M  V30 10122 N 972.59 -0.333456 -1.54032 0
M  V30 10123 C 974.001 0.15256 -1.86076 0
M  V30 10124 C 974.352 1.50819 -1.25492 0
M  V30 10125 O 973.477 2.08903 -0.564665 0
M  V30 10126 C 974.072 0.283599 -3.37611 0
M  V30 10127 C 972.631 0.713841 -3.69569 0
M  V30 10128 C 971.778 -0.158515 -2.76847 0
M  V30 10129 H 974.729 -0.553404 -1.48738 0
M  V30 10130 H 974.75 1.11284 -3.63863 0
M  V30 10131 H 974.262 -0.703193 -3.81676 0
M  V30 10132 H 972.363 1.71002 -3.31042 0
M  V30 10133 H 972.476 0.510731 -4.7637 0
M  V30 10134 H 970.84 0.367531 -2.52034 0
M  V30 10135 H 971.623 -1.14226 -3.2374 0
M  V30 10136 N 974.068 1.57479 -0.061844 0
M  V30 10137 C 975.345 1.84484 0.649993 0
M  V30 10138 C 975.725 0.952366 1.88396 0
M  V30 10139 O 975.073 0.0161035 2.28494 0
M  V30 10140 C 975.283 3.34452 0.997133 0
M  V30 10141 C 976.631 4.01724 1.37488 0
M  V30 10142 O 977.655 3.3914 1.08916 0
M  V30 10143 O 976.514 5.12091 1.90854 0
M  V30 10144 H 973.608 0.761798 0.321858 0
M  V30 10145 H 976.154 1.6945 -0.0920192 0
M  V30 10146 H 974.926 3.91115 0.120301 0
M  V30 10147 H 974.549 3.54713 1.79624 0
M  V30 10148 N 975.546 -0.211634 1.56173 0
M  V30 10149 C 976.509 -1.24588 1.92381 0
M  V30 10150 C 977.509 -1.39297 0.803311 0
M  V30 10151 O 978.699 -1.37392 1.07094 0
M  V30 10152 C 975.831 -2.61807 2.18335 0
M  V30 10153 H 977.024 -0.936814 2.84893 0
M  V30 10154 H 974.577 -0.452471 1.49607 0
M  V30 10155 H 975.312 -2.97795 1.28407 0
M  V30 10156 H 975.097 -2.52506 2.99972 0
M  V30 10157 H 976.587 -3.3642 2.4741 0
M  V30 10158 N 977.024 -1.50153 -0.478725 0
M  V30 10159 C 978.252 -1.64505 -1.25482 0
M  V30 10160 C 978.667 -0.325295 -1.85977 0
M  V30 10161 O 978.024 0.691885 -1.68876 0
M  V30 10162 C 978.075 -2.73052 -2.36906 0
M  V30 10163 O 977.796 -3.99911 -1.78894 0
M  V30 10164 C 979.297 -2.98309 -3.27912 0
M  V30 10165 H 976.517 -0.55318 -0.379781 0
M  V30 10166 H 979.061 -1.96329 -0.57229 0
M  V30 10167 H 977.216 -2.43944 -3.00949 0
M  V30 10168 H 977.63 -4.5988 -2.52211 0
M  V30 10169 H 979.104 -3.77942 -4.02323 0
M  V30 10170 H 979.581 -2.09082 -3.8624 0
M  V30 10171 H 980.187 -3.2892 -2.69614 0
M  V30 10172 N 978.502 0.731368 -1.39602 0
M  V30 10173 C 979.449 1.84541 -1.38612 0
M  V30 10174 C 980.419 1.64279 -0.245287 0
M  V30 10175 O 981.604 1.85635 -0.440954 0
M  V30 10176 C 978.744 3.22092 -1.23897 0
M  V30 10177 C 977.857 3.54034 -2.47555 0
M  V30 10178 C 976.992 4.81007 -2.25402 0
M  V30 10179 C 976.031 5.05804 -3.44716 0
M  V30 10180 N 975.168 6.23981 -3.21857 0
M  V30 10181 H 980.008 1.84722 -2.33841 0
M  V30 10182 H 977.545 0.902569 -1.16156 0
M  V30 10183 H 979.503 4.01499 -1.13376 0
M  V30 10184 H 978.133 3.2118 -0.322958 0
M  V30 10185 H 977.185 2.69301 -2.68665 0
M  V30 10186 H 978.497 3.68275 -3.36415 0
M  V30 10187 H 977.651 5.68401 -2.12143 0
M  V30 10188 H 976.39 4.68946 -1.33943 0
M  V30 10189 H 975.395 4.1687 -3.58468 0
M  V30 10190 H 976.62 5.19747 -4.37081 0
M  V30 10191 H 974.566 6.13202 -2.33065 0
M  V30 10192 H 974.483 6.38826 -4.04274 0
M  V30 10193 H 975.751 7.14205 -3.123 0
M  V30 10194 N 979.98 1.24838 0.961938 0
M  V30 10195 C 980.928 1.0436 2.07874 0
M  V30 10196 C 981.922 -0.0232531 1.69384 0
M  V30 10197 O 983.128 0.131773 1.79517 0
M  V30 10198 H 979.503 0.320492 0.680286 0
M  V30 10199 H 981.474 1.99055 2.22306 0
M  V30 10200 C 980.223 0.671246 3.41159 0
M  V30 10201 H 979.546 1.48395 3.7124 0
M  V30 10202 H 980.986 0.567608 4.20184 0
M  V30 10203 C 979.445 -0.622124 3.31106 0
M  V30 10204 O 979.975 -1.66627 3.65511 0
M  V30 10205 N 978.181 -0.605009 2.84232 0
M  V30 10206 H 977.728 0.245052 2.56432 0
M  V30 10207 H 977.686 -1.47056 2.77888 0
M  V30 10208 N 981.458 -1.16348 1.06306 0
M  V30 10209 C 982.421 -2.18941 0.678053 0
M  V30 10210 C 983.421 -1.58409 -0.276277 0
M  V30 10211 O 984.611 -1.74101 -0.0586435 0
M  V30 10212 C 981.743 -3.409 -0.00228684 0
M  V30 10213 H 982.936 -2.54516 1.58624 0
M  V30 10214 H 980.489 -1.30625 0.858298 0
M  V30 10215 H 981.224 -3.10881 -0.923212 0
M  V30 10216 H 981.009 -3.86089 0.683949 0
M  V30 10217 H 982.499 -4.16806 -0.257374 0
M  V30 10218 N 982.937 -0.845659 -1.3299 0
M  V30 10219 C 984.353 -0.53433 -1.5039 0
M  V30 10220 C 984.553 0.936939 -1.78392 0
M  V30 10221 O 983.609 1.72043 -1.84818 0
M  V30 10222 C 984.922 -1.41354 -2.65404 0
M  V30 10223 C 986.47 -1.41303 -2.79289 0
M  V30 10224 C 986.945 -2.27724 -3.97373 0
M  V30 10225 N 988.436 -2.25471 -4.0462 0
M  V30 10226 C 989.171 -2.89074 -4.95201 0
M  V30 10227 N 988.667 -3.61755 -5.90851 0
M  V30 10228 N 990.46 -2.78508 -4.88251 0
M  V30 10229 H 982.611 -1.79798 -1.13078 0
M  V30 10230 H 984.874 -0.767454 -0.556524 0
M  V30 10231 H 984.58 -2.45936 -2.51413 0
M  V30 10232 H 984.454 -1.09445 -3.60973 0
M  V30 10233 H 986.841 -0.374899 -2.92709 0
M  V30 10234 H 986.922 -1.77222 -1.84461 0
M  V30 10235 H 986.566 -3.316 -3.84713 0
M  V30 10236 H 986.496 -1.89142 -4.9146 0
M  V30 10237 H 988.987 -1.72622 -3.3617 0
M  V30 10238 H 989.3 -4.07475 -6.56646 0
M  V30 10239 H 987.645 -3.65863 -5.90906 0
M  V30 10240 H 990.836 -2.21285 -4.12493 0
M  V30 10241 H 991.009 -3.2836 -5.58645 0
M  V30 10242 N 984.415 1.45619 -0.602734 0
M  V30 10243 C 985.363 2.32228 0.131484 0
M  V30 10244 C 986.357 1.45681 0.864484 0
M  V30 10245 O 987.563 1.62193 0.7806 0
M  V30 10246 H 983.938 0.7495 0.0612638 0
M  V30 10247 H 985.909 2.91941 -0.617496 0
M  V30 10248 C 984.658 3.29213 1.11866 0
M  V30 10249 H 983.981 3.95801 0.564061 0
M  V30 10250 H 985.421 3.92554 1.60242 0
M  V30 10251 C 983.88 2.56028 2.18978 0
M  V30 10252 O 984.41 2.33806 3.26646 0
M  V30 10253 N 982.616 2.16245 1.94129 0
M  V30 10254 H 982.163 2.34518 1.06579 0
M  V30 10255 H 982.121 1.67601 2.66003 0
M  V30 10256 N 985.893 0.34162 1.53853 0
M  V30 10257 C 987.17 -0.310664 1.93117 0
M  V30 10258 C 987.55 -1.68398 1.273 0
M  V30 10259 O 986.898 -2.24546 0.423225 0
M  V30 10260 C 987.108 -0.384867 3.46871 0
M  V30 10261 C 988.456 -0.636621 4.198 0
M  V30 10262 O 989.48 -0.467061 3.53125 0
M  V30 10263 O 988.339 -0.964962 5.37913 0
M  V30 10264 H 985.433 -0.180881 0.806977 0
M  V30 10265 H 987.979 0.392656 1.65095 0
M  V30 10266 H 986.751 0.57894 3.86994 0
M  V30 10267 H 986.374 -1.13505 3.81054 0
M  V30 10268 N 987.371 -1.57444 0.0701946 0
M  V30 10269 C 988.618 -1.93429 -0.59929 0
M  V30 10270 C 988.946 -0.9501 -1.69715 0
M  V30 10271 O 988.201 0.0345377 -1.9567 0
M  V30 10272 C 988.5 -3.36044 -1.21694 0
M  V30 10273 C 988.166 -4.50232 -0.245374 0
M  V30 10274 C 986.828 -4.81195 0.0219161 0
M  V30 10275 C 989.18 -5.1951 0.419396 0
M  V30 10276 C 986.508 -5.78775 0.96109 0
M  V30 10277 C 988.86 -6.18095 1.34688 0
M  V30 10278 C 987.524 -6.47477 1.62265 0
M  V30 10279 H 986.794 -0.707807 -0.219296 0
M  V30 10280 H 989.441 -1.90982 0.14073 0
M  V30 10281 H 987.746 -3.34948 -2.03265 0
M  V30 10282 H 989.443 -3.61176 -1.74221 0
M  V30 10283 H 986.033 -4.26082 -0.463887 0
M  V30 10284 H 990.217 -4.95785 0.226009 0
M  V30 10285 H 985.473 -5.99865 1.18202 0
M  V30 10286 H 989.647 -6.7088 1.86795 0
M  V30 10287 H 987.274 -7.229 2.352 0
M  V30 10288 N 988.849 0.203349 -1.56283 0
M  V30 10289 C 989.779 1.2549 -1.96912 0
M  V30 10290 C 990.76 1.47919 -0.839884 0
M  V30 10291 O 991.945 1.59795 -1.10359 0
M  V30 10292 C 989.075 2.6009 -2.30153 0
M  V30 10293 C 988.029 2.52289 -3.45738 0
M  V30 10294 C 987.355 3.91086 -3.64632 0
M  V30 10295 C 988.655 2.05503 -4.80173 0
M  V30 10296 H 990.349 0.917306 -2.85002 0
M  V30 10297 H 987.895 0.439818 -1.37119 0
M  V30 10298 H 989.848 3.33829 -2.5717 0
M  V30 10299 H 988.572 2.95574 -1.38937 0
M  V30 10300 H 987.231 1.81006 -3.18798 0
M  V30 10301 H 986.879 4.23908 -2.7076 0
M  V30 10302 H 986.579 3.86742 -4.42385 0
M  V30 10303 H 988.103 4.66459 -3.94016 0
M  V30 10304 H 989.517 2.68995 -5.06275 0
M  V30 10305 H 987.914 2.1218 -5.61337 0
M  V30 10306 H 988.984 1.00793 -4.74309 0
M  V30 10307 N 990.327 1.50405 0.470755 0
M  V30 10308 C 991.274 1.69293 1.56871 0
M  V30 10309 C 992.244 0.534248 1.57274 0
M  V30 10310 O 993.429 0.764855 1.74799 0
M  V30 10311 C 990.569 1.79338 2.94842 0
M  V30 10312 C 989.682 3.06709 3.04226 0
M  V30 10313 C 988.817 3.07548 4.33114 0
M  V30 10314 C 987.856 4.29372 4.36241 0
M  V30 10315 N 986.993 4.27949 5.56601 0
M  V30 10316 H 991.833 2.63029 1.40071 0
M  V30 10317 H 989.37 1.30386 0.681016 0
M  V30 10318 H 991.328 1.83143 3.74853 0
M  V30 10319 H 989.958 0.890411 3.10277 0
M  V30 10320 H 989.01 3.12374 2.17086 0
M  V30 10321 H 990.322 3.96684 3.02396 0
M  V30 10322 H 989.476 3.10084 5.21472 0
M  V30 10323 H 988.215 2.15404 4.37553 0
M  V30 10324 H 987.22 4.27048 3.4628 0
M  V30 10325 H 988.445 5.22743 4.33493 0
M  V30 10326 H 986.391 3.38658 5.61824 0
M  V30 10327 H 986.308 5.11692 5.56513 0
M  V30 10328 H 987.576 4.34631 6.47083 0
M  V30 10329 N 991.805 -0.723954 1.39988 0
M  V30 10330 C 992.715 -1.86829 1.41887 0
M  V30 10331 C 993.731 -1.71173 0.312401 0
M  V30 10332 O 994.907 -1.93583 0.555651 0
M  V30 10333 C 991.972 -3.22541 1.27154 0
M  V30 10334 C 991.033 -3.50512 2.47871 0
M  V30 10335 C 990.266 -4.79749 2.33831 0
M  V30 10336 O 990.489 -5.54251 1.34765 0
M  V30 10337 O 989.423 -5.07868 3.23039 0
M  V30 10338 H 993.249 -1.88183 2.38371 0
M  V30 10339 H 990.834 -0.873259 1.21221 0
M  V30 10340 H 992.716 -4.0362 1.21114 0
M  V30 10341 H 991.391 -3.21933 0.337715 0
M  V30 10342 H 990.298 -2.69475 2.59488 0
M  V30 10343 H 991.631 -3.55909 3.39985 0
M  V30 10344 N 993.283 -1.25346 -0.955304 0
M  V30 10345 C 994.529 -1.10218 -1.70235 0
M  V30 10346 C 994.862 0.356124 -1.90907 0
M  V30 10347 O 994.137 1.26253 -1.47954 0
M  V30 10348 C 994.42 -1.85627 -3.08569 0
M  V30 10349 C 994.273 -3.39281 -2.95311 0
M  V30 10350 C 995.592 -1.63886 -4.08448 0
M  V30 10351 H 992.711 -0.401781 -0.617852 0
M  V30 10352 H 995.353 -1.5417 -1.11048 0
M  V30 10353 H 993.503 -1.48269 -3.59094 0
M  V30 10354 H 995.175 -3.8631 -2.52116 0
M  V30 10355 H 993.418 -3.67027 -2.31244 0
M  V30 10356 H 994.089 -3.87258 -3.93364 0
M  V30 10357 H 996.565 -1.96406 -3.6683 0
M  V30 10358 H 995.441 -2.19087 -5.03281 0
M  V30 10359 H 995.702 -0.580021 -4.38279 0
M  V30 10360 N 994.761 1.15782 -1.06922 0
M  V30 10361 C 995.708 2.2038 -0.685659 0
M  V30 10362 C 996.678 1.62972 0.320816 0
M  V30 10363 O 997.863 1.8966 0.208258 0
M  V30 10364 C 995.003 3.44995 -0.084998 0
M  V30 10365 C 994.116 4.16621 -1.14242 0
M  V30 10366 C 993.251 5.28773 -0.507226 0
M  V30 10367 C 992.29 5.92209 -1.54774 0
M  V30 10368 N 991.427 6.9584 -0.935443 0
M  V30 10369 H 996.267 2.5254 -1.58201 0
M  V30 10370 H 993.804 1.24031 -0.790864 0
M  V30 10371 H 995.762 4.16254 0.280845 0
M  V30 10372 H 994.392 3.13365 0.774725 0
M  V30 10373 H 993.444 3.43903 -1.62589 0
M  V30 10374 H 994.756 4.59884 -1.93154 0
M  V30 10375 H 993.91 6.06635 -0.0887719 0
M  V30 10376 H 992.649 4.8669 0.313704 0
M  V30 10377 H 991.654 5.13063 -1.97602 0
M  V30 10378 H 992.879 6.3637 -2.37088 0
M  V30 10379 H 990.825 6.5586 -0.135339 0
M  V30 10380 H 990.742 7.37508 -1.66186 0
M  V30 10381 H 992.01 7.77611 -0.542346 0
M  V30 10382 N 996.239 0.8527 1.3254 0
M  V30 10383 C 997.488 0.45136 1.96585 0
M  V30 10384 C 997.801 -0.997773 1.68237 0
M  V30 10385 O 999.007 -1.50445 2.26006 0
M  V30 10386 C 997.463 0.75619 3.51866 0
M  V30 10387 C 997.071 2.22092 3.89075 0
M  V30 10388 C 998.815 0.422478 4.22392 0
M  V30 10389 C 996.722 2.46908 5.37392 0
M  V30 10390 H 995.652 0.165052 0.735713 0
M  V30 10391 H 998.303 1.04321 1.50962 0
M  V30 10392 H 996.685 0.0937988 3.95889 0
M  V30 10393 H 997.859 2.92494 3.56067 0
M  V30 10394 H 996.174 2.51896 3.31568 0
M  V30 10395 H 998.771 0.58533 5.31487 0
M  V30 10396 H 999.114 -0.635737 4.11417 0
M  V30 10397 H 999.647 1.04068 3.83946 0
M  V30 10398 H 996.386 3.51346 5.53386 0
M  V30 10399 H 995.906 1.81082 5.71812 0
M  V30 10400 H 997.585 2.30758 6.0445 0
M  V30 10401 N 997.718 -1.45297 0.610449 0
M  V30 10402 C 998.651 -2.27669 -0.155637 0
M  V30 10403 C 999.629 -1.37308 -0.870936 0
M  V30 10404 O 1000.81 -1.66739 -0.879228 0
M  V30 10405 C 997.94 -3.15748 -1.2256 0
M  V30 10406 C 996.986 -4.2207 -0.613116 0
M  V30 10407 S 997.819 -5.32337 0.581183 0
M  V30 10408 C 998.975 -6.23985 -0.489298 0
M  V30 10409 H 999.208 -2.92295 0.543205 0
M  V30 10410 H 996.741 -1.49181 0.398044 0
M  V30 10411 H 998.699 -3.67051 -1.83804 0
M  V30 10412 H 997.36 -2.50381 -1.89652 0
M  V30 10413 H 996.553 -4.83633 -1.41827 0
M  V30 10414 H 996.155 -3.73923 -0.0757482 0
M  V30 10415 H 998.447 -6.63553 -1.36759 0
M  V30 10416 H 999.39 -7.08042 0.0902456 0
M  V30 10417 H 999.798 -5.58718 -0.805911 0
M  V30 10418 N 999.196 -0.349774 -1.5367 0
M  V30 10419 C 1000.42 0.248692 -2.05904 0
M  V30 10420 C 1000.85 1.42942 -1.22267 0
M  V30 10421 O 1000.2 1.79732 -0.237899 0
M  V30 10422 C 1000.25 0.635639 -3.54953 0
M  V30 10423 O 999.356 1.7349 -3.74132 0
M  V30 10424 H 998.697 0.0399477 -0.662797 0
M  V30 10425 H 1001.23 -0.505795 -1.9825 0
M  V30 10426 H 1001.24 0.911064 -3.97698 0
M  V30 10427 H 999.912 -0.227805 -4.15276 0
M  V30 10428 H 998.489 1.45626 -3.43289 0
M  V30 10429 N 1000.67 1.57404 -0.0785433 0
M  V30 10430 C 1002.09 1.57158 0.2781 0
M  V30 10431 C 1002.29 1.08847 1.69572 0
M  V30 10432 O 1001.35 0.757407 2.40873 0
M  V30 10433 C 1002.66 3.00589 0.0816067 0
M  V30 10434 C 1004.21 3.12637 0.150627 0
M  V30 10435 C 1004.68 4.57997 -0.0176685 0
M  V30 10436 N 1006.17 4.63185 0.0377145 0
M  V30 10437 C 1006.91 5.7336 -0.0679907 0
M  V30 10438 N 1006.4 6.92426 -0.227598 0
M  V30 10439 N 1008.2 5.62099 -0.0104424 0
M  V30 10440 H 1000.35 1.87121 -1.00496 0
M  V30 10441 H 1002.61 0.862937 -0.392484 0
M  V30 10442 H 1002.32 3.40072 -0.896869 0
M  V30 10443 H 1002.19 3.67931 0.831046 0
M  V30 10444 H 1004.58 2.73037 1.11959 0
M  V30 10445 H 1004.66 2.4792 -0.630028 0
M  V30 10446 H 1004.3 4.98288 -0.983431 0
M  V30 10447 H 1004.23 5.20754 0.782475 0
M  V30 10448 H 1006.72 3.77564 0.159208 0
M  V30 10449 H 1007.04 7.72217 -0.300217 0
M  V30 10450 H 1005.38 6.94502 -0.263049 0
M  V30 10451 H 1008.57 4.67964 0.112999 0
M  V30 10452 H 1008.75 6.47928 -0.0962747 0
M  V30 10453 N 1002.15 -0.195058 1.56388 0
M  V30 10454 C 1003.08 -1.24444 1.97575 0
M  V30 10455 C 1004.06 -1.47471 0.847717 0
M  V30 10456 O 1005.25 -1.59208 1.11205 0
M  V30 10457 C 1002.38 -2.58866 2.31529 0
M  V30 10458 C 1001.33 -2.50451 3.47071 0
M  V30 10459 C 1000.66 -3.89146 3.667 0
M  V30 10460 C 1001.96 -2.02953 4.81256 0
M  V30 10461 H 1003.65 -0.902178 2.85484 0
M  V30 10462 H 1001.2 -0.43254 1.3735 0
M  V30 10463 H 1003.15 -3.3246 2.58936 0
M  V30 10464 H 1001.87 -2.94833 1.40502 0
M  V30 10465 H 1000.53 -1.79313 3.19754 0
M  V30 10466 H 1000.18 -4.22466 2.73004 0
M  V30 10467 H 999.882 -3.84391 4.44429 0
M  V30 10468 H 1001.41 -4.64363 3.96484 0
M  V30 10469 H 1002.82 -2.66306 5.07695 0
M  V30 10470 H 1001.22 -2.092 5.62455 0
M  V30 10471 H 1002.29 -0.982757 4.74837 0
M  V30 10472 N 1003.63 -1.50653 -0.462772 0
M  V30 10473 C 1004.58 -1.70122 -1.55971 0
M  V30 10474 C 1005.55 -0.542581 -1.56988 0
M  V30 10475 O 1006.73 -0.774114 -1.74391 0
M  V30 10476 C 1003.87 -1.80899 -2.93887 0
M  V30 10477 C 1002.98 -3.08318 -3.02595 0
M  V30 10478 C 1002.12 -3.09841 -4.31477 0
M  V30 10479 C 1001.16 -4.3168 -4.33957 0
M  V30 10480 N 1000.3 -4.30894 -5.54323 0
M  V30 10481 H 1005.14 -2.63768 -1.38674 0
M  V30 10482 H 1002.67 -1.30746 -0.674091 0
M  V30 10483 H 1004.63 -1.85128 -3.73876 0
M  V30 10484 H 1003.26 -0.906854 -3.098 0
M  V30 10485 H 1002.31 -3.13521 -2.15427 0
M  V30 10486 H 1003.62 -3.98282 -3.00288 0
M  V30 10487 H 1002.78 -3.12845 -5.1982 0
M  V30 10488 H 1001.52 -2.17722 -4.36404 0
M  V30 10489 H 1000.52 -4.28879 -3.4401 0
M  V30 10490 H 1001.75 -5.25035 -4.30715 0
M  V30 10491 H 999.694 -3.41633 -5.6002 0
M  V30 10492 H 999.611 -5.14636 -5.53792 0
M  V30 10493 H 1000.88 -4.38056 -6.44769 0
M  V30 10494 N 1005.11 0.71652 -1.4037 0
M  V30 10495 C 1006.39 1.46947 -1.29097 0
M  V30 10496 C 1006.77 2.10903 0.0911182 0
M  V30 10497 O 1006.11 2.00068 1.10385 0
M  V30 10498 C 1006.32 2.50594 -2.42907 0
M  V30 10499 C 1007.67 3.16451 -2.83097 0
M  V30 10500 O 1008.7 2.60913 -2.42493 0
M  V30 10501 O 1007.55 4.16991 -3.53244 0
M  V30 10502 H 1004.65 0.653413 -0.506932 0
M  V30 10503 H 1007.19 0.748774 -1.52287 0
M  V30 10504 H 1005.97 2.01843 -3.35224 0
M  V30 10505 H 1005.59 3.302 -2.21481 0
M  V30 10506 N 1006.59 1.25851 0.948643 0
M  V30 10507 C 1008 1.09975 1.50872 0
M  V30 10508 C 1008.35 -0.322497 1.93531 0
M  V30 10509 O 1007.47 -1.21316 1.79197 0
M  V30 10510 C 1008.07 1.99021 2.74182 0
M  V30 10511 C 1006.63 1.87313 3.26483 0
M  V30 10512 C 1005.77 1.92815 1.99293 0
M  V30 10513 H 1008.73 1.3905 0.764908 0
M  V30 10514 H 1008.75 1.53372 3.4822 0
M  V30 10515 H 1008.26 3.02527 2.43103 0
M  V30 10516 H 1006.36 0.867136 3.62369 0
M  V30 10517 H 1006.47 2.72446 3.94094 0
M  V30 10518 H 1004.84 1.36774 2.1486 0
M  V30 10519 H 1005.62 2.97936 1.70554 0
M  V30 10520 N 1008.06 -1.15214 1.07534 0
M  V30 10521 C 1009.01 -2.22078 0.69168 0
M  V30 10522 C 1010.01 -1.66751 -0.298382 0
M  V30 10523 O 1011.21 -1.7927 -0.161897 0
M  V30 10524 H 1007.59 -0.723347 0.205604 0
M  V30 10525 H 1009.56 -2.51716 1.60256 0
M  V30 10526 C 1008.31 -3.47534 0.107546 0
M  V30 10527 H 1007.63 -3.90429 0.860522 0
M  V30 10528 H 1009.07 -4.23821 -0.123215 0
M  V30 10529 C 1007.53 -3.16583 -1.15226 0
M  V30 10530 O 1008.06 -3.33551 -2.23845 0
M  V30 10531 N 1006.27 -2.70611 -1.05915 0
M  V30 10532 H 1005.81 -2.57004 -0.175198 0
M  V30 10533 H 1005.77 -2.50277 -1.90287 0
M  V30 10534 N 1009.54 -0.859717 -1.32086 0
M  V30 10535 C 1010.79 -0.461779 -1.96343 0
M  V30 10536 C 1011.1 0.988837 -1.68764 0
M  V30 10537 O 1012.31 1.49244 -2.268 0
M  V30 10538 C 1010.77 -0.77484 -3.5146 0
M  V30 10539 C 1010.37 -2.24153 -3.87891 0
M  V30 10540 C 1012.12 -0.444873 -4.22162 0
M  V30 10541 C 1010.03 -2.49754 -5.36075 0
M  V30 10542 H 1008.96 -0.168951 -0.734828 0
M  V30 10543 H 1011.61 -1.0512 -1.50406 0
M  V30 10544 H 1009.99 -0.114792 -3.95834 0
M  V30 10545 H 1011.16 -2.94378 -3.54511 0
M  V30 10546 H 1009.48 -2.53651 -3.30227 0
M  V30 10547 H 1012.07 -0.613508 -5.31169 0
M  V30 10548 H 1012.42 0.61391 -4.11749 0
M  V30 10549 H 1012.95 -1.06103 -3.83389 0
M  V30 10550 H 1009.69 -3.54276 -5.51515 0
M  V30 10551 H 1009.21 -1.84112 -5.70844 0
M  V30 10552 H 1010.89 -2.3396 -6.03218 0
M  V30 10553 N 1011.02 1.44971 -0.618145 0
M  V30 10554 C 1012.27 2.01372 -0.115004 0
M  V30 10555 C 1012.58 1.49104 1.26599 0
M  V30 10556 O 1013.79 1.97549 1.86244 0
M  V30 10557 C 1012.24 3.59567 -0.154883 0
M  V30 10558 C 1011.85 4.20832 -1.53639 0
M  V30 10559 C 1013.6 4.23491 0.292468 0
M  V30 10560 C 1011.5 5.7121 -1.53208 0
M  V30 10561 H 1010.43 0.752979 -0.0392267 0
M  V30 10562 H 1013.08 1.66329 -0.775032 0
M  V30 10563 H 1011.47 3.91847 0.572001 0
M  V30 10564 H 1012.64 4.00109 -2.28582 0
M  V30 10565 H 1010.96 3.69143 -1.92672 0
M  V30 10566 H 1013.55 5.33771 0.315032 0
M  V30 10567 H 1013.9 3.9491 1.31725 0
M  V30 10568 H 1014.43 3.95967 -0.381493 0
M  V30 10569 H 1011.17 6.04506 -2.53481 0
M  V30 10570 H 1010.69 5.94094 -0.825387 0
M  V30 10571 H 1012.37 6.34606 -1.26032 0
M  V30 10572 N 1012.5 0.357919 1.53482 0
M  V30 10573 C 1013.91 0.00655107 1.59599 0
M  V30 10574 C 1014.11 -1.47449 1.37336 0
M  V30 10575 O 1013.17 -2.2351 1.17472 0
M  V30 10576 C 1014.48 0.455617 2.97228 0
M  V30 10577 C 1016.03 0.409183 3.10314 0
M  V30 10578 C 1016.51 0.833941 4.50344 0
M  V30 10579 N 1018 0.788695 4.56436 0
M  V30 10580 C 1018.73 1.08914 5.62961 0
M  V30 10581 N 1018.23 1.45847 6.77274 0
M  V30 10582 N 1020.02 1.01243 5.52907 0
M  V30 10583 H 1012.17 1.32248 1.66206 0
M  V30 10584 H 1014.44 0.540047 0.779136 0
M  V30 10585 H 1014.14 1.48881 3.18634 0
M  V30 10586 H 1014.02 -0.161751 3.76853 0
M  V30 10587 H 1016.4 -0.614863 2.88623 0
M  V30 10588 H 1016.48 1.06195 2.32715 0
M  V30 10589 H 1016.13 1.85607 4.72771 0
M  V30 10590 H 1016.06 0.158507 5.26361 0
M  V30 10591 H 1018.55 0.516497 3.74354 0
M  V30 10592 H 1018.86 1.67218 7.54492 0
M  V30 10593 H 1017.21 1.49705 6.78685 0
M  V30 10594 H 1020.4 0.723137 4.62481 0
M  V30 10595 H 1020.57 1.24991 6.35831 0
M  V30 10596 N 1013.98 -1.5736 0.0868897 0
M  V30 10597 C 1014.91 -2.16596 -0.872252 0
M  V30 10598 C 1015.89 -1.09706 -1.29995 0
M  V30 10599 O 1017.07 -1.37808 -1.36831 0
M  V30 10600 C 1014.2 -2.73972 -2.1344 0
M  V30 10601 C 1013.16 -3.86163 -1.8456 0
M  V30 10602 C 1012.48 -4.30206 -3.17533 0
M  V30 10603 C 1013.78 -5.0973 -1.13899 0
M  V30 10604 H 1015.48 -2.96995 -0.378738 0
M  V30 10605 H 1013.02 -1.42861 -0.18073 0
M  V30 10606 H 1014.98 -3.14062 -2.80968 0
M  V30 10607 H 1013.7 -1.90817 -2.6506 0
M  V30 10608 H 1012.36 -3.466 -1.19432 0
M  V30 10609 H 1012.01 -3.43951 -3.67024 0
M  V30 10610 H 1011.71 -5.05841 -2.98996 0
M  V30 10611 H 1013.23 -4.72922 -3.86234 0
M  V30 10612 H 1014.64 -5.4704 -1.71523 0
M  V30 10613 H 1013.04 -5.90741 -1.05569 0
M  V30 10614 H 1014.11 -4.8475 -0.120432 0
M  V30 10615 N 1015.45 0.186762 -1.56489 0
M  V30 10616 C 1016.38 1.23395 -1.98232 0
M  V30 10617 C 1017.37 1.4702 -0.855526 0
M  V30 10618 O 1018.55 1.58616 -1.12048 0
M  V30 10619 C 1015.68 2.57635 -2.32898 0
M  V30 10620 C 1014.63 2.48607 -3.48394 0
M  V30 10621 C 1013.96 3.87196 -3.68759 0
M  V30 10622 C 1015.26 2.00398 -4.82325 0
M  V30 10623 H 1016.95 0.887026 -2.85958 0
M  V30 10624 H 1014.5 0.42525 -1.37578 0
M  V30 10625 H 1016.45 3.31082 -2.60696 0
M  V30 10626 H 1015.18 2.94084 -1.42064 0
M  V30 10627 H 1013.84 1.77615 -3.207 0
M  V30 10628 H 1013.48 4.21012 -2.75241 0
M  V30 10629 H 1013.18 3.82029 -4.46462 0
M  V30 10630 H 1014.71 4.62253 -3.98941 0
M  V30 10631 H 1016.12 2.6361 -5.091 0
M  V30 10632 H 1014.52 2.06214 -5.63556 0
M  V30 10633 H 1015.59 0.957562 -4.75351 0
M  V30 10634 N 1016.93 1.50896 0.454776 0
M  V30 10635 C 1018.18 1.62378 1.20324 0
M  V30 10636 C 1018.5 0.333883 1.9212 0
M  V30 10637 O 1017.77 -0.649477 1.8482 0
M  V30 10638 H 1016.35 0.598395 0.447139 0
M  V30 10639 H 1019.01 1.87749 0.523102 0
M  V30 10640 H 1018.11 2.44296 1.94232 0
M  V30 10641 N 1018.41 -0.709066 1.40748 0
M  V30 10642 C 1019.66 -1.47119 1.39585 0
M  V30 10643 C 1019.99 -1.942 0.000245323 0
M  V30 10644 O 1019.26 -1.68609 -0.969593 0
M  V30 10645 C 1019.55 -2.69266 2.39099 0
M  V30 10646 C 1019.4 -2.28037 3.8771 0
M  V30 10647 C 1020.72 -3.71438 2.36055 0
M  V30 10648 H 1017.84 -0.533632 0.508336 0
M  V30 10649 H 1020.48 -0.808718 1.7193 0
M  V30 10650 H 1018.63 -3.25788 2.11647 0
M  V30 10651 H 1020.3 -1.76946 4.26014 0
M  V30 10652 H 1018.55 -1.59966 4.03229 0
M  V30 10653 H 1019.22 -3.15621 4.52866 0
M  V30 10654 H 1021.69 -3.24559 2.60385 0
M  V30 10655 H 1020.57 -4.54532 3.07721 0
M  V30 10656 H 1020.83 -4.20193 1.37443 0
M  V30 10657 N 1019.89 -1.26353 -0.941956 0
M  V30 10658 C 1021.13 -1.13071 -1.70277 0
M  V30 10659 C 1021.49 0.320699 -1.89303 0
M  V30 10660 O 1022.69 0.575624 -2.62564 0
M  V30 10661 C 1020.97 -1.87777 -3.04096 0
M  V30 10662 S 1022.52 -1.9054 -3.95272 0
M  V30 10663 H 1019.34 -0.403912 -0.585129 0
M  V30 10664 H 1021.94 -1.6006 -1.12254 0
M  V30 10665 H 1020.65 -2.92447 -2.87929 0
M  V30 10666 H 1020.18 -1.41226 -3.67177 0
M  V30 10667 H 1022.19 -0.991548 -4.86192 0
M  V30 10668 N 1021.37 1.14642 -1.08144 0
M  V30 10669 C 1022.61 1.85892 -0.810683 0
M  V30 10670 C 1022.95 1.82575 0.661821 0
M  V30 10671 O 1022.22 1.25454 1.48632 0
M  V30 10672 C 1022.5 3.34647 -1.32979 0
M  V30 10673 C 1022.36 3.46551 -2.86744 0
M  V30 10674 C 1023.68 4.29661 -0.952864 0
M  V30 10675 H 1020.8 0.674963 -0.295963 0
M  V30 10676 H 1023.44 1.3464 -1.3406 0
M  V30 10677 H 1021.59 3.78425 -0.87903 0
M  V30 10678 H 1023.26 3.11579 -3.40171 0
M  V30 10679 H 1021.5 2.87849 -3.24539 0
M  V30 10680 H 1022.17 4.51101 -3.18138 0
M  V30 10681 H 1024.65 3.93885 -1.34141 0
M  V30 10682 H 1023.53 5.32209 -1.34331 0
M  V30 10683 H 1023.79 4.41877 0.140392 0
M  V30 10684 N 1022.85 0.866709 1.31628 0
M  V30 10685 C 1023.78 0.277328 2.27516 0
M  V30 10686 C 1024.79 -0.557786 1.52946 0
M  V30 10687 O 1025.98 -0.38031 1.74402 0
M  V30 10688 C 1023.08 -0.625742 3.33073 0
M  V30 10689 C 1022.25 0.176204 4.37045 0
M  V30 10690 C 1021.31 -0.654497 5.22114 0
M  V30 10691 O 1020.34 -0.0836961 5.69138 0
M  V30 10692 N 1021.54 -1.96708 5.46156 0
M  V30 10693 H 1024.3 1.10133 2.78731 0
M  V30 10694 H 1021.87 0.72787 1.44616 0
M  V30 10695 H 1023.86 -1.18709 3.86898 0
M  V30 10696 H 1022.43 -1.35042 2.81926 0
M  V30 10697 H 1021.65 0.918999 3.83338 0
M  V30 10698 H 1022.94 0.726594 5.03585 0
M  V30 10699 H 1022.33 -2.454 5.09701 0
M  V30 10700 H 1020.89 -2.47629 6.02929 0
M  V30 10701 N 1024.32 -1.44642 0.625825 0
M  V30 10702 C 1025.6 -1.9551 0.0593587 0
M  V30 10703 C 1025.98 -1.56792 -1.41349 0
M  V30 10704 O 1025.33 -0.839373 -2.12525 0
M  V30 10705 C 1025.54 -3.47902 0.276647 0
M  V30 10706 C 1026.89 -4.24271 0.167044 0
M  V30 10707 O 1027.91 -3.55594 0.207731 0
M  V30 10708 O 1026.77 -5.46458 0.0675 0
M  V30 10709 H 1023.86 -0.826612 -0.0253422 0
M  V30 10710 H 1026.41 -1.54718 0.697159 0
M  V30 10711 H 1025.18 -3.69115 1.29885 0
M  V30 10712 H 1024.8 -3.95628 -0.395547 0
M  V30 10713 N 1025.8 -0.366053 -1.5329 0
M  V30 10714 C 1027.08 0.279902 -1.93587 0
M  V30 10715 C 1027.46 1.66352 -1.29963 0
M  V30 10716 O 1026.81 2.23845 -0.458895 0
M  V30 10717 C 1027.02 0.329634 -3.4744 0
M  V30 10718 C 1028.36 0.569754 -4.2076 0
M  V30 10719 O 1029.39 0.410823 -3.53823 0
M  V30 10720 O 1028.25 0.879262 -5.3938 0
M  V30 10721 H 1025.34 0.16802 -0.809752 0
M  V30 10722 H 1027.89 -0.418871 -1.64449 0
M  V30 10723 H 1026.66 -0.640434 -3.86023 0
M  V30 10724 H 1026.28 1.07428 -3.82812 0
M  V30 10725 N 1027.28 1.57312 -0.0952337 0
M  V30 10726 C 1028.69 1.81589 0.433875 0
M  V30 10727 C 1029.04 1.01086 1.68155 0
M  V30 10728 O 1028.17 0.240272 2.15062 0
M  V30 10729 C 1028.76 3.29366 0.793931 0
M  V30 10730 C 1027.32 3.54407 1.26778 0
M  V30 10731 C 1026.47 2.76035 0.264518 0
M  V30 10732 H 1029.42 1.55426 -0.320675 0
M  V30 10733 H 1029.44 3.42697 1.65345 0
M  V30 10734 H 1028.95 3.87932 -0.114334 0
M  V30 10735 H 1027.05 3.01173 2.19376 0
M  V30 10736 H 1027.17 4.63055 1.22952 0
M  V30 10737 H 1025.53 2.43509 0.746691 0
M  V30 10738 H 1026.31 3.37349 -0.636429 0
M  V30 10739 N 1028.76 -0.17846 1.56586 0
M  V30 10740 C 1029.69 -1.22342 1.98884 0
M  V30 10741 C 1030.67 -1.46564 0.86331 0
M  V30 10742 O 1031.85 -1.58019 1.12887 0
M  V30 10743 C 1028.98 -2.56396 2.34261 0
M  V30 10744 C 1027.94 -2.46756 3.49708 0
M  V30 10745 C 1027.26 -3.85235 3.70807 0
M  V30 10746 C 1028.56 -1.97838 4.83381 0
M  V30 10747 H 1030.26 -0.871848 2.86425 0
M  V30 10748 H 1027.8 -0.417948 1.37801 0
M  V30 10749 H 1029.76 -3.29695 2.62448 0
M  V30 10750 H 1028.48 -2.93327 1.43621 0
M  V30 10751 H 1027.14 -1.75912 3.21637 0
M  V30 10752 H 1026.79 -4.19547 2.7747 0
M  V30 10753 H 1026.49 -3.79655 4.48481 0
M  V30 10754 H 1028.01 -4.60131 4.01387 0
M  V30 10755 H 1029.43 -2.60906 5.10491 0
M  V30 10756 H 1027.82 -2.03223 5.64642 0
M  V30 10757 H 1028.89 -0.932339 4.75852 0
M  V30 10758 N 1030.24 -1.51135 -0.446768 0
M  V30 10759 C 1031.48 -1.64989 -1.20656 0
M  V30 10760 C 1031.84 -0.353882 -1.88711 0
M  V30 10761 O 1033.04 -0.368099 -2.66268 0
M  V30 10762 C 1031.31 -2.81371 -2.20375 0
M  V30 10763 S 1032.87 -3.15501 -3.04967 0
M  V30 10764 H 1029.69 -0.581372 -0.409301 0
M  V30 10765 H 1032.29 -1.89008 -0.499613 0
M  V30 10766 H 1030.99 -3.73988 -1.69001 0
M  V30 10767 H 1030.53 -2.59512 -2.95664 0
M  V30 10768 H 1032.54 -2.61205 -4.21884 0
M  V30 10769 N 1031.71 0.701592 -1.41122 0
M  V30 10770 C 1032.65 1.8257 -1.36907 0
M  V30 10771 C 1033.62 1.6086 -0.237245 0
M  V30 10772 O 1034.81 1.83688 -0.423182 0
M  V30 10773 C 1031.94 3.19149 -1.13408 0
M  V30 10774 C 1030.98 3.59661 -2.29229 0
M  V30 10775 S 1031.81 3.65161 -3.91685 0
M  V30 10776 C 1032.97 5.04477 -3.70478 0
M  V30 10777 H 1033.2 1.85867 -2.32036 0
M  V30 10778 H 1030.74 0.869726 -1.27574 0
M  V30 10779 H 1032.69 3.97998 -1.00537 0
M  V30 10780 H 1031.36 3.13468 -0.199099 0
M  V30 10781 H 1030.55 4.58866 -2.08466 0
M  V30 10782 H 1030.15 2.88105 -2.38477 0
M  V30 10783 H 1032.44 5.91803 -3.29811 0
M  V30 10784 H 1033.39 5.3028 -4.69264 0
M  V30 10785 H 1033.79 4.75731 -3.03876 0
M  V30 10786 N 1033.19 1.2685 0.935242 0
M  V30 10787 C 1034.44 1.12132 1.67658 0
M  V30 10788 C 1034.75 -0.333839 1.9273 0
M  V30 10789 O 1035.96 -0.601801 2.64746 0
M  V30 10790 C 1034.42 1.95873 3.0193 0
M  V30 10791 C 1034.02 3.46 2.84584 0
M  V30 10792 C 1035.77 1.89781 3.79715 0
M  V30 10793 C 1033.67 4.21966 4.14365 0
M  V30 10794 H 1032.6 0.416035 0.628833 0
M  V30 10795 H 1035.26 1.51209 1.03962 0
M  V30 10796 H 1033.64 1.49633 3.66641 0
M  V30 10797 H 1034.81 4.00049 2.28687 0
M  V30 10798 H 1033.13 3.53391 2.20236 0
M  V30 10799 H 1035.72 2.43819 4.75875 0
M  V30 10800 H 1036.07 0.869797 4.07112 0
M  V30 10801 H 1036.6 2.33875 3.21788 0
M  V30 10802 H 1033.34 5.2526 3.9215 0
M  V30 10803 H 1032.86 3.72696 4.69955 0
M  V30 10804 H 1034.54 4.30734 4.82781 0
M  V30 10805 N 1034.67 -1.14067 1.0875 0
M  V30 10806 C 1035.9 -1.89041 0.840902 0
M  V30 10807 C 1036.31 -1.78768 -0.60725 0
M  V30 10808 O 1035.67 -1.14945 -1.41753 0
M  V30 10809 C 1035.72 -3.38891 1.25838 0
M  V30 10810 O 1035.44 -3.48886 2.64972 0
M  V30 10811 C 1036.94 -4.30852 1.04315 0
M  V30 10812 H 1034.16 -0.598685 0.303014 0
M  V30 10813 H 1036.71 -1.44438 1.44769 0
M  V30 10814 H 1034.86 -3.81103 0.695627 0
M  V30 10815 H 1035.28 -4.41989 2.82393 0
M  V30 10816 H 1036.75 -5.34353 1.38461 0
M  V30 10817 H 1037.23 -4.39196 -0.0195784 0
M  V30 10818 H 1037.83 -3.944 1.59151 0
M  V30 10819 N 1036.15 -0.873678 -1.31166 0
M  V30 10820 C 1037.43 -0.40698 -1.91319 0
M  V30 10821 C 1037.81 1.1113 -1.79481 0
M  V30 10822 O 1037.15 1.94155 -1.20483 0
M  V30 10823 C 1037.36 -0.892484 -3.37396 0
M  V30 10824 C 1038.71 -0.920795 -4.14496 0
M  V30 10825 O 1039.74 -0.838386 -3.46193 0
M  V30 10826 O 1038.59 -1.04069 -5.365 0
M  V30 10827 H 1035.69 -0.122439 -0.817886 0
M  V30 10828 H 1038.23 -0.961835 -1.3981 0
M  V30 10829 H 1037.01 -1.93613 -3.40044 0
M  V30 10830 H 1036.63 -0.31615 -3.96341 0
M  V30 10831 N 1037.63 1.44308 -0.633487 0
M  V30 10832 C 1038.86 2.06085 -0.145852 0
M  V30 10833 C 1039.26 1.47432 1.18577 0
M  V30 10834 O 1038.61 0.592575 1.7388 0
M  V30 10835 C 1038.67 3.59477 0.0407848 0
M  V30 10836 C 1038.33 4.40607 -1.21304 0
M  V30 10837 C 1039.33 4.73937 -2.13728 0
M  V30 10838 C 1037.02 4.80943 -1.44911 0
M  V30 10839 C 1039.01 5.46489 -3.28068 0
M  V30 10840 C 1036.7 5.53243 -2.59548 0
M  V30 10841 C 1037.69 5.85936 -3.50953 0
M  V30 10842 O 1037.38 6.56764 -4.6359 0
M  V30 10843 H 1037.11 0.671484 -0.0780085 0
M  V30 10844 H 1039.67 1.86128 -0.868658 0
M  V30 10845 H 1037.9 3.77933 0.818761 0
M  V30 10846 H 1039.59 4.03013 0.483273 0
M  V30 10847 H 1040.35 4.43311 -1.96725 0
M  V30 10848 H 1036.23 4.54915 -0.746537 0
M  V30 10849 H 1039.78 5.71924 -3.99435 0
M  V30 10850 H 1035.67 5.83285 -2.76493 0
M  V30 10851 H 1036.44 6.75234 -4.62602 0
M  V30 10852 N 1039.1 0.374177 1.53094 0
M  V30 10853 C 1040.04 -0.511995 2.22382 0
M  V30 10854 C 1041.02 -1.07617 1.2189 0
M  V30 10855 O 1042.2 -1.13068 1.50824 0
M  V30 10856 C 1039.33 -1.70724 2.92525 0
M  V30 10857 C 1038.37 -1.26972 4.07161 0
M  V30 10858 S 1039.21 -0.263835 5.3485 0
M  V30 10859 C 1040.36 -1.46521 6.08508 0
M  V30 10860 H 1040.59 0.0764311 2.97202 0
M  V30 10861 H 1038.13 0.158307 1.53586 0
M  V30 10862 H 1040.09 -2.39279 3.3355 0
M  V30 10863 H 1038.75 -2.26693 2.17414 0
M  V30 10864 H 1037.94 -2.16172 4.55286 0
M  V30 10865 H 1037.54 -0.663273 3.68072 0
M  V30 10866 H 1039.83 -2.39483 6.33762 0
M  V30 10867 H 1040.78 -1.02517 7.0064 0
M  V30 10868 H 1041.18 -1.67516 5.39072 0
M  V30 10869 N 1040.58 -1.57259 0.103575 0
M  V30 10870 C 1041.49 -2.18018 -0.866327 0
M  V30 10871 C 1042.51 -1.15198 -1.30404 0
M  V30 10872 O 1043.68 -1.47605 -1.37021 0
M  V30 10873 C 1040.75 -2.75533 -2.10434 0
M  V30 10874 C 1039.81 -3.93337 -1.72002 0
M  V30 10875 C 1039.04 -4.481 -2.89901 0
M  V30 10876 O 1039.27 -4.01784 -4.04877 0
M  V30 10877 O 1038.2 -5.39004 -2.67877 0
M  V30 10878 H 1042.03 -3.01322 -0.379338 0
M  V30 10879 H 1039.61 -1.48907 -0.121228 0
M  V30 10880 H 1041.49 -3.12259 -2.8297 0
M  V30 10881 H 1040.17 -1.9527 -2.58169 0
M  V30 10882 H 1039.08 -3.61408 -0.966193 0
M  V30 10883 H 1040.41 -4.74989 -1.29022 0
M  V30 10884 N 1042.06 0.170153 -1.56679 0
M  V30 10885 C 1043.01 1.22997 -1.9742 0
M  V30 10886 C 1044 1.45762 -0.863117 0
M  V30 10887 O 1045.21 1.46328 -1.04824 0
M  V30 10888 H 1041.58 0.413482 -0.628122 0
M  V30 10889 H 1043.55 0.859502 -2.85754 0
M  V30 10890 C 1042.3 2.5615 -2.35122 0
M  V30 10891 H 1041.63 2.39456 -3.20158 0
M  V30 10892 H 1043.07 3.28991 -2.67471 0
M  V30 10893 C 1041.53 3.14992 -1.19507 0
M  V30 10894 O 1042.06 3.98781 -0.483357 0
M  V30 10895 N 1040.26 2.74098 -0.965332 0
M  V30 10896 H 1039.81 2.06062 -1.54585 0
M  V30 10897 H 1039.77 3.13803 -0.193611 0
M  V30 10898 N 1043.54 1.5137 0.438746 0
M  V30 10899 C 1044.79 1.63645 1.18595 0
M  V30 10900 C 1045.11 0.354241 1.91755 0
M  V30 10901 O 1044.38 -0.629838 1.85499 0
M  V30 10902 H 1042.96 0.603103 0.440767 0
M  V30 10903 H 1045.62 1.88293 0.503159 0
M  V30 10904 H 1044.72 2.46342 1.9163 0
M  V30 10905 N 1045.02 -0.694098 1.41492 0
M  V30 10906 C 1046.29 -1.44875 1.31418 0
M  V30 10907 C 1046.67 -2.11022 -0.0575538 0
M  V30 10908 O 1046.02 -2.01799 -1.07188 0
M  V30 10909 C 1046.23 -2.46698 2.46863 0
M  V30 10910 C 1047.58 -3.11907 2.88095 0
M  V30 10911 O 1048.6 -2.57022 2.46613 0
M  V30 10912 O 1047.46 -4.11318 3.59833 0
M  V30 10913 H 1044.56 -0.645266 0.517263 0
M  V30 10914 H 1047.1 -0.724452 1.53459 0
M  V30 10915 H 1045.87 -1.96485 3.38392 0
M  V30 10916 H 1045.5 -3.26634 2.26706 0
M  V30 10917 N 1046.49 -1.27344 -0.928501 0
M  V30 10918 C 1047.42 -1.12517 -2.04602 0
M  V30 10919 C 1048.41 -0.0268563 -1.70079 0
M  V30 10920 O 1049.59 -0.201197 -1.93155 0
M  V30 10921 C 1046.72 -0.770749 -3.3864 0
M  V30 10922 C 1045.67 -1.8222 -3.87272 0
M  V30 10923 C 1045 -1.32178 -5.18105 0
M  V30 10924 C 1046.3 -3.22614 -4.10752 0
M  V30 10925 H 1047.99 -2.06 -2.17265 0
M  V30 10926 H 1045.54 -0.991827 -1.04397 0
M  V30 10927 H 1047.49 -0.653843 -4.16297 0
M  V30 10928 H 1046.22 0.19979 -3.25988 0
M  V30 10929 H 1044.88 -1.928 -3.11807 0
M  V30 10930 H 1044.52 -0.340719 -5.01845 0
M  V30 10931 H 1044.22 -2.02474 -5.51614 0
M  V30 10932 H 1045.75 -1.2178 -5.98333 0
M  V30 10933 H 1047.16 -3.1504 -4.78981 0
M  V30 10934 H 1045.56 -3.90614 -4.55566 0
M  V30 10935 H 1046.63 -3.67727 -3.16077 0
M  V30 10936 N 1047.97 1.13488 -1.09353 0
M  V30 10937 C 1048.92 2.20949 -0.726923 0
M  V30 10938 C 1049.91 1.67205 0.271816 0
M  V30 10939 O 1051.12 1.79505 0.133356 0
M  V30 10940 H 1047.5 0.719985 -0.217086 0
M  V30 10941 H 1049.47 2.49134 -1.6424 0
M  V30 10942 C 1048.22 3.47319 -0.162822 0
M  V30 10943 H 1047.54 3.89011 -0.922527 0
M  V30 10944 H 1048.98 4.23963 0.0557734 0
M  V30 10945 C 1047.44 3.18376 1.10175 0
M  V30 10946 O 1047.97 3.3707 2.18511 0
M  V30 10947 N 1046.17 2.72262 1.01597 0
M  V30 10948 H 1045.72 2.5725 0.134289 0
M  V30 10949 H 1045.68 2.53272 1.86281 0
M  V30 10950 N 1049.45 0.880621 1.30701 0
M  V30 10951 C 1050.38 0.301443 2.27209 0
M  V30 10952 C 1051.4 -0.541533 1.53529 0
M  V30 10953 O 1052.59 -0.361791 1.74795 0
M  V30 10954 C 1049.69 -0.59038 3.33718 0
M  V30 10955 C 1048.86 0.222549 4.36833 0
M  V30 10956 C 1047.92 -0.599083 5.22779 0
M  V30 10957 O 1046.94 -0.0233267 5.69195 0
M  V30 10958 N 1048.15 -1.90904 5.48211 0
M  V30 10959 H 1050.91 1.13083 2.77547 0
M  V30 10960 H 1048.47 0.743168 1.43835 0
M  V30 10961 H 1050.46 -1.14599 3.88135 0
M  V30 10962 H 1049.03 -1.32044 2.83343 0
M  V30 10963 H 1048.25 0.959606 3.82342 0
M  V30 10964 H 1049.54 0.779965 5.02786 0
M  V30 10965 H 1048.94 -2.3998 5.12275 0
M  V30 10966 H 1047.5 -2.4122 6.05521 0
M  V30 10967 N 1050.93 -1.4397 0.641131 0
M  V30 10968 C 1052.18 -2.01946 0.149629 0
M  V30 10969 C 1052.5 -1.50496 -1.23212 0
M  V30 10970 O 1051.76 -0.683453 -1.83378 0
M  V30 10971 C 1052.06 -3.5727 0.0963368 0
M  V30 10972 C 1051.72 -4.28016 1.4182 0
M  V30 10973 C 1050.39 -4.47059 1.78021 0
M  V30 10974 C 1052.74 -4.68183 2.29028 0
M  V30 10975 C 1050.07 -5.03532 3.01119 0
M  V30 10976 C 1052.42 -5.26019 3.51406 0
M  V30 10977 C 1051.08 -5.4328 3.87818 0
M  V30 10978 H 1050.35 -0.738974 0.0547531 0
M  V30 10979 H 1053 -1.72605 0.829436 0
M  V30 10980 H 1051.3 -3.86083 -0.666879 0
M  V30 10981 H 1053 -3.99871 -0.300635 0
M  V30 10982 H 1049.59 -4.13531 1.12651 0
M  V30 10983 H 1053.78 -4.53175 2.02353 0
M  V30 10984 H 1049.03 -5.15082 3.29395 0
M  V30 10985 H 1053.21 -5.56092 4.19208 0
M  V30 10986 H 1050.83 -5.86805 4.83284 0
M  V30 10987 N 1052.41 -0.382291 -1.52893 0
M  V30 10988 C 1053.34 0.447829 -2.29165 0
M  V30 10989 C 1054.32 1.06956 -1.32267 0
M  V30 10990 O 1055.5 1.08365 -1.61154 0
M  V30 10991 C 1052.63 1.57902 -3.09329 0
M  V30 10992 C 1051.59 1.08369 -4.14053 0
M  V30 10993 C 1050.91 2.30641 -4.82399 0
M  V30 10994 C 1052.21 0.156591 -5.22065 0
M  V30 10995 H 1053.91 -0.188541 -2.98806 0
M  V30 10996 H 1051.45 -0.0921179 -1.43705 0
M  V30 10997 H 1053.41 2.16652 -3.61442 0
M  V30 10998 H 1052.13 2.24287 -2.37409 0
M  V30 10999 H 1050.79 0.518772 -3.62911 0
M  V30 11000 H 1050.44 2.9552 -4.07034 0
M  V30 11001 H 1050.14 1.98163 -5.53177 0
M  V30 11002 H 1051.66 2.90047 -5.37313 0
M  V30 11003 H 1053.08 0.652065 -5.6958 0
M  V30 11004 H 1051.47 -0.0780978 -6.00049 0
M  V30 11005 H 1052.54 -0.796529 -4.78313 0
M  V30 11006 N 1053.89 1.57202 -0.111913 0
M  V30 11007 C 1055.11 1.99723 0.559054 0
M  V30 11008 C 1055.54 0.990968 1.59879 0
M  V30 11009 O 1054.89 -0.038311 1.8126 0
M  V30 11010 C 1054.94 3.41151 1.16826 0
M  V30 11011 O 1054.05 3.43383 2.2839 0
M  V30 11012 H 1053.39 0.649004 0.140319 0
M  V30 11013 H 1055.92 2.03637 -0.198295 0
M  V30 11014 H 1055.93 3.79208 1.50551 0
M  V30 11015 H 1054.6 4.13907 0.406637 0
M  V30 11016 H 1053.18 3.17138 1.96158 0
M  V30 11017 N 1055.36 -0.161842 1.56767 0
M  V30 11018 C 1056.33 -1.18404 1.96247 0
M  V30 11019 C 1057.33 -1.3667 0.84722 0
M  V30 11020 O 1058.52 -1.33915 1.11411 0
M  V30 11021 C 1055.65 -2.54728 2.26553 0
M  V30 11022 H 1056.84 -0.845703 2.87729 0
M  V30 11023 H 1054.39 -0.404645 1.50971 0
M  V30 11024 H 1055.13 -2.93559 1.37816 0
M  V30 11025 H 1054.91 -2.42834 3.07854 0
M  V30 11026 H 1056.4 -3.28378 2.57987 0
M  V30 11027 N 1056.84 -1.516 -0.430713 0
M  V30 11028 C 1057.79 -1.69776 -1.52185 0
M  V30 11029 C 1058.78 -0.551692 -1.51146 0
M  V30 11030 O 1059.97 -0.807883 -1.57487 0
M  V30 11031 C 1057.1 -1.83222 -2.90318 0
M  V30 11032 C 1056.18 -3.03633 -2.96087 0
M  V30 11033 N 1056.57 -4.267 -2.71589 0
M  V30 11034 C 1054.87 -3.03024 -3.2725 0
M  V30 11035 C 1055.57 -5.08011 -2.83372 0
M  V30 11036 N 1054.55 -4.42798 -3.15327 0
M  V30 11037 H 1058.35 -2.62586 -1.32006 0
M  V30 11038 H 1055.86 -1.49338 -0.63812 0
M  V30 11039 H 1057.86 -1.94355 -3.68825 0
M  V30 11040 H 1056.52 -0.915971 -3.11513 0
M  V30 11041 H 1057.53 -4.55535 -2.46391 0
M  V30 11042 H 1054.21 -2.21055 -3.54176 0
M  V30 11043 H 1055.6 -6.15995 -2.68329 0
M  V30 11044 N 1058.32 0.686584 -1.41858 0
M  V30 11045 C 1059.25 1.81202 -1.40352 0
M  V30 11046 C 1060.26 1.5993 -0.304322 0
M  V30 11047 O 1061.45 1.69267 -0.566643 0
M  V30 11048 C 1058.55 3.18116 -1.16856 0
M  V30 11049 C 1057.73 3.66339 -2.38987 0
M  V30 11050 C 1056.79 4.8195 -2.11212 0
M  V30 11051 O 1055.81 4.93102 -2.84323 0
M  V30 11052 N 1057.01 5.69829 -1.10793 0
M  V30 11053 H 1059.78 1.82983 -2.37355 0
M  V30 11054 H 1057.34 0.869244 -1.36586 0
M  V30 11055 H 1059.33 3.93097 -0.962125 0
M  V30 11056 H 1057.9 3.11306 -0.284186 0
M  V30 11057 H 1057.12 2.82166 -2.75274 0
M  V30 11058 H 1058.41 3.95297 -3.2034 0
M  V30 11059 H 1057.81 5.63459 -0.503012 0
M  V30 11060 H 1056.36 6.44671 -0.961379 0
M  V30 11061 N 1059.8 1.27835 0.921735 0
M  V30 11062 C 1060.73 1.136 2.04003 0
M  V30 11063 C 1061.71 0.0358756 1.70062 0
M  V30 11064 O 1062.89 0.211438 1.93046 0
M  V30 11065 C 1060.02 0.788697 3.38226 0
M  V30 11066 C 1058.98 1.84272 3.863 0
M  V30 11067 C 1058.3 1.34923 5.17397 0
M  V30 11068 C 1059.6 3.24788 4.09035 0
M  V30 11069 H 1061.3 2.07149 2.1617 0
M  V30 11070 H 1058.84 0.997349 1.0387 0
M  V30 11071 H 1060.8 0.675911 4.15944 0
M  V30 11072 H 1059.52 -0.182499 3.2609 0
M  V30 11073 H 1058.18 1.94451 3.1078 0
M  V30 11074 H 1057.83 0.367328 5.01657 0
M  V30 11075 H 1057.53 2.05397 5.50532 0
M  V30 11076 H 1059.05 1.24951 5.97678 0
M  V30 11077 H 1060.47 3.17575 4.77304 0
M  V30 11078 H 1058.86 3.93025 4.53488 0
M  V30 11079 H 1059.93 3.69398 3.14122 0
M  V30 11080 N 1061.28 -1.12907 1.09954 0
M  V30 11081 C 1062.19 -2.22082 0.756095 0
M  V30 11082 C 1063.2 -1.72277 -0.244272 0
M  V30 11083 O 1064.38 -2.01224 -0.0842637 0
M  V30 11084 C 1061.44 -3.46192 0.187642 0
M  V30 11085 C 1060.5 -4.10861 1.24465 0
M  V30 11086 C 1059.74 -5.29047 0.703227 0
M  V30 11087 O 1059.96 -5.68443 -0.472043 0
M  V30 11088 O 1058.89 -5.83904 1.46082 0
M  V30 11089 H 1062.72 -2.53842 1.66727 0
M  V30 11090 H 1060.3 -1.21145 0.874316 0
M  V30 11091 H 1062.19 -4.21212 -0.125774 0
M  V30 11092 H 1060.86 -3.16119 -0.696459 0
M  V30 11093 H 1059.77 -3.37643 1.61085 0
M  V30 11094 H 1061.1 -4.45078 2.10159 0
M  V30 11095 N 1062.75 -0.88754 -1.30232 0
M  V30 11096 C 1064.03 -0.427249 -1.90877 0
M  V30 11097 C 1064.41 1.0922 -1.80649 0
M  V30 11098 O 1063.76 1.92866 -1.22536 0
M  V30 11099 C 1063.97 -0.928219 -3.3643 0
M  V30 11100 C 1065.32 -0.964706 -4.13496 0
M  V30 11101 O 1066.34 -0.875057 -3.45284 0
M  V30 11102 O 1065.2 -1.09754 -5.35366 0
M  V30 11103 H 1062.29 -0.131107 -0.816541 0
M  V30 11104 H 1064.84 -0.976609 -1.38782 0
M  V30 11105 H 1063.61 -1.97209 -3.37971 0
M  V30 11106 H 1063.23 -0.358169 -3.95983 0
M  V30 11107 N 1064.23 1.43628 -0.648757 0
M  V30 11108 C 1065.18 2.30755 0.0455536 0
M  V30 11109 C 1066.15 1.44495 0.819168 0
M  V30 11110 O 1067.33 1.73372 0.79667 0
M  V30 11111 C 1064.47 3.30017 1.00908 0
M  V30 11112 C 1063.59 4.31376 0.232039 0
M  V30 11113 C 1062.72 5.17723 1.18897 0
M  V30 11114 C 1061.76 6.10778 0.402096 0
M  V30 11115 N 1060.9 6.89763 1.31038 0
M  V30 11116 H 1065.74 2.89581 -0.70332 0
M  V30 11117 H 1063.28 1.42662 -0.3586 0
M  V30 11118 H 1065.23 3.86072 1.58128 0
M  V30 11119 H 1063.86 2.72851 1.72488 0
M  V30 11120 H 1062.92 3.77652 -0.456373 0
M  V30 11121 H 1064.23 4.9735 -0.380023 0
M  V30 11122 H 1063.38 5.78381 1.83194 0
M  V30 11123 H 1062.12 4.51864 1.83494 0
M  V30 11124 H 1061.13 5.49212 -0.254255 0
M  V30 11125 H 1062.35 6.78678 -0.239411 0
M  V30 11126 H 1060.3 6.26557 1.94324 0
M  V30 11127 H 1060.21 7.52243 0.752774 0
M  V30 11128 H 1061.48 7.54931 1.94164 0
M  V30 11129 N 1065.71 0.390394 1.52688 0
M  V30 11130 C 1066.67 -0.432149 2.25089 0
M  V30 11131 C 1067.67 -0.989296 1.26766 0
M  V30 11132 O 1068.86 -0.871126 1.50854 0
M  V30 11133 C 1066 -1.60642 3.00678 0
M  V30 11134 H 1067.19 0.201734 2.99221 0
M  V30 11135 H 1064.74 0.142531 1.55649 0
M  V30 11136 H 1065.48 -2.2777 2.3085 0
M  V30 11137 H 1065.26 -1.21361 3.72846 0
M  V30 11138 H 1066.75 -2.18873 3.55647 0
M  V30 11139 N 1067.19 -1.57141 0.120249 0
M  V30 11140 C 1068.15 -2.14213 -0.815185 0
M  V30 11141 C 1069.15 -1.07731 -1.19376 0
M  V30 11142 O 1070.34 -1.33502 -1.11906 0
M  V30 11143 C 1067.47 -2.68339 -2.10255 0
M  V30 11144 H 1068.67 -2.98197 -0.319166 0
M  V30 11145 H 1066.22 -1.55767 -0.128997 0
M  V30 11146 H 1066.95 -1.87946 -2.64285 0
M  V30 11147 H 1066.74 -3.46216 -1.84057 0
M  V30 11148 H 1068.23 -3.124 -2.77121 0
M  V30 11149 N 1068.67 0.153526 -1.5685 0
M  V30 11150 C 1069.58 1.20932 -2.01029 0
M  V30 11151 C 1070.59 1.47401 -0.924598 0
M  V30 11152 O 1071.77 1.592 -1.23359 0
M  V30 11153 C 1068.83 2.52438 -2.37647 0
M  V30 11154 C 1067.89 2.33673 -3.60132 0
M  V30 11155 C 1067.13 3.58909 -3.94994 0
M  V30 11156 O 1067.35 4.64823 -3.30599 0
M  V30 11157 O 1066.28 3.5196 -4.8827 0
M  V30 11158 H 1070.11 0.864273 -2.91143 0
M  V30 11159 H 1067.7 0.361755 -1.44954 0
M  V30 11160 H 1069.58 3.29981 -2.62088 0
M  V30 11161 H 1068.25 2.86486 -1.5069 0
M  V30 11162 H 1067.16 1.54102 -3.40886 0
M  V30 11163 H 1068.49 2.04544 -4.47686 0
M  V30 11164 N 1070.14 1.51827 0.422667 0
M  V30 11165 C 1071.39 1.64893 1.16853 0
M  V30 11166 C 1071.71 0.37456 1.91369 0
M  V30 11167 O 1070.98 -0.610128 1.86157 0
M  V30 11168 H 1069.56 0.607744 0.434345 0
M  V30 11169 H 1072.23 1.88816 0.483159 0
M  V30 11170 H 1071.32 2.48361 1.89006 0
M  V30 11171 N 1071.62 -0.679052 1.4222 0
M  V30 11172 C 1072.59 -1.77448 1.45069 0
M  V30 11173 C 1073.59 -1.57189 0.338882 0
M  V30 11174 O 1074.78 -1.63559 0.599519 0
M  V30 11175 C 1071.91 -3.1603 1.27819 0
M  V30 11176 H 1073.1 -1.7631 2.426 0
M  V30 11177 H 1070.65 -0.888277 1.28605 0
M  V30 11178 H 1071.39 -3.22796 0.311946 0
M  V30 11179 H 1071.17 -3.32138 2.08391 0
M  V30 11180 H 1072.66 -3.9596 1.32686 0
M  V30 11181 N 1073.1 -1.28322 -0.914942 0
M  V30 11182 C 1074.51 -1.13937 -1.47903 0
M  V30 11183 C 1074.86 0.271072 -1.94318 0
M  V30 11184 O 1073.99 1.16522 -1.8235 0
M  V30 11185 C 1074.58 -2.06221 -2.68809 0
M  V30 11186 C 1073.14 -1.95903 -3.21402 0
M  V30 11187 C 1072.29 -1.98031 -1.94111 0
M  V30 11188 H 1075.24 -1.41029 -0.727772 0
M  V30 11189 H 1075.26 -1.6255 -3.44031 0
M  V30 11190 H 1074.77 -3.08866 -2.34997 0
M  V30 11191 H 1072.87 -0.962907 -3.59943 0
M  V30 11192 H 1072.99 -2.82799 -3.86732 0
M  V30 11193 H 1071.35 -1.42423 -2.11158 0
M  V30 11194 H 1072.13 -3.02354 -1.62595 0
M  V30 11195 N 1074.58 1.12322 -1.10551 0
M  V30 11196 C 1075.83 1.83495 -0.846998 0
M  V30 11197 C 1076.15 1.8457 0.629205 0
M  V30 11198 O 1075.42 1.30968 1.45686 0
M  V30 11199 H 1074 0.679479 -0.310351 0
M  V30 11200 H 1076.66 1.36004 -1.39602 0
M  V30 11201 H 1075.76 2.87651 -1.21092 0
M  V30 11202 N 1076.06 0.894434 1.2976 0
M  V30 11203 C 1077.33 0.437365 1.90648 0
M  V30 11204 C 1077.71 -1.08261 1.81226 0
M  V30 11205 O 1077.06 -1.92213 1.23557 0
M  V30 11206 C 1077.27 0.946047 3.35933 0
M  V30 11207 C 1078.62 0.986621 4.12978 0
M  V30 11208 O 1079.64 0.893356 3.44815 0
M  V30 11209 O 1078.5 1.12591 5.34776 0
M  V30 11210 H 1075.6 0.135436 0.815835 0
M  V30 11211 H 1078.14 0.983955 1.38262 0
M  V30 11212 H 1076.91 1.98998 3.3692 0
M  V30 11213 H 1076.54 0.379164 3.95788 0
M  V30 11214 N 1077.53 -1.43282 0.656365 0
M  V30 11215 C 1078.78 -2.01378 0.170702 0
M  V30 11216 C 1079.1 -1.52063 -1.22073 0
M  V30 11217 O 1078.37 -0.73456 -1.81607 0
M  V30 11218 H 1076.95 -0.744577 0.0601168 0
M  V30 11219 H 1079.62 -1.75449 0.848739 0
M  V30 11220 H 1078.71 -3.11701 0.157745 0
M  V30 11221 N 1079.01 -0.398486 -1.52479 0
M  V30 11222 C 1079.95 0.467426 -2.24383 0
M  V30 11223 C 1080.96 1.01908 -1.26959 0
M  V30 11224 O 1082.15 0.919843 -1.52974 0
M  V30 11225 C 1079.25 1.66146 -2.95379 0
M  V30 11226 C 1078.42 1.23557 -4.19586 0
M  V30 11227 C 1077.48 2.29532 -4.73499 0
M  V30 11228 O 1076.51 1.90561 -5.36354 0
M  V30 11229 N 1077.71 3.61564 -4.5415 0
M  V30 11230 H 1080.47 -0.148653 -2.99331 0
M  V30 11231 H 1078.03 -0.225313 -1.60325 0
M  V30 11232 H 1080.03 2.36585 -3.28344 0
M  V30 11233 H 1078.6 2.18369 -2.23682 0
M  V30 11234 H 1077.82 0.359715 -3.92555 0
M  V30 11235 H 1079.1 0.927812 -5.00269 0
M  V30 11236 H 1078.5 3.95983 -4.03998 0
M  V30 11237 H 1077.06 4.2801 -4.9158 0
M  V30 11238 N 1080.49 1.57075 -0.12858 0
M  V30 11239 C 1081.45 2.14643 0.803813 0
M  V30 11240 C 1082.45 1.08363 1.18803 0
M  V30 11241 O 1083.64 1.34093 1.11197 0
M  V30 11242 C 1080.78 2.6945 2.08829 0
M  V30 11243 H 1081.97 2.98362 0.303347 0
M  V30 11244 H 1079.52 1.55833 0.120735 0
M  V30 11245 H 1080.26 1.89345 2.63285 0
M  V30 11246 H 1080.04 3.47187 1.82218 0
M  V30 11247 H 1081.53 3.13865 2.7546 0
M  V30 11248 N 1081.97 -0.145205 1.5693 0
M  V30 11249 C 1082.93 -1.16316 1.97492 0
M  V30 11250 C 1083.93 -1.35764 0.861668 0
M  V30 11251 O 1085.12 -1.32726 1.12825 0
M  V30 11252 C 1082.25 -2.52311 2.29242 0
M  V30 11253 H 1083.45 -0.815138 2.8861 0
M  V30 11254 H 1081 -0.38861 1.51392 0
M  V30 11255 H 1081.74 -2.92081 1.40922 0
M  V30 11256 H 1081.52 -2.39555 3.10412 0
M  V30 11257 H 1083.01 -3.25624 2.61456 0
M  V30 11258 N 1083.45 -1.52049 -0.414609 0
M  V30 11259 C 1084.38 -1.7122 -1.52369 0
M  V30 11260 C 1085.39 -0.592634 -1.5163 0
M  V30 11261 O 1086.58 -0.867634 -1.55995 0
M  V30 11262 C 1083.68 -1.73247 -2.91271 0
M  V30 11263 C 1082.85 -3.02153 -3.16263 0
M  V30 11264 C 1081.91 -2.96066 -4.35007 0
M  V30 11265 O 1080.94 -3.69981 -4.32554 0
M  V30 11266 N 1082.14 -2.13478 -5.39822 0
M  V30 11267 H 1084.91 -2.66902 -1.3632 0
M  V30 11268 H 1082.47 -1.50218 -0.603842 0
M  V30 11269 H 1084.46 -1.66714 -3.68766 0
M  V30 11270 H 1083.03 -0.85062 -3.00804 0
M  V30 11271 H 1082.25 -3.22379 -2.2686 0
M  V30 11272 H 1083.54 -3.87439 -3.29801 0
M  V30 11273 H 1082.94 -1.52844 -5.44661 0
M  V30 11274 H 1081.49 -2.12805 -6.16082 0
M  V30 11275 N 1084.93 0.6715 -1.42579 0
M  V30 11276 C 1086.17 1.42871 -1.42941 0
M  V30 11277 C 1086.49 1.94941 -0.0480483 0
M  V30 11278 O 1085.76 1.73275 0.913921 0
M  V30 11279 H 1084.34 0.530189 -0.526221 0
M  V30 11280 H 1087.01 0.793219 -1.78028 0
M  V30 11281 H 1086.1 2.2801 -2.13114 0
M  V30 11282 N 1086.4 1.28806 0.908124 0
M  V30 11283 C 1087.81 1.14719 1.47297 0
M  V30 11284 C 1088.17 -0.260763 1.94459 0
M  V30 11285 O 1087.29 -1.15553 1.82966 0
M  V30 11286 C 1087.89 2.07643 2.67712 0
M  V30 11287 C 1086.44 1.97605 3.20358 0
M  V30 11288 C 1085.59 1.99058 1.93058 0
M  V30 11289 H 1088.54 1.41413 0.720283 0
M  V30 11290 H 1088.56 1.64372 3.43165 0
M  V30 11291 H 1088.08 3.10108 2.33355 0
M  V30 11292 H 1086.18 0.981982 3.59427 0
M  V30 11293 H 1086.29 2.84846 3.85226 0
M  V30 11294 H 1084.65 1.43541 2.104 0
M  V30 11295 H 1085.44 3.03212 1.60989 0
M  V30 11296 N 1087.88 -1.11734 1.11145 0
M  V30 11297 C 1089.11 -1.87215 0.880811 0
M  V30 11298 C 1089.52 -1.80016 -0.569195 0
M  V30 11299 O 1088.88 -1.17926 -1.39283 0
M  V30 11300 C 1088.93 -3.36146 1.32998 0
M  V30 11301 O 1088.65 -3.43187 2.72313 0
M  V30 11302 C 1090.15 -4.28542 1.1343 0
M  V30 11303 H 1087.37 -0.592123 0.315645 0
M  V30 11304 H 1089.92 -1.41335 1.478 0
M  V30 11305 H 1088.07 -3.79542 0.776308 0
M  V30 11306 H 1088.49 -4.359 2.91705 0
M  V30 11307 H 1089.96 -5.31295 1.49764 0
M  V30 11308 H 1090.44 -4.39138 0.0735859 0
M  V30 11309 H 1091.04 -3.90935 1.67481 0
M  V30 11310 N 1089.36 -0.901303 -1.29284 0
M  V30 11311 C 1090.61 -0.52401 -1.94774 0
M  V30 11312 C 1090.92 0.934645 -1.71825 0
M  V30 11313 O 1092.13 1.41953 -2.31434 0
M  V30 11314 C 1090.58 -0.886262 -3.48817 0
M  V30 11315 C 1090.19 -2.3638 -3.80564 0
M  V30 11316 C 1091.94 -0.578955 -4.20533 0
M  V30 11317 C 1089.84 -2.66682 -5.27858 0
M  V30 11318 H 1088.77 -0.192244 -0.72908 0
M  V30 11319 H 1091.42 -1.09852 -1.46986 0
M  V30 11320 H 1089.81 -0.240666 -3.95268 0
M  V30 11321 H 1090.98 -3.05508 -3.44966 0
M  V30 11322 H 1089.29 -2.64029 -3.2199 0
M  V30 11323 H 1091.89 -0.782185 -5.28948 0
M  V30 11324 H 1092.23 0.482605 -4.13493 0
M  V30 11325 H 1092.77 -1.18246 -3.79819 0
M  V30 11326 H 1089.51 -3.71643 -5.39965 0
M  V30 11327 H 1089.03 -2.02179 -5.64698 0
M  V30 11328 H 1090.71 -2.53033 -5.95469 0
M  V30 11329 N 1090.84 1.42931 -0.663954 0
M  V30 11330 C 1092.06 2.06544 -0.188201 0
M  V30 11331 C 1092.49 1.495 1.14155 0
M  V30 11332 O 1091.85 0.609164 1.7076 0
M  V30 11333 C 1091.89 3.60393 -0.122105 0
M  V30 11334 O 1091 4.02176 0.91258 0
M  V30 11335 H 1090.34 0.656458 -0.0997967 0
M  V30 11336 H 1092.87 1.83253 -0.909909 0
M  V30 11337 H 1092.88 4.07959 0.0576568 0
M  V30 11338 H 1091.55 4.01287 -1.09276 0
M  V30 11339 H 1090.13 3.6618 0.704738 0
M  V30 11340 N 1092.32 0.406567 1.52266 0
M  V30 11341 C 1093.55 -0.169378 2.05905 0
M  V30 11342 C 1093.95 -1.39626 1.27676 0
M  V30 11343 O 1093.3 -1.80871 0.32114 0
M  V30 11344 C 1093.36 -0.587209 3.54672 0
M  V30 11345 C 1093.02 0.528588 4.53933 0
M  V30 11346 C 1094.02 1.39137 5.00936 0
M  V30 11347 C 1091.7 0.700549 4.97391 0
M  V30 11348 C 1093.7 2.41108 5.90039 0
M  V30 11349 C 1091.39 1.72357 5.8629 0
M  V30 11350 C 1092.38 2.57725 6.32509 0
M  V30 11351 O 1092.07 3.58275 7.19649 0
M  V30 11352 H 1091.8 -0.0250574 0.675535 0
M  V30 11353 H 1094.36 0.575377 1.97177 0
M  V30 11354 H 1092.59 -1.38421 3.61077 0
M  V30 11355 H 1094.28 -1.09078 3.90969 0
M  V30 11356 H 1095.04 1.26991 4.68079 0
M  V30 11357 H 1090.92 0.0457503 4.60977 0
M  V30 11358 H 1094.47 3.07774 6.26036 0
M  V30 11359 H 1090.36 1.84535 6.1856 0
M  V30 11360 H 1091.13 3.54489 7.37753 0
M  V30 11361 N 1093.79 -1.57004 0.136909 0
M  V30 11362 C 1095.21 -1.82675 -0.385577 0
M  V30 11363 C 1095.56 -1.05508 -1.65416 0
M  V30 11364 O 1094.68 -0.297207 -2.14349 0
M  V30 11365 C 1095.28 -3.31356 -0.706326 0
M  V30 11366 C 1093.84 -3.57644 -1.17337 0
M  V30 11367 C 1092.98 -2.7664 -0.191239 0
M  V30 11368 H 1095.93 -1.54522 0.36177 0
M  V30 11369 H 1095.95 -3.4696 -1.56201 0
M  V30 11370 H 1095.47 -3.87492 0.217147 0
M  V30 11371 H 1093.57 -3.06883 -2.11313 0
M  V30 11372 H 1093.68 -4.66152 -1.10632 0
M  V30 11373 H 1092.04 -2.45403 -0.681867 0
M  V30 11374 H 1092.83 -3.35543 0.725647 0
M  V30 11375 N 1095.27 0.136881 -1.57004 0
M  V30 11376 C 1096.21 1.19853 -1.94192 0
M  V30 11377 C 1097.18 1.4104 -0.809103 0
M  V30 11378 O 1098.37 1.55487 -1.06565 0
M  V30 11379 C 1095.49 2.55565 -2.22271 0
M  V30 11380 C 1094.54 2.50913 -3.44884 0
M  V30 11381 S 1095.37 1.96619 -4.98098 0
M  V30 11382 C 1096.53 3.34039 -5.2931 0
M  V30 11383 H 1096.76 0.881316 -2.83937 0
M  V30 11384 H 1094.3 0.342915 -1.50544 0
M  V30 11385 H 1096.25 3.33659 -2.39127 0
M  V30 11386 H 1094.91 2.84472 -1.33172 0
M  V30 11387 H 1094.11 3.50839 -3.6184 0
M  V30 11388 H 1093.71 1.80932 -3.27322 0
M  V30 11389 H 1096 4.30189 -5.23397 0
M  V30 11390 H 1096.94 3.21927 -6.30689 0
M  V30 11391 H 1097.35 3.31642 -4.56808 0
M  V30 11392 N 1096.75 1.52266 0.40654 0
M  V30 11393 C 1097.68 1.78755 1.50229 0
M  V30 11394 C 1098.66 0.638652 1.57655 0
M  V30 11395 O 1099.85 0.884505 1.72888 0
M  V30 11396 C 1096.98 1.94057 2.88026 0
M  V30 11397 C 1095.93 3.09667 2.95449 0
M  V30 11398 C 1095.26 3.10196 4.35526 0
M  V30 11399 C 1096.56 4.49077 2.66697 0
M  V30 11400 H 1098.25 2.70511 1.28313 0
M  V30 11401 H 1095.8 1.30167 0.615836 0
M  V30 11402 H 1097.75 2.11171 3.64671 0
M  V30 11403 H 1096.47 0.989755 3.11242 0
M  V30 11404 H 1095.13 2.92308 2.2125 0
M  V30 11405 H 1094.78 2.12831 4.55754 0
M  V30 11406 H 1094.48 3.87847 4.41416 0
M  V30 11407 H 1096 3.29443 5.14101 0
M  V30 11408 H 1097.42 4.66628 3.33064 0
M  V30 11409 H 1095.82 5.28665 2.8396 0
M  V30 11410 H 1096.89 4.56995 1.62122 0
M  V30 11411 N 1098.23 -0.663929 1.42933 0
M  V30 11412 C 1099.16 -1.78899 1.50058 0
M  V30 11413 C 1100.14 -1.66329 0.356164 0
M  V30 11414 O 1101.32 -1.85587 0.571944 0
M  V30 11415 C 1098.45 -3.17265 1.41281 0
M  V30 11416 C 1097.41 -3.44584 2.53861 0
M  V30 11417 C 1096.73 -4.82638 2.3014 0
M  V30 11418 C 1098.03 -3.40394 3.96143 0
M  V30 11419 H 1099.73 -1.73194 2.44222 0
M  V30 11420 H 1097.27 -0.83182 1.17545 0
M  V30 11421 H 1099.23 -3.95715 1.44872 0
M  V30 11422 H 1097.95 -3.23675 0.43616 0
M  V30 11423 H 1096.61 -2.685 2.49606 0
M  V30 11424 H 1096.26 -4.85711 1.30743 0
M  V30 11425 H 1095.96 -5.01879 3.056 0
M  V30 11426 H 1097.48 -5.63359 2.35497 0
M  V30 11427 H 1098.9 -4.08796 4.01943 0
M  V30 11428 H 1097.29 -3.7117 4.71543 0
M  V30 11429 H 1098.36 -2.38767 4.22041 0
M  V30 11430 N 1099.71 -1.29285 -0.901281 0
M  V30 11431 C 1100.66 -1.10907 -1.99208 0
M  V30 11432 C 1101.64 -0.0289641 -1.60874 0
M  V30 11433 O 1102.83 -0.2505 -1.75218 0
M  V30 11434 C 1099.96 -0.785997 -3.34181 0
M  V30 11435 C 1099.05 -1.90556 -3.78879 0
M  V30 11436 N 1099.44 -3.14888 -3.95827 0
M  V30 11437 C 1097.74 -1.79824 -4.08141 0
M  V30 11438 C 1098.44 -3.87919 -4.33467 0
M  V30 11439 N 1097.41 -3.15852 -4.42424 0
M  V30 11440 H 1101.22 -2.05227 -2.10379 0
M  V30 11441 H 1098.73 -1.20387 -1.08999 0
M  V30 11442 H 1100.73 -0.635381 -4.1203 0
M  V30 11443 H 1099.39 0.149302 -3.24357 0
M  V30 11444 H 1100.4 -3.5036 -3.81403 0
M  V30 11445 H 1097.07 -0.935548 -4.06883 0
M  V30 11446 H 1098.46 -4.94909 -4.54439 0
M  V30 11447 N 1101.18 1.11143 -1.11736 0
M  V30 11448 C 1102.43 1.83219 -0.869413 0
M  V30 11449 C 1102.76 1.84588 0.603402 0
M  V30 11450 O 1102.04 1.30119 1.44566 0
M  V30 11451 C 1102.32 3.30247 -1.43559 0
M  V30 11452 C 1102.17 3.37253 -2.97624 0
M  V30 11453 C 1103.49 4.26412 -1.08907 0
M  V30 11454 H 1100.61 0.665205 -0.317286 0
M  V30 11455 H 1103.25 1.30307 -1.38275 0
M  V30 11456 H 1101.4 3.75437 -0.998978 0
M  V30 11457 H 1103.08 3.00599 -3.49911 0
M  V30 11458 H 1101.32 2.77378 -3.33532 0
M  V30 11459 H 1101.99 4.40752 -3.32328 0
M  V30 11460 H 1104.47 3.89418 -1.46604 0
M  V30 11461 H 1103.34 5.27666 -1.51195 0
M  V30 11462 H 1103.6 4.421 -0.000259009 0
M  V30 11463 N 1102.66 0.908147 1.28804 0
M  V30 11464 C 1103.63 0.397058 2.25735 0
M  V30 11465 C 1104.63 -0.473483 1.53671 0
M  V30 11466 O 1105.82 -0.277335 1.71978 0
M  V30 11467 C 1102.95 -0.431392 3.38159 0
M  V30 11468 H 1104.14 1.25323 2.72459 0
M  V30 11469 H 1101.69 0.687041 1.4039 0
M  V30 11470 H 1102.43 -1.3072 2.96787 0
M  V30 11471 H 1102.21 0.192502 3.91627 0
M  V30 11472 H 1103.7 -0.78 4.10251 0
M  V30 11473 N 1104.14 -1.42577 0.671525 0
M  V30 11474 C 1105.1 -2.292 0.000392482 0
M  V30 11475 C 1106.1 -1.43158 -0.732294 0
M  V30 11476 O 1107.29 -1.64583 -0.570789 0
M  V30 11477 C 1104.43 -3.25591 -1.01013 0
M  V30 11478 H 1105.62 -2.90037 0.762783 0
M  V30 11479 H 1103.17 -1.50162 0.433703 0
M  V30 11480 H 1103.91 -2.69685 -1.80112 0
M  V30 11481 H 1103.69 -3.89049 -0.488183 0
M  V30 11482 H 1105.18 -3.90561 -1.47824 0
M  V30 11483 N 1105.62 -0.414636 -1.52048 0
M  V30 11484 C 1106.55 0.443601 -2.24866 0
M  V30 11485 C 1107.56 1.00556 -1.28032 0
M  V30 11486 O 1108.75 0.903566 -1.53941 0
M  V30 11487 C 1105.85 1.63004 -2.97124 0
M  V30 11488 C 1105.03 1.191 -4.20873 0
M  V30 11489 C 1104.08 2.24497 -4.75907 0
M  V30 11490 O 1103.11 1.84861 -5.38345 0
M  V30 11491 N 1104.31 3.56727 -4.57959 0
M  V30 11492 H 1107.08 -0.180393 -2.99157 0
M  V30 11493 H 1104.64 -0.242305 -1.60077 0
M  V30 11494 H 1106.63 2.33089 -3.30835 0
M  V30 11495 H 1105.2 2.15984 -2.25986 0
M  V30 11496 H 1104.42 0.318059 -3.92915 0
M  V30 11497 H 1105.71 0.874699 -5.01225 0
M  V30 11498 H 1105.11 3.91675 -4.08175 0
M  V30 11499 H 1103.66 4.22772 -4.96092 0
M  V30 11500 N 1107.1 1.56929 -0.145233 0
M  V30 11501 C 1108.35 1.95243 0.506273 0
M  V30 11502 C 1108.66 1.0325 1.66129 0
M  V30 11503 O 1109.86 1.31135 2.37731 0
M  V30 11504 C 1108.32 3.47079 0.952042 0
M  V30 11505 C 1107.93 4.47654 -0.175947 0
M  V30 11506 C 1109.67 3.94263 1.57344 0
M  V30 11507 C 1107.58 5.90698 0.287993 0
M  V30 11508 H 1106.51 0.728906 0.192903 0
M  V30 11509 H 1109.16 1.82062 -0.229295 0
M  V30 11510 H 1107.54 3.55587 1.74282 0
M  V30 11511 H 1108.72 4.50841 -0.952848 0
M  V30 11512 H 1107.03 4.10377 -0.70564 0
M  V30 11513 H 1109.63 4.9857 1.93214 0
M  V30 11514 H 1109.97 3.35714 2.46174 0
M  V30 11515 H 1110.5 3.88665 0.847593 0
M  V30 11516 H 1107.24 6.53061 -0.564889 0
M  V30 11517 H 1106.76 5.90876 1.03081 0
M  V30 11518 H 1108.44 6.42747 0.740586 0
M  V30 11519 N 1108.58 -0.128553 1.57075 0
M  V30 11520 C 1109.54 -1.14215 1.98715 0
M  V30 11521 C 1110.54 -1.34843 0.876019 0
M  V30 11522 O 1111.73 -1.31522 1.14227 0
M  V30 11523 C 1108.86 -2.49865 2.31905 0
M  V30 11524 H 1110.05 -0.784481 2.89458 0
M  V30 11525 H 1107.61 -0.372531 1.51796 0
M  V30 11526 H 1108.34 -2.9057 1.44012 0
M  V30 11527 H 1108.13 -2.3625 3.12935 0
M  V30 11528 H 1109.62 -3.22832 2.64895 0
M  V30 11529 N 1110.05 -1.5248 -0.398459 0
M  V30 11530 C 1111.28 -1.71221 -1.17039 0
M  V30 11531 C 1111.7 -0.425515 -1.83224 0
M  V30 11532 O 1111.06 0.617938 -1.70444 0
M  V30 11533 C 1111.11 -2.8562 -2.20121 0
M  V30 11534 O 1110.21 -2.51934 -3.26501 0
M  V30 11535 H 1109.55 -0.569654 -0.34116 0
M  V30 11536 H 1112.08 -1.99231 -0.465652 0
M  V30 11537 H 1112.09 -3.10842 -2.64275 0
M  V30 11538 H 1110.77 -3.78969 -1.71334 0
M  V30 11539 H 1109.35 -2.3742 -2.87552 0
M  V30 11540 N 1111.53 0.65634 -1.43283 0
M  V30 11541 C 1112.78 1.41347 -1.44449 0
M  V30 11542 C 1113.1 1.94879 -0.0687217 0
M  V30 11543 O 1112.37 1.74235 0.895492 0
M  V30 11544 H 1110.95 0.524578 -0.531815 0
M  V30 11545 H 1113.61 0.774292 -1.7886 0
M  V30 11546 H 1112.71 2.25737 -2.15521 0
M  V30 11547 N 1113.01 1.29761 0.894412 0
M  V30 11548 C 1113.94 1.09666 2.00121 0
M  V30 11549 C 1114.92 0.00700077 1.62598 0
M  V30 11550 O 1116.1 0.158728 1.87831 0
M  V30 11551 C 1113.23 0.670588 3.31995 0
M  V30 11552 C 1112.28 1.75974 3.88504 0
M  V30 11553 S 1113.11 3.36013 4.1696 0
M  V30 11554 C 1114.27 2.95285 5.51867 0
M  V30 11555 H 1114.5 2.03369 2.1686 0
M  V30 11556 H 1112.03 1.13968 1.04166 0
M  V30 11557 H 1113.99 0.431481 4.08226 0
M  V30 11558 H 1112.65 -0.246924 3.13128 0
M  V30 11559 H 1111.84 1.41367 4.83768 0
M  V30 11560 H 1111.45 1.95264 3.1898 0
M  V30 11561 H 1113.74 2.42659 6.32553 0
M  V30 11562 H 1114.68 3.8942 5.91403 0
M  V30 11563 H 1115.09 2.33426 5.13977 0
M  V30 11564 N 1114.49 -1.10549 1.12324 0
M  V30 11565 C 1115.9 -1.34508 0.85905 0
M  V30 11566 C 1116.1 -1.94901 -0.511468 0
M  V30 11567 O 1115.16 -2.18793 -1.2604 0
M  V30 11568 C 1116.47 -2.26788 1.97453 0
M  V30 11569 C 1118.02 -2.40328 2.00528 0
M  V30 11570 C 1118.5 -3.35936 3.11305 0
M  V30 11571 N 1119.99 -3.43504 3.1074 0
M  V30 11572 C 1120.72 -4.17449 3.93096 0
M  V30 11573 N 1120.22 -4.9429 4.85437 0
M  V30 11574 N 1122.01 -4.13055 3.81237 0
M  V30 11575 H 1114.16 -0.697171 2.00632 0
M  V30 11576 H 1116.42 -0.369548 0.873005 0
M  V30 11577 H 1116.13 -1.89621 2.96204 0
M  V30 11578 H 1116 -3.27086 1.87869 0
M  V30 11579 H 1118.39 -2.76765 1.02397 0
M  V30 11580 H 1118.47 -1.39849 2.14186 0
M  V30 11581 H 1118.12 -3.00225 4.09667 0
M  V30 11582 H 1118.05 -4.36291 2.94886 0
M  V30 11583 H 1120.54 -2.88702 2.43843 0
M  V30 11584 H 1120.85 -5.48109 5.4479 0
M  V30 11585 H 1119.2 -4.93419 4.89452 0
M  V30 11586 H 1122.39 -3.52117 3.08433 0
M  V30 11587 H 1122.56 -4.70424 4.45651 0
M  V30 11588 N 1115.97 -0.914965 -1.28321 0
M  V30 11589 C 1117.2 -0.563835 -1.98757 0
M  V30 11590 C 1117.6 0.859528 -1.68549 0
M  V30 11591 O 1116.95 1.58105 -0.935336 0
M  V30 11592 C 1117.01 -0.694539 -3.52727 0
M  V30 11593 C 1116.67 -2.08767 -4.06528 0
M  V30 11594 C 1117.67 -3.06052 -4.20272 0
M  V30 11595 C 1115.35 -2.40118 -4.4119 0
M  V30 11596 C 1117.35 -4.32803 -4.67932 0
M  V30 11597 C 1115.04 -3.67108 -4.88544 0
M  V30 11598 C 1116.03 -4.63265 -5.01871 0
M  V30 11599 O 1115.72 -5.87997 -5.48192 0
M  V30 11600 H 1115.45 -0.213557 -0.641381 0
M  V30 11601 H 1118.01 -1.23062 -1.64453 0
M  V30 11602 H 1116.24 0.0293186 -3.86689 0
M  V30 11603 H 1117.93 -0.350335 -4.04385 0
M  V30 11604 H 1118.69 -2.8315 -3.93765 0
M  V30 11605 H 1114.57 -1.66025 -4.30066 0
M  V30 11606 H 1118.12 -5.07861 -4.78249 0
M  V30 11607 H 1114.01 -3.89834 -5.14489 0
M  V30 11608 H 1114.78 -5.90804 -5.66474 0
M  V30 11609 N 1117.44 1.42219 -0.679077 0
M  V30 11610 C 1118.37 2.33493 -0.0174528 0
M  V30 11611 C 1119.35 1.50915 0.78477 0
M  V30 11612 O 1120.54 1.79504 0.741065 0
M  V30 11613 C 1117.67 3.34576 0.931463 0
M  V30 11614 C 1116.62 4.2734 0.237527 0
M  V30 11615 C 1115.95 5.18664 1.29967 0
M  V30 11616 C 1117.25 5.14729 -0.886082 0
M  V30 11617 H 1118.94 2.89068 -0.779748 0
M  V30 11618 H 1116.49 1.38993 -0.376419 0
M  V30 11619 H 1118.44 3.97343 1.40343 0
M  V30 11620 H 1117.17 2.77315 1.72523 0
M  V30 11621 H 1115.83 3.65973 -0.214245 0
M  V30 11622 H 1115.47 4.57727 2.08554 0
M  V30 11623 H 1115.17 5.81558 0.840463 0
M  V30 11624 H 1116.7 5.84308 1.77249 0
M  V30 11625 H 1118.11 5.71158 -0.495141 0
M  V30 11626 H 1116.51 5.86478 -1.27135 0
M  V30 11627 H 1117.58 4.52874 -1.733 0
M  V30 11628 N 1118.92 0.422693 1.51826 0
M  V30 11629 C 1119.88 -0.384307 2.25955 0
M  V30 11630 C 1120.88 -0.962184 1.28836 0
M  V30 11631 O 1122.07 -0.838931 1.52668 0
M  V30 11632 C 1119.21 -1.54228 3.04018 0
M  V30 11633 H 1120.4 0.265157 2.98726 0
M  V30 11634 H 1117.95 0.175515 1.55311 0
M  V30 11635 H 1118.69 -2.22822 2.35629 0
M  V30 11636 H 1118.47 -1.13425 3.75336 0
M  V30 11637 H 1119.96 -2.1128 3.60209 0
M  V30 11638 N 1120.4 -1.5685 0.153553 0
M  V30 11639 C 1121.63 -2.00701 -0.502678 0
M  V30 11640 C 1122.04 -1.0337 -1.57988 0
M  V30 11641 O 1121.4 -0.0317233 -1.82472 0
M  V30 11642 C 1121.45 -3.44443 -1.09732 0
M  V30 11643 O 1121.17 -4.38054 -0.0631405 0
M  V30 11644 C 1122.67 -4.03605 -1.83352 0
M  V30 11645 H 1119.89 -0.658229 -0.130289 0
M  V30 11646 H 1122.44 -2.02965 0.250063 0
M  V30 11647 H 1120.59 -3.43009 -1.80065 0
M  V30 11648 H 1121.01 -5.22114 -0.499681 0
M  V30 11649 H 1122.48 -5.0616 -2.20241 0
M  V30 11650 H 1122.96 -3.44687 -2.7219 0
M  V30 11651 H 1123.56 -4.08688 -1.17703 0
M  V30 11652 N 1121.88 0.120221 -1.57141 0
M  V30 11653 C 1122.81 1.14876 -2.03287 0
M  V30 11654 C 1123.79 1.43259 -0.917112 0
M  V30 11655 O 1124.97 1.53721 -1.18674 0
M  V30 11656 C 1122.1 2.47525 -2.43616 0
M  V30 11657 C 1121.06 2.33607 -3.58625 0
M  V30 11658 C 1120.38 3.71207 -3.84849 0
M  V30 11659 C 1121.68 1.79761 -4.90391 0
M  V30 11660 H 1123.38 0.764943 -2.89463 0
M  V30 11661 H 1120.92 0.366516 -1.39258 0
M  V30 11662 H 1122.88 3.19728 -2.74504 0
M  V30 11663 H 1121.6 2.87794 -1.54409 0
M  V30 11664 H 1120.26 1.63853 -3.27945 0
M  V30 11665 H 1119.91 4.0896 -2.9285 0
M  V30 11666 H 1119.61 3.62749 -4.62263 0
M  V30 11667 H 1121.13 4.44917 -4.18188 0
M  V30 11668 H 1122.55 2.4178 -5.19822 0
M  V30 11669 H 1120.94 1.82126 -5.71795 0
M  V30 11670 H 1122.01 0.755087 -4.78985 0
M  V30 11671 N 1123.36 1.52689 0.390367 0
M  V30 11672 C 1124.3 1.78007 1.4972 0
M  V30 11673 C 1125.3 0.647948 1.56518 0
M  V30 11674 O 1126.5 0.830398 1.59701 0
M  V30 11675 H 1122.88 0.56322 0.498284 0
M  V30 11676 H 1124.85 2.70698 1.25559 0
M  V30 11677 C 1123.6 1.96469 2.86872 0
M  V30 11678 H 1122.92 2.83012 2.82391 0
M  V30 11679 H 1124.36 2.18174 3.6356 0
M  V30 11680 C 1122.82 0.736847 3.28743 0
M  V30 11681 O 1123.35 -0.0863743 4.01607 0
M  V30 11682 N 1121.56 0.56735 2.85008 0
M  V30 11683 H 1121.1 1.23838 2.2588 0
M  V30 11684 H 1121.06 -0.252831 3.13382 0
M  V30 11685 N 1124.83 -0.648732 1.43629 0
M  V30 11686 C 1126.08 -1.40857 1.45483 0
M  V30 11687 C 1126.41 -1.94332 0.0807963 0
M  V30 11688 O 1125.66 -1.72999 -0.914875 0
M  V30 11689 C 1125.96 -2.60394 2.44806 0
M  V30 11690 C 1125.63 -2.25311 3.90571 0
M  V30 11691 C 1124.29 -2.15456 4.3027 0
M  V30 11692 C 1126.64 -1.97307 4.8241 0
M  V30 11693 C 1123.97 -1.75759 5.59755 0
M  V30 11694 C 1126.32 -1.59108 6.12264 0
M  V30 11695 C 1124.99 -1.47781 6.50936 0
M  V30 11696 H 1124.26 -0.515434 0.532362 0
M  V30 11697 H 1126.9 -0.737339 1.76736 0
M  V30 11698 H 1125.21 -3.3267 2.06973 0
M  V30 11699 H 1126.91 -3.18609 2.43494 0
M  V30 11700 H 1123.5 -2.33894 3.59154 0
M  V30 11701 H 1127.68 -2.0384 4.52507 0
M  V30 11702 H 1122.94 -1.65579 5.88552 0
M  V30 11703 H 1127.11 -1.36472 6.82897 0
M  V30 11704 H 1124.74 -1.16792 7.51175 0
M  V30 11705 N 1126.31 -1.30234 -0.887518 0
M  V30 11706 C 1127.56 -1.19086 -1.64153 0
M  V30 11707 C 1127.89 0.254428 -1.92526 0
M  V30 11708 O 1127.17 1.18233 -1.54438 0
M  V30 11709 C 1127.45 -2.01723 -2.98295 0
M  V30 11710 C 1127.3 -3.54458 -2.76911 0
M  V30 11711 C 1128.62 -1.85307 -3.99186 0
M  V30 11712 H 1125.74 -0.433967 -0.595686 0
M  V30 11713 H 1128.38 -1.59839 -1.0272 0
M  V30 11714 H 1126.53 -1.67096 -3.5073 0
M  V30 11715 H 1128.2 -3.99131 -2.31284 0
M  V30 11716 H 1126.45 -3.78768 -2.11464 0
M  V30 11717 H 1127.12 -4.07565 -3.72283 0
M  V30 11718 H 1129.59 -2.15575 -3.55903 0
M  V30 11719 H 1128.47 -2.45456 -4.90961 0
M  V30 11720 H 1128.73 -0.811528 -4.34588 0
M  V30 11721 N 1127.79 1.09952 -1.12909 0
M  V30 11722 C 1128.74 2.14591 -0.77037 0
M  V30 11723 C 1129.72 1.59204 0.233021 0
M  V30 11724 O 1130.92 1.7696 0.0377599 0
M  V30 11725 C 1128.05 3.42514 -0.232117 0
M  V30 11726 C 1127.13 4.04823 -1.26409 0
M  V30 11727 N 1127.52 4.41763 -2.46331 0
M  V30 11728 C 1125.82 4.31951 -1.11062 0
M  V30 11729 C 1126.52 4.90778 -3.12269 0
M  V30 11730 N 1125.5 4.87896 -2.39704 0
M  V30 11731 H 1129.3 2.40951 -1.68285 0
M  V30 11732 H 1126.81 1.27125 -1.0106 0
M  V30 11733 H 1128.81 4.16878 0.0430853 0
M  V30 11734 H 1127.47 3.17612 0.674757 0
M  V30 11735 H 1128.48 4.33299 -2.83677 0
M  V30 11736 H 1125.16 4.16681 -0.261456 0
M  V30 11737 H 1126.55 5.28868 -4.14425 0
M  V30 11738 N 1129.27 0.921757 1.27833 0
M  V30 11739 C 1130.68 0.621102 1.47019 0
M  V30 11740 C 1130.88 -0.831338 1.83551 0
M  V30 11741 O 1129.94 -1.60974 1.94534 0
M  V30 11742 C 1131.25 1.56588 2.56712 0
M  V30 11743 C 1132.8 1.57346 2.70576 0
M  V30 11744 C 1133.28 2.50505 3.8342 0
M  V30 11745 N 1134.77 2.48678 3.90786 0
M  V30 11746 C 1135.5 3.17454 4.77505 0
M  V30 11747 N 1135 3.95588 5.68755 0
M  V30 11748 N 1136.79 3.06501 4.71183 0
M  V30 11749 H 1128.94 1.86085 1.02403 0
M  V30 11750 H 1131.21 0.798595 0.510833 0
M  V30 11751 H 1130.91 2.60175 2.36647 0
M  V30 11752 H 1130.79 1.30305 3.53978 0
M  V30 11753 H 1133.17 0.544919 2.90025 0
M  V30 11754 H 1133.25 1.87675 1.73815 0
M  V30 11755 H 1132.9 3.53466 3.64725 0
M  V30 11756 H 1132.83 2.17474 4.79596 0
M  V30 11757 H 1135.32 1.91928 3.25534 0
M  V30 11758 H 1135.63 4.45066 6.31772 0
M  V30 11759 H 1133.98 3.99692 5.6857 0
M  V30 11760 H 1137.17 2.44958 3.9889 0
M  V30 11761 H 1137.34 3.60372 5.3855 0
M  V30 11762 N 1130.75 -1.41857 0.686609 0
M  V30 11763 C 1132.02 -1.95082 0.142228 0
M  V30 11764 C 1132.4 -1.62646 -1.34572 0
M  V30 11765 O 1131.75 -0.928757 -2.08773 0
M  V30 11766 C 1131.96 -3.46415 0.423955 0
M  V30 11767 C 1133.31 -4.23181 0.346842 0
M  V30 11768 O 1134.33 -3.54393 0.358363 0
M  V30 11769 O 1133.19 -5.4568 0.299211 0
M  V30 11770 H 1130.29 -0.826943 0.00974 0
M  V30 11771 H 1132.83 -1.51622 0.762153 0
M  V30 11772 H 1131.6 -3.63273 1.45424 0
M  V30 11773 H 1131.23 -3.96949 -0.227391 0
M  V30 11774 N 1132.22 -0.430739 -1.51599 0
M  V30 11775 C 1133.15 0.374695 -2.30474 0
M  V30 11776 C 1134.14 1.02694 -1.35602 0
M  V30 11777 O 1135.32 1.03184 -1.6452 0
M  V30 11778 C 1132.45 1.47981 -3.14196 0
M  V30 11779 C 1131.4 0.951415 -4.17291 0
M  V30 11780 C 1130.73 2.15177 -4.89492 0
M  V30 11781 C 1132.03 -0.00957951 -5.22299 0
M  V30 11782 H 1133.72 -0.283508 -2.98055 0
M  V30 11783 H 1131.27 -0.13779 -1.43339 0
M  V30 11784 H 1133.22 2.05043 -3.68151 0
M  V30 11785 H 1131.95 2.16621 -2.44424 0
M  V30 11786 H 1130.61 0.403052 -3.64378 0
M  V30 11787 H 1130.25 2.82421 -4.1623 0
M  V30 11788 H 1129.95 1.80464 -5.59202 0
M  V30 11789 H 1131.48 2.72806 -5.46269 0
M  V30 11790 H 1132.89 0.470527 -5.71366 0
M  V30 11791 H 1131.29 -0.268959 -5.99497 0
M  V30 11792 H 1132.36 -0.948297 -4.75537 0
M  V30 11793 N 1133.7 1.56767 -0.161869 0
M  V30 11794 C 1134.67 2.16299 0.758104 0
M  V30 11795 C 1135.67 1.10859 1.16478 0
M  V30 11796 O 1136.86 1.36422 1.08327 0
M  V30 11797 C 1133.99 2.73819 2.03067 0
M  V30 11798 H 1135.18 2.98938 0.239992 0
M  V30 11799 H 1132.73 1.56054 0.0876532 0
M  V30 11800 H 1133.47 1.94887 2.59209 0
M  V30 11801 H 1133.25 3.50974 1.74813 0
M  V30 11802 H 1134.74 3.19638 2.68741 0
M  V30 11803 N 1135.18 -0.111886 1.57202 0
M  V30 11804 C 1136.41 -0.832407 1.89416 0
M  V30 11805 C 1136.82 -1.73096 0.753861 0
M  V30 11806 O 1136.18 -1.80416 -0.274992 0
M  V30 11807 C 1136.23 -1.65988 3.21139 0
M  V30 11808 O 1135.95 -0.797485 4.3078 0
M  V30 11809 C 1137.45 -2.48493 3.67105 0
M  V30 11810 H 1134.67 -0.238919 0.627024 0
M  V30 11811 H 1137.22 -0.0941456 2.04283 0
M  V30 11812 H 1135.37 -2.35082 3.07921 0
M  V30 11813 H 1135.79 -1.36892 5.06321 0
M  V30 11814 H 1137.26 -3.02072 4.62014 0
M  V30 11815 H 1137.74 -3.26182 2.94112 0
M  V30 11816 H 1138.34 -1.84628 3.83135 0
M  V30 11817 N 1136.66 -1.52894 -0.382264 0
M  V30 11818 C 1138.07 -1.42295 -0.722802 0
M  V30 11819 C 1138.27 -0.548717 -1.93885 0
M  V30 11820 O 1137.33 -0.0247431 -2.52488 0
M  V30 11821 C 1138.64 -2.85246 -0.9516 0
M  V30 11822 C 1140.19 -2.94768 -1.05265 0
M  V30 11823 C 1140.67 -4.38745 -1.31404 0
M  V30 11824 N 1142.16 -4.421 -1.38211 0
M  V30 11825 C 1142.89 -5.50592 -1.60113 0
M  V30 11826 N 1142.39 -6.69158 -1.79442 0
M  V30 11827 N 1144.18 -5.38145 -1.62347 0
M  V30 11828 H 1136.33 -2.0825 0.417816 0
M  V30 11829 H 1138.6 -0.939753 0.124776 0
M  V30 11830 H 1138.3 -3.51459 -0.130088 0
M  V30 11831 H 1138.18 -3.27903 -1.86439 0
M  V30 11832 H 1140.56 -2.28718 -1.86472 0
M  V30 11833 H 1140.64 -2.55529 -0.117619 0
M  V30 11834 H 1140.29 -5.05363 -0.507038 0
M  V30 11835 H 1140.22 -4.75542 -2.26202 0
M  V30 11836 H 1142.71 -3.56644 -1.24954 0
M  V30 11837 H 1143.02 -7.47615 -1.95681 0
M  V30 11838 H 1141.37 -6.72175 -1.76653 0
M  V30 11839 H 1144.56 -4.44485 -1.46803 0
M  V30 11840 H 1144.73 -6.22764 -1.79077 0
M  V30 11841 N 1138.14 0.641106 -1.43971 0
M  V30 11842 C 1139.09 1.77474 -1.50352 0
M  V30 11843 C 1140.08 1.65173 -0.376052 0
M  V30 11844 O 1141.29 1.71373 -0.550572 0
M  V30 11845 H 1137.66 0.585747 -0.471597 0
M  V30 11846 H 1139.63 1.69213 -2.45784 0
M  V30 11847 C 1138.38 3.15778 -1.45532 0
M  V30 11848 H 1137.7 3.25886 -2.316 0
M  V30 11849 H 1139.14 3.95022 -1.54058 0
M  V30 11850 C 1137.6 3.36447 -0.174624 0
M  V30 11851 O 1138.13 3.9446 0.759215 0
M  V30 11852 N 1136.34 2.90487 -0.0809383 0
M  V30 11853 H 1135.89 2.43461 -0.841691 0
M  V30 11854 H 1135.84 3.04693 0.775231 0
M  V30 11855 N 1139.62 1.30703 0.880598 0
M  V30 11856 C 1140.86 1.21066 1.64688 0
M  V30 11857 C 1141.22 -0.230015 1.90617 0
M  V30 11858 O 1142.42 -0.449696 2.65012 0
M  V30 11859 C 1140.69 2.02072 2.94791 0
M  V30 11860 S 1142.25 2.09182 3.85731 0
M  V30 11861 H 1139.07 0.431369 0.565192 0
M  V30 11862 H 1141.67 1.65234 1.04489 0
M  V30 11863 H 1140.37 3.05851 2.73648 0
M  V30 11864 H 1139.91 1.58583 3.60021 0
M  V30 11865 H 1141.92 1.22239 4.80908 0
M  V30 11866 N 1141.09 -1.09351 1.1349 0
M  V30 11867 C 1142.02 -2.18037 0.835588 0
M  V30 11868 C 1143 -1.68856 -0.205373 0
M  V30 11869 O 1144.19 -1.94094 -0.0641357 0
M  V30 11870 C 1141.32 -3.45987 0.301661 0
M  V30 11871 C 1140.27 -4.08507 1.27696 0
M  V30 11872 C 1139.6 -5.31292 0.602758 0
M  V30 11873 C 1140.9 -4.50916 2.63575 0
M  V30 11874 H 1142.59 -2.43332 1.74441 0
M  V30 11875 H 1140.14 -1.1695 0.840166 0
M  V30 11876 H 1142.09 -4.21324 0.079928 0
M  V30 11877 H 1140.82 -3.20217 -0.642552 0
M  V30 11878 H 1139.48 -3.3519 1.4847 0
M  V30 11879 H 1139.12 -5.01802 -0.346953 0
M  V30 11880 H 1138.82 -5.74075 1.25345 0
M  V30 11881 H 1140.35 -6.09351 0.390325 0
M  V30 11882 H 1141.76 -5.17474 2.46765 0
M  V30 11883 H 1140.16 -5.04586 3.24827 0
M  V30 11884 H 1141.23 -3.63279 3.2118 0
M  V30 11885 N 1142.57 -0.928524 -1.27343 0
M  V30 11886 C 1143.82 -0.570235 -1.94618 0
M  V30 11887 C 1144.15 0.886381 -1.72792 0
M  V30 11888 O 1143.43 1.63242 -1.05747 0
M  V30 11889 C 1143.71 -0.897964 -3.48724 0
M  V30 11890 C 1143.56 -2.40839 -3.7989 0
M  V30 11891 C 1144.88 -0.404429 -4.38238 0
M  V30 11892 H 1142 -0.208645 -0.70685 0
M  V30 11893 H 1144.64 -1.16045 -1.50444 0
M  V30 11894 H 1142.79 -0.395679 -3.8648 0
M  V30 11895 H 1144.46 -2.98243 -3.51921 0
M  V30 11896 H 1142.71 -2.85723 -3.26412 0
M  V30 11897 H 1143.38 -2.58823 -4.8756 0
M  V30 11898 H 1145.85 -0.834918 -4.07637 0
M  V30 11899 H 1144.73 -0.662684 -5.44885 0
M  V30 11900 H 1144.99 0.695507 -4.36595 0
M  V30 11901 N 1144.05 1.41491 -0.694123 0
M  V30 11902 C 1145.3 2.00854 -0.224033 0
M  V30 11903 C 1145.62 1.55246 1.17999 0
M  V30 11904 O 1144.89 0.782452 1.79595 0
M  V30 11905 H 1143.47 0.742721 -0.0798368 0
M  V30 11906 H 1146.13 1.73137 -0.894958 0
M  V30 11907 H 1145.23 3.11173 -0.240332 0
M  V30 11908 N 1145.53 0.438773 1.51369 0
M  V30 11909 C 1146.44 -0.378074 2.31534 0
M  V30 11910 C 1147.45 -1.02632 1.40508 0
M  V30 11911 O 1148.63 -1.02138 1.73579 0
M  V30 11912 C 1145.69 -1.46374 3.14286 0
M  V30 11913 C 1144.76 -0.835473 4.21092 0
M  V30 11914 C 1143.99 -1.86941 4.99889 0
M  V30 11915 O 1144.21 -3.0918 4.79337 0
M  V30 11916 O 1143.15 -1.45914 5.83946 0
M  V30 11917 H 1146.97 0.276401 3.0244 0
M  V30 11918 H 1144.56 0.201281 1.48038 0
M  V30 11919 H 1146.44 -2.09335 3.65728 0
M  V30 11920 H 1145.11 -2.10227 2.46143 0
M  V30 11921 H 1144.02 -0.167775 3.73724 0
M  V30 11922 H 1145.35 -0.240406 4.91613 0
M  V30 11923 N 1147.01 -1.56678 0.170181 0
M  V30 11924 C 1147.95 -2.19222 -0.777459 0
M  V30 11925 C 1148.95 -1.15592 -1.23834 0
M  V30 11926 O 1150.15 -1.33794 -1.20412 0
M  V30 11927 H 1146.53 -0.702244 -0.268992 0
M  V30 11928 H 1148.5 -2.97543 -0.225989 0
M  V30 11929 C 1147.25 -2.84631 -1.997 0
M  V30 11930 H 1146.57 -3.641 -1.65139 0
M  V30 11931 H 1148.01 -3.31864 -2.63898 0
M  V30 11932 C 1146.47 -1.84345 -2.81991 0
M  V30 11933 O 1147 -1.32821 -3.79106 0
M  V30 11934 N 1145.21 -1.53127 -2.46983 0
M  V30 11935 H 1144.75 -1.95219 -1.6807 0
M  V30 11936 H 1144.71 -0.862787 -3.0233 0
M  V30 11937 N 1148.48 0.103547 -1.57259 0
M  V30 11938 C 1149.73 0.808576 -1.85656 0
M  V30 11939 C 1150.06 1.79143 -0.757502 0
M  V30 11940 O 1149.31 1.941 0.249723 0
M  V30 11941 C 1149.61 1.57946 -3.20605 0
M  V30 11942 C 1149.28 0.739502 -4.44795 0
M  V30 11943 C 1147.94 0.507921 -4.78512 0
M  V30 11944 C 1150.29 0.155034 -5.20969 0
M  V30 11945 C 1147.62 -0.318129 -5.85837 0
M  V30 11946 C 1149.97 -0.658292 -6.29166 0
M  V30 11947 C 1148.64 -0.900044 -6.61404 0
M  V30 11948 H 1147.91 0.295879 -0.679365 0
M  V30 11949 H 1150.55 0.0703604 -1.91371 0
M  V30 11950 H 1148.86 2.38902 -3.10537 0
M  V30 11951 H 1150.56 2.12921 -3.39803 0
M  V30 11952 H 1147.15 0.930103 -4.18386 0
M  V30 11953 H 1151.33 0.32113 -4.9526 0
M  V30 11954 H 1146.59 -0.514495 -6.09231 0
M  V30 11955 H 1150.76 -1.11809 -6.87366 0
M  V30 11956 H 1148.39 -1.54194 -7.44398 0
M  V30 11957 N 1149.96 1.53094 0.37415 0
M  V30 11958 C 1151.19 1.72758 1.13852 0
M  V30 11959 C 1151.6 0.452638 1.83294 0
M  V30 11960 O 1150.96 -0.573906 1.73241 0
M  V30 11961 C 1151.01 2.88724 2.17534 0
M  V30 11962 O 1150.73 4.11284 1.5092 0
M  V30 11963 C 1152.23 3.2019 3.06584 0
M  V30 11964 H 1149.45 0.578028 0.340771 0
M  V30 11965 H 1152 1.99805 0.435683 0
M  V30 11966 H 1150.15 2.64096 2.83429 0
M  V30 11967 H 1150.57 4.76162 2.19932 0
M  V30 11968 H 1152.04 4.04759 3.75332 0
M  V30 11969 H 1152.52 2.35193 3.70919 0
M  V30 11970 H 1153.12 3.46712 2.46315 0
M  V30 11971 N 1151.44 -0.633461 1.44309 0
M  V30 11972 C 1152.69 -1.38902 1.4625 0
M  V30 11973 C 1153 -1.95354 0.0980699 0
M  V30 11974 O 1154.21 -2.715 -0.0049983 0
M  V30 11975 C 1152.66 -2.51477 2.57463 0
M  V30 11976 C 1152.27 -2.01549 4.00103 0
M  V30 11977 C 1154.02 -3.28698 2.68622 0
M  V30 11978 C 1151.92 -3.11452 5.02744 0
M  V30 11979 H 1150.85 -0.521976 0.544112 0
M  V30 11980 H 1153.5 -0.681725 1.70367 0
M  V30 11981 H 1151.89 -3.24771 2.26582 0
M  V30 11982 H 1153.06 -1.35135 4.4054 0
M  V30 11983 H 1151.37 -1.3715 3.93165 0
M  V30 11984 H 1153.97 -4.10624 3.42479 0
M  V30 11985 H 1154.31 -3.78027 1.7436 0
M  V30 11986 H 1154.85 -2.62494 2.98901 0
M  V30 11987 H 1151.59 -2.6707 5.98627 0
M  V30 11988 H 1151.11 -3.76514 4.66902 0
M  V30 11989 H 1152.79 -3.76265 5.2634 0
M  V30 11990 N 1152.92 -1.31168 -0.873655 0
M  V30 11991 C 1153.87 -1.18507 -1.98052 0
M  V30 11992 C 1154.84 -0.0717583 -1.65945 0
M  V30 11993 O 1156.02 -0.243965 -1.89234 0
M  V30 11994 C 1153.16 -0.894571 -3.33304 0
M  V30 11995 C 1152.27 -2.09086 -3.7803 0
M  V30 11996 C 1151.41 -1.73747 -5.01982 0
M  V30 11997 C 1150.45 -2.89805 -5.39147 0
M  V30 11998 N 1149.58 -2.54686 -6.54278 0
M  V30 11999 H 1154.42 -2.13193 -2.08213 0
M  V30 12000 H 1151.96 -1.06056 -1.01934 0
M  V30 12001 H 1153.92 -0.706714 -4.11171 0
M  V30 12002 H 1152.55 0.0154449 -3.22796 0
M  V30 12003 H 1151.6 -2.38961 -2.95976 0
M  V30 12004 H 1152.91 -2.95963 -4.01506 0
M  V30 12005 H 1152.07 -1.51402 -5.87505 0
M  V30 12006 H 1150.81 -0.840553 -4.80402 0
M  V30 12007 H 1149.81 -3.12803 -4.52144 0
M  V30 12008 H 1151.04 -3.802 -5.62694 0
M  V30 12009 H 1148.98 -1.67513 -6.34252 0
M  V30 12010 H 1148.9 -3.35093 -6.77679 0
M  V30 12011 H 1150.17 -2.35725 -7.43003 0
M  V30 12012 N 1154.4 1.08748 -1.14068 0
M  V30 12013 C 1155.65 1.8044 -0.901352 0
M  V30 12014 C 1155.96 1.86995 0.573791 0
M  V30 12015 O 1157.16 2.55065 0.930275 0
M  V30 12016 C 1155.62 3.24185 -1.56308 0
M  V30 12017 C 1155.23 3.25875 -3.07424 0
M  V30 12018 C 1156.97 4.00584 -1.40473 0
M  V30 12019 C 1154.88 4.64186 -3.66449 0
M  V30 12020 H 1153.81 0.676201 -0.333569 0
M  V30 12021 H 1156.46 1.22169 -1.3692 0
M  V30 12022 H 1154.84 3.82561 -1.0229 0
M  V30 12023 H 1156.02 2.77225 -3.6808 0
M  V30 12024 H 1154.33 2.62969 -3.22856 0
M  V30 12025 H 1156.93 5.02781 -1.81976 0
M  V30 12026 H 1157.27 4.14823 -0.350408 0
M  V30 12027 H 1157.8 3.48668 -1.91508 0
M  V30 12028 H 1154.54 4.5515 -4.71719 0
M  V30 12029 H 1154.06 5.13132 -3.10574 0
M  V30 12030 H 1155.74 5.33161 -3.66536 0
M  V30 12031 N 1155.87 0.935264 1.26849 0
M  V30 12032 C 1156.84 0.44485 2.24842 0
M  V30 12033 C 1157.84 -0.440781 1.54641 0
M  V30 12034 O 1159.03 -0.240793 1.72528 0
M  V30 12035 C 1156.16 -0.359566 3.38998 0
M  V30 12036 H 1157.35 1.31074 2.6974 0
M  V30 12037 H 1154.91 0.716665 1.38901 0
M  V30 12038 H 1155.64 -1.24396 2.99493 0
M  V30 12039 H 1155.43 0.275529 3.91131 0
M  V30 12040 H 1156.92 -0.692804 4.11813 0
M  V30 12041 N 1157.35 -1.41121 0.701616 0
M  V30 12042 C 1158.63 -1.9492 0.162911 0
M  V30 12043 C 1159.01 -1.64064 -1.32839 0
M  V30 12044 O 1158.36 -0.950848 -2.07777 0
M  V30 12045 C 1158.57 -3.45946 0.460673 0
M  V30 12046 C 1159.92 -4.22789 0.391706 0
M  V30 12047 O 1160.94 -3.53993 0.395931 0
M  V30 12048 O 1159.8 -5.45332 0.357071 0
M  V30 12049 H 1156.89 -0.826793 0.0185103 0
M  V30 12050 H 1159.44 -1.50805 0.778192 0
M  V30 12051 H 1158.21 -3.61711 1.49269 0
M  V30 12052 H 1157.83 -3.97168 -0.185277 0
M  V30 12053 N 1158.83 -0.446794 -1.51134 0
M  V30 12054 C 1160.08 0.116493 -2.02165 0
M  V30 12055 C 1160.41 1.41884 -1.33039 0
M  V30 12056 O 1159.66 1.90757 -0.437071 0
M  V30 12057 C 1159.96 0.373015 -3.55448 0
M  V30 12058 C 1159.63 -0.844659 -4.42918 0
M  V30 12059 C 1158.29 -1.17857 -4.66544 0
M  V30 12060 C 1160.64 -1.65653 -4.94174 0
M  V30 12061 C 1157.97 -2.32486 -5.38672 0
M  V30 12062 C 1160.32 -2.7939 -5.6756 0
M  V30 12063 C 1158.98 -3.13224 -5.89446 0
M  V30 12064 H 1158.25 0.0426279 -0.739773 0
M  V30 12065 H 1160.9 -0.595921 -1.81992 0
M  V30 12066 H 1159.21 1.16742 -3.74003 0
M  V30 12067 H 1160.9 0.822425 -3.92476 0
M  V30 12068 H 1157.49 -0.574478 -4.24733 0
M  V30 12069 H 1161.68 -1.41176 -4.75797 0
M  V30 12070 H 1156.93 -2.59003 -5.5383 0
M  V30 12071 H 1161.11 -3.42662 -6.06264 0
M  V30 12072 H 1158.73 -4.02158 -6.45115 0
M  V30 12073 N 1160.31 1.56586 -0.178487 0
M  V30 12074 C 1161.56 1.96709 0.4637 0
M  V30 12075 C 1161.88 1.06586 1.63292 0
M  V30 12076 O 1161.15 0.133683 1.95443 0
M  V30 12077 H 1159.73 0.726381 0.174299 0
M  V30 12078 H 1162.39 1.9314 -0.261345 0
M  V30 12079 H 1161.49 3.01164 0.818934 0
M  V30 12080 N 1161.79 -0.095206 1.57312 0
M  V30 12081 C 1162.72 -1.14662 1.97301 0
M  V30 12082 C 1163.7 -1.38845 0.846212 0
M  V30 12083 O 1164.88 -1.52607 1.1065 0
M  V30 12084 C 1162.01 -2.49582 2.28968 0
M  V30 12085 C 1161.05 -2.41681 3.51415 0
M  V30 12086 S 1161.89 -1.83343 5.03136 0
M  V30 12087 C 1163.04 -3.19888 5.3798 0
M  V30 12088 H 1163.28 -0.805726 2.86174 0
M  V30 12089 H 1160.81 -0.302881 1.514 0
M  V30 12090 H 1162.77 -3.27202 2.47889 0
M  V30 12091 H 1161.43 -2.80841 1.40667 0
M  V30 12092 H 1160.62 -3.41122 3.71015 0
M  V30 12093 H 1160.22 -1.7219 3.32004 0
M  V30 12094 H 1162.52 -4.16161 5.34618 0
M  V30 12095 H 1163.46 -3.05093 6.39002 0
M  V30 12096 H 1163.87 -3.19414 4.6544 0
M  V30 12097 N 1163.26 -1.53291 -0.366026 0
M  V30 12098 C 1164.49 -1.73665 -1.13381 0
M  V30 12099 C 1164.91 -0.464284 -1.8228 0
M  V30 12100 O 1164.27 0.581645 -1.71717 0
M  V30 12101 C 1164.32 -2.90225 -2.14013 0
M  V30 12102 O 1163.42 -2.58803 -3.21084 0
M  V30 12103 H 1162.77 -0.576762 -0.329 0
M  V30 12104 H 1165.3 -2.00174 -0.423287 0
M  V30 12105 H 1165.31 -3.16378 -2.57622 0
M  V30 12106 H 1163.98 -3.82518 -1.63257 0
M  V30 12107 H 1162.56 -2.43466 -2.82451 0
M  V30 12108 N 1164.74 0.6258 -1.44643 0
M  V30 12109 C 1166.16 0.944569 -1.28647 0
M  V30 12110 C 1166.36 2.00227 -0.226134 0
M  V30 12111 O 1165.41 2.4953 0.386161 0
M  V30 12112 C 1166.73 1.40278 -2.65975 0
M  V30 12113 C 1168.28 1.51797 -2.73727 0
M  V30 12114 C 1168.75 2.01 -4.11537 0
M  V30 12115 N 1170.24 2.08262 -4.13741 0
M  V30 12116 C 1170.98 2.47515 -5.17227 0
M  V30 12117 N 1170.47 2.85867 -6.31072 0
M  V30 12118 N 1172.27 2.47695 -5.04583 0
M  V30 12119 H 1164.42 -0.0736157 -2.12272 0
M  V30 12120 H 1166.68 0.0296998 -0.947535 0
M  V30 12121 H 1166.39 0.699871 -3.44666 0
M  V30 12122 H 1166.26 2.37279 -2.93221 0
M  V30 12123 H 1168.65 2.21183 -1.95351 0
M  V30 12124 H 1168.73 0.531574 -2.50216 0
M  V30 12125 H 1168.37 1.32207 -4.90391 0
M  V30 12126 H 1168.3 3.0052 -4.32429 0
M  V30 12127 H 1170.79 1.81286 -3.31578 0
M  V30 12128 H 1171.11 3.14647 -7.05845 0
M  V30 12129 H 1169.45 2.83605 -6.34502 0
M  V30 12130 H 1172.64 2.17127 -4.14697 0
M  V30 12131 H 1172.81 2.77962 -5.85356 0
M  V30 12132 N 1166.22 1.31629 0.866686 0
M  V30 12133 C 1167.17 1.19492 1.99561 0
M  V30 12134 C 1168.16 0.102456 1.6909 0
M  V30 12135 O 1169.37 0.264571 1.78045 0
M  V30 12136 H 1165.74 0.370071 0.654638 0
M  V30 12137 H 1167.71 2.14996 2.06928 0
M  V30 12138 C 1166.46 0.92246 3.3524 0
M  V30 12139 H 1165.79 1.75524 3.59209 0
M  V30 12140 H 1167.23 0.877726 4.14816 0
M  V30 12141 C 1165.69 -0.374803 3.34809 0
M  V30 12142 O 1166.22 -1.39055 3.76864 0
M  V30 12143 N 1164.42 -0.392506 2.87937 0
M  V30 12144 H 1163.97 0.434591 2.53908 0
M  V30 12145 H 1163.93 -1.26038 2.88031 0
M  V30 12146 N 1167.7 -1.08142 1.14644 0
M  V30 12147 C 1168.63 -2.17139 0.858667 0
M  V30 12148 C 1169.61 -1.69064 -0.187452 0
M  V30 12149 O 1170.8 -1.94151 -0.0435458 0
M  V30 12150 C 1167.93 -3.45648 0.33834 0
M  V30 12151 C 1166.88 -4.07129 1.32021 0
M  V30 12152 C 1166.21 -5.30623 0.659075 0
M  V30 12153 C 1167.51 -4.48095 2.68343 0
M  V30 12154 H 1169.2 -2.41468 1.77012 0
M  V30 12155 H 1166.75 -1.16052 0.852523 0
M  V30 12156 H 1168.7 -4.21216 0.124611 0
M  V30 12157 H 1167.42 -3.2088 -0.608553 0
M  V30 12158 H 1166.08 -3.33596 1.52016 0
M  V30 12159 H 1165.73 -5.02142 -0.293711 0
M  V30 12160 H 1165.43 -5.72714 1.31427 0
M  V30 12161 H 1166.95 -6.08903 0.454933 0
M  V30 12162 H 1168.37 -5.14828 2.5224 0
M  V30 12163 H 1166.76 -5.01113 3.30161 0
M  V30 12164 H 1167.83 -3.59852 3.25015 0
M  V30 12165 N 1169.18 -0.941978 -1.26351 0
M  V30 12166 C 1170.41 -0.605868 -1.97517 0
M  V30 12167 C 1170.82 0.823583 -1.70334 0
M  V30 12168 O 1170.16 1.56085 -0.968662 0
M  V30 12169 C 1170.22 -0.769201 -3.51175 0
M  V30 12170 C 1169.88 -2.17343 -4.02009 0
M  V30 12171 C 1170.88 -3.14898 -4.13685 0
M  V30 12172 C 1168.57 -2.49422 -4.35998 0
M  V30 12173 C 1170.56 -4.42631 -4.58646 0
M  V30 12174 C 1168.25 -3.77388 -4.80647 0
M  V30 12175 C 1169.25 -4.73806 -4.91932 0
M  V30 12176 O 1168.93 -5.99493 -5.35596 0
M  V30 12177 H 1168.67 -0.227113 -0.636707 0
M  V30 12178 H 1171.22 -1.26523 -1.61806 0
M  V30 12179 H 1169.45 -0.0527104 -3.86664 0
M  V30 12180 H 1171.14 -0.436032 -4.03551 0
M  V30 12181 H 1171.9 -2.91438 -3.87671 0
M  V30 12182 H 1167.78 -1.7511 -4.26448 0
M  V30 12183 H 1171.33 -5.17892 -4.67369 0
M  V30 12184 H 1167.22 -4.0066 -5.06105 0
M  V30 12185 H 1167.99 -6.02687 -5.53815 0
M  V30 12186 N 1170.66 1.40747 -0.709091 0
M  V30 12187 C 1171.62 2.29118 -0.0611607 0
M  V30 12188 C 1172.62 1.45049 0.694081 0
M  V30 12189 O 1173.81 1.66039 0.526952 0
M  V30 12190 C 1170.94 3.28154 0.923447 0
M  V30 12191 H 1172.13 2.87913 -0.839413 0
M  V30 12192 H 1169.69 1.4896 -0.473363 0
M  V30 12193 H 1170.42 2.74366 1.72899 0
M  V30 12194 H 1170.21 3.90207 0.384862 0
M  V30 12195 H 1171.7 3.94343 1.37417 0
M  V30 12196 N 1172.13 0.454803 1.50895 0
M  V30 12197 C 1173.38 -0.105562 2.01824 0
M  V30 12198 C 1173.7 -1.41673 1.33992 0
M  V30 12199 O 1172.97 -1.89929 0.479994 0
M  V30 12200 H 1171.55 -0.0420011 0.745818 0
M  V30 12201 H 1174.21 0.601504 1.85386 0
M  V30 12202 H 1173.31 -0.268872 3.1094 0
M  V30 12203 N 1173.61 -1.56489 0.186789 0
M  V30 12204 C 1174.89 -1.89066 -0.501337 0
M  V30 12205 C 1175.27 -1.09906 -1.80233 0
M  V30 12206 O 1174.62 -0.197626 -2.27644 0
M  V30 12207 C 1174.83 -3.41318 -0.728207 0
M  V30 12208 C 1176.17 -4.11379 -1.0513 0
M  V30 12209 O 1177.2 -3.46722 -0.816216 0
M  V30 12210 O 1176.06 -5.25638 -1.49557 0
M  V30 12211 H 1173.15 -0.784966 -0.260303 0
M  V30 12212 H 1175.7 -1.68183 0.226382 0
M  V30 12213 H 1174.47 -3.90834 0.19088 0
M  V30 12214 H 1174.09 -3.67865 -1.50869 0
M  V30 12215 N 1175.09 0.086862 -1.5736 0
M  V30 12216 C 1176.32 0.801004 -1.9044 0
M  V30 12217 C 1176.73 1.72396 -0.779513 0
M  V30 12218 O 1176.07 1.81894 0.256972 0
M  V30 12219 C 1176.13 1.66055 -3.18851 0
M  V30 12220 C 1175.8 0.908561 -4.47877 0
M  V30 12221 C 1176.79 0.234621 -5.1937 0
M  V30 12222 C 1174.48 0.8802 -4.94528 0
M  V30 12223 C 1176.47 -0.45762 -6.35755 0
M  V30 12224 C 1174.16 0.184179 -6.10822 0
M  V30 12225 C 1175.16 -0.483545 -6.81286 0
M  V30 12226 O 1174.85 -1.16839 -7.95364 0
M  V30 12227 H 1174.58 0.233794 -0.634284 0
M  V30 12228 H 1177.13 0.0660113 -2.05294 0
M  V30 12229 H 1175.36 2.43798 -3.00165 0
M  V30 12230 H 1177.05 2.252 -3.37698 0
M  V30 12231 H 1177.82 0.247938 -4.84366 0
M  V30 12232 H 1173.7 1.38938 -4.39565 0
M  V30 12233 H 1177.24 -0.979369 -6.90691 0
M  V30 12234 H 1173.14 0.168737 -6.45279 0
M  V30 12235 H 1173.9 -1.07612 -8.11395 0
M  V30 12236 N 1176.57 1.53483 0.357892 0
M  V30 12237 C 1177.8 1.73704 1.11851 0
M  V30 12238 C 1178.21 0.469388 1.83285 0
M  V30 12239 O 1177.55 -0.567894 1.74702 0
M  V30 12240 C 1177.61 2.85301 2.18732 0
M  V30 12241 C 1177.27 4.25395 1.66998 0
M  V30 12242 C 1178.27 5.07472 1.12994 0
M  V30 12243 C 1175.96 4.71832 1.72279 0
M  V30 12244 C 1177.95 6.34081 0.649574 0
M  V30 12245 C 1175.64 5.98417 1.23854 0
M  V30 12246 C 1176.64 6.79374 0.702839 0
M  V30 12247 O 1176.32 8.03583 0.225763 0
M  V30 12248 H 1176.06 0.584251 0.34004 0
M  V30 12249 H 1178.61 2.01054 0.420313 0
M  V30 12250 H 1176.84 2.53442 2.92068 0
M  V30 12251 H 1178.53 2.93627 2.80247 0
M  V30 12252 H 1179.29 4.72766 1.08248 0
M  V30 12253 H 1175.17 4.08886 2.12916 0
M  V30 12254 H 1178.72 6.97218 0.230774 0
M  V30 12255 H 1174.61 6.32622 1.28296 0
M  V30 12256 H 1175.38 8.17775 0.344381 0
M  V30 12257 N 1178.05 -0.61812 1.44973 0
M  V30 12258 C 1179.46 -0.937734 1.29146 0
M  V30 12259 C 1179.66 -2.00104 0.236749 0
M  V30 12260 O 1178.72 -2.49731 -0.372923 0
M  V30 12261 C 1180.03 -1.38865 2.66715 0
M  V30 12262 C 1181.58 -1.50343 2.74529 0
M  V30 12263 C 1182.05 -1.98814 4.12598 0
M  V30 12264 N 1183.54 -2.06064 4.14839 0
M  V30 12265 C 1184.28 -2.44768 5.18533 0
M  V30 12266 N 1183.78 -2.82516 6.32579 0
M  V30 12267 N 1185.57 -2.45016 5.05889 0
M  V30 12268 H 1177.72 0.084872 2.1223 0
M  V30 12269 H 1179.98 -0.0246744 0.947679 0
M  V30 12270 H 1179.69 -0.681583 3.45032 0
M  V30 12271 H 1179.56 -2.3572 2.94475 0
M  V30 12272 H 1181.95 -2.20144 1.96522 0
M  V30 12273 H 1182.03 -0.518297 2.50494 0
M  V30 12274 H 1181.67 -1.29604 4.91086 0
M  V30 12275 H 1181.6 -2.98223 4.34017 0
M  V30 12276 H 1184.1 -1.79525 3.32535 0
M  V30 12277 H 1184.41 -3.109 7.07504 0
M  V30 12278 H 1182.75 -2.80237 6.35997 0
M  V30 12279 H 1185.94 -2.14925 4.15842 0
M  V30 12280 H 1186.12 -2.74854 5.86821 0
M  V30 12281 N 1179.52 -1.32087 -0.859693 0
M  V30 12282 C 1180.77 -1.22542 -1.6159 0
M  V30 12283 C 1181.1 0.213533 -1.93022 0
M  V30 12284 O 1180.38 1.14931 -1.56911 0
M  V30 12285 C 1180.66 -2.08004 -2.93949 0
M  V30 12286 C 1180.51 -3.60252 -2.6933 0
M  V30 12287 C 1181.83 -1.93732 -3.95166 0
M  V30 12288 H 1178.95 -0.446504 -0.586347 0
M  V30 12289 H 1181.59 -1.61982 -0.993064 0
M  V30 12290 H 1179.74 -1.74498 -3.47106 0
M  V30 12291 H 1181.42 -4.03947 -2.22766 0
M  V30 12292 H 1179.66 -3.83169 -2.03382 0
M  V30 12293 H 1180.33 -4.1537 -3.63555 0
M  V30 12294 H 1182.81 -2.23075 -3.5125 0
M  V30 12295 H 1181.68 -2.55815 -4.85644 0
M  V30 12296 H 1181.94 -0.903528 -4.32769 0
M  V30 12297 N 1181 1.07532 -1.15215 0
M  V30 12298 C 1181.93 2.14598 -0.805006 0
M  V30 12299 C 1182.95 1.61778 0.182152 0
M  V30 12300 O 1184.14 1.78453 -0.040834 0
M  V30 12301 C 1181.24 3.38444 -0.175736 0
M  V30 12302 C 1180.41 4.20621 -1.19986 0
M  V30 12303 C 1179.47 5.22851 -0.592705 0
M  V30 12304 O 1178.49 5.55121 -1.25815 0
M  V30 12305 N 1179.7 5.7711 0.626425 0
M  V30 12306 H 1182.46 2.44981 -1.7264 0
M  V30 12307 H 1180.02 1.23423 -1.04778 0
M  V30 12308 H 1182.01 4.03969 0.243166 0
M  V30 12309 H 1180.58 3.0579 0.64896 0
M  V30 12310 H 1179.8 3.50941 -1.79539 0
M  V30 12311 H 1181.09 4.72339 -1.89139 0
M  V30 12312 H 1180.49 5.53139 1.18546 0
M  V30 12313 H 1179.05 6.44273 0.98771 0
M  V30 12314 N 1182.48 0.948665 1.2585 0
M  V30 12315 C 1183.73 0.59905 1.93018 0
M  V30 12316 C 1184.05 -0.865813 1.74725 0
M  V30 12317 O 1183.32 -1.61602 1.10732 0
M  V30 12318 H 1181.9 0.218565 0.71431 0
M  V30 12319 H 1184.56 1.20561 1.53137 0
M  V30 12320 H 1183.66 0.823244 3.01047 0
M  V30 12321 N 1183.96 -1.40369 0.716545 0
M  V30 12322 C 1185.37 -1.54757 0.390202 0
M  V30 12323 C 1185.57 -1.68767 -1.10091 0
M  V30 12324 O 1184.63 -1.67779 -1.88697 0
M  V30 12325 C 1185.94 -2.77546 1.15709 0
M  V30 12326 C 1187.49 -2.91364 1.14349 0
M  V30 12327 C 1187.97 -4.17068 1.89256 0
M  V30 12328 N 1189.46 -4.2407 1.8633 0
M  V30 12329 C 1190.19 -5.20243 2.41112 0
M  V30 12330 N 1189.69 -6.22318 3.04454 0
M  V30 12331 N 1191.48 -5.12328 2.31249 0
M  V30 12332 H 1183.63 -1.29521 1.68339 0
M  V30 12333 H 1185.9 -0.626382 0.711582 0
M  V30 12334 H 1185.6 -2.73474 2.21144 0
M  V30 12335 H 1185.48 -3.69682 0.749347 0
M  V30 12336 H 1187.86 -2.94939 0.0973383 0
M  V30 12337 H 1187.94 -2.00344 1.59047 0
M  V30 12338 H 1187.59 -4.14255 2.93863 0
M  V30 12339 H 1187.52 -5.07099 1.41978 0
M  V30 12340 H 1190.01 -3.50944 1.40168 0
M  V30 12341 H 1190.32 -6.92129 3.43769 0
M  V30 12342 H 1188.67 -6.22759 3.08538 0
M  V30 12343 H 1191.86 -4.31514 1.8142 0
M  V30 12344 H 1192.03 -5.87107 2.74243 0
M  V30 12345 N 1185.44 -0.462799 -1.50652 0
M  V30 12346 C 1186.4 0.324264 -2.26895 0
M  V30 12347 C 1187.4 0.927687 -1.31342 0
M  V30 12348 O 1188.59 0.798159 -1.54839 0
M  V30 12349 C 1185.72 1.46113 -3.08 0
M  V30 12350 H 1186.91 -0.344266 -2.97917 0
M  V30 12351 H 1184.47 -0.216631 -1.54791 0
M  V30 12352 H 1185.2 2.16496 -2.41454 0
M  V30 12353 H 1184.99 1.03433 -3.78212 0
M  V30 12354 H 1186.48 2.01655 -3.65684 0
M  V30 12355 N 1186.91 1.56388 -0.195085 0
M  V30 12356 C 1188.16 1.97872 0.444344 0
M  V30 12357 C 1188.49 1.0819 1.61271 0
M  V30 12358 O 1187.77 0.133904 1.94039 0
M  V30 12359 C 1188.05 3.48556 0.90449 0
M  V30 12360 C 1187.9 4.49015 -0.265693 0
M  V30 12361 C 1189.22 4.02938 1.76999 0
M  V30 12362 H 1186.34 0.719413 0.160041 0
M  V30 12363 H 1188.98 1.87835 -0.286005 0
M  V30 12364 H 1187.13 3.5724 1.52682 0
M  V30 12365 H 1188.81 4.52368 -0.903363 0
M  V30 12366 H 1187.05 4.23987 -0.917462 0
M  V30 12367 H 1187.72 5.51912 0.0987834 0
M  V30 12368 H 1190.2 3.97033 1.24514 0
M  V30 12369 H 1189.07 5.08741 2.06092 0
M  V30 12370 H 1189.33 3.48197 2.72418 0
M  V30 12371 N 1188.39 -0.0785156 1.57404 0
M  V30 12372 C 1189.32 -1.09446 2.06262 0
M  V30 12373 C 1190.3 -1.40777 0.954772 0
M  V30 12374 O 1191.49 -1.5052 1.22708 0
M  V30 12375 C 1188.62 -2.40979 2.50093 0
M  V30 12376 C 1187.57 -2.24017 3.64692 0
M  V30 12377 C 1186.9 -3.60873 3.94556 0
M  V30 12378 C 1188.2 -1.66696 4.94985 0
M  V30 12379 H 1189.89 -0.687928 2.9139 0
M  V30 12380 H 1187.44 -0.329466 1.4018 0
M  V30 12381 H 1189.39 -3.12337 2.82884 0
M  V30 12382 H 1188.12 -2.83599 1.61985 0
M  V30 12383 H 1186.77 -1.55101 3.32174 0
M  V30 12384 H 1186.42 -4.01051 3.0359 0
M  V30 12385 H 1186.12 -3.50365 4.71718 0
M  V30 12386 H 1187.65 -4.33673 4.29837 0
M  V30 12387 H 1189.06 -2.27913 5.2605 0
M  V30 12388 H 1187.46 -1.66902 5.76423 0
M  V30 12389 H 1188.53 -0.627827 4.80818 0
M  V30 12390 N 1189.87 -1.5367 -0.349747 0
M  V30 12391 C 1191.28 -1.62135 -0.925704 0
M  V30 12392 C 1191.63 -0.498725 -1.89756 0
M  V30 12393 O 1190.76 0.372481 -2.1317 0
M  V30 12394 C 1191.35 -2.93885 -1.68573 0
M  V30 12395 C 1189.91 -3.04632 -2.2108 0
M  V30 12396 C 1189.06 -2.57541 -1.02801 0
M  V30 12397 H 1192.01 -1.58182 -0.128065 0
M  V30 12398 H 1192.03 -2.82577 -2.54815 0
M  V30 12399 H 1191.54 -3.75571 -0.978153 0
M  V30 12400 H 1189.64 -2.27567 -2.95032 0
M  V30 12401 H 1189.76 -4.09993 -2.47876 0
M  V30 12402 H 1188.12 -2.12798 -1.39962 0
M  V30 12403 H 1188.9 -3.4166 -0.335157 0
M  V30 12404 N 1191.35 0.610423 -1.45298 0
M  V30 12405 C 1192.6 1.36558 -1.48441 0
M  V30 12406 C 1192.91 1.95173 -0.129137 0
M  V30 12407 O 1194.12 2.71473 -0.0381956 0
M  V30 12408 C 1192.57 2.47349 -2.61431 0
M  V30 12409 C 1192.18 1.95158 -4.03258 0
M  V30 12410 C 1193.92 3.24383 -2.73817 0
M  V30 12411 C 1191.83 3.03414 -5.07635 0
M  V30 12412 H 1190.76 0.513253 -0.552347 0
M  V30 12413 H 1193.41 0.654535 -1.7143 0
M  V30 12414 H 1191.79 3.21125 -2.31721 0
M  V30 12415 H 1192.97 1.2811 -4.42634 0
M  V30 12416 H 1191.28 1.30878 -3.95297 0
M  V30 12417 H 1193.88 4.05123 -3.48969 0
M  V30 12418 H 1194.22 3.75205 -1.80352 0
M  V30 12419 H 1194.76 2.57705 -3.03039 0
M  V30 12420 H 1191.5 2.57512 -6.028 0
M  V30 12421 H 1191.02 3.69039 -4.72833 0
M  V30 12422 H 1192.69 3.67844 -5.32259 0
M  V30 12423 N 1192.83 1.32541 0.852676 0
M  V30 12424 C 1194.24 1.11575 1.14119 0
M  V30 12425 C 1194.44 -0.102469 2.01239 0
M  V30 12426 O 1193.5 -0.786786 2.39929 0
M  V30 12427 C 1194.81 2.39624 1.81661 0
M  V30 12428 C 1196.36 2.454 1.94288 0
M  V30 12429 C 1196.83 3.73375 2.65245 0
M  V30 12430 N 1198.33 3.74368 2.72769 0
M  V30 12431 C 1199.06 4.70094 3.28328 0
M  V30 12432 N 1198.56 5.76187 3.84682 0
M  V30 12433 N 1200.35 4.57588 3.26449 0
M  V30 12434 H 1192.5 2.10644 0.272544 0
M  V30 12435 H 1194.76 0.930094 0.183385 0
M  V30 12436 H 1194.47 3.28698 1.25102 0
M  V30 12437 H 1194.34 2.50734 2.81802 0
M  V30 12438 H 1196.73 1.56784 2.50005 0
M  V30 12439 H 1196.81 2.38241 0.931379 0
M  V30 12440 H 1196.46 4.62366 2.10191 0
M  V30 12441 H 1196.39 3.77806 3.66838 0
M  V30 12442 H 1198.88 2.97685 2.32791 0
M  V30 12443 H 1199.19 6.45285 4.25238 0
M  V30 12444 H 1197.53 5.79939 3.83008 0
M  V30 12445 H 1200.73 3.7387 2.81672 0
M  V30 12446 H 1200.9 5.32365 3.69448 0
M  V30 12447 N 1194.3 -1.0692 1.15784 0
M  V30 12448 C 1195.55 -1.8002 0.946795 0
M  V30 12449 C 1195.91 -1.85232 -0.520268 0
M  V30 12450 O 1195.2 -1.32825 -1.38087 0
M  V30 12451 C 1195.39 -3.24389 1.50022 0
M  V30 12452 C 1195.22 -3.33245 3.01957 0
M  V30 12453 C 1193.99 -3.43549 3.70543 0
M  V30 12454 C 1196.19 -3.23634 3.99707 0
M  V30 12455 N 1194.17 -3.41354 5.10246 0
M  V30 12456 C 1195.54 -3.28608 5.25754 0
M  V30 12457 C 1197.6 -3.07475 3.91617 0
M  V30 12458 C 1196.3 -3.19084 6.44653 0
M  V30 12459 C 1198.33 -2.99286 5.1008 0
M  V30 12460 C 1197.69 -3.04876 6.35004 0
M  V30 12461 H 1193.79 -0.671859 0.400162 0
M  V30 12462 H 1196.37 -1.27592 1.47066 0
M  V30 12463 H 1194.54 -3.75228 1.00293 0
M  V30 12464 H 1196.27 -3.85633 1.22756 0
M  V30 12465 H 1193.03 -3.48079 3.21151 0
M  V30 12466 H 1193.45 -3.43772 5.83223 0
M  V30 12467 H 1198.1 -3.02004 2.95895 0
M  V30 12468 H 1195.81 -3.23313 7.40604 0
M  V30 12469 H 1199.4 -2.8788 5.05585 0
M  V30 12470 H 1198.28 -2.9859 7.2513 0
M  V30 12471 N 1195.78 -0.955326 -1.25345 0
M  V30 12472 C 1196.72 -0.420299 -2.24296 0
M  V30 12473 C 1197.69 0.498753 -1.54762 0
M  V30 12474 O 1198.88 0.432971 -1.8346 0
M  V30 12475 C 1196 0.394576 -3.36394 0
M  V30 12476 C 1195.05 -0.464973 -4.23958 0
M  V30 12477 S 1195.88 -1.89764 -5.00749 0
M  V30 12478 C 1197.04 -1.09121 -6.16314 0
M  V30 12479 H 1197.27 -1.25888 -2.69331 0
M  V30 12480 H 1194.81 -0.759449 -1.34431 0
M  V30 12481 H 1196.76 0.858788 -4.01416 0
M  V30 12482 H 1195.42 1.20799 -2.89942 0
M  V30 12483 H 1194.62 0.160055 -5.03746 0
M  V30 12484 H 1194.22 -0.864422 -3.63873 0
M  V30 12485 H 1196.51 -0.340218 -6.76645 0
M  V30 12486 H 1197.45 -1.86304 -6.83152 0
M  V30 12487 H 1197.86 -0.621033 -5.61073 0
M  V30 12488 N 1197.26 1.39987 -0.723979 0
M  V30 12489 C 1198.22 2.29041 -0.0854583 0
M  V30 12490 C 1199.22 1.45777 0.678657 0
M  V30 12491 O 1200.41 1.66588 0.509311 0
M  V30 12492 C 1197.55 3.29115 0.88859 0
M  V30 12493 H 1198.74 2.87006 -0.869903 0
M  V30 12494 H 1196.29 1.48449 -0.489136 0
M  V30 12495 H 1197.03 2.76184 1.69979 0
M  V30 12496 H 1196.81 3.90593 0.343454 0
M  V30 12497 H 1198.3 3.95778 1.33227 0
M  V30 12498 N 1198.74 0.470782 1.50404 0
M  V30 12499 C 1199.99 -0.0765611 2.03256 0
M  V30 12500 C 1200.34 -1.37435 1.34646 0
M  V30 12501 O 1199.63 -1.85918 0.463152 0
M  V30 12502 C 1199.83 -0.316419 3.55997 0
M  V30 12503 C 1199.66 0.956569 4.39409 0
M  V30 12504 C 1198.43 1.49978 4.82529 0
M  V30 12505 C 1200.62 1.85188 4.79802 0
M  V30 12506 N 1198.61 2.72182 5.50264 0
M  V30 12507 C 1199.98 2.9198 5.46944 0
M  V30 12508 C 1202.03 1.86229 4.61761 0
M  V30 12509 C 1200.74 3.99802 5.97955 0
M  V30 12510 C 1202.76 2.93008 5.13712 0
M  V30 12511 C 1202.12 3.98519 5.80829 0
M  V30 12512 H 1198.22 0.0120036 0.781908 0
M  V30 12513 H 1200.81 0.638919 1.83918 0
M  V30 12514 H 1198.98 -1.00094 3.75281 0
M  V30 12515 H 1200.71 -0.858077 3.95499 0
M  V30 12516 H 1197.46 1.04901 4.61836 0
M  V30 12517 H 1197.89 3.34241 5.88737 0
M  V30 12518 H 1202.53 1.05974 4.09303 0
M  V30 12519 H 1200.25 4.80875 6.4945 0
M  V30 12520 H 1203.83 2.94797 5.01584 0
M  V30 12521 H 1202.71 4.79784 6.20304 0
M  V30 12522 N 1200.22 -1.56282 0.203376 0
M  V30 12523 C 1201.13 -2.23086 -0.725922 0
M  V30 12524 C 1202.14 -1.23258 -1.22814 0
M  V30 12525 O 1203.32 -1.5602 -1.27357 0
M  V30 12526 C 1200.38 -2.88358 -1.92485 0
M  V30 12527 C 1199.45 -4.03479 -1.46639 0
M  V30 12528 C 1198.68 -4.65629 -2.60816 0
M  V30 12529 O 1198.9 -4.2672 -3.78506 0
M  V30 12530 O 1197.84 -5.54949 -2.33056 0
M  V30 12531 H 1201.66 -3.03124 -0.18694 0
M  V30 12532 H 1199.25 -1.49377 -0.0262829 0
M  V30 12533 H 1201.13 -3.29623 -2.62539 0
M  V30 12534 H 1199.8 -2.11294 -2.45228 0
M  V30 12535 H 1198.71 -3.66821 -0.734396 0
M  V30 12536 H 1200.04 -4.82232 -0.985535 0
M  V30 12537 N 1201.7 0.070167 -1.57444 0
M  V30 12538 C 1202.94 0.774338 -1.89165 0
M  V30 12539 C 1203.3 1.7466 -0.797353 0
M  V30 12540 O 1204.5 2.49599 -0.997682 0
M  V30 12541 C 1202.77 1.46235 -3.26114 0
M  V30 12542 S 1204.33 2.20136 -3.79586 0
M  V30 12543 H 1201.15 0.257464 -0.662747 0
M  V30 12544 H 1203.75 0.0303734 -1.95476 0
M  V30 12545 H 1202.45 0.740942 -4.03656 0
M  V30 12546 H 1201.99 2.24571 -3.23004 0
M  V30 12547 H 1204 3.4668 -3.55003 0
M  V30 12548 N 1203.17 1.53854 0.341593 0
M  V30 12549 C 1204.42 1.7041 1.07905 0
M  V30 12550 C 1204.74 0.475039 1.89744 0
M  V30 12551 O 1205.94 0.521589 2.66443 0
M  V30 12552 C 1204.4 3.01342 1.96776 0
M  V30 12553 C 1204.01 4.31592 1.20135 0
M  V30 12554 C 1205.75 3.27264 2.70367 0
M  V30 12555 C 1203.66 5.53598 2.08047 0
M  V30 12556 H 1202.59 0.635005 0.406553 0
M  V30 12557 H 1205.24 1.80353 0.338409 0
M  V30 12558 H 1203.62 2.85261 2.74667 0
M  V30 12559 H 1204.79 4.58382 0.471404 0
M  V30 12560 H 1203.11 4.12298 0.583039 0
M  V30 12561 H 1205.71 4.15607 3.36415 0
M  V30 12562 H 1206.05 2.44357 3.37039 0
M  V30 12563 H 1206.58 3.4413 1.99548 0
M  V30 12564 H 1203.32 6.39053 1.45914 0
M  V30 12565 H 1202.84 5.31052 2.78825 0
M  V30 12566 H 1204.52 5.89314 2.67055 0
M  V30 12567 N 1204.65 -0.602709 1.4562 0
M  V30 12568 C 1205.58 -1.72374 1.5751 0
M  V30 12569 C 1206.56 -1.64669 0.426389 0
M  V30 12570 O 1207.75 -1.82994 0.650143 0
M  V30 12571 C 1204.88 -3.10987 1.5461 0
M  V30 12572 C 1203.83 -3.33507 2.68248 0
M  V30 12573 C 1203.16 -4.72443 2.50403 0
M  V30 12574 C 1204.46 -3.23285 4.10224 0
M  V30 12575 H 1206.15 -1.62679 2.51348 0
M  V30 12576 H 1203.7 -0.781217 1.20967 0
M  V30 12577 H 1205.65 -3.89214 1.61525 0
M  V30 12578 H 1204.37 -3.21533 0.573049 0
M  V30 12579 H 1203.03 -2.57672 2.60769 0
M  V30 12580 H 1202.68 -4.79729 1.51226 0
M  V30 12581 H 1202.38 -4.88466 3.26611 0
M  V30 12582 H 1203.91 -5.52864 2.59179 0
M  V30 12583 H 1205.32 -3.91381 4.1892 0
M  V30 12584 H 1203.72 -3.50837 4.86861 0
M  V30 12585 H 1204.79 -2.20652 4.31788 0
M  V30 12586 N 1206.13 -1.32992 -0.845635 0
M  V30 12587 C 1207.06 -1.17018 -1.95913 0
M  V30 12588 C 1208.04 -0.0673433 -1.6246 0
M  V30 12589 O 1209.22 -0.22833 -1.87112 0
M  V30 12590 C 1206.35 -0.793343 -3.29278 0
M  V30 12591 C 1205.4 -1.90271 -3.81705 0
M  V30 12592 S 1206.23 -3.51256 -4.04202 0
M  V30 12593 C 1207.39 -3.15564 -5.40528 0
M  V30 12594 H 1207.62 -2.11278 -2.09163 0
M  V30 12595 H 1205.15 -1.17756 -0.998644 0
M  V30 12596 H 1207.11 -0.582694 -4.06343 0
M  V30 12597 H 1205.77 0.130539 -3.13829 0
M  V30 12598 H 1204.96 -1.59225 -4.78188 0
M  V30 12599 H 1204.57 -2.06968 -3.11513 0
M  V30 12600 H 1206.86 -2.65969 -6.23111 0
M  V30 12601 H 1207.8 -4.11102 -5.76542 0
M  V30 12602 H 1208.21 -2.52341 -5.04959 0
M  V30 12603 N 1207.61 1.06304 -1.1635 0
M  V30 12604 C 1208.86 1.78747 -0.943074 0
M  V30 12605 C 1209.18 1.87646 0.530483 0
M  V30 12606 O 1208.45 1.38506 1.38538 0
M  V30 12607 H 1207.03 0.662072 -0.345932 0
M  V30 12608 H 1209.69 1.28413 -1.46615 0
M  V30 12609 H 1208.78 2.80828 -1.3617 0
M  V30 12610 N 1209.09 0.96196 1.24836 0
M  V30 12611 C 1210.03 0.48686 2.25607 0
M  V30 12612 C 1211 -0.464546 1.59472 0
M  V30 12613 O 1212.19 -0.376179 1.87055 0
M  V30 12614 C 1209.33 -0.222294 3.44383 0
M  V30 12615 C 1208.44 0.767206 4.25133 0
M  V30 12616 C 1207.58 0.0347458 5.31189 0
M  V30 12617 C 1206.61 1.01469 6.03631 0
M  V30 12618 N 1205.75 0.312619 7.01404 0
M  V30 12619 H 1210.59 1.35104 2.65614 0
M  V30 12620 H 1208.13 0.677373 1.30576 0
M  V30 12621 H 1210.09 -0.650087 4.12104 0
M  V30 12622 H 1208.72 -1.05047 3.0523 0
M  V30 12623 H 1207.77 1.31346 3.57005 0
M  V30 12624 H 1209.08 1.5147 4.75245 0
M  V30 12625 H 1208.23 -0.451325 6.05019 0
M  V30 12626 H 1206.97 -0.745485 4.81969 0
M  V30 12627 H 1205.98 1.51169 5.28609 0
M  V30 12628 H 1207.2 1.79527 6.5494 0
M  V30 12629 H 1205.15 -0.44874 6.54463 0
M  V30 12630 H 1205.07 0.999079 7.49369 0
M  V30 12631 H 1206.33 -0.151673 7.79352 0
M  V30 12632 N 1210.56 -1.39601 0.731392 0
M  V30 12633 C 1211.81 -2.00586 0.277756 0
M  V30 12634 C 1212.14 -1.58027 -1.13391 0
M  V30 12635 O 1211.39 -0.798691 -1.7866 0
M  V30 12636 C 1211.69 -3.55934 0.323352 0
M  V30 12637 C 1211.36 -4.18131 1.68753 0
M  V30 12638 C 1210.02 -4.34833 2.06092 0
M  V30 12639 C 1212.37 -4.5267 2.58339 0
M  V30 12640 C 1209.7 -4.83362 3.32532 0
M  V30 12641 C 1212.05 -5.02607 3.84148 0
M  V30 12642 C 1210.72 -5.17517 4.21584 0
M  V30 12643 H 1209.99 -0.733996 0.101638 0
M  V30 12644 H 1212.63 -1.66981 0.937528 0
M  V30 12645 H 1210.94 -3.89542 -0.419995 0
M  V30 12646 H 1212.64 -4.00974 -0.0457235 0
M  V30 12647 H 1209.23 -4.0553 1.38722 0
M  V30 12648 H 1213.41 -4.39388 2.30763 0
M  V30 12649 H 1208.67 -4.93091 3.61485 0
M  V30 12650 H 1212.84 -5.28306 4.53724 0
M  V30 12651 H 1210.47 -5.54882 5.19625 0
M  V30 12652 N 1212.04 -0.478751 -1.50152 0
M  V30 12653 C 1213.27 0.0710485 -2.06778 0
M  V30 12654 C 1213.69 1.32826 -1.34174 0
M  V30 12655 O 1213.04 1.77758 -0.413304 0
M  V30 12656 C 1213.09 0.351351 -3.59789 0
M  V30 12657 O 1212.81 -0.855998 -4.29656 0
M  V30 12658 C 1214.32 0.947269 -4.33061 0
M  V30 12659 H 1211.54 -0.0105032 -0.670918 0
M  V30 12660 H 1214.08 -0.669732 -1.93222 0
M  V30 12661 H 1212.23 1.04207 -3.73121 0
M  V30 12662 H 1212.65 -0.605252 -5.20996 0
M  V30 12663 H 1214.12 1.09312 -5.41068 0
M  V30 12664 H 1214.6 1.93937 -3.94062 0
M  V30 12665 H 1215.21 0.294693 -4.24278 0
M  V30 12666 N 1213.52 1.56172 -0.211661 0
M  V30 12667 C 1214.75 2.02428 0.427843 0
M  V30 12668 C 1215.16 1.09162 1.54043 0
M  V30 12669 O 1214.52 0.0994249 1.82229 0
M  V30 12670 C 1214.57 3.48279 0.968728 0
M  V30 12671 O 1214.29 4.37987 -0.0994841 0
M  V30 12672 C 1215.79 4.10132 1.68246 0
M  V30 12673 H 1213.01 0.662611 0.10577 0
M  V30 12674 H 1215.56 2.01897 -0.32522 0
M  V30 12675 H 1213.71 3.49456 1.6721 0
M  V30 12676 H 1214.13 5.23609 0.305558 0
M  V30 12677 H 1215.6 5.13985 2.01304 0
M  V30 12678 H 1216.08 3.54552 2.5921 0
M  V30 12679 H 1216.68 4.12775 1.02453 0
M  V30 12680 N 1215 -0.0618163 1.57479 0
M  V30 12681 C 1215.96 -1.05684 2.0338 0
M  V30 12682 C 1216.96 -1.31006 0.932423 0
M  V30 12683 O 1218.15 -1.26559 1.19702 0
M  V30 12684 C 1215.28 -2.39805 2.42294 0
M  V30 12685 H 1216.48 -0.661006 2.92525 0
M  V30 12686 H 1214.03 -0.307814 1.53239 0
M  V30 12687 H 1214.76 -2.84201 1.56207 0
M  V30 12688 H 1214.55 -2.22764 3.22674 0
M  V30 12689 H 1216.04 -3.11307 2.78349 0
M  V30 12690 N 1216.48 -1.54033 -0.333429 0
M  V30 12691 C 1217.7 -1.76031 -1.09672 0
M  V30 12692 C 1218.13 -0.502844 -1.81254 0
M  V30 12693 O 1217.48 0.54509 -1.72912 0
M  V30 12694 C 1217.53 -2.947 -2.07809 0
M  V30 12695 O 1216.64 -2.65555 -3.15522 0
M  V30 12696 H 1215.98 -0.583611 -0.316692 0
M  V30 12697 H 1218.51 -2.01026 -0.380732 0
M  V30 12698 H 1218.52 -3.21771 -2.50853 0
M  V30 12699 H 1217.19 -3.85895 -1.55106 0
M  V30 12700 H 1215.77 -2.49403 -2.77223 0
M  V30 12701 N 1217.95 0.594978 -1.45938 0
M  V30 12702 C 1219.23 1.35477 -1.41086 0
M  V30 12703 C 1219.61 2.10917 -0.0879512 0
M  V30 12704 O 1218.96 2.08704 0.930323 0
M  V30 12705 C 1219.17 2.29106 -2.63271 0
M  V30 12706 C 1220.52 2.9132 -3.08898 0
M  V30 12707 O 1221.54 2.39423 -2.63733 0
M  V30 12708 O 1220.4 3.85553 -3.87313 0
M  V30 12709 H 1217.49 0.6081 -0.560485 0
M  V30 12710 H 1220.04 0.617016 -1.58085 0
M  V30 12711 H 1218.81 1.72707 -3.51124 0
M  V30 12712 H 1218.44 3.10241 -2.48669 0
M  V30 12713 N 1219.43 1.33438 0.838571 0
M  V30 12714 C 1220.68 1.25097 1.5962 0
M  V30 12715 C 1221.01 -0.182798 1.93338 0
M  V30 12716 O 1220.29 -1.1242 1.5872 0
M  V30 12717 C 1220.57 2.12655 2.90603 0
M  V30 12718 C 1220.42 3.64491 2.63565 0
M  V30 12719 C 1221.74 1.99994 3.92033 0
M  V30 12720 H 1218.86 0.455776 0.579169 0
M  V30 12721 H 1221.5 1.63542 0.967169 0
M  V30 12722 H 1219.65 1.79998 3.44286 0
M  V30 12723 H 1221.32 4.0744 2.16312 0
M  V30 12724 H 1219.57 3.86356 1.9726 0
M  V30 12725 H 1220.24 4.21101 3.569 0
M  V30 12726 H 1222.71 2.28635 3.47657 0
M  V30 12727 H 1221.59 2.63509 4.81512 0
M  V30 12728 H 1221.85 0.972263 4.31277 0
M  V30 12729 N 1220.91 -1.05686 1.16912 0
M  V30 12730 C 1222.16 -1.79006 0.965835 0
M  V30 12731 C 1222.51 -1.85774 -0.500593 0
M  V30 12732 O 1221.8 -1.34282 -1.3667 0
M  V30 12733 C 1222 -3.22779 1.53455 0
M  V30 12734 C 1221.83 -3.30023 3.05474 0
M  V30 12735 C 1220.6 -3.396 3.74166 0
M  V30 12736 C 1222.8 -3.19376 4.03117 0
M  V30 12737 N 1220.78 -3.35923 5.13838 0
M  V30 12738 C 1222.15 -3.23013 5.2921 0
M  V30 12739 C 1224.2 -3.03304 3.94856 0
M  V30 12740 C 1222.91 -3.12228 6.48002 0
M  V30 12741 C 1224.93 -2.93859 5.13226 0
M  V30 12742 C 1224.29 -2.98124 6.38202 0
M  V30 12743 H 1220.39 -0.667577 0.407266 0
M  V30 12744 H 1222.98 -1.26025 1.48411 0
M  V30 12745 H 1221.15 -3.74143 1.04268 0
M  V30 12746 H 1222.88 -3.8431 1.26839 0
M  V30 12747 H 1219.64 -3.44654 3.24824 0
M  V30 12748 H 1220.06 -3.37567 5.86837 0
M  V30 12749 H 1224.7 -2.98848 2.99081 0
M  V30 12750 H 1222.42 -3.15439 7.43992 0
M  V30 12751 H 1226.01 -2.82501 5.0861 0
M  V30 12752 H 1224.89 -2.90882 7.28256 0
M  V30 12753 N 1222.39 -0.968567 -1.24324 0
M  V30 12754 C 1223.35 -0.504307 -2.23583 0
M  V30 12755 C 1224.35 0.399626 -1.55755 0
M  V30 12756 O 1225.54 0.194966 -1.73106 0
M  V30 12757 C 1222.67 0.26956 -3.39833 0
M  V30 12758 H 1223.87 -1.3818 -2.6617 0
M  V30 12759 H 1221.42 -0.753241 -1.36952 0
M  V30 12760 H 1222.15 1.16411 -3.02686 0
M  V30 12761 H 1221.94 -0.379133 -3.90263 0
M  V30 12762 H 1223.43 0.583376 -4.13505 0
M  V30 12763 N 1223.87 1.39211 -0.738786 0
M  V30 12764 C 1225.11 2.00436 -0.28839 0
M  V30 12765 C 1225.44 1.58626 1.12552 0
M  V30 12766 O 1224.7 0.808154 1.78234 0
M  V30 12767 C 1225 3.55758 -0.342224 0
M  V30 12768 C 1224.66 4.1723 -1.70968 0
M  V30 12769 C 1223.32 4.33734 -2.08395 0
M  V30 12770 C 1225.68 4.51294 -2.60736 0
M  V30 12771 C 1223 4.81592 -3.35091 0
M  V30 12772 C 1225.36 5.00562 -3.86808 0
M  V30 12773 C 1224.02 5.15274 -4.24322 0
M  V30 12774 H 1223.29 0.733447 -0.105529 0
M  V30 12775 H 1225.94 1.66481 -0.94637 0
M  V30 12776 H 1224.24 3.8976 0.399331 0
M  V30 12777 H 1225.94 4.00993 0.0244582 0
M  V30 12778 H 1222.53 4.04788 -1.4087 0
M  V30 12779 H 1226.71 4.38158 -2.3309 0
M  V30 12780 H 1221.97 4.91167 -3.64095 0
M  V30 12781 H 1226.14 5.25892 -4.5652 0
M  V30 12782 H 1223.77 5.52119 -5.2256 0
M  V30 12783 N 1225.34 0.486708 1.49896 0
M  V30 12784 C 1226.59 -0.0627279 2.02003 0
M  V30 12785 C 1226.91 -1.38799 1.36967 0
M  V30 12786 O 1226.18 -1.88868 0.520173 0
M  V30 12787 H 1224.76 -0.0261718 0.746541 0
M  V30 12788 H 1227.43 0.640692 1.84068 0
M  V30 12789 H 1226.52 -0.202856 3.1144 0
M  V30 12790 N 1226.82 -1.56058 0.219941 0
M  V30 12791 C 1228.07 -1.98554 -0.412808 0
M  V30 12792 C 1228.4 -1.10742 -1.5953 0
M  V30 12793 O 1227.68 -0.164757 -1.93801 0
M  V30 12794 C 1227.96 -3.4995 -0.848923 0
M  V30 12795 C 1227.81 -4.48535 0.337094 0
M  V30 12796 C 1229.13 -4.05703 -1.70567 0
M  V30 12797 H 1226.25 -0.721869 -0.148576 0
M  V30 12798 H 1228.89 -1.87356 0.315852 0
M  V30 12799 H 1227.04 -3.59624 -1.46979 0
M  V30 12800 H 1228.72 -4.50874 0.975216 0
M  V30 12801 H 1226.96 -4.22474 0.984798 0
M  V30 12802 H 1227.63 -5.51999 -0.0109665 0
M  V30 12803 H 1230.11 -3.98964 -1.18182 0
M  V30 12804 H 1228.98 -5.11955 -1.97972 0
M  V30 12805 H 1229.24 -3.52487 -2.66844 0
M  V30 12806 N 1228.3 0.053464 -1.57509 0
M  V30 12807 C 1229.53 0.761533 -1.92375 0
M  V30 12808 C 1229.94 1.70179 -0.817585 0
M  V30 12809 O 1229.3 1.81313 0.207843 0
M  V30 12810 C 1229.35 1.53954 -3.27078 0
M  V30 12811 O 1229.07 0.637054 -4.33443 0
M  V30 12812 C 1230.57 2.34697 -3.76075 0
M  V30 12813 H 1227.79 0.215483 -0.635459 0
M  V30 12814 H 1230.34 0.0182624 -2.04492 0
M  V30 12815 H 1228.49 2.23492 -3.16434 0
M  V30 12816 H 1228.91 1.18006 -5.11053 0
M  V30 12817 H 1230.38 2.84716 -4.72906 0
M  V30 12818 H 1230.86 3.15041 -3.06016 0
M  V30 12819 H 1231.46 1.70281 -3.89724 0
M  V30 12820 N 1229.78 1.54207 0.325255 0
M  V30 12821 C 1230.71 1.86467 1.40543 0
M  V30 12822 C 1231.69 0.721324 1.54048 0
M  V30 12823 O 1232.88 0.974905 1.67956 0
M  V30 12824 C 1230.01 2.09052 2.77335 0
M  V30 12825 C 1228.96 3.24893 2.78619 0
M  V30 12826 C 1228.29 3.32846 4.1847 0
M  V30 12827 C 1229.59 4.62582 2.42518 0
M  V30 12828 H 1231.28 2.76932 1.13794 0
M  V30 12829 H 1228.83 1.33248 0.545971 0
M  V30 12830 H 1230.78 2.30204 3.52964 0
M  V30 12831 H 1229.5 1.15335 3.05558 0
M  V30 12832 H 1228.16 3.03625 2.05444 0
M  V30 12833 H 1227.81 2.3669 4.43832 0
M  V30 12834 H 1227.51 4.10701 4.20237 0
M  V30 12835 H 1229.03 3.56231 4.95915 0
M  V30 12836 H 1230.45 4.83627 3.07861 0
M  V30 12837 H 1228.84 5.42974 2.55538 0
M  V30 12838 H 1229.91 4.64946 1.3767 0
M  V30 12839 N 1231.26 -0.58723 1.46251 0
M  V30 12840 C 1232.5 -1.34549 1.52539 0
M  V30 12841 C 1232.86 -1.91622 0.172885 0
M  V30 12842 O 1232.15 -1.73267 -0.81787 0
M  V30 12843 C 1232.35 -2.49776 2.5563 0
M  V30 12844 C 1232.17 -2.03991 4.00772 0
M  V30 12845 C 1230.94 -1.89216 4.68535 0
M  V30 12846 C 1233.14 -1.60227 4.88704 0
M  V30 12847 N 1231.12 -1.37454 5.98314 0
M  V30 12848 C 1232.5 -1.20024 6.08271 0
M  V30 12849 C 1234.55 -1.48004 4.75394 0
M  V30 12850 C 1233.25 -0.688163 7.16001 0
M  V30 12851 C 1235.28 -0.981991 5.8319 0
M  V30 12852 C 1234.64 -0.589721 7.01927 0
M  V30 12853 H 1230.74 -0.485499 0.613037 0
M  V30 12854 H 1233.32 -0.669117 1.82841 0
M  V30 12855 H 1231.5 -3.14983 2.27245 0
M  V30 12856 H 1233.23 -3.16715 2.5194 0
M  V30 12857 H 1229.98 -2.11025 4.23988 0
M  V30 12858 H 1230.41 -1.13748 6.67376 0
M  V30 12859 H 1235.05 -1.76951 3.8399 0
M  V30 12860 H 1232.77 -0.386268 8.07176 0
M  V30 12861 H 1236.35 -0.891387 5.74931 0
M  V30 12862 H 1235.23 -0.210279 7.83918 0
M  V30 12863 N 1232.74 -1.33881 -0.831482 0
M  V30 12864 C 1233.65 -1.26802 -1.97379 0
M  V30 12865 C 1234.66 -0.177233 -1.73095 0
M  V30 12866 O 1235.84 -0.402163 -1.97344 0
M  V30 12867 C 1232.9 -1.01474 -3.31517 0
M  V30 12868 C 1231.96 -2.19626 -3.68867 0
M  V30 12869 C 1231.2 -1.95497 -4.96605 0
M  V30 12870 O 1231.42 -0.908948 -5.63111 0
M  V30 12871 O 1230.35 -2.82226 -5.31632 0
M  V30 12872 H 1234.18 -2.22883 -2.06293 0
M  V30 12873 H 1231.76 -1.14001 -0.965613 0
M  V30 12874 H 1233.65 -0.890954 -4.11874 0
M  V30 12875 H 1232.32 -0.0842656 -3.2359 0
M  V30 12876 H 1231.23 -2.37561 -2.88991 0
M  V30 12877 H 1232.56 -3.11034 -3.81469 0
M  V30 12878 N 1234.21 1.05064 -1.1747 0
M  V30 12879 C 1235.46 1.78352 -0.965311 0
M  V30 12880 C 1235.79 1.87527 0.504707 0
M  V30 12881 O 1235.07 1.376 1.37465 0
M  V30 12882 C 1235.35 3.22173 -1.60862 0
M  V30 12883 C 1235.2 3.21003 -3.15083 0
M  V30 12884 C 1236.52 4.2004 -1.31358 0
M  V30 12885 H 1233.64 0.647452 -0.352101 0
M  V30 12886 H 1236.28 1.22794 -1.44988 0
M  V30 12887 H 1234.43 3.69613 -1.19658 0
M  V30 12888 H 1236.11 2.81629 -3.65353 0
M  V30 12889 H 1234.35 2.59309 -3.47766 0
M  V30 12890 H 1235.02 4.22516 -3.55224 0
M  V30 12891 H 1237.5 3.81099 -1.6704 0
M  V30 12892 H 1236.37 5.1891 -1.78953 0
M  V30 12893 H 1236.63 4.41477 -0.234606 0
M  V30 12894 N 1235.69 0.975146 1.23809 0
M  V30 12895 C 1236.62 0.530389 2.27396 0
M  V30 12896 C 1237.6 -0.433763 1.64476 0
M  V30 12897 O 1238.79 -0.32827 1.91405 0
M  V30 12898 C 1235.92 -0.173066 3.46869 0
M  V30 12899 C 1234.87 0.707844 4.22106 0
M  V30 12900 C 1234.2 -0.127527 5.34548 0
M  V30 12901 C 1235.5 1.99609 4.82652 0
M  V30 12902 H 1237.19 1.39622 2.64851 0
M  V30 12903 H 1234.74 0.672802 1.27316 0
M  V30 12904 H 1236.69 -0.495481 4.18477 0
M  V30 12905 H 1235.41 -1.0733 3.0846 0
M  V30 12906 H 1234.07 1.01364 3.52308 0
M  V30 12907 H 1233.72 -1.02814 4.9238 0
M  V30 12908 H 1233.42 0.458728 5.85807 0
M  V30 12909 H 1234.95 -0.444443 6.0898 0
M  V30 12910 H 1236.36 1.73878 5.46296 0
M  V30 12911 H 1234.76 2.52969 5.44175 0
M  V30 12912 H 1235.83 2.68629 4.03691 0
M  V30 12913 N 1237.17 -1.38817 0.746158 0
M  V30 12914 C 1238.1 -2.28116 0.0620717 0
M  V30 12915 C 1239.08 -1.44984 -0.736097 0
M  V30 12916 O 1240.26 -1.7436 -0.7163 0
M  V30 12917 C 1237.39 -3.25992 -0.919065 0
M  V30 12918 C 1236.44 -4.25992 -0.208033 0
M  V30 12919 S 1237.27 -5.24374 1.08593 0
M  V30 12920 C 1238.43 -6.25807 0.107674 0
M  V30 12921 H 1238.66 -2.85787 0.819331 0
M  V30 12922 H 1236.19 -1.44708 0.538422 0
M  V30 12923 H 1238.15 -3.82899 -1.47982 0
M  V30 12924 H 1236.81 -2.67318 -1.64924 0
M  V30 12925 H 1236 -4.9495 -0.95084 0
M  V30 12926 H 1235.61 -3.72943 0.280998 0
M  V30 12927 H 1237.9 -6.73568 -0.728905 0
M  V30 12928 H 1238.84 -7.03959 0.764698 0
M  V30 12929 H 1239.25 -5.63855 -0.269706 0
M  V30 12930 N 1238.65 -0.49465 -1.49636 0
M  V30 12931 C 1239.58 0.276606 -2.31856 0
M  V30 12932 C 1240.56 0.968499 -1.39836 0
M  V30 12933 O 1241.74 0.96113 -1.68748 0
M  V30 12934 C 1238.87 1.34522 -3.20189 0
M  V30 12935 C 1237.83 0.773571 -4.20951 0
M  V30 12936 C 1237.15 1.94223 -4.98178 0
M  V30 12937 C 1238.45 -0.231096 -5.21788 0
M  V30 12938 H 1240.15 -0.409668 -2.96584 0
M  V30 12939 H 1237.69 -0.198461 -1.42626 0
M  V30 12940 H 1239.65 1.89244 -3.76517 0
M  V30 12941 H 1238.37 2.06059 -2.53392 0
M  V30 12942 H 1237.03 0.248144 -3.65759 0
M  V30 12943 H 1236.68 2.64514 -4.27834 0
M  V30 12944 H 1236.38 1.56584 -5.66353 0
M  V30 12945 H 1237.9 2.49391 -5.57348 0
M  V30 12946 H 1239.32 0.227768 -5.72847 0
M  V30 12947 H 1237.71 -0.522984 -5.97817 0
M  V30 12948 H 1238.78 -1.14914 -4.71087 0
M  V30 12949 N 1240.13 1.55939 -0.228214 0
M  V30 12950 C 1241.37 2.00379 0.403442 0
M  V30 12951 C 1241.73 1.11264 1.56475 0
M  V30 12952 O 1242.93 1.45079 2.26287 0
M  V30 12953 C 1241.2 3.47851 0.820649 0
M  V30 12954 S 1242.76 4.14309 1.44547 0
M  V30 12955 H 1239.58 0.699426 0.127768 0
M  V30 12956 H 1242.18 1.92537 -0.339066 0
M  V30 12957 H 1240.88 4.10386 -0.0341308 0
M  V30 12958 H 1240.42 3.5958 1.5958 0
M  V30 12959 H 1242.43 4.14048 2.73456 0
M  V30 12960 N 1241.6 -0.0451101 1.57535 0
M  V30 12961 C 1243.02 -0.400463 1.54494 0
M  V30 12962 C 1243.22 -1.77584 0.952166 0
M  V30 12963 O 1242.28 -2.46069 0.566221 0
M  V30 12964 C 1243.59 -0.31703 2.99024 0
M  V30 12965 C 1245.14 -0.395284 3.10494 0
M  V30 12966 C 1245.61 -0.341475 4.56725 0
M  V30 12967 N 1247.1 -0.400755 4.61463 0
M  V30 12968 C 1247.84 -0.381757 5.72128 0
M  V30 12969 N 1247.33 -0.315995 6.92079 0
M  V30 12970 N 1249.13 -0.4303 5.60451 0
M  V30 12971 H 1241.28 0.855156 1.94424 0
M  V30 12972 H 1243.54 0.323618 0.891053 0
M  V30 12973 H 1243.25 0.627477 3.46057 0
M  V30 12974 H 1243.12 -1.11696 3.60283 0
M  V30 12975 H 1245.51 -1.33022 2.63418 0
M  V30 12976 H 1245.59 0.433709 2.52096 0
M  V30 12977 H 1245.23 0.589725 5.04465 0
M  V30 12978 H 1245.16 -1.18836 5.13016 0
M  V30 12979 H 1247.65 -0.454745 3.75154 0
M  V30 12980 H 1247.97 -0.306158 7.72193 0
M  V30 12981 H 1246.31 -0.282281 6.94427 0
M  V30 12982 H 1249.5 -0.479555 4.65637 0
M  V30 12983 H 1249.68 -0.412025 6.46689 0
M  V30 12984 N 1243.08 -1.54377 -0.317073 0
M  V30 12985 C 1244.05 -1.83488 -1.37349 0
M  V30 12986 C 1245.05 -0.706981 -1.44424 0
M  V30 12987 O 1246.24 -0.975289 -1.44339 0
M  V30 12988 C 1243.37 -2.00074 -2.76013 0
M  V30 12989 H 1244.56 -2.77883 -1.12789 0
M  V30 12990 H 1242.11 -1.46194 -0.552902 0
M  V30 12991 H 1242.85 -1.07913 -3.05819 0
M  V30 12992 H 1242.63 -2.82155 -2.7227 0
M  V30 12993 H 1244.12 -2.24022 -3.52426 0
M  V30 12994 N 1244.56 0.579466 -1.4656 0
M  V30 12995 C 1245.49 1.70291 -1.53406 0
M  V30 12996 C 1246.51 1.57232 -0.422116 0
M  V30 12997 O 1247.69 1.64598 -0.69064 0
M  V30 12998 C 1244.79 3.08572 -1.40131 0
M  V30 12999 C 1243.97 3.47602 -2.65502 0
M  V30 13000 C 1243.03 4.64955 -2.4638 0
M  V30 13001 O 1242.05 4.70653 -3.20116 0
M  V30 13002 N 1243.25 5.60041 -1.52756 0
M  V30 13003 H 1246.02 1.64873 -2.50274 0
M  V30 13004 H 1243.58 0.765533 -1.42658 0
M  V30 13005 H 1245.57 3.84877 -1.25106 0
M  V30 13006 H 1244.14 3.0834 -0.514322 0
M  V30 13007 H 1243.36 2.60969 -2.95446 0
M  V30 13008 H 1244.65 3.70446 -3.48779 0
M  V30 13009 H 1244.05 5.58176 -0.919587 0
M  V30 13010 H 1242.61 6.35764 -1.43693 0
M  V30 13011 N 1246.04 1.3432 0.824371 0
M  V30 13012 C 1247.45 1.23855 1.39703 0
M  V30 13013 C 1247.8 -0.136566 1.95724 0
M  V30 13014 O 1246.93 -1.03683 1.89944 0
M  V30 13015 C 1247.52 2.24249 2.53965 0
M  V30 13016 C 1246.08 2.17578 3.07143 0
M  V30 13017 C 1245.23 2.10933 1.80008 0
M  V30 13018 H 1248.18 1.45707 0.628891 0
M  V30 13019 H 1248.2 1.85864 3.32016 0
M  V30 13020 H 1247.71 3.24321 2.13161 0
M  V30 13021 H 1245.81 1.20858 3.52455 0
M  V30 13022 H 1245.92 3.08769 3.66331 0
M  V30 13023 H 1244.29 1.56631 2.00845 0
M  V30 13024 H 1245.07 3.12836 1.4138 0
M  V30 13025 N 1247.52 -1.0444 1.18026 0
M  V30 13026 C 1248.76 -1.77575 0.973314 0
M  V30 13027 C 1249.09 -1.88032 -0.4974 0
M  V30 13028 O 1248.35 -1.38214 -1.38548 0
M  V30 13029 C 1248.65 -3.21134 1.56869 0
M  V30 13030 C 1248.31 -3.30718 3.0649 0
M  V30 13031 C 1246.97 -3.33041 3.47328 0
M  V30 13032 C 1249.33 -3.3112 4.02503 0
M  V30 13033 C 1246.65 -3.33404 4.82762 0
M  V30 13034 C 1249.01 -3.33023 5.37846 0
M  V30 13035 C 1247.67 -3.33636 5.78138 0
M  V30 13036 H 1246.94 -0.649793 0.356161 0
M  V30 13037 H 1249.59 -1.22693 1.47033 0
M  V30 13038 H 1247.89 -3.78992 0.993584 0
M  V30 13039 H 1249.59 -3.76358 1.38404 0
M  V30 13040 H 1246.18 -3.29628 2.7394 0
M  V30 13041 H 1250.36 -3.2852 3.72006 0
M  V30 13042 H 1245.62 -3.32194 5.13281 0
M  V30 13043 H 1249.79 -3.32283 6.12014 0
M  V30 13044 H 1247.42 -3.33671 6.83058 0
M  V30 13045 N 1248.99 -0.981699 -1.2329 0
M  V30 13046 C 1250.24 -0.650015 -1.91361 0
M  V30 13047 C 1250.56 0.819184 -1.76959 0
M  V30 13048 O 1249.83 1.5861 -1.14977 0
M  V30 13049 H 1248.41 -0.237427 -0.708264 0
M  V30 13050 H 1251.08 -1.24579 -1.49887 0
M  V30 13051 H 1250.17 -0.902772 -2.98758 0
M  V30 13052 N 1250.47 1.3842 -0.753509 0
M  V30 13053 C 1251.4 2.29039 -0.0859463 0
M  V30 13054 C 1252.42 1.47742 0.68383 0
M  V30 13055 O 1253.61 1.70607 0.524933 0
M  V30 13056 C 1250.71 3.26668 0.902296 0
M  V30 13057 C 1249.88 4.36986 0.190178 0
M  V30 13058 C 1248.94 5.14805 1.08916 0
M  V30 13059 O 1247.96 5.66441 0.559715 0
M  V30 13060 N 1249.17 5.27777 2.41726 0
M  V30 13061 H 1251.93 2.8697 -0.864196 0
M  V30 13062 H 1249.49 1.502 -0.604288 0
M  V30 13063 H 1251.48 3.75606 1.50672 0
M  V30 13064 H 1250.05 2.69636 1.58163 0
M  V30 13065 H 1249.27 3.89684 -0.594959 0
M  V30 13066 H 1250.56 5.07899 -0.302594 0
M  V30 13067 H 1249.96 4.87376 2.87196 0
M  V30 13068 H 1248.52 5.8009 2.97219 0
M  V30 13069 N 1251.95 0.502579 1.49372 0
M  V30 13070 C 1252.88 -0.264307 2.31999 0
M  V30 13071 C 1253.86 -0.96107 1.40348 0
M  V30 13072 O 1255.05 -0.952167 1.69255 0
M  V30 13073 C 1252.18 -1.32822 3.20898 0
M  V30 13074 C 1251.13 -0.751236 4.21355 0
M  V30 13075 C 1250.46 -1.91578 4.99201 0
M  V30 13076 C 1251.76 0.258764 5.21659 0
M  V30 13077 H 1253.45 0.425391 2.96363 0
M  V30 13078 H 1251 0.206022 1.42519 0
M  V30 13079 H 1252.95 -1.87245 3.77515 0
M  V30 13080 H 1251.67 -2.04712 2.54481 0
M  V30 13081 H 1250.33 -0.228743 3.65886 0
M  V30 13082 H 1249.98 -2.62241 4.2923 0
M  V30 13083 H 1249.68 -1.53578 5.67175 0
M  V30 13084 H 1251.2 -2.46432 5.58663 0
M  V30 13085 H 1252.62 -0.197385 5.7296 0
M  V30 13086 H 1251.02 0.554681 5.97531 0
M  V30 13087 H 1252.09 1.1741 4.70471 0
M  V30 13088 N 1253.43 -1.55816 0.23648 0
M  V30 13089 C 1254.66 -2.03083 -0.395584 0
M  V30 13090 C 1255.07 -1.11599 -1.52286 0
M  V30 13091 O 1254.43 -0.128403 -1.82048 0
M  V30 13092 C 1254.48 -3.49776 -0.913197 0
M  V30 13093 O 1254.2 -4.37773 0.169151 0
M  V30 13094 C 1255.7 -4.12756 -1.617 0
M  V30 13095 H 1252.92 -0.66421 -0.0952146 0
M  V30 13096 H 1255.47 -2.01354 0.357299 0
M  V30 13097 H 1253.62 -3.52072 -1.6163 0
M  V30 13098 H 1254.03 -5.24029 -0.222217 0
M  V30 13099 H 1255.51 -5.17123 -1.93101 0
M  V30 13100 H 1255.99 -3.58631 -2.53537 0
M  V30 13101 H 1256.59 -4.14353 -0.958736 0
M  V30 13102 N 1254.91 0.036755 -1.57557 0
M  V30 13103 C 1256.18 0.764087 -1.80059 0
M  V30 13104 C 1256.56 1.93983 -0.83269 0
M  V30 13105 O 1255.91 2.28148 0.126815 0
M  V30 13106 C 1256.12 1.20433 -3.27562 0
M  V30 13107 C 1257.47 1.6234 -3.9234 0
M  V30 13108 O 1258.49 1.29911 -3.31665 0
M  V30 13109 O 1257.35 2.22504 -4.99154 0
M  V30 13110 H 1254.45 0.368866 -0.74018 0
M  V30 13111 H 1256.99 0.0141254 -1.69694 0
M  V30 13112 H 1255.76 0.364646 -3.89597 0
M  V30 13113 H 1255.39 2.01454 -3.42786 0
M  V30 13114 N 1256.39 1.54543 0.308881 0
M  V30 13115 C 1257.3 1.87994 1.4034 0
M  V30 13116 C 1258.31 0.773294 1.55872 0
M  V30 13117 O 1259.49 1.069 1.70688 0
M  V30 13118 C 1256.55 2.11341 2.74838 0
M  V30 13119 C 1255.61 3.35086 2.68358 0
M  V30 13120 C 1254.85 3.5731 3.96441 0
M  V30 13121 O 1255.07 2.82692 4.9542 0
M  V30 13122 O 1254 4.50814 3.98811 0
M  V30 13123 H 1257.83 2.81094 1.14976 0
M  V30 13124 H 1255.41 1.40634 0.504236 0
M  V30 13125 H 1257.3 2.27943 3.54429 0
M  V30 13126 H 1255.97 1.21427 3.00062 0
M  V30 13127 H 1254.88 3.23855 1.87267 0
M  V30 13128 H 1256.21 4.25104 2.48087 0
M  V30 13129 N 1257.86 -0.571685 1.46866 0
M  V30 13130 C 1258.8 -1.69475 1.54307 0
M  V30 13131 C 1259.81 -1.57006 0.430449 0
M  V30 13132 O 1261 -1.64229 0.69936 0
M  V30 13133 C 1258.1 -3.07824 1.41766 0
M  V30 13134 C 1257.27 -3.46189 2.67342 0
M  V30 13135 C 1256.33 -4.63642 2.48843 0
M  V30 13136 O 1255.36 -4.68949 3.22608 0
M  V30 13137 N 1256.56 -5.59223 1.55724 0
M  V30 13138 H 1259.32 -1.63543 2.51145 0
M  V30 13139 H 1256.88 -0.757957 1.43062 0
M  V30 13140 H 1258.88 -3.84208 1.27146 0
M  V30 13141 H 1257.45 -3.08063 0.530667 0
M  V30 13142 H 1256.67 -2.59399 2.96826 0
M  V30 13143 H 1257.95 -3.68591 3.50739 0
M  V30 13144 H 1257.35 -5.5768 0.949175 0
M  V30 13145 H 1255.91 -6.34993 1.47063 0
M  V30 13146 N 1259.34 -1.34755 -0.817236 0
M  V30 13147 C 1260.59 -1.2762 -1.5761 0
M  V30 13148 C 1260.92 0.152017 -1.93604 0
M  V30 13149 O 1260.2 1.09881 -1.60488 0
M  V30 13150 C 1260.48 -2.17251 -2.87183 0
M  V30 13151 C 1260.33 -3.68638 -2.57733 0
M  V30 13152 C 1261.65 -2.06206 -3.88802 0
M  V30 13153 H 1258.77 -0.464933 -0.571845 0
M  V30 13154 H 1261.41 -1.6506 -0.941028 0
M  V30 13155 H 1259.56 -1.85452 -3.41379 0
M  V30 13156 H 1261.23 -4.10829 -2.09802 0
M  V30 13157 H 1259.48 -3.89445 -1.91089 0
M  V30 13158 H 1260.15 -4.26726 -3.50156 0
M  V30 13159 H 1262.62 -2.34137 -3.43975 0
M  V30 13160 H 1261.5 -2.71136 -4.77259 0
M  V30 13161 H 1261.76 -1.04075 -4.29675 0
M  V30 13162 N 1260.82 1.03812 -1.18578 0
M  V30 13163 C 1262.07 1.76455 -0.977071 0
M  V30 13164 C 1262.38 1.8926 0.493964 0
M  V30 13165 O 1263.59 2.58781 0.821256 0
M  V30 13166 C 1262.04 3.17264 -1.69917 0
M  V30 13167 C 1261.65 3.12543 -3.20969 0
M  V30 13168 C 1263.4 3.94266 -1.57337 0
M  V30 13169 C 1261.3 4.48226 -3.85807 0
M  V30 13170 H 1260.23 0.661445 -0.361949 0
M  V30 13171 H 1262.88 1.16252 -1.41978 0
M  V30 13172 H 1261.27 3.77878 -1.18424 0
M  V30 13173 H 1262.44 2.61364 -3.79507 0
M  V30 13174 H 1260.75 2.49039 -3.33719 0
M  V30 13175 H 1263.35 4.9461 -2.03137 0
M  V30 13176 H 1263.69 4.12963 -0.526033 0
M  V30 13177 H 1264.23 3.40232 -2.06124 0
M  V30 13178 H 1260.97 4.34734 -4.90599 0
M  V30 13179 H 1260.49 4.99497 -3.32058 0
M  V30 13180 H 1262.17 5.17135 -3.88819 0
M  V30 13181 N 1262.3 0.988223 1.22768 0
M  V30 13182 C 1263.21 0.543407 2.2822 0
M  V30 13183 C 1264.22 -0.405563 1.69208 0
M  V30 13184 O 1265.4 -0.273551 1.99534 0
M  V30 13185 C 1262.46 -0.139495 3.46419 0
M  V30 13186 C 1261.53 0.851853 4.20764 0
M  V30 13187 C 1260.76 0.201446 5.3332 0
M  V30 13188 O 1260.98 -1.00573 5.61464 0
M  V30 13189 O 1259.92 0.903956 5.95073 0
M  V30 13190 H 1263.74 1.42059 2.68427 0
M  V30 13191 H 1261.33 0.756239 1.28846 0
M  V30 13192 H 1263.21 -0.522226 4.18152 0
M  V30 13193 H 1261.88 -0.991315 3.08147 0
M  V30 13194 H 1260.79 1.28543 3.51322 0
M  V30 13195 H 1262.12 1.67273 4.62905 0
M  V30 13196 N 1263.78 -1.38018 0.760839 0
M  V30 13197 C 1264.72 -2.32251 0.127425 0
M  V30 13198 C 1265.72 -1.54387 -0.69722 0
M  V30 13199 O 1266.92 -1.69864 -0.595505 0
M  V30 13200 H 1263.3 -0.751666 0.0224141 0
M  V30 13201 H 1265.27 -2.8327 0.93813 0
M  V30 13202 C 1264.02 -3.39606 -0.745849 0
M  V30 13203 H 1263.34 -3.99618 -0.120679 0
M  V30 13204 H 1264.78 -4.07931 -1.15621 0
M  V30 13205 C 1263.24 -2.78778 -1.89167 0
M  V30 13206 O 1263.77 -2.68661 -2.98637 0
M  V30 13207 N 1261.98 -2.36481 -1.68894 0
M  V30 13208 H 1261.52 -2.4491 -0.798551 0
M  V30 13209 H 1261.48 -1.96126 -2.45728 0
M  V30 13210 N 1265.25 -0.510493 -1.49103 0
M  V30 13211 C 1266.22 0.251915 -2.27811 0
M  V30 13212 C 1267.22 0.885432 -1.34226 0
M  V30 13213 O 1268.41 0.748494 -1.573 0
M  V30 13214 C 1265.54 1.3624 -3.12492 0
M  V30 13215 H 1266.73 -0.438872 -2.96671 0
M  V30 13216 H 1264.28 -0.265767 -1.54024 0
M  V30 13217 H 1265.02 2.08705 -2.48219 0
M  V30 13218 H 1264.8 0.913485 -3.81311 0
M  V30 13219 H 1266.29 1.89919 -3.71915 0
M  V30 13220 N 1266.73 1.55688 -0.24474 0
M  V30 13221 C 1267.98 1.98498 0.379852 0
M  V30 13222 C 1268.3 1.13416 1.58625 0
M  V30 13223 O 1267.57 0.216456 1.947 0
M  V30 13224 H 1266.15 0.73312 0.143334 0
M  V30 13225 H 1268.81 1.91858 -0.343027 0
M  V30 13226 H 1267.91 3.04367 0.690463 0
M  V30 13227 N 1268.21 -0.0283989 1.57574 0
M  V30 13228 C 1269.12 -1.04575 2.10003 0
M  V30 13229 C 1270.14 -1.39588 1.03881 0
M  V30 13230 O 1271.31 -1.48894 1.35619 0
M  V30 13231 C 1268.38 -2.32755 2.56955 0
M  V30 13232 C 1267.44 -2.04317 3.77562 0
M  V30 13233 C 1266.67 -3.26385 4.22266 0
M  V30 13234 O 1266.89 -4.37082 3.66491 0
M  V30 13235 O 1265.83 -3.12046 5.14695 0
M  V30 13236 H 1269.65 -0.630183 2.9709 0
M  V30 13237 H 1267.24 -0.245423 1.4737 0
M  V30 13238 H 1269.12 -3.08111 2.87482 0
M  V30 13239 H 1267.8 -2.73605 1.72979 0
M  V30 13240 H 1266.7 -1.26527 3.52054 0
M  V30 13241 H 1268.04 -1.68321 4.62524 0
M  V30 13242 N 1269.69 -1.54705 -0.300681 0
M  V30 13243 C 1270.93 -1.74001 -1.03585 0
M  V30 13244 C 1271.26 -0.525972 -1.87253 0
M  V30 13245 O 1270.52 0.492068 -1.89413 0
M  V30 13246 C 1270.82 -2.98173 -1.97047 0
M  V30 13247 C 1270.48 -4.31948 -1.29352 0
M  V30 13248 C 1269.14 -4.68312 -1.10623 0
M  V30 13249 C 1271.5 -5.14874 -0.809594 0
M  V30 13250 C 1268.82 -5.85181 -0.42185 0
M  V30 13251 C 1271.18 -6.32447 -0.138935 0
M  V30 13252 C 1269.84 -6.67473 0.0603129 0
M  V30 13253 H 1269.11 -0.636716 -0.379044 0
M  V30 13254 H 1271.76 -1.88963 -0.310697 0
M  V30 13255 H 1270.06 -2.77994 -2.76091 0
M  V30 13256 H 1271.76 -3.10297 -2.54001 0
M  V30 13257 H 1268.35 -4.0335 -1.44937 0
M  V30 13258 H 1272.53 -4.87278 -0.942006 0
M  V30 13259 H 1267.79 -6.10862 -0.256494 0
M  V30 13260 H 1271.96 -6.95973 0.243939 0
M  V30 13261 H 1269.59 -7.57887 0.592626 0
M  V30 13262 N 1271.17 0.563888 -1.47167 0
M  V30 13263 C 1272.41 1.32136 -1.53448 0
M  V30 13264 C 1272.74 1.9353 -0.19396 0
M  V30 13265 O 1272 1.78038 0.812456 0
M  V30 13266 C 1272.3 2.45678 -2.59571 0
M  V30 13267 C 1271.96 2.02157 -4.03043 0
M  V30 13268 C 1270.62 1.90003 -4.421 0
M  V30 13269 C 1272.98 1.68846 -4.93093 0
M  V30 13270 C 1270.3 1.42825 -5.6905 0
M  V30 13271 C 1272.66 1.2314 -6.20499 0
M  V30 13272 C 1271.32 1.09578 -6.58444 0
M  V30 13273 H 1270.59 0.483519 -0.561507 0
M  V30 13274 H 1273.24 0.633042 -1.80734 0
M  V30 13275 H 1271.54 3.20037 -2.26017 0
M  V30 13276 H 1273.24 3.03871 -2.61655 0
M  V30 13277 H 1269.83 2.12557 -3.7218 0
M  V30 13278 H 1274.01 1.77111 -4.63622 0
M  V30 13279 H 1269.27 1.30983 -5.97205 0
M  V30 13280 H 1273.44 0.964247 -6.89692 0
M  V30 13281 H 1271.07 0.727975 -7.56706 0
M  V30 13282 N 1272.64 1.35187 0.810078 0
M  V30 13283 C 1274.06 1.15149 1.10512 0
M  V30 13284 C 1274.26 -0.038394 2.01463 0
M  V30 13285 O 1273.32 -0.710056 2.42311 0
M  V30 13286 C 1274.63 2.45282 1.73946 0
M  V30 13287 C 1276.18 2.51457 1.86382 0
M  V30 13288 C 1276.65 3.81625 2.53232 0
M  V30 13289 N 1278.14 3.82856 2.6072 0
M  V30 13290 C 1278.88 4.80302 3.13206 0
M  V30 13291 N 1278.37 5.88134 3.66156 0
M  V30 13292 N 1280.17 4.67743 3.11726 0
M  V30 13293 H 1272.32 2.11405 0.205391 0
M  V30 13294 H 1274.58 0.935457 0.153702 0
M  V30 13295 H 1274.29 3.32512 1.14582 0
M  V30 13296 H 1274.16 2.59573 2.73682 0
M  V30 13297 H 1276.55 1.64659 2.44891 0
M  V30 13298 H 1276.63 2.41084 0.855113 0
M  V30 13299 H 1276.27 4.68819 1.95375 0
M  V30 13300 H 1276.2 3.89285 3.54633 0
M  V30 13301 H 1278.69 3.04941 2.23203 0
M  V30 13302 H 1279.01 6.58487 4.04494 0
M  V30 13303 H 1277.35 5.91831 3.64364 0
M  V30 13304 H 1280.54 3.82642 2.69635 0
M  V30 13305 H 1280.72 5.43849 3.52324 0
M  V30 13306 N 1274.12 -1.03182 1.19127 0
M  V30 13307 C 1275.4 -1.73586 0.901507 0
M  V30 13308 C 1275.78 -2.02585 -0.593521 0
M  V30 13309 O 1275.13 -1.67813 -1.55084 0
M  V30 13310 C 1275.34 -3.01472 1.75829 0
M  V30 13311 C 1276.69 -3.75037 1.99078 0
M  V30 13312 O 1277.71 -3.11392 1.72956 0
M  V30 13313 O 1276.57 -4.8945 2.43108 0
M  V30 13314 H 1273.66 -0.755797 0.335708 0
M  V30 13315 H 1276.21 -1.09167 1.29925 0
M  V30 13316 H 1274.98 -2.76247 2.77134 0
M  V30 13317 H 1274.6 -3.73631 1.35963 0
M  V30 13318 N 1275.6 -0.99472 -1.22242 0
M  V30 13319 C 1276.53 -0.504783 -2.23572 0
M  V30 13320 C 1277.55 0.401105 -1.57781 0
M  V30 13321 O 1278.73 0.202948 -1.77343 0
M  V30 13322 C 1275.83 0.287524 -3.37678 0
M  V30 13323 C 1275.01 -0.614941 -4.33056 0
M  V30 13324 C 1274.07 0.125974 -5.26049 0
M  V30 13325 O 1273.09 -0.489234 -5.67094 0
M  V30 13326 N 1274.29 1.40772 -5.63173 0
M  V30 13327 H 1277.06 -1.37612 -2.66238 0
M  V30 13328 H 1274.62 -0.86965 -1.3656 0
M  V30 13329 H 1276.61 0.791884 -3.96877 0
M  V30 13330 H 1275.18 1.05998 -2.9408 0
M  V30 13331 H 1274.4 -1.29994 -3.72149 0
M  V30 13332 H 1275.69 -1.22947 -4.93722 0
M  V30 13333 H 1275.09 1.92884 -5.31801 0
M  V30 13334 H 1273.65 1.85723 -6.2478 0
M  V30 13335 N 1277.08 1.37613 -0.768148 0
M  V30 13336 C 1278.33 1.99384 -0.330187 0
M  V30 13337 C 1278.65 1.61283 1.09604 0
M  V30 13338 O 1277.92 0.876551 1.75195 0
M  V30 13339 H 1276.5 0.737445 -0.119095 0
M  V30 13340 H 1279.16 1.6815 -0.985476 0
M  V30 13341 H 1278.26 3.09462 -0.40494 0
M  V30 13342 N 1278.56 0.518393 1.4883 0
M  V30 13343 C 1279.97 0.175476 1.58632 0
M  V30 13344 C 1280.17 -1.32081 1.52174 0
M  V30 13345 O 1279.23 -2.09817 1.40474 0
M  V30 13346 C 1280.54 0.767722 2.90734 0
M  V30 13347 C 1282.09 0.735402 3.04238 0
M  V30 13348 C 1282.56 1.30602 4.38984 0
M  V30 13349 N 1284.06 1.26748 4.45521 0
M  V30 13350 C 1284.79 1.679 5.48267 0
M  V30 13351 N 1284.29 2.16728 6.58028 0
M  V30 13352 N 1286.08 1.59209 5.39082 0
M  V30 13353 H 1278.23 1.491 1.51271 0
M  V30 13354 H 1280.49 0.619497 0.717584 0
M  V30 13355 H 1280.2 1.81777 3.01081 0
M  V30 13356 H 1280.07 0.238119 3.76448 0
M  V30 13357 H 1282.46 -0.305852 2.93511 0
M  V30 13358 H 1282.54 1.30235 2.20165 0
M  V30 13359 H 1282.19 2.34614 4.50465 0
M  V30 13360 H 1282.12 0.714858 5.21725 0
M  V30 13361 H 1284.61 0.90991 3.66782 0
M  V30 13362 H 1284.92 2.46154 7.32549 0
M  V30 13363 H 1283.26 2.20714 6.59022 0
M  V30 13364 H 1286.46 1.20869 4.52226 0
M  V30 13365 H 1286.63 1.91602 6.19025 0
M  V30 13366 N 1280.03 -1.55556 0.252993 0
M  V30 13367 C 1280.97 -2.18978 -0.676837 0
M  V30 13368 C 1281.98 -1.16788 -1.13421 0
M  V30 13369 O 1283.17 -1.43623 -1.05993 0
M  V30 13370 C 1280.27 -2.78404 -1.93248 0
M  V30 13371 C 1279.44 -4.06072 -1.62555 0
M  V30 13372 C 1278.5 -4.49757 -2.7314 0
M  V30 13373 O 1277.53 -5.16005 -2.40266 0
M  V30 13374 N 1278.73 -4.18049 -4.0276 0
M  V30 13375 H 1281.49 -2.994 -0.134142 0
M  V30 13376 H 1279.05 -1.61734 0.0731965 0
M  V30 13377 H 1281.05 -3.04583 -2.6648 0
M  V30 13378 H 1279.62 -2.02104 -2.3848 0
M  V30 13379 H 1278.84 -3.87417 -0.728115 0
M  V30 13380 H 1280.12 -4.89297 -1.39521 0
M  V30 13381 H 1279.52 -3.64876 -4.32298 0
M  V30 13382 H 1278.08 -4.4905 -4.72438 0
M  V30 13383 N 1281.51 0.0200419 -1.57587 0
M  V30 13384 C 1282.76 0.710078 -1.89962 0
M  V30 13385 C 1283.09 1.74521 -0.851829 0
M  V30 13386 O 1282.37 1.94052 0.132005 0
M  V30 13387 C 1282.65 1.37145 -3.32961 0
M  V30 13388 C 1282.5 0.349221 -4.48442 0
M  V30 13389 C 1283.82 2.30304 -3.75031 0
M  V30 13390 H 1280.94 0.25667 -0.690862 0
M  V30 13391 H 1283.58 -0.0271362 -1.89981 0
M  V30 13392 H 1281.73 1.99981 -3.33076 0
M  V30 13393 H 1283.4 -0.277916 -4.60462 0
M  V30 13394 H 1281.65 -0.330594 -4.32538 0
M  V30 13395 H 1282.32 0.850636 -5.45406 0
M  V30 13396 H 1284.79 1.77503 -3.7634 0
M  V30 13397 H 1283.67 2.73555 -4.75877 0
M  V30 13398 H 1283.93 3.17364 -3.07786 0
M  V30 13399 N 1282.99 1.54862 0.292472 0
M  V30 13400 C 1284.22 1.78291 1.04383 0
M  V30 13401 C 1284.63 0.546703 1.81129 0
M  V30 13402 O 1283.97 -0.493286 1.76953 0
M  V30 13403 C 1284.03 2.94321 2.06435 0
M  V30 13404 C 1283.7 4.32095 1.48806 0
M  V30 13405 C 1284.69 5.11808 0.91369 0
M  V30 13406 C 1282.38 4.78714 1.52112 0
M  V30 13407 C 1284.37 6.36266 0.380053 0
M  V30 13408 C 1282.06 6.03132 0.983613 0
M  V30 13409 C 1283.06 6.81744 0.41406 0
M  V30 13410 O 1282.75 8.03817 -0.115268 0
M  V30 13411 H 1282.48 0.598147 0.314954 0
M  V30 13412 H 1285.03 2.02655 0.334661 0
M  V30 13413 H 1283.26 2.65602 2.81056 0
M  V30 13414 H 1284.95 3.05249 2.67541 0
M  V30 13415 H 1285.72 4.76931 0.880988 0
M  V30 13416 H 1281.6 4.17549 1.95382 0
M  V30 13417 H 1285.14 6.9757 -0.0651481 0
M  V30 13418 H 1281.04 6.37494 1.01349 0
M  V30 13419 H 1281.81 8.185 -0.00277496 0
M  V30 13420 N 1284.47 -0.556076 1.47464 0
M  V30 13421 C 1285.4 -1.67275 1.62915 0
M  V30 13422 C 1286.38 -1.63229 0.478562 0
M  V30 13423 O 1287.56 -1.80833 0.708032 0
M  V30 13424 C 1284.69 -3.05911 1.64426 0
M  V30 13425 C 1283.65 -3.24804 2.78722 0
M  V30 13426 C 1282.97 -4.64238 2.65307 0
M  V30 13427 C 1284.27 -3.10071 4.20302 0
M  V30 13428 H 1285.97 -1.54601 2.56396 0
M  V30 13429 H 1283.51 -0.742337 1.23391 0
M  V30 13430 H 1285.47 -3.83878 1.73826 0
M  V30 13431 H 1284.19 -3.19547 0.675053 0
M  V30 13432 H 1282.85 -2.49246 2.68835 0
M  V30 13433 H 1282.5 -4.74675 1.66412 0
M  V30 13434 H 1282.2 -4.77828 3.41986 0
M  V30 13435 H 1283.72 -5.44339 2.76637 0
M  V30 13436 H 1285.14 -3.77855 4.3116 0
M  V30 13437 H 1283.53 -3.3517 4.97776 0
M  V30 13438 H 1284.6 -2.06803 4.38589 0
M  V30 13439 N 1285.95 -1.35615 -0.802897 0
M  V30 13440 C 1287.17 -1.32377 -1.59659 0
M  V30 13441 C 1287.6 0.0954235 -1.87858 0
M  V30 13442 O 1286.96 1.06336 -1.46842 0
M  V30 13443 C 1287 -2.13972 -2.90256 0
M  V30 13444 O 1286.11 -1.52296 -3.83249 0
M  V30 13445 H 1285.45 -0.453699 -0.484823 0
M  V30 13446 H 1287.98 -1.78708 -0.996217 0
M  V30 13447 H 1287.99 -2.26061 -3.39647 0
M  V30 13448 H 1286.66 -3.17145 -2.69057 0
M  V30 13449 H 1285.24 -1.49068 -3.41809 0
M  V30 13450 N 1287.43 1.02549 -1.19673 0
M  V30 13451 C 1288.84 1.28271 -0.94967 0
M  V30 13452 C 1289.04 1.97961 0.37599 0
M  V30 13453 O 1288.1 2.26955 1.10668 0
M  V30 13454 C 1289.41 2.12647 -2.12607 0
M  V30 13455 C 1290.96 2.25943 -2.16607 0
M  V30 13456 C 1291.43 3.13693 -3.33708 0
M  V30 13457 N 1292.92 3.21281 -3.33665 0
M  V30 13458 C 1293.66 3.89377 -4.20919 0
M  V30 13459 N 1293.16 4.59675 -5.18334 0
M  V30 13460 N 1294.95 3.85811 -4.08786 0
M  V30 13461 H 1287.1 0.557304 -2.04958 0
M  V30 13462 H 1289.36 0.308531 -0.896389 0
M  V30 13463 H 1289.07 1.68766 -3.08563 0
M  V30 13464 H 1288.94 3.13367 -2.09955 0
M  V30 13465 H 1291.33 2.69053 -1.2122 0
M  V30 13466 H 1291.41 1.24762 -2.23311 0
M  V30 13467 H 1291.05 2.7129 -4.29376 0
M  V30 13468 H 1290.98 4.14941 -3.2424 0
M  V30 13469 H 1293.48 2.71218 -2.63152 0
M  V30 13470 H 1293.79 5.09277 -5.81254 0
M  V30 13471 H 1292.13 4.58529 -5.22279 0
M  V30 13472 H 1295.32 3.30033 -3.31957 0
M  V30 13473 H 1295.5 4.38607 -4.76999 0
M  V30 13474 N 1288.9 1.00119 1.21713 0
M  V30 13475 C 1290.31 0.715611 1.72441 0
M  V30 13476 C 1290.67 -0.767 1.80587 0
M  V30 13477 O 1289.79 -1.59928 1.45781 0
M  V30 13478 C 1290.39 1.29234 3.13184 0
M  V30 13479 C 1288.94 1.05597 3.61284 0
M  V30 13480 C 1288.09 1.40749 2.38925 0
M  V30 13481 H 1291.04 1.17255 1.06943 0
M  V30 13482 H 1291.06 0.67507 3.74464 0
M  V30 13483 H 1290.58 2.37141 3.07223 0
M  V30 13484 H 1288.68 -0.00610816 3.72599 0
M  V30 13485 H 1288.79 1.72517 4.46961 0
M  V30 13486 H 1287.15 0.826207 2.40927 0
M  V30 13487 H 1287.94 2.49678 2.35618 0
M  V30 13488 N 1290.38 -1.37203 0.775435 0
M  V30 13489 C 1291.79 -1.82224 0.406372 0
M  V30 13490 C 1292.14 -1.64587 -1.06796 0
M  V30 13491 O 1291.27 -1.15903 -1.82744 0
M  V30 13492 C 1291.86 -3.30824 0.730819 0
M  V30 13493 C 1290.42 -3.74108 0.414766 0
M  V30 13494 C 1289.57 -2.59679 0.972747 0
M  V30 13495 H 1292.52 -1.25623 0.969775 0
M  V30 13496 H 1292.54 -3.80496 0.0168066 0
M  V30 13497 H 1292.05 -3.43628 1.80392 0
M  V30 13498 H 1290.15 -3.66871 -0.650866 0
M  V30 13499 H 1290.27 -4.70074 0.925595 0
M  V30 13500 H 1288.63 -2.51591 0.396772 0
M  V30 13501 H 1289.41 -2.75274 2.05132 0
M  V30 13502 N 1291.86 -0.526279 -1.48553 0
M  V30 13503 C 1292.82 0.227739 -2.28066 0
M  V30 13504 C 1293.82 0.871146 -1.35158 0
M  V30 13505 O 1295.01 0.731769 -1.58085 0
M  V30 13506 C 1292.14 1.32918 -3.1392 0
M  V30 13507 H 1293.34 -0.470313 -2.96189 0
M  V30 13508 H 1290.89 -0.282089 -1.53733 0
M  V30 13509 H 1291.63 2.0606 -2.50419 0
M  V30 13510 H 1291.41 0.872991 -3.82258 0
M  V30 13511 H 1292.9 1.85964 -3.73908 0
M  V30 13512 N 1293.34 1.5542 -0.261239 0
M  V30 13513 C 1294.58 2.0119 0.360848 0
M  V30 13514 C 1294.94 1.14558 1.5408 0
M  V30 13515 O 1296.14 1.49846 2.23158 0
M  V30 13516 C 1294.41 3.49513 0.74668 0
M  V30 13517 S 1295.97 4.17281 1.35726 0
M  V30 13518 H 1292.79 0.701978 0.112903 0
M  V30 13519 H 1295.39 1.91775 -0.379829 0
M  V30 13520 H 1294.1 4.10221 -0.121172 0
M  V30 13521 H 1293.63 3.62884 1.51917 0
M  V30 13522 H 1295.64 4.19756 2.64612 0
M  V30 13523 N 1294.82 -0.0116844 1.57596 0
M  V30 13524 C 1296.23 -0.55604 1.78228 0
M  V30 13525 C 1296.58 -1.74624 0.894474 0
M  V30 13526 O 1295.7 -2.16196 0.0938498 0
M  V30 13527 C 1296.3 -1.0155 3.23223 0
M  V30 13528 C 1294.86 -1.50525 3.44992 0
M  V30 13529 C 1294 -0.451133 2.73606 0
M  V30 13530 H 1296.95 0.214516 1.57243 0
M  V30 13531 H 1296.98 -1.88208 3.30693 0
M  V30 13532 H 1296.49 -0.149048 3.87814 0
M  V30 13533 H 1294.59 -2.39298 2.856 0
M  V30 13534 H 1294.7 -1.54076 4.53649 0
M  V30 13535 H 1293.07 -0.910135 2.37884 0
M  V30 13536 H 1293.85 0.406152 3.40889 0
M  V30 13537 N 1296.29 -1.55015 -0.284256 0
M  V30 13538 C 1297.23 -1.83517 -1.3731 0
M  V30 13539 C 1298.24 -0.719009 -1.46062 0
M  V30 13540 O 1299.43 -0.996719 -1.4808 0
M  V30 13541 C 1296.53 -1.97309 -2.7554 0
M  V30 13542 C 1295.7 -3.2787 -2.89517 0
M  V30 13543 C 1294.76 -3.31868 -4.08351 0
M  V30 13544 O 1293.79 -4.05309 -3.99642 0
M  V30 13545 N 1294.99 -2.5846 -5.19787 0
M  V30 13546 H 1297.75 -2.77495 -1.1321 0
M  V30 13547 H 1295.31 -1.54795 -0.474359 0
M  V30 13548 H 1297.31 -1.97367 -3.53311 0
M  V30 13549 H 1295.88 -1.10249 -2.92513 0
M  V30 13550 H 1295.1 -3.40445 -1.98722 0
M  V30 13551 H 1296.38 -4.13996 -2.95779 0
M  V30 13552 H 1295.78 -1.98455 -5.29747 0
M  V30 13553 H 1294.34 -2.64253 -5.9583 0
M  V30 13554 N 1297.77 0.548248 -1.47757 0
M  V30 13555 C 1299.02 1.30243 -1.54535 0
M  V30 13556 C 1299.34 1.93832 -0.213089 0
M  V30 13557 O 1298.61 1.80397 0.763782 0
M  V30 13558 H 1297.19 0.483684 -0.569262 0
M  V30 13559 H 1299.85 0.639485 -1.8411 0
M  V30 13560 H 1298.95 2.09128 -2.31672 0
M  V30 13561 N 1299.25 1.36039 0.795694 0
M  V30 13562 C 1300.18 1.32528 1.92246 0
M  V30 13563 C 1301.16 0.197805 1.68946 0
M  V30 13564 O 1302.35 0.394474 1.90151 0
M  V30 13565 C 1299.48 1.10748 3.29169 0
M  V30 13566 C 1298.43 2.20253 3.66978 0
M  V30 13567 C 1297.76 1.83624 5.02181 0
M  V30 13568 C 1299.06 3.62296 3.76216 0
M  V30 13569 H 1300.75 2.2681 1.95442 0
M  V30 13570 H 1298.3 1.09181 0.938908 0
M  V30 13571 H 1300.25 1.06929 4.07608 0
M  V30 13572 H 1298.97 0.129141 3.26345 0
M  V30 13573 H 1297.63 2.23187 2.90832 0
M  V30 13574 H 1297.28 0.843804 4.95872 0
M  V30 13575 H 1296.98 2.56935 5.28449 0
M  V30 13576 H 1298.5 1.81349 5.83048 0
M  V30 13577 H 1299.92 3.61623 4.44861 0
M  V30 13578 H 1298.31 4.34459 4.13963 0
M  V30 13579 H 1299.38 3.97657 2.77483 0
M  V30 13580 N 1300.73 -1.01913 1.20215 0
M  V30 13581 C 1301.96 -1.78817 1.0348 0
M  V30 13582 C 1302.37 -1.84499 -0.419152 0
M  V30 13583 O 1301.71 -1.29506 -1.30284 0
M  V30 13584 C 1301.77 -3.24858 1.53973 0
M  V30 13585 C 1301.44 -3.42788 3.02234 0
M  V30 13586 C 1302.43 -3.32213 3.99914 0
M  V30 13587 C 1300.12 -3.68687 3.41138 0
M  V30 13588 C 1302.11 -3.47276 5.34489 0
M  V30 13589 C 1299.8 -3.83394 4.7587 0
M  V30 13590 C 1300.8 -3.72693 5.72354 0
M  V30 13591 O 1300.48 -3.86953 7.04643 0
M  V30 13592 H 1300.22 -0.569268 0.364568 0
M  V30 13593 H 1302.77 -1.29184 1.59689 0
M  V30 13594 H 1301 -3.7556 0.921478 0
M  V30 13595 H 1302.69 -3.83388 1.33297 0
M  V30 13596 H 1303.46 -3.12145 3.71202 0
M  V30 13597 H 1299.33 -3.76104 2.66583 0
M  V30 13598 H 1302.88 -3.3884 6.09782 0
M  V30 13599 H 1298.78 -4.02962 5.04273 0
M  V30 13600 H 1299.54 -4.03986 7.11855 0
M  V30 13601 N 1302.21 -1.00763 -1.2118 0
M  V30 13602 C 1303.12 -0.579646 -2.27326 0
M  V30 13603 C 1304.13 0.378592 -1.69831 0
M  V30 13604 O 1305.31 0.241772 -1.99944 0
M  V30 13605 C 1302.37 0.0843648 -3.46597 0
M  V30 13606 C 1301.43 -0.918685 -4.19355 0
M  V30 13607 C 1300.67 -0.286267 -5.32932 0
M  V30 13608 O 1300.89 0.916274 -5.62993 0
M  V30 13609 O 1299.82 -0.998513 -5.9356 0
M  V30 13610 H 1303.65 -1.46311 -2.66133 0
M  V30 13611 H 1301.24 -0.776641 -1.27627 0
M  V30 13612 H 1303.12 0.455636 -4.18929 0
M  V30 13613 H 1301.79 0.942166 -3.09685 0
M  V30 13614 H 1300.7 -1.34116 -3.49233 0
M  V30 13615 H 1302.03 -1.74616 -4.60185 0
M  V30 13616 N 1303.68 1.3679 -0.7827 0
M  V30 13617 C 1304.61 2.32721 -0.190604 0
M  V30 13618 C 1305.6 1.56321 0.670663 0
M  V30 13619 O 1306.78 1.84507 0.605871 0
M  V30 13620 C 1303.91 3.40564 0.680717 0
M  V30 13621 C 1302.86 4.27925 -0.080118 0
M  V30 13622 C 1302.19 5.26876 0.911361 0
M  V30 13623 C 1303.49 5.06738 -1.26545 0
M  V30 13624 H 1305.18 2.82488 -0.992023 0
M  V30 13625 H 1302.73 1.35818 -0.478484 0
M  V30 13626 H 1304.68 4.06659 1.10482 0
M  V30 13627 H 1303.41 2.89348 1.51477 0
M  V30 13628 H 1302.07 3.63376 -0.485125 0
M  V30 13629 H 1301.71 4.71936 1.74026 0
M  V30 13630 H 1301.41 5.8619 0.406762 0
M  V30 13631 H 1302.94 5.95846 1.33418 0
M  V30 13632 H 1304.35 5.65911 -0.917448 0
M  V30 13633 H 1302.75 5.75432 -1.70289 0
M  V30 13634 H 1303.82 4.38772 -2.06415 0
M  V30 13635 N 1305.16 0.53415 1.48272 0
M  V30 13636 C 1306.1 -0.273689 2.26553 0
M  V30 13637 C 1307.07 -0.941085 1.32598 0
M  V30 13638 O 1308.26 -0.964653 1.61947 0
M  V30 13639 C 1305.38 -1.38796 3.08955 0
M  V30 13640 C 1304.43 -0.831533 4.18315 0
M  V30 13641 S 1305.26 0.303875 5.34637 0
M  V30 13642 C 1306.42 -0.812767 6.206 0
M  V30 13643 H 1306.65 0.390639 2.94722 0
M  V30 13644 H 1304.19 0.320014 1.51047 0
M  V30 13645 H 1306.14 -2.02622 3.57008 0
M  V30 13646 H 1304.8 -2.02402 2.40192 0
M  V30 13647 H 1304 -1.66758 4.75613 0
M  V30 13648 H 1303.6 -0.269881 3.73025 0
M  V30 13649 H 1305.89 -1.71043 6.55554 0
M  V30 13650 H 1306.83 -0.27767 7.07555 0
M  V30 13651 H 1307.24 -1.09505 5.53777 0
M  V30 13652 N 1306.64 -1.55279 0.269478 0
M  V30 13653 C 1307.57 -2.25278 -0.614188 0
M  V30 13654 C 1308.55 -1.24092 -1.1634 0
M  V30 13655 O 1309.74 -1.52799 -1.19858 0
M  V30 13656 C 1306.87 -2.96956 -1.80096 0
M  V30 13657 C 1305.82 -4.05021 -1.38353 0
M  V30 13658 C 1305.15 -4.64244 -2.65295 0
M  V30 13659 C 1306.45 -5.19523 -0.537886 0
M  V30 13660 H 1308.14 -2.99385 -0.0304397 0
M  V30 13661 H 1305.69 -1.43994 -0.0132004 0
M  V30 13662 H 1307.64 -3.44633 -2.42499 0
M  V30 13663 H 1306.36 -2.20374 -2.41045 0
M  V30 13664 H 1305.02 -3.58146 -0.78273 0
M  V30 13665 H 1304.67 -3.84337 -3.2449 0
M  V30 13666 H 1304.37 -5.37208 -2.38079 0
M  V30 13667 H 1305.89 -5.14668 -3.28557 0
M  V30 13668 H 1307.31 -5.63287 -1.06677 0
M  V30 13669 H 1305.71 -5.99014 -0.360845 0
M  V30 13670 H 1306.78 -4.82857 0.444672 0
M  V30 13671 N 1308.12 0.00332656 -1.576 0
M  V30 13672 C 1309.53 0.359361 -1.55502 0
M  V30 13673 C 1309.73 1.74997 -0.998914 0
M  V30 13674 O 1308.79 2.44482 -0.631263 0
M  V30 13675 C 1310.1 0.237638 -2.9976 0
M  V30 13676 C 1311.65 0.312824 -3.11433 0
M  V30 13677 C 1312.13 0.220262 -4.5747 0
M  V30 13678 N 1313.62 0.278265 -4.62363 0
M  V30 13679 C 1314.35 0.229933 -5.72939 0
M  V30 13680 N 1313.85 0.132391 -6.92673 0
M  V30 13681 N 1315.64 0.281555 -5.61394 0
M  V30 13682 H 1307.79 -0.906404 -1.92089 0
M  V30 13683 H 1310.06 -0.347129 -0.88216 0
M  V30 13684 H 1309.76 -0.719007 -3.44272 0
M  V30 13685 H 1309.64 1.02105 -3.63118 0
M  V30 13686 H 1312.02 1.25991 -2.66852 0
M  V30 13687 H 1312.1 -0.500395 -2.50858 0
M  V30 13688 H 1311.75 -0.723267 -5.02724 0
M  V30 13689 H 1311.68 1.05192 -5.15987 0
M  V30 13690 H 1314.17 0.35512 -3.76228 0
M  V30 13691 H 1314.48 0.101317 -7.72734 0
M  V30 13692 H 1312.83 0.0980665 -6.94931 0
M  V30 13693 H 1316.02 0.355931 -4.66745 0
M  V30 13694 H 1316.19 0.240423 -6.47554 0
M  V30 13695 N 1309.6 1.55164 0.276031 0
M  V30 13696 C 1310.84 1.77377 1.01572 0
M  V30 13697 C 1311.2 0.56142 1.83608 0
M  V30 13698 O 1312.4 0.661745 2.60527 0
M  V30 13699 C 1310.67 3.0412 1.87738 0
M  V30 13700 S 1312.23 3.4744 2.68013 0
M  V30 13701 H 1309.05 0.62326 0.342153 0
M  V30 13702 H 1311.65 1.9339 0.286456 0
M  V30 13703 H 1310.36 3.90453 1.26389 0
M  V30 13704 H 1309.89 2.90764 2.6499 0
M  V30 13705 H 1311.9 3.06474 3.90241 0
M  V30 13706 N 1311.07 -0.540404 1.48045 0
M  V30 13707 C 1312.32 -1.29628 1.56742 0
M  V30 13708 C 1312.68 -1.90975 0.233761 0
M  V30 13709 O 1311.97 -1.75781 -0.762333 0
M  V30 13710 C 1312.16 -2.41517 2.63447 0
M  V30 13711 C 1311.99 -1.91137 4.07059 0
M  V30 13712 C 1310.76 -1.74214 4.74318 0
M  V30 13713 C 1312.96 -1.44598 4.93554 0
M  V30 13714 N 1310.94 -1.1835 6.02384 0
M  V30 13715 C 1312.31 -1.00612 6.11782 0
M  V30 13716 C 1314.37 -1.32805 4.79862 0
M  V30 13717 C 1313.07 -0.460024 7.17827 0
M  V30 13718 C 1315.1 -0.795956 5.86019 0
M  V30 13719 C 1314.46 -0.36611 7.03448 0
M  V30 13720 H 1310.56 -0.46575 0.628173 0
M  V30 13721 H 1313.14 -0.610609 1.84877 0
M  V30 13722 H 1311.31 -3.07594 2.37151 0
M  V30 13723 H 1313.04 -3.08539 2.61889 0
M  V30 13724 H 1309.8 -1.97429 4.30487 0
M  V30 13725 H 1310.22 -0.924579 6.70657 0
M  V30 13726 H 1314.87 -1.64645 3.89425 0
M  V30 13727 H 1312.58 -0.129275 8.07997 0
M  V30 13728 H 1316.17 -0.708026 5.77476 0
M  V30 13729 H 1315.05 0.0392247 7.8419 0
M  V30 13730 N 1312.55 -1.36459 -0.788468 0
M  V30 13731 C 1313.78 -1.34063 -1.58246 0
M  V30 13732 C 1314.2 0.0754933 -1.87948 0
M  V30 13733 O 1313.56 1.04772 -1.47961 0
M  V30 13734 C 1313.61 -2.17038 -2.8797 0
M  V30 13735 O 1312.71 -1.56353 -3.81612 0
M  V30 13736 H 1312.05 -0.458816 -0.479983 0
M  V30 13737 H 1314.58 -1.79755 -0.977207 0
M  V30 13738 H 1314.59 -2.29651 -3.3723 0
M  V30 13739 H 1313.27 -3.19981 -2.65678 0
M  V30 13740 H 1311.85 -1.52685 -3.40208 0
M  V30 13741 N 1314.03 1.01274 -1.20754 0
M  V30 13742 C 1315.45 1.27256 -0.963221 0
M  V30 13743 C 1315.65 1.98349 0.354972 0
M  V30 13744 O 1314.7 2.28116 1.08255 0
M  V30 13745 C 1316.02 2.1038 -2.14851 0
M  V30 13746 C 1317.56 2.23633 -2.18991 0
M  V30 13747 C 1318.04 3.10136 -3.37016 0
M  V30 13748 N 1319.53 3.17724 -3.37054 0
M  V30 13749 C 1320.26 3.84891 -4.25025 0
M  V30 13750 N 1319.76 4.54152 -5.23181 0
M  V30 13751 N 1321.55 3.81454 -4.12855 0
M  V30 13752 H 1313.7 0.535534 -2.05538 0
M  V30 13753 H 1315.97 0.299006 -0.899611 0
M  V30 13754 H 1315.67 1.65484 -3.10335 0
M  V30 13755 H 1315.55 3.11122 -2.13267 0
M  V30 13756 H 1317.93 2.67753 -1.24067 0
M  V30 13757 H 1318.02 1.22387 -2.24622 0
M  V30 13758 H 1317.66 2.66721 -4.32229 0
M  V30 13759 H 1317.59 4.11478 -3.28623 0
M  V30 13760 H 1320.08 2.68412 -2.66014 0
M  V30 13761 H 1320.39 5.03084 -5.86623 0
M  V30 13762 H 1318.74 4.52964 -5.27113 0
M  V30 13763 H 1321.93 3.26494 -3.35439 0
M  V30 13764 H 1322.1 4.33523 -4.81624 0
M  V30 13765 N 1315.51 1.01404 1.20644 0
M  V30 13766 C 1316.42 0.591693 2.27016 0
M  V30 13767 C 1317.44 -0.36958 1.7003 0
M  V30 13768 O 1318.61 -0.231165 2.00069 0
M  V30 13769 C 1315.68 -0.0659827 3.46637 0
M  V30 13770 C 1314.74 0.940911 4.18862 0
M  V30 13771 C 1313.97 0.314526 5.32772 0
M  V30 13772 O 1314.19 -0.886404 5.63471 0
M  V30 13773 O 1313.13 1.02998 5.93022 0
M  V30 13774 H 1316.95 1.4772 2.65353 0
M  V30 13775 H 1314.54 0.783399 1.27213 0
M  V30 13776 H 1316.42 -0.433412 4.19165 0
M  V30 13777 H 1315.1 -0.925729 3.10181 0
M  V30 13778 H 1314 1.35966 3.48517 0
M  V30 13779 H 1315.34 1.77054 4.59252 0
M  V30 13780 N 1316.99 -1.36373 0.789944 0
M  V30 13781 C 1318.21 -2.04011 0.373396 0
M  V30 13782 C 1318.64 -1.59171 -1.00231 0
M  V30 13783 O 1318 -0.760431 -1.64582 0
M  V30 13784 C 1318.04 -3.5783 0.446083 0
M  V30 13785 O 1317.15 -4.08759 -0.54678 0
M  V30 13786 H 1316.49 -0.644807 0.158495 0
M  V30 13787 H 1319.02 -1.74317 1.0712 0
M  V30 13788 H 1319.03 -4.06822 0.309877 0
M  V30 13789 H 1317.7 -3.89819 1.44962 0
M  V30 13790 H 1316.28 -3.71038 -0.372192 0
M  V30 13791 N 1318.47 -0.542005 -1.47987 0
M  V30 13792 C 1319.38 0.217677 -2.33588 0
M  V30 13793 C 1320.39 0.927093 -1.47245 0
M  V30 13794 O 1321.57 0.899378 -1.80203 0
M  V30 13795 C 1318.63 1.24376 -3.23622 0
M  V30 13796 C 1317.69 0.543407 -4.25847 0
M  V30 13797 C 1316.93 1.5206 -5.11579 0
M  V30 13798 O 1317.15 2.75425 -4.99497 0
M  V30 13799 O 1316.08 1.05341 -5.9261 0
M  V30 13800 H 1319.91 -0.484089 -2.99817 0
M  V30 13801 H 1317.49 -0.302783 -1.463 0
M  V30 13802 H 1319.38 1.83644 -3.7928 0
M  V30 13803 H 1318.05 1.92772 -2.6004 0
M  V30 13804 H 1316.96 -0.090074 -3.73992 0
M  V30 13805 H 1318.29 -0.0988264 -4.92101 0
M  V30 13806 N 1319.94 1.55134 -0.277709 0
M  V30 13807 C 1320.88 2.20028 0.641913 0
M  V30 13808 C 1321.89 1.18578 1.11549 0
M  V30 13809 O 1323.08 1.45291 1.03695 0
M  V30 13810 C 1320.18 2.81443 1.88794 0
M  V30 13811 C 1319.35 4.08607 1.56074 0
M  V30 13812 C 1318.41 4.54045 2.6595 0
M  V30 13813 O 1317.44 5.19762 2.32026 0
M  V30 13814 N 1318.64 4.24403 3.96058 0
M  V30 13815 H 1321.4 2.99575 0.0864929 0
M  V30 13816 H 1318.96 1.61598 -0.0989178 0
M  V30 13817 H 1320.96 3.08784 2.616 0
M  V30 13818 H 1319.53 2.05873 2.35234 0
M  V30 13819 H 1318.75 3.88527 0.666388 0
M  V30 13820 H 1320.03 4.91455 1.31719 0
M  V30 13821 H 1319.43 3.71708 4.26439 0
M  V30 13822 H 1317.99 4.56509 4.65234 0
M  V30 13823 N 1321.42 0.00503138 1.57599 0
M  V30 13824 C 1322.84 -0.351109 1.5569 0
M  V30 13825 C 1323.04 -1.74465 1.00818 0
M  V30 13826 O 1322.09 -2.44144 0.64422 0
M  V30 13827 C 1323.41 -0.221738 2.99881 0
M  V30 13828 C 1324.95 -0.296303 3.11594 0
M  V30 13829 C 1325.43 -0.195998 4.5758 0
M  V30 13830 N 1326.92 -0.253741 4.62504 0
M  V30 13831 C 1327.66 -0.199546 5.73053 0
M  V30 13832 N 1327.15 -0.0956553 6.92734 0
M  V30 13833 N 1328.94 -0.251779 5.61536 0
M  V30 13834 H 1321.1 0.916578 1.91605 0
M  V30 13835 H 1323.36 0.351802 0.880306 0
M  V30 13836 H 1323.06 0.737255 3.43886 0
M  V30 13837 H 1322.94 -1.00178 3.63654 0
M  V30 13838 H 1325.33 -1.24574 2.67517 0
M  V30 13839 H 1325.41 0.513692 2.50589 0
M  V30 13840 H 1325.05 0.749918 5.02333 0
M  V30 13841 H 1324.98 -1.02455 5.16537 0
M  V30 13842 H 1327.47 -0.335163 3.76411 0
M  V30 13843 H 1327.78 -0.0603357 7.72776 0
M  V30 13844 H 1326.13 -0.0612113 6.94973 0
M  V30 13845 H 1329.32 -0.331173 4.66927 0
M  V30 13846 H 1329.49 -0.206078 6.47672 0
M  V30 13847 N 1322.9 -1.55308 -0.267798 0
M  V30 13848 C 1324.31 -1.66814 -0.838459 0
M  V30 13849 C 1324.66 -0.598609 -1.86845 0
M  V30 13850 O 1323.79 0.25896 -2.14845 0
M  V30 13851 C 1324.38 -3.02408 -1.52758 0
M  V30 13852 C 1322.94 -3.15923 -2.04621 0
M  V30 13853 C 1322.09 -2.62628 -0.890044 0
M  V30 13854 H 1325.04 -1.58639 -0.0440354 0
M  V30 13855 H 1325.06 -2.95687 -2.39478 0
M  V30 13856 H 1324.57 -3.80228 -0.777695 0
M  V30 13857 H 1322.67 -2.42886 -2.82555 0
M  V30 13858 H 1322.79 -4.22556 -2.25794 0
M  V30 13859 H 1321.15 -2.19918 -1.28485 0
M  V30 13860 H 1321.93 -3.42956 -0.153579 0
M  V30 13861 N 1324.38 0.532545 -1.4833 0
M  V30 13862 C 1325.79 1.11451 -1.49785 0
M  V30 13863 C 1326.14 1.94386 -0.266207 0
M  V30 13864 O 1325.26 2.07121 0.62688 0
M  V30 13865 C 1325.86 2.0279 -2.71407 0
M  V30 13866 C 1324.42 2.56209 -2.75742 0
M  V30 13867 C 1323.57 1.33114 -2.43261 0
M  V30 13868 H 1326.52 0.317924 -1.55483 0
M  V30 13869 H 1326.54 2.87038 -2.49779 0
M  V30 13870 H 1326.05 1.42401 -3.61031 0
M  V30 13871 H 1324.15 3.20327 -1.9032 0
M  V30 13872 H 1324.26 2.95518 -3.77102 0
M  V30 13873 H 1322.63 1.64607 -1.94362 0
M  V30 13874 H 1323.41 0.744809 -3.35123 0
M  V30 13875 N 1325.86 1.36875 0.78122 0
M  V30 13876 C 1327.1 1.31559 1.53943 0
M  V30 13877 C 1327.43 -0.10273 1.94229 0
M  V30 13878 O 1326.69 -1.07386 1.63605 0
M  V30 13879 C 1326.98 2.19173 2.82309 0
M  V30 13880 C 1326.65 3.67595 2.61121 0
M  V30 13881 C 1325.31 4.08047 2.55051 0
M  V30 13882 C 1327.66 4.61665 2.41898 0
M  V30 13883 C 1324.99 5.40697 2.27736 0
M  V30 13884 C 1327.34 5.94542 2.16108 0
M  V30 13885 C 1326.01 6.34109 2.08476 0
M  V30 13886 H 1325.28 0.48141 0.563317 0
M  V30 13887 H 1327.93 1.68999 0.900638 0
M  V30 13888 H 1326.23 1.74696 3.50697 0
M  V30 13889 H 1327.93 2.12379 3.40141 0
M  V30 13890 H 1324.52 3.35509 2.66705 0
M  V30 13891 H 1328.7 4.3128 2.45584 0
M  V30 13892 H 1323.96 5.70325 2.20315 0
M  V30 13893 H 1328.13 6.66994 2.0023 0
M  V30 13894 H 1325.76 7.36823 1.87073 0
M  V30 13895 N 1327.33 -1.00632 1.21289 0
M  V30 13896 C 1328.56 -1.78503 1.05601 0
M  V30 13897 C 1328.98 -1.84015 -0.389879 0
M  V30 13898 O 1328.34 -1.28277 -1.2812 0
M  V30 13899 C 1328.39 -3.20313 1.65626 0
M  V30 13900 O 1327.49 -4.02441 0.900841 0
M  V30 13901 H 1326.83 -0.550183 0.371746 0
M  V30 13902 H 1329.36 -1.26505 1.60803 0
M  V30 13903 H 1329.37 -3.70992 1.69792 0
M  V30 13904 H 1328.05 -3.15616 2.7085 0
M  V30 13905 H 1326.63 -3.61009 0.934178 0
M  V30 13906 N 1328.81 -1.02043 -1.20104 0
M  V30 13907 C 1329.74 -0.552093 -2.22451 0
M  V30 13908 C 1330.76 0.367547 -1.58597 0
M  V30 13909 O 1331.95 0.165285 -1.77733 0
M  V30 13910 C 1329.05 0.215833 -3.38212 0
M  V30 13911 C 1328.22 -0.70666 -4.31654 0
M  V30 13912 C 1327.28 0.0143628 -5.26198 0
M  V30 13913 O 1326.3 -0.609413 -5.65928 0
M  V30 13914 N 1327.51 1.28794 -5.66032 0
M  V30 13915 H 1330.27 -1.43229 -2.6326 0
M  V30 13916 H 1327.83 -0.89842 -1.34685 0
M  V30 13917 H 1329.82 0.707523 -3.98467 0
M  V30 13918 H 1328.39 0.997358 -2.96263 0
M  V30 13919 H 1327.61 -1.37859 -3.69308 0
M  V30 13920 H 1328.9 -1.33392 -4.91003 0
M  V30 13921 H 1328.3 1.8156 -5.35773 0
M  V30 13922 H 1326.86 1.72429 -6.28579 0
M  V30 13923 N 1330.29 1.35952 -0.797165 0
M  V30 13924 C 1331.22 2.32506 -0.215277 0
M  V30 13925 C 1332.2 1.57023 0.654046 0
M  V30 13926 O 1333.39 1.85139 0.586268 0
M  V30 13927 C 1330.52 3.41266 0.644557 0
M  V30 13928 C 1329.47 4.27816 -0.125501 0
M  V30 13929 C 1328.8 5.27813 0.855428 0
M  V30 13930 C 1330.1 5.05367 -1.31913 0
M  V30 13931 H 1331.79 2.8142 -1.02193 0
M  V30 13932 H 1329.34 1.35303 -0.492862 0
M  V30 13933 H 1331.29 4.07808 1.06163 0
M  V30 13934 H 1330.01 2.90938 1.484 0
M  V30 13935 H 1328.67 3.62841 -0.523639 0
M  V30 13936 H 1328.32 4.73755 1.69011 0
M  V30 13937 H 1328.02 5.86589 0.344566 0
M  V30 13938 H 1329.54 5.97227 1.2709 0
M  V30 13939 H 1330.96 5.64907 -0.977418 0
M  V30 13940 H 1329.36 5.73593 -1.76382 0
M  V30 13941 H 1330.43 4.36558 -2.11057 0
M  V30 13942 N 1331.77 0.549846 1.47697 0
M  V30 13943 C 1332.72 -0.222213 2.26915 0
M  V30 13944 C 1333.7 -0.891996 1.33911 0
M  V30 13945 O 1334.89 -0.791519 1.58316 0
M  V30 13946 C 1332.02 -1.25619 3.19491 0
M  V30 13947 C 1331.11 -0.590193 4.19973 0
M  V30 13948 N 1331.5 0.335519 5.04686 0
M  V30 13949 C 1329.8 -0.845012 4.37922 0
M  V30 13950 C 1330.5 0.721672 5.77206 0
M  V30 13951 N 1329.48 0.078184 5.43544 0
M  V30 13952 H 1333.28 0.489645 2.89792 0
M  V30 13953 H 1330.79 0.36926 1.58146 0
M  V30 13954 H 1332.79 -1.82319 3.74921 0
M  V30 13955 H 1331.45 -1.96922 2.5817 0
M  V30 13956 H 1332.46 0.709271 5.1302 0
M  V30 13957 H 1329.14 -1.54711 3.87777 0
M  V30 13958 H 1330.53 1.48191 6.55354 0
M  V30 13959 N 1333.25 -1.54984 0.285932 0
M  V30 13960 C 1334.66 -1.59455 -0.0679061 0
M  V30 13961 C 1334.86 -1.30308 -1.53695 0
M  V30 13962 O 1333.92 -1.06918 -2.28746 0
M  V30 13963 C 1335.23 -2.9903 0.316469 0
M  V30 13964 C 1336.78 -3.11885 0.263982 0
M  V30 13965 C 1337.25 -4.53744 0.622956 0
M  V30 13966 N 1338.75 -4.59618 0.574917 0
M  V30 13967 C 1339.48 -5.67429 0.825339 0
M  V30 13968 N 1338.98 -6.83341 1.14094 0
M  V30 13969 N 1340.77 -5.57028 0.75341 0
M  V30 13970 H 1332.92 -1.72194 1.2435 0
M  V30 13971 H 1335.18 -0.80348 0.503114 0
M  V30 13972 H 1334.89 -3.25232 1.33855 0
M  V30 13973 H 1334.76 -3.75688 -0.337371 0
M  V30 13974 H 1337.15 -2.85441 -0.748832 0
M  V30 13975 H 1337.23 -2.37416 0.952233 0
M  V30 13976 H 1336.88 -4.80915 1.63351 0
M  V30 13977 H 1336.81 -5.26528 -0.0872039 0
M  V30 13978 H 1339.3 -3.76356 0.341305 0
M  V30 13979 H 1339.61 -7.61471 1.3184 0
M  V30 13980 H 1337.95 -6.8493 1.17883 0
M  V30 13981 H 1341.15 -4.6535 0.506611 0
M  V30 13982 H 1341.32 -6.4097 0.95195 0
M  V30 13983 N 1334.72 -0.0133892 -1.57594 0
M  V30 13984 C 1335.97 0.668634 -1.91143 0
M  V30 13985 C 1336.3 1.7303 -0.888299 0
M  V30 13986 O 1335.55 1.95418 0.105056 0
M  V30 13987 C 1335.85 1.33729 -3.31438 0
M  V30 13988 C 1335.52 0.407527 -4.49055 0
M  V30 13989 C 1334.18 0.151573 -4.80961 0
M  V30 13990 C 1336.53 -0.231835 -5.20684 0
M  V30 13991 C 1333.86 -0.751812 -5.81863 0
M  V30 13992 C 1336.21 -1.12318 -6.22549 0
M  V30 13993 C 1334.88 -1.38818 -6.52906 0
M  V30 13994 H 1334.15 0.24467 -0.699441 0
M  V30 13995 H 1336.79 -0.0717876 -1.91365 0
M  V30 13996 H 1335.1 2.15209 -3.27403 0
M  V30 13997 H 1336.8 1.87128 -3.5466 0
M  V30 13998 H 1333.39 0.617192 -4.24133 0
M  V30 13999 H 1337.57 -0.0471268 -4.96278 0
M  V30 14000 H 1332.83 -0.964991 -6.03737 0
M  V30 14001 H 1337 -1.62488 -6.77179 0
M  V30 14002 H 1334.63 -2.08986 -7.3091 0
M  V30 14003 N 1336.2 1.55448 0.259558 0
M  V30 14004 C 1337.13 1.9226 1.32508 0
M  V30 14005 C 1338.11 0.786012 1.5085 0
M  V30 14006 O 1339.3 1.04526 1.6367 0
M  V30 14007 C 1336.43 2.20627 2.68218 0
M  V30 14008 C 1335.38 3.36418 2.64589 0
M  V30 14009 C 1334.71 3.50295 4.03977 0
M  V30 14010 C 1336.01 4.72452 2.2268 0
M  V30 14011 H 1337.7 2.81509 1.01945 0
M  V30 14012 H 1335.25 1.35444 0.488965 0
M  V30 14013 H 1337.2 2.44968 3.42883 0
M  V30 14014 H 1335.93 1.28191 3.00391 0
M  V30 14015 H 1334.58 3.12065 1.92382 0
M  V30 14016 H 1334.23 2.55302 4.33394 0
M  V30 14017 H 1333.93 4.28155 4.02439 0
M  V30 14018 H 1335.46 3.76944 4.8036 0
M  V30 14019 H 1336.87 4.96249 2.87071 0
M  V30 14020 H 1335.27 5.53323 2.32279 0
M  V30 14021 H 1336.34 4.70367 1.17826 0
M  V30 14022 N 1337.68 -0.524672 1.4861 0
M  V30 14023 C 1338.64 -1.61092 1.63039 0
M  V30 14024 C 1339.64 -1.52718 0.503387 0
M  V30 14025 O 1340.83 -1.56293 0.769304 0
M  V30 14026 C 1337.97 -3.00722 1.60558 0
M  V30 14027 H 1339.16 -1.49636 2.59902 0
M  V30 14028 H 1336.71 -0.747135 1.37287 0
M  V30 14029 H 1337.45 -3.1768 0.651926 0
M  V30 14030 H 1337.23 -3.0821 2.42382 0
M  V30 14031 H 1338.72 -3.79688 1.73859 0
M  V30 14032 N 1339.16 -1.37287 -0.77395 0
M  V30 14033 C 1340.07 -1.35059 -1.91823 0
M  V30 14034 C 1341.08 -0.250489 -1.72188 0
M  V30 14035 O 1342.26 -0.485501 -1.95461 0
M  V30 14036 C 1339.33 -1.15444 -3.26915 0
M  V30 14037 C 1338.39 -2.35073 -3.5922 0
M  V30 14038 C 1337.62 -2.16384 -4.87867 0
M  V30 14039 O 1337.84 -1.14696 -5.58749 0
M  V30 14040 O 1336.78 -3.0452 -5.19183 0
M  V30 14041 H 1340.6 -2.31432 -1.96654 0
M  V30 14042 H 1338.19 -1.17994 -0.916392 0
M  V30 14043 H 1340.07 -1.06484 -4.07724 0
M  V30 14044 H 1338.74 -0.221435 -3.22942 0
M  V30 14045 H 1337.65 -2.49604 -2.78655 0
M  V30 14046 H 1338.98 -3.26933 -3.67934 0
M  V30 14047 N 1340.64 0.999871 -1.21821 0
M  V30 14048 C 1341.91 1.71135 -0.947213 0
M  V30 14049 C 1342.29 2.04087 0.539601 0
M  V30 14050 O 1341.64 1.71866 1.5058 0
M  V30 14051 C 1341.85 2.96704 -1.8376 0
M  V30 14052 C 1343.2 3.69627 -2.08952 0
M  V30 14053 O 1344.22 3.06697 -1.81151 0
M  V30 14054 O 1343.08 4.82832 -2.55999 0
M  V30 14055 H 1340.18 0.746631 -0.355628 0
M  V30 14056 H 1342.72 1.05684 -1.32774 0
M  V30 14057 H 1341.49 2.68802 -2.84361 0
M  V30 14058 H 1341.12 3.69894 -1.45821 0
M  V30 14059 N 1342.11 1.02678 1.19562 0
M  V30 14060 C 1343.08 0.610407 2.20922 0
M  V30 14061 C 1344.08 -0.324858 1.57484 0
M  V30 14062 O 1345.27 -0.112153 1.73839 0
M  V30 14063 C 1342.4 -0.107115 3.40732 0
M  V30 14064 H 1343.59 1.50722 2.59274 0
M  V30 14065 H 1341.15 0.817725 1.33203 0
M  V30 14066 H 1341.88 -1.01837 3.07896 0
M  V30 14067 H 1341.67 0.564901 3.88009 0
M  V30 14068 H 1343.16 -0.385423 4.15818 0
M  V30 14069 N 1343.59 -1.35528 0.804364 0
M  V30 14070 C 1344.52 -2.32388 0.227604 0
M  V30 14071 C 1345.5 -1.57368 -0.645709 0
M  V30 14072 O 1346.69 -1.85448 -0.576441 0
M  V30 14073 C 1343.82 -3.41603 -0.62645 0
M  V30 14074 C 1342.77 -4.27743 0.148187 0
M  V30 14075 C 1342.1 -5.28259 -0.827425 0
M  V30 14076 C 1343.4 -5.04661 1.34591 0
M  V30 14077 H 1345.09 -2.80874 1.03684 0
M  V30 14078 H 1342.64 -1.3504 0.500031 0
M  V30 14079 H 1344.59 -4.08365 -1.03999 0
M  V30 14080 H 1343.32 -2.91721 -1.46855 0
M  V30 14081 H 1341.97 -3.62558 0.542874 0
M  V30 14082 H 1341.62 -4.74645 -1.66496 0
M  V30 14083 H 1341.32 -5.86763 -0.313453 0
M  V30 14084 H 1342.85 -5.97893 -1.23921 0
M  V30 14085 H 1344.26 -5.6438 1.00736 0
M  V30 14086 H 1342.66 -5.7265 1.79422 0
M  V30 14087 H 1343.73 -4.35432 2.1337 0
M  V30 14088 N 1345.07 -0.557671 -1.47404 0
M  V30 14089 C 1346.02 0.202834 -2.31714 0
M  V30 14090 C 1347.01 0.908873 -1.42954 0
M  V30 14091 O 1348.22 0.830106 -1.59716 0
M  V30 14092 H 1344.59 0.0842824 -0.747262 0
M  V30 14093 H 1346.57 -0.527431 -2.93702 0
M  V30 14094 C 1345.31 1.21937 -3.25617 0
M  V30 14095 H 1344.64 0.685506 -3.93879 0
M  V30 14096 H 1346.08 1.72237 -3.87441 0
M  V30 14097 C 1344.54 2.26748 -2.49173 0
M  V30 14098 O 1345.07 3.33681 -2.23651 0
M  V30 14099 N 1343.27 2.00687 -2.10174 0
M  V30 14100 H 1342.82 1.13741 -2.3113 0
M  V30 14101 H 1342.78 2.71031 -1.59342 0
M  V30 14102 N 1346.55 1.54831 -0.294147 0
M  V30 14103 C 1347.78 2.04411 0.319938 0
M  V30 14104 C 1348.19 1.17174 1.4804 0
M  V30 14105 O 1347.55 0.195881 1.81446 0
M  V30 14106 C 1347.6 3.52924 0.782751 0
M  V30 14107 O 1347.32 4.36844 -0.331512 0
M  V30 14108 C 1348.82 4.18474 1.4627 0
M  V30 14109 H 1346.04 0.667286 0.0704973 0
M  V30 14110 H 1348.59 1.9989 -0.431785 0
M  V30 14111 H 1346.74 3.57828 1.48451 0
M  V30 14112 H 1347.16 5.24493 0.0275743 0
M  V30 14113 H 1348.63 5.23933 1.73776 0
M  V30 14114 H 1349.11 3.67793 2.40052 0
M  V30 14115 H 1349.71 4.17626 0.804291 0
M  V30 14116 N 1348.03 0.0217466 1.57585 0
M  V30 14117 C 1349.27 -0.659463 1.91778 0
M  V30 14118 C 1349.61 -1.72201 0.897801 0
M  V30 14119 O 1348.88 -1.94333 -0.080509 0
M  V30 14120 C 1349.16 -1.28269 3.36481 0
M  V30 14121 C 1349.02 -0.230201 4.49211 0
M  V30 14122 C 1350.34 -2.20279 3.81005 0
M  V30 14123 H 1347.46 -0.238263 0.697424 0
M  V30 14124 H 1350.1 0.0774967 1.89842 0
M  V30 14125 H 1348.25 -1.9108 3.38262 0
M  V30 14126 H 1349.92 0.399901 4.59563 0
M  V30 14127 H 1348.16 0.445157 4.3151 0
M  V30 14128 H 1348.83 -0.705732 5.4747 0
M  V30 14129 H 1351.31 -1.67463 3.80914 0
M  V30 14130 H 1350.19 -2.60842 4.82962 0
M  V30 14131 H 1350.45 -3.09092 3.16093 0
M  V30 14132 O 1349.54 -1.61053 -0.120053 0
M  V30 14133 H 1350.24 -1.7853 -0.751456 0
M  V30 END ATOM
M  V30 BEGIN BOND
M  V30 END BOND
M  V30 END CTAB
M  END
$$$$
