drugbank_target|P55157 Microsomal triglyceride transfer protein large subunit (DB01094; DB04852; DB05678; DB08827)
 OpenBabel12092119273D

  0  0  0     0  0            999 V3000
M  V30 BEGIN CTAB
M  V30 COUNTS 14113 14224 0 0 0
M  V30 BEGIN ATOM
M  V30 1 H -0.908 1.98254 -0.117106 0
M  V30 2 N 0 1.576 0 0
M  V30 3 C 0.933 2.03868 1.02534 0
M  V30 4 C 1.911 0.928543 1.3348 0
M  V30 5 O 3.095 1.19667 1.45644 0
M  V30 6 C 0.222 2.43627 2.35294 0
M  V30 7 C -0.732 3.65373 2.2001 0
M  V30 8 S 0.101 5.13292 1.52614 0
M  V30 9 C 1.257 5.56322 2.86805 0
M  V30 10 H 1.49 2.90518 0.631377 0
M  V30 11 H -0.977 1.52953 0.210867 0
M  V30 12 H 0.981 2.67203 3.11629 0
M  V30 13 H -0.358 1.57376 2.7183 0
M  V30 14 H -1.165 3.90944 3.18086 0
M  V30 15 H -1.563 3.418 1.51819 0
M  V30 16 H 0.729 5.58782 3.83104 0
M  V30 17 H 1.672 6.56266 2.65933 0
M  V30 18 H 2.08 4.83886 2.90714 0
M  V30 19 N 1.4781 -0.272755 1.55222 0
M  V30 20 C 2.7271 -1.00211 1.75045 0
M  V30 21 C 3.0401 -1.87441 0.559046 0
M  V30 22 O 4.2461 -2.63856 0.639698 0
M  V30 23 C 2.7021 -1.83165 3.09804 0
M  V30 24 C 2.3101 -1.008 4.36513 0
M  V30 25 C 4.0541 -2.55529 3.38977 0
M  V30 26 C 1.9611 -1.83194 5.62311 0
M  V30 27 H 0.8911 -0.377878 0.652476 0
M  V30 28 H 3.5421 -0.257776 1.8168 0
M  V30 29 H 1.9241 -2.61694 2.97207 0
M  V30 30 H 3.0981 -0.266855 4.60027 0
M  V30 31 H 1.4131 -0.398897 4.14485 0
M  V30 32 H 4.0101 -3.17578 4.30172 0
M  V30 33 H 4.3531 -3.25825 2.59121 0
M  V30 34 H 4.8861 -1.84029 3.52673 0
M  V30 35 H 1.6251 -1.17318 6.44916 0
M  V30 36 H 1.1451 -2.54905 5.4294 0
M  V30 37 H 2.8241 -2.40552 6.00619 0
M  V30 38 N 2.9562 -1.48159 -0.537278 0
M  V30 39 C 3.8862 -1.65029 -1.6519 0
M  V30 40 C 4.8672 -0.499281 -1.62607 0
M  V30 41 O 6.0522 -0.730972 -1.79918 0
M  V30 42 C 3.1822 -1.68303 -3.03795 0
M  V30 43 C 2.1362 -2.8283 -3.21234 0
M  V30 44 C 1.4622 -2.71189 -4.60826 0
M  V30 45 C 2.7622 -4.24211 -3.04701 0
M  V30 46 H 4.4562 -2.58341 -1.51328 0
M  V30 47 H 2.0022 -1.24325 -0.726585 0
M  V30 48 H 3.9552 -1.78693 -3.81637 0
M  V30 49 H 2.6792 -0.715635 -3.18663 0
M  V30 50 H 1.3382 -2.71983 -2.45807 0
M  V30 51 H 0.9862 -1.72435 -4.7252 0
M  V30 52 H 0.6862 -3.48035 -4.7344 0
M  V30 53 H 2.2102 -2.83537 -5.40777 0
M  V30 54 H 3.6242 -4.3593 -3.72341 0
M  V30 55 H 2.0212 -5.01998 -3.28813 0
M  V30 56 H 3.0912 -4.41184 -2.01209 0
M  V30 57 N 4.4343 0.785586 -1.36625 0
M  V30 58 C 5.3643 1.91259 -1.33949 0
M  V30 59 C 6.3453 1.68795 -0.210325 0
M  V30 60 O 7.5303 1.89854 -0.408561 0
M  V30 61 C 4.6603 3.28339 -1.13186 0
M  V30 62 C 3.6143 3.65335 -2.22967 0
M  V30 63 C 2.9403 5.00806 -1.87342 0
M  V30 64 C 4.2403 3.7352 -3.65075 0
M  V30 65 H 5.9343 1.93755 -2.28253 0
M  V30 66 H 3.4803 0.930788 -1.09874 0
M  V30 67 H 5.4333 4.06804 -1.09948 0
M  V30 68 H 4.1573 3.2624 -0.153332 0
M  V30 69 H 2.8163 2.89169 -2.25337 0
M  V30 70 H 2.4643 4.95233 -0.880545 0
M  V30 71 H 2.1643 5.26529 -2.60846 0
M  V30 72 H 3.6883 5.81687 -1.85667 0
M  V30 73 H 5.1023 4.42168 -3.64911 0
M  V30 74 H 3.4993 4.10731 -4.37516 0
M  V30 75 H 4.5693 2.74527 -3.99703 0
M  V30 76 N 5.9124 1.20967 1.01018 0
M  V30 77 C 6.8754 0.965918 2.07853 0
M  V30 78 C 7.8754 -0.0610545 1.60684 0
M  V30 79 O 9.0654 0.175681 1.73312 0
M  V30 80 C 6.1974 0.455513 3.37843 0
M  V30 81 H 7.3904 1.91365 2.3091 0
M  V30 82 H 4.9434 1.02594 1.17916 0
M  V30 83 H 5.6784 -0.497381 3.20463 0
M  V30 84 H 5.4634 1.19622 3.73407 0
M  V30 85 H 6.9534 0.304667 4.16487 0
M  V30 86 N 7.3905 -1.2043 1.01659 0
M  V30 87 C 8.6365 -1.90079 0.706963 0
M  V30 88 C 8.9695 -1.78648 -0.761474 0
M  V30 89 O 8.2445 -1.17069 -1.55323 0
M  V30 90 C 8.5275 -3.41469 1.14327 0
M  V30 91 C 8.3805 -3.61833 2.67201 0
M  V30 92 C 9.6995 -4.34261 0.714529 0
M  V30 93 H 6.8185 -0.690254 0.2583 0
M  V30 94 H 9.4605 -1.41826 1.26433 0
M  V30 95 H 7.6105 -3.82696 0.669056 0
M  V30 96 H 9.2825 -3.2986 3.22475 0
M  V30 97 H 7.5255 -3.05304 3.08175 0
M  V30 98 H 8.1965 -4.67955 2.92783 0
M  V30 99 H 10.6725 -4.00682 1.12221 0
M  V30 100 H 9.5485 -5.38806 1.04784 0
M  V30 101 H 9.8095 -4.40431 -0.383799 0
M  V30 102 N 8.8686 -0.792821 -1.36206 0
M  V30 103 C 9.7986 -0.207853 -2.32573 0
M  V30 104 C 10.7796 0.659055 -1.56813 0
M  V30 105 O 11.9646 0.592176 -1.84951 0
M  V30 106 C 9.0946 0.655449 -3.41059 0
M  V30 107 C 8.0486 -0.111842 -4.27854 0
M  V30 108 C 7.3746 0.872274 -5.27537 0
M  V30 109 C 8.6746 -1.30299 -5.05786 0
M  V30 110 H 10.3686 -1.01294 -2.81744 0
M  V30 111 H 7.9146 -0.48854 -1.3546 0
M  V30 112 H 9.8676 1.07464 -4.07467 0
M  V30 113 H 8.5916 1.49328 -2.90463 0
M  V30 114 H 7.2506 -0.512053 -3.63006 0
M  V30 115 H 6.8986 1.70523 -4.73214 0
M  V30 116 H 6.5986 0.363291 -5.86476 0
M  V30 117 H 8.1226 1.28996 -5.96818 0
M  V30 118 H 9.5366 -0.959379 -5.65216 0
M  V30 119 H 7.9336 -1.7455 -5.74154 0
M  V30 120 H 9.0036 -2.09663 -4.37229 0
M  V30 121 N 10.3467 1.47872 -0.545128 0
M  V30 122 C 11.5937 2.02493 -0.0165858 0
M  V30 123 C 11.9217 1.42073 1.32836 0
M  V30 124 O 11.1767 0.561459 1.87473 0
M  V30 125 C 11.4757 3.57131 0.13867 0
M  V30 126 C 11.1417 4.36411 -1.13384 0
M  V30 127 C 9.8037 4.57792 -1.48256 0
M  V30 128 C 12.1557 4.82223 -1.97764 0
M  V30 129 C 9.4837 5.22233 -2.67376 0
M  V30 130 C 11.8357 5.47977 -3.16076 0
M  V30 131 C 10.4997 5.67593 -3.51275 0
M  V30 132 H 9.7697 0.740975 -0.00606918 0
M  V30 133 H 12.4167 1.77683 -0.714207 0
M  V30 134 H 10.7217 3.80865 0.919172 0
M  V30 135 H 12.4187 3.97031 0.562782 0
M  V30 136 H 9.0087 4.2004 -0.852297 0
M  V30 137 H 13.1927 4.65493 -1.72132 0
M  V30 138 H 8.4487 5.35616 -2.94831 0
M  V30 139 H 12.6227 5.8244 -3.81755 0
M  V30 140 H 10.2497 6.17298 -4.43675 0
M  V30 141 N 11.8248 0.280983 1.55075 0
M  V30 142 C 12.7548 -0.597469 2.25727 0
M  V30 143 C 13.7358 -1.15417 1.24952 0
M  V30 144 O 14.9208 -1.18722 1.53684 0
M  V30 145 C 12.0508 -1.7789 2.98283 0
M  V30 146 C 11.0048 -1.35347 4.06036 0
M  V30 147 C 10.3308 -2.61846 4.66198 0
M  V30 148 C 11.6308 -0.499354 5.19907 0
M  V30 149 H 13.3248 -0.00824265 2.99399 0
M  V30 150 H 10.8708 -0.0025244 1.44 0
M  V30 151 H 12.8238 -2.39937 3.46422 0
M  V30 152 H 11.5478 -2.39405 2.22155 0
M  V30 153 H 10.2068 -0.756156 3.58717 0
M  V30 154 H 9.8548 -3.21632 3.86732 0
M  V30 155 H 9.5548 -2.3409 5.38958 0
M  V30 156 H 11.0788 -3.24732 5.1709 0
M  V30 157 H 12.4928 -1.02498 5.64063 0
M  V30 158 H 10.8898 -0.316424 5.99265 0
M  V30 159 H 11.9598 0.480459 4.82514 0
M  V30 160 N 13.3029 -1.57598 0.00835791 0
M  V30 161 C 14.5429 -1.92788 -0.679136 0
M  V30 162 C 14.9069 -0.883378 -1.70471 0
M  V30 163 O 16.1079 -1.12079 -2.44319 0
M  V30 164 C 14.3789 -3.32994 -1.29807 0
M  V30 165 S 15.9379 -3.90082 -2.00952 0
M  V30 166 H 12.7559 -0.67475 -0.224127 0
M  V30 167 H 15.3579 -1.95385 0.0670497 0
M  V30 168 H 14.0619 -4.06846 -0.538922 0
M  V30 169 H 13.5929 -3.33791 -2.082 0
M  V30 170 H 15.6079 -3.71834 -3.28563 0
M  V30 171 N 14.781 0.264519 -1.55364 0
M  V30 172 C 16.028 0.994986 -1.7637 0
M  V30 173 C 16.356 1.85976 -0.5695 0
M  V30 174 O 15.611 1.90509 0.44776 0
M  V30 175 C 15.91 1.9004 -3.02687 0
M  V30 176 C 15.576 1.19243 -4.34847 0
M  V30 177 C 14.238 0.996709 -4.70764 0
M  V30 178 C 16.59 0.689296 -5.16622 0
M  V30 179 C 13.918 0.285261 -5.86006 0
M  V30 180 C 16.27 -0.00860079 -6.32599 0
M  V30 181 C 14.934 -0.215963 -6.67151 0
M  V30 182 H 14.204 0.364091 -0.645383 0
M  V30 183 H 16.851 0.266543 -1.89636 0
M  V30 184 H 15.156 2.69533 -2.84357 0
M  V30 185 H 16.853 2.46695 -3.16137 0
M  V30 186 H 13.443 1.3549 -4.06621 0
M  V30 187 H 17.627 0.828108 -4.89342 0
M  V30 188 H 12.883 0.113961 -6.11294 0
M  V30 189 H 17.057 -0.406186 -6.95214 0
M  V30 190 H 14.684 -0.769217 -7.56298 0
M  V30 191 N 16.2591 1.48442 0.529413 0
M  V30 192 C 17.5081 1.55742 1.28169 0
M  V30 193 C 17.8211 0.236511 1.94165 0
M  V30 194 O 19.0271 0.187761 2.7085 0
M  V30 195 C 17.4831 2.74667 2.32564 0
M  V30 196 C 17.0911 4.13402 1.72636 0
M  V30 197 C 18.8351 2.9128 3.08798 0
M  V30 198 C 16.7421 5.23587 2.74975 0
M  V30 199 H 15.6721 0.579796 0.48203 0
M  V30 200 H 18.3231 1.74776 0.559056 0
M  V30 201 H 16.7051 2.49067 3.07866 0
M  V30 202 H 17.8791 4.49022 1.03519 0
M  V30 203 H 16.1941 4.0191 1.08892 0
M  V30 204 H 18.7911 3.70767 3.85274 0
M  V30 205 H 19.1341 2.00757 3.64695 0
M  V30 206 H 19.6671 3.16782 2.40611 0
M  V30 207 H 16.4061 6.16076 2.23897 0
M  V30 208 H 15.9261 4.92454 3.42417 0
M  V30 209 H 17.6051 5.51724 3.37949 0
M  V30 210 N 17.7372 -0.778329 1.37039 0
M  V30 211 C 18.9622 -1.57248 1.35233 0
M  V30 212 C 19.3872 -1.87999 -0.0615568 0
M  V30 213 O 18.7452 -1.48734 -1.03672 0
M  V30 214 C 18.7932 -2.86353 2.19167 0
M  V30 215 O 17.8972 -3.80442 1.59178 0
M  V30 216 H 17.2382 -0.476569 0.462362 0
M  V30 217 H 19.7682 -0.963853 1.80474 0
M  V30 218 H 19.7782 -3.35519 2.32145 0
M  V30 219 H 18.4532 -2.63299 3.21942 0
M  V30 220 H 17.0302 -3.39067 1.55203 0
M  V30 221 N 19.2153 -1.21501 -1.00376 0
M  V30 222 C 20.4403 -1.05977 -1.78279 0
M  V30 223 C 20.8653 0.385994 -1.84097 0
M  V30 224 O 20.2233 1.27849 -1.28547 0
M  V30 225 C 20.2713 -1.66302 -3.19963 0
M  V30 226 O 19.3753 -0.909333 -4.0225 0
M  V30 227 H 18.7163 -0.372906 -0.549397 0
M  V30 228 H 21.2463 -1.6107 -1.26165 0
M  V30 229 H 21.2563 -1.70574 -3.70632 0
M  V30 230 H 19.9313 -2.71515 -3.15043 0
M  V30 231 H 18.5083 -0.941795 -3.60811 0
M  V30 232 N 20.6934 1.19889 -1.02296 0
M  V30 233 C 21.9234 1.93109 -0.734332 0
M  V30 234 C 22.3314 1.75377 0.709889 0
M  V30 235 O 21.6744 1.06912 1.49384 0
M  V30 236 C 21.7364 3.45362 -0.99827 0
M  V30 237 C 21.4004 3.8686 -2.43287 0
M  V30 238 C 22.3974 3.92102 -3.41397 0
M  V30 239 C 20.0824 4.18668 -2.77529 0
M  V30 240 C 22.0764 4.28573 -4.71809 0
M  V30 241 C 19.7634 4.54813 -4.08153 0
M  V30 242 C 20.7614 4.59739 -5.05103 0
M  V30 243 O 20.4494 4.95051 -6.33388 0
M  V30 244 H 20.1814 0.620409 -0.268456 0
M  V30 245 H 22.7354 1.53144 -1.3688 0
M  V30 246 H 20.9654 3.85482 -0.306645 0
M  V30 247 H 22.6544 3.99814 -0.700234 0
M  V30 248 H 23.4204 3.67685 -3.1628 0
M  V30 249 H 19.2994 4.14021 -2.0275 0
M  V30 250 H 22.8434 4.32333 -5.4748 0
M  V30 251 H 18.7404 4.78687 -4.33047 0
M  V30 252 H 19.5084 5.1302 -6.37772 0
M  V30 253 N 22.1715 0.800033 1.35784 0
M  V30 254 C 23.3965 0.388511 2.03729 0
M  V30 255 C 23.8215 -0.990481 1.5991 0
M  V30 256 O 23.1795 -1.64013 0.772612 0
M  V30 257 C 23.2275 0.4726 3.5749 0
M  V30 258 O 22.3315 -0.51646 4.09153 0
M  V30 259 H 21.6725 0.163271 0.643614 0
M  V30 260 H 24.2025 1.0841 1.73518 0
M  V30 261 H 24.2125 0.34003 4.06581 0
M  V30 262 H 22.8875 1.47848 3.88734 0
M  V30 263 H 21.4645 -0.344673 3.71304 0
M  V30 264 N 23.6496 -1.47581 0.552962 0
M  V30 265 C 24.6126 -2.28439 -0.186605 0
M  V30 266 C 25.6126 -1.36706 -0.84665 0
M  V30 267 O 26.8026 -1.59378 -0.703164 0
M  V30 268 C 23.9346 -3.16264 -1.2724 0
M  V30 269 H 25.1276 -2.95294 0.523609 0
M  V30 270 H 22.6806 -1.532 0.309745 0
M  V30 271 H 23.4156 -2.54091 -2.01514 0
M  V30 272 H 23.2006 -3.83769 -0.803968 0
M  V30 273 H 24.6906 -3.77198 -1.79196 0
M  V30 274 N 25.1277 -0.289203 -1.54924 0
M  V30 275 C 26.3527 0.329299 -2.04769 0
M  V30 276 C 26.7777 1.4763 -1.16564 0
M  V30 277 O 26.1357 1.80527 -0.167186 0
M  V30 278 C 26.1837 0.774438 -3.52186 0
M  V30 279 O 25.2877 1.88038 -3.67036 0
M  V30 280 H 24.6287 0.0659259 -0.660719 0
M  V30 281 H 27.1587 -0.42761 -2.00082 0
M  V30 282 H 27.1687 1.06642 -3.93816 0
M  V30 283 H 25.8437 -0.0646707 -4.1585 0
M  V30 284 H 24.4207 1.58985 -3.3731 0
M  V30 285 N 26.6058 1.57591 -0.0167156 0
M  V30 286 C 27.8518 1.91567 0.665582 0
M  V30 287 C 28.1848 0.892298 1.72487 0
M  V30 288 O 27.4598 -0.0867127 1.94307 0
M  V30 289 C 27.7428 3.36069 1.29342 0
M  V30 290 C 27.5958 4.49135 0.244541 0
M  V30 291 C 28.9148 3.803 2.21495 0
M  V30 292 H 26.0338 0.69666 0.240488 0
M  V30 293 H 28.6758 1.89866 -0.0714356 0
M  V30 294 H 26.8258 3.3765 1.92158 0
M  V30 295 H 28.4978 4.59689 -0.385228 0
M  V30 296 H 26.7408 4.3165 -0.431379 0
M  V30 297 H 27.4118 5.47242 0.723207 0
M  V30 298 H 29.8878 3.80377 1.68678 0
M  V30 299 H 28.7638 4.82127 2.62382 0
M  V30 300 H 29.0248 3.15104 3.101 0
M  V30 301 N 28.0839 -0.256276 1.55502 0
M  V30 302 C 29.0309 -1.31714 1.89526 0
M  V30 303 C 30.0009 -1.4828 0.748479 0
M  V30 304 O 31.1859 -1.62416 1.00128 0
M  V30 305 C 28.3259 -2.66933 2.18725 0
M  V30 306 C 27.4389 -2.58452 3.4616 0
M  V30 307 C 26.5739 -3.85961 3.64976 0
M  V30 308 C 25.6129 -3.72059 4.86044 0
M  V30 309 N 24.7499 -4.9144 5.01429 0
M  V30 310 H 29.5899 -1.01998 2.80001 0
M  V30 311 H 27.1269 -0.492413 1.38613 0
M  V30 312 H 29.0849 -3.4563 2.33657 0
M  V30 313 H 27.7149 -2.94816 1.31466 0
M  V30 314 H 26.7669 -1.71374 3.3961 0
M  V30 315 H 28.0789 -2.44085 4.34999 0
M  V30 316 H 27.2329 -4.73101 3.79816 0
M  V30 317 H 25.9719 -4.03215 2.74353 0
M  V30 318 H 24.9769 -2.83302 4.7119 0
M  V30 319 H 26.2019 -3.56309 5.78118 0
M  V30 320 H 24.1479 -5.09072 4.13741 0
M  V30 321 H 24.0649 -4.79668 5.84341 0
M  V30 322 H 25.3329 -5.80104 5.20672 0
M  V30 323 N 29.562 -1.4872 -0.521534 0
M  V30 324 C 30.81 -1.56857 -1.27437 0
M  V30 325 C 31.131 -0.247982 -1.93417 0
M  V30 326 O 30.401 0.731151 -1.81744 0
M  V30 327 H 28.981 -0.577885 -0.473347 0
M  V30 328 H 31.643 -1.85233 -0.606205 0
M  V30 329 H 30.739 -2.35402 -2.0492 0
M  V30 330 N 31.0401 0.771051 -1.3745 0
M  V30 331 C 31.9901 1.87456 -1.29785 0
M  V30 332 C 32.9741 1.59827 -0.185541 0
M  V30 333 O 34.1661 1.71945 -0.419997 0
M  V30 334 C 31.2951 3.24935 -1.1078 0
M  V30 335 C 30.3811 3.58514 -2.26558 0
M  V30 336 N 30.7721 3.6327 -3.5195 0
M  V30 337 C 29.0701 3.88683 -2.18727 0
M  V30 338 C 29.7711 3.93616 -4.283 0
M  V30 339 N 28.7471 4.09551 -3.57448 0
M  V30 340 H 32.5491 1.89386 -2.24745 0
M  V30 341 H 30.0631 0.967531 -1.30432 0
M  V30 342 H 32.0601 4.03881 -1.03374 0
M  V30 343 H 30.7201 3.24268 -0.16738 0
M  V30 344 H 31.7311 3.45458 -3.85848 0
M  V30 345 H 28.4081 3.95834 -1.32746 0
M  V30 346 H 29.7981 4.04066 -5.36824 0
M  V30 347 N 32.5182 1.22032 0.997298 0
M  V30 348 C 33.7462 1.06841 1.7718 0
M  V30 349 C 34.1612 -0.381325 1.84909 0
M  V30 350 O 33.5182 -1.26437 1.31605 0
M  V30 351 C 33.5692 1.66814 3.20711 0
M  V30 352 O 33.2902 3.06116 3.13408 0
M  V30 353 C 34.7912 1.56838 4.14628 0
M  V30 354 H 32.0112 0.374782 0.556578 0
M  V30 355 H 34.5552 1.61532 1.2541 0
M  V30 356 H 32.7102 1.16196 3.69564 0
M  V30 357 H 33.1242 3.34926 4.0364 0
M  V30 358 H 34.5982 2.03532 5.13107 0
M  V30 359 H 35.0752 0.524155 4.36061 0
M  V30 360 H 35.6812 2.06741 3.7167 0
M  V30 361 N 33.9963 -1.19345 1.0293 0
M  V30 362 C 35.2243 -1.92997 0.745644 0
M  V30 363 C 35.6393 -1.75519 -0.695589 0
M  V30 364 O 34.9963 -1.07737 -1.47306 0
M  V30 365 C 35.0473 -3.44741 1.08792 0
M  V30 366 O 34.7683 -3.61658 2.47256 0
M  V30 367 C 36.2693 -4.35515 0.827129 0
M  V30 368 H 33.4893 -0.613042 0.272801 0
M  V30 369 H 36.0333 -1.51473 1.3739 0
M  V30 370 H 34.1883 -3.84097 0.504832 0
M  V30 371 H 34.6023 -4.55514 2.60015 0
M  V30 372 H 36.0763 -5.40589 1.11658 0
M  V30 373 H 36.5533 -4.38552 -0.238436 0
M  V30 374 H 37.1593 -4.01841 1.39297 0
M  V30 375 N 35.4744 -0.807222 -1.35358 0
M  V30 376 C 36.7224 -0.387122 -1.98358 0
M  V30 377 C 37.0434 1.04942 -1.64354 0
M  V30 378 O 36.3134 1.72615 -0.926339 0
M  V30 379 H 34.8934 -0.140154 -0.733734 0
M  V30 380 H 37.5554 -1.0332 -1.6526 0
M  V30 381 H 36.6514 -0.493352 -3.08176 0
M  V30 382 N 36.9525 1.47285 -0.560781 0
M  V30 383 C 37.8825 2.32857 0.173105 0
M  V30 384 C 38.8635 1.44009 0.905281 0
M  V30 385 O 40.0485 1.7286 0.885046 0
M  V30 386 C 37.1785 3.25861 1.20133 0
M  V30 387 C 36.1325 4.23978 0.585388 0
M  V30 388 C 35.4585 5.06332 1.7185 0
M  V30 389 C 36.7585 5.20242 -0.463178 0
M  V30 390 H 38.4525 2.94466 -0.541307 0
M  V30 391 H 35.9985 1.41601 -0.261764 0
M  V30 392 H 37.9515 3.84569 1.72293 0
M  V30 393 H 36.6755 2.62315 1.94573 0
M  V30 394 H 35.3345 3.66501 0.085054 0
M  V30 395 H 34.9825 4.39186 2.45203 0
M  V30 396 H 34.6825 5.72762 1.31213 0
M  V30 397 H 36.2065 5.67899 2.24329 0
M  V30 398 H 37.6205 5.73293 -0.027502 0
M  V30 399 H 36.0175 5.94896 -0.788627 0
M  V30 400 H 37.0875 4.65504 -1.35773 0
M  V30 401 N 38.4306 0.297415 1.54768 0
M  V30 402 C 39.6556 -0.318435 2.04941 0
M  V30 403 C 40.0806 -1.4701 1.17345 0
M  V30 404 O 39.4386 -1.80436 0.176758 0
M  V30 405 C 39.4866 -0.755749 3.52592 0
M  V30 406 O 38.5906 -1.86088 3.68028 0
M  V30 407 H 37.9316 -0.062421 0.661059 0
M  V30 408 H 40.4616 0.438215 1.99852 0
M  V30 409 H 40.4716 -1.04552 3.94376 0
M  V30 410 H 39.1466 0.0867233 4.1581 0
M  V30 411 H 37.7236 -1.57193 3.38149 0
M  V30 412 N 39.9087 -1.5758 0.0250728 0
M  V30 413 C 40.8387 -2.13007 -0.956575 0
M  V30 414 C 41.8197 -1.0452 -1.342 0
M  V30 415 O 43.0047 -1.32332 -1.42133 0
M  V30 416 C 40.1347 -2.65386 -2.24026 0
M  V30 417 C 39.0887 -3.78623 -1.99571 0
M  V30 418 C 38.4147 -4.17414 -3.3417 0
M  V30 419 C 39.7147 -5.04867 -1.33814 0
M  V30 420 H 41.4087 -2.9528 -0.494991 0
M  V30 421 H 38.9547 -1.42042 -0.236651 0
M  V30 422 H 40.9077 -3.02794 -2.93076 0
M  V30 423 H 39.6317 -1.80268 -2.72343 0
M  V30 424 H 38.2907 -3.41646 -1.32941 0
M  V30 425 H 37.9387 -3.29284 -3.80238 0
M  V30 426 H 37.6387 -4.93719 -3.18615 0
M  V30 427 H 39.1627 -4.57402 -4.04495 0
M  V30 428 H 40.5767 -5.39888 -1.92857 0
M  V30 429 H 38.9737 -5.86144 -1.28669 0
M  V30 430 H 40.0437 -4.83904 -0.310561 0
M  V30 431 N 41.3868 0.248026 -1.55636 0
M  V30 432 C 42.3348 1.32683 -1.91045 0
M  V30 433 C 43.3288 1.49883 -0.789401 0
M  V30 434 O 44.5348 1.51371 -0.974007 0
M  V30 435 H 40.9098 0.444272 -0.606734 0
M  V30 436 H 42.8808 1.00085 -2.81115 0
M  V30 437 C 41.6298 2.6755 -2.22064 0
M  V30 438 H 40.9528 2.55114 -3.07826 0
M  V30 439 H 42.3928 3.41912 -2.50743 0
M  V30 440 C 40.8518 3.20556 -1.0366 0
M  V30 441 O 41.3818 4.00695 -0.284016 0
M  V30 442 N 39.5878 2.78568 -0.82753 0
M  V30 443 H 39.1348 2.1351 -1.44123 0
M  V30 444 H 39.0928 3.14378 -0.0369803 0
M  V30 445 N 42.8649 1.48995 0.513639 0
M  V30 446 C 43.8129 1.65199 1.63744 0
M  V30 447 C 44.8069 0.51809 1.61283 0
M  V30 448 O 46.0129 0.697335 1.65943 0
M  V30 449 H 42.3879 0.52069 0.542574 0
M  V30 450 H 44.3589 2.59552 1.47226 0
M  V30 451 C 43.1079 1.72409 3.01945 0
M  V30 452 H 42.4309 2.59029 3.04539 0
M  V30 453 H 43.8709 1.87785 3.80148 0
M  V30 454 C 42.3299 0.46618 3.33659 0
M  V30 455 O 42.8599 -0.413744 3.99564 0
M  V30 456 N 41.0659 0.332931 2.88687 0
M  V30 457 H 40.6129 1.04996 2.35231 0
M  V30 458 H 40.5709 -0.507665 3.10274 0
M  V30 459 N 44.343 -0.763751 1.37857 0
M  V30 460 C 45.62 -1.51244 1.24035 0
M  V30 461 C 46 -2.10472 -0.162649 0
M  V30 462 O 45.348 -1.96206 -1.17112 0
M  V30 463 C 45.558 -2.58694 2.34261 0
M  V30 464 C 46.906 -3.25878 2.72193 0
M  V30 465 O 47.93 -2.68993 2.33497 0
M  V30 466 O 46.789 -4.2874 3.38887 0
M  V30 467 H 43.883 -0.670243 0.484462 0
M  V30 468 H 46.429 -0.800031 1.49658 0
M  V30 469 H 45.201 -2.13105 3.2818 0
M  V30 470 H 44.824 -3.37527 2.10146 0
M  V30 471 N 45.8211 -1.22559 -0.990812 0
M  V30 472 C 47.2371 -0.985996 -1.255 0
M  V30 473 C 47.4371 0.319173 -1.98956 0
M  V30 474 O 46.4931 1.04127 -2.3003 0
M  V30 475 C 47.8061 -2.18607 -2.06474 0
M  V30 476 C 49.3541 -2.22985 -2.19651 0
M  V30 477 C 49.8291 -3.4255 -3.04012 0
M  V30 478 N 51.3201 -3.42725 -3.11599 0
M  V30 479 C 52.0551 -4.31892 -3.7717 0
M  V30 480 N 51.5511 -5.31279 -4.44651 0
M  V30 481 N 53.3441 -4.19662 -3.73952 0
M  V30 482 H 45.4951 -2.06469 -0.49841 0
M  V30 483 H 47.7581 -0.904853 -0.282747 0
M  V30 484 H 47.4641 -3.13267 -1.59865 0
M  V30 485 H 47.3381 -2.18838 -3.07229 0
M  V30 486 H 49.7251 -1.28871 -2.65474 0
M  V30 487 H 49.8061 -2.26791 -1.18319 0
M  V30 488 H 49.4501 -4.36965 -2.58889 0
M  V30 489 H 49.3801 -3.35984 -4.0549 0
M  V30 490 H 51.8711 -2.70807 -2.63575 0
M  V30 491 H 52.1841 -5.95593 -4.92431 0
M  V30 492 H 50.5291 -5.3519 -4.43392 0
M  V30 493 H 53.7201 -3.41268 -3.20396 0
M  V30 494 H 53.8931 -4.89358 -4.24774 0
M  V30 495 N 47.2992 1.18797 -1.03562 0
M  V30 496 C 48.2292 2.24472 -0.643019 0
M  V30 497 C 49.2102 1.66433 0.351283 0
M  V30 498 O 50.3952 1.92803 0.232505 0
M  V30 499 C 47.5252 3.473 4.24935e-05 0
M  V30 500 C 46.4792 4.18055 -0.917257 0
M  V30 501 C 45.8052 5.34519 -0.138941 0
M  V30 502 C 47.1052 4.72109 -2.23407 0
M  V30 503 H 48.7992 2.57566 -1.52643 0
M  V30 504 H 46.3452 1.23806 -0.735394 0
M  V30 505 H 48.2982 4.20426 0.286383 0
M  V30 506 H 47.0222 3.13424 0.918299 0
M  V30 507 H 45.6812 3.46821 -1.1879 0
M  V30 508 H 45.3292 4.96891 0.781562 0
M  V30 509 H 45.0292 5.82794 -0.750005 0
M  V30 510 H 46.5532 6.10438 0.1405 0
M  V30 511 H 47.9672 5.36955 -2.00879 0
M  V30 512 H 46.3642 5.30897 -2.79765 0
M  V30 513 H 47.4342 3.89807 -2.88407 0
M  V30 514 N 48.7773 0.814389 1.34928 0
M  V30 515 C 50.0073 0.41054 2.0248 0
M  V30 516 C 50.4153 -0.985625 1.61499 0
M  V30 517 O 49.7583 -1.64781 0.811976 0
M  V30 518 C 49.8203 0.423384 3.56998 0
M  V30 519 C 49.4843 1.77141 4.21272 0
M  V30 520 C 50.4813 2.73093 4.42398 0
M  V30 521 C 48.1663 2.05755 4.58225 0
M  V30 522 C 50.1603 3.95838 4.9959 0
M  V30 523 C 47.8473 3.28762 5.1513 0
M  V30 524 C 48.8453 4.23621 5.35755 0
M  V30 525 O 48.5333 5.44456 5.91458 0
M  V30 526 H 48.2653 0.163997 0.655806 0
M  V30 527 H 50.8193 1.10155 1.73364 0
M  V30 528 H 49.0493 -0.324276 3.85338 0
M  V30 529 H 50.7383 0.0407683 4.0588 0
M  V30 530 H 51.5043 2.5228 4.14222 0
M  V30 531 H 47.3833 1.32727 4.4148 0
M  V30 532 H 50.9273 4.69891 5.15605 0
M  V30 533 H 46.8243 3.49443 5.42734 0
M  V30 534 H 47.5923 5.4586 6.09901 0
M  V30 535 N 50.2554 -1.46986 0.568584 0
M  V30 536 C 51.2024 -2.30153 -0.172707 0
M  V30 537 C 52.1724 -1.39759 -0.897586 0
M  V30 538 O 53.3574 -1.68716 -0.891044 0
M  V30 539 C 50.4974 -3.23952 -1.1895 0
M  V30 540 C 49.6104 -4.29441 -0.469517 0
M  V30 541 C 48.7454 -5.1038 -1.47259 0
M  V30 542 C 47.7844 -6.07632 -0.738225 0
M  V30 543 N 46.9214 -6.8149 -1.68868 0
M  V30 544 H 51.7614 -2.93019 0.542596 0
M  V30 545 H 49.2984 -1.44422 0.279401 0
M  V30 546 H 51.2564 -3.76767 -1.79173 0
M  V30 547 H 49.8864 -2.62926 -1.87269 0
M  V30 548 H 48.9384 -3.79594 0.247467 0
M  V30 549 H 50.2504 -4.98689 0.105241 0
M  V30 550 H 49.4044 -5.67402 -2.14803 0
M  V30 551 H 48.1434 -4.4106 -2.08128 0
M  V30 552 H 47.1484 -5.49778 -0.0489293 0
M  V30 553 H 48.3734 -6.78966 -0.135129 0
M  V30 554 H 46.3194 -6.14891 -2.28573 0
M  V30 555 H 46.2364 -7.46948 -1.16636 0
M  V30 556 H 47.5044 -7.43078 -2.3549 0
M  V30 557 N 51.7335 -0.305618 -1.54608 0
M  V30 558 C 52.6635 0.561482 -2.26649 0
M  V30 559 C 53.6445 1.13415 -1.26772 0
M  V30 560 O 54.8295 1.16262 -1.55553 0
M  V30 561 C 51.9595 1.73122 -3.01075 0
M  V30 562 C 50.9135 1.2887 -4.08138 0
M  V30 563 C 50.2395 2.54396 -4.70305 0
M  V30 564 C 51.5395 0.416578 -5.20636 0
M  V30 565 H 53.2335 -0.0393902 -2.99374 0
M  V30 566 H 50.7795 -0.020385 -1.43986 0
M  V30 567 H 52.7325 2.34396 -3.50195 0
M  V30 568 H 51.4565 2.3584 -2.25936 0
M  V30 569 H 50.1155 0.698991 -3.59875 0
M  V30 570 H 49.7635 3.15439 -3.918 0
M  V30 571 H 49.4635 2.25486 -5.42614 0
M  V30 572 H 50.9875 3.16464 -5.2219 0
M  V30 573 H 52.4015 0.935116 -5.65622 0
M  V30 574 H 50.7985 0.221046 -5.99693 0
M  V30 575 H 51.8685 -0.557162 -4.81688 0
M  V30 576 N 53.2116 1.57565 -0.0334293 0
M  V30 577 C 54.4396 1.9628 0.654347 0
M  V30 578 C 54.8546 0.910138 1.65414 0
M  V30 579 O 54.2116 -0.107595 1.82183 0
M  V30 580 C 54.2626 3.35067 1.35693 0
M  V30 581 O 53.9836 4.36296 0.397191 0
M  V30 582 C 55.4846 3.88439 2.13613 0
M  V30 583 H 52.7046 0.646369 0.180132 0
M  V30 584 H 55.2486 2.04282 -0.0944721 0
M  V30 585 H 53.4036 3.2827 2.05712 0
M  V30 586 H 53.8176 5.1678 0.896597 0
M  V30 587 H 55.2916 4.8788 2.58219 0
M  V30 588 H 55.7686 3.22914 2.97696 0
M  V30 589 H 56.3746 3.98516 1.48543 0
M  V30 590 N 54.6897 -0.239769 1.55765 0
M  V30 591 C 55.9197 -0.982743 1.8173 0
M  V30 592 C 56.3277 -1.7917 0.607835 0
M  V30 593 O 55.6707 -1.78525 -0.432973 0
M  V30 594 C 55.7327 -1.96332 3.01155 0
M  V30 595 C 55.3967 -1.34062 4.36894 0
M  V30 596 C 56.3937 -0.739539 5.14613 0
M  V30 597 C 54.0787 -1.35784 4.83599 0
M  V30 598 C 56.0727 -0.163989 6.37189 0
M  V30 599 C 53.7597 -0.778441 6.06122 0
M  V30 600 C 54.7577 -0.182548 6.82756 0
M  V30 601 O 54.4457 0.387887 8.02964 0
M  V30 602 H 54.1777 -0.294481 0.608487 0
M  V30 603 H 56.7317 -0.26572 2.03674 0
M  V30 604 H 54.9617 -2.71884 2.74984 0
M  V30 605 H 56.6507 -2.57032 3.14149 0
M  V30 606 H 57.4167 -0.718687 4.79646 0
M  V30 607 H 53.2957 -1.81105 4.23936 0
M  V30 608 H 56.8397 0.301753 6.96947 0
M  V30 609 H 52.7367 -0.796645 6.40565 0
M  V30 610 H 53.5047 0.28044 8.18019 0
M  V30 611 N 56.1678 -1.49265 -0.50573 0
M  V30 612 C 57.3928 -1.62478 -1.28902 0
M  V30 613 C 57.8178 -0.294332 -1.85783 0
M  V30 614 O 57.1758 0.737412 -1.65626 0
M  V30 615 C 57.2238 -2.69268 -2.39848 0
M  V30 616 O 56.3278 -2.28113 -3.43567 0
M  V30 617 H 55.6688 -0.54399 -0.380751 0
M  V30 618 H 58.1988 -1.95421 -0.605952 0
M  V30 619 H 58.2088 -2.91291 -2.85681 0
M  V30 620 H 56.8838 -3.65846 -1.97812 0
M  V30 621 H 55.4608 -2.16401 -3.03685 0
M  V30 622 N 57.6459 0.756429 -1.3826 0
M  V30 623 C 58.8739 1.54565 -1.3754 0
M  V30 624 C 59.2889 1.88767 0.0355331 0
M  V30 625 O 58.6459 1.52572 1.0014 0
M  V30 626 C 58.6969 2.84654 -2.22833 0
M  V30 627 O 58.4179 2.51912 -3.5843 0
M  V30 628 C 59.9189 3.78807 -2.30261 0
M  V30 629 H 57.1389 0.478353 -0.470553 0
M  V30 630 H 59.6829 0.936381 -1.81803 0
M  V30 631 H 57.8379 3.41965 -1.8204 0
M  V30 632 H 58.2519 3.35325 -4.03308 0
M  V30 633 H 59.7259 4.67045 -2.94233 0
M  V30 634 H 60.2029 4.19038 -1.31545 0
M  V30 635 H 60.8089 3.2742 -2.71433 0
M  V30 636 N 59.124 1.23083 0.984299 0
M  V30 637 C 60.034 1.02515 2.11016 0
M  V30 638 C 61.05 -0.0291702 1.73976 0
M  V30 639 O 62.226 0.165434 2.00719 0
M  V30 640 C 59.291 0.614673 3.41208 0
M  V30 641 C 58.352 1.74359 3.92297 0
M  V30 642 C 57.585 1.35261 5.16275 0
M  V30 643 O 57.808 0.235136 5.69915 0
M  V30 644 O 56.742 2.17227 5.61334 0
M  V30 645 H 60.568 1.96862 2.31255 0
M  V30 646 H 58.153 1.01753 1.09392 0
M  V30 647 H 60.035 0.396518 4.1953 0
M  V30 648 H 58.71 -0.299851 3.22308 0
M  V30 649 H 57.617 2.01635 3.1511 0
M  V30 650 H 58.95 2.63629 4.15645 0
M  V30 651 N 60.6021 -1.18246 1.0419 0
M  V30 652 C 61.8481 -1.88536 0.747122 0
M  V30 653 C 62.1811 -1.80223 -0.723409 0
M  V30 654 O 61.4561 -1.20337 -1.52804 0
M  V30 655 C 61.7391 -3.38968 1.21544 0
M  V30 656 C 61.5921 -3.56084 2.74816 0
M  V30 657 C 62.9111 -4.32648 0.806482 0
M  V30 658 H 60.0301 -0.684619 0.272883 0
M  V30 659 H 62.6721 -1.39113 1.29413 0
M  V30 660 H 60.8221 -3.8119 0.750081 0
M  V30 661 H 62.4941 -3.22946 3.29399 0
M  V30 662 H 60.7371 -2.98699 3.14582 0
M  V30 663 H 61.4081 -4.61639 3.02644 0
M  V30 664 H 63.8841 -3.98211 1.20695 0
M  V30 665 H 62.7601 -5.36462 1.1619 0
M  V30 666 H 63.0211 -4.41146 -0.29029 0
M  V30 667 N 62.0802 -0.821533 -1.34494 0
M  V30 668 C 63.0102 -0.257138 -2.3208 0
M  V30 669 C 63.9912 0.625645 -1.58176 0
M  V30 670 O 65.1762 0.552811 -1.86166 0
M  V30 671 C 62.3062 0.582958 -3.42372 0
M  V30 672 C 61.2602 -0.202571 -4.2752 0
M  V30 673 C 60.5862 0.760179 -5.29269 0
M  V30 674 C 61.8862 -1.40998 -5.02908 0
M  V30 675 H 63.5802 -1.07247 -2.79532 0
M  V30 676 H 61.1262 -0.517163 -1.34393 0
M  V30 677 H 63.0792 0.987972 -4.09655 0
M  V30 678 H 61.8032 1.43133 -2.93565 0
M  V30 679 H 60.4622 -0.588936 -3.61838 0
M  V30 680 H 60.1102 1.60447 -4.76724 0
M  V30 681 H 59.8102 0.238809 -5.87115 0
M  V30 682 H 61.3342 1.16308 -5.9942 0
M  V30 683 H 62.7482 -1.07905 -5.63054 0
M  V30 684 H 61.1452 -1.86689 -5.70322 0
M  V30 685 H 62.2152 -2.1889 -4.32684 0
M  V30 686 N 63.5583 1.46682 -0.576371 0
M  V30 687 C 64.4883 2.33028 0.148397 0
M  V30 688 C 65.4693 1.44961 0.889956 0
M  V30 689 O 66.6543 1.73789 0.866662 0
M  V30 690 C 63.7843 3.27117 1.1667 0
M  V30 691 C 62.7383 4.24575 0.540386 0
M  V30 692 C 62.0643 5.08126 1.6647 0
M  V30 693 C 63.3643 5.19722 -0.518331 0
M  V30 694 H 65.0583 2.93875 -0.572509 0
M  V30 695 H 62.6043 1.41315 -0.276768 0
M  V30 696 H 64.5573 3.86374 1.68204 0
M  V30 697 H 63.2813 2.64364 1.9178 0
M  V30 698 H 61.9403 3.66571 0.0461769 0
M  V30 699 H 61.5883 4.41762 2.40531 0
M  V30 700 H 61.2883 5.74122 1.25131 0
M  V30 701 H 62.8123 5.70246 2.18293 0
M  V30 702 H 64.2263 5.73232 -0.0883058 0
M  V30 703 H 62.6233 5.94026 -0.851679 0
M  V30 704 H 63.6933 4.64037 -1.40703 0
M  V30 705 N 65.0364 0.313813 1.54444 0
M  V30 706 C 66.3134 -0.345447 1.92525 0
M  V30 707 C 66.6934 -1.70667 1.24242 0
M  V30 708 O 66.0414 -2.25273 0.382654 0
M  V30 709 C 66.2514 -0.44737 3.46121 0
M  V30 710 C 67.5994 -0.712238 4.18584 0
M  V30 711 O 68.6234 -0.530678 3.52225 0
M  V30 712 O 67.4824 -1.06183 5.36085 0
M  V30 713 H 64.5764 -0.195407 0.803583 0
M  V30 714 H 67.1224 0.362813 1.65776 0
M  V30 715 H 65.8944 0.509043 3.87975 0
M  V30 716 H 65.5174 -1.20359 3.78945 0
M  V30 717 N 66.5145 -1.57545 0.0417849 0
M  V30 718 C 67.9305 -1.56467 -0.314704 0
M  V30 719 C 68.1305 -1.04859 -1.72066 0
M  V30 720 O 67.1865 -0.700983 -2.42575 0
M  V30 721 C 68.4995 -3.00317 -0.15174 0
M  V30 722 C 70.0475 -3.12201 -0.223553 0
M  V30 723 C 70.5225 -4.57913 -0.0892295 0
M  V30 724 N 72.0135 -4.6297 -0.145808 0
M  V30 725 C 72.7485 -5.73362 -0.0658459 0
M  V30 726 N 72.2445 -6.92769 0.0659282 0
M  V30 727 N 74.0375 -5.6197 -0.12075 0
M  V30 728 H 66.1885 -1.89416 0.961014 0
M  V30 729 H 68.4515 -0.871862 0.372237 0
M  V30 730 H 68.1575 -3.42073 0.817254 0
M  V30 731 H 68.0315 -3.65892 -0.916692 0
M  V30 732 H 70.4185 -2.70349 -1.18301 0
M  V30 733 H 70.4995 -2.49323 0.571994 0
M  V30 734 H 70.1435 -5.00448 0.866867 0
M  V30 735 H 70.0735 -5.18786 -0.903802 0
M  V30 736 H 72.5645 -3.7709 -0.247286 0
M  V30 737 H 72.8775 -7.72707 0.119905 0
M  V30 738 H 71.2225 -6.94927 0.100885 0
M  V30 739 H 74.4135 -4.67572 -0.222187 0
M  V30 740 H 74.5865 -6.47977 -0.0549735 0
M  V30 741 N 67.9926 0.231505 -1.5589 0
M  V30 742 C 69.2406 0.955461 -1.78088 0
M  V30 743 C 69.5616 1.85262 -0.608533 0
M  V30 744 O 68.8316 1.92277 0.375035 0
M  V30 745 H 67.4116 0.355787 -0.656829 0
M  V30 746 H 70.0736 0.245751 -1.93344 0
M  V30 747 H 69.1696 1.56814 -2.69844 0
M  V30 748 N 69.4707 1.49531 0.497807 0
M  V30 749 C 70.4177 1.66436 1.59899 0
M  V30 750 C 71.3877 0.505793 1.58212 0
M  V30 751 O 72.5727 0.733202 1.7615 0
M  V30 752 C 69.7127 1.7399 2.98029 0
M  V30 753 C 68.8257 3.01172 3.09708 0
M  V30 754 C 67.9607 2.99686 4.38591 0
M  V30 755 C 66.9997 4.21434 4.43914 0
M  V30 756 N 66.1367 4.1784 5.64229 0
M  V30 757 H 70.9767 2.60459 1.44793 0
M  V30 758 H 68.5137 1.29137 0.704423 0
M  V30 759 H 70.4717 1.76352 3.78095 0
M  V30 760 H 69.1017 0.834301 3.11832 0
M  V30 761 H 68.1537 3.08408 2.22685 0
M  V30 762 H 69.4657 3.91165 3.09502 0
M  V30 763 H 68.6197 3.00628 5.2698 0
M  V30 764 H 67.3587 2.07477 4.41367 0
M  V30 765 H 66.3637 4.20733 3.53926 0
M  V30 766 H 67.5887 5.14839 4.42851 0
M  V30 767 H 65.5347 3.28469 5.67841 0
M  V30 768 H 65.4517 5.01571 5.65652 0
M  V30 769 H 66.7197 4.22889 6.54817 0
M  V30 770 N 70.9488 -0.749086 1.3866 0
M  V30 771 C 72.1968 -1.50535 1.34847 0
M  V30 772 C 72.5178 -1.94909 -0.0595016 0
M  V30 773 O 71.7878 -1.67973 -1.00806 0
M  V30 774 H 70.3678 -0.558395 0.49619 0
M  V30 775 H 73.0298 -0.890165 1.73384 0
M  V30 776 H 72.1258 -2.39413 2.00219 0
M  V30 777 N 72.4269 -1.23603 -0.977757 0
M  V30 778 C 73.3739 -1.01954 -2.07061 0
M  V30 779 C 74.3439 0.0638697 -1.65977 0
M  V30 780 O 75.5289 -0.0887624 -1.90593 0
M  V30 781 C 72.6689 -0.619658 -3.39491 0
M  V30 782 C 71.7819 -1.77547 -3.93829 0
M  V30 783 C 70.9169 -1.32212 -5.14484 0
M  V30 784 C 69.9559 -2.44852 -5.60994 0
M  V30 785 N 69.0929 -2.00456 -6.72876 0
M  V30 786 H 73.9329 -1.95495 -2.24913 0
M  V30 787 H 71.4699 -0.973861 -1.10247 0
M  V30 788 H 73.4279 -0.368898 -4.15566 0
M  V30 789 H 72.0579 0.278752 -3.21594 0
M  V30 790 H 71.1099 -2.14016 -3.14486 0
M  V30 791 H 72.4219 -2.62219 -4.24314 0
M  V30 792 H 71.5759 -1.02965 -5.97899 0
M  V30 793 H 70.3149 -0.445808 -4.85658 0
M  V30 794 H 69.3199 -2.74871 -4.76157 0
M  V30 795 H 70.5449 -3.33024 -5.91837 0
M  V30 796 H 68.4909 -1.15208 -6.45804 0
M  V30 797 H 68.4079 -2.78687 -7.02759 0
M  V30 798 H 69.6759 -1.7432 -7.59758 0
M  V30 799 N 73.905 1.17692 -1.04816 0
M  V30 800 C 74.835 2.23777 -0.666791 0
M  V30 801 C 75.816 1.66796 0.33361 0
M  V30 802 O 77.001 1.93039 0.212042 0
M  V30 803 C 74.131 3.47281 -0.0367933 0
M  V30 804 C 73.085 4.17059 -0.961546 0
M  V30 805 C 72.411 5.34342 -0.195626 0
M  V30 806 C 73.711 4.69713 -2.28402 0
M  V30 807 H 75.405 2.55933 -1.55367 0
M  V30 808 H 72.951 1.23019 -0.748484 0
M  V30 809 H 74.904 4.20706 0.241775 0
M  V30 810 H 73.628 3.14381 0.885004 0
M  V30 811 H 72.287 3.45541 -1.22462 0
M  V30 812 H 71.935 4.97692 0.728816 0
M  V30 813 H 71.635 5.81966 -0.811775 0
M  V30 814 H 73.159 6.10553 0.0757473 0
M  V30 815 H 74.573 5.34794 -2.06563 0
M  V30 816 H 72.97 5.279 -2.8538 0
M  V30 817 H 74.04 3.86726 -2.92525 0
M  V30 818 N 75.3831 0.828654 1.34056 0
M  V30 819 C 76.3151 0.212052 2.28217 0
M  V30 820 C 77.3281 -0.601362 1.51286 0
M  V30 821 O 78.5171 -0.430104 1.73241 0
M  V30 822 C 75.6171 -0.72088 3.31144 0
M  V30 823 C 74.7901 0.0509587 4.3737 0
M  V30 824 C 73.8491 -0.803766 5.20025 0
M  V30 825 O 72.8751 -0.246667 5.68665 0
M  V30 826 N 74.0771 -2.1227 5.40298 0
M  V30 827 H 76.8421 1.02105 2.81771 0
M  V30 828 H 74.4031 0.686153 1.46641 0
M  V30 829 H 76.3951 -1.29742 3.8334 0
M  V30 830 H 74.9651 -1.43061 2.77943 0
M  V30 831 H 74.1851 0.808831 3.85813 0
M  V30 832 H 75.4731 0.582065 5.0546 0
M  V30 833 H 74.8711 -2.59898 5.02464 0
M  V30 834 H 73.4281 -2.64796 5.95589 0
M  V30 835 N 76.8612 -1.46375 0.584142 0
M  V30 836 C 78.1382 -1.956 0.0033388 0
M  V30 837 C 78.5182 -1.52679 -1.45782 0
M  V30 838 O 77.8662 -0.77816 -2.14842 0
M  V30 839 C 78.0762 -3.48551 0.176891 0
M  V30 840 C 79.4242 -4.24576 0.0454609 0
M  V30 841 O 80.4482 -3.56043 0.105801 0
M  V30 842 O 79.3072 -5.46427 -0.0890376 0
M  V30 843 H 76.4012 -0.825547 -0.0490066 0
M  V30 844 H 78.9472 -1.56652 0.65256 0
M  V30 845 H 77.7192 -3.72683 1.1926 0
M  V30 846 H 77.3422 -3.94332 -0.508695 0
M  V30 847 N 78.3393 -0.321999 -1.54275 0
M  V30 848 C 79.5643 0.285791 -2.05422 0
M  V30 849 C 79.9893 1.45124 -1.19669 0
M  V30 850 O 79.3473 1.80132 -0.205441 0
M  V30 851 C 79.3953 0.69956 -3.53749 0
M  V30 852 O 78.4993 1.8021 -3.70942 0
M  V30 853 H 77.8403 0.0518962 -0.661969 0
M  V30 854 H 80.3703 -0.469954 -1.9913 0
M  V30 855 H 80.3803 0.982649 -3.9599 0
M  V30 856 H 79.0553 -0.152864 -4.15619 0
M  V30 857 H 77.6323 1.51794 -3.40607 0
M  V30 858 N 79.8174 1.5752 -0.0501392 0
M  V30 859 C 81.0634 1.92936 0.624798 0
M  V30 860 C 81.3964 0.928685 1.70555 0
M  V30 861 O 80.6714 -0.0454779 1.94447 0
M  V30 862 C 80.9544 3.38737 1.22185 0
M  V30 863 C 80.8074 4.49552 0.149218 0
M  V30 864 C 82.1264 3.84913 2.13378 0
M  V30 865 H 79.2454 0.701604 0.225657 0
M  V30 866 H 81.8874 1.89671 -0.111693 0
M  V30 867 H 80.0374 3.4165 1.84953 0
M  V30 868 H 81.7094 4.58768 -0.482648 0
M  V30 869 H 79.9524 4.30638 -0.522841 0
M  V30 870 H 80.6234 5.48653 0.606966 0
M  V30 871 H 83.0994 3.8387 1.60572 0
M  V30 872 H 81.9754 4.87584 2.52097 0
M  V30 873 H 82.2364 3.21611 3.03346 0
M  V30 874 N 81.2955 -0.223234 1.56011 0
M  V30 875 C 82.5435 -0.946003 1.78592 0
M  V30 876 C 82.8645 -1.84936 0.618349 0
M  V30 877 O 82.1345 -1.92473 -0.364833 0
M  V30 878 H 80.7145 -0.352298 0.658707 0
M  V30 879 H 83.3765 -0.235494 1.93472 0
M  V30 880 H 82.4725 -1.55381 2.70672 0
M  V30 881 N 82.7736 -1.49793 -0.48987 0
M  V30 882 C 84.0036 -1.6333 -1.26518 0
M  V30 883 C 84.4116 -0.308392 -1.8667 0
M  V30 884 O 83.7546 0.717512 -1.69108 0
M  V30 885 C 83.8166 -2.6522 -2.4269 0
M  V30 886 C 83.4806 -4.09279 -2.03321 0
M  V30 887 C 84.4776 -4.95738 -1.56652 0
M  V30 888 C 82.1626 -4.55082 -2.12616 0
M  V30 889 C 84.1566 -6.26041 -1.19795 0
M  V30 890 C 81.8436 -5.85396 -1.75371 0
M  V30 891 C 82.8416 -6.707 -1.29036 0
M  V30 892 O 82.5296 -7.98584 -0.92299 0
M  V30 893 H 82.2616 -0.552502 -0.389509 0
M  V30 894 H 84.8156 -1.96642 -0.593381 0
M  V30 895 H 83.0456 -2.27112 -3.12981 0
M  V30 896 H 84.7346 -2.68171 -3.04695 0
M  V30 897 H 85.5006 -4.61575 -1.48908 0
M  V30 898 H 81.3796 -3.88844 -2.47631 0
M  V30 899 H 84.9236 -6.92578 -0.835582 0
M  V30 900 H 80.8206 -6.19085 -1.82768 0
M  V30 901 H 81.5886 -8.11692 -1.05349 0
M  V30 902 N 84.2517 0.741722 -1.39055 0
M  V30 903 C 85.6677 1.04638 -1.20512 0
M  V30 904 C 85.8677 2.01405 -0.0620218 0
M  V30 905 O 84.9237 2.45547 0.588457 0
M  V30 906 C 86.2367 1.6151 -2.53643 0
M  V30 907 C 87.7847 1.73623 -2.6043 0
M  V30 908 C 88.2597 2.33906 -3.93767 0
M  V30 909 N 89.7507 2.41323 -3.9537 0
M  V30 910 C 90.4857 2.88888 -4.95309 0
M  V30 911 N 89.9817 3.36401 -6.05645 0
M  V30 912 N 91.7747 2.88037 -4.82692 0
M  V30 913 H 83.9257 0.0998155 -2.12165 0
M  V30 914 H 86.1887 0.106907 -0.941953 0
M  V30 915 H 85.8947 0.978739 -3.37807 0
M  V30 916 H 85.7687 2.60411 -2.72885 0
M  V30 917 H 88.1557 2.36384 -1.76655 0
M  V30 918 H 88.2367 0.733945 -2.45045 0
M  V30 919 H 87.8807 1.71776 -4.7797 0
M  V30 920 H 87.8107 3.34799 -4.06469 0
M  V30 921 H 90.3017 2.07734 -3.15682 0
M  V30 922 H 90.6147 3.71186 -6.77821 0
M  V30 923 H 88.9597 3.34427 -6.09248 0
M  V30 924 H 92.1507 2.50237 -3.95599 0
M  V30 925 H 92.3237 3.24792 -5.60726 0
M  V30 926 N 85.7298 1.2412 0.971189 0
M  V30 927 C 86.9788 1.07284 1.70801 0
M  V30 928 C 87.2918 -0.388902 1.91695 0
M  V30 929 O 88.4978 -0.677379 2.62914 0
M  V30 930 C 86.9538 1.87145 3.07416 0
M  V30 931 C 86.5618 3.37707 2.94377 0
M  V30 932 C 88.3058 1.78828 3.84995 0
M  V30 933 C 86.2128 4.09925 4.26281 0
M  V30 934 H 85.1428 0.397854 0.64049 0
M  V30 935 H 87.7938 1.4817 1.0825 0
M  V30 936 H 86.1758 1.39071 3.70777 0
M  V30 937 H 87.3498 3.93335 2.4005 0
M  V30 938 H 85.6648 3.46938 2.30267 0
M  V30 939 H 88.2618 2.30089 4.82662 0
M  V30 940 H 88.6048 0.75284 4.09436 0
M  V30 941 H 89.1378 2.24563 3.28354 0
M  V30 942 H 85.8768 5.13813 4.07033 0
M  V30 943 H 85.3968 3.59083 4.80437 0
M  V30 944 H 87.0758 4.1673 4.94919 0
M  V30 945 N 87.2079 -1.17134 1.05439 0
M  V30 946 C 88.4329 -1.91913 0.786396 0
M  V30 947 C 88.8579 -1.7643 -0.652234 0
M  V30 948 O 88.2159 -1.08372 -1.45345 0
M  V30 949 C 88.2639 -3.40921 1.17497 0
M  V30 950 O 87.3679 -4.11244 0.308589 0
M  V30 951 H 86.7089 -0.598215 0.288158 0
M  V30 952 H 89.2389 -1.48457 1.4079 0
M  V30 953 H 89.2489 -3.91668 1.14281 0
M  V30 954 H 87.9239 -3.5151 2.22292 0
M  V30 955 H 86.5009 -3.70731 0.40157 0
M  V30 956 N 88.686 -0.835752 -1.33615 0
M  V30 957 C 89.911 -0.442389 -2.02627 0
M  V30 958 C 90.336 0.947735 -1.62479 0
M  V30 959 O 89.694 1.61907 -0.815826 0
M  V30 960 C 89.742 -0.567216 -3.56111 0
M  V30 961 O 88.846 0.407799 -4.10379 0
M  V30 962 H 88.187 -0.180278 -0.639059 0
M  V30 963 H 90.717 -1.12972 -1.70583 0
M  V30 964 H 90.727 -0.447708 -4.05536 0
M  V30 965 H 89.402 -1.58103 -3.84677 0
M  V30 966 H 87.979 0.246107 -3.72087 0
M  V30 967 N 90.1641 1.46063 -0.591896 0
M  V30 968 C 91.1121 2.32124 0.148739 0
M  V30 969 C 92.1061 1.45035 0.875286 0
M  V30 970 O 93.3121 1.61609 0.792632 0
M  V30 971 H 89.6871 0.749024 0.066832 0
M  V30 972 H 91.6581 2.92392 -0.595783 0
M  V30 973 C 90.4071 3.28373 1.1431 0
M  V30 974 H 89.7301 3.95371 0.59346 0
M  V30 975 H 91.1701 3.91352 1.63155 0
M  V30 976 C 89.6291 2.54393 2.20875 0
M  V30 977 O 90.1591 2.31373 3.28374 0
M  V30 978 N 88.3651 2.14797 1.95731 0
M  V30 979 H 87.9121 2.33719 1.08319 0
M  V30 980 H 87.8701 1.65619 2.67241 0
M  V30 981 N 91.6422 0.330177 1.54103 0
M  V30 982 C 92.8882 -0.270806 2.00984 0
M  V30 983 C 93.2212 -1.51265 1.21789 0
M  V30 984 O 92.4962 -1.92142 0.301927 0
M  V30 985 C 92.7792 -0.598339 3.55094 0
M  V30 986 C 92.6322 0.654674 4.4501 0
M  V30 987 C 93.9512 -1.41334 4.16789 0
M  V30 988 H 91.0702 -0.0969531 0.730595 0
M  V30 989 H 93.7122 0.448066 1.84641 0
M  V30 990 H 91.8622 -1.21078 3.69151 0
M  V30 991 H 93.5342 1.29285 4.42813 0
M  V30 992 H 91.7772 1.28224 4.14416 0
M  V30 993 H 92.4482 0.380944 5.50684 0
M  V30 994 H 94.9242 -0.895597 4.06347 0
M  V30 995 H 93.8002 -1.61127 5.24718 0
M  V30 996 H 94.0612 -2.41146 3.70541 0
M  V30 997 N 93.1203 -1.57491 0.0584922 0
M  V30 998 C 94.3973 -1.84346 -0.653918 0
M  V30 999 C 94.7773 -0.948355 -1.88599 0
M  V30 1000 O 94.1253 -0.0112403 -2.28497 0
M  V30 1001 C 94.3353 -3.34239 -1.00425 0
M  V30 1002 C 95.6833 -4.01431 -1.38342 0
M  V30 1003 O 96.7073 -3.38907 -1.09637 0
M  V30 1004 O 95.5663 -5.11683 -1.91943 0
M  V30 1005 H 92.6603 -0.761112 -0.323478 0
M  V30 1006 H 95.2063 -1.6947 0.0884125 0
M  V30 1007 H 93.9783 -3.91089 -0.128625 0
M  V30 1008 H 93.6013 -3.54329 -1.80378 0
M  V30 1009 N 94.5984 0.214957 -1.56127 0
M  V30 1010 C 95.8444 0.939762 -1.79712 0
M  V30 1011 C 96.1774 1.83723 -0.629247 0
M  V30 1012 O 95.4524 1.90925 0.371197 0
M  V30 1013 C 95.7354 1.77306 -3.13424 0
M  V30 1014 C 95.5884 0.90164 -4.40671 0
M  V30 1015 C 96.9074 2.74956 -3.43638 0
M  V30 1016 H 94.0264 0.340214 -0.653776 0
M  V30 1017 H 96.6684 0.20824 -1.88855 0
M  V30 1018 H 94.8184 2.39673 -3.0576 0
M  V30 1019 H 96.4904 0.294206 -4.60361 0
M  V30 1020 H 94.7334 0.207368 -4.33304 0
M  V30 1021 H 95.4044 1.51923 -5.30682 0
M  V30 1022 H 97.8804 2.22724 -3.51473 0
M  V30 1023 H 96.7564 3.30358 -4.38355 0
M  V30 1024 H 97.0174 3.53023 -2.66134 0
M  V30 1025 N 96.0765 1.50051 0.48192 0
M  V30 1026 C 97.0395 1.67584 1.5636 0
M  V30 1027 C 98.0395 0.546894 1.51214 0
M  V30 1028 O 99.2295 0.813725 1.54026 0
M  V30 1029 C 96.3615 1.691 2.96003 0
M  V30 1030 H 97.5545 2.64078 1.42136 0
M  V30 1031 H 95.1075 1.39369 0.707533 0
M  V30 1032 H 95.8425 0.742589 3.15684 0
M  V30 1033 H 95.6275 2.51105 3.01146 0
M  V30 1034 H 97.1175 1.84656 3.74556 0
M  V30 1035 N 97.5546 -0.734337 1.39446 0
M  V30 1036 C 98.4846 -1.86155 1.40955 0
M  V30 1037 C 99.4656 -1.67898 0.272827 0
M  V30 1038 O 100.651 -1.88207 0.478743 0
M  V30 1039 C 97.7806 -3.23912 1.25294 0
M  V30 1040 C 96.7346 -3.56808 2.36373 0
M  V30 1041 C 96.0606 -4.93508 2.058 0
M  V30 1042 C 97.3606 -3.59713 3.78687 0
M  V30 1043 H 99.0546 -1.8515 2.35287 0
M  V30 1044 H 96.6006 -0.889367 1.13253 0
M  V30 1045 H 98.5536 -4.02443 1.2497 0
M  V30 1046 H 97.2776 -3.25446 0.274308 0
M  V30 1047 H 95.9366 -2.80606 2.35914 0
M  V30 1048 H 95.5846 -4.91623 1.06374 0
M  V30 1049 H 95.2846 -5.16486 2.80208 0
M  V30 1050 H 96.8086 -5.74396 2.07128 0
M  V30 1051 H 98.2226 -4.2832 3.81071 0
M  V30 1052 H 96.6196 -3.94209 4.52459 0
M  V30 1053 H 97.6896 -2.59504 4.09617 0
M  V30 1054 N 99.0327 -1.24633 -0.964593 0
M  V30 1055 C 99.9627 -1.06611 -2.07741 0
M  V30 1056 C 100.944 0.0218666 -1.70086 0
M  V30 1057 O 102.129 -0.145793 -1.93652 0
M  V30 1058 C 99.2587 -0.673444 -3.40708 0
M  V30 1059 C 98.2127 -1.71054 -3.92332 0
M  V30 1060 C 97.5387 -1.17285 -5.21678 0
M  V30 1061 C 98.8387 -3.10718 -4.19824 0
M  V30 1062 H 100.533 -1.99693 -2.23076 0
M  V30 1063 H 98.0787 -0.96152 -1.07195 0
M  V30 1064 H 100.032 -0.534345 -4.17998 0
M  V30 1065 H 98.7557 0.293073 -3.25282 0
M  V30 1066 H 97.4147 -1.83791 -3.17201 0
M  V30 1067 H 97.0627 -0.196847 -5.02615 0
M  V30 1068 H 96.7627 -1.86592 -5.57187 0
M  V30 1069 H 98.2867 -1.04593 -6.01575 0
M  V30 1070 H 99.7007 -3.01192 -4.87808 0
M  V30 1071 H 98.0977 -3.77406 -4.66567 0
M  V30 1072 H 99.1677 -3.58524 -3.26479 0
M  V30 1073 N 100.511 1.16574 -1.06058 0
M  V30 1074 C 101.757 1.87565 -0.78683 0
M  V30 1075 C 102.112 1.80012 0.679214 0
M  V30 1076 O 101.405 1.20327 1.49104 0
M  V30 1077 C 101.599 3.36195 -1.21275 0
M  V30 1078 C 101.428 3.58216 -2.71866 0
M  V30 1079 C 100.198 3.7444 -3.39298 0
M  V30 1080 C 102.396 3.57134 -3.70081 0
M  V30 1081 N 100.378 3.84389 -4.78663 0
M  V30 1082 C 101.749 3.73038 -4.9522 0
M  V30 1083 C 103.804 3.40332 -3.63426 0
M  V30 1084 C 102.507 3.73879 -6.14497 0
M  V30 1085 C 104.533 3.42466 -4.82153 0
M  V30 1086 C 103.895 3.58887 -6.06118 0
M  V30 1087 H 99.9938 0.704081 -0.340284 0
M  V30 1088 H 102.578 1.39885 -1.35426 0
M  V30 1089 H 100.749 3.82522 -0.673179 0
M  V30 1090 H 102.481 3.94839 -0.887917 0
M  V30 1091 H 99.2358 3.74662 -2.89699 0
M  V30 1092 H 99.6598 3.93138 -5.51155 0
M  V30 1093 H 104.302 3.26566 -2.68541 0
M  V30 1094 H 102.02 3.86427 -7.09718 0
M  V30 1095 H 105.606 3.30712 -4.78666 0
M  V30 1096 H 104.486 3.60454 -6.9645 0
M  V30 1097 N 101.989 0.842826 1.3317 0
M  V30 1098 C 103.405 0.531128 1.50503 0
M  V30 1099 C 103.605 -0.940734 1.78192 0
M  V30 1100 O 102.661 -1.72436 1.84451 0
M  V30 1101 C 103.974 1.40789 2.65705 0
M  V30 1102 C 105.522 1.40708 2.79589 0
M  V30 1103 C 105.997 2.26878 3.97857 0
M  V30 1104 N 107.488 2.24609 4.05099 0
M  V30 1105 C 108.223 2.88019 4.95815 0
M  V30 1106 N 107.719 3.60496 5.9162 0
M  V30 1107 N 109.512 2.77469 4.88843 0
M  V30 1108 H 101.663 1.79557 1.1346 0
M  V30 1109 H 103.926 0.766267 0.558156 0
M  V30 1110 H 103.632 2.454 2.51936 0
M  V30 1111 H 103.506 1.08677 3.61205 0
M  V30 1112 H 105.893 0.368668 2.92788 0
M  V30 1113 H 105.974 1.76829 1.84838 0
M  V30 1114 H 105.618 3.3078 3.85418 0
M  V30 1115 H 105.548 1.88096 4.91861 0
M  V30 1116 H 108.039 1.71906 3.36536 0
M  V30 1117 H 108.352 4.06076 6.57512 0
M  V30 1118 H 106.697 3.64604 5.91683 0
M  V30 1119 H 109.888 2.20406 4.12963 0
M  V30 1120 H 110.061 3.2717 5.59342 0
M  V30 1121 N 103.467 -1.45747 0.599634 0
M  V30 1122 C 104.415 -2.322 -0.136426 0
M  V30 1123 C 105.409 -1.45497 -0.867583 0
M  V30 1124 O 106.615 -1.62027 -0.78405 0
M  V30 1125 H 102.99 -0.749368 -0.0628588 0
M  V30 1126 H 104.961 -2.92072 0.611281 0
M  V30 1127 C 103.71 -3.28974 -1.12567 0
M  V30 1128 H 103.033 -3.9568 -0.572484 0
M  V30 1129 H 104.473 -3.92212 -1.61077 0
M  V30 1130 C 102.932 -2.55561 -2.19523 0
M  V30 1131 O 103.462 -2.33111 -3.27143 0
M  V30 1132 N 101.668 -2.15832 -1.94589 0
M  V30 1133 H 101.215 -2.3429 -1.07078 0
M  V30 1134 H 101.173 -1.67034 -2.66359 0
M  V30 1135 N 104.945 -0.338344 -1.53925 0
M  V30 1136 C 106.356 0.146651 -1.86123 0
M  V30 1137 C 106.707 1.5042 -1.2597 0
M  V30 1138 O 105.832 2.08723 -0.571294 0
M  V30 1139 C 106.427 0.272879 -3.37699 0
M  V30 1140 C 104.986 0.702103 -3.69794 0
M  V30 1141 C 104.133 -0.167304 -2.76795 0
M  V30 1142 H 107.084 -0.558123 -1.48562 0
M  V30 1143 H 107.105 1.10128 -3.64214 0
M  V30 1144 H 106.617 -0.715307 -3.81451 0
M  V30 1145 H 104.718 1.6995 -3.31584 0
M  V30 1146 H 104.831 0.495604 -4.7653 0
M  V30 1147 H 103.195 0.359527 -2.5215 0
M  V30 1148 H 103.978 -1.15253 -3.23375 0
M  V30 1149 N 106.423 1.57458 -0.0668435 0
M  V30 1150 C 107.7 1.8469 0.644132 0
M  V30 1151 C 108.08 0.958343 1.88093 0
M  V30 1152 O 107.428 0.0233579 2.28488 0
M  V30 1153 C 107.638 3.34767 0.986509 0
M  V30 1154 C 108.986 4.02159 1.36212 0
M  V30 1155 O 110.01 3.39484 1.07839 0
M  V30 1156 O 108.869 5.12694 1.89227 0
M  V30 1157 H 105.963 0.762816 0.319437 0
M  V30 1158 H 108.509 1.6942 -0.0973986 0
M  V30 1159 H 107.281 3.91151 0.107883 0
M  V30 1160 H 106.904 3.55281 1.78497 0
M  V30 1161 N 107.901 -0.206675 1.56239 0
M  V30 1162 C 109.149 -0.927007 1.79586 0
M  V30 1163 C 109.47 -1.8427 0.637929 0
M  V30 1164 O 108.74 -1.92849 -0.344398 0
M  V30 1165 H 107.32 -0.345292 0.662407 0
M  V30 1166 H 109.982 -0.21496 1.93711 0
M  V30 1167 H 109.078 -1.52501 2.72305 0
M  V30 1168 N 109.379 -1.50304 -0.473955 0
M  V30 1169 C 110.656 -1.51667 -1.23518 0
M  V30 1170 C 111.036 -0.259701 -2.09496 0
M  V30 1171 O 110.384 0.756986 -2.15597 0
M  V30 1172 C 110.594 -2.81082 -2.06868 0
M  V30 1173 C 111.942 -3.31631 -2.65153 0
M  V30 1174 O 112.966 -2.82384 -2.17113 0
M  V30 1175 O 111.825 -4.17471 -3.52675 0
M  V30 1176 H 108.919 -0.60822 -0.560355 0
M  V30 1177 H 111.465 -1.62592 -0.486011 0
M  V30 1178 H 110.237 -3.64041 -1.4349 0
M  V30 1179 H 109.86 -2.73146 -2.88924 0
M  V30 1180 N 110.857 0.726932 -1.39834 0
M  V30 1181 C 112.134 1.47902 -1.28001 0
M  V30 1182 C 112.514 2.1083 0.106789 0
M  V30 1183 O 111.862 1.99242 1.11869 0
M  V30 1184 C 112.072 2.52392 -2.41038 0
M  V30 1185 C 113.42 3.18546 -2.80737 0
M  V30 1186 O 114.444 2.62708 -2.40547 0
M  V30 1187 O 113.303 4.19604 -3.50135 0
M  V30 1188 H 110.397 0.657163 -0.502062 0
M  V30 1189 H 112.943 0.760071 -1.51727 0
M  V30 1190 H 111.715 2.04329 -3.33715 0
M  V30 1191 H 111.338 3.31837 -2.19021 0
M  V30 1192 N 112.336 1.25143 0.95797 0
M  V30 1193 C 113.613 1.00472 1.67823 0
M  V30 1194 C 113.993 -0.470056 2.058 0
M  V30 1195 O 113.341 -1.44663 1.76875 0
M  V30 1196 C 113.551 1.9372 2.90299 0
M  V30 1197 C 114.899 2.21371 3.62326 0
M  V30 1198 O 115.923 1.91451 3.00375 0
M  V30 1199 O 114.782 2.72231 4.7387 0
M  V30 1200 H 111.876 0.380752 0.734137 0
M  V30 1201 H 114.422 1.36283 1.01119 0
M  V30 1202 H 113.194 2.93316 2.59001 0
M  V30 1203 H 112.817 1.58286 3.64735 0
M  V30 1204 N 113.814 -1.1601 1.06675 0
M  V30 1205 C 114.746 -2.20115 0.638921 0
M  V30 1206 C 115.759 -1.59916 -0.305057 0
M  V30 1207 O 116.948 -1.78245 -0.0954446 0
M  V30 1208 C 114.048 -3.38798 -0.0830083 0
M  V30 1209 C 113.221 -4.2855 0.875426 0
M  V30 1210 C 112.28 -5.25849 0.192042 0
M  V30 1211 O 111.306 -5.63102 0.830921 0
M  V30 1212 N 112.508 -5.70648 -1.06493 0
M  V30 1213 H 115.273 -2.57439 1.53444 0
M  V30 1214 H 112.834 -1.31057 0.950557 0
M  V30 1215 H 114.826 -4.00936 -0.550685 0
M  V30 1216 H 113.396 -2.99947 -0.880386 0
M  V30 1217 H 112.616 -3.63617 1.52238 0
M  V30 1218 H 113.904 -4.85393 1.52548 0
M  V30 1219 H 113.302 -5.42482 -1.60405 0
M  V30 1220 H 111.859 -6.34859 -1.47641 0
M  V30 1221 N 115.292 -0.849877 -1.32721 0
M  V30 1222 C 116.222 -0.306308 -2.31482 0
M  V30 1223 C 117.203 0.591952 -1.59468 0
M  V30 1224 O 118.388 0.513199 -1.87296 0
M  V30 1225 C 115.518 0.510204 -3.43532 0
M  V30 1226 C 114.472 -0.293209 -4.26994 0
M  V30 1227 C 113.798 0.647743 -5.30762 0
M  V30 1228 C 115.098 -1.51634 -4.99804 0
M  V30 1229 H 116.792 -1.13153 -2.77195 0
M  V30 1230 H 114.338 -0.545553 -1.33266 0
M  V30 1231 H 116.291 0.900856 -4.11658 0
M  V30 1232 H 115.015 1.36874 -2.96535 0
M  V30 1233 H 113.674 -0.665555 -3.60508 0
M  V30 1234 H 113.322 1.50299 -4.8002 0
M  V30 1235 H 113.022 0.11422 -5.87489 0
M  V30 1236 H 114.546 1.03567 -6.01753 0
M  V30 1237 H 115.96 -1.19824 -5.60638 0
M  V30 1238 H 114.357 -1.98745 -5.66234 0
M  V30 1239 H 115.427 -2.28018 -4.27943 0
M  V30 1240 N 116.77 1.45427 -0.607355 0
M  V30 1241 C 118.019 2.01452 -0.100036 0
M  V30 1242 C 118.332 1.48159 1.27704 0
M  V30 1243 O 119.538 1.96159 1.87707 0
M  V30 1244 C 117.994 3.59672 -0.128158 0
M  V30 1245 C 117.602 4.21962 -1.50507 0
M  V30 1246 C 119.346 4.23262 0.323932 0
M  V30 1247 C 117.253 5.72333 -1.48959 0
M  V30 1248 H 116.183 0.75325 -0.0336299 0
M  V30 1249 H 118.834 1.66901 -0.76265 0
M  V30 1250 H 117.216 3.91411 0.601105 0
M  V30 1251 H 118.39 4.01796 -2.25602 0
M  V30 1252 H 116.705 3.70565 -1.89923 0
M  V30 1253 H 119.302 5.33522 0.354691 0
M  V30 1254 H 119.645 3.93921 1.34656 0
M  V30 1255 H 120.178 3.96239 -0.352056 0
M  V30 1256 H 116.917 6.06373 -2.48981 0
M  V30 1257 H 116.437 5.94691 -0.781214 0
M  V30 1258 H 118.116 6.35525 -1.21313 0
M  V30 1259 N 118.248 0.346503 1.53744 0
M  V30 1260 C 119.18 -0.543316 2.22667 0
M  V30 1261 C 120.193 -1.06159 1.23427 0
M  V30 1262 O 121.382 -0.971235 1.49764 0
M  V30 1263 C 118.482 -1.76076 2.89569 0
M  V30 1264 C 117.655 -1.37727 4.15151 0
M  V30 1265 C 116.714 -2.45471 4.65436 0
M  V30 1266 O 115.74 -2.08655 5.29577 0
M  V30 1267 N 116.942 -3.7677 4.41616 0
M  V30 1268 H 119.707 0.0469703 2.99663 0
M  V30 1269 H 117.268 0.170766 1.60997 0
M  V30 1270 H 119.26 -2.47593 3.20125 0
M  V30 1271 H 117.83 -2.25835 2.16142 0
M  V30 1272 H 117.05 -0.492746 3.91108 0
M  V30 1273 H 118.338 -1.09708 4.96832 0
M  V30 1274 H 117.736 -4.09467 3.90325 0
M  V30 1275 H 116.293 -4.44448 4.7677 0
M  V30 1276 N 119.726 -1.57421 0.075193 0
M  V30 1277 C 120.975 -1.92794 -0.592731 0
M  V30 1278 C 121.288 -0.957478 -1.70563 0
M  V30 1279 O 122.494 -1.20417 -2.43335 0
M  V30 1280 C 120.95 -3.42495 -1.10569 0
M  V30 1281 C 120.558 -4.47994 -0.0236121 0
M  V30 1282 C 122.302 -3.86864 -1.74748 0
M  V30 1283 C 120.209 -5.88829 -0.550803 0
M  V30 1284 H 119.139 -0.719591 -0.225177 0
M  V30 1285 H 121.79 -1.82902 0.147978 0
M  V30 1286 H 120.172 -3.47471 -1.89947 0
M  V30 1287 H 121.346 -4.54637 0.751099 0
M  V30 1288 H 119.661 -4.13113 0.522159 0
M  V30 1289 H 122.258 -4.8947 -2.15229 0
M  V30 1290 H 122.601 -3.24417 -2.60882 0
M  V30 1291 H 123.134 -3.84504 -1.01986 0
M  V30 1292 H 119.873 -6.54929 0.273457 0
M  V30 1293 H 119.393 -5.85698 -1.29296 0
M  V30 1294 H 121.072 -6.38811 -1.02613 0
M  V30 1295 N 121.204 0.198386 -1.56346 0
M  V30 1296 C 122.432 0.935572 -1.84539 0
M  V30 1297 C 122.847 1.76989 -0.657281 0
M  V30 1298 O 122.204 1.78626 0.374043 0
M  V30 1299 C 122.255 1.8344 -3.11499 0
M  V30 1300 O 121.976 1.03377 -4.25728 0
M  V30 1301 C 123.477 2.68355 -3.52846 0
M  V30 1302 H 120.697 0.273126 -0.612897 0
M  V30 1303 H 123.241 0.20663 -2.03453 0
M  V30 1304 H 121.396 2.51701 -2.94492 0
M  V30 1305 H 121.81 1.64599 -4.98003 0
M  V30 1306 H 123.284 3.27085 -4.44657 0
M  V30 1307 H 123.761 3.41901 -2.75681 0
M  V30 1308 H 124.367 2.05471 -3.72373 0
M  V30 1309 N 122.682 1.50554 0.465978 0
M  V30 1310 C 123.615 1.64436 1.58227 0
M  V30 1311 C 124.593 0.492367 1.54966 0
M  V30 1312 O 125.777 0.712536 1.74514 0
M  V30 1313 C 122.904 1.63165 2.96808 0
M  V30 1314 C 121.95 2.83987 3.18204 0
M  V30 1315 S 122.783 4.45219 2.97557 0
M  V30 1316 C 123.939 4.46649 4.3847 0
M  V30 1317 H 124.172 2.58861 1.46213 0
M  V30 1318 H 121.705 1.3988 0.653678 0
M  V30 1319 H 123.663 1.63116 3.76701 0
M  V30 1320 H 122.324 0.69967 3.06208 0
M  V30 1321 H 121.517 2.79416 4.19455 0
M  V30 1322 H 121.119 2.81629 2.46092 0
M  V30 1323 H 123.411 4.20526 5.31191 0
M  V30 1324 H 124.354 5.48295 4.48082 0
M  V30 1325 H 124.762 3.76296 4.20787 0
M  V30 1326 N 124.16 -0.719506 1.40217 0
M  V30 1327 C 125.107 -1.83359 1.40172 0
M  V30 1328 C 126.077 -1.64065 0.259206 0
M  V30 1329 O 127.262 -1.85254 0.456677 0
M  V30 1330 C 124.402 -3.2103 1.26624 0
M  V30 1331 C 123.515 -3.51923 2.50548 0
M  V30 1332 C 122.65 -4.79079 2.29471 0
M  V30 1333 C 121.689 -5.02863 3.48992 0
M  V30 1334 N 120.826 -6.2123 3.27135 0
M  V30 1335 H 125.666 -1.82733 2.35399 0
M  V30 1336 H 123.203 -0.892688 1.16917 0
M  V30 1337 H 125.161 -4.00524 1.16776 0
M  V30 1338 H 123.791 -3.20895 0.350176 0
M  V30 1339 H 122.843 -2.67014 2.70939 0
M  V30 1340 H 124.155 -3.6541 3.39525 0
M  V30 1341 H 123.309 -5.66582 2.16955 0
M  V30 1342 H 122.048 -4.67794 1.37913 0
M  V30 1343 H 121.053 -4.13816 3.6199 0
M  V30 1344 H 122.278 -5.16023 4.41472 0
M  V30 1345 H 120.224 -6.11204 2.38256 0
M  V30 1346 H 120.141 -6.35375 4.09675 0
M  V30 1347 H 121.409 -7.11532 3.18344 0
M  V30 1348 N 125.638 -1.25649 -0.95132 0
M  V30 1349 C 126.915 -1.01361 -1.67288 0
M  V30 1350 C 127.295 0.459135 -2.06046 0
M  V30 1351 O 126.643 1.43723 -1.7764 0
M  V30 1352 C 126.853 -1.95256 -2.89268 0
M  V30 1353 C 128.201 -2.23289 -3.61147 0
M  V30 1354 O 129.225 -1.93041 -2.99355 0
M  V30 1355 O 128.084 -2.74741 -4.72419 0
M  V30 1356 H 125.178 -0.38464 -0.732107 0
M  V30 1357 H 127.724 -1.36817 -1.00395 0
M  V30 1358 H 126.496 -2.94685 -2.57442 0
M  V30 1359 H 126.119 -1.60218 -3.6389 0
M  V30 1360 N 127.117 1.15442 -1.07289 0
M  V30 1361 C 128.363 1.86489 -0.796846 0
M  V30 1362 C 128.696 1.82078 0.675371 0
M  V30 1363 O 127.971 1.24346 1.4956 0
M  V30 1364 C 128.254 3.35626 -1.30489 0
M  V30 1365 C 128.107 3.48673 -2.84161 0
M  V30 1366 C 129.426 4.30357 -0.920907 0
M  V30 1367 H 126.545 0.677144 -0.290939 0
M  V30 1368 H 129.187 1.35633 -1.33056 0
M  V30 1369 H 127.337 3.79068 -0.850883 0
M  V30 1370 H 129.009 3.14099 -3.37846 0
M  V30 1371 H 127.252 2.90253 -3.22391 0
M  V30 1372 H 127.923 4.53453 -3.14777 0
M  V30 1373 H 130.399 3.94871 -1.3121 0
M  V30 1374 H 129.275 5.33193 -1.30372 0
M  V30 1375 H 129.536 4.4176 0.173226 0
M  V30 1376 N 128.595 0.856903 1.32268 0
M  V30 1377 C 129.543 0.291987 2.3076 0
M  V30 1378 C 130.537 -0.585857 1.58947 0
M  V30 1379 O 131.743 -0.47341 1.73663 0
M  V30 1380 H 128.118 0.075721 0.748178 0
M  V30 1381 H 130.089 1.13687 2.75895 0
M  V30 1382 C 128.838 -0.502869 3.44044 0
M  V30 1383 H 128.161 0.163328 3.99466 0
M  V30 1384 H 129.601 -0.863691 4.1511 0
M  V30 1385 C 128.06 -1.68898 2.91505 0
M  V30 1386 O 128.59 -2.78811 2.89184 0
M  V30 1387 N 126.796 -1.51679 2.47875 0
M  V30 1388 H 126.343 -0.622666 2.49961 0
M  V30 1389 H 126.301 -2.31184 2.13076 0
M  V30 1390 N 130.073 -1.45103 0.615059 0
M  V30 1391 C 131.319 -2.02483 0.113347 0
M  V30 1392 C 131.652 -1.48146 -1.25564 0
M  V30 1393 O 130.927 -0.659104 -1.82992 0
M  V30 1394 C 131.21 -3.60005 0.0825278 0
M  V30 1395 C 131.063 -4.2466 1.48271 0
M  V30 1396 C 132.382 -4.35972 -0.601401 0
M  V30 1397 H 129.501 -0.735764 0.0426632 0
M  V30 1398 H 132.143 -1.72868 0.788461 0
M  V30 1399 H 130.293 -3.85367 -0.492378 0
M  V30 1400 H 131.965 -4.10458 2.10527 0
M  V30 1401 H 130.208 -3.82772 2.04127 0
M  V30 1402 H 130.879 -5.336 1.41332 0
M  V30 1403 H 133.355 -4.15947 -0.112666 0
M  V30 1404 H 132.231 -5.45697 -0.592097 0
M  V30 1405 H 132.492 -4.09391 -1.66887 0
M  V30 1406 N 131.551 -0.354651 -1.53558 0
M  V30 1407 C 132.461 0.50515 -2.29097 0
M  V30 1408 C 133.477 1.10223 -1.34636 0
M  V30 1409 O 134.653 1.11553 -1.67684 0
M  V30 1410 C 131.718 1.63479 -3.05738 0
M  V30 1411 C 130.779 1.06636 -4.15845 0
M  V30 1412 C 130.012 2.14217 -4.88822 0
M  V30 1413 O 130.235 3.35137 -4.61562 0
M  V30 1414 O 129.169 1.77887 -5.75013 0
M  V30 1415 H 132.995 -0.109237 -3.03503 0
M  V30 1416 H 130.58 -0.119357 -1.48922 0
M  V30 1417 H 132.462 2.2918 -3.5363 0
M  V30 1418 H 131.137 2.23478 -2.34178 0
M  V30 1419 H 130.044 0.373565 -3.7223 0
M  V30 1420 H 131.377 0.511081 -4.89539 0
M  V30 1421 N 133.029 1.57378 -0.0835403 0
M  V30 1422 C 133.977 2.14602 0.89714 0
M  V30 1423 C 134.971 1.08589 1.30018 0
M  V30 1424 O 136.177 1.26952 1.27606 0
M  V30 1425 H 132.552 0.686346 0.3073 0
M  V30 1426 H 134.523 2.95845 0.38969 0
M  V30 1427 C 133.272 2.73188 2.15089 0
M  V30 1428 H 132.595 3.54442 1.84962 0
M  V30 1429 H 134.035 3.1681 2.81793 0
M  V30 1430 C 132.494 1.68517 2.91725 0
M  V30 1431 O 133.024 1.11718 3.85852 0
M  V30 1432 N 131.23 1.39277 2.55049 0
M  V30 1433 H 130.777 1.85655 1.78577 0
M  V30 1434 H 130.735 0.694791 3.06627 0
M  V30 1435 N 134.507 -0.190092 1.56449 0
M  V30 1436 C 135.753 -0.911052 1.81184 0
M  V30 1437 C 136.086 -1.82699 0.658396 0
M  V30 1438 O 135.361 -1.91491 -0.340775 0
M  V30 1439 C 135.644 -1.72297 3.16205 0
M  V30 1440 C 135.497 -0.831419 4.42049 0
M  V30 1441 C 136.816 -2.69454 3.47969 0
M  V30 1442 H 133.935 -0.32977 0.659106 0
M  V30 1443 H 136.577 -0.178169 1.89163 0
M  V30 1444 H 134.727 -2.34778 3.09534 0
M  V30 1445 H 136.399 -0.220929 4.60771 0
M  V30 1446 H 134.642 -0.138406 4.33579 0
M  V30 1447 H 135.313 -1.43461 5.33032 0
M  V30 1448 H 137.789 -2.17104 3.54972 0
M  V30 1449 H 136.665 -3.23342 4.43555 0
M  V30 1450 H 136.926 -3.48744 2.71717 0
M  V30 1451 N 135.985 -1.50799 -0.457987 0
M  V30 1452 C 136.933 -1.71162 -1.575 0
M  V30 1453 C 137.927 -0.577592 -1.59249 0
M  V30 1454 O 139.133 -0.758443 -1.63241 0
M  V30 1455 H 135.508 -0.540468 -0.522875 0
M  V30 1456 H 137.479 -2.64837 -1.37492 0
M  V30 1457 C 136.228 -1.83496 -2.95338 0
M  V30 1458 H 135.551 -2.70153 -2.94716 0
M  V30 1459 H 136.991 -2.01765 -3.72917 0
M  V30 1460 C 135.45 -0.589694 -3.31699 0
M  V30 1461 O 135.98 0.265163 -4.00824 0
M  V30 1462 N 134.186 -0.439845 -2.87252 0
M  V30 1463 H 133.733 -1.13655 -2.31172 0
M  V30 1464 H 133.691 0.392159 -3.11945 0
M  V30 1465 N 137.463 0.71206 -1.40597 0
M  V30 1466 C 138.395 1.83704 -1.37061 0
M  V30 1467 C 139.408 1.60453 -0.275426 0
M  V30 1468 O 140.597 1.70262 -0.53602 0
M  V30 1469 C 137.697 3.20172 -1.11099 0
M  V30 1470 C 136.87 3.7059 -2.3234 0
M  V30 1471 C 135.929 4.85681 -2.02485 0
M  V30 1472 O 134.955 4.9815 -2.75382 0
M  V30 1473 N 136.157 5.71735 -1.00497 0
M  V30 1474 H 138.922 1.87235 -2.34016 0
M  V30 1475 H 136.483 0.893739 -1.34996 0
M  V30 1476 H 138.475 3.94768 -0.891064 0
M  V30 1477 H 137.045 3.11767 -0.227989 0
M  V30 1478 H 136.265 2.87085 -2.7014 0
M  V30 1479 H 137.553 4.01011 -3.13157 0
M  V30 1480 H 136.951 5.64275 -0.401298 0
M  V30 1481 H 135.508 6.463 -0.844942 0
M  V30 1482 N 138.941 1.26152 0.944643 0
M  V30 1483 C 139.873 1.03199 2.04652 0
M  V30 1484 C 140.886 -0.00642356 1.62799 0
M  V30 1485 O 142.075 0.233263 1.76969 0
M  V30 1486 C 139.175 0.540111 3.34568 0
M  V30 1487 C 138.348 1.64697 4.05208 0
M  V30 1488 C 137.407 1.15374 5.13396 0
M  V30 1489 O 136.433 1.85013 5.38293 0
M  V30 1490 N 137.635 0.00031529 5.805 0
M  V30 1491 H 140.4 1.9808 2.2491 0
M  V30 1492 H 137.961 1.17491 1.11389 0
M  V30 1493 H 139.953 0.194401 4.04233 0
M  V30 1494 H 138.523 -0.315021 3.11009 0
M  V30 1495 H 137.743 2.16379 3.29506 0
M  V30 1496 H 139.031 2.3903 4.49157 0
M  V30 1497 H 138.429 -0.581336 5.62705 0
M  V30 1498 H 136.986 -0.286346 6.51171 0
M  V30 1499 N 140.419 -1.14872 1.07899 0
M  V30 1500 C 141.835 -1.37776 0.805606 0
M  V30 1501 C 142.035 -1.92743 -0.587555 0
M  V30 1502 O 141.091 -2.13678 -1.34528 0
M  V30 1503 C 142.404 -2.34361 1.88402 0
M  V30 1504 C 143.952 -2.48012 1.90942 0
M  V30 1505 C 144.427 -3.47893 2.97883 0
M  V30 1506 N 145.918 -3.55433 2.97021 0
M  V30 1507 C 146.653 -4.32553 3.76412 0
M  V30 1508 N 146.149 -5.12959 4.65666 0
M  V30 1509 N 147.942 -4.27697 3.64735 0
M  V30 1510 H 140.093 -0.775365 1.97742 0
M  V30 1511 H 142.356 -0.403521 0.857831 0
M  V30 1512 H 142.062 -2.01098 2.88535 0
M  V30 1513 H 141.936 -3.34206 1.74889 0
M  V30 1514 H 144.323 -2.8057 0.914579 0
M  V30 1515 H 144.404 -1.48147 2.08534 0
M  V30 1516 H 144.048 -3.16069 3.97571 0
M  V30 1517 H 143.978 -4.47527 2.77538 0
M  V30 1518 H 146.469 -2.98048 2.32326 0
M  V30 1519 H 146.782 -5.69065 5.22862 0
M  V30 1520 H 145.127 -5.12245 4.69712 0
M  V30 1521 H 148.318 -3.63949 2.94378 0
M  V30 1522 H 148.491 -4.8755 4.26848 0
M  V30 1523 N 141.898 -0.863906 -1.31812 0
M  V30 1524 C 143.146 -0.470904 -1.96537 0
M  V30 1525 C 143.467 0.978771 -1.68657 0
M  V30 1526 O 142.737 1.6853 -0.998717 0
M  V30 1527 H 141.317 -0.171148 -0.72713 0
M  V30 1528 H 143.979 -1.10236 -1.60729 0
M  V30 1529 H 143.075 -0.623616 -3.05806 0
M  V30 1530 N 143.376 1.44774 -0.622745 0
M  V30 1531 C 144.286 2.34433 0.0886031 0
M  V30 1532 C 145.302 1.52131 0.844529 0
M  V30 1533 O 146.478 1.84886 0.798691 0
M  V30 1534 C 143.543 3.29986 1.0635 0
M  V30 1535 C 142.604 4.28195 0.307873 0
M  V30 1536 C 141.837 5.19183 1.23633 0
M  V30 1537 O 142.06 5.13918 2.47476 0
M  V30 1538 O 140.994 5.97515 0.725189 0
M  V30 1539 H 144.82 2.96693 -0.648599 0
M  V30 1540 H 142.405 1.44408 -0.382957 0
M  V30 1541 H 144.287 3.88825 1.6246 0
M  V30 1542 H 142.962 2.70269 1.78146 0
M  V30 1543 H 141.869 3.72927 -0.296064 0
M  V30 1544 H 143.202 4.90808 -0.3699 0
M  V30 1545 N 144.854 0.36279 1.53368 0
M  V30 1546 C 145.801 -0.485008 2.25646 0
M  V30 1547 C 146.771 -1.07982 1.2621 0
M  V30 1548 O 147.956 -1.11284 1.54986 0
M  V30 1549 C 145.096 -1.62023 3.04701 0
M  V30 1550 C 144.209 -1.05086 4.19024 0
M  V30 1551 C 143.344 -2.15496 4.85525 0
M  V30 1552 C 142.383 -1.5601 5.91884 0
M  V30 1553 N 141.52 -2.60241 6.52088 0
M  V30 1554 H 146.36 0.137864 2.97681 0
M  V30 1555 H 143.897 0.0798061 1.46883 0
M  V30 1556 H 145.855 -2.28887 3.48807 0
M  V30 1557 H 144.485 -2.2138 2.34927 0
M  V30 1558 H 143.537 -0.27259 3.79422 0
M  V30 1559 H 144.849 -0.575926 4.95464 0
M  V30 1560 H 144.003 -2.90186 5.32801 0
M  V30 1561 H 142.742 -2.66341 4.08551 0
M  V30 1562 H 141.747 -0.798338 5.43973 0
M  V30 1563 H 142.972 -1.05994 6.70777 0
M  V30 1564 H 140.918 -3.10304 5.77968 0
M  V30 1565 H 140.835 -2.17426 7.24059 0
M  V30 1566 H 142.103 -3.34641 7.04014 0
M  V30 1567 N 146.332 -1.57332 0.0918853 0
M  V30 1568 C 147.557 -1.98995 -0.584442 0
M  V30 1569 C 147.982 -0.970528 -1.61128 0
M  V30 1570 O 147.34 0.0613904 -1.81196 0
M  V30 1571 C 147.388 -3.39636 -1.21161 0
M  V30 1572 O 146.492 -3.40447 -2.32744 0
M  V30 1573 H 145.833 -0.647165 -0.148572 0
M  V30 1574 H 148.363 -2.03873 0.172347 0
M  V30 1575 H 148.373 -3.7726 -1.55367 0
M  V30 1576 H 147.048 -4.13356 -0.459313 0
M  V30 1577 H 145.625 -3.14614 -2.0018 0
M  V30 1578 N 147.81 0.181792 -1.56548 0
M  V30 1579 C 149.059 0.898348 -1.8059 0
M  V30 1580 C 149.372 1.83862 -0.667379 0
M  V30 1581 O 150.578 2.59678 -0.792446 0
M  V30 1582 C 149.034 1.64791 -3.19956 0
M  V30 1583 C 148.642 0.751789 -4.41647 0
M  V30 1584 C 150.386 2.35331 -3.53298 0
M  V30 1585 C 148.293 1.50098 -5.72035 0
M  V30 1586 H 147.223 0.339194 -0.673397 0
M  V30 1587 H 149.874 0.151413 -1.82874 0
M  V30 1588 H 148.256 2.43921 -3.11959 0
M  V30 1589 H 149.43 -0.0018076 -4.608 0
M  V30 1590 H 147.745 0.156562 -4.16106 0
M  V30 1591 H 150.342 2.91958 -4.47956 0
M  V30 1592 H 150.685 3.10164 -2.77676 0
M  V30 1593 H 151.218 1.63154 -3.62803 0
M  V30 1594 H 147.957 0.795175 -6.50659 0
M  V30 1595 H 147.477 2.22817 -5.56878 0
M  V30 1596 H 149.156 2.05125 -6.13622 0
M  V30 1597 N 149.288 1.51039 0.449983 0
M  V30 1598 C 150.535 1.63081 1.20045 0
M  V30 1599 C 150.863 0.341024 1.91487 0
M  V30 1600 O 150.118 -0.674276 1.83717 0
M  V30 1601 C 150.417 2.77556 2.25161 0
M  V30 1602 C 150.083 4.17289 1.70823 0
M  V30 1603 C 148.745 4.55305 1.55725 0
M  V30 1604 C 151.097 5.04536 1.3074 0
M  V30 1605 C 148.425 5.78287 0.989999 0
M  V30 1606 C 150.777 6.28085 0.754482 0
M  V30 1607 C 149.441 6.64885 0.590308 0
M  V30 1608 H 148.711 0.596755 0.439277 0
M  V30 1609 H 151.358 1.85037 0.49333 0
M  V30 1610 H 149.663 2.49771 3.01863 0
M  V30 1611 H 151.36 2.84073 2.83026 0
M  V30 1612 H 147.95 3.8731 1.83546 0
M  V30 1613 H 152.134 4.75782 1.41229 0
M  V30 1614 H 147.39 6.05456 0.850451 0
M  V30 1615 H 151.564 6.95038 0.435324 0
M  V30 1616 H 149.191 7.60055 0.14862 0
M  V30 1617 N 150.766 -0.704594 1.40972 0
M  V30 1618 C 151.713 -1.81862 1.42109 0
M  V30 1619 C 152.683 -1.63781 0.276593 0
M  V30 1620 O 153.868 -1.84759 0.4763 0
M  V30 1621 C 151.008 -3.19669 1.30022 0
M  V30 1622 C 150.121 -3.49246 2.54267 0
M  V30 1623 C 149.256 -4.76618 2.3454 0
M  V30 1624 C 148.295 -4.99133 3.54306 0
M  V30 1625 N 147.432 -6.17726 3.33706 0
M  V30 1626 H 152.272 -1.80226 2.37324 0
M  V30 1627 H 149.809 -0.880238 1.17857 0
M  V30 1628 H 151.767 -3.99263 1.21018 0
M  V30 1629 H 150.397 -3.20506 0.384192 0
M  V30 1630 H 149.449 -2.64125 2.73756 0
M  V30 1631 H 150.761 -3.61788 3.43381 0
M  V30 1632 H 149.915 -5.64249 2.22952 0
M  V30 1633 H 148.654 -4.66305 1.42867 0
M  V30 1634 H 147.659 -4.09953 3.66359 0
M  V30 1635 H 148.884 -5.11311 4.4692 0
M  V30 1636 H 146.83 -6.08642 2.44725 0
M  V30 1637 H 146.747 -6.30995 4.16391 0
M  V30 1638 H 148.015 -7.08115 3.25873 0
M  V30 1639 N 152.244 -1.26651 -0.937939 0
M  V30 1640 C 153.492 -1.12165 -1.68118 0
M  V30 1641 C 153.813 0.334983 -1.92101 0
M  V30 1642 O 153.083 1.23583 -1.52 0
M  V30 1643 H 151.663 -0.412093 -0.623048 0
M  V30 1644 H 154.325 -1.59027 -1.12678 0
M  V30 1645 H 153.421 -1.64289 -2.6536 0
M  V30 1646 N 153.722 1.14298 -1.08507 0
M  V30 1647 C 154.669 2.19414 -0.715965 0
M  V30 1648 C 155.639 1.63399 0.298326 0
M  V30 1649 O 156.824 1.89929 0.182101 0
M  V30 1650 C 153.964 3.44845 -0.132534 0
M  V30 1651 C 153.077 4.15007 -1.19973 0
M  V30 1652 C 152.212 5.28024 -0.580048 0
M  V30 1653 C 151.251 5.9002 -1.62921 0
M  V30 1654 N 150.388 6.94485 -1.03125 0
M  V30 1655 H 155.228 2.50336 -1.61666 0
M  V30 1656 H 152.765 1.2293 -0.807882 0
M  V30 1657 H 154.723 4.16601 0.223454 0
M  V30 1658 H 153.353 3.14403 0.731467 0
M  V30 1659 H 152.405 3.41629 -1.67313 0
M  V30 1660 H 153.717 4.57178 -1.99473 0
M  V30 1661 H 152.871 6.06455 -0.172364 0
M  V30 1662 H 151.61 4.87076 0.246603 0
M  V30 1663 H 150.615 5.10291 -2.04654 0
M  V30 1664 H 151.84 6.33042 -2.45835 0
M  V30 1665 H 149.786 6.55612 -0.225711 0
M  V30 1666 H 149.703 7.35148 -1.76334 0
M  V30 1667 H 150.971 7.7679 -0.649458 0
M  V30 1668 N 155.201 0.870884 1.31352 0
M  V30 1669 C 156.426 0.495957 2.01383 0
M  V30 1670 C 156.851 -0.904324 1.64935 0
M  V30 1671 O 156.209 -1.59687 0.858466 0
M  V30 1672 C 156.257 0.661433 3.54482 0
M  V30 1673 O 155.361 -0.298851 4.11316 0
M  V30 1674 H 154.702 0.197158 0.634054 0
M  V30 1675 H 157.232 1.17455 1.67527 0
M  V30 1676 H 157.242 0.555072 4.04207 0
M  V30 1677 H 155.917 1.68246 3.8035 0
M  V30 1678 H 154.494 -0.147368 3.72609 0
M  V30 1679 N 156.679 -1.44442 0.630414 0
M  V30 1680 C 158.09 -1.85434 0.217063 0
M  V30 1681 C 158.441 -1.52748 -1.23136 0
M  V30 1682 O 157.566 -0.965205 -1.93682 0
M  V30 1683 C 158.161 -3.36581 0.387168 0
M  V30 1684 C 156.72 -3.76389 0.0283297 0
M  V30 1685 C 155.867 -2.68296 0.700889 0
M  V30 1686 H 158.818 -1.34919 0.83562 0
M  V30 1687 H 158.839 -3.78657 -0.374086 0
M  V30 1688 H 158.351 -3.60339 1.44144 0
M  V30 1689 H 156.452 -3.58246 -1.02423 0
M  V30 1690 H 156.565 -4.77095 0.437892 0
M  V30 1691 H 154.929 -2.54335 0.136267 0
M  V30 1692 H 155.712 -2.94887 1.75774 0
M  V30 1693 N 158.157 -0.370918 -1.53173 0
M  V30 1694 C 159.382 0.220293 -2.06227 0
M  V30 1695 C 159.807 1.41243 -1.24225 0
M  V30 1696 O 159.165 1.79387 -0.262645 0
M  V30 1697 C 159.213 0.586663 -3.55796 0
M  V30 1698 O 158.317 1.68317 -3.76488 0
M  V30 1699 H 157.658 0.0308099 -0.663285 0
M  V30 1700 H 160.188 -0.533068 -1.97534 0
M  V30 1701 H 160.198 0.85617 -3.98916 0
M  V30 1702 H 158.873 -0.285013 -4.14922 0
M  V30 1703 H 157.45 1.40881 -3.45264 0
M  V30 1704 N 159.635 1.57281 -0.100228 0
M  V30 1705 C 160.582 2.14305 0.856858 0
M  V30 1706 C 161.552 1.06296 1.27634 0
M  V30 1707 O 162.737 1.34109 1.35718 0
M  V30 1708 C 159.877 2.73184 2.10866 0
M  V30 1709 C 158.99 3.95442 1.73925 0
M  V30 1710 C 158.125 4.42468 2.93931 0
M  V30 1711 C 157.164 5.57303 2.5314 0
M  V30 1712 N 156.301 5.99158 3.65997 0
M  V30 1713 H 161.141 2.95772 0.363726 0
M  V30 1714 H 158.678 1.46139 0.167858 0
M  V30 1715 H 160.636 3.05442 2.84185 0
M  V30 1716 H 159.266 1.94437 2.57671 0
M  V30 1717 H 158.318 3.69464 0.905554 0
M  V30 1718 H 159.63 4.78769 1.39935 0
M  V30 1719 H 158.784 4.76537 3.75496 0
M  V30 1720 H 157.523 3.58052 3.31134 0
M  V30 1721 H 156.528 5.22857 1.70003 0
M  V30 1722 H 157.753 6.43471 2.17075 0
M  V30 1723 H 155.699 5.17687 4.02909 0
M  V30 1724 H 155.616 6.77295 3.35869 0
M  V30 1725 H 156.884 6.3786 4.48057 0
M  V30 1726 N 161.113 -0.173488 1.56642 0
M  V30 1727 C 162.362 -0.888758 1.81063 0
M  V30 1728 C 162.675 -1.83506 0.67712 0
M  V30 1729 O 163.881 -2.59254 0.806206 0
M  V30 1730 C 162.337 -1.63091 3.20826 0
M  V30 1731 C 161.945 -0.728357 4.4204 0
M  V30 1732 C 163.689 -2.33454 3.54541 0
M  V30 1733 C 161.596 -1.47062 5.72823 0
M  V30 1734 H 160.526 -0.335618 0.675186 0
M  V30 1735 H 163.177 -0.141712 1.82952 0
M  V30 1736 H 161.559 -2.42263 3.13248 0
M  V30 1737 H 162.733 0.0262449 4.60793 0
M  V30 1738 H 161.048 -0.134492 4.16183 0
M  V30 1739 H 163.645 -2.89578 4.49498 0
M  V30 1740 H 163.988 -3.08687 2.79317 0
M  V30 1741 H 164.521 -1.61227 3.63663 0
M  V30 1742 H 161.26 -0.760658 6.51072 0
M  V30 1743 H 160.78 -2.1986 5.58052 0
M  V30 1744 H 162.459 -2.01868 6.14702 0
M  V30 1745 N 162.591 -1.51276 -0.441967 0
M  V30 1746 C 163.524 -1.66933 -1.55591 0
M  V30 1747 C 164.502 -0.516958 -1.54163 0
M  V30 1748 O 165.686 -0.740209 -1.73358 0
M  V30 1749 C 162.813 -1.67866 -2.94174 0
M  V30 1750 C 161.859 -2.89013 -3.13646 0
M  V30 1751 S 162.692 -4.49897 -2.90436 0
M  V30 1752 C 163.848 -4.53568 -4.31308 0
M  V30 1753 H 164.081 -2.61155 -1.42076 0
M  V30 1754 H 161.614 -1.40902 -0.631341 0
M  V30 1755 H 163.572 -1.69089 -3.74058 0
M  V30 1756 H 162.233 -0.748296 -3.05056 0
M  V30 1757 H 161.426 -2.86054 -4.14957 0
M  V30 1758 H 161.028 -2.85509 -2.4158 0
M  V30 1759 H 163.32 -4.28924 -5.24434 0
M  V30 1760 H 164.263 -5.55355 -4.39303 0
M  V30 1761 H 164.671 -3.82943 -4.14747 0
M  V30 1762 N 164.069 0.697108 -1.41344 0
M  V30 1763 C 165.317 1.45426 -1.40341 0
M  V30 1764 C 165.638 1.94996 -0.0128787 0
M  V30 1765 O 164.908 1.71599 0.945027 0
M  V30 1766 H 163.488 0.539594 -0.516573 0
M  V30 1767 H 166.15 0.825201 -1.76569 0
M  V30 1768 H 165.246 2.31817 -2.08967 0
M  V30 1769 N 165.547 1.27147 0.931209 0
M  V30 1770 C 166.494 1.09568 2.03134 0
M  V30 1771 C 167.464 -0.00222433 1.661 0
M  V30 1772 O 168.649 0.159439 1.90133 0
M  V30 1773 C 165.789 0.745231 3.36957 0
M  V30 1774 C 164.902 1.92041 3.86968 0
M  V30 1775 C 164.037 1.51216 5.09222 0
M  V30 1776 C 163.076 2.65504 5.5152 0
M  V30 1777 N 162.213 2.25291 6.64972 0
M  V30 1778 H 167.053 2.03708 2.17502 0
M  V30 1779 H 164.59 1.01411 1.06556 0
M  V30 1780 H 166.548 0.522878 4.1391 0
M  V30 1781 H 165.178 -0.159202 3.22407 0
M  V30 1782 H 164.23 2.25541 3.06326 0
M  V30 1783 H 165.542 2.77787 4.1429 0
M  V30 1784 H 164.696 1.25084 5.93666 0
M  V30 1785 H 163.435 0.625749 4.83669 0
M  V30 1786 H 162.44 2.92354 4.65628 0
M  V30 1787 H 163.665 3.54761 5.7907 0
M  V30 1788 H 161.611 1.39098 6.41083 0
M  V30 1789 H 161.528 3.04577 6.91931 0
M  V30 1790 H 162.796 2.02398 7.52765 0
M  V30 1791 N 167.025 -1.13721 1.09112 0
M  V30 1792 C 167.935 -2.22638 0.73957 0
M  V30 1793 C 168.951 -1.72091 -0.257068 0
M  V30 1794 O 170.127 -2.01155 -0.0992154 0
M  V30 1795 C 167.192 -3.46322 0.16191 0
M  V30 1796 C 166.253 -4.11775 1.21408 0
M  V30 1797 C 165.486 -5.29555 0.663891 0
M  V30 1798 O 165.709 -5.68077 -0.514274 0
M  V30 1799 O 164.643 -5.84973 1.41738 0
M  V30 1800 H 168.469 -2.55074 1.64836 0
M  V30 1801 H 166.054 -1.21791 0.865289 0
M  V30 1802 H 167.936 -4.21107 -0.157073 0
M  V30 1803 H 166.611 -3.15593 -0.719932 0
M  V30 1804 H 165.518 -3.3883 1.58571 0
M  V30 1805 H 166.851 -4.46627 2.06845 0
M  V30 1806 N 168.503 -0.877838 -1.30888 0
M  V30 1807 C 169.451 -0.328662 -2.30266 0
M  V30 1808 C 170.445 0.560496 -1.59859 0
M  V30 1809 O 171.651 0.445722 -1.74394 0
M  V30 1810 H 168.026 -0.0876142 -0.746879 0
M  V30 1811 H 169.997 -1.18061 -2.74051 0
M  V30 1812 C 168.746 0.448071 -3.44801 0
M  V30 1813 H 168.069 -0.226859 -3.99156 0
M  V30 1814 H 169.509 0.797541 -4.16432 0
M  V30 1815 C 167.968 1.64239 -2.94155 0
M  V30 1816 O 168.498 2.74175 -2.93583 0
M  V30 1817 N 166.704 1.47716 -2.50256 0
M  V30 1818 H 166.251 0.582821 -2.5092 0
M  V30 1819 H 166.209 2.27765 -2.16727 0
M  V30 1820 N 169.982 1.44106 -0.638065 0
M  V30 1821 C 170.912 2.33448 0.0494287 0
M  V30 1822 C 171.893 1.48606 0.827672 0
M  V30 1823 O 173.078 1.77308 0.792173 0
M  V30 1824 C 170.208 3.31771 1.02691 0
M  V30 1825 C 169.162 4.26485 0.359823 0
M  V30 1826 C 168.488 5.14729 1.44769 0
M  V30 1827 C 169.788 5.17056 -0.738296 0
M  V30 1828 H 171.482 2.91183 -0.696636 0
M  V30 1829 H 169.028 1.40014 -0.336456 0
M  V30 1830 H 170.981 3.93161 1.51666 0
M  V30 1831 H 169.705 2.7226 1.80395 0
M  V30 1832 H 168.364 3.66437 -0.10934 0
M  V30 1833 H 168.012 4.51566 2.21578 0
M  V30 1834 H 167.712 5.78913 1.00668 0
M  V30 1835 H 169.236 5.78991 1.93911 0
M  V30 1836 H 170.65 5.72342 -0.331354 0
M  V30 1837 H 169.047 5.89879 -1.10286 0
M  V30 1838 H 170.117 4.57652 -1.60258 0
M  V30 1839 N 171.46 0.379036 1.52974 0
M  V30 1840 C 172.37 -0.468639 2.29872 0
M  V30 1841 C 173.386 -1.08067 1.36373 0
M  V30 1842 O 174.562 -1.08871 1.69438 0
M  V30 1843 C 171.627 -1.58594 3.083 0
M  V30 1844 C 170.688 -1.00007 4.17489 0
M  V30 1845 C 169.921 -2.06413 4.92168 0
M  V30 1846 O 170.144 -3.27751 4.66835 0
M  V30 1847 O 169.078 -1.68717 5.7777 0
M  V30 1848 H 172.904 0.157508 3.03291 0
M  V30 1849 H 170.489 0.143035 1.48714 0
M  V30 1850 H 172.371 -2.23525 3.57232 0
M  V30 1851 H 171.046 -2.19724 2.37703 0
M  V30 1852 H 169.953 -0.314299 3.72777 0
M  V30 1853 H 171.286 -0.433135 4.90291 0
M  V30 1854 N 172.938 -1.57226 0.108567 0
M  V30 1855 C 173.901 -2.13602 -0.831082 0
M  V30 1856 C 174.901 -1.06841 -1.20173 0
M  V30 1857 O 176.091 -1.32666 -1.12895 0
M  V30 1858 C 173.223 -2.66769 -2.12243 0
M  V30 1859 H 174.416 -2.97951 -0.341317 0
M  V30 1860 H 171.969 -1.55667 -0.14057 0
M  V30 1861 H 172.704 -1.85977 -2.65675 0
M  V30 1862 H 172.489 -3.44839 -1.86625 0
M  V30 1863 H 173.979 -3.10332 -2.79435 0
M  V30 1864 N 174.416 0.165178 -1.56732 0
M  V30 1865 C 175.346 1.20651 -1.99914 0
M  V30 1866 C 176.327 1.45827 -0.875705 0
M  V30 1867 O 177.512 1.57057 -1.14223 0
M  V30 1868 C 174.642 2.54401 -2.36427 0
M  V30 1869 C 173.596 2.43782 -3.51787 0
M  V30 1870 C 172.922 3.82078 -3.7406 0
M  V30 1871 C 174.222 1.93732 -4.85041 0
M  V30 1872 H 175.916 0.847534 -2.87154 0
M  V30 1873 H 173.462 0.40625 -1.38151 0
M  V30 1874 H 175.415 3.27458 -2.65234 0
M  V30 1875 H 174.139 2.92098 -1.46103 0
M  V30 1876 H 172.798 1.73178 -3.23117 0
M  V30 1877 H 172.446 4.17179 -2.81017 0
M  V30 1878 H 172.146 3.7584 -4.51684 0
M  V30 1879 H 173.67 4.56712 -4.05274 0
M  V30 1880 H 175.084 2.56569 -5.12684 0
M  V30 1881 H 173.481 1.98428 -5.66345 0
M  V30 1882 H 174.551 0.891962 -4.76626 0
M  V30 1883 N 175.894 1.51508 0.433938 0
M  V30 1884 C 176.826 1.69266 1.54537 0
M  V30 1885 C 177.839 0.573276 1.52373 0
M  V30 1886 O 179.028 0.847698 1.57087 0
M  V30 1887 C 176.128 1.69524 2.93453 0
M  V30 1888 C 175.301 2.98101 3.20085 0
M  V30 1889 C 174.36 2.90502 4.38742 0
M  V30 1890 O 173.386 3.64442 4.3723 0
M  V30 1891 N 174.588 2.06586 5.42496 0
M  V30 1892 H 177.353 2.65145 1.39708 0
M  V30 1893 H 174.914 1.49437 0.622922 0
M  V30 1894 H 176.906 1.62004 3.70859 0
M  V30 1895 H 175.476 0.812245 3.01863 0
M  V30 1896 H 174.696 3.19464 2.30947 0
M  V30 1897 H 175.984 3.83207 3.34708 0
M  V30 1898 H 175.382 1.45896 5.46563 0
M  V30 1899 H 173.939 2.04943 6.18742 0
M  V30 1900 N 177.372 -0.689602 1.41712 0
M  V30 1901 C 178.788 -1.00093 1.24312 0
M  V30 1902 C 178.988 -2.01036 0.136729 0
M  V30 1903 O 178.044 -2.47562 -0.496918 0
M  V30 1904 C 179.357 -1.51985 2.59463 0
M  V30 1905 C 180.905 -1.63838 2.66695 0
M  V30 1906 C 181.38 -2.1913 4.02177 0
M  V30 1907 N 182.871 -2.26483 4.04054 0
M  V30 1908 C 183.606 -2.70306 5.0569 0
M  V30 1909 N 183.102 -3.13691 6.17713 0
M  V30 1910 N 184.895 -2.69923 4.9305 0
M  V30 1911 H 177.046 -0.0210029 2.1239 0
M  V30 1912 H 179.309 -0.0718733 0.945272 0
M  V30 1913 H 179.015 -0.85269 3.41207 0
M  V30 1914 H 178.889 -2.50103 2.82362 0
M  V30 1915 H 181.276 -2.29664 1.85306 0
M  V30 1916 H 181.357 -0.642492 2.476 0
M  V30 1917 H 181.001 -1.53918 4.84016 0
M  V30 1918 H 180.931 -3.19482 4.18615 0
M  V30 1919 H 183.422 -1.95874 3.23174 0
M  V30 1920 H 183.735 -3.45773 6.9113 0
M  V30 1921 H 182.08 -3.11585 6.21241 0
M  V30 1922 H 185.271 -2.35382 4.04614 0
M  V30 1923 H 185.444 -3.03758 5.72394 0
M  V30 1924 N 178.85 -1.27639 -0.924453 0
M  V30 1925 C 180.261 -1.12834 -1.48746 0
M  V30 1926 C 180.612 0.285505 -1.94112 0
M  V30 1927 O 179.737 1.17874 -1.81479 0
M  V30 1928 C 180.332 -2.04217 -2.70334 0
M  V30 1929 C 178.891 -1.93509 -3.22848 0
M  V30 1930 C 178.038 -1.96583 -1.95577 0
M  V30 1931 H 180.989 -1.40484 -0.738233 0
M  V30 1932 H 181.01 -1.59989 -3.4523 0
M  V30 1933 H 180.522 -3.07111 -2.37285 0
M  V30 1934 H 178.623 -0.936131 -3.60649 0
M  V30 1935 H 178.736 -2.79917 -3.88823 0
M  V30 1936 H 177.1 -1.4085 -2.12211 0
M  V30 1937 H 177.883 -3.01137 -1.64837 0
M  V30 1938 N 180.328 1.1314 -1.09713 0
M  V30 1939 C 181.556 1.88321 -0.856898 0
M  V30 1940 C 181.971 1.79276 0.592073 0
M  V30 1941 O 181.328 1.16142 1.40774 0
M  V30 1942 C 181.379 3.37812 -1.28706 0
M  V30 1943 O 181.1 3.46627 -2.67921 0
M  V30 1944 C 182.601 4.29952 -1.07964 0
M  V30 1945 H 179.821 0.596094 -0.308079 0
M  V30 1946 H 182.365 1.43205 -1.45988 0
M  V30 1947 H 180.52 3.805 -0.727912 0
M  V30 1948 H 180.934 4.39579 -2.8613 0
M  V30 1949 H 182.408 5.33159 -1.42986 0
M  V30 1950 H 182.885 4.39196 -0.0176577 0
M  V30 1951 H 183.491 3.93036 -1.62489 0
M  V30 1952 N 181.806 0.884767 1.30421 0
M  V30 1953 C 182.736 0.367574 2.30589 0
M  V30 1954 C 183.717 -0.549464 1.60981 0
M  V30 1955 O 184.902 -0.46336 1.88591 0
M  V30 1956 C 182.032 -0.418944 3.44764 0
M  V30 1957 C 180.986 0.406316 4.26067 0
M  V30 1958 C 180.312 -0.506793 5.32293 0
M  V30 1959 C 181.612 1.64832 4.95608 0
M  V30 1960 H 183.306 1.20462 2.74097 0
M  V30 1961 H 180.852 0.580695 1.31772 0
M  V30 1962 H 182.805 -0.791395 4.13902 0
M  V30 1963 H 181.529 -1.28964 3.0006 0
M  V30 1964 H 180.188 0.760903 3.58617 0
M  V30 1965 H 179.836 -1.37519 4.83836 0
M  V30 1966 H 179.536 0.0415828 5.87585 0
M  V30 1967 H 181.06 -0.875764 6.04287 0
M  V30 1968 H 182.474 1.34646 5.57264 0
M  V30 1969 H 180.871 2.13688 5.60765 0
M  V30 1970 H 181.941 2.39284 4.21748 0
M  V30 1971 N 183.284 -1.43765 0.645699 0
M  V30 1972 C 184.214 -2.33471 -0.0370477 0
M  V30 1973 C 185.195 -1.49042 -0.819779 0
M  V30 1974 O 186.38 -1.77726 -0.782758 0
M  V30 1975 C 183.51 -3.32311 -1.0093 0
M  V30 1976 C 182.464 -4.2667 -0.337201 0
M  V30 1977 C 181.79 -5.1549 -1.42037 0
M  V30 1978 C 183.09 -5.16657 0.765706 0
M  V30 1979 H 184.784 -2.90809 0.712069 0
M  V30 1980 H 182.33 -1.39834 0.343876 0
M  V30 1981 H 184.283 -3.9396 -1.49578 0
M  V30 1982 H 183.007 -2.73213 -1.78948 0
M  V30 1983 H 181.666 -3.66374 0.128771 0
M  V30 1984 H 181.314 -4.52735 -2.1918 0
M  V30 1985 H 181.014 -5.79438 -0.975966 0
M  V30 1986 H 182.538 -5.80012 -1.90838 0
M  V30 1987 H 183.952 -5.72158 0.361702 0
M  V30 1988 H 182.349 -5.89286 1.13413 0
M  V30 1989 H 183.419 -4.56796 1.62683 0
M  V30 1990 N 184.763 -0.387143 -1.52771 0
M  V30 1991 C 185.713 0.465942 -2.23188 0
M  V30 1992 C 186.697 1.03138 -1.23496 0
M  V30 1993 O 187.889 0.957845 -1.48843 0
M  V30 1994 C 185.018 1.59384 -3.04059 0
M  V30 1995 C 184.104 1.04024 -4.11144 0
M  V30 1996 N 184.495 0.211416 -5.05358 0
M  V30 1997 C 182.793 1.31295 -4.26237 0
M  V30 1998 C 183.494 -0.0941698 -5.81624 0
M  V30 1999 N 182.47 0.509207 -5.4121 0
M  V30 2000 H 186.272 -0.173856 -2.93385 0
M  V30 2001 H 183.786 -0.19633 -1.61209 0
M  V30 2002 H 185.783 2.21738 -3.53041 0
M  V30 2003 H 184.443 2.23648 -2.35397 0
M  V30 2004 H 185.454 -0.151151 -5.17679 0
M  V30 2005 H 182.131 1.95679 -3.68803 0
M  V30 2006 H 183.521 -0.765572 -6.67524 0
M  V30 2007 N 186.241 1.57166 -0.116904 0
M  V30 2008 C 187.171 2.18222 0.830759 0
M  V30 2009 C 188.152 1.12167 1.27877 0
M  V30 2010 O 189.337 1.40394 1.34176 0
M  V30 2011 C 186.467 2.77996 2.08172 0
M  V30 2012 C 185.421 3.89614 1.77157 0
M  V30 2013 C 184.747 4.36187 3.09265 0
M  V30 2014 C 186.047 5.1181 1.04151 0
M  V30 2015 H 187.741 2.97664 0.321992 0
M  V30 2016 H 185.287 1.4318 0.153434 0
M  V30 2017 H 187.24 3.19366 2.74924 0
M  V30 2018 H 185.964 1.9584 2.6137 0
M  V30 2019 H 184.623 3.48816 1.12796 0
M  V30 2020 H 184.271 3.50893 3.60393 0
M  V30 2021 H 183.971 5.11455 2.89288 0
M  V30 2022 H 185.495 4.80207 3.77139 0
M  V30 2023 H 186.909 5.50214 1.61052 0
M  V30 2024 H 185.306 5.92648 0.942762 0
M  V30 2025 H 186.376 4.84892 0.0279022 0
M  V30 2026 N 187.719 -0.156864 1.56817 0
M  V30 2027 C 188.968 -0.869504 1.81996 0
M  V30 2028 C 189.281 -1.82777 0.696545 0
M  V30 2029 O 190.487 -2.58384 0.833658 0
M  V30 2030 C 188.943 -1.59679 3.22538 0
M  V30 2031 C 188.551 -0.681431 4.42787 0
M  V30 2032 C 190.295 -2.2968 3.56997 0
M  V30 2033 C 188.202 -1.40978 5.74351 0
M  V30 2034 H 187.132 -0.328438 0.678708 0
M  V30 2035 H 189.783 -0.1223 1.83092 0
M  V30 2036 H 188.165 -2.38927 3.158 0
M  V30 2037 H 189.339 0.0751166 4.60739 0
M  V30 2038 H 187.654 -0.0903431 4.16302 0
M  V30 2039 H 190.251 -2.84794 4.52544 0
M  V30 2040 H 190.594 -3.05707 2.82576 0
M  V30 2041 H 191.127 -1.57361 3.65352 0
M  V30 2042 H 187.866 -0.691561 6.51842 0
M  V30 2043 H 187.386 -2.13929 5.60352 0
M  V30 2044 H 189.065 -1.95337 6.16808 0
M  V30 2045 N 189.197 -1.51736 -0.425897 0
M  V30 2046 C 190.147 -1.70258 -1.51645 0
M  V30 2047 C 191.131 -0.556488 -1.5097 0
M  V30 2048 O 192.323 -0.812879 -1.5723 0
M  V30 2049 C 189.452 -1.84143 -2.89735 0
M  V30 2050 C 188.538 -3.04572 -2.95122 0
M  V30 2051 N 188.929 -4.2756 -2.70233 0
M  V30 2052 C 187.227 -3.04061 -3.26286 0
M  V30 2053 C 187.928 -5.08908 -2.81757 0
M  V30 2054 N 186.904 -4.43797 -3.13919 0
M  V30 2055 H 190.706 -2.63004 -1.31172 0
M  V30 2056 H 188.22 -1.4954 -0.633375 0
M  V30 2057 H 190.217 -1.95525 -3.68206 0
M  V30 2058 H 188.877 -0.925857 -3.1122 0
M  V30 2059 H 189.888 -4.56315 -2.44943 0
M  V30 2060 H 186.565 -2.22179 -3.53473 0
M  V30 2061 H 187.955 -6.16843 -2.66372 0
M  V30 2062 N 190.675 0.682077 -1.42076 0
M  V30 2063 C 191.923 1.4393 -1.41876 0
M  V30 2064 C 192.244 1.94971 -0.0335599 0
M  V30 2065 O 191.514 1.72591 0.926773 0
M  V30 2066 H 190.094 0.534085 -0.522267 0
M  V30 2067 H 192.756 0.806427 -1.77434 0
M  V30 2068 H 191.852 2.29588 -2.11414 0
M  V30 2069 N 192.153 1.28127 0.917671 0
M  V30 2070 C 193.1 1.11717 2.0196 0
M  V30 2071 C 194.07 0.0153929 1.66093 0
M  V30 2072 O 195.255 0.179596 1.89953 0
M  V30 2073 C 192.395 0.780927 3.36148 0
M  V30 2074 C 191.508 1.96135 3.84909 0
M  V30 2075 C 190.643 1.56609 5.0759 0
M  V30 2076 C 189.682 2.71339 5.48673 0
M  V30 2077 N 188.819 2.32332 6.62545 0
M  V30 2078 H 193.659 2.06003 2.15329 0
M  V30 2079 H 191.196 1.02535 1.05475 0
M  V30 2080 H 193.154 0.56675 4.13333 0
M  V30 2081 H 191.784 -0.124998 3.22558 0
M  V30 2082 H 190.836 2.28777 3.03916 0
M  V30 2083 H 192.148 2.82165 4.1132 0
M  V30 2084 H 191.302 1.31374 5.92305 0
M  V30 2085 H 190.041 0.677014 4.82978 0
M  V30 2086 H 189.046 2.97276 4.62501 0
M  V30 2087 H 190.271 3.60882 5.75274 0
M  V30 2088 H 188.217 1.45889 6.39572 0
M  V30 2089 H 188.134 3.11899 6.88662 0
M  V30 2090 H 189.402 2.10371 7.50576 0
M  V30 2091 N 193.631 -1.12557 1.10312 0
M  V30 2092 C 194.877 -1.84311 0.846011 0
M  V30 2093 C 195.21 -1.83805 -0.626859 0
M  V30 2094 O 194.485 -1.28268 -1.46211 0
M  V30 2095 C 194.768 -3.32048 1.39341 0
M  V30 2096 C 194.621 -3.41016 2.93305 0
M  V30 2097 C 195.94 -4.27764 1.03468 0
M  V30 2098 H 193.059 -0.669192 0.30879 0
M  V30 2099 H 195.701 -1.32057 1.36605 0
M  V30 2100 H 193.851 -3.76678 0.951087 0
M  V30 2101 H 195.523 -3.05031 3.46055 0
M  V30 2102 H 193.766 -2.81603 3.29973 0
M  V30 2103 H 194.437 -4.44948 3.26689 0
M  V30 2104 H 196.913 -3.91253 1.41633 0
M  V30 2105 H 195.789 -5.29549 1.44463 0
M  V30 2106 H 196.05 -4.42064 -0.0560404 0
M  V30 2107 N 195.109 -0.891671 -1.2995 0
M  V30 2108 C 196.056 -0.361736 -2.27948 0
M  V30 2109 C 197.026 0.551761 -1.56668 0
M  V30 2110 O 198.211 0.478736 -1.84696 0
M  V30 2111 C 195.351 0.411825 -3.42634 0
M  V30 2112 C 194.464 -0.531651 -4.28716 0
M  V30 2113 C 193.599 0.258167 -5.30572 0
M  V30 2114 C 192.638 -0.680349 -6.08307 0
M  V30 2115 N 191.775 0.0745613 -7.0206 0
M  V30 2116 H 196.615 -1.20254 -2.72659 0
M  V30 2117 H 194.152 -0.604352 -1.34112 0
M  V30 2118 H 196.11 0.876304 -4.07893 0
M  V30 2119 H 194.74 1.21715 -2.98974 0
M  V30 2120 H 193.792 -1.11463 -3.63703 0
M  V30 2121 H 195.104 -1.25038 -4.82874 0
M  V30 2122 H 194.258 0.784204 -6.0161 0
M  V30 2123 H 192.997 1.01008 -4.77126 0
M  V30 2124 H 192.002 -1.21796 -5.3614 0
M  V30 2125 H 193.227 -1.43145 -6.63842 0
M  V30 2126 H 191.173 0.808883 -6.50994 0
M  V30 2127 H 191.09 -0.584409 -7.53738 0
M  V30 2128 H 192.358 0.581123 -7.77331 0
M  V30 2129 N 196.587 1.43421 -0.653314 0
M  V30 2130 C 197.497 2.34568 0.0388565 0
M  V30 2131 C 198.513 1.53888 0.81207 0
M  V30 2132 O 199.689 1.86539 0.759294 0
M  V30 2133 C 196.754 3.32167 0.993269 0
M  V30 2134 C 195.815 4.28751 0.216977 0
M  V30 2135 C 195.048 5.21688 1.12593 0
M  V30 2136 O 195.271 5.19052 2.36519 0
M  V30 2137 O 194.205 5.98919 0.598284 0
M  V30 2138 H 198.031 2.95251 -0.711386 0
M  V30 2139 H 195.616 1.43564 -0.413502 0
M  V30 2140 H 197.498 3.92183 1.54176 0
M  V30 2141 H 196.173 2.73987 1.72374 0
M  V30 2142 H 195.08 3.72215 -0.375101 0
M  V30 2143 H 196.413 4.89913 -0.473924 0
M  V30 2144 N 198.065 0.39524 1.52563 0
M  V30 2145 C 199.312 -0.185044 2.01653 0
M  V30 2146 C 199.64 -1.46317 1.28146 0
M  V30 2147 O 198.895 -1.9213 0.372074 0
M  V30 2148 C 199.194 -0.493444 3.53977 0
M  V30 2149 C 198.86 0.69384 4.4553 0
M  V30 2150 C 197.522 1.01954 4.70275 0
M  V30 2151 C 199.874 1.48785 4.99512 0
M  V30 2152 C 197.202 2.14069 5.46252 0
M  V30 2153 C 199.554 2.59965 5.76716 0
M  V30 2154 C 198.218 2.93037 5.99738 0
M  V30 2155 H 197.488 -0.0677123 0.7379 0
M  V30 2156 H 200.135 0.533807 1.8391 0
M  V30 2157 H 198.44 -1.29369 3.69825 0
M  V30 2158 H 200.137 -0.955163 3.89458 0
M  V30 2159 H 196.727 0.429987 4.26438 0
M  V30 2160 H 200.911 1.24946 4.80315 0
M  V30 2161 H 196.167 2.40056 5.62302 0
M  V30 2162 H 200.341 3.21887 6.17545 0
M  V30 2163 H 197.968 3.8003 6.58393 0
M  V30 2164 N 199.544 -1.57102 0.125237 0
M  V30 2165 C 200.774 -1.99472 -0.538015 0
M  V30 2166 C 201.182 -1.00395 -1.60366 0
M  V30 2167 O 200.525 0.0103875 -1.83697 0
M  V30 2168 C 200.587 -3.38262 -1.21734 0
M  V30 2169 C 200.251 -4.56021 -0.298897 0
M  V30 2170 C 201.248 -5.17817 0.464943 0
M  V30 2171 C 198.933 -5.01869 -0.208149 0
M  V30 2172 C 200.927 -6.23852 1.3072 0
M  V30 2173 C 198.614 -6.07763 0.637736 0
M  V30 2174 C 199.612 -6.68622 1.39403 0
M  V30 2175 O 199.3 -7.7247 2.22586 0
M  V30 2176 H 199.032 -0.659934 -0.146501 0
M  V30 2177 H 201.586 -2.04321 0.210267 0
M  V30 2178 H 199.816 -3.30185 -2.01282 0
M  V30 2179 H 201.505 -3.6488 -1.77813 0
M  V30 2180 H 202.271 -4.83308 0.404741 0
M  V30 2181 H 198.15 -4.54241 -0.786522 0
M  V30 2182 H 201.694 -6.71284 1.898 0
M  V30 2183 H 197.591 -6.41701 0.699309 0
M  V30 2184 H 198.359 -7.89595 2.15596 0
M  V30 2185 N 201.022 0.148545 -1.56898 0
M  V30 2186 C 202.247 0.880385 -1.87787 0
M  V30 2187 C 202.672 1.74018 -0.714093 0
M  V30 2188 O 202.03 1.78153 0.336343 0
M  V30 2189 C 202.078 1.71422 -3.17249 0
M  V30 2190 O 201.182 2.8183 -3.01074 0
M  V30 2191 H 200.523 0.245301 -0.617028 0
M  V30 2192 H 203.053 0.139826 -2.04122 0
M  V30 2193 H 203.063 2.10954 -3.49231 0
M  V30 2194 H 201.738 1.08284 -4.01556 0
M  V30 2195 H 200.315 2.45715 -2.80497 0
M  V30 2196 N 202.5 1.5196 0.417844 0
M  V30 2197 C 203.73 1.69181 1.18581 0
M  V30 2198 C 204.138 0.397104 1.84986 0
M  V30 2199 O 203.481 -0.636011 1.72339 0
M  V30 2200 C 203.543 2.76497 2.29759 0
M  V30 2201 C 203.207 4.18514 1.83563 0
M  V30 2202 C 204.204 5.02648 1.32821 0
M  V30 2203 C 201.889 4.64708 1.90661 0
M  V30 2204 C 203.883 6.31044 0.897894 0
M  V30 2205 C 201.57 5.93096 1.47241 0
M  V30 2206 C 202.568 6.76093 0.968891 0
M  V30 2207 O 202.256 8.02078 0.540924 0
M  V30 2208 H 201.988 0.570457 0.362705 0
M  V30 2209 H 204.542 1.99249 0.498885 0
M  V30 2210 H 202.772 2.41786 3.01789 0
M  V30 2211 H 204.461 2.82403 2.91553 0
M  V30 2212 H 205.227 4.68154 1.26716 0
M  V30 2213 H 201.106 4.00216 2.28797 0
M  V30 2214 H 204.65 6.95776 0.504192 0
M  V30 2215 H 200.547 6.271 1.53022 0
M  V30 2216 H 201.315 8.15794 0.66502 0
M  V30 2217 N 203.978 -0.674533 1.42435 0
M  V30 2218 C 204.91 -1.80005 1.41883 0
M  V30 2219 C 205.923 -1.59667 0.31787 0
M  V30 2220 O 207.112 -1.68781 0.580973 0
M  V30 2221 C 204.212 -3.17114 1.19549 0
M  V30 2222 C 203.385 -3.64299 2.42084 0
M  V30 2223 C 202.444 -4.80142 2.15291 0
M  V30 2224 O 201.47 -4.90673 2.88493 0
M  V30 2225 N 202.672 -5.68869 1.1562 0
M  V30 2226 H 205.437 -1.80964 2.38898 0
M  V30 2227 H 202.998 -0.857633 1.37318 0
M  V30 2228 H 204.99 -3.92267 0.995417 0
M  V30 2229 H 203.56 -3.11053 0.310569 0
M  V30 2230 H 202.78 -2.79822 2.77657 0
M  V30 2231 H 204.068 -3.92567 3.23679 0
M  V30 2232 H 203.466 -5.63012 0.550765 0
M  V30 2233 H 202.023 -6.43833 1.016 0
M  V30 2234 N 205.456 -1.28612 -0.910864 0
M  V30 2235 C 206.404 -1.1265 -2.03501 0
M  V30 2236 C 207.398 -0.0450054 -1.6934 0
M  V30 2237 O 208.604 -0.203988 -1.7884 0
M  V30 2238 H 204.979 -0.347639 -0.666822 0
M  V30 2239 H 206.95 -2.07849 -2.14106 0
M  V30 2240 C 205.699 -0.808143 -3.38178 0
M  V30 2241 H 205.022 -1.63231 -3.6496 0
M  V30 2242 H 206.462 -0.736426 -4.17556 0
M  V30 2243 C 204.921 0.488226 -3.33344 0
M  V30 2244 O 205.451 1.51766 -3.71927 0
M  V30 2245 N 203.657 0.490009 -2.86439 0
M  V30 2246 H 203.204 -0.348161 -2.55236 0
M  V30 2247 H 203.162 1.35741 -2.83587 0
M  V30 2248 N 206.934 1.1197 -1.10907 0
M  V30 2249 C 207.844 2.21433 -0.774896 0
M  V30 2250 C 208.86 1.72478 0.229657 0
M  V30 2251 O 210.036 2.01288 0.0672008 0
M  V30 2252 C 207.101 3.4602 -0.216986 0
M  V30 2253 C 206.162 4.09791 -1.27944 0
M  V30 2254 C 205.395 5.28431 -0.748055 0
M  V30 2255 O 205.618 5.68823 0.423833 0
M  V30 2256 O 204.552 5.82644 -1.51027 0
M  V30 2257 H 208.378 2.5242 -1.68873 0
M  V30 2258 H 205.963 1.20399 -0.884555 0
M  V30 2259 H 207.845 4.21304 0.090059 0
M  V30 2260 H 206.52 3.16698 0.669633 0
M  V30 2261 H 205.427 3.36265 -1.63941 0
M  V30 2262 H 206.76 4.4328 -2.13925 0
M  V30 2263 N 208.412 0.89855 1.29475 0
M  V30 2264 C 209.375 0.380272 2.26023 0
M  V30 2265 C 210.375 -0.484891 1.53315 0
M  V30 2266 O 211.565 -0.290108 1.71767 0
M  V30 2267 C 208.697 -0.45651 3.3783 0
M  V30 2268 H 209.89 1.23295 2.73383 0
M  V30 2269 H 207.443 0.676589 1.40897 0
M  V30 2270 H 208.178 -1.32922 2.95808 0
M  V30 2271 H 207.963 0.163393 3.91759 0
M  V30 2272 H 209.453 -0.810466 4.0966 0
M  V30 2273 N 209.89 -1.43072 0.660911 0
M  V30 2274 C 211.136 -2.0202 0.177708 0
M  V30 2275 C 211.469 -1.52066 -1.20787 0
M  V30 2276 O 210.744 -0.716987 -1.80802 0
M  V30 2277 C 211.027 -3.59561 0.197019 0
M  V30 2278 C 210.88 -4.19727 1.61706 0
M  V30 2279 C 212.199 -4.37664 -0.462396 0
M  V30 2280 H 209.318 -0.734034 0.0660494 0
M  V30 2281 H 211.96 -1.70272 0.843058 0
M  V30 2282 H 210.11 -3.86739 -0.369527 0
M  V30 2283 H 211.782 -4.03553 2.23479 0
M  V30 2284 H 210.025 -3.76084 2.16201 0
M  V30 2285 H 210.696 -5.28834 1.58237 0
M  V30 2286 H 213.172 -4.16095 0.0197215 0
M  V30 2287 H 212.048 -5.47305 -0.418188 0
M  V30 2288 H 212.309 -4.14493 -1.53778 0
M  V30 2289 N 211.368 -0.403325 -1.52352 0
M  V30 2290 C 212.331 0.413051 -2.25447 0
M  V30 2291 C 213.331 0.978513 -1.276 0
M  V30 2292 O 214.521 0.858305 -1.51587 0
M  V30 2293 C 211.653 1.58087 -3.02029 0
M  V30 2294 H 212.846 -0.227094 -2.99039 0
M  V30 2295 H 210.399 -0.155722 -1.55522 0
M  V30 2296 H 211.134 2.25804 -2.32772 0
M  V30 2297 H 210.919 1.18195 -3.73861 0
M  V30 2298 H 212.409 2.1585 -3.57489 0
M  V30 2299 N 212.846 1.57033 -0.133567 0
M  V30 2300 C 214.095 1.94861 0.520768 0
M  V30 2301 C 214.408 1.02012 1.66892 0
M  V30 2302 O 215.614 1.29365 2.38699 0
M  V30 2303 C 214.07 3.46362 0.977809 0
M  V30 2304 C 213.678 4.47773 -0.142674 0
M  V30 2305 C 215.422 3.93083 1.60269 0
M  V30 2306 C 213.329 5.90468 0.331883 0
M  V30 2307 H 212.259 0.727453 0.198315 0
M  V30 2308 H 214.91 1.82227 -0.215759 0
M  V30 2309 H 213.292 3.54282 1.7692 0
M  V30 2310 H 214.466 4.51536 -0.919317 0
M  V30 2311 H 212.781 4.10891 -0.675124 0
M  V30 2312 H 215.378 4.97121 1.96914 0
M  V30 2313 H 215.721 3.33876 2.48662 0
M  V30 2314 H 216.254 3.88025 0.876453 0
M  V30 2315 H 212.993 6.53463 -0.516341 0
M  V30 2316 H 212.513 5.90094 1.07469 0
M  V30 2317 H 214.192 6.42179 0.788332 0
M  V30 2318 N 214.325 -0.140222 1.56975 0
M  V30 2319 C 215.235 -1.19223 2.02047 0
M  V30 2320 C 216.251 -1.46612 0.937062 0
M  V30 2321 O 217.427 -1.58148 1.24704 0
M  V30 2322 C 214.492 -2.50414 2.39778 0
M  V30 2323 C 213.553 -2.30612 3.621 0
M  V30 2324 C 212.786 -3.55547 3.98023 0
M  V30 2325 O 213.009 -4.62004 3.34528 0
M  V30 2326 O 211.943 -3.47808 4.91237 0
M  V30 2327 H 215.769 -0.839559 2.91865 0
M  V30 2328 H 213.354 -0.349453 1.45256 0
M  V30 2329 H 215.236 -3.27747 2.64877 0
M  V30 2330 H 213.911 -2.85198 1.53114 0
M  V30 2331 H 212.818 -1.51207 3.4218 0
M  V30 2332 H 214.151 -2.00741 4.49404 0
M  V30 2333 N 215.803 -1.52179 -0.40978 0
M  V30 2334 C 216.751 -1.76086 -1.51975 0
M  V30 2335 C 217.745 -0.627964 -1.57331 0
M  V30 2336 O 218.951 -0.809993 -1.60745 0
M  V30 2337 H 215.326 -0.556829 -0.505416 0
M  V30 2338 H 217.297 -2.69077 -1.28996 0
M  V30 2339 C 216.046 -1.92799 -2.8935 0
M  V30 2340 H 215.369 -2.79392 -2.85972 0
M  V30 2341 H 216.809 -2.13527 -3.66309 0
M  V30 2342 C 215.268 -0.694923 -3.29655 0
M  V30 2343 O 215.798 0.13751 -4.01465 0
M  V30 2344 N 214.004 -0.53101 -2.85707 0
M  V30 2345 H 213.551 -1.20952 -2.27439 0
M  V30 2346 H 213.509 0.292718 -3.13034 0
M  V30 2347 N 217.281 0.66697 -1.42791 0
M  V30 2348 C 218.53 1.42278 -1.42968 0
M  V30 2349 C 218.843 1.9553 -0.0524489 0
M  V30 2350 O 220.049 2.71414 0.068363 0
M  V30 2351 C 218.505 2.57418 -2.51524 0
M  V30 2352 C 218.113 2.10832 -3.9529 0
M  V30 2353 C 219.857 3.34878 -2.60877 0
M  V30 2354 C 217.764 3.23101 -4.95338 0
M  V30 2355 H 216.694 0.534533 -0.531781 0
M  V30 2356 H 219.345 0.721302 -1.68729 0
M  V30 2357 H 217.727 3.29971 -2.18941 0
M  V30 2358 H 218.901 1.4538 -4.37266 0
M  V30 2359 H 217.216 1.46289 -3.89857 0
M  V30 2360 H 219.813 4.18505 -3.32802 0
M  V30 2361 H 220.156 3.81993 -1.6549 0
M  V30 2362 H 220.689 2.69398 -2.92693 0
M  V30 2363 H 217.428 2.80969 -5.9223 0
M  V30 2364 H 216.948 3.87309 -4.57987 0
M  V30 2365 H 218.627 3.88447 -5.17415 0
M  V30 2366 N 218.759 1.29093 0.90403 0
M  V30 2367 C 219.706 1.13853 2.00764 0
M  V30 2368 C 220.676 0.0330084 1.66067 0
M  V30 2369 O 221.861 0.199733 1.89752 0
M  V30 2370 C 219.001 0.816537 3.35301 0
M  V30 2371 C 218.114 2.00206 3.82807 0
M  V30 2372 C 217.249 1.61983 5.059 0
M  V30 2373 C 216.288 2.77143 5.45764 0
M  V30 2374 N 215.425 2.39346 6.60044 0
M  V30 2375 H 220.265 2.08276 2.13132 0
M  V30 2376 H 217.802 1.03648 1.04381 0
M  V30 2377 H 219.76 0.610557 4.12708 0
M  V30 2378 H 218.39 -0.090779 3.22672 0
M  V30 2379 H 217.442 2.31988 3.01473 0
M  V30 2380 H 218.754 2.86512 4.08304 0
M  V30 2381 H 217.908 1.37649 5.90879 0
M  V30 2382 H 216.647 0.728202 4.82233 0
M  V30 2383 H 215.652 3.02165 4.59322 0
M  V30 2384 H 216.877 3.66964 5.71414 0
M  V30 2385 H 214.823 1.52665 6.37989 0
M  V30 2386 H 214.74 3.19185 6.85315 0
M  V30 2387 H 216.008 2.1832 7.48303 0
M  V30 2388 N 220.237 -1.11381 1.11499 0
M  V30 2389 C 221.653 -1.35143 0.849031 0
M  V30 2390 C 221.853 -1.94515 -0.525938 0
M  V30 2391 O 220.909 -2.1785 -1.27662 0
M  V30 2392 C 222.222 -2.28249 1.95762 0
M  V30 2393 C 223.77 -2.41812 1.98736 0
M  V30 2394 C 224.245 -3.3824 3.088 0
M  V30 2395 N 225.736 -3.45803 3.08179 0
M  V30 2396 C 226.471 -4.20358 3.89982 0
M  V30 2397 N 225.967 -4.97884 4.8175 0
M  V30 2398 N 227.76 -4.15877 3.78157 0
M  V30 2399 H 219.911 -0.712062 2.00109 0
M  V30 2400 H 222.174 -0.376025 0.870235 0
M  V30 2401 H 221.88 -1.91817 2.94787 0
M  V30 2402 H 221.754 -3.28473 1.85433 0
M  V30 2403 H 224.141 -2.77518 1.00338 0
M  V30 2404 H 224.222 -1.41437 2.13141 0
M  V30 2405 H 223.866 -3.03261 4.07425 0
M  V30 2406 H 223.796 -4.38471 2.91635 0
M  V30 2407 H 226.287 -2.90506 2.41691 0
M  V30 2408 H 226.6 -5.52142 5.40702 0
M  V30 2409 H 224.945 -4.97043 4.85771 0
M  V30 2410 H 228.136 -3.544 3.05808 0
M  V30 2411 H 228.309 -4.73723 4.42143 0
M  V30 2412 N 221.715 -0.905404 -1.28997 0
M  V30 2413 C 222.963 -0.533192 -1.9494 0
M  V30 2414 C 223.284 0.924618 -1.71685 0
M  V30 2415 O 222.554 1.65268 -1.05183 0
M  V30 2416 H 221.134 -0.194194 -0.721317 0
M  V30 2417 H 223.796 -1.15294 -1.57141 0
M  V30 2418 H 222.892 -0.72059 -3.03667 0
M  V30 2419 N 223.193 1.4272 -0.668489 0
M  V30 2420 C 224.123 2.335 -0.000100175 0
M  V30 2421 C 225.104 1.50328 0.795964 0
M  V30 2422 O 226.289 1.78949 0.754385 0
M  V30 2423 C 223.419 3.33874 0.956302 0
M  V30 2424 C 222.373 4.27152 0.269278 0
M  V30 2425 C 221.699 5.17684 1.33818 0
M  V30 2426 C 222.999 5.15373 -0.847805 0
M  V30 2427 H 224.693 2.89639 -0.758244 0
M  V30 2428 H 222.239 1.39269 -0.366079 0
M  V30 2429 H 224.192 3.9629 1.43292 0
M  V30 2430 H 222.916 2.76025 1.74579 0
M  V30 2431 H 221.575 3.66123 -0.187042 0
M  V30 2432 H 221.223 4.56165 2.1195 0
M  V30 2433 H 220.923 5.80918 0.883659 0
M  V30 2434 H 222.447 5.82974 1.81586 0
M  V30 2435 H 223.861 5.7151 -0.452681 0
M  V30 2436 H 222.258 5.87407 -1.22773 0
M  V30 2437 H 223.328 4.5415 -1.69929 0
M  V30 2438 N 224.671 0.411399 1.52136 0
M  V30 2439 C 225.634 -0.401089 2.25663 0
M  V30 2440 C 226.634 -0.971732 1.28117 0
M  V30 2441 O 227.824 -0.850254 1.52041 0
M  V30 2442 C 224.956 -1.56483 3.02863 0
M  V30 2443 H 226.149 0.24295 2.98914 0
M  V30 2444 H 223.702 0.163968 1.55438 0
M  V30 2445 H 224.437 -2.24567 2.33967 0
M  V30 2446 H 224.222 -1.16211 3.74483 0
M  V30 2447 H 225.712 -2.13951 3.58629 0
M  V30 2448 N 226.149 -1.5696 0.141893 0
M  V30 2449 C 227.374 -2.00754 -0.520838 0
M  V30 2450 C 227.799 -1.0213 -1.57959 0
M  V30 2451 O 227.157 0.00371324 -1.813 0
M  V30 2452 C 227.205 -3.43318 -1.10294 0
M  V30 2453 O 226.309 -3.47679 -2.21795 0
M  V30 2454 H 225.65 -0.651564 -0.127908 0
M  V30 2455 H 228.18 -2.03221 0.23712 0
M  V30 2456 H 228.19 -3.82012 -1.43287 0
M  V30 2457 H 226.865 -4.14608 -0.327574 0
M  V30 2458 H 225.442 -3.20824 -1.9007 0
M  V30 2459 N 227.627 0.131896 -1.57047 0
M  V30 2460 C 228.557 1.16384 -2.02428 0
M  V30 2461 C 229.538 1.43936 -0.90644 0
M  V30 2462 O 230.723 1.54599 -1.17528 0
M  V30 2463 C 227.853 2.49328 -2.4177 0
M  V30 2464 C 226.807 2.36266 -3.56879 0
M  V30 2465 C 226.133 3.74057 -3.8208 0
M  V30 2466 C 227.433 1.834 -4.89042 0
M  V30 2467 H 229.127 0.786433 -2.88887 0
M  V30 2468 H 226.673 0.376855 -1.38981 0
M  V30 2469 H 228.626 3.21759 -2.7212 0
M  V30 2470 H 227.35 2.88934 -1.52266 0
M  V30 2471 H 226.009 1.66286 -3.26718 0
M  V30 2472 H 225.657 4.11125 -2.89803 0
M  V30 2473 H 225.357 3.66174 -4.59554 0
M  V30 2474 H 226.881 4.48012 -4.1487 0
M  V30 2475 H 228.295 2.45636 -5.18011 0
M  V30 2476 H 226.692 1.8637 -5.70426 0
M  V30 2477 H 227.762 0.790662 -4.7841 0
M  V30 2478 N 229.106 1.52395 0.401703 0
M  V30 2479 C 230.353 1.66817 1.14796 0
M  V30 2480 C 230.681 0.401772 1.90305 0
M  V30 2481 O 229.936 -0.615487 1.85769 0
M  V30 2482 C 230.235 2.84578 2.16217 0
M  V30 2483 C 229.901 4.22513 1.5746 0
M  V30 2484 C 228.563 4.60029 1.41161 0
M  V30 2485 C 230.915 5.0844 1.14622 0
M  V30 2486 C 228.243 5.81144 0.80552 0
M  V30 2487 C 230.595 6.30167 0.55428 0
M  V30 2488 C 229.259 6.66426 0.378482 0
M  V30 2489 H 228.529 0.610428 0.420069 0
M  V30 2490 H 231.176 1.86512 0.434212 0
M  V30 2491 H 229.481 2.59248 2.93764 0
M  V30 2492 H 231.178 2.92933 2.73845 0
M  V30 2493 H 227.768 3.92953 1.71132 0
M  V30 2494 H 231.952 4.80034 1.26021 0
M  V30 2495 H 227.208 6.07855 0.657399 0
M  V30 2496 H 231.382 6.96071 0.213983 0
M  V30 2497 H 229.009 7.60143 -0.0932606 0
M  V30 2498 N 230.584 -0.659388 1.43143 0
M  V30 2499 C 231.516 -1.7849 1.43784 0
M  V30 2500 C 232.529 -1.5932 0.334787 0
M  V30 2501 O 233.718 -1.68155 0.598842 0
M  V30 2502 C 230.818 -3.15828 1.22906 0
M  V30 2503 C 229.991 -3.61711 2.45934 0
M  V30 2504 C 229.05 -4.77831 2.20371 0
M  V30 2505 O 228.076 -4.87586 2.93681 0
M  V30 2506 N 229.278 -5.67611 1.21647 0
M  V30 2507 H 232.043 -1.7842 2.40803 0
M  V30 2508 H 229.604 -0.84302 1.3822 0
M  V30 2509 H 231.596 -3.91189 1.03697 0
M  V30 2510 H 230.166 -3.10707 0.343542 0
M  V30 2511 H 229.386 -2.76861 2.80609 0
M  V30 2512 H 230.674 -3.89112 3.27825 0
M  V30 2513 H 230.072 -5.62397 0.610449 0
M  V30 2514 H 228.629 -6.42719 1.08423 0
M  V30 2515 N 232.062 -1.29571 -0.897171 0
M  V30 2516 C 233.29 -1.20583 -1.68129 0
M  V30 2517 C 233.705 0.233181 -1.87354 0
M  V30 2518 O 233.062 1.15579 -1.41236 0
M  V30 2519 C 233.113 -1.91772 -3.06441 0
M  V30 2520 O 232.834 -3.30053 -2.88091 0
M  V30 2521 C 234.335 -1.89291 -4.00854 0
M  V30 2522 H 231.555 -0.417826 -0.525036 0
M  V30 2523 H 234.099 -1.70987 -1.12177 0
M  V30 2524 H 232.254 -1.45196 -3.59161 0
M  V30 2525 H 232.668 -3.65942 -3.75748 0
M  V30 2526 H 234.142 -2.43662 -4.95311 0
M  V30 2527 H 234.619 -0.869014 -4.30517 0
M  V30 2528 H 235.225 -2.35622 -3.54066 0
M  V30 2529 N 233.54 1.10788 -1.12088 0
M  V30 2530 C 234.472 2.16816 -0.743213 0
M  V30 2531 C 235.485 1.6119 0.228412 0
M  V30 2532 O 236.674 1.78497 0.0102931 0
M  V30 2533 C 233.774 3.38809 -0.0787313 0
M  V30 2534 C 232.947 4.23885 -1.0789 0
M  V30 2535 C 232.006 5.24334 -0.442713 0
M  V30 2536 O 231.032 5.58497 -1.09864 0
M  V30 2537 N 232.234 5.75079 0.791457 0
M  V30 2538 H 234.999 2.49825 -1.65552 0
M  V30 2539 H 232.56 1.26373 -1.012 0
M  V30 2540 H 234.552 4.03107 0.358766 0
M  V30 2541 H 233.122 3.03805 0.736275 0
M  V30 2542 H 232.342 3.55939 -1.69414 0
M  V30 2543 H 233.63 4.77562 -1.75533 0
M  V30 2544 H 233.028 5.49517 1.3434 0
M  V30 2545 H 231.585 6.4118 1.17183 0
M  V30 2546 N 235.018 0.912232 1.28515 0
M  V30 2547 C 235.948 0.416403 2.29757 0
M  V30 2548 C 236.929 -0.515194 1.6211 0
M  V30 2549 O 238.114 -0.423253 1.89532 0
M  V30 2550 C 235.244 -0.34572 3.45575 0
M  V30 2551 C 234.198 0.496599 4.25109 0
M  V30 2552 C 233.524 -0.393771 5.33248 0
M  V30 2553 C 234.824 1.75307 4.92001 0
M  V30 2554 H 236.518 1.26249 2.7148 0
M  V30 2555 H 234.064 0.608515 1.30511 0
M  V30 2556 H 236.017 -0.703422 4.15488 0
M  V30 2557 H 234.741 -1.2257 3.02728 0
M  V30 2558 H 233.4 0.8368 3.56922 0
M  V30 2559 H 233.048 -1.27225 4.86644 0
M  V30 2560 H 232.748 0.166209 5.87365 0
M  V30 2561 H 234.272 -0.747389 6.06009 0
M  V30 2562 H 235.686 1.46437 5.54283 0
M  V30 2563 H 234.083 2.25534 5.56106 0
M  V30 2564 H 235.153 2.48176 4.16577 0
M  V30 2565 N 236.496 -1.42363 0.676048 0
M  V30 2566 C 237.721 -2.06377 0.205705 0
M  V30 2567 C 238.146 -1.50463 -1.12883 0
M  V30 2568 O 237.504 -0.623619 -1.70237 0
M  V30 2569 C 237.552 -3.60277 0.152655 0
M  V30 2570 O 236.656 -4.02935 -0.87845 0
M  V30 2571 H 235.997 -0.655588 0.105359 0
M  V30 2572 H 238.527 -1.82475 0.925412 0
M  V30 2573 H 238.537 -4.07993 -0.0230675 0
M  V30 2574 H 237.212 -4.00346 1.12675 0
M  V30 2575 H 235.789 -3.66764 -0.673668 0
M  V30 2576 N 237.974 -0.419461 -1.51915 0
M  V30 2577 C 239.199 0.154572 -2.06823 0
M  V30 2578 C 239.624 1.3722 -1.28656 0
M  V30 2579 O 238.982 1.78461 -0.319583 0
M  V30 2580 C 239.03 0.473172 -3.57482 0
M  V30 2581 O 238.134 1.56255 -3.81652 0
M  V30 2582 H 237.475 0.0096924 -0.663929 0
M  V30 2583 H 240.005 -0.595642 -1.95738 0
M  V30 2584 H 240.015 0.728825 -4.01438 0
M  V30 2585 H 238.69 -0.416873 -4.13805 0
M  V30 2586 H 237.267 1.29825 -3.49571 0
M  V30 2587 N 239.452 1.56882 -0.150215 0
M  V30 2588 C 240.7 1.9584 0.499105 0
M  V30 2589 C 241.021 1.03623 1.65188 0
M  V30 2590 O 240.291 0.0984084 1.95653 0
M  V30 2591 H 238.871 0.723119 0.187373 0
M  V30 2592 H 241.533 1.9358 -0.226466 0
M  V30 2593 H 240.629 2.99638 0.873122 0
M  V30 2594 N 240.93 -0.123565 1.57115 0
M  V30 2595 C 242.158 -0.846461 1.88793 0
M  V30 2596 C 242.573 -1.73652 0.740976 0
M  V30 2597 O 241.93 -1.80207 -0.288393 0
M  V30 2598 C 241.981 -1.6837 3.19897 0
M  V30 2599 O 241.702 -0.829477 4.30176 0
M  V30 2600 C 243.203 -2.51214 3.65248 0
M  V30 2601 H 240.423 -0.243573 0.625231 0
M  V30 2602 H 242.967 -0.109324 2.04208 0
M  V30 2603 H 241.122 -2.37364 3.06165 0
M  V30 2604 H 241.536 -1.40651 5.0529 0
M  V30 2605 H 243.01 -3.05497 4.59756 0
M  V30 2606 H 243.487 -3.28359 2.9168 0
M  V30 2607 H 244.093 -1.8747 3.81752 0
M  V30 2608 N 242.408 -1.52605 -0.393616 0
M  V30 2609 C 243.636 -1.71294 -1.16043 0
M  V30 2610 C 244.051 -0.429259 -1.83855 0
M  V30 2611 O 243.408 0.595921 -1.72496 0
M  V30 2612 C 243.459 -2.8593 -2.21193 0
M  V30 2613 O 243.18 -4.09329 -1.56146 0
M  V30 2614 C 244.681 -3.16259 -3.10636 0
M  V30 2615 H 241.901 -0.573641 -0.348104 0
M  V30 2616 H 244.445 -1.99234 -0.461092 0
M  V30 2617 H 242.6 -2.60465 -2.86769 0
M  V30 2618 H 243.014 -4.73323 -2.25978 0
M  V30 2619 H 244.488 -3.99946 -3.80456 0
M  V30 2620 H 244.965 -2.3045 -3.73884 0
M  V30 2621 H 245.571 -3.43547 -2.50711 0
M  V30 2622 N 243.887 0.651787 -1.4349 0
M  V30 2623 C 244.835 1.78586 -1.49029 0
M  V30 2624 C 245.829 1.65448 -0.363767 0
M  V30 2625 O 247.035 1.71777 -0.537821 0
M  V30 2626 H 243.41 0.589236 -0.467231 0
M  V30 2627 H 245.381 1.71035 -2.44519 0
M  V30 2628 C 244.13 3.16851 -1.43181 0
M  V30 2629 H 243.453 3.27598 -2.29171 0
M  V30 2630 H 244.893 3.96156 -1.51118 0
M  V30 2631 C 243.352 3.36568 -0.149616 0
M  V30 2632 O 243.882 3.93885 0.788509 0
M  V30 2633 N 242.088 2.90539 -0.0593484 0
M  V30 2634 H 241.635 2.4408 -0.823575 0
M  V30 2635 H 241.593 3.04108 0.797853 0
M  V30 2636 N 245.365 1.30045 0.890287 0
M  V30 2637 C 246.275 1.17885 2.02831 0
M  V30 2638 C 247.291 0.0999609 1.73713 0
M  V30 2639 O 248.467 0.313867 1.98939 0
M  V30 2640 C 245.532 0.866079 3.35708 0
M  V30 2641 C 244.593 2.02979 3.78283 0
M  V30 2642 C 243.826 1.73184 5.0482 0
M  V30 2643 O 244.049 0.657237 5.66601 0
M  V30 2644 O 242.983 2.58267 5.43674 0
M  V30 2645 H 246.809 2.13474 2.16015 0
M  V30 2646 H 244.394 1.09587 1.01543 0
M  V30 2647 H 246.276 0.706623 4.15433 0
M  V30 2648 H 244.951 -0.0599443 3.23644 0
M  V30 2649 H 243.858 2.24454 2.99285 0
M  V30 2650 H 245.191 2.93734 3.94944 0
M  V30 2651 N 246.843 -1.10192 1.12674 0
M  V30 2652 C 248.089 -1.82475 0.884915 0
M  V30 2653 C 248.422 -1.85093 -0.58773 0
M  V30 2654 O 247.697 -1.3134 -1.43457 0
M  V30 2655 C 247.98 -3.29018 1.46353 0
M  V30 2656 C 247.833 -3.34718 3.00473 0
M  V30 2657 C 249.152 -4.25473 1.12519 0
M  V30 2658 H 246.271 -0.662492 0.322915 0
M  V30 2659 H 248.913 -1.2913 1.39375 0
M  V30 2660 H 247.063 -3.74576 1.03077 0
M  V30 2661 H 248.735 -2.97622 3.52447 0
M  V30 2662 H 246.978 -2.74541 3.35872 0
M  V30 2663 H 247.649 -4.37918 3.36053 0
M  V30 2664 H 250.125 -3.88161 1.499 0
M  V30 2665 H 249.001 -5.26365 1.55663 0
M  V30 2666 H 249.262 -4.42084 0.0377407 0
M  V30 2667 N 248.321 -0.919034 -1.28029 0
M  V30 2668 C 249.598 -0.473668 -1.89778 0
M  V30 2669 C 249.978 1.04783 -1.83259 0
M  V30 2670 O 249.326 1.8982 -1.27202 0
M  V30 2671 C 249.536 -1.00998 -3.34066 0
M  V30 2672 C 250.884 -1.06525 -4.1102 0
M  V30 2673 O 251.908 -0.958996 -3.43048 0
M  V30 2674 O 250.767 -1.22776 -5.3253 0
M  V30 2675 H 247.861 -0.15098 -0.813101 0
M  V30 2676 H 250.407 -1.01016 -1.36359 0
M  V30 2677 H 249.179 -2.05392 -3.33061 0
M  V30 2678 H 248.802 -0.454626 -3.94992 0
M  V30 2679 N 249.799 1.42003 -0.683588 0
M  V30 2680 C 251.048 2.00638 -0.206681 0
M  V30 2681 C 251.361 1.5472 1.19671 0
M  V30 2682 O 252.567 2.05833 1.77045 0
M  V30 2683 C 251.023 3.58487 -0.318632 0
M  V30 2684 C 250.631 4.1339 -1.72663 0
M  V30 2685 C 252.375 4.24384 0.0991141 0
M  V30 2686 C 250.282 5.63633 -1.79087 0
M  V30 2687 H 249.212 0.750408 -0.0735107 0
M  V30 2688 H 251.863 1.62624 -0.850048 0
M  V30 2689 H 250.245 3.94047 0.392781 0
M  V30 2690 H 251.419 3.89273 -2.46583 0
M  V30 2691 H 249.734 3.59976 -2.09299 0
M  V30 2692 H 252.331 5.34652 0.0713833 0
M  V30 2693 H 252.674 4.00505 1.13586 0
M  V30 2694 H 253.207 3.93816 -0.561599 0
M  V30 2695 H 249.946 5.92323 -2.80774 0
M  V30 2696 H 249.466 5.89714 -1.09535 0
M  V30 2697 H 251.145 6.28201 -1.5483 0
M  V30 2698 N 251.277 0.427512 1.51691 0
M  V30 2699 C 252.502 -0.143601 2.06902 0
M  V30 2700 C 252.927 -1.36536 1.29382 0
M  V30 2701 O 252.285 -1.78289 0.329043 0
M  V30 2702 C 252.333 -0.454207 3.57728 0
M  V30 2703 O 251.437 -1.54228 3.82475 0
M  V30 2704 H 250.778 -0.00617128 0.663971 0
M  V30 2705 H 253.308 0.606014 1.95419 0
M  V30 2706 H 253.318 -0.707525 4.01818 0
M  V30 2707 H 251.993 0.438812 4.13579 0
M  V30 2708 H 250.57 -1.2797 3.50254 0
M  V30 2709 N 252.755 -1.56801 0.158532 0
M  V30 2710 C 254.003 -1.96102 -0.488712 0
M  V30 2711 C 254.324 -1.04498 -1.64636 0
M  V30 2712 O 253.594 -0.108783 -1.95598 0
M  V30 2713 H 252.174 -0.724102 -0.183535 0
M  V30 2714 H 254.836 -1.93457 0.236728 0
M  V30 2715 H 253.932 -3.00097 -0.857219 0
M  V30 2716 N 254.233 0.115231 -1.57178 0
M  V30 2717 C 255.181 1.16014 -2.01602 0
M  V30 2718 C 256.175 1.42653 -0.913587 0
M  V30 2719 O 257.381 1.42571 -1.09879 0
M  V30 2720 H 253.756 0.391252 -0.642204 0
M  V30 2721 H 255.727 0.758998 -2.88586 0
M  V30 2722 C 254.476 2.47767 -2.4394 0
M  V30 2723 H 253.799 2.28108 -3.28339 0
M  V30 2724 H 255.239 3.19432 -2.78818 0
M  V30 2725 C 253.698 3.10617 -1.30455 0
M  V30 2726 O 254.228 3.96846 -0.622585 0
M  V30 2727 N 252.434 2.70553 -1.06064 0
M  V30 2728 H 251.981 2.00527 -1.61699 0
M  V30 2729 H 251.939 3.12934 -0.303284 0
M  V30 2730 N 255.711 1.52812 0.385517 0
M  V30 2731 C 256.951 1.69716 1.13911 0
M  V30 2732 C 257.315 0.42962 1.87132 0
M  V30 2733 O 258.516 0.475071 2.64569 0
M  V30 2734 C 256.787 2.90021 2.0886 0
M  V30 2735 S 258.346 3.27531 2.92009 0
M  V30 2736 H 255.164 0.59739 0.385547 0
M  V30 2737 H 257.766 1.90868 0.423061 0
M  V30 2738 H 256.47 3.80493 1.53797 0
M  V30 2739 H 256.001 2.71213 2.84969 0
M  V30 2740 H 258.016 2.77989 4.11019 0
M  V30 2741 N 257.189 -0.644168 1.43834 0
M  V30 2742 C 258.136 -1.75671 1.49694 0
M  V30 2743 C 259.106 -1.6246 0.345809 0
M  V30 2744 O 260.291 -1.82573 0.554234 0
M  V30 2745 C 257.431 -3.13867 1.43463 0
M  V30 2746 C 256.544 -3.38147 2.6885 0
M  V30 2747 C 255.679 -4.66241 2.54544 0
M  V30 2748 C 254.718 -4.83657 3.75157 0
M  V30 2749 N 253.855 -6.03016 3.59605 0
M  V30 2750 H 258.695 -1.69998 2.44754 0
M  V30 2751 H 256.232 -0.829458 1.21484 0
M  V30 2752 H 258.19 -3.9377 1.37843 0
M  V30 2753 H 256.82 -3.18588 0.519783 0
M  V30 2754 H 255.872 -2.52276 2.84712 0
M  V30 2755 H 257.184 -3.46899 3.58417 0
M  V30 2756 H 256.338 -5.54285 2.46683 0
M  V30 2757 H 255.077 -4.59826 1.62516 0
M  V30 2758 H 254.082 -3.94046 3.83416 0
M  V30 2759 H 255.307 -4.91896 4.68204 0
M  V30 2760 H 253.253 -5.97715 2.7032 0
M  V30 2761 H 253.17 -6.12766 4.42779 0
M  V30 2762 H 254.438 -6.93657 3.55613 0
M  V30 2763 N 258.668 -1.30515 -0.883378 0
M  V30 2764 C 259.914 -1.19607 -1.63774 0
M  V30 2765 C 260.247 0.248314 -1.92606 0
M  V30 2766 O 259.522 1.17742 -1.54813 0
M  V30 2767 C 259.805 -2.02669 -2.97653 0
M  V30 2768 C 259.658 -3.55335 -2.75784 0
M  V30 2769 C 260.977 -1.86573 -3.98596 0
M  V30 2770 H 258.096 -0.435856 -0.594305 0
M  V30 2771 H 260.738 -1.60165 -1.02212 0
M  V30 2772 H 258.888 -1.68208 -3.50197 0
M  V30 2773 H 260.56 -3.99863 -2.30016 0
M  V30 2774 H 258.803 -3.79438 -2.1026 0
M  V30 2775 H 259.474 -4.08745 -3.70988 0
M  V30 2776 H 261.95 -2.16703 -3.55217 0
M  V30 2777 H 260.826 -2.47014 -4.90179 0
M  V30 2778 H 261.087 -0.825321 -4.34328 0
M  V30 2779 N 260.146 1.09593 -1.13257 0
M  V30 2780 C 261.374 1.855 -0.916378 0
M  V30 2781 C 261.789 1.81069 0.534738 0
M  V30 2782 O 261.146 1.20562 1.37007 0
M  V30 2783 C 261.197 3.33546 -1.39388 0
M  V30 2784 O 260.918 3.37927 -2.78813 0
M  V30 2785 C 262.419 4.26299 -1.21588 0
M  V30 2786 H 259.639 0.585991 -0.326887 0
M  V30 2787 H 262.183 1.38488 -1.5047 0
M  V30 2788 H 260.338 3.77992 -0.848597 0
M  V30 2789 H 260.752 4.30254 -2.9997 0
M  V30 2790 H 262.226 5.28341 -1.59876 0
M  V30 2791 H 262.703 4.38918 -0.157376 0
M  V30 2792 H 263.309 3.87668 -1.7491 0
M  V30 2793 N 261.624 0.925811 1.2754 0
M  V30 2794 C 262.854 0.580666 1.98272 0
M  V30 2795 C 263.262 -0.845207 1.69272 0
M  V30 2796 O 262.605 -1.57306 0.948707 0
M  V30 2797 C 262.667 0.724418 3.52126 0
M  V30 2798 C 262.331 2.12206 4.04744 0
M  V30 2799 C 263.328 3.09604 4.17662 0
M  V30 2800 C 261.013 2.4385 4.39138 0
M  V30 2801 C 263.007 4.36755 4.64246 0
M  V30 2802 C 260.694 3.71237 4.85414 0
M  V30 2803 C 261.692 4.67503 4.97926 0
M  V30 2804 O 261.38 5.92624 5.43187 0
M  V30 2805 H 261.112 0.218987 0.639547 0
M  V30 2806 H 263.666 1.24452 1.63404 0
M  V30 2807 H 261.896 0.0034663 3.867 0
M  V30 2808 H 263.585 0.384607 4.04074 0
M  V30 2809 H 264.351 2.86478 3.91351 0
M  V30 2810 H 260.23 1.69665 4.28643 0
M  V30 2811 H 263.774 5.11898 4.73927 0
M  V30 2812 H 259.671 3.94182 5.11166 0
M  V30 2813 H 260.439 5.95585 5.61445 0
M  V30 2814 N 263.102 -1.41638 0.69111 0
M  V30 2815 C 264.034 -2.29194 -0.0161523 0
M  V30 2816 C 265.047 -1.44549 -0.748955 0
M  V30 2817 O 266.236 -1.681 -0.6004 0
M  V30 2818 C 263.336 -3.22325 -1.0469 0
M  V30 2819 C 262.509 -4.35706 -0.384621 0
M  V30 2820 C 261.568 -5.09443 -1.31737 0
M  V30 2821 O 260.594 -5.63386 -0.811451 0
M  V30 2822 N 261.796 -5.16487 -2.64993 0
M  V30 2823 H 264.561 -2.90534 0.735523 0
M  V30 2824 H 262.122 -1.52742 0.53679 0
M  V30 2825 H 264.114 -3.68522 -1.67252 0
M  V30 2826 H 262.684 -2.62323 -1.70015 0
M  V30 2827 H 261.904 -3.91948 0.420804 0
M  V30 2828 H 263.192 -5.08743 0.0760765 0
M  V30 2829 H 262.59 -4.741 -3.08619 0
M  V30 2830 H 261.147 -5.66276 -3.22761 0
M  V30 2831 N 264.58 -0.43555 -1.51462 0
M  V30 2832 C 265.543 0.365137 -2.26273 0
M  V30 2833 C 266.543 0.951227 -1.29647 0
M  V30 2834 O 267.733 0.825958 -1.53374 0
M  V30 2835 C 264.865 1.51645 -3.05314 0
M  V30 2836 H 266.058 -0.290474 -2.9849 0
M  V30 2837 H 263.611 -0.188676 -1.55157 0
M  V30 2838 H 264.346 2.20816 -2.3751 0
M  V30 2839 H 264.131 1.10238 -3.76284 0
M  V30 2840 H 265.621 2.08218 -3.61987 0
M  V30 2841 N 266.058 1.56714 -0.166846 0
M  V30 2842 C 267.008 2.14338 0.777382 0
M  V30 2843 C 267.992 1.07642 1.19591 0
M  V30 2844 O 269.184 1.33775 1.15902 0
M  V30 2845 C 266.313 2.78417 2.00846 0
M  V30 2846 C 265.399 3.92264 1.61212 0
M  V30 2847 N 265.79 4.97268 0.925104 0
M  V30 2848 C 264.088 4.03342 1.90346 0
M  V30 2849 C 264.789 5.77093 0.730627 0
M  V30 2850 N 263.765 5.2854 1.27067 0
M  V30 2851 H 267.567 2.9289 0.243466 0
M  V30 2852 H 265.081 1.62364 0.0339954 0
M  V30 2853 H 267.078 3.18073 2.69509 0
M  V30 2854 H 265.738 2.01344 2.54736 0
M  V30 2855 H 266.749 5.14601 0.583646 0
M  V30 2856 H 263.426 3.37368 2.45946 0
M  V30 2857 H 264.816 6.71638 0.187668 0
M  V30 2858 N 267.536 -0.106894 1.57237 0
M  V30 2859 C 268.468 -1.15646 1.97885 0
M  V30 2860 C 269.481 -1.36981 0.879779 0
M  V30 2861 O 270.67 -1.35841 1.15799 0
M  V30 2862 C 267.77 -2.51425 2.27241 0
M  V30 2863 C 266.943 -2.50529 3.58545 0
M  V30 2864 C 266.002 -3.68145 3.75973 0
M  V30 2865 O 265.028 -3.51176 4.47956 0
M  V30 2866 N 266.23 -4.87177 3.15656 0
M  V30 2867 H 268.995 -0.81059 2.8853 0
M  V30 2868 H 266.556 -0.296024 1.59171 0
M  V30 2869 H 268.548 -3.28689 2.36105 0
M  V30 2870 H 267.118 -2.78147 1.42663 0
M  V30 2871 H 266.338 -1.58894 3.60758 0
M  V30 2872 H 267.626 -2.46997 4.44826 0
M  V30 2873 H 267.024 -5.03868 2.57165 0
M  V30 2874 H 265.581 -5.62075 3.30023 0
M  V30 2875 N 269.014 -1.53014 -0.377408 0
M  V30 2876 C 270.291 -1.59215 -1.13622 0
M  V30 2877 C 270.671 -0.392407 -2.07421 0
M  V30 2878 O 270.019 0.618342 -2.19975 0
M  V30 2879 C 270.229 -2.93669 -1.88573 0
M  V30 2880 C 271.577 -3.47822 -2.43526 0
M  V30 2881 O 272.601 -2.9562 -1.98715 0
M  V30 2882 O 271.46 -4.39055 -3.25412 0
M  V30 2883 H 268.554 -0.642625 -0.52054 0
M  V30 2884 H 271.1 -1.65353 -0.381625 0
M  V30 2885 H 269.872 -3.7243 -1.20048 0
M  V30 2886 H 269.495 -2.90968 -2.70968 0
M  V30 2887 N 270.492 0.636531 -1.44174 0
M  V30 2888 C 271.439 1.74875 -1.50624 0
M  V30 2889 C 272.409 1.62275 -0.35442 0
M  V30 2890 O 273.594 1.82276 -0.563908 0
M  V30 2891 C 270.734 3.13102 -1.45125 0
M  V30 2892 C 269.847 3.36717 -2.7064 0
M  V30 2893 C 268.982 4.64885 -2.57013 0
M  V30 2894 C 268.021 4.8166 -3.77717 0
M  V30 2895 N 267.158 6.01101 -3.62798 0
M  V30 2896 H 271.998 1.68697 -2.45653 0
M  V30 2897 H 269.535 0.823004 -1.21922 0
M  V30 2898 H 271.493 3.93034 -1.39929 0
M  V30 2899 H 270.123 3.18308 -0.536671 0
M  V30 2900 H 269.175 2.50763 -2.86046 0
M  V30 2901 H 270.487 3.44993 -3.60252 0
M  V30 2902 H 269.641 5.52969 -2.49619 0
M  V30 2903 H 268.38 4.58957 -1.64953 0
M  V30 2904 H 267.385 3.92007 -3.85501 0
M  V30 2905 H 268.61 4.89406 -4.70807 0
M  V30 2906 H 266.556 5.96273 -2.73486 0
M  V30 2907 H 266.473 6.10409 -4.46023 0
M  V30 2908 H 267.741 6.91761 -3.59286 0
M  V30 2909 N 271.97 1.30982 0.876444 0
M  V30 2910 C 273.216 1.20474 1.63138 0
M  V30 2911 C 273.549 -0.238096 1.92735 0
M  V30 2912 O 272.824 -1.1692 1.55435 0
M  V30 2913 C 273.107 2.04244 2.96574 0
M  V30 2914 C 272.96 3.56793 2.73896 0
M  V30 2915 C 274.279 1.88684 3.97601 0
M  V30 2916 H 271.398 0.439001 0.591985 0
M  V30 2917 H 274.04 1.60704 1.01361 0
M  V30 2918 H 272.19 1.70063 3.493 0
M  V30 2919 H 273.862 4.01077 2.27892 0
M  V30 2920 H 272.105 3.80548 2.08245 0
M  V30 2921 H 272.776 4.10706 3.68815 0
M  V30 2922 H 275.252 2.18584 3.54062 0
M  V30 2923 H 274.128 2.4961 4.88862 0
M  V30 2924 H 274.389 0.848343 4.33884 0
M  V30 2925 N 273.449 -1.08991 1.13837 0
M  V30 2926 C 274.698 -1.80631 0.897509 0
M  V30 2927 C 275.011 -1.86872 -0.57777 0
M  V30 2928 O 276.217 -2.54866 -0.935701 0
M  V30 2929 C 274.673 -3.24517 1.55618 0
M  V30 2930 C 274.281 -3.26529 3.0673 0
M  V30 2931 C 276.025 -4.00882 1.3962 0
M  V30 2932 C 273.932 -4.64965 3.65461 0
M  V30 2933 H 272.862 -0.67691 0.332129 0
M  V30 2934 H 275.513 -1.2246 1.3666 0
M  V30 2935 H 273.895 -3.82778 1.01476 0
M  V30 2936 H 275.069 -2.78008 3.67489 0
M  V30 2937 H 273.384 -2.63656 3.22296 0
M  V30 2938 H 275.981 -5.03167 1.80906 0
M  V30 2939 H 276.324 -4.14896 0.341578 0
M  V30 2940 H 276.857 -3.49075 1.90766 0
M  V30 2941 H 273.596 -4.56153 4.70749 0
M  V30 2942 H 273.116 -5.13792 3.09481 0
M  V30 2943 H 274.795 -5.3394 3.654 0
M  V30 2944 N 274.927 -0.932562 -1.27047 0
M  V30 2945 C 275.874 -0.434072 -2.26681 0
M  V30 2946 C 276.844 0.501639 -1.58344 0
M  V30 2947 O 278.029 0.419734 -1.86126 0
M  V30 2948 C 275.169 0.30261 -3.43771 0
M  V30 2949 C 274.282 -0.667774 -4.26808 0
M  V30 2950 C 273.417 0.0892393 -5.31125 0
M  V30 2951 C 272.456 -0.873532 -6.05835 0
M  V30 2952 N 271.593 -0.148832 -7.01942 0
M  V30 2953 H 276.433 -1.28868 -2.68695 0
M  V30 2954 H 273.97 -0.646713 -1.32121 0
M  V30 2955 H 275.928 0.746092 -4.10474 0
M  V30 2956 H 274.558 1.12142 -3.02695 0
M  V30 2957 H 273.61 -1.22978 -3.59973 0
M  V30 2958 H 274.922 -1.40337 -4.78651 0
M  V30 2959 H 274.076 0.592409 -6.03801 0
M  V30 2960 H 272.815 0.85777 -4.80097 0
M  V30 2961 H 271.82 -1.38791 -5.31994 0
M  V30 2962 H 273.045 -1.64193 -6.58952 0
M  V30 2963 H 270.991 0.601365 -6.53238 0
M  V30 2964 H 270.908 -0.82391 -7.51497 0
M  V30 2965 H 272.176 0.333527 -7.78786 0
M  V30 2966 N 276.405 1.4127 -0.698611 0
M  V30 2967 C 277.654 2.00408 -0.227949 0
M  V30 2968 C 277.967 1.55981 1.18023 0
M  V30 2969 O 279.173 2.07699 1.74852 0
M  V30 2970 C 277.629 3.58129 -0.356636 0
M  V30 2971 C 277.237 4.11536 -1.77037 0
M  V30 2972 C 278.981 4.24466 0.0540969 0
M  V30 2973 C 276.888 5.61701 -1.85055 0
M  V30 2974 H 275.818 0.749586 -0.0814657 0
M  V30 2975 H 278.469 1.61713 -0.867249 0
M  V30 2976 H 276.851 3.94442 0.350965 0
M  V30 2977 H 278.025 3.86636 -2.50698 0
M  V30 2978 H 276.34 3.57736 -2.13105 0
M  V30 2979 H 278.937 5.34698 0.0146723 0
M  V30 2980 H 279.28 4.01687 1.09332 0
M  V30 2981 H 279.813 3.93198 -0.603337 0
M  V30 2982 H 276.552 5.89312 -2.8704 0
M  V30 2983 H 276.072 5.88519 -1.15783 0
M  V30 2984 H 277.751 6.26524 -1.61484 0
M  V30 2985 N 277.883 0.443576 1.51229 0
M  V30 2986 C 278.83 -0.364716 2.279 0
M  V30 2987 C 279.8 -1.0114 1.31757 0
M  V30 2988 O 280.985 -1.02912 1.60667 0
M  V30 2989 C 278.125 -1.45644 3.12861 0
M  V30 2990 C 277.238 -0.827269 4.24005 0
M  V30 2991 C 276.373 -1.89456 4.96266 0
M  V30 2992 C 275.412 -1.24416 5.99322 0
M  V30 2993 N 274.549 -2.25309 6.64966 0
M  V30 2994 H 279.389 0.295464 2.96532 0
M  V30 2995 H 276.926 0.157554 1.46254 0
M  V30 2996 H 278.884 -2.10076 3.6045 0
M  V30 2997 H 277.514 -2.08616 2.46331 0
M  V30 2998 H 276.566 -0.0710839 3.80334 0
M  V30 2999 H 277.878 -0.312481 4.9782 0
M  V30 3000 H 277.032 -2.61535 5.47434 0
M  V30 3001 H 275.771 -2.4431 4.22095 0
M  V30 3002 H 274.776 -0.508868 5.4744 0
M  V30 3003 H 276.001 -0.702882 6.75453 0
M  V30 3004 H 273.947 -2.79231 5.93604 0
M  V30 3005 H 273.864 -1.78739 7.34567 0
M  V30 3006 H 275.132 -2.96853 7.20763 0
M  V30 3007 N 279.361 -1.56624 0.175154 0
M  V30 3008 C 280.324 -2.16934 -0.739738 0
M  V30 3009 C 281.324 -1.11842 -1.15533 0
M  V30 3010 O 282.514 -1.37335 -1.07167 0
M  V30 3011 C 279.646 -2.75531 -2.00738 0
M  V30 3012 H 280.839 -2.99131 -0.214639 0
M  V30 3013 H 278.392 -1.56123 -0.0744197 0
M  V30 3014 H 279.127 -1.97078 -2.57548 0
M  V30 3015 H 278.912 -3.52444 -1.71831 0
M  V30 3016 H 280.402 -3.21904 -2.66021 0
M  V30 3017 N 280.839 0.0985539 -1.57292 0
M  V30 3018 C 281.769 1.12064 -2.04851 0
M  V30 3019 C 282.75 1.41981 -0.936767 0
M  V30 3020 O 283.935 1.52071 -1.20781 0
M  V30 3021 C 281.065 2.44144 -2.47004 0
M  V30 3022 C 280.019 2.28643 -3.6181 0
M  V30 3023 C 279.345 3.65869 -3.89929 0
M  V30 3024 C 280.645 1.72986 -4.92822 0
M  V30 3025 H 282.339 0.724979 -2.9049 0
M  V30 3026 H 279.885 0.34729 -1.39749 0
M  V30 3027 H 281.838 3.15914 -2.78884 0
M  V30 3028 H 280.562 2.85639 -1.5836 0
M  V30 3029 H 279.221 1.59318 -3.30172 0
M  V30 3030 H 278.869 4.04885 -2.98458 0
M  V30 3031 H 278.569 3.56344 -4.67218 0
M  V30 3032 H 280.093 4.39112 -4.2428 0
M  V30 3033 H 281.507 2.34593 -5.23105 0
M  V30 3034 H 279.904 1.74229 -5.74251 0
M  V30 3035 H 280.974 0.689007 -4.7998 0
M  V30 3036 N 282.317 1.53212 0.369288 0
M  V30 3037 C 283.594 1.59815 1.12776 0
M  V30 3038 C 283.974 0.403402 2.0721 0
M  V30 3039 O 283.322 -0.606667 2.20299 0
M  V30 3040 C 283.532 2.94664 1.87013 0
M  V30 3041 C 284.88 3.49109 2.41677 0
M  V30 3042 O 285.904 2.96669 1.97144 0
M  V30 3043 O 284.763 4.40775 3.23079 0
M  V30 3044 H 281.857 0.645376 0.517125 0
M  V30 3045 H 284.403 1.65553 0.37285 0
M  V30 3046 H 283.175 3.73061 1.18071 0
M  V30 3047 H 282.798 2.92401 2.69421 0
M  V30 3048 N 283.795 -0.628877 1.44509 0
M  V30 3049 C 285.02 -1.42048 1.5112 0
M  V30 3050 C 285.445 -1.87594 0.137818 0
M  V30 3051 O 284.803 -1.58873 -0.873437 0
M  V30 3052 C 284.851 -2.61541 2.48251 0
M  V30 3053 O 283.955 -3.61453 1.98559 0
M  V30 3054 H 283.296 -0.424942 0.510216 0
M  V30 3055 H 285.826 -0.767374 1.89664 0
M  V30 3056 H 285.836 -3.09057 2.66361 0
M  V30 3057 H 284.511 -2.27736 3.48007 0
M  V30 3058 H 283.088 -3.20731 1.90227 0
M  V30 3059 N 285.273 -1.31445 -0.869486 0
M  V30 3060 C 286.513 -1.22458 -1.63656 0
M  V30 3061 C 286.877 0.213846 -1.90805 0
M  V30 3062 O 288.078 0.427212 -2.65383 0
M  V30 3063 C 286.349 -2.04564 -2.93067 0
M  V30 3064 S 287.908 -2.12445 -3.83944 0
M  V30 3065 H 284.726 -0.436145 -0.561514 0
M  V30 3066 H 287.328 -1.66114 -1.03085 0
M  V30 3067 H 286.032 -3.0816 -2.71045 0
M  V30 3068 H 285.563 -1.6163 -3.58663 0
M  V30 3069 H 287.578 -1.26312 -4.79854 0
M  V30 3070 N 286.751 1.08385 -1.14413 0
M  V30 3071 C 287.698 2.15311 -0.831265 0
M  V30 3072 C 288.668 1.64751 0.211292 0
M  V30 3073 O 289.853 1.90627 0.0811674 0
M  V30 3074 C 286.993 3.43658 -0.315143 0
M  V30 3075 C 286.106 4.08064 -1.41802 0
M  V30 3076 C 285.241 5.24207 -0.859126 0
M  V30 3077 C 284.28 5.80554 -1.93967 0
M  V30 3078 N 283.417 6.88042 -1.39793 0
M  V30 3079 H 288.257 2.41415 -1.74708 0
M  V30 3080 H 285.794 1.18474 -0.871909 0
M  V30 3081 H 287.752 4.172 0.00230884 0
M  V30 3082 H 286.382 3.17839 0.56378 0
M  V30 3083 H 285.434 3.3228 -1.85187 0
M  V30 3084 H 286.746 4.45962 -2.23427 0
M  V30 3085 H 285.9 6.04689 -0.49359 0
M  V30 3086 H 284.639 4.87699 -0.011932 0
M  V30 3087 H 283.644 4.98725 -2.31415 0
M  V30 3088 H 284.869 6.19121 -2.79046 0
M  V30 3089 H 282.815 6.53493 -0.572919 0
M  V30 3090 H 282.732 7.24767 -2.15054 0
M  V30 3091 H 284 7.72255 -1.0603 0
M  V30 3092 N 288.23 0.939286 1.26551 0
M  V30 3093 C 289.479 0.581601 1.93133 0
M  V30 3094 C 289.792 -0.883224 1.74524 0
M  V30 3095 O 290.998 -1.3502 2.35546 0
M  V30 3096 C 289.454 0.989425 3.46032 0
M  V30 3097 C 289.062 2.47573 3.73379 0
M  V30 3098 C 290.806 0.703544 4.18629 0
M  V30 3099 C 288.713 2.82235 5.19709 0
M  V30 3100 H 287.643 0.213803 0.723052 0
M  V30 3101 H 290.294 1.14167 1.4366 0
M  V30 3102 H 288.676 0.357902 3.94379 0
M  V30 3103 H 289.85 3.15614 3.35744 0
M  V30 3104 H 288.165 2.73471 3.1401 0
M  V30 3105 H 290.762 0.938869 5.26393 0
M  V30 3106 H 291.105 -0.359639 4.14744 0
M  V30 3107 H 291.638 1.2947 3.76141 0
M  V30 3108 H 288.377 3.87509 5.28694 0
M  V30 3109 H 287.897 2.18854 5.58447 0
M  V30 3110 H 289.576 2.70599 5.87695 0
M  V30 3111 N 289.708 -1.40897 0.706093 0
M  V30 3112 C 290.671 -2.29131 0.0562841 0
M  V30 3113 C 291.671 -1.44901 -0.697166 0
M  V30 3114 O 292.861 -1.65926 -0.530484 0
M  V30 3115 C 289.993 -3.27957 -0.93043 0
M  V30 3116 H 291.186 -2.88091 0.833284 0
M  V30 3117 H 288.739 -1.4906 0.470192 0
M  V30 3118 H 289.474 -2.73997 -1.73482 0
M  V30 3119 H 289.259 -3.90124 -0.393166 0
M  V30 3120 H 290.749 -3.94049 -1.38256 0
M  V30 3121 N 291.186 -0.45159 -1.50991 0
M  V30 3122 C 292.602 -0.104647 -1.59257 0
M  V30 3123 C 292.802 1.38728 -1.4614 0
M  V30 3124 O 291.858 2.15866 -1.30989 0
M  V30 3125 C 293.171 -0.637468 -2.93865 0
M  V30 3126 C 294.719 -0.599166 -3.07212 0
M  V30 3127 C 295.194 -1.1092 -4.44366 0
M  V30 3128 N 296.685 -1.06778 -4.50725 0
M  V30 3129 C 297.42 -1.43314 -5.55201 0
M  V30 3130 N 296.916 -1.87204 -6.67028 0
M  V30 3131 N 298.709 -1.3504 -5.45638 0
M  V30 3132 H 290.86 -1.42214 -1.57762 0
M  V30 3133 H 293.123 -0.586921 -0.744465 0
M  V30 3134 H 292.829 -1.68187 -3.08879 0
M  V30 3135 H 292.703 -0.0702139 -3.77135 0
M  V30 3136 H 295.09 0.436277 -2.91857 0
M  V30 3137 H 295.171 -1.20299 -2.25747 0
M  V30 3138 H 294.815 -2.14318 -4.60467 0
M  V30 3139 H 294.745 -0.481773 -5.24392 0
M  V30 3140 H 297.236 -0.745643 -3.70471 0
M  V30 3141 H 297.549 -2.13282 -7.42786 0
M  V30 3142 H 295.894 -1.91142 -6.68199 0
M  V30 3143 H 299.085 -1.00607 -4.57161 0
M  V30 3144 H 299.258 -1.63841 -6.26945 0
M  V30 3145 N 292.664 1.56529 -0.183458 0
M  V30 3146 C 293.889 2.02064 0.467428 0
M  V30 3147 C 294.314 1.06282 1.55196 0
M  V30 3148 O 293.672 0.0443565 1.81246 0
M  V30 3149 C 293.72 3.46122 1.01153 0
M  V30 3150 O 292.824 3.53437 2.12499 0
M  V30 3151 H 292.165 0.654726 0.110588 0
M  V30 3152 H 294.695 2.02521 -0.290917 0
M  V30 3153 H 294.705 3.85676 1.33108 0
M  V30 3154 H 293.38 4.15331 0.217533 0
M  V30 3155 H 291.957 3.2575 1.81497 0
M  V30 3156 N 294.142 -0.090211 1.57342 0
M  V30 3157 C 295.39 -0.791241 1.85967 0
M  V30 3158 C 295.711 -1.7903 0.772859 0
M  V30 3159 O 294.981 -1.94872 -0.200398 0
M  V30 3160 H 293.561 -0.295205 0.686195 0
M  V30 3161 H 296.223 -0.0706782 1.94772 0
M  V30 3162 H 295.319 -1.31882 2.82867 0
M  V30 3163 N 295.62 -1.53406 -0.361157 0
M  V30 3164 C 296.867 -1.69802 -1.10333 0
M  V30 3165 C 297.195 -0.452087 -1.89173 0
M  V30 3166 O 296.45 0.566017 -1.87336 0
M  V30 3167 C 296.749 -2.90211 -2.08596 0
M  V30 3168 C 296.415 -4.26539 -1.46203 0
M  V30 3169 C 295.077 -4.6361 -1.28915 0
M  V30 3170 C 297.429 -5.113 -1.01101 0
M  V30 3171 C 294.757 -5.83075 -0.651157 0
M  V30 3172 C 297.109 -6.31415 -0.387007 0
M  V30 3173 C 295.773 -6.67195 -0.201657 0
M  V30 3174 H 295.043 -0.621351 -0.403737 0
M  V30 3175 H 297.69 -1.87598 -0.384609 0
M  V30 3176 H 295.995 -2.66946 -2.86788 0
M  V30 3177 H 297.692 -3.00091 -2.65982 0
M  V30 3178 H 294.282 -3.97352 -1.60653 0
M  V30 3179 H 298.466 -4.83206 -1.13249 0
M  V30 3180 H 293.722 -6.09385 -0.496006 0
M  V30 3181 H 297.896 -6.96394 -0.0293563 0
M  V30 3182 H 295.523 -7.59628 0.294766 0
M  V30 3183 N 297.098 0.621204 -1.44841 0
M  V30 3184 C 298.326 1.40752 -1.51646 0
M  V30 3185 C 298.741 1.88246 -0.144549 0
M  V30 3186 O 298.098 1.61422 0.851416 0
M  V30 3187 C 298.149 2.62119 -2.4895 0
M  V30 3188 O 297.87 2.16602 -3.80808 0
M  V30 3189 C 299.371 3.55135 -2.65319 0
M  V30 3190 H 296.591 0.431325 -0.514004 0
M  V30 3191 H 299.135 0.758835 -1.899 0
M  V30 3192 H 297.29 3.23058 -2.13805 0
M  V30 3193 H 297.704 2.95358 -4.33433 0
M  V30 3194 H 299.178 4.36874 -3.37409 0
M  V30 3195 H 299.655 4.04592 -1.70886 0
M  V30 3196 H 300.261 3.00058 -3.01405 0
M  V30 3197 N 298.576 1.31904 0.862503 0
M  V30 3198 C 299.804 1.24998 1.64873 0
M  V30 3199 C 300.219 -0.183425 1.87907 0
M  V30 3200 O 299.576 -1.11794 1.44251 0
M  V30 3201 C 299.627 1.99829 3.01248 0
M  V30 3202 O 299.348 3.37575 2.79239 0
M  V30 3203 C 300.849 1.99852 3.95694 0
M  V30 3204 H 298.069 0.431599 0.513773 0
M  V30 3205 H 300.613 1.73901 1.07604 0
M  V30 3206 H 298.768 1.54668 3.55185 0
M  V30 3207 H 299.182 3.75776 3.65914 0
M  V30 3208 H 300.656 2.56709 4.88676 0
M  V30 3209 H 301.133 0.982852 4.28062 0
M  V30 3210 H 301.739 2.44926 3.47694 0
M  V30 3211 N 300.054 -1.07777 1.14986 0
M  V30 3212 C 301.465 -1.61766 0.932127 0
M  V30 3213 C 301.816 -1.88974 -0.527581 0
M  V30 3214 O 300.941 -1.65198 -1.39781 0
M  V30 3215 C 301.536 -2.93891 1.68563 0
M  V30 3216 C 300.095 -3.44639 1.5133 0
M  V30 3217 C 299.242 -2.18767 1.704 0
M  V30 3218 H 302.193 -0.909201 1.30074 0
M  V30 3219 H 302.214 -3.62623 1.15259 0
M  V30 3220 H 301.726 -2.74057 2.74799 0
M  V30 3221 H 299.827 -3.69564 0.474702 0
M  V30 3222 H 299.94 -4.20966 2.28746 0
M  V30 3223 H 298.304 -2.28253 1.13016 0
M  V30 3224 H 299.087 -2.01433 2.77992 0
M  V30 3225 N 301.532 -0.945985 -1.26051 0
M  V30 3226 C 302.48 -0.450259 -2.282 0
M  V30 3227 C 303.474 0.47497 -1.62605 0
M  V30 3228 O 304.68 0.352653 -1.76512 0
M  V30 3229 H 301.055 -0.127081 -0.741184 0
M  V30 3230 H 303.026 -1.32422 -2.67408 0
M  V30 3231 C 301.775 0.26467 -3.46691 0
M  V30 3232 H 301.098 -0.438123 -3.97392 0
M  V30 3233 H 302.538 0.575678 -4.20074 0
M  V30 3234 C 300.997 1.48416 -3.02447 0
M  V30 3235 O 301.527 2.58227 -3.07704 0
M  V30 3236 N 299.733 1.34243 -2.57735 0
M  V30 3237 H 299.28 0.448994 -2.53657 0
M  V30 3238 H 299.238 2.15957 -2.28495 0
M  V30 3239 N 303.011 1.40521 -0.713556 0
M  V30 3240 C 303.943 2.29191 -0.0203126 0
M  V30 3241 C 304.956 1.45723 0.725864 0
M  V30 3242 O 306.145 1.69033 0.573581 0
M  V30 3243 C 303.245 3.2395 0.995486 0
M  V30 3244 C 302.418 4.36262 0.315256 0
M  V30 3245 C 301.477 5.11474 1.23616 0
M  V30 3246 O 300.503 5.64606 0.721719 0
M  V30 3247 N 301.705 5.20638 2.56743 0
M  V30 3248 H 304.47 2.89327 -0.781652 0
M  V30 3249 H 302.031 1.51869 -0.561022 0
M  V30 3250 H 304.023 3.71137 1.61368 0
M  V30 3251 H 302.593 2.64995 1.6582 0
M  V30 3252 H 301.813 3.91228 -0.483106 0
M  V30 3253 H 303.101 5.08558 -0.157004 0
M  V30 3254 H 302.499 4.7895 3.01037 0
M  V30 3255 H 301.056 5.71339 3.13712 0
M  V30 3256 N 304.489 0.459591 1.5075 0
M  V30 3257 C 305.735 -0.0994966 2.02556 0
M  V30 3258 C 306.068 -1.40399 1.3417 0
M  V30 3259 O 305.343 -1.88892 0.463683 0
M  V30 3260 C 305.626 -0.295242 3.58888 0
M  V30 3261 C 305.479 1.02947 4.37861 0
M  V30 3262 C 306.798 -1.05502 4.27267 0
M  V30 3263 H 303.917 -0.034686 0.736183 0
M  V30 3264 H 306.559 0.602938 1.8018 0
M  V30 3265 H 304.709 -0.893563 3.78084 0
M  V30 3266 H 306.381 1.66348 4.30263 0
M  V30 3267 H 304.624 1.62885 4.02058 0
M  V30 3268 H 305.295 0.846281 5.45474 0
M  V30 3269 H 307.771 -0.547993 4.12476 0
M  V30 3270 H 306.647 -1.16077 5.36486 0
M  V30 3271 H 306.908 -2.08875 3.89645 0
M  V30 3272 N 305.967 -1.56429 0.191757 0
M  V30 3273 C 306.897 -2.21937 -0.725696 0
M  V30 3274 C 307.878 -1.1814 -1.2238 0
M  V30 3275 O 309.063 -1.46636 -1.27325 0
M  V30 3276 C 306.193 -2.87611 -1.94672 0
M  V30 3277 C 305.147 -3.97623 -1.58366 0
M  V30 3278 C 304.473 -4.50446 -2.88102 0
M  V30 3279 C 305.773 -5.16197 -0.796133 0
M  V30 3280 H 307.467 -2.98861 -0.179606 0
M  V30 3281 H 305.013 -1.43749 -0.0849464 0
M  V30 3282 H 306.966 -3.3212 -2.59373 0
M  V30 3283 H 305.69 -2.08087 -2.51728 0
M  V30 3284 H 304.349 -3.53801 -0.960247 0
M  V30 3285 H 303.997 -3.67688 -3.43241 0
M  V30 3286 H 303.697 -5.24675 -2.64556 0
M  V30 3287 H 305.221 -4.97654 -3.53798 0
M  V30 3288 H 306.635 -5.57271 -1.34618 0
M  V30 3289 H 305.032 -5.96471 -0.658928 0
M  V30 3290 H 306.102 -4.84473 0.203478 0
M  V30 3291 N 307.445 0.0818655 -1.57387 0
M  V30 3292 C 308.693 0.781368 -1.86384 0
M  V30 3293 C 309.014 1.78618 -0.782342 0
M  V30 3294 O 308.284 1.94976 0.190061 0
M  V30 3295 H 306.864 0.291562 -0.687751 0
M  V30 3296 H 309.526 0.060348 -1.94807 0
M  V30 3297 H 308.622 1.3038 -2.83562 0
M  V30 3298 N 308.923 1.53595 0.353017 0
M  V30 3299 C 310.169 1.70638 1.09593 0
M  V30 3300 C 310.502 0.463286 1.88593 0
M  V30 3301 O 309.777 -0.539597 1.86865 0
M  V30 3302 C 310.06 2.96406 2.04489 0
M  V30 3303 C 309.913 4.30901 1.29014 0
M  V30 3304 C 311.232 3.17812 3.0444 0
M  V30 3305 H 308.351 0.620913 0.397034 0
M  V30 3306 H 310.993 1.86254 0.375446 0
M  V30 3307 H 309.143 2.83223 2.65927 0
M  V30 3308 H 310.815 4.55917 0.702638 0
M  V30 3309 H 309.058 4.29741 0.592071 0
M  V30 3310 H 309.729 5.1506 1.98537 0
M  V30 3311 H 312.205 3.30263 2.53112 0
M  V30 3312 H 311.081 4.07223 3.6805 0
M  V30 3313 H 311.342 2.33669 3.75301 0
M  V30 3314 N 310.401 -0.613514 1.45168 0
M  V30 3315 C 311.626 -1.40437 1.52618 0
M  V30 3316 C 312.051 -1.87438 0.157707 0
M  V30 3317 O 311.409 -1.59791 -0.856537 0
M  V30 3318 C 311.457 -2.58894 2.51011 0
M  V30 3319 O 310.561 -3.59326 2.02382 0
M  V30 3320 H 309.902 -0.419506 0.514695 0
M  V30 3321 H 312.432 -0.747215 1.90467 0
M  V30 3322 H 312.442 -3.06214 2.69624 0
M  V30 3323 H 311.117 -2.24032 3.50403 0
M  V30 3324 H 309.694 -3.18695 1.93618 0
M  V30 3325 N 311.879 -1.3236 -0.855495 0
M  V30 3326 C 313.104 -1.2601 -1.64731 0
M  V30 3327 C 313.529 0.169068 -1.87339 0
M  V30 3328 O 312.887 1.12016 -1.42556 0
M  V30 3329 C 312.935 -2.02417 -2.98429 0
M  V30 3330 O 312.039 -1.3714 -3.8893 0
M  V30 3331 H 311.38 -0.434325 -0.502253 0
M  V30 3332 H 313.91 -1.74661 -1.06558 0
M  V30 3333 H 313.92 -2.12559 -3.48257 0
M  V30 3334 H 312.595 -3.06343 -2.81295 0
M  V30 3335 H 311.172 -1.3554 -3.47395 0
M  V30 3336 N 313.357 1.07166 -1.15556 0
M  V30 3337 C 314.304 2.14417 -0.854055 0
M  V30 3338 C 315.274 1.64965 0.193806 0
M  V30 3339 O 316.459 1.90703 0.0609443 0
M  V30 3340 C 313.599 3.43304 -0.351574 0
M  V30 3341 C 312.712 4.06537 -1.46123 0
M  V30 3342 C 311.847 5.23266 -0.914677 0
M  V30 3343 C 310.886 5.78464 -2.00114 0
M  V30 3344 N 310.023 6.86521 -1.47083 0
M  V30 3345 H 314.863 2.39548 -1.77259 0
M  V30 3346 H 312.4 1.17543 -0.884425 0
M  V30 3347 H 314.358 4.17179 -0.0419409 0
M  V30 3348 H 312.988 3.18419 0.530037 0
M  V30 3349 H 312.04 3.30297 -1.88701 0
M  V30 3350 H 313.352 4.43567 -2.28144 0
M  V30 3351 H 312.506 6.04131 -0.557698 0
M  V30 3352 H 311.245 4.87658 -0.0636583 0
M  V30 3353 H 310.25 4.96243 -2.36692 0
M  V30 3354 H 311.475 6.16126 -2.85597 0
M  V30 3355 H 309.421 6.52849 -0.642198 0
M  V30 3356 H 309.338 7.22446 -2.22729 0
M  V30 3357 H 310.606 7.71087 -1.14215 0
M  V30 3358 N 314.835 0.952656 1.25548 0
M  V30 3359 C 315.798 0.475794 2.24207 0
M  V30 3360 C 316.798 -0.419428 1.55234 0
M  V30 3361 O 317.988 -0.216994 1.72843 0
M  V30 3362 C 315.12 -0.312814 3.39462 0
M  V30 3363 H 316.313 1.34779 2.67908 0
M  V30 3364 H 313.866 0.735739 1.37901 0
M  V30 3365 H 314.601 -1.20257 3.01179 0
M  V30 3366 H 314.386 0.329404 3.90714 0
M  V30 3367 H 315.876 -0.635986 4.12729 0
M  V30 3368 N 316.313 -1.40141 0.720998 0
M  V30 3369 C 317.541 -2.05096 0.272656 0
M  V30 3370 C 317.956 -1.54334 -1.0875 0
M  V30 3371 O 317.313 -0.702211 -1.6845 0
M  V30 3372 C 317.364 -3.60636 0.249835 0
M  V30 3373 O 317.085 -4.09526 1.55629 0
M  V30 3374 C 318.586 -4.42772 -0.216396 0
M  V30 3375 H 315.806 -0.659897 0.121558 0
M  V30 3376 H 318.35 -1.79449 0.980723 0
M  V30 3377 H 316.505 -3.85232 -0.409237 0
M  V30 3378 H 316.919 -5.03758 1.4604 0
M  V30 3379 H 318.393 -5.51702 -0.181212 0
M  V30 3380 H 318.87 -4.20756 -1.25941 0
M  V30 3381 H 319.476 -4.23294 0.412596 0
M  V30 3382 N 317.792 -0.46758 -1.50504 0
M  V30 3383 C 319.017 0.0886943 -2.0721 0
M  V30 3384 C 319.442 1.33057 -1.32956 0
M  V30 3385 O 318.8 1.77354 -0.376197 0
M  V30 3386 C 318.848 0.359202 -3.58806 0
M  V30 3387 O 317.952 1.44034 -3.8643 0
M  V30 3388 H 317.293 -0.0114349 -0.663902 0
M  V30 3389 H 319.823 -0.657613 -1.93744 0
M  V30 3390 H 319.833 0.600742 -4.03553 0
M  V30 3391 H 318.508 -0.548311 -4.1227 0
M  V30 3392 H 317.085 1.18638 -3.53524 0
M  V30 3393 N 319.27 1.56325 -0.20005 0
M  V30 3394 C 320.516 1.98012 0.438059 0
M  V30 3395 C 320.849 1.08702 1.60927 0
M  V30 3396 O 320.124 0.140064 1.93995 0
M  V30 3397 C 320.407 3.48841 0.893419 0
M  V30 3398 C 320.26 4.48928 -0.279947 0
M  V30 3399 C 321.579 4.03498 1.75719 0
M  V30 3400 H 318.698 0.719918 0.157757 0
M  V30 3401 H 321.34 1.87743 -0.291968 0
M  V30 3402 H 319.49 3.57723 1.51547 0
M  V30 3403 H 321.162 4.52079 -0.91772 0
M  V30 3404 H 319.405 4.23694 -0.930919 0
M  V30 3405 H 320.076 5.5194 0.0812601 0
M  V30 3406 H 322.552 3.97427 1.23253 0
M  V30 3407 H 321.428 5.09393 2.04476 0
M  V30 3408 H 321.689 3.4906 2.71311 0
M  V30 3409 N 320.748 -0.0735177 1.57428 0
M  V30 3410 C 321.976 -0.785969 1.9139 0
M  V30 3411 C 322.391 -1.71207 0.795847 0
M  V30 3412 O 321.748 -1.81033 -0.230915 0
M  V30 3413 C 321.799 -1.58107 3.25091 0
M  V30 3414 O 321.52 -0.6922 4.32597 0
M  V30 3415 C 323.021 -2.39467 3.73055 0
M  V30 3416 H 320.241 -0.223558 0.632663 0
M  V30 3417 H 322.785 -0.044302 2.04452 0
M  V30 3418 H 320.94 -2.27503 3.13562 0
M  V30 3419 H 321.354 -1.24504 5.09508 0
M  V30 3420 H 322.828 -2.90716 4.69242 0
M  V30 3421 H 323.305 -3.18913 3.01979 0
M  V30 3422 H 323.911 -1.7523 3.87523 0
M  V30 3423 N 322.226 -1.5378 -0.344866 0
M  V30 3424 C 323.454 -1.74899 -1.10534 0
M  V30 3425 C 323.869 -0.487534 -1.82397 0
M  V30 3426 O 323.226 0.540741 -1.74305 0
M  V30 3427 C 323.277 -2.92822 -2.11984 0
M  V30 3428 O 322.998 -4.14089 -1.43044 0
M  V30 3429 C 324.499 -3.25982 -3.00417 0
M  V30 3430 H 321.719 -0.584426 -0.329678 0
M  V30 3431 H 324.263 -2.006 -0.397474 0
M  V30 3432 H 322.418 -2.69457 -2.78338 0
M  V30 3433 H 322.832 -4.80272 -2.10805 0
M  V30 3434 H 324.306 -4.11848 -3.67539 0
M  V30 3435 H 324.783 -2.42228 -3.66363 0
M  V30 3436 H 325.389 -3.51349 -2.39654 0
M  V30 3437 N 323.704 0.605807 -1.45491 0
M  V30 3438 C 324.934 1.38934 -1.52908 0
M  V30 3439 C 325.342 1.88513 -0.161086 0
M  V30 3440 O 324.685 1.62962 0.847891 0
M  V30 3441 C 324.747 2.62737 -2.45376 0
M  V30 3442 C 324.411 2.34785 -3.92078 0
M  V30 3443 C 325.408 1.95038 -4.8193 0
M  V30 3444 C 323.093 2.47642 -4.37011 0
M  V30 3445 C 325.087 1.68511 -6.14722 0
M  V30 3446 C 322.774 2.20728 -5.69844 0
M  V30 3447 C 323.772 1.81225 -6.58519 0
M  V30 3448 O 323.46 1.54627 -7.88889 0
M  V30 3449 H 323.192 0.431629 -0.520262 0
M  V30 3450 H 325.746 0.74573 -1.91384 0
M  V30 3451 H 323.976 3.29824 -2.01874 0
M  V30 3452 H 325.665 3.24783 -2.43456 0
M  V30 3453 H 326.431 1.84639 -4.48479 0
M  V30 3454 H 322.31 2.77356 -3.68232 0
M  V30 3455 H 325.854 1.37602 -6.83894 0
M  V30 3456 H 321.751 2.30744 -6.02849 0
M  V30 3457 H 322.519 1.68665 -8.00933 0
M  V30 3458 N 325.182 1.32811 0.848464 0
M  V30 3459 C 326.129 1.22265 1.95755 0
M  V30 3460 C 327.099 0.103413 1.65778 0
M  V30 3461 O 328.284 0.280033 1.88734 0
M  V30 3462 C 325.424 0.958014 3.31536 0
M  V30 3463 C 324.537 2.16262 3.73971 0
M  V30 3464 C 323.672 1.83295 4.98575 0
M  V30 3465 C 322.711 3.00041 5.33518 0
M  V30 3466 N 321.848 2.67125 6.49299 0
M  V30 3467 H 326.688 2.17128 2.04107 0
M  V30 3468 H 324.225 1.07982 0.998913 0
M  V30 3469 H 326.183 0.785052 4.09747 0
M  V30 3470 H 324.813 0.046159 3.22767 0
M  V30 3471 H 323.865 2.44565 2.91362 0
M  V30 3472 H 325.177 3.03572 3.95785 0
M  V30 3473 H 324.331 1.62586 5.84509 0
M  V30 3474 H 323.07 0.932078 4.7871 0
M  V30 3475 H 322.075 3.21374 4.46093 0
M  V30 3476 H 323.3 3.90869 5.55336 0
M  V30 3477 H 321.246 1.79586 6.3094 0
M  V30 3478 H 321.163 3.47965 6.71161 0
M  V30 3479 H 322.431 2.49861 7.3837 0
M  V30 3480 N 326.66 -1.06551 1.16123 0
M  V30 3481 C 327.909 -1.78687 0.935622 0
M  V30 3482 C 328.222 -1.88056 -0.538001 0
M  V30 3483 O 329.428 -2.56794 -0.88143 0
M  V30 3484 C 327.884 -3.21143 1.62466 0
M  V30 3485 C 327.492 -3.19949 3.13587 0
M  V30 3486 C 329.236 -3.9783 1.48092 0
M  V30 3487 C 327.143 -4.57108 3.75241 0
M  V30 3488 H 326.073 -0.669712 0.346412 0
M  V30 3489 H 328.724 -1.19534 1.39226 0
M  V30 3490 H 327.106 -3.80539 1.09572 0
M  V30 3491 H 328.28 -2.70151 3.73303 0
M  V30 3492 H 326.595 -2.5676 3.27816 0
M  V30 3493 H 329.192 -4.99217 1.91538 0
M  V30 3494 H 329.535 -4.14078 0.429507 0
M  V30 3495 H 330.068 -3.4495 1.98127 0
M  V30 3496 H 326.807 -4.46065 4.80319 0
M  V30 3497 H 326.327 -5.07111 3.20309 0
M  V30 3498 H 328.006 -5.26069 3.76644 0
M  V30 3499 N 328.138 -0.959301 -1.25041 0
M  V30 3500 C 329.048 -0.489994 -2.29426 0
M  V30 3501 C 330.064 0.444944 -1.68215 0
M  V30 3502 O 331.24 0.320046 -1.98841 0
M  V30 3503 C 328.305 0.220309 -3.45999 0
M  V30 3504 C 327.366 -0.753418 -4.22637 0
M  V30 3505 C 326.599 -0.076918 -5.33645 0
M  V30 3506 O 326.822 1.13649 -5.58963 0
M  V30 3507 O 325.756 -0.764824 -5.97021 0
M  V30 3508 H 329.582 -1.35755 -2.71669 0
M  V30 3509 H 327.167 -0.725961 -1.30576 0
M  V30 3510 H 329.049 0.619677 -4.16819 0
M  V30 3511 H 327.724 1.06296 -3.0575 0
M  V30 3512 H 326.631 -1.20308 -3.54227 0
M  V30 3513 H 327.964 -1.56423 -4.66683 0
M  V30 3514 N 329.616 1.39756 -0.72842 0
M  V30 3515 C 330.893 1.94574 -0.200079 0
M  V30 3516 C 331.273 1.66569 1.29684 0
M  V30 3517 O 330.621 0.990326 2.05924 0
M  V30 3518 C 330.831 3.45004 -0.526608 0
M  V30 3519 C 332.179 4.21965 -0.472318 0
M  V30 3520 O 333.203 3.53173 -0.463413 0
M  V30 3521 O 332.062 5.44552 -0.461075 0
M  V30 3522 H 329.156 0.826289 -0.0342851 0
M  V30 3523 H 331.702 1.49293 -0.806829 0
M  V30 3524 H 330.474 3.58796 -1.56144 0
M  V30 3525 H 330.097 3.97449 0.109449 0
M  V30 3526 N 331.094 0.475555 1.50254 0
M  V30 3527 C 332.319 -0.0777042 2.07254 0
M  V30 3528 C 332.744 -1.3235 1.3366 0
M  V30 3529 O 332.102 -1.77152 0.385597 0
M  V30 3530 C 332.15 -0.340169 3.58992 0
M  V30 3531 O 331.254 -1.41982 3.87188 0
M  V30 3532 H 330.595 0.0149556 0.663832 0
M  V30 3533 H 333.125 0.667878 1.93392 0
M  V30 3534 H 333.135 -0.579332 4.03866 0
M  V30 3535 H 331.81 0.570167 4.11973 0
M  V30 3536 H 330.387 -1.16762 3.54148 0
M  V30 3537 N 332.573 -1.56217 0.208337 0
M  V30 3538 C 333.82 -1.97949 -0.42692 0
M  V30 3539 C 334.148 -1.09562 -1.60706 0
M  V30 3540 O 333.403 -0.137616 -1.95216 0
M  V30 3541 C 333.702 -3.45441 -0.916797 0
M  V30 3542 C 333.368 -4.50646 0.151391 0
M  V30 3543 C 332.03 -4.79139 0.444867 0
M  V30 3544 C 334.382 -5.13811 0.874492 0
M  V30 3545 C 331.71 -5.68084 1.46619 0
M  V30 3546 C 334.062 -6.03861 1.88506 0
M  V30 3547 C 332.726 -6.30704 2.18559 0
M  V30 3548 H 331.996 -0.724345 -0.156221 0
M  V30 3549 H 334.643 -1.89006 0.308084 0
M  V30 3550 H 332.948 -3.51521 -1.73032 0
M  V30 3551 H 334.645 -3.75094 -1.41794 0
M  V30 3552 H 331.235 -4.28511 -0.0875068 0
M  V30 3553 H 335.419 -4.91879 0.660996 0
M  V30 3554 H 330.675 -5.87151 1.7048 0
M  V30 3555 H 334.849 -6.51861 2.45051 0
M  V30 3556 H 332.476 -6.99424 2.97843 0
M  V30 3557 N 334.051 0.0651679 -1.57465 0
M  V30 3558 C 335.297 0.764193 -1.87851 0
M  V30 3559 C 335.63 1.76889 -0.801495 0
M  V30 3560 O 334.905 1.93594 0.187528 0
M  V30 3561 C 335.188 1.46625 -3.28897 0
M  V30 3562 C 335.041 0.477515 -4.47258 0
M  V30 3563 C 336.36 2.4095 -3.68281 0
M  V30 3564 H 333.479 0.276351 -0.683227 0
M  V30 3565 H 336.121 0.0272868 -1.8998 0
M  V30 3566 H 334.271 2.09438 -3.27212 0
M  V30 3567 H 335.943 -0.145922 -4.61069 0
M  V30 3568 H 334.186 -0.206576 -4.33308 0
M  V30 3569 H 334.857 1.0065 -5.42746 0
M  V30 3570 H 337.333 1.88209 -3.71102 0
M  V30 3571 H 336.209 2.87072 -4.67847 0
M  V30 3572 H 336.47 3.26049 -2.98571 0
M  V30 3573 N 335.529 1.53961 0.336706 0
M  V30 3574 C 336.778 1.70751 1.07363 0
M  V30 3575 C 337.091 0.481061 1.89592 0
M  V30 3576 O 338.297 0.530046 2.66276 0
M  V30 3577 C 336.753 3.01965 1.95818 0
M  V30 3578 C 336.361 4.31971 1.18764 0
M  V30 3579 C 338.105 3.28121 2.69327 0
M  V30 3580 C 336.012 5.54255 2.06289 0
M  V30 3581 H 334.942 0.636292 0.404535 0
M  V30 3582 H 337.593 1.80459 0.332681 0
M  V30 3583 H 335.975 2.86132 2.7376 0
M  V30 3584 H 337.149 4.5853 0.456849 0
M  V30 3585 H 335.464 4.12481 0.569946 0
M  V30 3586 H 338.061 4.16673 3.35094 0
M  V30 3587 H 338.404 2.45426 3.36261 0
M  V30 3588 H 338.937 3.44762 1.98454 0
M  V30 3589 H 335.676 6.39513 1.43885 0
M  V30 3590 H 335.196 5.31935 2.77138 0
M  V30 3591 H 336.875 5.90159 2.65182 0
M  V30 3592 N 337.007 -0.598083 1.45811 0
M  V30 3593 C 337.97 -1.69018 1.54808 0
M  V30 3594 C 338.97 -1.55037 0.426652 0
M  V30 3595 O 340.16 -1.59932 0.690456 0
M  V30 3596 C 337.292 -3.0835 1.45371 0
M  V30 3597 H 338.485 -1.62403 2.52121 0
M  V30 3598 H 336.038 -0.814626 1.33392 0
M  V30 3599 H 336.773 -3.20534 0.492793 0
M  V30 3600 H 336.558 -3.19907 2.26721 0
M  V30 3601 H 338.048 -3.8788 1.54721 0
M  V30 3602 N 338.485 -1.33259 -0.841409 0
M  V30 3603 C 339.731 -1.24757 -1.59886 0
M  V30 3604 C 340.064 0.186913 -1.93298 0
M  V30 3605 O 339.339 1.12757 -1.5848 0
M  V30 3606 C 339.622 -2.12036 -2.91055 0
M  V30 3607 C 339.475 -3.63929 -2.6434 0
M  V30 3608 C 340.794 -1.9916 -3.92458 0
M  V30 3609 H 337.913 -0.454542 -0.580138 0
M  V30 3610 H 340.555 -1.63335 -0.970647 0
M  V30 3611 H 338.705 -1.79265 -3.44669 0
M  V30 3612 H 340.377 -4.06978 -2.17178 0
M  V30 3613 H 338.62 -3.85935 -1.98082 0
M  V30 3614 H 339.291 -4.20341 -3.57796 0
M  V30 3615 H 341.767 -2.27895 -3.48143 0
M  V30 3616 H 340.643 -2.62484 -4.82072 0
M  V30 3617 H 340.904 -0.963082 -4.31482 0
M  V30 3618 N 339.963 1.05934 -1.16686 0
M  V30 3619 C 340.893 2.1546 -0.899949 0
M  V30 3620 C 341.874 1.69391 0.155154 0
M  V30 3621 O 343.059 1.94199 0.00648693 0
M  V30 3622 C 340.189 3.44939 -0.404241 0
M  V30 3623 C 339.143 4.04536 -1.39767 0
M  V30 3624 C 338.469 5.29268 -0.760216 0
M  V30 3625 C 339.769 4.42893 -2.76845 0
M  V30 3626 H 341.463 2.38046 -1.81588 0
M  V30 3627 H 339.009 1.14404 -0.874514 0
M  V30 3628 H 340.962 4.20901 -0.204971 0
M  V30 3629 H 339.686 3.21983 0.547206 0
M  V30 3630 H 338.345 3.30635 -1.58355 0
M  V30 3631 H 337.993 5.02611 0.197831 0
M  V30 3632 H 337.693 5.70101 -1.42332 0
M  V30 3633 H 339.217 6.07924 -0.57105 0
M  V30 3634 H 340.631 5.09921 -2.62019 0
M  V30 3635 H 339.028 4.94721 -3.39663 0
M  V30 3636 H 340.098 3.53584 -3.31823 0
M  V30 3637 N 341.441 0.965919 1.2453 0
M  V30 3638 C 342.404 0.499547 2.2369 0
M  V30 3639 C 343.404 -0.40294 1.5567 0
M  V30 3640 O 344.594 -0.19865 1.73064 0
M  V30 3641 C 341.726 -0.276792 3.39774 0
M  V30 3642 H 342.919 1.37613 2.66463 0
M  V30 3643 H 340.472 0.750324 1.37112 0
M  V30 3644 H 341.207 -1.17055 3.02438 0
M  V30 3645 H 340.992 0.370826 3.90343 0
M  V30 3646 H 342.482 -0.592175 4.1338 0
M  V30 3647 N 342.919 -1.39368 0.735821 0
M  V30 3648 C 343.829 -2.34395 0.0979693 0
M  V30 3649 C 344.845 -1.58361 -0.720968 0
M  V30 3650 O 346.021 -1.90648 -0.649245 0
M  V30 3651 C 343.086 -3.37393 -0.797916 0
M  V30 3652 C 342.147 -4.29287 0.0333662 0
M  V30 3653 C 341.38 -5.27365 -0.819854 0
M  V30 3654 O 341.603 -5.31959 -2.05855 0
M  V30 3655 O 340.537 -6.01389 -0.248079 0
M  V30 3656 H 344.363 -2.90601 0.882315 0
M  V30 3657 H 341.948 -1.40909 0.4965 0
M  V30 3658 H 343.83 -4.00505 -1.31048 0
M  V30 3659 H 342.505 -2.83571 -1.56106 0
M  V30 3660 H 341.412 -3.69395 0.591475 0
M  V30 3661 H 342.745 -4.86317 0.758752 0
M  V30 3662 N 344.397 -0.483516 -1.5 0
M  V30 3663 C 345.307 0.309172 -2.32554 0
M  V30 3664 C 346.323 0.984159 -1.43493 0
M  V30 3665 O 347.499 0.969399 -1.76535 0
M  V30 3666 C 344.564 1.36979 -3.18493 0
M  V30 3667 C 343.625 0.710095 -4.23387 0
M  V30 3668 C 342.858 1.72018 -5.05218 0
M  V30 3669 O 343.081 2.94813 -4.88305 0
M  V30 3670 O 342.015 1.28515 -5.8802 0
M  V30 3671 H 345.841 -0.366064 -3.01486 0
M  V30 3672 H 343.426 -0.24514 -1.47375 0
M  V30 3673 H 345.308 1.98385 -3.71781 0
M  V30 3674 H 343.983 2.02828 -2.52275 0
M  V30 3675 H 342.89 0.0567539 -3.74057 0
M  V30 3676 H 344.223 0.0943557 -4.9211 0
M  V30 3677 N 345.875 1.56104 -0.216619 0
M  V30 3678 C 347.103 2.02563 0.421413 0
M  V30 3679 C 347.518 1.0965 1.53695 0
M  V30 3680 O 346.875 0.10521 1.82196 0
M  V30 3681 C 346.926 3.48584 0.957665 0
M  V30 3682 O 346.647 4.37953 -0.113389 0
M  V30 3683 C 348.148 4.10664 1.66943 0
M  V30 3684 H 345.368 0.662944 0.103665 0
M  V30 3685 H 347.912 2.01793 -0.331629 0
M  V30 3686 H 346.067 3.49985 1.661 0
M  V30 3687 H 346.481 5.23704 0.288932 0
M  V30 3688 H 347.955 5.14622 1.99671 0
M  V30 3689 H 348.432 3.55373 2.58083 0
M  V30 3690 H 349.038 4.13098 1.01142 0
M  V30 3691 N 347.353 -0.0568162 1.57498 0
M  V30 3692 C 348.303 -1.07315 2.01166 0
M  V30 3693 C 349.287 -1.33632 0.896171 0
M  V30 3694 O 350.479 -1.33682 1.16009 0
M  V30 3695 C 347.608 -2.38257 2.47161 0
M  V30 3696 C 346.694 -2.1515 3.65474 0
M  V30 3697 N 347.085 -1.62014 4.7915 0
M  V30 3698 C 345.383 -2.45559 3.72313 0
M  V30 3699 C 346.084 -1.54069 5.60926 0
M  V30 3700 N 345.06 -2.00652 5.05213 0
M  V30 3701 H 348.862 -0.655878 2.86488 0
M  V30 3702 H 346.376 -0.263635 1.60246 0
M  V30 3703 H 348.373 -3.11845 2.76691 0
M  V30 3704 H 347.033 -2.80687 1.63232 0
M  V30 3705 H 348.044 -1.30667 5.01145 0
M  V30 3706 H 344.721 -2.91253 2.99129 0
M  V30 3707 H 346.111 -1.13712 6.62208 0
M  V30 3708 N 348.832 -1.54138 -0.328536 0
M  V30 3709 C 349.78 -1.83894 -1.42428 0
M  V30 3710 C 350.774 -0.710478 -1.53781 0
M  V30 3711 O 351.98 -0.894062 -1.56226 0
M  V30 3712 H 348.355 -0.582837 -0.475189 0
M  V30 3713 H 350.326 -2.75537 -1.14552 0
M  V30 3714 C 349.075 -2.07866 -2.78724 0
M  V30 3715 H 348.398 -2.94158 -2.7076 0
M  V30 3716 H 349.838 -2.32644 -3.54476 0
M  V30 3717 C 348.297 -0.868689 -3.25508 0
M  V30 3718 O 348.827 -0.0754908 -4.01629 0
M  V30 3719 N 347.033 -0.681711 -2.82491 0
M  V30 3720 H 346.58 -1.32838 -2.20708 0
M  V30 3721 H 346.538 0.126374 -3.14146 0
M  V30 3722 N 350.31 0.590341 -1.46126 0
M  V30 3723 C 351.557 1.34882 -1.5104 0
M  V30 3724 C 351.885 1.93849 -0.159021 0
M  V30 3725 O 351.14 1.76544 0.844436 0
M  V30 3726 C 351.439 2.5032 -2.55097 0
M  V30 3727 C 351.105 2.09394 -3.99331 0
M  V30 3728 C 349.767 1.97947 -4.38601 0
M  V30 3729 C 352.119 1.77712 -4.89967 0
M  V30 3730 C 349.447 1.53065 -5.66381 0
M  V30 3731 C 351.799 1.34312 -6.18177 0
M  V30 3732 C 350.463 1.21436 -6.56361 0
M  V30 3733 H 349.733 0.493568 -0.552695 0
M  V30 3734 H 352.38 0.665539 -1.79563 0
M  V30 3735 H 350.685 3.24062 -2.20207 0
M  V30 3736 H 352.382 3.08541 -2.56132 0
M  V30 3737 H 348.972 2.19235 -3.68285 0
M  V30 3738 H 353.156 1.85445 -4.60352 0
M  V30 3739 H 348.412 1.41733 -5.94745 0
M  V30 3740 H 352.586 1.08849 -6.87841 0
M  V30 3741 H 350.213 0.864345 -7.5527 0
M  V30 3742 N 351.788 1.33704 0.83433 0
M  V30 3743 C 353.036 1.25169 1.58673 0
M  V30 3744 C 353.357 -0.18127 1.94156 0
M  V30 3745 O 352.627 -1.11113 1.6134 0
M  V30 3746 H 351.207 0.4603 0.58833 0
M  V30 3747 H 353.869 1.67478 0.996847 0
M  V30 3748 H 352.965 1.84856 2.51465 0
M  V30 3749 N 353.266 -1.05314 1.17247 0
M  V30 3750 C 354.196 -2.1498 0.911362 0
M  V30 3751 C 355.177 -1.69471 -0.146169 0
M  V30 3752 O 356.362 -1.942 0.003812 0
M  V30 3753 C 353.492 -3.4472 0.422528 0
M  V30 3754 C 352.446 -4.03789 1.4191 0
M  V30 3755 C 351.772 -5.28858 0.788274 0
M  V30 3756 C 353.072 -4.41418 2.7919 0
M  V30 3757 H 354.766 -2.3708 1.82848 0
M  V30 3758 H 352.312 -1.13938 0.880569 0
M  V30 3759 H 354.265 -4.20787 0.227289 0
M  V30 3760 H 352.989 -3.22269 -0.530123 0
M  V30 3761 H 351.648 -3.2979 1.60106 0
M  V30 3762 H 351.296 -5.02709 -0.171173 0
M  V30 3763 H 350.996 -5.69338 1.45353 0
M  V30 3764 H 352.52 -6.07612 0.603282 0
M  V30 3765 H 353.934 -5.08524 2.64719 0
M  V30 3766 H 352.331 -4.92913 3.42282 0
M  V30 3767 H 353.401 -3.51819 3.33693 0
M  V30 3768 N 354.744 -0.972509 -1.24016 0
M  V30 3769 C 355.692 -0.498562 -2.27194 0
M  V30 3770 C 356.686 0.440372 -1.63576 0
M  V30 3771 O 357.892 0.315133 -1.7722 0
M  V30 3772 H 354.267 -0.142775 -0.738322 0
M  V30 3773 H 356.238 -1.38065 -2.64539 0
M  V30 3774 C 354.987 0.191072 -3.47175 0
M  V30 3775 H 354.31 -0.522318 -3.96373 0
M  V30 3776 H 355.75 0.486445 -4.212 0
M  V30 3777 C 354.209 1.41967 -3.05527 0
M  V30 3778 O 354.739 2.51642 -3.13112 0
M  V30 3779 N 352.945 1.28746 -2.60524 0
M  V30 3780 H 352.492 0.395089 -2.54552 0
M  V30 3781 H 352.45 2.11061 -2.33025 0
M  V30 3782 N 356.222 1.38976 -0.743202 0
M  V30 3783 C 357.469 2.00343 -0.294752 0
M  V30 3784 C 357.797 1.58983 1.12047 0
M  V30 3785 O 357.052 0.813809 1.77977 0
M  V30 3786 C 357.351 3.55647 -0.353517 0
M  V30 3787 C 357.017 4.16685 -1.72292 0
M  V30 3788 C 355.679 4.3307 -2.09771 0
M  V30 3789 C 358.031 4.50464 -2.62168 0
M  V30 3790 C 355.359 4.80526 -3.36618 0
M  V30 3791 C 357.711 4.99332 -3.88395 0
M  V30 3792 C 356.375 5.13924 -4.25956 0
M  V30 3793 H 355.645 0.733108 -0.107857 0
M  V30 3794 H 358.292 1.6618 -0.951651 0
M  V30 3795 H 356.597 3.89884 0.386954 0
M  V30 3796 H 358.294 4.00998 0.0117269 0
M  V30 3797 H 354.884 4.04339 -1.42155 0
M  V30 3798 H 359.068 4.37416 -2.3448 0
M  V30 3799 H 354.324 4.90008 -3.65653 0
M  V30 3800 H 358.498 5.2444 -4.58187 0
M  V30 3801 H 356.125 5.50457 -5.2431 0
M  V30 3802 N 357.7 0.491464 1.49741 0
M  V30 3803 C 358.63 -0.28154 2.31796 0
M  V30 3804 C 359.611 -0.971473 1.3963 0
M  V30 3805 O 360.796 -0.964719 1.68543 0
M  V30 3806 C 357.926 -1.35203 3.19902 0
M  V30 3807 C 356.88 -0.782529 4.20786 0
M  V30 3808 C 356.206 -1.95283 4.97764 0
M  V30 3809 C 357.506 0.21999 5.21837 0
M  V30 3810 H 359.2 0.403355 2.96671 0
M  V30 3811 H 356.746 0.195425 1.42668 0
M  V30 3812 H 358.699 -1.90045 3.76113 0
M  V30 3813 H 357.423 -2.06598 2.52953 0
M  V30 3814 H 356.082 -0.255928 3.65706 0
M  V30 3815 H 355.73 -2.65423 4.2727 0
M  V30 3816 H 355.43 -1.57789 5.66018 0
M  V30 3817 H 356.954 -2.50577 5.56816 0
M  V30 3818 H 358.368 -0.23996 5.72798 0
M  V30 3819 H 356.765 0.51026 5.97927 0
M  V30 3820 H 357.835 1.13911 4.7133 0
M  V30 3821 N 359.178 -1.55987 0.224894 0
M  V30 3822 C 360.11 -2.17722 -0.716224 0
M  V30 3823 C 361.123 -1.14723 -1.15509 0
M  V30 3824 O 362.312 -1.41688 -1.08567 0
M  V30 3825 C 359.412 -2.74873 -1.98238 0
M  V30 3826 C 358.585 -4.03074 -1.69853 0
M  V30 3827 C 357.644 -4.44757 -2.81208 0
M  V30 3828 O 356.67 -5.11587 -2.49534 0
M  V30 3829 N 357.872 -4.10716 -4.10235 0
M  V30 3830 H 360.637 -2.99109 -0.188123 0
M  V30 3831 H 358.198 -1.6184 0.0440123 0
M  V30 3832 H 360.19 -2.99727 -2.7193 0
M  V30 3833 H 358.76 -1.9777 -2.42086 0
M  V30 3834 H 357.98 -3.86041 -0.797875 0
M  V30 3835 H 359.268 -4.86701 -1.48324 0
M  V30 3836 H 358.666 -3.57019 -4.38809 0
M  V30 3837 H 357.223 -4.40455 -4.80461 0
M  V30 3838 N 360.656 0.0484629 -1.57525 0
M  V30 3839 C 361.884 0.755421 -1.92616 0
M  V30 3840 C 362.299 1.69919 -0.822984 0
M  V30 3841 O 361.656 1.81378 0.202085 0
M  V30 3842 C 361.707 1.52915 -3.27566 0
M  V30 3843 O 361.428 0.62329 -4.33644 0
M  V30 3844 C 362.929 2.33502 -3.76818 0
M  V30 3845 H 360.149 0.213465 -0.63614 0
M  V30 3846 H 362.693 0.0117698 -2.04497 0
M  V30 3847 H 360.848 2.22486 -3.17142 0
M  V30 3848 H 361.262 1.16383 -5.11425 0
M  V30 3849 H 362.736 2.83214 -4.73808 0
M  V30 3850 H 363.213 3.14068 -3.07014 0
M  V30 3851 H 363.819 1.69043 -3.90262 0
M  V30 3852 N 362.134 1.5431 0.320358 0
M  V30 3853 C 363.383 1.7188 1.05546 0
M  V30 3854 C 363.696 0.501143 1.89071 0
M  V30 3855 O 364.902 0.558258 2.65699 0
M  V30 3856 C 363.358 3.04025 1.92605 0
M  V30 3857 C 362.966 4.33207 1.14176 0
M  V30 3858 C 364.71 3.30959 2.65832 0
M  V30 3859 C 362.617 5.56412 2.00399 0
M  V30 3860 H 361.547 0.640547 0.397763 0
M  V30 3861 H 364.198 1.80802 0.313522 0
M  V30 3862 H 362.58 2.89019 2.7071 0
M  V30 3863 H 363.754 4.58989 0.40819 0
M  V30 3864 H 362.069 4.13062 0.526165 0
M  V30 3865 H 364.666 4.20203 3.30656 0
M  V30 3866 H 365.009 2.48979 3.33639 0
M  V30 3867 H 365.542 3.46847 1.94787 0
M  V30 3868 H 362.281 6.41004 1.37094 0
M  V30 3869 H 361.801 5.34844 2.7148 0
M  V30 3870 H 363.48 5.92938 2.58908 0
M  V30 3871 N 363.613 -0.582584 1.46437 0
M  V30 3872 C 364.56 -1.69164 1.5701 0
M  V30 3873 C 365.53 -1.60847 0.414403 0
M  V30 3874 O 366.715 -1.80058 0.631171 0
M  V30 3875 C 363.855 -3.075 1.56646 0
M  V30 3876 C 362.968 -3.2644 2.82951 0
M  V30 3877 C 362.103 -4.55026 2.7409 0
M  V30 3878 C 361.142 -4.6731 3.95333 0
M  V30 3879 N 360.279 -5.87221 3.84858 0
M  V30 3880 H 365.119 -1.59464 2.51744 0
M  V30 3881 H 362.656 -0.777186 1.24893 0
M  V30 3882 H 364.614 -3.8757 1.5442 0
M  V30 3883 H 363.244 -3.16096 0.654439 0
M  V30 3884 H 362.296 -2.39974 2.95155 0
M  V30 3885 H 363.608 -3.31385 3.72808 0
M  V30 3886 H 362.762 -5.43324 2.6997 0
M  V30 3887 H 361.501 -4.52519 1.81873 0
M  V30 3888 H 360.506 -3.77429 3.99784 0
M  V30 3889 H 361.731 -4.71595 4.88646 0
M  V30 3890 H 359.677 -5.85712 2.95427 0
M  V30 3891 H 359.594 -5.93435 4.6837 0
M  V30 3892 H 360.862 -6.7795 3.84713 0
M  V30 3893 N 365.091 -1.34144 -0.827227 0
M  V30 3894 C 366.339 -1.26009 -1.58007 0
M  V30 3895 C 366.66 0.170971 -1.94249 0
M  V30 3896 O 365.93 1.10256 -1.61927 0
M  V30 3897 H 364.51 -0.463414 -0.585881 0
M  V30 3898 H 367.172 -1.68005 -0.987951 0
M  V30 3899 H 366.268 -1.86187 -2.50481 0
M  V30 3900 N 366.569 1.04691 -1.17803 0
M  V30 3901 C 367.516 2.12557 -0.899343 0
M  V30 3902 C 368.486 1.65339 0.158771 0
M  V30 3903 O 369.671 1.90789 0.0204797 0
M  V30 3904 C 366.811 3.42481 -0.424315 0
M  V30 3905 C 365.924 4.03346 -1.54713 0
M  V30 3906 C 365.059 5.21208 -1.02546 0
M  V30 3907 C 364.098 5.74089 -2.12339 0
M  V30 3908 N 363.235 6.83247 -1.61612 0
M  V30 3909 H 368.075 2.35734 -1.823 0
M  V30 3910 H 365.612 1.1564 -0.909159 0
M  V30 3911 H 367.57 4.16996 -0.130421 0
M  V30 3912 H 366.2 3.19471 0.462377 0
M  V30 3913 H 365.252 3.2622 -1.95664 0
M  V30 3914 H 366.564 4.38628 -2.37501 0
M  V30 3915 H 365.718 6.02812 -0.685718 0
M  V30 3916 H 364.457 4.87414 -0.167084 0
M  V30 3917 H 363.462 4.91111 -2.47165 0
M  V30 3918 H 364.687 6.0993 -2.98601 0
M  V30 3919 H 362.633 6.5134 -0.780533 0
M  V30 3920 H 362.55 7.17559 -2.38003 0
M  V30 3921 H 363.818 7.68491 -1.30545 0
M  V30 3922 N 368.047 0.979072 1.23499 0
M  V30 3923 C 369.296 0.642751 1.91185 0
M  V30 3924 C 369.609 -0.827253 1.77245 0
M  V30 3925 O 370.815 -1.27458 2.39722 0
M  V30 3926 C 369.271 1.09901 3.42709 0
M  V30 3927 C 368.879 2.59327 3.65313 0
M  V30 3928 C 370.623 0.836371 4.16179 0
M  V30 3929 C 368.53 2.98627 5.10467 0
M  V30 3930 H 367.46 0.236698 0.715884 0
M  V30 3931 H 370.111 1.1868 1.39955 0
M  V30 3932 H 368.493 0.48319 3.93041 0
M  V30 3933 H 369.667 3.26136 3.25533 0
M  V30 3934 H 367.982 2.83323 3.05151 0
M  V30 3935 H 370.579 1.10586 5.23139 0
M  V30 3936 H 370.922 -0.227509 4.15678 0
M  V30 3937 H 371.455 1.41371 3.71832 0
M  V30 3938 H 368.194 4.04133 5.16098 0
M  V30 3939 H 367.714 2.3651 5.51201 0
M  V30 3940 H 369.393 2.89159 5.78788 0
M  V30 3941 N 369.525 -1.3858 0.750561 0
M  V30 3942 C 370.771 -2.00481 0.305825 0
M  V30 3943 C 371.104 -1.5944 -1.10872 0
M  V30 3944 O 370.379 -0.83052 -1.75877 0
M  V30 3945 C 370.662 -3.5758 0.425287 0
M  V30 3946 C 370.515 -4.08594 1.88072 0
M  V30 3947 C 371.834 -4.39719 -0.183122 0
M  V30 3948 H 368.953 -0.728348 0.112598 0
M  V30 3949 H 371.595 -1.64566 0.949638 0
M  V30 3950 H 369.745 -3.88306 -0.122828 0
M  V30 3951 H 371.417 -3.88523 2.48691 0
M  V30 3952 H 369.66 -3.61574 2.39681 0
M  V30 3953 H 370.331 -5.177 1.91548 0
M  V30 3954 H 372.807 -4.15128 0.284303 0
M  V30 3955 H 371.683 -5.48856 -0.0692757 0
M  V30 3956 H 371.944 -4.23434 -1.27106 0
M  V30 3957 N 371.003 -0.499398 -1.49478 0
M  V30 3958 C 372.228 0.044722 -2.07352 0
M  V30 3959 C 372.653 1.30207 -1.35749 0
M  V30 3960 O 372.011 1.76516 -0.413732 0
M  V30 3961 C 372.059 0.283013 -3.59488 0
M  V30 3962 O 371.163 1.35804 -3.89398 0
M  V30 3963 H 370.504 -0.0255147 -0.66351 0
M  V30 3964 H 373.034 -0.698561 -1.92305 0
M  V30 3965 H 373.044 0.515007 -4.04737 0
M  V30 3966 H 371.719 -0.635636 -4.11014 0
M  V30 3967 H 370.296 1.11113 -3.55961 0
M  V30 3968 N 372.481 1.55866 -0.233164 0
M  V30 3969 C 373.428 2.20796 0.67215 0
M  V30 3970 C 374.398 1.16731 1.18166 0
M  V30 3971 O 375.583 1.45129 1.23864 0
M  V30 3972 C 372.723 2.90072 1.86955 0
M  V30 3973 C 371.836 4.08759 1.39786 0
M  V30 3974 C 370.971 4.65787 2.55374 0
M  V30 3975 C 370.01 5.76752 2.04998 0
M  V30 3976 N 369.147 6.28021 3.13901 0
M  V30 3977 H 373.987 2.9779 0.111749 0
M  V30 3978 H 371.524 1.47036 0.0434007 0
M  V30 3979 H 373.482 3.28428 2.57276 0
M  V30 3980 H 372.112 2.15575 2.40265 0
M  V30 3981 H 371.164 3.7581 0.589173 0
M  V30 3982 H 372.476 4.88906 0.98856 0
M  V30 3983 H 371.63 5.06646 3.33758 0
M  V30 3984 H 370.369 3.84828 2.99598 0
M  V30 3985 H 369.374 5.35383 1.25079 0
M  V30 3986 H 370.599 6.59553 1.61759 0
M  V30 3987 H 368.545 5.49971 3.57586 0
M  V30 3988 H 368.462 7.03323 2.7726 0
M  V30 3989 H 369.73 6.73538 3.92386 0
M  V30 3990 N 373.959 -0.0401083 1.57549 0
M  V30 3991 C 374.891 -1.07149 2.02612 0
M  V30 3992 C 375.904 -1.33126 0.937085 0
M  V30 3993 O 377.093 -1.30808 1.21456 0
M  V30 3994 C 374.193 -2.41561 2.37701 0
M  V30 3995 C 373.366 -2.35096 3.68848 0
M  V30 3996 C 372.425 -3.51867 3.91249 0
M  V30 3997 O 371.451 -3.3186 4.62447 0
M  V30 3998 N 372.653 -4.73351 3.36035 0
M  V30 3999 H 375.418 -0.687485 2.91708 0
M  V30 4000 H 372.979 -0.228248 1.60283 0
M  V30 4001 H 374.971 -3.18379 2.49833 0
M  V30 4002 H 373.541 -2.71846 1.54332 0
M  V30 4003 H 372.761 -1.4345 3.67173 0
M  V30 4004 H 374.049 -2.27908 4.54901 0
M  V30 4005 H 373.447 -4.92507 2.78304 0
M  V30 4006 H 372.004 -5.47572 3.53565 0
M  V30 4007 N 375.437 -1.54477 -0.31217 0
M  V30 4008 C 376.384 -1.84655 -1.38461 0
M  V30 4009 C 377.354 -0.694536 -1.50882 0
M  V30 4010 O 378.539 -0.942081 -1.6592 0
M  V30 4011 C 375.679 -2.0896 -2.74645 0
M  V30 4012 C 374.792 -3.36618 -2.70763 0
M  V30 4013 C 373.927 -3.50824 -3.98868 0
M  V30 4014 C 372.966 -4.72315 -3.89339 0
M  V30 4015 N 372.103 -4.83387 -5.09197 0
M  V30 4016 H 376.943 -2.76142 -1.12026 0
M  V30 4017 H 374.48 -1.36748 -0.542065 0
M  V30 4018 H 376.438 -2.21045 -3.53829 0
M  V30 4019 H 375.068 -1.20752 -2.99364 0
M  V30 4020 H 374.12 -3.33211 -1.83506 0
M  V30 4021 H 375.432 -4.25917 -2.59608 0
M  V30 4022 H 374.586 -3.62513 -4.86486 0
M  V30 4023 H 373.325 -2.59638 -4.12843 0
M  V30 4024 H 372.33 -4.6067 -3.00105 0
M  V30 4025 H 373.555 -5.64897 -3.76919 0
M  V30 4026 H 371.501 -3.9512 -5.23657 0
M  V30 4027 H 371.418 -5.66669 -5.00422 0
M  V30 4028 H 372.686 -4.9942 -5.98498 0
M  V30 4029 N 376.915 0.57481 -1.46744 0
M  V30 4030 C 377.845 1.69337 -1.60771 0
M  V30 4031 C 378.826 1.63825 -0.457736 0
M  V30 4032 O 380.011 1.8172 -0.684947 0
M  V30 4033 C 377.141 3.0798 -1.60517 0
M  V30 4034 C 376.095 3.28327 -2.74564 0
M  V30 4035 C 375.421 4.67578 -2.59373 0
M  V30 4036 C 376.721 3.15398 -4.16319 0
M  V30 4037 H 378.415 1.57853 -2.54407 0
M  V30 4038 H 375.961 0.75799 -1.22436 0
M  V30 4039 H 377.914 3.86061 -1.68923 0
M  V30 4040 H 376.638 3.20381 -0.634305 0
M  V30 4041 H 375.297 2.52649 -2.65639 0
M  V30 4042 H 374.945 4.76755 -1.60353 0
M  V30 4043 H 374.645 4.82144 -3.35873 0
M  V30 4044 H 376.169 5.47817 -2.69682 0
M  V30 4045 H 377.583 3.83315 -4.26313 0
M  V30 4046 H 375.98 3.41482 -4.93468 0
M  V30 4047 H 377.05 2.12372 -4.3592 0
M  V30 4048 N 378.394 1.34581 0.820102 0
M  V30 4049 C 379.304 1.28471 1.96297 0
M  V30 4050 C 380.32 0.191902 1.72939 0
M  V30 4051 O 381.496 0.418879 1.96996 0
M  V30 4052 C 378.561 1.04281 3.30645 0
M  V30 4053 C 377.622 2.22745 3.66992 0
M  V30 4054 C 376.855 1.997 4.9493 0
M  V30 4055 O 377.078 0.956656 5.6232 0
M  V30 4056 O 376.012 2.86723 5.2922 0
M  V30 4057 H 379.838 2.24624 2.04396 0
M  V30 4058 H 377.423 1.14816 0.955913 0
M  V30 4059 H 379.305 0.925841 4.11104 0
M  V30 4060 H 377.98 0.111697 3.23507 0
M  V30 4061 H 376.887 2.40003 2.86966 0
M  V30 4062 H 378.22 3.14257 3.78819 0
M  V30 4063 N 379.872 -1.04064 1.18357 0
M  V30 4064 C 380.802 -2.14001 0.934113 0
M  V30 4065 C 381.783 -1.69616 -0.128186 0
M  V30 4066 O 382.968 -1.94185 0.0244093 0
M  V30 4067 C 380.098 -3.44253 0.459066 0
M  V30 4068 C 379.052 -4.02261 1.46185 0
M  V30 4069 C 378.378 -5.27992 0.844322 0
M  V30 4070 C 379.678 -4.38432 2.83856 0
M  V30 4071 H 381.372 -2.35127 1.85352 0
M  V30 4072 H 378.918 -1.12998 0.892604 0
M  V30 4073 H 380.871 -4.20522 0.271907 0
M  V30 4074 H 379.595 -3.22813 -0.495912 0
M  V30 4075 H 378.254 -3.28074 1.63595 0
M  V30 4076 H 377.902 -5.02862 -0.117845 0
M  V30 4077 H 377.602 -5.67765 1.51384 0
M  V30 4078 H 379.126 -6.06938 0.667693 0
M  V30 4079 H 380.54 -5.05688 2.70098 0
M  V30 4080 H 378.937 -4.89254 3.47491 0
M  V30 4081 H 380.007 -3.4826 3.37406 0
M  V30 4082 N 381.35 -0.985608 -1.22978 0
M  V30 4083 C 382.297 -0.529825 -2.24636 0
M  V30 4084 C 383.267 0.434028 -1.60329 0
M  V30 4085 O 384.452 0.340414 -1.87739 0
M  V30 4086 C 381.592 0.156533 -3.44745 0
M  V30 4087 C 380.705 -0.848197 -4.23591 0
M  V30 4088 C 379.84 -0.136109 -5.31026 0
M  V30 4089 C 378.879 -1.1297 -6.01585 0
M  V30 4090 N 378.016 -0.446415 -7.00679 0
M  V30 4091 H 382.856 -1.40148 -2.62988 0
M  V30 4092 H 380.393 -0.702168 -1.29259 0
M  V30 4093 H 382.351 0.571324 -4.1327 0
M  V30 4094 H 380.981 0.992025 -3.07179 0
M  V30 4095 H 380.033 -1.38135 -3.54433 0
M  V30 4096 H 381.345 -1.60512 -4.72268 0
M  V30 4097 H 380.499 0.335784 -6.0577 0
M  V30 4098 H 379.238 0.653373 -4.83304 0
M  V30 4099 H 378.243 -1.6123 -5.25628 0
M  V30 4100 H 379.468 -1.91993 -6.51395 0
M  V30 4101 H 377.414 0.323763 -6.55201 0
M  V30 4102 H 377.331 -1.1419 -7.47326 0
M  V30 4103 H 378.599 0.00291697 -7.795 0
M  V30 4104 N 382.828 1.3818 -0.7579 0
M  V30 4105 C 384.056 2.04301 -0.326937 0
M  V30 4106 C 384.471 1.57163 1.0462 0
M  V30 4107 O 383.828 0.746626 1.66529 0
M  V30 4108 C 383.879 3.59846 -0.345363 0
M  V30 4109 O 383.6 4.05256 -1.66432 0
M  V30 4110 C 385.101 4.4319 0.098927 0
M  V30 4111 H 382.321 0.656443 -0.139012 0
M  V30 4112 H 384.865 1.76786 -1.02796 0
M  V30 4113 H 383.02 3.86182 0.306955 0
M  V30 4114 H 383.434 4.99709 -1.59345 0
M  V30 4115 H 384.908 5.51989 0.0348745 0
M  V30 4116 H 385.385 4.23947 1.14741 0
M  V30 4117 H 385.991 4.22051 -0.52468 0
M  V30 4118 N 384.306 0.507319 1.49211 0
M  V30 4119 C 385.534 -0.0315749 2.06876 0
M  V30 4120 C 385.949 -1.30241 1.36685 0
M  V30 4121 O 385.306 -1.76937 0.447152 0
M  V30 4122 C 385.357 -0.282627 3.60393 0
M  V30 4123 O 385.078 0.937835 4.27944 0
M  V30 4124 C 386.579 -0.864453 4.3479 0
M  V30 4125 H 383.799 0.0233048 0.670595 0
M  V30 4126 H 386.343 0.706484 1.91909 0
M  V30 4127 H 384.498 -0.97068 3.75042 0
M  V30 4128 H 384.912 0.704567 5.19746 0
M  V30 4129 H 386.386 -0.989664 5.43056 0
M  V30 4130 H 386.863 -1.86382 3.97692 0
M  V30 4131 H 387.469 -0.213672 4.24763 0
M  V30 4132 N 385.784 -1.5574 0.241426 0
M  V30 4133 C 386.694 -2.2479 -0.671305 0
M  V30 4134 C 387.71 -1.26217 -1.19772 0
M  V30 4135 O 388.886 -1.59079 -1.23514 0
M  V30 4136 C 385.951 -2.92966 -1.85396 0
M  V30 4137 C 385.012 -4.06935 -1.36756 0
M  V30 4138 C 384.245 -4.71851 -2.49384 0
M  V30 4139 O 384.468 -4.35823 -3.67987 0
M  V30 4140 O 383.402 -5.60467 -2.19454 0
M  V30 4141 H 387.228 -3.0349 -0.112966 0
M  V30 4142 H 384.813 -1.49397 0.0101513 0
M  V30 4143 H 386.695 -3.35927 -2.54423 0
M  V30 4144 H 385.37 -2.17211 -2.40002 0
M  V30 4145 H 384.277 -3.68503 -0.644726 0
M  V30 4146 H 385.61 -4.84492 -0.867647 0
M  V30 4147 N 387.262 0.0317525 -1.57568 0
M  V30 4148 C 388.225 1.01783 -2.0536 0
M  V30 4149 C 389.225 1.29203 -0.957253 0
M  V30 4150 O 390.415 1.24251 -1.22095 0
M  V30 4151 C 387.547 2.35137 -2.46827 0
M  V30 4152 H 388.74 0.605062 -2.93733 0
M  V30 4153 H 386.293 0.278514 -1.53799 0
M  V30 4154 H 387.028 2.81168 -1.61602 0
M  V30 4155 H 386.813 2.16566 -3.26866 0
M  V30 4156 H 388.303 3.05938 -2.84239 0
M  V30 4157 N 388.74 1.54641 0.303973 0
M  V30 4158 C 389.988 1.73437 1.0375 0
M  V30 4159 C 390.309 0.521449 1.87899 0
M  V30 4160 O 389.579 -0.46432 1.90318 0
M  V30 4161 H 388.159 0.639518 0.386039 0
M  V30 4162 H 390.821 1.91988 0.335675 0
M  V30 4163 H 389.917 2.62235 1.69231 0
M  V30 4164 N 390.218 -0.567019 1.47046 0
M  V30 4165 C 391.629 -1.14916 1.47143 0
M  V30 4166 C 391.98 -1.94954 0.220767 0
M  V30 4167 O 391.105 -2.05602 -0.67505 0
M  V30 4168 C 391.7 -2.09069 2.666 0
M  V30 4169 C 390.259 -2.62575 2.69687 0
M  V30 4170 C 389.406 -1.38755 2.40088 0
M  V30 4171 H 392.357 -0.354126 1.54699 0
M  V30 4172 H 392.378 -2.92789 2.43011 0
M  V30 4173 H 391.89 -1.50789 3.57609 0
M  V30 4174 H 389.991 -3.24681 1.82792 0
M  V30 4175 H 390.104 -3.04239 3.70102 0
M  V30 4176 H 388.468 -1.69098 1.90468 0
M  V30 4177 H 389.251 -0.822822 3.33293 0
M  V30 4178 N 391.696 -1.35014 -0.812953 0
M  V30 4179 C 393.112 -1.14914 -1.10757 0
M  V30 4180 C 393.312 0.0426818 -2.01455 0
M  V30 4181 O 392.368 0.715212 -2.42159 0
M  V30 4182 C 393.681 -2.44911 -1.74468 0
M  V30 4183 C 395.229 -2.5106 -1.86917 0
M  V30 4184 C 395.704 -3.81085 -2.54044 0
M  V30 4185 N 397.195 -3.82301 -2.61535 0
M  V30 4186 C 397.93 -4.79634 -3.14227 0
M  V30 4187 N 397.426 -5.87353 -3.67407 0
M  V30 4188 N 399.219 -4.67078 -3.12721 0
M  V30 4189 H 391.37 -2.1136 -0.20989 0
M  V30 4190 H 393.633 -0.935128 -0.155692 0
M  V30 4191 H 393.339 -3.32267 -1.15289 0
M  V30 4192 H 393.213 -2.58989 -2.74234 0
M  V30 4193 H 395.6 -1.64137 -2.45241 0
M  V30 4194 H 395.681 -2.40901 -0.860242 0
M  V30 4195 H 395.325 -4.68402 -1.96372 0
M  V30 4196 H 395.255 -3.88529 -3.55461 0
M  V30 4197 H 397.746 -3.04465 -2.23851 0
M  V30 4198 H 398.059 -6.57624 -4.05894 0
M  V30 4199 H 396.404 -5.91054 -3.65623 0
M  V30 4200 H 399.595 -3.82067 -2.70449 0
M  V30 4201 H 399.768 -5.43098 -3.53481 0
M  V30 4202 N 393.175 1.03435 -1.18907 0
M  V30 4203 C 394.105 2.13503 -0.945448 0
M  V30 4204 C 395.086 1.69682 0.119189 0
M  V30 4205 O 396.271 1.94169 -0.034707 0
M  V30 4206 C 393.401 3.44004 -0.477316 0
M  V30 4207 C 392.355 4.0148 -1.48316 0
M  V30 4208 C 391.681 5.27537 -0.872311 0
M  V30 4209 C 392.981 4.36921 -2.86177 0
M  V30 4210 H 394.675 2.34141 -1.86597 0
M  V30 4211 H 392.221 1.12523 -0.898584 0
M  V30 4212 H 394.174 4.20372 -0.294204 0
M  V30 4213 H 392.898 3.23072 0.478786 0
M  V30 4214 H 391.557 3.27201 -1.65332 0
M  V30 4215 H 391.205 5.02917 0.0911752 0
M  V30 4216 H 390.905 5.66954 -1.54393 0
M  V30 4217 H 392.429 6.06576 -0.699871 0
M  V30 4218 H 393.843 5.04248 -2.72776 0
M  V30 4219 H 392.24 4.87405 -3.50081 0
M  V30 4220 H 393.31 3.46466 -3.39248 0
M  V30 4221 N 394.653 0.992116 1.22453 0
M  V30 4222 C 395.586 0.486701 2.22949 0
M  V30 4223 C 396.564 -0.45259 1.56174 0
M  V30 4224 O 397.748 -0.378317 1.84665 0
M  V30 4225 C 394.875 -0.294537 3.37417 0
M  V30 4226 C 393.921 0.590628 4.22391 0
M  V30 4227 S 394.754 2.04546 4.94895 0
M  V30 4228 C 395.91 1.27369 6.12803 0
M  V30 4229 H 396.143 1.33828 2.65475 0
M  V30 4230 H 393.676 0.799023 1.32117 0
M  V30 4231 H 395.634 -0.739241 4.03789 0
M  V30 4232 H 394.295 -1.12139 2.934 0
M  V30 4233 H 393.488 -0.0104375 5.03999 0
M  V30 4234 H 393.09 0.972064 3.61147 0
M  V30 4235 H 395.382 0.540943 6.75337 0
M  V30 4236 H 396.325 2.06502 6.7732 0
M  V30 4237 H 396.733 0.787324 5.58983 0
M  V30 4238 N 396.131 -1.37776 0.765217 0
M  V30 4239 C 397.356 -2.04651 0.336537 0
M  V30 4240 C 397.781 -1.57337 -1.03086 0
M  V30 4241 O 397.139 -0.730621 -1.65927 0
M  V30 4242 C 397.187 -3.58577 0.381468 0
M  V30 4243 O 396.291 -4.07706 -0.62042 0
M  V30 4244 H 395.632 -0.64756 0.146838 0
M  V30 4245 H 398.162 -1.76221 1.03959 0
M  V30 4246 H 398.172 -4.07314 0.236448 0
M  V30 4247 H 396.847 -3.9237 1.37907 0
M  V30 4248 H 395.424 -3.70306 -0.439056 0
M  V30 4249 N 397.609 -0.515225 -1.4894 0
M  V30 4250 C 398.857 0.0241671 -2.02086 0
M  V30 4251 C 399.178 1.3616 -1.3959 0
M  V30 4252 O 398.448 1.87841 -0.556121 0
M  V30 4253 H 397.028 0.0119203 -0.746905 0
M  V30 4254 H 399.69 -0.675702 -1.82812 0
M  V30 4255 H 398.786 0.143385 -3.1177 0
M  V30 4256 N 399.087 1.5561 -0.249682 0
M  V30 4257 C 400.034 2.21496 0.648694 0
M  V30 4258 C 401.004 1.17977 1.16921 0
M  V30 4259 O 402.189 1.46434 1.22318 0
M  V30 4260 C 399.329 2.92039 1.83868 0
M  V30 4261 C 398.442 4.10219 1.35442 0
M  V30 4262 C 397.577 4.6847 2.50419 0
M  V30 4263 C 396.616 5.78893 1.98869 0
M  V30 4264 N 395.753 6.31315 3.07223 0
M  V30 4265 H 400.593 2.97892 0.0801582 0
M  V30 4266 H 398.13 1.47074 0.0278031 0
M  V30 4267 H 400.088 3.31138 2.53778 0
M  V30 4268 H 398.718 2.18111 2.37965 0
M  V30 4269 H 397.77 3.76413 0.54928 0
M  V30 4270 H 399.082 4.89927 0.936649 0
M  V30 4271 H 398.236 5.10158 3.28366 0
M  V30 4272 H 396.975 3.87984 2.95499 0
M  V30 4273 H 395.98 5.3668 1.19393 0
M  V30 4274 H 397.205 6.61232 1.54755 0
M  V30 4275 H 395.151 5.53733 3.51732 0
M  V30 4276 H 395.068 7.06224 2.69784 0
M  V30 4277 H 396.336 6.77662 3.8522 0
M  V30 4278 N 400.565 -0.0233959 1.57583 0
M  V30 4279 C 401.497 -1.04994 2.03737 0
M  V30 4280 C 402.51 -1.32125 0.951152 0
M  V30 4281 O 403.699 -1.29512 1.22837 0
M  V30 4282 C 400.799 -2.39026 2.40249 0
M  V30 4283 C 399.972 -2.31171 3.7132 0
M  V30 4284 C 399.031 -3.47698 3.94959 0
M  V30 4285 O 398.057 -3.26937 4.65941 0
M  V30 4286 N 399.259 -4.6976 3.41037 0
M  V30 4287 H 402.024 -0.656507 2.92421 0
M  V30 4288 H 399.585 -0.211235 1.60516 0
M  V30 4289 H 401.577 -3.15712 2.53196 0
M  V30 4290 H 400.147 -2.70194 1.57207 0
M  V30 4291 H 399.367 -1.39547 3.68674 0
M  V30 4292 H 400.655 -2.23071 4.57293 0
M  V30 4293 H 400.053 -4.89528 2.83512 0
M  V30 4294 H 398.61 -5.43791 3.59353 0
M  V30 4295 N 402.043 -1.548 -0.295768 0
M  V30 4296 C 403.006 -1.85363 -1.34808 0
M  V30 4297 C 404.006 -0.726817 -1.43436 0
M  V30 4298 O 405.196 -0.995088 -1.42981 0
M  V30 4299 C 402.328 -2.03859 -2.73229 0
M  V30 4300 H 403.521 -2.7941 -1.08949 0
M  V30 4301 H 401.074 -1.46942 -0.532702 0
M  V30 4302 H 401.809 -1.12117 -3.04303 0
M  V30 4303 H 401.594 -2.8588 -2.68356 0
M  V30 4304 H 403.084 -2.28857 -3.49305 0
M  V30 4305 N 403.521 0.559213 -1.47345 0
M  V30 4306 C 404.484 1.64854 -1.59235 0
M  V30 4307 C 405.484 1.53851 -0.467607 0
M  V30 4308 O 406.674 1.58045 -0.732617 0
M  V30 4309 C 403.806 3.04388 -1.53496 0
M  V30 4310 H 404.999 1.55662 -2.56339 0
M  V30 4311 H 402.552 0.778973 -1.35505 0
M  V30 4312 H 403.287 3.19115 -0.577604 0
M  V30 4313 H 403.072 3.13783 -2.35123 0
M  V30 4314 H 404.562 3.83642 -1.6495 0
M  V30 4315 N 404.999 1.35443 0.805782 0
M  V30 4316 C 405.962 1.28301 1.89925 0
M  V30 4317 C 406.962 0.194285 1.59622 0
M  V30 4318 O 408.152 0.448036 1.6834 0
M  V30 4319 C 405.284 0.984997 3.2636 0
M  V30 4320 H 406.477 2.2553 1.97677 0
M  V30 4321 H 404.03 1.19979 1.00173 0
M  V30 4322 H 404.765 0.016603 3.24296 0
M  V30 4323 H 404.55 1.77269 3.4974 0
M  V30 4324 H 406.04 0.960651 4.064 0
M  V30 4325 N 406.477 -1.02803 1.19454 0
M  V30 4326 C 407.726 -1.7562 0.991996 0
M  V30 4327 C 408.039 -1.89672 -0.477901 0
M  V30 4328 O 409.245 -2.59468 -0.799287 0
M  V30 4329 C 407.701 -3.15812 1.72601 0
M  V30 4330 C 407.309 -3.0981 3.23607 0
M  V30 4331 C 409.053 -3.92918 1.60674 0
M  V30 4332 C 406.96 -4.44939 3.89594 0
M  V30 4333 H 405.89 -0.658352 0.367543 0
M  V30 4334 H 408.541 -1.15044 1.42959 0
M  V30 4335 H 406.923 -3.7686 1.21624 0
M  V30 4336 H 408.097 -2.58138 3.81709 0
M  V30 4337 H 406.412 -2.46201 3.35819 0
M  V30 4338 H 409.009 -4.9287 2.07323 0
M  V30 4339 H 409.352 -4.12502 0.561025 0
M  V30 4340 H 409.885 -3.38472 2.09001 0
M  V30 4341 H 406.624 -4.30559 4.94267 0
M  V30 4342 H 406.144 -4.96664 3.36281 0
M  V30 4343 H 407.823 -5.1382 3.93189 0
M  V30 4344 N 407.956 -0.998596 -1.21925 0
M  V30 4345 C 409.205 -0.673085 -1.90138 0
M  V30 4346 C 409.518 0.79895 -1.78539 0
M  V30 4347 O 410.724 1.23628 -2.4172 0
M  V30 4348 C 409.18 -1.15339 -3.40918 0
M  V30 4349 C 408.788 -2.65106 -3.61141 0
M  V30 4350 C 410.532 -0.902476 -4.14796 0
M  V30 4351 C 408.439 -3.0671 -5.05651 0
M  V30 4352 H 407.369 -0.248057 -0.712028 0
M  V30 4353 H 410.02 -1.20891 -1.38049 0
M  V30 4354 H 408.402 -0.545658 -3.92223 0
M  V30 4355 H 409.576 -3.31274 -3.20304 0
M  V30 4356 H 407.891 -2.88142 -3.00605 0
M  V30 4357 H 410.488 -1.18895 -5.21314 0
M  V30 4358 H 410.831 0.161349 -4.15987 0
M  V30 4359 H 411.364 -1.47269 -3.69536 0
M  V30 4360 H 408.103 -4.12292 -5.09603 0
M  V30 4361 H 407.623 -2.45249 -5.47369 0
M  V30 4362 H 409.302 -2.9833 -5.74115 0
M  V30 4363 N 409.434 1.37368 -0.772513 0
M  V30 4364 C 410.381 2.30262 -0.157488 0
M  V30 4365 C 411.351 1.51137 0.688965 0
M  V30 4366 O 412.536 1.79704 0.641168 0
M  V30 4367 C 409.676 3.37611 0.715045 0
M  V30 4368 C 408.789 4.31746 -0.148098 0
M  V30 4369 C 407.924 5.26171 0.729213 0
M  V30 4370 C 406.963 6.11948 -0.136418 0
M  V30 4371 N 406.1 6.98613 0.698914 0
M  V30 4372 H 410.94 2.82277 -0.955179 0
M  V30 4373 H 408.477 1.38957 -0.482631 0
M  V30 4374 H 410.435 3.98479 1.23575 0
M  V30 4375 H 409.065 2.86959 1.47833 0
M  V30 4376 H 408.117 3.72178 -0.786613 0
M  V30 4377 H 409.429 4.92084 -0.81579 0
M  V30 4378 H 408.583 5.92247 1.31637 0
M  V30 4379 H 407.322 4.66246 1.43059 0
M  V30 4380 H 406.327 5.4485 -0.736102 0
M  V30 4381 H 407.552 6.73945 -0.835134 0
M  V30 4382 H 405.498 6.41215 1.38489 0
M  V30 4383 H 405.415 7.55948 0.0885358 0
M  V30 4384 H 406.683 7.69077 1.27044 0
M  V30 4385 N 410.912 0.523116 1.48665 0
M  V30 4386 C 411.875 -0.232592 2.28017 0
M  V30 4387 C 412.875 -0.874021 1.34972 0
M  V30 4388 O 414.065 -0.735132 1.57929 0
M  V30 4389 C 411.197 -1.33586 3.13636 0
M  V30 4390 H 412.39 0.464008 2.96289 0
M  V30 4391 H 409.943 0.278816 1.53793 0
M  V30 4392 H 410.678 -2.06593 2.4998 0
M  V30 4393 H 410.463 -0.881125 3.82071 0
M  V30 4394 H 411.953 -1.86759 3.73511 0
M  V30 4395 N 412.39 -1.55475 0.257931 0
M  V30 4396 C 413.636 -1.99502 -0.364266 0
M  V30 4397 C 413.969 -1.146 -1.56782 0
M  V30 4398 O 413.244 -0.211968 -1.93342 0
M  V30 4399 C 413.527 -3.51917 -0.763333 0
M  V30 4400 C 413.38 -4.4758 0.446371 0
M  V30 4401 C 414.699 -4.09742 -1.60623 0
M  V30 4402 H 411.818 -0.725277 -0.130929 0
M  V30 4403 H 414.46 -1.8653 0.361446 0
M  V30 4404 H 412.61 -3.63101 -1.38166 0
M  V30 4405 H 414.282 -4.48362 1.08487 0
M  V30 4406 H 412.525 -4.19947 1.08753 0
M  V30 4407 H 413.196 -5.51862 0.123645 0
M  V30 4408 H 415.672 -4.01727 -1.08418 0
M  V30 4409 H 414.548 -5.16631 -1.85429 0
M  V30 4410 H 414.809 -3.58889 -2.58169 0
M  V30 4411 N 413.868 0.0150385 -1.57593 0
M  V30 4412 C 415.145 0.7392 -1.81094 0
M  V30 4413 C 415.525 1.92817 -0.859344 0
M  V30 4414 O 414.873 2.28301 0.095362 0
M  V30 4415 C 415.083 1.15907 -3.29191 0
M  V30 4416 C 416.431 1.56918 -3.9454 0
M  V30 4417 O 417.455 1.25328 -3.33424 0
M  V30 4418 O 416.314 2.15604 -5.02173 0
M  V30 4419 H 413.408 0.358631 -0.745193 0
M  V30 4420 H 415.954 -0.00926156 -1.69697 0
M  V30 4421 H 414.726 0.310921 -3.90063 0
M  V30 4422 H 414.349 1.96711 -3.45529 0
M  V30 4423 N 415.346 1.54954 0.287554 0
M  V30 4424 C 416.571 1.79209 1.04397 0
M  V30 4425 C 416.996 0.556431 1.79682 0
M  V30 4426 O 416.354 -0.493518 1.74454 0
M  V30 4427 C 416.402 3.00739 1.98969 0
M  V30 4428 O 415.506 2.74805 3.075 0
M  V30 4429 H 414.847 0.592755 0.299227 0
M  V30 4430 H 417.377 2.02068 0.320886 0
M  V30 4431 H 417.387 3.29077 2.4119 0
M  V30 4432 H 416.062 3.90329 1.43582 0
M  V30 4433 H 414.639 2.57523 2.69697 0
M  V30 4434 N 416.824 -0.551391 1.4764 0
M  V30 4435 C 417.771 -1.65796 1.60563 0
M  V30 4436 C 418.741 -1.59932 0.448428 0
M  V30 4437 O 419.926 -1.78679 0.669222 0
M  V30 4438 C 417.066 -3.04108 1.63133 0
M  V30 4439 C 416.179 -3.20365 2.89811 0
M  V30 4440 C 415.314 -4.49109 2.8368 0
M  V30 4441 C 414.353 -4.58819 4.05156 0
M  V30 4442 N 413.49 -5.78926 3.97227 0
M  V30 4443 H 418.33 -1.54088 2.5507 0
M  V30 4444 H 415.867 -0.75052 1.26513 0
M  V30 4445 H 417.825 -3.84207 1.62606 0
M  V30 4446 H 416.455 -3.14637 0.721341 0
M  V30 4447 H 415.507 -2.33659 3.00179 0
M  V30 4448 H 416.819 -3.23402 3.79753 0
M  V30 4449 H 415.973 -5.37475 2.81434 0
M  V30 4450 H 414.712 -4.4856 1.91431 0
M  V30 4451 H 413.717 -3.68864 4.077 0
M  V30 4452 H 414.942 -4.61124 4.98539 0
M  V30 4453 H 412.888 -5.79314 3.07785 0
M  V30 4454 H 412.805 -5.83367 4.80853 0
M  V30 4455 H 414.073 -6.69637 3.99007 0
M  V30 4456 N 418.302 -1.35869 -0.798587 0
M  V30 4457 C 419.532 -1.32529 -1.58491 0
M  V30 4458 C 419.94 0.0975405 -1.88948 0
M  V30 4459 O 419.283 1.06224 -1.49874 0
M  V30 4460 C 419.345 -2.07247 -2.9375 0
M  V30 4461 C 419.009 -3.56391 -2.86068 0
M  V30 4462 C 420.006 -4.50824 -2.58947 0
M  V30 4463 C 417.691 -3.9915 -3.04933 0
M  V30 4464 C 419.685 -5.85993 -2.5078 0
M  V30 4465 C 417.372 -5.34413 -2.96389 0
M  V30 4466 C 418.37 -6.27646 -2.69349 0
M  V30 4467 O 418.058 -7.60426 -2.60782 0
M  V30 4468 H 417.79 -0.456529 -0.498556 0
M  V30 4469 H 420.344 -1.79425 -0.999799 0
M  V30 4470 H 418.574 -1.55001 -3.54276 0
M  V30 4471 H 420.263 -1.96883 -3.54954 0
M  V30 4472 H 421.029 -4.19104 -2.44084 0
M  V30 4473 H 416.908 -3.26961 -3.24989 0
M  V30 4474 H 420.452 -6.58735 -2.29595 0
M  V30 4475 H 416.349 -5.65743 -3.10813 0
M  V30 4476 H 417.117 -7.70444 -2.76331 0
M  V30 4477 N 419.78 1.02168 -1.19998 0
M  V30 4478 C 421.008 1.79296 -1.03249 0
M  V30 4479 C 421.423 1.84103 0.418502 0
M  V30 4480 O 420.78 1.29031 1.29063 0
M  V30 4481 C 420.831 3.24007 -1.60319 0
M  V30 4482 O 420.552 3.19512 -2.99739 0
M  V30 4483 C 422.053 4.17704 -1.48453 0
M  V30 4484 H 419.273 0.564016 -0.363493 0
M  V30 4485 H 421.817 1.28639 -1.58973 0
M  V30 4486 H 419.972 3.7183 -1.08727 0
M  V30 4487 H 420.386 4.10306 -3.26725 0
M  V30 4488 H 421.86 5.17104 -1.93153 0
M  V30 4489 H 422.337 4.37029 -0.436193 0
M  V30 4490 H 422.943 3.7576 -1.99211 0
M  V30 4491 N 421.258 1.00505 1.21394 0
M  V30 4492 C 422.221 0.570459 2.21987 0
M  V30 4493 C 423.221 -0.353211 1.56873 0
M  V30 4494 O 424.411 -0.14349 1.73608 0
M  V30 4495 C 421.543 -0.168555 3.40483 0
M  V30 4496 H 422.736 1.46021 2.6195 0
M  V30 4497 H 420.289 0.793565 1.34656 0
M  V30 4498 H 421.024 -1.07374 3.06009 0
M  V30 4499 H 420.809 0.494823 3.88965 0
M  V30 4500 H 422.299 -0.460362 4.15055 0
M  V30 4501 N 422.737 -1.36956 0.779787 0
M  V30 4502 C 423.986 -1.98738 0.344405 0
M  V30 4503 C 424.299 -1.62596 -1.08728 0
M  V30 4504 O 425.505 -2.1754 -1.62445 0
M  V30 4505 C 423.961 -3.5544 0.564829 0
M  V30 4506 C 423.569 -4.00514 2.0073 0
M  V30 4507 C 425.313 -4.24059 0.193471 0
M  V30 4508 C 423.22 -5.49957 2.17489 0
M  V30 4509 H 422.15 -0.743561 0.12503 0
M  V30 4510 H 424.801 -1.56381 0.960057 0
M  V30 4511 H 423.183 -3.95817 -0.120397 0
M  V30 4512 H 424.357 -3.71362 2.72814 0
M  V30 4513 H 422.672 -3.44703 2.336 0
M  V30 4514 H 425.269 -5.33874 0.297097 0
M  V30 4515 H 425.612 -4.07378 -0.857263 0
M  V30 4516 H 426.145 -3.89012 0.831556 0
M  V30 4517 H 422.884 -5.71574 3.2091 0
M  V30 4518 H 422.404 -5.80767 1.49899 0
M  V30 4519 H 424.083 -6.16043 1.97738 0
M  V30 4520 N 424.215 -0.530993 -1.48385 0
M  V30 4521 C 425.626 -0.0907905 -1.86479 0
M  V30 4522 C 425.977 1.33213 -1.44044 0
M  V30 4523 O 425.102 1.99783 -0.831615 0
M  V30 4524 C 425.697 -0.157987 -3.38431 0
M  V30 4525 C 424.256 0.227026 -3.75715 0
M  V30 4526 C 423.403 -0.5173 -2.72432 0
M  V30 4527 H 426.354 -0.742186 -1.40276 0
M  V30 4528 H 426.375 0.630053 -3.75247 0
M  V30 4529 H 425.887 -1.19372 -3.69286 0
M  V30 4530 H 423.988 1.26486 -3.50474 0
M  V30 4531 H 424.101 -0.113288 -4.78966 0
M  V30 4532 H 422.465 0.0365527 -2.54674 0
M  V30 4533 H 423.248 -1.55368 -3.0613 0
M  V30 4534 N 425.693 1.55336 -0.266172 0
M  V30 4535 C 426.942 1.98574 0.353749 0
M  V30 4536 C 427.255 1.15789 1.57646 0
M  V30 4537 O 428.461 1.49129 2.26876 0
M  V30 4538 C 426.917 3.53403 0.680747 0
M  V30 4539 C 426.525 4.44953 -0.52165 0
M  V30 4540 C 428.269 4.05251 1.26379 0
M  V30 4541 C 426.176 5.91156 -0.169736 0
M  V30 4542 H 425.106 0.741643 0.135949 0
M  V30 4543 H 427.757 1.79743 -0.369421 0
M  V30 4544 H 426.139 3.68001 1.46257 0
M  V30 4545 H 427.313 4.42121 -1.29869 0
M  V30 4546 H 425.628 4.03691 -1.02093 0
M  V30 4547 H 428.225 5.12021 1.54074 0
M  V30 4548 H 428.568 3.53749 2.19471 0
M  V30 4549 H 429.101 3.94057 0.544447 0
M  V30 4550 H 425.84 6.46736 -1.0683 0
M  V30 4551 H 425.36 5.97079 0.570717 0
M  V30 4552 H 427.039 6.4655 0.241245 0
M  V30 4553 N 427.171 -0.0066808 1.57599 0
M  V30 4554 C 428.417 -0.693947 1.90558 0
M  V30 4555 C 428.75 -1.73792 0.866594 0
M  V30 4556 O 428.025 -1.94156 -0.115548 0
M  V30 4557 C 428.308 -1.34317 3.34112 0
M  V30 4558 C 428.161 -0.311189 4.48722 0
M  V30 4559 C 429.48 -2.27116 3.7697 0
M  V30 4560 H 426.599 -0.250803 0.693013 0
M  V30 4561 H 429.241 0.043242 1.89951 0
M  V30 4562 H 427.391 -1.9715 3.3476 0
M  V30 4563 H 429.063 0.316944 4.6021 0
M  V30 4564 H 427.306 0.367253 4.32243 0
M  V30 4565 H 427.977 -0.804366 5.46108 0
M  V30 4566 H 430.453 -1.74306 3.77831 0
M  V30 4567 H 429.329 -2.69511 4.78179 0
M  V30 4568 H 429.59 -3.14743 3.10466 0
M  V30 4569 N 428.649 -1.55105 -0.279332 0
M  V30 4570 C 429.897 -1.75066 -1.00977 0
M  V30 4571 C 430.218 -0.551276 -1.87045 0
M  V30 4572 O 429.488 0.433984 -1.91032 0
M  V30 4573 H 428.068 -0.645578 -0.375816 0
M  V30 4574 H 430.73 -1.92497 -0.305089 0
M  V30 4575 H 429.826 -2.64894 -1.65038 0
M  V30 4576 N 430.127 0.543554 -1.4793 0
M  V30 4577 C 431.059 1.665 -1.57513 0
M  V30 4578 C 432.072 1.56156 -0.460333 0
M  V30 4579 O 433.261 1.62865 -0.730573 0
M  V30 4580 C 430.361 3.05063 -1.47614 0
M  V30 4581 C 429.534 3.41024 -2.739 0
M  V30 4582 C 428.593 4.58809 -2.57645 0
M  V30 4583 O 427.619 4.62707 -3.31498 0
M  V30 4584 N 428.821 5.56149 -1.66368 0
M  V30 4585 H 431.586 1.5872 -2.5422 0
M  V30 4586 H 429.147 0.730517 -1.44482 0
M  V30 4587 H 431.139 3.81712 -1.34455 0
M  V30 4588 H 429.709 3.06994 -0.589359 0
M  V30 4589 H 428.929 2.53687 -3.01723 0
M  V30 4590 H 430.217 3.61831 -3.57709 0
M  V30 4591 H 429.615 5.55767 -1.05543 0
M  V30 4592 H 428.172 6.32071 -1.59154 0
M  V30 4593 N 431.605 1.3629 0.791371 0
M  V30 4594 C 432.851 1.30605 1.55146 0
M  V30 4595 C 433.184 -0.115042 1.93859 0
M  V30 4596 O 432.459 -1.06798 1.62556 0
M  V30 4597 C 432.742 2.22692 2.82985 0
M  V30 4598 C 432.595 3.73489 2.50651 0
M  V30 4599 C 433.914 2.13588 3.84796 0
M  V30 4600 H 431.033 0.475761 0.562868 0
M  V30 4601 H 433.675 1.66825 0.909358 0
M  V30 4602 H 431.825 1.91933 3.37778 0
M  V30 4603 H 433.497 4.14758 2.01924 0
M  V30 4604 H 431.74 3.93021 1.83622 0
M  V30 4605 H 432.411 4.3333 3.41949 0
M  V30 4606 H 434.887 2.40659 3.39445 0
M  V30 4607 H 433.763 2.80195 4.71998 0
M  V30 4608 H 434.024 1.12256 4.27611 0
M  V30 4609 N 433.083 -1.0153 1.20538 0
M  V30 4610 C 434.33 -1.75149 1.01633 0
M  V30 4611 C 434.658 -1.89189 -0.451399 0
M  V30 4612 O 433.913 -1.41551 -1.35136 0
M  V30 4613 C 434.212 -3.17213 1.64654 0
M  V30 4614 C 433.878 -3.23146 3.14464 0
M  V30 4615 C 432.54 -3.24472 3.55347 0
M  V30 4616 C 434.892 -3.21207 4.10458 0
M  V30 4617 C 432.22 -3.21532 4.90748 0
M  V30 4618 C 434.572 -3.19808 5.45807 0
M  V30 4619 C 433.236 -3.19439 5.86102 0
M  V30 4620 H 432.506 -0.640914 0.3719 0
M  V30 4621 H 435.153 -1.19071 1.49981 0
M  V30 4622 H 433.458 -3.76457 1.08571 0
M  V30 4623 H 435.155 -3.72871 1.4754 0
M  V30 4624 H 431.745 -3.2285 2.81897 0
M  V30 4625 H 435.929 -3.19351 3.79906 0
M  V30 4626 H 431.185 -3.19578 5.21229 0
M  V30 4627 H 435.359 -3.1726 6.19935 0
M  V30 4628 H 432.986 -3.16915 6.90991 0
M  V30 4629 N 434.561 -1.01147 -1.20859 0
M  V30 4630 C 435.493 -0.535546 -2.22855 0
M  V30 4631 C 436.506 0.379323 -1.58319 0
M  V30 4632 O 437.695 0.178489 -1.77605 0
M  V30 4633 C 434.795 0.240962 -3.38042 0
M  V30 4634 C 433.968 -0.674562 -4.32167 0
M  V30 4635 C 433.027 0.053467 -5.26173 0
M  V30 4636 O 432.053 -0.567339 -5.66366 0
M  V30 4637 N 433.255 1.32997 -5.65059 0
M  V30 4638 H 436.02 -1.41268 -2.64317 0
M  V30 4639 H 433.581 -0.888386 -1.35349 0
M  V30 4640 H 435.573 0.737115 -3.97931 0
M  V30 4641 H 434.143 1.01935 -2.95513 0
M  V30 4642 H 433.363 -1.35111 -3.70322 0
M  V30 4643 H 434.651 -1.2974 -4.91981 0
M  V30 4644 H 434.049 1.85536 -5.34409 0
M  V30 4645 H 432.606 1.77095 -6.2728 0
M  V30 4646 N 436.039 1.36541 -0.78704 0
M  V30 4647 C 437.264 2.0409 -0.369053 0
M  V30 4648 C 437.689 1.58957 1.00569 0
M  V30 4649 O 437.047 0.756926 1.64743 0
M  V30 4650 C 437.095 3.57924 -0.438466 0
M  V30 4651 O 436.199 4.08642 0.555479 0
M  V30 4652 H 435.54 0.645142 -0.157122 0
M  V30 4653 H 438.07 1.74545 -1.06749 0
M  V30 4654 H 438.08 4.06887 -0.301218 0
M  V30 4655 H 436.755 3.90127 -1.44132 0
M  V30 4656 H 435.332 3.70958 0.380088 0
M  V30 4657 N 437.518 0.538854 1.48102 0
M  V30 4658 C 438.468 -0.23907 2.26743 0
M  V30 4659 C 439.452 -0.901923 1.33245 0
M  V30 4660 O 440.644 -0.803263 1.57723 0
M  V30 4661 C 437.773 -1.2799 3.18549 0
M  V30 4662 C 436.859 -0.621388 4.19523 0
M  V30 4663 N 437.25 0.298004 5.04921 0
M  V30 4664 C 435.548 -0.877533 4.37282 0
M  V30 4665 C 436.249 0.678757 5.77726 0
M  V30 4666 N 435.225 0.0377881 5.43587 0
M  V30 4667 H 439.027 0.468096 2.90148 0
M  V30 4668 H 436.541 0.357497 1.58416 0
M  V30 4669 H 438.538 -1.851 3.73555 0
M  V30 4670 H 437.198 -1.98835 2.567 0
M  V30 4671 H 438.209 0.671126 5.13533 0
M  V30 4672 H 434.886 -1.57588 3.86616 0
M  V30 4673 H 436.276 1.43316 6.56437 0
M  V30 4674 N 438.996 -1.55193 0.274407 0
M  V30 4675 C 440.236 -2.01488 -0.343778 0
M  V30 4676 C 440.6 -1.1586 -1.53103 0
M  V30 4677 O 441.801 -1.51732 -2.2188 0
M  V30 4678 C 440.072 -3.50134 -0.717021 0
M  V30 4679 S 441.631 -4.18417 -1.32184 0
M  V30 4680 H 438.449 -0.70291 -0.106948 0
M  V30 4681 H 441.051 -1.91446 0.396075 0
M  V30 4682 H 439.755 -4.10104 0.155947 0
M  V30 4683 H 439.286 -3.64159 -1.48835 0
M  V30 4684 H 441.301 -4.21984 -2.61044 0
M  V30 4685 N 440.474 -0.00167713 -1.576 0
M  V30 4686 C 441.421 0.989195 -2.08527 0
M  V30 4687 C 442.391 1.34031 -0.981065 0
M  V30 4688 O 443.576 1.43839 -1.2536 0
M  V30 4689 C 440.716 2.27537 -2.59463 0
M  V30 4690 C 439.829 1.98314 -3.83791 0
M  V30 4691 C 438.964 3.21025 -4.23222 0
M  V30 4692 C 438.003 2.87495 -5.40382 0
M  V30 4693 N 437.14 4.02749 -5.75098 0
M  V30 4694 H 441.98 0.547973 -2.92919 0
M  V30 4695 H 439.517 0.258917 -1.44803 0
M  V30 4696 H 441.475 3.02729 -2.87073 0
M  V30 4697 H 440.105 2.69325 -1.77943 0
M  V30 4698 H 439.157 1.13482 -3.63078 0
M  V30 4699 H 440.469 1.69601 -4.69081 0
M  V30 4700 H 439.623 4.04561 -4.52123 0
M  V30 4701 H 438.362 3.52877 -3.36644 0
M  V30 4702 H 437.367 2.02367 -5.11202 0
M  V30 4703 H 438.592 2.56889 -6.28637 0
M  V30 4704 H 436.538 4.34494 -4.91478 0
M  V30 4705 H 436.455 3.77566 -6.54966 0
M  V30 4706 H 437.723 4.87068 -6.08592 0
M  V30 4707 N 441.952 1.55251 0.271103 0
M  V30 4708 C 443.2 1.75599 1.00047 0
M  V30 4709 C 443.521 0.561188 1.8675 0
M  V30 4710 O 442.791 -0.423846 1.9126 0
M  V30 4711 H 441.371 0.647562 0.372387 0
M  V30 4712 H 444.033 1.92656 0.294876 0
M  V30 4713 H 443.129 2.65766 1.6363 0
M  V30 4714 N 443.43 -0.535701 1.48216 0
M  V30 4715 C 444.67 -1.30238 1.57536 0
M  V30 4716 C 445.034 -1.90479 0.241229 0
M  V30 4717 O 446.235 -2.67983 0.20938 0
M  V30 4718 C 444.506 -2.3669 2.67792 0
M  V30 4719 S 446.065 -3.23159 2.9684 0
M  V30 4720 H 442.883 -0.443093 0.556048 0
M  V30 4721 H 445.485 -0.610937 1.85709 0
M  V30 4722 H 444.189 -1.90905 3.63296 0
M  V30 4723 H 443.72 -3.10548 2.41502 0
M  V30 4724 H 445.735 -4.36647 2.35699 0
M  V30 4725 N 444.908 -1.36708 -0.784132 0
M  V30 4726 C 446.319 -1.27947 -1.35965 0
M  V30 4727 C 446.67 0.0784013 -1.96043 0
M  V30 4728 O 445.795 0.979989 -1.92938 0
M  V30 4729 C 446.39 -2.31689 -2.47195 0
M  V30 4730 C 444.949 -2.26601 -3.00548 0
M  V30 4731 C 444.096 -2.16184 -1.73666 0
M  V30 4732 H 447.047 -1.4751 -0.585358 0
M  V30 4733 H 447.068 -1.95638 -3.26352 0
M  V30 4734 H 446.58 -3.30506 -2.03439 0
M  V30 4735 H 444.681 -1.31268 -3.48711 0
M  V30 4736 H 444.794 -3.19508 -3.57004 0
M  V30 4737 H 443.158 -1.62524 -1.96107 0
M  V30 4738 H 443.941 -3.16896 -1.32031 0
M  V30 4739 N 446.386 1.0089 -1.21074 0
M  V30 4740 C 447.611 1.78727 -1.05221 0
M  V30 4741 C 448.036 1.83932 0.393795 0
M  V30 4742 O 447.394 1.28004 1.28393 0
M  V30 4743 C 447.442 3.20665 -1.64944 0
M  V30 4744 O 446.546 4.02632 -0.892273 0
M  V30 4745 H 445.887 0.550973 -0.370574 0
M  V30 4746 H 448.417 1.26847 -1.60534 0
M  V30 4747 H 448.427 3.71352 -1.69002 0
M  V30 4748 H 447.102 3.16191 -2.70177 0
M  V30 4749 H 445.679 3.61207 -0.926492 0
M  V30 4750 N 447.864 1.01787 1.20321 0
M  V30 4751 C 448.794 0.609625 2.25401 0
M  V30 4752 C 449.775 -0.375951 1.65893 0
M  V30 4753 O 450.96 -0.261101 1.92437 0
M  V30 4754 C 448.09 -0.0515995 3.47262 0
M  V30 4755 C 447.044 0.855095 4.19371 0
M  V30 4756 C 446.37 0.0595757 5.34667 0
M  V30 4757 C 447.67 2.16374 4.75373 0
M  V30 4758 H 449.364 1.48803 2.59804 0
M  V30 4759 H 446.91 0.716934 1.24884 0
M  V30 4760 H 448.863 -0.348764 4.19954 0
M  V30 4761 H 447.587 -0.964726 3.12027 0
M  V30 4762 H 446.246 1.13628 3.48546 0
M  V30 4763 H 445.894 -0.85524 4.95676 0
M  V30 4764 H 445.594 0.663406 5.83843 0
M  V30 4765 H 447.118 -0.231105 6.10162 0
M  V30 4766 H 448.532 1.92885 5.39878 0
M  V30 4767 H 446.929 2.71853 5.34991 0
M  V30 4768 H 447.999 2.82589 3.94045 0
M  V30 4769 N 449.342 -1.36122 0.79427 0
M  V30 4770 C 450.567 -2.03891 0.379871 0
M  V30 4771 C 450.992 -1.59488 -0.997251 0
M  V30 4772 O 450.35 -0.765652 -1.64339 0
M  V30 4773 C 450.398 -3.57687 0.457442 0
M  V30 4774 O 449.502 -4.08931 -0.5338 0
M  V30 4775 H 448.843 -0.6443 0.160541 0
M  V30 4776 H 451.373 -1.73976 1.07673 0
M  V30 4777 H 451.383 -4.06721 0.322792 0
M  V30 4778 H 450.058 -3.89357 1.46199 0
M  V30 4779 H 448.635 -3.71154 -0.360409 0
M  V30 4780 N 450.82 -0.546701 -1.47814 0
M  V30 4781 C 451.73 0.21026 -2.33656 0
M  V30 4782 C 452.746 0.922413 -1.47538 0
M  V30 4783 O 453.922 0.893652 -1.80488 0
M  V30 4784 C 450.987 1.23348 -3.24016 0
M  V30 4785 C 450.048 0.529883 -4.26017 0
M  V30 4786 C 449.281 1.50435 -5.12059 0
M  V30 4787 O 449.504 2.73837 -5.00369 0
M  V30 4788 O 448.438 1.03459 -5.92942 0
M  V30 4789 H 452.264 -0.493605 -2.99662 0
M  V30 4790 H 449.849 -0.307427 -1.46203 0
M  V30 4791 H 451.731 1.82438 -3.79861 0
M  V30 4792 H 450.406 1.91945 -2.60651 0
M  V30 4793 H 449.313 -0.101948 -3.73961 0
M  V30 4794 H 450.646 -0.11445 -4.92067 0
M  V30 4795 N 452.299 1.55045 -0.282633 0
M  V30 4796 C 453.229 2.2579 0.595066 0
M  V30 4797 C 454.21 1.25074 1.15284 0
M  V30 4798 O 455.395 1.5381 1.18559 0
M  V30 4799 C 452.525 2.98472 1.77572 0
M  V30 4800 C 451.479 4.0618 1.34914 0
M  V30 4801 C 450.805 4.66477 2.6135 0
M  V30 4802 C 452.105 5.1996 0.493821 0
M  V30 4803 H 453.799 2.994 0.00505653 0
M  V30 4804 H 451.345 1.44 0.000992001 0
M  V30 4805 H 453.298 3.46677 2.39568 0
M  V30 4806 H 452.022 2.2241 2.39168 0
M  V30 4807 H 450.681 3.58797 0.752338 0
M  V30 4808 H 450.329 3.87074 3.2122 0
M  V30 4809 H 450.029 5.39207 2.33516 0
M  V30 4810 H 451.553 5.17435 3.24181 0
M  V30 4811 H 452.967 5.64172 1.01898 0
M  V30 4812 H 451.364 5.99299 0.310047 0
M  V30 4813 H 452.434 4.82462 -0.485593 0
M  V30 4814 N 453.777 0.010035 1.57597 0
M  V30 4815 C 455.023 -0.668011 1.92118 0
M  V30 4816 C 455.378 -1.70821 0.885328 0
M  V30 4817 O 454.671 -1.91333 -0.101187 0
M  V30 4818 C 454.865 -1.34434 3.31153 0
M  V30 4819 C 454.694 -0.371176 4.48166 0
M  V30 4820 C 453.464 0.0220686 5.05295 0
M  V30 4821 C 455.662 0.366731 5.12991 0
M  V30 4822 N 453.644 0.9924 6.05826 0
M  V30 4823 C 455.015 1.19142 6.08445 0
M  V30 4824 C 457.07 0.429489 4.96044 0
M  V30 4825 C 455.773 2.07317 6.88776 0
M  V30 4826 C 457.799 1.2985 5.76969 0
M  V30 4827 C 457.161 2.11101 6.72023 0
M  V30 4828 H 453.26 -0.217337 0.751192 0
M  V30 4829 H 455.844 0.0727375 1.94564 0
M  V30 4830 H 454.015 -2.05533 3.29561 0
M  V30 4831 H 455.747 -1.97789 3.53075 0
M  V30 4832 H 452.502 -0.348409 4.72317 0
M  V30 4833 H 452.926 1.47324 6.60776 0
M  V30 4834 H 457.568 -0.18442 4.22398 0
M  V30 4835 H 455.286 2.69771 7.61741 0
M  V30 4836 H 458.872 1.3511 5.65894 0
M  V30 4837 H 457.752 2.77257 7.33552 0
M  V30 4838 N 455.255 -1.55392 -0.262866 0
M  V30 4839 C 456.671 -1.47459 -0.610582 0
M  V30 4840 C 456.871 -0.697031 -1.8906 0
M  V30 4841 O 455.927 -0.219952 -2.5154 0
M  V30 4842 C 457.24 -2.91751 -0.728131 0
M  V30 4843 C 458.788 -3.02027 -0.821517 0
M  V30 4844 C 459.263 -4.47594 -0.97076 0
M  V30 4845 N 460.754 -4.51465 -1.03603 0
M  V30 4846 C 461.489 -5.61326 -1.17049 0
M  V30 4847 N 460.985 -6.81032 -1.2715 0
M  V30 4848 N 462.778 -5.49089 -1.20239 0
M  V30 4849 H 454.929 -2.04395 0.577632 0
M  V30 4850 H 457.192 -0.927287 0.197086 0
M  V30 4851 H 456.898 -3.51413 0.142132 0
M  V30 4852 H 456.772 -3.4134 -1.6052 0
M  V30 4853 H 459.159 -2.42456 -1.68224 0
M  V30 4854 H 459.24 -2.55674 0.0803688 0
M  V30 4855 H 458.884 -5.07771 -0.114655 0
M  V30 4856 H 458.814 -4.91613 -1.88745 0
M  V30 4857 H 461.305 -3.6524 -0.96996 0
M  V30 4858 H 461.618 -7.60511 -1.37271 0
M  V30 4859 H 459.963 -6.83824 -1.24136 0
M  V30 4860 H 463.154 -4.54507 -1.11985 0
M  V30 4861 H 463.327 -6.34749 -1.30373 0
M  V30 4862 N 456.733 0.527833 -1.48498 0
M  V30 4863 C 457.958 1.313 -1.60546 0
M  V30 4864 C 458.383 1.86199 -0.26672 0
M  V30 4865 O 457.741 1.64513 0.761918 0
M  V30 4866 C 457.789 2.43818 -2.65678 0
M  V30 4867 O 456.893 3.46916 -2.22987 0
M  V30 4868 H 456.234 0.388784 -0.538277 0
M  V30 4869 H 458.764 0.634896 -1.945 0
M  V30 4870 H 458.774 2.89973 -2.87018 0
M  V30 4871 H 457.449 2.03222 -3.62869 0
M  V30 4872 H 456.026 3.06864 -2.11869 0
M  V30 4873 N 458.211 1.37122 0.776871 0
M  V30 4874 C 459.439 1.3523 1.5659 0
M  V30 4875 C 459.854 -0.0635518 1.88693 0
M  V30 4876 O 459.211 -1.02394 1.51069 0
M  V30 4877 C 459.262 2.18583 2.8793 0
M  V30 4878 O 458.983 3.5465 2.57206 0
M  V30 4879 C 460.484 2.24612 3.82183 0
M  V30 4880 H 457.704 0.4634 0.485285 0
M  V30 4881 H 460.248 1.80392 0.963266 0
M  V30 4882 H 458.403 1.76943 3.4463 0
M  V30 4883 H 458.817 3.98286 3.41275 0
M  V30 4884 H 460.291 2.87267 4.71361 0
M  V30 4885 H 460.768 1.25309 4.20944 0
M  V30 4886 H 461.374 2.66543 3.31414 0
M  V30 4887 N 459.689 -1.00246 1.21608 0
M  V30 4888 C 461.105 -1.26435 0.973975 0
M  V30 4889 C 461.305 -1.98642 -0.338143 0
M  V30 4890 O 460.361 -2.29026 -1.06317 0
M  V30 4891 C 461.674 -2.08551 2.16626 0
M  V30 4892 C 463.222 -2.21769 2.20879 0
M  V30 4893 C 463.697 -3.07267 3.39633 0
M  V30 4894 N 465.188 -3.14855 3.39736 0
M  V30 4895 C 465.923 -3.81274 4.28273 0
M  V30 4896 N 465.419 -4.497 5.27012 0
M  V30 4897 N 467.212 -3.7794 4.16074 0
M  V30 4898 H 459.363 -0.518089 2.05984 0
M  V30 4899 H 461.626 -0.291368 0.902113 0
M  V30 4900 H 461.332 -1.62847 3.11727 0
M  V30 4901 H 461.206 -3.09303 2.15897 0
M  V30 4902 H 463.593 -2.66691 1.26332 0
M  V30 4903 H 463.674 -1.20478 2.25652 0
M  V30 4904 H 463.318 -2.63047 4.34475 0
M  V30 4905 H 463.248 -4.08678 3.321 0
M  V30 4906 H 465.739 -2.66147 2.6828 0
M  V30 4907 H 466.052 -4.98092 5.90867 0
M  V30 4908 H 464.397 -4.48479 5.30935 0
M  V30 4909 H 467.588 -3.23638 3.38195 0
M  V30 4910 H 467.761 -4.29424 4.85282 0
M  V30 4911 N 461.167 -1.02423 -1.1978 0
M  V30 4912 C 462.114 -0.601023 -2.22837 0
M  V30 4913 C 463.084 0.382801 -1.61629 0
M  V30 4914 O 464.269 0.280514 -1.88727 0
M  V30 4915 C 461.409 0.0467755 -3.45068 0
M  V30 4916 C 460.522 -0.98253 -4.20678 0
M  V30 4917 C 459.657 -0.304982 -5.30324 0
M  V30 4918 C 458.696 -1.32052 -5.97686 0
M  V30 4919 N 457.833 -0.669105 -6.98904 0
M  V30 4920 H 462.673 -1.48444 -2.58396 0
M  V30 4921 H 460.21 -0.742936 -1.2696 0
M  V30 4922 H 462.168 0.439556 -4.14878 0
M  V30 4923 H 460.798 0.893796 -3.10179 0
M  V30 4924 H 459.85 -1.49341 -3.49859 0
M  V30 4925 H 461.162 -1.75455 -4.66923 0
M  V30 4926 H 460.316 0.142893 -6.06532 0
M  V30 4927 H 459.055 0.499283 -4.85138 0
M  V30 4928 H 458.06 -1.7787 -5.20233 0
M  V30 4929 H 459.285 -2.1262 -6.44957 0
M  V30 4930 H 457.231 0.115152 -6.55899 0
M  V30 4931 H 457.148 -1.37908 -7.43315 0
M  V30 4932 H 458.416 -0.245076 -7.79115 0
M  V30 4933 N 462.645 1.35699 -0.801477 0
M  V30 4934 C 463.875 2.02862 -0.3912 0
M  V30 4935 C 464.283 1.60552 1.00099 0
M  V30 4936 O 463.626 0.796215 1.65548 0
M  V30 4937 C 463.688 3.57386 -0.389299 0
M  V30 4938 C 463.352 4.22943 -1.73113 0
M  V30 4939 C 464.349 4.44984 -2.68859 0
M  V30 4940 C 462.034 4.60167 -2.01373 0
M  V30 4941 C 464.028 5.03345 -3.91053 0
M  V30 4942 C 461.715 5.18243 -3.23832 0
M  V30 4943 C 462.713 5.39773 -4.1849 0
M  V30 4944 O 462.401 5.96626 -5.38788 0
M  V30 4945 H 462.133 0.657341 -0.157732 0
M  V30 4946 H 464.687 1.74407 -1.08496 0
M  V30 4947 H 462.917 3.85011 0.361031 0
M  V30 4948 H 464.606 4.059 -0.0020365 0
M  V30 4949 H 465.372 4.1661 -2.48316 0
M  V30 4950 H 461.251 4.42726 -1.28508 0
M  V30 4951 H 464.795 5.20065 -4.64949 0
M  V30 4952 H 460.692 5.46044 -3.44248 0
M  V30 4953 H 461.46 6.15082 -5.40015 0
M  V30 4954 N 464.123 0.554532 1.47522 0
M  V30 4955 C 465.053 -0.182974 2.32782 0
M  V30 4956 C 466.034 -0.911377 1.43624 0
M  V30 4957 O 467.219 -0.892366 1.72483 0
M  V30 4958 C 464.349 -1.21513 3.25349 0
M  V30 4959 C 463.303 -0.603355 4.23726 0
M  V30 4960 C 462.629 -1.73995 5.05598 0
M  V30 4961 C 463.929 0.441121 5.20434 0
M  V30 4962 H 465.623 0.52882 2.94693 0
M  V30 4963 H 463.169 0.255759 1.41711 0
M  V30 4964 H 465.122 -1.73922 3.83835 0
M  V30 4965 H 463.846 -1.95683 2.61487 0
M  V30 4966 H 462.505 -0.10059 3.66462 0
M  V30 4967 H 462.153 -2.47063 4.38143 0
M  V30 4968 H 461.853 -1.3364 5.72201 0
M  V30 4969 H 463.377 -2.26735 5.66942 0
M  V30 4970 H 464.791 0.00319931 5.733 0
M  V30 4971 H 463.188 0.763402 5.95224 0
M  V30 4972 H 464.258 1.33799 4.66075 0
M  V30 4973 N 465.601 -1.54893 0.290851 0
M  V30 4974 C 466.533 -2.20564 -0.623236 0
M  V30 4975 C 467.546 -1.19519 -1.1054 0
M  V30 4976 O 468.735 -1.46165 -1.02459 0
M  V30 4977 C 465.835 -2.83033 -1.86401 0
M  V30 4978 C 465.008 -4.09916 -1.52604 0
M  V30 4979 C 464.067 -4.56284 -2.62091 0
M  V30 4980 O 463.093 -5.2171 -2.27612 0
M  V30 4981 N 464.295 -4.27746 -3.92446 0
M  V30 4982 H 467.06 -2.99638 -0.0610915 0
M  V30 4983 H 464.621 -1.61508 0.112615 0
M  V30 4984 H 466.613 -3.1099 -2.58973 0
M  V30 4985 H 465.183 -2.0786 -2.33481 0
M  V30 4986 H 464.403 -3.89078 -0.633424 0
M  V30 4987 H 465.691 -4.92554 -1.27547 0
M  V30 4988 H 465.089 -3.7531 -4.23272 0
M  V30 4989 H 463.646 -4.60437 -4.61347 0
M  V30 4990 N 467.08 -0.0183926 -1.57589 0
M  V30 4991 C 468.491 0.521927 -1.79256 0
M  V30 4992 C 468.842 1.72885 -0.927636 0
M  V30 4993 O 467.967 2.15978 -0.135091 0
M  V30 4994 C 468.562 0.953632 -3.25102 0
M  V30 4995 C 467.121 1.43913 -3.47801 0
M  V30 4996 C 466.268 0.398837 -2.74417 0
M  V30 4997 H 469.219 -0.244485 -1.56805 0
M  V30 4998 H 469.24 1.81863 -3.34224 0
M  V30 4999 H 468.752 0.0750123 -3.88028 0
M  V30 5000 H 466.853 2.33804 -2.90115 0
M  V30 5001 H 466.966 1.45391 -4.56507 0
M  V30 5002 H 465.33 0.864572 -2.39577 0
M  V30 5003 H 466.113 -0.471132 -3.40052 0
M  V30 5004 N 468.558 1.5553 0.254621 0
M  V30 5005 C 469.835 1.6774 1.00611 0
M  V30 5006 C 470.215 0.555993 2.03647 0
M  V30 5007 O 469.563 -0.441583 2.24193 0
M  V30 5008 C 469.773 3.07725 1.6464 0
M  V30 5009 C 471.121 3.66074 2.15116 0
M  V30 5010 O 472.145 3.10476 1.74595 0
M  V30 5011 O 471.004 4.63526 2.89493 0
M  V30 5012 H 468.098 0.681958 0.467828 0
M  V30 5013 H 470.644 1.67863 0.24902 0
M  V30 5014 H 469.416 3.80792 0.900734 0
M  V30 5015 H 469.039 3.1158 2.46989 0
M  V30 5016 N 470.036 -0.519951 1.48776 0
M  V30 5017 C 470.984 -1.64443 1.64503 0
M  V30 5018 C 471.978 -1.61501 0.511248 0
M  V30 5019 O 473.184 -1.66238 0.690294 0
M  V30 5020 H 469.559 -0.544776 0.518385 0
M  V30 5021 H 471.53 -1.48325 2.58925 0
M  V30 5022 C 470.279 -3.02673 1.71127 0
M  V30 5023 H 469.602 -3.05635 2.57735 0
M  V30 5024 H 471.042 -3.80941 1.86172 0
M  V30 5025 C 469.501 -3.33854 0.452032 0
M  V30 5026 O 470.031 -3.99385 -0.430678 0
M  V30 5027 N 468.237 -2.88825 0.32069 0
M  V30 5028 H 467.784 -2.35674 1.03998 0
M  V30 5029 H 467.742 -3.10056 -0.520814 0
M  V30 5030 N 471.514 -1.37532 -0.769588 0
M  V30 5031 C 472.444 -1.36172 -1.89682 0
M  V30 5032 C 473.425 -0.23001 -1.68538 0
M  V30 5033 O 474.61 -0.43069 -1.89364 0
M  V30 5034 C 471.74 -1.1701 -3.26995 0
M  V30 5035 C 470.694 -2.27216 -3.62708 0
M  V30 5036 C 470.02 -1.93174 -4.98586 0
M  V30 5037 C 471.32 -3.6941 -3.69234 0
M  V30 5038 H 473.014 -2.30499 -1.91078 0
M  V30 5039 H 470.56 -1.10953 -0.917902 0
M  V30 5040 H 472.513 -1.14688 -4.05493 0
M  V30 5041 H 471.237 -0.191395 -3.26039 0
M  V30 5042 H 469.896 -2.28697 -2.86519 0
M  V30 5043 H 469.544 -0.938281 -4.94171 0
M  V30 5044 H 469.244 -2.66973 -5.23449 0
M  V30 5045 H 470.768 -1.92443 -5.79481 0
M  V30 5046 H 472.182 -3.70047 -4.37879 0
M  V30 5047 H 470.579 -4.4228 -4.05597 0
M  V30 5048 H 471.649 -4.0288 -2.69844 0
M  V30 5049 N 472.992 0.995999 -1.22138 0
M  V30 5050 C 474.217 1.77601 -1.0711 0
M  V30 5051 C 474.642 1.84339 0.374264 0
M  V30 5052 O 474 1.29359 1.27028 0
M  V30 5053 C 474.048 3.18897 -1.68336 0
M  V30 5054 O 473.152 4.01663 -0.934928 0
M  V30 5055 H 472.493 0.547011 -0.376397 0
M  V30 5056 H 475.023 1.25137 -1.6187 0
M  V30 5057 H 475.033 3.69539 -1.72931 0
M  V30 5058 H 473.708 3.13308 -2.73516 0
M  V30 5059 H 472.285 3.60204 -0.964751 0
M  V30 5060 N 474.47 1.03057 1.19235 0
M  V30 5061 C 475.417 0.612832 2.22515 0
M  V30 5062 C 476.387 -0.374224 1.61829 0
M  V30 5063 O 477.572 -0.270501 1.88873 0
M  V30 5064 C 474.712 -0.028475 3.45088 0
M  V30 5065 C 473.825 1.00483 4.20151 0
M  V30 5066 C 472.96 0.333102 5.30155 0
M  V30 5067 C 471.999 1.3522 5.96977 0
M  V30 5068 N 471.136 0.70616 6.9854 0
M  V30 5069 H 475.976 1.49812 2.57605 0
M  V30 5070 H 473.513 0.749658 1.26564 0
M  V30 5071 H 475.471 -0.417548 4.15105 0
M  V30 5072 H 474.101 -0.877334 3.10649 0
M  V30 5073 H 473.153 1.51194 3.49062 0
M  V30 5074 H 474.465 1.77929 4.65986 0
M  V30 5075 H 473.619 -0.110725 6.06599 0
M  V30 5076 H 472.358 -0.473547 4.85396 0
M  V30 5077 H 471.363 1.80627 5.19282 0
M  V30 5078 H 472.588 2.16037 6.4382 0
M  V30 5079 H 470.534 -0.0803667 6.55951 0
M  V30 5080 H 470.451 1.41848 7.42573 0
M  V30 5081 H 471.719 0.286391 7.78974 0
M  V30 5082 N 475.948 -1.35272 0.808662 0
M  V30 5083 C 476.911 -2.28082 0.226093 0
M  V30 5084 C 477.911 -1.49673 -0.587762 0
M  V30 5085 O 479.101 -1.69404 -0.405943 0
M  V30 5086 C 476.233 -3.33955 -0.684596 0
M  V30 5087 H 477.426 -2.81116 1.04469 0
M  V30 5088 H 474.979 -1.45162 0.579466 0
M  V30 5089 H 475.714 -2.86111 -1.5268 0
M  V30 5090 H 475.499 -3.91965 -0.102699 0
M  V30 5091 H 476.989 -4.03219 -1.08646 0
M  V30 5092 N 477.426 -0.562348 -1.47226 0
M  V30 5093 C 478.336 0.185466 -2.33866 0
M  V30 5094 C 479.352 0.906713 -1.48508 0
M  V30 5095 O 480.528 0.874458 -1.81425 0
M  V30 5096 C 477.593 1.19904 -3.25306 0
M  V30 5097 C 476.654 0.484669 -4.26555 0
M  V30 5098 C 475.887 1.44996 -5.13626 0
M  V30 5099 O 476.11 2.68515 -5.03245 0
M  V30 5100 O 475.044 0.971642 -5.94006 0
M  V30 5101 H 478.87 -0.525361 -2.99121 0
M  V30 5102 H 476.455 -0.322916 -1.45868 0
M  V30 5103 H 478.337 1.78399 -3.81774 0
M  V30 5104 H 477.012 1.8917 -2.62672 0
M  V30 5105 H 475.919 -0.141605 -3.73832 0
M  V30 5106 H 477.252 -0.166634 -4.91918 0
M  V30 5107 N 478.904 1.54736 -0.299062 0
M  V30 5108 C 479.867 2.22127 0.565012 0
M  V30 5109 C 480.867 1.20669 1.06281 0
M  V30 5110 O 482.057 1.45417 0.959145 0
M  V30 5111 C 479.189 2.90611 1.78208 0
M  V30 5112 H 480.382 2.99891 -0.0237448 0
M  V30 5113 H 477.935 1.5622 -0.0498788 0
M  V30 5114 H 478.67 2.16921 2.41072 0
M  V30 5115 H 478.455 3.64984 1.43281 0
M  V30 5116 H 479.945 3.42026 2.396 0
M  V30 5117 N 480.382 0.0267497 1.57577 0
M  V30 5118 C 481.628 -0.653371 1.91987 0
M  V30 5119 C 481.961 -1.71915 0.903263 0
M  V30 5120 O 481.236 -1.94358 -0.0743387 0
M  V30 5121 C 481.519 -1.272 3.36886 0
M  V30 5122 C 481.372 -0.215938 4.49281 0
M  V30 5123 C 482.691 -2.19069 3.81703 0
M  V30 5124 H 479.81 -0.236047 0.698177 0
M  V30 5125 H 482.452 0.0835236 1.89816 0
M  V30 5126 H 480.602 -1.90005 3.38866 0
M  V30 5127 H 482.274 0.41449 4.59434 0
M  V30 5128 H 480.517 0.458855 4.31366 0
M  V30 5129 H 481.188 -0.688347 5.47691 0
M  V30 5130 H 483.664 -1.66253 3.81444 0
M  V30 5131 H 482.54 -2.59307 4.83788 0
M  V30 5132 H 482.801 -3.08087 3.17072 0
M  V30 5133 N 481.861 -1.55662 -0.24637 0
M  V30 5134 C 483.277 -1.48098 -0.594907 0
M  V30 5135 C 483.477 -0.717044 -1.8831 0
M  V30 5136 O 482.533 -0.246618 -2.51293 0
M  V30 5137 C 483.846 -2.92507 -0.697146 0
M  V30 5138 C 485.394 -3.02881 -0.789436 0
M  V30 5139 C 485.869 -4.48598 -0.923232 0
M  V30 5140 N 487.36 -4.52538 -0.988088 0
M  V30 5141 C 488.095 -5.62536 -1.11089 0
M  V30 5142 N 487.591 -6.82342 -1.19919 0
M  V30 5143 N 489.384 -5.50334 -1.14408 0
M  V30 5144 H 481.535 -2.0377 0.599278 0
M  V30 5145 H 483.798 -0.925145 0.20691 0
M  V30 5146 H 483.504 -3.51242 0.179396 0
M  V30 5147 H 483.378 -3.43024 -1.5689 0
M  V30 5148 H 485.765 -2.44226 -1.65643 0
M  V30 5149 H 485.846 -2.55574 0.107482 0
M  V30 5150 H 485.49 -5.07864 -0.0607927 0
M  V30 5151 H 485.42 -4.93587 -1.8352 0
M  V30 5152 H 487.911 -3.66248 -0.931167 0
M  V30 5153 H 488.224 -7.61924 -1.29197 0
M  V30 5154 H 486.569 -6.85102 -1.16876 0
M  V30 5155 H 489.76 -4.5567 -1.07158 0
M  V30 5156 H 489.933 -6.36096 -1.23634 0
M  V30 5157 N 483.339 0.512053 -1.4905 0
M  V30 5158 C 484.287 1.63568 -1.65373 0
M  V30 5159 C 485.281 1.61228 -0.519806 0
M  V30 5160 O 486.487 1.65869 -0.699101 0
M  V30 5161 H 482.862 0.542019 -0.521267 0
M  V30 5162 H 484.833 1.4695 -2.59708 0
M  V30 5163 C 483.582 3.01761 -1.7273 0
M  V30 5164 H 482.905 3.04263 -2.59353 0
M  V30 5165 H 484.345 3.79948 -1.8819 0
M  V30 5166 C 482.804 3.33609 -0.46973 0
M  V30 5167 O 483.334 3.99607 0.409492 0
M  V30 5168 N 481.54 2.88651 -0.336003 0
M  V30 5169 H 481.087 2.35119 -1.05247 0
M  V30 5170 H 481.045 3.10328 0.504363 0
M  V30 5171 N 484.817 1.37938 0.762283 0
M  V30 5172 C 486.064 1.33668 1.52115 0
M  V30 5173 C 486.392 -0.0759538 1.94352 0
M  V30 5174 O 485.647 -1.05121 1.6507 0
M  V30 5175 C 485.946 2.23042 2.79261 0
M  V30 5176 C 485.612 3.71159 2.56031 0
M  V30 5177 C 484.274 4.11523 2.49404 0
M  V30 5178 C 486.626 4.64955 2.35513 0
M  V30 5179 C 483.954 5.43784 2.20263 0
M  V30 5180 C 486.306 5.97464 2.07894 0
M  V30 5181 C 484.97 6.36922 1.99718 0
M  V30 5182 H 484.24 0.489127 0.556629 0
M  V30 5183 H 486.887 1.70224 0.877262 0
M  V30 5184 H 485.192 1.79512 3.48256 0
M  V30 5185 H 486.889 2.17047 3.37182 0
M  V30 5186 H 483.479 3.39153 2.62056 0
M  V30 5187 H 487.663 4.34623 2.39617 0
M  V30 5188 H 482.919 5.73307 2.12435 0
M  V30 5189 H 487.093 6.6969 1.91019 0
M  V30 5190 H 484.72 7.39331 1.76902 0
M  V30 5191 N 486.295 -0.989507 1.22664 0
M  V30 5192 C 487.225 -2.09847 1.02404 0
M  V30 5193 C 488.206 -1.70007 -0.0561303 0
M  V30 5194 O 489.391 -1.93906 0.106748 0
M  V30 5195 C 486.521 -3.41996 0.604663 0
M  V30 5196 C 485.475 -3.95699 1.63115 0
M  V30 5197 C 484.801 -5.23936 1.0675 0
M  V30 5198 C 486.101 -4.25999 3.02196 0
M  V30 5199 H 487.795 -2.27054 1.95158 0
M  V30 5200 H 485.341 -1.09111 0.939727 0
M  V30 5201 H 487.294 -4.1899 0.45002 0
M  V30 5202 H 486.018 -3.24626 -0.35855 0
M  V30 5203 H 484.677 -3.2084 1.77362 0
M  V30 5204 H 484.325 -5.02909 0.0955422 0
M  V30 5205 H 484.025 -5.60833 1.75328 0
M  V30 5206 H 485.549 -6.0356 0.924516 0
M  V30 5207 H 486.963 -4.93777 2.91303 0
M  V30 5208 H 485.36 -4.74076 3.67929 0
M  V30 5209 H 486.43 -3.33636 3.51873 0
M  V30 5210 N 487.773 -1.03688 -1.18687 0
M  V30 5211 C 488.736 -0.629115 -2.20397 0
M  V30 5212 C 489.736 0.311495 -1.57754 0
M  V30 5213 O 490.926 0.0974107 -1.73927 0
M  V30 5214 C 488.058 0.0782231 -3.4081 0
M  V30 5215 H 489.251 -1.52915 -2.57987 0
M  V30 5216 H 486.804 -0.828988 -1.32505 0
M  V30 5217 H 487.539 0.992233 -3.08748 0
M  V30 5218 H 487.324 -0.597776 -3.87517 0
M  V30 5219 H 488.814 0.350156 -4.16129 0
M  V30 5220 N 489.251 1.34841 -0.815825 0
M  V30 5221 C 490.498 1.98499 -0.400535 0
M  V30 5222 C 490.826 1.64699 1.03463 0
M  V30 5223 O 490.081 0.907006 1.73412 0
M  V30 5224 C 490.38 3.53273 -0.541541 0
M  V30 5225 C 490.046 4.06966 -1.94138 0
M  V30 5226 C 488.708 4.21341 -2.32433 0
M  V30 5227 C 491.06 4.35933 -2.85677 0
M  V30 5228 C 488.388 4.62007 -3.61617 0
M  V30 5229 C 490.74 4.78042 -4.14317 0
M  V30 5230 C 489.404 4.90622 -4.52599 0
M  V30 5231 H 488.674 0.72636 -0.146566 0
M  V30 5232 H 491.321 1.60902 -1.0384 0
M  V30 5233 H 489.626 3.91387 0.179741 0
M  V30 5234 H 491.323 4.00497 -0.20085 0
M  V30 5235 H 487.913 3.96235 -1.63388 0
M  V30 5236 H 492.097 4.24372 -2.57337 0
M  V30 5237 H 487.353 4.69937 -3.91113 0
M  V30 5238 H 491.527 4.99415 -4.85342 0
M  V30 5239 H 489.154 5.2189 -5.52752 0
M  V30 5240 N 490.729 0.570148 1.46925 0
M  V30 5241 C 491.978 0.0487352 2.01641 0
M  V30 5242 C 492.291 -1.31433 1.44861 0
M  V30 5243 O 493.497 -1.92638 1.91318 0
M  V30 5244 C 491.953 0.0365817 3.59881 0
M  V30 5245 C 491.561 1.39719 4.25655 0
M  V30 5246 C 493.305 -0.431545 4.22301 0
M  V30 5247 C 491.212 1.34345 5.75939 0
M  V30 5248 H 490.142 0.0144492 0.753862 0
M  V30 5249 H 492.793 0.719928 1.68788 0
M  V30 5250 H 491.175 -0.700522 3.89755 0
M  V30 5251 H 492.349 2.15303 4.07408 0
M  V30 5252 H 490.664 1.80431 3.75278 0
M  V30 5253 H 493.261 -0.490354 5.32447 0
M  V30 5254 H 493.604 -1.44638 3.90366 0
M  V30 5255 H 494.137 0.251102 3.97007 0
M  V30 5256 H 490.876 2.33469 6.12513 0
M  V30 5257 H 490.396 0.629615 5.96486 0
M  V30 5258 H 492.075 1.051 6.38407 0
M  V30 5259 N 492.207 -1.54576 0.307264 0
M  V30 5260 C 493.139 -2.21212 -0.599807 0
M  V30 5261 C 494.152 -1.20685 -1.09266 0
M  V30 5262 O 495.341 -1.47244 -1.00903 0
M  V30 5263 C 492.441 -2.84994 -1.83389 0
M  V30 5264 C 491.614 -4.11511 -1.48248 0
M  V30 5265 C 490.673 -4.59038 -2.57237 0
M  V30 5266 O 489.699 -5.24095 -2.22065 0
M  V30 5267 N 490.901 -4.31884 -3.87887 0
M  V30 5268 H 493.666 -2.99686 -0.0293075 0
M  V30 5269 H 491.227 -1.61379 0.129738 0
M  V30 5270 H 493.219 -3.1372 -2.5566 0
M  V30 5271 H 491.789 -2.10324 -2.31263 0
M  V30 5272 H 491.009 -3.89728 -0.592122 0
M  V30 5273 H 492.297 -4.93879 -1.22316 0
M  V30 5274 H 491.695 -3.79778 -4.19268 0
M  V30 5275 H 490.252 -4.65304 -4.56438 0
M  V30 5276 N 493.685 -0.035106 -1.57561 0
M  V30 5277 C 494.635 0.954034 -2.0708 0
M  V30 5278 C 495.619 1.2818 -0.972558 0
M  V30 5279 O 496.811 1.26691 -1.23606 0
M  V30 5280 C 493.94 2.23442 -2.60631 0
M  V30 5281 C 493.026 1.93475 -3.77396 0
M  V30 5282 N 493.417 1.33802 -4.87781 0
M  V30 5283 C 491.715 2.23434 -3.85996 0
M  V30 5284 C 492.416 1.21103 -5.68954 0
M  V30 5285 N 491.392 1.70855 -5.16052 0
M  V30 5286 H 495.194 0.487731 -2.89825 0
M  V30 5287 H 492.708 0.169759 -1.6151 0
M  V30 5288 H 494.705 2.95183 -2.94402 0
M  V30 5289 H 493.365 2.70693 -1.79319 0
M  V30 5290 H 494.376 1.01227 -5.07911 0
M  V30 5291 H 491.053 2.73317 -3.15601 0
M  V30 5292 H 492.443 0.749105 -6.67711 0
M  V30 5293 N 495.163 1.55791 0.238111 0
M  V30 5294 C 496.093 1.94068 1.29846 0
M  V30 5295 C 497.074 0.806726 1.49753 0
M  V30 5296 O 498.259 1.06772 1.62214 0
M  V30 5297 C 495.389 2.24302 2.65153 0
M  V30 5298 C 494.343 3.40032 2.59927 0
M  V30 5299 C 493.669 3.55829 3.99111 0
M  V30 5300 C 494.969 4.75476 2.16148 0
M  V30 5301 H 496.663 2.82887 0.980563 0
M  V30 5302 H 494.209 1.36105 0.470253 0
M  V30 5303 H 496.162 2.4967 3.39475 0
M  V30 5304 H 494.886 1.32318 2.98596 0
M  V30 5305 H 493.545 3.14687 1.88063 0
M  V30 5306 H 493.193 2.6125 4.29834 0
M  V30 5307 H 492.893 4.3366 3.96501 0
M  V30 5308 H 494.417 3.83528 4.7512 0
M  V30 5309 H 495.831 5.00158 2.80205 0
M  V30 5310 H 494.228 5.56472 2.24631 0
M  V30 5311 H 495.298 4.71946 1.11333 0
M  V30 5312 N 496.642 -0.504142 1.49319 0
M  V30 5313 C 498.058 -0.835039 1.36012 0
M  V30 5314 C 498.258 -1.97674 0.390808 0
M  V30 5315 O 497.314 -2.51867 -0.178655 0
M  V30 5316 C 498.627 -1.17821 2.76656 0
M  V30 5317 C 500.175 -1.2866 2.85334 0
M  V30 5318 C 500.65 -1.66307 4.26739 0
M  V30 5319 N 502.141 -1.73362 4.29534 0
M  V30 5320 C 502.876 -2.0393 5.35911 0
M  V30 5321 N 502.372 -2.32744 6.52535 0
M  V30 5322 N 504.165 -2.05155 5.23324 0
M  V30 5323 H 496.316 0.248764 2.10938 0
M  V30 5324 H 498.579 0.0486962 0.946748 0
M  V30 5325 H 498.285 -0.412682 3.4927 0
M  V30 5326 H 498.159 -2.12239 3.11825 0
M  V30 5327 H 500.546 -2.04285 2.1296 0
M  V30 5328 H 500.627 -0.323004 2.53752 0
M  V30 5329 H 500.271 -0.91234 4.99639 0
M  V30 5330 H 500.201 -2.63761 4.55782 0
M  V30 5331 H 502.692 -1.53268 3.45424 0
M  V30 5332 H 503.005 -2.55248 7.2943 0
M  V30 5333 H 501.35 -2.30207 6.55767 0
M  V30 5334 H 504.541 -1.82119 4.3122 0
M  V30 5335 H 504.714 -2.28644 6.06322 0
M  V30 5336 N 498.12 -1.38341 -0.754957 0
M  V30 5337 C 499.348 -1.37704 -1.54419 0
M  V30 5338 C 499.763 0.0335243 -1.8877 0
M  V30 5339 O 499.12 0.999773 -1.52679 0
M  V30 5340 C 499.171 -2.23136 -2.84416 0
M  V30 5341 O 498.892 -3.58697 -2.51531 0
M  V30 5342 C 500.393 -2.30664 -3.78562 0
M  V30 5343 H 497.613 -0.471061 -0.477852 0
M  V30 5344 H 500.157 -1.81902 -0.934446 0
M  V30 5345 H 498.312 -1.82403 -3.41772 0
M  V30 5346 H 498.726 -4.03665 -3.34896 0
M  V30 5347 H 500.2 -2.9473 -4.66732 0
M  V30 5348 H 500.677 -1.3199 -4.18898 0
M  V30 5349 H 501.283 -2.71781 -3.27131 0
M  V30 5350 N 499.598 0.982988 -1.23187 0
M  V30 5351 C 500.561 2.05649 -1.01198 0
M  V30 5352 C 501.561 1.6078 0.0252464 0
M  V30 5353 O 502.751 1.72878 -0.214243 0
M  V30 5354 C 499.883 3.36744 -0.530656 0
M  V30 5355 H 501.076 2.2659 -1.96461 0
M  V30 5356 H 498.629 1.15602 -1.05195 0
M  V30 5357 H 499.364 3.21492 0.425873 0
M  V30 5358 H 499.149 3.7065 -1.2791 0
M  V30 5359 H 500.639 4.15705 -0.397366 0
M  V30 5360 N 501.076 1.04316 1.18135 0
M  V30 5361 C 502.023 0.636398 2.21853 0
M  V30 5362 C 502.993 -0.357039 1.62217 0
M  V30 5363 O 504.178 -0.250453 1.89149 0
M  V30 5364 C 501.318 0.00812779 3.45099 0
M  V30 5365 C 500.431 1.04933 4.19062 0
M  V30 5366 C 499.566 0.389313 5.29771 0
M  V30 5367 C 498.605 1.41544 5.9551 0
M  V30 5368 N 497.742 0.78021 6.97751 0
M  V30 5369 H 502.582 1.52536 2.56002 0
M  V30 5370 H 500.119 0.76304 1.25762 0
M  V30 5371 H 502.077 -0.373497 4.15525 0
M  V30 5372 H 500.707 -0.844336 3.11562 0
M  V30 5373 H 499.759 1.54888 3.47439 0
M  V30 5374 H 501.071 1.82862 4.64072 0
M  V30 5375 H 500.225 -0.0463805 6.06682 0
M  V30 5376 H 498.964 -0.422038 4.8587 0
M  V30 5377 H 497.969 1.86124 5.17337 0
M  V30 5378 H 499.194 2.22854 6.41493 0
M  V30 5379 H 497.14 -0.0107899 6.55999 0
M  V30 5380 H 497.057 1.49716 7.41027 0
M  V30 5381 H 498.325 0.368996 7.78626 0
M  V30 5382 N 502.554 -1.34406 0.822964 0
M  V30 5383 C 503.501 -2.29519 0.24284 0
M  V30 5384 C 504.471 -1.5359 -0.632397 0
M  V30 5385 O 505.656 -1.8196 -0.57403 0
M  V30 5386 C 502.796 -3.40032 -0.58925 0
M  V30 5387 C 501.909 -4.30899 0.308236 0
M  V30 5388 C 501.044 -5.28515 -0.533425 0
M  V30 5389 C 500.083 -6.1102 0.363444 0
M  V30 5390 N 499.22 -7.00725 -0.439147 0
M  V30 5391 H 504.06 -2.78537 1.05929 0
M  V30 5392 H 501.597 -1.3707 0.533872 0
M  V30 5393 H 503.555 -4.0279 -1.087 0
M  V30 5394 H 502.185 -2.92248 -1.37081 0
M  V30 5395 H 501.237 -3.69002 0.924203 0
M  V30 5396 H 502.549 -4.88717 0.997862 0
M  V30 5397 H 501.703 -5.96725 -1.09565 0
M  V30 5398 H 500.442 -4.71235 -1.25656 0
M  V30 5399 H 499.447 -5.41743 0.937812 0
M  V30 5400 H 500.672 -6.70381 1.08469 0
M  V30 5401 H 498.618 -6.45913 -1.14595 0
M  V30 5402 H 498.535 -7.55756 0.19209 0
M  V30 5403 H 499.803 -7.73263 -0.984124 0
M  V30 5404 N 504.032 -0.577932 -1.46621 0
M  V30 5405 C 504.942 0.160651 -2.34049 0
M  V30 5406 C 505.958 0.890911 -1.49462 0
M  V30 5407 O 507.134 0.855166 -1.82343 0
M  V30 5408 C 504.199 1.16447 -3.26559 0
M  V30 5409 C 503.26 0.4394 -4.27045 0
M  V30 5410 C 502.493 1.3954 -5.15135 0
M  V30 5411 O 502.716 2.63162 -5.06065 0
M  V30 5412 O 501.65 0.908585 -5.95003 0
M  V30 5413 H 505.476 -0.557057 -2.98547 0
M  V30 5414 H 503.061 -0.338369 -1.45518 0
M  V30 5415 H 504.943 1.7434 -3.83645 0
M  V30 5416 H 503.618 1.86373 -2.64663 0
M  V30 5417 H 502.525 -0.181247 -3.73661 0
M  V30 5418 H 503.858 -0.218799 -4.91713 0
M  V30 5419 N 505.51 1.54411 -0.315457 0
M  V30 5420 C 506.42 2.27737 0.56329 0
M  V30 5421 C 507.436 1.31787 1.13614 0
M  V30 5422 O 508.612 1.64791 1.15784 0
M  V30 5423 C 505.677 3.01478 1.71207 0
M  V30 5424 C 504.738 4.12997 1.17185 0
M  V30 5425 C 503.971 4.83212 2.26588 0
M  V30 5426 O 504.194 4.52884 3.46775 0
M  V30 5427 O 503.128 5.70299 1.92463 0
M  V30 5428 H 506.954 3.03683 -0.0319614 0
M  V30 5429 H 504.539 1.49178 -0.0814188 0
M  V30 5430 H 506.421 3.47683 2.38106 0
M  V30 5431 H 505.096 2.28414 2.29366 0
M  V30 5432 H 504.003 3.71159 0.468174 0
M  V30 5433 H 505.336 4.8808 0.635501 0
M  V30 5434 N 506.988 0.0434614 1.5754 0
M  V30 5435 C 508.237 -0.631454 1.91561 0
M  V30 5436 C 508.55 -1.72457 0.92292 0
M  V30 5437 O 509.756 -2.45712 1.15489 0
M  V30 5438 C 508.212 -1.17447 3.40197 0
M  V30 5439 C 507.82 -0.113867 4.47855 0
M  V30 5440 C 509.564 -1.82507 3.83264 0
M  V30 5441 C 507.471 -0.669326 5.876 0
M  V30 5442 H 506.401 -0.239629 0.714908 0
M  V30 5443 H 509.052 0.111097 1.83163 0
M  V30 5444 H 507.434 -1.96909 3.43574 0
M  V30 5445 H 508.608 0.659348 4.56058 0
M  V30 5446 H 506.923 0.438821 4.14081 0
M  V30 5447 H 509.52 -2.25047 4.85034 0
M  V30 5448 H 509.863 -2.67365 3.19095 0
M  V30 5449 H 510.396 -1.09712 3.82372 0
M  V30 5450 H 507.135 0.141449 6.55347 0
M  V30 5451 H 506.655 -1.4107 5.82974 0
M  V30 5452 H 508.334 -1.15463 6.36614 0
M  V30 5453 N 508.466 -1.55915 -0.229846 0
M  V30 5454 C 509.396 -1.94754 -1.28815 0
M  V30 5455 C 510.377 -0.814657 -1.49323 0
M  V30 5456 O 511.562 -1.07631 -1.61645 0
M  V30 5457 C 508.692 -2.25705 -2.63959 0
M  V30 5458 C 507.646 -3.41406 -2.5812 0
M  V30 5459 C 506.972 -3.57941 -3.97218 0
M  V30 5460 C 508.272 -4.76616 -2.13623 0
M  V30 5461 H 509.966 -2.83404 -0.965547 0
M  V30 5462 H 507.512 -1.36353 -0.463028 0
M  V30 5463 H 509.465 -2.51467 -3.38146 0
M  V30 5464 H 508.189 -1.339 -2.9789 0
M  V30 5465 H 506.848 -3.1568 -1.86391 0
M  V30 5466 H 506.496 -2.63526 -4.28443 0
M  V30 5467 H 506.196 -4.35757 -3.94195 0
M  V30 5468 H 507.72 -3.86042 -4.73079 0
M  V30 5469 H 509.134 -5.01637 -2.77549 0
M  V30 5470 H 507.531 -5.57655 -2.21677 0
M  V30 5471 H 508.601 -4.7253 -1.08829 0
M  V30 5472 N 509.944 0.496216 -1.49584 0
M  V30 5473 C 510.876 1.61404 -1.62731 0
M  V30 5474 C 511.889 1.54613 -0.50978 0
M  V30 5475 O 513.078 1.60458 -0.782017 0
M  V30 5476 C 510.178 3.00212 -1.57245 0
M  V30 5477 C 509.351 3.32138 -2.84611 0
M  V30 5478 C 508.41 4.5038 -2.72112 0
M  V30 5479 O 507.436 4.51926 -3.46051 0
M  V30 5480 N 508.638 5.50575 -1.83977 0
M  V30 5481 H 511.403 1.50552 -2.59141 0
M  V30 5482 H 508.964 0.684182 -1.46733 0
M  V30 5483 H 510.956 3.77241 -1.4653 0
M  V30 5484 H 509.526 3.04964 -0.686729 0
M  V30 5485 H 508.746 2.4396 -3.09641 0
M  V30 5486 H 510.034 3.50268 -3.69039 0
M  V30 5487 H 509.432 5.52128 -1.23171 0
M  V30 5488 H 507.989 6.26687 -1.79182 0
M  V30 5489 N 511.423 1.38739 0.74761 0
M  V30 5490 C 512.672 1.3459 1.50228 0
M  V30 5491 C 512.985 -0.0595592 1.95509 0
M  V30 5492 O 514.191 -0.22361 2.70578 0
M  V30 5493 C 512.647 2.36377 2.71393 0
M  V30 5494 C 512.255 3.82573 2.33113 0
M  V30 5495 C 513.999 2.41281 3.49262 0
M  V30 5496 C 511.906 4.76032 3.50924 0
M  V30 5497 H 510.836 0.500312 0.564096 0
M  V30 5498 H 513.487 1.64324 0.8167 0
M  V30 5499 H 511.869 1.99694 3.41962 0
M  V30 5500 H 513.043 4.28227 1.70171 0
M  V30 5501 H 511.358 3.80844 1.68365 0
M  V30 5502 H 513.955 3.08301 4.36869 0
M  V30 5503 H 514.298 1.43353 3.9084 0
M  V30 5504 H 514.831 2.76793 2.85711 0
M  V30 5505 H 511.57 5.75177 3.14408 0
M  V30 5506 H 511.09 4.35066 4.12889 0
M  V30 5507 H 512.769 4.94331 4.17427 0
M  V30 5508 N 512.901 -0.976442 1.23707 0
M  V30 5509 C 513.831 -2.08749 1.04624 0
M  V30 5510 C 514.812 -1.70057 -0.0380956 0
M  V30 5511 O 515.997 -1.93782 0.127308 0
M  V30 5512 C 513.127 -3.41335 0.640902 0
M  V30 5513 C 512.081 -3.93947 1.67302 0
M  V30 5514 C 511.407 -5.22774 1.12301 0
M  V30 5515 C 512.707 -4.22769 3.06697 0
M  V30 5516 H 514.401 -2.24972 1.97555 0
M  V30 5517 H 511.947 -1.08108 0.951247 0
M  V30 5518 H 513.9 -4.18489 0.494434 0
M  V30 5519 H 512.624 -3.24988 -0.324099 0
M  V30 5520 H 511.283 -3.18941 1.80755 0
M  V30 5521 H 510.931 -5.0278 0.148877 0
M  V30 5522 H 510.631 -5.58942 1.81267 0
M  V30 5523 H 512.155 -6.02546 0.988479 0
M  V30 5524 H 513.569 -4.90659 2.96524 0
M  V30 5525 H 511.966 -4.70147 3.72937 0
M  V30 5526 H 513.036 -3.29885 3.55392 0
M  V30 5527 N 514.379 -1.04941 -1.1758 0
M  V30 5528 C 515.326 -0.648155 -2.21512 0
M  V30 5529 C 516.296 0.348431 -1.62404 0
M  V30 5530 O 517.481 0.240419 -1.89279 0
M  V30 5531 C 514.621 -0.0264291 -3.4509 0
M  V30 5532 C 513.734 -1.07154 -4.185 0
M  V30 5533 C 512.869 -0.417403 -5.29558 0
M  V30 5534 C 511.908 -1.447 -5.94751 0
M  V30 5535 N 511.045 -0.817203 -6.97328 0
M  V30 5536 H 515.885 -1.53891 -2.55189 0
M  V30 5537 H 513.422 -0.769699 -1.25356 0
M  V30 5538 H 515.38 0.351456 -4.15717 0
M  V30 5539 H 514.01 0.827802 -3.12005 0
M  V30 5540 H 513.062 -1.56728 -3.46613 0
M  V30 5541 H 514.374 -1.8532 -4.63096 0
M  V30 5542 H 513.528 0.0142061 -6.06698 0
M  V30 5543 H 512.267 0.396265 -4.86087 0
M  V30 5544 H 511.272 -1.88865 -5.16343 0
M  V30 5545 H 512.497 -2.26252 -6.40302 0
M  V30 5546 H 510.443 -0.0239995 -6.55996 0
M  V30 5547 H 510.36 -1.53644 -7.40223 0
M  V30 5548 H 511.628 -0.410283 -7.7842 0
M  V30 5549 N 515.857 1.33968 -0.830081 0
M  V30 5550 C 516.79 2.27303 -0.202182 0
M  V30 5551 C 517.768 1.49235 0.645581 0
M  V30 5552 O 518.952 1.78433 0.607762 0
M  V30 5553 C 516.079 3.31025 0.716932 0
M  V30 5554 C 515.125 4.26466 -0.0542271 0
M  V30 5555 S 515.958 5.16707 -1.40622 0
M  V30 5556 C 517.114 6.23962 -0.492167 0
M  V30 5557 H 517.347 2.8021 -0.99346 0
M  V30 5558 H 514.88 1.41124 -0.626359 0
M  V30 5559 H 516.838 3.91271 1.24165 0
M  V30 5560 H 515.499 2.76951 1.4818 0
M  V30 5561 H 514.692 4.99858 0.644785 0
M  V30 5562 H 514.294 3.7051 -0.509722 0
M  V30 5563 H 516.586 6.76774 0.31347 0
M  V30 5564 H 517.529 6.97927 -1.19599 0
M  V30 5565 H 517.937 5.64447 -0.0774176 0
M  V30 5566 N 517.335 0.585699 1.46312 0
M  V30 5567 C 518.245 -0.148236 2.34131 0
M  V30 5568 C 519.261 -0.882972 1.49932 0
M  V30 5569 O 520.437 -0.845484 1.82794 0
M  V30 5570 C 517.502 -1.14714 3.27172 0
M  V30 5571 C 516.563 -0.416746 4.27272 0
M  V30 5572 C 515.796 -1.36806 5.15868 0
M  V30 5573 O 516.019 -2.60475 5.07454 0
M  V30 5574 O 514.953 -0.877018 5.95476 0
M  V30 5575 H 518.779 0.572882 2.98248 0
M  V30 5576 H 516.364 0.346082 1.45336 0
M  V30 5577 H 518.246 -1.72303 3.84564 0
M  V30 5578 H 516.921 -1.84967 2.65648 0
M  V30 5579 H 515.828 0.201061 3.73559 0
M  V30 5580 H 517.161 0.244872 4.9159 0
M  V30 5581 N 518.813 -1.54241 0.323641 0
M  V30 5582 C 519.761 -2.25813 -0.557804 0
M  V30 5583 C 520.755 -1.27225 -1.11849 0
M  V30 5584 O 521.961 -1.45001 -1.06652 0
M  V30 5585 H 518.336 -0.72532 -0.198532 0
M  V30 5586 H 520.307 -2.98322 0.0681112 0
M  V30 5587 C 519.056 -3.02913 -1.70701 0
M  V30 5588 H 518.379 -3.78593 -1.28482 0
M  V30 5589 H 519.819 -3.56238 -2.29935 0
M  V30 5590 C 518.278 -2.11217 -2.62467 0
M  V30 5591 O 518.808 -1.69508 -3.64184 0
M  V30 5592 N 517.014 -1.76704 -2.30703 0
M  V30 5593 H 516.561 -2.1082 -1.48029 0
M  V30 5594 H 516.519 -1.15631 -2.92364 0
M  V30 5595 N 520.291 -0.0518155 -1.57515 0
M  V30 5596 C 521.238 0.922352 -2.11569 0
M  V30 5597 C 522.208 1.30842 -1.02321 0
M  V30 5598 O 523.393 1.39778 -1.29872 0
M  V30 5599 C 520.533 2.19167 -2.6657 0
M  V30 5600 C 519.646 1.86003 -3.89906 0
M  V30 5601 C 518.781 3.07398 -4.33221 0
M  V30 5602 C 517.82 2.70158 -5.49255 0
M  V30 5603 N 516.957 3.84248 -5.8762 0
M  V30 5604 H 521.797 0.454506 -2.94514 0
M  V30 5605 H 519.334 0.212718 -1.45554 0
M  V30 5606 H 521.292 2.93443 -2.96559 0
M  V30 5607 H 519.922 2.63528 -1.86421 0
M  V30 5608 H 518.974 1.01874 -3.66505 0
M  V30 5609 H 520.286 1.54592 -4.74239 0
M  V30 5610 H 519.44 3.89972 -4.64765 0
M  V30 5611 H 518.179 3.41988 -3.477 0
M  V30 5612 H 517.184 1.86001 -5.17382 0
M  V30 5613 H 518.409 2.36759 -6.36492 0
M  V30 5614 H 516.355 4.18638 -5.05053 0
M  V30 5615 H 516.272 3.56538 -6.66646 0
M  V30 5616 H 517.54 4.6746 -6.2378 0
M  V30 5617 N 521.769 1.56035 0.221574 0
M  V30 5618 C 522.679 1.95581 1.29558 0
M  V30 5619 C 523.695 0.859639 1.51282 0
M  V30 5620 O 524.871 1.16321 1.64413 0
M  V30 5621 C 521.936 2.26447 2.62531 0
M  V30 5622 C 520.997 3.49632 2.4911 0
M  V30 5623 C 520.23 3.79017 3.75742 0
M  V30 5624 O 520.453 3.10077 4.78757 0
M  V30 5625 O 519.387 4.72507 3.72855 0
M  V30 5626 H 523.213 2.8711 0.990035 0
M  V30 5627 H 520.798 1.43244 0.424434 0
M  V30 5628 H 522.68 2.47494 3.41064 0
M  V30 5629 H 521.355 1.38092 2.92766 0
M  V30 5630 H 520.262 3.33864 1.68777 0
M  V30 5631 H 521.595 4.3837 2.23814 0
M  V30 5632 N 523.247 -0.488276 1.49845 0
M  V30 5633 C 524.493 -1.24341 1.6021 0
M  V30 5634 C 524.826 -1.91967 0.293651 0
M  V30 5635 O 524.101 -1.81323 -0.703718 0
M  V30 5636 C 524.384 -2.3005 2.77036 0
M  V30 5637 C 524.237 -1.66842 4.17713 0
M  V30 5638 C 525.556 -3.31509 2.89464 0
M  V30 5639 H 522.675 -0.450704 0.583125 0
M  V30 5640 H 525.317 -0.539673 1.82174 0
M  V30 5641 H 523.467 -2.90071 2.58439 0
M  V30 5642 H 525.139 -1.1055 4.47858 0
M  V30 5643 H 523.382 -0.972079 4.22768 0
M  V30 5644 H 524.053 -2.43576 4.95353 0
M  V30 5645 H 526.529 -2.81493 3.06433 0
M  V30 5646 H 525.405 -4.02822 3.72861 0
M  V30 5647 H 525.666 -3.94603 1.99351 0
M  V30 5648 N 524.725 -1.39134 -0.740242 0
M  V30 5649 C 525.655 -1.40165 -1.86751 0
M  V30 5650 C 526.636 -0.265708 -1.68012 0
M  V30 5651 O 527.821 -0.47076 -1.88408 0
M  V30 5652 C 524.951 -1.2392 -3.2444 0
M  V30 5653 C 523.905 -2.34858 -3.57807 0
M  V30 5654 C 523.231 -2.03707 -4.94376 0
M  V30 5655 C 524.531 -3.77159 -3.61315 0
M  V30 5656 H 526.225 -2.345 -1.86145 0
M  V30 5657 H 523.771 -1.12875 -0.89416 0
M  V30 5658 H 525.724 -1.23263 -4.02969 0
M  V30 5659 H 524.448 -0.26051 -3.25559 0
M  V30 5660 H 523.107 -2.34723 -2.81604 0
M  V30 5661 H 522.755 -1.04289 -4.9207 0
M  V30 5662 H 522.455 -2.78016 -5.17669 0
M  V30 5663 H 523.979 -2.04691 -5.75268 0
M  V30 5664 H 525.393 -3.79252 -4.29931 0
M  V30 5665 H 523.79 -4.50784 -3.96124 0
M  V30 5666 H 524.86 -4.08513 -2.61238 0
M  V30 5667 N 526.204 0.969867 -1.24223 0
M  V30 5668 C 527.615 1.52717 -1.07399 0
M  V30 5669 C 527.966 1.92956 0.355298 0
M  V30 5670 O 527.091 1.77112 1.2434 0
M  V30 5671 C 527.686 2.77521 -1.94339 0
M  V30 5672 C 526.245 3.29615 -1.81744 0
M  V30 5673 C 525.392 2.02537 -1.89405 0
M  V30 5674 H 528.343 0.788399 -1.37732 0
M  V30 5675 H 528.364 3.50773 -1.47439 0
M  V30 5676 H 527.876 2.48203 -2.98357 0
M  V30 5677 H 525.977 3.63789 -0.805505 0
M  V30 5678 H 526.09 3.98661 -2.65718 0
M  V30 5679 H 524.454 2.17151 -1.33108 0
M  V30 5680 H 525.237 1.75587 -2.94999 0
M  V30 5681 N 527.682 1.05563 1.17022 0
M  V30 5682 C 528.614 0.617888 2.20714 0
M  V30 5683 C 529.627 -0.320303 1.59618 0
M  V30 5684 O 530.816 -0.112449 1.78145 0
M  V30 5685 C 527.916 -0.115333 3.38704 0
M  V30 5686 C 527.089 0.834493 4.29366 0
M  V30 5687 C 526.148 0.141855 5.26009 0
M  V30 5688 O 525.174 0.777151 5.6387 0
M  V30 5689 N 526.376 -1.11934 5.69606 0
M  V30 5690 H 529.141 1.50981 2.58892 0
M  V30 5691 H 526.702 0.938008 1.31958 0
M  V30 5692 H 528.694 -0.588918 4.00392 0
M  V30 5693 H 527.264 -0.908967 2.99093 0
M  V30 5694 H 526.484 1.48762 3.65053 0
M  V30 5695 H 527.772 1.4791 4.86827 0
M  V30 5696 H 527.17 -1.65574 5.40927 0
M  V30 5697 H 525.727 -1.53692 6.33421 0
M  V30 5698 N 529.16 -1.33526 0.837174 0
M  V30 5699 C 530.09 -2.31764 0.284206 0
M  V30 5700 C 531.071 -1.58896 -0.607142 0
M  V30 5701 O 532.256 -1.86798 -0.531047 0
M  V30 5702 C 529.386 -3.43029 -0.542962 0
M  V30 5703 C 528.34 -4.27255 0.252451 0
M  V30 5704 C 527.666 -5.3012 -0.69836 0
M  V30 5705 C 528.966 -5.01229 1.46858 0
M  V30 5706 H 530.66 -2.78262 1.10502 0
M  V30 5707 H 528.206 -1.3378 0.532812 0
M  V30 5708 H 530.159 -4.1078 -0.940096 0
M  V30 5709 H 528.883 -2.95216 -1.39697 0
M  V30 5710 H 527.542 -3.61127 0.631124 0
M  V30 5711 H 527.19 -4.78564 -1.54872 0
M  V30 5712 H 526.89 -5.87353 -0.170274 0
M  V30 5713 H 528.414 -6.00737 -1.09305 0
M  V30 5714 H 529.828 -5.61756 1.14469 0
M  V30 5715 H 528.225 -5.68104 1.93333 0
M  V30 5716 H 529.295 -4.301 2.23924 0
M  V30 5717 N 530.638 -0.59345 -1.46 0
M  V30 5718 C 531.884 -0.0832754 -2.02629 0
M  V30 5719 C 532.217 1.27749 -1.46266 0
M  V30 5720 O 531.492 1.8395 -0.631866 0
M  V30 5721 C 531.775 -0.0290756 -3.60088 0
M  V30 5722 C 531.628 -1.41951 -4.26814 0
M  V30 5723 C 532.947 0.666055 -4.35031 0
M  V30 5724 H 530.066 -0.031736 -0.736316 0
M  V30 5725 H 532.708 -0.762711 -1.74019 0
M  V30 5726 H 530.858 0.549532 -3.84594 0
M  V30 5727 H 532.53 -2.04411 -4.13538 0
M  V30 5728 H 530.773 -1.98422 -3.8576 0
M  V30 5729 H 531.444 -1.33395 -5.3564 0
M  V30 5730 H 533.92 0.174401 -4.15734 0
M  V30 5731 H 532.796 0.673041 -5.44758 0
M  V30 5732 H 533.057 1.72946 -4.06869 0
M  V30 5733 N 532.116 1.54067 -0.331816 0
M  V30 5734 C 533.393 1.92915 0.322955 0
M  V30 5735 C 533.773 1.26225 1.69205 0
M  V30 5736 O 533.121 0.408919 2.24811 0
M  V30 5737 C 533.331 3.46619 0.406946 0
M  V30 5738 C 534.679 4.19386 0.663339 0
M  V30 5739 O 535.703 3.5282 0.489536 0
M  V30 5740 O 534.562 5.37288 0.999193 0
M  V30 5741 H 531.656 0.805808 0.186016 0
M  V30 5742 H 534.202 1.65342 -0.382135 0
M  V30 5743 H 532.974 3.87354 -0.554287 0
M  V30 5744 H 532.597 3.80324 1.15929 0
M  V30 5745 N 533.594 0.0601682 1.57485 0
M  V30 5746 C 534.557 -0.896373 2.10945 0
M  V30 5747 C 535.557 -1.23402 1.03095 0
M  V30 5748 O 536.747 -1.16921 1.29132 0
M  V30 5749 C 533.879 -2.20346 2.60116 0
M  V30 5750 H 535.072 -0.432778 2.96761 0
M  V30 5751 H 532.625 -0.188372 1.55161 0
M  V30 5752 H 533.36 -2.71268 1.7772 0
M  V30 5753 H 533.145 -1.9714 3.38937 0
M  V30 5754 H 534.635 -2.88846 3.01592 0
M  V30 5755 N 535.072 -1.5615 -0.213296 0
M  V30 5756 C 536.318 -1.79812 -0.937849 0
M  V30 5757 C 536.651 -0.631201 -1.83656 0
M  V30 5758 O 535.926 0.369165 -1.90964 0
M  V30 5759 C 536.209 -3.13613 -1.76972 0
M  V30 5760 C 536.062 -4.40766 -0.89695 0
M  V30 5761 C 537.381 -3.43931 -2.7459 0
M  V30 5762 H 534.5 -0.654138 -0.339518 0
M  V30 5763 H 537.142 -1.88877 -0.20623 0
M  V30 5764 H 535.292 -3.06015 -2.39347 0
M  V30 5765 H 536.964 -4.60392 -0.289306 0
M  V30 5766 H 535.207 -4.33326 -0.202756 0
M  V30 5767 H 535.878 -5.30843 -1.51358 0
M  V30 5768 H 538.354 -3.5171 -2.22349 0
M  V30 5769 H 537.23 -4.38706 -3.29891 0
M  V30 5770 H 537.491 -2.6651 -3.52739 0
M  V30 5771 N 536.55 0.480323 -1.50102 0
M  V30 5772 C 537.778 1.25657 -1.64371 0
M  V30 5773 C 538.193 1.86011 -0.323316 0
M  V30 5774 O 537.55 1.68803 0.693682 0
M  V30 5775 C 537.601 2.37197 -2.728 0
M  V30 5776 O 537.322 1.7932 -3.9972 0
M  V30 5777 C 538.823 3.2823 -2.9796 0
M  V30 5778 H 536.043 0.380369 -0.552775 0
M  V30 5779 H 538.587 0.574379 -1.96268 0
M  V30 5780 H 536.742 3.01208 -2.43623 0
M  V30 5781 H 537.156 2.52701 -4.59611 0
M  V30 5782 H 538.63 4.02725 -3.77513 0
M  V30 5783 H 539.107 3.86462 -2.08671 0
M  V30 5784 H 539.713 2.69964 -3.28633 0
M  V30 5785 N 538.028 1.39524 0.732853 0
M  V30 5786 C 539.253 1.40329 1.52717 0
M  V30 5787 C 539.678 0.000286574 1.881 0
M  V30 5788 O 539.036 -0.987262 1.52062 0
M  V30 5789 C 539.084 2.28464 2.78992 0
M  V30 5790 O 538.188 1.716 3.75003 0
M  V30 5791 H 537.529 0.47778 0.461109 0
M  V30 5792 H 540.059 1.83546 0.903996 0
M  V30 5793 H 540.069 2.43051 3.27705 0
M  V30 5794 H 538.744 3.30425 2.52572 0
M  V30 5795 H 537.321 1.66267 3.33781 0
M  V30 5796 N 539.506 -0.963266 1.24736 0
M  V30 5797 C 540.469 -2.04013 1.04457 0
M  V30 5798 C 541.469 -1.608 0.000335555 0
M  V30 5799 O 542.659 -1.72515 0.241719 0
M  V30 5800 C 539.791 -3.35858 0.584162 0
M  V30 5801 H 540.984 -2.23436 2.00041 0
M  V30 5802 H 538.537 -1.13914 1.07021 0
M  V30 5803 H 539.272 -3.22128 -0.374673 0
M  V30 5804 H 539.057 -3.68568 1.3379 0
M  V30 5805 H 540.547 -4.1502 0.463451 0
M  V30 5806 N 540.985 -1.06182 -1.16461 0
M  V30 5807 C 541.917 -0.629584 -2.20383 0
M  V30 5808 C 542.93 0.311834 -1.59786 0
M  V30 5809 O 544.119 0.103 -1.78203 0
M  V30 5810 C 541.219 0.0973695 -3.3876 0
M  V30 5811 C 540.392 -0.857252 -4.28917 0
M  V30 5812 C 539.451 -0.169749 -5.25926 0
M  V30 5813 O 538.477 -0.807044 -5.6345 0
M  V30 5814 N 539.679 1.08911 -5.70192 0
M  V30 5815 H 542.444 -1.52352 -2.58087 0
M  V30 5816 H 540.005 -0.944993 -1.31459 0
M  V30 5817 H 541.997 0.567676 -4.00699 0
M  V30 5818 H 540.567 0.893093 -2.99571 0
M  V30 5819 H 539.787 -1.50696 -3.64259 0
M  V30 5820 H 541.075 -1.50489 -4.86035 0
M  V30 5821 H 540.473 1.62703 -5.41797 0
M  V30 5822 H 539.03 1.50331 -6.34227 0
M  V30 5823 N 542.463 1.3308 -0.844243 0
M  V30 5824 C 543.691 2.01808 -0.456203 0
M  V30 5825 C 544.106 1.63498 0.944131 0
M  V30 5826 O 543.463 0.85102 1.61443 0
M  V30 5827 C 543.514 3.56922 -0.573513 0
M  V30 5828 O 543.235 3.93851 -1.91868 0
M  V30 5829 C 544.736 4.42922 -0.183125 0
M  V30 5830 H 541.956 0.646273 -0.180477 0
M  V30 5831 H 544.5 1.69891 -1.1383 0
M  V30 5832 H 542.655 3.87352 0.0607367 0
M  V30 5833 H 543.069 4.88564 -1.90802 0
M  V30 5834 H 544.543 5.51093 -0.316241 0
M  V30 5835 H 545.02 4.30386 0.875477 0
M  V30 5836 H 545.626 4.1786 -0.792027 0
M  V30 5837 N 543.941 0.601185 1.45683 0
M  V30 5838 C 545.166 0.0982245 2.07167 0
M  V30 5839 C 545.591 -1.20546 1.44396 0
M  V30 5840 O 544.949 -1.73247 0.534347 0
M  V30 5841 C 544.997 -0.0346976 3.60583 0
M  V30 5842 O 544.101 -1.08657 3.97828 0
M  V30 5843 H 543.442 0.0711618 0.660176 0
M  V30 5844 H 545.972 0.829376 1.87036 0
M  V30 5845 H 545.982 -0.234969 4.07323 0
M  V30 5846 H 544.657 0.917265 4.05659 0
M  V30 5847 H 543.234 -0.863275 3.6277 0
M  V30 5848 N 545.419 -1.53889 0.339982 0
M  V30 5849 C 546.696 -1.93084 -0.312719 0
M  V30 5850 C 547.076 -1.2712 -1.68534 0
M  V30 5851 O 546.424 -0.420835 -2.24591 0
M  V30 5852 C 546.634 -3.4683 -0.388558 0
M  V30 5853 C 547.982 -4.19732 -0.641088 0
M  V30 5854 O 549.006 -3.53075 -0.470818 0
M  V30 5855 O 547.865 -5.3781 -0.970685 0
M  V30 5856 H 544.959 -0.806784 -0.18174 0
M  V30 5857 H 547.505 -1.65137 0.390898 0
M  V30 5858 H 546.277 -3.87055 0.574821 0
M  V30 5859 H 545.9 -3.80933 -1.1391 0
M  V30 5860 N 546.897 -0.0685191 -1.57451 0
M  V30 5861 C 548.122 0.613919 -1.98106 0
M  V30 5862 C 548.547 1.62551 -0.946501 0
M  V30 5863 O 547.905 1.81085 0.0882824 0
M  V30 5864 C 547.953 1.26189 -3.378 0
M  V30 5865 O 547.057 2.37773 -3.36954 0
M  V30 5866 H 546.398 0.158163 -0.644888 0
M  V30 5867 H 548.928 -0.142063 -2.04106 0
M  V30 5868 H 548.938 1.60951 -3.74912 0
M  V30 5869 H 547.613 0.520625 -4.12629 0
M  V30 5870 H 546.19 2.04829 -3.11608 0
M  V30 5871 N 548.375 1.56261 0.205012 0
M  V30 5872 C 549.305 1.96779 1.257 0
M  V30 5873 C 550.286 0.838309 1.48008 0
M  V30 5874 O 551.471 1.10189 1.59913 0
M  V30 5875 C 548.601 2.29876 2.60335 0
M  V30 5876 C 547.555 3.45469 2.52656 0
M  V30 5877 C 546.881 3.64215 3.91473 0
M  V30 5878 C 548.181 4.79954 2.06014 0
M  V30 5879 H 549.875 2.84904 0.920338 0
M  V30 5880 H 547.421 1.37072 0.441277 0
M  V30 5881 H 549.374 2.56814 3.34102 0
M  V30 5882 H 548.098 1.38622 2.95722 0
M  V30 5883 H 546.757 3.18605 1.81345 0
M  V30 5884 H 546.405 2.70309 4.24196 0
M  V30 5885 H 546.105 4.41973 3.87213 0
M  V30 5886 H 547.629 3.93519 4.66878 0
M  V30 5887 H 549.043 5.05989 2.69533 0
M  V30 5888 H 547.44 5.61111 2.12777 0
M  V30 5889 H 548.51 4.74201 1.01297 0
M  V30 5890 N 549.853 -0.472356 1.50355 0
M  V30 5891 C 550.763 -1.59637 1.7191 0
M  V30 5892 C 551.779 -1.63247 0.602195 0
M  V30 5893 O 552.955 -1.81139 0.880369 0
M  V30 5894 C 550.02 -2.9586 1.80742 0
M  V30 5895 C 549.081 -3.02649 3.04471 0
M  V30 5896 C 548.314 -4.32374 3.12872 0
M  V30 5897 O 548.537 -5.22807 2.28099 0
M  V30 5898 O 547.471 -4.44728 4.05587 0
M  V30 5899 H 551.297 -1.44373 2.67189 0
M  V30 5900 H 548.882 -0.651717 1.34436 0
M  V30 5901 H 550.764 -3.7677 1.88739 0
M  V30 5902 H 549.439 -3.11325 0.88647 0
M  V30 5903 H 548.346 -2.20821 3.01975 0
M  V30 5904 H 549.679 -2.92119 3.9614 0
M  V30 5905 N 551.331 -1.39911 -0.725443 0
M  V30 5906 C 552.294 -1.39156 -1.82121 0
M  V30 5907 C 553.294 -0.287018 -1.58218 0
M  V30 5908 O 554.484 -0.545421 -1.65441 0
M  V30 5909 C 551.616 -1.1736 -3.20062 0
M  V30 5910 H 552.809 -2.36672 -1.84191 0
M  V30 5911 H 550.362 -1.25615 -0.930079 0
M  V30 5912 H 551.097 -0.205648 -3.23647 0
M  V30 5913 H 550.882 -1.97358 -3.3881 0
M  V30 5914 H 552.372 -1.19596 -4.00108 0
M  V30 5915 N 552.809 0.956637 -1.25245 0
M  V30 5916 C 554.058 1.69537 -1.0927 0
M  V30 5917 C 554.371 1.92136 0.366503 0
M  V30 5918 O 555.577 2.63687 0.64665 0
M  V30 5919 C 554.033 3.05211 -1.9072 0
M  V30 5920 C 553.641 2.90416 -3.41119 0
M  V30 5921 C 555.385 3.82882 -1.83308 0
M  V30 5922 C 553.292 4.21468 -4.14872 0
M  V30 5923 H 552.222 0.635804 -0.405302 0
M  V30 5924 H 554.873 1.06513 -1.49423 0
M  V30 5925 H 553.255 3.69128 -1.43389 0
M  V30 5926 H 554.429 2.35444 -3.9611 0
M  V30 5927 H 552.744 2.26203 -3.49602 0
M  V30 5928 H 555.341 4.79944 -2.35706 0
M  V30 5929 H 555.684 4.0853 -0.800572 0
M  V30 5930 H 556.217 3.25711 -2.28379 0
M  V30 5931 H 552.956 4.01009 -5.18529 0
M  V30 5932 H 552.476 4.76213 -3.64665 0
M  V30 5933 H 554.155 4.90022 -4.22478 0
M  V30 5934 N 554.287 1.06798 1.15896 0
M  V30 5935 C 555.217 0.704677 2.22613 0
M  V30 5936 C 556.198 -0.305252 1.67339 0
M  V30 5937 O 557.383 -0.179247 1.93371 0
M  V30 5938 C 554.513 0.0957325 3.47168 0
M  V30 5939 C 553.467 1.0322 4.15367 0
M  V30 5940 C 552.793 0.286293 5.33933 0
M  V30 5941 C 554.093 2.36341 4.65768 0
M  V30 5942 H 555.787 1.59688 2.53259 0
M  V30 5943 H 553.333 0.769257 1.21731 0
M  V30 5944 H 555.286 -0.170333 4.21056 0
M  V30 5945 H 554.01 -0.831516 3.15838 0
M  V30 5946 H 552.669 1.28309 3.43413 0
M  V30 5947 H 552.317 -0.644237 4.98857 0
M  V30 5948 H 552.017 0.910436 5.80504 0
M  V30 5949 H 553.541 0.0278938 6.10594 0
M  V30 5950 H 554.955 2.1561 5.31211 0
M  V30 5951 H 553.352 2.94299 5.2298 0
M  V30 5952 H 554.422 2.99047 3.81705 0
M  V30 5953 N 555.766 -1.3263 0.851289 0
M  V30 5954 C 557.043 -1.91982 0.374448 0
M  V30 5955 C 557.423 -1.77568 -1.14161 0
M  V30 5956 O 556.771 -1.1717 -1.96172 0
M  V30 5957 C 556.981 -3.38862 0.835088 0
M  V30 5958 C 558.329 -4.15999 0.850309 0
M  V30 5959 O 559.353 -3.47566 0.779505 0
M  V30 5960 O 558.212 -5.38189 0.949481 0
M  V30 5961 H 555.306 -0.819846 0.10854 0
M  V30 5962 H 557.852 -1.41422 0.937966 0
M  V30 5963 H 556.624 -3.43281 1.87814 0
M  V30 5964 H 556.247 -3.96821 0.248833 0
M  V30 5965 N 557.244 -0.608902 -1.45362 0
M  V30 5966 C 558.491 -0.104607 -2.0223 0
M  V30 5967 C 558.819 1.26534 -1.47714 0
M  V30 5968 O 558.074 1.84855 -0.642435 0
M  V30 5969 C 558.373 -0.0167296 -3.57396 0
M  V30 5970 C 558.039 -1.32251 -4.31069 0
M  V30 5971 C 556.701 -1.68019 -4.50914 0
M  V30 5972 C 559.053 -2.18542 -4.73169 0
M  V30 5973 C 556.381 -2.89828 -5.10114 0
M  V30 5974 C 558.733 -3.39602 -5.33717 0
M  V30 5975 C 557.397 -3.7562 -5.51784 0
M  V30 5976 H 556.667 -0.0382785 -0.740011 0
M  V30 5977 H 559.314 -0.790782 -1.7441 0
M  V30 5978 H 557.619 0.752715 -3.84502 0
M  V30 5979 H 559.316 0.389634 -3.99103 0
M  V30 5980 H 555.906 -1.03411 -4.15938 0
M  V30 5981 H 560.09 -1.92208 -4.5757 0
M  V30 5982 H 555.346 -3.17839 -5.22291 0
M  V30 5983 H 559.52 -4.06716 -5.65292 0
M  V30 5984 H 557.147 -4.70093 -5.97425 0
M  V30 5985 N 558.722 1.53707 -0.348139 0
M  V30 5986 C 559.652 2.28111 0.498766 0
M  V30 5987 C 560.633 1.29851 1.09876 0
M  V30 5988 O 561.818 1.587 1.11928 0
M  V30 5989 C 558.948 3.05735 1.64753 0
M  V30 5990 C 557.902 4.11537 1.17565 0
M  V30 5991 C 557.228 4.77142 2.4133 0
M  V30 5992 C 558.528 5.21587 0.272844 0
M  V30 5993 H 560.222 2.99152 -0.121934 0
M  V30 5994 H 557.768 1.43875 -0.0600842 0
M  V30 5995 H 559.721 3.56526 2.24649 0
M  V30 5996 H 558.445 2.32354 2.2952 0
M  V30 5997 H 557.104 3.61665 0.599483 0
M  V30 5998 H 556.752 4.0035 3.04514 0
M  V30 5999 H 556.452 5.48626 2.10436 0
M  V30 6000 H 557.976 5.30719 3.01943 0
M  V30 6001 H 559.39 5.67986 0.778779 0
M  V30 6002 H 557.787 6.00074 0.0555849 0
M  V30 6003 H 558.857 4.79969 -0.689785 0
M  V30 6004 N 560.2 0.0768682 1.57412 0
M  V30 6005 C 561.477 -0.632359 1.85096 0
M  V30 6006 C 561.857 -1.87479 0.9703 0
M  V30 6007 O 561.205 -2.28469 0.0379062 0
M  V30 6008 C 561.415 -0.965174 3.35388 0
M  V30 6009 C 562.763 -1.33648 4.03018 0
M  V30 6010 O 563.787 -1.05675 3.40164 0
M  V30 6011 O 562.646 -1.85959 5.13889 0
M  V30 6012 H 559.74 -0.314574 0.764835 0
M  V30 6013 H 562.286 0.108184 1.69355 0
M  V30 6014 H 561.058 -0.0829745 3.91212 0
M  V30 6015 H 560.681 -1.76231 3.5641 0
M  V30 6016 N 561.678 -1.56367 -0.196722 0
M  V30 6017 C 562.925 -1.80529 -0.917366 0
M  V30 6018 C 563.253 -0.649817 -1.83324 0
M  V30 6019 O 562.508 0.36451 -1.92275 0
M  V30 6020 C 562.807 -3.10663 -1.767 0
M  V30 6021 C 562.473 -4.3962 -1.00225 0
M  V30 6022 C 561.135 -4.74653 -0.791095 0
M  V30 6023 C 563.487 -5.1913 -0.464035 0
M  V30 6024 C 560.815 -5.86692 -0.0302155 0
M  V30 6025 C 563.167 -6.31964 0.283625 0
M  V30 6026 C 561.831 -6.65581 0.505813 0
M  V30 6027 H 561.101 -0.660602 -0.335688 0
M  V30 6028 H 563.748 -1.90615 -0.183844 0
M  V30 6029 H 562.053 -2.95807 -2.56915 0
M  V30 6030 H 563.75 -3.26563 -2.32718 0
M  V30 6031 H 560.34 -4.12127 -1.17684 0
M  V30 6032 H 564.524 -4.9248 -0.614575 0
M  V30 6033 H 559.78 -6.11211 0.151917 0
M  V30 6034 H 563.954 -6.92791 0.708057 0
M  V30 6035 H 561.581 -7.52239 1.0973 0
M  V30 6036 N 563.156 0.464375 -1.50603 0
M  V30 6037 C 564.103 1.56152 -1.69956 0
M  V30 6038 C 565.073 1.57046 -0.54091 0
M  V30 6039 O 566.258 1.74473 -0.772258 0
M  V30 6040 C 563.398 2.94079 -1.80586 0
M  V30 6041 C 562.511 3.02923 -3.07996 0
M  V30 6042 C 561.646 4.31806 -3.09382 0
M  V30 6043 C 560.685 4.34417 -4.31218 0
M  V30 6044 N 559.822 5.54782 -4.30304 0
M  V30 6045 H 564.662 1.38955 -2.6362 0
M  V30 6046 H 562.199 0.675482 -1.30674 0
M  V30 6047 H 564.157 3.74073 -1.8473 0
M  V30 6048 H 562.787 3.09896 -0.903556 0
M  V30 6049 H 561.839 2.1576 -3.13292 0
M  V30 6050 H 563.151 3.00712 -3.97962 0
M  V30 6051 H 562.305 5.20153 -3.12292 0
M  V30 6052 H 561.044 4.36636 -2.17257 0
M  V30 6053 H 560.049 3.44467 -4.28512 0
M  V30 6054 H 561.274 4.31273 -5.24576 0
M  V30 6055 H 559.22 5.60384 -3.41037 0
M  V30 6056 H 559.137 5.54339 -5.14047 0
M  V30 6057 H 560.405 6.45235 -4.3737 0
M  V30 6058 N 564.634 1.40294 0.718013 0
M  V30 6059 C 565.859 1.41941 1.5122 0
M  V30 6060 C 566.284 0.0202371 1.88089 0
M  V30 6061 O 565.642 -0.971078 1.53101 0
M  V30 6062 C 565.69 2.3141 2.76554 0
M  V30 6063 O 564.794 1.75567 3.73162 0
M  V30 6064 H 564.135 0.482644 0.456016 0
M  V30 6065 H 566.665 1.84494 0.884478 0
M  V30 6066 H 566.675 2.46513 3.25108 0
M  V30 6067 H 565.35 3.33085 2.49053 0
M  V30 6068 H 563.927 1.69798 3.31999 0
M  V30 6069 N 566.112 -0.949982 1.2575 0
M  V30 6070 C 567.389 -1.6718 1.01539 0
M  V30 6071 C 567.769 -2.06095 -0.456942 0
M  V30 6072 O 567.117 -1.77792 -1.43534 0
M  V30 6073 C 567.327 -2.8906 1.95564 0
M  V30 6074 C 568.675 -3.60909 2.23673 0
M  V30 6075 O 569.699 -2.9915 1.9336 0
M  V30 6076 O 568.558 -4.72127 2.75243 0
M  V30 6077 H 565.652 -0.731697 0.385419 0
M  V30 6078 H 568.198 -1.00249 1.36924 0
M  V30 6079 H 566.97 -2.57128 2.94959 0
M  V30 6080 H 566.593 -3.63719 1.60605 0
M  V30 6081 N 567.59 -1.07411 -1.15328 0
M  V30 6082 C 568.815 -0.818856 -1.90551 0
M  V30 6083 C 569.24 0.622194 -1.77512 0
M  V30 6084 O 568.598 1.43484 -1.10824 0
M  V30 6085 C 568.646 -1.23267 -3.38877 0
M  V30 6086 O 567.75 -0.378345 -4.10661 0
M  V30 6087 H 567.091 -0.29827 -0.593238 0
M  V30 6088 H 569.621 -1.43289 -1.46046 0
M  V30 6089 H 569.631 -1.20912 -3.89672 0
M  V30 6090 H 568.306 -2.28226 -3.47686 0
M  V30 6091 H 566.883 -0.464437 -3.69996 0
M  V30 6092 N 569.068 1.32177 -0.85831 0
M  V30 6093 C 570.293 2.01847 -0.476718 0
M  V30 6094 C 570.718 1.64065 0.920021 0
M  V30 6095 O 570.076 0.843189 1.60499 0
M  V30 6096 C 570.124 3.55097 -0.627578 0
M  V30 6097 O 569.228 4.11012 0.338086 0
M  V30 6098 H 568.569 0.635907 -0.191099 0
M  V30 6099 H 571.099 1.68641 -1.15851 0
M  V30 6100 H 571.109 4.04718 -0.516476 0
M  V30 6101 H 569.784 3.81938 -1.64609 0
M  V30 6102 H 568.361 3.72451 0.182917 0
M  V30 6103 N 570.547 0.616602 1.45037 0
M  V30 6104 C 571.796 0.112861 2.01384 0
M  V30 6105 C 572.109 -1.26758 1.48969 0
M  V30 6106 O 573.315 -1.86454 1.9735 0
M  V30 6107 C 571.771 0.151057 3.59583 0
M  V30 6108 C 571.379 1.53191 4.20995 0
M  V30 6109 C 573.123 -0.296974 4.2346 0
M  V30 6110 C 571.03 1.526 5.71373 0
M  V30 6111 H 569.96 0.0384254 0.75302 0
M  V30 6112 H 572.611 0.773262 1.66412 0
M  V30 6113 H 570.993 -0.57617 3.91786 0
M  V30 6114 H 572.167 2.28156 4.00352 0
M  V30 6115 H 570.482 1.92279 3.69348 0
M  V30 6116 H 573.079 -0.320712 5.33737 0
M  V30 6117 H 573.422 -1.32145 3.9477 0
M  V30 6118 H 573.955 0.377279 3.96007 0
M  V30 6119 H 570.694 2.52837 6.04776 0
M  V30 6120 H 570.214 0.819064 5.94181 0
M  V30 6121 H 571.893 1.25357 6.3474 0
M  V30 6122 N 572.025 -1.5352 0.356285 0
M  V30 6123 C 573.274 -2.00298 -0.237373 0
M  V30 6124 C 573.587 -1.24784 -1.50627 0
M  V30 6125 O 574.793 -1.62103 -2.17795 0
M  V30 6126 C 573.249 -3.56771 -0.473545 0
M  V30 6127 C 572.857 -4.41154 0.780183 0
M  V30 6128 C 574.601 -4.1193 -1.02537 0
M  V30 6129 C 572.508 -5.89161 0.514108 0
M  V30 6130 H 571.438 -0.748307 -0.092478 0
M  V30 6131 H 574.089 -1.77283 0.473588 0
M  V30 6132 H 572.471 -3.75902 -1.24553 0
M  V30 6133 H 573.645 -4.33797 1.55425 0
M  V30 6134 H 571.96 -3.97052 1.25455 0
M  V30 6135 H 574.557 -5.20133 -1.2396 0
M  V30 6136 H 574.9 -3.65943 -1.98473 0
M  V30 6137 H 575.433 -3.96561 -0.313775 0
M  V30 6138 H 572.172 -6.39408 1.44355 0
M  V30 6139 H 571.692 -5.9939 -0.221632 0
M  V30 6140 H 573.371 -6.46857 0.136122 0
M  V30 6141 N 573.503 -0.0852151 -1.57369 0
M  V30 6142 C 574.433 0.874556 -2.16503 0
M  V30 6143 C 575.414 1.30111 -1.09568 0
M  V30 6144 O 576.599 1.36977 -1.37662 0
M  V30 6145 C 573.729 2.13731 -2.73745 0
M  V30 6146 C 572.683 1.84971 -3.85966 0
M  V30 6147 C 572.009 3.17991 -4.29867 0
M  V30 6148 C 573.309 1.14442 -5.09608 0
M  V30 6149 H 575.003 0.381899 -2.96954 0
M  V30 6150 H 572.549 0.18225 -1.42842 0
M  V30 6151 H 574.502 2.81302 -3.13763 0
M  V30 6152 H 573.226 2.65263 -1.90534 0
M  V30 6153 H 571.885 1.19801 -3.46473 0
M  V30 6154 H 571.533 3.6739 -3.4356 0
M  V30 6155 H 571.233 2.99534 -5.05523 0
M  V30 6156 H 572.757 3.86737 -4.72511 0
M  V30 6157 H 574.171 1.72105 -5.46857 0
M  V30 6158 H 572.568 1.06197 -5.90629 0
M  V30 6159 H 573.638 0.12559 -4.84737 0
M  V30 6160 N 574.981 1.5647 0.188427 0
M  V30 6161 C 575.913 1.91611 1.25769 0
M  V30 6162 C 576.926 0.807436 1.41366 0
M  V30 6163 O 578.115 1.08586 1.41673 0
M  V30 6164 C 575.215 2.13874 2.6289 0
M  V30 6165 C 574.388 3.45047 2.68815 0
M  V30 6166 C 573.447 3.56342 3.87178 0
M  V30 6167 O 572.473 4.29109 3.73971 0
M  V30 6168 N 573.675 2.89924 5.02916 0
M  V30 6169 H 576.44 2.8393 0.959373 0
M  V30 6170 H 574.001 1.57418 0.378306 0
M  V30 6171 H 575.993 2.18713 3.4051 0
M  V30 6172 H 574.563 1.28022 2.85183 0
M  V30 6173 H 573.783 3.52017 1.77419 0
M  V30 6174 H 575.071 4.31395 2.6977 0
M  V30 6175 H 574.469 2.30644 5.16546 0
M  V30 6176 H 573.026 3.0038 5.78459 0
M  V30 6177 N 576.459 -0.456382 1.50847 0
M  V30 6178 C 577.369 -1.57805 1.73594 0
M  V30 6179 C 578.385 -1.62599 0.619476 0
M  V30 6180 O 579.561 -1.80195 0.899532 0
M  V30 6181 C 576.626 -2.93926 1.8387 0
M  V30 6182 C 575.687 -2.99402 3.07663 0
M  V30 6183 C 574.92 -4.29031 3.1744 0
M  V30 6184 O 575.143 -5.20358 2.33631 0
M  V30 6185 O 574.077 -4.40401 4.10281 0
M  V30 6186 H 577.903 -1.41531 2.68705 0
M  V30 6187 H 575.488 -0.637422 1.3512 0
M  V30 6188 H 577.37 -3.74747 1.92725 0
M  V30 6189 H 576.045 -3.10368 0.91944 0
M  V30 6190 H 574.952 -2.17606 3.043 0
M  V30 6191 H 576.285 -2.87901 3.99216 0
M  V30 6192 N 577.937 -1.40673 -0.710563 0
M  V30 6193 C 579.353 -1.22813 -1.01928 0
M  V30 6194 C 579.553 -0.10687 -2.01216 0
M  V30 6195 O 578.609 0.533614 -2.46797 0
M  V30 6196 C 579.922 -2.57178 -1.5582 0
M  V30 6197 C 581.47 -2.64233 -1.67779 0
M  V30 6198 C 581.945 -3.98879 -2.25076 0
M  V30 6199 N 583.436 -4.00647 -2.32456 0
M  V30 6200 C 584.171 -5.01621 -2.77784 0
M  V30 6201 N 583.667 -6.12989 -3.22826 0
M  V30 6202 N 585.46 -4.88988 -2.77213 0
M  V30 6203 H 577.611 -2.12335 -0.05253 0
M  V30 6204 H 579.874 -0.9441 -0.085898 0
M  V30 6205 H 579.58 -3.39903 -0.903249 0
M  V30 6206 H 579.454 -2.78618 -2.54267 0
M  V30 6207 H 581.841 -1.81876 -2.3239 0
M  V30 6208 H 581.922 -2.46619 -0.679178 0
M  V30 6209 H 581.566 -4.81678 -1.61086 0
M  V30 6210 H 581.496 -4.13826 -3.25661 0
M  V30 6211 H 583.987 -3.20231 -2.0065 0
M  V30 6212 H 584.3 -6.85921 -3.55995 0
M  V30 6213 H 582.645 -6.16547 -3.20773 0
M  V30 6214 H 585.836 -4.01075 -2.41363 0
M  V30 6215 H 586.009 -5.67822 -3.12221 0
M  V30 6216 N 579.415 0.9433 -1.26252 0
M  V30 6217 C 580.662 1.68925 -1.11672 0
M  V30 6218 C 580.99 1.91499 0.340329 0
M  V30 6219 O 580.245 1.49189 1.26653 0
M  V30 6220 C 580.544 3.07073 -1.82868 0
M  V30 6221 C 580.21 3.04262 -3.32769 0
M  V30 6222 C 578.872 3.03203 -3.7366 0
M  V30 6223 C 581.224 2.96729 -4.28487 0
M  V30 6224 C 578.552 2.92373 -5.0866 0
M  V30 6225 C 580.904 2.87442 -5.63525 0
M  V30 6226 C 579.568 2.84724 -6.03729 0
M  V30 6227 H 578.838 0.618141 -0.408635 0
M  V30 6228 H 581.485 1.10124 -1.56668 0
M  V30 6229 H 579.79 3.69486 -1.30335 0
M  V30 6230 H 581.487 3.63635 -1.69029 0
M  V30 6231 H 578.077 3.05865 -3.00241 0
M  V30 6232 H 582.261 2.96658 -3.97879 0
M  V30 6233 H 577.517 2.88645 -5.38975 0
M  V30 6234 H 581.691 2.80576 -6.37377 0
M  V30 6235 H 579.318 2.76089 -7.08293 0
M  V30 6236 N 580.893 1.08022 1.14757 0
M  V30 6237 C 581.823 0.728248 2.21853 0
M  V30 6238 C 582.804 -0.287486 1.67653 0
M  V30 6239 O 583.989 -0.158727 1.9355 0
M  V30 6240 C 581.119 0.132549 3.47047 0
M  V30 6241 C 580.073 1.07619 4.14249 0
M  V30 6242 C 579.399 0.342907 5.33599 0
M  V30 6243 C 580.699 2.41268 4.63235 0
M  V30 6244 H 582.393 1.62365 2.51551 0
M  V30 6245 H 579.939 0.782125 1.20908 0
M  V30 6246 H 581.892 -0.125665 4.21213 0
M  V30 6247 H 580.616 -0.797971 3.16702 0
M  V30 6248 H 579.275 1.31944 3.42033 0
M  V30 6249 H 578.923 -0.59129 4.99513 0
M  V30 6250 H 578.623 0.971955 5.79506 0
M  V30 6251 H 580.147 0.0926538 6.1053 0
M  V30 6252 H 581.561 2.21232 5.28894 0
M  V30 6253 H 579.958 2.9983 5.19829 0
M  V30 6254 H 581.028 3.03079 3.78512 0
M  V30 6255 N 582.371 -1.3172 0.865308 0
M  V30 6256 C 583.601 -2.00765 0.487543 0
M  V30 6257 C 584.009 -1.65145 -0.92325 0
M  V30 6258 O 583.352 -0.874294 -1.61561 0
M  V30 6259 C 583.414 -3.55122 0.559369 0
M  V30 6260 C 583.078 -4.14202 1.93095 0
M  V30 6261 C 584.075 -4.3165 2.89784 0
M  V30 6262 C 581.76 -4.50036 2.23099 0
M  V30 6263 C 583.754 -4.84114 4.14623 0
M  V30 6264 C 581.441 -5.02203 3.48189 0
M  V30 6265 C 582.439 -5.19192 4.43767 0
M  V30 6266 O 582.127 -5.70241 5.6664 0
M  V30 6267 H 581.859 -0.649066 0.188915 0
M  V30 6268 H 584.413 -1.69032 1.16694 0
M  V30 6269 H 582.643 -3.86295 -0.176926 0
M  V30 6270 H 584.332 -4.05428 0.195694 0
M  V30 6271 H 585.098 -4.04288 2.6791 0
M  V30 6272 H 580.977 -4.36091 1.49485 0
M  V30 6273 H 584.521 -4.9729 4.89233 0
M  V30 6274 H 580.418 -5.28997 3.69908 0
M  V30 6275 H 581.186 -5.88617 5.68746 0
M  V30 6276 N 583.85 -0.624285 -1.44708 0
M  V30 6277 C 584.812 0.0749638 -2.29077 0
M  V30 6278 C 585.812 0.778965 -1.40673 0
M  V30 6279 O 587.003 0.624591 -1.62618 0
M  V30 6280 C 584.135 1.11663 -3.22094 0
M  V30 6281 H 585.327 -0.667013 -2.92388 0
M  V30 6282 H 582.88 -0.384098 -1.51507 0
M  V30 6283 H 583.615 1.88881 -2.63618 0
M  V30 6284 H 583.401 0.61583 -3.87234 0
M  V30 6285 H 584.891 1.60585 -3.8549 0
M  V30 6286 N 585.328 1.53329 -0.364422 0
M  V30 6287 C 586.568 2.0315 0.22572 0
M  V30 6288 C 586.932 1.24589 1.46087 0
M  V30 6289 O 588.133 1.64411 2.12656 0
M  V30 6290 C 586.404 3.53718 0.511663 0
M  V30 6291 S 587.963 4.25412 1.07564 0
M  V30 6292 H 584.781 0.70795 0.0657843 0
M  V30 6293 H 587.383 1.88811 -0.507019 0
M  V30 6294 H 586.087 4.08497 -0.394784 0
M  V30 6295 H 585.618 3.72217 1.27351 0
M  V30 6296 H 587.633 4.36486 2.35997 0
M  V30 6297 N 586.806 0.0935595 1.57322 0
M  V30 6298 C 588.054 -0.569383 1.93913 0
M  V30 6299 C 588.375 -1.68817 0.976009 0
M  V30 6300 O 587.645 -1.9588 0.0278099 0
M  V30 6301 H 586.225 -0.21332 0.715894 0
M  V30 6302 H 588.887 0.156531 1.9427 0
M  V30 6303 H 587.983 -0.980577 2.96296 0
M  V30 6304 N 588.284 -1.56567 -0.180126 0
M  V30 6305 C 589.531 -1.81492 -0.898167 0
M  V30 6306 C 589.859 -0.669225 -1.82624 0
M  V30 6307 O 589.114 0.344096 -1.92651 0
M  V30 6308 C 589.413 -3.1252 -1.73395 0
M  V30 6309 C 589.079 -4.40658 -0.955567 0
M  V30 6310 C 587.741 -4.75465 -0.740707 0
M  V30 6311 C 590.093 -5.19593 -0.408948 0
M  V30 6312 C 587.421 -5.86691 0.0320128 0
M  V30 6313 C 589.773 -6.31627 0.350638 0
M  V30 6314 C 588.437 -6.65007 0.576378 0
M  V30 6315 H 587.707 -0.664125 -0.328662 0
M  V30 6316 H 590.354 -1.908 -0.163616 0
M  V30 6317 H 588.659 -2.98515 -2.53763 0
M  V30 6318 H 590.356 -3.29013 -2.29241 0
M  V30 6319 H 586.946 -4.13352 -1.13306 0
M  V30 6320 H 591.13 -4.93104 -0.562307 0
M  V30 6321 H 586.386 -6.11016 0.216735 0
M  V30 6322 H 590.56 -6.92001 0.781497 0
M  V30 6323 H 588.187 -7.51033 1.17703 0
M  V30 6324 N 589.762 0.448376 -1.51087 0
M  V30 6325 C 590.725 1.52588 -1.71025 0
M  V30 6326 C 591.725 1.49958 -0.580442 0
M  V30 6327 O 592.915 1.52176 -0.847833 0
M  V30 6328 C 590.047 2.92163 -1.75652 0
M  V30 6329 H 591.24 1.36218 -2.67179 0
M  V30 6330 H 588.793 0.676313 -1.4091 0
M  V30 6331 H 589.528 3.13951 -0.812724 0
M  V30 6332 H 589.313 2.95478 -2.57751 0
M  V30 6333 H 590.803 3.70349 -1.92953 0
M  V30 6334 N 591.24 1.41047 0.703093 0
M  V30 6335 C 592.465 1.43537 1.49706 0
M  V30 6336 C 592.89 0.0401853 1.88057 0
M  V30 6337 O 592.248 -0.954785 1.54122 0
M  V30 6338 C 592.296 2.3433 2.74084 0
M  V30 6339 O 591.4 1.79515 3.71279 0
M  V30 6340 H 590.741 0.487454 0.450871 0
M  V30 6341 H 593.271 1.85422 0.86486 0
M  V30 6342 H 593.281 2.49947 3.22476 0
M  V30 6343 H 591.956 3.35708 2.45506 0
M  V30 6344 H 590.533 1.7331 3.30179 0
M  V30 6345 N 592.718 -0.936591 1.26751 0
M  V30 6346 C 593.668 -2.0219 1.05371 0
M  V30 6347 C 594.652 -1.60893 -0.0154112 0
M  V30 6348 O 595.844 -1.75843 0.202085 0
M  V30 6349 C 592.973 -3.36222 0.693541 0
M  V30 6350 C 592.059 -3.8399 1.80035 0
M  V30 6351 N 592.45 -4.0436 3.03852 0
M  V30 6352 C 590.748 -4.12945 1.685 0
M  V30 6353 C 591.449 -4.44 3.75818 0
M  V30 6354 N 590.425 -4.50966 3.03531 0
M  V30 6355 H 594.227 -2.15958 1.99347 0
M  V30 6356 H 591.741 -1.12277 1.17335 0
M  V30 6357 H 593.738 -4.13625 0.521513 0
M  V30 6358 H 592.398 -3.23821 -0.238693 0
M  V30 6359 H 593.409 -3.9092 3.39709 0
M  V30 6360 H 590.086 -4.09308 0.822986 0
M  V30 6361 H 591.476 -4.67914 4.82189 0
M  V30 6362 N 594.196 -1.08629 -1.14182 0
M  V30 6363 C 595.607 -0.838003 -1.66836 0
M  V30 6364 C 595.958 0.634885 -1.85644 0
M  V30 6365 O 595.083 1.49008 -1.56926 0
M  V30 6366 C 595.678 -1.51465 -3.03058 0
M  V30 6367 C 594.237 -1.31355 -3.52736 0
M  V30 6368 C 593.384 -1.57599 -2.28162 0
M  V30 6369 H 596.335 -1.24656 -0.982165 0
M  V30 6370 H 596.356 -0.943134 -3.68626 0
M  V30 6371 H 595.868 -2.58661 -2.89337 0
M  V30 6372 H 593.969 -0.262384 -3.71675 0
M  V30 6373 H 594.082 -2.04275 -4.33369 0
M  V30 6374 H 592.446 -0.997659 -2.34348 0
M  V30 6375 H 593.229 -2.66006 -2.17015 0
M  V30 6376 N 595.674 1.31259 -0.872281 0
M  V30 6377 C 596.622 2.30404 -0.318897 0
M  V30 6378 C 597.616 1.5962 0.567267 0
M  V30 6379 O 598.822 1.74204 0.453111 0
M  V30 6380 H 595.197 0.747243 -0.0844474 0
M  V30 6381 H 597.168 2.74549 -1.16899 0
M  V30 6382 C 595.917 3.44608 0.462683 0
M  V30 6383 H 595.24 3.99248 -0.209936 0
M  V30 6384 H 596.68 4.1609 0.815187 0
M  V30 6385 C 595.139 2.93456 1.65485 0
M  V30 6386 O 595.669 2.92418 2.75417 0
M  V30 6387 N 593.875 2.49628 1.48776 0
M  V30 6388 H 593.422 2.50671 0.593452 0
M  V30 6389 H 593.38 2.15759 2.28682 0
M  V30 6390 N 597.152 0.631951 1.44375 0
M  V30 6391 C 598.062 -0.073674 2.34484 0
M  V30 6392 C 599.078 -0.834825 1.52665 0
M  V30 6393 O 600.254 -0.786902 1.85391 0
M  V30 6394 C 597.319 -1.04247 3.30656 0
M  V30 6395 C 596.38 -0.280602 4.28382 0
M  V30 6396 C 595.613 -1.20325 5.19959 0
M  V30 6397 O 595.836 -2.44199 5.15484 0
M  V30 6398 O 594.77 -0.687128 5.97965 0
M  V30 6399 H 598.596 0.667477 2.96274 0
M  V30 6400 H 596.181 0.392144 1.44162 0
M  V30 6401 H 598.063 -1.59981 3.89851 0
M  V30 6402 H 596.738 -1.76422 2.71398 0
M  V30 6403 H 595.645 0.319804 3.72731 0
M  V30 6404 H 596.978 0.401144 4.90563 0
M  V30 6405 N 598.631 -1.53133 0.372548 0
M  V30 6406 C 599.541 -2.29671 -0.478379 0
M  V30 6407 C 600.557 -1.35913 -1.08644 0
M  V30 6408 O 601.733 -1.68975 -1.09588 0
M  V30 6409 C 598.798 -3.07625 -1.599 0
M  V30 6410 C 597.859 -4.17061 -1.01776 0
M  V30 6411 C 597.092 -4.91289 -2.08497 0
M  V30 6412 O 597.315 -4.65442 -3.29727 0
M  V30 6413 O 596.249 -5.7705 -1.71164 0
M  V30 6414 H 600.075 -3.03355 0.144649 0
M  V30 6415 H 597.66 -1.48773 0.136729 0
M  V30 6416 H 599.542 -3.56281 -2.25038 0
M  V30 6417 H 598.217 -2.3677 -2.2073 0
M  V30 6418 H 597.124 -3.72641 -0.330098 0
M  V30 6419 H 598.457 -4.90102 -0.453915 0
M  V30 6420 N 600.109 -0.101901 -1.5727 0
M  V30 6421 C 601.039 0.851544 -2.17419 0
M  V30 6422 C 602.02 1.28942 -1.10941 0
M  V30 6423 O 603.205 1.35509 -1.39107 0
M  V30 6424 C 600.335 2.10816 -2.75996 0
M  V30 6425 C 599.289 1.80867 -3.87906 0
M  V30 6426 C 598.615 3.13413 -4.33216 0
M  V30 6427 C 599.915 1.0903 -5.10793 0
M  V30 6428 H 601.609 0.350381 -2.97343 0
M  V30 6429 H 599.155 0.16709 -1.43027 0
M  V30 6430 H 601.108 2.77959 -3.16729 0
M  V30 6431 H 599.832 2.63227 -1.93337 0
M  V30 6432 H 598.491 1.16119 -3.47724 0
M  V30 6433 H 598.139 3.63725 -3.47438 0
M  V30 6434 H 597.839 2.94155 -5.08671 0
M  V30 6435 H 599.363 3.81704 -4.76586 0
M  V30 6436 H 600.777 1.66295 -5.48652 0
M  V30 6437 H 599.174 0.99927 -5.91722 0
M  V30 6438 H 600.244 0.0741704 -4.84843 0
M  V30 6439 N 601.587 1.56661 0.17182 0
M  V30 6440 C 602.517 1.99401 1.21498 0
M  V30 6441 C 603.498 0.869516 1.46197 0
M  V30 6442 O 604.683 1.13556 1.57539 0
M  V30 6443 C 601.813 2.35346 2.55401 0
M  V30 6444 C 600.767 3.5075 2.45272 0
M  V30 6445 C 600.093 3.72437 3.8366 0
M  V30 6446 C 601.393 4.84216 1.95787 0
M  V30 6447 H 603.087 2.86792 0.859699 0
M  V30 6448 H 600.633 1.37977 0.412103 0
M  V30 6449 H 602.586 2.63843 3.2858 0
M  V30 6450 H 601.31 1.44864 2.92715 0
M  V30 6451 H 599.969 3.2238 1.74547 0
M  V30 6452 H 599.617 2.79246 4.18367 0
M  V30 6453 H 599.317 4.50087 3.77751 0
M  V30 6454 H 600.841 4.03334 4.58426 0
M  V30 6455 H 602.255 5.11592 2.5874 0
M  V30 6456 H 600.652 5.65498 2.00827 0
M  V30 6457 H 601.722 4.76243 0.912159 0
M  V30 6458 N 603.065 -0.440357 1.51323 0
M  V30 6459 C 604.481 -0.7766 1.39431 0
M  V30 6460 C 604.681 -1.95838 0.474296 0
M  V30 6461 O 603.737 -2.52398 -0.0716692 0
M  V30 6462 C 605.05 -1.05981 2.81405 0
M  V30 6463 C 606.598 -1.16442 2.90534 0
M  V30 6464 C 607.073 -1.48058 4.33408 0
M  V30 6465 N 608.564 -1.54988 4.36501 0
M  V30 6466 C 609.299 -1.81017 5.44078 0
M  V30 6467 N 608.795 -2.04858 6.61819 0
M  V30 6468 N 610.588 -1.82774 5.31554 0
M  V30 6469 H 602.739 0.338006 2.09693 0
M  V30 6470 H 605.002 0.0888072 0.943831 0
M  V30 6471 H 604.708 -0.264173 3.50706 0
M  V30 6472 H 604.582 -1.98822 3.20546 0
M  V30 6473 H 606.969 -1.95068 2.21432 0
M  V30 6474 H 607.05 -0.215088 2.54894 0
M  V30 6475 H 606.694 -0.699605 5.03059 0
M  V30 6476 H 606.624 -2.44192 4.66559 0
M  V30 6477 H 609.115 -1.38479 3.51613 0
M  V30 6478 H 609.428 -2.2408 7.396 0
M  V30 6479 H 607.773 -2.02187 6.6494 0
M  V30 6480 H 610.964 -1.63665 4.38556 0
M  V30 6481 H 611.137 -2.02722 6.15474 0
M  V30 6482 N 604.543 -1.41418 -0.695603 0
M  V30 6483 C 605.506 -1.42988 -1.79129 0
M  V30 6484 C 606.506 -0.320514 -1.57573 0
M  V30 6485 O 607.696 -0.58039 -1.64247 0
M  V30 6486 C 604.828 -1.24122 -3.175 0
M  V30 6487 H 606.021 -2.40526 -1.7913 0
M  V30 6488 H 603.574 -1.2756 -0.903225 0
M  V30 6489 H 604.309 -0.274253 -3.23138 0
M  V30 6490 H 604.094 -2.045 -3.34547 0
M  V30 6491 H 605.584 -1.28056 -3.97481 0
M  V30 6492 N 606.021 0.929856 -1.27246 0
M  V30 6493 C 606.951 2.04722 -1.12299 0
M  V30 6494 C 607.932 1.70082 -0.0250464 0
M  V30 6495 O 609.117 1.93176 -0.199141 0
M  V30 6496 C 606.247 3.38721 -0.767145 0
M  V30 6497 C 605.201 3.87466 -1.81808 0
M  V30 6498 C 604.527 5.18246 -1.31626 0
M  V30 6499 C 605.827 4.11095 -3.22177 0
M  V30 6500 H 607.521 2.17485 -2.05769 0
M  V30 6501 H 605.067 1.04503 -0.990715 0
M  V30 6502 H 607.02 4.16366 -0.649413 0
M  V30 6503 H 605.744 3.25967 0.203259 0
M  V30 6504 H 604.403 3.12012 -1.92468 0
M  V30 6505 H 604.051 5.01881 -0.335378 0
M  V30 6506 H 603.751 5.51829 -2.01887 0
M  V30 6507 H 605.275 5.98462 -1.21143 0
M  V30 6508 H 606.689 4.79316 -3.1453 0
M  V30 6509 H 605.086 4.55982 -3.90129 0
M  V30 6510 H 606.156 3.16468 -3.67391 0
M  V30 6511 N 607.499 1.09233 1.13605 0
M  V30 6512 C 608.748 0.82205 1.84188 0
M  V30 6513 C 609.061 -0.654548 1.84323 0
M  V30 6514 O 610.267 -1.04029 2.50779 0
M  V30 6515 C 608.723 1.42066 3.30674 0
M  V30 6516 C 608.331 2.92965 3.38933 0
M  V30 6517 C 610.075 1.22924 4.06313 0
M  V30 6518 C 607.982 3.45922 4.79679 0
M  V30 6519 H 606.912 0.303854 0.690064 0
M  V30 6520 H 609.563 1.31479 1.28006 0
M  V30 6521 H 607.945 0.855613 3.86646 0
M  V30 6522 H 609.119 3.55679 2.92966 0
M  V30 6523 H 607.434 3.11118 2.76757 0
M  V30 6524 H 610.031 1.59945 5.10217 0
M  V30 6525 H 610.374 0.169726 4.15954 0
M  V30 6526 H 610.907 1.76168 3.56665 0
M  V30 6527 H 607.646 4.51484 4.75229 0
M  V30 6528 H 607.166 2.87971 5.26149 0
M  V30 6529 H 608.845 3.43009 5.48592 0
M  V30 6530 N 608.977 -1.30795 0.87923 0
M  V30 6531 C 610.202 -2.01063 0.508769 0
M  V30 6532 C 610.627 -1.65508 -0.893803 0
M  V30 6533 O 609.985 -0.868616 -1.59138 0
M  V30 6534 C 610.033 -3.54054 0.683991 0
M  V30 6535 O 609.137 -4.11498 -0.272654 0
M  V30 6536 H 608.478 -0.632786 0.201191 0
M  V30 6537 H 611.008 -1.66776 1.18519 0
M  V30 6538 H 611.018 -4.03845 0.580798 0
M  V30 6539 H 609.693 -3.79271 1.70665 0
M  V30 6540 H 608.27 -3.72695 -0.12364 0
M  V30 6541 N 610.455 -0.639598 -1.44038 0
M  V30 6542 C 611.402 0.0602458 -2.30721 0
M  V30 6543 C 612.372 0.828352 -1.43971 0
M  V30 6544 O 613.557 0.807693 -1.72861 0
M  V30 6545 C 610.697 1.03008 -3.29368 0
M  V30 6546 C 609.81 0.259502 -4.3122 0
M  V30 6547 C 608.945 1.22191 -5.16955 0
M  V30 6548 C 607.984 0.440978 -6.10509 0
M  V30 6549 N 607.121 1.35428 -6.88915 0
M  V30 6550 H 611.961 -0.684867 -2.90023 0
M  V30 6551 H 609.498 -0.349509 -1.42888 0
M  V30 6552 H 611.456 1.60583 -3.85057 0
M  V30 6553 H 610.086 1.74222 -2.71747 0
M  V30 6554 H 609.138 -0.432317 -3.77935 0
M  V30 6555 H 610.45 -0.348347 -4.97582 0
M  V30 6556 H 609.604 1.86873 -5.77203 0
M  V30 6557 H 608.343 1.86367 -4.50687 0
M  V30 6558 H 607.348 -0.219279 -5.49363 0
M  V30 6559 H 608.573 -0.196192 -6.78817 0
M  V30 6560 H 606.519 1.9831 -6.25307 0
M  V30 6561 H 606.436 0.800657 -7.51748 0
M  V30 6562 H 607.704 1.98967 -7.53679 0
M  V30 6563 N 611.933 1.52934 -0.380664 0
M  V30 6564 C 613.18 2.01467 0.204278 0
M  V30 6565 C 613.508 1.26744 1.47533 0
M  V30 6566 O 612.763 0.353723 1.92477 0
M  V30 6567 C 613.062 3.5349 0.527199 0
M  V30 6568 C 612.728 4.46171 -0.651295 0
M  V30 6569 C 611.39 4.71227 -0.974619 0
M  V30 6570 C 613.742 5.00909 -1.44012 0
M  V30 6571 C 611.07 5.4827 -2.08847 0
M  V30 6572 C 613.422 5.7917 -2.5445 0
M  V30 6573 C 612.086 6.02507 -2.87301 0
M  V30 6574 H 611.356 0.73722 0.0747504 0
M  V30 6575 H 614.003 1.84411 -0.516234 0
M  V30 6576 H 612.308 3.68574 1.32892 0
M  V30 6577 H 614.005 3.88529 0.992283 0
M  V30 6578 H 610.595 4.26829 -0.389276 0
M  V30 6579 H 614.779 4.81485 -1.20357 0
M  V30 6580 H 610.035 5.64567 -2.34679 0
M  V30 6581 H 614.209 6.20588 -3.1598 0
M  V30 6582 H 611.836 6.61989 -3.7373 0
M  V30 6583 N 613.412 0.11024 1.57214 0
M  V30 6584 C 614.359 -0.843195 2.14846 0
M  V30 6585 C 615.329 -1.26954 1.07107 0
M  V30 6586 O 616.514 -1.34861 1.34971 0
M  V30 6587 C 613.654 -2.09123 2.74521 0
M  V30 6588 C 612.767 -1.71404 3.96541 0
M  V30 6589 C 611.902 -2.91107 4.44331 0
M  V30 6590 C 610.941 -2.49586 5.58903 0
M  V30 6591 N 610.078 -3.62175 6.01477 0
M  V30 6592 H 614.918 -0.344886 2.95998 0
M  V30 6593 H 612.455 -0.15855 1.46243 0
M  V30 6594 H 614.413 -2.82234 3.07246 0
M  V30 6595 H 613.043 -2.56427 1.96074 0
M  V30 6596 H 612.095 -0.88201 3.70033 0
M  V30 6597 H 613.407 -1.36884 4.7965 0
M  V30 6598 H 612.561 -3.72454 4.78919 0
M  V30 6599 H 611.3 -3.28848 3.60153 0
M  V30 6600 H 610.305 -1.6667 5.23929 0
M  V30 6601 H 611.53 -2.12973 6.4484 0
M  V30 6602 H 609.476 -3.99605 5.20242 0
M  V30 6603 H 609.393 -3.3155 6.79419 0
M  V30 6604 H 610.661 -4.43987 6.407 0
M  V30 6605 N 614.89 -1.56749 -0.16351 0
M  V30 6606 C 616.138 -1.82074 -0.87713 0
M  V30 6607 C 616.459 -0.688503 -1.82441 0
M  V30 6608 O 615.729 0.291085 -1.93725 0
M  V30 6609 H 614.309 -0.671677 -0.326893 0
M  V30 6610 H 616.971 -1.9423 -0.161459 0
M  V30 6611 H 616.067 -2.76407 -1.44934 0
M  V30 6612 N 616.368 0.432326 -1.51554 0
M  V30 6613 C 617.593 1.20824 -1.68571 0
M  V30 6614 C 618.018 1.84126 -0.384596 0
M  V30 6615 O 617.376 1.69025 0.655751 0
M  V30 6616 C 617.424 2.26429 -2.80646 0
M  V30 6617 O 616.528 3.32032 -2.44598 0
M  V30 6618 H 615.869 0.353765 -0.561913 0
M  V30 6619 H 618.399 0.509916 -1.98144 0
M  V30 6620 H 618.409 2.71133 -3.04878 0
M  V30 6621 H 617.084 1.79733 -3.75058 0
M  V30 6622 H 615.661 2.92769 -2.30956 0
M  V30 6623 N 617.846 1.41785 0.688094 0
M  V30 6624 C 619.095 1.4084 1.44385 0
M  V30 6625 C 619.408 0.0234166 1.95586 0
M  V30 6626 O 620.614 -0.108647 2.71283 0
M  V30 6627 C 619.07 2.47675 2.61123 0
M  V30 6628 C 618.678 3.92116 2.16677 0
M  V30 6629 C 620.422 2.55877 3.38714 0
M  V30 6630 C 618.329 4.90487 3.30419 0
M  V30 6631 H 617.259 0.523787 0.542368 0
M  V30 6632 H 619.91 1.6764 0.74627 0
M  V30 6633 H 618.292 2.14018 3.33185 0
M  V30 6634 H 619.466 4.35059 1.51856 0
M  V30 6635 H 617.781 3.87642 1.5206 0
M  V30 6636 H 620.378 3.26553 4.234 0
M  V30 6637 H 620.721 1.59801 3.84408 0
M  V30 6638 H 621.254 2.88662 2.73714 0
M  V30 6639 H 617.993 5.87994 2.89729 0
M  V30 6640 H 617.513 4.52187 3.94065 0
M  V30 6641 H 619.192 5.11591 3.96085 0
M  V30 6642 N 619.324 -0.923095 1.27737 0
M  V30 6643 C 620.572 -1.66797 1.14119 0
M  V30 6644 C 620.893 -1.92479 -0.312541 0
M  V30 6645 O 620.163 -1.53432 -1.218 0
M  V30 6646 H 618.743 -0.618196 0.419336 0
M  V30 6647 H 621.405 -1.10815 1.60331 0
M  V30 6648 H 620.501 -2.63424 1.67374 0
M  V30 6649 N 620.802 -1.09834 -1.13024 0
M  V30 6650 C 622.027 -0.85909 -1.88771 0
M  V30 6651 C 622.452 0.584402 -1.78791 0
M  V30 6652 O 621.81 1.41101 -1.13842 0
M  V30 6653 C 621.858 -1.30427 -3.36186 0
M  V30 6654 O 620.962 -0.465368 -4.09766 0
M  V30 6655 H 620.303 -0.310786 -0.586778 0
M  V30 6656 H 622.833 -1.46355 -1.42973 0
M  V30 6657 H 622.843 -1.2915 -3.8702 0
M  V30 6658 H 621.518 -2.3555 -3.42767 0
M  V30 6659 H 620.095 -0.542814 -3.68928 0
M  V30 6660 N 622.28 1.30327 -0.886154 0
M  V30 6661 C 623.505 2.0079 -0.519425 0
M  V30 6662 C 623.93 1.65979 0.885013 0
M  V30 6663 O 623.288 0.877043 1.58675 0
M  V30 6664 C 623.336 3.53686 -0.702758 0
M  V30 6665 O 622.44 4.11637 0.250828 0
M  V30 6666 H 621.781 0.63171 -0.204544 0
M  V30 6667 H 624.311 1.66145 -1.19402 0
M  V30 6668 H 624.321 4.03531 -0.602207 0
M  V30 6669 H 622.996 3.78361 -1.72673 0
M  V30 6670 H 621.573 3.72755 0.103873 0
M  V30 6671 N 623.758 0.647228 1.43697 0
M  V30 6672 C 625.035 0.0883758 1.954 0
M  V30 6673 C 625.415 -1.39006 1.58873 0
M  V30 6674 O 624.763 -2.11255 0.87083 0
M  V30 6675 C 624.973 0.328263 3.47453 0
M  V30 6676 C 626.321 0.230009 4.23977 0
M  V30 6677 O 627.345 0.260496 3.55246 0
M  V30 6678 O 626.204 0.148615 5.46298 0
M  V30 6679 H 623.298 -0.0130683 0.826897 0
M  V30 6680 H 625.844 0.72005 1.53666 0
M  V30 6681 H 624.616 1.3535 3.67146 0
M  V30 6682 H 624.239 -0.336772 3.96171 0
M  V30 6683 N 625.236 -1.5273 0.388769 0
M  V30 6684 C 626.485 -2.00757 -0.194833 0
M  V30 6685 C 626.798 -1.27951 -1.47946 0
M  V30 6686 O 628.004 -1.66686 -2.14308 0
M  V30 6687 C 626.46 -3.57695 -0.397762 0
M  V30 6688 C 626.068 -4.394 0.873583 0
M  V30 6689 C 627.812 -4.14012 -0.937759 0
M  V30 6690 C 625.719 -5.87938 0.638962 0
M  V30 6691 H 624.649 -0.750101 -0.0765845 0
M  V30 6692 H 627.3 -1.76239 0.511086 0
M  V30 6693 H 625.682 -3.7846 -1.16552 0
M  V30 6694 H 626.856 -4.30403 1.64591 0
M  V30 6695 H 625.171 -3.94301 1.33849 0
M  V30 6696 H 627.768 -5.22645 -1.12899 0
M  V30 6697 H 628.111 -3.7007 -1.90666 0
M  V30 6698 H 628.644 -3.97137 -0.229588 0
M  V30 6699 H 625.383 -6.36202 1.57885 0
M  V30 6700 H 624.903 -5.99726 -0.094443 0
M  V30 6701 H 626.582 -6.46423 0.273299 0
M  V30 6702 N 626.714 -0.118576 -1.57153 0
M  V30 6703 C 628.13 0.238014 -1.57815 0
M  V30 6704 C 628.33 1.66747 -1.13127 0
M  V30 6705 O 627.386 2.38867 -0.818462 0
M  V30 6706 C 628.699 0.00508207 -3.007 0
M  V30 6707 C 630.247 0.0710139 -3.12919 0
M  V30 6708 C 630.722 -0.13422 -4.57803 0
M  V30 6709 N 632.213 -0.0801755 -4.63131 0
M  V30 6710 C 632.948 -0.213885 -5.73001 0
M  V30 6711 N 632.444 -0.403742 -6.91623 0
M  V30 6712 N 634.237 -0.15349 -5.6189 0
M  V30 6713 H 626.388 -1.05226 -1.84503 0
M  V30 6714 H 628.651 -0.414318 -0.852669 0
M  V30 6715 H 628.357 -0.983125 -3.3768 0
M  V30 6716 H 628.231 0.73714 -3.69927 0
M  V30 6717 H 630.618 1.04975 -2.75798 0
M  V30 6718 H 630.699 -0.692918 -2.46236 0
M  V30 6719 H 630.343 -1.10992 -4.95624 0
M  V30 6720 H 630.273 0.649692 -5.22577 0
M  V30 6721 H 632.764 0.0630689 -3.77847 0
M  V30 6722 H 633.077 -0.496645 -7.71202 0
M  V30 6723 H 631.422 -0.43971 -6.93608 0
M  V30 6724 H 634.613 -0.00613174 -4.681 0
M  V30 6725 H 634.786 -0.261138 -6.47474 0
M  V30 6726 N 628.193 1.56834 0.155195 0
M  V30 6727 C 629.103 2.009 1.21146 0
M  V30 6728 C 630.119 0.923029 1.475 0
M  V30 6729 O 631.295 1.23189 1.59331 0
M  V30 6730 C 628.36 2.37378 2.52691 0
M  V30 6731 C 627.421 3.59883 2.34057 0
M  V30 6732 C 626.654 3.94612 3.59329 0
M  V30 6733 O 626.877 3.30104 4.65175 0
M  V30 6734 O 625.811 4.87895 3.52479 0
M  V30 6735 H 629.637 2.9105 0.867371 0
M  V30 6736 H 627.222 1.44916 0.363298 0
M  V30 6737 H 629.104 2.61737 3.3026 0
M  V30 6738 H 627.779 1.50385 2.86646 0
M  V30 6739 H 626.686 3.40722 1.54465 0
M  V30 6740 H 628.019 4.47468 2.0502 0
M  V30 6741 N 629.671 -0.424282 1.51781 0
M  V30 6742 C 630.899 -1.1947 1.68921 0
M  V30 6743 C 631.314 -1.84683 0.39213 0
M  V30 6744 O 630.671 -1.71261 -0.630554 0
M  V30 6745 C 630.722 -2.26909 2.81416 0
M  V30 6746 O 630.443 -1.64361 4.061 0
M  V30 6747 C 631.944 -3.16945 3.09937 0
M  V30 6748 H 629.164 -0.359591 0.566511 0
M  V30 6749 H 631.708 -0.501139 1.98265 0
M  V30 6750 H 629.863 -2.91959 2.54635 0
M  V30 6751 H 630.277 -2.35468 4.68674 0
M  V30 6752 H 631.751 -3.88437 3.922 0
M  V30 6753 H 632.228 -3.78451 2.22871 0
M  V30 6754 H 632.834 -2.57581 3.38426 0
M  V30 6755 N 631.149 -1.42148 -0.680565 0
M  V30 6756 C 632.395 -1.42521 -1.44277 0
M  V30 6757 C 632.728 -0.0393718 -1.9416 0
M  V30 6758 O 632.003 0.935425 -1.70529 0
M  V30 6759 C 632.286 -2.44475 -2.64394 0
M  V30 6760 C 632.139 -3.92226 -2.20179 0
M  V30 6761 C 633.458 -2.43491 -3.66606 0
M  V30 6762 H 630.577 -0.518985 -0.523282 0
M  V30 6763 H 633.219 -1.73524 -0.773914 0
M  V30 6764 H 631.369 -2.18168 -3.21458 0
M  V30 6765 H 633.041 -4.29493 -1.68327 0
M  V30 6766 H 631.284 -4.0637 -1.5181 0
M  V30 6767 H 631.955 -4.59133 -3.06433 0
M  V30 6768 H 634.431 -2.66872 -3.19247 0
M  V30 6769 H 633.307 -3.16816 -4.4824 0
M  V30 6770 H 633.568 -1.45881 -4.17338 0
M  V30 6771 N 632.627 0.916307 -1.28225 0
M  V30 6772 C 633.56 2.01954 -1.06254 0
M  V30 6773 C 634.538 1.62587 0.0205983 0
M  V30 6774 O 635.722 1.88073 -0.126824 0
M  V30 6775 C 632.849 3.33086 -0.614141 0
M  V30 6776 C 631.895 3.91435 -1.69354 0
M  V30 6777 S 632.728 4.22603 -3.28887 0
M  V30 6778 C 633.884 5.568 -2.85876 0
M  V30 6779 H 634.117 2.20281 -1.99659 0
M  V30 6780 H 631.65 1.06085 -1.12184 0
M  V30 6781 H 633.608 4.089 -0.36213 0
M  V30 6782 H 632.269 3.12664 0.300036 0
M  V30 6783 H 631.462 4.86098 -1.33136 0
M  V30 6784 H 631.064 3.22248 -1.89821 0
M  V30 6785 H 633.356 6.3658 -2.31888 0
M  V30 6786 H 634.299 5.97927 -3.79326 0
M  V30 6787 H 634.707 5.17865 -2.24669 0
M  V30 6788 N 634.105 1.10431 1.1244 0
M  V30 6789 C 635.354 0.841539 1.83306 0
M  V30 6790 C 635.667 -0.634961 1.85007 0
M  V30 6791 O 636.873 -1.01363 2.51869 0
M  V30 6792 C 635.329 1.45565 3.29149 0
M  V30 6793 C 634.937 2.96544 3.35806 0
M  V30 6794 C 636.681 1.27227 4.04986 0
M  V30 6795 C 634.588 3.5099 4.75983 0
M  V30 6796 H 633.518 0.311156 0.686803 0
M  V30 6797 H 636.169 1.32829 1.26604 0
M  V30 6798 H 634.551 0.896574 3.85717 0
M  V30 6799 H 635.725 3.58766 2.89177 0
M  V30 6800 H 634.04 3.14036 2.73442 0
M  V30 6801 H 636.637 1.65348 5.08492 0
M  V30 6802 H 636.98 0.213834 4.1575 0
M  V30 6803 H 637.513 1.79941 3.54776 0
M  V30 6804 H 634.252 4.56499 4.70413 0
M  V30 6805 H 633.772 2.93535 5.23065 0
M  V30 6806 H 635.451 3.48808 5.44924 0
M  V30 6807 N 635.583 -1.29855 0.893053 0
M  V30 6808 C 636.832 -1.95104 0.511597 0
M  V30 6809 C 637.145 -1.71226 -0.945567 0
M  V30 6810 O 638.351 -2.30525 -1.43424 0
M  V30 6811 C 636.807 -3.49374 0.864034 0
M  V30 6812 C 636.415 -3.82061 2.33952 0
M  V30 6813 C 638.159 -4.20894 0.552167 0
M  V30 6814 C 636.066 -5.29546 2.63316 0
M  V30 6815 H 634.996 -0.73029 0.187597 0
M  V30 6816 H 637.647 -1.47682 1.08914 0
M  V30 6817 H 636.029 -3.95413 0.215493 0
M  V30 6818 H 637.203 -3.46904 3.03305 0
M  V30 6819 H 635.518 -3.23665 2.61973 0
M  V30 6820 H 638.115 -5.29435 0.748489 0
M  V30 6821 H 638.458 -4.13178 -0.508924 0
M  V30 6822 H 638.991 -3.80564 1.15825 0
M  V30 6823 H 635.73 -5.4232 3.68197 0
M  V30 6824 H 635.25 -5.65974 1.9858 0
M  V30 6825 H 636.929 -5.97068 2.49236 0
M  V30 6826 N 637.061 -0.65484 -1.43351 0
M  V30 6827 C 638.289 -0.176685 -2.06144 0
M  V30 6828 C 638.704 1.15831 -1.49093 0
M  V30 6829 O 638.061 1.71542 -0.622868 0
M  V30 6830 C 638.112 -0.0813326 -3.61408 0
M  V30 6831 O 637.833 -1.36355 -4.1634 0
M  V30 6832 C 639.334 0.422706 -4.4128 0
M  V30 6833 H 636.554 -0.0906429 -0.66485 0
M  V30 6834 H 639.098 -0.895945 -1.83829 0
M  V30 6835 H 637.253 0.588496 -3.82904 0
M  V30 6836 H 637.667 -1.22381 -5.10023 0
M  V30 6837 H 639.141 0.438375 -5.50257 0
M  V30 6838 H 639.618 1.45432 -4.14423 0
M  V30 6839 H 640.224 -0.214687 -4.24758 0
M  V30 6840 N 638.539 1.52521 -0.396863 0
M  V30 6841 C 639.787 2.01274 0.182536 0
M  V30 6842 C 640.108 1.28485 1.46685 0
M  V30 6843 O 639.378 0.407134 1.91623 0
M  V30 6844 H 637.958 0.743671 0.0704442 0
M  V30 6845 H 640.62 1.87547 -0.530289 0
M  V30 6846 H 639.716 3.09687 0.387385 0
M  V30 6847 N 640.017 0.126909 1.57088 0
M  V30 6848 C 641.245 -0.53667 1.99819 0
M  V30 6849 C 641.66 -1.5972 1.00673 0
M  V30 6850 O 641.017 -1.825 0.000747365 0
M  V30 6851 C 641.068 -1.15563 3.42531 0
M  V30 6852 O 640.789 -0.137483 4.37884 0
M  V30 6853 C 642.29 -1.90176 4.00435 0
M  V30 6854 H 639.51 -0.141443 0.655923 0
M  V30 6855 H 642.054 0.215578 2.03361 0
M  V30 6856 H 640.209 -1.85861 3.39904 0
M  V30 6857 H 640.623 -0.588229 5.21191 0
M  V30 6858 H 642.097 -2.28801 5.02349 0
M  V30 6859 H 642.574 -2.78002 3.40017 0
M  V30 6860 H 643.18 -1.24623 4.06632 0
M  V30 6861 N 641.495 -1.56914 -0.146875 0
M  V30 6862 C 642.425 -2.01308 -1.1831 0
M  V30 6863 C 643.406 -0.892664 -1.44795 0
M  V30 6864 O 644.591 -1.16048 -1.55713 0
M  V30 6865 C 641.721 -2.3938 -2.51624 0
M  V30 6866 C 640.675 -3.54608 -2.3966 0
M  V30 6867 C 640.001 -3.78493 -3.77686 0
M  V30 6868 C 641.301 -4.87269 -1.88058 0
M  V30 6869 H 642.995 -2.88123 -0.813964 0
M  V30 6870 H 640.541 -1.38615 -0.3901 0
M  V30 6871 H 642.494 -2.69037 -3.24341 0
M  V30 6872 H 641.218 -1.49502 -2.90373 0
M  V30 6873 H 639.877 -3.25116 -1.69396 0
M  V30 6874 H 639.525 -2.85866 -4.13871 0
M  V30 6875 H 639.225 -4.56039 -3.70543 0
M  V30 6876 H 640.749 -4.10576 -4.51951 0
M  V30 6877 H 642.163 -5.15644 -2.50568 0
M  V30 6878 H 640.56 -5.68622 -1.91805 0
M  V30 6879 H 641.63 -4.77634 -0.836277 0
M  V30 6880 N 642.974 0.416227 -1.52004 0
M  V30 6881 C 644.22 1.16555 -1.6596 0
M  V30 6882 C 644.553 1.90347 -0.384906 0
M  V30 6883 O 643.828 1.84474 0.616405 0
M  V30 6884 C 644.111 2.1657 -2.87696 0
M  V30 6885 C 643.964 1.46722 -4.25197 0
M  V30 6886 C 645.283 3.17321 -3.04951 0
M  V30 6887 H 642.402 0.422369 -0.603965 0
M  V30 6888 H 645.044 0.452141 -1.84542 0
M  V30 6889 H 643.194 2.77411 -2.71985 0
M  V30 6890 H 644.866 0.89056 -4.52622 0
M  V30 6891 H 643.109 0.769263 -4.26925 0
M  V30 6892 H 643.78 2.19665 -5.0641 0
M  V30 6893 H 646.256 2.66552 -3.19514 0
M  V30 6894 H 645.132 3.84573 -3.91656 0
M  V30 6895 H 645.393 3.84643 -2.17951 0
M  V30 6896 N 644.452 1.42507 0.673017 0
M  V30 6897 C 645.868 1.25472 0.986355 0
M  V30 6898 C 646.068 0.160181 2.00862 0
M  V30 6899 O 645.124 -0.467993 2.48125 0
M  V30 6900 C 646.437 2.61219 1.48947 0
M  V30 6901 C 647.985 2.68589 1.60715 0
M  V30 6902 C 648.46 4.04707 2.14422 0
M  V30 6903 N 649.951 4.0667 2.21752 0
M  V30 6904 C 650.686 5.0881 2.64386 0
M  V30 6905 N 650.182 6.21332 3.0646 0
M  V30 6906 N 651.975 4.96166 2.64151 0
M  V30 6907 H 644.126 2.124 -0.00378532 0
M  V30 6908 H 646.389 0.946046 0.0608367 0
M  V30 6909 H 646.095 3.42179 0.812812 0
M  V30 6910 H 645.969 2.85261 2.46791 0
M  V30 6911 H 648.356 1.87974 2.27486 0
M  V30 6912 H 648.437 2.48333 0.613552 0
M  V30 6913 H 648.081 4.8578 1.48258 0
M  V30 6914 H 648.011 4.22315 3.14575 0
M  V30 6915 H 650.502 3.25438 1.92089 0
M  V30 6916 H 650.815 6.95118 3.37684 0
M  V30 6917 H 649.16 6.24835 3.04313 0
M  V30 6918 H 652.351 4.07334 2.30644 0
M  V30 6919 H 652.524 5.759 2.97057 0
M  V30 6920 N 645.93 -0.909495 1.28709 0
M  V30 6921 C 646.877 -2.01245 1.13 0
M  V30 6922 C 647.847 -1.6608 0.0259684 0
M  V30 6923 O 649.032 -1.89835 0.191687 0
M  V30 6924 C 646.172 -3.35644 0.802315 0
M  V30 6925 C 645.285 -3.83653 1.98582 0
M  V30 6926 C 644.42 -5.06582 1.59837 0
M  V30 6927 C 643.459 -5.46934 2.74827 0
M  V30 6928 N 642.596 -6.61053 2.36546 0
M  V30 6929 H 647.436 -2.14013 2.0737 0
M  V30 6930 H 644.973 -1.0482 1.03205 0
M  V30 6931 H 646.931 -4.12963 0.593057 0
M  V30 6932 H 645.561 -3.22631 -0.104457 0
M  V30 6933 H 644.613 -3.02454 2.30708 0
M  V30 6934 H 645.925 -4.09515 2.84779 0
M  V30 6935 H 645.079 -5.91457 1.35143 0
M  V30 6936 H 643.818 -4.82537 0.707753 0
M  V30 6937 H 642.823 -4.60599 3.00215 0
M  V30 6938 H 644.048 -5.72965 3.64538 0
M  V30 6939 H 641.994 -6.3863 1.49959 0
M  V30 6940 H 641.911 -6.86662 3.16277 0
M  V30 6941 H 643.179 -7.49221 2.15146 0
M  V30 6942 N 647.408 -1.11026 -1.11852 0
M  V30 6943 C 648.338 -0.786812 -2.19844 0
M  V30 6944 C 649.319 0.242935 -1.68356 0
M  V30 6945 O 650.504 0.107355 -1.93903 0
M  V30 6946 C 647.634 -0.224516 -3.46574 0
M  V30 6947 C 646.588 -1.18564 -4.1125 0
M  V30 6948 C 645.914 -0.484261 -5.32503 0
M  V30 6949 C 647.214 -2.53465 -4.56676 0
M  V30 6950 H 648.908 -1.68978 -2.47158 0
M  V30 6951 H 646.454 -0.813906 -1.18792 0
M  V30 6952 H 648.407 0.0139435 -4.21398 0
M  V30 6953 H 647.131 0.713722 -3.18706 0
M  V30 6954 H 645.79 -1.40966 -3.38414 0
M  V30 6955 H 645.438 0.458646 -5.00905 0
M  V30 6956 H 645.138 -1.12526 -5.76725 0
M  V30 6957 H 646.662 -0.254492 -6.10069 0
M  V30 6958 H 648.076 -2.35177 -5.22843 0
M  V30 6959 H 646.473 -3.13507 -5.11697 0
M  V30 6960 H 647.543 -3.13008 -3.70343 0
M  V30 6961 N 648.886 1.2938 -0.899927 0
M  V30 6962 C 650.126 1.97332 -0.532871 0
M  V30 6963 C 650.49 1.69385 0.904029 0
M  V30 6964 O 651.691 2.30793 1.37797 0
M  V30 6965 C 649.962 3.47927 -0.817393 0
M  V30 6966 S 651.521 4.3528 -0.55468 0
M  V30 6967 H 648.339 0.682966 -0.197683 0
M  V30 6968 H 650.941 1.57189 -1.16241 0
M  V30 6969 H 649.645 3.65761 -1.86138 0
M  V30 6970 H 649.176 3.93006 -0.175978 0
M  V30 6971 H 651.191 4.92557 0.600182 0
M  V30 6972 N 650.364 0.662433 1.43002 0
M  V30 6973 C 651.296 -0.062326 2.29115 0
M  V30 6974 C 652.309 -0.777926 1.43011 0
M  V30 6975 O 653.498 -0.634146 1.66856 0
M  V30 6976 C 650.598 -1.11163 3.2015 0
M  V30 6977 C 649.771 -0.472327 4.34842 0
M  V30 6978 C 648.83 -1.41974 5.06685 0
M  V30 6979 O 647.856 -0.924795 5.61637 0
M  V30 6980 N 649.058 -2.75345 5.11043 0
M  V30 6981 H 651.823 0.676838 2.91957 0
M  V30 6982 H 649.384 0.505907 1.53793 0
M  V30 6983 H 651.376 -1.74643 3.65078 0
M  V30 6984 H 649.946 -1.75266 2.58845 0
M  V30 6985 H 649.166 0.341751 3.92716 0
M  V30 6986 H 650.454 -0.0264381 5.08793 0
M  V30 6987 H 649.852 -3.18108 4.67786 0
M  V30 6988 H 648.409 -3.34105 5.59658 0
M  V30 6989 N 651.842 -1.52309 0.404946 0
M  V30 6990 C 652.79 -2.28452 -0.437321 0
M  V30 6991 C 653.784 -1.32975 -1.04948 0
M  V30 6992 O 654.99 -1.50451 -0.988159 0
M  V30 6993 H 651.365 -0.734824 -0.159805 0
M  V30 6994 H 653.336 -2.97542 0.22615 0
M  V30 6995 C 652.085 -3.11536 -1.54404 0
M  V30 6996 H 651.408 -3.84871 -1.08233 0
M  V30 6997 H 652.848 -3.67926 -2.10729 0
M  V30 6998 C 651.307 -2.24833 -2.50902 0
M  V30 6999 O 651.837 -1.88574 -3.54687 0
M  V30 7000 N 650.043 -1.88685 -2.21012 0
M  V30 7001 H 649.59 -2.18371 -1.36646 0
M  V30 7002 H 649.548 -1.30966 -2.85824 0
M  V30 7003 N 653.32 -0.135238 -1.57019 0
M  V30 7004 C 654.23 0.822226 -2.19719 0
M  V30 7005 C 655.246 1.28057 -1.17802 0
M  V30 7006 O 656.422 1.3402 -1.50335 0
M  V30 7007 C 653.487 2.0484 -2.79717 0
M  V30 7008 C 652.548 1.64042 -3.96723 0
M  V30 7009 C 651.781 2.80814 -4.53849 0
M  V30 7010 O 652.004 3.967 -4.0986 0
M  V30 7011 O 650.938 2.56963 -5.44292 0
M  V30 7012 H 654.764 0.318552 -3.02025 0
M  V30 7013 H 652.349 0.0912021 -1.49121 0
M  V30 7014 H 654.231 2.76622 -3.17897 0
M  V30 7015 H 652.906 2.54182 -2.00432 0
M  V30 7016 H 651.813 0.893182 -3.63281 0
M  V30 7017 H 653.146 1.19426 -4.77492 0
M  V30 7018 N 654.798 1.5699 0.138552 0
M  V30 7019 C 656.046 1.83446 0.848053 0
M  V30 7020 C 656.367 0.71744 1.81322 0
M  V30 7021 O 655.637 -0.260228 1.94164 0
M  V30 7022 H 654.217 0.676792 0.316166 0
M  V30 7023 H 656.879 1.94462 0.130538 0
M  V30 7024 H 655.975 2.78677 1.40518 0
M  V30 7025 N 656.276 -0.40816 1.52223 0
M  V30 7026 C 657.516 -1.16418 1.68006 0
M  V30 7027 C 657.88 -1.87749 0.401793 0
M  V30 7028 O 659.081 -2.65245 0.435743 0
M  V30 7029 C 657.352 -2.13143 2.86889 0
M  V30 7030 S 658.911 -2.96839 3.2316 0
M  V30 7031 H 655.729 -0.394373 0.5916 0
M  V30 7032 H 658.331 -0.451349 1.90219 0
M  V30 7033 H 657.035 -1.59428 3.78168 0
M  V30 7034 H 656.566 -2.88963 2.66953 0
M  V30 7035 H 658.581 -4.151 2.71857 0
M  V30 7036 N 657.755 -1.42862 -0.66545 0
M  V30 7037 C 658.702 -1.4707 -1.77874 0
M  V30 7038 C 659.672 -0.321654 -1.62956 0
M  V30 7039 O 660.857 -0.52707 -1.83376 0
M  V30 7040 C 657.997 -1.38788 -3.15962 0
M  V30 7041 C 657.11 -2.63801 -3.42101 0
M  V30 7042 C 656.245 -2.47594 -4.69969 0
M  V30 7043 C 655.284 -3.67936 -4.89172 0
M  V30 7044 N 654.421 -3.50614 -6.08288 0
M  V30 7045 H 659.261 -2.42204 -1.73613 0
M  V30 7046 H 656.798 -1.20239 -0.847401 0
M  V30 7047 H 658.756 -1.31982 -3.95773 0
M  V30 7048 H 657.386 -0.472431 -3.19324 0
M  V30 7049 H 656.438 -2.80935 -2.56475 0
M  V30 7050 H 657.75 -3.53228 -3.52181 0
M  V30 7051 H 656.904 -2.38427 -5.57886 0
M  V30 7052 H 655.643 -1.55672 -4.62188 0
M  V30 7053 H 654.648 -3.77525 -3.99694 0
M  V30 7054 H 655.873 -4.60851 -4.98792 0
M  V30 7055 H 653.819 -2.61417 -6.01662 0
M  V30 7056 H 653.736 -4.33634 -6.19272 0
M  V30 7057 H 655.004 -3.45276 -6.98859 0
M  V30 7058 N 659.233 0.902656 -1.29189 0
M  V30 7059 C 660.163 2.02294 -1.16616 0
M  V30 7060 C 661.144 1.6999 -0.0611175 0
M  V30 7061 O 662.329 1.9271 -0.240072 0
M  V30 7062 C 659.459 3.37018 -0.83882 0
M  V30 7063 C 658.413 3.83522 -1.89986 0
M  V30 7064 C 657.739 5.15337 -1.42589 0
M  V30 7065 C 659.039 4.04169 -3.30824 0
M  V30 7066 H 660.733 2.13071 -2.10336 0
M  V30 7067 H 658.279 1.02378 -1.01266 0
M  V30 7068 H 660.232 4.14895 -0.737584 0
M  V30 7069 H 658.956 3.26325 0.134071 0
M  V30 7070 H 657.615 3.07859 -1.99043 0
M  V30 7071 H 657.263 5.01056 -0.441759 0
M  V30 7072 H 656.963 5.47423 -2.13547 0
M  V30 7073 H 658.487 5.95758 -1.3381 0
M  V30 7074 H 659.901 4.72537 -3.24626 0
M  V30 7075 H 658.298 4.47604 -3.99713 0
M  V30 7076 H 659.368 3.08604 -3.74021 0
M  V30 7077 N 660.711 1.11618 1.11262 0
M  V30 7078 C 661.658 0.7762 2.17356 0
M  V30 7079 C 662.628 -0.253152 1.6416 0
M  V30 7080 O 663.813 -0.129655 1.90359 0
M  V30 7081 C 660.953 0.227581 3.44349 0
M  V30 7082 C 660.066 1.31372 4.1154 0
M  V30 7083 C 659.201 0.72544 5.26223 0
M  V30 7084 C 658.24 1.7913 5.85302 0
M  V30 7085 N 657.377 1.22237 6.91377 0
M  V30 7086 H 662.217 1.68508 2.45783 0
M  V30 7087 H 659.754 0.841475 1.20655 0
M  V30 7088 H 661.712 -0.108483 4.17059 0
M  V30 7089 H 660.342 -0.644486 3.16301 0
M  V30 7090 H 659.394 1.7667 3.36885 0
M  V30 7091 H 660.706 2.12005 4.51504 0
M  V30 7092 H 659.86 0.339541 6.05749 0
M  V30 7093 H 658.599 -0.112188 4.87571 0
M  V30 7094 H 657.604 2.18648 5.04453 0
M  V30 7095 H 658.829 2.63199 6.26022 0
M  V30 7096 H 656.775 0.406423 6.5474 0
M  V30 7097 H 656.692 1.9654 7.30006 0
M  V30 7098 H 657.96 0.863426 7.74703 0
M  V30 7099 N 662.189 -1.289 0.906776 0
M  V30 7100 C 663.152 -2.25777 0.394656 0
M  V30 7101 C 664.152 -1.53621 -0.475119 0
M  V30 7102 O 665.342 -1.71949 -0.279165 0
M  V30 7103 C 662.474 -3.38113 -0.43499 0
M  V30 7104 H 663.667 -2.72592 1.25033 0
M  V30 7105 H 661.22 -1.40463 0.685547 0
M  V30 7106 H 661.955 -2.96648 -1.31036 0
M  V30 7107 H 661.74 -3.91647 0.188334 0
M  V30 7108 H 663.23 -4.10168 -0.784365 0
M  V30 7109 N 663.667 -0.670007 -1.42649 0
M  V30 7110 C 664.913 -0.190568 -2.01903 0
M  V30 7111 C 665.246 1.19817 -1.52832 0
M  V30 7112 O 664.521 1.80342 -0.728485 0
M  V30 7113 C 664.804 -0.21991 -3.59428 0
M  V30 7114 C 664.657 -1.64376 -4.18689 0
M  V30 7115 C 665.976 0.434519 -4.3795 0
M  V30 7116 H 663.095 -0.0707219 -0.733599 0
M  V30 7117 H 665.737 -0.853883 -1.69732 0
M  V30 7118 H 663.887 0.344894 -3.86966 0
M  V30 7119 H 665.559 -2.26044 -4.02122 0
M  V30 7120 H 663.802 -2.18591 -3.747 0
M  V30 7121 H 664.473 -1.61601 -5.27815 0
M  V30 7122 H 666.949 -0.0462156 -4.16074 0
M  V30 7123 H 665.825 0.38333 -5.4756 0
M  V30 7124 H 666.086 1.51135 -4.15464 0
M  V30 7125 N 665.145 1.52092 -0.413018 0
M  V30 7126 C 666.391 2.02154 0.161737 0
M  V30 7127 C 666.724 1.29789 1.44459 0
M  V30 7128 O 665.999 0.405378 1.90229 0
M  V30 7129 C 666.282 3.5781 0.405463 0
M  V30 7130 C 666.135 4.40819 -0.894335 0
M  V30 7131 C 667.454 4.23821 1.18591 0
M  V30 7132 H 664.573 0.734769 0.0573077 0
M  V30 7133 H 667.215 1.81948 -0.547247 0
M  V30 7134 H 665.365 3.75158 1.0094 0
M  V30 7135 H 667.037 4.35175 -1.53039 0
M  V30 7136 H 665.28 4.06877 -1.50444 0
M  V30 7137 H 665.951 5.47819 -0.678144 0
M  V30 7138 H 668.427 4.10596 0.674573 0
M  V30 7139 H 667.303 5.32663 1.3252 0
M  V30 7140 H 667.564 3.83038 2.20758 0
M  V30 7141 N 666.623 0.143563 1.56945 0
M  V30 7142 C 667.533 -0.810562 2.20152 0
M  V30 7143 C 668.549 -1.27431 1.1848 0
M  V30 7144 O 669.725 -1.33221 1.51044 0
M  V30 7145 C 666.79 -2.03353 2.80799 0
M  V30 7146 C 665.851 -1.61936 3.97587 0
M  V30 7147 C 665.084 -2.78403 4.55332 0
M  V30 7148 O 665.307 -3.94521 4.11958 0
M  V30 7149 O 664.241 -2.54073 5.45647 0
M  V30 7150 H 668.067 -0.30253 3.02189 0
M  V30 7151 H 665.652 -0.0832925 1.49168 0
M  V30 7152 H 667.534 -2.74932 3.19359 0
M  V30 7153 H 666.209 -2.53116 2.01777 0
M  V30 7154 H 665.116 -0.873904 3.6375 0
M  V30 7155 H 666.449 -1.16892 4.78118 0
M  V30 7156 N 668.101 -1.57061 -0.130224 0
M  V30 7157 C 669.064 -1.98593 -1.14426 0
M  V30 7158 C 670.064 -0.874584 -1.34936 0
M  V30 7159 O 671.254 -1.14086 -1.31643 0
M  V30 7160 C 668.386 -2.31639 -2.50112 0
M  V30 7161 H 669.579 -2.89374 -0.787561 0
M  V30 7162 H 667.132 -1.51756 -0.374146 0
M  V30 7163 H 667.867 -1.43703 -2.90723 0
M  V30 7164 H 667.652 -3.12684 -2.36583 0
M  V30 7165 H 669.142 -2.64551 -3.23114 0
M  V30 7166 N 669.579 0.400081 -1.52437 0
M  V30 7167 C 670.526 1.48803 -1.76426 0
M  V30 7168 C 671.496 1.5461 -0.607032 0
M  V30 7169 O 672.681 1.71041 -0.845563 0
M  V30 7170 C 669.821 2.86156 -1.92896 0
M  V30 7171 C 668.934 2.89587 -3.20567 0
M  V30 7172 C 668.069 4.18296 -3.27417 0
M  V30 7173 C 667.108 4.15736 -4.49255 0
M  V30 7174 N 666.245 5.36032 -4.53447 0
M  V30 7175 H 671.085 1.27649 -2.69276 0
M  V30 7176 H 668.622 0.619451 -1.33421 0
M  V30 7177 H 670.58 3.65901 -2.00429 0
M  V30 7178 H 669.21 3.05785 -1.03418 0
M  V30 7179 H 668.262 2.02278 -3.22161 0
M  V30 7180 H 669.574 2.83562 -4.10358 0
M  V30 7181 H 668.728 5.06439 -3.34072 0
M  V30 7182 H 667.467 4.27028 -2.35581 0
M  V30 7183 H 666.472 3.25982 -4.42737 0
M  V30 7184 H 667.697 4.08636 -5.42396 0
M  V30 7185 H 665.643 5.45415 -3.64498 0
M  V30 7186 H 665.56 5.32038 -5.37096 0
M  V30 7187 H 666.828 6.26104 -4.64343 0
M  V30 7188 N 671.057 1.43213 0.657864 0
M  V30 7189 C 672.004 1.48011 1.77092 0
M  V30 7190 C 672.974 0.330291 1.62783 0
M  V30 7191 O 674.159 0.536787 1.83094 0
M  V30 7192 C 671.299 1.40461 3.15222 0
M  V30 7193 C 670.412 2.65612 3.40697 0
M  V30 7194 C 669.547 2.50083 4.68649 0
M  V30 7195 C 668.586 3.70525 4.87214 0
M  V30 7196 N 667.723 3.53835 6.0642 0
M  V30 7197 H 672.563 2.43121 1.72326 0
M  V30 7198 H 670.1 1.20687 0.841013 0
M  V30 7199 H 672.058 1.34079 3.95068 0
M  V30 7200 H 670.688 0.489359 3.19069 0
M  V30 7201 H 669.74 2.82292 2.54982 0
M  V30 7202 H 671.052 3.5509 3.50303 0
M  V30 7203 H 670.206 2.41383 5.56614 0
M  V30 7204 H 668.945 1.58121 4.61356 0
M  V30 7205 H 667.95 3.79639 3.97686 0
M  V30 7206 H 669.175 4.63489 4.96341 0
M  V30 7207 H 667.121 2.64604 6.00267 0
M  V30 7208 H 667.038 4.36912 6.16963 0
M  V30 7209 H 668.306 3.48978 6.97019 0
M  V30 7210 N 672.536 -0.895792 1.29666 0
M  V30 7211 C 673.466 -2.01673 1.17688 0
M  V30 7212 C 674.447 -1.69955 0.0701317 0
M  V30 7213 O 675.632 -1.9258 0.250289 0
M  V30 7214 C 672.762 -3.36568 0.856681 0
M  V30 7215 C 671.716 -3.82509 1.92017 0
M  V30 7216 C 671.042 -5.14574 1.4532 0
M  V30 7217 C 672.342 -4.02409 3.32963 0
M  V30 7218 H 674.036 -2.11953 2.11463 0
M  V30 7219 H 671.582 -1.01839 1.01807 0
M  V30 7220 H 673.535 -4.14498 0.759577 0
M  V30 7221 H 672.259 -3.26391 -0.116763 0
M  V30 7222 H 670.918 -3.068 2.00673 0
M  V30 7223 H 670.566 -5.00815 0.468325 0
M  V30 7224 H 670.266 -5.46283 2.16447 0
M  V30 7225 H 671.79 -5.9504 1.36968 0
M  V30 7226 H 673.204 -4.70808 3.27127 0
M  V30 7227 H 671.601 -4.45478 4.02082 0
M  V30 7228 H 672.671 -3.06616 3.75652 0
M  V30 7229 N 674.014 -1.12206 -1.10668 0
M  V30 7230 C 675.263 -0.870595 -1.81944 0
M  V30 7231 C 675.576 0.605447 -1.85994 0
M  V30 7232 O 676.782 0.973433 -2.53449 0
M  V30 7233 C 675.238 -1.50783 -3.26791 0
M  V30 7234 C 674.846 -3.01849 -3.31046 0
M  V30 7235 C 676.59 -1.33653 -4.02911 0
M  V30 7236 C 674.497 -3.58518 -4.70339 0
M  V30 7237 H 673.427 -0.322043 -0.681765 0
M  V30 7238 H 676.078 -1.34827 -1.24475 0
M  V30 7239 H 674.46 -0.957825 -3.84242 0
M  V30 7240 H 675.634 -3.63321 -2.83433 0
M  V30 7241 H 673.949 -3.18346 -2.68411 0
M  V30 7242 H 676.546 -1.73416 -5.05797 0
M  V30 7243 H 676.889 -0.279949 -4.15358 0
M  V30 7244 H 677.422 -1.85562 -3.51868 0
M  V30 7245 H 674.161 -4.63925 -4.63091 0
M  V30 7246 H 673.681 -3.01819 -5.18329 0
M  V30 7247 H 675.36 -3.57434 -5.39305 0
M  V30 7248 N 675.492 1.28418 -0.913599 0
M  V30 7249 C 676.422 2.29713 -0.418847 0
M  V30 7250 C 677.403 1.62165 0.513469 0
M  V30 7251 O 678.588 1.89576 0.421235 0
M  V30 7252 C 675.718 3.45612 0.342042 0
M  V30 7253 C 674.672 4.25056 -0.501123 0
M  V30 7254 C 673.998 5.3329 0.388097 0
M  V30 7255 C 675.298 4.91814 -1.75831 0
M  V30 7256 H 676.992 2.71346 -1.26538 0
M  V30 7257 H 674.538 1.30446 -0.609903 0
M  V30 7258 H 676.491 4.15562 0.699 0
M  V30 7259 H 675.215 3.02858 1.22248 0
M  V30 7260 H 673.874 3.56833 -0.840598 0
M  V30 7261 H 673.522 4.8678 1.26707 0
M  V30 7262 H 673.222 5.87347 -0.172459 0
M  V30 7263 H 674.746 6.06088 0.74094 0
M  V30 7264 H 676.16 5.54126 -1.47026 0
M  V30 7265 H 674.557 5.55866 -2.26126 0
M  V30 7266 H 675.627 4.16313 -2.4862 0
M  V30 7267 N 676.97 0.677563 1.42291 0
M  V30 7268 C 678.218 0.200578 2.01102 0
M  V30 7269 C 678.539 -1.19803 1.53858 0
M  V30 7270 O 677.809 -1.80496 0.761439 0
M  V30 7271 H 676.389 0.0711634 0.743603 0
M  V30 7272 H 679.051 0.874691 1.7417 0
M  V30 7273 H 678.147 0.204 3.11433 0
M  V30 7274 N 678.448 -1.51871 0.421078 0
M  V30 7275 C 679.696 -2.01539 -0.150492 0
M  V30 7276 C 680.017 -1.30803 -1.44623 0
M  V30 7277 O 679.287 -0.437568 -1.90951 0
M  V30 7278 H 677.867 -0.744698 -0.0586041 0
M  V30 7279 H 680.529 -1.8668 0.560059 0
M  V30 7280 H 679.625 -3.10264 -0.338068 0
M  V30 7281 N 679.926 -0.151884 -1.56866 0
M  V30 7282 C 680.856 0.781943 -2.20018 0
M  V30 7283 C 681.837 1.25347 -1.14987 0
M  V30 7284 O 683.022 1.31015 -1.43348 0
M  V30 7285 C 680.152 2.01928 -2.82564 0
M  V30 7286 C 679.106 1.68434 -3.93464 0
M  V30 7287 C 678.432 2.99472 -4.42968 0
M  V30 7288 C 679.732 0.927244 -5.14003 0
M  V30 7289 H 681.426 0.255607 -2.98307 0
M  V30 7290 H 678.972 0.121502 -1.43486 0
M  V30 7291 H 680.925 2.67741 -3.25411 0
M  V30 7292 H 679.649 2.56943 -2.01614 0
M  V30 7293 H 678.308 1.04998 -3.51242 0
M  V30 7294 H 677.956 3.52488 -3.58834 0
M  V30 7295 H 677.656 2.77823 -5.17772 0
M  V30 7296 H 679.18 3.66348 -4.88489 0
M  V30 7297 H 680.594 1.48756 -5.53665 0
M  V30 7298 H 678.991 0.810513 -5.94601 0
M  V30 7299 H 680.061 -0.0801163 -4.84834 0
M  V30 7300 N 681.404 1.57128 0.121893 0
M  V30 7301 C 682.314 2.03425 1.16857 0
M  V30 7302 C 683.33 0.954108 1.45509 0
M  V30 7303 O 684.506 1.26541 1.56682 0
M  V30 7304 C 681.571 2.42685 2.47599 0
M  V30 7305 C 680.632 3.64767 2.2637 0
M  V30 7306 C 679.865 4.02145 3.50878 0
M  V30 7307 O 680.088 3.39897 4.58068 0
M  V30 7308 O 679.022 4.95262 3.42051 0
M  V30 7309 H 682.848 2.92825 0.80544 0
M  V30 7310 H 680.433 1.45654 0.332477 0
M  V30 7311 H 682.315 2.68684 3.24634 0
M  V30 7312 H 680.99 1.56432 2.83392 0
M  V30 7313 H 679.897 3.43922 1.47203 0
M  V30 7314 H 681.23 4.51716 1.95482 0
M  V30 7315 N 682.882 -0.391992 1.52647 0
M  V30 7316 C 683.829 -1.47866 1.77213 0
M  V30 7317 C 684.799 -1.54286 0.615223 0
M  V30 7318 O 685.984 -1.7059 0.854622 0
M  V30 7319 C 683.124 -2.85129 1.94411 0
M  V30 7320 C 682.237 -2.87883 3.22098 0
M  V30 7321 C 681.372 -4.16553 3.29631 0
M  V30 7322 C 680.411 -4.13348 4.51453 0
M  V30 7323 N 679.548 -5.33619 4.56284 0
M  V30 7324 H 684.388 -1.26219 2.6995 0
M  V30 7325 H 681.925 -0.612367 1.33748 0
M  V30 7326 H 683.883 -3.64833 2.02367 0
M  V30 7327 H 682.513 -3.05232 1.05038 0
M  V30 7328 H 681.565 -2.00567 3.23229 0
M  V30 7329 H 682.877 -2.81382 4.11856 0
M  V30 7330 H 682.031 -5.0466 3.36753 0
M  V30 7331 H 680.77 -4.25773 2.37842 0
M  V30 7332 H 679.775 -3.23629 4.44459 0
M  V30 7333 H 681 -4.05754 5.44555 0
M  V30 7334 H 678.946 -5.43474 3.67385 0
M  V30 7335 H 678.863 -5.29182 5.3991 0
M  V30 7336 H 680.131 -6.23632 4.67657 0
M  V30 7337 N 684.36 -1.4356 -0.65026 0
M  V30 7338 C 685.323 -1.48615 -1.74489 0
M  V30 7339 C 686.323 -0.370483 -1.56474 0
M  V30 7340 O 687.513 -0.632351 -1.62317 0
M  V30 7341 C 684.645 -1.34161 -3.13391 0
M  V30 7342 H 685.838 -2.46103 -1.71387 0
M  V30 7343 H 683.391 -1.30369 -0.862186 0
M  V30 7344 H 684.126 -0.376918 -3.22102 0
M  V30 7345 H 683.911 -2.1504 -3.27872 0
M  V30 7346 H 685.401 -1.40637 -3.93206 0
M  V30 7347 N 685.838 0.888903 -1.30139 0
M  V30 7348 C 686.748 2.02705 -1.18101 0
M  V30 7349 C 687.764 1.73702 -0.101809 0
M  V30 7350 O 688.94 1.98906 -0.315984 0
M  V30 7351 C 686.005 3.35616 -0.869651 0
M  V30 7352 C 685.066 3.78067 -2.03381 0
M  V30 7353 C 684.299 5.04635 -1.73721 0
M  V30 7354 O 684.522 5.66531 -0.663267 0
M  V30 7355 O 683.456 5.43399 -2.58845 0
M  V30 7356 H 687.282 2.15788 -2.13704 0
M  V30 7357 H 684.867 1.01426 -1.09695 0
M  V30 7358 H 686.749 4.15358 -0.711043 0
M  V30 7359 H 685.424 3.23651 0.0565002 0
M  V30 7360 H 684.331 2.99046 -2.24772 0
M  V30 7361 H 685.664 3.94631 -2.94155 0
M  V30 7362 N 687.317 1.12792 1.10072 0
M  V30 7363 C 688.264 0.79921 2.16521 0
M  V30 7364 C 689.234 -0.235726 1.64419 0
M  V30 7365 O 690.419 -0.109457 1.90486 0
M  V30 7366 C 687.559 0.264091 3.44088 0
M  V30 7367 C 686.672 1.35729 4.10124 0
M  V30 7368 C 685.807 0.781212 5.25424 0
M  V30 7369 C 684.846 1.85327 5.8337 0
M  V30 7370 N 683.983 1.29564 6.90042 0
M  V30 7371 H 688.823 1.71105 2.43981 0
M  V30 7372 H 686.36 0.854225 1.19756 0
M  V30 7373 H 688.318 -0.0642423 4.17151 0
M  V30 7374 H 686.948 -0.610901 3.16967 0
M  V30 7375 H 686 1.80234 3.34993 0
M  V30 7376 H 687.312 2.16782 4.4923 0
M  V30 7377 H 686.466 0.403769 6.05355 0
M  V30 7378 H 685.205 -0.0604686 4.87663 0
M  V30 7379 H 684.21 2.23986 5.02106 0
M  V30 7380 H 685.435 2.69824 6.23195 0
M  V30 7381 H 683.381 0.475844 6.54272 0
M  V30 7382 H 683.298 2.04271 7.2788 0
M  V30 7383 H 684.566 0.945545 7.73744 0
M  V30 7384 N 688.795 -1.27931 0.920396 0
M  V30 7385 C 689.742 -2.27085 0.412422 0
M  V30 7386 C 690.712 -1.57858 -0.516725 0
M  V30 7387 O 691.897 -1.85717 -0.437475 0
M  V30 7388 C 689.037 -3.43466 -0.335399 0
M  V30 7389 C 688.15 -4.27425 0.627017 0
M  V30 7390 C 687.285 -5.31016 -0.139916 0
M  V30 7391 C 686.324 -6.06641 0.815683 0
M  V30 7392 N 685.461 -7.02052 0.0818439 0
M  V30 7393 H 690.301 -2.69913 1.26298 0
M  V30 7394 H 687.838 -1.32732 0.634076 0
M  V30 7395 H 689.796 -4.09744 -0.785226 0
M  V30 7396 H 688.426 -3.01611 -1.15025 0
M  V30 7397 H 687.478 -3.6113 1.19537 0
M  V30 7398 H 688.79 -4.79969 1.35763 0
M  V30 7399 H 687.944 -6.03208 -0.649998 0
M  V30 7400 H 686.683 -4.79257 -0.903543 0
M  V30 7401 H 685.688 -5.33294 1.33708 0
M  V30 7402 H 686.913 -6.60489 1.57897 0
M  V30 7403 H 684.859 -6.52634 -0.663671 0
M  V30 7404 H 684.776 -7.52249 0.752163 0
M  V30 7405 H 686.044 -7.78432 -0.407825 0
M  V30 7406 N 690.273 -0.685099 -1.4193 0
M  V30 7407 C 691.183 -0.013404 -2.34596 0
M  V30 7408 C 692.199 0.777589 -1.55658 0
M  V30 7409 O 693.375 0.717553 -1.88184 0
M  V30 7410 C 690.44 0.919031 -3.34297 0
M  V30 7411 C 689.501 0.121417 -4.29128 0
M  V30 7412 C 688.734 1.00944 -5.24067 0
M  V30 7413 O 688.957 2.24898 -5.24192 0
M  V30 7414 O 687.891 0.464724 -6.00103 0
M  V30 7415 H 691.717 -0.776978 -2.93593 0
M  V30 7416 H 689.302 -0.445379 -1.42607 0
M  V30 7417 H 691.184 1.45402 -3.9552 0
M  V30 7418 H 689.859 1.66228 -2.77759 0
M  V30 7419 H 688.766 -0.45792 -3.71287 0
M  V30 7420 H 690.099 -0.582937 -4.88736 0
M  V30 7421 N 691.751 1.51645 -0.429126 0
M  V30 7422 C 693.028 1.94579 0.199614 0
M  V30 7423 C 693.408 1.3673 1.60836 0
M  V30 7424 O 692.756 0.551062 2.21756 0
M  V30 7425 C 692.966 3.48506 0.185685 0
M  V30 7426 C 694.314 4.22756 0.395282 0
M  V30 7427 O 695.338 3.55219 0.264165 0
M  V30 7428 O 694.197 5.42555 0.655475 0
M  V30 7429 H 691.291 0.816007 0.134393 0
M  V30 7430 H 693.837 1.62577 -0.486513 0
M  V30 7431 H 692.609 3.83045 -0.799508 0
M  V30 7432 H 692.232 3.86927 0.91507 0
M  V30 7433 N 693.229 0.160201 1.56784 0
M  V30 7434 C 694.457 -0.494165 2.00912 0
M  V30 7435 C 694.872 -1.57548 1.04038 0
M  V30 7436 O 694.229 -1.82457 0.0394581 0
M  V30 7437 C 694.28 -1.08271 3.44905 0
M  V30 7438 O 694.001 -0.0445704 4.38077 0
M  V30 7439 C 695.502 -1.8164 4.04378 0
M  V30 7440 H 692.722 -0.127498 0.658776 0
M  V30 7441 H 695.266 0.258665 2.02858 0
M  V30 7442 H 693.421 -1.78609 3.4377 0
M  V30 7443 H 693.835 -0.477544 5.22322 0
M  V30 7444 H 695.309 -2.18094 5.07089 0
M  V30 7445 H 695.786 -2.70727 3.45838 0
M  V30 7446 H 696.392 -1.15969 4.09184 0
M  V30 7447 N 694.707 -1.5719 -0.113559 0
M  V30 7448 C 696.123 -1.52607 -0.467253 0
M  V30 7449 C 696.323 -0.874058 -1.81556 0
M  V30 7450 O 695.379 -0.458703 -2.48299 0
M  V30 7451 C 696.692 -2.97363 -0.446736 0
M  V30 7452 C 698.24 -3.08482 -0.529903 0
M  V30 7453 C 698.715 -4.54809 -0.539721 0
M  V30 7454 N 700.206 -4.59284 -0.601005 0
M  V30 7455 C 700.941 -5.69927 -0.630138 0
M  V30 7456 N 700.437 -6.90051 -0.616589 0
M  V30 7457 N 702.23 -5.5805 -0.673558 0
M  V30 7458 H 694.381 -1.97958 0.769819 0
M  V30 7459 H 696.644 -0.90428 0.284572 0
M  V30 7460 H 696.35 -3.48458 0.47643 0
M  V30 7461 H 696.224 -3.55086 -1.27254 0
M  V30 7462 H 698.611 -2.57386 -1.44349 0
M  V30 7463 H 698.692 -2.53744 0.323695 0
M  V30 7464 H 698.336 -5.06552 0.369843 0
M  V30 7465 H 698.266 -5.07364 -1.41028 0
M  V30 7466 H 700.757 -3.72822 -0.617419 0
M  V30 7467 H 701.07 -7.70132 -0.641592 0
M  V30 7468 H 699.415 -6.92543 -0.583927 0
M  V30 7469 H 702.606 -4.63112 -0.681544 0
M  V30 7470 H 702.779 -6.44286 -0.692794 0
M  V30 7471 N 696.185 0.383891 -1.52853 0
M  V30 7472 C 697.118 1.49105 -1.72751 0
M  V30 7473 C 698.096 1.52077 -0.575438 0
M  V30 7474 O 699.28 1.70406 -0.805854 0
M  V30 7475 C 696.407 2.87551 -1.78975 0
M  V30 7476 C 695.453 3.02383 -3.00777 0
M  V30 7477 S 696.286 2.73048 -4.60657 0
M  V30 7478 C 697.442 4.13678 -4.69704 0
M  V30 7479 H 697.675 1.32002 -2.66388 0
M  V30 7480 H 695.208 0.577088 -1.4321 0
M  V30 7481 H 697.166 3.6733 -1.83246 0
M  V30 7482 H 695.827 3.01977 -0.864215 0
M  V30 7483 H 695.02 4.03733 -3.01688 0
M  V30 7484 H 694.622 2.30504 -2.94523 0
M  V30 7485 H 696.914 5.07676 -4.48633 0
M  V30 7486 H 697.857 4.1778 -5.71721 0
M  V30 7487 H 698.265 3.99825 -3.98497 0
M  V30 7488 N 697.663 1.43903 0.642637 0
M  V30 7489 C 698.893 1.49323 1.4278 0
M  V30 7490 C 699.301 0.113058 1.88862 0
M  V30 7491 O 698.644 -0.889089 1.60751 0
M  V30 7492 C 698.706 2.3861 2.68897 0
M  V30 7493 C 698.37 3.85976 2.44687 0
M  V30 7494 C 699.367 4.7681 2.07239 0
M  V30 7495 C 697.052 4.30567 2.58683 0
M  V30 7496 C 699.046 6.10234 1.841 0
M  V30 7497 C 696.733 5.64042 2.35159 0
M  V30 7498 C 697.731 6.53693 1.97925 0
M  V30 7499 O 697.419 7.84698 1.74654 0
M  V30 7500 H 697.151 0.509109 0.444729 0
M  V30 7501 H 699.705 1.89425 0.794195 0
M  V30 7502 H 697.935 1.93415 3.34855 0
M  V30 7503 H 699.624 2.35112 3.30873 0
M  V30 7504 H 700.39 4.43635 1.95993 0
M  V30 7505 H 696.269 3.61054 2.86637 0
M  V30 7506 H 699.813 6.80171 1.54962 0
M  V30 7507 H 695.71 5.96782 2.46011 0
M  V30 7508 H 696.478 7.96382 1.88993 0
M  V30 7509 N 699.141 -0.881989 1.30609 0
M  V30 7510 C 700.071 -2.00413 1.1982 0
M  V30 7511 C 701.052 -1.69871 0.0881538 0
M  V30 7512 O 702.237 -1.92304 0.2707 0
M  V30 7513 C 699.367 -3.35641 0.89233 0
M  V30 7514 C 698.321 -3.80451 1.96064 0
M  V30 7515 C 697.647 -5.13003 1.5077 0
M  V30 7516 C 698.947 -3.98855 3.37213 0
M  V30 7517 H 700.641 -2.09698 2.13699 0
M  V30 7518 H 698.187 -1.00754 1.02882 0
M  V30 7519 H 700.14 -4.13669 0.803497 0
M  V30 7520 H 698.864 -3.26497 -0.0821381 0
M  V30 7521 H 697.523 -3.04654 2.03916 0
M  V30 7522 H 697.171 -5.0029 0.521417 0
M  V30 7523 H 696.871 -5.43956 2.22229 0
M  V30 7524 H 698.395 -5.93554 1.43271 0
M  V30 7525 H 699.809 -4.67312 3.32103 0
M  V30 7526 H 698.206 -4.41188 4.06784 0
M  V30 7527 H 699.276 -3.02614 3.78883 0
M  V30 7528 N 700.619 -1.13374 -1.09472 0
M  V30 7529 C 701.549 -0.833268 -2.18126 0
M  V30 7530 C 702.53 0.207169 -1.68834 0
M  V30 7531 O 703.715 0.0662012 -1.94087 0
M  V30 7532 C 700.845 -0.297979 -3.46019 0
M  V30 7533 C 699.799 -1.27261 -4.08642 0
M  V30 7534 C 699.125 -0.597104 -5.31356 0
M  V30 7535 C 700.425 -2.63095 -4.51197 0
M  V30 7536 H 702.119 -1.74182 -2.43518 0
M  V30 7537 H 699.665 -0.838921 -1.17039 0
M  V30 7538 H 701.618 -0.0754444 -4.21332 0
M  V30 7539 H 700.342 0.645959 -3.20148 0
M  V30 7540 H 699.001 -1.48113 -3.35348 0
M  V30 7541 H 698.649 0.352293 -5.01765 0
M  V30 7542 H 698.349 -1.24734 -5.74208 0
M  V30 7543 H 699.873 -0.38384 -6.09392 0
M  V30 7544 H 701.287 -2.46214 -5.17737 0
M  V30 7545 H 699.684 -3.2429 -5.04932 0
M  V30 7546 H 700.754 -3.20793 -3.6362 0
M  V30 7547 N 702.098 1.27442 -0.927168 0
M  V30 7548 C 703.061 2.2512 -0.430525 0
M  V30 7549 C 704.061 1.54357 0.450619 0
M  V30 7550 O 705.251 1.72371 0.251774 0
M  V30 7551 C 702.383 3.38763 0.381144 0
M  V30 7552 H 703.576 2.70569 -1.29354 0
M  V30 7553 H 701.129 1.39355 -0.707806 0
M  V30 7554 H 701.864 2.98695 1.263 0
M  V30 7555 H 701.649 3.91298 -0.250618 0
M  V30 7556 H 703.139 4.11364 0.719012 0
M  V30 7557 N 703.576 0.692616 1.41565 0
M  V30 7558 C 704.506 0.0397325 2.33466 0
M  V30 7559 C 705.487 -0.770334 1.51657 0
M  V30 7560 O 706.672 -0.723903 1.80203 0
M  V30 7561 C 703.802 -0.899495 3.3545 0
M  V30 7562 C 702.756 -0.196738 4.27548 0
M  V30 7563 C 702.082 -1.25012 5.19881 0
M  V30 7564 C 703.382 0.935158 5.1386 0
M  V30 7565 H 705.076 0.807296 2.88311 0
M  V30 7566 H 702.622 0.389665 1.38628 0
M  V30 7567 H 704.575 -1.36545 3.98665 0
M  V30 7568 H 703.299 -1.69869 2.78948 0
M  V30 7569 H 701.958 0.249158 3.65752 0
M  V30 7570 H 701.606 -2.04177 4.59696 0
M  V30 7571 H 701.306 -0.784931 5.82334 0
M  V30 7572 H 702.83 -1.71665 5.85972 0
M  V30 7573 H 704.244 0.549619 5.70659 0
M  V30 7574 H 702.641 1.32726 5.85238 0
M  V30 7575 H 703.711 1.77613 4.512 0
M  V30 7576 N 705.054 -1.51416 0.437162 0
M  V30 7577 C 706.001 -2.27743 -0.374374 0
M  V30 7578 C 706.971 -1.31327 -1.01698 0
M  V30 7579 O 708.156 -1.60229 -1.03592 0
M  V30 7580 C 705.296 -3.12241 -1.46969 0
M  V30 7581 C 704.409 -4.23651 -0.845236 0
M  V30 7582 C 703.544 -4.95458 -1.91559 0
M  V30 7583 C 702.583 -5.98789 -1.26956 0
M  V30 7584 N 701.72 -6.64005 -2.28126 0
M  V30 7585 H 706.56 -2.96654 0.282892 0
M  V30 7586 H 704.097 -1.46319 0.151352 0
M  V30 7587 H 706.055 -3.59556 -2.11602 0
M  V30 7588 H 704.685 -2.45445 -2.09659 0
M  V30 7589 H 703.737 -3.803 -0.0872059 0
M  V30 7590 H 705.049 -4.97683 -0.333582 0
M  V30 7591 H 704.203 -5.46321 -2.63854 0
M  V30 7592 H 702.942 -4.21055 -2.46097 0
M  V30 7593 H 701.947 -5.47219 -0.53207 0
M  V30 7594 H 703.172 -6.75149 -0.731509 0
M  V30 7595 H 701.118 -5.92415 -2.81745 0
M  V30 7596 H 701.035 -7.33802 -1.81852 0
M  V30 7597 H 702.303 -7.19498 -2.99905 0
M  V30 7598 N 706.532 -0.168513 -1.56696 0
M  V30 7599 C 707.48 0.779791 -2.19139 0
M  V30 7600 C 708.474 1.23957 -1.1546 0
M  V30 7601 O 709.68 1.20555 -1.33666 0
M  V30 7602 H 706.055 0.269739 -0.701958 0
M  V30 7603 H 708.026 0.229156 -2.97519 0
M  V30 7604 C 706.775 2.00003 -2.84419 0
M  V30 7605 H 706.098 1.65527 -3.63924 0
M  V30 7606 H 707.538 2.64251 -3.31583 0
M  V30 7607 C 705.997 2.82187 -1.84044 0
M  V30 7608 O 706.527 3.79247 -1.32418 0
M  V30 7609 N 704.733 2.47145 -1.52864 0
M  V30 7610 H 704.28 1.68277 -1.9504 0
M  V30 7611 H 704.238 3.02422 -0.859569 0
M  V30 7612 N 708.01 1.57248 0.105221 0
M  V30 7613 C 708.973 2.00388 1.11252 0
M  V30 7614 C 709.973 0.89594 1.33527 0
M  V30 7615 O 711.163 1.16166 1.29811 0
M  V30 7616 C 708.295 2.35589 2.46395 0
M  V30 7617 H 709.488 2.90591 0.741424 0
M  V30 7618 H 707.041 1.52332 0.349956 0
M  V30 7619 H 707.776 1.4831 2.884 0
M  V30 7620 H 707.561 3.16408 2.31578 0
M  V30 7621 H 709.051 2.69658 3.18864 0
M  V30 7622 N 709.488 -0.375779 1.53054 0
M  V30 7623 C 710.418 -1.46598 1.81745 0
M  V30 7624 C 711.399 -1.56337 0.670286 0
M  V30 7625 O 712.584 -1.71071 0.919158 0
M  V30 7626 C 709.714 -2.84058 1.99821 0
M  V30 7627 C 708.668 -2.8915 3.15557 0
M  V30 7628 C 707.994 -4.29187 3.18908 0
M  V30 7629 C 709.294 -2.57595 4.54359 0
M  V30 7630 H 710.988 -1.22837 2.73041 0
M  V30 7631 H 708.534 -0.589485 1.31381 0
M  V30 7632 H 710.487 -3.60342 2.18475 0
M  V30 7633 H 709.211 -3.09184 1.05226 0
M  V30 7634 H 707.87 -2.15316 2.96706 0
M  V30 7635 H 707.518 -4.51374 2.2197 0
M  V30 7636 H 707.218 -4.33512 3.96662 0
M  V30 7637 H 708.742 -5.07359 3.39734 0
M  V30 7638 H 710.156 -3.23595 4.73243 0
M  V30 7639 H 708.553 -2.73252 5.34279 0
M  V30 7640 H 709.623 -1.52882 4.60169 0
M  V30 7641 N 710.966 -1.44241 -0.634997 0
M  V30 7642 C 711.896 -1.53632 -1.7584 0
M  V30 7643 C 712.877 -0.389603 -1.65578 0
M  V30 7644 O 714.062 -0.609219 -1.84397 0
M  V30 7645 C 711.192 -1.47644 -3.14354 0
M  V30 7646 C 710.146 -2.60752 -3.394 0
M  V30 7647 C 709.472 -2.39817 -4.77904 0
M  V30 7648 C 710.772 -4.02921 -3.32343 0
M  V30 7649 H 712.466 -2.47662 -1.68238 0
M  V30 7650 H 710.012 -1.19197 -0.807969 0
M  V30 7651 H 711.965 -1.52815 -3.92716 0
M  V30 7652 H 710.689 -0.501284 -3.2273 0
M  V30 7653 H 709.348 -2.54965 -2.63417 0
M  V30 7654 H 708.996 -1.40502 -4.82978 0
M  V30 7655 H 708.696 -3.15649 -4.9562 0
M  V30 7656 H 710.22 -2.46799 -5.585 0
M  V30 7657 H 711.634 -4.10098 -4.00615 0
M  V30 7658 H 710.031 -4.78925 -3.61595 0
M  V30 7659 H 711.101 -4.26766 -2.30215 0
M  V30 7660 N 712.444 0.87505 -1.31075 0
M  V30 7661 C 713.855 1.4433 -1.18431 0
M  V30 7662 C 714.206 1.9506 0.211189 0
M  V30 7663 O 713.331 1.85847 1.10859 0
M  V30 7664 C 713.926 2.62341 -2.14389 0
M  V30 7665 C 712.485 3.15225 -2.05694 0
M  V30 7666 C 711.632 1.87929 -2.03907 0
M  V30 7667 H 714.583 0.684061 -1.432 0
M  V30 7668 H 714.604 3.3887 -1.73053 0
M  V30 7669 H 714.116 2.25388 -3.15946 0
M  V30 7670 H 712.217 3.56812 -1.07314 0
M  V30 7671 H 712.33 3.77853 -2.94558 0
M  V30 7672 H 710.694 2.06679 -1.48849 0
M  V30 7673 H 711.477 1.53221 -3.07211 0
M  V30 7674 N 713.922 1.13953 1.08869 0
M  V30 7675 C 714.832 0.835666 2.19212 0
M  V30 7676 C 715.848 -0.182005 1.73045 0
M  V30 7677 O 717.024 -0.0116661 2.01397 0
M  V30 7678 C 714.089 0.312325 3.4529 0
M  V30 7679 C 713.15 1.39196 4.06107 0
M  V30 7680 C 712.383 0.893496 5.26168 0
M  V30 7681 O 712.606 -0.266807 5.69776 0
M  V30 7682 O 711.54 1.67037 5.78258 0
M  V30 7683 H 715.366 1.75769 2.47667 0
M  V30 7684 H 712.951 0.917421 1.17914 0
M  V30 7685 H 714.833 0.0261582 4.21392 0
M  V30 7686 H 713.508 -0.582042 3.18424 0
M  V30 7687 H 712.415 1.73152 3.31616 0
M  V30 7688 H 713.748 2.26068 4.37212 0
M  V30 7689 N 715.4 -1.26948 0.933913 0
M  V30 7690 C 716.648 -1.93704 0.576484 0
M  V30 7691 C 716.969 -1.73702 -0.886145 0
M  V30 7692 O 716.239 -1.08838 -1.62884 0
M  V30 7693 H 714.819 -0.716812 0.210214 0
M  V30 7694 H 717.481 -1.54534 1.18766 0
M  V30 7695 H 716.577 -3.01987 0.788055 0
M  V30 7696 N 716.879 -0.700114 -1.41195 0
M  V30 7697 C 718.128 -0.230082 -2.00383 0
M  V30 7698 C 718.441 1.17857 -1.56106 0
M  V30 7699 O 719.647 1.74631 -2.07885 0
M  V30 7700 C 718.103 -0.360447 -3.5809 0
M  V30 7701 C 717.711 -1.77475 -4.11347 0
M  V30 7702 C 719.455 0.0495799 -4.24471 0
M  V30 7703 C 717.362 -1.85653 -5.61504 0
M  V30 7704 H 716.292 -0.0822633 -0.749499 0
M  V30 7705 H 718.943 -0.868969 -1.6162 0
M  V30 7706 H 717.325 0.346768 -3.94479 0
M  V30 7707 H 718.499 -2.51109 -3.86369 0
M  V30 7708 H 716.814 -2.13486 -3.57509 0
M  V30 7709 H 719.411 0.00898219 -5.34699 0
M  V30 7710 H 719.754 1.08904 -4.01803 0
M  V30 7711 H 720.287 -0.607521 -3.93134 0
M  V30 7712 H 717.026 -2.87667 -5.89006 0
M  V30 7713 H 716.546 -1.1641 -5.88395 0
M  V30 7714 H 718.225 -1.62151 -6.26351 0
M  V30 7715 N 718.357 1.51182 -0.445186 0
M  V30 7716 C 719.768 1.86693 0.0160999 0
M  V30 7717 C 720.119 1.36183 1.4124 0
M  V30 7718 O 719.244 0.715895 2.04215 0
M  V30 7719 C 719.839 3.38781 0.0359918 0
M  V30 7720 C 718.398 3.73799 0.441715 0
M  V30 7721 C 717.545 2.74947 -0.360511 0
M  V30 7722 H 720.496 1.44294 -0.660674 0
M  V30 7723 H 720.517 3.71026 0.843813 0
M  V30 7724 H 720.029 3.75513 -0.980378 0
M  V30 7725 H 718.13 3.42659 1.4634 0
M  V30 7726 H 718.243 4.78829 0.16106 0
M  V30 7727 H 716.607 2.54047 0.182269 0
M  V30 7728 H 717.39 3.14521 -1.3759 0
M  V30 7729 N 719.835 0.176821 1.56605 0
M  V30 7730 C 721.06 -0.47599 2.01864 0
M  V30 7731 C 721.485 -1.55645 1.05623 0
M  V30 7732 O 720.843 -1.81263 0.0366729 0
M  V30 7733 C 720.891 -1.02619 3.4569 0
M  V30 7734 O 719.995 -2.13996 3.52533 0
M  V30 7735 H 719.336 -0.113363 0.654251 0
M  V30 7736 H 721.866 0.28233 2.02643 0
M  V30 7737 H 721.876 -1.34742 3.85109 0
M  V30 7738 H 720.551 -0.235138 4.15235 0
M  V30 7739 H 719.128 -1.82876 3.24978 0
M  V30 7740 N 721.313 -1.57302 -0.09688 0
M  V30 7741 C 722.243 -2.0497 -1.11846 0
M  V30 7742 C 723.224 -0.938278 -1.41882 0
M  V30 7743 O 724.409 -1.20943 -1.51942 0
M  V30 7744 C 721.539 -2.47264 -2.43881 0
M  V30 7745 C 720.493 -3.62053 -2.28257 0
M  V30 7746 C 719.819 -3.90318 -3.65453 0
M  V30 7747 C 721.119 -4.93005 -1.72461 0
M  V30 7748 H 722.813 -2.90567 -0.721888 0
M  V30 7749 H 720.359 -1.39786 -0.345803 0
M  V30 7750 H 722.312 -2.7922 -3.15617 0
M  V30 7751 H 721.036 -1.58664 -2.8547 0
M  V30 7752 H 719.695 -3.30341 -1.58967 0
M  V30 7753 H 719.343 -2.98889 -4.04567 0
M  V30 7754 H 719.043 -4.67597 -3.55846 0
M  V30 7755 H 720.567 -4.24747 -4.3866 0
M  V30 7756 H 721.981 -5.23354 -2.34036 0
M  V30 7757 H 720.378 -5.74436 -1.73618 0
M  V30 7758 H 721.448 -4.80053 -0.683898 0
M  V30 7759 N 722.791 0.367657 -1.53252 0
M  V30 7760 C 723.721 1.45632 -1.8252 0
M  V30 7761 C 724.702 1.55979 -0.678568 0
M  V30 7762 O 725.887 1.70581 -0.928217 0
M  V30 7763 C 723.017 2.82994 -2.01325 0
M  V30 7764 C 721.971 2.87473 -3.17086 0
M  V30 7765 C 721.297 4.2749 -3.21179 0
M  V30 7766 C 722.597 2.55182 -4.55719 0
M  V30 7767 H 724.291 1.21387 -2.73689 0
M  V30 7768 H 721.837 0.58251 -1.31692 0
M  V30 7769 H 723.79 3.59179 -2.20383 0
M  V30 7770 H 722.514 3.08622 -1.06864 0
M  V30 7771 H 721.173 2.13739 -2.97844 0
M  V30 7772 H 720.821 4.5019 -2.24361 0
M  V30 7773 H 720.521 4.31403 -3.98955 0
M  V30 7774 H 722.045 5.0555 -3.42419 0
M  V30 7775 H 723.459 3.21081 -4.74953 0
M  V30 7776 H 721.856 2.70414 -5.3572 0
M  V30 7777 H 722.926 1.5044 -4.60973 0
M  V30 7778 N 724.269 1.44576 0.627338 0
M  V30 7779 C 725.216 1.51734 1.73912 0
M  V30 7780 C 726.186 0.364745 1.62046 0
M  V30 7781 O 727.371 0.575503 1.81914 0
M  V30 7782 C 724.511 1.47116 3.12171 0
M  V30 7783 C 723.624 2.72778 3.34986 0
M  V30 7784 C 722.759 2.59968 4.63239 0
M  V30 7785 C 721.798 3.80776 4.79245 0
M  V30 7786 N 720.935 3.66618 5.98778 0
M  V30 7787 H 725.775 2.46722 1.6713 0
M  V30 7788 H 723.312 1.22444 0.815224 0
M  V30 7789 H 725.27 1.42429 3.92135 0
M  V30 7790 H 723.9 0.556928 3.17959 0
M  V30 7791 H 722.952 2.87637 2.48936 0
M  V30 7792 H 724.264 3.62441 3.42692 0
M  V30 7793 H 723.418 2.53135 5.51369 0
M  V30 7794 H 722.157 1.67872 4.57898 0
M  V30 7795 H 721.162 3.87989 3.89544 0
M  V30 7796 H 722.387 4.73913 4.86398 0
M  V30 7797 H 720.333 2.77277 5.9452 0
M  V30 7798 H 720.25 4.499 6.07557 0
M  V30 7799 H 721.518 3.63684 6.89459 0
M  V30 7800 N 725.747 -0.868086 1.31537 0
M  V30 7801 C 726.977 -1.65162 1.24118 0
M  V30 7802 C 727.385 -1.88187 -0.195558 0
M  V30 7803 O 726.728 -1.44154 -1.13866 0
M  V30 7804 C 726.79 -3.04119 1.91708 0
M  V30 7805 C 726.454 -3.04194 3.4105 0
M  V30 7806 C 727.451 -2.82016 4.36764 0
M  V30 7807 C 725.136 -3.25256 3.82772 0
M  V30 7808 C 727.13 -2.80881 5.72175 0
M  V30 7809 C 724.817 -3.23749 5.18295 0
M  V30 7810 C 725.815 -3.01589 6.12808 0
M  V30 7811 O 725.503 -2.9993 7.45853 0
M  V30 7812 H 725.235 -0.521597 0.430015 0
M  V30 7813 H 727.789 -1.09165 1.73989 0
M  V30 7814 H 726.019 -3.61849 1.36389 0
M  V30 7815 H 727.708 -3.64701 1.78179 0
M  V30 7816 H 728.474 -2.65525 4.05859 0
M  V30 7817 H 724.353 -3.41534 3.09638 0
M  V30 7818 H 727.897 -2.63503 6.45919 0
M  V30 7819 H 723.794 -3.39781 5.48834 0
M  V30 7820 H 724.562 -3.15979 7.55049 0
M  V30 7821 N 727.225 -1.14528 -1.08264 0
M  V30 7822 C 728.188 -0.83632 -2.13397 0
M  V30 7823 C 729.188 0.159715 -1.60005 0
M  V30 7824 O 730.378 -0.0688098 -1.74064 0
M  V30 7825 C 727.51 -0.246973 -3.40004 0
M  V30 7826 H 728.703 -1.76808 -2.42237 0
M  V30 7827 H 726.256 -0.951509 -1.24 0
M  V30 7828 H 726.991 0.693436 -3.168 0
M  V30 7829 H 726.776 -0.964412 -3.80055 0
M  V30 7830 H 728.266 -0.0480679 -4.17572 0
M  V30 7831 N 728.703 1.26451 -0.940633 0
M  V30 7832 C 729.613 2.30128 -0.455881 0
M  V30 7833 C 730.629 1.67536 0.469867 0
M  V30 7834 O 731.805 1.98344 0.349529 0
M  V30 7835 C 728.87 3.45634 0.271648 0
M  V30 7836 C 727.931 4.23709 -0.690594 0
M  V30 7837 C 727.164 5.337 0.00231047 0
M  V30 7838 O 727.387 5.57215 1.21935 0
M  V30 7839 O 726.321 5.98091 -0.676111 0
M  V30 7840 H 730.147 2.73655 -1.31707 0
M  V30 7841 H 727.732 1.3164 -0.706497 0
M  V30 7842 H 729.614 4.15853 0.681486 0
M  V30 7843 H 728.289 3.04138 1.10824 0
M  V30 7844 H 727.196 3.55974 -1.15037 0
M  V30 7845 H 728.529 4.68953 -1.49478 0
M  V30 7846 N 730.181 0.707592 1.40822 0
M  V30 7847 C 731.144 0.0587224 2.29125 0
M  V30 7848 C 732.144 -0.695624 1.44975 0
M  V30 7849 O 733.334 -0.528718 1.65983 0
M  V30 7850 C 730.466 -0.926939 3.28056 0
M  V30 7851 H 731.659 0.836349 2.88002 0
M  V30 7852 H 729.212 0.471778 1.4901 0
M  V30 7853 H 729.947 -1.7319 2.74182 0
M  V30 7854 H 729.732 -0.389015 3.90165 0
M  V30 7855 H 731.222 -1.37837 3.94196 0
M  V30 7856 N 731.66 -1.50943 0.453197 0
M  V30 7857 C 732.908 -2.01813 -0.107709 0
M  V30 7858 C 733.229 -1.33841 -1.41816 0
M  V30 7859 O 732.499 -0.477973 -1.8998 0
M  V30 7860 H 731.079 -0.745773 -0.0427948 0
M  V30 7861 H 733.741 -1.8545 0.599531 0
M  V30 7862 H 732.837 -3.10911 -0.27218 0
M  V30 7863 N 733.138 -0.185124 -1.56509 0
M  V30 7864 C 734.048 0.751908 -2.22224 0
M  V30 7865 C 735.064 1.24244 -1.21817 0
M  V30 7866 O 736.24 1.29169 -1.54523 0
M  V30 7867 C 733.305 1.95837 -2.86092 0
M  V30 7868 C 732.366 1.51337 -4.01741 0
M  V30 7869 C 731.599 2.66233 -4.62554 0
M  V30 7870 O 731.822 3.8346 -4.22273 0
M  V30 7871 O 730.756 2.39517 -5.52191 0
M  V30 7872 H 734.582 0.222304 -3.02885 0
M  V30 7873 H 732.167 0.0437141 -1.49336 0
M  V30 7874 H 734.049 2.66368 -3.26536 0
M  V30 7875 H 732.724 2.47677 -2.08417 0
M  V30 7876 H 731.631 0.777155 -3.65939 0
M  V30 7877 H 732.964 1.04175 -4.81049 0
M  V30 7878 N 734.616 1.57351 0.0885366 0
M  V30 7879 C 735.864 1.86051 0.789262 0
M  V30 7880 C 736.185 0.774763 1.78948 0
M  V30 7881 O 735.455 -0.198324 1.94894 0
M  V30 7882 H 734.035 0.686508 0.294475 0
M  V30 7883 H 736.697 1.94779 0.0686055 0
M  V30 7884 H 735.793 2.83007 1.31581 0
M  V30 7885 N 736.094 -0.359525 1.53444 0
M  V30 7886 C 737.505 -0.936009 1.61542 0
M  V30 7887 C 737.856 -1.90069 0.486633 0
M  V30 7888 O 736.981 -2.12929 -0.386047 0
M  V30 7889 C 737.576 -1.70441 2.92806 0
M  V30 7890 C 736.135 -2.23015 3.03218 0
M  V30 7891 C 735.282 -1.04438 2.56881 0
M  V30 7892 H 738.233 -0.138134 1.58098 0
M  V30 7893 H 738.254 -2.56609 2.80948 0
M  V30 7894 H 737.766 -1.00205 3.74941 0
M  V30 7895 H 735.867 -2.96475 2.25684 0
M  V30 7896 H 735.98 -2.50481 4.08407 0
M  V30 7897 H 734.344 -1.41314 2.11902 0
M  V30 7898 H 735.127 -0.356905 3.4144 0
M  V30 7899 N 737.572 -1.44907 -0.619662 0
M  V30 7900 C 738.821 -1.47569 -1.37501 0
M  V30 7901 C 739.134 -0.116707 -1.95252 0
M  V30 7902 O 740.34 -0.020909 -2.71492 0
M  V30 7903 C 738.796 -2.59851 -2.49009 0
M  V30 7904 C 738.404 -4.02008 -1.97722 0
M  V30 7905 C 740.148 -2.71746 -3.2612 0
M  V30 7906 C 738.055 -5.05693 -3.0664 0
M  V30 7907 H 736.985 -0.549068 -0.51676 0
M  V30 7908 H 739.636 -1.71009 -0.665437 0
M  V30 7909 H 738.018 -2.29671 -3.22594 0
M  V30 7910 H 739.192 -4.41809 -1.30925 0
M  V30 7911 H 737.507 -3.94456 -1.33392 0
M  V30 7912 H 740.104 -3.46382 -4.07337 0
M  V30 7913 H 740.447 -1.77959 -3.76346 0
M  V30 7914 H 740.98 -3.01392 -2.5963 0
M  V30 7915 H 737.719 -6.01148 -2.61345 0
M  V30 7916 H 737.239 -4.70473 -3.72042 0
M  V30 7917 H 738.918 -5.29906 -3.71226 0
M  V30 7918 N 739.05 0.861098 -1.31996 0
M  V30 7919 C 740.275 1.65264 -1.2531 0
M  V30 7920 C 740.7 1.87265 0.177007 0
M  V30 7921 O 740.058 1.4208 1.12619 0
M  V30 7922 C 740.106 2.99284 -2.0115 0
M  V30 7923 O 739.21 3.89508 -1.3549 0
M  V30 7924 H 738.551 0.50409 -0.432192 0
M  V30 7925 H 741.081 1.07297 -1.74208 0
M  V30 7926 H 741.091 3.49154 -2.11081 0
M  V30 7927 H 739.766 2.82591 -3.05148 0
M  V30 7928 H 738.343 3.47966 -1.34066 0
M  V30 7929 N 740.528 1.15101 1.07655 0
M  V30 7930 C 741.478 0.813448 2.12995 0
M  V30 7931 C 742.462 -0.200899 1.59641 0
M  V30 7932 O 743.654 -0.00209918 1.77 0
M  V30 7933 C 740.783 0.301078 3.41977 0
M  V30 7934 C 739.869 1.3454 4.02194 0
M  V30 7935 N 740.26 2.55181 4.36711 0
M  V30 7936 C 738.558 1.19742 4.29625 0
M  V30 7937 C 739.259 3.22094 4.84387 0
M  V30 7938 N 738.235 2.49486 4.82968 0
M  V30 7939 H 742.037 1.73105 2.37511 0
M  V30 7940 H 739.551 1.03601 1.25063 0
M  V30 7941 H 741.548 0.040914 4.1688 0
M  V30 7942 H 740.208 -0.610629 3.18907 0
M  V30 7943 H 741.219 2.92349 4.27496 0
M  V30 7944 H 737.896 0.345353 4.16069 0
M  V30 7945 H 739.286 4.24996 5.20411 0
M  V30 7946 N 742.006 -1.2595 0.947325 0
M  V30 7947 C 742.936 -2.28521 0.479604 0
M  V30 7948 C 743.917 -1.63469 -0.470293 0
M  V30 7949 O 745.102 -1.90627 -0.370824 0
M  V30 7950 C 742.232 -3.46397 -0.250289 0
M  V30 7951 C 741.186 -4.23578 0.613643 0
M  V30 7952 C 740.512 -5.34131 -0.246568 0
M  V30 7953 C 741.812 -4.86979 1.88809 0
M  V30 7954 H 743.506 -2.67895 1.33688 0
M  V30 7955 H 741.052 -1.28783 0.644274 0
M  V30 7956 H 743.005 -4.17269 -0.588576 0
M  V30 7957 H 741.729 -3.05993 -1.14175 0
M  V30 7958 H 740.388 -3.54478 0.93491 0
M  V30 7959 H 740.036 -4.89968 -1.13756 0
M  V30 7960 H 739.736 -5.86683 0.328123 0
M  V30 7961 H 741.26 -6.07839 -0.579986 0
M  V30 7962 H 742.674 -5.50034 1.61666 0
M  V30 7963 H 741.071 -5.49675 2.40784 0
M  V30 7964 H 742.141 -4.09575 2.5957 0
M  V30 7965 N 743.484 -0.715051 -1.40445 0
M  V30 7966 C 744.447 -0.0708726 -2.2909 0
M  V30 7967 C 745.447 0.687926 -1.45342 0
M  V30 7968 O 746.637 0.519908 -1.66261 0
M  V30 7969 C 743.769 0.909528 -3.28543 0
M  V30 7970 H 744.962 -0.851611 -2.87555 0
M  V30 7971 H 742.515 -0.479674 -1.48758 0
M  V30 7972 H 743.25 1.71734 -2.75096 0
M  V30 7973 H 743.035 0.368318 -3.90366 0
M  V30 7974 H 744.525 1.35744 -3.94922 0
M  V30 7975 N 744.962 1.50701 -0.461195 0
M  V30 7976 C 746.19 2.06681 0.0951756 0
M  V30 7977 C 746.605 1.32615 1.34382 0
M  V30 7978 O 745.962 0.392531 1.78229 0
M  V30 7979 C 746.013 3.59354 0.393316 0
M  V30 7980 O 745.734 4.30626 -0.805797 0
M  V30 7981 C 747.235 4.31926 0.997744 0
M  V30 7982 H 744.455 0.670995 -0.00267259 0
M  V30 7983 H 746.999 1.93991 -0.647137 0
M  V30 7984 H 745.154 3.7188 1.08555 0
M  V30 7985 H 745.568 5.21667 -0.544409 0
M  V30 7986 H 747.042 5.39756 1.15619 0
M  V30 7987 H 747.519 3.91772 1.98523 0
M  V30 7988 H 748.125 4.23905 0.344188 0
M  V30 7989 N 746.441 0.193421 1.56409 0
M  V30 7990 C 747.669 -0.451438 2.01915 0
M  V30 7991 C 748.084 -1.55306 1.07357 0
M  V30 7992 O 747.441 -1.82333 0.0781512 0
M  V30 7993 C 747.492 -1.00931 3.47124 0
M  V30 7994 O 747.213 0.0483623 4.38073 0
M  V30 7995 C 748.714 -1.73021 4.0814 0
M  V30 7996 H 745.934 -0.113495 0.661332 0
M  V30 7997 H 748.478 0.301636 2.02263 0
M  V30 7998 H 746.633 -1.71277 3.47481 0
M  V30 7999 H 747.047 -0.366644 5.23217 0
M  V30 8000 H 748.521 -2.07289 5.11601 0
M  V30 8001 H 748.998 -2.6333 3.51502 0
M  V30 8002 H 749.604 -1.07264 4.11551 0
M  V30 8003 N 747.919 -1.57396 -0.0801906 0
M  V30 8004 C 748.882 -2.02133 -1.0805 0
M  V30 8005 C 749.882 -0.91707 -1.32085 0
M  V30 8006 O 751.072 -1.18217 -1.27947 0
M  V30 8007 C 748.204 -2.39479 -2.42616 0
M  V30 8008 H 749.397 -2.91733 -0.6951 0
M  V30 8009 H 746.95 -1.52869 -0.325677 0
M  V30 8010 H 747.685 -1.52879 -2.86004 0
M  V30 8011 H 747.47 -3.20052 -2.26515 0
M  V30 8012 H 748.96 -2.74697 -3.14534 0
M  V30 8013 N 749.397 0.351382 -1.53633 0
M  V30 8014 C 750.327 1.43688 -1.84055 0
M  V30 8015 C 751.308 1.55251 -0.695073 0
M  V30 8016 O 752.493 1.69587 -0.946257 0
M  V30 8017 C 749.623 2.80843 -2.04315 0
M  V30 8018 C 748.577 2.84094 -3.20117 0
M  V30 8019 C 747.903 4.2406 -3.25696 0
M  V30 8020 C 749.203 2.50334 -4.58399 0
M  V30 8021 H 750.897 1.18478 -2.74961 0
M  V30 8022 H 748.443 0.568509 -1.32303 0
M  V30 8023 H 750.396 3.56821 -2.2418 0
M  V30 8024 H 749.12 3.07471 -1.10132 0
M  V30 8025 H 747.779 2.10568 -3.00094 0
M  V30 8026 H 747.427 4.47785 -2.29123 0
M  V30 8027 H 747.127 4.27147 -4.03509 0
M  V30 8028 H 748.651 5.0189 -3.47762 0
M  V30 8029 H 750.065 3.16025 -4.78332 0
M  V30 8030 H 748.462 2.64717 -5.38558 0
M  V30 8031 H 749.532 1.45542 -4.62543 0
M  V30 8032 N 750.875 1.45233 0.611969 0
M  V30 8033 C 751.807 1.49575 1.73666 0
M  V30 8034 C 752.82 0.386987 1.58134 0
M  V30 8035 O 754.009 0.653804 1.66095 0
M  V30 8036 C 751.109 1.33223 3.11617 0
M  V30 8037 C 750.282 2.57694 3.5343 0
M  V30 8038 C 749.341 2.35962 4.70328 0
M  V30 8039 O 748.367 3.09553 4.77667 0
M  V30 8040 N 749.569 1.40243 5.63305 0
M  V30 8041 H 752.334 2.46539 1.70407 0
M  V30 8042 H 749.895 1.40917 0.79712 0
M  V30 8043 H 751.887 1.16502 3.87569 0
M  V30 8044 H 750.457 0.44551 3.09409 0
M  V30 8045 H 749.677 2.8956 2.67486 0
M  V30 8046 H 750.965 3.40441 3.78124 0
M  V30 8047 H 750.363 0.795023 5.60086 0
M  V30 8048 H 748.92 1.29496 6.38807 0
M  V30 8049 N 752.353 -0.854086 1.3245 0
M  V30 8050 C 753.769 -1.14238 1.11453 0
M  V30 8051 C 753.969 -2.01228 -0.10461 0
M  V30 8052 O 753.025 -2.39845 -0.789339 0
M  V30 8053 C 754.338 -1.81916 2.39431 0
M  V30 8054 C 755.886 -1.94549 2.45193 0
M  V30 8055 C 756.361 -2.65642 3.73093 0
M  V30 8056 N 757.852 -2.73167 3.74078 0
M  V30 8057 C 758.587 -3.28828 4.69744 0
M  V30 8058 N 758.083 -3.85295 5.75778 0
M  V30 8059 N 759.876 -3.26936 4.57241 0
M  V30 8060 H 752.027 -0.274786 2.10615 0
M  V30 8061 H 754.29 -0.184375 0.929898 0
M  V30 8062 H 753.996 -1.25452 3.28565 0
M  V30 8063 H 753.87 -2.82068 2.50434 0
M  V30 8064 H 756.257 -2.50172 1.56518 0
M  V30 8065 H 756.338 -0.933914 2.38142 0
M  V30 8066 H 755.982 -2.10683 4.62142 0
M  V30 8067 H 755.912 -3.6724 3.77415 0
M  V30 8068 H 758.403 -2.33108 2.97438 0
M  V30 8069 H 758.716 -4.25925 6.44832 0
M  V30 8070 H 757.061 -3.83625 5.79531 0
M  V30 8071 H 760.252 -2.8207 3.7357 0
M  V30 8072 H 760.425 -3.70014 5.31971 0
M  V30 8073 N 753.831 -1.1567 -1.07043 0
M  V30 8074 C 755.061 -0.956083 -1.83146 0
M  V30 8075 C 755.469 0.498969 -1.82502 0
M  V30 8076 O 754.812 1.35791 -1.23719 0
M  V30 8077 C 754.874 -1.39704 -3.31245 0
M  V30 8078 C 754.538 -2.87045 -3.55604 0
M  V30 8079 C 755.535 -3.85092 -3.49285 0
M  V30 8080 C 753.22 -3.24787 -3.8317 0
M  V30 8081 C 755.214 -5.18885 -3.70185 0
M  V30 8082 C 752.901 -4.58751 -4.03721 0
M  V30 8083 C 753.899 -5.55609 -3.97224 0
M  V30 8084 O 753.587 -6.87154 -4.17223 0
M  V30 8085 H 753.319 -0.339473 -0.58458 0
M  V30 8086 H 755.873 -1.53922 -1.36005 0
M  V30 8087 H 754.103 -0.757326 -3.79212 0
M  V30 8088 H 755.792 -1.16503 -3.88821 0
M  V30 8089 H 756.558 -3.5728 -3.27988 0
M  V30 8090 H 752.437 -2.49979 -3.87339 0
M  V30 8091 H 755.981 -5.94473 -3.6503 0
M  V30 8092 H 751.878 -4.86277 -4.24505 0
M  V30 8093 H 752.646 -6.93618 -4.34553 0
M  V30 8094 N 755.309 1.25446 -0.953992 0
M  V30 8095 C 756.586 1.884 -0.525823 0
M  V30 8096 C 756.966 1.86079 0.996891 0
M  V30 8097 O 756.314 1.32389 1.8624 0
M  V30 8098 C 756.524 3.31154 -1.10172 0
M  V30 8099 C 757.872 4.07926 -1.17819 0
M  V30 8100 O 758.896 3.40273 -1.05323 0
M  V30 8101 O 757.755 5.28942 -1.37415 0
M  V30 8102 H 754.849 0.808629 -0.173345 0
M  V30 8103 H 757.395 1.33522 -1.04738 0
M  V30 8104 H 756.167 3.27271 -2.14499 0
M  V30 8105 H 755.79 3.93588 -0.56338 0
M  V30 8106 N 756.787 0.722489 1.40064 0
M  V30 8107 C 757.717 0.0892452 2.33329 0
M  V30 8108 C 758.698 -0.737992 1.53257 0
M  V30 8109 O 759.883 -0.685516 1.81698 0
M  V30 8110 C 757.013 -0.828139 3.37282 0
M  V30 8111 C 755.967 -0.106005 4.27869 0
M  V30 8112 C 755.293 -1.13957 5.22415 0
M  V30 8113 C 756.593 1.04395 5.11761 0
M  V30 8114 H 758.287 0.868269 2.86534 0
M  V30 8115 H 755.833 0.418982 1.3777 0
M  V30 8116 H 757.786 -1.28058 4.01471 0
M  V30 8117 H 756.51 -1.63914 2.82489 0
M  V30 8118 H 755.169 0.326683 3.65142 0
M  V30 8119 H 754.817 -1.9438 4.63924 0
M  V30 8120 H 754.517 -0.661233 5.83868 0
M  V30 8121 H 756.041 -1.59197 5.89482 0
M  V30 8122 H 757.455 0.670541 5.69365 0
M  V30 8123 H 755.852 1.4511 5.82291 0
M  V30 8124 H 756.922 1.87144 4.47331 0
M  V30 8125 N 758.265 -1.50454 0.469181 0
M  V30 8126 C 759.676 -1.86695 0.0136034 0
M  V30 8127 C 760.027 -1.38413 -1.39055 0
M  V30 8128 O 759.152 -0.748294 -2.03051 0
M  V30 8129 C 759.747 -3.38795 0.0179098 0
M  V30 8130 C 758.306 -3.74455 -0.382191 0
M  V30 8131 C 757.453 -2.74338 0.404207 0
M  V30 8132 H 760.404 -1.43225 0.683547 0
M  V30 8133 H 760.425 -3.72321 -0.78468 0
M  V30 8134 H 759.937 -3.73906 1.04 0
M  V30 8135 H 758.038 -3.44944 -1.4087 0
M  V30 8136 H 758.151 -4.79025 -0.084862 0
M  V30 8137 H 756.515 -2.54305 -0.141829 0
M  V30 8138 H 757.298 -3.12293 1.42577 0
M  V30 8139 N 759.743 -0.201713 -1.56304 0
M  V30 8140 C 760.99 0.435307 -1.97766 0
M  V30 8141 C 761.318 1.61169 -1.0888 0
M  V30 8142 O 760.573 1.95272 -0.12934 0
M  V30 8143 C 760.872 0.931432 -3.45049 0
M  V30 8144 C 760.538 -0.132287 -4.50706 0
M  V30 8145 C 759.2 -0.424552 -4.79323 0
M  V30 8146 C 761.552 -0.852703 -5.14177 0
M  V30 8147 C 758.88 -1.4421 -5.68701 0
M  V30 8148 C 761.232 -1.85944 -6.04655 0
M  V30 8149 C 759.896 -2.15884 -6.31625 0
M  V30 8150 H 759.166 0.15929 -0.723676 0
M  V30 8151 H 761.813 -0.300069 -1.89134 0
M  V30 8152 H 760.118 1.7452 -3.50785 0
M  V30 8153 H 761.815 1.43383 -3.74489 0
M  V30 8154 H 758.405 0.105671 -4.2847 0
M  V30 8155 H 762.589 -0.640139 -4.92154 0
M  V30 8156 H 757.845 -1.6799 -5.87869 0
M  V30 8157 H 762.019 -2.42286 -6.52894 0
M  V30 8158 H 759.646 -2.94875 -7.0068 0
M  V30 8159 N 761.222 1.57436 0.0718424 0
M  V30 8160 C 762.471 1.86431 0.769826 0
M  V30 8161 C 762.784 0.794355 1.78744 0
M  V30 8162 O 763.99 0.972148 2.53499 0
M  V30 8163 C 762.446 3.307 1.42006 0
M  V30 8164 C 762.054 4.45824 0.441017 0
M  V30 8165 C 763.798 3.68894 2.10041 0
M  V30 8166 C 761.705 5.81134 1.09717 0
M  V30 8167 H 760.635 0.695474 0.291259 0
M  V30 8168 H 763.286 1.83485 0.0231224 0
M  V30 8169 H 761.668 3.28257 2.21502 0
M  V30 8170 H 762.842 4.59659 -0.32413 0
M  V30 8171 H 761.157 4.16181 -0.134886 0
M  V30 8172 H 763.754 4.67281 2.59908 0
M  V30 8173 H 764.097 2.98692 2.89981 0
M  V30 8174 H 764.63 3.73326 1.37376 0
M  V30 8175 H 761.369 6.54628 0.338095 0
M  V30 8176 H 760.889 5.711 1.83317 0
M  V30 8177 H 762.568 6.26468 1.617 0
M  V30 8178 N 762.7 -0.34323 1.53817 0
M  V30 8179 C 763.928 -1.10348 1.75017 0
M  V30 8180 C 764.343 -1.82345 0.489475 0
M  V30 8181 O 763.7 -1.74362 -0.538886 0
M  V30 8182 C 763.751 -2.11672 2.93048 0
M  V30 8183 O 763.472 -1.42603 4.14241 0
M  V30 8184 C 764.973 -3.0007 3.26301 0
M  V30 8185 H 762.193 -0.329056 0.584776 0
M  V30 8186 H 764.737 -0.395339 2.00642 0
M  V30 8187 H 762.892 -2.78051 2.69753 0
M  V30 8188 H 763.306 -2.10294 4.80496 0
M  V30 8189 H 764.78 -3.67101 4.12239 0
M  V30 8190 H 765.257 -3.66105 2.42618 0
M  V30 8191 H 765.863 -2.3928 3.51604 0
M  V30 8192 N 764.178 -1.45556 -0.604258 0
M  V30 8193 C 765.455 -1.40221 -1.36373 0
M  V30 8194 C 765.835 -0.0745195 -2.10968 0
M  V30 8195 O 765.183 0.943594 -2.08107 0
M  V30 8196 C 765.393 -2.61807 -2.30777 0
M  V30 8197 C 766.741 -3.07037 -2.93281 0
M  V30 8198 O 767.765 -2.62203 -2.41097 0
M  V30 8199 O 766.624 -3.8485 -3.88011 0
M  V30 8200 H 763.718 -0.556602 -0.611656 0
M  V30 8201 H 766.264 -1.57689 -0.627069 0
M  V30 8202 H 765.036 -3.50017 -1.74939 0
M  V30 8203 H 764.659 -2.46688 -3.11818 0
M  V30 8204 N 765.656 0.84705 -1.32902 0
M  V30 8205 C 766.566 1.98845 -1.2449 0
M  V30 8206 C 767.582 1.7329 -0.15702 0
M  V30 8207 O 768.758 1.978 -0.379104 0
M  V30 8208 C 765.823 3.32679 -0.975985 0
M  V30 8209 C 764.884 3.71405 -2.15306 0
M  V30 8210 C 764.117 4.98853 -1.89688 0
M  V30 8211 O 764.34 5.64134 -0.843168 0
M  V30 8212 O 763.274 5.34889 -2.76002 0
M  V30 8213 H 767.1 2.0888 -2.2046 0
M  V30 8214 H 764.685 0.978852 -1.12867 0
M  V30 8215 H 766.567 4.12885 -0.842826 0
M  V30 8216 H 765.242 3.23667 -0.0464954 0
M  V30 8217 H 764.149 2.91743 -2.34172 0
M  V30 8218 H 765.482 3.85073 -3.06561 0
M  V30 8219 N 767.134 1.16236 1.06428 0
M  V30 8220 C 768.38 0.944431 1.79467 0
M  V30 8221 C 768.713 -0.526558 1.86925 0
M  V30 8222 O 767.988 -1.39061 1.35986 0
M  V30 8223 C 768.271 1.57092 3.24028 0
M  V30 8224 C 768.124 3.11315 3.24658 0
M  V30 8225 C 769.443 1.26447 4.21544 0
M  V30 8226 H 766.562 0.344521 0.651517 0
M  V30 8227 H 769.204 1.43545 1.24478 0
M  V30 8228 H 767.354 1.15337 3.70985 0
M  V30 8229 H 769.026 3.62042 2.85873 0
M  V30 8230 H 767.269 3.44716 2.6335 0
M  V30 8231 H 767.94 3.50269 4.26633 0
M  V30 8232 H 770.416 1.62581 3.83023 0
M  V30 8233 H 769.292 1.72885 5.20963 0
M  V30 8234 H 769.553 0.183068 4.41721 0
M  V30 8235 N 768.612 -1.24939 0.960631 0
M  V30 8236 C 769.559 -2.25658 0.484459 0
M  V30 8237 C 770.529 -1.59422 -0.466242 0
M  V30 8238 O 771.714 -1.87015 -0.378169 0
M  V30 8239 C 768.854 -3.44359 -0.225958 0
M  V30 8240 C 767.967 -4.25214 0.762682 0
M  V30 8241 C 767.102 -5.31192 0.0290931 0
M  V30 8242 C 766.141 -6.03739 1.00827 0
M  V30 8243 N 765.278 -7.01437 0.305155 0
M  V30 8244 H 770.118 -2.65758 1.34821 0
M  V30 8245 H 767.655 -1.30648 0.675983 0
M  V30 8246 H 769.613 -4.12035 -0.654472 0
M  V30 8247 H 768.243 -3.05118 -1.05371 0
M  V30 8248 H 767.295 -3.57144 1.30966 0
M  V30 8249 H 768.607 -4.75406 1.50964 0
M  V30 8250 H 767.761 -6.04971 -0.457763 0
M  V30 8251 H 766.5 -4.81889 -0.750614 0
M  V30 8252 H 765.505 -5.2877 1.50607 0
M  V30 8253 H 766.73 -6.55131 1.7883 0
M  V30 8254 H 764.676 -6.54415 -0.455704 0
M  V30 8255 H 764.593 -7.49475 0.991104 0
M  V30 8256 H 765.861 -7.79336 -0.159966 0
M  V30 8257 N 770.09 -0.729906 -1.39679 0
M  V30 8258 C 771.037 -0.0866063 -2.30637 0
M  V30 8259 C 772.007 0.735115 -1.48947 0
M  V30 8260 O 773.192 0.696125 -1.77648 0
M  V30 8261 C 770.332 0.818524 -3.35252 0
M  V30 8262 C 769.445 -0.0152635 -4.31997 0
M  V30 8263 C 768.58 0.890669 -5.2368 0
M  V30 8264 C 767.619 0.0518246 -6.12078 0
M  V30 8265 N 766.756 0.913411 -6.96133 0
M  V30 8266 H 771.596 -0.867925 -2.85081 0
M  V30 8267 H 769.133 -0.439673 -1.40376 0
M  V30 8268 H 771.091 1.3577 -3.9449 0
M  V30 8269 H 769.721 1.56587 -2.82277 0
M  V30 8270 H 768.773 -0.671794 -3.74421 0
M  V30 8271 H 770.085 -0.664086 -4.9436 0
M  V30 8272 H 769.239 1.49787 -5.87919 0
M  V30 8273 H 767.978 1.57328 -4.61627 0
M  V30 8274 H 766.983 -0.568209 -5.46856 0
M  V30 8275 H 768.208 -0.627497 -6.76195 0
M  V30 8276 H 766.154 1.58141 -6.36653 0
M  V30 8277 H 766.071 0.320952 -7.55318 0
M  V30 8278 H 767.339 1.50633 -7.64807 0
M  V30 8279 N 771.568 1.50203 -0.477153 0
M  V30 8280 C 772.796 2.0677 0.0732489 0
M  V30 8281 C 773.211 1.34033 1.32968 0
M  V30 8282 O 772.568 0.411412 1.77802 0
M  V30 8283 C 772.619 3.59751 0.35518 0
M  V30 8284 O 772.34 4.29747 -0.851425 0
M  V30 8285 C 773.841 4.3296 0.951877 0
M  V30 8286 H 771.061 0.670929 -0.00978923 0
M  V30 8287 H 773.605 1.93293 -0.667676 0
M  V30 8288 H 771.76 3.7301 1.04605 0
M  V30 8289 H 772.174 5.2106 -0.599708 0
M  V30 8290 H 773.648 5.40952 1.09888 0
M  V30 8291 H 774.125 3.93856 1.94356 0
M  V30 8292 H 774.731 4.24246 0.299208 0
M  V30 8293 N 773.046 0.209999 1.56195 0
M  V30 8294 C 773.976 -0.699746 2.22769 0
M  V30 8295 C 774.957 -1.20993 1.1956 0
M  V30 8296 O 776.142 -1.25605 1.48112 0
M  V30 8297 C 773.272 -1.91302 2.89863 0
M  V30 8298 C 772.226 -1.53715 3.99444 0
M  V30 8299 C 771.552 -2.82826 4.53777 0
M  V30 8300 C 772.852 -0.735836 5.17091 0
M  V30 8301 H 774.546 -0.144716 2.9905 0
M  V30 8302 H 772.092 -0.0681645 1.43839 0
M  V30 8303 H 774.045 -2.5548 3.35124 0
M  V30 8304 H 772.769 -2.49283 2.11011 0
M  V30 8305 H 771.428 -0.918892 3.54897 0
M  V30 8306 H 771.076 -3.38927 3.71669 0
M  V30 8307 H 770.776 -2.58415 5.27727 0
M  V30 8308 H 772.3 -3.47966 5.01749 0
M  V30 8309 H 773.714 -1.28105 5.58804 0
M  V30 8310 H 772.111 -0.589272 5.972 0
M  V30 8311 H 773.181 0.260004 4.84202 0
M  V30 8312 N 774.524 -1.57472 -0.0634922 0
M  V30 8313 C 775.472 -2.05307 -1.09323 0
M  V30 8314 C 776.466 -0.959995 -1.39572 0
M  V30 8315 O 777.672 -1.14507 -1.38882 0
M  V30 8316 H 774.047 -0.65472 -0.369927 0
M  V30 8317 H 776.018 -2.90925 -0.663707 0
M  V30 8318 C 774.767 -2.51954 -2.39613 0
M  V30 8319 H 774.09 -3.35662 -2.1719 0
M  V30 8320 H 775.53 -2.89169 -3.10092 0
M  V30 8321 C 773.989 -1.40596 -3.06161 0
M  V30 8322 O 774.519 -0.752722 -3.94585 0
M  V30 8323 N 772.725 -1.14902 -2.66919 0
M  V30 8324 H 772.272 -1.68205 -1.95102 0
M  V30 8325 H 772.23 -0.406006 -3.11767 0
M  V30 8326 N 776.003 0.335068 -1.53997 0
M  V30 8327 C 777.419 0.678704 -1.4445 0
M  V30 8328 C 777.619 1.92106 -0.608078 0
M  V30 8329 O 776.675 2.52292 -0.102373 0
M  V30 8330 C 777.988 0.863435 -2.88037 0
M  V30 8331 C 779.536 0.961513 -2.97866 0
M  V30 8332 C 780.011 1.1785 -4.42578 0
M  V30 8333 N 781.502 1.2455 -4.46141 0
M  V30 8334 C 782.237 1.43106 -5.55255 0
M  V30 8335 N 781.733 1.5878 -6.74359 0
M  V30 8336 N 783.526 1.45722 -5.42883 0
M  V30 8337 H 775.677 -0.481656 -2.06867 0
M  V30 8338 H 777.94 -0.153615 -0.935471 0
M  V30 8339 H 777.646 0.0219511 -3.51693 0
M  V30 8340 H 777.52 1.76268 -3.33481 0
M  V30 8341 H 779.907 1.79351 -2.34344 0
M  V30 8342 H 779.988 0.0389862 -2.5577 0
M  V30 8343 H 779.632 0.351397 -5.06683 0
M  V30 8344 H 779.562 2.11472 -4.82273 0
M  V30 8345 H 782.053 1.13928 -3.60318 0
M  V30 8346 H 782.366 1.72599 -7.53279 0
M  V30 8347 H 780.711 1.559 -6.77289 0
M  V30 8348 H 783.902 1.33065 -4.48789 0
M  V30 8349 H 784.075 1.59841 -6.27977 0
M  V30 8350 N 777.481 1.45874 0.596531 0
M  V30 8351 C 778.73 1.49737 1.35135 0
M  V30 8352 C 779.043 0.147755 1.95041 0
M  V30 8353 O 780.249 0.0640984 2.71424 0
M  V30 8354 C 778.705 2.6378 2.44843 0
M  V30 8355 C 778.313 4.05102 1.91301 0
M  V30 8356 C 780.057 2.769 3.21755 0
M  V30 8357 C 777.964 5.10508 2.98557 0
M  V30 8358 H 776.894 0.557219 0.507959 0
M  V30 8359 H 779.545 1.72046 0.638147 0
M  V30 8360 H 777.927 2.34774 3.189 0
M  V30 8361 H 779.101 4.43836 1.2388 0
M  V30 8362 H 777.416 3.96528 1.271 0
M  V30 8363 H 780.013 3.52819 4.01775 0
M  V30 8364 H 780.356 1.83924 3.73467 0
M  V30 8365 H 780.889 3.05485 2.54802 0
M  V30 8366 H 777.628 6.0523 2.51749 0
M  V30 8367 H 777.148 4.76332 3.6451 0
M  V30 8368 H 778.827 5.35745 3.62748 0
M  V30 8369 N 778.959 -0.83999 1.33349 0
M  V30 8370 C 780.189 -1.62492 1.27593 0
M  V30 8371 C 780.597 -1.88559 -0.155597 0
M  V30 8372 O 779.94 -1.46537 -1.10782 0
M  V30 8373 C 780.002 -2.99984 1.98116 0
M  V30 8374 C 779.666 -2.96892 3.47425 0
M  V30 8375 C 780.663 -2.72688 4.42648 0
M  V30 8376 C 778.348 -3.17063 3.89585 0
M  V30 8377 C 780.342 -2.68681 5.78004 0
M  V30 8378 C 778.029 -3.12682 5.25046 0
M  V30 8379 C 779.027 -2.88522 6.19067 0
M  V30 8380 O 778.715 -2.84042 7.52047 0
M  V30 8381 H 778.447 -0.512358 0.440982 0
M  V30 8382 H 781.001 -1.0545 1.76265 0
M  V30 8383 H 779.231 -3.58875 1.44034 0
M  V30 8384 H 780.92 -3.6084 1.85875 0
M  V30 8385 H 781.686 -2.56856 4.114 0
M  V30 8386 H 777.565 -3.34889 3.16813 0
M  V30 8387 H 781.109 -2.49743 6.51363 0
M  V30 8388 H 777.006 -3.28063 5.55918 0
M  V30 8389 H 777.774 -2.99892 7.61582 0
M  V30 8390 N 780.437 -1.16799 -1.0581 0
M  V30 8391 C 781.387 -0.847231 -2.11674 0
M  V30 8392 C 782.371 0.175476 -1.5994 0
M  V30 8393 O 783.563 -0.0260602 -1.76981 0
M  V30 8394 C 780.692 -0.355446 -3.41455 0
M  V30 8395 C 779.778 -1.40922 -4.00002 0
M  V30 8396 N 780.169 -2.62096 -4.32596 0
M  V30 8397 C 778.467 -1.26562 -4.27666 0
M  V30 8398 C 779.168 -3.29759 -4.79201 0
M  V30 8399 N 778.144 -2.57138 -4.78938 0
M  V30 8400 H 781.946 -1.76862 -2.34727 0
M  V30 8401 H 779.46 -1.05577 -1.23399 0
M  V30 8402 H 781.457 -0.107231 -4.16762 0
M  V30 8403 H 780.117 0.559817 -3.19838 0
M  V30 8404 H 781.128 -2.99113 -4.22791 0
M  V30 8405 H 777.805 -0.411503 -4.15467 0
M  V30 8406 H 779.195 -4.33222 -5.13584 0
M  V30 8407 N 781.915 1.24427 -0.967243 0
M  V30 8408 C 782.847 2.24641 -0.454856 0
M  V30 8409 C 783.86 1.56849 0.436152 0
M  V30 8410 O 785.049 1.76846 0.242401 0
M  V30 8411 C 782.149 3.36954 0.362672 0
M  V30 8412 C 781.322 4.34318 -0.518324 0
M  V30 8413 C 780.381 5.25638 0.243122 0
M  V30 8414 O 779.407 5.68043 -0.362791 0
M  V30 8415 N 780.609 5.59897 1.53282 0
M  V30 8416 H 783.374 2.69238 -1.31648 0
M  V30 8417 H 780.935 1.38464 -0.839015 0
M  V30 8418 H 782.927 3.95014 0.880094 0
M  V30 8419 H 781.497 2.91646 1.12522 0
M  V30 8420 H 780.717 3.74953 -1.21672 0
M  V30 8421 H 782.005 4.96338 -1.11919 0
M  V30 8422 H 781.403 5.27373 2.04682 0
M  V30 8423 H 779.96 6.20488 1.99594 0
M  V30 8424 N 783.393 0.737304 1.3929 0
M  V30 8425 C 784.341 0.0879867 2.32434 0
M  V30 8426 C 785.335 -0.723324 1.53181 0
M  V30 8427 O 786.541 -0.624251 1.68829 0
M  V30 8428 H 782.916 0.00965277 0.751938 0
M  V30 8429 H 784.887 0.889915 2.84821 0
M  V30 8430 C 783.636 -0.803384 3.38291 0
M  V30 8431 H 782.959 -0.18849 3.99355 0
M  V30 8432 H 784.399 -1.22528 4.0591 0
M  V30 8433 C 782.858 -1.93872 2.75527 0
M  V30 8434 O 783.388 -3.03154 2.63553 0
M  V30 8435 N 781.594 -1.72883 2.3358 0
M  V30 8436 H 781.141 -0.840005 2.43519 0
M  V30 8437 H 781.099 -2.49021 1.91927 0
M  V30 8438 N 784.871 -1.49948 0.485112 0
M  V30 8439 C 786.287 -1.58984 0.140096 0
M  V30 8440 C 786.487 -1.49194 -1.35438 0
M  V30 8441 O 785.543 -1.35765 -2.12894 0
M  V30 8442 C 786.856 -2.92372 0.702769 0
M  V30 8443 C 788.404 -3.05801 0.66745 0
M  V30 8444 C 788.879 -4.41785 1.20791 0
M  V30 8445 N 790.37 -4.48234 1.16792 0
M  V30 8446 C 791.105 -5.51871 1.55646 0
M  V30 8447 N 790.601 -6.62692 2.02016 0
M  V30 8448 N 792.394 -5.42494 1.47161 0
M  V30 8449 H 784.545 -1.54555 1.45693 0
M  V30 8450 H 786.808 -0.731206 0.603359 0
M  V30 8451 H 786.514 -3.05056 1.75025 0
M  V30 8452 H 786.388 -3.76885 0.154205 0
M  V30 8453 H 788.775 -2.92757 -0.371157 0
M  V30 8454 H 788.856 -2.23011 1.25298 0
M  V30 8455 H 788.5 -4.55579 2.24522 0
M  V30 8456 H 788.43 -5.23188 0.598464 0
M  V30 8457 H 790.921 -3.68718 0.827982 0
M  V30 8458 H 791.234 -7.3785 2.29775 0
M  V30 8459 H 789.579 -6.63775 2.05979 0
M  V30 8460 H 792.77 -4.54806 1.10765 0
M  V30 8461 H 792.943 -6.2314 1.77766 0
M  V30 8462 N 786.349 -0.21828 -1.56081 0
M  V30 8463 C 787.296 0.693189 -2.20144 0
M  V30 8464 C 788.266 1.19274 -1.15598 0
M  V30 8465 O 789.451 1.25243 -1.4394 0
M  V30 8466 C 786.591 1.89715 -2.88275 0
M  V30 8467 C 785.704 1.4368 -4.07407 0
M  V30 8468 C 784.839 2.59807 -4.63329 0
M  V30 8469 C 783.878 2.10492 -5.74769 0
M  V30 8470 N 783.015 3.1988 -6.24997 0
M  V30 8471 H 787.855 0.14016 -2.9767 0
M  V30 8472 H 785.392 0.0574292 -1.46988 0
M  V30 8473 H 787.35 2.60398 -3.25958 0
M  V30 8474 H 785.98 2.42311 -2.13273 0
M  V30 8475 H 785.032 0.625007 -3.7523 0
M  V30 8476 H 786.344 1.03517 -4.8794 0
M  V30 8477 H 785.498 3.38577 -5.03438 0
M  V30 8478 H 784.237 3.03256 -3.81951 0
M  V30 8479 H 783.242 1.30182 -5.34165 0
M  V30 8480 H 784.467 1.68045 -6.5798 0
M  V30 8481 H 782.413 3.62817 -5.46534 0
M  V30 8482 H 782.33 2.83958 -7.00645 0
M  V30 8483 H 783.598 3.98796 -6.69763 0
M  V30 8484 N 787.827 1.57504 0.0551401 0
M  V30 8485 C 789.073 1.88334 0.752216 0
M  V30 8486 C 789.406 0.812742 1.76375 0
M  V30 8487 O 788.681 -0.175198 1.93709 0
M  V30 8488 C 788.964 3.29824 1.44528 0
M  V30 8489 C 788.817 4.47553 0.449026 0
M  V30 8490 C 790.136 3.69808 2.38601 0
M  V30 8491 H 787.255 0.684973 0.271995 0
M  V30 8492 H 789.897 1.89994 0.0151895 0
M  V30 8493 H 788.047 3.28539 2.07351 0
M  V30 8494 H 789.719 4.60967 -0.175277 0
M  V30 8495 H 787.962 4.33168 -0.234162 0
M  V30 8496 H 788.633 5.43376 0.971917 0
M  V30 8497 H 791.109 3.72293 1.85842 0
M  V30 8498 H 789.985 4.69665 2.84088 0
M  V30 8499 H 790.246 3.00641 3.24141 0
M  V30 8500 N 789.305 -0.326896 1.54172 0
M  V30 8501 C 790.255 -1.40319 1.79707 0
M  V30 8502 C 791.239 -1.47056 0.652938 0
M  V30 8503 O 792.431 -1.51645 0.91284 0
M  V30 8504 C 789.56 -2.77222 2.02491 0
M  V30 8505 C 788.646 -2.74811 3.23016 0
M  V30 8506 N 789.037 -2.42022 4.44138 0
M  V30 8507 C 787.335 -3.05943 3.24522 0
M  V30 8508 C 788.036 -2.48263 5.26061 0
M  V30 8509 N 787.012 -2.84567 4.63166 0
M  V30 8510 H 790.814 -1.13892 2.70935 0
M  V30 8511 H 788.328 -0.53536 1.53322 0
M  V30 8512 H 790.325 -3.54793 2.18923 0
M  V30 8513 H 788.985 -3.04582 1.12515 0
M  V30 8514 H 789.996 -2.14926 4.71197 0
M  V30 8515 H 786.673 -3.38367 2.44569 0
M  V30 8516 H 788.063 -2.2593 6.32776 0
M  V30 8517 N 790.784 -1.46188 -0.588786 0
M  V30 8518 C 791.694 -1.58865 -1.72624 0
M  V30 8519 C 792.71 -0.472348 -1.67466 0
M  V30 8520 O 793.886 -0.735638 -1.87484 0
M  V30 8521 C 790.951 -1.56989 -3.0912 0
M  V30 8522 C 790.012 -2.79804 -3.25589 0
M  V30 8523 C 789.245 -2.78009 -4.55573 0
M  V30 8524 O 789.468 -1.86406 -5.39082 0
M  V30 8525 O 788.402 -3.6947 -4.75159 0
M  V30 8526 H 792.228 -2.55047 -1.64878 0
M  V30 8527 H 789.813 -1.28912 -0.755115 0
M  V30 8528 H 791.695 -1.58618 -3.90408 0
M  V30 8529 H 790.37 -0.639648 -3.17317 0
M  V30 8530 H 789.277 -2.83732 -2.43818 0
M  V30 8531 H 790.61 -3.72017 -3.22279 0
M  V30 8532 N 792.262 0.832906 -1.33792 0
M  V30 8533 C 793.209 1.94314 -1.24541 0
M  V30 8534 C 794.179 1.65646 -0.122753 0
M  V30 8535 O 795.364 1.88394 -0.30204 0
M  V30 8536 C 792.504 3.30395 -0.996641 0
M  V30 8537 C 791.617 3.71422 -2.20612 0
M  V30 8538 C 790.752 4.96401 -1.89101 0
M  V30 8539 C 789.791 5.2998 -3.06247 0
M  V30 8540 N 788.928 6.46137 -2.74685 0
M  V30 8541 H 793.768 2.01559 -2.19495 0
M  V30 8542 H 791.305 0.986243 -1.09141 0
M  V30 8543 H 793.263 4.08803 -0.832817 0
M  V30 8544 H 791.893 3.22691 -0.0838242 0
M  V30 8545 H 790.945 2.88488 -2.47949 0
M  V30 8546 H 792.257 3.92215 -3.0817 0
M  V30 8547 H 791.411 5.82572 -1.69396 0
M  V30 8548 H 790.15 4.7759 -0.987882 0
M  V30 8549 H 789.155 4.42312 -3.26559 0
M  V30 8550 H 790.38 5.50737 -3.97323 0
M  V30 8551 H 788.326 6.28801 -1.86938 0
M  V30 8552 H 788.243 6.67054 -3.55774 0
M  V30 8553 H 789.511 7.35403 -2.58461 0
M  V30 8554 N 793.74 1.17359 1.05189 0
M  V30 8555 C 794.968 0.986529 1.81866 0
M  V30 8556 C 795.383 -0.46522 1.82979 0
M  V30 8557 O 794.74 -1.32305 1.25705 0
M  V30 8558 C 794.791 1.52021 3.27982 0
M  V30 8559 O 794.512 2.91511 3.27037 0
M  V30 8560 C 796.013 1.37774 4.21347 0
M  V30 8561 H 793.233 0.349021 0.573084 0
M  V30 8562 H 795.777 1.55648 1.32643 0
M  V30 8563 H 793.932 0.992287 3.74476 0
M  V30 8564 H 794.346 3.16178 4.18488 0
M  V30 8565 H 795.82 1.7993 5.21852 0
M  V30 8566 H 796.297 0.32483 4.37997 0
M  V30 8567 H 796.903 1.89583 3.80708 0
M  V30 8568 N 795.218 -1.23913 0.973828 0
M  V30 8569 C 796.464 -1.92436 0.640026 0
M  V30 8570 C 796.797 -1.75875 -0.823512 0
M  V30 8571 O 796.072 -1.11563 -1.59323 0
M  V30 8572 C 796.355 -3.4526 1.0231 0
M  V30 8573 C 796.208 -3.70961 2.54378 0
M  V30 8574 C 797.527 -4.36495 0.562155 0
M  V30 8575 H 794.646 -0.698868 0.233992 0
M  V30 8576 H 797.288 -1.46163 1.21393 0
M  V30 8577 H 795.438 -3.84802 0.534751 0
M  V30 8578 H 797.11 -3.40941 3.10737 0
M  V30 8579 H 795.353 -3.15899 2.97305 0
M  V30 8580 H 796.024 -4.77912 2.76232 0
M  V30 8581 H 798.5 -4.04363 0.981333 0
M  V30 8582 H 797.376 -5.42142 0.858689 0
M  V30 8583 H 797.637 -4.38818 -0.537659 0
M  V30 8584 N 796.696 -0.74468 -1.38897 0
M  V30 8585 C 798.112 -0.421302 -1.53939 0
M  V30 8586 C 798.312 1.06668 -1.70951 0
M  V30 8587 O 797.368 1.85278 -1.71547 0
M  V30 8588 C 798.681 -1.21278 -2.75159 0
M  V30 8589 C 800.229 -1.20196 -2.89001 0
M  V30 8590 C 800.704 -1.97621 -4.13171 0
M  V30 8591 N 802.195 -1.94836 -4.2023 0
M  V30 8592 C 802.93 -2.51545 -5.15279 0
M  V30 8593 N 802.426 -3.1693 -6.16058 0
M  V30 8594 N 804.219 -2.41524 -5.07565 0
M  V30 8595 H 796.37 -1.70914 -1.26103 0
M  V30 8596 H 798.633 -0.724058 -0.611919 0
M  V30 8597 H 798.339 -2.26609 -2.68963 0
M  V30 8598 H 798.213 -0.823677 -3.68097 0
M  V30 8599 H 800.6 -0.156742 -2.94683 0
M  V30 8600 H 800.681 -1.63051 -1.97099 0
M  V30 8601 H 800.325 -3.02149 -4.0825 0
M  V30 8602 H 800.255 -1.52166 -5.04136 0
M  V30 8603 H 802.746 -1.4721 -3.48048 0
M  V30 8604 H 803.059 -3.57644 -6.85062 0
M  V30 8605 H 801.404 -3.21023 -6.16417 0
M  V30 8606 H 804.595 -1.90077 -4.27771 0
M  V30 8607 H 804.768 -2.86016 -5.81462 0
M  V30 8608 N 798.174 1.49689 -0.493057 0
M  V30 8609 C 799.402 2.06836 0.0513141 0
M  V30 8610 C 799.817 1.35436 1.31539 0
M  V30 8611 O 799.174 0.430248 1.77356 0
M  V30 8612 C 799.225 3.60107 0.317003 0
M  V30 8613 O 798.946 4.2882 -0.896957 0
M  V30 8614 C 800.447 4.33945 0.905902 0
M  V30 8615 H 797.667 0.670787 -0.0169048 0
M  V30 8616 H 800.211 1.92574 -0.688139 0
M  V30 8617 H 798.366 3.74099 1.00642 0
M  V30 8618 H 798.78 5.20395 -0.654939 0
M  V30 8619 H 800.254 5.42087 1.04144 0
M  V30 8620 H 800.731 3.95895 1.90168 0
M  V30 8621 H 801.337 4.2454 0.254195 0
M  V30 8622 N 799.652 0.226554 1.55963 0
M  V30 8623 C 800.615 -0.668015 2.19249 0
M  V30 8624 C 801.615 -1.11794 1.1558 0
M  V30 8625 O 802.805 -1.02593 1.40784 0
M  V30 8626 C 799.937 -1.91571 2.81981 0
M  V30 8627 H 801.13 -0.116175 2.99675 0
M  V30 8628 H 798.683 -0.0230497 1.56283 0
M  V30 8629 H 799.418 -2.50929 2.05439 0
M  V30 8630 H 799.203 -1.6015 3.57903 0
M  V30 8631 H 800.693 -2.55294 3.30477 0
M  V30 8632 N 801.13 -1.57531 -0.0467866 0
M  V30 8633 C 802.093 -2.04379 -1.03738 0
M  V30 8634 C 803.093 -0.944881 -1.3011 0
M  V30 8635 O 804.283 -1.20904 -1.25411 0
M  V30 8636 C 801.415 -2.44572 -2.37482 0
M  V30 8637 H 802.608 -2.93142 -0.633063 0
M  V30 8638 H 800.161 -1.53526 -0.293177 0
M  V30 8639 H 800.896 -1.58911 -2.82697 0
M  V30 8640 H 800.681 -3.24785 -2.19675 0
M  V30 8641 H 802.171 -2.81307 -3.08636 0
M  V30 8642 N 802.608 0.318715 -1.54344 0
M  V30 8643 C 803.571 1.37545 -1.83342 0
M  V30 8644 C 804.571 1.445 -0.705444 0
M  V30 8645 O 805.761 1.44443 -0.973752 0
M  V30 8646 C 802.893 2.76225 -1.99781 0
M  V30 8647 H 804.086 1.13084 -2.77762 0
M  V30 8648 H 801.639 0.554457 -1.46135 0
M  V30 8649 H 802.374 3.05934 -1.07588 0
M  V30 8650 H 802.159 2.7257 -2.81865 0
M  V30 8651 H 803.649 3.52664 -2.23647 0
M  V30 8652 N 804.086 1.46499 0.581025 0
M  V30 8653 C 805.049 1.5677 1.672 0
M  V30 8654 C 806.049 0.444716 1.54528 0
M  V30 8655 O 807.239 0.709074 1.59116 0
M  V30 8656 C 804.371 1.4896 3.06633 0
M  V30 8657 H 805.564 2.54 1.5945 0
M  V30 8658 H 803.117 1.34334 0.799003 0
M  V30 8659 H 803.852 0.530168 3.19937 0
M  V30 8660 H 803.637 2.30439 3.17239 0
M  V30 8661 H 805.127 1.59237 3.86048 0
M  V30 8662 N 805.565 -0.825799 1.34232 0
M  V30 8663 C 806.814 -1.57686 1.2577 0
M  V30 8664 C 807.127 -1.94848 -0.171372 0
M  V30 8665 O 808.333 -2.68854 -0.378123 0
M  V30 8666 C 806.789 -2.84478 2.20454 0
M  V30 8667 C 806.397 -2.54629 3.68603 0
M  V30 8668 C 808.141 -3.625 2.20893 0
M  V30 8669 C 806.048 -3.77597 4.55164 0
M  V30 8670 H 804.978 -0.591809 0.467203 0
M  V30 8671 H 807.629 -0.909421 1.59379 0
M  V30 8672 H 806.011 -3.52832 1.79793 0
M  V30 8673 H 807.185 -1.94404 4.17784 0
M  V30 8674 H 805.5 -1.89888 3.70582 0
M  V30 8675 H 808.097 -4.538 2.82789 0
M  V30 8676 H 808.44 -3.98404 1.20746 0
M  V30 8677 H 808.973 -3.01086 2.59985 0
M  V30 8678 H 805.712 -3.46815 5.56237 0
M  V30 8679 H 805.232 -4.37116 4.10719 0
M  V30 8680 H 806.911 -4.45039 4.69627 0
M  V30 8681 N 807.043 -1.17915 -1.04565 0
M  V30 8682 C 808.292 -0.965816 -1.77073 0
M  V30 8683 C 808.605 0.506005 -1.88942 0
M  V30 8684 O 809.811 0.837717 -2.58253 0
M  V30 8685 C 808.267 -1.67894 -3.18339 0
M  V30 8686 C 807.875 -3.18972 -3.1458 0
M  V30 8687 C 809.619 -1.54823 -3.9526 0
M  V30 8688 C 807.526 -3.82946 -4.50674 0
M  V30 8689 H 806.456 -0.357729 -0.663736 0
M  V30 8690 H 809.107 -1.41235 -1.17153 0
M  V30 8691 H 807.489 -1.16016 -3.78624 0
M  V30 8692 H 808.663 -3.77835 -2.63776 0
M  V30 8693 H 806.978 -3.32127 -2.51159 0
M  V30 8694 H 809.575 -1.99984 -4.95894 0
M  V30 8695 H 809.918 -0.499727 -4.1329 0
M  V30 8696 H 810.451 -2.03953 -3.41538 0
M  V30 8697 H 807.19 -4.8782 -4.37849 0
M  V30 8698 H 806.71 -3.2887 -5.01602 0
M  V30 8699 H 808.389 -3.85518 -5.196 0
M  V30 8700 N 808.521 1.23394 -0.980386 0
M  V30 8701 C 809.451 2.2717 -0.540024 0
M  V30 8702 C 810.432 1.64659 0.426787 0
M  V30 8703 O 811.617 1.91543 0.320153 0
M  V30 8704 C 808.747 3.46939 0.15836 0
M  V30 8705 C 807.701 4.21802 -0.725732 0
M  V30 8706 C 807.027 5.34597 0.104866 0
M  V30 8707 C 808.327 4.81802 -2.01654 0
M  V30 8708 H 810.021 2.64257 -1.40743 0
M  V30 8709 H 807.567 1.2703 -0.678193 0
M  V30 8710 H 809.52 4.18683 0.477737 0
M  V30 8711 H 808.244 3.08912 1.06022 0
M  V30 8712 H 806.903 3.51875 -1.02857 0
M  V30 8713 H 806.551 4.92812 1.00726 0
M  V30 8714 H 806.251 5.85607 -0.483557 0
M  V30 8715 H 807.775 6.09163 0.418624 0
M  V30 8716 H 809.189 5.45554 -1.76193 0
M  V30 8717 H 807.586 5.43098 -2.55273 0
M  V30 8718 H 808.656 4.02549 -2.70338 0
M  V30 8719 N 809.999 0.752036 1.385 0
M  V30 8720 C 810.947 0.112634 2.32327 0
M  V30 8721 C 811.941 -0.707037 1.53939 0
M  V30 8722 O 813.147 -0.606309 1.69481 0
M  V30 8723 H 809.522 0.0176275 0.751793 0
M  V30 8724 H 811.493 0.920074 2.83861 0
M  V30 8725 C 810.242 -0.767458 3.39124 0
M  V30 8726 H 809.565 -0.146122 3.99533 0
M  V30 8727 H 811.005 -1.18216 4.07187 0
M  V30 8728 C 809.464 -1.90938 2.77568 0
M  V30 8729 O 809.994 -3.00342 2.66754 0
M  V30 8730 N 808.2 -1.70396 2.35401 0
M  V30 8731 H 807.747 -0.81413 2.44397 0
M  V30 8732 H 807.705 -2.46972 1.94557 0
M  V30 8733 N 811.477 -1.49425 0.500989 0
M  V30 8734 C 812.425 -2.30771 -0.291149 0
M  V30 8735 C 813.419 -1.3938 -0.962787 0
M  V30 8736 O 814.625 -1.56431 -0.890477 0
M  V30 8737 H 811 -0.743499 -0.11275 0
M  V30 8738 H 812.971 -2.95501 0.414917 0
M  V30 8739 C 811.72 -3.20725 -1.34279 0
M  V30 8740 H 811.043 -3.90975 -0.83538 0
M  V30 8741 H 812.483 -3.80583 -1.86903 0
M  V30 8742 C 810.942 -2.40334 -2.36095 0
M  V30 8743 O 811.472 -2.10749 -3.41976 0
M  V30 8744 N 809.678 -2.02359 -2.08565 0
M  V30 8745 H 809.225 -2.26619 -1.22482 0
M  V30 8746 H 809.183 -1.48878 -2.76916 0
M  V30 8747 N 812.955 -0.234822 -1.55841 0
M  V30 8748 C 813.903 0.686145 -2.22249 0
M  V30 8749 C 814.897 1.18948 -1.20614 0
M  V30 8750 O 816.103 1.14777 -1.38659 0
M  V30 8751 H 812.478 0.239724 -0.712767 0
M  V30 8752 H 814.449 0.102762 -2.98223 0
M  V30 8753 C 813.198 1.8776 -2.92646 0
M  V30 8754 H 812.521 1.49943 -3.70617 0
M  V30 8755 H 813.961 2.4995 -3.42493 0
M  V30 8756 C 812.42 2.74127 -1.95847 0
M  V30 8757 O 812.95 3.7329 -1.48384 0
M  V30 8758 N 811.156 2.4044 -1.63209 0
M  V30 8759 H 810.703 1.59854 -2.02001 0
M  V30 8760 H 810.661 2.98504 -0.987063 0
M  V30 8761 N 814.433 1.57553 0.0384317 0
M  V30 8762 C 815.844 1.77258 0.586211 0
M  V30 8763 C 816.195 0.864706 1.76117 0
M  V30 8764 O 815.32 0.057141 2.16325 0
M  V30 8765 C 815.915 3.21453 1.07021 0
M  V30 8766 C 814.474 3.42387 1.56358 0
M  V30 8767 C 813.621 2.72801 0.497508 0
M  V30 8768 H 816.572 1.57585 -0.187796 0
M  V30 8769 H 816.593 3.27451 1.93794 0
M  V30 8770 H 816.105 3.87505 0.214851 0
M  V30 8771 H 814.206 2.81497 2.44111 0
M  V30 8772 H 814.319 4.50968 1.61754 0
M  V30 8773 H 812.683 2.36305 0.95038 0
M  V30 8774 H 813.466 3.41529 -0.348234 0
M  V30 8775 N 815.911 -0.310526 1.54511 0
M  V30 8776 C 817.136 -1.07046 1.7764 0
M  V30 8777 C 817.561 -1.80488 0.529696 0
M  V30 8778 O 816.919 -1.73702 -0.519361 0
M  V30 8779 C 816.967 -2.03411 2.97752 0
M  V30 8780 O 816.071 -3.11545 2.7021 0
M  V30 8781 H 815.412 -0.307994 0.588248 0
M  V30 8782 H 817.942 -0.350848 2.01569 0
M  V30 8783 H 817.952 -2.46048 3.2546 0
M  V30 8784 H 816.627 -1.49361 3.88155 0
M  V30 8785 H 815.204 -2.7349 2.53491 0
M  V30 8786 N 817.389 -1.46805 -0.573248 0
M  V30 8787 C 818.619 -1.55965 -1.35494 0
M  V30 8788 C 819.027 -0.203038 -1.88107 0
M  V30 8789 O 818.37 0.81138 -1.6481 0
M  V30 8790 C 818.432 -2.51168 -2.57206 0
M  V30 8791 C 818.096 -3.97211 -2.25993 0
M  V30 8792 C 819.093 -4.86155 -1.84254 0
M  V30 8793 C 816.778 -4.42419 -2.37846 0
M  V30 8794 C 818.772 -6.18323 -1.54776 0
M  V30 8795 C 816.459 -5.74619 -2.0798 0
M  V30 8796 C 817.457 -6.62392 -1.66511 0
M  V30 8797 O 817.145 -7.92137 -1.37016 0
M  V30 8798 H 816.877 -0.529748 -0.419932 0
M  V30 8799 H 819.431 -1.92998 -0.702914 0
M  V30 8800 H 817.661 -2.09171 -3.25245 0
M  V30 8801 H 819.35 -2.50631 -3.19279 0
M  V30 8802 H 820.116 -4.52481 -1.74603 0
M  V30 8803 H 815.995 -3.74319 -2.69085 0
M  V30 8804 H 819.539 -6.8679 -1.22334 0
M  V30 8805 H 815.436 -6.0784 -2.17258 0
M  V30 8806 H 816.204 -8.04492 -1.50782 0
M  V30 8807 N 818.867 0.818669 -1.34668 0
M  V30 8808 C 819.8 1.93516 -1.20941 0
M  V30 8809 C 820.778 1.62292 -0.100061 0
M  V30 8810 O 821.962 1.86614 -0.265983 0
M  V30 8811 C 819.089 3.27612 -0.859524 0
M  V30 8812 C 818.135 3.77794 -1.97923 0
M  V30 8813 S 818.968 3.97043 -3.59329 0
M  V30 8814 C 820.124 5.3406 -3.2639 0
M  V30 8815 H 820.357 2.04864 -2.15449 0
M  V30 8816 H 817.89 0.974716 -1.19744 0
M  V30 8817 H 819.848 4.05087 -0.664444 0
M  V30 8818 H 818.509 3.14028 0.0672835 0
M  V30 8819 H 817.702 4.74883 -1.68827 0
M  V30 8820 H 817.304 3.0728 -2.13202 0
M  V30 8821 H 819.596 6.17626 -2.78469 0
M  V30 8822 H 820.539 5.68143 -4.22634 0
M  V30 8823 H 820.947 4.99773 -2.62464 0
M  V30 8824 N 820.346 1.18468 1.03938 0
M  V30 8825 C 821.623 0.890435 1.74157 0
M  V30 8826 C 822.003 -0.606409 2.02203 0
M  V30 8827 O 821.351 -1.5615 1.66822 0
M  V30 8828 C 821.561 1.73906 3.02585 0
M  V30 8829 C 822.909 1.96686 3.76297 0
M  V30 8830 O 823.933 1.70969 3.12487 0
M  V30 8831 O 822.792 2.39986 4.90988 0
M  V30 8832 H 819.886 0.330889 0.757919 0
M  V30 8833 H 822.432 1.29228 1.09992 0
M  V30 8834 H 821.204 2.75369 2.78006 0
M  V30 8835 H 820.827 1.33581 3.74489 0
M  V30 8836 N 821.824 -1.22873 0.986916 0
M  V30 8837 C 823.07 -1.91746 0.660401 0
M  V30 8838 C 823.403 -1.76738 -0.804812 0
M  V30 8839 O 822.678 -1.13246 -1.58131 0
M  V30 8840 C 822.961 -3.44156 1.05966 0
M  V30 8841 C 822.814 -3.68242 2.58298 0
M  V30 8842 C 824.133 -4.35874 0.60842 0
M  V30 8843 H 821.252 -0.696347 0.241391 0
M  V30 8844 H 823.894 -1.44867 1.22937 0
M  V30 8845 H 822.044 -3.84213 0.575534 0
M  V30 8846 H 823.716 -3.37626 3.14335 0
M  V30 8847 H 821.959 -3.12728 3.00638 0
M  V30 8848 H 822.63 -4.74956 2.81285 0
M  V30 8849 H 825.106 -4.03299 1.02417 0
M  V30 8850 H 823.982 -5.41201 0.916142 0
M  V30 8851 H 824.243 -4.39364 -0.491086 0
M  V30 8852 N 823.302 -0.75937 -1.38099 0
M  V30 8853 C 824.249 -0.135508 -2.30402 0
M  V30 8854 C 825.219 0.703356 -1.50473 0
M  V30 8855 O 826.404 0.658287 -1.79084 0
M  V30 8856 C 823.544 0.747228 -3.36913 0
M  V30 8857 C 822.657 -0.106893 -4.31868 0
M  V30 8858 C 821.792 0.779388 -5.25451 0
M  V30 8859 C 820.831 -0.0780179 -6.1205 0
M  V30 8860 N 819.968 0.765545 -6.97914 0
M  V30 8861 H 824.808 -0.9282 -2.83176 0
M  V30 8862 H 822.345 -0.46935 -1.39411 0
M  V30 8863 H 824.303 1.27371 -3.97281 0
M  V30 8864 H 822.933 1.50565 -2.85535 0
M  V30 8865 H 821.985 -0.751063 -3.72912 0
M  V30 8866 H 823.297 -0.768798 -4.9284 0
M  V30 8867 H 822.451 1.37282 -5.90964 0
M  V30 8868 H 821.19 1.47501 -4.6486 0
M  V30 8869 H 820.195 -0.684078 -5.45528 0
M  V30 8870 H 821.42 -0.770786 -6.74712 0
M  V30 8871 H 819.366 1.44601 -6.39864 0
M  V30 8872 H 819.283 0.160666 -7.55829 0
M  V30 8873 H 820.551 1.34377 -7.6783 0
M  V30 8874 N 824.78 1.49157 -0.508906 0
M  V30 8875 C 825.728 2.30922 0.278906 0
M  V30 8876 C 826.722 1.39889 0.955382 0
M  V30 8877 O 827.928 1.56901 0.882169 0
M  V30 8878 H 824.303 0.744087 0.108805 0
M  V30 8879 H 826.274 2.95277 -0.430583 0
M  V30 8880 C 825.023 3.21432 1.32576 0
M  V30 8881 H 824.346 3.91413 0.814634 0
M  V30 8882 H 825.786 3.81568 1.84882 0
M  V30 8883 C 824.245 2.41583 2.34817 0
M  V30 8884 O 824.775 2.1256 3.40854 0
M  V30 8885 N 822.981 2.03462 2.07489 0
M  V30 8886 H 822.528 2.27265 1.21278 0
M  V30 8887 H 822.486 1.50345 2.76123 0
M  V30 8888 N 826.258 0.243083 1.55714 0
M  V30 8889 C 827.507 -0.383188 1.98027 0
M  V30 8890 C 827.82 -1.59347 1.13436 0
M  V30 8891 O 829.026 -2.29065 1.45745 0
M  V30 8892 C 827.482 -0.733135 3.52354 0
M  V30 8893 C 827.09 0.455539 4.45678 0
M  V30 8894 C 828.834 -1.32381 4.03331 0
M  V30 8895 C 826.741 0.0819591 5.91343 0
M  V30 8896 H 825.671 -0.146944 0.739543 0
M  V30 8897 H 828.322 0.342697 1.80272 0
M  V30 8898 H 826.704 -1.51704 3.65789 0
M  V30 8899 H 827.878 1.23291 4.44 0
M  V30 8900 H 826.193 0.960886 4.05162 0
M  V30 8901 H 828.79 -1.61658 5.09677 0
M  V30 8902 H 829.133 -2.24698 3.50452 0
M  V30 8903 H 829.666 -0.602885 3.93205 0
M  V30 8904 H 826.405 0.972171 6.48251 0
M  V30 8905 H 825.925 -0.659291 5.96166 0
M  V30 8906 H 827.604 -0.3372 6.46121 0
M  V30 8907 N 827.736 -1.57571 -0.0300757 0
M  V30 8908 C 828.666 -2.0953 -1.03051 0
M  V30 8909 C 829.647 -0.99761 -1.37774 0
M  V30 8910 O 830.832 -1.27279 -1.46676 0
M  V30 8911 C 827.962 -2.57385 -2.33174 0
M  V30 8912 C 826.916 -3.71409 -2.12696 0
M  V30 8913 C 826.242 -4.05467 -3.4857 0
M  V30 8914 C 827.542 -4.99877 -1.51396 0
M  V30 8915 H 829.236 -2.93367 -0.597999 0
M  V30 8916 H 826.782 -1.41127 -0.286203 0
M  V30 8917 H 828.735 -2.92355 -3.03491 0
M  V30 8918 H 827.459 -1.70629 -2.78484 0
M  V30 8919 H 826.118 -3.36786 -1.44813 0
M  V30 8920 H 825.766 -3.15779 -3.91526 0
M  V30 8921 H 825.466 -4.82269 -3.35694 0
M  V30 8922 H 826.99 -4.4297 -4.2025 0
M  V30 8923 H 828.404 -5.3281 -2.11629 0
M  V30 8924 H 826.801 -5.81283 -1.49098 0
M  V30 8925 H 827.871 -4.82522 -0.479676 0
M  V30 8926 N 829.214 0.302327 -1.54673 0
M  V30 8927 C 830.144 1.37759 -1.88533 0
M  V30 8928 C 831.125 1.52961 -0.744113 0
M  V30 8929 O 832.31 1.6649 -0.999731 0
M  V30 8930 C 829.44 2.74201 -2.13146 0
M  V30 8931 C 828.394 2.73765 -3.28993 0
M  V30 8932 C 827.72 4.13483 -3.39022 0
M  V30 8933 C 829.02 2.35624 -4.66132 0
M  V30 8934 H 830.714 1.0967 -2.78591 0
M  V30 8935 H 828.26 0.52613 -1.34044 0
M  V30 8936 H 830.213 3.49508 -2.35419 0
M  V30 8937 H 828.937 3.03812 -1.19858 0
M  V30 8938 H 827.596 2.00914 -3.06642 0
M  V30 8939 H 827.244 4.40269 -2.43253 0
M  V30 8940 H 826.944 4.14093 -4.16894 0
M  V30 8941 H 828.468 4.90572 -3.63553 0
M  V30 8942 H 829.882 3.00647 -4.88143 0
M  V30 8943 H 828.279 2.47449 -5.46707 0
M  V30 8944 H 829.349 1.30753 -4.66939 0
M  V30 8945 N 830.692 1.47107 0.565454 0
M  V30 8946 C 831.917 1.57153 1.35343 0
M  V30 8947 C 832.342 0.219247 1.86818 0
M  V30 8948 O 831.7 -0.803539 1.62521 0
M  V30 8949 C 831.748 2.59387 2.50501 0
M  V30 8950 O 830.852 2.14086 3.52478 0
M  V30 8951 H 830.193 0.528209 0.402357 0
M  V30 8952 H 832.723 1.92821 0.684189 0
M  V30 8953 H 832.733 2.79546 2.97184 0
M  V30 8954 H 831.408 3.57579 2.12391 0
M  V30 8955 H 829.985 2.03991 3.12157 0
M  V30 8956 N 832.17 -0.811516 1.35101 0
M  V30 8957 C 833.419 -1.56343 1.27435 0
M  V30 8958 C 833.732 -1.95019 -0.150696 0
M  V30 8959 O 834.938 -2.6924 -0.349586 0
M  V30 8960 C 833.394 -2.82124 2.23459 0
M  V30 8961 C 833.002 -2.50706 3.71283 0
M  V30 8962 C 834.746 -3.60137 2.24726 0
M  V30 8963 C 832.653 -3.72748 4.59143 0
M  V30 8964 H 831.583 -0.58682 0.473453 0
M  V30 8965 H 834.234 -0.892465 1.60335 0
M  V30 8966 H 832.616 -3.50905 1.83525 0
M  V30 8967 H 833.79 -1.89962 4.19823 0
M  V30 8968 H 832.105 -1.85947 3.72576 0
M  V30 8969 H 834.702 -4.50775 2.87587 0
M  V30 8970 H 835.045 -3.97101 1.24965 0
M  V30 8971 H 835.578 -2.98311 2.63164 0
M  V30 8972 H 832.317 -3.40896 5.59884 0
M  V30 8973 H 831.837 -4.32735 4.15332 0
M  V30 8974 H 833.516 -4.40033 4.74321 0
M  V30 8975 N 833.648 -1.19017 -1.03309 0
M  V30 8976 C 834.896 -0.988258 -1.76289 0
M  V30 8977 C 835.217 0.482557 -1.88935 0
M  V30 8978 O 834.487 1.34969 -1.41987 0
M  V30 8979 H 833.067 -0.36267 -0.653054 0
M  V30 8980 H 835.729 -1.49836 -1.2464 0
M  V30 8981 H 834.825 -1.43273 -2.77271 0
M  V30 8982 N 835.127 1.22348 -0.993418 0
M  V30 8983 C 836.037 2.27987 -0.553076 0
M  V30 8984 C 837.053 1.69378 0.398386 0
M  V30 8985 O 838.229 1.99648 0.26509 0
M  V30 8986 C 835.294 3.46475 0.124809 0
M  V30 8987 C 834.355 4.20399 -0.869682 0
M  V30 8988 C 833.588 5.33229 -0.224052 0
M  V30 8989 O 833.811 5.61885 0.981915 0
M  V30 8990 O 832.745 5.94685 -0.929174 0
M  V30 8991 H 836.571 2.67822 -1.43195 0
M  V30 8992 H 834.156 1.28525 -0.761694 0
M  V30 8993 H 836.038 4.18369 0.504496 0
M  V30 8994 H 834.713 3.08565 0.978243 0
M  V30 8995 H 833.62 3.50774 -1.30031 0
M  V30 8996 H 834.953 4.62191 -1.69233 0
M  V30 8997 N 836.605 0.766683 1.37694 0
M  V30 8998 C 837.535 0.163432 2.32927 0
M  V30 8999 C 838.516 -0.688861 1.55527 0
M  V30 9000 O 839.701 -0.627363 1.83787 0
M  V30 9001 C 836.831 -0.720416 3.39746 0
M  V30 9002 C 835.785 0.0301718 4.27989 0
M  V30 9003 C 835.111 -0.972788 5.25776 0
M  V30 9004 C 836.411 1.20623 5.0818 0
M  V30 9005 H 838.105 0.958988 2.83626 0
M  V30 9006 H 835.651 0.462601 1.36367 0
M  V30 9007 H 837.604 -1.15221 4.05342 0
M  V30 9008 H 836.328 -1.54844 2.8756 0
M  V30 9009 H 834.987 0.442685 3.63917 0
M  V30 9010 H 834.635 -1.79522 4.69873 0
M  V30 9011 H 834.335 -0.475145 5.85676 0
M  V30 9012 H 835.859 -1.40362 5.94248 0
M  V30 9013 H 837.273 0.851341 5.66944 0
M  V30 9014 H 835.67 1.63561 5.7738 0
M  V30 9015 H 836.74 2.01281 4.41151 0
M  V30 9016 N 838.083 -1.48885 0.516809 0
M  V30 9017 C 839.494 -1.86557 0.0729921 0
M  V30 9018 C 839.845 -1.42767 -1.34581 0
M  V30 9019 O 838.97 -0.812514 -2.00567 0
M  V30 9020 C 839.565 -3.38567 0.125686 0
M  V30 9021 C 838.124 -3.75481 -0.262867 0
M  V30 9022 C 837.271 -2.72913 0.491281 0
M  V30 9023 H 840.222 -1.40978 0.728767 0
M  V30 9024 H 840.243 -3.74629 -0.665831 0
M  V30 9025 H 839.755 -3.70408 1.15842 0
M  V30 9026 H 837.856 -3.49251 -1.29824 0
M  V30 9027 H 837.969 -4.79052 0.067579 0
M  V30 9028 H 836.333 -2.54627 -0.0608525 0
M  V30 9029 H 837.116 -3.07599 1.5244 0
M  V30 9030 N 839.561 -0.251338 -1.55583 0
M  V30 9031 C 840.493 0.679167 -2.18906 0
M  V30 9032 C 841.506 1.13545 -1.16667 0
M  V30 9033 O 842.695 1.06146 -1.4351 0
M  V30 9034 C 839.795 1.93544 -2.78198 0
M  V30 9035 C 838.968 1.62987 -4.05899 0
M  V30 9036 C 838.027 2.73618 -4.49466 0
M  V30 9037 O 837.053 2.40815 -5.15749 0
M  V30 9038 N 838.255 4.03204 -4.1762 0
M  V30 9039 H 841.02 0.137328 -2.99385 0
M  V30 9040 H 838.581 -0.0714754 -1.61742 0
M  V30 9041 H 840.573 2.66804 -3.04299 0
M  V30 9042 H 839.143 2.38695 -2.0185 0
M  V30 9043 H 838.363 0.732237 -3.8734 0
M  V30 9044 H 839.651 1.40041 -4.89148 0
M  V30 9045 H 839.049 4.32686 -3.64416 0
M  V30 9046 H 837.606 4.72916 -4.48547 0
M  V30 9047 N 841.039 1.57585 0.0217189 0
M  V30 9048 C 841.949 2.10444 1.03684 0
M  V30 9049 C 842.965 1.04472 1.39146 0
M  V30 9050 O 844.141 1.36249 1.48317 0
M  V30 9051 C 841.206 2.5794 2.31664 0
M  V30 9052 C 840.267 3.78425 2.02714 0
M  V30 9053 C 839.5 4.23646 3.24592 0
M  V30 9054 O 839.723 3.6834 4.35525 0
M  V30 9055 O 838.657 5.16013 3.09862 0
M  V30 9056 H 842.483 2.97354 0.617584 0
M  V30 9057 H 840.068 1.47473 0.239174 0
M  V30 9058 H 841.95 2.88785 3.06889 0
M  V30 9059 H 840.625 1.74138 2.7287 0
M  V30 9060 H 839.532 3.52587 1.25033 0
M  V30 9061 H 840.865 4.63234 1.66359 0
M  V30 9062 N 842.517 -0.29412 1.54831 0
M  V30 9063 C 843.45 -1.38779 1.81151 0
M  V30 9064 C 844.428 -1.48464 0.663124 0
M  V30 9065 O 845.612 -1.65418 0.903835 0
M  V30 9066 C 842.739 -2.76627 1.95436 0
M  V30 9067 C 841.785 -2.84333 3.17895 0
M  V30 9068 S 842.618 -2.45726 4.75793 0
M  V30 9069 C 843.774 -3.85589 4.93023 0
M  V30 9070 H 844.007 -1.16246 2.73631 0
M  V30 9071 H 841.54 -0.492611 1.46331 0
M  V30 9072 H 843.498 -3.56021 2.04351 0
M  V30 9073 H 842.159 -2.96425 1.03881 0
M  V30 9074 H 841.352 -3.85457 3.24713 0
M  V30 9075 H 840.954 -2.1294 3.07461 0
M  V30 9076 H 843.246 -4.80656 4.77468 0
M  V30 9077 H 844.189 -3.83737 5.95107 0
M  V30 9078 H 844.597 -3.75911 4.21131 0
M  V30 9079 N 843.995 -1.47404 -0.557645 0
M  V30 9080 C 844.943 -1.60265 -1.68576 0
M  V30 9081 C 845.937 -0.469982 -1.6275 0
M  V30 9082 O 847.143 -0.647764 -1.67941 0
M  V30 9083 H 843.518 -0.504353 -0.557792 0
M  V30 9084 H 845.489 -2.55066 -1.54867 0
M  V30 9085 C 844.238 -1.63369 -3.0693 0
M  V30 9086 H 843.561 -2.49874 -3.12095 0
M  V30 9087 H 845.001 -1.76417 -3.85556 0
M  V30 9088 C 843.46 -0.366921 -3.34896 0
M  V30 9089 O 843.99 0.53218 -3.98159 0
M  V30 9090 N 842.196 -0.247082 -2.89548 0
M  V30 9091 H 841.743 -0.979669 -2.38244 0
M  V30 9092 H 841.701 0.599552 -3.0863 0
M  V30 9093 N 845.473 0.80434 -1.35529 0
M  V30 9094 C 846.42 1.91629 -1.28635 0
M  V30 9095 C 847.39 1.65348 -0.157862 0
M  V30 9096 O 848.575 1.87711 -0.341934 0
M  V30 9097 C 845.715 3.28207 -1.0665 0
M  V30 9098 C 844.828 3.66659 -2.28441 0
M  V30 9099 C 843.963 4.92279 -1.99588 0
M  V30 9100 C 843.002 5.23365 -3.1742 0
M  V30 9101 N 842.139 6.40165 -2.88328 0
M  V30 9102 H 846.979 1.96858 -2.23721 0
M  V30 9103 H 844.516 0.962871 -1.11208 0
M  V30 9104 H 846.474 4.06945 -0.919343 0
M  V30 9105 H 845.104 3.22441 -0.152253 0
M  V30 9106 H 844.156 2.83164 -2.54013 0
M  V30 9107 H 845.468 3.8559 -3.1642 0
M  V30 9108 H 844.622 5.78847 -1.81715 0
M  V30 9109 H 843.361 4.75387 -1.08896 0
M  V30 9110 H 842.366 4.35285 -3.35867 0
M  V30 9111 H 843.591 5.42185 -4.08916 0
M  V30 9112 H 841.537 6.24694 -2.00233 0
M  V30 9113 H 841.454 6.59357 -3.69843 0
M  V30 9114 H 842.722 7.29755 -2.74002 0
M  V30 9115 N 846.951 1.19563 1.02676 0
M  V30 9116 C 848.181 1.0234 1.79472 0
M  V30 9117 C 848.589 -0.430891 1.84228 0
M  V30 9118 O 847.932 -1.31106 1.28674 0
M  V30 9119 C 847.994 1.51901 3.25832 0
M  V30 9120 C 847.658 3.00045 3.44706 0
M  V30 9121 C 848.655 3.9779 3.34752 0
M  V30 9122 C 846.34 3.38784 3.70851 0
M  V30 9123 C 848.334 5.32267 3.50672 0
M  V30 9124 C 846.021 4.73419 3.86416 0
M  V30 9125 C 847.019 5.69969 3.7633 0
M  V30 9126 O 846.707 7.02165 3.91432 0
M  V30 9127 H 846.439 0.360936 0.571578 0
M  V30 9128 H 848.993 1.58863 1.30198 0
M  V30 9129 H 847.223 0.897546 3.7614 0
M  V30 9130 H 848.912 1.30853 3.84229 0
M  V30 9131 H 849.678 3.69207 3.14502 0
M  V30 9132 H 845.557 2.64183 3.77794 0
M  V30 9133 H 849.101 6.07612 3.42715 0
M  V30 9134 H 844.998 5.01697 4.06165 0
M  V30 9135 H 845.766 7.09268 4.08511 0
M  V30 9136 N 848.429 -1.21819 0.999893 0
M  V30 9137 C 849.362 -2.22635 0.500887 0
M  V30 9138 C 850.34 -1.56459 -0.442636 0
M  V30 9139 O 851.524 -1.84902 -0.366551 0
M  V30 9140 C 848.651 -3.37598 -0.273046 0
M  V30 9141 C 847.697 -4.22006 0.617511 0
M  V30 9142 S 848.53 -4.93583 2.07693 0
M  V30 9143 C 849.686 -6.1198 1.31269 0
M  V30 9144 H 849.919 -2.64618 1.35516 0
M  V30 9145 H 847.452 -1.31606 0.807419 0
M  V30 9146 H 849.41 -4.04251 -0.713515 0
M  V30 9147 H 848.071 -2.94108 -1.10268 0
M  V30 9148 H 847.264 -5.03995 0.0216543 0
M  V30 9149 H 846.866 -3.6052 0.99504 0
M  V30 9150 H 849.158 -6.74979 0.583933 0
M  V30 9151 H 850.101 -6.75991 2.10811 0
M  V30 9152 H 850.509 -5.5847 0.822901 0
M  V30 9153 N 849.908 -0.773975 -1.37286 0
M  V30 9154 C 850.838 -0.175782 -2.32837 0
M  V30 9155 C 851.819 0.680603 -1.5589 0
M  V30 9156 O 853.004 0.617607 -1.84117 0
M  V30 9157 C 850.134 0.702388 -3.40123 0
M  V30 9158 C 849.088 -0.0528687 -4.27967 0
M  V30 9159 C 848.414 0.944891 -5.26285 0
M  V30 9160 C 849.714 -1.23316 -5.07534 0
M  V30 9161 H 851.408 -0.974016 -2.83114 0
M  V30 9162 H 848.954 -0.469826 -1.3612 0
M  V30 9163 H 850.907 1.13069 -4.05947 0
M  V30 9164 H 849.631 1.53316 -2.88378 0
M  V30 9165 H 848.29 -0.461978 -3.63678 0
M  V30 9166 H 847.938 1.77028 -4.70819 0
M  V30 9167 H 847.638 0.444079 -5.8592 0
M  V30 9168 H 849.162 1.37209 -5.94984 0
M  V30 9169 H 850.576 -0.881395 -5.66484 0
M  V30 9170 H 848.973 -1.66621 -5.76504 0
M  V30 9171 H 850.043 -2.03617 -4.40077 0
M  V30 9172 N 851.386 1.48609 -0.524698 0
M  V30 9173 C 852.349 2.28041 0.230166 0
M  V30 9174 C 853.349 1.35065 0.872584 0
M  V30 9175 O 854.539 1.58007 0.73345 0
M  V30 9176 C 851.671 3.13778 1.33252 0
M  V30 9177 H 852.864 2.96239 -0.467161 0
M  V30 9178 H 850.417 1.53763 -0.280452 0
M  V30 9179 H 851.152 2.502 2.06327 0
M  V30 9180 H 850.937 3.82165 0.877058 0
M  V30 9181 H 852.427 3.7371 1.86362 0
M  V30 9182 N 852.864 0.259585 1.55447 0
M  V30 9183 C 854.113 -0.362163 1.98422 0
M  V30 9184 C 854.426 -1.58135 1.1512 0
M  V30 9185 O 855.632 -2.27506 1.48166 0
M  V30 9186 C 854.088 -0.695722 3.53111 0
M  V30 9187 C 853.696 0.502784 4.4517 0
M  V30 9188 C 855.44 -1.28096 4.04712 0
M  V30 9189 C 853.347 0.144674 5.91223 0
M  V30 9190 H 852.277 -0.139092 0.74106 0
M  V30 9191 H 854.928 0.361798 1.79898 0
M  V30 9192 H 853.31 -1.47816 3.67378 0
M  V30 9193 H 854.484 1.27994 4.42667 0
M  V30 9194 H 852.799 1.0038 4.0412 0
M  V30 9195 H 855.396 -1.56243 5.11363 0
M  V30 9196 H 855.739 -2.20969 3.52815 0
M  V30 9197 H 856.272 -0.561146 3.93822 0
M  V30 9198 H 853.011 1.04087 6.47183 0
M  V30 9199 H 852.531 -0.596023 5.96831 0
M  V30 9200 H 854.21 -0.268651 6.46442 0
M  V30 9201 N 854.342 -1.57594 -0.0133615 0
M  V30 9202 C 855.588 -1.90262 -0.702019 0
M  V30 9203 C 855.921 -0.859219 -1.74158 0
M  V30 9204 O 855.196 0.123778 -1.94106 0
M  V30 9205 C 855.479 -3.3354 -1.35732 0
M  V30 9206 C 855.332 -4.48586 -0.330208 0
M  V30 9207 C 856.651 -3.76004 -2.28712 0
M  V30 9208 H 853.77 -0.691943 -0.253739 0
M  V30 9209 H 856.412 -1.89967 0.0351894 0
M  V30 9210 H 854.562 -3.33921 -1.98567 0
M  V30 9211 H 856.234 -4.6034 0.297433 0
M  V30 9212 H 854.477 -4.32394 0.348926 0
M  V30 9213 H 855.148 -5.45762 -0.827508 0
M  V30 9214 H 857.624 -3.77089 -1.75906 0
M  V30 9215 H 856.5 -4.77032 -2.71535 0
M  V30 9216 H 856.761 -3.09129 -3.16056 0
M  V30 9217 N 855.82 0.285905 -1.54985 0
M  V30 9218 C 856.752 1.37505 -1.83371 0
M  V30 9219 C 857.765 1.46138 -0.717454 0
M  V30 9220 O 858.954 1.48186 -0.995142 0
M  V30 9221 C 856.054 2.7575 -1.97016 0
M  V30 9222 C 855.227 2.89866 -3.27561 0
M  V30 9223 C 854.286 4.08704 -3.31433 0
M  V30 9224 O 853.312 4.00073 -4.04883 0
M  V30 9225 N 854.514 5.20062 -2.57907 0
M  V30 9226 H 857.279 1.13505 -2.77375 0
M  V30 9227 H 854.84 0.476006 -1.54744 0
M  V30 9228 H 856.832 3.5352 -1.96991 0
M  V30 9229 H 855.402 2.9263 -1.09938 0
M  V30 9230 H 854.622 1.99085 -3.40234 0
M  V30 9231 H 855.91 2.96219 -4.13681 0
M  V30 9232 H 855.308 5.29958 -1.97891 0
M  V30 9233 H 853.865 5.96111 -2.63619 0
M  V30 9234 N 857.298 1.47698 0.54982 0
M  V30 9235 C 858.575 1.45185 1.31075 0
M  V30 9236 C 858.955 0.152768 2.10547 0
M  V30 9237 O 858.303 -0.865706 2.11466 0
M  V30 9238 C 858.513 2.70192 2.20902 0
M  V30 9239 C 859.861 3.1771 2.81683 0
M  V30 9240 O 860.885 2.70971 2.312 0
M  V30 9241 O 859.744 3.98986 3.7346 0
M  V30 9242 H 856.838 0.57892 0.590577 0
M  V30 9243 H 859.384 1.59908 0.568112 0
M  V30 9244 H 858.156 3.56269 1.61828 0
M  V30 9245 H 857.779 2.58091 3.02448 0
M  V30 9246 N 858.776 -0.797141 1.35954 0
M  V30 9247 C 860.025 -1.54983 1.29086 0
M  V30 9248 C 860.338 -1.95167 -0.130003 0
M  V30 9249 O 861.544 -2.69596 -0.32101 0
M  V30 9250 C 860 -2.79738 2.26439 0
M  V30 9251 C 859.608 -2.46753 3.73921 0
M  V30 9252 C 861.352 -3.57733 2.28533 0
M  V30 9253 C 859.259 -3.67858 4.63071 0
M  V30 9254 H 858.189 -0.581766 0.479651 0
M  V30 9255 H 860.84 -0.87541 1.61273 0
M  V30 9256 H 859.222 -3.48939 1.87236 0
M  V30 9257 H 860.396 -1.85499 4.21814 0
M  V30 9258 H 858.711 -1.81985 3.74527 0
M  V30 9259 H 861.308 -4.47699 2.92351 0
M  V30 9260 H 861.651 -3.95754 1.29169 0
M  V30 9261 H 862.184 -2.95504 2.66313 0
M  V30 9262 H 858.923 -3.34939 5.63468 0
M  V30 9263 H 858.443 -4.28305 4.19898 0
M  V30 9264 H 860.122 -4.34977 4.78961 0
M  V30 9265 N 860.254 -1.20106 -1.0204 0
M  V30 9266 C 861.184 -0.970301 -2.12385 0
M  V30 9267 C 862.165 0.099378 -1.69809 0
M  V30 9268 O 863.35 -0.057365 -1.94115 0
M  V30 9269 C 860.48 -0.517431 -3.43424 0
M  V30 9270 C 859.434 -1.52992 -3.99722 0
M  V30 9271 C 858.76 -0.933817 -5.26483 0
M  V30 9272 C 860.06 -2.91257 -4.33551 0
M  V30 9273 H 861.754 -1.89316 -2.31948 0
M  V30 9274 H 859.3 -0.911655 -1.11467 0
M  V30 9275 H 861.253 -0.343243 -4.2 0
M  V30 9276 H 859.977 0.441049 -3.23608 0
M  V30 9277 H 858.636 -1.6914 -3.2525 0
M  V30 9278 H 858.284 0.0324763 -5.0299 0
M  V30 9279 H 857.984 -1.60999 -5.65113 0
M  V30 9280 H 859.508 -0.770614 -6.05718 0
M  V30 9281 H 860.922 -2.78642 -5.0103 0
M  V30 9282 H 859.319 -3.55745 -4.83286 0
M  V30 9283 H 860.389 -3.43269 -3.42483 0
M  V30 9284 N 861.732 1.21287 -1.00634 0
M  V30 9285 C 863.148 1.42467 -0.719389 0
M  V30 9286 C 863.348 1.88767 0.704927 0
M  V30 9287 O 862.404 2.05004 1.47409 0
M  V30 9288 C 863.717 2.455 -1.73639 0
M  V30 9289 C 865.265 2.59281 -1.75335 0
M  V30 9290 C 865.74 3.65547 -2.75934 0
M  V30 9291 N 867.231 3.73019 -2.74611 0
M  V30 9292 C 867.966 4.54873 -3.4911 0
M  V30 9293 N 867.462 5.40614 -4.33253 0
M  V30 9294 N 869.255 4.49309 -3.37754 0
M  V30 9295 H 861.406 0.895454 -1.92602 0
M  V30 9296 H 863.669 0.455491 -0.831404 0
M  V30 9297 H 863.375 2.18455 -2.75627 0
M  V30 9298 H 863.249 3.44325 -1.54014 0
M  V30 9299 H 865.636 2.85661 -0.740377 0
M  V30 9300 H 865.717 1.60685 -1.99032 0
M  V30 9301 H 865.361 3.39911 -3.77389 0
M  V30 9302 H 865.291 4.63741 -2.49503 0
M  V30 9303 H 867.782 3.11766 -2.13565 0
M  V30 9304 H 868.095 6.0013 -4.86892 0
M  V30 9305 H 866.44 5.40151 -4.37335 0
M  V30 9306 H 869.631 3.81357 -2.71449 0
M  V30 9307 H 869.804 5.12867 -3.9607 0
M  V30 9308 N 863.21 0.781244 1.36873 0
M  V30 9309 C 864.457 0.349889 1.99454 0
M  V30 9310 C 864.785 -1.07621 1.62013 0
M  V30 9311 O 864.04 -1.75665 0.86258 0
M  V30 9312 C 864.339 0.45146 3.54537 0
M  V30 9313 C 864.005 1.83718 4.11775 0
M  V30 9314 C 862.667 2.21634 4.2712 0
M  V30 9315 C 865.019 2.7449 4.43063 0
M  V30 9316 C 862.347 3.49742 4.7106 0
M  V30 9317 C 864.699 4.02017 4.88431 0
M  V30 9318 C 863.363 4.39967 5.01982 0
M  V30 9319 H 862.633 0.128033 0.729855 0
M  V30 9320 H 865.28 0.997117 1.63493 0
M  V30 9321 H 863.585 -0.279288 3.90803 0
M  V30 9322 H 865.282 0.0988609 4.00878 0
M  V30 9323 H 861.872 1.53251 4.00265 0
M  V30 9324 H 866.056 2.46453 4.30783 0
M  V30 9325 H 861.312 3.79026 4.79738 0
M  V30 9326 H 865.486 4.72475 5.11605 0
M  V30 9327 H 863.113 5.39291 5.35788 0
M  V30 9328 N 864.689 -1.48329 0.532571 0
M  V30 9329 C 865.599 -2.33445 -0.232546 0
M  V30 9330 C 866.615 -1.46651 -0.93645 0
M  V30 9331 O 867.791 -1.79627 -0.910834 0
M  V30 9332 C 864.856 -3.22824 -1.26434 0
M  V30 9333 C 863.917 -4.25492 -0.570511 0
M  V30 9334 C 863.15 -5.10601 -1.55315 0
M  V30 9335 O 863.373 -4.97733 -2.78599 0
M  V30 9336 O 862.307 -5.91927 -1.09112 0
M  V30 9337 H 866.133 -3.00119 0.464988 0
M  V30 9338 H 863.718 -1.46489 0.293462 0
M  V30 9339 H 865.6 -3.78103 -1.86055 0
M  V30 9340 H 864.275 -2.58807 -1.94424 0
M  V30 9341 H 863.182 -3.74041 0.0662587 0
M  V30 9342 H 864.515 -4.92154 0.0674904 0
M  V30 9343 N 866.167 -0.267825 -1.55308 0
M  V30 9344 C 867.1 0.663973 -2.18327 0
M  V30 9345 C 868.078 1.15759 -1.14187 0
M  V30 9346 O 869.262 1.23189 -1.42677 0
M  V30 9347 C 866.389 1.9047 -2.8007 0
M  V30 9348 C 865.435 1.54718 -3.97447 0
M  V30 9349 S 866.268 0.631654 -5.31762 0
M  V30 9350 C 867.424 1.88092 -5.96969 0
M  V30 9351 H 867.657 0.128486 -2.97022 0
M  V30 9352 H 865.19 -0.052129 -1.54312 0
M  V30 9353 H 867.148 2.61688 -3.16275 0
M  V30 9354 H 865.809 2.41132 -2.01281 0
M  V30 9355 H 865.002 2.47022 -4.39313 0
M  V30 9356 H 864.604 0.915254 -3.62628 0
M  V30 9357 H 866.896 2.82572 -6.15759 0
M  V30 9358 H 867.839 1.50539 -6.91913 0
M  V30 9359 H 868.247 2.04254 -5.26252 0
M  V30 9360 N 867.645 1.57599 0.00500368 0
M  V30 9361 C 869.056 1.78462 0.54848 0
M  V30 9362 C 869.407 0.901869 1.74243 0
M  V30 9363 O 868.532 0.103014 2.16155 0
M  V30 9364 C 869.127 3.2365 1.00179 0
M  V30 9365 C 867.686 3.45627 1.49061 0
M  V30 9366 C 866.833 2.73794 0.439531 0
M  V30 9367 H 869.784 1.57151 -0.22118 0
M  V30 9368 H 869.805 3.31488 1.86805 0
M  V30 9369 H 869.317 3.87873 0.132607 0
M  V30 9370 H 867.418 2.86612 2.38085 0
M  V30 9371 H 867.531 4.54298 1.52152 0
M  V30 9372 H 865.895 2.38267 0.900043 0
M  V30 9373 H 866.678 3.40714 -0.420599 0
M  V30 9374 N 869.123 -0.277682 1.55134 0
M  V30 9375 C 870.086 -1.32635 1.86924 0
M  V30 9376 C 871.086 -1.42578 0.743507 0
M  V30 9377 O 872.276 -1.4181 1.01171 0
M  V30 9378 C 869.408 -2.70832 2.07034 0
M  V30 9379 H 870.601 -1.0568 2.80663 0
M  V30 9380 H 868.154 -0.515517 1.47554 0
M  V30 9381 H 868.889 -3.02974 1.15661 0
M  V30 9382 H 868.674 -2.65001 2.88993 0
M  V30 9383 H 870.164 -3.46611 2.32918 0
M  V30 9384 N 870.601 -1.47988 -0.541979 0
M  V30 9385 C 871.826 -1.59286 -1.32826 0
M  V30 9386 C 872.251 -0.24894 -1.86445 0
M  V30 9387 O 871.609 0.777581 -1.63778 0
M  V30 9388 C 871.657 -2.6334 -2.46343 0
M  V30 9389 O 870.761 -2.19667 -3.49028 0
M  V30 9390 H 870.102 -0.534543 -0.393903 0
M  V30 9391 H 872.632 -1.93885 -0.653427 0
M  V30 9392 H 872.642 -2.84238 -2.92699 0
M  V30 9393 H 871.317 -3.60913 -2.06675 0
M  V30 9394 H 869.894 -2.08932 -3.08872 0
M  V30 9395 N 872.079 0.78992 -1.36375 0
M  V30 9396 C 873.026 1.90254 -1.3066 0
M  V30 9397 C 873.996 1.65171 -0.17539 0
M  V30 9398 O 875.181 1.87338 -0.361824 0
M  V30 9399 C 872.321 3.27057 -1.10125 0
M  V30 9400 C 871.434 3.64215 -2.32317 0
M  V30 9401 C 870.569 4.90134 -2.04798 0
M  V30 9402 C 869.608 5.19969 -3.22953 0
M  V30 9403 N 868.745 6.37071 -2.95102 0
M  V30 9404 H 873.585 1.94474 -2.25796 0
M  V30 9405 H 871.122 0.951022 -1.12223 0
M  V30 9406 H 873.08 4.05947 -0.962453 0
M  V30 9407 H 871.71 3.22261 -0.186444 0
M  V30 9408 H 870.762 2.80454 -2.57002 0
M  V30 9409 H 872.074 3.82212 -3.20492 0
M  V30 9410 H 871.228 5.76888 -1.87845 0
M  V30 9411 H 869.967 4.74205 -1.13932 0
M  V30 9412 H 868.972 4.31699 -3.40465 0
M  V30 9413 H 870.197 5.37817 -4.14644 0
M  V30 9414 H 868.143 6.22535 -2.06848 0
M  V30 9415 H 868.06 6.55398 -3.76815 0
M  V30 9416 H 869.328 7.26808 -2.81727 0
M  V30 9417 N 873.557 1.20646 1.01402 0
M  V30 9418 C 874.806 1.01242 1.7445 0
M  V30 9419 C 875.119 -0.455732 1.90217 0
M  V30 9420 O 876.325 -0.768951 2.60383 0
M  V30 9421 C 874.781 1.76275 3.13776 0
M  V30 9422 C 874.389 3.27201 3.06013 0
M  V30 9423 C 876.133 1.65248 3.91016 0
M  V30 9424 C 874.04 3.9476 4.40362 0
M  V30 9425 H 872.97 0.375202 0.654018 0
M  V30 9426 H 875.621 1.44292 1.13367 0
M  V30 9427 H 874.003 1.26013 3.75415 0
M  V30 9428 H 875.177 3.84695 2.53665 0
M  V30 9429 H 873.492 3.38669 2.42265 0
M  V30 9430 H 876.089 2.13061 4.90417 0
M  V30 9431 H 876.432 0.609128 4.1182 0
M  V30 9432 H 876.965 2.12937 3.3601 0
M  V30 9433 H 873.704 4.99258 4.24761 0
M  V30 9434 H 873.224 3.42054 4.92706 0
M  V30 9435 H 874.903 3.99159 5.09196 0
M  V30 9436 N 875.035 -1.20752 1.01276 0
M  V30 9437 C 876.281 -1.90302 0.700924 0
M  V30 9438 C 876.614 -1.78406 -0.767142 0
M  V30 9439 O 875.889 -1.16575 -1.55694 0
M  V30 9440 C 876.172 -3.41831 1.13242 0
M  V30 9441 C 876.025 -3.6268 2.66051 0
M  V30 9442 C 877.344 -4.34486 0.700738 0
M  V30 9443 H 874.463 -0.69107 0.256107 0
M  V30 9444 H 877.105 -1.42227 1.25982 0
M  V30 9445 H 875.255 -3.82906 0.656902 0
M  V30 9446 H 876.927 -3.30882 3.21426 0
M  V30 9447 H 875.17 -3.06281 3.07204 0
M  V30 9448 H 875.841 -4.68882 2.91296 0
M  V30 9449 H 878.317 -4.01036 1.10948 0
M  V30 9450 H 877.193 -5.39136 1.03073 0
M  V30 9451 H 877.454 -4.40307 -0.39778 0
M  V30 9452 N 876.513 -0.788492 -1.36457 0
M  V30 9453 C 877.929 -0.470063 -1.52521 0
M  V30 9454 C 878.129 1.01176 -1.74258 0
M  V30 9455 O 877.185 1.79726 -1.77355 0
M  V30 9456 C 878.498 -1.2997 -2.71161 0
M  V30 9457 C 880.046 -1.2933 -2.85031 0
M  V30 9458 C 880.521 -2.10665 -4.06674 0
M  V30 9459 N 882.012 -2.08107 -4.13819 0
M  V30 9460 C 882.747 -2.6781 -5.07016 0
M  V30 9461 N 882.243 -3.36369 -6.05663 0
M  V30 9462 N 884.036 -2.57549 -4.99625 0
M  V30 9463 H 876.187 -1.7484 -1.20602 0
M  V30 9464 H 878.45 -0.743159 -0.588574 0
M  V30 9465 H 878.156 -2.35051 -2.61618 0
M  V30 9466 H 878.03 -0.940367 -3.6529 0
M  V30 9467 H 880.417 -0.250414 -2.94036 0
M  V30 9468 H 880.498 -1.69239 -1.91812 0
M  V30 9469 H 880.142 -3.14984 -3.98431 0
M  V30 9470 H 880.072 -1.68128 -4.9904 0
M  V30 9471 H 882.563 -1.58208 -3.43189 0
M  V30 9472 H 882.876 -3.79258 -6.73338 0
M  V30 9473 H 881.221 -3.40471 -6.05891 0
M  V30 9474 H 884.412 -2.0359 -4.21508 0
M  V30 9475 H 884.585 -3.0437 -5.72069 0
M  V30 9476 N 877.991 1.48044 -0.54043 0
M  V30 9477 C 879.407 1.58354 -0.199006 0
M  V30 9478 C 879.607 1.54118 1.29807 0
M  V30 9479 O 878.663 1.43573 2.07709 0
M  V30 9480 C 879.976 2.89563 -0.810797 0
M  V30 9481 C 881.524 3.03113 -0.780486 0
M  V30 9482 C 881.999 4.36997 -1.37104 0
M  V30 9483 N 883.49 4.43591 -1.33347 0
M  V30 9484 C 884.225 5.45714 -1.76021 0
M  V30 9485 N 883.721 6.54738 -2.26473 0
M  V30 9486 N 885.514 5.36659 -1.67194 0
M  V30 9487 H 877.665 1.49041 -1.51329 0
M  V30 9488 H 879.928 0.708309 -0.630081 0
M  V30 9489 H 879.634 2.9835 -1.86227 0
M  V30 9490 H 879.508 3.76053 -0.293977 0
M  V30 9491 H 881.895 2.93932 0.262246 0
M  V30 9492 H 881.976 2.18207 -1.33489 0
M  V30 9493 H 881.62 4.46932 -2.41276 0
M  V30 9494 H 881.55 5.20607 -0.792229 0
M  V30 9495 H 884.041 3.65391 -0.964259 0
M  V30 9496 H 884.354 7.28814 -2.57002 0
M  V30 9497 H 882.699 6.55673 -2.30473 0
M  V30 9498 H 885.89 4.50382 -1.27569 0
M  V30 9499 H 886.063 6.16113 -2.00771 0
M  V30 9500 N 879.47 0.276058 1.55163 0
M  V30 9501 C 880.716 -0.340959 1.99913 0
M  V30 9502 C 881.049 -1.55434 1.16422 0
M  V30 9503 O 880.324 -1.93081 0.234517 0
M  V30 9504 C 880.607 -0.722211 3.52783 0
M  V30 9505 C 880.46 0.498575 4.47028 0
M  V30 9506 C 881.779 -1.5583 4.11589 0
M  V30 9507 H 878.898 -0.122455 0.726756 0
M  V30 9508 H 881.54 0.38319 1.86096 0
M  V30 9509 H 879.69 -1.33919 3.64689 0
M  V30 9510 H 881.362 1.13713 4.47065 0
M  V30 9511 H 879.605 1.13646 4.18649 0
M  V30 9512 H 880.276 0.188041 5.5168 0
M  V30 9513 H 882.752 -1.03722 4.02965 0
M  V30 9514 H 881.628 -1.79387 5.1876 0
M  V30 9515 H 881.889 -2.53963 3.61877 0
M  V30 9516 N 880.948 -1.576 0.00335426 0
M  V30 9517 C 881.878 -2.11668 -0.985839 0
M  V30 9518 C 882.859 -1.02661 -1.35627 0
M  V30 9519 O 884.044 -1.30361 -1.43943 0
M  V30 9520 C 881.174 -2.62273 -2.27662 0
M  V30 9521 C 880.128 -3.75837 -2.0477 0
M  V30 9522 C 879.454 -4.12769 -3.39891 0
M  V30 9523 C 880.754 -5.02975 -1.40759 0
M  V30 9524 H 882.448 -2.9457 -0.535637 0
M  V30 9525 H 879.994 -1.41702 -0.256204 0
M  V30 9526 H 881.947 -2.98727 -2.97221 0
M  V30 9527 H 880.671 -1.76498 -2.74802 0
M  V30 9528 H 879.33 -3.39782 -1.37636 0
M  V30 9529 H 878.978 -3.24013 -3.8474 0
M  V30 9530 H 878.678 -4.89281 -3.25389 0
M  V30 9531 H 880.202 -4.51784 -4.1076 0
M  V30 9532 H 881.616 -5.37179 -2.00279 0
M  V30 9533 H 880.013 -5.84315 -1.36734 0
M  V30 9534 H 881.083 -4.83431 -0.377218 0
M  V30 9535 N 882.426 0.269451 -1.5528 0
M  V30 9536 C 883.373 1.33316 -1.88403 0
M  V30 9537 C 884.343 1.48909 -0.735881 0
M  V30 9538 O 885.528 1.63259 -0.987479 0
M  V30 9539 C 882.668 2.68778 -2.16454 0
M  V30 9540 C 881.781 2.61377 -3.43956 0
M  V30 9541 C 880.916 3.89042 -3.6169 0
M  V30 9542 C 879.955 3.76166 -4.82872 0
M  V30 9543 N 879.092 4.95673 -4.97245 0
M  V30 9544 H 883.932 1.04368 -2.79126 0
M  V30 9545 H 881.469 0.504147 -1.38191 0
M  V30 9546 H 883.427 3.47599 -2.30719 0
M  V30 9547 H 882.057 2.9592 -1.28961 0
M  V30 9548 H 881.109 1.74247 -3.38145 0
M  V30 9549 H 882.421 2.47764 -4.32914 0
M  V30 9550 H 881.575 4.76304 -3.75791 0
M  V30 9551 H 880.314 4.05526 -2.70924 0
M  V30 9552 H 879.319 2.87287 -4.68771 0
M  V30 9553 H 880.544 3.61198 -5.75077 0
M  V30 9554 H 878.49 5.12561 -4.09411 0
M  V30 9555 H 878.407 4.84605 -5.80254 0
M  V30 9556 H 879.675 5.84498 -5.15735 0
M  V30 9557 N 883.904 1.48273 0.534124 0
M  V30 9558 C 884.814 1.65162 1.66609 0
M  V30 9559 C 885.83 0.534177 1.65598 0
M  V30 9560 O 887.006 0.804715 1.84625 0
M  V30 9561 C 884.071 1.68354 3.03081 0
M  V30 9562 C 883.132 2.91696 3.1498 0
M  V30 9563 C 882.365 2.94725 4.44941 0
M  V30 9564 O 882.588 2.06285 5.31792 0
M  V30 9565 O 881.522 3.8685 4.61119 0
M  V30 9566 H 885.348 2.60991 1.55298 0
M  V30 9567 H 882.933 1.31626 0.706749 0
M  V30 9568 H 884.815 1.72998 3.84252 0
M  V30 9569 H 883.49 0.756978 3.14725 0
M  V30 9570 H 882.397 2.92586 2.33119 0
M  V30 9571 H 883.73 3.83722 3.0825 0
M  V30 9572 N 885.382 -0.782676 1.36792 0
M  V30 9573 C 886.315 -1.90241 1.2603 0
M  V30 9574 C 887.293 -1.61969 0.143055 0
M  V30 9575 O 888.477 -1.85843 0.315366 0
M  V30 9576 C 885.604 -3.25218 0.946082 0
M  V30 9577 C 884.65 -3.72414 2.0787 0
M  V30 9578 S 885.483 -3.87376 3.69729 0
M  V30 9579 C 886.639 -5.25219 3.40435 0
M  V30 9580 H 886.872 -1.99079 2.20805 0
M  V30 9581 H 884.405 -0.942625 1.22286 0
M  V30 9582 H 886.363 -4.03183 0.771612 0
M  V30 9583 H 885.024 -3.14096 0.0159991 0
M  V30 9584 H 884.217 -4.7024 1.81358 0
M  V30 9585 H 883.819 -3.01519 2.21274 0
M  V30 9586 H 886.111 -6.10025 2.94746 0
M  V30 9587 H 887.054 -5.56738 4.37549 0
M  V30 9588 H 887.462 -4.92638 2.75622 0
M  V30 9589 N 886.86 -1.21182 -1.00761 0
M  V30 9590 C 888.106 -1.02898 -1.74756 0
M  V30 9591 C 888.439 0.436774 -1.89225 0
M  V30 9592 O 887.714 1.32415 -1.42466 0
M  V30 9593 C 887.997 -1.72372 -3.16164 0
M  V30 9594 C 887.85 -3.2645 -3.09435 0
M  V30 9595 C 889.169 -1.46415 -4.15031 0
M  V30 9596 H 886.288 -0.375214 -0.634337 0
M  V30 9597 H 888.93 -1.49321 -1.17487 0
M  V30 9598 H 887.08 -1.32906 -3.65059 0
M  V30 9599 H 888.752 -3.75269 -2.68274 0
M  V30 9600 H 886.995 -3.56889 -2.46603 0
M  V30 9601 H 887.666 -3.70226 -4.09435 0
M  V30 9602 H 890.142 -1.80671 -3.7483 0
M  V30 9603 H 889.018 -1.97544 -5.12121 0
M  V30 9604 H 889.279 -0.39361 -4.40344 0
M  V30 9605 N 888.338 1.20213 -1.01915 0
M  V30 9606 C 889.301 2.21307 -0.596327 0
M  V30 9607 C 890.301 1.57274 0.334879 0
M  V30 9608 O 891.491 1.73764 0.12322 0
M  V30 9609 C 888.623 3.40657 0.128808 0
M  V30 9610 H 889.816 2.60228 -1.49068 0
M  V30 9611 H 887.369 1.33721 -0.809226 0
M  V30 9612 H 888.104 3.07241 1.03796 0
M  V30 9613 H 887.889 3.88361 -0.540183 0
M  V30 9614 H 889.379 4.15564 0.411892 0
M  V30 9615 N 889.816 0.795718 1.36037 0
M  V30 9616 C 890.766 0.171437 2.27355 0
M  V30 9617 C 891.75 -0.648346 1.47259 0
M  V30 9618 O 892.942 -0.507386 1.69572 0
M  V30 9619 C 890.071 -0.687876 3.36338 0
M  V30 9620 C 889.157 0.141041 4.23865 0
M  V30 9621 N 889.548 1.19868 4.91391 0
M  V30 9622 C 887.846 -0.0791045 4.4593 0
M  V30 9623 C 888.547 1.70382 5.56188 0
M  V30 9624 N 887.523 1.01202 5.34097 0
M  V30 9625 H 891.325 0.980846 2.7705 0
M  V30 9626 H 888.839 0.635798 1.49437 0
M  V30 9627 H 890.836 -1.15107 4.00694 0
M  V30 9628 H 889.496 -1.49576 2.88196 0
M  V30 9629 H 890.507 1.58119 4.93172 0
M  V30 9630 H 887.184 -0.856993 4.0861 0
M  V30 9631 H 888.574 2.58715 6.20093 0
M  V30 9632 N 891.294 -1.47756 0.548274 0
M  V30 9633 C 892.242 -2.3158 -0.217584 0
M  V30 9634 C 893.236 -1.42372 -0.917957 0
M  V30 9635 O 894.442 -1.59184 -0.840259 0
M  V30 9636 H 890.817 -0.74671 -0.0890388 0
M  V30 9637 H 892.788 -2.94032 0.508719 0
M  V30 9638 C 891.537 -3.24834 -1.24008 0
M  V30 9639 H 890.86 -3.93435 -0.710572 0
M  V30 9640 H 892.3 -3.86336 -1.74701 0
M  V30 9641 C 890.759 -2.47724 -2.2833 0
M  V30 9642 O 891.289 -2.21522 -3.35098 0
M  V30 9643 N 889.495 -2.08891 -2.02022 0
M  V30 9644 H 889.042 -2.30401 -1.1521 0
M  V30 9645 H 889 -1.57613 -2.7204 0
M  V30 9646 N 892.772 -0.284283 -1.55015 0
M  V30 9647 C 894.002 0.332465 -2.03907 0
M  V30 9648 C 894.41 1.49331 -1.16177 0
M  V30 9649 O 893.753 1.82851 -0.176395 0
M  V30 9650 C 893.815 0.867193 -3.48884 0
M  V30 9651 C 893.479 -0.166198 -4.56698 0
M  V30 9652 C 894.476 -0.988898 -5.10408 0
M  V30 9653 C 892.161 -0.303081 -5.01385 0
M  V30 9654 C 894.155 -1.93458 -6.07333 0
M  V30 9655 C 891.842 -1.25223 -5.98133 0
M  V30 9656 C 892.84 -2.06647 -6.50988 0
M  V30 9657 O 892.528 -2.99955 -7.45843 0
M  V30 9658 H 892.26 0.0786597 -0.671408 0
M  V30 9659 H 894.814 -0.416871 -2.01125 0
M  V30 9660 H 893.044 1.66676 -3.48935 0
M  V30 9661 H 894.733 1.39802 -3.81065 0
M  V30 9662 H 895.499 -0.89393 -4.76691 0
M  V30 9663 H 891.378 0.320711 -4.59883 0
M  V30 9664 H 894.922 -2.57053 -6.48513 0
M  V30 9665 H 890.819 -1.34798 -6.31268 0
M  V30 9666 H 891.587 -2.94742 -7.6359 0
M  V30 9667 N 894.251 1.57596 -0.0117121 0
M  V30 9668 C 895.528 1.82323 0.708356 0
M  V30 9669 C 895.908 0.891947 1.91331 0
M  V30 9670 O 895.256 -0.0565984 2.2843 0
M  V30 9671 C 895.466 3.31111 1.10303 0
M  V30 9672 C 896.814 3.97147 1.50199 0
M  V30 9673 O 897.838 3.35503 1.1965 0
M  V30 9674 O 896.697 5.0576 2.07049 0
M  V30 9675 H 893.791 0.751173 0.345931 0
M  V30 9676 H 896.337 1.69657 -0.0380632 0
M  V30 9677 H 895.109 3.90534 0.24467 0
M  V30 9678 H 894.732 3.48818 1.90818 0
M  V30 9679 N 895.729 -0.261212 1.5542 0
M  V30 9680 C 897.145 -0.609012 1.47524 0
M  V30 9681 C 897.345 -1.88986 0.699042 0
M  V30 9682 O 896.401 -2.51517 0.222628 0
M  V30 9683 C 897.714 -0.725025 2.91828 0
M  V30 9684 C 899.262 -0.818302 3.02114 0
M  V30 9685 C 899.737 -0.965996 4.47697 0
M  V30 9686 N 901.228 -1.03123 4.51575 0
M  V30 9687 C 901.963 -1.16451 5.6145 0
M  V30 9688 N 901.459 -1.26425 6.81167 0
M  V30 9689 N 903.252 -1.19655 5.49217 0
M  V30 9690 H 895.403 0.579807 2.04333 0
M  V30 9691 H 897.666 0.198072 0.927077 0
M  V30 9692 H 897.372 0.145871 3.51397 0
M  V30 9693 H 897.246 -1.60156 3.41511 0
M  V30 9694 H 899.633 -1.67966 2.42634 0
M  V30 9695 H 899.714 0.0830895 2.55665 0
M  V30 9696 H 899.358 -0.109251 5.07782 0
M  V30 9697 H 899.288 -1.88221 4.91813 0
M  V30 9698 H 901.779 -0.966072 3.65343 0
M  V30 9699 H 902.092 -1.36462 7.60656 0
M  V30 9700 H 900.437 -1.23408 6.83956 0
M  V30 9701 H 903.628 -1.11501 4.54626 0
M  V30 9702 H 903.801 -1.29698 6.34888 0
M  V30 9703 N 897.207 -1.48554 -0.526253 0
M  V30 9704 C 898.454 -1.56761 -1.28188 0
M  V30 9705 C 898.782 -0.24315 -1.92974 0
M  V30 9706 O 898.037 0.766883 -1.80048 0
M  V30 9707 C 898.336 -2.65739 -2.38993 0
M  V30 9708 C 898.002 -4.08057 -1.91834 0
M  V30 9709 C 896.664 -4.46792 -1.78691 0
M  V30 9710 C 899.016 -4.9723 -1.56242 0
M  V30 9711 C 896.344 -5.72501 -1.28296 0
M  V30 9712 C 898.696 -6.23432 -1.07309 0
M  V30 9713 C 897.36 -6.6102 -0.927853 0
M  V30 9714 H 896.63 -0.573631 -0.469072 0
M  V30 9715 H 899.277 -1.82287 -0.586842 0
M  V30 9716 H 897.582 -2.34088 -3.14181 0
M  V30 9717 H 899.279 -2.69304 -2.97113 0
M  V30 9718 H 895.869 -3.77469 -2.03016 0
M  V30 9719 H 900.053 -4.67979 -1.65255 0
M  V30 9720 H 895.309 -6.00345 -1.15742 0
M  V30 9721 H 899.483 -6.91923 -0.788412 0
M  V30 9722 H 897.11 -7.58314 -0.535162 0
M  V30 9723 N 898.685 0.775411 -1.37205 0
M  V30 9724 C 899.91 1.5696 -1.35567 0
M  V30 9725 C 900.335 1.88012 0.0575554 0
M  V30 9726 O 899.693 1.48954 1.03355 0
M  V30 9727 C 899.741 2.85886 -2.19776 0
M  V30 9728 O 898.845 3.80103 -1.59987 0
M  V30 9729 H 898.186 0.475583 -0.463375 0
M  V30 9730 H 900.716 0.96001 -1.80679 0
M  V30 9731 H 900.726 3.35024 -2.32859 0
M  V30 9732 H 899.401 2.62613 -3.22502 0
M  V30 9733 H 897.978 3.38736 -1.55924 0
M  V30 9734 N 900.163 1.21714 1.00117 0
M  V30 9735 C 901.579 0.97532 1.26332 0
M  V30 9736 C 901.779 -0.336029 1.98678 0
M  V30 9737 O 900.835 -1.06073 2.29139 0
M  V30 9738 C 902.148 2.16848 2.0832 0
M  V30 9739 C 903.696 2.21115 2.21533 0
M  V30 9740 C 904.171 3.3996 3.06906 0
M  V30 9741 N 905.662 3.40071 3.14494 0
M  V30 9742 C 906.397 4.28678 3.80818 0
M  V30 9743 N 905.893 5.2749 4.49139 0
M  V30 9744 N 907.686 4.16476 3.77497 0
M  V30 9745 H 899.837 2.06039 0.515897 0
M  V30 9746 H 902.1 0.902423 0.290408 0
M  V30 9747 H 901.806 3.119 1.62515 0
M  V30 9748 H 901.68 2.16226 3.09073 0
M  V30 9749 H 904.067 1.26616 2.66557 0
M  V30 9750 H 904.148 2.2578 1.20238 0
M  V30 9751 H 903.792 4.34755 2.62585 0
M  V30 9752 H 903.722 3.32534 4.08324 0
M  V30 9753 H 906.213 2.68563 2.65861 0
M  V30 9754 H 906.526 5.91397 4.97463 0
M  V30 9755 H 904.871 5.31412 4.47914 0
M  V30 9756 H 908.062 3.38539 3.23278 0
M  V30 9757 H 908.235 4.85739 4.28908 0
M  V30 9758 N 901.641 -1.19671 1.02551 0
M  V30 9759 C 902.866 -1.93774 0.739363 0
M  V30 9760 C 903.291 -1.74787 -0.695064 0
M  V30 9761 O 902.649 -1.04796 -1.47944 0
M  V30 9762 C 902.697 -3.43684 1.09149 0
M  V30 9763 O 901.801 -4.11874 0.208213 0
M  V30 9764 H 901.142 -0.605064 0.273484 0
M  V30 9765 H 903.672 -1.51846 1.37128 0
M  V30 9766 H 903.682 -3.94339 1.04695 0
M  V30 9767 H 902.357 -3.56826 2.13654 0
M  V30 9768 H 900.934 -3.716 0.311045 0
M  V30 9769 N 903.119 -0.802921 -1.35613 0
M  V30 9770 C 904.367 -0.380822 -1.9848 0
M  V30 9771 C 904.688 1.05464 -1.6402 0
M  V30 9772 O 903.958 1.72908 -0.920854 0
M  V30 9773 H 902.538 -0.137824 -0.734176 0
M  V30 9774 H 905.2 -1.02795 -1.65587 0
M  V30 9775 H 904.296 -0.483565 -3.08331 0
M  V30 9776 N 904.597 1.47463 -0.556102 0
M  V30 9777 C 905.822 2.07371 -0.0344729 0
M  V30 9778 C 906.247 1.40621 1.2493 0
M  V30 9779 O 905.605 0.48082 1.74808 0
M  V30 9780 C 905.653 3.60306 0.145563 0
M  V30 9781 O 904.757 3.94299 1.20839 0
M  V30 9782 H 904.098 0.662052 -0.0508274 0
M  V30 9783 H 906.628 1.89498 -0.771469 0
M  V30 9784 H 906.638 4.06408 0.360112 0
M  V30 9785 H 905.313 4.08288 -0.792089 0
M  V30 9786 H 903.89 3.59944 0.97442 0
M  V30 9787 N 906.075 0.2925 1.54862 0
M  V30 9788 C 907.3 -0.32494 2.04839 0
M  V30 9789 C 907.725 -1.47381 1.16877 0
M  V30 9790 O 907.083 -1.80492 0.171028 0
M  V30 9791 C 907.131 -0.76694 3.5235 0
M  V30 9792 O 906.235 -1.87256 3.67436 0
M  V30 9793 H 905.576 -0.0645195 0.660858 0
M  V30 9794 H 908.106 0.431867 1.9999 0
M  V30 9795 H 908.116 -1.05804 3.94043 0
M  V30 9796 H 906.791 0.0735212 4.15835 0
M  V30 9797 H 905.368 -1.58266 3.37648 0
M  V30 9798 N 907.553 -1.57587 0.0200696 0
M  V30 9799 C 908.778 -1.96124 -0.674547 0
M  V30 9800 C 909.203 -0.896068 -1.65385 0
M  V30 9801 O 908.561 0.143925 -1.80728 0
M  V30 9802 C 908.609 -3.3376 -1.36517 0
M  V30 9803 O 907.713 -3.29483 -2.48022 0
M  V30 9804 H 907.054 -0.639719 -0.177919 0
M  V30 9805 H 909.584 -2.04447 0.0792317 0
M  V30 9806 H 909.594 -3.69785 -1.72403 0
M  V30 9807 H 908.269 -4.10832 -0.647265 0
M  V30 9808 H 906.846 -3.05162 -2.14314 0
M  V30 9809 N 909.032 0.252966 -1.55557 0
M  V30 9810 C 909.995 1.29645 -1.8901 0
M  V30 9811 C 910.995 1.41378 -0.766096 0
M  V30 9812 O 912.185 1.40183 -1.03414 0
M  V30 9813 C 909.317 2.67504 -2.11316 0
M  V30 9814 H 910.51 1.01202 -2.82309 0
M  V30 9815 H 908.063 0.491977 -1.48355 0
M  V30 9816 H 908.798 3.01095 -1.20466 0
M  V30 9817 H 908.583 2.6037 -2.93172 0
M  V30 9818 H 910.073 3.42861 -2.38403 0
M  V30 9819 N 910.51 1.48831 0.518367 0
M  V30 9820 C 911.74 1.60886 1.29612 0
M  V30 9821 C 912.148 0.272713 1.87224 0
M  V30 9822 O 911.491 -0.749653 1.67708 0
M  V30 9823 C 911.553 2.60541 2.47707 0
M  V30 9824 C 911.217 4.05324 2.11095 0
M  V30 9825 C 912.214 4.92658 1.66084 0
M  V30 9826 C 909.899 4.50942 2.21262 0
M  V30 9827 C 911.893 6.23641 1.3172 0
M  V30 9828 C 909.58 5.81943 1.8651 0
M  V30 9829 C 910.578 6.68116 1.41812 0
M  V30 9830 O 910.266 7.96677 1.07522 0
M  V30 9831 H 909.998 0.544968 0.399982 0
M  V30 9832 H 912.552 1.95474 0.630799 0
M  V30 9833 H 910.782 2.21098 3.17258 0
M  V30 9834 H 912.471 2.62308 3.09757 0
M  V30 9835 H 913.237 4.58649 1.5769 0
M  V30 9836 H 909.116 3.84048 2.55007 0
M  V30 9837 H 912.66 6.90857 0.967598 0
M  V30 9838 H 908.557 6.15484 1.94549 0
M  V30 9839 H 909.325 8.09534 1.2082 0
M  V30 9840 N 911.988 -0.768124 1.37614 0
M  V30 9841 C 913.216 -1.55726 1.36224 0
M  V30 9842 C 913.631 -1.8873 -0.0515357 0
M  V30 9843 O 912.988 -1.51718 -1.0143 0
M  V30 9844 C 913.039 -2.86533 2.20412 0
M  V30 9845 O 912.76 -2.54942 3.56281 0
M  V30 9846 C 914.261 -3.80745 2.27041 0
M  V30 9847 H 911.481 -0.482325 0.46648 0
M  V30 9848 H 914.025 -0.95176 1.81002 0
M  V30 9849 H 912.18 -3.43496 1.79134 0
M  V30 9850 H 912.594 -3.38732 4.00451 0
M  V30 9851 H 914.068 -4.69523 2.90263 0
M  V30 9852 H 914.545 -4.20138 1.27987 0
M  V30 9853 H 915.151 -3.2971 2.68647 0
M  V30 9854 N 913.466 -1.22244 -0.994698 0
M  V30 9855 C 914.714 -1.04384 -1.73056 0
M  V30 9856 C 915.035 0.422204 -1.90374 0
M  V30 9857 O 914.305 1.30383 -1.46209 0
M  V30 9858 H 912.885 -0.383263 -0.641185 0
M  V30 9859 H 915.547 -1.53725 -1.1981 0
M  V30 9860 H 914.643 -1.52021 -2.72573 0
M  V30 9861 N 914.944 1.19125 -1.03184 0
M  V30 9862 C 916.174 1.92558 -0.748663 0
M  V30 9863 C 916.582 1.759 0.696837 0
M  V30 9864 O 915.925 1.08019 1.48585 0
M  V30 9865 C 915.987 3.4461 -1.02391 0
M  V30 9866 C 915.651 3.85041 -2.46155 0
M  V30 9867 C 916.648 3.89554 -3.44302 0
M  V30 9868 C 914.333 4.16594 -2.80633 0
M  V30 9869 C 916.327 4.25055 -4.74981 0
M  V30 9870 C 914.014 4.51767 -4.11521 0
M  V30 9871 C 915.012 4.55972 -5.08506 0
M  V30 9872 O 914.7 4.9033 -6.37049 0
M  V30 9873 H 914.432 0.618397 -0.273059 0
M  V30 9874 H 916.986 1.52122 -1.38015 0
M  V30 9875 H 915.216 3.85244 -0.335284 0
M  V30 9876 H 916.905 3.99283 -0.729927 0
M  V30 9877 H 917.671 3.65324 -3.19003 0
M  V30 9878 H 913.55 4.12503 -2.05821 0
M  V30 9879 H 917.094 4.28252 -5.50678 0
M  V30 9880 H 912.991 4.75455 -4.36592 0
M  V30 9881 H 913.759 5.08266 -6.41566 0
M  V30 9882 N 916.422 0.810101 1.35185 0
M  V30 9883 C 917.671 0.388589 1.97921 0
M  V30 9884 C 917.984 -1.05079 1.64978 0
M  V30 9885 O 919.19 -1.57559 2.21105 0
M  V30 9886 C 917.646 0.643864 3.54094 0
M  V30 9887 C 917.254 2.09602 3.95943 0
M  V30 9888 C 918.998 0.287883 4.23523 0
M  V30 9889 C 916.905 2.29686 5.44976 0
M  V30 9890 H 915.835 0.141562 0.740592 0
M  V30 9891 H 918.486 0.994653 1.54204 0
M  V30 9892 H 916.868 -0.0321978 3.95987 0
M  V30 9893 H 918.042 2.81018 3.65192 0
M  V30 9894 H 916.357 2.4122 3.39414 0
M  V30 9895 H 918.954 0.415946 5.3308 0
M  V30 9896 H 919.297 -0.766305 4.09186 0
M  V30 9897 H 919.83 0.918004 3.87063 0
M  V30 9898 H 916.569 3.33563 5.64284 0
M  V30 9899 H 916.089 1.62798 5.77284 0
M  V30 9900 H 917.768 2.11411 6.11485 0
M  V30 9901 N 917.9 -1.47166 0.563914 0
M  V30 9902 C 918.81 -2.33885 -0.182977 0
M  V30 9903 C 919.826 -1.48605 -0.905132 0
M  V30 9904 O 921.002 -1.81518 -0.872527 0
M  V30 9905 C 918.067 -3.25433 -1.19558 0
M  V30 9906 C 917.128 -4.26607 -0.480129 0
M  V30 9907 C 916.361 -5.1378 -1.44449 0
M  V30 9908 O 916.584 -5.03531 -2.67979 0
M  V30 9909 O 915.518 -5.94109 -0.965321 0
M  V30 9910 H 919.344 -2.99065 0.528544 0
M  V30 9911 H 916.929 -1.45834 0.324468 0
M  V30 9912 H 918.811 -3.81964 -1.77993 0
M  V30 9913 H 917.486 -2.62873 -1.8889 0
M  V30 9914 H 916.393 -3.73817 0.145583 0
M  V30 9915 H 917.726 -4.919 0.171868 0
M  V30 9916 N 919.378 -0.300708 -1.54705 0
M  V30 9917 C 920.794 0.0526874 -1.59513 0
M  V30 9918 C 920.994 1.52444 -1.31769 0
M  V30 9919 O 920.05 2.27716 -1.09096 0
M  V30 9920 C 921.363 -0.344989 -2.98714 0
M  V30 9921 C 922.911 -0.29373 -3.11619 0
M  V30 9922 C 923.386 -0.666225 -4.53129 0
M  V30 9923 N 924.877 -0.618749 -4.59049 0
M  V30 9924 C 925.612 -0.879447 -5.66616 0
M  V30 9925 N 925.108 -1.2061 -6.82221 0
M  V30 9926 N 926.901 -0.806528 -5.56284 0
M  V30 9927 H 919.052 -1.25988 -1.71 0
M  V30 9928 H 921.315 -0.510758 -0.798643 0
M  V30 9929 H 921.021 -1.36953 -3.2394 0
M  V30 9930 H 920.895 0.301507 -3.75993 0
M  V30 9931 H 923.282 0.72156 -2.86142 0
M  V30 9932 H 923.363 -0.974844 -2.36496 0
M  V30 9933 H 923.007 -1.67932 -4.79334 0
M  V30 9934 H 922.937 0.0369575 -5.26587 0
M  V30 9935 H 925.428 -0.377202 -3.76013 0
M  V30 9936 H 925.741 -1.391 -7.60178 0
M  V30 9937 H 924.086 -1.24413 -6.83774 0
M  V30 9938 H 927.277 -0.550993 -4.64846 0
M  V30 9939 H 927.45 -1.01307 -6.40032 0
M  V30 9940 N 920.856 1.57574 -0.0284266 0
M  V30 9941 C 922.081 1.96479 0.664137 0
M  V30 9942 C 922.506 0.904826 1.64908 0
M  V30 9943 O 921.864 -0.134339 1.80802 0
M  V30 9944 C 921.912 3.34479 1.34745 0
M  V30 9945 O 921.016 3.30794 2.46271 0
M  V30 9946 H 920.357 0.640654 0.174524 0
M  V30 9947 H 922.887 2.04402 -0.0900729 0
M  V30 9948 H 922.897 3.70694 1.7044 0
M  V30 9949 H 921.572 4.1117 0.625468 0
M  V30 9950 H 920.149 3.06294 2.12693 0
M  V30 9951 N 922.334 -0.244713 1.55689 0
M  V30 9952 C 923.745 -0.813603 1.6804 0
M  V30 9953 C 924.096 -1.85936 0.626281 0
M  V30 9954 O 923.221 -2.15206 -0.227038 0
M  V30 9955 C 923.816 -1.48252 3.04642 0
M  V30 9956 C 922.375 -1.99908 3.18926 0
M  V30 9957 C 921.522 -0.850958 2.6392 0
M  V30 9958 H 924.473 -0.0204805 1.58687 0
M  V30 9959 H 924.494 -2.35062 2.99209 0
M  V30 9960 H 924.006 -0.721164 3.81341 0
M  V30 9961 H 922.107 -2.78918 2.47054 0
M  V30 9962 H 922.22 -2.19497 4.25862 0
M  V30 9963 H 920.584 -1.25206 2.21801 0
M  V30 9964 H 921.367 -0.10265 3.43146 0
M  V30 9965 N 923.813 -1.49104 -0.510467 0
M  V30 9966 C 925.229 -1.35657 -0.840797 0
M  V30 9967 C 925.429 -0.382425 -1.97838 0
M  V30 9968 O 924.485 0.189331 -2.51789 0
M  V30 9969 C 925.798 -2.76155 -1.18992 0
M  V30 9970 C 927.346 -2.84786 -1.29868 0
M  V30 9971 C 927.821 -4.2603 -1.68115 0
M  V30 9972 N 929.312 -4.28796 -1.75181 0
M  V30 9973 C 930.047 -5.35041 -2.062 0
M  V30 9974 N 929.543 -6.51543 -2.35508 0
M  V30 9975 N 931.336 -5.2245 -2.07371 0
M  V30 9976 H 923.487 -2.11042 0.23982 0
M  V30 9977 H 925.75 -0.946946 0.0446824 0
M  V30 9978 H 925.456 -3.49092 -0.427484 0
M  V30 9979 H 925.33 -3.10922 -2.13558 0
M  V30 9980 H 927.717 -2.12092 -2.05186 0
M  V30 9981 H 927.798 -2.53613 -0.333758 0
M  V30 9982 H 927.442 -4.99247 -0.933512 0
M  V30 9983 H 927.372 -4.5466 -2.65691 0
M  V30 9984 H 929.863 -3.44771 -1.5473 0
M  V30 9985 H 930.176 -7.28342 -2.58337 0
M  V30 9986 H 928.521 -6.54785 -2.32985 0
M  V30 9987 H 931.712 -4.30444 -1.83945 0
M  V30 9988 H 931.885 -6.05347 -2.31212 0
M  V30 9989 N 925.291 0.760815 -1.38019 0
M  V30 9990 C 926.516 1.55513 -1.37224 0
M  V30 9991 C 926.941 1.88062 0.037611 0
M  V30 9992 O 926.299 1.50042 1.0177 0
M  V30 9993 C 926.347 2.83539 -2.22796 0
M  V30 9994 O 925.451 3.78384 -1.64009 0
M  V30 9995 H 924.792 0.470642 -0.468393 0
M  V30 9996 H 927.322 0.940792 -1.81687 0
M  V30 9997 H 927.332 3.32535 -2.36399 0
M  V30 9998 H 926.007 2.59178 -3.25269 0
M  V30 9999 H 924.584 3.37063 -1.59508 0
M  V30 10000 N 926.769 1.22769 0.988202 0
M  V30 10001 C 927.732 1.00325 2.06076 0
M  V30 10002 C 928.732 -0.0320618 1.60768 0
M  V30 10003 O 929.922 0.206912 1.72967 0
M  V30 10004 C 927.054 0.516376 3.36966 0
M  V30 10005 H 928.247 1.95499 2.27421 0
M  V30 10006 H 925.8 1.04704 1.16047 0
M  V30 10007 H 926.535 -0.439498 3.21308 0
M  V30 10008 H 926.32 1.26337 3.71189 0
M  V30 10009 H 927.81 0.37974 4.1587 0
M  V30 10010 N 928.247 -1.18576 1.03814 0
M  V30 10011 C 929.472 -1.92978 0.759873 0
M  V30 10012 C 929.897 -1.75514 -0.676486 0
M  V30 10013 O 929.255 -1.06359 -1.46824 0
M  V30 10014 C 929.303 -3.42507 1.12788 0
M  V30 10015 O 928.407 -4.1163 0.251886 0
M  V30 10016 H 927.748 -0.602129 0.279886 0
M  V30 10017 H 930.278 -1.50383 1.3873 0
M  V30 10018 H 930.288 -3.93206 1.08872 0
M  V30 10019 H 928.963 -3.5454 2.17427 0
M  V30 10020 H 927.54 -3.7125 0.350441 0
M  V30 10021 N 929.725 -0.817259 -1.34754 0
M  V30 10022 C 930.953 -0.415451 -2.02686 0
M  V30 10023 C 931.368 0.97688 -1.61563 0
M  V30 10024 O 930.725 1.63125 -0.818321 0
M  V30 10025 C 930.776 -0.501486 -3.58005 0
M  V30 10026 O 930.497 -1.83893 -3.97637 0
M  V30 10027 C 931.998 -0.0938504 -4.43201 0
M  V30 10028 H 929.218 -0.16742 -0.649778 0
M  V30 10029 H 931.762 -1.10384 -1.7215 0
M  V30 10030 H 929.917 0.138766 -3.87151 0
M  V30 10031 H 930.331 -1.8092 -4.92309 0
M  V30 10032 H 931.805 -0.205145 -5.51619 0
M  V30 10033 H 932.282 0.962011 -4.28535 0
M  V30 10034 H 932.888 -0.707677 -4.19371 0
M  V30 10035 N 931.203 1.46865 -0.571711 0
M  V30 10036 C 932.433 2.06518 -0.0583129 0
M  V30 10037 C 932.841 1.4227 1.24723 0
M  V30 10038 O 932.184 0.518293 1.76237 0
M  V30 10039 C 932.246 3.5898 0.193214 0
M  V30 10040 C 931.91 4.45355 -1.02507 0
M  V30 10041 C 932.907 4.82575 -1.93435 0
M  V30 10042 C 930.592 4.86656 -1.24382 0
M  V30 10043 C 932.586 5.59912 -3.04595 0
M  V30 10044 C 930.273 5.63754 -2.35849 0
M  V30 10045 C 931.271 6.00294 -3.25785 0
M  V30 10046 O 930.959 6.75836 -4.35318 0
M  V30 10047 H 930.691 0.674188 -0.0494584 0
M  V30 10048 H 933.245 1.89644 -0.788934 0
M  V30 10049 H 931.475 3.7412 0.978319 0
M  V30 10050 H 933.164 4.006 0.653769 0
M  V30 10051 H 933.93 4.51256 -1.77745 0
M  V30 10052 H 929.809 4.57672 -0.55292 0
M  V30 10053 H 933.353 5.88351 -3.74818 0
M  V30 10054 H 929.25 5.94487 -2.51506 0
M  V30 10055 H 930.018 6.94247 -4.33547 0
M  V30 10056 N 932.681 0.308908 1.54543 0
M  V30 10057 C 933.906 -0.303196 2.05172 0
M  V30 10058 C 934.331 -1.46133 1.18434 0
M  V30 10059 O 933.689 -1.803 0.190162 0
M  V30 10060 C 933.737 -0.729526 3.53143 0
M  V30 10061 O 932.841 -1.83348 3.69401 0
M  V30 10062 H 932.182 -0.0575066 0.661505 0
M  V30 10063 H 934.712 0.453055 1.99521 0
M  V30 10064 H 934.722 -1.01619 3.95143 0
M  V30 10065 H 933.397 0.117622 4.15734 0
M  V30 10066 H 931.974 -1.54676 3.39308 0
M  V30 10067 N 934.159 -1.57557 0.0367827 0
M  V30 10068 C 935.089 -2.13712 -0.940719 0
M  V30 10069 C 936.07 -1.05515 -1.33419 0
M  V30 10070 O 937.255 -1.33385 -1.41146 0
M  V30 10071 C 934.385 -2.67043 -2.22048 0
M  V30 10072 C 933.339 -3.80096 -1.96752 0
M  V30 10073 C 932.665 -4.19886 -3.31059 0
M  V30 10074 C 933.965 -5.05848 -1.30058 0
M  V30 10075 H 935.659 -2.9564 -0.473033 0
M  V30 10076 H 933.205 -1.42214 -0.226089 0
M  V30 10077 H 935.158 -3.04964 -2.90818 0
M  V30 10078 H 933.882 -1.82287 -2.70996 0
M  V30 10079 H 932.541 -3.42625 -1.30398 0
M  V30 10080 H 932.189 -3.32101 -3.77781 0
M  V30 10081 H 931.889 -4.96073 -3.14937 0
M  V30 10082 H 933.413 -4.60395 -4.01084 0
M  V30 10083 H 934.827 -5.41306 -1.8884 0
M  V30 10084 H 933.224 -5.87084 -1.24309 0
M  V30 10085 H 934.294 -4.84122 -0.274591 0
M  V30 10086 N 935.637 0.236453 -1.55816 0
M  V30 10087 C 936.914 0.986463 -1.68903 0
M  V30 10088 C 937.294 2.02984 -0.579722 0
M  V30 10089 O 936.642 2.24693 0.415389 0
M  V30 10090 C 936.852 1.61038 -3.09625 0
M  V30 10091 C 938.2 2.10829 -3.6856 0
M  V30 10092 O 939.224 1.7096 -3.12492 0
M  V30 10093 O 938.083 2.84064 -4.66873 0
M  V30 10094 H 935.177 0.459837 -0.687371 0
M  V30 10095 H 937.723 0.229412 -1.68142 0
M  V30 10096 H 936.495 0.856232 -3.81817 0
M  V30 10097 H 936.118 2.43336 -3.14441 0
M  V30 10098 N 937.115 1.49373 0.502552 0
M  V30 10099 C 938.364 1.58028 1.25339 0
M  V30 10100 C 938.677 0.271494 1.93707 0
M  V30 10101 O 939.883 0.236584 2.70467 0
M  V30 10102 C 938.339 2.78817 2.27572 0
M  V30 10103 C 937.947 4.16448 1.65151 0
M  V30 10104 C 939.691 2.96802 3.03494 0
M  V30 10105 C 937.598 5.28461 2.65486 0
M  V30 10106 H 936.528 0.588396 0.471494 0
M  V30 10107 H 939.179 1.75756 0.52744 0
M  V30 10108 H 937.561 2.5458 3.03323 0
M  V30 10109 H 938.735 4.50816 0.954029 0
M  V30 10110 H 937.05 4.03809 1.01625 0
M  V30 10111 H 939.647 3.77656 3.78524 0
M  V30 10112 H 939.99 2.07303 3.61014 0
M  V30 10113 H 940.523 3.21071 2.34858 0
M  V30 10114 H 937.262 6.20015 2.12749 0
M  V30 10115 H 936.782 4.9855 3.33479 0
M  V30 10116 H 938.461 5.5773 3.27943 0
M  V30 10117 N 938.594 -0.753485 1.38421 0
M  V30 10118 C 939.524 -1.8808 1.38377 0
M  V30 10119 C 940.505 -1.68258 0.249664 0
M  V30 10120 O 941.69 -1.88848 0.45276 0
M  V30 10121 C 938.82 -3.25608 1.20818 0
M  V30 10122 C 937.774 -3.60032 2.31433 0
M  V30 10123 C 937.1 -4.96297 1.9898 0
M  V30 10124 C 938.4 -3.64898 3.73694 0
M  V30 10125 H 940.094 -1.88375 2.32713 0
M  V30 10126 H 937.64 -0.90489 1.12017 0
M  V30 10127 H 939.593 -4.04127 1.19412 0
M  V30 10128 H 938.317 -3.25793 0.229433 0
M  V30 10129 H 936.976 -2.83831 2.32025 0
M  V30 10130 H 936.624 -4.93043 0.995889 0
M  V30 10131 H 936.324 -5.20298 2.73063 0
M  V30 10132 H 937.848 -5.77196 1.99193 0
M  V30 10133 H 939.262 -4.33531 3.75132 0
M  V30 10134 H 937.659 -4.00407 4.46983 0
M  V30 10135 H 938.729 -2.65124 4.06002 0
M  V30 10136 N 940.072 -1.23292 -0.981677 0
M  V30 10137 C 941.302 -1.0893 -1.7555 0
M  V30 10138 C 941.71 0.362219 -1.857 0
M  V30 10139 O 941.053 1.2624 -1.33451 0
M  V30 10140 C 941.115 -1.6389 -3.19969 0
M  V30 10141 C 940.779 -3.12632 -3.33332 0
M  V30 10142 C 941.776 -4.0994 -3.19758 0
M  V30 10143 C 939.461 -3.52314 -3.58022 0
M  V30 10144 C 941.455 -5.44915 -3.30676 0
M  V30 10145 C 939.142 -4.87434 -3.6858 0
M  V30 10146 C 940.14 -5.83544 -3.54916 0
M  V30 10147 O 939.828 -7.16209 -3.65102 0
M  V30 10148 H 939.56 -0.381901 -0.557788 0
M  V30 10149 H 942.114 -1.63586 -1.24213 0
M  V30 10150 H 940.344 -1.03653 -3.72549 0
M  V30 10151 H 942.033 -1.45023 -3.79108 0
M  V30 10152 H 942.799 -3.80625 -3.00582 0
M  V30 10153 H 938.678 -2.78022 -3.67729 0
M  V30 10154 H 942.222 -6.19913 -3.19928 0
M  V30 10155 H 938.119 -5.16426 -3.87265 0
M  V30 10156 H 938.887 -7.23941 -3.81905 0
M  V30 10157 N 941.55 1.18024 -1.04442 0
M  V30 10158 C 942.775 1.92573 -0.770097 0
M  V30 10159 C 943.2 1.75871 0.667169 0
M  V30 10160 O 942.558 1.07136 1.46258 0
M  V30 10161 C 942.606 3.41904 -1.14602 0
M  V30 10162 O 941.71 4.11491 -0.273712 0
M  V30 10163 H 941.051 0.600636 -0.283076 0
M  V30 10164 H 943.581 1.49645 -1.39526 0
M  V30 10165 H 943.591 3.92623 -1.10956 0
M  V30 10166 H 942.266 3.53382 -2.19304 0
M  V30 10167 H 940.843 3.71059 -0.370124 0
M  V30 10168 N 943.028 0.824394 1.34319 0
M  V30 10169 C 944.276 0.41235 1.97849 0
M  V30 10170 C 944.597 -1.02841 1.65677 0
M  V30 10171 O 943.867 -1.71421 0.948245 0
M  V30 10172 H 942.447 0.149486 0.73189 0
M  V30 10173 H 945.109 1.05416 1.63931 0
M  V30 10174 H 944.205 0.532557 3.07523 0
M  V30 10175 N 944.506 -1.46559 0.579492 0
M  V30 10176 C 945.731 -2.0729 0.0674595 0
M  V30 10177 C 946.156 -1.4259 -1.22677 0
M  V30 10178 O 945.514 -0.50857 -1.74021 0
M  V30 10179 C 945.562 -3.60492 -0.0882227 0
M  V30 10180 O 944.666 -3.96172 -1.14551 0
M  V30 10181 H 944.007 -0.661159 0.0613536 0
M  V30 10182 H 946.537 -1.88247 0.801519 0
M  V30 10183 H 946.547 -4.06929 -0.295411 0
M  V30 10184 H 945.222 -4.06976 0.856943 0
M  V30 10185 H 943.799 -3.61448 -0.917033 0
M  V30 10186 N 945.984 -0.3171 -1.54377 0
M  V30 10187 C 947.232 0.286842 -2.00054 0
M  V30 10188 C 947.553 1.53161 -1.20692 0
M  V30 10189 O 946.823 1.93479 -0.307045 0
M  V30 10190 H 945.403 0.108979 -0.739008 0
M  V30 10191 H 948.065 -0.432152 -1.90049 0
M  V30 10192 H 947.161 0.547729 -3.07256 0
M  V30 10193 N 947.462 1.57535 -0.0451378 0
M  V30 10194 C 948.711 1.91628 0.629415 0
M  V30 10195 C 949.024 0.924754 1.72359 0
M  V30 10196 O 950.23 1.15751 2.45589 0
M  V30 10197 C 948.686 3.40322 1.17084 0
M  V30 10198 C 948.294 4.47867 0.109101 0
M  V30 10199 C 950.038 3.83458 1.82099 0
M  V30 10200 C 947.945 5.87671 0.663072 0
M  V30 10201 H 946.875 0.715163 0.238868 0
M  V30 10202 H 949.526 1.83151 -0.113046 0
M  V30 10203 H 947.908 3.43783 1.96543 0
M  V30 10204 H 949.082 4.55988 -0.664201 0
M  V30 10205 H 947.397 4.14034 -0.443227 0
M  V30 10206 H 949.994 4.85273 2.2453 0
M  V30 10207 H 950.337 3.19379 2.67026 0
M  V30 10208 H 950.87 3.82488 1.09305 0
M  V30 10209 H 947.609 6.55332 -0.148423 0
M  V30 10210 H 947.129 5.83124 1.4045 0
M  V30 10211 H 948.808 6.36737 1.14785 0
M  V30 10212 N 948.94 -0.228186 1.55939 0
M  V30 10213 C 949.87 -1.28607 1.94891 0
M  V30 10214 C 950.851 -1.49236 0.816245 0
M  V30 10215 O 952.036 -1.61531 1.07803 0
M  V30 10216 C 949.166 -2.63719 2.25986 0
M  V30 10217 C 948.12 -2.57757 3.4168 0
M  V30 10218 C 947.446 -3.96837 3.58364 0
M  V30 10219 C 948.746 -2.13116 4.76843 0
M  V30 10220 H 950.44 -0.962531 2.83506 0
M  V30 10221 H 947.986 -0.461577 1.36402 0
M  V30 10222 H 949.939 -3.37878 2.51826 0
M  V30 10223 H 948.663 -2.97747 1.34217 0
M  V30 10224 H 947.322 -1.86055 3.15878 0
M  V30 10225 H 946.97 -4.28162 2.63982 0
M  V30 10226 H 946.67 -3.93731 4.36176 0
M  V30 10227 H 948.194 -4.72668 3.86545 0
M  V30 10228 H 949.608 -2.77015 5.01932 0
M  V30 10229 H 948.005 -2.21083 5.57891 0
M  V30 10230 H 949.075 -1.08326 4.72645 0
M  V30 10231 N 950.418 -1.49637 -0.494624 0
M  V30 10232 C 951.834 -1.36541 -0.826361 0
M  V30 10233 C 952.034 -0.403386 -1.97421 0
M  V30 10234 O 951.09 0.162614 -2.51976 0
M  V30 10235 C 952.403 -2.77401 -1.16057 0
M  V30 10236 C 953.951 -2.86148 -1.26841 0
M  V30 10237 C 954.426 -4.27789 -1.63587 0
M  V30 10238 N 955.917 -4.3063 -1.70624 0
M  V30 10239 C 956.652 -5.37198 -2.00514 0
M  V30 10240 N 956.148 -6.54004 -2.28584 0
M  V30 10241 N 957.941 -5.2462 -2.01818 0
M  V30 10242 H 950.092 -2.10776 0.26219 0
M  V30 10243 H 952.355 -0.946419 0.0547235 0
M  V30 10244 H 952.061 -3.49526 -0.390434 0
M  V30 10245 H 951.935 -3.1317 -2.10249 0
M  V30 10246 H 954.322 -2.14256 -2.02925 0
M  V30 10247 H 954.403 -2.53953 -0.30684 0
M  V30 10248 H 954.047 -5.00209 -0.880507 0
M  V30 10249 H 953.977 -4.57453 -2.60854 0
M  V30 10250 H 956.468 -3.46393 -1.51065 0
M  V30 10251 H 956.781 -7.31041 -2.50598 0
M  V30 10252 H 955.126 -6.57219 -2.26027 0
M  V30 10253 H 958.317 -4.32371 -1.79369 0
M  V30 10254 H 958.49 -6.07765 -2.24778 0
M  V30 10255 N 951.896 0.746133 -1.38819 0
M  V30 10256 C 953.312 1.0502 -1.20179 0
M  V30 10257 C 953.512 2.01423 -0.0556271 0
M  V30 10258 O 952.568 2.45359 0.59625 0
M  V30 10259 C 953.881 1.62315 -2.53129 0
M  V30 10260 C 955.429 1.74449 -2.59878 0
M  V30 10261 C 955.904 2.35155 -3.93022 0
M  V30 10262 N 957.395 2.42577 -3.94602 0
M  V30 10263 C 958.13 2.9046 -4.94389 0
M  V30 10264 N 957.626 3.38322 -6.04574 0
M  V30 10265 N 959.419 2.89568 -4.81775 0
M  V30 10266 H 951.57 0.106551 -2.12133 0
M  V30 10267 H 953.833 0.109897 -0.941609 0
M  V30 10268 H 953.539 0.98946 -3.37495 0
M  V30 10269 H 953.413 2.61276 -2.72057 0
M  V30 10270 H 955.8 2.36943 -1.75903 0
M  V30 10271 H 955.881 0.741721 -2.4481 0
M  V30 10272 H 955.525 1.73292 -4.77422 0
M  V30 10273 H 955.455 3.36088 -4.05404 0
M  V30 10274 H 957.946 2.08735 -3.15021 0
M  V30 10275 H 958.259 3.73336 -6.76639 0
M  V30 10276 H 956.604 3.3636 -6.08184 0
M  V30 10277 H 959.795 2.51492 -3.94803 0
M  V30 10278 H 959.968 3.26571 -5.59692 0
M  V30 10279 N 953.375 1.23811 0.975125 0
M  V30 10280 C 954.6 1.10109 1.75757 0
M  V30 10281 C 955.025 -0.342922 1.84948 0
M  V30 10282 O 954.383 -1.24814 1.31496 0
M  V30 10283 C 954.431 1.73724 3.15994 0
M  V30 10284 O 953.535 1.00297 4.00018 0
M  V30 10285 H 952.876 0.385627 0.540544 0
M  V30 10286 H 955.406 1.63971 1.22372 0
M  V30 10287 H 955.416 1.79178 3.6655 0
M  V30 10288 H 954.091 2.78794 3.0862 0
M  V30 10289 H 952.668 1.02575 3.58515 0
M  V30 10290 N 954.853 -1.17469 1.05066 0
M  V30 10291 C 955.801 -2.23495 0.644418 0
M  V30 10292 C 956.795 -1.66081 -0.333685 0
M  V30 10293 O 958.001 -1.78887 -0.199886 0
M  V30 10294 H 954.376 -0.727546 0.190214 0
M  V30 10295 H 956.347 -2.55058 1.5488 0
M  V30 10296 C 955.096 -3.47684 0.0338051 0
M  V30 10297 H 954.419 -3.92167 0.777513 0
M  V30 10298 H 955.859 -4.23464 -0.213086 0
M  V30 10299 C 954.318 -3.14067 -1.21915 0
M  V30 10300 O 954.848 -3.28728 -2.3087 0
M  V30 10301 N 953.054 -2.68304 -1.11631 0
M  V30 10302 H 952.601 -2.56574 -0.229673 0
M  V30 10303 H 952.559 -2.46184 -1.95553 0
M  V30 10304 N 956.331 -0.831506 -1.3388 0
M  V30 10305 C 957.261 -0.274378 -2.31882 0
M  V30 10306 C 958.242 0.613872 -1.58637 0
M  V30 10307 O 959.427 0.538961 -1.86571 0
M  V30 10308 C 956.557 0.557498 -3.42796 0
M  V30 10309 C 955.511 -0.234337 -4.27358 0
M  V30 10310 C 954.837 0.720825 -5.29819 0
M  V30 10311 C 956.137 -1.44732 -5.01847 0
M  V30 10312 H 957.831 -1.09322 -2.78728 0
M  V30 10313 H 955.377 -0.527136 -1.34005 0
M  V30 10314 H 957.33 0.957501 -4.10378 0
M  V30 10315 H 956.054 1.40947 -2.94621 0
M  V30 10316 H 954.713 -0.61581 -3.61391 0
M  V30 10317 H 954.361 1.569 -4.77903 0
M  V30 10318 H 954.061 0.195171 -5.87276 0
M  V30 10319 H 955.585 1.1185 -6.00268 0
M  V30 10320 H 956.999 -1.12087 -5.62236 0
M  V30 10321 H 955.396 -1.90923 -5.68919 0
M  V30 10322 H 956.466 -2.22099 -4.31045 0
M  V30 10323 N 957.809 1.4625 -0.587256 0
M  V30 10324 C 958.757 2.32076 0.156108 0
M  V30 10325 C 959.751 1.44756 0.879887 0
M  V30 10326 O 960.957 1.61356 0.797759 0
M  V30 10327 H 957.332 0.748808 0.0692098 0
M  V30 10328 H 959.303 2.9258 -0.586497 0
M  V30 10329 C 958.052 3.28008 1.15352 0
M  V30 10330 H 957.375 3.9518 0.60601 0
M  V30 10331 H 958.815 3.90832 1.64396 0
M  V30 10332 C 957.274 2.53691 2.21681 0
M  V30 10333 O 957.804 2.30329 3.29107 0
M  V30 10334 N 956.01 2.14174 1.96412 0
M  V30 10335 H 955.557 2.33374 1.09061 0
M  V30 10336 H 955.515 1.6477 2.67765 0
M  V30 10337 N 959.287 0.325282 1.54207 0
M  V30 10338 C 960.536 -0.27768 1.99779 0
M  V30 10339 C 960.849 -1.5311 1.21723 0
M  V30 10340 O 962.055 -2.21017 1.57682 0
M  V30 10341 C 960.511 -0.545329 3.55745 0
M  V30 10342 C 960.119 0.691143 4.42637 0
M  V30 10343 C 961.863 -1.10815 4.09781 0
M  V30 10344 C 959.77 0.395302 5.90077 0
M  V30 10345 H 958.7 -0.107536 0.746292 0
M  V30 10346 H 961.351 0.437773 1.78202 0
M  V30 10347 H 959.733 -1.32101 3.73317 0
M  V30 10348 H 960.907 1.46653 4.3684 0
M  V30 10349 H 959.222 1.1743 3.99499 0
M  V30 10350 H 961.819 -1.34414 5.1753 0
M  V30 10351 H 962.162 -2.05806 3.6187 0
M  V30 10352 H 962.695 -0.393608 3.95848 0
M  V30 10353 H 959.434 1.31443 6.42186 0
M  V30 10354 H 958.954 -0.34235 5.98822 0
M  V30 10355 H 960.633 0.00576877 6.47 0
M  V30 10356 N 960.765 -1.57509 0.0534917 0
M  V30 10357 C 962.012 -1.92782 -0.619772 0
M  V30 10358 C 962.34 -0.932046 -1.70714 0
M  V30 10359 O 961.595 0.0552891 -1.95622 0
M  V30 10360 C 961.894 -3.34734 -1.25251 0
M  V30 10361 C 961.56 -4.49946 -0.293113 0
M  V30 10362 C 960.222 -4.81191 -0.0291223 0
M  V30 10363 C 962.574 -5.19925 0.364271 0
M  V30 10364 C 959.902 -5.79761 0.899649 0
M  V30 10365 C 962.254 -6.19489 1.28125 0
M  V30 10366 C 960.918 -6.49161 1.55389 0
M  V30 10367 H 960.188 -0.705441 -0.226791 0
M  V30 10368 H 962.835 -1.91121 0.120466 0
M  V30 10369 H 961.14 -3.32774 -2.06807 0
M  V30 10370 H 962.837 -3.59308 -1.78042 0
M  V30 10371 H 959.427 -4.25566 -0.509053 0
M  V30 10372 H 963.611 -4.95997 0.173411 0
M  V30 10373 H 958.867 -6.01085 1.11833 0
M  V30 10374 H 963.041 -6.72824 1.79669 0
M  V30 10375 H 960.668 -7.25354 2.2752 0
M  V30 10376 N 962.243 0.219913 -1.56058 0
M  V30 10377 C 963.175 1.29604 -1.89038 0
M  V30 10378 C 964.188 1.42964 -0.778791 0
M  V30 10379 O 965.377 1.43832 -1.0571 0
M  V30 10380 C 962.477 2.67145 -2.08534 0
M  V30 10381 C 961.65 2.75712 -3.39561 0
M  V30 10382 C 960.709 3.94279 -3.48469 0
M  V30 10383 O 959.735 3.8254 -4.21487 0
M  V30 10384 N 960.937 5.08655 -2.79732 0
M  V30 10385 H 963.702 1.01638 -2.81939 0
M  V30 10386 H 961.263 0.409945 -1.56624 0
M  V30 10387 H 963.255 3.44847 -2.11808 0
M  V30 10388 H 961.825 2.87704 -1.2225 0
M  V30 10389 H 961.045 1.84475 -3.48371 0
M  V30 10390 H 962.333 2.78407 -4.25872 0
M  V30 10391 H 961.731 5.21088 -2.2019 0
M  V30 10392 H 960.288 5.84394 -2.88665 0
M  V30 10393 N 963.721 1.49897 0.486681 0
M  V30 10394 C 964.951 1.63599 1.2617 0
M  V30 10395 C 965.359 0.312365 1.86604 0
M  V30 10396 O 964.702 -0.713911 1.6926 0
M  V30 10397 C 964.764 2.65736 2.42125 0
M  V30 10398 C 964.428 4.09711 2.0245 0
M  V30 10399 C 965.425 4.9607 1.55596 0
M  V30 10400 C 963.11 4.55534 2.11647 0
M  V30 10401 C 965.104 6.26295 1.18462 0
M  V30 10402 C 962.791 5.85768 1.74124 0
M  V30 10403 C 963.789 6.70973 1.27608 0
M  V30 10404 O 963.477 7.98778 0.905991 0
M  V30 10405 H 963.209 0.55333 0.388332 0
M  V30 10406 H 965.763 1.96768 0.589195 0
M  V30 10407 H 963.993 2.27778 3.12497 0
M  V30 10408 H 965.682 2.68819 3.04123 0
M  V30 10409 H 966.448 4.61891 1.47925 0
M  V30 10410 H 962.327 3.8937 2.46803 0
M  V30 10411 H 965.871 6.92754 0.820839 0
M  V30 10412 H 961.768 6.19473 1.8145 0
M  V30 10413 H 962.536 8.11914 1.03621 0
M  V30 10414 N 965.199 -0.738761 1.39212 0
M  V30 10415 C 966.448 -1.49368 1.35543 0
M  V30 10416 C 966.761 -1.95543 -0.0471091 0
M  V30 10417 O 967.967 -2.70714 -0.206376 0
M  V30 10418 C 966.423 -2.69882 2.381 0
M  V30 10419 C 966.031 -2.30672 3.8405 0
M  V30 10420 C 967.775 -3.47718 2.435 0
M  V30 10421 C 965.682 -3.47886 4.78256 0
M  V30 10422 H 964.612 -0.560898 0.503894 0
M  V30 10423 H 967.263 -0.806221 1.6484 0
M  V30 10424 H 965.645 -3.40684 2.01867 0
M  V30 10425 H 966.819 -1.67441 4.29302 0
M  V30 10426 H 965.134 -1.65936 3.81909 0
M  V30 10427 H 967.731 -4.34897 3.11077 0
M  V30 10428 H 968.074 -3.89919 1.45838 0
M  V30 10429 H 968.607 -2.83942 2.78606 0
M  V30 10430 H 965.346 -3.10739 5.77167 0
M  V30 10431 H 964.866 -4.10111 4.37686 0
M  V30 10432 H 966.545 -4.14271 4.96979 0
M  V30 10433 N 966.677 -1.24326 -0.968545 0
M  V30 10434 C 967.925 -1.08032 -1.70803 0
M  V30 10435 C 968.246 0.381728 -1.91227 0
M  V30 10436 O 967.516 1.27253 -1.48942 0
M  V30 10437 H 966.096 -0.396777 -0.632912 0
M  V30 10438 H 968.758 -1.56232 -1.16523 0
M  V30 10439 H 967.854 -1.57769 -2.69287 0
M  V30 10440 N 968.156 1.1691 -1.05688 0
M  V30 10441 C 969.103 2.21095 -0.662246 0
M  V30 10442 C 970.073 1.62623 0.338083 0
M  V30 10443 O 971.258 1.89428 0.228362 0
M  V30 10444 C 968.398 3.45066 -0.0484018 0
M  V30 10445 C 967.511 4.17809 -1.09817 0
M  V30 10446 C 966.646 5.29281 -0.451114 0
M  V30 10447 C 965.685 5.93817 -1.48484 0
M  V30 10448 N 964.822 6.96793 -0.861588 0
M  V30 10449 H 969.662 2.54204 -1.55513 0
M  V30 10450 H 967.199 1.24863 -0.777665 0
M  V30 10451 H 969.157 4.15932 0.324978 0
M  V30 10452 H 967.787 3.12526 0.807918 0
M  V30 10453 H 966.839 3.45608 -1.58932 0
M  V30 10454 H 968.151 4.61907 -1.88265 0
M  V30 10455 H 967.305 6.06695 -0.0244251 0
M  V30 10456 H 966.044 4.8633 0.365306 0
M  V30 10457 H 965.049 5.1513 -1.92149 0
M  V30 10458 H 966.274 6.38848 -2.30325 0
M  V30 10459 H 964.22 6.55967 -0.0657688 0
M  V30 10460 H 964.137 7.39229 -1.58354 0
M  V30 10461 H 965.405 7.78142 -0.45984 0
M  V30 10462 N 969.634 0.838594 1.33437 0
M  V30 10463 C 970.597 0.276843 2.27522 0
M  V30 10464 C 971.597 -0.554275 1.50945 0
M  V30 10465 O 972.787 -0.368107 1.70266 0
M  V30 10466 C 969.919 -0.610036 3.35397 0
M  V30 10467 H 971.112 1.10705 2.78719 0
M  V30 10468 H 968.665 0.611657 1.43835 0
M  V30 10469 H 969.4 -1.46269 2.89441 0
M  V30 10470 H 969.185 -0.0153615 3.92097 0
M  V30 10471 H 970.675 -0.996368 4.05539 0
M  V30 10472 N 971.112 -1.45937 0.595003 0
M  V30 10473 C 972.36 -2.01921 0.0851368 0
M  V30 10474 C 972.681 -1.46748 -1.28413 0
M  V30 10475 O 971.951 -0.656873 -1.84559 0
M  V30 10476 H 970.531 -0.746457 0.0284826 0
M  V30 10477 H 973.193 -1.78891 0.773561 0
M  V30 10478 H 972.289 -3.1209 0.0254002 0
M  V30 10479 N 972.59 -0.333456 -1.54032 0
M  V30 10480 C 973.52 0.52051 -2.27625 0
M  V30 10481 C 974.501 1.1111 -1.28797 0
M  V30 10482 O 975.686 1.13438 -1.57625 0
M  V30 10483 C 972.816 1.67663 -3.04149 0
M  V30 10484 C 971.77 1.21487 -4.10396 0
M  V30 10485 C 971.096 2.45872 -4.74817 0
M  V30 10486 C 972.396 0.322603 -5.21303 0
M  V30 10487 H 974.09 -0.0933823 -2.99254 0
M  V30 10488 H 971.636 -0.0463526 -1.43925 0
M  V30 10489 H 973.589 2.28041 -3.54366 0
M  V30 10490 H 972.313 2.31727 -2.30153 0
M  V30 10491 H 970.972 0.633966 -3.61077 0
M  V30 10492 H 970.62 3.0832 -3.97426 0
M  V30 10493 H 970.32 2.15662 -5.46593 0
M  V30 10494 H 971.844 3.06994 -5.27814 0
M  V30 10495 H 973.258 0.832942 -5.67217 0
M  V30 10496 H 971.655 0.112843 -5.99994 0
M  V30 10497 H 972.725 -0.643954 -4.80605 0
M  V30 10498 N 974.068 1.57479 -0.061844 0
M  V30 10499 C 975.018 2.0867 0.918749 0
M  V30 10500 C 976.002 0.994174 1.26511 0
M  V30 10501 O 977.194 1.25738 1.24575 0
M  V30 10502 C 974.323 2.64386 2.18986 0
M  V30 10503 C 973.409 3.80626 1.87042 0
M  V30 10504 N 973.8 4.89982 1.25504 0
M  V30 10505 C 972.098 3.89733 2.1685 0
M  V30 10506 C 972.799 5.70928 1.11429 0
M  V30 10507 N 971.775 5.18877 1.62072 0
M  V30 10508 H 975.577 2.90611 0.438469 0
M  V30 10509 H 973.091 1.61775 0.142321 0
M  V30 10510 H 975.088 2.9937 2.90144 0
M  V30 10511 H 973.748 1.83888 2.67611 0
M  V30 10512 H 974.759 5.09556 0.925914 0
M  V30 10513 H 971.436 3.20194 2.67921 0
M  V30 10514 H 972.826 6.68886 0.635665 0
M  V30 10515 N 975.546 -0.211634 1.56173 0
M  V30 10516 C 976.794 -0.932704 1.7929 0
M  V30 10517 C 977.115 -1.84472 0.632076 0
M  V30 10518 O 976.385 -1.92739 -0.350519 0
M  V30 10519 H 974.965 -0.347393 0.661307 0
M  V30 10520 H 977.627 -0.22111 1.93642 0
M  V30 10521 H 976.723 -1.53365 2.71819 0
M  V30 10522 N 977.024 -1.50153 -0.478725 0
M  V30 10523 C 978.249 -1.64776 -1.2595 0
M  V30 10524 C 978.674 -0.327794 -1.85222 0
M  V30 10525 O 978.032 0.707418 -1.66929 0
M  V30 10526 C 978.08 -2.73551 -2.34952 0
M  V30 10527 O 977.184 -2.34273 -3.39397 0
M  V30 10528 H 976.525 -0.550769 -0.370877 0
M  V30 10529 H 979.055 -1.96482 -0.570605 0
M  V30 10530 H 979.065 -2.96397 -2.8038 0
M  V30 10531 H 977.74 -3.69354 -1.91181 0
M  V30 10532 H 976.317 -2.21844 -2.99733 0
M  V30 10533 N 978.502 0.731368 -1.39602 0
M  V30 10534 C 979.434 1.85575 -1.34516 0
M  V30 10535 C 980.447 1.60818 -0.253287 0
M  V30 10536 O 981.636 1.70984 -0.512505 0
M  V30 10537 C 978.736 3.21673 -1.06676 0
M  V30 10538 C 977.909 3.73757 -2.27211 0
M  V30 10539 C 976.968 4.88426 -1.95773 0
M  V30 10540 O 975.994 5.01898 -2.68491 0
M  V30 10541 N 977.196 5.73065 -0.926083 0
M  V30 10542 H 979.961 1.90442 -2.31413 0
M  V30 10543 H 977.522 0.912258 -1.33752 0
M  V30 10544 H 979.514 3.95959 -0.836577 0
M  V30 10545 H 978.084 3.12052 -0.185003 0
M  V30 10546 H 977.304 2.90781 -2.66158 0
M  V30 10547 H 978.592 4.05289 -3.07601 0
M  V30 10548 H 977.99 5.64774 -0.323497 0
M  V30 10549 H 976.547 6.47403 -0.755795 0
M  V30 10550 N 979.98 1.24838 0.961938 0
M  V30 10551 C 981.226 1.09313 1.70817 0
M  V30 10552 C 981.559 -0.366244 1.90715 0
M  V30 10553 O 980.834 -1.27036 1.47282 0
M  V30 10554 C 981.117 1.83988 3.09549 0
M  V30 10555 C 980.97 3.3771 2.97106 0
M  V30 10556 C 982.289 1.61718 4.09311 0
M  V30 10557 H 979.408 0.398498 0.619974 0
M  V30 10558 H 982.05 1.53579 1.11864 0
M  V30 10559 H 980.2 1.46363 3.59875 0
M  V30 10560 H 981.872 3.84967 2.54161 0
M  V30 10561 H 980.115 3.65795 2.33187 0
M  V30 10562 H 980.786 3.85166 3.95412 0
M  V30 10563 H 983.262 1.94458 3.67866 0
M  V30 10564 H 982.138 2.16415 5.04436 0
M  V30 10565 H 982.399 0.55677 4.3858 0
M  V30 10566 N 981.458 -1.16348 1.06306 0
M  V30 10567 C 982.704 -1.87158 0.781007 0
M  V30 10568 C 983.037 -1.81499 -0.690784 0
M  V30 10569 O 982.312 -1.23074 -1.50609 0
M  V30 10570 C 982.595 -3.3672 1.27639 0
M  V30 10571 C 982.448 -3.51069 2.81194 0
M  V30 10572 C 983.767 -4.31122 0.884388 0
M  V30 10573 H 980.886 -0.679586 0.285187 0
M  V30 10574 H 983.528 -1.36756 1.31901 0
M  V30 10575 H 981.678 -3.79775 0.818715 0
M  V30 10576 H 983.35 -3.16952 3.35171 0
M  V30 10577 H 981.593 -2.92976 3.19918 0
M  V30 10578 H 982.264 -4.56105 3.10921 0
M  V30 10579 H 984.74 -3.95969 1.27858 0
M  V30 10580 H 983.616 -5.34279 1.25847 0
M  V30 10581 H 983.877 -4.41598 -0.210673 0
M  V30 10582 N 982.937 -0.845659 -1.3299 0
M  V30 10583 C 984.186 -0.440928 -1.96822 0
M  V30 10584 C 984.499 1.00668 -1.67706 0
M  V30 10585 O 985.705 1.51641 -2.25205 0
M  V30 10586 C 984.161 -0.73752 -3.52262 0
M  V30 10587 C 983.769 -2.20026 -3.90247 0
M  V30 10588 C 985.513 -0.400072 -4.22611 0
M  V30 10589 C 983.42 -2.44054 -5.38694 0
M  V30 10590 H 982.35 -0.161148 -0.736578 0
M  V30 10591 H 985.001 -1.03519 -1.51513 0
M  V30 10592 H 983.383 -0.0728025 -3.95933 0
M  V30 10593 H 984.557 -2.90602 -3.57613 0
M  V30 10594 H 982.872 -2.50135 -3.32899 0
M  V30 10595 H 985.469 -0.557136 -5.3179 0
M  V30 10596 H 985.812 0.657547 -4.11074 0
M  V30 10597 H 986.345 -1.0203 -3.84493 0
M  V30 10598 H 983.084 -3.48407 -5.55241 0
M  V30 10599 H 982.604 -1.78047 -5.72765 0
M  V30 10600 H 984.283 -2.27549 -6.05665 0
M  V30 10601 N 984.415 1.45619 -0.602734 0
M  V30 10602 C 985.325 2.34288 0.120902 0
M  V30 10603 C 986.341 1.50952 0.865414 0
M  V30 10604 O 987.517 1.83768 0.824094 0
M  V30 10605 C 984.582 3.28489 1.10888 0
M  V30 10606 C 983.643 4.2773 0.366853 0
M  V30 10607 C 982.876 5.17429 1.30776 0
M  V30 10608 O 983.099 5.10459 2.54535 0
M  V30 10609 O 982.033 5.96459 0.807464 0
M  V30 10610 H 985.859 2.97559 -0.60765 0
M  V30 10611 H 983.444 1.44922 -0.363019 0
M  V30 10612 H 985.326 3.86549 1.67803 0
M  V30 10613 H 984.001 2.67789 1.81854 0
M  V30 10614 H 982.908 3.73299 -0.244643 0
M  V30 10615 H 984.241 4.91271 -0.302226 0
M  V30 10616 N 985.893 0.34162 1.53853 0
M  V30 10617 C 986.856 -0.503541 2.236 0
M  V30 10618 C 987.856 -1.02912 1.23554 0
M  V30 10619 O 989.046 -0.918678 1.48007 0
M  V30 10620 C 986.178 -1.70126 2.95415 0
M  V30 10621 H 987.371 0.106437 2.99711 0
M  V30 10622 H 984.924 0.0929408 1.56023 0
M  V30 10623 H 985.659 -2.34999 2.23486 0
M  V30 10624 H 985.444 -1.33161 3.68796 0
M  V30 10625 H 986.934 -2.30077 3.48503 0
M  V30 10626 N 987.371 -1.57444 0.0701946 0
M  V30 10627 C 988.303 -2.09611 -0.927142 0
M  V30 10628 C 989.316 -1.02791 -1.26245 0
M  V30 10629 O 990.505 -1.30309 -1.21992 0
M  V30 10630 C 987.605 -2.54015 -2.24342 0
M  V30 10631 C 986.778 -3.84389 -2.08719 0
M  V30 10632 C 985.837 -4.14904 -3.23638 0
M  V30 10633 O 984.863 -4.84528 -2.98699 0
M  V30 10634 N 986.065 -3.68322 -4.48686 0
M  V30 10635 H 988.83 -2.95803 -0.481753 0
M  V30 10636 H 986.391 -1.61487 -0.115572 0
M  V30 10637 H 988.383 -2.71492 -3.00124 0
M  V30 10638 H 986.953 -1.72969 -2.60385 0
M  V30 10639 H 986.173 -3.76308 -1.17415 0
M  V30 10640 H 987.461 -4.69729 -1.9553 0
M  V30 10641 H 986.859 -3.12073 -4.71834 0
M  V30 10642 H 985.416 -3.91002 -5.21499 0
M  V30 10643 N 988.849 0.203349 -1.56283 0
M  V30 10644 C 990.097 0.923183 -1.79782 0
M  V30 10645 C 990.418 1.84134 -0.64185 0
M  V30 10646 O 989.688 1.92922 0.340292 0
M  V30 10647 H 988.268 0.343881 -0.66314 0
M  V30 10648 H 990.93 0.210837 -1.93756 0
M  V30 10649 H 990.026 1.51921 -2.72629 0
M  V30 10650 N 990.327 1.50405 0.470755 0
M  V30 10651 C 991.257 1.72222 1.57676 0
M  V30 10652 C 992.238 0.57121 1.60222 0
M  V30 10653 O 993.423 0.810381 1.76484 0
M  V30 10654 C 990.553 1.81666 2.95998 0
M  V30 10655 C 989.507 2.96857 3.08318 0
M  V30 10656 C 988.833 2.91445 4.4829 0
M  V30 10657 C 990.133 4.37361 2.85504 0
M  V30 10658 H 991.827 2.64825 1.39671 0
M  V30 10659 H 989.373 1.27438 0.67049 0
M  V30 10660 H 991.326 1.95514 3.73299 0
M  V30 10661 H 990.05 0.856856 3.1516 0
M  V30 10662 H 988.709 2.82661 2.33449 0
M  V30 10663 H 988.357 1.93309 4.64371 0
M  V30 10664 H 988.057 3.68776 4.57469 0
M  V30 10665 H 989.581 3.07341 5.27611 0
M  V30 10666 H 990.995 4.52081 3.52555 0
M  V30 10667 H 989.392 5.16145 3.06127 0
M  V30 10668 H 990.462 4.49708 1.81359 0
M  V30 10669 N 991.805 -0.723954 1.39988 0
M  V30 10670 C 992.715 -1.86829 1.41887 0
M  V30 10671 C 993.731 -1.71173 0.312401 0
M  V30 10672 O 994.907 -1.93583 0.555651 0
M  V30 10673 C 991.972 -3.22541 1.27154 0
M  V30 10674 C 991.033 -3.50512 2.47871 0
M  V30 10675 C 990.266 -4.79749 2.33831 0
M  V30 10676 O 990.489 -5.54251 1.34765 0
M  V30 10677 O 989.423 -5.07868 3.23039 0
M  V30 10678 H 993.249 -1.88183 2.38371 0
M  V30 10679 H 990.834 -0.873259 1.21221 0
M  V30 10680 H 992.716 -4.0362 1.21114 0
M  V30 10681 H 991.391 -3.21933 0.337715 0
M  V30 10682 H 990.298 -2.69475 2.59488 0
M  V30 10683 H 991.631 -3.55909 3.39985 0
M  V30 10684 N 993.283 -1.25346 -0.955304 0
M  V30 10685 C 994.246 -1.05754 -2.03344 0
M  V30 10686 C 995.246 -0.0105743 -1.60797 0
M  V30 10687 O 996.436 -0.252699 -1.72357 0
M  V30 10688 C 993.568 -0.605536 -3.35479 0
M  V30 10689 H 994.761 -2.01459 -2.22158 0
M  V30 10690 H 992.314 -1.07744 -1.1323 0
M  V30 10691 H 993.049 0.354154 -3.2236 0
M  V30 10692 H 992.834 -1.36134 -3.67709 0
M  V30 10693 H 994.324 -0.489867 -4.14717 0
M  V30 10694 N 994.761 1.15782 -1.06922 0
M  V30 10695 C 995.691 2.22538 -0.707045 0
M  V30 10696 C 996.672 1.67371 0.303471 0
M  V30 10697 O 997.857 1.9339 0.177189 0
M  V30 10698 C 994.987 3.47158 -0.0994269 0
M  V30 10699 C 993.941 4.15257 -1.03661 0
M  V30 10700 C 993.267 5.33902 -0.291974 0
M  V30 10701 C 994.567 4.65516 -2.36837 0
M  V30 10702 H 996.261 2.53089 -1.59958 0
M  V30 10703 H 993.807 1.21649 -0.770552 0
M  V30 10704 H 995.76 4.21073 0.165852 0
M  V30 10705 H 994.484 3.15926 0.828155 0
M  V30 10706 H 993.143 3.43276 -1.28674 0
M  V30 10707 H 992.791 4.98926 0.638928 0
M  V30 10708 H 992.491 5.80407 -0.916613 0
M  V30 10709 H 994.015 6.1059 -0.0343915 0
M  V30 10710 H 995.429 5.30981 -2.16175 0
M  V30 10711 H 993.826 5.22666 -2.94856 0
M  V30 10712 H 994.896 3.81387 -2.99453 0
M  V30 10713 N 996.239 0.8527 1.3254 0
M  V30 10714 C 997.488 0.45136 1.96585 0
M  V30 10715 C 997.801 -0.997773 1.68237 0
M  V30 10716 O 999.007 -1.50445 2.26006 0
M  V30 10717 C 997.463 0.75619 3.51866 0
M  V30 10718 C 997.071 2.22092 3.89075 0
M  V30 10719 C 998.815 0.422478 4.22392 0
M  V30 10720 C 996.722 2.46908 5.37392 0
M  V30 10721 H 995.652 0.165052 0.735713 0
M  V30 10722 H 998.303 1.04321 1.50962 0
M  V30 10723 H 996.685 0.0937988 3.95889 0
M  V30 10724 H 997.859 2.92494 3.56067 0
M  V30 10725 H 996.174 2.51896 3.31568 0
M  V30 10726 H 998.771 0.58533 5.31487 0
M  V30 10727 H 999.114 -0.635737 4.11417 0
M  V30 10728 H 999.647 1.04068 3.83946 0
M  V30 10729 H 996.386 3.51346 5.53386 0
M  V30 10730 H 995.906 1.81082 5.71812 0
M  V30 10731 H 997.585 2.30758 6.0445 0
M  V30 10732 N 997.718 -1.45297 0.610449 0
M  V30 10733 C 998.681 -2.28995 -0.0968194 0
M  V30 10734 C 999.681 -1.39923 -0.792353 0
M  V30 10735 O 1000.87 -1.62014 -0.64008 0
M  V30 10736 C 998.003 -3.21013 -1.14731 0
M  V30 10737 H 999.196 -2.93012 0.639082 0
M  V30 10738 H 996.749 -1.51867 0.369624 0
M  V30 10739 H 997.484 -2.61803 -1.91388 0
M  V30 10740 H 997.269 -3.86628 -0.652753 0
M  V30 10741 H 998.759 -3.8394 -1.64256 0
M  V30 10742 N 999.196 -0.349774 -1.5367 0
M  V30 10743 C 1000.16 0.491676 -2.23864 0
M  V30 10744 C 1001.16 1.02256 -1.24098 0
M  V30 10745 O 1002.35 0.910816 -1.48492 0
M  V30 10746 C 999.481 1.68557 -2.96313 0
M  V30 10747 H 1000.67 -0.12233 -2.9965 0
M  V30 10748 H 998.227 -0.101214 -1.55972 0
M  V30 10749 H 998.962 2.3381 -2.2473 0
M  V30 10750 H 998.747 1.31203 -3.69497 0
M  V30 10751 H 1000.24 2.28225 -3.49718 0
M  V30 10752 N 1000.67 1.57404 -0.0785433 0
M  V30 10753 C 1001.9 1.98074 0.597862 0
M  V30 10754 C 1002.32 0.95714 1.6274 0
M  V30 10755 O 1001.67 -0.0553728 1.82416 0
M  V30 10756 C 1001.72 3.38815 1.26041 0
M  V30 10757 O 1001.45 4.37254 0.27207 0
M  V30 10758 C 1002.95 3.94397 2.024 0
M  V30 10759 H 1000.17 0.651263 0.161546 0
M  V30 10760 H 1002.71 2.03927 -0.152941 0
M  V30 10761 H 1000.87 3.34028 1.96225 0
M  V30 10762 H 1001.28 5.19136 0.74822 0
M  V30 10763 H 1002.75 4.95075 2.4414 0
M  V30 10764 H 1003.23 3.31308 2.88326 0
M  V30 10765 H 1003.84 4.02607 1.37068 0
M  V30 10766 N 1002.15 -0.195058 1.56388 0
M  V30 10767 C 1003.56 -0.75973 1.70543 0
M  V30 10768 C 1003.91 -1.83849 0.685118 0
M  V30 10769 O 1003.04 -2.15819 -0.158457 0
M  V30 10770 C 1003.63 -1.38485 3.09204 0
M  V30 10771 C 1002.19 -1.89661 3.25124 0
M  V30 10772 C 1001.34 -0.766563 2.66494 0
M  V30 10773 H 1004.29 0.0300148 1.58672 0
M  V30 10774 H 1004.31 -2.25424 3.06536 0
M  V30 10775 H 1003.82 -0.599479 3.83442 0
M  V30 10776 H 1001.92 -2.70917 2.55802 0
M  V30 10777 H 1002.04 -2.05837 4.32629 0
M  V30 10778 H 1000.4 -1.18086 2.25672 0
M  V30 10779 H 1001.18 0.00657102 3.43299 0
M  V30 10780 N 1003.63 -1.50653 -0.462772 0
M  V30 10781 C 1004.91 -1.5258 -1.22387 0
M  V30 10782 C 1005.29 -0.275263 -2.09298 0
M  V30 10783 O 1004.63 0.740943 -2.16153 0
M  V30 10784 C 1004.84 -2.82611 -2.04773 0
M  V30 10785 C 1006.19 -3.33592 -2.62681 0
M  V30 10786 O 1007.22 -2.83989 -2.15008 0
M  V30 10787 O 1006.08 -4.20081 -3.49563 0
M  V30 10788 H 1003.17 -0.612367 -0.55582 0
M  V30 10789 H 1005.72 -1.62948 -0.473914 0
M  V30 10790 H 1004.49 -3.65098 -1.40781 0
M  V30 10791 H 1004.11 -2.75286 -2.86886 0
M  V30 10792 N 1005.11 0.71652 -1.4037 0
M  V30 10793 C 1006.02 1.86074 -1.42876 0
M  V30 10794 C 1007.03 1.71005 -0.321475 0
M  V30 10795 O 1008.21 1.93286 -0.565909 0
M  V30 10796 C 1005.28 3.21862 -1.28863 0
M  V30 10797 C 1004.34 3.49193 -2.49726 0
M  V30 10798 C 1003.57 4.78502 -2.36372 0
M  V30 10799 O 1003.79 5.53529 -1.37703 0
M  V30 10800 O 1002.73 5.06147 -3.25728 0
M  V30 10801 H 1006.55 1.86916 -2.39366 0
M  V30 10802 H 1004.14 0.866818 -1.21683 0
M  V30 10803 H 1006.02 4.02972 -1.23253 0
M  V30 10804 H 1004.69 3.2175 -0.354783 0
M  V30 10805 H 1003.6 2.68095 -2.60913 0
M  V30 10806 H 1004.93 3.54101 -3.41868 0
M  V30 10807 N 1006.59 1.25851 0.948643 0
M  V30 10808 C 1007.83 1.10735 1.69062 0
M  V30 10809 C 1008.16 -0.351257 1.9181 0
M  V30 10810 O 1007.43 -1.24867 1.50947 0
M  V30 10811 H 1006.01 0.406796 0.626519 0
M  V30 10812 H 1008.67 1.58066 1.14022 0
M  V30 10813 H 1007.76 1.62033 2.66743 0
M  V30 10814 N 1008.06 -1.15214 1.07534 0
M  V30 10815 C 1008.97 -2.23636 0.708818 0
M  V30 10816 C 1009.99 -1.7172 -0.280759 0
M  V30 10817 O 1011.17 -2.01 -0.126927 0
M  V30 10818 C 1008.23 -3.46512 0.114167 0
M  V30 10819 C 1007.29 -4.13409 1.15722 0
M  V30 10820 C 1006.53 -5.30419 0.59085 0
M  V30 10821 O 1006.75 -5.67314 -0.592512 0
M  V30 10822 O 1005.68 -5.86871 1.33663 0
M  V30 10823 H 1009.51 -2.57322 1.61305 0
M  V30 10824 H 1007.09 -1.22972 0.848422 0
M  V30 10825 H 1008.98 -4.20851 -0.215091 0
M  V30 10826 H 1007.65 -3.1457 -0.763356 0
M  V30 10827 H 1006.56 -3.40984 1.53886 0
M  V30 10828 H 1007.89 -4.49435 2.00671 0
M  V30 10829 N 1009.54 -0.859717 -1.32086 0
M  V30 10830 C 1010.45 -0.31108 -2.32528 0
M  V30 10831 C 1011.47 0.573714 -1.6427 0
M  V30 10832 O 1012.64 0.472878 -1.9577 0
M  V30 10833 C 1009.71 0.487256 -3.43259 0
M  V30 10834 C 1008.77 -0.424279 -4.27198 0
M  V30 10835 C 1008 0.336051 -5.32641 0
M  V30 10836 O 1008.23 1.56541 -5.48499 0
M  V30 10837 O 1007.16 -0.300777 -6.01148 0
M  V30 10838 H 1010.99 -1.14336 -2.81355 0
M  V30 10839 H 1008.57 -0.622794 -1.358 0
M  V30 10840 H 1010.45 0.940203 -4.10777 0
M  V30 10841 H 1009.13 1.29626 -2.96612 0
M  V30 10842 H 1008.04 -0.925509 -3.62471 0
M  V30 10843 H 1009.37 -1.1986 -4.77383 0
M  V30 10844 N 1011.02 1.44971 -0.618145 0
M  V30 10845 C 1011.97 2.32354 0.106846 0
M  V30 10846 C 1012.96 1.4659 0.848984 0
M  V30 10847 O 1014.17 1.63012 0.763354 0
M  V30 10848 H 1010.54 0.750108 0.0533109 0
M  V30 10849 H 1012.51 2.9127 -0.648426 0
M  V30 10850 C 1011.26 3.30381 1.08368 0
M  V30 10851 H 1010.59 3.96377 0.52205 0
M  V30 10852 H 1012.03 3.94231 1.56069 0
M  V30 10853 C 1010.49 2.58336 2.1625 0
M  V30 10854 O 1011.02 2.37258 3.24148 0
M  V30 10855 N 1009.22 2.18292 1.91825 0
M  V30 10856 H 1008.77 2.35635 1.04086 0
M  V30 10857 H 1008.73 1.70413 2.6421 0
M  V30 10858 N 1012.5 0.357919 1.53482 0
M  V30 10859 C 1013.43 -0.484231 2.28424 0
M  V30 10860 C 1014.41 -1.09046 1.30548 0
M  V30 10861 O 1015.59 -1.10916 1.59409 0
M  V30 10862 C 1012.72 -1.62803 3.06778 0
M  V30 10863 C 1011.68 -1.14943 4.12277 0
M  V30 10864 C 1011 -2.38287 4.78669 0
M  V30 10865 C 1012.3 -0.239627 5.2175 0
M  V30 10866 H 1014 0.140979 2.99068 0
M  V30 10867 H 1011.54 0.069244 1.43833 0
M  V30 10868 H 1013.5 -2.22374 3.57949 0
M  V30 10869 H 1012.22 -2.28036 2.3381 0
M  V30 10870 H 1010.88 -0.576442 3.6204 0
M  V30 10871 H 1010.53 -3.01959 4.02281 0
M  V30 10872 H 1010.23 -2.06939 5.49955 0
M  V30 10873 H 1011.75 -2.98558 5.32631 0
M  V30 10874 H 1013.17 -0.742597 5.6847 0
M  V30 10875 H 1011.56 -0.0173747 6.00097 0
M  V30 10876 H 1012.63 0.720333 4.7952 0
M  V30 10877 N 1013.98 -1.5736 0.0868897 0
M  V30 10878 C 1015.25 -1.85495 -0.620561 0
M  V30 10879 C 1015.63 -0.982218 -1.86857 0
M  V30 10880 O 1014.98 -0.0524529 -2.2844 0
M  V30 10881 C 1015.19 -3.35996 -0.943798 0
M  V30 10882 C 1016.54 -4.03861 -1.31079 0
M  V30 10883 O 1017.56 -3.4083 -1.03507 0
M  V30 10884 O 1016.42 -5.15062 -1.82683 0
M  V30 10885 H 1013.52 -0.766822 -0.309697 0
M  V30 10886 H 1016.06 -1.69282 0.118966 0
M  V30 10887 H 1014.83 -3.91257 -0.0580628 0
M  V30 10888 H 1014.46 -3.57525 -1.73958 0
M  V30 10889 N 1015.45 0.186762 -1.56489 0
M  V30 10890 C 1016.68 0.925916 -1.85584 0
M  V30 10891 C 1017.1 1.75708 -0.671446 0
M  V30 10892 O 1016.46 1.7728 0.379687 0
M  V30 10893 C 1016.51 1.79107 -3.12975 0
M  V30 10894 O 1015.61 2.89088 -2.94112 0
M  V30 10895 H 1014.96 0.260275 -0.610863 0
M  V30 10896 H 1017.49 0.189561 -2.0372 0
M  V30 10897 H 1017.5 2.19408 -3.43983 0
M  V30 10898 H 1016.17 1.18044 -3.98796 0
M  V30 10899 H 1014.75 2.52482 -2.74422 0
M  V30 10900 N 1016.93 1.50896 0.454776 0
M  V30 10901 C 1018.16 1.66239 1.22671 0
M  V30 10902 C 1018.57 0.351876 1.85899 0
M  V30 10903 O 1017.91 -0.677848 1.70736 0
M  V30 10904 C 1017.98 2.70812 2.36434 0
M  V30 10905 C 1017.64 4.13913 1.93714 0
M  V30 10906 C 1018.64 4.99259 1.45039 0
M  V30 10907 C 1016.32 4.59921 2.01937 0
M  V30 10908 C 1018.32 6.28667 1.05151 0
M  V30 10909 C 1016 5.89329 1.6166 0
M  V30 10910 C 1017 6.73529 1.13347 0
M  V30 10911 O 1016.69 8.0052 0.736354 0
M  V30 10912 H 1016.42 0.561443 0.376508 0
M  V30 10913 H 1018.97 1.97974 0.547325 0
M  V30 10914 H 1017.2 2.34355 3.07595 0
M  V30 10915 H 1018.89 2.7521 2.98353 0
M  V30 10916 H 1019.66 4.64925 1.38095 0
M  V30 10917 H 1015.54 3.94518 2.38488 0
M  V30 10918 H 1019.08 6.94339 0.673711 0
M  V30 10919 H 1014.98 6.23182 1.68269 0
M  V30 10920 H 1015.75 8.1393 0.863759 0
M  V30 10921 N 1018.41 -0.709066 1.40748 0
M  V30 10922 C 1019.37 -1.80485 1.41272 0
M  V30 10923 C 1020.37 -1.57872 0.305463 0
M  V30 10924 O 1021.56 -1.64793 0.564691 0
M  V30 10925 C 1018.7 -3.1867 1.21087 0
M  V30 10926 H 1019.89 -1.81417 2.38805 0
M  V30 10927 H 1017.44 -0.915356 1.26692 0
M  V30 10928 H 1018.18 -3.23385 0.243406 0
M  V30 10929 H 1017.96 -3.36484 2.01299 0
M  V30 10930 H 1019.45 -3.98685 1.24257 0
M  V30 10931 N 1019.89 -1.26353 -0.941956 0
M  V30 10932 C 1021.14 -1.1163 -1.68473 0
M  V30 10933 C 1021.46 0.34108 -1.91994 0
M  V30 10934 O 1020.73 1.24065 -1.51607 0
M  V30 10935 H 1019.31 -0.410113 -0.624353 0
M  V30 10936 H 1021.97 -1.58669 -1.13182 0
M  V30 10937 H 1021.07 -1.63445 -2.6588 0
M  V30 10938 N 1021.37 1.14642 -1.08144 0
M  V30 10939 C 1022.3 2.18656 -0.653066 0
M  V30 10940 C 1023.28 1.59137 0.333803 0
M  V30 10941 O 1024.46 1.86988 0.238305 0
M  V30 10942 C 1021.59 3.38677 0.0398337 0
M  V30 10943 C 1020.64 4.1675 -0.906755 0
M  V30 10944 S 1021.47 4.78103 -2.41201 0
M  V30 10945 C 1022.62 6.01483 -1.73115 0
M  V30 10946 H 1022.86 2.54654 -1.53423 0
M  V30 10947 H 1020.39 1.25731 -0.896162 0
M  V30 10948 H 1022.35 4.08206 0.43334 0
M  V30 10949 H 1021.01 3.01006 0.897457 0
M  V30 10950 H 1020.2 5.02649 -0.368795 0
M  V30 10951 H 1019.8 3.52809 -1.24103 0
M  V30 10952 H 1022.1 6.69353 -1.04752 0
M  V30 10953 H 1023.04 6.59863 -2.56878 0
M  V30 10954 H 1023.45 5.51474 -1.20566 0
M  V30 10955 N 1022.85 0.866709 1.31628 0
M  V30 10956 C 1024.07 0.48956 2.01539 0
M  V30 10957 C 1024.5 -0.909556 1.64647 0
M  V30 10958 O 1023.85 -1.59959 0.853391 0
M  V30 10959 C 1023.9 0.650176 3.5469 0
M  V30 10960 O 1023.01 -0.311908 4.11219 0
M  V30 10961 H 1022.35 0.195144 0.634677 0
M  V30 10962 H 1024.88 1.16923 1.679 0
M  V30 10963 H 1024.89 0.542236 4.04381 0
M  V30 10964 H 1023.56 1.67038 3.80882 0
M  V30 10965 H 1022.14 -0.159197 3.7256 0
M  V30 10966 N 1024.32 -1.44642 0.625825 0
M  V30 10967 C 1025.29 -2.29085 -0.072526 0
M  V30 10968 C 1026.29 -1.40755 -0.777467 0
M  V30 10969 O 1027.48 -1.62684 -0.622861 0
M  V30 10970 C 1024.61 -3.22212 -1.1132 0
M  V30 10971 H 1025.8 -2.92317 0.670124 0
M  V30 10972 H 1023.35 -1.51466 0.38571 0
M  V30 10973 H 1024.09 -2.63819 -1.88601 0
M  V30 10974 H 1023.87 -3.87299 -0.611709 0
M  V30 10975 H 1025.36 -3.8566 -1.60175 0
M  V30 10976 N 1025.8 -0.366053 -1.5329 0
M  V30 10977 C 1027.05 0.224614 -2.00445 0
M  V30 10978 C 1027.36 1.49829 -1.2574 0
M  V30 10979 O 1028.57 2.16759 -1.63487 0
M  V30 10980 C 1027.03 0.450818 -3.57065 0
M  V30 10981 C 1026.63 -0.808257 -4.40649 0
M  V30 10982 C 1028.38 0.999116 -4.12575 0
M  V30 10983 C 1026.28 -0.551612 -5.88822 0
M  V30 10984 H 1025.21 0.0877114 -0.748881 0
M  V30 10985 H 1027.87 -0.484866 -1.76978 0
M  V30 10986 H 1026.25 1.22157 -3.76688 0
M  V30 10987 H 1027.42 -1.58184 -4.32798 0
M  V30 10988 H 1025.74 -1.27981 -3.96245 0
M  V30 10989 H 1028.33 1.20646 -5.20911 0
M  V30 10990 H 1028.68 1.96139 -3.67199 0
M  V30 10991 H 1029.21 0.288518 -3.96752 0
M  V30 10992 H 1025.95 -1.48423 -6.38475 0
M  V30 10993 H 1025.47 0.183462 -5.99519 0
M  V30 10994 H 1027.15 -0.177307 -6.46757 0
M  V30 10995 N 1027.28 1.57312 -0.0952337 0
M  V30 10996 C 1028.21 2.17056 0.860753 0
M  V30 10997 C 1029.19 1.10394 1.29411 0
M  V30 10998 O 1030.38 1.38532 1.36098 0
M  V30 10999 C 1027.51 2.751 2.11984 0
M  V30 11000 C 1026.46 3.87136 1.8251 0
M  V30 11001 C 1025.79 4.31883 3.15247 0
M  V30 11002 C 1027.09 5.10326 1.11194 0
M  V30 11003 H 1028.78 2.97192 0.362983 0
M  V30 11004 H 1026.33 1.42955 0.173151 0
M  V30 11005 H 1028.28 3.15547 2.79299 0
M  V30 11006 H 1027 1.92219 2.64044 0
M  V30 11007 H 1025.66 3.47229 1.17592 0
M  V30 11008 H 1025.31 3.45893 3.65195 0
M  V30 11009 H 1025.01 5.0742 2.96309 0
M  V30 11010 H 1026.53 4.74964 3.83721 0
M  V30 11011 H 1027.95 5.47942 1.6862 0
M  V30 11012 H 1026.34 5.91293 1.02435 0
M  V30 11013 H 1027.41 4.84807 0.0947227 0
M  V30 11014 N 1028.76 -0.17846 1.56586 0
M  V30 11015 C 1030 -0.896235 1.81587 0
M  V30 11016 C 1030.33 -1.82553 0.671168 0
M  V30 11017 O 1029.59 -1.92688 -0.342046 0
M  V30 11018 C 1029.89 -1.73063 3.12704 0
M  V30 11019 C 1029.55 -0.950877 4.4076 0
M  V30 11020 C 1028.21 -0.735647 4.75544 0
M  V30 11021 C 1030.57 -0.403419 5.19636 0
M  V30 11022 C 1027.89 0.0382562 5.86688 0
M  V30 11023 C 1030.25 0.357359 6.3159 0
M  V30 11024 C 1028.91 0.583455 6.64945 0
M  V30 11025 H 1028.18 -0.327956 0.664474 0
M  V30 11026 H 1030.83 -0.161586 1.90817 0
M  V30 11027 H 1029.13 -2.53446 2.98785 0
M  V30 11028 H 1030.83 -2.28891 3.29257 0
M  V30 11029 H 1027.42 -1.12866 4.13472 0
M  V30 11030 H 1031.6 -0.557059 4.93164 0
M  V30 11031 H 1026.86 0.223237 6.10992 0
M  V30 11032 H 1031.03 0.788861 6.91918 0
M  V30 11033 H 1028.66 1.18502 7.50907 0
M  V30 11034 N 1030.24 -1.51135 -0.446768 0
M  V30 11035 C 1031.51 -1.5387 -1.20762 0
M  V30 11036 C 1031.89 -0.297446 -2.08994 0
M  V30 11037 O 1031.24 0.717975 -2.16927 0
M  V30 11038 C 1031.45 -2.84767 -2.01764 0
M  V30 11039 C 1032.8 -3.3636 -2.59128 0
M  V30 11040 O 1033.82 -2.86254 -2.11984 0
M  V30 11041 O 1032.68 -4.23765 -3.45088 0
M  V30 11042 H 1029.78 -0.618228 -0.549293 0
M  V30 11043 H 1032.32 -1.63442 -0.456605 0
M  V30 11044 H 1031.09 -3.6657 -1.36901 0
M  V30 11045 H 1030.72 -2.78313 -2.8395 0
M  V30 11046 N 1031.71 0.701592 -1.41122 0
M  V30 11047 C 1032.96 1.46376 -1.40363 0
M  V30 11048 C 1033.29 1.94197 -0.0105442 0
M  V30 11049 O 1032.57 1.69121 0.960637 0
M  V30 11050 C 1032.85 2.67994 -2.40523 0
M  V30 11051 C 1032.7 2.25977 -3.88914 0
M  V30 11052 C 1034.02 3.70181 -2.38022 0
M  V30 11053 H 1031.14 0.530929 -0.511159 0
M  V30 11054 H 1033.78 0.799588 -1.72356 0
M  V30 11055 H 1031.93 3.24661 -2.13372 0
M  V30 11056 H 1033.61 1.74684 -4.26946 0
M  V30 11057 H 1031.85 1.57826 -4.04071 0
M  V30 11058 H 1032.52 3.13215 -4.54533 0
M  V30 11059 H 1035 3.23174 -2.62103 0
M  V30 11060 H 1033.87 4.52894 -3.10127 0
M  V30 11061 H 1034.13 4.19458 -1.3967 0
M  V30 11062 N 1033.19 1.2685 0.935242 0
M  V30 11063 C 1034.12 1.04717 2.0388 0
M  V30 11064 C 1035.14 0.00567507 1.62799 0
M  V30 11065 O 1036.33 0.246408 1.76791 0
M  V30 11066 C 1033.43 0.56496 3.34158 0
M  V30 11067 C 1032.6 1.67704 4.03973 0
M  V30 11068 C 1031.66 1.19186 5.12524 0
M  V30 11069 O 1030.68 1.89008 5.36903 0
M  V30 11070 N 1031.89 0.0434554 5.80484 0
M  V30 11071 H 1034.65 1.99746 2.23431 0
M  V30 11072 H 1032.21 1.18316 1.10512 0
M  V30 11073 H 1034.2 0.224436 4.04077 0
M  V30 11074 H 1032.77 -0.291899 3.11234 0
M  V30 11075 H 1031.99 2.18821 3.27889 0
M  V30 11076 H 1033.28 2.42361 4.47368 0
M  V30 11077 H 1032.68 -0.539502 5.63122 0
M  V30 11078 H 1031.24 -0.237946 6.51366 0
M  V30 11079 N 1034.67 -1.14067 1.0875 0
M  V30 11080 C 1035.6 -2.21385 0.74236 0
M  V30 11081 C 1036.58 -1.67833 -0.276805 0
M  V30 11082 O 1037.77 -1.93647 -0.1464 0
M  V30 11083 C 1034.9 -3.46956 0.154644 0
M  V30 11084 C 1033.85 -4.13555 1.10255 0
M  V30 11085 C 1033.18 -5.3337 0.376877 0
M  V30 11086 C 1034.48 -4.6169 2.44213 0
M  V30 11087 H 1036.17 -2.50512 1.63964 0
M  V30 11088 H 1033.72 -1.20408 0.789807 0
M  V30 11089 H 1035.67 -4.21284 -0.0988419 0
M  V30 11090 H 1034.39 -3.17203 -0.777789 0
M  V30 11091 H 1033.05 -3.41186 1.34119 0
M  V30 11092 H 1032.7 -4.99879 -0.559472 0
M  V30 11093 H 1032.4 -5.78875 1.00884 0
M  V30 11094 H 1033.92 -6.10458 0.131527 0
M  V30 11095 H 1035.34 -5.27475 2.24595 0
M  V30 11096 H 1033.74 -5.17909 3.03134 0
M  V30 11097 H 1034.81 -3.76574 3.05483 0
M  V30 11098 N 1036.15 -0.873678 -1.31166 0
M  V30 11099 C 1037.56 -0.566109 -1.49223 0
M  V30 11100 C 1037.76 0.898889 -1.80339 0
M  V30 11101 O 1036.82 1.68084 -1.88425 0
M  V30 11102 C 1038.13 -1.46952 -2.62346 0
M  V30 11103 C 1039.68 -1.47195 -2.76229 0
M  V30 11104 C 1040.16 -2.36102 -3.92454 0
M  V30 11105 N 1041.65 -2.34003 -3.99746 0
M  V30 11106 C 1042.38 -2.99513 -4.88958 0
M  V30 11107 N 1041.88 -3.74206 -5.83045 0
M  V30 11108 N 1043.67 -2.88802 -4.82234 0
M  V30 11109 H 1035.82 -1.82156 -1.09239 0
M  V30 11110 H 1038.09 -0.779086 -0.54012 0
M  V30 11111 H 1037.79 -2.51213 -2.4614 0
M  V30 11112 H 1037.67 -1.17077 -3.5857 0
M  V30 11113 H 1040.05 -0.436902 -2.91848 0
M  V30 11114 H 1040.13 -1.81095 -1.80661 0
M  V30 11115 H 1039.78 -3.39685 -3.77593 0
M  V30 11116 H 1039.71 -1.99524 -4.87337 0
M  V30 11117 H 1042.2 -1.79713 -3.32433 0
M  V30 11118 H 1042.51 -4.21312 -6.47855 0
M  V30 11119 H 1040.86 -3.78314 -5.83012 0
M  V30 11120 H 1044.05 -2.29984 -4.07707 0
M  V30 11121 H 1044.22 -3.40136 -5.51554 0
M  V30 11122 N 1037.63 1.44308 -0.633487 0
M  V30 11123 C 1039.04 1.85387 -0.221009 0
M  V30 11124 C 1039.39 1.5301 1.22811 0
M  V30 11125 O 1038.51 0.969325 1.93476 0
M  V30 11126 C 1039.11 3.36497 -0.394331 0
M  V30 11127 C 1037.67 3.76382 -0.0363405 0
M  V30 11128 C 1036.81 2.68146 -0.706598 0
M  V30 11129 H 1039.77 1.34741 -0.83849 0
M  V30 11130 H 1039.79 3.78735 0.366026 0
M  V30 11131 H 1039.3 3.60031 -1.44911 0
M  V30 11132 H 1037.4 3.58463 1.01661 0
M  V30 11133 H 1037.51 4.77 -0.448045 0
M  V30 11134 H 1035.88 2.54306 -0.14168 0
M  V30 11135 H 1036.66 2.94512 -1.76401 0
M  V30 11136 N 1039.1 0.374177 1.53094 0
M  V30 11137 C 1040.35 -0.213131 2.01677 0
M  V30 11138 C 1040.68 -1.47715 1.26071 0
M  V30 11139 O 1039.96 -1.91199 0.356834 0
M  V30 11140 C 1040.24 -0.496392 3.56662 0
M  V30 11141 C 1040.09 0.781859 4.42953 0
M  V30 11142 C 1041.41 -1.29339 4.20666 0
M  V30 11143 H 1038.53 -0.0759885 0.733072 0
M  V30 11144 H 1041.17 0.500765 1.83282 0
M  V30 11145 H 1039.32 -1.10455 3.72467 0
M  V30 11146 H 1041 1.41914 4.38928 0
M  V30 11147 H 1039.24 1.40041 4.10574 0
M  V30 11148 H 1039.91 0.538508 5.49367 0
M  V30 11149 H 1042.39 -0.778848 4.08746 0
M  V30 11150 H 1041.26 -1.46033 5.29118 0
M  V30 11151 H 1041.52 -2.30435 3.77296 0
M  V30 11152 N 1040.58 -1.57259 0.103575 0
M  V30 11153 C 1041.81 -1.99 -0.566275 0
M  V30 11154 C 1042.23 -0.982909 -1.61197 0
M  V30 11155 O 1041.58 0.026345 -1.82481 0
M  V30 11156 C 1041.63 -3.40778 -1.20635 0
M  V30 11157 O 1041.35 -4.37632 -0.202472 0
M  V30 11158 C 1042.86 -3.97567 -1.961 0
M  V30 11159 H 1040.08 -0.653751 -0.151164 0
M  V30 11160 H 1042.62 -2.03658 0.185365 0
M  V30 11161 H 1040.77 -3.37107 -1.90886 0
M  V30 11162 H 1041.19 -5.2026 -0.665535 0
M  V30 11163 H 1042.66 -4.98897 -2.36233 0
M  V30 11164 H 1043.14 -3.35853 -2.83018 0
M  V30 11165 H 1043.75 -4.04737 -1.30645 0
M  V30 11166 N 1042.06 0.170153 -1.56679 0
M  V30 11167 C 1043.31 0.886592 -1.8206 0
M  V30 11168 C 1043.64 1.82194 -0.680839 0
M  V30 11169 O 1042.89 1.92866 0.331822 0
M  V30 11170 C 1043.19 1.71402 -3.13618 0
M  V30 11171 C 1042.86 0.927489 -4.41258 0
M  V30 11172 C 1041.52 0.710417 -4.75927 0
M  V30 11173 C 1043.87 0.375855 -5.19843 0
M  V30 11174 C 1041.2 -0.0693691 -5.86659 0
M  V30 11175 C 1043.55 -0.390849 -6.31391 0
M  V30 11176 C 1042.21 -0.61871 -6.64626 0
M  V30 11177 H 1041.48 0.324427 -0.666204 0
M  V30 11178 H 1044.13 0.151464 -1.909 0
M  V30 11179 H 1042.44 2.51858 -3.00125 0
M  V30 11180 H 1044.13 2.27141 -3.30466 0
M  V30 11181 H 1040.72 1.10672 -4.14065 0
M  V30 11182 H 1044.91 0.530897 -4.93452 0
M  V30 11183 H 1040.16 -0.255637 -6.10865 0
M  V30 11184 H 1044.34 -0.825544 -6.9149 0
M  V30 11185 H 1041.96 -1.22482 -7.50268 0
M  V30 11186 N 1043.54 1.5137 0.438746 0
M  V30 11187 C 1044.79 1.63969 1.1883 0
M  V30 11188 C 1045.11 0.355245 1.91228 0
M  V30 11189 O 1044.37 -0.660605 1.84213 0
M  V30 11190 C 1044.67 2.79221 2.23093 0
M  V30 11191 C 1044.33 4.18547 1.67717 0
M  V30 11192 C 1043 4.5645 1.52337 0
M  V30 11193 C 1045.35 5.05494 1.26986 0
M  V30 11194 C 1042.68 5.79007 0.946996 0
M  V30 11195 C 1045.03 6.28628 0.707785 0
M  V30 11196 C 1043.69 6.65305 0.540881 0
M  V30 11197 H 1042.96 0.600003 0.43483 0
M  V30 11198 H 1045.61 1.85398 0.479565 0
M  V30 11199 H 1043.91 2.52008 2.99999 0
M  V30 11200 H 1045.61 2.86168 2.80907 0
M  V30 11201 H 1042.2 3.88663 1.80663 0
M  V30 11202 H 1046.38 4.76818 1.37689 0
M  V30 11203 H 1041.64 6.06072 0.805432 0
M  V30 11204 H 1045.81 6.95342 0.38366 0
M  V30 11205 H 1043.44 7.60144 0.0921324 0
M  V30 11206 N 1045.02 -0.694098 1.41492 0
M  V30 11207 C 1045.96 -1.82932 1.43662 0
M  V30 11208 C 1046.96 -1.66455 0.31449 0
M  V30 11209 O 1048.16 -1.73298 0.486589 0
M  V30 11210 H 1044.54 -0.602847 0.449533 0
M  V30 11211 H 1046.51 -1.78218 2.39334 0
M  V30 11212 C 1045.26 -3.20962 1.33712 0
M  V30 11213 H 1044.58 -3.34257 2.19345 0
M  V30 11214 H 1046.02 -4.00467 1.39291 0
M  V30 11215 C 1044.48 -3.36863 0.0496332 0
M  V30 11216 O 1045.01 -3.91371 -0.905093 0
M  V30 11217 N 1043.22 -2.90588 -0.0269299 0
M  V30 11218 H 1042.76 -2.46417 0.750752 0
M  V30 11219 H 1042.72 -3.01605 -0.887781 0
M  V30 11220 N 1046.49 -1.27344 -0.928501 0
M  V30 11221 C 1047.74 -1.13411 -1.67279 0
M  V30 11222 C 1048.06 0.320698 -1.92345 0
M  V30 11223 O 1047.33 1.2245 -1.52915 0
M  V30 11224 H 1045.91 -0.416712 -0.619968 0
M  V30 11225 H 1048.58 -1.5986 -1.11493 0
M  V30 11226 H 1047.67 -1.66256 -2.64131 0
M  V30 11227 N 1047.97 1.13488 -1.09353 0
M  V30 11228 C 1049.2 1.88319 -0.849681 0
M  V30 11229 C 1049.61 1.79347 0.602616 0
M  V30 11230 O 1048.95 1.15744 1.4265 0
M  V30 11231 C 1049.02 3.38698 -1.20514 0
M  V30 11232 C 1048.68 3.71452 -2.66219 0
M  V30 11233 C 1049.68 3.70755 -3.64467 0
M  V30 11234 C 1047.36 4.01132 -3.02321 0
M  V30 11235 C 1049.36 3.9928 -4.96845 0
M  V30 11236 C 1047.04 4.29318 -4.3489 0
M  V30 11237 C 1048.04 4.28376 -5.31961 0
M  V30 11238 O 1047.73 4.55872 -6.62145 0
M  V30 11239 H 1047.46 0.603053 -0.305455 0
M  V30 11240 H 1050.01 1.44592 -1.45884 0
M  V30 11241 H 1048.24 3.82925 -0.539022 0
M  V30 11242 H 1049.93 3.94852 -0.940552 0
M  V30 11243 H 1050.7 3.47901 -3.3792 0
M  V30 11244 H 1046.58 4.01013 -2.27398 0
M  V30 11245 H 1050.12 3.9846 -5.72604 0
M  V30 11246 H 1046.02 4.51644 -4.61181 0
M  V30 11247 H 1046.79 4.73544 -6.67607 0
M  V30 11248 N 1049.45 0.880621 1.30701 0
M  V30 11249 C 1050.68 0.510909 2.01009 0
M  V30 11250 C 1051.1 -0.892041 1.65603 0
M  V30 11251 O 1050.46 -1.59045 0.870309 0
M  V30 11252 C 1050.51 0.687759 3.53981 0
M  V30 11253 O 1049.61 -0.268275 4.11526 0
M  V30 11254 H 1048.95 0.201864 0.632572 0
M  V30 11255 H 1051.48 1.18697 1.6665 0
M  V30 11256 H 1051.49 0.585095 4.03783 0
M  V30 11257 H 1050.17 1.71068 3.79089 0
M  V30 11258 H 1048.74 -0.119673 3.72708 0
M  V30 11259 N 1050.93 -1.4397 0.641131 0
M  V30 11260 C 1052.21 -1.95436 0.0800918 0
M  V30 11261 C 1052.59 -1.58282 -1.39678 0
M  V30 11262 O 1051.93 -0.861867 -2.11623 0
M  V30 11263 C 1052.14 -3.47589 0.313531 0
M  V30 11264 C 1053.49 -4.2407 0.212034 0
M  V30 11265 O 1054.52 -3.55353 0.245434 0
M  V30 11266 O 1053.38 -5.46356 0.125455 0
M  V30 11267 H 1050.47 -0.826834 -0.0165735 0
M  V30 11268 H 1053.02 -1.5397 0.71353 0
M  V30 11269 H 1051.79 -3.67716 1.33793 0
M  V30 11270 H 1051.41 -3.96025 -0.353563 0
M  V30 11271 N 1052.41 -0.382291 -1.52893 0
M  V30 11272 C 1053.34 0.447829 -2.29165 0
M  V30 11273 C 1054.32 1.06956 -1.32267 0
M  V30 11274 O 1055.5 1.08365 -1.61154 0
M  V30 11275 C 1052.63 1.57902 -3.09329 0
M  V30 11276 C 1051.59 1.08369 -4.14053 0
M  V30 11277 C 1050.91 2.30641 -4.82399 0
M  V30 11278 C 1052.21 0.156591 -5.22065 0
M  V30 11279 H 1053.91 -0.188541 -2.98806 0
M  V30 11280 H 1051.45 -0.0921179 -1.43705 0
M  V30 11281 H 1053.41 2.16652 -3.61442 0
M  V30 11282 H 1052.13 2.24287 -2.37409 0
M  V30 11283 H 1050.79 0.518772 -3.62911 0
M  V30 11284 H 1050.44 2.9552 -4.07034 0
M  V30 11285 H 1050.14 1.98163 -5.53177 0
M  V30 11286 H 1051.66 2.90047 -5.37313 0
M  V30 11287 H 1053.08 0.652065 -5.6958 0
M  V30 11288 H 1051.47 -0.0780978 -6.00049 0
M  V30 11289 H 1052.54 -0.796529 -4.78313 0
M  V30 11290 N 1053.89 1.57202 -0.111913 0
M  V30 11291 C 1054.82 2.10634 0.877983 0
M  V30 11292 C 1055.8 1.02098 1.26549 0
M  V30 11293 O 1056.98 1.29707 1.36779 0
M  V30 11294 C 1054.11 2.59721 2.174 0
M  V30 11295 C 1053.15 3.80074 1.93509 0
M  V30 11296 S 1053.99 5.22834 1.1578 0
M  V30 11297 C 1055.14 5.75284 2.46576 0
M  V30 11298 H 1055.38 2.94268 0.423483 0
M  V30 11299 H 1052.91 1.54065 0.101721 0
M  V30 11300 H 1054.87 2.88657 2.91868 0
M  V30 11301 H 1053.53 1.76281 2.59969 0
M  V30 11302 H 1052.72 4.12545 2.89522 0
M  V30 11303 H 1052.32 3.51718 1.27164 0
M  V30 11304 H 1054.61 5.84576 3.42457 0
M  V30 11305 H 1055.56 6.73493 2.1866 0
M  V30 11306 H 1055.97 5.03308 2.55619 0
M  V30 11307 N 1055.36 -0.161842 1.56767 0
M  V30 11308 C 1056.59 -0.896274 1.87034 0
M  V30 11309 C 1057.01 -1.74617 0.699314 0
M  V30 11310 O 1056.37 -1.77861 -0.351435 0
M  V30 11311 C 1056.42 -1.74105 3.15784 0
M  V30 11312 O 1055.52 -2.84372 2.98674 0
M  V30 11313 H 1054.86 -0.250523 0.614926 0
M  V30 11314 H 1057.39 -0.157127 2.03996 0
M  V30 11315 H 1057.4 -2.13907 3.4743 0
M  V30 11316 H 1056.08 -1.11684 4.00624 0
M  V30 11317 H 1054.66 -2.48084 2.78404 0
M  V30 11318 N 1056.84 -1.516 -0.430713 0
M  V30 11319 C 1057.79 -1.73392 -1.52328 0
M  V30 11320 C 1058.76 -0.575758 -1.55802 0
M  V30 11321 O 1059.94 -0.810931 -1.72709 0
M  V30 11322 C 1057.08 -1.87092 -2.89984 0
M  V30 11323 C 1056.2 -3.14668 -2.95987 0
M  V30 11324 C 1055.33 -3.18923 -4.24807 0
M  V30 11325 C 1054.37 -4.40787 -4.24703 0
M  V30 11326 N 1053.51 -4.42556 -5.45059 0
M  V30 11327 H 1058.35 -2.6665 -1.33048 0
M  V30 11328 H 1055.88 -1.32146 -0.646207 0
M  V30 11329 H 1057.84 -1.93017 -3.69865 0
M  V30 11330 H 1056.47 -0.972363 -3.07807 0
M  V30 11331 H 1055.52 -3.1802 -2.08728 0
M  V30 11332 H 1056.84 -4.04562 -2.91772 0
M  V30 11333 H 1055.99 -3.23801 -5.13067 0
M  V30 11334 H 1054.73 -2.2693 -4.31688 0
M  V30 11335 H 1053.73 -4.36079 -3.34836 0
M  V30 11336 H 1054.96 -5.34053 -4.19481 0
M  V30 11337 H 1052.91 -3.53435 -5.52648 0
M  V30 11338 H 1052.82 -5.26267 -5.42751 0
M  V30 11339 H 1054.09 -4.51634 -6.35332 0
M  V30 11340 N 1058.32 0.686584 -1.41858 0
M  V30 11341 C 1059.25 1.81107 -1.38836 0
M  V30 11342 C 1060.23 1.60599 -0.254293 0
M  V30 11343 O 1061.41 1.83229 -0.442641 0
M  V30 11344 C 1058.54 3.17928 -1.16787 0
M  V30 11345 C 1057.59 3.5721 -2.33031 0
M  V30 11346 S 1058.42 3.60986 -3.95536 0
M  V30 11347 C 1059.58 5.00519 -3.75808 0
M  V30 11348 H 1059.81 1.83396 -2.33994 0
M  V30 11349 H 1057.34 0.856146 -1.28489 0
M  V30 11350 H 1059.3 3.9691 -1.04752 0
M  V30 11351 H 1057.96 3.1324 -0.232335 0
M  V30 11352 H 1057.15 4.56629 -2.13321 0
M  V30 11353 H 1056.76 2.8556 -2.41519 0
M  V30 11354 H 1059.05 5.88272 -3.36069 0
M  V30 11355 H 1059.99 5.25273 -4.74862 0
M  V30 11356 H 1060.4 4.72481 -3.08904 0
M  V30 11357 N 1059.8 1.27835 0.921735 0
M  V30 11358 C 1060.73 1.136 2.04003 0
M  V30 11359 C 1061.71 0.0358756 1.70062 0
M  V30 11360 O 1062.89 0.211438 1.93046 0
M  V30 11361 C 1060.02 0.788697 3.38226 0
M  V30 11362 C 1058.98 1.84272 3.863 0
M  V30 11363 C 1058.3 1.34923 5.17397 0
M  V30 11364 C 1059.6 3.24788 4.09035 0
M  V30 11365 H 1061.3 2.07149 2.1617 0
M  V30 11366 H 1058.84 0.997349 1.0387 0
M  V30 11367 H 1060.8 0.675911 4.15944 0
M  V30 11368 H 1059.52 -0.182499 3.2609 0
M  V30 11369 H 1058.18 1.94451 3.1078 0
M  V30 11370 H 1057.83 0.367328 5.01657 0
M  V30 11371 H 1057.53 2.05397 5.50532 0
M  V30 11372 H 1059.05 1.24951 5.97678 0
M  V30 11373 H 1060.47 3.17575 4.77304 0
M  V30 11374 H 1058.86 3.93025 4.53488 0
M  V30 11375 H 1059.93 3.69398 3.14122 0
M  V30 11376 N 1061.28 -1.12907 1.09954 0
M  V30 11377 C 1062.5 -1.88679 0.861099 0
M  V30 11378 C 1062.93 -1.78853 -0.582499 0
M  V30 11379 O 1062.28 -1.13992 -1.4098 0
M  V30 11380 C 1062.33 -3.36047 1.30785 0
M  V30 11381 O 1061.44 -4.09716 0.469728 0
M  V30 11382 H 1060.78 -0.586447 0.31141 0
M  V30 11383 H 1063.31 -1.42818 1.46507 0
M  V30 11384 H 1063.32 -3.86882 1.29562 0
M  V30 11385 H 1061.99 -3.42516 2.35914 0
M  V30 11386 H 1060.57 -3.6887 0.54674 0
M  V30 11387 N 1062.75 -0.88754 -1.30232 0
M  V30 11388 C 1063.72 -0.361095 -2.26338 0
M  V30 11389 C 1064.72 0.497871 -1.52898 0
M  V30 11390 O 1065.91 0.30466 -1.71515 0
M  V30 11391 C 1063.04 0.485135 -3.3743 0
M  V30 11392 H 1064.23 -1.20973 -2.74419 0
M  V30 11393 H 1061.78 -0.664619 -1.41466 0
M  V30 11394 H 1062.52 1.35425 -2.9467 0
M  V30 11395 H 1062.3 -0.130173 -3.91884 0
M  V30 11396 H 1063.79 0.845169 -4.08958 0
M  V30 11397 N 1064.23 1.43628 -0.648757 0
M  V30 11398 C 1065.46 2.06732 -0.166284 0
M  V30 11399 C 1065.88 1.48281 1.15734 0
M  V30 11400 O 1065.24 0.591018 1.71396 0
M  V30 11401 C 1065.29 3.60502 -0.0838732 0
M  V30 11402 O 1064.39 4.01186 0.955185 0
M  V30 11403 H 1063.73 0.657479 -0.0928285 0
M  V30 11404 H 1066.26 1.84208 -0.890421 0
M  V30 11405 H 1066.27 4.07875 0.100923 0
M  V30 11406 H 1064.95 4.02424 -1.05014 0
M  V30 11407 H 1063.53 3.65412 0.743537 0
M  V30 11408 N 1065.71 0.390394 1.52688 0
M  V30 11409 C 1066.96 -0.191067 2.01195 0
M  V30 11410 C 1067.28 -1.47229 1.27862 0
M  V30 11411 O 1066.55 -1.91793 0.399007 0
M  V30 11412 H 1065.13 -0.073596 0.743366 0
M  V30 11413 H 1067.79 0.522334 1.8777 0
M  V30 11414 H 1066.89 -0.40051 3.0952 0
M  V30 11415 N 1067.19 -1.57141 0.120249 0
M  V30 11416 C 1068.47 -1.8677 -0.581075 0
M  V30 11417 C 1068.85 -1.02163 -1.84732 0
M  V30 11418 O 1068.19 -0.100897 -2.28277 0
M  V30 11419 C 1068.4 -3.37923 -0.872316 0
M  V30 11420 C 1069.75 -4.0655 -1.22483 0
M  V30 11421 O 1070.78 -3.42948 -0.962539 0
M  V30 11422 O 1069.63 -5.18821 -1.71717 0
M  V30 11423 H 1066.73 -0.773219 -0.293362 0
M  V30 11424 H 1069.27 -1.68992 0.154846 0
M  V30 11425 H 1068.05 -3.91292 0.0249416 0
M  V30 11426 H 1067.67 -3.61135 -1.66335 0
M  V30 11427 N 1068.67 0.153526 -1.5685 0
M  V30 11428 C 1070.08 0.714247 -1.72498 0
M  V30 11429 C 1070.43 1.81968 -0.733621 0
M  V30 11430 O 1069.55 2.16163 0.10118 0
M  V30 11431 C 1070.15 1.30238 -3.12767 0
M  V30 11432 C 1068.71 1.80974 -3.30038 0
M  V30 11433 C 1067.85 0.695638 -2.68433 0
M  V30 11434 H 1070.81 -0.0720733 -1.58536 0
M  V30 11435 H 1070.83 2.17217 -3.12405 0
M  V30 11436 H 1070.34 0.497605 -3.84897 0
M  V30 11437 H 1068.44 2.64039 -2.62895 0
M  V30 11438 H 1068.55 1.94294 -4.37934 0
M  V30 11439 H 1066.92 1.12061 -2.28723 0
M  V30 11440 H 1067.7 -0.0975885 -3.43161 0
M  V30 11441 N 1070.14 1.51827 0.422667 0
M  V30 11442 C 1071.39 1.6445 1.16786 0
M  V30 11443 C 1071.71 0.373792 1.91995 0
M  V30 11444 O 1072.91 0.379621 2.68833 0
M  V30 11445 C 1071.37 2.90488 2.12473 0
M  V30 11446 C 1070.98 4.24617 1.42844 0
M  V30 11447 C 1072.72 3.12472 2.87335 0
M  V30 11448 C 1070.63 5.41791 2.371 0
M  V30 11449 H 1069.56 0.612561 0.439641 0
M  V30 11450 H 1072.21 1.78305 0.433534 0
M  V30 11451 H 1070.59 2.703 2.89402 0
M  V30 11452 H 1071.76 4.55239 0.71372 0
M  V30 11453 H 1070.08 4.08628 0.800769 0
M  V30 11454 H 1072.68 3.9719 3.57973 0
M  V30 11455 H 1073.02 2.26148 3.49518 0
M  V30 11456 H 1073.55 3.33069 2.17509 0
M  V30 11457 H 1070.29 6.3042 1.79584 0
M  V30 11458 H 1069.81 5.15526 3.06583 0
M  V30 11459 H 1071.49 5.74329 2.97918 0
M  V30 11460 N 1071.62 -0.679052 1.4222 0
M  V30 11461 C 1072.85 -1.47248 1.46058 0
M  V30 11462 C 1073.27 -1.87962 0.0720987 0
M  V30 11463 O 1072.63 -1.5572 -0.928488 0
M  V30 11464 C 1072.68 -2.70067 2.38948 0
M  V30 11465 O 1071.78 -3.68178 1.85791 0
M  V30 11466 H 1071.12 -0.442533 0.495036 0
M  V30 11467 H 1073.65 -0.833263 1.86863 0
M  V30 11468 H 1073.66 -3.18187 2.55385 0
M  V30 11469 H 1072.34 -2.39773 3.39826 0
M  V30 11470 H 1070.92 -3.2719 1.78889 0
M  V30 11471 N 1073.1 -1.28322 -0.914942 0
M  V30 11472 C 1074.35 -1.15578 -1.66642 0
M  V30 11473 C 1074.68 0.295209 -1.91943 0
M  V30 11474 O 1073.95 1.21482 -1.51896 0
M  V30 11475 C 1074.24 -1.9535 -3.02507 0
M  V30 11476 C 1074.09 -3.48504 -2.84367 0
M  V30 11477 C 1075.41 -1.76798 -4.03027 0
M  V30 11478 H 1072.53 -0.421234 -0.604757 0
M  V30 11479 H 1075.17 -1.57625 -1.06087 0
M  V30 11480 H 1073.32 -1.59619 -3.54195 0
M  V30 11481 H 1074.99 -3.94135 -2.39699 0
M  V30 11482 H 1073.24 -3.74198 -2.1945 0
M  V30 11483 H 1073.91 -3.99576 -3.80845 0
M  V30 11484 H 1076.38 -2.07977 -3.60395 0
M  V30 11485 H 1075.26 -2.34987 -4.96057 0
M  V30 11486 H 1075.52 -0.719162 -4.36211 0
M  V30 11487 N 1074.58 1.12322 -1.10551 0
M  V30 11488 C 1075.82 1.8413 -0.849932 0
M  V30 11489 C 1076.16 1.83938 0.622946 0
M  V30 11490 O 1075.43 1.28579 1.45937 0
M  V30 11491 C 1075.72 3.31751 -1.40048 0
M  V30 11492 C 1075.57 3.40391 -2.9403 0
M  V30 11493 C 1076.89 4.27543 -1.04379 0
M  V30 11494 H 1074.01 0.668533 -0.310213 0
M  V30 11495 H 1076.65 1.31766 -1.36886 0
M  V30 11496 H 1074.8 3.76475 -0.959102 0
M  V30 11497 H 1076.47 3.04294 -3.46703 0
M  V30 11498 H 1074.71 2.809 -3.30571 0
M  V30 11499 H 1075.38 4.44252 -3.27635 0
M  V30 11500 H 1077.86 3.90951 -1.42466 0
M  V30 11501 H 1076.74 5.2924 -1.4559 0
M  V30 11502 H 1077 4.42075 0.0466316 0
M  V30 11503 N 1076.06 0.894434 1.2976 0
M  V30 11504 C 1077 0.366586 2.2787 0
M  V30 11505 C 1077.97 -0.548425 1.56785 0
M  V30 11506 O 1079.16 -0.474804 1.84798 0
M  V30 11507 C 1076.3 -0.404531 3.42721 0
M  V30 11508 C 1075.41 0.540774 4.28602 0
M  V30 11509 C 1074.55 -0.246875 5.30626 0
M  V30 11510 C 1073.59 0.693294 6.08161 0
M  V30 11511 N 1072.72 -0.059619 7.02075 0
M  V30 11512 H 1077.56 1.20834 2.72402 0
M  V30 11513 H 1075.1 0.607205 1.33983 0
M  V30 11514 H 1077.06 -0.86762 4.08079 0
M  V30 11515 H 1075.69 -1.21078 2.99232 0
M  V30 11516 H 1074.74 1.12237 3.63465 0
M  V30 11517 H 1076.05 1.26065 4.82606 0
M  V30 11518 H 1075.21 -0.771398 6.01776 0
M  V30 11519 H 1073.94 -0.999918 4.77339 0
M  V30 11520 H 1072.95 1.22936 5.35879 0
M  V30 11521 H 1074.17 1.44558 6.63536 0
M  V30 11522 H 1072.12 -0.795026 6.51165 0
M  V30 11523 H 1072.04 0.60045 7.53612 0
M  V30 11524 H 1073.31 -0.564577 7.77453 0
M  V30 11525 N 1077.53 -1.43282 0.656365 0
M  V30 11526 C 1078.78 -2.01378 0.170702 0
M  V30 11527 C 1079.1 -1.52063 -1.22073 0
M  V30 11528 O 1078.37 -0.73456 -1.81607 0
M  V30 11529 H 1076.95 -0.744577 0.0601168 0
M  V30 11530 H 1079.62 -1.75449 0.848739 0
M  V30 11531 H 1078.71 -3.11701 0.157745 0
M  V30 11532 N 1079.01 -0.398486 -1.52479 0
M  V30 11533 C 1079.94 0.423498 -2.29627 0
M  V30 11534 C 1080.92 1.05547 -1.33394 0
M  V30 11535 O 1082.11 1.0665 -1.62294 0
M  V30 11536 C 1079.24 1.54612 -3.10986 0
M  V30 11537 C 1078.19 1.03971 -4.15179 0
M  V30 11538 C 1077.52 2.25512 -4.84818 0
M  V30 11539 C 1078.82 0.10121 -5.22202 0
M  V30 11540 H 1080.51 -0.220222 -2.98589 0
M  V30 11541 H 1078.06 -0.107355 -1.43599 0
M  V30 11542 H 1080.01 2.12806 -3.63719 0
M  V30 11543 H 1078.74 2.21756 -2.39774 0
M  V30 11544 H 1077.4 0.480251 -3.63441 0
M  V30 11545 H 1077.04 2.91187 -4.10145 0
M  V30 11546 H 1076.74 1.92285 -5.55248 0
M  V30 11547 H 1078.27 2.84331 -5.40359 0
M  V30 11548 H 1079.68 0.591617 -5.70239 0
M  V30 11549 H 1078.08 -0.141737 -5.99933 0
M  V30 11550 H 1079.15 -0.847216 -4.77441 0
M  V30 11551 N 1080.49 1.57075 -0.12858 0
M  V30 11552 C 1081.74 1.94695 0.526952 0
M  V30 11553 C 1082.05 1.01482 1.67215 0
M  V30 11554 O 1083.26 1.28606 2.39108 0
M  V30 11555 C 1081.72 3.4605 0.988801 0
M  V30 11556 C 1081.32 4.47816 -0.128457 0
M  V30 11557 C 1083.07 3.92572 1.61517 0
M  V30 11558 C 1080.97 5.9036 0.350628 0
M  V30 11559 H 1079.9 0.726819 0.200623 0
M  V30 11560 H 1082.56 1.82295 -0.209972 0
M  V30 11561 H 1080.94 3.53718 1.78043 0
M  V30 11562 H 1082.11 4.51826 -0.904976 0
M  V30 11563 H 1080.43 4.11103 -0.662075 0
M  V30 11564 H 1083.02 4.96493 1.98491 0
M  V30 11565 H 1083.37 3.33085 2.49721 0
M  V30 11566 H 1083.9 3.87744 0.888768 0
M  V30 11567 H 1080.64 6.53624 -0.495592 0
M  V30 11568 H 1080.16 5.89749 1.09342 0
M  V30 11569 H 1081.84 6.41926 0.808717 0
M  V30 11570 N 1081.97 -0.145205 1.5693 0
M  V30 11571 C 1082.9 -1.18096 2.01434 0
M  V30 11572 C 1083.88 -1.447 0.894204 0
M  V30 11573 O 1085.07 -1.55589 1.16214 0
M  V30 11574 C 1082.2 -2.51369 2.39647 0
M  V30 11575 C 1081.15 -2.39283 3.54863 0
M  V30 11576 C 1080.48 -3.77283 3.78895 0
M  V30 11577 C 1081.78 -1.8754 4.87469 0
M  V30 11578 H 1083.47 -0.810897 2.8821 0
M  V30 11579 H 1081.02 -0.388624 1.38657 0
M  V30 11580 H 1082.97 -3.24054 2.69382 0
M  V30 11581 H 1081.69 -2.90214 1.49811 0
M  V30 11582 H 1080.35 -1.6905 3.25296 0
M  V30 11583 H 1080 -4.13567 2.86307 0
M  V30 11584 H 1079.7 -3.70057 4.56433 0
M  V30 11585 H 1081.22 -4.51514 4.11057 0
M  V30 11586 H 1082.64 -2.50019 5.1591 0
M  V30 11587 H 1081.03 -1.912 5.68826 0
M  V30 11588 H 1082.1 -0.831194 4.77723 0
M  V30 11589 N 1083.45 -1.52049 -0.414609 0
M  V30 11590 C 1084.38 -1.77956 -1.51175 0
M  V30 11591 C 1085.36 -0.630282 -1.57992 0
M  V30 11592 O 1086.54 -0.875324 -1.73354 0
M  V30 11593 C 1083.67 -1.92527 -2.89051 0
M  V30 11594 C 1082.63 -3.08096 -2.97087 0
M  V30 11595 C 1081.95 -3.07882 -4.37164 0
M  V30 11596 C 1083.25 -4.47656 -2.69075 0
M  V30 11597 H 1084.95 -2.69827 -1.29746 0
M  V30 11598 H 1082.49 -1.29839 -0.62273 0
M  V30 11599 H 1084.45 -2.09234 -3.65786 0
M  V30 11600 H 1083.17 -0.973235 -3.11762 0
M  V30 11601 H 1081.83 -2.91131 -2.22797 0
M  V30 11602 H 1081.48 -2.10411 -4.56877 0
M  V30 11603 H 1081.18 -3.85501 -4.43467 0
M  V30 11604 H 1082.7 -3.26712 -5.15841 0
M  V30 11605 H 1084.12 -4.64855 -3.35534 0
M  V30 11606 H 1082.51 -5.27151 -2.8676 0
M  V30 11607 H 1083.58 -4.56129 -1.64544 0
M  V30 11608 N 1084.93 0.6715 -1.42579 0
M  V30 11609 C 1086.17 1.42731 -1.42516 0
M  V30 11610 C 1086.49 1.95545 -0.0462407 0
M  V30 11611 O 1087.69 2.71391 0.0769798 0
M  V30 11612 C 1086.15 2.58215 -2.50705 0
M  V30 11613 C 1085.76 2.12086 -3.94618 0
M  V30 11614 C 1087.5 3.35705 -2.59813 0
M  V30 11615 C 1085.41 3.24672 -4.9431 0
M  V30 11616 H 1084.34 0.536218 -0.530081 0
M  V30 11617 H 1086.99 0.726655 -1.68499 0
M  V30 11618 H 1085.37 3.30665 -2.17892 0
M  V30 11619 H 1086.55 1.46768 -4.36802 0
M  V30 11620 H 1084.86 1.47526 -3.89391 0
M  V30 11621 H 1087.46 4.1956 -3.31472 0
M  V30 11622 H 1087.8 3.82517 -1.64276 0
M  V30 11623 H 1088.33 2.70326 -2.91836 0
M  V30 11624 H 1085.07 2.82848 -5.91335 0
M  V30 11625 H 1084.59 3.88761 -4.56755 0
M  V30 11626 H 1086.27 3.90088 -5.16179 0
M  V30 11627 N 1086.4 1.28806 0.908124 0
M  V30 11628 C 1087.68 1.06981 1.63751 0
M  V30 11629 C 1088.06 -0.388936 2.07486 0
M  V30 11630 O 1087.41 -1.37611 1.82415 0
M  V30 11631 C 1087.62 2.04962 2.82474 0
M  V30 11632 C 1088.97 2.35418 3.5336 0
M  V30 11633 O 1089.99 2.03091 2.92631 0
M  V30 11634 O 1088.85 2.90617 4.62822 0
M  V30 11635 H 1085.94 0.409267 0.71863 0
M  V30 11636 H 1088.49 1.40146 0.956934 0
M  V30 11637 H 1087.26 3.03254 2.47291 0
M  V30 11638 H 1086.88 1.72476 3.58242 0
M  V30 11639 N 1087.88 -1.11734 1.11145 0
M  V30 11640 C 1088.83 -2.15789 0.736133 0
M  V30 11641 C 1089.82 -1.58813 -0.25832 0
M  V30 11642 O 1091.01 -1.76877 -0.0659078 0
M  V30 11643 C 1088.14 -3.4284 0.177597 0
M  V30 11644 C 1087.22 -4.06783 1.19953 0
M  V30 11645 N 1087.61 -4.45626 2.39271 0
M  V30 11646 C 1085.91 -4.33663 1.04176 0
M  V30 11647 C 1086.61 -4.95684 3.04422 0
M  V30 11648 N 1085.59 -4.91648 2.31912 0
M  V30 11649 H 1089.39 -2.43598 1.6443 0
M  V30 11650 H 1086.9 -1.28716 0.990247 0
M  V30 11651 H 1088.9 -4.16756 -0.109402 0
M  V30 11652 H 1087.56 -3.16498 -0.725201 0
M  V30 11653 H 1088.57 -4.37757 2.76747 0
M  V30 11654 H 1085.25 -4.17044 0.195132 0
M  V30 11655 H 1086.64 -5.35394 4.05959 0
M  V30 11656 N 1089.36 -0.901303 -1.29284 0
M  V30 11657 C 1090.58 -0.542823 -2.0017 0
M  V30 11658 C 1091.01 0.865583 -1.67001 0
M  V30 11659 O 1090.37 1.5764 -0.895502 0
M  V30 11660 C 1090.42 -0.743987 -3.52842 0
M  V30 11661 O 1089.52 0.202771 -4.11901 0
M  V30 11662 H 1088.86 -0.211903 -0.62928 0
M  V30 11663 H 1091.39 -1.21333 -1.64741 0
M  V30 11664 H 1091.4 -0.64926 -4.02801 0
M  V30 11665 H 1090.08 -1.77077 -3.7632 0
M  V30 11666 H 1088.65 0.0603637 -3.72851 0
M  V30 11667 N 1090.84 1.42931 -0.663954 0
M  V30 11668 C 1091.77 2.29122 0.0598878 0
M  V30 11669 C 1092.78 1.43094 0.776404 0
M  V30 11670 O 1093.97 1.66923 0.63237 0
M  V30 11671 C 1091.07 3.20268 1.10822 0
M  V30 11672 C 1090.24 4.34892 0.4677 0
M  V30 11673 C 1089.3 5.06836 1.41435 0
M  V30 11674 O 1088.33 5.61735 0.918818 0
M  V30 11675 N 1089.53 5.11336 2.74801 0
M  V30 11676 H 1092.3 2.91885 -0.679945 0
M  V30 11677 H 1089.86 1.53739 -0.507543 0
M  V30 11678 H 1091.85 3.65264 1.74255 0
M  V30 11679 H 1090.42 2.59031 1.7499 0
M  V30 11680 H 1089.64 3.92679 -0.34593 0
M  V30 11681 H 1090.93 5.08796 0.0210237 0
M  V30 11682 H 1090.33 4.68124 3.1761 0
M  V30 11683 H 1088.88 5.60013 3.33509 0
M  V30 11684 N 1092.32 0.406567 1.52266 0
M  V30 11685 C 1093.23 -0.4271 2.30679 0
M  V30 11686 C 1094.24 -1.0559 1.383 0
M  V30 11687 O 1095.42 -1.05797 1.71374 0
M  V30 11688 C 1092.48 -1.53008 3.1111 0
M  V30 11689 C 1091.54 -0.924604 4.19225 0
M  V30 11690 C 1090.78 -1.97502 4.95811 0
M  V30 11691 O 1091 -3.19277 4.72671 0
M  V30 11692 O 1089.93 -1.58268 5.80719 0
M  V30 11693 H 1093.76 0.212187 3.02958 0
M  V30 11694 H 1091.34 0.169835 1.48432 0
M  V30 11695 H 1093.23 -2.17046 3.61205 0
M  V30 11696 H 1091.9 -2.15401 2.41628 0
M  V30 11697 H 1090.81 -0.247009 3.73284 0
M  V30 11698 H 1092.14 -0.34463 4.90992 0
M  V30 11699 N 1093.79 -1.57004 0.136909 0
M  V30 11700 C 1094.72 -2.19262 -0.802902 0
M  V30 11701 C 1095.71 -1.13786 -1.26439 0
M  V30 11702 O 1096.89 -1.42091 -1.32377 0
M  V30 11703 C 1094.02 -2.80624 -2.04615 0
M  V30 11704 C 1092.97 -3.91839 -1.72181 0
M  V30 11705 C 1092.3 -4.4009 -3.03686 0
M  V30 11706 C 1093.6 -5.13095 -0.976249 0
M  V30 11707 H 1095.29 -2.98049 -0.28406 0
M  V30 11708 H 1092.84 -1.43364 -0.135189 0
M  V30 11709 H 1094.79 -3.22842 -2.70834 0
M  V30 11710 H 1093.52 -1.99153 -2.58855 0
M  V30 11711 H 1092.18 -3.50224 -1.08344 0
M  V30 11712 H 1091.82 -3.55454 -3.55896 0
M  V30 11713 H 1091.52 -5.15098 -2.82751 0
M  V30 11714 H 1093.05 -4.84971 -3.70993 0
M  V30 11715 H 1094.46 -5.5222 -1.54033 0
M  V30 11716 H 1092.86 -5.93801 -0.867214 0
M  V30 11717 H 1093.93 -4.84888 0.0338488 0
M  V30 11718 N 1095.27 0.136881 -1.57004 0
M  V30 11719 C 1096.2 1.19402 -1.95642 0
M  V30 11720 C 1097.22 1.38635 -0.853478 0
M  V30 11721 O 1098.41 1.38027 -1.13185 0
M  V30 11722 C 1095.51 2.55716 -2.22402 0
M  V30 11723 C 1094.68 2.57325 -3.53698 0
M  V30 11724 C 1093.74 3.75253 -3.68879 0
M  V30 11725 O 1092.76 3.5966 -4.41173 0
M  V30 11726 N 1093.97 4.93112 -3.06302 0
M  V30 11727 H 1096.73 0.865504 -2.8693 0
M  V30 11728 H 1094.29 0.326346 -1.58577 0
M  V30 11729 H 1096.28 3.33135 -2.29789 0
M  V30 11730 H 1094.85 2.80819 -1.37329 0
M  V30 11731 H 1094.07 1.65749 -3.5766 0
M  V30 11732 H 1095.36 2.55441 -4.40031 0
M  V30 11733 H 1094.76 5.08684 -2.47502 0
M  V30 11734 H 1093.32 5.68271 -3.19236 0
M  V30 11735 N 1096.75 1.52266 0.40654 0
M  V30 11736 C 1097.68 1.78755 1.50229 0
M  V30 11737 C 1098.66 0.638652 1.57655 0
M  V30 11738 O 1099.85 0.884505 1.72888 0
M  V30 11739 C 1096.98 1.94057 2.88026 0
M  V30 11740 C 1095.93 3.09667 2.95449 0
M  V30 11741 C 1095.26 3.10196 4.35526 0
M  V30 11742 C 1096.56 4.49077 2.66697 0
M  V30 11743 H 1098.25 2.70511 1.28313 0
M  V30 11744 H 1095.8 1.30167 0.615836 0
M  V30 11745 H 1097.75 2.11171 3.64671 0
M  V30 11746 H 1096.47 0.989755 3.11242 0
M  V30 11747 H 1095.13 2.92308 2.2125 0
M  V30 11748 H 1094.78 2.12831 4.55754 0
M  V30 11749 H 1094.48 3.87847 4.41416 0
M  V30 11750 H 1096 3.29443 5.14101 0
M  V30 11751 H 1097.42 4.66628 3.33064 0
M  V30 11752 H 1095.82 5.28665 2.8396 0
M  V30 11753 H 1096.89 4.56995 1.62122 0
M  V30 11754 N 1098.23 -0.663929 1.42933 0
M  V30 11755 C 1099.16 -1.78946 1.43217 0
M  V30 11756 C 1100.17 -1.59426 0.329727 0
M  V30 11757 O 1101.36 -1.68344 0.5935 0
M  V30 11758 C 1098.46 -3.16217 1.21902 0
M  V30 11759 C 1097.64 -3.6249 2.44785 0
M  V30 11760 C 1096.69 -4.78529 2.18853 0
M  V30 11761 O 1095.72 -4.88516 2.92131 0
M  V30 11762 N 1096.92 -5.67994 1.19845 0
M  V30 11763 H 1099.69 -1.79184 2.40236 0
M  V30 11764 H 1097.25 -0.847404 1.37952 0
M  V30 11765 H 1099.24 -3.91517 1.02454 0
M  V30 11766 H 1097.81 -3.10814 0.333676 0
M  V30 11767 H 1097.03 -2.77751 2.79729 0
M  V30 11768 H 1098.32 -3.90151 3.26588 0
M  V30 11769 H 1097.72 -5.62588 0.59259 0
M  V30 11770 H 1096.27 -6.4306 1.06382 0
M  V30 11771 N 1099.71 -1.29285 -0.901281 0
M  V30 11772 C 1100.93 -1.20169 -1.69039 0
M  V30 11773 C 1101.36 0.234509 -1.86632 0
M  V30 11774 O 1100.71 1.16935 -1.38549 0
M  V30 11775 C 1100.76 -1.91852 -3.05328 0
M  V30 11776 O 1099.87 -1.23448 -3.9349 0
M  V30 11777 H 1099.21 -0.416486 -0.517141 0
M  V30 11778 H 1101.74 -1.70826 -1.12603 0
M  V30 11779 H 1101.75 -2.00244 -3.5548 0
M  V30 11780 H 1100.42 -2.96313 -2.91841 0
M  V30 11781 H 1099 -1.23303 -3.51924 0
M  V30 11782 N 1101.18 1.11143 -1.11736 0
M  V30 11783 C 1102.43 1.82586 -0.866412 0
M  V30 11784 C 1102.75 1.85227 0.609593 0
M  V30 11785 O 1102.02 1.32505 1.44288 0
M  V30 11786 H 1100.6 0.676149 -0.31754 0
M  V30 11787 H 1103.27 1.34516 -1.41037 0
M  V30 11788 H 1102.36 2.8635 -1.24136 0
M  V30 11789 N 1102.66 0.908147 1.28804 0
M  V30 11790 C 1103.59 0.409106 2.29888 0
M  V30 11791 C 1104.57 -0.520338 1.61946 0
M  V30 11792 O 1105.76 -0.429268 1.89396 0
M  V30 11793 C 1102.89 -0.35669 3.45463 0
M  V30 11794 C 1101.84 0.4831 4.25265 0
M  V30 11795 C 1101.17 -0.4107 5.3312 0
M  V30 11796 C 1102.47 1.73744 4.92555 0
M  V30 11797 H 1104.16 1.25386 2.7188 0
M  V30 11798 H 1101.71 0.604368 1.30703 0
M  V30 11799 H 1103.66 -0.71661 4.15262 0
M  V30 11800 H 1102.39 -1.2353 3.02337 0
M  V30 11801 H 1101.04 0.825464 3.57186 0
M  V30 11802 H 1100.69 -1.28769 4.86238 0
M  V30 11803 H 1100.39 0.14756 5.87415 0
M  V30 11804 H 1101.92 -0.766626 6.05768 0
M  V30 11805 H 1103.33 1.44676 5.54745 0
M  V30 11806 H 1101.73 2.23767 5.5682 0
M  V30 11807 H 1102.8 2.46853 4.17363 0
M  V30 11808 N 1104.14 -1.42577 0.671525 0
M  V30 11809 C 1105.09 -2.30798 -0.00883676 0
M  V30 11810 C 1106.06 -1.4578 -0.796076 0
M  V30 11811 O 1107.24 -1.74617 -0.768987 0
M  V30 11812 C 1104.38 -3.31581 -0.956452 0
M  V30 11813 C 1103.5 -4.31691 -0.163381 0
M  V30 11814 C 1102.63 -5.19549 -1.10645 0
M  V30 11815 C 1101.67 -6.1134 -0.304876 0
M  V30 11816 N 1100.81 -6.91761 -1.20048 0
M  V30 11817 H 1105.65 -2.88426 0.749301 0
M  V30 11818 H 1103.18 -1.42074 0.381251 0
M  V30 11819 H 1105.14 -3.88539 -1.51966 0
M  V30 11820 H 1103.77 -2.75561 -1.68126 0
M  V30 11821 H 1102.82 -3.76879 0.516396 0
M  V30 11822 H 1104.14 -4.96683 0.459099 0
M  V30 11823 H 1103.29 -5.81223 -1.73969 0
M  V30 11824 H 1102.03 -4.54726 -1.76282 0
M  V30 11825 H 1101.03 -5.48738 0.341597 0
M  V30 11826 H 1102.26 -6.78211 0.347352 0
M  V30 11827 H 1100.2 -6.2957 -1.84331 0
M  V30 11828 H 1100.12 -7.53345 -0.633003 0
M  V30 11829 H 1101.39 -7.57924 -1.82129 0
M  V30 11830 N 1105.62 -0.414636 -1.52048 0
M  V30 11831 C 1106.58 0.396285 -2.25748 0
M  V30 11832 C 1107.58 0.969003 -1.28324 0
M  V30 11833 O 1108.77 0.847016 -1.52221 0
M  V30 11834 C 1105.9 1.55838 -3.03195 0
M  V30 11835 H 1107.1 -0.249311 -2.98862 0
M  V30 11836 H 1104.65 -0.167276 -1.55402 0
M  V30 11837 H 1105.38 2.24068 -2.34444 0
M  V30 11838 H 1105.17 1.15414 -3.74729 0
M  V30 11839 H 1106.66 2.13187 -3.59084 0
M  V30 11840 N 1107.1 1.56929 -0.145233 0
M  V30 11841 C 1108.04 2.17958 0.812237 0
M  V30 11842 C 1109.04 1.13608 1.25657 0
M  V30 11843 O 1110.24 1.31861 1.22526 0
M  V30 11844 H 1106.62 0.697876 0.28013 0
M  V30 11845 H 1108.59 2.97146 0.273297 0
M  V30 11846 C 1107.34 2.81418 2.04203 0
M  V30 11847 H 1106.66 3.61427 1.70911 0
M  V30 11848 H 1108.1 3.27624 2.69144 0
M  V30 11849 C 1106.56 1.79835 2.84888 0
M  V30 11850 O 1107.09 1.26773 3.81171 0
M  V30 11851 N 1105.3 1.49179 2.49387 0
M  V30 11852 H 1104.84 1.9252 1.71154 0
M  V30 11853 H 1104.8 0.81458 3.03664 0
M  V30 11854 N 1108.58 -0.128553 1.57075 0
M  V30 11855 C 1109.82 -0.836536 1.83535 0
M  V30 11856 C 1110.14 -1.81491 0.7294 0
M  V30 11857 O 1111.34 -2.56838 0.880128 0
M  V30 11858 C 1109.8 -1.53836 3.25365 0
M  V30 11859 C 1109.41 -0.601454 4.43944 0
M  V30 11860 C 1111.15 -2.23204 3.61082 0
M  V30 11861 C 1109.06 -1.30596 5.768 0
M  V30 11862 H 1107.99 -0.316142 0.684522 0
M  V30 11863 H 1110.64 -0.0892555 1.83283 0
M  V30 11864 H 1109.02 -2.33192 3.20058 0
M  V30 11865 H 1110.2 0.158209 4.60528 0
M  V30 11866 H 1108.51 -0.0152393 4.16397 0
M  V30 11867 H 1111.11 -2.76585 4.57608 0
M  V30 11868 H 1111.45 -3.0056 2.88044 0
M  V30 11869 H 1111.98 -1.50746 3.68131 0
M  V30 11870 H 1108.72 -0.573874 6.52983 0
M  V30 11871 H 1108.24 -2.03787 5.6412 0
M  V30 11872 H 1109.92 -1.8418 6.20231 0
M  V30 11873 N 1110.05 -1.5248 -0.398459 0
M  V30 11874 C 1110.96 -1.79492 -1.51062 0
M  V30 11875 C 1111.98 -0.681101 -1.60116 0
M  V30 11876 O 1113.16 -0.967671 -1.7663 0
M  V30 11877 C 1110.22 -1.94958 -2.86692 0
M  V30 11878 C 1109.28 -3.1887 -2.87438 0
M  V30 11879 C 1108.51 -3.33588 -4.16599 0
M  V30 11880 O 1108.74 -2.53327 -5.11059 0
M  V30 11881 O 1107.67 -4.26795 -4.24416 0
M  V30 11882 H 1111.5 -2.73913 -1.31169 0
M  V30 11883 H 1109.08 -1.37455 -0.585372 0
M  V30 11884 H 1110.96 -2.06891 -3.67116 0
M  V30 11885 H 1109.64 -1.03726 -3.06631 0
M  V30 11886 H 1108.55 -3.12386 -2.0583 0
M  V30 11887 H 1109.88 -4.09917 -2.7245 0
M  V30 11888 N 1111.53 0.65634 -1.43283 0
M  V30 11889 C 1112.78 1.41837 -1.44949 0
M  V30 11890 C 1113.11 1.94065 -0.0723212 0
M  V30 11891 O 1112.39 1.72092 0.906346 0
M  V30 11892 C 1112.67 2.60206 -2.48927 0
M  V30 11893 C 1112.52 2.1349 -3.95907 0
M  V30 11894 C 1113.84 3.62421 -2.49678 0
M  V30 11895 H 1110.96 0.514398 -0.527792 0
M  V30 11896 H 1113.6 0.74435 -1.74813 0
M  V30 11897 H 1111.75 3.17708 -2.23592 0
M  V30 11898 H 1113.42 1.61012 -4.32288 0
M  V30 11899 H 1111.67 1.4489 -4.08888 0
M  V30 11900 H 1112.34 2.98596 -4.64268 0
M  V30 11901 H 1114.81 3.14671 -2.72252 0
M  V30 11902 H 1113.69 4.42798 -3.24378 0
M  V30 11903 H 1113.95 4.14802 -1.52944 0
M  V30 11904 N 1113.01 1.29761 0.894412 0
M  V30 11905 C 1113.94 1.1115 2.00445 0
M  V30 11906 C 1114.95 0.0574655 1.62699 0
M  V30 11907 O 1116.14 0.302528 1.75918 0
M  V30 11908 C 1113.24 0.670984 3.32191 0
M  V30 11909 C 1112.42 1.80471 3.98433 0
M  V30 11910 C 1111.48 1.35431 5.08473 0
M  V30 11911 O 1110.5 2.05994 5.30618 0
M  V30 11912 N 1111.7 0.22811 5.80052 0
M  V30 11913 H 1114.47 2.06753 2.16964 0
M  V30 11914 H 1112.03 1.21772 1.06692 0
M  V30 11915 H 1114.02 0.352877 4.03159 0
M  V30 11916 H 1112.59 -0.192735 3.12005 0
M  V30 11917 H 1111.81 2.29142 3.20761 0
M  V30 11918 H 1113.1 2.56471 4.39431 0
M  V30 11919 H 1112.5 -0.360076 5.64553 0
M  V30 11920 H 1111.05 -0.0305985 6.51793 0
M  V30 11921 N 1114.49 -1.10549 1.12324 0
M  V30 11922 C 1115.74 -1.82124 0.876083 0
M  V30 11923 C 1116.06 -1.85547 -0.599761 0
M  V30 11924 O 1115.33 -1.33269 -1.43584 0
M  V30 11925 H 1113.91 -0.674455 0.321122 0
M  V30 11926 H 1116.57 -1.33766 1.41748 0
M  V30 11927 H 1115.66 -2.85688 1.25653 0
M  V30 11928 N 1115.97 -0.914965 -1.28321 0
M  V30 11929 C 1117.21 -0.547665 -1.94538 0
M  V30 11930 C 1117.53 0.911834 -1.72368 0
M  V30 11931 O 1116.8 1.64481 -1.06408 0
M  V30 11932 H 1115.38 -0.199549 -0.719853 0
M  V30 11933 H 1118.05 -1.16459 -1.5628 0
M  V30 11934 H 1117.14 -0.743138 -3.03124 0
M  V30 11935 N 1117.44 1.42219 -0.679077 0
M  V30 11936 C 1118.37 2.33493 -0.0174528 0
M  V30 11937 C 1119.35 1.50915 0.78477 0
M  V30 11938 O 1120.54 1.79504 0.741065 0
M  V30 11939 C 1117.67 3.34576 0.931463 0
M  V30 11940 C 1116.62 4.2734 0.237527 0
M  V30 11941 C 1115.95 5.18664 1.29967 0
M  V30 11942 C 1117.25 5.14729 -0.886082 0
M  V30 11943 H 1118.94 2.89068 -0.779748 0
M  V30 11944 H 1116.49 1.38993 -0.376419 0
M  V30 11945 H 1118.44 3.97343 1.40343 0
M  V30 11946 H 1117.17 2.77315 1.72523 0
M  V30 11947 H 1115.83 3.65973 -0.214245 0
M  V30 11948 H 1115.47 4.57727 2.08554 0
M  V30 11949 H 1115.17 5.81558 0.840463 0
M  V30 11950 H 1116.7 5.84308 1.77249 0
M  V30 11951 H 1118.11 5.71158 -0.495141 0
M  V30 11952 H 1116.51 5.86478 -1.27135 0
M  V30 11953 H 1117.58 4.52874 -1.733 0
M  V30 11954 N 1118.92 0.422693 1.51826 0
M  V30 11955 C 1119.88 -0.384307 2.25955 0
M  V30 11956 C 1120.88 -0.962184 1.28836 0
M  V30 11957 O 1122.07 -0.838931 1.52668 0
M  V30 11958 C 1119.21 -1.54228 3.04018 0
M  V30 11959 H 1120.4 0.265157 2.98726 0
M  V30 11960 H 1117.95 0.175515 1.55311 0
M  V30 11961 H 1118.69 -2.22822 2.35629 0
M  V30 11962 H 1118.47 -1.13425 3.75336 0
M  V30 11963 H 1119.96 -2.1128 3.60209 0
M  V30 11964 N 1120.4 -1.5685 0.153553 0
M  V30 11965 C 1121.65 -1.95509 -0.495911 0
M  V30 11966 C 1121.96 -1.04129 -1.65579 0
M  V30 11967 O 1123.17 -1.32394 -2.37032 0
M  V30 11968 C 1121.62 -3.47579 -0.933622 0
M  V30 11969 C 1121.23 -4.47555 0.199684 0
M  V30 11970 C 1122.98 -3.95092 -1.55251 0
M  V30 11971 C 1120.88 -5.90843 -0.256663 0
M  V30 11972 H 1119.81 -0.729919 -0.189035 0
M  V30 11973 H 1122.46 -1.81938 0.238947 0
M  V30 11974 H 1120.85 -3.56506 -1.72394 0
M  V30 11975 H 1122.02 -4.50329 0.976744 0
M  V30 11976 H 1120.33 -4.09997 0.727394 0
M  V30 11977 H 1122.93 -4.99588 -1.90567 0
M  V30 11978 H 1123.27 -3.37015 -2.4439 0
M  V30 11979 H 1123.81 -3.89109 -0.826969 0
M  V30 11980 H 1120.55 -6.52753 0.599515 0
M  V30 11981 H 1120.07 -5.91414 -0.999458 0
M  V30 11982 H 1121.75 -6.43131 -0.70649 0
M  V30 11983 N 1121.88 0.120221 -1.57141 0
M  V30 11984 C 1123.15 0.858458 -1.75755 0
M  V30 11985 C 1123.53 1.98124 -0.728693 0
M  V30 11986 O 1122.88 2.27155 0.247573 0
M  V30 11987 C 1123.09 1.37627 -3.20718 0
M  V30 11988 C 1124.44 1.82909 -3.83183 0
M  V30 11989 O 1125.46 1.47309 -3.24312 0
M  V30 11990 O 1124.32 2.4865 -4.86657 0
M  V30 11991 H 1121.42 0.407583 -0.719587 0
M  V30 11992 H 1123.96 0.104057 -1.69381 0
M  V30 11993 H 1122.74 0.570651 -3.87117 0
M  V30 11994 H 1122.36 2.19341 -3.31625 0
M  V30 11995 N 1123.36 1.52689 0.390367 0
M  V30 11996 C 1124.61 1.6689 1.13272 0
M  V30 11997 C 1124.92 0.414433 1.91159 0
M  V30 11998 O 1126.12 0.436559 2.67967 0
M  V30 11999 C 1124.58 2.94929 2.06264 0
M  V30 12000 C 1124.19 4.27551 1.33805 0
M  V30 12001 C 1125.93 3.18497 2.80642 0
M  V30 12002 C 1123.84 5.46698 2.25554 0
M  V30 12003 H 1122.77 0.621749 0.426549 0
M  V30 12004 H 1125.42 1.79185 0.395615 0
M  V30 12005 H 1123.8 2.76378 2.83604 0
M  V30 12006 H 1124.98 4.56651 0.616997 0
M  V30 12007 H 1123.29 4.10234 0.713913 0
M  V30 12008 H 1125.89 4.04693 3.49467 0
M  V30 12009 H 1126.23 2.33511 3.44642 0
M  V30 12010 H 1126.76 3.37607 2.10395 0
M  V30 12011 H 1123.5 6.34088 1.66171 0
M  V30 12012 H 1123.02 5.21913 2.95579 0
M  V30 12013 H 1124.7 5.80519 2.85668 0
M  V30 12014 N 1124.83 -0.648732 1.43629 0
M  V30 12015 C 1126.06 -1.44117 1.49148 0
M  V30 12016 C 1126.48 -1.87767 0.111952 0
M  V30 12017 O 1125.84 -1.57655 -0.895249 0
M  V30 12018 C 1125.89 -2.64938 2.44623 0
M  V30 12019 O 1124.99 -3.64155 1.93559 0
M  V30 12020 H 1124.34 -0.431933 0.504312 0
M  V30 12021 H 1126.87 -0.793439 1.88589 0
M  V30 12022 H 1126.88 -3.12698 2.62076 0
M  V30 12023 H 1125.55 -2.3251 3.44836 0
M  V30 12024 H 1124.13 -3.23322 1.85789 0
M  V30 12025 N 1126.31 -1.30234 -0.887518 0
M  V30 12026 C 1127.56 -1.18675 -1.63587 0
M  V30 12027 C 1127.88 0.259342 -1.93268 0
M  V30 12028 O 1127.15 1.17523 -1.56733 0
M  V30 12029 H 1125.73 -0.436224 -0.606397 0
M  V30 12030 H 1128.39 -1.63326 -1.06351 0
M  V30 12031 H 1127.49 -1.74575 -2.58708 0
M  V30 12032 N 1127.79 1.09952 -1.12909 0
M  V30 12033 C 1128.75 2.14615 -0.804548 0
M  V30 12034 C 1129.75 1.5975 0.18345 0
M  V30 12035 O 1130.94 1.74147 -0.0429623 0
M  V30 12036 C 1128.08 3.40333 -0.196471 0
M  V30 12037 H 1129.27 2.44835 -1.73193 0
M  V30 12038 H 1126.82 1.25399 -0.932997 0
M  V30 12039 H 1127.56 3.15735 0.740388 0
M  V30 12040 H 1127.34 3.81444 -0.907886 0
M  V30 12041 H 1128.83 4.17598 0.0139264 0
M  V30 12042 N 1129.27 0.921757 1.27833 0
M  V30 12043 C 1130.2 0.360683 2.25332 0
M  V30 12044 C 1131.18 -0.53961 1.53385 0
M  V30 12045 O 1132.36 -0.48146 1.82248 0
M  V30 12046 C 1129.49 -0.483626 3.35229 0
M  V30 12047 C 1128.54 0.352405 4.25042 0
M  V30 12048 S 1129.37 1.76421 5.05605 0
M  V30 12049 C 1130.53 0.92742 6.18991 0
M  V30 12050 H 1130.76 1.18703 2.72574 0
M  V30 12051 H 1128.29 0.72354 1.36397 0
M  V30 12052 H 1130.25 -0.964914 3.98998 0
M  V30 12053 H 1128.91 -1.28444 2.86637 0
M  V30 12054 H 1128.1 -0.293558 5.03144 0
M  V30 12055 H 1127.71 0.767643 3.66037 0
M  V30 12056 H 1130 0.160698 6.77309 0
M  V30 12057 H 1130.94 1.68126 6.87851 0
M  V30 12058 H 1131.35 0.472056 5.62523 0
M  V30 12059 N 1130.75 -1.41857 0.686609 0
M  V30 12060 C 1131.66 -2.34595 0.0159005 0
M  V30 12061 C 1132.67 -1.55741 -0.775933 0
M  V30 12062 O 1133.85 -1.8826 -0.71555 0
M  V30 12063 C 1130.91 -3.34395 -0.915473 0
M  V30 12064 C 1129.97 -4.29141 -0.116851 0
M  V30 12065 C 1129.21 -5.24174 -1.00386 0
M  V30 12066 O 1129.43 -5.24431 -2.2434 0
M  V30 12067 O 1128.36 -6.00152 -0.458337 0
M  V30 12068 H 1132.19 -2.9351 0.780101 0
M  V30 12069 H 1129.78 -1.42559 0.446896 0
M  V30 12070 H 1131.66 -3.95675 -1.44981 0
M  V30 12071 H 1130.33 -2.77936 -1.65932 0
M  V30 12072 H 1129.24 -3.71238 0.461871 0
M  V30 12073 H 1130.57 -4.88673 0.588138 0
M  V30 12074 N 1132.22 -0.430739 -1.51599 0
M  V30 12075 C 1133.47 0.137929 -2.0203 0
M  V30 12076 C 1133.8 1.43287 -1.31526 0
M  V30 12077 O 1133.05 1.9121 -0.416814 0
M  V30 12078 C 1133.35 0.410694 -3.55032 0
M  V30 12079 C 1133.02 -0.797634 -4.43789 0
M  V30 12080 C 1131.68 -1.12902 -4.67768 0
M  V30 12081 C 1134.03 -1.60403 -4.95904 0
M  V30 12082 C 1131.36 -2.2676 -5.41107 0
M  V30 12083 C 1133.71 -2.73354 -5.70491 0
M  V30 12084 C 1132.38 -3.06955 -5.92735 0
M  V30 12085 H 1131.65 0.0504718 -0.739279 0
M  V30 12086 H 1134.29 -0.576585 -1.82614 0
M  V30 12087 H 1132.6 1.20703 -3.72744 0
M  V30 12088 H 1134.3 0.864006 -3.91581 0
M  V30 12089 H 1130.89 -0.529397 -4.25318 0
M  V30 12090 H 1135.07 -1.36122 -4.77268 0
M  V30 12091 H 1130.33 -2.53114 -5.56546 0
M  V30 12092 H 1134.5 -3.36213 -6.09864 0
M  V30 12093 H 1132.13 -3.95293 -6.49344 0
M  V30 12094 N 1133.7 1.56767 -0.161869 0
M  V30 12095 C 1134.93 2.01401 0.49523 0
M  V30 12096 C 1135.35 1.04133 1.56646 0
M  V30 12097 O 1134.71 0.0193747 1.8129 0
M  V30 12098 C 1134.76 3.44695 1.05913 0
M  V30 12099 O 1133.86 3.50475 2.1735 0
M  V30 12100 H 1133.2 0.65314 0.1196 0
M  V30 12101 H 1135.73 2.02903 -0.26298 0
M  V30 12102 H 1135.74 3.83805 1.3841 0
M  V30 12103 H 1134.42 4.14991 0.274749 0
M  V30 12104 H 1133 3.23218 1.85969 0
M  V30 12105 N 1135.18 -0.111886 1.57202 0
M  V30 12106 C 1136.11 -1.13796 2.03894 0
M  V30 12107 C 1137.09 -1.4277 0.924696 0
M  V30 12108 O 1138.28 -1.53089 1.19488 0
M  V30 12109 C 1135.41 -2.46229 2.44925 0
M  V30 12110 C 1134.36 -2.31702 3.59859 0
M  V30 12111 C 1133.69 -3.69161 3.86813 0
M  V30 12112 C 1134.99 -1.77158 4.91337 0
M  V30 12113 H 1136.68 -0.749581 2.89865 0
M  V30 12114 H 1134.23 -0.359126 1.3945 0
M  V30 12115 H 1136.18 -3.18267 2.76195 0
M  V30 12116 H 1134.9 -2.86971 1.55933 0
M  V30 12117 H 1133.56 -1.62112 3.28809 0
M  V30 12118 H 1133.21 -4.07401 2.95015 0
M  V30 12119 H 1132.91 -3.60292 4.6418 0
M  V30 12120 H 1134.43 -4.42693 4.20542 0
M  V30 12121 H 1135.85 -2.3902 5.21097 0
M  V30 12122 H 1134.25 -1.79091 5.72753 0
M  V30 12123 H 1135.32 -0.729675 4.79379 0
M  V30 12124 N 1136.66 -1.52894 -0.382264 0
M  V30 12125 C 1137.9 -1.69465 -1.12486 0
M  V30 12126 C 1138.26 -0.432631 -1.87473 0
M  V30 12127 O 1137.55 0.573901 -1.82803 0
M  V30 12128 C 1137.75 -2.87309 -2.12576 0
M  V30 12129 C 1137.58 -4.24849 -1.47421 0
M  V30 12130 C 1136.35 -4.89965 -1.23542 0
M  V30 12131 C 1138.54 -5.05991 -0.920733 0
M  V30 12132 N 1136.53 -6.1147 -0.545631 0
M  V30 12133 C 1137.9 -6.18958 -0.359379 0
M  V30 12134 C 1139.95 -4.91138 -0.817797 0
M  V30 12135 C 1138.65 -7.18695 0.294853 0
M  V30 12136 C 1140.68 -5.91134 -0.177375 0
M  V30 12137 C 1140.04 -7.03411 0.373179 0
M  V30 12138 H 1136.14 -0.673527 -0.397347 0
M  V30 12139 H 1138.73 -1.90259 -0.413479 0
M  V30 12140 H 1136.9 -2.68083 -2.81044 0
M  V30 12141 H 1138.63 -2.92784 -2.79392 0
M  V30 12142 H 1135.38 -4.48808 -1.51223 0
M  V30 12143 H 1135.81 -6.76653 -0.216582 0
M  V30 12144 H 1140.45 -4.04536 -1.22924 0
M  V30 12145 H 1138.17 -8.04901 0.718285 0
M  V30 12146 H 1141.75 -5.81716 -0.0988833 0
M  V30 12147 H 1140.63 -7.7946 0.860905 0
M  V30 12148 N 1138.14 0.641106 -1.43971 0
M  V30 12149 C 1139.37 1.42622 -1.49475 0
M  V30 12150 C 1139.78 1.8885 -0.115068 0
M  V30 12151 O 1139.12 1.60846 0.887378 0
M  V30 12152 C 1139.18 2.68643 -2.38896 0
M  V30 12153 C 1138.84 2.44276 -3.86236 0
M  V30 12154 C 1139.84 2.06732 -4.7703 0
M  V30 12155 C 1137.53 2.58225 -4.30842 0
M  V30 12156 C 1139.52 1.83451 -6.1043 0
M  V30 12157 C 1137.21 2.34559 -5.64292 0
M  V30 12158 C 1138.21 1.97229 -6.53903 0
M  V30 12159 O 1137.89 1.73819 -7.84884 0
M  V30 12160 H 1137.63 0.444187 -0.509582 0
M  V30 12161 H 1140.18 0.792179 -1.89509 0
M  V30 12162 H 1138.41 3.34649 -1.93771 0
M  V30 12163 H 1140.1 3.30623 -2.35464 0
M  V30 12164 H 1140.86 1.95521 -4.43843 0
M  V30 12165 H 1136.74 2.86253 -3.61359 0
M  V30 12166 H 1140.29 1.54238 -6.80335 0
M  V30 12167 H 1136.18 2.45376 -5.97043 0
M  V30 12168 H 1136.95 1.88146 -7.96582 0
M  V30 12169 N 1139.62 1.30703 0.880598 0
M  V30 12170 C 1141.03 1.09129 1.1646 0
M  V30 12171 C 1141.23 -0.145131 2.00977 0
M  V30 12172 O 1140.29 -0.837502 2.38206 0
M  V30 12173 C 1141.6 2.35717 1.86703 0
M  V30 12174 C 1143.15 2.41224 1.9945 0
M  V30 12175 C 1143.62 3.67665 2.73105 0
M  V30 12176 N 1145.11 3.68498 2.80648 0
M  V30 12177 C 1145.85 4.63024 3.38225 0
M  V30 12178 N 1145.35 5.67898 3.96817 0
M  V30 12179 N 1147.14 4.50561 3.36082 0
M  V30 12180 H 1139.29 2.10019 0.317164 0
M  V30 12181 H 1141.55 0.925994 0.203072 0
M  V30 12182 H 1141.26 3.2597 1.32046 0
M  V30 12183 H 1141.13 2.447 2.87057 0
M  V30 12184 H 1143.52 1.51446 2.53275 0
M  V30 12185 H 1143.6 2.36212 0.981704 0
M  V30 12186 H 1143.24 4.57803 2.19951 0
M  V30 12187 H 1143.17 3.69939 3.7477 0
M  V30 12188 H 1145.67 2.92681 2.39053 0
M  V30 12189 H 1145.98 6.3612 4.3883 0
M  V30 12190 H 1144.32 5.71685 3.95223 0
M  V30 12191 H 1147.51 3.67811 2.89539 0
M  V30 12192 H 1147.69 5.24408 3.80657 0
M  V30 12193 N 1141.09 -1.09351 1.1349 0
M  V30 12194 C 1142 -2.19564 0.826366 0
M  V30 12195 C 1143.02 -1.72967 -0.189339 0
M  V30 12196 O 1144.2 -2.0139 -0.0202033 0
M  V30 12197 C 1141.26 -3.4542 0.297685 0
M  V30 12198 C 1140.32 -4.06694 1.37473 0
M  V30 12199 C 1139.55 -5.26542 0.871183 0
M  V30 12200 O 1139.78 -5.69657 -0.290958 0
M  V30 12201 O 1138.71 -5.78961 1.64584 0
M  V30 12202 H 1142.54 -2.4841 1.74718 0
M  V30 12203 H 1140.12 -1.18302 0.912414 0
M  V30 12204 H 1142 -4.21399 0.00829479 0
M  V30 12205 H 1140.68 -3.18175 -0.595536 0
M  V30 12206 H 1139.59 -3.32347 1.71745 0
M  V30 12207 H 1140.92 -4.38166 2.24212 0
M  V30 12208 N 1142.57 -0.928524 -1.27343 0
M  V30 12209 C 1143.8 -0.58516 -1.98974 0
M  V30 12210 C 1144.22 0.829964 -1.68799 0
M  V30 12211 O 1143.58 1.55705 -0.928738 0
M  V30 12212 C 1143.63 -0.818662 -3.51184 0
M  V30 12213 O 1142.73 0.115355 -4.12239 0
M  V30 12214 H 1142.07 -0.225203 -0.624644 0
M  V30 12215 H 1144.6 -1.248 -1.6213 0
M  V30 12216 H 1144.61 -0.734554 -4.01333 0
M  V30 12217 H 1143.29 -1.8502 -3.72479 0
M  V30 12218 H 1141.86 -0.0187371 -3.72895 0
M  V30 12219 N 1144.05 1.41491 -0.694123 0
M  V30 12220 C 1145 2.30783 -0.0278824 0
M  V30 12221 C 1145.97 1.47028 0.772783 0
M  V30 12222 O 1147.15 1.75819 0.74111 0
M  V30 12223 C 1144.29 3.33061 0.903579 0
M  V30 12224 C 1143.4 4.31896 0.0946823 0
M  V30 12225 C 1142.54 5.21243 1.02365 0
M  V30 12226 C 1141.58 6.11748 0.207578 0
M  V30 12227 N 1140.72 6.93583 1.09028 0
M  V30 12228 H 1145.56 2.87197 -0.795092 0
M  V30 12229 H 1143.09 1.41449 -0.403806 0
M  V30 12230 H 1145.05 3.90907 1.45765 0
M  V30 12231 H 1143.68 2.782 1.6372 0
M  V30 12232 H 1142.73 3.76009 -0.576289 0
M  V30 12233 H 1144.04 4.95889 -0.538059 0
M  V30 12234 H 1143.2 5.83917 1.647 0
M  V30 12235 H 1141.94 4.57473 1.69025 0
M  V30 12236 H 1140.94 5.48125 -0.428854 0
M  V30 12237 H 1142.17 6.77573 -0.455206 0
M  V30 12238 H 1140.11 6.32422 1.74292 0
M  V30 12239 H 1140.03 7.54257 0.513073 0
M  V30 12240 H 1141.3 7.60726 1.70048 0
M  V30 12241 N 1145.53 0.438773 1.51369 0
M  V30 12242 C 1146.76 -0.125847 2.06517 0
M  V30 12243 C 1147.17 -1.36336 1.30606 0
M  V30 12244 O 1146.53 -1.78792 0.36603 0
M  V30 12245 C 1146.58 -0.446619 3.5873 0
M  V30 12246 O 1146.3 0.741781 4.31775 0
M  V30 12247 C 1147.8 -1.06175 4.30397 0
M  V30 12248 H 1145.02 -0.00728868 0.67096 0
M  V30 12249 H 1147.56 0.618267 1.9493 0
M  V30 12250 H 1145.72 -1.14064 3.70227 0
M  V30 12251 H 1146.13 0.466907 5.22418 0
M  V30 12252 H 1147.61 -1.23619 5.3798 0
M  V30 12253 H 1148.08 -2.04317 3.88782 0
M  V30 12254 H 1148.69 -0.40708 4.23347 0
M  V30 12255 N 1147.01 -1.56678 0.170181 0
M  V30 12256 C 1148.42 -1.58512 -0.185999 0
M  V30 12257 C 1148.62 -1.18548 -1.62937 0
M  V30 12258 O 1147.68 -0.896554 -2.36047 0
M  V30 12259 C 1148.99 -3.00554 0.0937842 0
M  V30 12260 C 1150.54 -3.12984 0.0319057 0
M  V30 12261 C 1151.01 -4.57115 0.284664 0
M  V30 12262 N 1152.5 -4.62617 0.2324 0
M  V30 12263 C 1153.24 -5.71988 0.40216 0
M  V30 12264 N 1152.74 -6.89921 0.630915 0
M  V30 12265 N 1154.53 -5.61082 0.338144 0
M  V30 12266 H 1146.68 -1.80944 1.11235 0
M  V30 12267 H 1148.94 -0.838586 0.442128 0
M  V30 12268 H 1148.65 -3.34265 1.09362 0
M  V30 12269 H 1148.52 -3.72151 -0.615118 0
M  V30 12270 H 1150.91 -2.791 -0.958502 0
M  V30 12271 H 1150.99 -2.43825 0.773501 0
M  V30 12272 H 1150.63 -4.91707 1.27227 0
M  V30 12273 H 1150.56 -5.2443 -0.477529 0
M  V30 12274 H 1153.06 -3.7785 0.0611933 0
M  V30 12275 H 1153.37 -7.69153 0.749931 0
M  V30 12276 H 1151.71 -6.91787 0.667516 0
M  V30 12277 H 1154.9 -4.67826 0.16003 0
M  V30 12278 H 1155.08 -6.46265 0.473872 0
M  V30 12279 N 1148.48 0.103547 -1.57259 0
M  V30 12280 C 1149.73 0.809774 -1.85931 0
M  V30 12281 C 1150.06 1.78791 -0.758122 0
M  V30 12282 O 1149.34 1.93079 0.234682 0
M  V30 12283 C 1149.62 1.54601 -3.25224 0
M  V30 12284 C 1149.47 0.586439 -4.45961 0
M  V30 12285 C 1150.79 2.4986 -3.62296 0
M  V30 12286 H 1147.91 0.29293 -0.676285 0
M  V30 12287 H 1150.55 0.0736065 -1.89857 0
M  V30 12288 H 1148.7 2.17355 -3.22008 0
M  V30 12289 H 1150.38 -0.0334441 -4.61288 0
M  V30 12290 H 1148.62 -0.10085 -4.33683 0
M  V30 12291 H 1149.29 1.13855 -5.40131 0
M  V30 12292 H 1151.77 1.97203 -3.66402 0
M  V30 12293 H 1150.64 2.98396 -4.60707 0
M  V30 12294 H 1150.9 3.33233 -2.90531 0
M  V30 12295 N 1149.96 1.53094 0.37415 0
M  V30 12296 C 1150.91 1.78927 1.45787 0
M  V30 12297 C 1151.88 0.633187 1.53558 0
M  V30 12298 O 1153.06 0.874472 1.69581 0
M  V30 12299 C 1150.2 1.97726 2.8284 0
M  V30 12300 C 1149.32 3.25436 2.84104 0
M  V30 12301 C 1148.45 3.3447 4.12678 0
M  V30 12302 C 1147.49 4.56246 4.08051 0
M  V30 12303 N 1146.63 4.6248 5.28258 0
M  V30 12304 H 1151.47 2.71404 1.2306 0
M  V30 12305 H 1149 1.34453 0.596716 0
M  V30 12306 H 1150.96 2.06611 3.62447 0
M  V30 12307 H 1149.59 1.08593 3.03986 0
M  V30 12308 H 1148.64 3.25548 1.96781 0
M  V30 12309 H 1149.96 4.15112 2.76556 0
M  V30 12310 H 1149.11 3.4262 5.00696 0
M  V30 12311 H 1147.85 2.42795 4.22968 0
M  V30 12312 H 1146.85 4.48206 3.1842 0
M  V30 12313 H 1148.08 5.49254 3.99371 0
M  V30 12314 H 1146.03 3.73703 5.3915 0
M  V30 12315 H 1145.94 5.46049 5.22845 0
M  V30 12316 H 1147.21 4.74903 6.18132 0
M  V30 12317 N 1151.44 -0.633461 1.44309 0
M  V30 12318 C 1152.39 -1.76674 1.51292 0
M  V30 12319 C 1153.38 -1.64972 0.384807 0
M  V30 12320 O 1154.59 -1.71079 0.559653 0
M  V30 12321 H 1150.96 -0.583238 0.474697 0
M  V30 12322 H 1152.93 -1.67907 2.46678 0
M  V30 12323 C 1151.68 -3.15002 1.47205 0
M  V30 12324 H 1151.01 -3.24653 2.33325 0
M  V30 12325 H 1152.45 -3.94199 1.56151 0
M  V30 12326 C 1150.9 -3.3635 0.192464 0
M  V30 12327 O 1151.43 -3.94857 -0.738285 0
M  V30 12328 N 1149.64 -2.9044 0.0963424 0
M  V30 12329 H 1149.19 -2.43011 0.85459 0
M  V30 12330 H 1149.15 -3.05099 -0.759061 0
M  V30 12331 N 1152.92 -1.31168 -0.873655 0
M  V30 12332 C 1154.33 -1.09745 -1.1588 0
M  V30 12333 C 1154.53 0.134471 -2.01051 0
M  V30 12334 O 1153.59 0.824857 -2.38647 0
M  V30 12335 C 1154.9 -2.36704 -1.85451 0
M  V30 12336 C 1156.45 -2.42278 -1.98167 0
M  V30 12337 C 1156.93 -3.69108 -2.71152 0
M  V30 12338 N 1158.42 -3.69981 -2.7869 0
M  V30 12339 C 1159.15 -4.64811 -3.35765 0
M  V30 12340 N 1158.65 -5.69995 -3.938 0
M  V30 12341 N 1160.44 -4.52337 -3.33688 0
M  V30 12342 H 1152.59 -2.10184 -0.306021 0
M  V30 12343 H 1154.86 -0.927058 -0.198159 0
M  V30 12344 H 1154.56 -3.26666 -1.30316 0
M  V30 12345 H 1154.44 -2.46219 -2.85755 0
M  V30 12346 H 1156.82 -1.52787 -2.52468 0
M  V30 12347 H 1156.9 -2.3673 -0.969164 0
M  V30 12348 H 1156.55 -4.58963 -2.1752 0
M  V30 12349 H 1156.48 -3.71922 -3.72803 0
M  V30 12350 H 1158.97 -2.93944 -2.37498 0
M  V30 12351 H 1159.28 -6.38438 -4.3545 0
M  V30 12352 H 1157.63 -5.73773 -3.92186 0
M  V30 12353 H 1160.82 -3.69341 -2.87584 0
M  V30 12354 H 1160.99 -5.2642 -3.77871 0
M  V30 12355 N 1154.4 1.08748 -1.14068 0
M  V30 12356 C 1155.64 1.81333 -0.908081 0
M  V30 12357 C 1155.98 1.85826 0.564112 0
M  V30 12358 O 1155.25 1.33157 1.41773 0
M  V30 12359 C 1155.53 3.27127 -1.50531 0
M  V30 12360 C 1155.39 3.30865 -3.04711 0
M  V30 12361 C 1156.71 4.24006 -1.17928 0
M  V30 12362 H 1153.82 0.658326 -0.331325 0
M  V30 12363 H 1156.47 1.27345 -1.41008 0
M  V30 12364 H 1154.62 3.73233 -1.07839 0
M  V30 12365 H 1156.29 2.93109 -3.56209 0
M  V30 12366 H 1154.53 2.70241 -3.39341 0
M  V30 12367 H 1155.2 4.33603 -3.41603 0
M  V30 12368 H 1157.68 3.86221 -1.54831 0
M  V30 12369 H 1156.55 5.2434 -1.62353 0
M  V30 12370 H 1156.82 4.42 -0.0940349 0
M  V30 12371 N 1155.87 0.935264 1.26849 0
M  V30 12372 C 1157.1 0.596249 1.98122 0
M  V30 12373 C 1157.52 -0.827452 1.69702 0
M  V30 12374 O 1156.87 -1.55095 0.961864 0
M  V30 12375 C 1156.93 0.821773 3.52036 0
M  V30 12376 O 1156.65 2.18947 3.79465 0
M  V30 12377 C 1158.15 0.492498 4.40556 0
M  V30 12378 H 1155.37 0.225242 0.632066 0
M  V30 12379 H 1157.91 1.25435 1.61512 0
M  V30 12380 H 1156.07 0.210363 3.86828 0
M  V30 12381 H 1156.48 2.24509 4.74021 0
M  V30 12382 H 1157.95 0.700953 5.47531 0
M  V30 12383 H 1158.43 -0.57228 4.35456 0
M  V30 12384 H 1159.04 1.08238 4.11296 0
M  V30 12385 N 1157.35 -1.41121 0.701616 0
M  V30 12386 C 1158.6 -2.01428 0.235495 0
M  V30 12387 C 1158.93 -1.55463 -1.16382 0
M  V30 12388 O 1158.21 -0.768477 -1.78675 0
M  V30 12389 C 1158.49 -3.58849 0.299919 0
M  V30 12390 C 1158.34 -4.14924 1.73661 0
M  V30 12391 C 1159.66 -4.38809 -0.336856 0
M  V30 12392 H 1156.78 -0.731842 0.0870456 0
M  V30 12393 H 1159.42 -1.67787 0.891479 0
M  V30 12394 H 1157.57 -3.87638 -0.258611 0
M  V30 12395 H 1159.24 -3.96987 2.34945 0
M  V30 12396 H 1157.49 -3.69738 2.26884 0
M  V30 12397 H 1158.16 -5.24085 1.73318 0
M  V30 12398 H 1160.63 -4.15868 0.138886 0
M  V30 12399 H 1159.51 -5.48278 -0.261264 0
M  V30 12400 H 1159.77 -4.18728 -1.41843 0
M  V30 12401 N 1158.83 -0.446794 -1.51134 0
M  V30 12402 C 1160.08 0.116666 -2.02464 0
M  V30 12403 C 1160.41 1.41532 -1.32975 0
M  V30 12404 O 1159.68 1.89278 -0.447651 0
M  V30 12405 C 1159.97 0.325659 -3.58624 0
M  V30 12406 C 1159.82 -0.992307 -4.38718 0
M  V30 12407 C 1161.14 1.09121 -4.26357 0
M  V30 12408 H 1158.26 0.0409262 -0.735863 0
M  V30 12409 H 1160.9 -0.587641 -1.80684 0
M  V30 12410 H 1159.05 0.925585 -3.77313 0
M  V30 12411 H 1160.72 -1.62694 -4.31658 0
M  V30 12412 H 1158.97 -1.5947 -4.03425 0
M  V30 12413 H 1159.64 -0.800005 -5.46172 0
M  V30 12414 H 1162.11 0.582944 -4.11996 0
M  V30 12415 H 1160.99 1.20621 -5.35483 0
M  V30 12416 H 1161.25 2.12171 -3.87861 0
M  V30 12417 N 1160.31 1.56586 -0.178487 0
M  V30 12418 C 1161.56 1.96273 0.464745 0
M  V30 12419 C 1161.87 1.0675 1.63902 0
M  V30 12420 O 1163.08 1.36148 2.34896 0
M  V30 12421 C 1161.53 3.49021 0.878207 0
M  V30 12422 C 1161.14 4.4718 -0.270861 0
M  V30 12423 C 1162.88 3.97512 1.48946 0
M  V30 12424 C 1160.79 5.91176 0.162632 0
M  V30 12425 H 1159.72 0.732834 0.177398 0
M  V30 12426 H 1162.37 1.81534 -0.267861 0
M  V30 12427 H 1160.75 3.59203 1.667 0
M  V30 12428 H 1161.93 4.48718 -1.04826 0
M  V30 12429 H 1160.24 4.08788 -0.792529 0
M  V30 12430 H 1162.84 5.02556 1.82595 0
M  V30 12431 H 1163.18 3.40861 2.38997 0
M  V30 12432 H 1163.72 3.90376 0.76496 0
M  V30 12433 H 1160.46 6.51716 -0.703286 0
M  V30 12434 H 1159.98 5.9293 0.905243 0
M  V30 12435 H 1161.65 6.44174 0.604084 0
M  V30 12436 N 1161.79 -0.095206 1.57312 0
M  V30 12437 C 1163.01 -0.81227 1.90289 0
M  V30 12438 C 1163.43 -1.72287 0.772178 0
M  V30 12439 O 1162.79 -1.80698 -0.255841 0
M  V30 12440 C 1162.84 -1.62572 3.22882 0
M  V30 12441 O 1162.56 -0.75175 4.31602 0
M  V30 12442 C 1164.06 -2.44585 3.6972 0
M  V30 12443 H 1161.28 -0.232256 0.629522 0
M  V30 12444 H 1163.82 -0.0724733 2.04372 0
M  V30 12445 H 1161.98 -2.31803 3.10397 0
M  V30 12446 H 1162.39 -1.31514 5.07744 0
M  V30 12447 H 1163.87 -2.97155 4.65191 0
M  V30 12448 H 1164.34 -3.23044 2.97555 0
M  V30 12449 H 1164.95 -1.80554 3.85072 0
M  V30 12450 N 1163.26 -1.53291 -0.366026 0
M  V30 12451 C 1164.49 -1.73359 -1.12934 0
M  V30 12452 C 1164.91 -0.462352 -1.83051 0
M  V30 12453 O 1164.26 0.564711 -1.73543 0
M  V30 12454 C 1164.32 -2.89873 -2.15999 0
M  V30 12455 O 1164.04 -4.12079 -1.48737 0
M  V30 12456 C 1165.54 -3.21811 -3.04881 0
M  V30 12457 H 1162.76 -0.579827 -0.337701 0
M  V30 12458 H 1165.3 -2.00033 -0.425081 0
M  V30 12459 H 1163.46 -2.65595 -2.82025 0
M  V30 12460 H 1163.87 -4.77322 -2.17404 0
M  V30 12461 H 1165.34 -4.06744 -3.7318 0
M  V30 12462 H 1165.82 -2.37156 -3.69667 0
M  V30 12463 H 1166.43 -3.48013 -2.44473 0
M  V30 12464 N 1164.74 0.6258 -1.44643 0
M  V30 12465 C 1166.02 1.38439 -1.38181 0
M  V30 12466 C 1166.4 2.11056 -0.0431928 0
M  V30 12467 O 1165.75 2.06683 0.974383 0
M  V30 12468 C 1165.96 2.34639 -2.58352 0
M  V30 12469 C 1167.31 2.97807 -3.02649 0
M  V30 12470 O 1168.33 2.44963 -2.58595 0
M  V30 12471 O 1167.19 3.93682 -3.79048 0
M  V30 12472 H 1164.28 0.619852 -0.54746 0
M  V30 12473 H 1166.83 0.650409 -1.56741 0
M  V30 12474 H 1165.6 1.80116 -3.47382 0
M  V30 12475 H 1165.22 3.15446 -2.42032 0
M  V30 12476 N 1166.22 1.31629 0.866686 0
M  V30 12477 C 1167.47 1.20861 1.61479 0
M  V30 12478 C 1167.78 -0.231208 1.94229 0
M  V30 12479 O 1168.99 -0.460618 2.67564 0
M  V30 12480 C 1167.44 2.11602 2.91123 0
M  V30 12481 C 1167.05 3.60598 2.65844 0
M  V30 12482 C 1168.8 2.09642 3.69121 0
M  V30 12483 C 1166.7 4.43337 3.91415 0
M  V30 12484 H 1165.63 0.448783 0.605896 0
M  V30 12485 H 1168.28 1.56507 0.958001 0
M  V30 12486 H 1166.67 1.68858 3.58194 0
M  V30 12487 H 1167.84 4.11609 2.07159 0
M  V30 12488 H 1166.16 3.64568 2.01194 0
M  V30 12489 H 1168.75 2.68701 4.62281 0
M  V30 12490 H 1169.1 1.08438 4.01929 0
M  V30 12491 H 1169.63 2.50603 3.08938 0
M  V30 12492 H 1166.37 5.45309 3.63756 0
M  V30 12493 H 1165.89 3.97083 4.49539 0
M  V30 12494 H 1167.57 4.5572 4.5927 0
M  V30 12495 N 1167.7 -1.08142 1.14644 0
M  V30 12496 C 1168.93 -1.84318 0.939926 0
M  V30 12497 C 1169.34 -1.81735 -0.511636 0
M  V30 12498 O 1168.7 -1.22297 -1.35461 0
M  V30 12499 C 1168.75 -3.31744 1.43625 0
M  V30 12500 O 1168.47 -3.3435 2.83094 0
M  V30 12501 C 1169.97 -4.24717 1.27007 0
M  V30 12502 H 1167.19 -0.581781 0.334323 0
M  V30 12503 H 1169.74 -1.36561 1.52221 0
M  V30 12504 H 1167.89 -3.7688 0.896664 0
M  V30 12505 H 1168.31 -4.26399 3.05425 0
M  V30 12506 H 1169.78 -5.26262 1.66591 0
M  V30 12507 H 1170.26 -4.38682 0.213257 0
M  V30 12508 H 1170.86 -3.85409 1.79833 0
M  V30 12509 N 1169.18 -0.941978 -1.26351 0
M  V30 12510 C 1170.42 -0.590845 -1.94002 0
M  V30 12511 C 1170.76 0.868004 -1.73722 0
M  V30 12512 O 1170.03 1.62111 -1.07472 0
M  V30 12513 C 1170.31 -0.934901 -3.47752 0
M  V30 12514 C 1170.17 -2.44855 -3.77314 0
M  V30 12515 C 1171.49 -0.450888 -4.37784 0
M  V30 12516 H 1168.61 -0.21613 -0.704597 0
M  V30 12517 H 1171.25 -1.17634 -1.49205 0
M  V30 12518 H 1169.4 -0.436648 -3.86038 0
M  V30 12519 H 1171.07 -3.01959 -3.48738 0
M  V30 12520 H 1169.31 -2.89169 -3.23363 0
M  V30 12521 H 1169.98 -2.6398 -4.84787 0
M  V30 12522 H 1172.46 -0.878107 -4.06729 0
M  V30 12523 H 1171.34 -0.720439 -5.44152 0
M  V30 12524 H 1171.6 0.649162 -4.37308 0
M  V30 12525 N 1170.66 1.40747 -0.709091 0
M  V30 12526 C 1171.93 1.94831 -0.173246 0
M  V30 12527 C 1172.31 1.64766 1.31967 0
M  V30 12528 O 1171.66 0.961853 2.07269 0
M  V30 12529 C 1171.87 3.45697 -0.479013 0
M  V30 12530 C 1173.22 4.22576 -0.414122 0
M  V30 12531 O 1174.24 3.53778 -0.414699 0
M  V30 12532 O 1173.1 5.45135 -0.385986 0
M  V30 12533 H 1170.2 0.826683 -0.0228947 0
M  V30 12534 H 1172.74 1.50391 -0.786178 0
M  V30 12535 H 1171.51 3.60914 -1.51185 0
M  V30 12536 H 1171.14 3.97261 0.164211 0
M  V30 12537 N 1172.13 0.454803 1.50895 0
M  V30 12538 C 1173.36 -0.106259 2.07128 0
M  V30 12539 C 1173.78 -1.3418 1.31823 0
M  V30 12540 O 1173.14 -1.77667 0.361147 0
M  V30 12541 C 1173.19 -0.389609 3.58489 0
M  V30 12542 O 1172.29 -1.47305 3.85195 0
M  V30 12543 H 1171.63 0.00580588 0.663975 0
M  V30 12544 H 1174.16 0.641163 1.94294 0
M  V30 12545 H 1174.17 -0.634934 4.03029 0
M  V30 12546 H 1172.85 0.513338 4.1272 0
M  V30 12547 H 1171.43 -1.21631 3.52506 0
M  V30 12548 N 1173.61 -1.56489 0.186789 0
M  V30 12549 C 1174.84 -2.02163 -0.463126 0
M  V30 12550 C 1175.26 -1.06612 -1.54969 0
M  V30 12551 O 1174.62 -0.0482139 -1.81236 0
M  V30 12552 C 1174.67 -3.46337 -1.00416 0
M  V30 12553 O 1173.77 -3.53889 -2.11747 0
M  V30 12554 H 1173.11 -0.65496 -0.109194 0
M  V30 12555 H 1175.64 -2.02459 0.295227 0
M  V30 12556 H 1175.65 -3.85959 -1.32287 0
M  V30 12557 H 1174.33 -4.15376 -0.208693 0
M  V30 12558 H 1172.9 -3.26136 -1.80803 0
M  V30 12559 N 1175.09 0.086862 -1.5736 0
M  V30 12560 C 1176.34 0.78884 -1.86504 0
M  V30 12561 C 1176.66 1.78329 -0.77646 0
M  V30 12562 O 1175.92 1.94354 0.229122 0
M  V30 12563 C 1176.22 1.54537 -3.22263 0
M  V30 12564 C 1175.88 0.692284 -4.45554 0
M  V30 12565 C 1174.55 0.45714 -4.79024 0
M  V30 12566 C 1176.9 0.0997695 -5.21105 0
M  V30 12567 C 1174.23 -0.380247 -5.85466 0
M  V30 12568 C 1176.58 -0.724986 -6.28432 0
M  V30 12569 C 1175.24 -0.970144 -6.60412 0
M  V30 12570 H 1174.51 0.288657 -0.682465 0
M  V30 12571 H 1177.16 0.050059 -1.91435 0
M  V30 12572 H 1175.46 2.35594 -3.13053 0
M  V30 12573 H 1177.16 2.09305 -3.42042 0
M  V30 12574 H 1173.75 0.885675 -4.19349 0
M  V30 12575 H 1177.94 0.268583 -4.95573 0
M  V30 12576 H 1173.19 -0.579084 -6.08651 0
M  V30 12577 H 1177.37 -1.19093 -6.86141 0
M  V30 12578 H 1174.99 -1.6208 -7.42721 0
M  V30 12579 N 1176.57 1.53483 0.357892 0
M  V30 12580 C 1177.81 1.70289 1.10134 0
M  V30 12581 C 1178.15 0.457296 1.88739 0
M  V30 12582 O 1177.42 -0.545527 1.86693 0
M  V30 12583 C 1177.7 2.95755 2.05429 0
M  V30 12584 C 1177.56 4.30489 1.30382 0
M  V30 12585 C 1178.88 3.16844 3.05447 0
M  V30 12586 H 1176 0.61965 0.399003 0
M  V30 12587 H 1178.64 1.86133 0.381357 0
M  V30 12588 H 1176.79 2.82377 2.66825 0
M  V30 12589 H 1178.46 4.55692 0.71711 0
M  V30 12590 H 1176.7 4.2955 0.605712 0
M  V30 12591 H 1177.37 5.14427 2.00171 0
M  V30 12592 H 1179.85 3.29458 2.54159 0
M  V30 12593 H 1178.73 4.06053 3.69341 0
M  V30 12594 H 1178.99 2.32476 3.76041 0
M  V30 12595 N 1178.05 -0.61812 1.44973 0
M  V30 12596 C 1178.99 -1.72942 1.52838 0
M  V30 12597 C 1179.96 -1.6181 0.375056 0
M  V30 12598 O 1181.15 -1.81544 0.587075 0
M  V30 12599 C 1178.29 -3.11228 1.49101 0
M  V30 12600 C 1177.4 -3.33243 2.74906 0
M  V30 12601 C 1176.54 -4.61574 2.62912 0
M  V30 12602 C 1175.57 -4.76811 3.8382 0
M  V30 12603 N 1174.71 -5.96432 3.70424 0
M  V30 12604 H 1179.55 -1.65556 2.47781 0
M  V30 12605 H 1177.09 -0.807411 1.2296 0
M  V30 12606 H 1179.05 -3.9122 1.44923 0
M  V30 12607 H 1177.68 -3.17598 0.577163 0
M  V30 12608 H 1176.73 -2.471 2.89216 0
M  V30 12609 H 1178.04 -3.40377 3.64616 0
M  V30 12610 H 1177.19 -5.49746 2.56641 0
M  V30 12611 H 1175.93 -4.5682 1.70784 0
M  V30 12612 H 1174.94 -3.87066 3.90461 0
M  V30 12613 H 1176.16 -4.83371 4.77001 0
M  V30 12614 H 1174.11 -5.92742 2.81057 0
M  V30 12615 H 1174.03 -6.0468 4.5376 0
M  V30 12616 H 1175.29 -6.8713 3.68067 0
M  V30 12617 N 1179.52 -1.32087 -0.859693 0
M  V30 12618 C 1180.49 -1.20546 -1.94939 0
M  V30 12619 C 1181.49 -0.12982 -1.60275 0
M  V30 12620 O 1182.68 -0.379853 -1.70008 0
M  V30 12621 C 1179.81 -0.852717 -3.30063 0
M  V30 12622 H 1181 -2.17384 -2.06602 0
M  V30 12623 H 1178.55 -1.15846 -1.04926 0
M  V30 12624 H 1179.29 0.114059 -3.24099 0
M  V30 12625 H 1179.07 -1.63035 -3.56598 0
M  V30 12626 H 1180.56 -0.796145 -4.09941 0
M  V30 12627 N 1181 1.07532 -1.15215 0
M  V30 12628 C 1182.25 1.79737 -0.924062 0
M  V30 12629 C 1182.57 1.87072 0.550356 0
M  V30 12630 O 1181.84 1.37029 1.4 0
M  V30 12631 H 1180.42 0.665704 -0.338891 0
M  V30 12632 H 1183.08 1.29961 -1.45245 0
M  V30 12633 H 1182.18 2.82256 -1.33184 0
M  V30 12634 N 1182.48 0.948665 1.2585 0
M  V30 12635 C 1183.41 0.482036 2.2847 0
M  V30 12636 C 1184.39 -0.468553 1.63519 0
M  V30 12637 O 1185.58 -0.368796 1.90666 0
M  V30 12638 C 1182.71 -0.246603 3.46423 0
M  V30 12639 C 1181.66 0.61815 4.23513 0
M  V30 12640 C 1180.99 -0.240884 5.34157 0
M  V30 12641 C 1182.29 1.89327 4.86778 0
M  V30 12642 H 1183.98 1.33973 2.67753 0
M  V30 12643 H 1181.53 0.645645 1.28715 0
M  V30 12644 H 1183.48 -0.584135 4.17332 0
M  V30 12645 H 1182.2 -1.13849 3.06114 0
M  V30 12646 H 1180.86 0.938682 3.54379 0
M  V30 12647 H 1180.51 -1.13235 4.90089 0
M  V30 12648 H 1180.21 0.334367 5.86648 0
M  V30 12649 H 1181.73 -0.573517 6.07901 0
M  V30 12650 H 1183.15 1.62252 5.49861 0
M  V30 12651 H 1181.55 2.41369 5.49419 0
M  V30 12652 H 1182.62 2.60006 4.09298 0
M  V30 12653 N 1183.96 -1.40369 0.716545 0
M  V30 12654 C 1184.87 -2.34508 0.065658 0
M  V30 12655 C 1185.88 -1.57352 -0.742723 0
M  V30 12656 O 1187.06 -1.89735 -0.675456 0
M  V30 12657 C 1184.13 -3.36262 -0.844337 0
M  V30 12658 C 1183.19 -4.29292 -0.0257971 0
M  V30 12659 C 1182.42 -5.26185 -0.892452 0
M  V30 12660 O 1182.64 -5.29071 -2.13166 0
M  V30 12661 O 1181.58 -6.0099 -0.330933 0
M  V30 12662 H 1185.4 -2.91789 0.842184 0
M  V30 12663 H 1182.99 -1.41579 0.477034 0
M  V30 12664 H 1184.87 -3.98661 -1.36555 0
M  V30 12665 H 1183.54 -2.81393 -1.59999 0
M  V30 12666 H 1182.45 -3.70175 0.540512 0
M  V30 12667 H 1183.78 -4.87316 0.69166 0
M  V30 12668 N 1185.44 -0.462799 -1.50652 0
M  V30 12669 C 1186.66 0.0929761 -2.06691 0
M  V30 12670 C 1187.08 1.34241 -1.32758 0
M  V30 12671 O 1186.44 1.78187 -0.394427 0
M  V30 12672 C 1186.49 0.389492 -3.59396 0
M  V30 12673 O 1186.21 -0.810379 -4.3054 0
M  V30 12674 C 1187.71 0.993147 -4.32032 0
M  V30 12675 H 1184.93 -0.00338664 -0.670991 0
M  V30 12676 H 1187.47 -0.649201 -1.93922 0
M  V30 12677 H 1185.63 1.08159 -3.71995 0
M  V30 12678 H 1186.04 -0.54996 -5.21609 0
M  V30 12679 H 1187.52 1.15044 -5.39878 0
M  V30 12680 H 1187.99 1.98106 -3.91983 0
M  V30 12681 H 1188.6 0.339677 -4.23941 0
M  V30 12682 N 1186.91 1.56388 -0.195085 0
M  V30 12683 C 1188.14 2.02406 0.452399 0
M  V30 12684 C 1188.56 1.07432 1.54402 0
M  V30 12685 O 1187.92 0.0578246 1.81208 0
M  V30 12686 C 1187.97 3.46864 0.985778 0
M  V30 12687 O 1187.07 3.55007 2.09867 0
M  V30 12688 H 1186.42 0.65553 0.105719 0
M  V30 12689 H 1188.95 2.02299 -0.30596 0
M  V30 12690 H 1188.96 3.86655 1.30238 0
M  V30 12691 H 1187.63 4.15481 0.186662 0
M  V30 12692 H 1186.21 3.2709 1.79071 0
M  V30 12693 N 1188.39 -0.0785156 1.57404 0
M  V30 12694 C 1189.62 -0.792042 1.9114 0
M  V30 12695 C 1190.04 -1.71458 0.790408 0
M  V30 12696 O 1189.39 -1.80959 -0.236662 0
M  V30 12697 C 1189.44 -1.59138 3.24588 0
M  V30 12698 O 1189.16 -0.705931 4.32375 0
M  V30 12699 C 1190.67 -2.4065 3.72293 0
M  V30 12700 H 1187.89 -0.225566 0.63195 0
M  V30 12701 H 1190.43 -0.0507929 2.04437 0
M  V30 12702 H 1188.58 -2.28498 3.12838 0
M  V30 12703 H 1189 -1.26121 5.09111 0
M  V30 12704 H 1190.47 -2.92204 4.68317 0
M  V30 12705 H 1190.95 -3.1987 3.00965 0
M  V30 12706 H 1191.56 -1.7646 3.86965 0
M  V30 12707 N 1189.87 -1.5367 -0.349747 0
M  V30 12708 C 1190.78 -1.84207 -1.45275 0
M  V30 12709 C 1191.8 -0.731695 -1.57868 0
M  V30 12710 O 1192.97 -1.02337 -1.73462 0
M  V30 12711 C 1190.04 -2.0398 -2.80345 0
M  V30 12712 C 1189.1 -3.27853 -2.77148 0
M  V30 12713 C 1188.33 -3.46673 -4.05775 0
M  V30 12714 O 1188.55 -2.69457 -5.02741 0
M  V30 12715 O 1187.49 -4.40082 -4.10623 0
M  V30 12716 H 1191.31 -2.77947 -1.22389 0
M  V30 12717 H 1188.9 -1.39247 -0.541345 0
M  V30 12718 H 1190.78 -2.18466 -3.60348 0
M  V30 12719 H 1189.46 -1.13429 -3.03176 0
M  V30 12720 H 1188.36 -3.18776 -1.95787 0
M  V30 12721 H 1189.7 -4.18377 -2.59271 0
M  V30 12722 N 1191.35 0.610423 -1.45298 0
M  V30 12723 C 1192.58 1.39621 -1.52688 0
M  V30 12724 C 1192.99 1.88133 -0.158535 0
M  V30 12725 O 1192.35 1.62051 0.839396 0
M  V30 12726 C 1192.4 2.60261 -2.50891 0
M  V30 12727 O 1192.12 2.13766 -3.82408 0
M  V30 12728 C 1193.62 3.53154 -2.6795 0
M  V30 12729 H 1190.84 0.427493 -0.517195 0
M  V30 12730 H 1193.39 0.744701 -1.90459 0
M  V30 12731 H 1191.54 3.2146 -2.162 0
M  V30 12732 H 1191.95 2.92128 -4.35616 0
M  V30 12733 H 1193.43 4.34355 -3.40647 0
M  V30 12734 H 1193.91 4.03311 -1.73888 0
M  V30 12735 H 1194.51 2.9781 -3.03627 0
M  V30 12736 N 1192.83 1.32541 0.852676 0
M  V30 12737 C 1193.74 1.23646 1.99371 0
M  V30 12738 C 1194.75 0.149673 1.73355 0
M  V30 12739 O 1195.93 0.370716 1.97959 0
M  V30 12740 C 1192.99 0.961873 3.3309 0
M  V30 12741 C 1192.05 2.1373 3.72315 0
M  V30 12742 C 1191.29 1.87572 4.99652 0
M  V30 12743 O 1191.51 0.819247 5.64486 0
M  V30 12744 O 1190.44 2.73732 5.36054 0
M  V30 12745 H 1194.27 2.19573 2.09813 0
M  V30 12746 H 1191.86 1.12451 0.983627 0
M  V30 12747 H 1193.74 0.825316 4.13239 0
M  V30 12748 H 1192.41 0.0327745 3.23683 0
M  V30 12749 H 1191.32 2.32933 2.92733 0
M  V30 12750 H 1192.65 3.04925 3.86369 0
M  V30 12751 N 1194.3 -1.0692 1.15784 0
M  V30 12752 C 1195.27 -2.12407 0.861167 0
M  V30 12753 C 1196.27 -1.6018 -0.141031 0
M  V30 12754 O 1197.46 -1.73972 0.0891192 0
M  V30 12755 C 1194.59 -3.39693 0.286636 0
M  V30 12756 H 1195.78 -2.40157 1.79623 0
M  V30 12757 H 1193.34 -1.22881 0.965916 0
M  V30 12758 H 1194.07 -3.17587 -0.656417 0
M  V30 12759 H 1193.86 -3.78903 1.0087 0
M  V30 12760 H 1195.35 -4.17488 0.0967971 0
M  V30 12761 N 1195.78 -0.955326 -1.25345 0
M  V30 12762 C 1197.03 -0.609278 -1.92697 0
M  V30 12763 C 1197.35 0.856535 -1.75181 0
M  V30 12764 O 1196.62 1.61013 -1.11587 0
M  V30 12765 H 1195.2 -0.22235 -0.713141 0
M  V30 12766 H 1197.86 -1.21372 -1.52496 0
M  V30 12767 H 1196.96 -0.839198 -3.00606 0
M  V30 12768 N 1197.26 1.39987 -0.723979 0
M  V30 12769 C 1198.19 2.3332 -0.0917282 0
M  V30 12770 C 1199.17 1.53335 0.736361 0
M  V30 12771 O 1200.36 1.81771 0.683582 0
M  V30 12772 C 1197.49 3.3737 0.824549 0
M  V30 12773 C 1196.44 4.2788 0.101452 0
M  V30 12774 C 1195.77 5.22536 1.13401 0
M  V30 12775 C 1197.07 5.11649 -1.04939 0
M  V30 12776 H 1198.76 2.86441 -0.871318 0
M  V30 12777 H 1196.31 1.37725 -0.420448 0
M  V30 12778 H 1198.26 4.01607 1.27631 0
M  V30 12779 H 1196.98 2.82663 1.63613 0
M  V30 12780 H 1195.64 3.65107 -0.330569 0
M  V30 12781 H 1195.29 4.64131 1.93886 0
M  V30 12782 H 1194.99 5.83938 0.65502 0
M  V30 12783 H 1196.52 5.89651 1.58569 0
M  V30 12784 H 1197.93 5.69293 -0.6766 0
M  V30 12785 H 1196.33 5.82137 -1.45729 0
M  V30 12786 H 1197.4 4.47132 -1.8762 0
M  V30 12787 N 1198.74 0.470782 1.50404 0
M  V30 12788 C 1199.65 -0.328877 2.32283 0
M  V30 12789 C 1200.67 -0.99629 1.42654 0
M  V30 12790 O 1201.84 -0.984331 1.75707 0
M  V30 12791 C 1198.91 -1.39675 3.1732 0
M  V30 12792 C 1197.97 -0.745965 4.22769 0
M  V30 12793 C 1197.2 -1.76295 5.03742 0
M  V30 12794 O 1197.42 -2.98943 4.85788 0
M  V30 12795 O 1196.36 -1.33495 5.86909 0
M  V30 12796 H 1200.18 0.340491 3.01785 0
M  V30 12797 H 1197.77 0.232637 1.47578 0
M  V30 12798 H 1199.65 -2.0153 3.70086 0
M  V30 12799 H 1198.33 -2.04959 2.50546 0
M  V30 12800 H 1197.23 -0.0884647 3.73995 0
M  V30 12801 H 1198.57 -0.136074 4.92012 0
M  V30 12802 N 1200.22 -1.56282 0.203376 0
M  V30 12803 C 1201.46 -1.97812 -0.433202 0
M  V30 12804 C 1201.79 -1.09052 -1.61053 0
M  V30 12805 O 1201.05 -0.131417 -1.95258 0
M  V30 12806 C 1201.35 -3.45148 -0.927759 0
M  V30 12807 C 1201.01 -4.50692 0.137083 0
M  V30 12808 C 1199.67 -4.79278 0.429652 0
M  V30 12809 C 1202.03 -5.14086 0.858174 0
M  V30 12810 C 1199.35 -5.68547 1.44815 0
M  V30 12811 C 1201.71 -6.04457 1.86588 0
M  V30 12812 C 1200.37 -6.31395 2.16556 0
M  V30 12813 H 1199.64 -0.723846 -0.15852 0
M  V30 12814 H 1202.29 -1.89102 0.302082 0
M  V30 12815 H 1200.59 -3.5097 -1.74147 0
M  V30 12816 H 1202.29 -3.74642 -1.42984 0
M  V30 12817 H 1198.88 -4.28481 -0.101111 0
M  V30 12818 H 1203.06 -4.92086 0.645376 0
M  V30 12819 H 1198.32 -5.87689 1.68615 0
M  V30 12820 H 1202.49 -6.52636 2.4298 0
M  V30 12821 H 1200.12 -7.00366 2.9562 0
M  V30 12822 N 1201.7 0.070167 -1.57444 0
M  V30 12823 C 1202.94 0.767842 -1.86513 0
M  V30 12824 C 1203.26 1.78659 -0.796257 0
M  V30 12825 O 1204.46 2.53395 -0.974845 0
M  V30 12826 C 1202.92 1.41654 -3.30851 0
M  V30 12827 C 1202.53 0.436273 -4.45871 0
M  V30 12828 C 1204.27 2.09649 -3.69117 0
M  V30 12829 C 1202.18 1.09098 -5.8125 0
M  V30 12830 H 1201.11 0.290519 -0.695784 0
M  V30 12831 H 1203.76 0.0211697 -1.83488 0
M  V30 12832 H 1202.14 2.21153 -3.28493 0
M  V30 12833 H 1203.32 -0.329022 -4.59624 0
M  V30 12834 H 1201.63 -0.139314 -4.16167 0
M  V30 12835 H 1204.23 2.59411 -4.67558 0
M  V30 12836 H 1204.57 2.89663 -2.99 0
M  V30 12837 H 1205.1 1.36979 -3.73472 0
M  V30 12838 H 1201.84 0.331128 -6.54663 0
M  V30 12839 H 1201.36 1.8271 -5.71294 0
M  V30 12840 H 1203.04 1.61034 -6.2664 0
M  V30 12841 N 1203.17 1.53854 0.341593 0
M  V30 12842 C 1204.4 1.75447 1.10604 0
M  V30 12843 C 1204.82 0.493225 1.81518 0
M  V30 12844 O 1204.18 -0.554253 1.7262 0
M  V30 12845 C 1204.23 2.93593 2.09369 0
M  V30 12846 O 1203.33 2.63878 3.16926 0
M  V30 12847 H 1202.67 0.581923 0.319783 0
M  V30 12848 H 1205.2 2.00822 0.391388 0
M  V30 12849 H 1205.21 3.20437 2.52556 0
M  V30 12850 H 1203.89 3.85067 1.57151 0
M  V30 12851 H 1202.47 2.47929 2.78542 0
M  V30 12852 N 1204.65 -0.602709 1.4562 0
M  V30 12853 C 1205.88 -1.3881 1.53426 0
M  V30 12854 C 1206.29 -1.88046 0.16851 0
M  V30 12855 O 1205.65 -1.62493 -0.830791 0
M  V30 12856 C 1205.7 -2.58927 2.52268 0
M  V30 12857 O 1205.42 -2.11735 3.83536 0
M  V30 12858 C 1206.92 -3.51728 2.69819 0
M  V30 12859 H 1204.14 -0.424744 0.519455 0
M  V30 12860 H 1206.69 -0.73459 1.90851 0
M  V30 12861 H 1204.84 -3.20309 2.17902 0
M  V30 12862 H 1205.26 -2.89814 4.37159 0
M  V30 12863 H 1206.73 -4.32542 3.42945 0
M  V30 12864 H 1207.21 -4.02383 1.76024 0
M  V30 12865 H 1207.81 -2.96196 3.05202 0
M  V30 12866 N 1206.13 -1.32992 -0.845635 0
M  V30 12867 C 1207.38 -1.24249 -1.60281 0
M  V30 12868 C 1207.71 0.193049 -1.93238 0
M  V30 12869 O 1206.98 1.1326 -1.58122 0
M  V30 12870 C 1207.27 -2.1111 -2.91727 0
M  V30 12871 C 1207.12 -3.63088 -2.65494 0
M  V30 12872 C 1208.44 -1.97913 -3.93089 0
M  V30 12873 H 1205.56 -0.452698 -0.581578 0
M  V30 12874 H 1208.2 -1.63026 -0.975828 0
M  V30 12875 H 1206.35 -1.78169 -3.45236 0
M  V30 12876 H 1208.02 -4.06287 -2.18469 0
M  V30 12877 H 1206.26 -3.85304 -1.99306 0
M  V30 12878 H 1206.94 -4.19202 -3.59129 0
M  V30 12879 H 1209.41 -2.26788 -3.48864 0
M  V30 12880 H 1208.29 -2.60952 -4.82903 0
M  V30 12881 H 1208.55 -0.949378 -4.31786 0
M  V30 12882 N 1207.61 1.06304 -1.1635 0
M  V30 12883 C 1208.54 2.13732 -0.827721 0
M  V30 12884 C 1209.55 1.61962 0.164983 0
M  V30 12885 O 1210.74 1.784 -0.0597591 0
M  V30 12886 C 1207.84 3.38239 -0.211623 0
M  V30 12887 C 1207.01 4.19325 -1.2444 0
M  V30 12888 C 1206.07 5.22193 -0.648127 0
M  V30 12889 O 1205.1 5.53755 -1.31695 0
M  V30 12890 N 1206.3 5.77742 0.565179 0
M  V30 12891 H 1209.07 2.43136 -1.75228 0
M  V30 12892 H 1206.63 1.22304 -1.06081 0
M  V30 12893 H 1208.62 4.04204 0.200306 0
M  V30 12894 H 1207.19 3.06461 0.616491 0
M  V30 12895 H 1206.41 3.49017 -1.83251 0
M  V30 12896 H 1207.7 4.70306 -1.94138 0
M  V30 12897 H 1207.1 5.54366 1.12673 0
M  V30 12898 H 1205.65 6.45284 0.919321 0
M  V30 12899 N 1209.09 0.96196 1.24836 0
M  V30 12900 C 1210.33 0.620715 1.92752 0
M  V30 12901 C 1210.66 -0.843308 1.75267 0
M  V30 12902 O 1209.92 -1.62141 1.09584 0
M  V30 12903 C 1210.21 0.934481 3.44967 0
M  V30 12904 C 1209.88 2.38572 3.82615 0
M  V30 12905 C 1208.54 2.78238 3.92603 0
M  V30 12906 C 1210.89 3.32784 4.01129 0
M  V30 12907 C 1208.22 4.11169 4.18518 0
M  V30 12908 C 1210.57 4.65336 4.28539 0
M  V30 12909 C 1209.24 5.04788 4.36745 0
M  V30 12910 H 1208.51 0.227136 0.70533 0
M  V30 12911 H 1211.16 1.21237 1.48236 0
M  V30 12912 H 1209.46 0.260516 3.90933 0
M  V30 12913 H 1211.16 0.648923 3.95715 0
M  V30 12914 H 1207.75 2.06812 3.75402 0
M  V30 12915 H 1211.93 3.03325 3.9282 0
M  V30 12916 H 1207.19 4.41368 4.23089 0
M  V30 12917 H 1211.36 5.3831 4.41809 0
M  V30 12918 H 1208.99 6.07816 4.56579 0
M  V30 12919 N 1210.56 -1.39601 0.731392 0
M  V30 12920 C 1211.79 -2.05411 0.286532 0
M  V30 12921 C 1212.21 -1.54777 -1.06892 0
M  V30 12922 O 1211.57 -0.689942 -1.67659 0
M  V30 12923 C 1211.62 -3.594 0.293914 0
M  V30 12924 O 1210.72 -4.06072 -0.719657 0
M  V30 12925 H 1210.06 -0.650949 0.131004 0
M  V30 12926 H 1212.59 -1.78703 0.996305 0
M  V30 12927 H 1212.6 -4.0777 0.137052 0
M  V30 12928 H 1211.28 -3.95617 1.28298 0
M  V30 12929 H 1209.86 -3.69125 -0.529226 0
M  V30 12930 N 1212.04 -0.478751 -1.50152 0
M  V30 12931 C 1212.97 0.347829 -2.26545 0
M  V30 12932 C 1213.99 0.950354 -1.32182 0
M  V30 12933 O 1215.18 0.837462 -1.57635 0
M  V30 12934 C 1212.28 1.50255 -3.0377 0
M  V30 12935 C 1211.45 1.01142 -4.25546 0
M  V30 12936 C 1210.51 2.0411 -4.85 0
M  V30 12937 O 1209.53 1.61862 -5.45701 0
M  V30 12938 N 1210.74 3.36982 -4.72677 0
M  V30 12939 H 1213.5 -0.307113 -2.98122 0
M  V30 12940 H 1211.06 -0.309981 -1.58905 0
M  V30 12941 H 1213.05 2.18848 -3.40423 0
M  V30 12942 H 1211.62 2.06205 -2.34943 0
M  V30 12943 H 1210.84 0.151124 -3.9391 0
M  V30 12944 H 1212.13 0.661326 -5.04484 0
M  V30 12945 H 1211.53 3.74011 -4.2442 0
M  V30 12946 H 1210.09 4.0135 -5.13577 0
M  V30 12947 N 1213.52 1.56172 -0.211661 0
M  V30 12948 C 1214.75 2.02135 0.427222 0
M  V30 12949 C 1215.16 1.09084 1.54587 0
M  V30 12950 O 1214.5 0.090906 1.83475 0
M  V30 12951 C 1214.56 3.44459 1.029 0
M  V30 12952 C 1214.23 4.56976 0.0470243 0
M  V30 12953 C 1215.22 5.14466 -0.749724 0
M  V30 12954 C 1212.91 5.02253 -0.0688634 0
M  V30 12955 C 1214.9 6.15696 -1.64916 0
M  V30 12956 C 1212.59 6.03323 -0.971844 0
M  V30 12957 C 1213.59 6.5992 -1.76055 0
M  V30 12958 O 1213.28 7.59024 -2.64837 0
M  V30 12959 H 1213.01 0.667008 0.109894 0
M  V30 12960 H 1215.56 2.02851 -0.322595 0
M  V30 12961 H 1213.79 3.4078 1.82772 0
M  V30 12962 H 1215.48 3.74128 1.57425 0
M  V30 12963 H 1216.25 4.80342 -0.670588 0
M  V30 12964 H 1212.13 4.57886 0.534889 0
M  V30 12965 H 1215.67 6.59798 -2.26521 0
M  V30 12966 H 1211.57 6.36869 -1.05203 0
M  V30 12967 H 1212.34 7.76508 -2.58801 0
M  V30 12968 N 1215 -0.0618163 1.57479 0
M  V30 12969 C 1216.41 -0.612461 1.76368 0
M  V30 12970 C 1216.76 -1.77381 0.838466 0
M  V30 12971 O 1215.89 -2.16386 0.0250211 0
M  V30 12972 C 1216.48 -1.11782 3.19829 0
M  V30 12973 C 1215.04 -1.61424 3.40028 0
M  V30 12974 C 1214.19 -0.53795 2.72032 0
M  V30 12975 H 1217.14 0.164382 1.57846 0
M  V30 12976 H 1217.16 -1.98634 3.24538 0
M  V30 12977 H 1216.67 -0.272353 3.87143 0
M  V30 12978 H 1214.77 -2.48263 2.77842 0
M  V30 12979 H 1214.88 -1.68431 4.48517 0
M  V30 12980 H 1213.25 -0.985355 2.34868 0
M  V30 12981 H 1214.03 0.297495 3.42009 0
M  V30 12982 N 1216.48 -1.54033 -0.333429 0
M  V30 12983 C 1217.72 -1.71765 -1.07252 0
M  V30 12984 C 1218.05 -0.486135 -1.88327 0
M  V30 12985 O 1217.31 0.532135 -1.88326 0
M  V30 12986 C 1217.61 -2.93926 -2.03328 0
M  V30 12987 C 1217.27 -4.29107 -1.38486 0
M  V30 12988 C 1215.93 -4.6586 -1.20532 0
M  V30 12989 C 1218.29 -5.13041 -0.918624 0
M  V30 12990 C 1215.61 -5.84155 -0.545881 0
M  V30 12991 C 1217.97 -6.3201 -0.273055 0
M  V30 12992 C 1216.63 -6.67451 -0.0812815 0
M  V30 12993 H 1215.9 -0.628532 -0.392464 0
M  V30 12994 H 1218.55 -1.88261 -0.350709 0
M  V30 12995 H 1216.85 -2.72075 -2.81926 0
M  V30 12996 H 1218.55 -3.0484 -2.60526 0
M  V30 12997 H 1215.14 -4.00185 -1.5346 0
M  V30 12998 H 1219.32 -4.8517 -1.04515 0
M  V30 12999 H 1214.58 -6.1018 -0.386009 0
M  V30 13000 H 1218.75 -6.96333 0.0962582 0
M  V30 13001 H 1216.38 -7.58973 0.431734 0
M  V30 13002 N 1217.95 0.594978 -1.45938 0
M  V30 13003 C 1218.88 1.71536 -1.58422 0
M  V30 13004 C 1219.87 1.64441 -0.435116 0
M  V30 13005 O 1221.05 1.82647 -0.659839 0
M  V30 13006 C 1218.18 3.10163 -1.56257 0
M  V30 13007 C 1217.13 3.3208 -2.70013 0
M  V30 13008 C 1216.46 4.71108 -2.52905 0
M  V30 13009 C 1217.76 3.21105 -4.11933 0
M  V30 13010 H 1219.45 1.61344 -2.52207 0
M  V30 13011 H 1217 0.774791 -1.2138 0
M  V30 13012 H 1218.95 3.88352 -1.63587 0
M  V30 13013 H 1217.68 3.21225 -0.590093 0
M  V30 13014 H 1216.34 2.56286 -2.62132 0
M  V30 13015 H 1215.98 4.7892 -1.53768 0
M  V30 13016 H 1215.68 4.86727 -3.29197 0
M  V30 13017 H 1217.21 5.51482 -2.62107 0
M  V30 13018 H 1218.62 3.89153 -4.2099 0
M  V30 13019 H 1217.02 3.4825 -4.88715 0
M  V30 13020 H 1218.09 2.18359 -4.32952 0
M  V30 13021 N 1219.43 1.33438 0.838571 0
M  V30 13022 C 1220.68 1.25097 1.5962 0
M  V30 13023 C 1221.01 -0.182798 1.93338 0
M  V30 13024 O 1220.29 -1.1242 1.5872 0
M  V30 13025 C 1220.57 2.12655 2.90603 0
M  V30 13026 C 1220.42 3.64491 2.63565 0
M  V30 13027 C 1221.74 1.99994 3.92033 0
M  V30 13028 H 1218.86 0.455776 0.579169 0
M  V30 13029 H 1221.5 1.63542 0.967169 0
M  V30 13030 H 1219.65 1.79998 3.44286 0
M  V30 13031 H 1221.32 4.0744 2.16312 0
M  V30 13032 H 1219.57 3.86356 1.9726 0
M  V30 13033 H 1220.24 4.21101 3.569 0
M  V30 13034 H 1222.71 2.28635 3.47657 0
M  V30 13035 H 1221.59 2.63509 4.81512 0
M  V30 13036 H 1221.85 0.972263 4.31277 0
M  V30 13037 N 1220.91 -1.05686 1.16912 0
M  V30 13038 C 1222.15 -1.80177 0.965182 0
M  V30 13039 C 1222.51 -1.85437 -0.497698 0
M  V30 13040 O 1223.72 -2.5597 -0.82054 0
M  V30 13041 C 1221.99 -3.20441 1.58279 0
M  V30 13042 S 1223.55 -4.11472 1.52435 0
M  V30 13043 H 1220.36 -0.620595 0.346962 0
M  V30 13044 H 1222.97 -1.26841 1.48767 0
M  V30 13045 H 1221.67 -3.14211 2.64006 0
M  V30 13046 H 1221.2 -3.78853 1.05989 0
M  V30 13047 H 1223.22 -4.93373 0.528876 0
M  V30 13048 N 1222.39 -0.968567 -1.24324 0
M  V30 13049 C 1223.32 -0.444065 -2.23838 0
M  V30 13050 C 1224.3 0.482311 -1.55282 0
M  V30 13051 O 1225.48 0.413489 -1.83909 0
M  V30 13052 C 1222.61 0.358874 -3.36793 0
M  V30 13053 C 1221.66 -0.509913 -4.23441 0
M  V30 13054 S 1222.49 -1.95064 -4.98708 0
M  V30 13055 C 1223.65 -1.15652 -6.15122 0
M  V30 13056 H 1223.88 -1.28738 -2.67981 0
M  V30 13057 H 1221.41 -0.773665 -1.33618 0
M  V30 13058 H 1223.37 0.816164 -4.02305 0
M  V30 13059 H 1222.03 1.17717 -2.91207 0
M  V30 13060 H 1221.22 0.106617 -5.03887 0
M  V30 13061 H 1220.83 -0.902967 -3.62936 0
M  V30 13062 H 1223.12 -0.411966 -6.76246 0
M  V30 13063 H 1224.06 -1.93539 -6.81137 0
M  V30 13064 H 1224.47 -0.680507 -5.60383 0
M  V30 13065 N 1223.87 1.39211 -0.738786 0
M  V30 13066 C 1224.8 2.29117 -0.0616489 0
M  V30 13067 C 1225.81 1.47008 0.699462 0
M  V30 13068 O 1227 1.70041 0.542998 0
M  V30 13069 C 1224.1 3.25692 0.936893 0
M  V30 13070 C 1223.27 4.3676 0.236515 0
M  V30 13071 C 1222.33 5.1362 1.1437 0
M  V30 13072 O 1221.36 5.65816 0.619762 0
M  V30 13073 N 1222.56 5.25184 2.4731 0
M  V30 13074 H 1225.33 2.8787 -0.833711 0
M  V30 13075 H 1222.89 1.50832 -0.588323 0
M  V30 13076 H 1224.88 3.73987 1.54648 0
M  V30 13077 H 1223.45 2.67943 1.61014 0
M  V30 13078 H 1222.67 3.90293 -0.553594 0
M  V30 13079 H 1223.96 5.08192 -0.248707 0
M  V30 13080 H 1223.35 4.84302 2.92349 0
M  V30 13081 H 1221.91 5.76905 3.03355 0
M  V30 13082 N 1225.34 0.486708 1.49896 0
M  V30 13083 C 1226.28 -0.345627 2.25567 0
M  V30 13084 C 1227.26 -0.982794 1.29537 0
M  V30 13085 O 1228.44 -1.01569 1.58796 0
M  V30 13086 C 1225.57 -1.48555 3.04383 0
M  V30 13087 C 1224.61 -0.964196 4.15458 0
M  V30 13088 S 1225.45 0.133631 5.35333 0
M  V30 13089 C 1226.6 -1.00979 6.17701 0
M  V30 13090 H 1226.83 0.296677 2.95816 0
M  V30 13091 H 1224.37 0.271798 1.51989 0
M  V30 13092 H 1226.33 -2.13878 3.50381 0
M  V30 13093 H 1224.99 -2.09942 2.33631 0
M  V30 13094 H 1224.18 -1.81804 4.70067 0
M  V30 13095 H 1223.78 -0.388419 3.71978 0
M  V30 13096 H 1226.07 -1.91812 6.4978 0
M  V30 13097 H 1227.02 -0.502633 7.06314 0
M  V30 13098 H 1227.42 -1.27067 5.50013 0
M  V30 13099 N 1226.82 -1.56058 0.219941 0
M  V30 13100 C 1228.1 -1.90087 -0.46112 0
M  V30 13101 C 1228.48 -1.13705 -1.77861 0
M  V30 13102 O 1227.83 -0.245868 -2.27173 0
M  V30 13103 C 1228.04 -3.42786 -0.655644 0
M  V30 13104 C 1229.39 -4.13517 -0.963803 0
M  V30 13105 O 1230.41 -3.48376 -0.742488 0
M  V30 13106 O 1229.27 -5.28692 -1.38374 0
M  V30 13107 H 1226.36 -0.790311 -0.243595 0
M  V30 13108 H 1228.91 -1.67665 0.262005 0
M  V30 13109 H 1227.68 -3.90341 0.273738 0
M  V30 13110 H 1227.3 -3.70982 -1.43032 0
M  V30 13111 N 1228.3 0.053464 -1.57509 0
M  V30 13112 C 1229.25 1.06155 -2.04939 0
M  V30 13113 C 1230.22 1.37382 -0.93357 0
M  V30 13114 O 1231.4 1.48137 -1.2025 0
M  V30 13115 C 1228.54 2.36476 -2.51343 0
M  V30 13116 C 1227.66 2.1162 -3.76618 0
M  V30 13117 C 1226.79 3.35636 -4.11731 0
M  V30 13118 C 1225.83 3.06226 -5.29993 0
M  V30 13119 N 1224.97 4.22623 -5.60655 0
M  V30 13120 H 1229.81 0.650122 -2.90822 0
M  V30 13121 H 1227.34 0.309421 -1.43809 0
M  V30 13122 H 1229.3 3.12588 -2.76306 0
M  V30 13123 H 1227.93 2.75386 -1.68411 0
M  V30 13124 H 1226.98 1.26116 -3.58886 0
M  V30 13125 H 1228.3 1.85909 -4.6286 0
M  V30 13126 H 1227.45 4.20132 -4.37692 0
M  V30 13127 H 1226.19 3.64439 -3.24092 0
M  V30 13128 H 1225.19 2.20128 -5.03809 0
M  V30 13129 H 1226.42 2.78726 -6.19265 0
M  V30 13130 H 1224.37 4.51424 -4.75976 0
M  V30 13131 H 1224.28 4.0025 -6.41355 0
M  V30 13132 H 1225.55 5.08063 -5.91178 0
M  V30 13133 N 1229.78 1.54207 0.325255 0
M  V30 13134 C 1231.06 1.6298 1.08153 0
M  V30 13135 C 1231.44 0.462583 2.05969 0
M  V30 13136 O 1230.78 -0.543323 2.21947 0
M  V30 13137 C 1230.99 2.999 1.78497 0
M  V30 13138 C 1232.34 3.55888 2.3158 0
M  V30 13139 O 1233.37 3.02194 1.88566 0
M  V30 13140 O 1232.23 4.49847 3.10322 0
M  V30 13141 H 1229.32 0.659923 0.498429 0
M  V30 13142 H 1231.87 1.66553 0.325282 0
M  V30 13143 H 1230.64 3.7629 1.07338 0
M  V30 13144 H 1230.26 2.99997 2.60936 0
M  V30 13145 N 1231.26 -0.58723 1.46251 0
M  V30 13146 C 1232.17 -1.72455 1.59048 0
M  V30 13147 C 1233.18 -1.67416 0.47413 0
M  V30 13148 O 1234.36 -1.87406 0.737633 0
M  V30 13149 C 1231.42 -3.08953 1.57318 0
M  V30 13150 C 1230.49 -3.25291 2.80151 0
M  V30 13151 C 1229.72 -4.55277 2.78493 0
M  V30 13152 O 1229.94 -5.38883 1.8698 0
M  V30 13153 O 1228.88 -4.74765 3.69975 0
M  V30 13154 H 1232.7 -1.64606 2.55223 0
M  V30 13155 H 1230.29 -0.753742 1.28993 0
M  V30 13156 H 1232.17 -3.90239 1.59033 0
M  V30 13157 H 1230.84 -3.17249 0.643025 0
M  V30 13158 H 1229.75 -2.43515 2.83991 0
M  V30 13159 H 1231.08 -3.21883 3.7236 0
M  V30 13160 N 1232.74 -1.33881 -0.831482 0
M  V30 13161 C 1233.7 -1.24654 -1.92339 0
M  V30 13162 C 1234.7 -0.163788 -1.59964 0
M  V30 13163 O 1235.89 -0.415829 -1.69164 0
M  V30 13164 C 1233.02 -0.922537 -3.2818 0
M  V30 13165 H 1234.21 -2.21717 -2.01944 0
M  V30 13166 H 1231.77 -1.18046 -1.02445 0
M  V30 13167 H 1232.5 0.0452872 -3.24268 0
M  V30 13168 H 1232.29 -1.70562 -3.53059 0
M  V30 13169 H 1233.78 -0.88292 -4.0816 0
M  V30 13170 N 1234.21 1.05064 -1.1747 0
M  V30 13171 C 1235.62 1.59547 -0.969628 0
M  V30 13172 C 1235.98 1.90153 0.483332 0
M  V30 13173 O 1235.1 1.68415 1.35887 0
M  V30 13174 C 1235.7 2.89877 -1.75377 0
M  V30 13175 C 1234.25 3.41013 -1.59332 0
M  V30 13176 C 1233.4 2.1473 -1.7546 0
M  V30 13177 H 1236.35 0.878595 -1.3216 0
M  V30 13178 H 1236.37 3.59834 -1.23691 0
M  V30 13179 H 1235.89 2.67569 -2.8112 0
M  V30 13180 H 1233.99 3.68355 -0.560827 0
M  V30 13181 H 1234.1 4.15512 -2.38509 0
M  V30 13182 H 1232.46 2.25553 -1.18313 0
M  V30 13183 H 1233.25 1.9489 -2.82618 0
M  V30 13184 N 1235.69 0.975146 1.23809 0
M  V30 13185 C 1236.94 0.641124 1.92083 0
M  V30 13186 C 1237.27 -0.824671 1.76152 0
M  V30 13187 O 1236.52 -1.6097 1.11298 0
M  V30 13188 C 1236.82 0.971016 3.43956 0
M  V30 13189 C 1236.49 2.42616 3.80063 0
M  V30 13190 C 1235.15 2.82386 3.8963 0
M  V30 13191 C 1237.5 3.37019 3.97577 0
M  V30 13192 C 1234.83 4.15585 4.14133 0
M  V30 13193 C 1237.18 4.69855 4.23579 0
M  V30 13194 C 1235.84 5.09391 4.31366 0
M  V30 13195 H 1235.11 0.234604 0.702881 0
M  V30 13196 H 1237.76 1.22803 1.46941 0
M  V30 13197 H 1236.07 0.301965 3.90635 0
M  V30 13198 H 1237.76 0.690858 3.95004 0
M  V30 13199 H 1234.35 2.10782 3.73187 0
M  V30 13200 H 1238.54 3.07474 3.89581 0
M  V30 13201 H 1233.79 4.45831 4.18383 0
M  V30 13202 H 1237.97 5.42966 4.36074 0
M  V30 13203 H 1235.59 6.12624 4.50106 0
M  V30 13204 N 1237.17 -1.38817 0.746158 0
M  V30 13205 C 1238.59 -1.53894 0.42294 0
M  V30 13206 C 1238.79 -1.71064 -1.06486 0
M  V30 13207 O 1237.84 -1.71744 -1.85095 0
M  V30 13208 C 1239.15 -2.75029 1.2157 0
M  V30 13209 C 1240.7 -2.88873 1.20504 0
M  V30 13210 C 1241.18 -4.1296 1.9806 0
M  V30 13211 N 1242.67 -4.20022 1.95283 0
M  V30 13212 C 1243.4 -5.15011 2.52093 0
M  V30 13213 N 1242.9 -6.1572 3.17586 0
M  V30 13214 N 1244.69 -5.07308 2.42064 0
M  V30 13215 H 1236.84 -1.25921 1.71049 0
M  V30 13216 H 1239.11 -0.611148 0.724708 0
M  V30 13217 H 1238.81 -2.68722 2.26895 0
M  V30 13218 H 1238.69 -3.68009 0.827593 0
M  V30 13219 H 1241.07 -2.94667 0.159877 0
M  V30 13220 H 1241.15 -1.96925 1.63261 0
M  V30 13221 H 1240.8 -4.07929 3.02583 0
M  V30 13222 H 1240.73 -5.03974 1.52702 0
M  V30 13223 H 1243.22 -3.47892 1.4758 0
M  V30 13224 H 1243.53 -6.84682 3.58373 0
M  V30 13225 H 1241.88 -6.16075 3.21678 0
M  V30 13226 H 1245.07 -4.27569 1.90532 0
M  V30 13227 H 1245.24 -5.81158 2.86635 0
M  V30 13228 N 1238.65 -0.49465 -1.49636 0
M  V30 13229 C 1239.58 0.323781 -2.26902 0
M  V30 13230 C 1240.59 0.936281 -1.33183 0
M  V30 13231 O 1241.78 0.820695 -1.58514 0
M  V30 13232 C 1238.88 1.47025 -3.05347 0
M  V30 13233 C 1238.05 0.966228 -4.26594 0
M  V30 13234 C 1237.11 1.98955 -4.87138 0
M  V30 13235 O 1236.14 1.56065 -5.47387 0
M  V30 13236 N 1237.34 3.3195 -4.76224 0
M  V30 13237 H 1240.11 -0.338716 -2.9778 0
M  V30 13238 H 1237.67 -0.326817 -1.58567 0
M  V30 13239 H 1239.66 2.15225 -3.42725 0
M  V30 13240 H 1238.23 2.03702 -2.37117 0
M  V30 13241 H 1237.45 0.109336 -3.94048 0
M  V30 13242 H 1238.74 0.607781 -5.05157 0
M  V30 13243 H 1238.14 3.69488 -4.28363 0
M  V30 13244 H 1236.69 3.95881 -5.17805 0
M  V30 13245 N 1240.13 1.55939 -0.228214 0
M  V30 13246 C 1241.37 1.98476 0.401677 0
M  V30 13247 C 1241.7 1.116 1.59297 0
M  V30 13248 O 1240.96 0.162465 1.95024 0
M  V30 13249 C 1241.25 3.46581 0.872732 0
M  V30 13250 C 1240.92 4.50416 -0.208767 0
M  V30 13251 C 1239.58 4.78534 -0.505847 0
M  V30 13252 C 1241.93 5.12656 -0.939852 0
M  V30 13253 C 1239.26 5.66171 -1.53841 0
M  V30 13254 C 1241.61 6.01412 -1.9618 0
M  V30 13255 C 1240.28 6.2787 -2.26573 0
M  V30 13256 H 1239.55 0.726276 0.146984 0
M  V30 13257 H 1242.2 1.88598 -0.332128 0
M  V30 13258 H 1240.5 3.53696 1.68541 0
M  V30 13259 H 1242.2 3.76869 1.37006 0
M  V30 13260 H 1238.79 4.28587 0.0329308 0
M  V30 13261 H 1242.97 4.90997 -0.723581 0
M  V30 13262 H 1238.23 5.84933 -1.77944 0
M  V30 13263 H 1242.4 6.48688 -2.53332 0
M  V30 13264 H 1240.03 6.95574 -3.06725 0
M  V30 13265 N 1241.6 -0.0451101 1.57535 0
M  V30 13266 C 1242.51 -1.06796 2.08882 0
M  V30 13267 C 1243.53 -1.40682 1.02394 0
M  V30 13268 O 1244.71 -1.50324 1.34033 0
M  V30 13269 C 1241.77 -2.35467 2.54472 0
M  V30 13270 C 1240.83 -2.0831 3.75374 0
M  V30 13271 C 1240.07 -3.30846 4.1878 0
M  V30 13272 O 1240.29 -4.40945 3.61834 0
M  V30 13273 O 1239.22 -3.17488 5.11356 0
M  V30 13274 H 1243.05 -0.661658 2.96405 0
M  V30 13275 H 1240.63 -0.26104 1.47102 0
M  V30 13276 H 1242.52 -3.11143 2.84198 0
M  V30 13277 H 1241.19 -2.75425 1.70068 0
M  V30 13278 H 1240.1 -1.30254 3.50692 0
M  V30 13279 H 1241.43 -1.73218 4.60713 0
M  V30 13280 N 1243.08 -1.54377 -0.317073 0
M  V30 13281 C 1244.03 -1.84214 -1.39046 0
M  V30 13282 C 1245 -0.689742 -1.51102 0
M  V30 13283 O 1246.18 -0.936809 -1.66218 0
M  V30 13284 C 1243.32 -2.08087 -2.75307 0
M  V30 13285 C 1242.44 -3.35756 -2.7183 0
M  V30 13286 C 1241.57 -3.49556 -3.9998 0
M  V30 13287 C 1240.61 -4.71076 -3.90837 0
M  V30 13288 N 1239.75 -4.81767 -5.10729 0
M  V30 13289 H 1244.59 -2.75785 -1.12902 0
M  V30 13290 H 1242.13 -1.36575 -0.546404 0
M  V30 13291 H 1244.08 -2.19921 -3.54529 0
M  V30 13292 H 1242.71 -1.19801 -2.99746 0
M  V30 13293 H 1241.77 -3.32627 -1.84563 0
M  V30 13294 H 1243.08 -4.2509 -2.60959 0
M  V30 13295 H 1242.23 -3.60967 -4.87635 0
M  V30 13296 H 1240.97 -2.58326 -4.13665 0
M  V30 13297 H 1239.98 -4.59715 -3.01566 0
M  V30 13298 H 1241.2 -5.63698 -3.78711 0
M  V30 13299 H 1239.15 -3.93455 -5.24908 0
M  V30 13300 H 1239.06 -5.65077 -5.02219 0
M  V30 13301 H 1240.33 -4.97517 -6.00081 0
M  V30 13302 N 1244.56 0.579466 -1.4656 0
M  V30 13303 C 1245.51 1.68829 -1.5737 0
M  V30 13304 C 1246.48 1.60759 -0.417825 0
M  V30 13305 O 1247.66 1.79923 -0.635001 0
M  V30 13306 C 1244.8 3.07166 -1.573 0
M  V30 13307 C 1243.92 3.25837 -2.83645 0
M  V30 13308 C 1243.05 4.54441 -2.75057 0
M  V30 13309 C 1242.09 4.66467 -3.96327 0
M  V30 13310 N 1241.23 5.86401 -3.86107 0
M  V30 13311 H 1246.07 1.58928 -2.52083 0
M  V30 13312 H 1243.6 0.774526 -1.25058 0
M  V30 13313 H 1245.56 3.8724 -1.55245 0
M  V30 13314 H 1244.19 3.15956 -0.661166 0
M  V30 13315 H 1243.24 2.39345 -2.95666 0
M  V30 13316 H 1244.56 3.30591 -3.73512 0
M  V30 13317 H 1243.71 5.42748 -2.71126 0
M  V30 13318 H 1242.45 4.52131 -1.82836 0
M  V30 13319 H 1241.45 3.76577 -4.00587 0
M  V30 13320 H 1242.68 4.70554 -4.89649 0
M  V30 13321 H 1240.62 5.85082 -2.96673 0
M  V30 13322 H 1240.54 5.92437 -4.69632 0
M  V30 13323 H 1241.81 6.7713 -3.86155 0
M  V30 13324 N 1246.04 1.3432 0.824371 0
M  V30 13325 C 1247.27 1.29481 1.60992 0
M  V30 13326 C 1247.68 -0.133581 1.88728 0
M  V30 13327 O 1247.02 -1.09065 1.4782 0
M  V30 13328 C 1247.08 2.01604 2.97651 0
M  V30 13329 C 1246.75 3.50866 2.92817 0
M  V30 13330 C 1247.74 4.458 2.67504 0
M  V30 13331 C 1245.43 3.93258 3.12495 0
M  V30 13332 C 1247.42 5.81101 2.61918 0
M  V30 13333 C 1245.11 5.28659 3.06533 0
M  V30 13334 C 1246.11 6.22392 2.81278 0
M  V30 13335 O 1245.79 7.55311 2.75246 0
M  V30 13336 H 1245.53 0.446931 0.507177 0
M  V30 13337 H 1248.08 1.77484 1.03386 0
M  V30 13338 H 1246.31 1.48212 3.5717 0
M  V30 13339 H 1248 1.90073 3.58646 0
M  V30 13340 H 1248.77 4.1437 2.52037 0
M  V30 13341 H 1244.64 3.20699 3.31169 0
M  V30 13342 H 1248.19 6.54233 2.42125 0
M  V30 13343 H 1244.09 5.59709 3.21553 0
M  V30 13344 H 1244.85 7.6503 2.90984 0
M  V30 13345 N 1247.52 -1.0444 1.18026 0
M  V30 13346 C 1248.43 -2.15862 0.918747 0
M  V30 13347 C 1249.44 -1.73614 -0.115808 0
M  V30 13348 O 1250.62 -2.01294 0.0652312 0
M  V30 13349 C 1247.68 -3.43846 0.443922 0
M  V30 13350 C 1246.74 -4.00497 1.54599 0
M  V30 13351 C 1245.98 -5.22373 1.09372 0
M  V30 13352 O 1246.2 -5.70379 -0.049085 0
M  V30 13353 O 1245.13 -5.71459 1.88992 0
M  V30 13354 H 1248.96 -2.40776 1.85097 0
M  V30 13355 H 1246.55 -1.14326 0.961769 0
M  V30 13356 H 1248.43 -4.20985 0.187017 0
M  V30 13357 H 1247.1 -3.20414 -0.460051 0
M  V30 13358 H 1246.01 -3.24764 1.85686 0
M  V30 13359 H 1247.34 -4.28262 2.42595 0
M  V30 13360 N 1248.99 -0.981699 -1.2329 0
M  V30 13361 C 1250.41 -0.690539 -1.43888 0
M  V30 13362 C 1250.61 0.742816 -1.87309 0
M  V30 13363 O 1249.67 1.5151 -2.01993 0
M  V30 13364 C 1250.98 -1.68657 -2.48948 0
M  V30 13365 C 1252.53 -1.70076 -2.62761 0
M  V30 13366 C 1253 -2.68513 -3.71032 0
M  V30 13367 N 1254.49 -2.67039 -3.78476 0
M  V30 13368 C 1255.23 -3.39874 -4.61815 0
M  V30 13369 N 1254.72 -4.22273 -5.49233 0
M  V30 13370 N 1256.52 -3.28633 -4.56023 0
M  V30 13371 H 1248.67 -1.90758 -0.934077 0
M  V30 13372 H 1250.93 -0.822058 -0.472149 0
M  V30 13373 H 1250.64 -2.7117 -2.23964 0
M  V30 13374 H 1250.51 -1.47045 -3.47358 0
M  V30 13375 H 1252.9 -0.682673 -2.87095 0
M  V30 13376 H 1252.98 -1.95754 -1.64663 0
M  V30 13377 H 1252.62 -3.70464 -3.47446 0
M  V30 13378 H 1252.55 -2.40109 -4.68674 0
M  V30 13379 H 1255.04 -2.07241 -3.16006 0
M  V30 13380 H 1255.36 -4.74702 -6.09818 0
M  V30 13381 H 1253.7 -4.26364 -5.48852 0
M  V30 13382 H 1256.89 -2.6371 -3.86749 0
M  V30 13383 H 1257.07 -3.85656 -5.20743 0
M  V30 13384 N 1250.47 1.3842 -0.753509 0
M  V30 13385 C 1251.4 2.33073 -0.141198 0
M  V30 13386 C 1252.38 1.54863 0.70367 0
M  V30 13387 O 1253.57 1.8318 0.644872 0
M  V30 13388 C 1250.7 3.39043 0.752802 0
M  V30 13389 C 1249.65 4.27999 0.0106692 0
M  V30 13390 C 1248.98 5.24824 1.02291 0
M  V30 13391 C 1250.28 5.09308 -1.15768 0
M  V30 13392 H 1251.97 2.84528 -0.93188 0
M  V30 13393 H 1249.52 1.36802 -0.449567 0
M  V30 13394 H 1251.47 4.04224 1.19083 0
M  V30 13395 H 1250.2 2.8607 1.57581 0
M  V30 13396 H 1248.85 3.64323 -0.407939 0
M  V30 13397 H 1248.5 4.68139 1.83998 0
M  V30 13398 H 1248.2 5.85196 0.53101 0
M  V30 13399 H 1249.73 5.92882 1.46026 0
M  V30 13400 H 1251.14 5.6773 -0.797203 0
M  V30 13401 H 1249.54 5.78914 -1.58044 0
M  V30 13402 H 1250.61 4.43051 -1.97062 0
M  V30 13403 N 1251.95 0.502579 1.49372 0
M  V30 13404 C 1253.18 -0.0403087 2.07361 0
M  V30 13405 C 1253.6 -1.29918 1.36026 0
M  V30 13406 O 1252.96 -1.76428 0.417488 0
M  V30 13407 C 1253.01 -0.275362 3.59547 0
M  V30 13408 O 1252.11 -1.34975 3.89686 0
M  V30 13409 H 1251.45 0.0269268 0.663454 0
M  V30 13410 H 1253.98 0.702652 1.92156 0
M  V30 13411 H 1253.99 -0.506392 4.04845 0
M  V30 13412 H 1252.67 0.644382 4.10878 0
M  V30 13413 H 1251.24 -1.10355 3.56197 0
M  V30 13414 N 1253.43 -1.55816 0.23648 0
M  V30 13415 C 1254.66 -2.03083 -0.395584 0
M  V30 13416 C 1255.07 -1.11599 -1.52286 0
M  V30 13417 O 1254.43 -0.128403 -1.82048 0
M  V30 13418 C 1254.48 -3.49776 -0.913197 0
M  V30 13419 O 1254.2 -4.37773 0.169151 0
M  V30 13420 C 1255.7 -4.12756 -1.617 0
M  V30 13421 H 1252.92 -0.66421 -0.0952146 0
M  V30 13422 H 1255.47 -2.01354 0.357299 0
M  V30 13423 H 1253.62 -3.52072 -1.6163 0
M  V30 13424 H 1254.03 -5.24029 -0.222217 0
M  V30 13425 H 1255.51 -5.17123 -1.93101 0
M  V30 13426 H 1255.99 -3.58631 -2.53537 0
M  V30 13427 H 1256.59 -4.14353 -0.958736 0
M  V30 13428 N 1254.91 0.036755 -1.57557 0
M  V30 13429 C 1256.15 0.727665 -1.88546 0
M  V30 13430 C 1256.48 1.76304 -0.833179 0
M  V30 13431 O 1255.75 1.9544 0.13414 0
M  V30 13432 H 1254.33 0.271744 -0.695819 0
M  V30 13433 H 1256.99 0.00452915 -1.94899 0
M  V30 13434 H 1256.08 1.22205 -2.8718 0
M  V30 13435 N 1256.39 1.54543 0.308881 0
M  V30 13436 C 1257.8 1.45581 0.654088 0
M  V30 13437 C 1258 0.640597 1.91046 0
M  V30 13438 O 1257.06 0.14518 2.52082 0
M  V30 13439 C 1258.37 2.89461 0.814422 0
M  V30 13440 C 1259.92 2.99455 0.910817 0
M  V30 13441 C 1260.39 4.44515 1.10321 0
M  V30 13442 N 1261.88 4.4819 1.1696 0
M  V30 13443 C 1262.62 5.57604 1.33661 0
M  V30 13444 N 1262.12 6.76957 1.47311 0
M  V30 13445 N 1263.91 5.45278 1.36487 0
M  V30 13446 H 1256.06 2.06019 -0.516699 0
M  V30 13447 H 1258.32 0.932729 -0.169471 0
M  V30 13448 H 1258.03 3.5168 -0.0377455 0
M  V30 13449 H 1257.9 3.36425 1.70582 0
M  V30 13450 H 1260.29 2.37355 1.75348 0
M  V30 13451 H 1260.37 2.558 -0.00443172 0
M  V30 13452 H 1260.01 5.07206 0.265346 0
M  V30 13453 H 1259.94 4.85793 2.03256 0
M  V30 13454 H 1262.44 3.62199 1.07796 0
M  V30 13455 H 1262.75 7.561 1.59788 0
M  V30 13456 H 1261.09 6.79837 1.44382 0
M  V30 13457 H 1264.28 4.50983 1.25429 0
M  V30 13458 H 1264.46 6.30599 1.4916 0
M  V30 13459 N 1257.86 -0.571685 1.46866 0
M  V30 13460 C 1259.11 -1.32685 1.52444 0
M  V30 13461 C 1259.43 -1.94147 0.182225 0
M  V30 13462 O 1258.7 -1.79159 -0.792385 0
M  V30 13463 H 1257.28 -0.492679 0.561495 0
M  V30 13464 H 1259.94 -0.668694 1.8307 0
M  V30 13465 H 1259.04 -2.12788 2.28315 0
M  V30 13466 N 1259.34 -1.34755 -0.817236 0
M  V30 13467 C 1260.57 -1.30333 -1.60303 0
M  V30 13468 C 1260.98 0.12357 -1.88796 0
M  V30 13469 O 1260.32 1.08279 -1.48396 0
M  V30 13470 C 1260.38 -2.03179 -2.96578 0
M  V30 13471 C 1260.05 -3.52414 -2.90952 0
M  V30 13472 C 1261.05 -4.47213 -2.65136 0
M  V30 13473 C 1258.73 -3.9491 -3.10405 0
M  V30 13474 C 1260.72 -5.82481 -2.58832 0
M  V30 13475 C 1258.41 -5.30277 -3.03726 0
M  V30 13476 C 1259.41 -6.23875 -2.77973 0
M  V30 13477 O 1259.1 -7.5676 -2.71237 0
M  V30 13478 H 1258.83 -0.449615 -0.5048 0
M  V30 13479 H 1261.38 -1.7803 -1.02443 0
M  V30 13480 H 1259.61 -1.50104 -3.56379 0
M  V30 13481 H 1261.3 -1.91972 -3.57633 0
M  V30 13482 H 1262.07 -4.157 -2.49836 0
M  V30 13483 H 1257.95 -3.22451 -3.29464 0
M  V30 13484 H 1261.49 -6.55508 -2.38652 0
M  V30 13485 H 1257.39 -5.61406 -3.1858 0
M  V30 13486 H 1258.16 -7.66562 -2.86923 0
M  V30 13487 N 1260.82 1.03812 -1.18578 0
M  V30 13488 C 1262.07 1.77319 -0.984173 0
M  V30 13489 C 1262.4 1.88052 0.484789 0
M  V30 13490 O 1261.67 1.3905 1.35998 0
M  V30 13491 C 1261.96 3.20448 -1.6427 0
M  V30 13492 C 1261.81 3.17643 -3.1847 0
M  V30 13493 C 1263.13 4.18623 -1.35805 0
M  V30 13494 H 1260.25 0.643681 -0.358949 0
M  V30 13495 H 1262.89 1.21249 -1.46283 0
M  V30 13496 H 1261.04 3.68324 -1.23572 0
M  V30 13497 H 1262.71 2.77738 -3.6832 0
M  V30 13498 H 1260.95 2.55606 -3.50497 0
M  V30 13499 H 1261.63 4.18724 -3.59686 0
M  V30 13500 H 1264.1 3.79306 -1.71073 0
M  V30 13501 H 1262.98 5.16982 -1.84446 0
M  V30 13502 H 1263.24 4.41203 -0.281418 0
M  V30 13503 N 1262.3 0.988223 1.22768 0
M  V30 13504 C 1263.52 0.679426 1.95955 0
M  V30 13505 C 1263.95 -0.748483 1.72567 0
M  V30 13506 O 1263.31 -1.51097 1.00197 0
M  V30 13507 C 1263.35 0.985284 3.46878 0
M  V30 13508 O 1262.46 0.0814607 4.1232 0
M  V30 13509 H 1261.8 0.254749 0.613188 0
M  V30 13510 H 1264.33 1.32393 1.55991 0
M  V30 13511 H 1264.34 0.925198 3.97371 0
M  V30 13512 H 1263.01 2.02581 3.63227 0
M  V30 13513 H 1261.59 0.196629 3.72381 0
M  V30 13514 N 1263.78 -1.38018 0.760839 0
M  V30 13515 C 1264.71 -2.2899 0.0980916 0
M  V30 13516 C 1265.72 -1.48102 -0.675985 0
M  V30 13517 O 1266.91 -1.70883 -0.515878 0
M  V30 13518 C 1264.01 -3.27142 -0.884959 0
M  V30 13519 C 1263.18 -4.37081 -0.167 0
M  V30 13520 C 1262.24 -5.15375 -1.06184 0
M  V30 13521 O 1261.27 -5.6673 -0.529667 0
M  V30 13522 N 1262.47 -5.29052 -2.38924 0
M  V30 13523 H 1265.23 -2.86508 0.879403 0
M  V30 13524 H 1262.8 -1.49877 0.612245 0
M  V30 13525 H 1264.79 -3.764 -1.48678 0
M  V30 13526 H 1263.36 -2.70471 -1.5673 0
M  V30 13527 H 1262.58 -3.89363 0.615617 0
M  V30 13528 H 1263.87 -5.07732 0.329525 0
M  V30 13529 H 1263.26 -4.88892 -2.84607 0
M  V30 13530 H 1261.82 -5.81658 -2.94139 0
M  V30 13531 N 1265.25 -0.510493 -1.49103 0
M  V30 13532 C 1266.2 0.262848 -2.29298 0
M  V30 13533 C 1267.17 0.951714 -1.36131 0
M  V30 13534 O 1268.36 0.956534 -1.65091 0
M  V30 13535 C 1265.5 1.31565 -3.19037 0
M  V30 13536 C 1264.61 0.637598 -4.27269 0
M  V30 13537 C 1263.74 1.67165 -5.04212 0
M  V30 13538 C 1262.78 0.975992 -6.04269 0
M  V30 13539 N 1261.92 1.95468 -6.74342 0
M  V30 13540 H 1266.76 -0.427246 -2.94921 0
M  V30 13541 H 1264.3 -0.222538 -1.45407 0
M  V30 13542 H 1266.25 1.93813 -3.69449 0
M  V30 13543 H 1264.88 1.97438 -2.55379 0
M  V30 13544 H 1263.94 -0.0983863 -3.80273 0
M  V30 13545 H 1265.25 0.0904435 -4.98718 0
M  V30 13546 H 1264.4 2.36893 -5.5854 0
M  V30 13547 H 1263.14 2.25267 -4.32557 0
M  V30 13548 H 1262.15 0.264534 -5.49163 0
M  V30 13549 H 1263.37 0.40134 -6.77913 0
M  V30 13550 H 1261.32 2.52515 -6.05452 0
M  V30 13551 H 1261.23 1.45845 -7.41799 0
M  V30 13552 H 1262.5 2.64455 -7.33269 0
M  V30 13553 N 1266.73 1.55688 -0.24474 0
M  V30 13554 C 1268.15 1.59219 0.110159 0
M  V30 13555 C 1268.35 1.26187 1.57096 0
M  V30 13556 O 1267.4 1.00815 2.31501 0
M  V30 13557 C 1268.72 2.99764 -0.237075 0
M  V30 13558 C 1270.26 3.12475 -0.181198 0
M  V30 13559 C 1270.74 4.55236 -0.502435 0
M  V30 13560 N 1272.23 4.60981 -0.452855 0
M  V30 13561 C 1272.97 5.69418 -0.674605 0
M  V30 13562 N 1272.46 6.86125 -0.959366 0
M  V30 13563 N 1274.25 5.5883 -0.605459 0
M  V30 13564 H 1266.41 1.7543 -1.19741 0
M  V30 13565 H 1268.67 0.816537 -0.481634 0
M  V30 13566 H 1268.37 3.28666 -1.25185 0
M  V30 13567 H 1268.25 3.74662 0.436859 0
M  V30 13568 H 1270.64 2.83355 0.824248 0
M  V30 13569 H 1270.72 2.39857 -0.888952 0
M  V30 13570 H 1270.36 4.85077 -1.50543 0
M  V30 13571 H 1270.29 5.26111 0.226773 0
M  V30 13572 H 1272.78 3.77128 -0.241401 0
M  V30 13573 H 1273.09 7.64699 -1.11605 0
M  V30 13574 H 1271.44 6.87814 -0.996816 0
M  V30 13575 H 1274.63 4.6653 -0.383053 0
M  V30 13576 H 1274.8 6.43268 -0.781673 0
M  V30 13577 N 1268.21 -0.0283989 1.57574 0
M  V30 13578 C 1269.16 -1.02881 2.06601 0
M  V30 13579 C 1270.13 -1.35879 0.955308 0
M  V30 13580 O 1271.31 -1.46205 1.22592 0
M  V30 13581 C 1268.45 -2.32447 2.55073 0
M  V30 13582 C 1267.56 -2.05602 3.79937 0
M  V30 13583 C 1266.7 -3.29043 4.17018 0
M  V30 13584 C 1265.74 -2.97755 5.34797 0
M  V30 13585 N 1264.88 -4.1365 5.67308 0
M  V30 13586 H 1269.72 -0.603772 2.91819 0
M  V30 13587 H 1267.25 -0.286503 1.44283 0
M  V30 13588 H 1269.21 -3.08152 2.81244 0
M  V30 13589 H 1267.84 -2.72672 1.72771 0
M  V30 13590 H 1266.89 -1.2039 3.60847 0
M  V30 13591 H 1268.2 -1.78522 4.65759 0
M  V30 13592 H 1267.36 -4.13115 4.4432 0
M  V30 13593 H 1266.1 -3.59237 3.29849 0
M  V30 13594 H 1265.1 -2.12085 5.07247 0
M  V30 13595 H 1266.33 -2.68839 6.23621 0
M  V30 13596 H 1264.27 -4.43794 4.83097 0
M  V30 13597 H 1264.19 -3.89996 6.47641 0
M  V30 13598 H 1265.46 -4.98594 5.99186 0
M  V30 13599 N 1269.69 -1.54705 -0.300681 0
M  V30 13600 C 1270.6 -1.88736 -1.39341 0
M  V30 13601 C 1271.61 -0.78155 -1.5546 0
M  V30 13602 O 1272.79 -1.07804 -1.70118 0
M  V30 13603 C 1269.85 -2.12795 -2.73713 0
M  V30 13604 C 1268.92 -3.36504 -2.66577 0
M  V30 13605 C 1268.15 -3.59407 -3.94541 0
M  V30 13606 O 1268.37 -2.85315 -4.93914 0
M  V30 13607 O 1267.31 -4.52923 -3.96415 0
M  V30 13608 H 1271.13 -2.817 -1.13484 0
M  V30 13609 H 1268.72 -1.40899 -0.496771 0
M  V30 13610 H 1270.6 -2.29819 -3.53215 0
M  V30 13611 H 1269.27 -1.23017 -2.99414 0
M  V30 13612 H 1268.18 -3.24844 -1.85546 0
M  V30 13613 H 1269.51 -4.26414 -2.45829 0
M  V30 13614 N 1271.17 0.563888 -1.47167 0
M  V30 13615 C 1272.39 1.35176 -1.57297 0
M  V30 13616 C 1272.82 1.86794 -0.221235 0
M  V30 13617 O 1272.17 1.62606 0.801809 0
M  V30 13618 C 1272.22 2.50225 -2.59654 0
M  V30 13619 O 1271.33 3.5225 -2.14461 0
M  V30 13620 H 1270.67 0.401795 -0.528637 0
M  V30 13621 H 1273.2 0.682137 -1.92894 0
M  V30 13622 H 1273.21 2.96886 -2.79862 0
M  V30 13623 H 1271.88 2.1201 -3.57805 0
M  V30 13624 H 1270.46 3.1194 -2.04323 0
M  V30 13625 N 1272.64 1.35187 0.810078 0
M  V30 13626 C 1273.89 1.28454 1.56931 0
M  V30 13627 C 1274.22 -0.141747 1.93682 0
M  V30 13628 O 1273.5 -1.09028 1.61069 0
M  V30 13629 C 1273.78 2.18771 2.86027 0
M  V30 13630 C 1273.63 3.69999 2.55774 0
M  V30 13631 C 1274.95 2.08265 3.87703 0
M  V30 13632 H 1272.07 0.467959 0.569371 0
M  V30 13633 H 1274.71 1.65556 0.932262 0
M  V30 13634 H 1272.86 1.8726 3.40391 0
M  V30 13635 H 1274.54 4.11936 2.07621 0
M  V30 13636 H 1272.78 3.90453 1.89021 0
M  V30 13637 H 1273.45 4.28577 3.47888 0
M  V30 13638 H 1275.93 2.35958 3.42729 0
M  V30 13639 H 1274.8 2.73663 4.75815 0
M  V30 13640 H 1275.06 1.06352 4.29117 0
M  V30 13641 N 1274.12 -1.03182 1.19127 0
M  V30 13642 C 1275.05 -2.13301 0.94999 0
M  V30 13643 C 1276.03 -1.69707 -0.115577 0
M  V30 13644 O 1277.22 -1.94161 0.0388395 0
M  V30 13645 C 1274.35 -3.43902 0.484637 0
M  V30 13646 C 1273.3 -4.01164 1.4917 0
M  V30 13647 C 1272.63 -5.2735 0.883537 0
M  V30 13648 C 1273.93 -4.36311 2.87107 0
M  V30 13649 H 1275.62 -2.33743 1.87095 0
M  V30 13650 H 1273.17 -1.12332 0.900977 0
M  V30 13651 H 1275.12 -4.20308 0.30315 0
M  V30 13652 H 1273.85 -3.23173 -0.471909 0
M  V30 13653 H 1272.5 -3.26849 1.66028 0
M  V30 13654 H 1272.15 -5.02936 -0.0804712 0
M  V30 13655 H 1271.85 -5.66624 1.55599 0
M  V30 13656 H 1273.38 -6.06425 0.71278 0
M  V30 13657 H 1274.79 -5.03666 2.73848 0
M  V30 13658 H 1273.19 -4.86659 3.51117 0
M  V30 13659 H 1274.26 -3.45743 3.39985 0
M  V30 13660 N 1275.6 -0.99472 -1.22242 0
M  V30 13661 C 1276.56 -0.551619 -2.22463 0
M  V30 13662 C 1277.56 0.366498 -1.56568 0
M  V30 13663 O 1278.75 0.158204 -1.7348 0
M  V30 13664 C 1275.89 0.197416 -3.40328 0
M  V30 13665 H 1277.08 -1.43795 -2.63179 0
M  V30 13666 H 1274.63 -0.782121 -1.35324 0
M  V30 13667 H 1275.37 1.09965 -3.05087 0
M  V30 13668 H 1275.15 -0.461829 -3.89371 0
M  V30 13669 H 1276.64 0.495534 -4.1465 0
M  V30 13670 N 1277.08 1.37613 -0.768148 0
M  V30 13671 C 1278.33 1.99384 -0.330187 0
M  V30 13672 C 1278.65 1.61283 1.09604 0
M  V30 13673 O 1277.92 0.876551 1.75195 0
M  V30 13674 H 1276.5 0.737445 -0.119095 0
M  V30 13675 H 1279.16 1.6815 -0.985476 0
M  V30 13676 H 1278.26 3.09462 -0.40494 0
M  V30 13677 N 1278.56 0.518393 1.4883 0
M  V30 13678 C 1279.8 -0.0180482 2.04392 0
M  V30 13679 C 1280.16 -1.32666 1.38794 0
M  V30 13680 O 1281.36 -1.94842 1.85176 0
M  V30 13681 C 1279.63 -0.149457 3.57087 0
M  V30 13682 S 1281.19 -0.637636 4.34142 0
M  V30 13683 H 1278.01 0.00651981 0.71097 0
M  V30 13684 H 1280.61 0.69632 1.82679 0
M  V30 13685 H 1279.32 0.807977 4.02368 0
M  V30 13686 H 1278.85 -0.888549 3.83234 0
M  V30 13687 H 1280.86 -1.90406 4.58214 0
M  V30 13688 N 1280.03 -1.55556 0.252993 0
M  V30 13689 C 1280.94 -2.25283 -0.654581 0
M  V30 13690 C 1281.96 -1.27103 -1.18831 0
M  V30 13691 O 1283.14 -1.59993 -1.22329 0
M  V30 13692 C 1280.2 -2.94336 -1.83214 0
M  V30 13693 C 1279.26 -4.0794 -1.33728 0
M  V30 13694 C 1278.5 -4.73691 -2.45871 0
M  V30 13695 O 1278.72 -4.38545 -3.64738 0
M  V30 13696 O 1277.65 -5.62083 -2.15283 0
M  V30 13697 H 1281.48 -3.03565 -0.0904091 0
M  V30 13698 H 1279.06 -1.49385 0.0212535 0
M  V30 13699 H 1280.95 -3.37808 -2.5192 0
M  V30 13700 H 1279.62 -2.18989 -2.38381 0
M  V30 13701 H 1278.53 -3.68971 -0.617323 0
M  V30 13702 H 1279.86 -4.85124 -0.831617 0
M  V30 13703 N 1281.51 0.0200419 -1.57587 0
M  V30 13704 C 1282.76 0.709027 -1.89681 0
M  V30 13705 C 1283.09 1.74876 -0.851396 0
M  V30 13706 O 1282.34 1.95151 0.146483 0
M  V30 13707 C 1282.64 1.40729 -3.28527 0
M  V30 13708 C 1282.31 0.502686 -4.48089 0
M  V30 13709 C 1280.97 0.253558 -4.80532 0
M  V30 13710 C 1283.32 -0.121338 -5.21059 0
M  V30 13711 C 1280.65 -0.628221 -5.83327 0
M  V30 13712 C 1283 -0.990873 -6.24792 0
M  V30 13713 C 1281.67 -1.24937 -6.55703 0
M  V30 13714 H 1280.94 0.259451 -0.694094 0
M  V30 13715 H 1283.58 -0.03118 -1.91475 0
M  V30 13716 H 1281.89 2.22105 -3.22764 0
M  V30 13717 H 1283.58 1.94609 -3.50611 0
M  V30 13718 H 1280.17 0.707018 -4.22728 0
M  V30 13719 H 1284.36 0.0581516 -4.96266 0
M  V30 13720 H 1279.61 -0.836712 -6.05648 0
M  V30 13721 H 1283.79 -1.48087 -6.80473 0
M  V30 13722 H 1281.42 -1.93436 -7.35178 0
M  V30 13723 N 1282.99 1.54862 0.292472 0
M  V30 13724 C 1284.4 1.65459 0.864891 0
M  V30 13725 C 1284.75 0.568808 1.87774 0
M  V30 13726 O 1283.88 -0.293107 2.14406 0
M  V30 13727 C 1284.47 2.99939 1.5755 0
M  V30 13728 C 1283.03 3.12628 2.09621 0
M  V30 13729 C 1282.18 2.61179 0.931713 0
M  V30 13730 H 1285.13 1.58549 0.0692679 0
M  V30 13731 H 1285.15 2.91839 2.44152 0
M  V30 13732 H 1284.66 3.78943 0.838088 0
M  V30 13733 H 1282.76 2.3836 2.86383 0
M  V30 13734 H 1282.88 4.18911 2.32488 0
M  V30 13735 H 1281.24 2.17846 1.31967 0
M  V30 13736 H 1282.02 3.42669 0.208121 0
M  V30 13737 N 1284.47 -0.556076 1.47464 0
M  V30 13738 C 1285.4 -1.67275 1.62915 0
M  V30 13739 C 1286.38 -1.63229 0.478562 0
M  V30 13740 O 1287.56 -1.80833 0.708032 0
M  V30 13741 C 1284.69 -3.05911 1.64426 0
M  V30 13742 C 1283.65 -3.24804 2.78722 0
M  V30 13743 C 1282.97 -4.64238 2.65307 0
M  V30 13744 C 1284.27 -3.10071 4.20302 0
M  V30 13745 H 1285.97 -1.54601 2.56396 0
M  V30 13746 H 1283.51 -0.742337 1.23391 0
M  V30 13747 H 1285.47 -3.83878 1.73826 0
M  V30 13748 H 1284.19 -3.19547 0.675053 0
M  V30 13749 H 1282.85 -2.49246 2.68835 0
M  V30 13750 H 1282.5 -4.74675 1.66412 0
M  V30 13751 H 1282.2 -4.77828 3.41986 0
M  V30 13752 H 1283.72 -5.44339 2.76637 0
M  V30 13753 H 1285.14 -3.77855 4.3116 0
M  V30 13754 H 1283.53 -3.3517 4.97776 0
M  V30 13755 H 1284.6 -2.06803 4.38589 0
M  V30 13756 N 1285.95 -1.35615 -0.802897 0
M  V30 13757 C 1286.9 -1.25378 -1.90432 0
M  V30 13758 C 1287.88 -0.148217 -1.60216 0
M  V30 13759 O 1289.07 -0.379783 -1.72878 0
M  V30 13760 C 1286.2 -1.03172 -3.2743 0
M  V30 13761 C 1285.29 -2.18135 -3.637 0
M  V30 13762 N 1285.68 -3.43382 -3.71379 0
M  V30 13763 C 1283.98 -2.09603 -3.93678 0
M  V30 13764 C 1284.68 -4.19004 -4.03498 0
M  V30 13765 N 1283.65 -3.47799 -4.17776 0
M  V30 13766 H 1287.46 -2.20267 -1.94576 0
M  V30 13767 H 1284.97 -1.2814 -0.997687 0
M  V30 13768 H 1286.97 -0.939264 -4.06182 0
M  V30 13769 H 1285.63 -0.0917091 -3.2457 0
M  V30 13770 H 1286.64 -3.77687 -3.54363 0
M  V30 13771 H 1283.32 -1.23479 -3.98822 0
M  V30 13772 H 1284.71 -5.27255 -4.16476 0
M  V30 13773 N 1287.43 1.02549 -1.19673 0
M  V30 13774 C 1288.36 2.10991 -0.8953 0
M  V30 13775 C 1289.37 1.62405 0.113373 0
M  V30 13776 O 1290.56 1.7812 -0.116485 0
M  V30 13777 C 1287.66 3.37394 -0.319124 0
M  V30 13778 C 1286.83 4.15154 -1.37718 0
M  V30 13779 C 1285.89 5.19867 -0.81393 0
M  V30 13780 O 1284.92 5.49285 -1.49246 0
M  V30 13781 N 1286.12 5.79248 0.381089 0
M  V30 13782 H 1288.88 2.37438 -1.82875 0
M  V30 13783 H 1286.45 1.18867 -1.09919 0
M  V30 13784 H 1288.44 4.04637 0.0716106 0
M  V30 13785 H 1287.01 3.08267 0.518681 0
M  V30 13786 H 1286.23 3.4301 -1.94262 0
M  V30 13787 H 1287.52 4.63892 -2.09003 0
M  V30 13788 H 1286.91 5.5767 0.949791 0
M  V30 13789 H 1285.47 6.47882 0.713563 0
M  V30 13790 N 1288.9 1.00119 1.21713 0
M  V30 13791 C 1289.81 0.567582 2.27631 0
M  V30 13792 C 1290.83 -0.387593 1.69628 0
M  V30 13793 O 1292.01 -0.252372 1.99813 0
M  V30 13794 C 1289.07 -0.102745 3.46548 0
M  V30 13795 C 1288.13 0.896433 4.19836 0
M  V30 13796 C 1287.36 0.258 5.33076 0
M  V30 13797 O 1287.59 -0.946118 5.62499 0
M  V30 13798 O 1286.52 0.967021 5.94081 0
M  V30 13799 H 1290.35 1.44898 2.66905 0
M  V30 13800 H 1287.93 0.769862 1.28037 0
M  V30 13801 H 1289.81 -0.477846 4.18682 0
M  V30 13802 H 1288.49 -0.958576 3.09181 0
M  V30 13803 H 1287.4 1.32262 3.49939 0
M  V30 13804 H 1288.73 1.72173 4.61104 0
M  V30 13805 N 1290.38 -1.37203 0.775435 0
M  V30 13806 C 1291.33 -2.32102 0.152051 0
M  V30 13807 C 1292.32 -1.55117 -0.680806 0
M  V30 13808 O 1293.53 -1.70486 -0.577455 0
M  V30 13809 H 1289.9 -0.751386 0.0303853 0
M  V30 13810 H 1291.88 -2.82259 0.968121 0
M  V30 13811 C 1290.62 -3.40378 -0.709788 0
M  V30 13812 H 1289.95 -3.99723 -0.0782879 0
M  V30 13813 H 1291.39 -4.09134 -1.11288 0
M  V30 13814 C 1289.85 -2.80769 -1.862 0
M  V30 13815 O 1290.38 -2.71813 -2.95771 0
M  V30 13816 N 1288.58 -2.38259 -1.66376 0
M  V30 13817 H 1288.13 -2.45743 -0.772531 0
M  V30 13818 H 1288.09 -1.98721 -2.43634 0
M  V30 13819 N 1291.86 -0.526279 -1.48553 0
M  V30 13820 C 1293.08 0.00731432 -2.07399 0
M  V30 13821 C 1293.51 1.27737 -1.38075 0
M  V30 13822 O 1292.87 1.75741 -0.445503 0
M  V30 13823 C 1292.92 0.218126 -3.5994 0
M  V30 13824 O 1292.02 1.28759 -3.91784 0
M  V30 13825 H 1291.36 -0.0374784 -0.662941 0
M  V30 13826 H 1293.89 -0.733133 -1.91014 0
M  V30 13827 H 1293.9 0.44192 -4.056 0
M  V30 13828 H 1292.58 -0.709668 -4.09801 0
M  V30 13829 H 1291.15 1.04674 -3.57907 0
M  V30 13830 N 1293.34 1.5542 -0.261239 0
M  V30 13831 C 1294.25 2.25627 0.642625 0
M  V30 13832 C 1295.26 1.27732 1.18155 0
M  V30 13833 O 1296.44 1.60639 1.21479 0
M  V30 13834 C 1293.5 2.95303 1.8165 0
M  V30 13835 C 1292.57 4.08644 1.31563 0
M  V30 13836 C 1291.8 4.74988 2.43355 0
M  V30 13837 O 1292.02 4.40474 3.62407 0
M  V30 13838 O 1290.96 5.63217 2.12299 0
M  V30 13839 H 1294.78 3.03609 0.0743091 0
M  V30 13840 H 1292.37 1.49372 -0.0291754 0
M  V30 13841 H 1294.25 3.3914 2.50125 0
M  V30 13842 H 1292.92 2.2025 2.37217 0
M  V30 13843 H 1291.83 3.69294 0.597746 0
M  V30 13844 H 1293.16 4.85558 0.805878 0
M  V30 13845 N 1294.82 -0.0116844 1.57596 0
M  V30 13846 C 1295.75 -1.04043 2.03102 0
M  V30 13847 C 1296.73 -1.34164 0.918622 0
M  V30 13848 O 1297.91 -1.46527 1.18584 0
M  V30 13849 C 1295.04 -2.37094 2.41876 0
M  V30 13850 C 1294.08 -2.22713 3.63732 0
M  V30 13851 S 1294.92 -1.56416 5.12147 0
M  V30 13852 C 1296.07 -2.90921 5.5418 0
M  V30 13853 H 1296.31 -0.652899 2.90042 0
M  V30 13854 H 1293.84 -0.222201 1.52793 0
M  V30 13855 H 1295.8 -3.13602 2.64885 0
M  V30 13856 H 1294.46 -2.7299 1.55356 0
M  V30 13857 H 1293.65 -3.20976 3.88575 0
M  V30 13858 H 1293.25 -1.54349 3.40665 0
M  V30 13859 H 1295.54 -3.87237 5.55926 0
M  V30 13860 H 1296.49 -2.70792 6.54276 0
M  V30 13861 H 1296.9 -2.94293 4.81717 0
M  V30 13862 N 1296.29 -1.55015 -0.284256 0
M  V30 13863 C 1297.53 -1.76836 -1.02511 0
M  V30 13864 C 1297.9 -0.551675 -1.83904 0
M  V30 13865 O 1299.1 -0.647919 -2.60874 0
M  V30 13866 C 1297.37 -3.0312 -1.89348 0
M  V30 13867 S 1298.93 -3.46013 -2.69852 0
M  V30 13868 H 1295.75 -0.621436 -0.345453 0
M  V30 13869 H 1298.35 -1.93235 -0.296708 0
M  V30 13870 H 1297.05 -3.89778 -1.28458 0
M  V30 13871 H 1296.58 -2.89355 -2.66528 0
M  V30 13872 H 1298.6 -3.044 -3.91861 0
M  V30 13873 N 1297.77 0.548248 -1.47757 0
M  V30 13874 C 1298.72 1.65453 -1.60916 0
M  V30 13875 C 1299.69 1.59836 -0.451831 0
M  V30 13876 O 1300.87 1.78536 -0.673023 0
M  V30 13877 C 1298.01 3.0376 -1.6378 0
M  V30 13878 C 1297.13 3.19747 -2.90492 0
M  V30 13879 C 1296.26 4.48505 -2.84635 0
M  V30 13880 C 1295.3 4.57956 -4.06132 0
M  V30 13881 N 1294.44 5.78079 -3.98458 0
M  V30 13882 H 1299.28 1.53545 -2.55398 0
M  V30 13883 H 1296.81 0.747826 -1.26673 0
M  V30 13884 H 1298.77 3.8386 -1.63424 0
M  V30 13885 H 1297.4 3.14483 -0.728036 0
M  V30 13886 H 1296.45 2.3302 -3.00676 0
M  V30 13887 H 1297.77 3.22594 -3.8044 0
M  V30 13888 H 1296.92 5.36875 -2.82577 0
M  V30 13889 H 1295.66 4.48151 -1.92385 0
M  V30 13890 H 1294.66 3.67995 -4.08484 0
M  V30 13891 H 1295.89 4.60062 -4.9952 0
M  V30 13892 H 1293.84 5.78657 -3.09017 0
M  V30 13893 H 1293.75 5.82342 -4.82093 0
M  V30 13894 H 1295.02 6.68786 -4.00431 0
M  V30 13895 N 1299.25 1.36039 0.795694 0
M  V30 13896 C 1300.5 1.30112 1.5556 0
M  V30 13897 C 1300.83 -0.121197 1.93821 0
M  V30 13898 O 1300.1 -1.07313 1.62216 0
M  V30 13899 C 1300.39 2.21792 2.8369 0
M  V30 13900 C 1300.24 3.72691 2.51836 0
M  V30 13901 C 1301.56 2.12365 3.85472 0
M  V30 13902 H 1298.68 0.473971 0.564376 0
M  V30 13903 H 1301.32 1.66536 0.91465 0
M  V30 13904 H 1299.47 1.9086 3.38386 0
M  V30 13905 H 1301.14 4.14115 2.0324 0
M  V30 13906 H 1299.38 3.92436 1.84869 0
M  V30 13907 H 1300.06 4.32242 3.43323 0
M  V30 13908 H 1302.53 2.3958 3.40207 0
M  V30 13909 H 1301.41 2.78695 4.72885 0
M  V30 13910 H 1301.67 1.10898 4.27965 0
M  V30 13911 N 1300.73 -1.01913 1.20215 0
M  V30 13912 C 1301.97 -1.7573 1.01226 0
M  V30 13913 C 1302.31 -1.88799 -0.45481 0
M  V30 13914 O 1301.58 -1.41196 -1.33768 0
M  V30 13915 C 1301.87 -3.17795 1.69348 0
M  V30 13916 C 1301.72 -3.12536 3.23483 0
M  V30 13917 C 1303.04 -4.16409 1.42448 0
M  V30 13918 H 1300.16 -0.637889 0.369144 0
M  V30 13919 H 1302.8 -1.18907 1.48193 0
M  V30 13920 H 1300.95 -3.66311 1.29416 0
M  V30 13921 H 1302.62 -2.71843 3.72692 0
M  V30 13922 H 1300.86 -2.49997 3.54519 0
M  V30 13923 H 1301.53 -4.12949 3.66302 0
M  V30 13924 H 1304.01 -3.76537 1.77086 0
M  V30 13925 H 1302.89 -5.13983 1.92648 0
M  V30 13926 H 1303.15 -4.407 0.351574 0
M  V30 13927 N 1302.21 -1.00763 -1.2118 0
M  V30 13928 C 1303.45 -0.691826 -1.90316 0
M  V30 13929 C 1303.78 0.777678 -1.78276 0
M  V30 13930 O 1303.04 1.57962 -1.15526 0
M  V30 13931 C 1303.34 -1.06187 -3.41261 0
M  V30 13932 C 1303 -2.52608 -3.73497 0
M  V30 13933 C 1301.66 -2.92617 -3.82006 0
M  V30 13934 C 1304.02 -3.47442 -3.88502 0
M  V30 13935 C 1301.34 -4.26419 -4.02969 0
M  V30 13936 C 1303.7 -4.8092 -4.10973 0
M  V30 13937 C 1302.36 -5.20649 -4.17709 0
M  V30 13938 H 1301.63 -0.253157 -0.696414 0
M  V30 13939 H 1304.28 -1.26655 -1.43634 0
M  V30 13940 H 1302.58 -0.405428 -3.89697 0
M  V30 13941 H 1304.28 -0.795343 -3.93033 0
M  V30 13942 H 1300.87 -2.20603 -3.67468 0
M  V30 13943 H 1305.05 -3.17695 -3.81292 0
M  V30 13944 H 1300.31 -4.56767 -4.06416 0
M  V30 13945 H 1304.48 -5.54337 -4.21525 0
M  V30 13946 H 1302.11 -6.24343 -4.33705 0
M  V30 13947 N 1303.68 1.3679 -0.7827 0
M  V30 13948 C 1304.65 2.28472 -0.182525 0
M  V30 13949 C 1305.65 1.48524 0.616217 0
M  V30 13950 O 1306.84 1.68599 0.438197 0
M  V30 13951 C 1303.97 3.32588 0.748202 0
M  V30 13952 H 1305.16 2.83059 -0.99085 0
M  V30 13953 H 1302.72 1.46241 -0.551658 0
M  V30 13954 H 1303.45 2.83145 1.58112 0
M  V30 13955 H 1303.24 3.91698 0.177481 0
M  V30 13956 H 1304.73 4.01073 1.16321 0
M  V30 13957 N 1305.16 0.53415 1.48272 0
M  V30 13958 C 1306.57 0.0947592 1.86459 0
M  V30 13959 C 1306.92 -1.32906 1.44328 0
M  V30 13960 O 1306.05 -1.99605 0.835866 0
M  V30 13961 C 1306.64 0.16519 3.38397 0
M  V30 13962 C 1305.2 -0.219029 3.75762 0
M  V30 13963 C 1304.35 0.523097 2.72321 0
M  V30 13964 H 1307.3 0.74517 1.40117 0
M  V30 13965 H 1307.32 -0.622065 3.75381 0
M  V30 13966 H 1306.83 1.20157 3.69031 0
M  V30 13967 H 1304.94 -1.2574 3.50742 0
M  V30 13968 H 1305.05 0.123482 4.78941 0
M  V30 13969 H 1303.41 -0.0311323 2.54681 0
M  V30 13970 H 1304.2 1.56019 3.05799 0
M  V30 13971 N 1306.64 -1.55279 0.269478 0
M  V30 13972 C 1307.57 -2.19684 -0.653573 0
M  V30 13973 C 1308.59 -1.17985 -1.12176 0
M  V30 13974 O 1309.77 -1.44739 -1.04464 0
M  V30 13975 C 1306.87 -2.80438 -1.90284 0
M  V30 13976 C 1306.05 -4.07774 -1.58239 0
M  V30 13977 C 1305.11 -4.52629 -2.68354 0
M  V30 13978 O 1304.13 -5.18524 -2.3478 0
M  V30 13979 N 1305.33 -4.22297 -3.98303 0
M  V30 13980 H 1308.1 -2.99525 -0.102379 0
M  V30 13981 H 1305.66 -1.61648 0.0903465 0
M  V30 13982 H 1307.65 -3.07392 -2.63234 0
M  V30 13983 H 1306.22 -2.04622 -2.36323 0
M  V30 13984 H 1305.44 -3.88168 -0.686983 0
M  V30 13985 H 1306.73 -4.90749 -1.34323 0
M  V30 13986 H 1306.13 -3.69441 -4.28404 0
M  V30 13987 H 1304.69 -4.54035 -4.67649 0
M  V30 13988 N 1308.12 0.00332656 -1.576 0
M  V30 13989 C 1309.53 0.546581 -1.7852 0
M  V30 13990 C 1309.88 1.74147 -0.903722 0
M  V30 13991 O 1309.01 2.16144 -0.105314 0
M  V30 13992 C 1309.6 0.998344 -3.23757 0
M  V30 13993 C 1308.16 1.48693 -3.45785 0
M  V30 13994 C 1307.31 0.436617 -2.73841 0
M  V30 13995 H 1310.26 -0.222852 -1.57128 0
M  V30 13996 H 1310.28 1.86452 -3.31686 0
M  V30 13997 H 1309.79 0.128479 -3.87887 0
M  V30 13998 H 1307.89 2.3778 -2.86865 0
M  V30 13999 H 1308 1.51668 -4.5446 0
M  V30 14000 H 1306.37 0.897506 -2.38363 0
M  V30 14001 H 1307.15 -0.424225 -3.40669 0
M  V30 14002 N 1309.6 1.55164 0.276031 0
M  V30 14003 C 1310.87 1.66338 1.02913 0
M  V30 14004 C 1311.25 0.527876 2.04393 0
M  V30 14005 O 1310.6 -0.472437 2.23563 0
M  V30 14006 C 1310.81 3.05427 1.68865 0
M  V30 14007 C 1312.16 3.63075 2.2014 0
M  V30 14008 O 1313.18 3.0804 1.78857 0
M  V30 14009 O 1312.04 4.59492 2.95854 0
M  V30 14010 H 1309.14 0.675446 0.477181 0
M  V30 14011 H 1311.68 1.67504 0.272129 0
M  V30 14012 H 1310.45 3.79514 0.953125 0
M  V30 14013 H 1310.08 3.08147 2.5126 0
M  V30 14014 N 1311.07 -0.540404 1.48045 0
M  V30 14015 C 1312.3 -1.32656 1.59427 0
M  V30 14016 C 1312.72 -1.86419 0.250924 0
M  V30 14017 O 1312.08 -1.63861 -0.775838 0
M  V30 14018 C 1312.13 -2.46062 2.63602 0
M  V30 14019 O 1311.23 -3.48794 2.20038 0
M  V30 14020 H 1310.58 -0.393334 0.534962 0
M  V30 14021 H 1313.11 -0.651363 1.93955 0
M  V30 14022 H 1313.12 -2.92396 2.84549 0
M  V30 14023 H 1311.79 -2.06291 3.61133 0
M  V30 14024 H 1310.37 -3.0865 2.0926 0
M  V30 14025 N 1312.55 -1.36459 -0.788468 0
M  V30 14026 C 1313.78 -1.33898 -1.57731 0
M  V30 14027 C 1314.2 0.0795471 -1.88632 0
M  V30 14028 O 1313.55 1.03671 -1.50195 0
M  V30 14029 C 1313.6 -2.16134 -2.89773 0
M  V30 14030 O 1313.32 -3.52457 -2.60203 0
M  V30 14031 C 1314.83 -2.21364 -3.84074 0
M  V30 14032 H 1312.05 -0.459269 -0.489197 0
M  V30 14033 H 1314.59 -1.79569 -0.978526 0
M  V30 14034 H 1312.74 -1.74015 -3.46118 0
M  V30 14035 H 1313.16 -3.95378 -3.4464 0
M  V30 14036 H 1314.63 -2.83261 -4.7378 0
M  V30 14037 H 1315.11 -1.21736 -4.21992 0
M  V30 14038 H 1315.72 -2.63723 -3.33662 0
M  V30 14039 N 1314.03 1.01274 -1.20754 0
M  V30 14040 C 1315.26 1.7906 -1.04653 0
M  V30 14041 C 1315.68 1.83806 0.399632 0
M  V30 14042 O 1315.04 1.27596 1.28798 0
M  V30 14043 C 1315.09 3.21187 -1.63925 0
M  V30 14044 O 1314.19 4.02913 -0.879486 0
M  V30 14045 H 1313.53 0.552147 -0.368823 0
M  V30 14046 H 1316.06 1.27356 -1.6013 0
M  V30 14047 H 1316.07 3.71887 -1.67822 0
M  V30 14048 H 1314.75 3.17048 -2.69172 0
M  V30 14049 H 1313.32 3.61499 -0.915019 0
M  V30 14050 N 1315.51 1.01404 1.20644 0
M  V30 14051 C 1316.73 0.720839 1.9447 0
M  V30 14052 C 1317.16 -0.711711 1.74116 0
M  V30 14053 O 1316.52 -1.48938 1.03379 0
M  V30 14054 C 1316.57 1.05864 3.4471 0
M  V30 14055 O 1315.67 0.168901 4.12054 0
M  V30 14056 H 1315.01 0.267698 0.607646 0
M  V30 14057 H 1317.54 1.35672 1.53147 0
M  V30 14058 H 1317.55 1.00928 3.9532 0
M  V30 14059 H 1316.23 2.1024 3.58848 0
M  V30 14060 H 1314.8 0.275572 3.7188 0
M  V30 14061 N 1316.99 -1.36373 0.789944 0
M  V30 14062 C 1318.24 -1.98834 0.361866 0
M  V30 14063 C 1318.56 -1.63006 -1.07024 0
M  V30 14064 O 1317.83 -0.904312 -1.73779 0
M  V30 14065 H 1316.41 -0.735457 0.130812 0
M  V30 14066 H 1319.07 -1.66561 1.0121 0
M  V30 14067 H 1318.16 -3.08778 0.454122 0
M  V30 14068 N 1318.47 -0.542005 -1.47987 0
M  V30 14069 C 1319.71 -0.0205021 -2.0339 0
M  V30 14070 C 1320.07 1.30854 -1.41049 0
M  V30 14071 O 1319.36 1.83496 -0.551328 0
M  V30 14072 C 1319.55 0.146208 -3.57101 0
M  V30 14073 C 1319.38 -1.16513 -4.34344 0
M  V30 14074 C 1318.15 -1.72829 -4.74824 0
M  V30 14075 C 1320.35 -2.07869 -4.7042 0
M  V30 14076 N 1318.33 -2.98126 -5.36651 0
M  V30 14077 C 1319.7 -3.17743 -5.3239 0
M  V30 14078 C 1321.76 -2.08049 -4.5235 0
M  V30 14079 C 1320.46 -4.27876 -5.78199 0
M  V30 14080 C 1322.49 -3.17184 -4.99147 0
M  V30 14081 C 1321.85 -4.25777 -5.61153 0
M  V30 14082 H 1317.95 -0.0492957 -0.780445 0
M  V30 14083 H 1320.53 -0.725941 -1.8066 0
M  V30 14084 H 1318.7 0.820747 -3.79629 0
M  V30 14085 H 1320.44 0.668402 -3.99142 0
M  V30 14086 H 1317.19 -1.26817 -4.56305 0
M  V30 14087 H 1317.61 -3.6195 -5.7212 0
M  V30 14088 H 1322.26 -1.25382 -4.03781 0
M  V30 14089 H 1319.97 -5.11313 -6.25767 0
M  V30 14090 H 1323.56 -3.18392 -4.86947 0
M  V30 14091 H 1322.44 -5.08833 -5.96707 0
M  V30 14092 N 1319.94 1.55134 -0.277709 0
M  V30 14093 C 1321.19 1.99654 0.33833 0
M  V30 14094 C 1321.52 1.16612 1.55666 0
M  V30 14095 O 1320.77 0.224428 1.94409 0
M  V30 14096 C 1321.07 3.49182 0.762028 0
M  V30 14097 C 1320.74 4.49524 -0.351958 0
M  V30 14098 C 1319.4 4.76682 -0.657833 0
M  V30 14099 C 1321.75 5.09406 -1.10247 0
M  V30 14100 C 1319.08 5.6099 -1.71776 0
M  V30 14101 C 1321.43 5.94866 -2.15214 0
M  V30 14102 C 1320.1 6.20344 -2.46434 0
M  V30 14103 H 1319.37 0.730584 0.123804 0
M  V30 14104 H 1322.01 1.87446 -0.391961 0
M  V30 14105 H 1320.32 3.58879 1.57204 0
M  V30 14106 H 1322.02 3.81037 1.24947 0
M  V30 14107 H 1318.61 4.28475 -0.103438 0
M  V30 14108 H 1322.79 4.88446 -0.879422 0
M  V30 14109 H 1318.05 5.78975 -1.96463 0
M  V30 14110 H 1322.22 6.403 -2.73842 0
M  V30 14111 H 1319.85 6.85464 -3.28699 0
M  V30 14112 O 1321.46 0.143437 1.60862 0
M  V30 14113 H 1322.15 -0.451144 1.88373 0
M  V30 END ATOM
M  V30 BEGIN BOND
M  V30 END BOND
M  V30 END CTAB
M  END
$$$$
