444036
  -OEChem-10051719183D

 65 68  0     1  0  0  0  0  0999 V2000
    3.8475    1.8240   -0.4353 S   0  0  0  0  0  0  0  0  0  0  0  0
   -1.7514   -0.1851   -1.1343 F   0  0  0  0  0  0  0  0  0  0  0  0
   -4.3163   -2.4558    1.5275 F   0  0  0  0  0  0  0  0  0  0  0  0
    5.7211    3.6098   -0.6495 F   0  0  0  0  0  0  0  0  0  0  0  0
    2.5939   -0.7630   -0.9157 O   0  0  0  0  0  0  0  0  0  0  0  0
   -0.9311    2.7513    0.7621 O   0  0  0  0  0  0  0  0  0  0  0  0
    4.5702    0.1591    1.4840 O   0  0  0  0  0  0  0  0  0  0  0  0
    4.7875   -1.4342   -0.6684 O   0  0  0  0  0  0  0  0  0  0  0  0
   -6.4872   -0.2207   -2.2598 O   0  0  0  0  0  0  0  0  0  0  0  0
    1.1565    0.4089    0.7372 C   0  0  1  0  0  0  0  0  0  0  0  0
    0.1813   -0.7844    0.8335 C   0  0  2  0  0  0  0  0  0  0  0  0
   -1.2645   -0.3771    1.1610 C   0  0  1  0  0  0  0  0  0  0  0  0
   -1.7969    0.5685    0.0305 C   0  0  1  0  0  0  0  0  0  0  0  0
    2.4749   -0.3708    0.4462 C   0  0  1  0  0  0  0  0  0  0  0  0
    0.9005   -1.7662    1.7580 C   0  0  0  0  0  0  0  0  0  0  0  0
    0.6538    1.3309   -0.3931 C   0  0  0  0  0  0  0  0  0  0  0  0
    2.4054   -1.5860    1.4213 C   0  0  1  0  0  0  0  0  0  0  0  0
   -0.8249    1.7563   -0.2458 C   0  0  2  0  0  0  0  0  0  0  0  0
   -3.3201    0.9403    0.2264 C   0  0  1  0  0  0  0  0  0  0  0  0
   -2.1507   -1.6267    1.3004 C   0  0  0  0  0  0  0  0  0  0  0  0
    1.2811    1.2062    2.0641 C   0  0  0  0  0  0  0  0  0  0  0  0
   -3.6207   -1.2815    1.4915 C   0  0  1  0  0  0  0  0  0  0  0  0
   -4.0976   -0.3742    0.3848 C   0  0  0  0  0  0  0  0  0  0  0  0
    3.0317   -2.8722    0.8907 C   0  0  0  0  0  0  0  0  0  0  0  0
    3.7202    0.4378    0.6469 C   0  0  0  0  0  0  0  0  0  0  0  0
   -3.5964    1.8144    1.4709 C   0  0  0  0  0  0  0  0  0  0  0  0
   -3.8207    1.7364   -0.9703 C   0  0  0  0  0  0  0  0  0  0  0  0
   -5.1098   -0.7387   -0.4181 C   0  0  0  0  0  0  0  0  0  0  0  0
   -4.8262    1.3756   -1.7731 C   0  0  0  0  0  0  0  0  0  0  0  0
    3.7023   -1.5048   -1.2289 C   0  0  0  0  0  0  0  0  0  0  0  0
   -5.5515    0.1137   -1.5410 C   0  0  0  0  0  0  0  0  0  0  0  0
    3.3742   -2.4281   -2.3787 C   0  0  0  0  0  0  0  0  0  0  0  0
    5.4256    2.5151    0.1011 C   0  0  0  0  0  0  0  0  0  0  0  0
    3.6383   -1.7790   -3.7261 C   0  0  0  0  0  0  0  0  0  0  0  0
    0.1462   -1.2791   -0.1514 H   0  0  0  0  0  0  0  0  0  0  0  0
   -1.2876    0.1488    2.1207 H   0  0  0  0  0  0  0  0  0  0  0  0
    0.7161   -1.5208    2.8105 H   0  0  0  0  0  0  0  0  0  0  0  0
    0.5554   -2.7929    1.5960 H   0  0  0  0  0  0  0  0  0  0  0  0
    0.7565    0.8275   -1.3621 H   0  0  0  0  0  0  0  0  0  0  0  0
    1.2369    2.2534   -0.4373 H   0  0  0  0  0  0  0  0  0  0  0  0
    2.9033   -1.3556    2.3724 H   0  0  0  0  0  0  0  0  0  0  0  0
   -1.0947    2.2250   -1.2003 H   0  0  0  0  0  0  0  0  0  0  0  0
   -1.8228   -2.2341    2.1527 H   0  0  0  0  0  0  0  0  0  0  0  0
   -2.0429   -2.2720    0.4180 H   0  0  0  0  0  0  0  0  0  0  0  0
    1.7642    0.6303    2.8596 H   0  0  0  0  0  0  0  0  0  0  0  0
    1.8756    2.1154    1.9248 H   0  0  0  0  0  0  0  0  0  0  0  0
    0.3148    1.5223    2.4624 H   0  0  0  0  0  0  0  0  0  0  0  0
   -3.7765   -0.8014    2.4630 H   0  0  0  0  0  0  0  0  0  0  0  0
    2.5614   -3.2545   -0.0163 H   0  0  0  0  0  0  0  0  0  0  0  0
    4.1208   -2.8583    0.8546 H   0  0  0  0  0  0  0  0  0  0  0  0
    2.8273   -3.6593    1.6322 H   0  0  0  0  0  0  0  0  0  0  0  0
   -4.6669    1.8220    1.7161 H   0  0  0  0  0  0  0  0  0  0  0  0
   -3.0689    1.4588    2.3608 H   0  0  0  0  0  0  0  0  0  0  0  0
   -3.3172    2.8623    1.3218 H   0  0  0  0  0  0  0  0  0  0  0  0
   -3.3395    2.6898   -1.1770 H   0  0  0  0  0  0  0  0  0  0  0  0
   -1.4385    3.4929    0.3910 H   0  0  0  0  0  0  0  0  0  0  0  0
   -5.6359   -1.6782   -0.2881 H   0  0  0  0  0  0  0  0  0  0  0  0
   -5.1388    2.0004   -2.6016 H   0  0  0  0  0  0  0  0  0  0  0  0
    3.9809   -3.3337   -2.2669 H   0  0  0  0  0  0  0  0  0  0  0  0
    2.3274   -2.7446   -2.3084 H   0  0  0  0  0  0  0  0  0  0  0  0
    6.2322    1.7893   -0.0313 H   0  0  0  0  0  0  0  0  0  0  0  0
    5.3769    2.8267    1.1476 H   0  0  0  0  0  0  0  0  0  0  0  0
    4.6865   -1.4750   -3.8135 H   0  0  0  0  0  0  0  0  0  0  0  0
    3.4112   -2.4758   -4.5385 H   0  0  0  0  0  0  0  0  0  0  0  0
    3.0210   -0.8839   -3.8553 H   0  0  0  0  0  0  0  0  0  0  0  0
  1 25  1  0  0  0  0
  1 33  1  0  0  0  0
  2 13  1  0  0  0  0
  3 22  1  0  0  0  0
  4 33  1  0  0  0  0
  5 14  1  0  0  0  0
  5 30  1  0  0  0  0
  6 18  1  0  0  0  0
  6 56  1  0  0  0  0
  7 25  2  0  0  0  0
  8 30  2  0  0  0  0
  9 31  2  0  0  0  0
 10 11  1  0  0  0  0
 10 14  1  0  0  0  0
 10 16  1  0  0  0  0
 10 21  1  0  0  0  0
 11 12  1  0  0  0  0
 11 15  1  0  0  0  0
 11 35  1  0  0  0  0
 12 13  1  0  0  0  0
 12 20  1  0  0  0  0
 12 36  1  0  0  0  0
 13 18  1  0  0  0  0
 13 19  1  0  0  0  0
 14 17  1  0  0  0  0
 14 25  1  0  0  0  0
 15 17  1  0  0  0  0
 15 37  1  0  0  0  0
 15 38  1  0  0  0  0
 16 18  1  0  0  0  0
 16 39  1  0  0  0  0
 16 40  1  0  0  0  0
 17 24  1  0  0  0  0
 17 41  1  0  0  0  0
 18 42  1  0  0  0  0
 19 23  1  0  0  0  0
 19 26  1  0  0  0  0
 19 27  1  0  0  0  0
 20 22  1  0  0  0  0
 20 43  1  0  0  0  0
 20 44  1  0  0  0  0
 21 45  1  0  0  0  0
 21 46  1  0  0  0  0
 21 47  1  0  0  0  0
 22 23  1  0  0  0  0
 22 48  1  0  0  0  0
 23 28  2  0  0  0  0
 24 49  1  0  0  0  0
 24 50  1  0  0  0  0
 24 51  1  0  0  0  0
 26 52  1  0  0  0  0
 26 53  1  0  0  0  0
 26 54  1  0  0  0  0
 27 29  2  0  0  0  0
 27 55  1  0  0  0  0
 28 31  1  0  0  0  0
 28 57  1  0  0  0  0
 29 31  1  0  0  0  0
 29 58  1  0  0  0  0
 30 32  1  0  0  0  0
 32 34  1  0  0  0  0
 32 59  1  0  0  0  0
 32 60  1  0  0  0  0
 33 61  1  0  0  0  0
 33 62  1  0  0  0  0
 34 63  1  0  0  0  0
 34 64  1  0  0  0  0
 34 65  1  0  0  0  0
M  END
> <DATABASE_ID>
DB00588

> <DATABASE_NAME>
drugbank

> <ORIGINAL_SOURCE>
PUBCHEM

> <ORIGINAL_SOURCE_URL>
https://pubchem.ncbi.nlm.nih.gov/rest/pug/compound/inchikey/WMWTYOKRWGGJOA-CENSZEJFSA-N/SDF?record_type=3d

> <SMILES>
[H][C@@]12C[C@@H](C)[C@](OC(=O)CC)(C(=O)SCF)[C@@]1(C)C[C@H](O)[C@@]1(F)[C@@]2([H])C[C@H](F)C2=CC(=O)C=C[C@]12C

> <INCHI_IDENTIFIER>
InChI=1S/C25H31F3O5S/c1-5-20(31)33-25(21(32)34-12-26)13(2)8-15-16-10-18(27)17-9-14(29)6-7-22(17,3)24(16,28)19(30)11-23(15,25)4/h6-7,9,13,15-16,18-19,30H,5,8,10-12H2,1-4H3/t13-,15+,16+,18+,19+,22+,23+,24+,25+/m1/s1

> <INCHI_KEY>
WMWTYOKRWGGJOA-CENSZEJFSA-N

> <FORMULA>
C25H31F3O5S

> <MOLECULAR_WEIGHT>
500.571

> <EXACT_MASS>
500.184429407

> <JCHEM_ACCEPTOR_COUNT>
4

> <JCHEM_AVERAGE_POLARIZABILITY>
49.26021838399893

> <JCHEM_BIOAVAILABILITY>
1

> <JCHEM_DONOR_COUNT>
1

> <JCHEM_FORMAL_CHARGE>
0

> <JCHEM_GHOSE_FILTER>
0

> <JCHEM_IUPAC>
(1R,2S,8S,10S,11S,13R,14R,15S,17S)-1,8-difluoro-14-{[(fluoromethyl)sulfanyl]carbonyl}-17-hydroxy-2,13,15-trimethyl-5-oxotetracyclo[8.7.0.0²,⁷.0¹¹,¹⁵]heptadeca-3,6-dien-14-yl propanoate

> <ALOGPS_LOGP>
3.69

> <JCHEM_LOGP>
3.718004615666666

> <ALOGPS_LOGS>
-4.64

> <JCHEM_MDDR_LIKE_RULE>
1

> <JCHEM_NUMBER_OF_RINGS>
4

> <JCHEM_PHYSIOLOGICAL_CHARGE>
0

> <JCHEM_PKA>
14.483973324710846

> <JCHEM_PKA_STRONGEST_ACIDIC>
13.557201621074185

> <JCHEM_PKA_STRONGEST_BASIC>
-3.3935457180970356

> <JCHEM_POLAR_SURFACE_AREA>
80.67

> <JCHEM_REFRACTIVITY>
121.65029999999997

> <JCHEM_ROTATABLE_BOND_COUNT>
6

> <JCHEM_RULE_OF_FIVE>
0

> <ALOGPS_SOLUBILITY>
1.14e-02 g/l

> <JCHEM_TRADITIONAL_IUPAC>
fluticasone propionate

> <JCHEM_VEBER_RULE>
0

> <DRUGBANK_ID>
DB00588

> <SECONDARY_ACCESSION_NUMBERS>
APRD00065

> <DRUG_GROUPS>
approved

> <GENERIC_NAME>
Fluticasone propionate

> <SYNONYMS>
Fluticasone propionate

> <PRODUCTS>
24 Hour Allergy Nasal; 24 Hour Allergy Relief Nasal; 24 Hour Allergy Relief nasal; 24hr Nasal Allergy Relief; Advair 100 Diskus; Advair 125; Advair 250; Advair 250 Diskus; Advair 500 Diskus; Advair Diskus; Advair HFA; Advairdiskus Diskus; Aermony Respiclick; AirDuo Digihaler; AirDuo RespiClick; Airexar Spiromax; Allergy Nasal; Allergy Relief; Allergy Relief Nasal; Allergy Relief Nasal Spray; Apo-fluticasone; Arbesda Respiclick; ArmonAir Digihaler; ArmonAir RespiClick; Azelastine Hydrochloride and Fluticasone Propionate; Azelastine hydrochloride and Fluticasone propionate; Basic Care Allergy Relief Nasal; Berkley and Jensen Allergy Relief; Beser; CareOne Allergy Relief; Careone Childrens Allergy Relief; Careone Fluticasone Propionate; Cenovia; Childrens 24 Hour Allergy Relief Nasal; Childrens 24 hour allergy nasal; Childrens Flonase Allergy Relief; Childrens Nasopro; ClariSpray Nasal Allergy; Core Values Allergy Relief; Cutivate; DG Health Allergy Relief; DG Health Allergy Relief Nasal; DG Health childrens allergy relief nasal; Dymista; Equaline Fluticasone Propionate; Equaline fluticasone propionate; Equate Allergy Relief; Exchange Select Allergy Relief; Family Wellness Allergy Relief Nasal; Flonase; Flonase - Aem-sus Nas 50mcg/md; Flonase Aem-sus 50mcg/aem; Flonase Allergy Relief; Flonaseallergy Relief Allergy Relief; Flovent; Flovent Diskus; Flovent HFA; Flovent Inhalers - Aem Inh-orl 125mcg/aem; Flovent Inhalers - Aem Inh-orl 250mcg/aem; Flovent Inhalers - Aem Inh-orl 25mcg/aem; Flovent Inhalers - Aem Inh-orl 50mcg/aem; Flovent Inhalers-aem Inh-orl 25mcg/actuation; Flovent Inhalers-aem Inh-orl 50mcg/actuation; Flovent Inhalers-aem Inh-orl125mcg/actuation; Flovent Inhalers-aem Inh-orl250mcg/actuation; FlutiCare Nasal Alergy; Fluticasone; Fluticasone Propionate; Fluticasone Propionate 0.05% / Niacinamide 4%; Fluticasone Propionate Nasal; Fluticasone Propionate and Salmeterol; Fluticasone Propionate and Salmeterol DISKUS; Fluticasone propionate; Fluticasone propionate glucocorticoid; Good Neighbor Pharmacy Childrens Fluticasone Propionate; Good Neighbor Pharmacy Fluticasone Propionate; Good Sense 24 hour allergy nasal; Good Sense Nasoflow; Harris Teeter Allergy Relief Nasal; Health Mart Allergy Relief Nasal 24 Hr; Healthy Accents Allergy Relief; Healthy Accents Nasoflow; Kirkland Signature Aller Flo; Leader Allergy Relief Nasal; Nasal; Nasoflow; Nasopro 24; Nu-fluticasone; PMS-fluticasone; PMS-fluticasone HFA; PMS-fluticasone Propionate/salmeterol Dpi; Ratio-fluticasone; Rugby Fluticasone Propionate Nasal; ShopRite Allergy Relief Nasal; Signature Care Allergy Relief; Signature Care Childrens Allergy Relief; Smart Sense Allergy Relief; Sound Body Allergy Relief; SunMark allergy relief nasal 24 hr; Teva-fluticasone; Ticalast; Ticanase; Ticaspray; TopCare Childrens Allergy Relief Nasal 24 Hour; TopCare Nasoflow Allergy Relief; Topcare Fluticasone Propionate Nasal; Up and Up Allergy Relief Nasal; Up and Up allergy relief nasal; Validerm; Welby Allergy Relief; Welby Fluticasone; Wixela Inhub; Xhance

> <INTERNATIONAL_BRANDS>
Ezicas; Flixonase; Flixotide; FLOVENTHFA; Flunase; Nasofan; Pirinase; Seretide

$$$$