drugbank_target|P21918 D(1B) dopamine receptor (DB00246; DB00248; DB00334; DB00408; DB00477; DB00589; DB00714; DB00800; DB00988; DB01038; DB01186; DB01200; DB01224; DB01235; DB01238; DB01403; DB01624; DB05271; DB14185)
 OpenBabel12092119253D

  0  0  0     0  0            999 V3000
M  V30 BEGIN CTAB
M  V30 COUNTS 7381 7488 0 0 0
M  V30 BEGIN ATOM
M  V30 1 H -0.908 1.98254 -0.117106 0
M  V30 2 N 0 1.576 0 0
M  V30 3 C 0.933 2.03868 1.02534 0
M  V30 4 C 1.911 0.928543 1.3348 0
M  V30 5 O 3.095 1.19667 1.45644 0
M  V30 6 C 0.222 2.43627 2.35294 0
M  V30 7 C -0.732 3.65373 2.2001 0
M  V30 8 S 0.101 5.13292 1.52614 0
M  V30 9 C 1.257 5.56322 2.86805 0
M  V30 10 H 1.49 2.90518 0.631377 0
M  V30 11 H -0.977 1.52953 0.210867 0
M  V30 12 H 0.981 2.67203 3.11629 0
M  V30 13 H -0.358 1.57376 2.7183 0
M  V30 14 H -1.165 3.90944 3.18086 0
M  V30 15 H -1.563 3.418 1.51819 0
M  V30 16 H 0.729 5.58782 3.83104 0
M  V30 17 H 1.672 6.56266 2.65933 0
M  V30 18 H 2.08 4.83886 2.90714 0
M  V30 19 N 1.4781 -0.272755 1.55222 0
M  V30 20 C 2.4081 -1.34136 1.91127 0
M  V30 21 C 3.3891 -1.51513 0.773168 0
M  V30 22 O 4.5741 -1.64552 1.03132 0
M  V30 23 C 1.7041 -2.70083 2.1834 0
M  V30 24 C 0.6581 -2.67437 3.34158 0
M  V30 25 C -0.0159 -4.06938 3.46851 0
M  V30 26 C 1.2841 -2.26686 4.70543 0
M  V30 27 H 2.9781 -1.04333 2.80633 0
M  V30 28 H 0.5241 -0.500454 1.35024 0
M  V30 29 H 2.4771 -3.44952 2.42046 0
M  V30 30 H 1.2011 -3.01469 1.25634 0
M  V30 31 H -0.1399 -1.95026 3.1042 0
M  V30 32 H -0.4919 -4.35547 2.51611 0
M  V30 33 H -0.7919 -4.06062 4.2472 0
M  V30 34 H 0.7321 -4.83545 3.72849 0
M  V30 35 H 2.1461 -2.91277 4.93792 0
M  V30 36 H 0.5431 -2.36971 5.5133 0
M  V30 37 H 1.6131 -1.21818 4.69349 0
M  V30 38 N 2.9562 -1.48159 -0.537278 0
M  V30 39 C 4.3672 -1.49429 -1.11928 0
M  V30 40 C 4.7182 -0.26 -1.9447 0
M  V30 41 O 3.8432 0.633489 -2.0692 0
M  V30 42 C 4.4382 -2.70758 -2.03656 0
M  V30 43 C 2.9972 -2.74923 -2.57088 0
M  V30 44 C 2.1442 -2.42835 -1.3389 0
M  V30 45 H 5.0952 -1.55381 -0.322886 0
M  V30 46 H 5.1162 -2.48861 -2.87834 0
M  V30 47 H 4.6282 -3.60575 -1.43553 0
M  V30 48 H 2.7292 -1.89296 -3.20933 0
M  V30 49 H 2.8422 -3.76157 -2.9672 0
M  V30 50 H 1.2062 -1.93836 -1.65226 0
M  V30 51 H 1.9892 -3.34884 -0.755504 0
M  V30 52 N 4.4343 0.785586 -1.36625 0
M  V30 53 C 5.8453 1.36101 -1.27803 0
M  V30 54 C 6.1963 1.96035 0.0804875 0
M  V30 55 O 5.3213 1.92834 0.982042 0
M  V30 56 C 5.9163 2.47442 -2.31426 0
M  V30 57 C 4.4753 3.00789 -2.26281 0
M  V30 58 C 3.6223 1.73896 -2.15999 0
M  V30 59 H 6.5733 0.586928 -1.47448 0
M  V30 60 H 6.5943 3.2656 -1.95291 0
M  V30 61 H 6.1063 2.03791 -3.30289 0
M  V30 62 H 4.2073 3.48851 -1.30896 0
M  V30 63 H 4.3203 3.57343 -3.19128 0
M  V30 64 H 2.6843 1.9628 -1.62316 0
M  V30 65 H 3.4673 1.32368 -3.16755 0
M  V30 66 N 5.9124 1.20967 1.01018 0
M  V30 67 C 7.1604 1.02172 1.74371 0
M  V30 68 C 7.4814 -0.446414 1.89821 0
M  V30 69 O 6.7514 -1.32234 1.44537 0
M  V30 70 H 5.3314 0.375066 0.646014 0
M  V30 71 H 7.9934 1.52187 1.21758 0
M  V30 72 H 7.0894 1.48538 2.74487 0
M  V30 73 N 7.3905 -1.2043 1.01659 0
M  V30 74 C 8.6155 -1.94318 0.724942 0
M  V30 75 C 9.0405 -1.74266 -0.708034 0
M  V30 76 O 8.3985 -1.03694 -1.48719 0
M  V30 77 C 8.4465 -3.44486 1.06591 0
M  V30 78 O 7.5505 -4.12017 0.177599 0
M  V30 79 H 6.8915 -0.60708 0.26898 0
M  V30 80 H 9.4215 -1.52861 1.35995 0
M  V30 81 H 9.4315 -3.95106 1.01762 0
M  V30 82 H 8.1065 -3.58404 2.10997 0
M  V30 83 H 6.6835 -3.71821 0.283421 0
M  V30 84 N 8.8686 -0.792821 -1.36206 0
M  V30 85 C 9.8166 -0.181555 -2.3189 0
M  V30 86 C 10.8106 0.661025 -1.55971 0
M  V30 87 O 12.0166 0.555728 -1.71206 0
M  V30 88 H 8.3916 -0.0399382 -0.750939 0
M  V30 89 H 10.3626 -1.00394 -2.81005 0
M  V30 90 C 9.1116 0.666444 -3.41253 0
M  V30 91 H 8.4346 0.0274489 -3.99791 0
M  V30 92 H 9.8746 1.06076 -4.10517 0
M  V30 93 C 8.3336 1.82614 -2.83114 0
M  V30 94 O 8.8636 2.9229 -2.75553 0
M  V30 95 N 7.0696 1.63333 -2.40356 0
M  V30 96 H 6.6166 0.741217 -2.46706 0
M  V30 97 H 6.5746 2.41087 -2.01803 0
M  V30 98 N 10.3467 1.47872 -0.545128 0
M  V30 99 C 11.5947 2.02093 -0.016553 0
M  V30 100 C 11.9157 1.42305 1.3332 0
M  V30 101 O 11.1857 0.593853 1.86682 0
M  V30 102 H 9.7657 0.746993 -0.00313038 0
M  V30 103 H 12.4277 1.81414 -0.712397 0
M  V30 104 H 11.5237 3.11996 0.0805422 0
M  V30 105 N 11.8248 0.280983 1.55075 0
M  V30 106 C 13.0528 -0.337293 2.04132 0
M  V30 107 C 13.4678 -1.4903 1.15912 0
M  V30 108 O 12.8248 -1.81606 0.180459 0
M  V30 109 C 12.8758 -0.812706 3.52246 0
M  V30 110 O 12.5968 0.294387 4.3711 0
M  V30 111 C 14.0978 -1.4982 4.17216 0
M  V30 112 H 11.3178 -0.0761638 0.666663 0
M  V30 113 H 13.8618 0.414787 2.00249 0
M  V30 114 H 12.0168 -1.51486 3.56554 0
M  V30 115 H 12.4308 -0.0721325 5.2445 0
M  V30 116 H 13.9048 -1.7822 5.22438 0
M  V30 117 H 14.3818 -2.43168 3.65741 0
M  V30 118 H 14.9878 -0.839742 4.16927 0
M  V30 119 N 13.3029 -1.57598 0.00835791 0
M  V30 120 C 14.2659 -2.07884 -0.965242 0
M  V30 121 C 15.2659 -0.989825 -1.26725 0
M  V30 122 O 16.4559 -1.25218 -1.21104 0
M  V30 123 C 13.5879 -2.52731 -2.28779 0
M  V30 124 H 14.7809 -2.95178 -0.530112 0
M  V30 125 H 12.3339 -1.54458 -0.239283 0
M  V30 126 H 13.0689 -1.68705 -2.76964 0
M  V30 127 H 12.8539 -3.32272 -2.08177 0
M  V30 128 H 14.3439 -2.91933 -2.98605 0
M  V30 129 N 14.781 0.264519 -1.55364 0
M  V30 130 C 16.011 1.01153 -1.80143 0
M  V30 131 C 16.419 1.80115 -0.579253 0
M  V30 132 O 15.762 1.77813 0.46132 0
M  V30 133 C 15.824 2.01098 -2.97993 0
M  V30 134 C 15.488 1.40995 -4.34706 0
M  V30 135 C 16.485 0.821316 -5.13372 0
M  V30 136 C 14.17 1.43461 -4.81378 0
M  V30 137 C 16.164 0.265339 -6.36847 0
M  V30 138 C 13.851 0.874771 -6.04807 0
M  V30 139 C 14.849 0.291146 -6.82379 0
M  V30 140 O 14.537 -0.260093 -8.03479 0
M  V30 141 H 14.269 0.304125 -0.603725 0
M  V30 142 H 16.823 0.298089 -2.03225 0
M  V30 143 H 15.053 2.76224 -2.70623 0
M  V30 144 H 16.742 2.61997 -3.1002 0
M  V30 145 H 17.508 0.794903 -4.78442 0
M  V30 146 H 13.387 1.87826 -4.21002 0
M  V30 147 H 16.931 -0.190837 -6.97339 0
M  V30 148 H 12.828 0.898452 -6.39217 0
M  V30 149 H 13.596 -0.150265 -8.18362 0
M  V30 150 N 16.2591 1.48442 0.529413 0
M  V30 151 C 17.6701 1.5002 1.11134 0
M  V30 152 C 18.0211 0.27031 1.94329 0
M  V30 153 O 17.1461 -0.622507 2.07253 0
M  V30 154 C 17.7411 2.71834 2.02217 0
M  V30 155 C 16.3001 2.76283 2.55627 0
M  V30 156 C 15.4471 2.43542 1.326 0
M  V30 157 H 18.3981 1.5555 0.314641 0
M  V30 158 H 18.4191 2.50384 2.8651 0
M  V30 159 H 17.9311 3.61331 1.41639 0
M  V30 160 H 16.0321 1.90995 3.19924 0
M  V30 161 H 16.1451 3.77725 2.94721 0
M  V30 162 H 14.5091 1.94709 1.64196 0
M  V30 163 H 15.2921 3.3528 0.737734 0
M  V30 164 N 17.7372 -0.778329 1.37039 0
M  V30 165 C 18.9852 -1.53361 1.31623 0
M  V30 166 C 19.3062 -1.94739 -0.100831 0
M  V30 167 O 18.5762 -1.65797 -1.04347 0
M  V30 168 H 17.1562 -0.568794 0.484234 0
M  V30 169 H 19.8182 -0.926742 1.71457 0
M  V30 170 H 18.9142 -2.43606 1.95096 0
M  V30 171 N 19.2153 -1.21501 -1.00376 0
M  V30 172 C 20.1473 -0.933174 -2.09343 0
M  V30 173 C 21.1603 0.0840896 -1.62583 0
M  V30 174 O 22.3493 -0.148563 -1.77881 0
M  V30 175 C 19.4493 -0.379869 -3.36764 0
M  V30 176 C 18.6223 -1.45176 -4.12605 0
M  V30 177 C 17.6813 -0.907476 -5.18316 0
M  V30 178 O 16.7073 -1.5912 -5.46507 0
M  V30 179 N 17.9093 0.276649 -5.7984 0
M  V30 180 H 20.6743 -1.87124 -2.34104 0
M  V30 181 H 18.2353 -1.12043 -1.16867 0
M  V30 182 H 20.2273 -0.00131488 -4.047 0
M  V30 183 H 18.7973 0.463048 -3.09151 0
M  V30 184 H 18.0173 -2.00411 -3.39454 0
M  V30 185 H 19.3053 -2.17328 -4.6005 0
M  V30 186 H 18.7033 0.849147 -5.59291 0
M  V30 187 H 17.2603 0.596702 -6.49063 0
M  V30 188 N 20.6934 1.19889 -1.02296 0
M  V30 189 C 21.9404 1.8942 -0.715972 0
M  V30 190 C 22.2684 1.79251 0.754944 0
M  V30 191 O 21.5234 1.17526 1.56481 0
M  V30 192 C 21.8224 3.39883 -1.10518 0
M  V30 193 C 21.4884 3.70254 -2.57337 0
M  V30 194 C 20.1504 3.78254 -2.97452 0
M  V30 195 C 22.5024 3.84052 -3.52354 0
M  V30 196 C 19.8304 3.97514 -4.31509 0
M  V30 197 C 22.1824 4.04824 -4.86108 0
M  V30 198 C 20.8464 4.11054 -5.25919 0
M  V30 199 H 20.1164 0.693138 -0.261993 0
M  V30 200 H 22.7634 1.42012 -1.28472 0
M  V30 201 H 21.0684 3.8915 -0.454953 0
M  V30 202 H 22.7654 3.9199 -0.845261 0
M  V30 203 H 19.3554 3.64632 -2.25258 0
M  V30 204 H 23.5394 3.77221 -3.22518 0
M  V30 205 H 18.7954 4.00574 -4.61898 0
M  V30 206 H 22.9694 4.14442 -5.59653 0
M  V30 207 H 20.5964 4.2573 -6.29808 0
M  V30 208 N 22.1715 0.800033 1.35784 0
M  V30 209 C 23.1345 0.211565 2.28221 0
M  V30 210 C 24.1345 -0.59728 1.49296 0
M  V30 211 O 25.3245 -0.416721 1.69142 0
M  V30 212 C 22.4565 -0.705846 3.33513 0
M  V30 213 H 23.6495 1.02677 2.81776 0
M  V30 214 H 21.2025 0.570211 1.45528 0
M  V30 215 H 21.9375 -1.54498 2.85133 0
M  V30 216 H 21.7225 -0.127655 3.91892 0
M  V30 217 H 23.2125 -1.11211 4.02519 0
M  V30 218 N 23.6496 -1.47581 0.552962 0
M  V30 219 C 24.5796 -2.32762 -0.185451 0
M  V30 220 C 25.5606 -1.43527 -0.912905 0
M  V30 221 O 26.7456 -1.72388 -0.894201 0
M  V30 222 C 23.8756 -3.25219 -1.21859 0
M  V30 223 C 22.8296 -4.23661 -0.607864 0
M  V30 224 C 22.1556 -5.05413 -1.74533 0
M  V30 225 C 23.4556 -5.20481 0.435582 0
M  V30 226 H 25.1496 -2.94749 0.525684 0
M  V30 227 H 22.6956 -1.41738 0.254251 0
M  V30 228 H 24.6486 -3.8365 -1.7433 0
M  V30 229 H 23.3726 -2.61279 -1.95961 0
M  V30 230 H 22.0316 -3.66451 -0.104489 0
M  V30 231 H 21.6796 -4.3788 -2.47529 0
M  V30 232 H 21.3796 -5.72059 -1.34249 0
M  V30 233 H 22.9036 -5.66701 -2.27338 0
M  V30 234 H 24.3176 -5.733 -0.00290157 0
M  V30 235 H 22.7146 -5.95305 0.757067 0
M  V30 236 H 23.7846 -4.66217 1.33303 0
M  V30 237 N 25.1277 -0.289203 -1.54924 0
M  V30 238 C 26.3577 0.325989 -2.04012 0
M  V30 239 C 26.7657 1.48961 -1.1665 0
M  V30 240 O 26.1087 1.82794 -0.1822 0
M  V30 241 C 26.1707 0.856112 -3.49158 0
M  V30 242 C 25.8347 -0.180697 -4.56643 0
M  V30 243 C 26.8317 -1.0051 -5.10092 0
M  V30 244 C 24.5167 -0.318998 -5.01286 0
M  V30 245 C 26.5107 -1.95385 -6.06715 0
M  V30 246 C 24.1977 -1.27121 -5.97732 0
M  V30 247 C 25.1957 -2.08713 -6.50329 0
M  V30 248 O 24.8837 -3.02322 -7.44887 0
M  V30 249 H 24.6157 0.0765276 -0.671654 0
M  V30 250 H 27.1697 -0.423254 -2.00992 0
M  V30 251 H 25.3997 1.65567 -3.49463 0
M  V30 252 H 27.0887 1.38591 -3.81507 0
M  V30 253 H 27.8547 -0.90906 -4.76404 0
M  V30 254 H 23.7337 0.306108 -4.59983 0
M  V30 255 H 27.2777 -2.59111 -6.47694 0
M  V30 256 H 23.1747 -1.36801 -6.30837 0
M  V30 257 H 23.9427 -2.97165 -7.6265 0
M  V30 258 N 26.6058 1.57591 -0.0167156 0
M  V30 259 C 27.5378 2.06343 0.997753 0
M  V30 260 C 28.5508 0.984469 1.29661 0
M  V30 261 O 29.7398 1.26093 1.26344 0
M  V30 262 C 26.8398 2.46255 2.32834 0
M  V30 263 C 26.0128 3.77083 2.21646 0
M  V30 264 C 25.0718 4.0368 3.37534 0
M  V30 265 O 24.0978 4.7411 3.14973 0
M  V30 266 N 25.2998 3.52881 4.60929 0
M  V30 267 H 28.0648 2.93997 0.581875 0
M  V30 268 H 25.6258 1.61002 0.170316 0
M  V30 269 H 27.6178 2.61149 3.09166 0
M  V30 270 H 26.1878 1.64032 2.66106 0
M  V30 271 H 25.4078 3.72106 1.30119 0
M  V30 272 H 26.6958 4.62822 2.11361 0
M  V30 273 H 26.0938 2.95878 4.82154 0
M  V30 274 H 24.6508 3.73076 5.34469 0
M  V30 275 N 28.0839 -0.256276 1.55502 0
M  V30 276 C 29.0159 -1.33981 1.85962 0
M  V30 277 C 30.0289 -1.44743 0.745212 0
M  V30 278 O 31.2179 -1.4626 1.02324 0
M  V30 279 C 28.3179 -2.7194 2.02242 0
M  V30 280 C 27.4909 -2.83562 3.33033 0
M  V30 281 C 26.5499 -4.02304 3.39172 0
M  V30 282 O 25.5759 -3.92273 4.12444 0
M  V30 283 N 26.7779 -5.15045 2.67784 0
M  V30 284 H 29.5429 -1.08191 2.7949 0
M  V30 285 H 27.1039 -0.446388 1.55624 0
M  V30 286 H 29.0959 -3.49697 2.03701 0
M  V30 287 H 27.6659 -2.90479 1.15502 0
M  V30 288 H 26.8859 -1.92555 3.43971 0
M  V30 289 H 28.1739 -2.88271 4.19258 0
M  V30 290 H 27.5719 -5.26085 2.07968 0
M  V30 291 H 26.1289 -5.90972 2.74947 0
M  V30 292 N 29.562 -1.4872 -0.521534 0
M  V30 293 C 30.492 -1.66771 -1.63431 0
M  V30 294 C 31.473 -0.516499 -1.62069 0
M  V30 295 O 32.658 -0.750013 -1.79132 0
M  V30 296 C 29.788 -1.71515 -3.01993 0
M  V30 297 C 28.742 -2.86222 -3.18216 0
M  V30 298 C 28.068 -2.76061 -4.57924 0
M  V30 299 C 29.368 -4.27419 -3.00184 0
M  V30 300 H 31.062 -2.59932 -1.48579 0
M  V30 301 H 28.608 -1.25089 -0.713358 0
M  V30 302 H 30.561 -1.82731 -3.7972 0
M  V30 303 H 29.285 -0.749393 -3.17886 0
M  V30 304 H 27.944 -2.74575 -2.42908 0
M  V30 305 H 27.592 -1.77437 -4.70665 0
M  V30 306 H 27.292 -3.53037 -4.69722 0
M  V30 307 H 28.816 -2.89256 -5.37739 0
M  V30 308 H 30.23 -4.39855 -3.67697 0
M  V30 309 H 28.627 -5.05458 -3.2347 0
M  V30 310 H 29.697 -4.43293 -1.96518 0
M  V30 311 N 31.0401 0.771051 -1.3745 0
M  V30 312 C 32.0031 1.86598 -1.33093 0
M  V30 313 C 33.0031 1.59076 -0.234845 0
M  V30 314 O 34.1931 1.67145 -0.490732 0
M  V30 315 C 31.3251 3.23747 -1.06773 0
M  V30 316 H 32.5181 1.91873 -2.30488 0
M  V30 317 H 30.0711 0.970876 -1.2249 0
M  V30 318 H 30.8061 3.24148 -0.099129 0
M  V30 319 H 30.5911 3.45115 -1.86112 0
M  V30 320 H 32.0811 4.03824 -1.06377 0
M  V30 321 N 32.5182 1.22032 0.997298 0
M  V30 322 C 33.4502 0.944263 2.08845 0
M  V30 323 C 34.4632 -0.0754663 1.62625 0
M  V30 324 O 35.6522 0.157994 1.77799 0
M  V30 325 C 32.7522 0.397723 3.36558 0
M  V30 326 C 31.9252 1.47362 4.11829 0
M  V30 327 C 30.9842 0.934951 5.17827 0
M  V30 328 O 30.0102 1.62016 5.45655 0
M  V30 329 N 31.2122 -0.245895 5.79979 0
M  V30 330 H 33.9772 1.88363 2.33109 0
M  V30 331 H 31.5382 1.12661 1.16272 0
M  V30 332 H 33.5302 0.0227771 4.04694 0
M  V30 333 H 32.1002 -0.446646 3.09393 0
M  V30 334 H 31.3202 2.02208 3.38386 0
M  V30 335 H 32.6082 2.19764 4.58891 0
M  V30 336 H 32.0062 -0.819475 5.59733 0
M  V30 337 H 30.5632 -0.562272 6.4937 0
M  V30 338 N 33.9963 -1.19345 1.0293 0
M  V30 339 C 35.2443 -1.88665 0.724574 0
M  V30 340 C 35.5653 -1.80036 -0.749144 0
M  V30 341 O 34.8353 -1.2111 -1.53978 0
M  V30 342 H 33.4153 -0.698406 0.265025 0
M  V30 343 H 36.0773 -1.44885 1.30362 0
M  V30 344 H 35.1733 -2.94987 1.01926 0
M  V30 345 N 35.4744 -0.807222 -1.35358 0
M  V30 346 C 36.4224 -0.20614 -2.31685 0
M  V30 347 C 37.4164 0.644445 -1.56663 0
M  V30 348 O 38.6224 0.537538 -1.71786 0
M  V30 349 H 34.9974 -0.0479006 -0.750473 0
M  V30 350 H 36.9684 -1.03369 -2.79924 0
M  V30 351 C 35.7174 0.630212 -3.41941 0
M  V30 352 H 35.0404 -0.0149558 -3.99797 0
M  V30 353 H 36.4804 1.01716 -4.11619 0
M  V30 354 C 34.9394 1.79601 -2.85035 0
M  V30 355 O 35.4694 2.89351 -2.78637 0
M  V30 356 N 33.6754 1.60774 -2.42074 0
M  V30 357 H 33.2224 0.715009 -2.47478 0
M  V30 358 H 33.1804 2.38933 -2.04349 0
M  V30 359 N 36.9525 1.47285 -0.560781 0
M  V30 360 C 37.9155 2.28535 0.174488 0
M  V30 361 C 38.9155 1.37153 0.839388 0
M  V30 362 O 40.1055 1.59748 0.694702 0
M  V30 363 C 37.2375 3.16934 1.25561 0
M  V30 364 H 38.4305 2.95012 -0.539262 0
M  V30 365 H 35.9835 1.53034 -0.317865 0
M  V30 366 H 36.7185 2.55157 2.00164 0
M  V30 367 H 36.5035 3.8419 0.783604 0
M  V30 368 H 37.9935 3.78143 1.77193 0
M  V30 369 N 38.4306 0.297415 1.54768 0
M  V30 370 C 39.6766 -0.313376 2.00364 0
M  V30 371 C 40.0096 -1.53815 1.18553 0
M  V30 372 O 39.2846 -1.92739 0.261103 0
M  V30 373 C 39.5676 -0.673525 3.53745 0
M  V30 374 C 39.4206 0.560133 4.46299 0
M  V30 375 C 40.7396 -1.50143 4.13697 0
M  V30 376 H 37.8586 -0.112428 0.728374 0
M  V30 377 H 40.5006 0.4088 1.8555 0
M  V30 378 H 38.6506 -1.28881 3.665 0
M  V30 379 H 40.3226 1.19863 4.45455 0
M  V30 380 H 38.5656 1.19405 4.17043 0
M  V30 381 H 39.2366 0.26405 5.51368 0
M  V30 382 H 41.7126 -0.981588 4.04356 0
M  V30 383 H 40.5886 -1.72221 5.21182 0
M  V30 384 H 40.8496 -2.48952 3.65343 0
M  V30 385 N 39.9087 -1.5758 0.0250728 0
M  V30 386 C 41.1567 -1.91255 -0.653151 0
M  V30 387 C 41.4777 -0.901691 -1.729 0
M  V30 388 O 40.7477 0.0573785 -1.95816 0
M  V30 389 H 39.3277 -0.705942 -0.244243 0
M  V30 390 H 41.9897 -1.94767 0.0719209 0
M  V30 391 H 41.0857 -2.91752 -1.10847 0
M  V30 392 N 41.3868 0.248026 -1.55636 0
M  V30 393 C 42.6348 0.974295 -1.77065 0
M  V30 394 C 42.9558 1.85897 -0.588849 0
M  V30 395 O 42.2258 1.91868 0.395407 0
M  V30 396 H 40.8058 0.362733 -0.653019 0
M  V30 397 H 43.4678 0.266244 -1.93073 0
M  V30 398 H 42.5638 1.59667 -2.68166 0
M  V30 399 N 42.8649 1.48995 0.513639 0
M  V30 400 C 44.0899 1.61792 1.29762 0
M  V30 401 C 44.5149 0.284475 1.85936 0
M  V30 402 O 43.8729 -0.746185 1.65232 0
M  V30 403 C 43.9209 2.67993 2.41272 0
M  V30 404 O 43.0249 2.26287 3.44772 0
M  V30 405 H 42.3659 0.541963 0.38363 0
M  V30 406 H 44.8959 1.95097 0.616307 0
M  V30 407 H 44.9059 2.89772 2.87221 0
M  V30 408 H 43.5809 3.64791 1.9975 0
M  V30 409 H 42.1579 2.14788 3.04829 0
M  V30 410 N 44.343 -0.763751 1.37857 0
M  V30 411 C 45.306 -1.85889 1.34081 0
M  V30 412 C 46.306 -1.58949 0.243277 0
M  V30 413 O 47.496 -1.66882 0.499589 0
M  V30 414 C 44.628 -3.23176 1.08489 0
M  V30 415 H 45.821 -1.90648 2.31502 0
M  V30 416 H 43.374 -0.964367 1.23003 0
M  V30 417 H 44.109 -3.24091 0.116318 0
M  V30 418 H 43.894 -3.44124 1.8794 0
M  V30 419 H 45.384 -4.03254 1.08517 0
M  V30 420 N 45.8211 -1.22559 -0.990812 0
M  V30 421 C 47.0691 -1.04933 -1.72724 0
M  V30 422 C 47.3901 0.416158 -1.90508 0
M  V30 423 O 46.6601 1.29918 -1.46622 0
M  V30 424 H 45.2401 -0.385296 -0.639965 0
M  V30 425 H 47.9021 -1.54105 -1.19322 0
M  V30 426 H 46.9981 -1.52886 -2.72089 0
M  V30 427 N 47.2992 1.18797 -1.03562 0
M  V30 428 C 48.2622 2.20464 -0.626769 0
M  V30 429 C 49.2622 1.57721 0.313173 0
M  V30 430 O 50.4522 1.73917 0.0992615 0
M  V30 431 C 47.5842 3.40802 0.0818498 0
M  V30 432 H 48.7772 2.58149 -1.5264 0
M  V30 433 H 46.3302 1.32593 -0.827578 0
M  V30 434 H 47.0652 3.08642 0.995518 0
M  V30 435 H 46.8502 3.8758 -0.593652 0
M  V30 436 H 48.3402 4.16092 0.354584 0
M  V30 437 N 48.7773 0.814389 1.34928 0
M  V30 438 C 50.1883 0.458364 1.80986 0
M  V30 439 C 50.5393 -1.02042 1.67577 0
M  V30 440 O 49.6643 -1.79352 1.21086 0
M  V30 441 C 50.2593 0.825212 3.28597 0
M  V30 442 C 48.8183 0.521677 3.72767 0
M  V30 443 C 47.9653 1.04668 2.56788 0
M  V30 444 H 50.9163 1.00533 1.22795 0
M  V30 445 H 50.9373 0.12571 3.80292 0
M  V30 446 H 50.4493 1.90154 3.38324 0
M  V30 447 H 48.5503 -0.545589 3.68584 0
M  V30 448 H 48.6633 1.05977 4.67232 0
M  V30 449 H 47.0273 0.468622 2.50352 0
M  V30 450 H 47.8103 2.12927 2.6929 0
M  V30 451 N 50.2554 -1.46986 0.568584 0
M  V30 452 C 51.6664 -1.86188 0.138219 0
M  V30 453 C 52.0174 -1.47388 -1.29504 0
M  V30 454 O 51.1424 -0.88219 -1.97602 0
M  V30 455 C 51.7374 -3.3792 0.244065 0
M  V30 456 C 50.2964 -3.76171 -0.131335 0
M  V30 457 C 49.4434 -2.71027 0.586465 0
M  V30 458 H 52.3944 -1.38342 0.777645 0
M  V30 459 H 52.4154 -3.76729 -0.534351 0
M  V30 460 H 51.9274 -3.66128 1.28731 0
M  V30 461 H 50.0284 -3.5358 -1.17526 0
M  V30 462 H 50.1414 -4.78523 0.235146 0
M  V30 463 H 48.5054 -2.54684 0.0282722 0
M  V30 464 H 49.2884 -3.02077 1.63109 0
M  V30 465 N 51.7335 -0.305618 -1.54608 0
M  V30 466 C 52.6635 0.561482 -2.26649 0
M  V30 467 C 53.6445 1.13415 -1.26772 0
M  V30 468 O 54.8295 1.16262 -1.55553 0
M  V30 469 C 51.9595 1.73122 -3.01075 0
M  V30 470 C 50.9135 1.2887 -4.08138 0
M  V30 471 C 50.2395 2.54396 -4.70305 0
M  V30 472 C 51.5395 0.416578 -5.20636 0
M  V30 473 H 53.2335 -0.0393902 -2.99374 0
M  V30 474 H 50.7795 -0.020385 -1.43986 0
M  V30 475 H 52.7325 2.34396 -3.50195 0
M  V30 476 H 51.4565 2.3584 -2.25936 0
M  V30 477 H 50.1155 0.698991 -3.59875 0
M  V30 478 H 49.7635 3.15439 -3.918 0
M  V30 479 H 49.4635 2.25486 -5.42614 0
M  V30 480 H 50.9875 3.16464 -5.2219 0
M  V30 481 H 52.4015 0.935116 -5.65622 0
M  V30 482 H 50.7985 0.221046 -5.99693 0
M  V30 483 H 51.8685 -0.557162 -4.81688 0
M  V30 484 N 53.2116 1.57565 -0.0334293 0
M  V30 485 C 54.4596 1.91598 0.642999 0
M  V30 486 C 54.7806 0.910847 1.7242 0
M  V30 487 O 54.0506 -0.0469931 1.95844 0
M  V30 488 H 52.6306 0.707228 0.240496 0
M  V30 489 H 55.2926 1.94726 -0.0822488 0
M  V30 490 H 54.3886 2.92336 1.09298 0
M  V30 491 N 54.6897 -0.239769 1.55765 0
M  V30 492 C 56.1007 -0.808263 1.68297 0
M  V30 493 C 56.4517 -1.85736 0.632181 0
M  V30 494 O 55.5767 -2.15277 -0.220204 0
M  V30 495 C 56.1717 -1.47284 3.05111 0
M  V30 496 C 54.7307 -1.98895 3.19559 0
M  V30 497 C 53.8777 -0.842575 2.64189 0
M  V30 498 H 56.8287 -0.0154422 1.58692 0
M  V30 499 H 56.8497 -2.34111 2.99954 0
M  V30 500 H 56.3617 -0.709053 3.81568 0
M  V30 501 H 54.4627 -2.78132 2.47938 0
M  V30 502 H 54.5757 -2.18143 4.26556 0
M  V30 503 H 52.9397 -1.24501 2.22197 0
M  V30 504 H 53.7227 -0.0917552 3.43177 0
M  V30 505 N 56.1678 -1.49265 -0.50573 0
M  V30 506 C 57.3928 -1.62478 -1.28902 0
M  V30 507 C 57.8178 -0.294332 -1.85783 0
M  V30 508 O 57.1758 0.737412 -1.65626 0
M  V30 509 C 57.2238 -2.69268 -2.39848 0
M  V30 510 O 56.3278 -2.28113 -3.43567 0
M  V30 511 H 55.6688 -0.54399 -0.380751 0
M  V30 512 H 58.1988 -1.95421 -0.605952 0
M  V30 513 H 58.2088 -2.91291 -2.85681 0
M  V30 514 H 56.8838 -3.65846 -1.97812 0
M  V30 515 H 55.4608 -2.16401 -3.03685 0
M  V30 516 N 57.6459 0.756429 -1.3826 0
M  V30 517 C 58.5779 1.87971 -1.31147 0
M  V30 518 C 59.5909 1.61248 -0.224239 0
M  V30 519 O 60.7799 1.71881 -0.481581 0
M  V30 520 C 57.8799 3.23545 -1.00857 0
M  V30 521 C 57.0529 3.77794 -2.20432 0
M  V30 522 C 56.1119 4.91877 -1.86931 0
M  V30 523 O 55.1379 5.06659 -2.59395 0
M  V30 524 N 56.3399 5.74643 -0.822568 0
M  V30 525 H 59.1049 1.94585 -2.2794 0
M  V30 526 H 56.6659 0.936234 -1.32084 0
M  V30 527 H 58.6579 3.97403 -0.765021 0
M  V30 528 H 57.2279 3.12335 -0.128687 0
M  V30 529 H 56.4479 2.95534 -2.6087 0
M  V30 530 H 57.7359 4.10771 -3.00241 0
M  V30 531 H 57.1339 5.65266 -0.221575 0
M  V30 532 H 55.6909 6.48661 -0.638899 0
M  V30 533 N 59.124 1.23083 0.984299 0
M  V30 534 C 60.37 1.06214 1.72761 0
M  V30 535 C 60.703 -0.400584 1.90024 0
M  V30 536 O 59.978 -1.29672 1.44967 0
M  V30 537 C 60.261 1.78375 3.12817 0
M  V30 538 C 60.114 3.32296 3.03149 0
M  V30 539 C 61.433 1.54309 4.12161 0
M  V30 540 H 58.552 0.387251 0.627061 0
M  V30 541 H 61.194 1.51536 1.14616 0
M  V30 542 H 59.344 1.39848 3.62457 0
M  V30 543 H 61.016 3.8032 2.61064 0
M  V30 544 H 59.259 3.6153 2.39747 0
M  V30 545 H 59.93 3.77972 4.02295 0
M  V30 546 H 62.406 1.87791 3.71314 0
M  V30 547 H 61.282 2.07281 5.08258 0
M  V30 548 H 61.543 0.477572 4.39513 0
M  V30 549 N 60.6021 -1.18246 1.0419 0
M  V30 550 C 61.8481 -1.88536 0.747122 0
M  V30 551 C 62.1811 -1.80223 -0.723409 0
M  V30 552 O 61.4561 -1.20337 -1.52804 0
M  V30 553 C 61.7391 -3.38968 1.21544 0
M  V30 554 C 61.5921 -3.56084 2.74816 0
M  V30 555 C 62.9111 -4.32648 0.806482 0
M  V30 556 H 60.0301 -0.684619 0.272883 0
M  V30 557 H 62.6721 -1.39113 1.29413 0
M  V30 558 H 60.8221 -3.8119 0.750081 0
M  V30 559 H 62.4941 -3.22946 3.29399 0
M  V30 560 H 60.7371 -2.98699 3.14582 0
M  V30 561 H 61.4081 -4.61639 3.02644 0
M  V30 562 H 63.8841 -3.98211 1.20695 0
M  V30 563 H 62.7601 -5.36462 1.1619 0
M  V30 564 H 63.0211 -4.41146 -0.29029 0
M  V30 565 N 62.0802 -0.821533 -1.34494 0
M  V30 566 C 63.3082 -0.421884 -2.02553 0
M  V30 567 C 63.7232 0.971745 -1.61872 0
M  V30 568 O 63.0802 1.62864 -0.823496 0
M  V30 569 C 63.1312 -0.51285 -3.57844 0
M  V30 570 O 62.8522 -1.85155 -3.97051 0
M  V30 571 C 64.3532 -0.107921 -4.43169 0
M  V30 572 H 61.5732 -0.169482 -0.649243 0
M  V30 573 H 64.1172 -1.1093 -1.71798 0
M  V30 574 H 62.2722 0.126474 -3.87193 0
M  V30 575 H 62.6862 -1.82482 -4.91732 0
M  V30 576 H 64.1602 -0.222657 -5.51551 0
M  V30 577 H 64.6372 0.948401 -4.28838 0
M  V30 578 H 65.2432 -0.720989 -4.19144 0
M  V30 579 N 63.5583 1.46682 -0.576371 0
M  V30 580 C 64.5213 2.28707 0.150239 0
M  V30 581 C 65.5213 1.38035 0.824794 0
M  V30 582 O 66.7113 1.60476 0.677719 0
M  V30 583 C 63.8433 3.18248 1.22192 0
M  V30 584 H 65.0363 2.94423 -0.570521 0
M  V30 585 H 62.5893 1.52688 -0.334078 0
M  V30 586 H 63.3243 2.57265 1.97447 0
M  V30 587 H 63.1093 3.85 0.742812 0
M  V30 588 H 64.5993 3.80001 1.73172 0
M  V30 589 N 65.0364 0.313813 1.54444 0
M  V30 590 C 66.2764 -0.292389 2.02298 0
M  V30 591 C 66.6404 -1.50105 1.19719 0
M  V30 592 O 67.8414 -2.17947 1.5733 0
M  V30 593 C 66.1124 -0.627682 3.51845 0
M  V30 594 S 67.6714 -1.21493 4.21646 0
M  V30 595 H 64.4894 -0.0890247 0.705405 0
M  V30 596 H 67.0914 0.444668 1.90376 0
M  V30 597 H 65.7954 0.260265 4.09574 0
M  V30 598 H 65.3264 -1.39519 3.67829 0
M  V30 599 H 67.3414 -2.5022 4.28491 0
M  V30 600 N 66.5145 -1.57545 0.0417849 0
M  V30 601 C 67.4445 -2.14009 -0.933929 0
M  V30 602 C 68.4255 -1.05938 -1.33083 0
M  V30 603 O 69.6105 -1.33833 -1.40721 0
M  V30 604 C 66.7405 -2.67747 -2.21199 0
M  V30 605 C 65.6945 -3.80718 -1.95544 0
M  V30 606 C 65.0205 -4.20935 -3.29724 0
M  V30 607 C 66.3205 -5.06258 -1.28452 0
M  V30 608 H 68.0145 -2.95788 -0.463645 0
M  V30 609 H 65.5605 -1.42285 -0.221573 0
M  V30 610 H 67.5135 -3.05886 -2.89848 0
M  V30 611 H 66.2375 -1.83147 -2.70416 0
M  V30 612 H 64.8965 -3.43037 -1.2931 0
M  V30 613 H 64.5445 -3.33298 -3.76724 0
M  V30 614 H 64.2445 -4.9707 -3.13361 0
M  V30 615 H 65.7685 -4.61666 -3.9962 0
M  V30 616 H 67.1825 -5.41903 -1.8712 0
M  V30 617 H 65.5795 -5.87475 -1.22445 0
M  V30 618 H 66.6495 -4.84207 -0.259219 0
M  V30 619 N 67.9926 0.231505 -1.5589 0
M  V30 620 C 68.9226 1.29022 -1.94617 0
M  V30 621 C 69.9036 1.4941 -0.813067 0
M  V30 622 O 71.0886 1.6176 -1.07459 0
M  V30 623 C 68.2186 2.64199 -2.25424 0
M  V30 624 C 67.1726 2.58484 -3.41131 0
M  V30 625 C 66.4986 3.97599 -3.57518 0
M  V30 626 C 67.7986 2.1413 -4.76388 0
M  V30 627 H 69.4926 0.968563 -2.83301 0
M  V30 628 H 67.0386 0.464479 -1.36303 0
M  V30 629 H 68.9916 3.38413 -2.51107 0
M  V30 630 H 67.7156 2.98032 -1.33583 0
M  V30 631 H 66.3746 1.86727 -3.15481 0
M  V30 632 H 66.0226 4.28723 -2.6307 0
M  V30 633 H 65.7226 3.94659 -4.35337 0
M  V30 634 H 67.2466 4.7349 -3.85538 0
M  V30 635 H 68.6606 2.78083 -5.01341 0
M  V30 636 H 67.0576 2.2227 -5.57419 0
M  V30 637 H 68.1276 1.09331 -4.72414 0
M  V30 638 N 69.4707 1.49531 0.497807 0
M  V30 639 C 70.6987 1.62893 1.27567 0
M  V30 640 C 71.1137 0.301585 1.86376 0
M  V30 641 O 70.4707 -0.713335 1.67982 0
M  V30 642 C 70.5217 2.70013 2.40364 0
M  V30 643 O 70.2427 3.976 1.83972 0
M  V30 644 C 71.7437 2.94109 3.31685 0
M  V30 645 H 68.9637 0.548298 0.386794 0
M  V30 646 H 71.5077 1.95584 0.597245 0
M  V30 647 H 69.6627 2.40092 3.04031 0
M  V30 648 H 70.0767 4.56631 2.58047 0
M  V30 649 H 71.5507 3.72788 4.07104 0
M  V30 650 H 72.0277 2.04147 3.88871 0
M  V30 651 H 72.6337 3.2546 2.73781 0
M  V30 652 N 70.9488 -0.749086 1.3866 0
M  V30 653 C 71.8788 -1.8764 1.38973 0
M  V30 654 C 72.8598 -1.68178 0.255004 0
M  V30 655 O 74.0448 -1.88704 0.458754 0
M  V30 656 C 71.1748 -3.25222 1.21851 0
M  V30 657 C 70.1288 -3.59295 2.32575 0
M  V30 658 C 69.4548 -4.95663 2.00555 0
M  V30 659 C 70.7548 -3.63709 3.7485 0
M  V30 660 H 72.4488 -1.87635 2.3331 0
M  V30 661 H 69.9948 -0.901329 1.12303 0
M  V30 662 H 71.9478 -4.03746 1.20695 0
M  V30 663 H 70.6718 -3.25719 0.239775 0
M  V30 664 H 69.3308 -2.83093 2.32925 0
M  V30 665 H 68.9788 -4.92724 1.01154 0
M  V30 666 H 68.6788 -5.19429 2.74714 0
M  V30 667 H 70.2028 -5.7656 2.01024 0
M  V30 668 H 71.6168 -4.32338 3.76506 0
M  V30 669 H 70.0138 -3.98986 4.48252 0
M  V30 670 H 71.0838 -2.63834 4.06841 0
M  V30 671 N 72.4269 -1.23603 -0.977757 0
M  V30 672 C 73.3569 -1.04401 -2.0886 0
M  V30 673 C 74.3379 0.0399052 -1.70053 0
M  V30 674 O 75.5229 -0.125246 -1.93796 0
M  V30 675 C 72.6529 -0.637269 -3.41403 0
M  V30 676 C 71.6069 -1.66883 -3.94124 0
M  V30 677 C 70.9329 -1.11745 -5.22893 0
M  V30 678 C 72.2329 -3.06247 -4.23096 0
M  V30 679 H 73.9269 -1.97316 -2.25182 0
M  V30 680 H 71.4729 -0.950096 -1.08209 0
M  V30 681 H 73.4259 -0.48998 -4.18542 0
M  V30 682 H 72.1499 0.327557 -3.24953 0
M  V30 683 H 70.8089 -1.80416 -3.19133 0
M  V30 684 H 70.4569 -0.143527 -5.02795 0
M  V30 685 H 70.1569 -1.80672 -5.59134 0
M  V30 686 H 71.6809 -0.982067 -6.02651 0
M  V30 687 H 73.0949 -2.96001 -4.90975 0
M  V30 688 H 71.4919 -3.72436 -4.70544 0
M  V30 689 H 72.5619 -3.55041 -3.30263 0
M  V30 690 N 73.905 1.17692 -1.04816 0
M  V30 691 C 75.154 1.87192 -0.751132 0
M  V30 692 C 75.467 1.8169 0.724441 0
M  V30 693 O 76.673 2.46625 1.13527 0
M  V30 694 C 75.129 3.35857 -1.29338 0
M  V30 695 C 74.737 3.4987 -2.79812 0
M  V30 696 C 76.481 4.10709 -1.07322 0
M  V30 697 C 74.388 4.92536 -3.27356 0
M  V30 698 H 73.318 0.701162 -0.277288 0
M  V30 699 H 75.969 1.32932 -1.26496 0
M  V30 700 H 74.351 3.89631 -0.707376 0
M  V30 701 H 75.525 3.06332 -3.44235 0
M  V30 702 H 73.84 2.88433 -3.00325 0
M  V30 703 H 76.437 5.15952 -1.4035 0
M  V30 704 H 76.78 4.16299 -0.0108001 0
M  V30 705 H 77.313 3.6313 -1.62423 0
M  V30 706 H 74.052 4.92119 -4.33012 0
M  V30 707 H 73.572 5.3676 -2.67673 0
M  V30 708 H 75.251 5.61288 -3.21815 0
M  V30 709 N 75.3831 0.828654 1.34056 0
M  V30 710 C 76.6321 0.415828 1.97367 0
M  V30 711 C 76.9451 -1.02796 1.6641 0
M  V30 712 O 78.1511 -1.54497 2.23255 0
M  V30 713 C 76.6071 0.692601 3.53173 0
M  V30 714 C 76.2151 2.15038 3.93017 0
M  V30 715 C 77.9591 0.346222 4.23086 0
M  V30 716 C 75.8661 2.37174 5.41758 0
M  V30 717 H 74.7961 0.151755 0.738571 0
M  V30 718 H 77.4471 1.01581 1.52819 0
M  V30 719 H 75.8291 0.0223764 3.95994 0
M  V30 720 H 77.0031 2.86024 3.61285 0
M  V30 721 H 75.3181 2.45875 3.36057 0
M  V30 722 H 77.9151 0.48937 5.32456 0
M  V30 723 H 78.2581 -0.709842 4.10204 0
M  V30 724 H 78.7911 0.971258 3.85761 0
M  V30 725 H 75.5301 3.41308 5.59633 0
M  V30 726 H 75.0501 1.70738 5.74986 0
M  V30 727 H 76.7291 2.19818 6.08514 0
M  V30 728 N 76.8612 -1.46375 0.584142 0
M  V30 729 C 78.1072 -2.03248 0.0787103 0
M  V30 730 C 78.4622 -1.44737 -1.26763 0
M  V30 731 O 77.7552 -0.603625 -1.81843 0
M  V30 732 C 77.9492 -3.57373 -0.0439342 0
M  V30 733 C 77.7782 -4.30831 1.28897 0
M  V30 734 C 76.5482 -4.69683 1.8635 0
M  V30 735 C 78.7462 -4.64278 2.21248 0
M  V30 736 N 76.7282 -5.27898 3.13365 0
M  V30 737 C 78.0992 -5.23078 3.32851 0
M  V30 738 C 80.1542 -4.46209 2.20911 0
M  V30 739 C 78.8572 -5.65715 4.44251 0
M  V30 740 C 80.8832 -4.89864 3.31341 0
M  V30 741 C 80.2452 -5.48736 4.41665 0
M  V30 742 H 76.3442 -0.778714 0.0716144 0
M  V30 743 H 78.9282 -1.78509 0.777355 0
M  V30 744 H 77.0992 -3.81823 -0.711749 0
M  V30 745 H 78.8312 -4.00892 -0.553881 0
M  V30 746 H 75.5862 -4.52488 1.39826 0
M  V30 747 H 76.0102 -5.61525 3.78178 0
M  V30 748 H 80.6522 -4.00027 1.36888 0
M  V30 749 H 78.3702 -6.10875 5.29015 0
M  V30 750 H 81.9562 -4.77634 3.322 0
M  V30 751 H 80.8362 -5.81898 5.25704 0
M  V30 752 N 78.3393 -0.321999 -1.54275 0
M  V30 753 C 79.5673 0.283052 -2.04955 0
M  V30 754 C 79.9823 1.45904 -1.19823 0
M  V30 755 O 79.3393 1.81063 -0.228545 0
M  V30 756 C 79.3903 0.719028 -3.54277 0
M  V30 757 O 79.1113 -0.410175 -4.36176 0
M  V30 758 C 80.6123 1.38705 -4.21041 0
M  V30 759 H 77.8323 0.0584616 -0.668448 0
M  V30 760 H 80.3763 -0.467734 -1.99079 0
M  V30 761 H 78.5313 1.41979 -3.60445 0
M  V30 762 H 78.9453 -0.0669416 -5.24457 0
M  V30 763 H 80.4193 1.64306 -5.2698 0
M  V30 764 H 80.8963 2.33385 -3.72059 0
M  V30 765 H 81.5023 0.728906 -4.19007 0
M  V30 766 N 79.8174 1.5752 -0.0501392 0
M  V30 767 C 80.7474 2.14502 0.922566 0
M  V30 768 C 81.7284 1.06642 1.3252 0
M  V30 769 O 82.9134 1.34577 1.4001 0
M  V30 770 C 80.0434 2.68916 2.19776 0
M  V30 771 C 78.9974 3.8175 1.93523 0
M  V30 772 C 78.3234 4.22677 3.27487 0
M  V30 773 C 79.6234 5.06932 1.25765 0
M  V30 774 H 81.3174 2.9603 0.447952 0
M  V30 775 H 78.8634 1.42401 0.214024 0
M  V30 776 H 80.8164 3.07419 2.88222 0
M  V30 777 H 79.5404 1.84578 2.69441 0
M  V30 778 H 78.1994 3.43718 1.27489 0
M  V30 779 H 77.8474 3.35291 3.74952 0
M  V30 780 H 77.5474 4.98725 3.1072 0
M  V30 781 H 79.0714 4.63779 3.97166 0
M  V30 782 H 80.4854 5.42888 1.84244 0
M  V30 783 H 78.8824 5.88116 1.19328 0
M  V30 784 H 79.9524 4.84337 0.233536 0
M  V30 785 N 81.2955 -0.223234 1.56011 0
M  V30 786 C 82.2255 -1.27988 1.95298 0
M  V30 787 C 83.2065 -1.48976 0.820979 0
M  V30 788 O 84.3915 -1.61188 1.08315 0
M  V30 789 C 81.5215 -2.63 2.26822 0
M  V30 790 C 80.4755 -2.56671 3.42497 0
M  V30 791 C 79.8015 -3.95697 3.59622 0
M  V30 792 C 81.1015 -2.11601 4.77517 0
M  V30 793 H 82.7955 -0.953525 2.8381 0
M  V30 794 H 80.3415 -0.457244 1.36548 0
M  V30 795 H 82.2945 -3.37077 2.52898 0
M  V30 796 H 81.0185 -2.9732 1.35161 0
M  V30 797 H 79.6775 -1.85051 3.16467 0
M  V30 798 H 79.3255 -4.27322 2.6534 0
M  V30 799 H 79.0255 -3.92345 4.37424 0
M  V30 800 H 80.5495 -4.71438 3.88044 0
M  V30 801 H 81.9635 -2.7542 5.02809 0
M  V30 802 H 80.3605 -2.19311 5.5859 0
M  V30 803 H 81.4305 -1.06824 4.72987 0
M  V30 804 N 82.7736 -1.49793 -0.48987 0
M  V30 805 C 84.0216 -1.59525 -1.24081 0
M  V30 806 C 84.3426 -0.288953 -1.92847 0
M  V30 807 O 83.6126 0.692436 -1.83254 0
M  V30 808 H 82.1926 -0.587796 -0.460983 0
M  V30 809 H 84.8546 -1.86477 -0.566778 0
M  V30 810 H 83.9506 -2.39696 -1.99881 0
M  V30 811 N 84.2517 0.741722 -1.39055 0
M  V30 812 C 85.1997 1.87702 -1.3737 0
M  V30 813 C 86.1937 1.67427 -0.257812 0
M  V30 814 O 87.3997 1.7485 -0.427489 0
M  V30 815 H 83.7747 0.617757 -0.428812 0
M  V30 816 H 85.7457 1.86239 -2.33147 0
M  V30 817 C 84.4947 3.25315 -1.22741 0
M  V30 818 H 83.8177 3.41509 -2.07873 0
M  V30 819 H 85.2577 4.04964 -1.25618 0
M  V30 820 C 83.7167 3.36838 0.0647316 0
M  V30 821 O 84.2467 3.88073 1.03741 0
M  V30 822 N 82.4527 2.90329 0.125544 0
M  V30 823 H 81.9997 2.48823 -0.666682 0
M  V30 824 H 81.9577 2.98418 0.989639 0
M  V30 825 N 85.7298 1.2412 0.971189 0
M  V30 826 C 86.9758 1.08041 1.71625 0
M  V30 827 C 87.3088 -0.380407 1.90438 0
M  V30 828 O 86.5838 -1.28127 1.46334 0
M  V30 829 C 86.8668 1.81682 3.10908 0
M  V30 830 C 86.7198 3.35493 2.99608 0
M  V30 831 C 88.0388 1.58671 4.10501 0
M  V30 832 H 85.1578 0.39388 0.622919 0
M  V30 833 H 87.7998 1.52743 1.13003 0
M  V30 834 H 85.9498 1.43684 3.60953 0
M  V30 835 H 87.6218 3.83068 2.57015 0
M  V30 836 H 85.8648 3.64052 2.35899 0
M  V30 837 H 86.5358 3.82217 3.98264 0
M  V30 838 H 89.0118 1.91719 3.69301 0
M  V30 839 H 87.8878 2.1266 5.06031 0
M  V30 840 H 88.1488 0.524161 4.38982 0
M  V30 841 N 87.2079 -1.17134 1.05439 0
M  V30 842 C 88.1379 -2.2342 0.678649 0
M  V30 843 C 89.1189 -1.66971 -0.32476 0
M  V30 844 O 90.3039 -1.93149 -0.201802 0
M  V30 845 C 87.4339 -3.47256 0.0552099 0
M  V30 846 C 86.3879 -4.16543 0.98365 0
M  V30 847 C 85.7139 -5.34231 0.223961 0
M  V30 848 C 87.0139 -4.68495 2.3089 0
M  V30 849 H 88.7079 -2.55105 1.56722 0
M  V30 850 H 86.2539 -1.2262 0.754998 0
M  V30 851 H 88.2069 -4.20828 -0.21946 0
M  V30 852 H 86.9309 -3.14846 -0.868319 0
M  V30 853 H 85.5899 -3.44887 1.24293 0
M  V30 854 H 85.2379 -4.98071 -0.702412 0
M  V30 855 H 84.9379 -5.81527 0.842627 0
M  V30 856 H 86.4619 -6.10585 -0.0433671 0
M  V30 857 H 87.8759 -5.33691 2.09396 0
M  V30 858 H 86.2729 -5.26379 2.88176 0
M  V30 859 H 87.3429 -3.85169 2.94572 0
M  V30 860 N 88.686 -0.835752 -1.33615 0
M  V30 861 C 89.932 -0.430596 -1.98176 0
M  V30 862 C 90.265 1.00684 -1.66061 0
M  V30 863 O 89.54 1.70339 -0.938877 0
M  V30 864 C 89.823 -0.648065 -3.5422 0
M  V30 865 C 89.676 -2.13255 -3.96033 0
M  V30 866 C 90.995 -0.0922113 -4.40003 0
M  V30 867 H 88.114 -0.157924 -0.719881 0
M  V30 868 H 90.756 -1.05069 -1.58305 0
M  V30 869 H 88.906 -0.120237 -3.88314 0
M  V30 870 H 90.578 -2.725 -3.72211 0
M  V30 871 H 88.821 -2.61823 -3.45878 0
M  V30 872 H 89.492 -2.23547 -5.04708 0
M  V30 873 H 91.968 -0.543343 -4.12537 0
M  V30 874 H 90.844 -0.274083 -5.48215 0
M  V30 875 H 91.105 1.00378 -4.30554 0
M  V30 876 N 90.1641 1.46063 -0.591896 0
M  V30 877 C 91.4041 2.04228 -0.0838014 0
M  V30 878 C 91.7681 1.45231 1.25587 0
M  V30 879 O 92.9691 1.94653 1.85375 0
M  V30 880 C 91.2401 3.57389 -0.0286282 0
M  V30 881 S 92.7991 4.3678 0.420557 0
M  V30 882 H 89.6171 0.709762 -0.0419319 0
M  V30 883 H 92.2191 1.78983 -0.786465 0
M  V30 884 H 90.9231 3.97843 -1.00743 0
M  V30 885 H 90.4541 3.87185 0.69652 0
M  V30 886 H 92.4691 4.67131 1.67341 0
M  V30 887 N 91.6422 0.330177 1.54103 0
M  V30 888 C 92.6052 -0.520144 2.2322 0
M  V30 889 C 93.6052 -1.03828 1.22786 0
M  V30 890 O 94.7952 -0.929652 1.4732 0
M  V30 891 C 91.9272 -1.72317 2.94142 0
M  V30 892 H 93.1202 0.0841605 2.99782 0
M  V30 893 H 90.6732 0.0813433 1.56088 0
M  V30 894 H 91.4082 -2.36653 2.21734 0
M  V30 895 H 91.1932 -1.35898 3.67796 0
M  V30 896 H 92.6832 -2.3266 3.46784 0
M  V30 897 N 93.1203 -1.57491 0.0584922 0
M  V30 898 C 94.0833 -2.1085 -0.898617 0
M  V30 899 C 95.0833 -1.02964 -1.23511 0
M  V30 900 O 96.2733 -1.29007 -1.17059 0
M  V30 901 C 93.4053 -2.59881 -2.20623 0
M  V30 902 H 94.5983 -2.96715 -0.435936 0
M  V30 903 H 92.1513 -1.55141 -0.190023 0
M  V30 904 H 92.8863 -1.77431 -2.71457 0
M  V30 905 H 92.6713 -3.38727 -1.97501 0
M  V30 906 H 94.1613 -3.01285 -2.89166 0
M  V30 907 N 94.5984 0.214957 -1.56127 0
M  V30 908 C 95.8474 0.936451 -1.78643 0
M  V30 909 C 96.1604 1.85237 -0.628229 0
M  V30 910 O 97.3664 2.613 -0.737186 0
M  V30 911 C 95.8224 1.7154 -3.16389 0
M  V30 912 C 95.4304 0.845299 -4.39953 0
M  V30 913 C 97.1744 2.42772 -3.48227 0
M  V30 914 C 95.0814 1.62198 -5.68723 0
M  V30 915 H 94.0114 0.353401 -0.666051 0
M  V30 916 H 96.6624 0.190169 -1.82512 0
M  V30 917 H 95.0444 2.50484 -3.06715 0
M  V30 918 H 96.2184 0.0959353 -4.607 0
M  V30 919 H 94.5334 0.244789 -4.1568 0
M  V30 920 H 97.1304 3.01394 -4.41663 0
M  V30 921 H 97.4734 3.15984 -2.71035 0
M  V30 922 H 98.0064 1.70813 -3.5926 0
M  V30 923 H 94.7454 0.933011 -6.48826 0
M  V30 924 H 94.2654 2.34579 -5.52026 0
M  V30 925 H 95.9444 2.18095 -6.09133 0
M  V30 926 N 96.0765 1.50051 0.48192 0
M  V30 927 C 97.3225 1.60736 1.2366 0
M  V30 928 C 97.6555 0.301786 1.91841 0
M  V30 929 O 96.9305 -0.696025 1.8162 0
M  V30 930 C 97.2135 2.78009 2.28874 0
M  V30 931 C 97.0665 4.18416 1.65069 0
M  V30 932 C 98.3855 2.90867 3.30279 0
M  V30 933 H 95.5045 0.585031 0.448228 0
M  V30 934 H 98.1465 1.82402 0.531946 0
M  V30 935 H 96.2965 2.59667 2.88973 0
M  V30 936 H 97.9685 4.48322 1.0865 0
M  V30 937 H 96.2115 4.23177 0.954148 0
M  V30 938 H 96.8825 4.96381 2.41474 0
M  V30 939 H 99.3585 3.07623 2.80191 0
M  V30 940 H 98.2345 3.74566 4.01238 0
M  V30 941 H 98.4955 2.01021 3.93755 0
M  V30 942 N 97.5546 -0.734337 1.39446 0
M  V30 943 C 98.9706 -1.03997 1.21065 0
M  V30 944 C 99.1706 -2.01369 0.0727019 0
M  V30 945 O 98.2266 -2.45856 -0.575426 0
M  V30 946 C 99.5396 -1.60163 2.54496 0
M  V30 947 C 101.088 -1.7224 2.61347 0
M  V30 948 C 101.563 -2.31814 3.95002 0
M  V30 949 N 103.054 -2.39223 3.96644 0
M  V30 950 C 103.789 -2.86258 4.96834 0
M  V30 951 N 103.285 -3.33184 6.07421 0
M  V30 952 N 105.078 -2.85473 4.84213 0
M  V30 953 H 97.2286 -0.0885624 2.12215 0
M  V30 954 H 99.4916 -0.10191 0.942506 0
M  V30 955 H 99.1976 -0.960811 3.38321 0
M  V30 956 H 99.0716 -2.5896 2.74262 0
M  V30 957 H 101.459 -2.35443 1.77906 0
M  V30 958 H 101.54 -0.720939 2.4543 0
M  V30 959 H 101.184 -1.69238 4.78875 0
M  V30 960 H 101.114 -3.32638 4.08239 0
M  V30 961 H 103.605 -2.06057 3.16779 0
M  V30 962 H 103.918 -3.67586 6.7978 0
M  V30 963 H 102.263 -3.31191 6.11013 0
M  V30 964 H 105.454 -2.48136 3.96921 0
M  V30 965 H 105.627 -3.21814 5.62441 0
M  V30 966 N 99.0327 -1.24633 -0.964593 0
M  V30 967 C 100.258 -1.11596 -1.74818 0
M  V30 968 C 100.683 0.32723 -1.85232 0
M  V30 969 O 100.041 1.23695 -1.32549 0
M  V30 970 C 100.089 -1.76397 -3.1451 0
M  V30 971 O 99.1927 -1.03685 -3.99153 0
M  V30 972 H 98.5337 -0.390196 -0.537255 0
M  V30 973 H 101.064 -1.65002 -1.20977 0
M  V30 974 H 101.074 -1.8228 -3.65018 0
M  V30 975 H 99.7487 -2.81401 -3.06246 0
M  V30 976 H 98.3257 -1.05611 -3.57632 0
M  V30 977 N 100.511 1.16574 -1.06058 0
M  V30 978 C 101.927 1.3904 -0.783585 0
M  V30 979 C 102.127 1.91784 0.618145 0
M  V30 980 O 101.183 2.11511 1.37911 0
M  V30 981 C 102.496 2.37329 -1.84649 0
M  V30 982 C 104.044 2.51018 -1.86973 0
M  V30 983 C 104.519 3.52588 -2.92311 0
M  V30 984 N 106.01 3.60113 -2.91329 0
M  V30 985 C 106.745 4.38486 -3.69482 0
M  V30 986 N 106.241 5.20302 -4.57447 0
M  V30 987 N 108.034 4.33446 -3.57885 0
M  V30 988 H 100.185 0.806725 -1.96483 0
M  V30 989 H 102.448 0.417117 -0.851303 0
M  V30 990 H 102.154 2.05663 -2.85299 0
M  V30 991 H 102.028 3.36946 -1.6955 0
M  V30 992 H 104.415 2.81989 -0.869827 0
M  V30 993 H 104.496 1.51445 -2.0615 0
M  V30 994 H 104.14 3.22354 -3.92492 0
M  V30 995 H 104.07 4.51886 -2.70383 0
M  V30 996 H 106.561 3.01707 -2.27555 0
M  V30 997 H 106.874 5.77311 -5.13743 0
M  V30 998 H 105.219 5.19653 -4.61503 0
M  V30 999 H 108.41 3.68586 -2.88551 0
M  V30 1000 H 108.583 4.94279 -4.19037 0
M  V30 1001 N 101.989 0.842826 1.3317 0
M  V30 1002 C 102.939 0.250877 2.26616 0
M  V30 1003 C 103.923 -0.596427 1.49437 0
M  V30 1004 O 105.115 -0.447747 1.71243 0
M  V30 1005 C 102.244 -0.569779 3.38539 0
M  V30 1006 C 101.33 0.289254 4.23112 0
M  V30 1007 N 101.721 1.36987 4.86897 0
M  V30 1008 C 100.019 0.0769631 4.45934 0
M  V30 1009 C 100.72 1.89737 5.49886 0
M  V30 1010 N 99.6959 1.19827 5.30229 0
M  V30 1011 H 103.498 1.07718 2.73448 0
M  V30 1012 H 101.012 0.687693 1.47121 0
M  V30 1013 H 103.009 -1.01018 4.04476 0
M  V30 1014 H 101.669 -1.39401 2.93253 0
M  V30 1015 H 102.68 1.75277 4.87338 0
M  V30 1016 H 99.3569 -0.713507 4.11358 0
M  V30 1017 H 100.747 2.80253 6.10662 0
M  V30 1018 N 103.467 -1.45747 0.599634 0
M  V30 1019 C 104.397 -2.33235 -0.111306 0
M  V30 1020 C 105.378 -1.46359 -0.866781 0
M  V30 1021 O 106.563 -1.75146 -0.838904 0
M  V30 1022 C 103.693 -3.28932 -1.11451 0
M  V30 1023 C 102.647 -4.25381 -0.472772 0
M  V30 1024 C 101.973 -5.1071 -1.58365 0
M  V30 1025 C 103.273 -5.18831 0.600948 0
M  V30 1026 H 104.967 -2.92927 0.61919 0
M  V30 1027 H 102.513 -1.40857 0.299215 0
M  V30 1028 H 104.466 -3.89002 -1.62036 0
M  V30 1029 H 103.19 -2.67381 -1.8755 0
M  V30 1030 H 101.849 -3.66598 0.0121472 0
M  V30 1031 H 101.497 -4.45533 -2.33473 0
M  V30 1032 H 101.197 -5.7604 -1.15982 0
M  V30 1033 H 102.721 -5.73647 -2.09194 0
M  V30 1034 H 104.135 -5.73019 0.179491 0
M  V30 1035 H 102.532 -5.92595 0.946076 0
M  V30 1036 H 103.602 -4.6174 1.48068 0
M  V30 1037 N 104.945 -0.338344 -1.53925 0
M  V30 1038 C 106.361 0.0137736 -1.59594 0
M  V30 1039 C 106.561 1.49186 -1.35447 0
M  V30 1040 O 105.617 2.24987 -1.14616 0
M  V30 1041 C 106.93 -0.41773 -2.97784 0
M  V30 1042 C 108.478 -0.369633 -3.1081 0
M  V30 1043 C 108.953 -0.776524 -4.51369 0
M  V30 1044 N 110.444 -0.730506 -4.57403 0
M  V30 1045 C 111.179 -1.01736 -5.64303 0
M  V30 1046 N 110.675 -1.3721 -6.79077 0
M  V30 1047 N 112.468 -0.941942 -5.54151 0
M  V30 1048 H 104.619 -1.3012 -1.67876 0
M  V30 1049 H 106.882 -0.530082 -0.78595 0
M  V30 1050 H 106.588 -1.44811 -3.20504 0
M  V30 1051 H 106.462 0.209729 -3.76616 0
M  V30 1052 H 108.849 0.651568 -2.87817 0
M  V30 1053 H 108.93 -1.03223 -2.34049 0
M  V30 1054 H 108.574 -1.79571 -4.75096 0
M  V30 1055 H 108.504 -0.0914649 -5.26521 0
M  V30 1056 H 110.995 -0.468783 -3.74981 0
M  V30 1057 H 111.308 -1.57597 -7.5656 0
M  V30 1058 H 109.653 -1.4105 -6.80536 0
M  V30 1059 H 112.844 -0.664184 -4.63364 0
M  V30 1060 H 113.017 -1.16884 -6.37371 0
M  V30 1061 N 106.423 1.57458 -0.0668435 0
M  V30 1062 C 107.386 2.11323 0.887422 0
M  V30 1063 C 108.386 1.03618 1.22964 0
M  V30 1064 O 109.576 1.29626 1.16373 0
M  V30 1065 C 106.708 2.61048 2.19242 0
M  V30 1066 H 107.901 2.96942 0.420194 0
M  V30 1067 H 105.454 1.55239 0.181793 0
M  V30 1068 H 106.189 1.78868 2.70512 0
M  V30 1069 H 105.974 3.39769 1.95702 0
M  V30 1070 H 107.464 3.02814 2.87565 0
M  V30 1071 N 107.901 -0.206675 1.56239 0
M  V30 1072 C 108.849 -1.27571 1.94495 0
M  V30 1073 C 109.843 -1.47737 0.828862 0
M  V30 1074 O 111.049 -1.48735 1.0138 0
M  V30 1075 H 107.424 -0.428029 0.6183 0
M  V30 1076 H 109.395 -0.925961 2.8367 0
M  V30 1077 C 108.144 -2.61568 2.29079 0
M  V30 1078 H 107.467 -2.46863 3.14482 0
M  V30 1079 H 108.907 -3.35144 2.5972 0
M  V30 1080 C 107.366 -3.17695 1.12123 0
M  V30 1081 O 107.896 -3.99801 0.390153 0
M  V30 1082 N 106.102 -2.76276 0.901097 0
M  V30 1083 H 105.649 -2.09613 1.49733 0
M  V30 1084 H 105.607 -3.1417 0.120319 0
M  V30 1085 N 109.379 -1.50304 -0.473955 0
M  V30 1086 C 110.312 -1.63595 -1.59097 0
M  V30 1087 C 111.29 -0.484142 -1.55225 0
M  V30 1088 O 112.474 -0.703271 -1.7489 0
M  V30 1089 C 109.601 -1.61589 -2.97669 0
M  V30 1090 C 108.647 -2.82295 -3.19705 0
M  V30 1091 S 109.48 -4.43635 -2.99913 0
M  V30 1092 C 110.636 -4.44317 -4.40832 0
M  V30 1093 H 110.869 -2.58082 -1.47583 0
M  V30 1094 H 108.402 -1.39531 -0.661087 0
M  V30 1095 H 110.36 -1.61116 -3.7756 0
M  V30 1096 H 109.021 -0.683421 -3.06575 0
M  V30 1097 H 108.214 -2.77188 -4.20931 0
M  V30 1098 H 107.816 -2.8032 -2.47582 0
M  V30 1099 H 110.108 -4.17703 -5.33414 0
M  V30 1100 H 111.051 -5.45911 -4.50984 0
M  V30 1101 H 111.459 -3.74059 -4.22777 0
M  V30 1102 N 110.857 0.726932 -1.39834 0
M  V30 1103 C 112.085 1.51613 -1.40787 0
M  V30 1104 C 112.5 1.88799 -0.00451505 0
M  V30 1105 O 111.857 1.54662 0.968809 0
M  V30 1106 C 111.908 2.79863 -2.28821 0
M  V30 1107 O 111.629 2.44253 -3.63692 0
M  V30 1108 C 113.13 3.73837 -2.38245 0
M  V30 1109 H 110.35 0.468264 -0.480593 0
M  V30 1110 H 112.894 0.897607 -1.83748 0
M  V30 1111 H 111.049 3.38027 -1.89252 0
M  V30 1112 H 111.463 3.26695 -4.1033 0
M  V30 1113 H 112.937 4.60699 -3.04073 0
M  V30 1114 H 113.414 4.16153 -1.40403 0
M  V30 1115 H 114.02 3.21589 -2.78317 0
M  V30 1116 N 112.336 1.25143 0.95797 0
M  V30 1117 C 113.284 1.05019 2.07542 0
M  V30 1118 C 114.278 -0.0178751 1.69391 0
M  V30 1119 O 115.484 0.137472 1.79474 0
M  V30 1120 H 111.859 0.32265 0.679265 0
M  V30 1121 H 113.83 1.99759 2.21673 0
M  V30 1122 C 112.579 0.682074 3.40944 0
M  V30 1123 H 111.902 1.49573 3.70767 0
M  V30 1124 H 113.342 0.580945 4.20001 0
M  V30 1125 C 111.801 -0.611608 3.31302 0
M  V30 1126 O 112.331 -1.65465 3.66038 0
M  V30 1127 N 110.537 -0.595982 2.84423 0
M  V30 1128 H 110.084 0.253192 2.56353 0
M  V30 1129 H 110.042 -1.46173 2.78354 0
M  V30 1130 N 113.814 -1.1601 1.06675 0
M  V30 1131 C 115.06 -1.86909 0.786945 0
M  V30 1132 C 115.393 -1.81717 -0.685018 0
M  V30 1133 O 114.668 -1.23551 -1.50218 0
M  V30 1134 C 114.951 -3.36313 1.28707 0
M  V30 1135 C 114.804 -3.50175 2.82308 0
M  V30 1136 C 116.123 -4.3084 0.898071 0
M  V30 1137 H 113.242 -0.678677 0.287343 0
M  V30 1138 H 115.884 -1.36336 1.32334 0
M  V30 1139 H 114.034 -3.79513 0.830768 0
M  V30 1140 H 115.706 -3.15886 3.36175 0
M  V30 1141 H 113.949 -2.91959 3.20847 0
M  V30 1142 H 114.62 -4.55116 3.12368 0
M  V30 1143 H 117.096 -3.95561 1.29114 0
M  V30 1144 H 115.972 -5.33876 1.27543 0
M  V30 1145 H 116.233 -4.41662 -0.196651 0
M  V30 1146 N 115.292 -0.849877 -1.32721 0
M  V30 1147 C 116.539 -0.450923 -1.97416 0
M  V30 1148 C 116.867 0.992376 -1.67279 0
M  V30 1149 O 116.122 1.71048 -0.950845 0
M  V30 1150 C 116.421 -0.631272 -3.51781 0
M  V30 1151 C 116.087 -2.04432 -4.01894 0
M  V30 1152 C 114.749 -2.4308 -4.1529 0
M  V30 1153 C 117.101 -2.96679 -4.28522 0
M  V30 1154 C 114.429 -3.73257 -4.52654 0
M  V30 1155 C 116.781 -4.26349 -4.67343 0
M  V30 1156 C 115.445 -4.64939 -4.78945 0
M  V30 1157 H 114.715 -0.165004 -0.722395 0
M  V30 1158 H 117.362 -1.07901 -1.58207 0
M  V30 1159 H 115.667 0.0800767 -3.91718 0
M  V30 1160 H 117.364 -0.302709 -3.99856 0
M  V30 1161 H 113.954 -1.73419 -3.91949 0
M  V30 1162 H 118.138 -2.68054 -4.17685 0
M  V30 1163 H 113.394 -4.02946 -4.59831 0
M  V30 1164 H 117.568 -4.97895 -4.86902 0
M  V30 1165 H 115.195 -5.65855 -5.07654 0
M  V30 1166 N 116.77 1.45427 -0.607355 0
M  V30 1167 C 118.019 2.01452 -0.100036 0
M  V30 1168 C 118.332 1.48159 1.27704 0
M  V30 1169 O 119.538 1.96159 1.87707 0
M  V30 1170 C 117.994 3.59672 -0.128158 0
M  V30 1171 C 117.602 4.21962 -1.50507 0
M  V30 1172 C 119.346 4.23262 0.323932 0
M  V30 1173 C 117.253 5.72333 -1.48959 0
M  V30 1174 H 116.183 0.75325 -0.0336299 0
M  V30 1175 H 118.834 1.66901 -0.76265 0
M  V30 1176 H 117.216 3.91411 0.601105 0
M  V30 1177 H 118.39 4.01796 -2.25602 0
M  V30 1178 H 116.705 3.70565 -1.89923 0
M  V30 1179 H 119.302 5.33522 0.354691 0
M  V30 1180 H 119.645 3.93921 1.34656 0
M  V30 1181 H 120.178 3.96239 -0.352056 0
M  V30 1182 H 116.917 6.06373 -2.48981 0
M  V30 1183 H 116.437 5.94691 -0.781214 0
M  V30 1184 H 118.116 6.35525 -1.21313 0
M  V30 1185 N 118.248 0.346503 1.53744 0
M  V30 1186 C 119.494 -0.249473 2.0126 0
M  V30 1187 C 119.827 -1.49965 1.23386 0
M  V30 1188 O 119.102 -1.91811 0.32229 0
M  V30 1189 C 119.385 -0.560643 3.55709 0
M  V30 1190 C 119.238 0.701836 4.44291 0
M  V30 1191 C 120.557 -1.36905 4.18264 0
M  V30 1192 H 117.676 -0.0891987 0.731582 0
M  V30 1193 H 120.318 0.467624 1.84156 0
M  V30 1194 H 118.468 -1.17156 3.70414 0
M  V30 1195 H 120.14 1.33974 4.41417 0
M  V30 1196 H 118.383 1.32612 4.13033 0
M  V30 1197 H 119.054 0.43933 5.50249 0
M  V30 1198 H 121.53 -0.852448 4.07275 0
M  V30 1199 H 120.406 -1.55553 5.26398 0
M  V30 1200 H 120.667 -2.37203 3.73078 0
M  V30 1201 N 119.726 -1.57421 0.075193 0
M  V30 1202 C 120.951 -1.98364 -0.605515 0
M  V30 1203 C 121.376 -0.953383 -1.62149 0
M  V30 1204 O 120.734 0.0806053 -1.81121 0
M  V30 1205 C 120.782 -3.38332 -1.24756 0
M  V30 1206 O 119.886 -3.37959 -2.36342 0
M  V30 1207 H 119.227 -0.645553 -0.155428 0
M  V30 1208 H 121.757 -2.04044 0.150714 0
M  V30 1209 H 121.767 -3.75591 -1.5936 0
M  V30 1210 H 120.442 -4.12846 -0.503129 0
M  V30 1211 H 119.019 -3.12474 -2.03506 0
M  V30 1212 N 121.204 0.198386 -1.56346 0
M  V30 1213 C 122.134 1.24865 -1.9731 0
M  V30 1214 C 123.115 1.47651 -0.844576 0
M  V30 1215 O 124.3 1.59444 -1.10866 0
M  V30 1216 C 121.43 2.59358 -2.30977 0
M  V30 1217 C 120.384 2.5119 -3.46537 0
M  V30 1218 C 119.71 3.89926 -3.65871 0
M  V30 1219 C 121.01 2.03977 -4.80823 0
M  V30 1220 H 122.704 0.908252 -2.85291 0
M  V30 1221 H 120.25 0.435462 -1.37258 0
M  V30 1222 H 122.203 3.33011 -2.58228 0
M  V30 1223 H 120.927 2.95132 -1.39874 0
M  V30 1224 H 119.586 1.79993 -3.19371 0
M  V30 1225 H 119.234 4.23046 -2.72105 0
M  V30 1226 H 118.934 3.85336 -4.4361 0
M  V30 1227 H 120.458 4.65205 -3.95495 0
M  V30 1228 H 121.872 2.67386 -5.07127 0
M  V30 1229 H 120.269 2.10397 -5.62008 0
M  V30 1230 H 121.339 0.992861 -4.74626 0
M  V30 1231 N 122.682 1.50554 0.465978 0
M  V30 1232 C 123.645 1.69233 1.54574 0
M  V30 1233 C 124.645 0.562901 1.50626 0
M  V30 1234 O 125.835 0.830016 1.53155 0
M  V30 1235 C 122.967 1.7223 2.94193 0
M  V30 1236 H 124.16 2.65571 1.39327 0
M  V30 1237 H 121.713 1.40111 0.692711 0
M  V30 1238 H 122.448 0.77603 3.14878 0
M  V30 1239 H 122.233 2.54285 2.98466 0
M  V30 1240 H 123.723 1.88618 3.72576 0
M  V30 1241 N 124.16 -0.719506 1.40217 0
M  V30 1242 C 125.406 -1.48152 1.38488 0
M  V30 1243 C 125.739 -1.94195 -0.0141867 0
M  V30 1244 O 125.014 -1.67884 -0.982096 0
M  V30 1245 C 125.297 -2.71035 2.37091 0
M  V30 1246 C 125.15 -2.30912 3.86005 0
M  V30 1247 C 126.469 -3.73182 2.33288 0
M  V30 1248 H 123.588 -0.537395 0.504357 0
M  V30 1249 H 126.23 -0.821472 1.71324 0
M  V30 1250 H 124.38 -3.27352 2.0922 0
M  V30 1251 H 126.052 -1.80107 4.24687 0
M  V30 1252 H 124.295 -1.62958 4.02029 0
M  V30 1253 H 124.966 -3.18978 4.50508 0
M  V30 1254 H 127.442 -3.26485 2.57966 0
M  V30 1255 H 126.318 -4.56806 3.04334 0
M  V30 1256 H 126.579 -4.21202 1.34317 0
M  V30 1257 N 125.638 -1.25649 -0.95132 0
M  V30 1258 C 126.863 -1.13443 -1.73624 0
M  V30 1259 C 127.288 0.307565 -1.85568 0
M  V30 1260 O 126.646 1.22282 -1.33854 0
M  V30 1261 C 126.694 -1.79723 -3.12621 0
M  V30 1262 O 125.798 -1.07912 -3.98031 0
M  V30 1263 H 125.139 -0.395872 -0.533086 0
M  V30 1264 H 127.669 -1.66276 -1.1922 0
M  V30 1265 H 127.679 -1.86141 -3.63064 0
M  V30 1266 H 126.354 -2.84633 -3.03244 0
M  V30 1267 H 124.931 -1.09398 -3.56492 0
M  V30 1268 N 127.117 1.15442 -1.07289 0
M  V30 1269 C 128.394 1.82306 -0.708792 0
M  V30 1270 C 128.774 1.94991 0.808807 0
M  V30 1271 O 128.122 1.50085 1.72298 0
M  V30 1272 C 128.332 3.18695 -1.42247 0
M  V30 1273 C 129.68 3.94341 -1.57417 0
M  V30 1274 O 130.704 3.28247 -1.38319 0
M  V30 1275 O 129.563 5.12839 -1.88834 0
M  V30 1276 H 126.657 0.787628 -0.252132 0
M  V30 1277 H 129.203 1.22559 -1.17377 0
M  V30 1278 H 127.975 3.04557 -2.45684 0
M  V30 1279 H 127.598 3.86128 -0.948223 0
M  V30 1280 N 128.595 0.856903 1.32268 0
M  V30 1281 C 129.525 0.31858 2.31316 0
M  V30 1282 C 130.506 -0.583487 1.59779 0
M  V30 1283 O 131.691 -0.503259 1.87566 0
M  V30 1284 C 128.821 -0.491979 3.43798 0
M  V30 1285 C 127.775 0.315849 4.26833 0
M  V30 1286 C 127.101 -0.619586 5.31098 0
M  V30 1287 C 128.401 1.54282 4.98993 0
M  V30 1288 H 130.095 1.14621 2.76591 0
M  V30 1289 H 127.641 0.552613 1.32974 0
M  V30 1290 H 129.594 -0.879012 4.1213 0
M  V30 1291 H 128.318 -1.35299 2.97257 0
M  V30 1292 H 126.977 0.684664 3.6015 0
M  V30 1293 H 126.625 -1.47751 4.8081 0
M  V30 1294 H 126.325 -0.0830621 5.87541 0
M  V30 1295 H 127.849 -1.00375 6.02293 0
M  V30 1296 H 129.263 1.22796 5.59995 0
M  V30 1297 H 127.66 2.01745 5.65172 0
M  V30 1298 H 128.73 2.30285 4.26728 0
M  V30 1299 N 130.073 -1.45103 0.615059 0
M  V30 1300 C 131.32 -2.02183 0.113179 0
M  V30 1301 C 131.648 -1.48249 -1.25906 0
M  V30 1302 O 130.903 -0.650265 -1.84581 0
M  V30 1303 C 131.202 -3.57386 0.0318797 0
M  V30 1304 C 130.868 -4.30505 1.34077 0
M  V30 1305 C 129.53 -4.50197 1.69929 0
M  V30 1306 C 131.882 -4.72238 2.20546 0
M  V30 1307 C 129.21 -5.08881 2.91988 0
M  V30 1308 C 131.562 -5.32272 3.41861 0
M  V30 1309 C 130.226 -5.50187 3.77956 0
M  V30 1310 H 129.496 -0.739842 0.0414151 0
M  V30 1311 H 132.143 -1.74073 0.798168 0
M  V30 1312 H 130.448 -3.84817 -0.736409 0
M  V30 1313 H 132.145 -3.99264 -0.372712 0
M  V30 1314 H 128.735 -4.15496 1.05173 0
M  V30 1315 H 132.919 -4.56751 1.94146 0
M  V30 1316 H 128.175 -5.20939 3.2005 0
M  V30 1317 H 132.349 -5.63563 4.09109 0
M  V30 1318 H 129.976 -5.95427 4.72622 0
M  V30 1319 N 131.551 -0.354651 -1.53558 0
M  V30 1320 C 132.797 0.238797 -2.01389 0
M  V30 1321 C 133.13 1.49309 -1.2418 0
M  V30 1322 O 132.405 1.91638 -0.332457 0
M  V30 1323 C 132.688 0.541771 -3.56001 0
M  V30 1324 C 132.541 -0.725388 -4.43912 0
M  V30 1325 C 133.86 1.34685 -4.18984 0
M  V30 1326 H 130.979 0.0853177 -0.732045 0
M  V30 1327 H 133.621 -0.477384 -1.83905 0
M  V30 1328 H 131.771 1.15189 -3.71031 0
M  V30 1329 H 133.443 -1.36313 -4.407 0
M  V30 1330 H 131.686 -1.34801 -4.12324 0
M  V30 1331 H 132.357 -0.468505 -5.50008 0
M  V30 1332 H 134.833 0.830837 -4.07721 0
M  V30 1333 H 133.709 1.52759 -5.27215 0
M  V30 1334 H 133.97 2.35221 -3.74331 0
M  V30 1335 N 133.029 1.57378 -0.0835403 0
M  V30 1336 C 133.992 2.12252 0.864959 0
M  V30 1337 C 134.992 1.04916 1.21858 0
M  V30 1338 O 136.182 1.30853 1.14991 0
M  V30 1339 C 133.314 2.63358 2.16461 0
M  V30 1340 H 134.507 2.97371 0.388676 0
M  V30 1341 H 132.06 1.55423 0.165317 0
M  V30 1342 H 132.795 1.81727 2.686 0
M  V30 1343 H 132.58 3.41826 1.92087 0
M  V30 1344 H 134.07 3.05847 2.84337 0
M  V30 1345 N 134.507 -0.190092 1.56449 0
M  V30 1346 C 135.437 -1.23816 1.97969 0
M  V30 1347 C 136.418 -1.47201 0.852395 0
M  V30 1348 O 137.603 -1.58854 1.1171 0
M  V30 1349 C 134.733 -2.5813 2.3235 0
M  V30 1350 C 133.687 -2.49348 3.47864 0
M  V30 1351 C 133.013 -3.8798 3.67934 0
M  V30 1352 C 134.313 -2.01424 4.81898 0
M  V30 1353 H 136.007 -0.89311 2.85769 0
M  V30 1354 H 133.553 -0.428177 1.37487 0
M  V30 1355 H 135.506 -3.31637 2.59991 0
M  V30 1356 H 134.23 -2.94386 1.41438 0
M  V30 1357 H 132.889 -1.78297 3.20321 0
M  V30 1358 H 132.537 -4.21597 2.74344 0
M  V30 1359 H 132.237 -3.82978 4.45648 0
M  V30 1360 H 133.761 -4.63101 3.97957 0
M  V30 1361 H 135.175 -2.64693 5.08538 0
M  V30 1362 H 133.572 -2.07413 5.63116 0
M  V30 1363 H 134.642 -0.967677 4.75146 0
M  V30 1364 N 135.985 -1.50799 -0.457987 0
M  V30 1365 C 136.915 -1.73553 -1.5621 0
M  V30 1366 C 137.896 -0.584774 -1.59732 0
M  V30 1367 O 139.081 -0.825314 -1.7579 0
M  V30 1368 C 136.211 -1.84169 -2.94447 0
M  V30 1369 C 135.165 -2.99461 -3.0579 0
M  V30 1370 C 134.491 -2.95235 -4.45803 0
M  V30 1371 C 135.791 -4.39766 -2.81786 0
M  V30 1372 H 137.485 -2.66 -1.37421 0
M  V30 1373 H 135.031 -1.28002 -0.659662 0
M  V30 1374 H 136.984 -1.98672 -3.71628 0
M  V30 1375 H 135.708 -0.883545 -3.14422 0
M  V30 1376 H 134.367 -2.8463 -2.31044 0
M  V30 1377 H 134.015 -1.97239 -4.62715 0
M  V30 1378 H 133.715 -3.72642 -4.54326 0
M  V30 1379 H 135.239 -3.11803 -5.24987 0
M  V30 1380 H 136.653 -4.55054 -3.4871 0
M  V30 1381 H 135.05 -5.18722 -3.0174 0
M  V30 1382 H 136.12 -4.51229 -1.7754 0
M  V30 1383 N 137.463 0.71206 -1.40597 0
M  V30 1384 C 138.709 1.47416 -1.39271 0
M  V30 1385 C 139.042 1.942 0.00388791 0
M  V30 1386 O 138.317 1.68403 0.973179 0
M  V30 1387 C 138.6 2.69774 -2.38525 0
M  V30 1388 C 138.453 2.28861 -3.87224 0
M  V30 1389 C 139.772 3.71939 -2.35264 0
M  V30 1390 H 136.891 0.534713 -0.5072 0
M  V30 1391 H 139.533 0.812375 -1.71757 0
M  V30 1392 H 137.683 3.26238 -2.10953 0
M  V30 1393 H 139.355 1.77852 -4.25636 0
M  V30 1394 H 137.598 1.60824 -4.02887 0
M  V30 1395 H 138.269 3.16584 -4.52193 0
M  V30 1396 H 140.745 3.25113 -2.59694 0
M  V30 1397 H 139.621 4.55186 -3.06753 0
M  V30 1398 H 139.882 4.20484 -1.36549 0
M  V30 1399 N 138.941 1.26152 0.944643 0
M  V30 1400 C 139.874 1.01729 2.04271 0
M  V30 1401 C 140.852 -0.0568101 1.62501 0
M  V30 1402 O 142.036 0.0848987 1.88309 0
M  V30 1403 C 139.163 0.539792 3.34371 0
M  V30 1404 C 138.209 1.60593 3.9511 0
M  V30 1405 S 139.042 3.19392 4.29825 0
M  V30 1406 C 140.198 2.73402 5.63029 0
M  V30 1407 H 140.431 1.94703 2.24673 0
M  V30 1408 H 137.964 1.09793 1.08558 0
M  V30 1409 H 139.922 0.270956 4.09605 0
M  V30 1410 H 138.583 -0.369609 3.11918 0
M  V30 1411 H 137.776 1.22275 4.88943 0
M  V30 1412 H 137.378 1.82596 3.26397 0
M  V30 1413 H 139.67 2.1765 6.41588 0
M  V30 1414 H 140.613 3.65913 6.06229 0
M  V30 1415 H 141.021 2.13077 5.22741 0
M  V30 1416 N 140.419 -1.14872 1.07899 0
M  V30 1417 C 141.83 -1.67367 0.827363 0
M  V30 1418 C 142.181 -1.85236 -0.646693 0
M  V30 1419 O 141.306 -1.55974 -1.50004 0
M  V30 1420 C 141.901 -3.04016 1.49532 0
M  V30 1421 C 140.46 -3.53566 1.29106 0
M  V30 1422 C 139.607 -2.29161 1.56143 0
M  V30 1423 H 142.558 -0.990083 1.24028 0
M  V30 1424 H 142.579 -3.69219 0.919643 0
M  V30 1425 H 142.091 -2.90978 2.56814 0
M  V30 1426 H 140.192 -3.71835 0.238713 0
M  V30 1427 H 140.305 -4.34661 2.01511 0
M  V30 1428 H 138.669 -2.34978 0.982717 0
M  V30 1429 H 139.452 -2.18705 2.64619 0
M  V30 1430 N 141.898 -0.863906 -1.31812 0
M  V30 1431 C 143.144 -0.481841 -1.9761 0
M  V30 1432 C 143.499 0.954048 -1.6708 0
M  V30 1433 O 142.792 1.66182 -0.953624 0
M  V30 1434 C 142.986 -0.668547 -3.51091 0
M  V30 1435 C 142.815 -2.12103 -3.96538 0
M  V30 1436 C 141.585 -2.76141 -4.23171 0
M  V30 1437 C 143.783 -3.09265 -4.10925 0
M  V30 1438 N 141.765 -4.12205 -4.54929 0
M  V30 1439 C 143.136 -4.30341 -4.46326 0
M  V30 1440 C 145.191 -3.05337 -3.93286 0
M  V30 1441 C 143.894 -5.48 -4.65928 0
M  V30 1442 C 145.92 -4.22248 -4.14078 0
M  V30 1443 C 145.282 -5.42085 -4.49804 0
M  V30 1444 H 141.381 -0.225238 -0.74886 0
M  V30 1445 H 143.965 -1.11723 -1.59455 0
M  V30 1446 H 142.136 -0.0627898 -3.88349 0
M  V30 1447 H 143.868 -0.255467 -4.03893 0
M  V30 1448 H 140.623 -2.27125 -4.15585 0
M  V30 1449 H 141.047 -4.82416 -4.74978 0
M  V30 1450 H 145.689 -2.138 -3.64759 0
M  V30 1451 H 143.407 -6.40059 -4.93305 0
M  V30 1452 H 146.993 -4.20654 -4.01922 0
M  V30 1453 H 145.873 -6.31044 -4.65567 0
M  V30 1454 N 143.376 1.44774 -0.622745 0
M  V30 1455 C 144.323 2.30635 0.0871679 0
M  V30 1456 C 145.293 1.42994 0.845097 0
M  V30 1457 O 146.478 1.71907 0.827812 0
M  V30 1458 C 143.618 3.28144 1.06844 0
M  V30 1459 C 142.731 4.30888 0.309809 0
M  V30 1460 C 141.866 5.15494 1.28215 0
M  V30 1461 C 140.905 6.09953 0.512198 0
M  V30 1462 N 140.042 6.87287 1.43458 0
M  V30 1463 H 144.882 2.90803 -0.650974 0
M  V30 1464 H 142.419 1.43286 -0.33281 0
M  V30 1465 H 144.377 3.83157 1.65066 0
M  V30 1466 H 143.007 2.69695 1.77382 0
M  V30 1467 H 142.059 3.78414 -0.388181 0
M  V30 1468 H 143.371 4.97955 -0.290254 0
M  V30 1469 H 142.525 5.74983 1.93596 0
M  V30 1470 H 141.264 4.48481 1.91614 0
M  V30 1471 H 140.269 5.49581 -0.155151 0
M  V30 1472 H 141.494 6.78999 -0.116958 0
M  V30 1473 H 139.44 6.2295 2.05594 0
M  V30 1474 H 139.357 7.50763 0.888335 0
M  V30 1475 H 140.625 7.51306 2.07749 0
M  V30 1476 N 144.854 0.36279 1.53368 0
M  V30 1477 C 145.817 -0.472679 2.24273 0
M  V30 1478 C 146.817 -1.012 1.24961 0
M  V30 1479 O 148.007 -0.898194 1.49259 0
M  V30 1480 C 145.139 -1.66039 2.97731 0
M  V30 1481 H 146.332 0.14773 2.99536 0
M  V30 1482 H 143.885 0.114434 1.55881 0
M  V30 1483 H 144.62 -2.31896 2.26704 0
M  V30 1484 H 144.405 -1.28066 3.70596 0
M  V30 1485 H 145.895 -2.25252 3.51641 0
M  V30 1486 N 146.332 -1.57332 0.0918853 0
M  V30 1487 C 147.578 -1.94524 -0.573425 0
M  V30 1488 C 147.911 -0.973578 -1.68033 0
M  V30 1489 O 147.186 -0.00609226 -1.94499 0
M  V30 1490 C 147.469 -3.41858 -1.13161 0
M  V30 1491 C 147.322 -4.4979 -0.0299747 0
M  V30 1492 C 148.641 -3.90435 -2.03098 0
M  V30 1493 H 145.76 -0.70734 -0.206975 0
M  V30 1494 H 148.402 -1.89309 0.161942 0
M  V30 1495 H 146.552 -3.46433 -1.7583 0
M  V30 1496 H 148.224 -4.57327 0.604112 0
M  V30 1497 H 146.467 -4.291 0.636833 0
M  V30 1498 H 147.138 -5.50069 -0.461287 0
M  V30 1499 H 149.614 -3.87992 -1.50338 0
M  V30 1500 H 148.49 -4.94097 -2.39081 0
M  V30 1501 H 148.751 -3.29541 -2.94712 0
M  V30 1502 N 147.81 0.181792 -1.56548 0
M  V30 1503 C 148.773 1.20894 -1.94724 0
M  V30 1504 C 149.773 1.37738 -0.829747 0
M  V30 1505 O 150.963 1.35323 -1.09697 0
M  V30 1506 C 148.095 2.57593 -2.23291 0
M  V30 1507 H 149.288 0.882275 -2.86629 0
M  V30 1508 H 146.841 0.423838 -1.50444 0
M  V30 1509 H 147.576 2.95291 -1.34067 0
M  V30 1510 H 147.361 2.46735 -3.04736 0
M  V30 1511 H 148.851 3.31637 -2.53785 0
M  V30 1512 N 149.288 1.51039 0.449983 0
M  V30 1513 C 150.198 1.74261 1.57067 0
M  V30 1514 C 151.214 0.626363 1.62335 0
M  V30 1515 O 152.39 0.907162 1.79812 0
M  V30 1516 C 149.455 1.85114 2.93144 0
M  V30 1517 C 148.516 3.0893 2.98095 0
M  V30 1518 C 147.749 3.19256 4.27681 0
M  V30 1519 O 147.972 2.35835 5.19363 0
M  V30 1520 O 146.906 4.12144 4.38658 0
M  V30 1521 H 150.732 2.69303 1.40391 0
M  V30 1522 H 148.317 1.35389 0.631688 0
M  V30 1523 H 150.199 1.94311 3.73926 0
M  V30 1524 H 148.874 0.932588 3.09975 0
M  V30 1525 H 147.781 3.0522 2.16314 0
M  V30 1526 H 149.114 4.00433 2.86206 0
M  V30 1527 N 150.766 -0.704594 1.40972 0
M  V30 1528 C 152.012 -1.46675 1.40051 0
M  V30 1529 C 152.345 -1.94199 0.00641102 0
M  V30 1530 O 151.62 -1.68916 -0.964235 0
M  V30 1531 C 151.903 -2.68505 2.39952 0
M  V30 1532 C 151.756 -2.26805 3.88432 0
M  V30 1533 C 153.075 -3.70686 2.37233 0
M  V30 1534 H 150.194 -0.532015 0.510028 0
M  V30 1535 H 152.836 -0.803255 1.72185 0
M  V30 1536 H 150.986 -3.25114 2.1268 0
M  V30 1537 H 152.658 -1.75592 4.26574 0
M  V30 1538 H 150.901 -1.58685 4.03734 0
M  V30 1539 H 151.572 -3.14181 4.53866 0
M  V30 1540 H 154.048 -3.23731 2.61415 0
M  V30 1541 H 152.924 -4.53553 3.09162 0
M  V30 1542 H 153.185 -4.19754 1.38777 0
M  V30 1543 N 152.244 -1.26651 -0.937939 0
M  V30 1544 C 153.207 -1.08546 -2.01867 0
M  V30 1545 C 154.207 -0.0327327 -1.60767 0
M  V30 1546 O 155.397 -0.276427 -1.71993 0
M  V30 1547 C 152.529 -0.651711 -3.34613 0
M  V30 1548 H 153.722 -2.04502 -2.1936 0
M  V30 1549 H 151.275 -1.09294 -1.11734 0
M  V30 1550 H 152.01 0.309696 -3.22818 0
M  V30 1551 H 151.795 -1.41189 -3.65798 0
M  V30 1552 H 153.285 -0.546973 -4.14002 0
M  V30 1553 N 153.722 1.14298 -1.08507 0
M  V30 1554 C 154.97 1.84993 -0.813763 0
M  V30 1555 C 155.291 1.83405 0.662393 0
M  V30 1556 O 154.561 1.28319 1.48024 0
M  V30 1557 H 153.141 0.684966 -0.298045 0
M  V30 1558 H 155.803 1.385 -1.37126 0
M  V30 1559 H 154.899 2.89788 -1.15884 0
M  V30 1560 N 155.201 0.870884 1.31352 0
M  V30 1561 C 156.431 0.496049 2.00557 0
M  V30 1562 C 156.839 -0.916241 1.65534 0
M  V30 1563 O 156.182 -1.61188 0.881134 0
M  V30 1564 C 156.244 0.574418 3.54881 0
M  V30 1565 C 155.908 1.94849 4.1338 0
M  V30 1566 C 156.905 2.91611 4.30417 0
M  V30 1567 C 154.59 2.25005 4.49086 0
M  V30 1568 C 156.584 4.16672 4.82352 0
M  V30 1569 C 154.271 3.50315 5.00722 0
M  V30 1570 C 155.269 4.45964 5.17306 0
M  V30 1571 O 154.957 5.69052 5.67833 0
M  V30 1572 H 154.689 0.191664 0.64826 0
M  V30 1573 H 157.243 1.17409 1.68536 0
M  V30 1574 H 155.473 -0.160549 3.86367 0
M  V30 1575 H 157.162 0.212879 4.05341 0
M  V30 1576 H 157.928 2.69622 4.03149 0
M  V30 1577 H 153.807 1.51332 4.35453 0
M  V30 1578 H 157.351 4.91336 4.95211 0
M  V30 1579 H 153.248 3.72147 5.27424 0
M  V30 1580 H 154.016 5.71236 5.86201 0
M  V30 1581 N 156.679 -1.44442 0.630414 0
M  V30 1582 C 157.925 -2.02894 0.143332 0
M  V30 1583 C 158.28 -1.48697 -1.22094 0
M  V30 1584 O 157.573 -0.661171 -1.79831 0
M  V30 1585 C 157.767 -3.57332 0.0697835 0
M  V30 1586 C 157.596 -4.26512 1.42539 0
M  V30 1587 C 156.366 -4.63516 2.01198 0
M  V30 1588 C 158.564 -4.57004 2.35907 0
M  V30 1589 N 156.546 -5.17661 3.30001 0
M  V30 1590 C 157.917 -5.12223 3.49324 0
M  V30 1591 C 159.972 -4.38955 2.34995 0
M  V30 1592 C 158.675 -5.51295 4.62024 0
M  V30 1593 C 160.701 -4.79075 3.46758 0
M  V30 1594 C 160.063 -5.34407 4.58899 0
M  V30 1595 H 156.162 -0.776041 0.0963523 0
M  V30 1596 H 158.746 -1.75945 0.833752 0
M  V30 1597 H 156.917 -3.83894 -0.589915 0
M  V30 1598 H 158.649 -4.02451 -0.42606 0
M  V30 1599 H 155.404 -4.47811 1.54151 0
M  V30 1600 H 155.828 -5.4921 3.95851 0
M  V30 1601 H 160.47 -3.95469 1.49545 0
M  V30 1602 H 158.188 -5.93736 5.48182 0
M  V30 1603 H 161.774 -4.66824 3.47227 0
M  V30 1604 H 160.654 -5.64878 5.4395 0
M  V30 1605 N 158.157 -0.370918 -1.53173 0
M  V30 1606 C 159.568 0.107139 -1.86392 0
M  V30 1607 C 159.919 1.47714 -1.29132 0
M  V30 1608 O 159.044 2.07464 -0.615439 0
M  V30 1609 C 159.639 0.201187 -3.38202 0
M  V30 1610 C 158.198 0.623507 -3.712 0
M  V30 1611 C 157.345 -0.225978 -2.76378 0
M  V30 1612 H 160.296 -0.58951 -1.47345 0
M  V30 1613 H 160.317 1.02377 -3.66468 0
M  V30 1614 H 159.829 -0.796058 -3.79848 0
M  V30 1615 H 157.93 1.62879 -3.35114 0
M  V30 1616 H 158.043 0.394414 -4.77474 0
M  V30 1617 H 156.407 0.305962 -2.52856 0
M  V30 1618 H 157.19 -1.22086 -3.20858 0
M  V30 1619 N 159.635 1.57281 -0.100228 0
M  V30 1620 C 160.882 1.94537 0.562268 0
M  V30 1621 C 161.21 0.982315 1.67871 0
M  V30 1622 O 160.465 0.00280936 1.957 0
M  V30 1623 C 160.764 3.38305 1.15259 0
M  V30 1624 C 160.43 4.50618 0.159409 0
M  V30 1625 C 159.092 4.81066 -0.113741 0
M  V30 1626 C 161.444 5.18615 -0.518461 0
M  V30 1627 C 158.772 5.76835 -1.07137 0
M  V30 1628 C 161.124 6.15412 -1.46459 0
M  V30 1629 C 159.788 6.44262 -1.74592 0
M  V30 1630 H 159.058 0.711863 0.205748 0
M  V30 1631 H 161.705 1.90679 -0.17715 0
M  V30 1632 H 160.01 3.38766 1.96836 0
M  V30 1633 H 161.707 3.64435 1.67297 0
M  V30 1634 H 158.297 4.2689 0.382491 0
M  V30 1635 H 162.481 4.95264 -0.320581 0
M  V30 1636 H 157.737 5.975 -1.29628 0
M  V30 1637 H 161.911 6.67194 -1.99564 0
M  V30 1638 H 159.538 7.1828 -2.48953 0
M  V30 1639 N 161.113 -0.173488 1.56642 0
M  V30 1640 C 162.361 -0.888706 1.81512 0
M  V30 1641 C 162.682 -1.82875 0.676872 0
M  V30 1642 O 161.952 -1.93536 -0.303414 0
M  V30 1643 H 160.532 -0.331164 0.669582 0
M  V30 1644 H 163.194 -0.173823 1.94123 0
M  V30 1645 H 162.29 -1.46691 2.75478 0
M  V30 1646 N 162.591 -1.51276 -0.441967 0
M  V30 1647 C 163.554 -1.7167 -1.51862 0
M  V30 1648 C 164.554 -0.586793 -1.49711 0
M  V30 1649 O 165.744 -0.854276 -1.51815 0
M  V30 1650 C 162.876 -1.76889 -2.91416 0
M  V30 1651 H 164.069 -2.67754 -1.35084 0
M  V30 1652 H 161.622 -1.41196 -0.670333 0
M  V30 1653 H 162.357 -0.826026 -3.13604 0
M  V30 1654 H 162.142 -2.59001 -2.94382 0
M  V30 1655 H 163.632 -1.94522 -3.69528 0
M  V30 1656 N 164.069 0.697108 -1.41344 0
M  V30 1657 C 165.316 1.45714 -1.40619 0
M  V30 1658 C 165.644 1.94494 -0.0147907 0
M  V30 1659 O 164.899 1.69794 0.973066 0
M  V30 1660 C 165.198 2.68553 -2.35826 0
M  V30 1661 C 164.864 2.38438 -3.82698 0
M  V30 1662 C 163.526 2.29936 -4.22709 0
M  V30 1663 C 165.878 2.13567 -4.75435 0
M  V30 1664 C 163.206 1.94656 -5.53467 0
M  V30 1665 C 165.558 1.79797 -6.06511 0
M  V30 1666 C 164.222 1.69789 -6.45545 0
M  V30 1667 H 163.492 0.533206 -0.51456 0
M  V30 1668 H 166.139 0.796901 -1.74131 0
M  V30 1669 H 164.444 3.39503 -1.95563 0
M  V30 1670 H 166.141 3.2669 -2.32539 0
M  V30 1671 H 162.731 2.4595 -3.51008 0
M  V30 1672 H 166.915 2.19082 -4.45328 0
M  V30 1673 H 162.171 1.8546 -5.82593 0
M  V30 1674 H 166.345 1.59572 -6.77872 0
M  V30 1675 H 163.972 1.4222 -7.46778 0
M  V30 1676 N 165.547 1.27147 0.931209 0
M  V30 1677 C 166.787 1.14511 1.69312 0
M  V30 1678 C 167.151 -0.304638 1.89568 0
M  V30 1679 O 168.352 -0.553343 2.63043 0
M  V30 1680 C 166.623 1.90349 3.02493 0
M  V30 1681 S 168.182 1.93884 3.93642 0
M  V30 1682 H 165 0.408858 0.581684 0
M  V30 1683 H 167.602 1.61006 1.10893 0
M  V30 1684 H 166.306 2.94877 2.85439 0
M  V30 1685 H 165.837 1.44333 3.65966 0
M  V30 1686 H 167.852 1.03273 4.85334 0
M  V30 1687 N 167.025 -1.13721 1.09112 0
M  V30 1688 C 168.302 -1.81155 0.737706 0
M  V30 1689 C 168.682 -1.96253 -0.777683 0
M  V30 1690 O 168.03 -1.52807 -1.69889 0
M  V30 1691 C 168.24 -3.16392 1.47299 0
M  V30 1692 C 169.588 -3.91787 1.63671 0
M  V30 1693 O 170.612 -3.26005 1.43524 0
M  V30 1694 O 169.471 -5.0977 1.96969 0
M  V30 1695 H 166.565 -0.783518 0.26463 0
M  V30 1696 H 169.111 -1.20676 1.19312 0
M  V30 1697 H 167.883 -3.0061 2.50498 0
M  V30 1698 H 167.506 -3.8457 1.00953 0
M  V30 1699 N 168.503 -0.877838 -1.30888 0
M  V30 1700 C 169.749 -0.493426 -1.96706 0
M  V30 1701 C 170.082 0.953504 -1.6918 0
M  V30 1702 O 169.357 1.67266 -0.992594 0
M  V30 1703 C 169.64 -0.760429 -3.51979 0
M  V30 1704 C 169.493 -2.25747 -3.89048 0
M  V30 1705 C 170.812 -0.232148 -4.39487 0
M  V30 1706 H 167.931 -0.180746 -0.714493 0
M  V30 1707 H 170.573 -1.10052 -1.54882 0
M  V30 1708 H 168.723 -0.243715 -3.87735 0
M  V30 1709 H 170.395 -2.84204 -3.63354 0
M  V30 1710 H 168.638 -2.72694 -3.37373 0
M  V30 1711 H 169.309 -2.39491 -4.97341 0
M  V30 1712 H 171.785 -0.674314 -4.106 0
M  V30 1713 H 170.661 -0.448355 -5.47066 0
M  V30 1714 H 170.922 0.866297 -4.33529 0
M  V30 1715 N 169.982 1.44106 -0.638065 0
M  V30 1716 C 171.228 2.02815 -0.15409 0
M  V30 1717 C 171.583 1.49342 1.21304 0
M  V30 1718 O 170.876 0.670699 1.79478 0
M  V30 1719 C 171.07 3.5729 -0.0887327 0
M  V30 1720 C 170.899 4.2575 -1.44799 0
M  V30 1721 C 169.669 4.62443 -2.03653 0
M  V30 1722 C 171.867 4.55746 -2.38327 0
M  V30 1723 N 169.849 5.15903 -3.32741 0
M  V30 1724 C 171.22 5.10364 -3.52036 0
M  V30 1725 C 173.275 4.37703 -2.3732 0
M  V30 1726 C 171.978 5.48837 -4.64941 0
M  V30 1727 C 174.004 4.77229 -3.49294 0
M  V30 1728 C 173.366 5.31966 -4.61726 0
M  V30 1729 H 169.465 0.775519 -0.100466 0
M  V30 1730 H 172.049 1.755 -0.843071 0
M  V30 1731 H 170.22 3.84201 0.569548 0
M  V30 1732 H 171.952 4.02671 0.404711 0
M  V30 1733 H 168.707 4.46987 -1.56523 0
M  V30 1734 H 169.131 5.47102 -3.98758 0
M  V30 1735 H 173.773 3.94671 -1.51641 0
M  V30 1736 H 171.491 5.9082 -5.51323 0
M  V30 1737 H 175.077 4.64976 -3.49698 0
M  V30 1738 H 173.957 5.61986 -5.46939 0
M  V30 1739 N 171.46 0.379036 1.52974 0
M  V30 1740 C 172.706 -0.206727 2.01744 0
M  V30 1741 C 173.039 -1.47314 1.26539 0
M  V30 1742 O 172.314 -1.91084 0.362903 0
M  V30 1743 C 172.597 -0.485066 3.56818 0
M  V30 1744 C 172.45 0.795919 4.42702 0
M  V30 1745 C 173.769 -1.28003 4.21074 0
M  V30 1746 H 170.888 -0.0736607 0.73331 0
M  V30 1747 H 173.53 0.506581 1.83122 0
M  V30 1748 H 171.68 -1.09272 3.72816 0
M  V30 1749 H 173.352 1.43307 4.38476 0
M  V30 1750 H 171.595 1.41344 4.10127 0
M  V30 1751 H 172.266 0.555947 5.49193 0
M  V30 1752 H 174.742 -0.765867 4.08991 0
M  V30 1753 H 173.618 -1.44352 5.29579 0
M  V30 1754 H 173.879 -2.29236 3.78026 0
M  V30 1755 N 172.938 -1.57226 0.108567 0
M  V30 1756 C 173.901 -2.13602 -0.831082 0
M  V30 1757 C 174.901 -1.06841 -1.20173 0
M  V30 1758 O 176.091 -1.32666 -1.12895 0
M  V30 1759 C 173.223 -2.66769 -2.12243 0
M  V30 1760 H 174.416 -2.97951 -0.341317 0
M  V30 1761 H 171.969 -1.55667 -0.14057 0
M  V30 1762 H 172.704 -1.85977 -2.65675 0
M  V30 1763 H 172.489 -3.44839 -1.86625 0
M  V30 1764 H 173.979 -3.10332 -2.79435 0
M  V30 1765 N 174.416 0.165178 -1.56732 0
M  V30 1766 C 175.663 0.880807 -1.8234 0
M  V30 1767 C 175.991 1.81977 -0.686621 0
M  V30 1768 O 175.246 1.92971 0.325697 0
M  V30 1769 C 175.545 1.70405 -3.1416 0
M  V30 1770 C 175.211 0.913475 -4.4155 0
M  V30 1771 C 173.873 0.695303 -4.7615 0
M  V30 1772 C 176.225 0.359349 -5.1996 0
M  V30 1773 C 173.553 -0.0879947 -5.86634 0
M  V30 1774 C 175.905 -0.410893 -6.31264 0
M  V30 1775 C 174.569 -0.639808 -6.64427 0
M  V30 1776 H 173.839 0.32231 -0.667231 0
M  V30 1777 H 176.486 0.145402 -1.90947 0
M  V30 1778 H 174.791 2.50903 -3.00923 0
M  V30 1779 H 176.488 2.26091 -3.31186 0
M  V30 1780 H 173.078 1.09357 -4.14414 0
M  V30 1781 H 177.262 0.515228 -4.93618 0
M  V30 1782 H 172.518 -0.27503 -6.10781 0
M  V30 1783 H 176.692 -0.847494 -6.91224 0
M  V30 1784 H 174.319 -1.24864 -7.49875 0
M  V30 1785 N 175.894 1.51508 0.433938 0
M  V30 1786 C 177.171 1.54888 1.19453 0
M  V30 1787 C 177.551 0.315154 2.08734 0
M  V30 1788 O 176.899 -0.699558 2.17528 0
M  V30 1789 C 177.109 2.86467 1.99342 0
M  V30 1790 C 178.457 3.38545 2.56267 0
M  V30 1791 O 179.481 2.88041 2.0955 0
M  V30 1792 O 178.34 4.26675 3.41483 0
M  V30 1793 H 175.434 0.622863 0.544032 0
M  V30 1794 H 177.98 1.63823 0.442732 0
M  V30 1795 H 176.752 3.67718 1.33788 0
M  V30 1796 H 176.375 2.8071 2.8158 0
M  V30 1797 N 177.372 -0.689602 1.41712 0
M  V30 1798 C 178.621 -1.44534 1.40686 0
M  V30 1799 C 178.934 -1.95588 0.0213352 0
M  V30 1800 O 180.14 -2.71271 -0.111534 0
M  V30 1801 C 178.596 -2.61387 2.47396 0
M  V30 1802 C 178.204 -2.17094 3.91885 0
M  V30 1803 C 179.948 -3.38986 2.55517 0
M  V30 1804 C 177.855 -3.3094 4.90135 0
M  V30 1805 H 176.785 -0.542925 0.52321 0
M  V30 1806 H 179.436 -0.748054 1.6756 0
M  V30 1807 H 177.818 -3.33412 2.13664 0
M  V30 1808 H 178.992 -1.52318 4.34897 0
M  V30 1809 H 177.307 -1.52473 3.8748 0
M  V30 1810 H 179.904 -4.23747 3.26102 0
M  V30 1811 H 180.247 -3.84578 1.59391 0
M  V30 1812 H 180.78 -2.74021 2.8837 0
M  V30 1813 H 177.519 -2.90355 5.87685 0
M  V30 1814 H 177.039 -3.94546 4.51767 0
M  V30 1815 H 178.718 -3.9663 5.11169 0
M  V30 1816 N 178.85 -1.27639 -0.924453 0
M  V30 1817 C 179.783 -1.04966 -2.02626 0
M  V30 1818 C 180.761 0.0309505 -1.62571 0
M  V30 1819 O 181.945 -0.114846 -1.8815 0
M  V30 1820 C 179.072 -0.59292 -3.3347 0
M  V30 1821 C 178.118 -1.66858 -3.92506 0
M  V30 1822 S 178.951 -3.2619 -4.24689 0
M  V30 1823 C 180.107 -2.82325 -5.58609 0
M  V30 1824 H 180.34 -1.98252 -2.21547 0
M  V30 1825 H 177.873 -1.11506 -1.06798 0
M  V30 1826 H 179.831 -0.336086 -4.09122 0
M  V30 1827 H 178.492 0.319939 -3.12466 0
M  V30 1828 H 177.685 -1.30038 -4.86935 0
M  V30 1829 H 177.287 -1.87766 -3.2345 0
M  V30 1830 H 179.579 -2.2783 -6.38044 0
M  V30 1831 H 180.522 -3.75511 -6.00331 0
M  V30 1832 H 180.93 -2.21367 -5.19285 0
M  V30 1833 N 180.328 1.1314 -1.09713 0
M  V30 1834 C 181.568 1.8613 -0.844683 0
M  V30 1835 C 181.932 1.81765 0.618491 0
M  V30 1836 O 183.133 2.50024 0.98699 0
M  V30 1837 C 181.404 3.30151 -1.36877 0
M  V30 1838 S 182.963 4.206 -1.25064 0
M  V30 1839 H 179.781 0.642056 -0.305427 0
M  V30 1840 H 182.383 1.36343 -1.4011 0
M  V30 1841 H 181.087 3.30883 -2.42786 0
M  V30 1842 H 180.618 3.85 -0.808614 0
M  V30 1843 H 182.633 4.95783 -0.203486 0
M  V30 1844 N 181.806 0.884767 1.30421 0
M  V30 1845 C 183.031 0.517288 2.00845 0
M  V30 1846 C 183.456 -0.886779 1.65885 0
M  V30 1847 O 182.814 -1.58768 0.875354 0
M  V30 1848 C 182.862 0.698994 3.5376 0
M  V30 1849 O 181.966 -0.255208 4.1161 0
M  V30 1850 H 181.307 0.203872 0.631927 0
M  V30 1851 H 183.837 1.19225 1.66272 0
M  V30 1852 H 183.847 0.597912 4.03595 0
M  V30 1853 H 182.522 1.72271 3.78544 0
M  V30 1854 H 181.099 -0.10784 3.72744 0
M  V30 1855 N 183.284 -1.43765 0.645699 0
M  V30 1856 C 184.512 -2.06253 0.163556 0
M  V30 1857 C 184.927 -1.48352 -1.16778 0
M  V30 1858 O 184.284 -0.611932 -1.71935 0
M  V30 1859 C 184.335 -3.61453 0.0583186 0
M  V30 1860 O 184.056 -4.172 1.33702 0
M  V30 1861 C 185.557 -4.41002 -0.450795 0
M  V30 1862 H 182.777 -0.665413 0.0864077 0
M  V30 1863 H 185.321 -1.84396 0.884222 0
M  V30 1864 H 183.476 -3.82522 -0.612865 0
M  V30 1865 H 183.89 -5.10791 1.19131 0
M  V30 1866 H 185.364 -5.49966 -0.473403 0
M  V30 1867 H 185.841 -4.13488 -1.48068 0
M  V30 1868 H 186.447 -4.24886 0.187637 0
M  V30 1869 N 184.763 -0.387143 -1.52771 0
M  V30 1870 C 185.726 0.436939 -2.24997 0
M  V30 1871 C 186.726 0.991991 -1.26555 0
M  V30 1872 O 187.916 0.874335 -1.50669 0
M  V30 1873 C 185.048 1.61281 -3.00335 0
M  V30 1874 H 186.241 -0.195365 -2.99263 0
M  V30 1875 H 183.794 -0.139218 -1.55679 0
M  V30 1876 H 184.529 2.2826 -2.30364 0
M  V30 1877 H 184.314 1.22154 -3.72587 0
M  V30 1878 H 185.804 2.19629 -3.5518 0
M  V30 1879 N 186.241 1.57166 -0.116904 0
M  V30 1880 C 187.466 1.999 0.55271 0
M  V30 1881 C 187.891 0.996039 1.59564 0
M  V30 1882 O 187.249 -0.032556 1.81271 0
M  V30 1883 C 187.297 3.4152 1.15742 0
M  V30 1884 O 186.401 3.44106 2.27299 0
M  V30 1885 H 185.742 0.649447 0.138258 0
M  V30 1886 H 188.272 2.03573 -0.204759 0
M  V30 1887 H 188.282 3.79684 1.49346 0
M  V30 1888 H 186.957 4.14034 0.393493 0
M  V30 1889 H 185.534 3.17759 1.9515 0
M  V30 1890 N 187.719 -0.156864 1.56817 0
M  V30 1891 C 188.968 -0.869504 1.81996 0
M  V30 1892 C 189.281 -1.82777 0.696545 0
M  V30 1893 O 190.487 -2.58384 0.833658 0
M  V30 1894 C 188.943 -1.59679 3.22538 0
M  V30 1895 C 188.551 -0.681431 4.42787 0
M  V30 1896 C 190.295 -2.2968 3.56997 0
M  V30 1897 C 188.202 -1.40978 5.74351 0
M  V30 1898 H 187.132 -0.328438 0.678708 0
M  V30 1899 H 189.783 -0.1223 1.83092 0
M  V30 1900 H 188.165 -2.38927 3.158 0
M  V30 1901 H 189.339 0.0751166 4.60739 0
M  V30 1902 H 187.654 -0.0903431 4.16302 0
M  V30 1903 H 190.251 -2.84794 4.52544 0
M  V30 1904 H 190.594 -3.05707 2.82576 0
M  V30 1905 H 191.127 -1.57361 3.65352 0
M  V30 1906 H 187.866 -0.691561 6.51842 0
M  V30 1907 H 187.386 -2.13929 5.60352 0
M  V30 1908 H 189.065 -1.95337 6.16808 0
M  V30 1909 N 189.197 -1.51736 -0.425897 0
M  V30 1910 C 190.127 -1.76827 -1.52494 0
M  V30 1911 C 191.108 -0.618524 -1.58456 0
M  V30 1912 O 192.293 -0.862416 -1.74 0
M  V30 1913 C 189.423 -1.90374 -2.90474 0
M  V30 1914 C 188.377 -3.0588 -2.99369 0
M  V30 1915 C 187.703 -3.04625 -4.3944 0
M  V30 1916 C 189.003 -4.45644 -2.72394 0
M  V30 1917 H 190.697 -2.68855 -1.31748 0
M  V30 1918 H 188.243 -1.29372 -0.632362 0
M  V30 1919 H 190.196 -2.0651 -3.6733 0
M  V30 1920 H 188.92 -0.95004 -3.12477 0
M  V30 1921 H 187.579 -2.89467 -2.24954 0
M  V30 1922 H 187.227 -2.0701 -4.58428 0
M  V30 1923 H 186.927 -3.82195 -4.46319 0
M  V30 1924 H 188.451 -3.22869 -5.18255 0
M  V30 1925 H 189.865 -4.62348 -3.38979 0
M  V30 1926 H 188.262 -5.25006 -2.9067 0
M  V30 1927 H 189.332 -4.54893 -1.67929 0
M  V30 1928 N 190.675 0.682077 -1.42076 0
M  V30 1929 C 191.623 1.81707 -1.45208 0
M  V30 1930 C 192.617 1.66183 -0.328591 0
M  V30 1931 O 193.823 1.7288 -0.501264 0
M  V30 1932 H 190.198 0.599014 -0.454628 0
M  V30 1933 H 192.169 1.76183 -2.40836 0
M  V30 1934 C 190.918 3.19816 -1.36428 0
M  V30 1935 H 190.241 3.32385 -2.22171 0
M  V30 1936 H 191.681 3.99272 -1.42681 0
M  V30 1937 C 190.14 3.36809 -0.078191 0
M  V30 1938 O 190.67 3.92124 0.87188 0
M  V30 1939 N 188.876 2.906 0.00229266 0
M  V30 1940 H 188.423 2.45772 -0.771616 0
M  V30 1941 H 188.381 3.02347 0.862179 0
M  V30 1942 N 192.153 1.28127 0.917671 0
M  V30 1943 C 193.083 1.14248 2.03641 0
M  V30 1944 C 194.064 0.0412748 1.7005 0
M  V30 1945 O 195.249 0.217566 1.92977 0
M  V30 1946 C 192.379 0.799431 3.37974 0
M  V30 1947 C 191.333 1.85497 3.85713 0
M  V30 1948 C 190.659 1.36565 5.16966 0
M  V30 1949 C 191.959 3.26085 4.08002 0
M  V30 1950 H 193.653 2.07835 2.15511 0
M  V30 1951 H 191.199 1.00064 1.03553 0
M  V30 1952 H 193.152 0.689114 4.15727 0
M  V30 1953 H 191.876 -0.172145 3.26146 0
M  V30 1954 H 190.535 1.95437 3.10161 0
M  V30 1955 H 190.183 0.383253 5.01538 0
M  V30 1956 H 189.883 2.07143 5.49878 0
M  V30 1957 H 191.407 1.26848 5.97279 0
M  V30 1958 H 192.821 3.19089 4.76293 0
M  V30 1959 H 191.218 3.94462 4.52238 0
M  V30 1960 H 192.288 3.70394 3.12948 0
M  V30 1961 N 193.631 -1.12557 1.10312 0
M  V30 1962 C 194.871 -1.8568 0.854543 0
M  V30 1963 C 195.235 -1.82091 -0.608843 0
M  V30 1964 O 196.436 -2.50544 -0.973717 0
M  V30 1965 C 194.707 -3.2942 1.38626 0
M  V30 1966 S 196.266 -4.19931 1.27293 0
M  V30 1967 H 193.084 -0.640427 0.308827 0
M  V30 1968 H 195.686 -1.35599 1.40831 0
M  V30 1969 H 194.39 -3.2959 2.44537 0
M  V30 1970 H 193.921 -3.84566 0.82902 0
M  V30 1971 H 195.936 -4.95668 0.229776 0
M  V30 1972 N 195.109 -0.891671 -1.2995 0
M  V30 1973 C 196.355 -0.514261 -1.96171 0
M  V30 1974 C 196.688 0.935506 -1.70182 0
M  V30 1975 O 195.963 1.66204 -1.01028 0
M  V30 1976 C 196.246 -0.797719 -3.51153 0
M  V30 1977 C 196.099 -2.2986 -3.86632 0
M  V30 1978 C 197.418 -0.278749 -4.39216 0
M  V30 1979 H 194.537 -0.188314 -0.712535 0
M  V30 1980 H 197.179 -1.11689 -1.53706 0
M  V30 1981 H 195.329 -0.284826 -3.87455 0
M  V30 1982 H 197.001 -2.88042 -3.60319 0
M  V30 1983 H 195.244 -2.76257 -3.34462 0
M  V30 1984 H 195.915 -2.44753 -4.94773 0
M  V30 1985 H 198.391 -0.717825 -4.09862 0
M  V30 1986 H 197.267 -0.506353 -5.46559 0
M  V30 1987 H 197.528 0.820266 -4.34424 0
M  V30 1988 N 196.587 1.43421 -0.653314 0
M  V30 1989 C 197.836 2.01032 -0.164076 0
M  V30 1990 C 198.149 1.52147 1.22926 0
M  V30 1991 O 199.355 2.02031 1.81371 0
M  V30 1992 C 197.811 3.59082 -0.24252 0
M  V30 1993 C 197.419 4.1696 -1.63855 0
M  V30 1994 C 199.163 4.24079 0.18911 0
M  V30 1995 C 197.07 5.67304 -1.67092 0
M  V30 1996 H 196 0.751798 -0.0575769 0
M  V30 1997 H 198.651 1.6439 -0.815362 0
M  V30 1998 H 197.033 3.93125 0.476276 0
M  V30 1999 H 198.207 3.94416 -2.38271 0
M  V30 2000 H 196.522 3.64335 -2.01616 0
M  V30 2001 H 199.119 5.34381 0.184775 0
M  V30 2002 H 199.462 3.98005 1.22056 0
M  V30 2003 H 199.995 3.94918 -0.477938 0
M  V30 2004 H 196.734 5.98145 -2.68146 0
M  V30 2005 H 196.254 5.91904 -0.970014 0
M  V30 2006 H 197.933 6.31344 -1.4147 0
M  V30 2007 N 198.065 0.39524 1.52563 0
M  V30 2008 C 199.29 -0.187456 2.06551 0
M  V30 2009 C 199.715 -1.39249 1.26457 0
M  V30 2010 O 199.073 -1.78947 0.291151 0
M  V30 2011 C 199.121 -0.529985 3.56684 0
M  V30 2012 O 198.225 -1.62307 3.79118 0
M  V30 2013 H 197.566 -0.0202537 0.663691 0
M  V30 2014 H 200.096 0.564426 1.96661 0
M  V30 2015 H 200.106 -0.792598 4.00227 0
M  V30 2016 H 198.781 0.350987 4.14416 0
M  V30 2017 H 197.358 -1.3537 3.47461 0
M  V30 2018 N 199.544 -1.57102 0.125237 0
M  V30 2019 C 200.79 -1.95697 -0.532035 0
M  V30 2020 C 201.123 -1.009 -1.6593 0
M  V30 2021 O 200.398 -0.047347 -1.94442 0
M  V30 2022 C 200.681 -3.44181 -1.05884 0
M  V30 2023 C 200.534 -4.49752 0.0654392 0
M  V30 2024 C 201.853 -3.94655 -1.9477 0
M  V30 2025 H 198.972 -0.711571 -0.191925 0
M  V30 2026 H 201.614 -1.88923 0.20206 0
M  V30 2027 H 199.764 -3.50085 -1.68442 0
M  V30 2028 H 201.436 -4.55943 0.700982 0
M  V30 2029 H 199.679 -4.27653 0.727709 0
M  V30 2030 H 200.35 -5.50924 -0.344505 0
M  V30 2031 H 202.826 -3.91094 -1.42074 0
M  V30 2032 H 201.702 -4.99057 -2.28546 0
M  V30 2033 H 201.963 -3.35718 -2.87656 0
M  V30 2034 N 201.022 0.148545 -1.56898 0
M  V30 2035 C 202.299 0.890019 -1.74178 0
M  V30 2036 C 202.679 1.99407 -0.692839 0
M  V30 2037 O 202.027 2.26671 0.288505 0
M  V30 2038 C 202.237 1.43389 -3.18183 0
M  V30 2039 C 203.585 1.89791 -3.79822 0
M  V30 2040 O 204.609 1.53134 -3.21603 0
M  V30 2041 O 203.468 2.57387 -4.82093 0
M  V30 2042 H 200.562 0.420496 -0.712118 0
M  V30 2043 H 203.108 0.134591 -1.69165 0
M  V30 2044 H 201.88 0.640383 -3.86024 0
M  V30 2045 H 201.503 2.25287 -3.27615 0
M  V30 2046 N 202.5 1.5196 0.417844 0
M  V30 2047 C 203.916 1.40569 0.755816 0
M  V30 2048 C 204.116 0.503316 1.95113 0
M  V30 2049 O 203.172 -0.0341925 2.52477 0
M  V30 2050 C 204.485 2.82947 1.01791 0
M  V30 2051 C 206.033 2.92231 1.12116 0
M  V30 2052 C 206.508 4.35559 1.41608 0
M  V30 2053 N 207.999 4.38753 1.48491 0
M  V30 2054 C 208.734 5.46705 1.7292 0
M  V30 2055 N 208.23 6.64788 1.95011 0
M  V30 2056 N 210.023 5.34209 1.74863 0
M  V30 2057 H 202.174 2.09168 -0.369098 0
M  V30 2058 H 204.437 0.942409 -0.102809 0
M  V30 2059 H 204.143 3.5106 0.212081 0
M  V30 2060 H 204.017 3.23462 1.94042 0
M  V30 2061 H 206.404 2.24304 1.9176 0
M  V30 2062 H 206.485 2.55185 0.177225 0
M  V30 2063 H 206.129 5.04042 0.624848 0
M  V30 2064 H 206.059 4.70133 2.37239 0
M  V30 2065 H 208.55 3.5363 1.33244 0
M  V30 2066 H 208.863 7.42845 2.13076 0
M  V30 2067 H 207.208 6.67869 1.92293 0
M  V30 2068 H 210.399 4.40937 1.57137 0
M  V30 2069 H 210.572 6.18415 1.93563 0
M  V30 2070 N 203.978 -0.674533 1.42435 0
M  V30 2071 C 205.208 -1.46071 1.46105 0
M  V30 2072 C 205.616 -1.89067 0.0709605 0
M  V30 2073 O 204.959 -1.58731 -0.924677 0
M  V30 2074 C 205.021 -2.74145 2.32561 0
M  V30 2075 C 204.685 -2.53224 3.8043 0
M  V30 2076 C 205.682 -2.17809 4.72075 0
M  V30 2077 C 203.367 -2.6821 4.24698 0
M  V30 2078 C 205.361 -1.97648 6.05982 0
M  V30 2079 C 203.048 -2.47665 5.58664 0
M  V30 2080 C 204.046 -2.12437 6.49122 0
M  V30 2081 O 203.734 -1.9209 7.80613 0
M  V30 2082 H 203.466 -0.455959 0.499076 0
M  V30 2083 H 206.02 -0.836193 1.87609 0
M  V30 2084 H 204.25 -3.3908 1.85908 0
M  V30 2085 H 205.939 -3.36028 2.27683 0
M  V30 2086 H 206.705 -2.05826 4.39159 0
M  V30 2087 H 202.584 -2.94609 3.54579 0
M  V30 2088 H 206.128 -1.70075 6.7655 0
M  V30 2089 H 202.025 -2.59244 5.91154 0
M  V30 2090 H 202.793 -2.06686 7.91974 0
M  V30 2091 N 205.456 -1.28612 -0.910864 0
M  V30 2092 C 206.702 -1.17116 -1.66299 0
M  V30 2093 C 207.057 0.276917 -1.90397 0
M  V30 2094 O 206.35 1.19795 -1.49532 0
M  V30 2095 C 206.544 -1.90624 -3.0232 0
M  V30 2096 C 206.373 -3.42431 -2.91498 0
M  V30 2097 C 205.143 -4.11773 -2.92867 0
M  V30 2098 C 207.341 -4.38124 -2.69355 0
M  V30 2099 N 205.323 -5.50025 -2.72664 0
M  V30 2100 C 206.694 -5.63759 -2.58023 0
M  V30 2101 C 208.749 -4.28016 -2.54375 0
M  V30 2102 C 207.452 -6.80436 -2.33238 0
M  V30 2103 C 209.478 -5.44433 -2.30969 0
M  V30 2104 C 208.84 -6.69034 -2.20394 0
M  V30 2105 H 204.939 -0.483506 -0.61461 0
M  V30 2106 H 207.523 -1.62299 -1.0755 0
M  V30 2107 H 205.694 -1.4787 -3.5915 0
M  V30 2108 H 207.426 -1.71488 -3.66571 0
M  V30 2109 H 204.181 -3.63378 -3.03732 0
M  V30 2110 H 204.605 -6.22705 -2.65646 0
M  V30 2111 H 209.247 -3.32388 -2.613 0
M  V30 2112 H 206.965 -7.7613 -2.25051 0
M  V30 2113 H 210.551 -5.38504 -2.20238 0
M  V30 2114 H 209.431 -7.57595 -2.02531 0
M  V30 2115 N 206.934 1.1197 -1.10907 0
M  V30 2116 C 207.897 2.16031 -0.765707 0
M  V30 2117 C 208.897 1.59393 0.212235 0
M  V30 2118 O 210.087 1.74196 -0.0115441 0
M  V30 2119 C 207.219 3.40632 -0.135053 0
M  V30 2120 H 208.412 2.47919 -1.68748 0
M  V30 2121 H 205.965 1.27061 -0.910226 0
M  V30 2122 H 206.7 3.14348 0.797218 0
M  V30 2123 H 206.485 3.8302 -0.838937 0
M  V30 2124 H 207.975 4.17505 0.0892469 0
M  V30 2125 N 208.412 0.89855 1.29475 0
M  V30 2126 C 209.661 0.519863 1.94885 0
M  V30 2127 C 209.974 -0.9383 1.71625 0
M  V30 2128 O 211.18 -1.42445 2.31131 0
M  V30 2129 C 209.636 0.878836 3.49005 0
M  V30 2130 C 209.244 2.35569 3.81066 0
M  V30 2131 C 210.988 0.570004 4.20656 0
M  V30 2132 C 208.895 2.65558 5.28425 0
M  V30 2133 H 207.825 0.190692 0.729488 0
M  V30 2134 H 210.476 1.09539 1.47219 0
M  V30 2135 H 208.858 0.232253 3.95318 0
M  V30 2136 H 210.032 3.04773 3.45616 0
M  V30 2137 H 208.347 2.63343 3.22552 0
M  V30 2138 H 210.944 0.770925 5.29113 0
M  V30 2139 H 211.287 -0.491404 4.1339 0
M  V30 2140 H 211.82 1.17438 3.8007 0
M  V30 2141 H 208.559 3.70493 5.40754 0
M  V30 2142 H 208.079 2.00977 5.65127 0
M  V30 2143 H 209.758 2.51765 5.96006 0
M  V30 2144 N 209.89 -1.43072 0.660911 0
M  V30 2145 C 211.115 -2.06584 0.183805 0
M  V30 2146 C 211.54 -1.49257 -1.14472 0
M  V30 2147 O 210.898 -0.605528 -1.70889 0
M  V30 2148 C 210.946 -3.60418 0.114434 0
M  V30 2149 O 210.05 -4.01981 -0.921137 0
M  V30 2150 H 209.391 -0.656669 0.0983994 0
M  V30 2151 H 211.921 -1.83447 0.906006 0
M  V30 2152 H 211.931 -4.07946 -0.0663394 0
M  V30 2153 H 210.606 -4.01519 1.08422 0
M  V30 2154 H 209.183 -3.66029 -0.71253 0
M  V30 2155 N 211.368 -0.403325 -1.52352 0
M  V30 2156 C 212.784 -0.0539281 -1.59509 0
M  V30 2157 C 212.984 1.43307 -1.41652 0
M  V30 2158 O 212.04 2.19924 -1.24056 0
M  V30 2159 C 213.353 -0.543654 -2.95745 0
M  V30 2160 C 214.901 -0.501125 -3.08962 0
M  V30 2161 C 215.376 -0.967267 -4.47669 0
M  V30 2162 N 216.867 -0.923849 -4.53893 0
M  V30 2163 C 217.602 -1.25578 -5.5948 0
M  V30 2164 N 217.098 -1.65889 -6.72646 0
M  V30 2165 N 218.891 -1.17613 -5.49658 0
M  V30 2166 H 211.042 -1.37123 -1.62206 0
M  V30 2167 H 213.305 -0.56294 -0.76276 0
M  V30 2168 H 213.011 -1.58275 -3.14073 0
M  V30 2169 H 212.885 0.0498042 -3.77167 0
M  V30 2170 H 215.272 0.528909 -2.90321 0
M  V30 2171 H 215.353 -1.13056 -2.2946 0
M  V30 2172 H 214.997 -1.9956 -4.67053 0
M  V30 2173 H 214.927 -0.314698 -5.25659 0
M  V30 2174 H 217.418 -0.627403 -3.72655 0
M  V30 2175 H 217.731 -1.89543 -7.49195 0
M  V30 2176 H 216.076 -1.69787 -6.73942 0
M  V30 2177 H 219.267 -0.860115 -4.6013 0
M  V30 2178 H 219.44 -1.43812 -6.3184 0
M  V30 2179 N 212.846 1.57033 -0.133567 0
M  V30 2180 C 214.257 1.82593 0.389464 0
M  V30 2181 C 214.608 1.05156 1.6564 0
M  V30 2182 O 213.733 0.292644 2.14412 0
M  V30 2183 C 214.328 3.31204 0.713377 0
M  V30 2184 C 212.887 3.57393 1.18098 0
M  V30 2185 C 212.034 2.76598 0.197126 0
M  V30 2186 H 214.985 1.54598 -0.358481 0
M  V30 2187 H 215.006 3.46627 1.56939 0
M  V30 2188 H 214.518 3.87537 -0.2089 0
M  V30 2189 H 212.619 3.06433 2.11966 0
M  V30 2190 H 212.732 4.65915 1.11624 0
M  V30 2191 H 211.096 2.45257 0.687088 0
M  V30 2192 H 211.879 3.35697 -0.718504 0
M  V30 2193 N 214.325 -0.140222 1.56975 0
M  V30 2194 C 215.572 -0.851687 1.83719 0
M  V30 2195 C 215.9 -1.80862 0.715485 0
M  V30 2196 O 215.155 -1.93464 -0.294956 0
M  V30 2197 C 215.454 -1.65386 3.16832 0
M  V30 2198 C 215.12 -0.843112 4.42947 0
M  V30 2199 C 213.782 -0.619464 4.77196 0
M  V30 2200 C 216.134 -0.276582 5.20466 0
M  V30 2201 C 213.462 0.181312 5.8642 0
M  V30 2202 C 215.814 0.51127 6.30531 0
M  V30 2203 C 214.478 0.745432 6.63325 0
M  V30 2204 H 213.748 -0.311654 0.672274 0
M  V30 2205 H 216.395 -0.115006 1.91154 0
M  V30 2206 H 214.7 -2.46084 3.04877 0
M  V30 2207 H 216.397 -2.20793 3.34741 0
M  V30 2208 H 212.987 -1.0275 4.16101 0
M  V30 2209 H 217.171 -0.436632 4.94376 0
M  V30 2210 H 212.427 0.372165 6.10266 0
M  V30 2211 H 216.601 0.957354 6.89788 0
M  V30 2212 H 214.228 1.36778 7.47794 0
M  V30 2213 N 215.803 -1.52179 -0.40978 0
M  V30 2214 C 217.219 -1.40968 -0.74835 0
M  V30 2215 C 217.419 -0.513657 -1.94843 0
M  V30 2216 O 216.475 0.0208026 -2.52491 0
M  V30 2217 C 217.788 -2.83483 -1.0029 0
M  V30 2218 C 219.336 -2.92821 -1.10565 0
M  V30 2219 C 219.811 -4.36303 -1.39296 0
M  V30 2220 N 221.302 -4.39535 -1.46162 0
M  V30 2221 C 222.037 -5.47614 -1.70018 0
M  V30 2222 N 221.533 -6.65812 -1.91483 0
M  V30 2223 N 223.326 -5.35129 -1.72027 0
M  V30 2224 H 215.477 -2.0897 0.380186 0
M  V30 2225 H 217.74 -0.94185 0.107805 0
M  V30 2226 H 217.446 -3.51168 -0.193461 0
M  V30 2227 H 217.32 -3.24487 -1.92323 0
M  V30 2228 H 219.707 -2.25318 -1.90568 0
M  V30 2229 H 219.788 -2.55276 -0.16369 0
M  V30 2230 H 219.432 -5.04366 -0.598109 0
M  V30 2231 H 219.362 -4.71385 -2.34743 0
M  V30 2232 H 221.853 -3.54332 -1.31367 0
M  V30 2233 H 222.166 -7.43964 -2.09134 0
M  V30 2234 H 220.511 -6.68879 -1.88749 0
M  V30 2235 H 223.702 -4.41764 -1.54796 0
M  V30 2236 H 223.875 -6.19433 -1.9028 0
M  V30 2237 N 217.281 0.66697 -1.42791 0
M  V30 2238 C 218.511 1.45294 -1.46878 0
M  V30 2239 C 218.919 1.89027 -0.0809861 0
M  V30 2240 O 218.262 1.59219 0.916246 0
M  V30 2241 C 218.324 2.72908 -2.34012 0
M  V30 2242 C 217.988 2.51203 -3.81767 0
M  V30 2243 C 218.985 2.15302 -4.73224 0
M  V30 2244 C 216.67 2.65954 -4.26115 0
M  V30 2245 C 218.664 1.94431 -6.07022 0
M  V30 2246 C 216.351 2.44699 -5.59969 0
M  V30 2247 C 217.349 2.08992 -6.5024 0
M  V30 2248 O 217.037 1.87948 -7.81621 0
M  V30 2249 H 216.769 0.453306 -0.501487 0
M  V30 2250 H 219.323 0.826232 -1.88049 0
M  V30 2251 H 217.553 3.38089 -1.87703 0
M  V30 2252 H 219.242 3.34816 -2.29462 0
M  V30 2253 H 220.008 2.03495 -4.40244 0
M  V30 2254 H 215.887 2.92724 -3.56137 0
M  V30 2255 H 219.431 1.66484 -6.77443 0
M  V30 2256 H 215.328 2.56105 -5.9252 0
M  V30 2257 H 216.096 2.02483 -7.93059 0
M  V30 2258 N 218.759 1.29093 0.90403 0
M  V30 2259 C 219.706 1.13853 2.00764 0
M  V30 2260 C 220.676 0.0330084 1.66067 0
M  V30 2261 O 221.861 0.199733 1.89752 0
M  V30 2262 C 219.001 0.816537 3.35301 0
M  V30 2263 C 218.114 2.00206 3.82807 0
M  V30 2264 C 217.249 1.61983 5.059 0
M  V30 2265 C 216.288 2.77143 5.45764 0
M  V30 2266 N 215.425 2.39346 6.60044 0
M  V30 2267 H 220.265 2.08276 2.13132 0
M  V30 2268 H 217.802 1.03648 1.04381 0
M  V30 2269 H 219.76 0.610557 4.12708 0
M  V30 2270 H 218.39 -0.090779 3.22672 0
M  V30 2271 H 217.442 2.31988 3.01473 0
M  V30 2272 H 218.754 2.86512 4.08304 0
M  V30 2273 H 217.908 1.37649 5.90879 0
M  V30 2274 H 216.647 0.728202 4.82233 0
M  V30 2275 H 215.652 3.02165 4.59322 0
M  V30 2276 H 216.877 3.66964 5.71414 0
M  V30 2277 H 214.823 1.52665 6.37989 0
M  V30 2278 H 214.74 3.19185 6.85315 0
M  V30 2279 H 216.008 2.1832 7.48303 0
M  V30 2280 N 220.237 -1.11381 1.11499 0
M  V30 2281 C 221.653 -1.35143 0.849031 0
M  V30 2282 C 221.853 -1.94515 -0.525938 0
M  V30 2283 O 220.909 -2.1785 -1.27662 0
M  V30 2284 C 222.222 -2.28249 1.95762 0
M  V30 2285 C 223.77 -2.41812 1.98736 0
M  V30 2286 C 224.245 -3.3824 3.088 0
M  V30 2287 N 225.736 -3.45803 3.08179 0
M  V30 2288 C 226.471 -4.20358 3.89982 0
M  V30 2289 N 225.967 -4.97884 4.8175 0
M  V30 2290 N 227.76 -4.15877 3.78157 0
M  V30 2291 H 219.911 -0.712062 2.00109 0
M  V30 2292 H 222.174 -0.376025 0.870235 0
M  V30 2293 H 221.88 -1.91817 2.94787 0
M  V30 2294 H 221.754 -3.28473 1.85433 0
M  V30 2295 H 224.141 -2.77518 1.00338 0
M  V30 2296 H 224.222 -1.41437 2.13141 0
M  V30 2297 H 223.866 -3.03261 4.07425 0
M  V30 2298 H 223.796 -4.38471 2.91635 0
M  V30 2299 H 226.287 -2.90506 2.41691 0
M  V30 2300 H 226.6 -5.52142 5.40702 0
M  V30 2301 H 224.945 -4.97043 4.85771 0
M  V30 2302 H 228.136 -3.544 3.05808 0
M  V30 2303 H 228.309 -4.73723 4.42143 0
M  V30 2304 N 221.715 -0.905404 -1.28997 0
M  V30 2305 C 222.662 -0.385892 -2.27551 0
M  V30 2306 C 223.632 0.535113 -1.57244 0
M  V30 2307 O 224.817 0.459119 -1.85194 0
M  V30 2308 C 221.957 0.375461 -3.43051 0
M  V30 2309 C 221.07 -0.577092 -4.28128 0
M  V30 2310 C 220.205 0.201879 -5.30816 0
M  V30 2311 C 219.244 -0.744829 -6.07551 0
M  V30 2312 N 218.381 9.42587e-05 -7.021 0
M  V30 2313 H 223.221 -1.23139 -2.71368 0
M  V30 2314 H 220.758 -0.618542 -1.33463 0
M  V30 2315 H 222.716 0.832992 -4.088 0
M  V30 2316 H 221.346 1.18537 -3.00248 0
M  V30 2317 H 220.398 -1.15315 -3.62501 0
M  V30 2318 H 221.71 -1.30152 -4.8152 0
M  V30 2319 H 220.864 0.720351 -6.02408 0
M  V30 2320 H 219.603 0.959413 -4.7817 0
M  V30 2321 H 218.608 -1.27475 -5.34818 0
M  V30 2322 H 219.833 -1.50178 -6.62286 0
M  V30 2323 H 217.779 0.739791 -6.51815 0
M  V30 2324 H 217.696 -0.664321 -7.53076 0
M  V30 2325 H 218.964 0.498644 -7.77903 0
M  V30 2326 N 223.193 1.4272 -0.668489 0
M  V30 2327 C 224.126 2.28111 0.0637898 0
M  V30 2328 C 225.104 1.40705 0.814912 0
M  V30 2329 O 226.288 1.70146 0.81134 0
M  V30 2330 C 223.415 3.20429 1.0974 0
M  V30 2331 C 222.461 4.24197 0.442579 0
M  V30 2332 S 223.294 5.29563 -0.795173 0
M  V30 2333 C 224.45 6.25449 0.237516 0
M  V30 2334 H 224.683 2.8987 -0.660521 0
M  V30 2335 H 222.216 1.47456 -0.457821 0
M  V30 2336 H 224.174 3.74158 1.68868 0
M  V30 2337 H 222.835 2.57818 1.79411 0
M  V30 2338 H 222.028 4.88954 1.22227 0
M  V30 2339 H 221.63 3.73925 -0.0749554 0
M  V30 2340 H 223.922 6.68524 1.09915 0
M  V30 2341 H 224.865 7.07104 -0.375421 0
M  V30 2342 H 225.273 5.61511 0.580167 0
M  V30 2343 N 224.671 0.411399 1.52136 0
M  V30 2344 C 225.899 -0.163076 2.06256 0
M  V30 2345 C 226.314 -1.3867 1.28125 0
M  V30 2346 O 225.671 -1.79423 0.333721 0
M  V30 2347 C 225.722 -0.511252 3.57867 0
M  V30 2348 O 225.443 0.66378 4.33042 0
M  V30 2349 C 226.944 -1.13921 4.28412 0
M  V30 2350 H 224.164 -0.0193897 0.67072 0
M  V30 2351 H 226.708 0.583007 1.96013 0
M  V30 2352 H 224.863 -1.20723 3.6811 0
M  V30 2353 H 225.277 0.372601 5.23175 0
M  V30 2354 H 226.751 -1.33302 5.35663 0
M  V30 2355 H 227.228 -2.11296 3.85033 0
M  V30 2356 H 227.834 -0.483373 4.22544 0
M  V30 2357 N 226.149 -1.5696 0.141893 0
M  V30 2358 C 227.081 -2.13619 -0.830627 0
M  V30 2359 C 228.094 -1.08439 -1.21428 0
M  V30 2360 O 229.283 -1.35734 -1.15925 0
M  V30 2361 C 226.383 -2.63978 -2.12529 0
M  V30 2362 C 225.556 -3.93504 -1.9098 0
M  V30 2363 C 224.615 -4.29225 -3.04388 0
M  V30 2364 O 223.641 -4.97641 -2.76302 0
M  V30 2365 N 224.843 -3.88393 -4.31429 0
M  V30 2366 H 227.608 -2.97691 -0.34641 0
M  V30 2367 H 225.169 -1.61846 -0.0418375 0
M  V30 2368 H 227.161 -2.84891 -2.87436 0
M  V30 2369 H 225.731 -1.84659 -2.52229 0
M  V30 2370 H 224.951 -3.81269 -1.00139 0
M  V30 2371 H 226.239 -4.78154 -1.73914 0
M  V30 2372 H 225.637 -3.33257 -4.57117 0
M  V30 2373 H 224.194 -4.14368 -5.03133 0
M  V30 2374 N 227.627 0.131896 -1.57047 0
M  V30 2375 C 229.043 0.485031 -1.52051 0
M  V30 2376 C 229.243 1.82563 -0.85281 0
M  V30 2377 O 228.299 2.48817 -0.429694 0
M  V30 2378 C 229.612 0.481409 -2.96821 0
M  V30 2379 C 231.16 0.565868 -3.07842 0
M  V30 2380 C 231.635 0.592762 -4.54148 0
M  V30 2381 N 233.126 0.654564 -4.58552 0
M  V30 2382 C 233.861 0.696608 -5.69153 0
M  V30 2383 N 233.357 0.697078 -6.89284 0
M  V30 2384 N 235.15 0.738639 -5.57226 0
M  V30 2385 H 227.301 -0.746664 -1.98843 0
M  V30 2386 H 229.564 -0.273999 -0.90754 0
M  V30 2387 H 229.27 -0.435731 -3.4899 0
M  V30 2388 H 229.144 1.3139 -3.53577 0
M  V30 2389 H 231.531 1.47343 -2.55684 0
M  V30 2390 H 231.612 -0.29406 -2.54104 0
M  V30 2391 H 231.256 -0.310701 -5.06949 0
M  V30 2392 H 231.186 1.46939 -5.05684 0
M  V30 2393 H 233.677 0.660887 -3.72076 0
M  V30 2394 H 233.99 0.731426 -7.69331 0
M  V30 2395 H 232.335 0.66471 -6.91814 0
M  V30 2396 H 235.526 0.735545 -4.62285 0
M  V30 2397 H 235.699 0.767938 -6.43434 0
M  V30 2398 N 229.106 1.52395 0.401703 0
M  V30 2399 C 230.039 1.70999 1.51111 0
M  V30 2400 C 231.017 0.55765 1.52738 0
M  V30 2401 O 232.201 0.785912 1.71335 0
M  V30 2402 C 229.328 1.75607 2.8962 0
M  V30 2403 C 228.374 2.97227 3.05873 0
M  V30 2404 S 229.207 4.57439 2.78405 0
M  V30 2405 C 230.363 4.64844 4.19131 0
M  V30 2406 H 230.596 2.6483 1.35102 0
M  V30 2407 H 228.129 1.42527 0.593762 0
M  V30 2408 H 230.087 1.78947 3.69443 0
M  V30 2409 H 228.748 0.828914 3.02965 0
M  V30 2410 H 227.941 2.96955 4.07227 0
M  V30 2411 H 227.543 2.91813 2.33925 0
M  V30 2412 H 229.835 4.42677 5.12877 0
M  V30 2413 H 230.778 5.66807 4.24424 0
M  V30 2414 H 231.186 3.93804 4.04448 0
M  V30 2415 N 230.584 -0.659388 1.43143 0
M  V30 2416 C 231.547 -1.75432 1.47501 0
M  V30 2417 C 232.547 -1.56707 0.360512 0
M  V30 2418 O 233.737 -1.62717 0.622002 0
M  V30 2419 C 230.869 -3.14239 1.32162 0
M  V30 2420 H 232.062 -1.7295 2.45006 0
M  V30 2421 H 229.615 -0.870469 1.29817 0
M  V30 2422 H 230.35 -3.22336 0.356401 0
M  V30 2423 H 230.135 -3.29235 2.12948 0
M  V30 2424 H 231.625 -3.94094 1.3813 0
M  V30 2425 N 232.062 -1.29571 -0.897171 0
M  V30 2426 C 232.992 -1.17473 -2.01798 0
M  V30 2427 C 233.973 -0.068323 -1.69963 0
M  V30 2428 O 235.158 -0.248239 -1.92607 0
M  V30 2429 C 232.288 -0.853099 -3.36659 0
M  V30 2430 C 231.242 -1.9161 -3.82713 0
M  V30 2431 C 230.568 -1.44773 -5.14728 0
M  V30 2432 C 231.868 -3.32535 -4.02763 0
M  V30 2433 H 233.562 -2.11237 -2.12177 0
M  V30 2434 H 231.108 -1.01699 -1.01948 0
M  V30 2435 H 233.061 -0.755165 -4.14578 0
M  V30 2436 H 231.785 0.120236 -3.26379 0
M  V30 2437 H 230.444 -2.00346 -3.07013 0
M  V30 2438 H 230.092 -0.462995 -5.00865 0
M  V30 2439 H 229.792 -2.15865 -5.46513 0
M  V30 2440 H 231.316 -1.36334 -5.95185 0
M  V30 2441 H 232.73 -3.26626 -4.71156 0
M  V30 2442 H 231.127 -4.01607 -4.45905 0
M  V30 2443 H 232.197 -3.75326 -3.07016 0
M  V30 2444 N 233.54 1.10788 -1.12088 0
M  V30 2445 C 234.786 1.82942 -0.875226 0
M  V30 2446 C 235.119 1.84779 0.597538 0
M  V30 2447 O 234.394 1.30578 1.44152 0
M  V30 2448 C 234.677 3.29789 -1.44606 0
M  V30 2449 C 234.53 3.36307 -2.98693 0
M  V30 2450 C 235.849 4.26064 -1.10261 0
M  V30 2451 H 232.968 0.664195 -0.319397 0
M  V30 2452 H 235.61 1.29867 -1.38689 0
M  V30 2453 H 233.76 3.75118 -1.01089 0
M  V30 2454 H 235.432 2.99487 -3.50864 0
M  V30 2455 H 233.675 2.76318 -3.34411 0
M  V30 2456 H 234.346 4.39694 -3.33726 0
M  V30 2457 H 236.822 3.88951 -1.4784 0
M  V30 2458 H 235.698 5.27183 -1.52869 0
M  V30 2459 H 235.959 4.42098 -0.0142953 0
M  V30 2460 N 235.018 0.912232 1.28515 0
M  V30 2461 C 235.951 0.343928 2.25593 0
M  V30 2462 C 236.929 -0.550994 1.5298 0
M  V30 2463 O 238.113 -0.494991 1.81885 0
M  V30 2464 C 235.24 -0.508525 3.34861 0
M  V30 2465 C 234.286 0.320808 4.25292 0
M  V30 2466 S 235.119 1.72658 5.06902 0
M  V30 2467 C 236.275 0.881394 6.19663 0
M  V30 2468 H 236.508 1.16674 2.73449 0
M  V30 2469 H 234.041 0.713384 1.36931 0
M  V30 2470 H 235.999 -0.994539 3.9827 0
M  V30 2471 H 234.66 -1.30571 2.85675 0
M  V30 2472 H 233.853 -0.330941 5.02912 0
M  V30 2473 H 233.455 0.74042 3.66598 0
M  V30 2474 H 235.747 0.110359 6.7741 0
M  V30 2475 H 236.69 1.63009 6.89082 0
M  V30 2476 H 237.098 0.430239 5.62858 0
M  V30 2477 N 236.496 -1.42363 0.676048 0
M  V30 2478 C 237.742 -2.0182 0.199125 0
M  V30 2479 C 238.075 -1.53339 -1.19168 0
M  V30 2480 O 237.35 -0.736124 -1.80032 0
M  V30 2481 C 237.633 -3.59331 0.235144 0
M  V30 2482 C 237.486 -4.17989 1.66149 0
M  V30 2483 C 238.805 -4.3813 -0.41595 0
M  V30 2484 H 235.924 -0.733293 0.0738311 0
M  V30 2485 H 238.566 -1.69368 0.86107 0
M  V30 2486 H 236.716 -3.87109 -0.328487 0
M  V30 2487 H 238.388 -4.0116 2.27747 0
M  V30 2488 H 236.631 -3.7377 2.20178 0
M  V30 2489 H 237.302 -5.27126 1.63837 0
M  V30 2490 H 239.778 -4.16051 0.0638529 0
M  V30 2491 H 238.654 -5.47717 -0.360115 0
M  V30 2492 H 238.915 -4.16101 -1.49373 0
M  V30 2493 N 237.974 -0.419461 -1.51915 0
M  V30 2494 C 239.222 0.152637 -2.01523 0
M  V30 2495 C 239.543 1.44762 -1.30649 0
M  V30 2496 O 238.813 1.90997 -0.435535 0
M  V30 2497 H 237.393 0.0593966 -0.744635 0
M  V30 2498 H 240.055 -0.558073 -1.86739 0
M  V30 2499 H 239.151 0.341369 -3.10227 0
M  V30 2500 N 239.452 1.56882 -0.150215 0
M  V30 2501 C 240.382 2.19935 0.784284 0
M  V30 2502 C 241.363 1.14854 1.25469 0
M  V30 2503 O 242.548 1.43209 1.31168 0
M  V30 2504 C 239.678 2.82349 2.02229 0
M  V30 2505 C 238.632 3.93285 1.68853 0
M  V30 2506 C 237.958 4.42649 2.99944 0
M  V30 2507 C 239.258 5.13904 0.932714 0
M  V30 2508 H 240.952 2.9828 0.258781 0
M  V30 2509 H 238.498 1.43473 0.123029 0
M  V30 2510 H 240.451 3.25126 2.68088 0
M  V30 2511 H 239.175 2.0134 2.57157 0
M  V30 2512 H 237.834 3.5113 1.05371 0
M  V30 2513 H 237.482 3.58458 3.52869 0
M  V30 2514 H 237.182 5.17476 2.78374 0
M  V30 2515 H 238.706 4.88099 3.66868 0
M  V30 2516 H 240.12 5.53506 1.49345 0
M  V30 2517 H 238.517 5.94515 0.81684 0
M  V30 2518 H 239.587 4.84842 -0.0749568 0
M  V30 2519 N 240.93 -0.123565 1.57115 0
M  V30 2520 C 241.893 -1.13583 1.99076 0
M  V30 2521 C 242.893 -1.34564 0.880296 0
M  V30 2522 O 244.083 -1.31158 1.14644 0
M  V30 2523 C 241.215 -2.49128 2.32698 0
M  V30 2524 H 242.408 -0.775287 2.89706 0
M  V30 2525 H 239.961 -0.36771 1.51913 0
M  V30 2526 H 240.696 -2.90111 1.44934 0
M  V30 2527 H 240.481 -2.35255 3.13684 0
M  V30 2528 H 241.971 -3.2199 2.65918 0
M  V30 2529 N 242.408 -1.52605 -0.393616 0
M  V30 2530 C 243.654 -1.68624 -1.13743 0
M  V30 2531 C 244.009 -0.418687 -1.87789 0
M  V30 2532 O 243.302 0.58747 -1.82371 0
M  V30 2533 C 243.496 -2.85721 -2.14705 0
M  V30 2534 C 243.325 -4.23742 -1.50575 0
M  V30 2535 C 242.095 -4.89033 -1.2718 0
M  V30 2536 C 244.293 -5.05293 -0.958311 0
M  V30 2537 N 242.275 -6.11048 -0.591058 0
M  V30 2538 C 243.646 -6.18673 -0.405367 0
M  V30 2539 C 245.701 -4.90517 -0.854274 0
M  V30 2540 C 244.404 -7.18895 0.241434 0
M  V30 2541 C 246.43 -5.90986 -0.221301 0
M  V30 2542 C 245.792 -7.03669 0.320894 0
M  V30 2543 H 241.891 -0.670556 -0.402342 0
M  V30 2544 H 244.475 -1.89946 -0.427607 0
M  V30 2545 H 242.646 -2.65987 -2.83029 0
M  V30 2546 H 244.378 -2.90699 -2.8156 0
M  V30 2547 H 241.133 -4.47672 -1.54554 0
M  V30 2548 H 241.557 -6.76474 -0.266862 0
M  V30 2549 H 246.199 -4.03612 -1.25926 0
M  V30 2550 H 243.917 -8.05413 0.658448 0
M  V30 2551 H 247.503 -5.81626 -0.142111 0
M  V30 2552 H 246.383 -7.80078 0.802956 0
M  V30 2553 N 243.887 0.651787 -1.4349 0
M  V30 2554 C 245.115 1.43937 -1.48626 0
M  V30 2555 C 245.53 1.8851 -0.104587 0
M  V30 2556 O 244.887 1.5958 0.885464 0
M  V30 2557 C 244.938 2.6734 -2.43334 0
M  V30 2558 O 244.659 2.24631 -3.76128 0
M  V30 2559 C 246.16 3.60683 -2.57726 0
M  V30 2560 H 243.38 0.44213 -0.504739 0
M  V30 2561 H 245.924 0.798944 -1.88248 0
M  V30 2562 H 244.079 3.2752 -2.06904 0
M  V30 2563 H 244.493 3.04485 -4.2707 0
M  V30 2564 H 245.967 4.43933 -3.28067 0
M  V30 2565 H 246.444 4.08126 -1.62265 0
M  V30 2566 H 247.05 3.06384 -2.94973 0
M  V30 2567 N 245.365 1.30045 0.890287 0
M  V30 2568 C 246.295 1.18541 2.01172 0
M  V30 2569 C 247.276 0.0773356 1.69924 0
M  V30 2570 O 248.461 0.25845 1.92473 0
M  V30 2571 C 245.591 0.870941 3.36202 0
M  V30 2572 C 244.545 1.93637 3.81692 0
M  V30 2573 C 243.871 1.475 5.13953 0
M  V30 2574 C 245.171 3.34666 4.00994 0
M  V30 2575 H 246.865 2.12359 2.11054 0
M  V30 2576 H 244.411 1.02238 1.01407 0
M  V30 2577 H 246.364 0.777141 4.14172 0
M  V30 2578 H 245.088 -0.102926 3.26438 0
M  V30 2579 H 243.747 2.01972 3.05946 0
M  V30 2580 H 243.395 0.489551 5.00612 0
M  V30 2581 H 243.095 2.1876 5.4536 0
M  V30 2582 H 244.619 1.39489 5.94454 0
M  V30 2583 H 246.033 3.2912 4.69417 0
M  V30 2584 H 244.43 4.03966 4.43769 0
M  V30 2585 H 245.5 3.76949 3.05021 0
M  V30 2586 N 246.843 -1.10192 1.12674 0
M  V30 2587 C 248.068 -1.86523 0.906853 0
M  V30 2588 C 248.493 -1.80221 -0.538711 0
M  V30 2589 O 247.851 -1.17396 -1.38158 0
M  V30 2590 C 247.899 -3.32758 1.3894 0
M  V30 2591 O 247.003 -4.08449 0.5695 0
M  V30 2592 H 246.344 -0.578678 0.325619 0
M  V30 2593 H 248.874 -1.39203 1.49946 0
M  V30 2594 H 248.884 -3.83608 1.38958 0
M  V30 2595 H 247.559 -3.36661 2.44197 0
M  V30 2596 H 246.136 -3.67427 0.636528 0
M  V30 2597 N 248.321 -0.919034 -1.28029 0
M  V30 2598 C 249.57 -0.550802 -1.94034 0
M  V30 2599 C 249.883 0.910877 -1.73096 0
M  V30 2600 O 251.089 1.3875 -2.33368 0
M  V30 2601 C 249.545 -0.934249 -3.47563 0
M  V30 2602 C 249.153 -2.41602 -3.7727 0
M  V30 2603 C 250.897 -0.636854 -4.19696 0
M  V30 2604 C 248.804 -2.73932 -5.24133 0
M  V30 2605 H 247.734 -0.202273 -0.726362 0
M  V30 2606 H 250.385 -1.11867 -1.45458 0
M  V30 2607 H 248.767 -0.295115 -3.94899 0
M  V30 2608 H 249.941 -3.10233 -3.40723 0
M  V30 2609 H 248.256 -2.68441 -3.18321 0
M  V30 2610 H 250.853 -0.855005 -5.2782 0
M  V30 2611 H 251.196 0.425575 -4.14119 0
M  V30 2612 H 251.729 -1.23469 -3.78154 0
M  V30 2613 H 248.468 -3.79049 -5.34792 0
M  V30 2614 H 247.988 -2.09942 -5.61858 0
M  V30 2615 H 249.667 -2.61215 -5.91925 0
M  V30 2616 N 249.799 1.42003 -0.683588 0
M  V30 2617 C 250.729 2.33487 -0.024866 0
M  V30 2618 C 251.71 1.51163 0.779975 0
M  V30 2619 O 252.895 1.79739 0.735362 0
M  V30 2620 C 250.025 3.3487 0.920836 0
M  V30 2621 C 248.979 4.27414 0.223958 0
M  V30 2622 C 248.305 5.19074 1.2832 0
M  V30 2623 C 249.605 5.14445 -0.90242 0
M  V30 2624 H 251.299 2.88819 -0.788921 0
M  V30 2625 H 248.845 1.38873 -0.38083 0
M  V30 2626 H 250.798 3.97787 1.39081 0
M  V30 2627 H 249.522 2.77861 1.71642 0
M  V30 2628 H 248.181 3.65904 -0.225864 0
M  V30 2629 H 247.829 4.58387 2.071 0
M  V30 2630 H 247.529 5.81822 0.821995 0
M  V30 2631 H 249.053 5.84867 1.75392 0
M  V30 2632 H 250.467 5.70998 -0.513272 0
M  V30 2633 H 248.864 5.86072 -1.28997 0
M  V30 2634 H 249.934 4.52322 -1.74737 0
M  V30 2635 N 251.277 0.427512 1.51691 0
M  V30 2636 C 252.526 -0.143679 2.01188 0
M  V30 2637 C 252.839 -1.44642 1.31674 0
M  V30 2638 O 254.045 -2.09997 1.72086 0
M  V30 2639 C 252.501 -0.306602 3.58592 0
M  V30 2640 C 252.109 0.985125 4.37035 0
M  V30 2641 C 253.853 -0.832091 4.16265 0
M  V30 2642 C 251.76 0.788382 5.86122 0
M  V30 2643 H 250.69 -0.0574701 0.751807 0
M  V30 2644 H 253.341 0.555772 1.74881 0
M  V30 2645 H 251.723 -1.06882 3.81303 0
M  V30 2646 H 252.897 1.75492 4.26074 0
M  V30 2647 H 251.212 1.4384 3.90767 0
M  V30 2648 H 253.809 -0.995617 5.25349 0
M  V30 2649 H 254.152 -1.81186 3.74803 0
M  V30 2650 H 254.685 -0.128444 3.97593 0
M  V30 2651 H 251.424 1.74025 6.31978 0
M  V30 2652 H 250.944 0.0582143 5.99772 0
M  V30 2653 H 252.623 0.437722 6.45518 0
M  V30 2654 N 252.755 -1.56801 0.158532 0
M  V30 2655 C 253.98 -2.01295 -0.499516 0
M  V30 2656 C 254.405 -1.03799 -1.56867 0
M  V30 2657 O 253.763 -0.0155162 -1.81293 0
M  V30 2658 C 253.811 -3.44469 -1.06647 0
M  V30 2659 O 252.915 -3.50012 -2.18095 0
M  V30 2660 H 252.256 -0.652884 -0.12099 0
M  V30 2661 H 254.786 -2.02958 0.258661 0
M  V30 2662 H 254.796 -3.8351 -1.39227 0
M  V30 2663 H 253.471 -4.14932 -0.283581 0
M  V30 2664 H 252.048 -3.22822 -1.86656 0
M  V30 2665 N 254.233 0.115231 -1.57178 0
M  V30 2666 C 255.48 0.822351 -1.8505 0
M  V30 2667 C 255.808 1.79701 -0.744168 0
M  V30 2668 O 255.063 1.93909 0.26414 0
M  V30 2669 C 255.362 1.60324 -3.19423 0
M  V30 2670 C 255.028 0.772536 -4.44233 0
M  V30 2671 C 253.69 0.543468 -4.78121 0
M  V30 2672 C 256.042 0.193746 -5.2084 0
M  V30 2673 C 253.37 -0.274583 -5.86057 0
M  V30 2674 C 255.722 -0.611517 -6.29637 0
M  V30 2675 C 254.386 -0.850867 -6.62055 0
M  V30 2676 H 253.656 0.30092 -0.677147 0
M  V30 2677 H 256.303 0.0845802 -1.91313 0
M  V30 2678 H 254.608 2.41203 -3.08753 0
M  V30 2679 H 256.305 2.1544 -3.38211 0
M  V30 2680 H 252.895 0.96117 -4.17683 0
M  V30 2681 H 257.079 0.357926 -4.95008 0
M  V30 2682 H 252.335 -0.469206 -6.09597 0
M  V30 2683 H 256.509 -1.06697 -6.88178 0
M  V30 2684 H 254.136 -1.48657 -7.45523 0
M  V30 2685 N 255.711 1.52812 0.385517 0
M  V30 2686 C 256.96 1.67249 1.12741 0
M  V30 2687 C 257.273 0.4205 1.91027 0
M  V30 2688 O 258.479 0.445064 2.67827 0
M  V30 2689 C 256.935 2.95583 2.05326 0
M  V30 2690 C 256.543 4.27974 1.32447 0
M  V30 2691 C 258.287 3.19386 2.7963 0
M  V30 2692 C 256.194 5.47412 2.23818 0
M  V30 2693 H 255.124 0.6231 0.424573 0
M  V30 2694 H 257.775 1.79309 0.389924 0
M  V30 2695 H 256.157 2.77277 2.82725 0
M  V30 2696 H 257.331 4.56844 0.602495 0
M  V30 2697 H 255.646 4.10459 0.700885 0
M  V30 2698 H 258.243 4.05801 3.48181 0
M  V30 2699 H 258.586 2.34604 3.43899 0
M  V30 2700 H 259.119 3.38274 2.09322 0
M  V30 2701 H 255.858 6.34612 1.64157 0
M  V30 2702 H 255.378 5.22849 2.93921 0
M  V30 2703 H 257.057 5.81423 2.83824 0
M  V30 2704 N 257.189 -0.644168 1.43834 0
M  V30 2705 C 258.6 -1.22554 1.40845 0
M  V30 2706 C 258.951 -1.9585 0.117115 0
M  V30 2707 O 258.076 -2.01734 -0.783086 0
M  V30 2708 C 258.671 -2.22907 2.55143 0
M  V30 2709 C 257.23 -2.76501 2.5539 0
M  V30 2710 C 256.377 -1.51287 2.32396 0
M  V30 2711 H 259.328 -0.43563 1.52604 0
M  V30 2712 H 259.349 -3.05259 2.2715 0
M  V30 2713 H 258.861 -1.69533 3.49114 0
M  V30 2714 H 256.962 -3.33914 1.65324 0
M  V30 2715 H 257.075 -3.23429 3.53455 0
M  V30 2716 H 255.439 -1.78957 1.81236 0
M  V30 2717 H 256.222 -0.998336 3.28463 0
M  V30 2718 N 258.668 -1.30515 -0.883378 0
M  V30 2719 C 259.914 -1.19607 -1.63774 0
M  V30 2720 C 260.247 0.248314 -1.92606 0
M  V30 2721 O 259.522 1.17742 -1.54813 0
M  V30 2722 C 259.805 -2.02669 -2.97653 0
M  V30 2723 C 259.658 -3.55335 -2.75784 0
M  V30 2724 C 260.977 -1.86573 -3.98596 0
M  V30 2725 H 258.096 -0.435856 -0.594305 0
M  V30 2726 H 260.738 -1.60165 -1.02212 0
M  V30 2727 H 258.888 -1.68208 -3.50197 0
M  V30 2728 H 260.56 -3.99863 -2.30016 0
M  V30 2729 H 258.803 -3.79438 -2.1026 0
M  V30 2730 H 259.474 -4.08745 -3.70988 0
M  V30 2731 H 261.95 -2.16703 -3.55217 0
M  V30 2732 H 260.826 -2.47014 -4.90179 0
M  V30 2733 H 261.087 -0.825321 -4.34328 0
M  V30 2734 N 260.146 1.09593 -1.13257 0
M  V30 2735 C 261.078 2.16015 -0.766167 0
M  V30 2736 C 262.091 1.61423 0.211303 0
M  V30 2737 O 263.28 1.78498 -0.00863946 0
M  V30 2738 C 260.38 3.38706 -0.114662 0
M  V30 2739 C 259.553 4.22717 -1.12379 0
M  V30 2740 C 258.612 5.23835 -0.498301 0
M  V30 2741 O 257.638 5.573 -1.15781 0
M  V30 2742 N 258.84 5.75886 0.730417 0
M  V30 2743 H 261.605 2.48055 -1.68193 0
M  V30 2744 H 259.166 1.25292 -1.02535 0
M  V30 2745 H 261.158 4.03464 0.315991 0
M  V30 2746 H 259.728 3.04569 0.704011 0
M  V30 2747 H 258.948 3.54122 -1.73179 0
M  V30 2748 H 260.236 4.75673 -1.80589 0
M  V30 2749 H 259.634 5.50911 1.28504 0
M  V30 2750 H 258.191 6.42387 1.10376 0
M  V30 2751 N 261.624 0.925811 1.2754 0
M  V30 2752 C 262.554 0.440748 2.29303 0
M  V30 2753 C 263.535 -0.497971 1.62648 0
M  V30 2754 O 264.72 -0.403126 1.8997 0
M  V30 2755 C 261.85 -0.309048 3.45922 0
M  V30 2756 C 260.804 0.54166 4.24559 0
M  V30 2757 C 260.13 -0.337191 5.33636 0
M  V30 2758 C 261.43 1.80516 4.90114 0
M  V30 2759 H 263.124 1.29121 2.70126 0
M  V30 2760 H 260.67 0.622323 1.29858 0
M  V30 2761 H 262.623 -0.659315 4.1621 0
M  V30 2762 H 261.347 -1.19352 3.04011 0
M  V30 2763 H 260.006 0.874609 3.56014 0
M  V30 2764 H 259.654 -1.22056 4.87966 0
M  V30 2765 H 259.354 0.228497 5.87156 0
M  V30 2766 H 260.878 -0.683072 6.06767 0
M  V30 2767 H 262.292 1.52307 5.52698 0
M  V30 2768 H 260.689 2.3142 5.53683 0
M  V30 2769 H 261.759 2.52581 4.13921 0
M  V30 2770 N 263.102 -1.41638 0.69111 0
M  V30 2771 C 264.05 -2.32597 0.0115199 0
M  V30 2772 C 265.044 -1.5072 -0.773296 0
M  V30 2773 O 266.25 -1.66685 -0.67942 0
M  V30 2774 H 262.625 -0.751849 -0.0150746 0
M  V30 2775 H 264.596 -2.87593 0.795791 0
M  V30 2776 C 263.345 -3.35467 -0.914172 0
M  V30 2777 H 262.668 -3.9852 -0.319687 0
M  V30 2778 H 264.108 -4.01662 -1.35808 0
M  V30 2779 C 262.567 -2.69004 -2.02826 0
M  V30 2780 O 263.097 -2.53444 -3.11655 0
M  V30 2781 N 261.303 -2.2777 -1.80469 0
M  V30 2782 H 260.85 -2.40626 -0.919615 0
M  V30 2783 H 260.808 -1.83635 -2.55197 0
M  V30 2784 N 264.58 -0.43555 -1.51462 0
M  V30 2785 C 265.826 0.123979 -2.03022 0
M  V30 2786 C 266.181 1.4054 -1.31401 0
M  V30 2787 O 265.474 1.86948 -0.419634 0
M  V30 2788 C 265.668 0.39942 -3.55161 0
M  V30 2789 C 265.497 -0.853754 -4.41521 0
M  V30 2790 C 264.267 -1.38675 -4.85898 0
M  V30 2791 C 266.465 -1.73939 -4.83994 0
M  V30 2792 N 264.447 -2.59265 -5.56466 0
M  V30 2793 C 265.818 -2.79135 -5.5361 0
M  V30 2794 C 267.873 -1.75402 -4.65981 0
M  V30 2795 C 266.576 -3.85737 -6.07124 0
M  V30 2796 C 268.602 -2.80938 -5.20411 0
M  V30 2797 C 267.964 -3.84854 -5.89972 0
M  V30 2798 H 264.063 0.00624887 -0.781975 0
M  V30 2799 H 266.647 -0.59582 -1.85359 0
M  V30 2800 H 264.818 1.08825 -3.72843 0
M  V30 2801 H 266.55 0.95015 -3.93388 0
M  V30 2802 H 263.305 -0.94094 -4.64159 0
M  V30 2803 H 263.729 -3.2041 -5.96378 0
M  V30 2804 H 268.371 -0.963926 -4.11665 0
M  V30 2805 H 266.089 -4.65586 -6.60496 0
M  V30 2806 H 269.675 -2.8301 -5.08327 0
M  V30 2807 H 268.555 -4.65176 -6.31333 0
M  V30 2808 N 266.058 1.56714 -0.166846 0
M  V30 2809 C 267.008 2.14338 0.777382 0
M  V30 2810 C 267.992 1.07642 1.19591 0
M  V30 2811 O 269.184 1.33775 1.15902 0
M  V30 2812 C 266.313 2.78417 2.00846 0
M  V30 2813 C 265.399 3.92264 1.61212 0
M  V30 2814 N 265.79 4.97268 0.925104 0
M  V30 2815 C 264.088 4.03342 1.90346 0
M  V30 2816 C 264.789 5.77093 0.730627 0
M  V30 2817 N 263.765 5.2854 1.27067 0
M  V30 2818 H 267.567 2.9289 0.243466 0
M  V30 2819 H 265.081 1.62364 0.0339954 0
M  V30 2820 H 267.078 3.18073 2.69509 0
M  V30 2821 H 265.738 2.01344 2.54736 0
M  V30 2822 H 266.749 5.14601 0.583646 0
M  V30 2823 H 263.426 3.37368 2.45946 0
M  V30 2824 H 264.816 6.71638 0.187668 0
M  V30 2825 N 267.536 -0.106894 1.57237 0
M  V30 2826 C 268.952 -0.46078 1.52804 0
M  V30 2827 C 269.152 -1.81184 0.881746 0
M  V30 2828 O 268.208 -2.48102 0.469224 0
M  V30 2829 C 269.521 -0.434127 2.9755 0
M  V30 2830 C 271.069 -0.516821 3.08704 0
M  V30 2831 C 271.544 -0.520436 4.55033 0
M  V30 2832 N 273.035 -0.58153 4.59535 0
M  V30 2833 C 273.77 -0.605973 5.70189 0
M  V30 2834 N 273.266 -0.587331 6.90306 0
M  V30 2835 N 275.059 -0.649895 5.5833 0
M  V30 2836 H 267.21 0.778203 1.9763 0
M  V30 2837 H 269.473 0.288403 0.903066 0
M  V30 2838 H 269.179 0.491197 3.48253 0
M  V30 2839 H 269.053 -1.25748 3.55622 0
M  V30 2840 H 271.44 -1.43256 2.57995 0
M  V30 2841 H 271.521 0.334449 2.53604 0
M  V30 2842 H 271.165 0.391313 5.0639 0
M  V30 2843 H 271.095 -1.38876 5.07958 0
M  V30 2844 H 273.586 -0.60161 3.73081 0
M  V30 2845 H 273.899 -0.60894 7.70397 0
M  V30 2846 H 272.244 -0.554564 6.92784 0
M  V30 2847 H 275.435 -0.661907 4.63397 0
M  V30 2848 H 275.608 -0.665476 6.44574 0
M  V30 2849 N 269.014 -1.53014 -0.377408 0
M  V30 2850 C 270.291 -1.59215 -1.13622 0
M  V30 2851 C 270.671 -0.392407 -2.07421 0
M  V30 2852 O 270.019 0.618342 -2.19975 0
M  V30 2853 C 270.229 -2.93669 -1.88573 0
M  V30 2854 C 271.577 -3.47822 -2.43526 0
M  V30 2855 O 272.601 -2.9562 -1.98715 0
M  V30 2856 O 271.46 -4.39055 -3.25412 0
M  V30 2857 H 268.554 -0.642625 -0.52054 0
M  V30 2858 H 271.1 -1.65353 -0.381625 0
M  V30 2859 H 269.872 -3.7243 -1.20048 0
M  V30 2860 H 269.495 -2.90968 -2.70968 0
M  V30 2861 N 270.492 0.636531 -1.44174 0
M  V30 2862 C 271.424 1.7618 -1.46606 0
M  V30 2863 C 272.437 1.58768 -0.360091 0
M  V30 2864 O 273.626 1.67181 -0.625518 0
M  V30 2865 C 270.726 3.13833 -1.27915 0
M  V30 2866 C 269.899 3.57753 -2.51658 0
M  V30 2867 C 268.958 4.74265 -2.27945 0
M  V30 2868 O 267.984 4.82852 -3.01401 0
M  V30 2869 N 269.186 5.65604 -1.30662 0
M  V30 2870 H 271.951 1.74567 -2.43612 0
M  V30 2871 H 269.512 0.820924 -1.39544 0
M  V30 2872 H 271.504 3.8949 -1.09907 0
M  V30 2873 H 270.074 3.10121 -0.39293 0
M  V30 2874 H 269.294 2.72362 -2.84978 0
M  V30 2875 H 270.582 3.83847 -3.33974 0
M  V30 2876 H 269.98 5.61354 -0.699844 0
M  V30 2877 H 268.537 6.40913 -1.18634 0
M  V30 2878 N 271.97 1.30982 0.876444 0
M  V30 2879 C 272.933 1.18054 1.96459 0
M  V30 2880 C 273.933 0.109399 1.60427 0
M  V30 2881 O 275.123 0.358173 1.70478 0
M  V30 2882 C 272.255 0.810616 3.31122 0
M  V30 2883 H 273.448 2.14735 2.09354 0
M  V30 2884 H 271.001 1.145 1.06392 0
M  V30 2885 H 271.736 -0.155322 3.23928 0
M  V30 2886 H 271.521 1.58481 3.58645 0
M  V30 2887 H 273.011 0.743876 4.10921 0
M  V30 2888 N 273.449 -1.08991 1.13837 0
M  V30 2889 C 274.412 -2.13925 0.822715 0
M  V30 2890 C 275.412 -1.599 -0.1699 0
M  V30 2891 O 276.602 -1.74104 0.0577251 0
M  V30 2892 C 273.734 -3.40155 0.225318 0
M  V30 2893 H 274.927 -2.43358 1.75262 0
M  V30 2894 H 272.48 -1.24603 0.943594 0
M  V30 2895 H 273.215 -3.16352 -0.713594 0
M  V30 2896 H 273 -3.80661 0.940193 0
M  V30 2897 H 274.49 -4.17594 0.0214784 0
M  V30 2898 N 274.927 -0.932562 -1.27047 0
M  V30 2899 C 276.152 -0.591474 -1.98787 0
M  V30 2900 C 276.577 0.824601 -1.69062 0
M  V30 2901 O 275.935 1.5541 -0.933677 0
M  V30 2902 C 275.983 -0.829808 -3.50922 0
M  V30 2903 O 275.087 0.102266 -4.12273 0
M  V30 2904 H 274.428 -0.227185 -0.623926 0
M  V30 2905 H 276.958 -1.25314 -1.61733 0
M  V30 2906 H 276.968 -0.747292 -4.01098 0
M  V30 2907 H 275.643 -1.86201 -3.7189 0
M  V30 2908 H 274.22 -0.0305761 -3.72887 0
M  V30 2909 N 276.405 1.4127 -0.698611 0
M  V30 2910 C 277.651 2.01979 -0.239972 0
M  V30 2911 C 278.006 1.54353 1.14861 0
M  V30 2912 O 277.299 0.746218 1.76471 0
M  V30 2913 C 277.493 3.56592 -0.240192 0
M  V30 2914 C 277.322 4.19226 -1.62726 0
M  V30 2915 C 276.092 4.53389 -2.23084 0
M  V30 2916 C 278.29 4.45228 -2.57443 0
M  V30 2917 N 276.272 5.01327 -3.54323 0
M  V30 2918 C 277.643 4.94973 -3.73365 0
M  V30 2919 C 279.698 4.27243 -2.55671 0
M  V30 2920 C 278.401 5.28624 -4.878 0
M  V30 2921 C 280.427 4.61985 -3.69221 0
M  V30 2922 C 279.789 5.11904 -4.83873 0
M  V30 2923 H 275.888 0.770561 -0.133269 0
M  V30 2924 H 278.472 1.71767 -0.916748 0
M  V30 2925 H 276.643 3.86271 0.406082 0
M  V30 2926 H 278.375 4.04025 0.23356 0
M  V30 2927 H 275.13 4.39946 -1.75341 0
M  V30 2928 H 275.554 5.29697 -4.21604 0
M  V30 2929 H 280.196 3.87884 -1.68243 0
M  V30 2930 H 277.914 5.66905 -5.75885 0
M  V30 2931 H 281.5 4.49725 -3.69105 0
M  V30 2932 H 280.38 5.38282 -5.70282 0
M  V30 2933 N 277.883 0.443576 1.51229 0
M  V30 2934 C 279.131 -0.120557 2.0174 0
M  V30 2935 C 279.452 -1.42665 1.32935 0
M  V30 2936 O 278.722 -1.9028 0.465866 0
M  V30 2937 H 277.302 -0.0475426 0.745486 0
M  V30 2938 H 279.964 0.587711 1.85828 0
M  V30 2939 H 279.06 -0.291972 3.10731 0
M  V30 2940 N 279.361 -1.56624 0.175154 0
M  V30 2941 C 280.609 -1.96609 -0.467885 0
M  V30 2942 C 280.93 -1.06238 -1.63519 0
M  V30 2943 O 280.2 -0.129523 -1.95471 0
M  V30 2944 H 278.78 -0.726008 -0.175845 0
M  V30 2945 H 281.442 -1.93195 0.257234 0
M  V30 2946 H 280.538 -3.00989 -0.825342 0
M  V30 2947 N 280.839 0.0985539 -1.57292 0
M  V30 2948 C 281.769 1.12064 -2.04851 0
M  V30 2949 C 282.75 1.41981 -0.936767 0
M  V30 2950 O 283.935 1.52071 -1.20781 0
M  V30 2951 C 281.065 2.44144 -2.47004 0
M  V30 2952 C 280.019 2.28643 -3.6181 0
M  V30 2953 C 279.345 3.65869 -3.89929 0
M  V30 2954 C 280.645 1.72986 -4.92822 0
M  V30 2955 H 282.339 0.724979 -2.9049 0
M  V30 2956 H 279.885 0.34729 -1.39749 0
M  V30 2957 H 281.838 3.15914 -2.78884 0
M  V30 2958 H 280.562 2.85639 -1.5836 0
M  V30 2959 H 279.221 1.59318 -3.30172 0
M  V30 2960 H 278.869 4.04885 -2.98458 0
M  V30 2961 H 278.569 3.56344 -4.67218 0
M  V30 2962 H 280.093 4.39112 -4.2428 0
M  V30 2963 H 281.507 2.34593 -5.23105 0
M  V30 2964 H 279.904 1.74229 -5.74251 0
M  V30 2965 H 280.974 0.689007 -4.7998 0
M  V30 2966 N 282.317 1.53212 0.369288 0
M  V30 2967 C 283.594 1.59815 1.12776 0
M  V30 2968 C 283.974 0.403402 2.0721 0
M  V30 2969 O 283.322 -0.606667 2.20299 0
M  V30 2970 C 283.532 2.94664 1.87013 0
M  V30 2971 C 284.88 3.49109 2.41677 0
M  V30 2972 O 285.904 2.96669 1.97144 0
M  V30 2973 O 284.763 4.40775 3.23079 0
M  V30 2974 H 281.857 0.645376 0.517125 0
M  V30 2975 H 284.403 1.65553 0.37285 0
M  V30 2976 H 283.175 3.73061 1.18071 0
M  V30 2977 H 282.798 2.92401 2.69421 0
M  V30 2978 N 283.795 -0.628877 1.44509 0
M  V30 2979 C 284.725 -1.75187 1.54376 0
M  V30 2980 C 285.706 -1.65411 0.396618 0
M  V30 2981 O 286.891 -1.84137 0.617031 0
M  V30 2982 C 284.021 -3.13725 1.48976 0
M  V30 2983 C 282.975 -3.38291 2.62189 0
M  V30 2984 C 282.301 -4.76883 2.41841 0
M  V30 2985 C 283.601 -3.30632 4.04326 0
M  V30 2986 H 285.295 -1.67187 2.48373 0
M  V30 2987 H 282.841 -0.802909 1.19538 0
M  V30 2988 H 284.794 -3.92064 1.54478 0
M  V30 2989 H 283.518 -3.22515 0.514961 0
M  V30 2990 H 282.177 -2.62334 2.56079 0
M  V30 2991 H 281.825 -4.82378 1.42548 0
M  V30 2992 H 281.525 -4.94278 3.17747 0
M  V30 2993 H 283.049 -5.57449 2.49165 0
M  V30 2994 H 284.463 -3.98873 4.11793 0
M  V30 2995 H 282.86 -3.59561 4.80454 0
M  V30 2996 H 283.93 -2.28404 4.27738 0
M  V30 2997 N 285.273 -1.31445 -0.869486 0
M  V30 2998 C 286.684 -1.19042 -1.43826 0
M  V30 2999 C 287.035 0.202919 -1.95148 0
M  V30 3000 O 286.16 1.10071 -1.86315 0
M  V30 3001 C 286.755 -2.15499 -2.6143 0
M  V30 3002 C 285.314 -2.07028 -3.14351 0
M  V30 3003 C 284.461 -2.04701 -1.87063 0
M  V30 3004 H 287.412 -1.43489 -0.677984 0
M  V30 3005 H 287.433 -1.74488 -3.38134 0
M  V30 3006 H 286.945 -3.16899 -2.24046 0
M  V30 3007 H 285.046 -1.08825 -3.56354 0
M  V30 3008 H 285.159 -2.96157 -3.766 0
M  V30 3009 H 283.523 -1.49724 -2.06046 0
M  V30 3010 H 284.306 -3.07857 -1.51917 0
M  V30 3011 N 286.751 1.08385 -1.14413 0
M  V30 3012 C 287.699 2.17406 -0.826888 0
M  V30 3013 C 288.693 1.6827 0.195312 0
M  V30 3014 O 289.899 1.79927 0.0513892 0
M  V30 3015 H 286.274 0.70934 -0.249681 0
M  V30 3016 H 288.245 2.41388 -1.75426 0
M  V30 3017 C 286.994 3.46215 -0.320979 0
M  V30 3018 H 286.317 3.84401 -1.0989 0
M  V30 3019 H 287.757 4.23777 -0.137549 0
M  V30 3020 C 286.216 3.23067 0.955472 0
M  V30 3021 O 286.746 3.4668 2.02918 0
M  V30 3022 N 284.952 2.7661 0.890798 0
M  V30 3023 H 284.499 2.57594 0.0168815 0
M  V30 3024 H 284.457 2.61501 1.74542 0
M  V30 3025 N 288.23 0.939286 1.26551 0
M  V30 3026 C 289.178 0.43815 2.28436 0
M  V30 3027 C 290.172 -0.483587 1.62351 0
M  V30 3028 O 291.378 -0.362009 1.76322 0
M  V30 3029 H 287.753 0.123149 0.741848 0
M  V30 3030 H 289.724 1.31002 2.68106 0
M  V30 3031 C 288.473 -0.283052 3.46546 0
M  V30 3032 H 287.796 0.417043 3.97619 0
M  V30 3033 H 289.236 -0.597948 4.19763 0
M  V30 3034 C 287.695 -1.50018 3.01656 0
M  V30 3035 O 288.225 -2.59855 3.0633 0
M  V30 3036 N 286.431 -1.35608 2.57019 0
M  V30 3037 H 285.978 -0.46244 2.53415 0
M  V30 3038 H 285.936 -2.17165 2.27347 0
M  V30 3039 N 289.708 -1.40897 0.706093 0
M  V30 3040 C 290.638 -2.33418 0.0620085 0
M  V30 3041 C 291.619 -1.52385 -0.755827 0
M  V30 3042 O 292.804 -1.80886 -0.706674 0
M  V30 3043 C 289.934 -3.36293 -0.867445 0
M  V30 3044 C 288.888 -4.27716 -0.155932 0
M  V30 3045 C 288.214 -5.2105 -1.20046 0
M  V30 3046 C 289.514 -5.12944 0.984149 0
M  V30 3047 H 291.208 -2.87527 0.83477 0
M  V30 3048 H 288.754 -1.38249 0.402875 0
M  V30 3049 H 290.707 -3.99949 -1.32735 0
M  V30 3050 H 289.431 -2.80556 -1.67199 0
M  V30 3051 H 288.09 -3.65498 0.284047 0
M  V30 3052 H 287.738 -4.61624 -1.99781 0
M  V30 3053 H 287.438 -5.83056 -0.729328 0
M  V30 3054 H 288.962 -5.87584 -1.66066 0
M  V30 3055 H 290.376 -5.70109 0.604048 0
M  V30 3056 H 288.773 -5.83945 1.38304 0
M  V30 3057 H 289.843 -4.49485 1.81911 0
M  V30 3058 N 291.186 -0.45159 -1.50991 0
M  V30 3059 C 292.149 0.341117 -2.26647 0
M  V30 3060 C 293.149 0.937422 -1.30649 0
M  V30 3061 O 294.339 0.809644 -1.54241 0
M  V30 3062 C 291.471 1.48398 -3.06905 0
M  V30 3063 H 292.664 -0.322117 -2.98165 0
M  V30 3064 H 290.217 -0.205122 -1.54948 0
M  V30 3065 H 290.952 2.18284 -2.39838 0
M  V30 3066 H 290.737 1.06241 -3.77432 0
M  V30 3067 H 292.227 2.04367 -3.64176 0
M  V30 3068 N 292.664 1.56529 -0.183458 0
M  V30 3069 C 293.612 2.19873 0.758845 0
M  V30 3070 C 294.606 1.16638 1.22849 0
M  V30 3071 O 295.812 1.3481 1.19274 0
M  V30 3072 H 292.187 0.7045 0.263029 0
M  V30 3073 H 294.158 2.97724 0.200755 0
M  V30 3074 C 292.907 2.86314 1.9728 0
M  V30 3075 H 292.23 3.65487 1.62047 0
M  V30 3076 H 293.67 3.3409 2.61075 0
M  V30 3077 C 292.129 1.86729 2.80418 0
M  V30 3078 O 292.659 1.36031 3.77966 0
M  V30 3079 N 290.865 1.55216 2.45675 0
M  V30 3080 H 290.412 1.96636 1.66409 0
M  V30 3081 H 290.37 0.888388 3.01588 0
M  V30 3082 N 294.142 -0.090211 1.57342 0
M  V30 3083 C 295.388 -0.788838 1.8748 0
M  V30 3084 C 295.743 -1.76105 0.7749 0
M  V30 3085 O 295.036 -1.90302 -0.222663 0
M  V30 3086 C 295.23 -1.55222 3.21933 0
M  V30 3087 C 295.059 -0.655441 4.44898 0
M  V30 3088 C 293.829 -0.299325 5.04413 0
M  V30 3089 C 296.027 0.0397458 5.14285 0
M  V30 3090 N 294.009 0.605108 6.10911 0
M  V30 3091 C 295.38 0.802061 6.1479 0
M  V30 3092 C 297.435 0.113154 4.97771 0
M  V30 3093 C 296.138 1.63093 7.00566 0
M  V30 3094 C 298.164 0.928942 5.84059 0
M  V30 3095 C 297.526 1.67936 6.84088 0
M  V30 3096 H 293.625 -0.26467 0.735849 0
M  V30 3097 H 296.209 -0.0511453 1.94633 0
M  V30 3098 H 294.38 -2.26076 3.15823 0
M  V30 3099 H 296.112 -2.19843 3.39781 0
M  V30 3100 H 292.867 -0.648079 4.69145 0
M  V30 3101 H 293.291 1.05002 6.68808 0
M  V30 3102 H 297.933 -0.452676 4.2037 0
M  V30 3103 H 295.651 2.20781 7.77355 0
M  V30 3104 H 299.237 0.988478 5.73341 0
M  V30 3105 H 298.117 2.30044 7.49699 0
M  V30 3106 N 295.62 -1.53406 -0.361157 0
M  V30 3107 C 296.848 -1.73717 -1.12383 0
M  V30 3108 C 297.263 -0.468161 -1.82904 0
M  V30 3109 O 296.62 0.559198 -1.73722 0
M  V30 3110 C 296.671 -2.90558 -2.15078 0
M  V30 3111 O 296.392 -4.12549 -1.47428 0
M  V30 3112 C 297.893 -3.22777 -3.03858 0
M  V30 3113 H 295.113 -0.580896 -0.335858 0
M  V30 3114 H 297.657 -2.00167 -0.418728 0
M  V30 3115 H 295.812 -2.66489 -2.8118 0
M  V30 3116 H 296.226 -4.78009 -2.15887 0
M  V30 3117 H 297.7 -4.07927 -3.71887 0
M  V30 3118 H 298.177 -2.38329 -3.68912 0
M  V30 3119 H 298.783 -3.48787 -2.43367 0
M  V30 3120 N 297.098 0.621204 -1.44841 0
M  V30 3121 C 298.509 1.20298 -1.42777 0
M  V30 3122 C 298.86 1.95639 -0.148259 0
M  V30 3123 O 297.985 2.02955 0.750892 0
M  V30 3124 C 298.58 2.1882 -2.58657 0
M  V30 3125 C 297.139 2.72403 -2.59756 0
M  V30 3126 C 296.286 1.4757 -2.34773 0
M  V30 3127 H 299.237 0.411297 -1.53278 0
M  V30 3128 H 299.258 3.01607 -2.31977 0
M  V30 3129 H 298.77 1.63957 -3.51766 0
M  V30 3130 H 296.871 3.31242 -1.70615 0
M  V30 3131 H 296.984 3.17765 -3.58556 0
M  V30 3132 H 295.348 1.76051 -1.8406 0
M  V30 3133 H 296.131 0.945954 -3.3001 0
M  V30 3134 N 298.576 1.31904 0.862503 0
M  V30 3135 C 299.822 1.23207 1.61838 0
M  V30 3136 C 300.177 -0.206062 1.91293 0
M  V30 3137 O 299.47 -1.14162 1.53875 0
M  V30 3138 C 299.664 2.01713 2.95037 0
M  V30 3139 C 299.493 3.53014 2.78588 0
M  V30 3140 C 298.263 4.22359 2.77382 0
M  V30 3141 C 300.461 4.47819 2.52909 0
M  V30 3142 N 298.443 5.59766 2.52062 0
M  V30 3143 C 299.814 5.72947 2.36922 0
M  V30 3144 C 301.869 4.37162 2.38314 0
M  V30 3145 C 300.572 6.88623 2.07823 0
M  V30 3146 C 302.598 5.5263 2.10604 0
M  V30 3147 C 301.96 6.76752 1.95411 0
M  V30 3148 H 298.059 0.505984 0.596242 0
M  V30 3149 H 300.643 1.66179 1.01452 0
M  V30 3150 H 298.814 1.61098 3.53415 0
M  V30 3151 H 300.546 1.84975 3.59953 0
M  V30 3152 H 297.301 3.74401 2.90036 0
M  V30 3153 H 297.725 6.32135 2.42352 0
M  V30 3154 H 302.367 3.41857 2.48784 0
M  V30 3155 H 300.085 7.83948 1.9609 0
M  V30 3156 H 303.671 5.46307 2.00101 0
M  V30 3157 H 302.551 7.6459 1.74274 0
M  V30 3158 N 300.054 -1.07777 1.14986 0
M  V30 3159 C 300.964 -2.18404 0.856546 0
M  V30 3160 C 301.98 -1.73211 -0.165485 0
M  V30 3161 O 303.156 -2.01399 0.00755219 0
M  V30 3162 C 300.221 -3.44977 0.34526 0
M  V30 3163 C 299.282 -4.0476 1.43065 0
M  V30 3164 C 298.515 -5.25291 0.943663 0
M  V30 3165 O 298.738 -5.70004 -0.212426 0
M  V30 3166 O 297.672 -5.76638 1.72547 0
M  V30 3167 H 301.498 -2.45978 1.78125 0
M  V30 3168 H 299.083 -1.17033 0.928631 0
M  V30 3169 H 300.965 -4.21348 0.0663671 0
M  V30 3170 H 299.64 -3.18965 -0.551631 0
M  V30 3171 H 298.547 -3.29949 1.76309 0
M  V30 3172 H 299.88 -4.35035 2.30229 0
M  V30 3173 N 301.532 -0.945985 -1.26051 0
M  V30 3174 C 302.442 -0.465633 -2.29933 0
M  V30 3175 C 303.458 0.462761 -1.67733 0
M  V30 3176 O 304.634 0.341118 -1.9849 0
M  V30 3177 C 301.699 0.256994 -3.45746 0
M  V30 3178 C 300.76 -0.708549 -4.23412 0
M  V30 3179 C 299.993 -0.0203135 -5.33696 0
M  V30 3180 O 300.216 1.19571 -5.57726 0
M  V30 3181 O 299.15 -0.701459 -5.97799 0
M  V30 3182 H 302.976 -1.32866 -2.73094 0
M  V30 3183 H 300.561 -0.712071 -1.31339 0
M  V30 3184 H 302.443 0.663852 -4.16138 0
M  V30 3185 H 301.118 1.09533 -3.04605 0
M  V30 3186 H 300.025 -1.16545 -3.55483 0
M  V30 3187 H 301.358 -1.51465 -4.68315 0
M  V30 3188 N 303.011 1.40521 -0.713556 0
M  V30 3189 C 304.288 1.94775 -0.17943 0
M  V30 3190 C 304.668 1.65184 1.31444 0
M  V30 3191 O 304.016 0.968429 2.06963 0
M  V30 3192 C 304.226 3.45543 -0.489986 0
M  V30 3193 C 305.574 4.22442 -0.427536 0
M  V30 3194 O 306.598 3.53644 -0.425929 0
M  V30 3195 O 305.457 5.4501 -0.403292 0
M  V30 3196 H 302.551 0.826606 -0.0255192 0
M  V30 3197 H 305.097 1.5014 -0.790949 0
M  V30 3198 H 303.869 3.60432 -1.5233 0
M  V30 3199 H 303.492 3.97311 0.151598 0
M  V30 3200 N 304.489 0.459591 1.5075 0
M  V30 3201 C 305.736 -0.0993495 2.02256 0
M  V30 3202 C 306.064 -1.40751 1.34237 0
M  V30 3203 O 305.319 -1.90379 0.453228 0
M  V30 3204 C 305.618 -0.342866 3.55752 0
M  V30 3205 C 305.284 0.88218 4.42186 0
M  V30 3206 C 303.946 1.21808 4.65528 0
M  V30 3207 C 306.298 1.69837 4.92752 0
M  V30 3208 C 303.626 2.37045 5.36681 0
M  V30 3209 C 305.978 2.84192 5.65171 0
M  V30 3210 C 304.642 3.1821 5.8677 0
M  V30 3211 H 303.912 -0.0363545 0.740108 0
M  V30 3212 H 306.559 0.611329 1.8148 0
M  V30 3213 H 304.864 -1.13567 3.7498 0
M  V30 3214 H 306.561 -0.789121 3.93159 0
M  V30 3215 H 303.151 0.610467 4.2423 0
M  V30 3216 H 307.335 1.45205 4.74583 0
M  V30 3217 H 302.591 2.63689 5.51614 0
M  V30 3218 H 306.765 3.4779 6.03337 0
M  V30 3219 H 304.392 4.07613 6.41682 0
M  V30 3220 N 305.967 -1.56429 0.191757 0
M  V30 3221 C 307.213 -1.98541 -0.441943 0
M  V30 3222 C 307.568 -1.07646 -1.59468 0
M  V30 3223 O 306.861 -0.120191 -1.91223 0
M  V30 3224 C 307.055 -3.44449 -0.953384 0
M  V30 3225 C 306.884 -4.49456 0.148262 0
M  V30 3226 C 305.654 -5.01668 0.604781 0
M  V30 3227 C 307.852 -5.05336 0.95602 0
M  V30 3228 N 305.834 -5.90334 1.6846 0
M  V30 3229 C 307.205 -5.9064 1.88531 0
M  V30 3230 C 309.26 -4.87779 0.998811 0
M  V30 3231 C 307.963 -6.60264 2.85383 0
M  V30 3232 C 309.989 -5.58139 1.95537 0
M  V30 3233 C 309.351 -6.43187 2.8721 0
M  V30 3234 H 305.45 -0.771247 -0.129236 0
M  V30 3235 H 308.034 -1.92426 0.296682 0
M  V30 3236 H 306.205 -3.5107 -1.66146 0
M  V30 3237 H 307.937 -3.73533 -1.55741 0
M  V30 3238 H 304.692 -4.73183 0.198736 0
M  V30 3239 H 305.116 -6.39371 2.22561 0
M  V30 3240 H 309.758 -4.21705 0.304048 0
M  V30 3241 H 307.476 -7.25538 3.55837 0
M  V30 3242 H 311.062 -5.46532 1.99484 0
M  V30 3243 H 309.942 -6.96674 3.60022 0
M  V30 3244 N 307.445 0.0818655 -1.57387 0
M  V30 3245 C 308.355 1.11642 -2.06333 0
M  V30 3246 C 309.371 1.43033 -0.99083 0
M  V30 3247 O 310.547 1.53411 -1.30488 0
M  V30 3248 C 307.612 2.41342 -2.48907 0
M  V30 3249 C 306.673 2.17014 -3.7041 0
M  V30 3250 C 305.906 3.4053 -4.10944 0
M  V30 3251 O 306.129 4.4927 -3.51444 0
M  V30 3252 O 305.063 3.29336 -5.03807 0
M  V30 3253 H 308.889 0.730657 -2.9478 0
M  V30 3254 H 306.474 0.295301 -1.46452 0
M  V30 3255 H 308.356 3.17691 -2.76858 0
M  V30 3256 H 307.031 2.79319 -1.63593 0
M  V30 3257 H 305.938 1.38403 -3.47556 0
M  V30 3258 H 307.271 1.83923 -4.56545 0
M  V30 3259 N 308.923 1.53595 0.353017 0
M  V30 3260 C 310.334 1.61937 0.929153 0
M  V30 3261 C 310.685 0.494686 1.89861 0
M  V30 3262 O 309.81 -0.377017 2.1309 0
M  V30 3263 C 310.405 2.93526 1.69199 0
M  V30 3264 C 308.964 3.04161 2.21727 0
M  V30 3265 C 308.111 2.57322 1.03348 0
M  V30 3266 H 311.062 1.58155 0.131431 0
M  V30 3267 H 311.083 2.82034 2.55416 0
M  V30 3268 H 310.595 3.75362 0.986144 0
M  V30 3269 H 308.696 2.26938 2.95516 0
M  V30 3270 H 308.809 4.09465 2.48748 0
M  V30 3271 H 307.173 2.12499 1.40414 0
M  V30 3272 H 307.956 3.41588 0.342428 0
M  V30 3273 N 310.401 -0.613514 1.45168 0
M  V30 3274 C 311.678 -1.37263 1.39349 0
M  V30 3275 C 312.058 -2.11012 0.0610848 0
M  V30 3276 O 311.406 -2.07502 -0.956825 0
M  V30 3277 C 311.616 -2.3244 2.60332 0
M  V30 3278 C 312.964 -2.9523 3.05163 0
M  V30 3279 O 313.988 -2.42762 2.60663 0
M  V30 3280 O 312.847 -3.90454 3.82372 0
M  V30 3281 H 309.941 -0.615188 0.552696 0
M  V30 3282 H 312.487 -0.637097 1.57287 0
M  V30 3283 H 311.259 -1.77164 3.48896 0
M  V30 3284 H 310.882 -3.13383 2.44698 0
M  V30 3285 N 311.879 -1.3236 -0.855495 0
M  V30 3286 C 313.125 -1.23054 -1.612 0
M  V30 3287 C 313.458 0.207404 -1.93089 0
M  V30 3288 O 312.733 1.14432 -1.57275 0
M  V30 3289 C 313.016 -2.08937 -2.93287 0
M  V30 3290 C 312.869 -3.61105 -2.68185 0
M  V30 3291 C 314.188 -1.94986 -3.94549 0
M  V30 3292 H 311.307 -0.448364 -0.584926 0
M  V30 3293 H 313.949 -1.62297 -0.987917 0
M  V30 3294 H 312.099 -1.75599 -3.46551 0
M  V30 3295 H 313.771 -4.04652 -2.21483 0
M  V30 3296 H 312.014 -3.83813 -2.02164 0
M  V30 3297 H 312.685 -4.16522 -3.62234 0
M  V30 3298 H 315.161 -2.24189 -3.5054 0
M  V30 3299 H 314.037 -2.57356 -4.84829 0
M  V30 3300 H 314.298 -0.917263 -4.3248 0
M  V30 3301 N 313.357 1.07166 -1.15556 0
M  V30 3302 C 314.305 2.16517 -0.8499 0
M  V30 3303 C 315.299 1.68468 0.177454 0
M  V30 3304 O 316.505 1.79971 0.0323026 0
M  V30 3305 H 312.88 0.706652 -0.25719 0
M  V30 3306 H 314.851 2.39514 -1.77976 0
M  V30 3307 C 313.6 3.45855 -0.357682 0
M  V30 3308 H 312.923 3.83214 -1.13961 0
M  V30 3309 H 314.363 4.23607 -0.182489 0
M  V30 3310 C 312.822 3.24062 0.921152 0
M  V30 3311 O 313.352 3.48813 1.9923 0
M  V30 3312 N 311.558 2.77539 0.86141 0
M  V30 3313 H 311.105 2.57598 -0.0104408 0
M  V30 3314 H 311.063 2.63337 1.71758 0
M  V30 3315 N 314.835 0.952656 1.25548 0
M  V30 3316 C 315.798 0.475794 2.24207 0
M  V30 3317 C 316.798 -0.419428 1.55234 0
M  V30 3318 O 317.988 -0.216994 1.72843 0
M  V30 3319 C 315.12 -0.312814 3.39462 0
M  V30 3320 H 316.313 1.34779 2.67908 0
M  V30 3321 H 313.866 0.735739 1.37901 0
M  V30 3322 H 314.601 -1.20257 3.01179 0
M  V30 3323 H 314.386 0.329404 3.90714 0
M  V30 3324 H 315.876 -0.635986 4.12729 0
M  V30 3325 N 316.313 -1.40141 0.720998 0
M  V30 3326 C 317.223 -2.34486 0.0731031 0
M  V30 3327 C 318.239 -1.57587 -0.737723 0
M  V30 3328 O 319.415 -1.89949 -0.669429 0
M  V30 3329 C 316.48 -3.36528 -0.833656 0
M  V30 3330 C 315.541 -4.29298 -0.0121673 0
M  V30 3331 C 314.774 -5.26466 -0.875742 0
M  V30 3332 O 314.997 -5.29745 -2.11485 0
M  V30 3333 O 313.931 -6.01092 -0.31185 0
M  V30 3334 H 317.757 -2.9152 0.851444 0
M  V30 3335 H 315.342 -1.41427 0.481527 0
M  V30 3336 H 317.224 -3.99093 -1.35289 0
M  V30 3337 H 315.899 -2.81899 -1.59105 0
M  V30 3338 H 314.806 -3.70001 0.552262 0
M  V30 3339 H 316.139 -4.87094 0.707129 0
M  V30 3340 N 317.792 -0.46758 -1.50504 0
M  V30 3341 C 318.74 0.342482 -2.30065 0
M  V30 3342 C 319.734 0.993596 -1.37201 0
M  V30 3343 O 320.94 0.925102 -1.54408 0
M  V30 3344 H 317.315 0.129283 -0.740803 0
M  V30 3345 H 319.286 -0.34899 -2.96352 0
M  V30 3346 C 318.035 1.4139 -3.17654 0
M  V30 3347 H 317.358 0.922264 -3.89017 0
M  V30 3348 H 318.798 1.95335 -3.76325 0
M  V30 3349 C 317.257 2.4139 -2.35016 0
M  V30 3350 O 317.787 3.46586 -2.03079 0
M  V30 3351 N 315.993 2.13021 -1.97662 0
M  V30 3352 H 315.54 1.27499 -2.23834 0
M  V30 3353 H 315.498 2.80164 -1.42673 0
M  V30 3354 N 319.27 1.56325 -0.20005 0
M  V30 3355 C 320.51 1.99619 0.439519 0
M  V30 3356 C 320.874 1.08423 1.58456 0
M  V30 3357 O 322.075 1.40973 2.28867 0
M  V30 3358 C 320.346 3.46314 0.883258 0
M  V30 3359 S 321.905 4.11634 1.51997 0
M  V30 3360 H 318.723 0.697007 0.140363 0
M  V30 3361 H 321.325 1.93118 -0.304282 0
M  V30 3362 H 320.029 4.10381 0.0398967 0
M  V30 3363 H 319.56 3.56643 1.6604 0
M  V30 3364 H 321.575 4.09049 2.8088 0
M  V30 3365 N 320.748 -0.0735177 1.57428 0
M  V30 3366 C 322.025 -0.805903 1.78226 0
M  V30 3367 C 322.405 -1.95874 0.787189 0
M  V30 3368 O 321.753 -2.2779 -0.180029 0
M  V30 3369 C 321.963 -1.28045 3.24662 0
M  V30 3370 C 323.311 -1.71453 3.88444 0
M  V30 3371 O 324.335 -1.37616 3.28543 0
M  V30 3372 O 323.194 -2.34093 4.93825 0
M  V30 3373 H 320.288 -0.386041 0.73137 0
M  V30 3374 H 322.834 -0.0537269 1.69615 0
M  V30 3375 H 321.606 -0.455476 3.8864 0
M  V30 3376 H 321.229 -2.094 3.37991 0
M  V30 3377 N 322.226 -1.5378 -0.344866 0
M  V30 3378 C 323.451 -1.75211 -1.10977 0
M  V30 3379 C 323.876 -0.48936 -1.81623 0
M  V30 3380 O 323.234 0.557925 -1.72502 0
M  V30 3381 C 323.282 -2.93147 -2.09993 0
M  V30 3382 O 322.386 -2.63203 -3.17487 0
M  V30 3383 H 321.727 -0.581241 -0.321021 0
M  V30 3384 H 324.257 -2.00738 -0.395661 0
M  V30 3385 H 324.267 -3.19898 -2.53237 0
M  V30 3386 H 322.942 -3.84731 -1.5797 0
M  V30 3387 H 321.519 -2.47336 -2.79069 0
M  V30 3388 N 323.704 0.605807 -1.45491 0
M  V30 3389 C 324.929 1.39625 -1.53361 0
M  V30 3390 C 325.354 1.87351 -0.167645 0
M  V30 3391 O 324.712 1.60243 0.848051 0
M  V30 3392 C 324.76 2.57559 -2.5238 0
M  V30 3393 O 323.864 3.58248 -2.04285 0
M  V30 3394 H 323.205 0.416771 -0.516912 0
M  V30 3395 H 325.735 0.737103 -1.90861 0
M  V30 3396 H 325.745 3.0478 -2.71244 0
M  V30 3397 H 324.42 2.22171 -3.51586 0
M  V30 3398 H 322.997 3.17664 -1.95305 0
M  V30 3399 N 325.182 1.32811 0.848464 0
M  V30 3400 C 326.112 1.24882 1.97299 0
M  V30 3401 C 327.093 0.131357 1.69592 0
M  V30 3402 O 328.278 0.319553 1.91553 0
M  V30 3403 C 325.408 0.97746 3.33261 0
M  V30 3404 C 324.362 2.05682 3.75338 0
M  V30 3405 C 323.688 1.63777 5.09 0
M  V30 3406 C 324.988 3.47254 3.90144 0
M  V30 3407 H 326.682 2.18966 2.04191 0
M  V30 3408 H 324.228 1.05413 0.981029 0
M  V30 3409 H 326.181 0.908513 4.1149 0
M  V30 3410 H 324.905 0.000980011 3.266 0
M  V30 3411 H 323.564 2.11603 2.99366 0
M  V30 3412 H 323.212 0.648569 4.98801 0
M  V30 3413 H 322.912 2.36 5.38124 0
M  V30 3414 H 324.436 1.5833 5.89715 0
M  V30 3415 H 325.85 3.43888 4.58709 0
M  V30 3416 H 324.247 4.1788 4.30693 0
M  V30 3417 H 325.317 3.86462 2.92874 0
M  V30 3418 N 326.66 -1.06551 1.16123 0
M  V30 3419 C 327.608 -2.16063 0.861371 0
M  V30 3420 C 328.602 -1.6856 -0.168517 0
M  V30 3421 O 329.808 -1.79986 -0.0227579 0
M  V30 3422 H 326.183 -0.705278 0.260934 0
M  V30 3423 H 328.154 -2.38567 1.79244 0
M  V30 3424 C 326.903 -3.45661 0.376018 0
M  V30 3425 H 326.226 -3.82604 1.15992 0
M  V30 3426 H 327.666 -4.23504 0.204951 0
M  V30 3427 C 326.125 -3.24546 -0.903954 0
M  V30 3428 O 326.655 -3.49865 -1.97377 0
M  V30 3429 N 324.861 -2.77992 -0.846679 0
M  V30 3430 H 324.408 -2.57589 0.0241017 0
M  V30 3431 H 324.366 -2.64244 -1.70359 0
M  V30 3432 N 328.138 -0.959301 -1.25041 0
M  V30 3433 C 329.554 -0.664474 -1.4511 0
M  V30 3434 C 329.754 0.776481 -1.85938 0
M  V30 3435 O 328.81 1.55128 -1.99227 0
M  V30 3436 C 330.123 -1.64139 -2.5195 0
M  V30 3437 C 331.671 -1.65309 -2.65786 0
M  V30 3438 C 332.146 -2.61777 -3.75815 0
M  V30 3439 N 333.637 -2.60169 -3.83231 0
M  V30 3440 C 334.372 -3.31489 -4.6787 0
M  V30 3441 N 333.868 -4.12298 -5.56761 0
M  V30 3442 N 335.661 -3.20354 -4.61876 0
M  V30 3443 H 327.812 -1.89043 -0.968332 0
M  V30 3444 H 330.075 -0.813408 -0.4869 0
M  V30 3445 H 329.781 -2.67086 -2.28819 0
M  V30 3446 H 329.655 -1.40756 -3.49954 0
M  V30 3447 H 332.042 -0.630778 -2.8828 0
M  V30 3448 H 332.123 -1.92753 -1.68167 0
M  V30 3449 H 331.767 -3.64137 -3.54071 0
M  V30 3450 H 331.697 -2.31616 -4.72929 0
M  V30 3451 H 334.188 -2.01507 -3.19692 0
M  V30 3452 H 334.501 -4.63625 -6.18281 0
M  V30 3453 H 332.846 -4.16395 -5.56454 0
M  V30 3454 H 336.037 -2.56692 -3.91442 0
M  V30 3455 H 336.21 -3.76201 -5.27614 0
M  V30 3456 N 329.616 1.39756 -0.72842 0
M  V30 3457 C 330.844 2.04948 -0.283528 0
M  V30 3458 C 331.259 1.54908 1.0793 0
M  V30 3459 O 330.616 0.711135 1.68075 0
M  V30 3460 C 330.667 3.60498 -0.268957 0
M  V30 3461 O 330.388 4.08695 -1.57798 0
M  V30 3462 C 331.889 4.4288 0.192912 0
M  V30 3463 H 329.109 0.659243 -0.125056 0
M  V30 3464 H 331.653 1.78927 -0.990226 0
M  V30 3465 H 329.808 3.85444 0.388801 0
M  V30 3466 H 330.222 5.02977 -1.48709 0
M  V30 3467 H 331.696 5.51791 0.151952 0
M  V30 3468 H 332.173 4.21418 1.23708 0
M  V30 3469 H 332.779 4.23069 -0.435039 0
M  V30 3470 N 331.094 0.475555 1.50254 0
M  V30 3471 C 332.324 -0.0753399 2.06463 0
M  V30 3472 C 332.732 -1.33661 1.33908 0
M  V30 3473 O 332.075 -1.79219 0.403257 0
M  V30 3474 C 332.137 -0.424921 3.5698 0
M  V30 3475 C 331.801 0.734965 4.51051 0
M  V30 3476 C 332.798 1.61827 4.94073 0
M  V30 3477 C 330.483 0.926557 4.9368 0
M  V30 3478 C 332.477 2.67754 5.78434 0
M  V30 3479 C 330.164 1.98904 5.77824 0
M  V30 3480 C 331.162 2.8629 6.20103 0
M  V30 3481 O 330.85 3.90708 7.02568 0
M  V30 3482 H 330.582 0.00576308 0.675975 0
M  V30 3483 H 333.136 0.664662 1.94349 0
M  V30 3484 H 331.366 -1.21817 3.67012 0
M  V30 3485 H 333.055 -0.911422 3.95535 0
M  V30 3486 H 333.821 1.48196 4.61804 0
M  V30 3487 H 329.7 0.25584 4.6029 0
M  V30 3488 H 333.244 3.35992 6.11355 0
M  V30 3489 H 329.141 2.12541 6.09505 0
M  V30 3490 H 329.909 3.87751 7.20827 0
M  V30 3491 N 332.573 -1.56217 0.208337 0
M  V30 3492 C 333.536 -2.18455 -0.693557 0
M  V30 3493 C 334.536 -1.14268 -1.13135 0
M  V30 3494 O 335.726 -1.39577 -1.0423 0
M  V30 3495 C 332.858 -2.79727 -1.94848 0
M  V30 3496 H 334.051 -2.99519 -0.15114 0
M  V30 3497 H 331.604 -1.56245 -0.041287 0
M  V30 3498 H 332.339 -2.02497 -2.53309 0
M  V30 3499 H 332.124 -3.56009 -1.64316 0
M  V30 3500 H 333.614 -3.27475 -2.59133 0
M  V30 3501 N 334.051 0.0651679 -1.57465 0
M  V30 3502 C 335.3 0.761916 -1.86756 0
M  V30 3503 C 335.613 1.78406 -0.801925 0
M  V30 3504 O 336.819 2.53084 -0.982885 0
M  V30 3505 C 335.275 1.40603 -3.31299 0
M  V30 3506 C 334.883 0.422115 -4.46007 0
M  V30 3507 C 336.627 2.08476 -3.69781 0
M  V30 3508 C 334.534 1.07252 -5.81593 0
M  V30 3509 H 333.464 0.288308 -0.696702 0
M  V30 3510 H 336.115 0.015344 -1.83494 0
M  V30 3511 H 334.497 2.20109 -3.29193 0
M  V30 3512 H 335.671 -0.343613 -4.59517 0
M  V30 3513 H 333.986 -0.152527 -4.16121 0
M  V30 3514 H 336.583 2.57925 -4.68379 0
M  V30 3515 H 336.926 2.88712 -2.99919 0
M  V30 3516 H 337.459 1.35792 -3.73905 0
M  V30 3517 H 334.198 0.310342 -6.54765 0
M  V30 3518 H 333.718 1.80895 -5.71872 0
M  V30 3519 H 335.397 1.59043 -6.27148 0
M  V30 3520 N 335.529 1.53961 0.336706 0
M  V30 3521 C 336.754 1.75797 1.10046 0
M  V30 3522 C 337.179 0.498985 1.81361 0
M  V30 3523 O 336.537 -0.548769 1.72795 0
M  V30 3524 C 336.585 2.94257 2.08436 0
M  V30 3525 O 335.689 2.64883 3.16087 0
M  V30 3526 H 335.03 0.582936 0.317934 0
M  V30 3527 H 337.56 2.00945 0.38501 0
M  V30 3528 H 337.57 3.21237 2.51537 0
M  V30 3529 H 336.245 3.85564 1.55927 0
M  V30 3530 H 334.822 2.48812 2.77753 0
M  V30 3531 N 337.007 -0.598083 1.45811 0
M  V30 3532 C 338.232 -1.3881 1.54099 0
M  V30 3533 C 338.657 -1.8726 0.177578 0
M  V30 3534 O 338.015 -1.6069 -0.839541 0
M  V30 3535 C 338.063 -2.56217 2.53743 0
M  V30 3536 O 337.167 -3.5716 2.06182 0
M  V30 3537 H 336.508 -0.414024 0.519115 0
M  V30 3538 H 339.038 -0.726971 1.91249 0
M  V30 3539 H 339.048 -3.03337 2.72856 0
M  V30 3540 H 337.723 -2.20303 3.5276 0
M  V30 3541 H 336.3 -3.16624 1.96987 0
M  V30 3542 N 338.485 -1.33259 -0.841409 0
M  V30 3543 C 339.71 -1.2775 -1.63385 0
M  V30 3544 C 340.135 0.149188 -1.87507 0
M  V30 3545 O 339.493 1.10498 -1.43736 0
M  V30 3546 C 339.541 -2.05571 -2.96265 0
M  V30 3547 O 338.645 -1.41257 -3.87453 0
M  V30 3548 H 337.986 -0.439627 -0.497618 0
M  V30 3549 H 340.516 -1.75782 -1.04699 0
M  V30 3550 H 340.526 -2.16241 -3.45982 0
M  V30 3551 H 339.201 -3.09309 -2.7803 0
M  V30 3552 H 337.778 -1.39217 -3.45938 0
M  V30 3553 N 339.963 1.05934 -1.16686 0
M  V30 3554 C 340.893 2.1546 -0.899949 0
M  V30 3555 C 341.874 1.69391 0.155154 0
M  V30 3556 O 343.059 1.94199 0.00648693 0
M  V30 3557 C 340.189 3.44939 -0.404241 0
M  V30 3558 C 339.143 4.04536 -1.39767 0
M  V30 3559 C 338.469 5.29268 -0.760216 0
M  V30 3560 C 339.769 4.42893 -2.76845 0
M  V30 3561 H 341.463 2.38046 -1.81588 0
M  V30 3562 H 339.009 1.14404 -0.874514 0
M  V30 3563 H 340.962 4.20901 -0.204971 0
M  V30 3564 H 339.686 3.21983 0.547206 0
M  V30 3565 H 338.345 3.30635 -1.58355 0
M  V30 3566 H 337.993 5.02611 0.197831 0
M  V30 3567 H 337.693 5.70101 -1.42332 0
M  V30 3568 H 339.217 6.07924 -0.57105 0
M  V30 3569 H 340.631 5.09921 -2.62019 0
M  V30 3570 H 339.028 4.94721 -3.39663 0
M  V30 3571 H 340.098 3.53584 -3.31823 0
M  V30 3572 N 341.441 0.965919 1.2453 0
M  V30 3573 C 342.69 0.622437 1.91856 0
M  V30 3574 C 343.003 -0.846006 1.76358 0
M  V30 3575 O 344.209 -1.29993 2.38357 0
M  V30 3576 C 342.665 1.0626 3.43856 0
M  V30 3577 C 342.273 2.55437 3.68043 0
M  V30 3578 C 344.017 0.792183 4.17043 0
M  V30 3579 C 341.924 2.93196 5.13605 0
M  V30 3580 H 340.854 0.229092 0.718354 0
M  V30 3581 H 343.505 1.17189 1.41206 0
M  V30 3582 H 341.887 0.441476 3.93531 0
M  V30 3583 H 343.061 3.22665 3.28974 0
M  V30 3584 H 341.376 2.8007 3.08139 0
M  V30 3585 H 343.973 1.05031 5.24283 0
M  V30 3586 H 344.316 -0.271584 4.15413 0
M  V30 3587 H 344.849 1.37419 3.73311 0
M  V30 3588 H 341.588 3.98636 5.20355 0
M  V30 3589 H 341.108 2.30651 5.53679 0
M  V30 3590 H 342.787 2.83004 5.81823 0
M  V30 3591 N 342.919 -1.39368 0.735821 0
M  V30 3592 C 344.144 -2.05319 0.293052 0
M  V30 3593 C 344.569 -1.55115 -1.064 0
M  V30 3594 O 343.927 -0.695261 -1.67439 0
M  V30 3595 C 343.975 -3.59305 0.305323 0
M  V30 3596 O 343.079 -4.06299 -0.706761 0
M  V30 3597 H 342.42 -0.650529 0.13307 0
M  V30 3598 H 344.95 -1.78386 1.00197 0
M  V30 3599 H 344.96 -4.07724 0.149997 0
M  V30 3600 H 343.635 -3.95207 1.29553 0
M  V30 3601 H 342.212 -3.69292 -0.517504 0
M  V30 3602 N 344.397 -0.483516 -1.5 0
M  V30 3603 C 345.644 0.0671597 -2.02389 0
M  V30 3604 C 345.972 1.38597 -1.36459 0
M  V30 3605 O 345.227 1.89634 -0.483458 0
M  V30 3606 C 345.526 0.286226 -3.56252 0
M  V30 3607 C 345.192 -0.952416 -4.40726 0
M  V30 3608 C 343.854 -1.29199 -4.63531 0
M  V30 3609 C 346.206 -1.77655 -4.89988 0
M  V30 3610 C 343.534 -2.45553 -5.32842 0
M  V30 3611 C 345.886 -2.93147 -5.60578 0
M  V30 3612 C 344.55 -3.27505 -5.81633 0
M  V30 3613 H 343.82 0.0245755 -0.740592 0
M  V30 3614 H 346.467 -0.640124 -1.80485 0
M  V30 3615 H 344.772 1.07587 -3.76739 0
M  V30 3616 H 346.469 0.726473 -3.94365 0
M  V30 3617 H 343.059 -0.677881 -4.23205 0
M  V30 3618 H 347.243 -1.52737 -4.72213 0
M  V30 3619 H 342.499 -2.72431 -5.47349 0
M  V30 3620 H 346.673 -3.57344 -5.97727 0
M  V30 3621 H 344.3 -4.1777 -6.35116 0
M  V30 3622 N 345.875 1.56104 -0.216619 0
M  V30 3623 C 347.105 2.02269 0.420802 0
M  V30 3624 C 347.513 1.09575 1.5424 0
M  V30 3625 O 346.856 0.0967308 1.83445 0
M  V30 3626 C 346.918 3.44784 1.01806 0
M  V30 3627 C 346.582 4.56988 0.0325154 0
M  V30 3628 C 347.579 5.14225 -0.766055 0
M  V30 3629 C 345.264 5.02228 -0.0848092 0
M  V30 3630 C 347.258 6.15169 -1.6687 0
M  V30 3631 C 344.945 6.03011 -0.990994 0
M  V30 3632 C 345.943 6.59357 -1.78149 0
M  V30 3633 O 345.631 7.58179 -2.67245 0
M  V30 3634 H 345.363 0.667353 0.107776 0
M  V30 3635 H 347.917 2.02747 -0.329034 0
M  V30 3636 H 346.147 3.41359 1.81689 0
M  V30 3637 H 347.836 3.74626 1.56237 0
M  V30 3638 H 348.602 4.80126 -0.685836 0
M  V30 3639 H 344.481 4.58054 0.520349 0
M  V30 3640 H 348.025 6.59076 -2.28615 0
M  V30 3641 H 343.922 6.36532 -1.07225 0
M  V30 3642 H 344.69 7.75682 -2.61265 0
M  V30 3643 N 347.353 -0.0568162 1.57498 0
M  V30 3644 C 348.602 -0.752001 1.87157 0
M  V30 3645 C 348.915 -1.77978 0.811375 0
M  V30 3646 O 350.121 -2.52559 0.996293 0
M  V30 3647 C 348.577 -1.38844 3.3204 0
M  V30 3648 C 348.185 -0.398456 4.46225 0
M  V30 3649 C 349.929 -2.06512 3.70882 0
M  V30 3650 C 347.836 -1.04166 5.82154 0
M  V30 3651 H 346.766 -0.28461 0.698222 0
M  V30 3652 H 349.417 -0.00561272 1.83499 0
M  V30 3653 H 347.799 -2.1836 3.30356 0
M  V30 3654 H 348.973 0.367977 4.59328 0
M  V30 3655 H 347.288 0.174592 4.16034 0
M  V30 3656 H 349.885 -2.55437 4.6974 0
M  V30 3657 H 350.228 -2.87117 3.01445 0
M  V30 3658 H 350.761 -1.33808 3.7462 0
M  V30 3659 H 347.5 -0.275614 6.5492 0
M  V30 3660 H 347.02 -1.7786 5.72823 0
M  V30 3661 H 348.699 -1.55715 6.27982 0
M  V30 3662 N 348.832 -1.54138 -0.328536 0
M  V30 3663 C 350.243 -1.63395 -0.903272 0
M  V30 3664 C 350.594 -0.524828 -1.8905 0
M  V30 3665 O 349.719 0.343068 -2.13663 0
M  V30 3666 C 350.314 -2.9618 -1.64507 0
M  V30 3667 C 348.873 -3.0765 -2.1686 0
M  V30 3668 C 348.02 -2.58933 -0.992416 0
M  V30 3669 H 350.971 -1.58344 -0.106253 0
M  V30 3670 H 350.992 -2.86061 -2.50897 0
M  V30 3671 H 350.504 -3.76884 -0.926302 0
M  V30 3672 H 348.605 -2.31611 -2.91868 0
M  V30 3673 H 348.718 -4.1337 -2.42202 0
M  V30 3674 H 347.082 -2.14706 -1.37016 0
M  V30 3675 H 347.865 -3.42089 -0.288041 0
M  V30 3676 N 350.31 0.590341 -1.46126 0
M  V30 3677 C 351.556 1.35082 -1.51264 0
M  V30 3678 C 351.889 1.93534 -0.160711 0
M  V30 3679 O 351.164 1.76045 0.826956 0
M  V30 3680 C 351.447 2.48588 -2.6053 0
M  V30 3681 C 351.3 1.95221 -4.05227 0
M  V30 3682 C 352.619 3.50662 -2.6594 0
M  V30 3683 H 349.738 0.489803 -0.550692 0
M  V30 3684 H 352.38 0.663887 -1.78024 0
M  V30 3685 H 350.53 3.07186 -2.37843 0
M  V30 3686 H 352.202 1.41139 -4.39178 0
M  V30 3687 H 350.445 1.26101 -4.15068 0
M  V30 3688 H 351.116 2.77121 -4.77397 0
M  V30 3689 H 353.592 3.01934 -2.86313 0
M  V30 3690 H 352.468 4.27551 -3.44226 0
M  V30 3691 H 352.729 4.07399 -1.71694 0
M  V30 3692 N 351.788 1.33704 0.83433 0
M  V30 3693 C 352.751 1.24244 1.92603 0
M  V30 3694 C 353.751 0.160383 1.59998 0
M  V30 3695 O 354.941 0.412228 1.69252 0
M  V30 3696 C 352.073 0.91555 3.28376 0
M  V30 3697 H 353.266 2.21287 2.02416 0
M  V30 3698 H 350.819 1.17827 1.02696 0
M  V30 3699 H 351.554 -0.0521886 3.24258 0
M  V30 3700 H 351.339 1.69811 3.53422 0
M  V30 3701 H 352.829 0.874231 4.08347 0
M  V30 3702 N 353.266 -1.05314 1.17247 0
M  V30 3703 C 354.515 -1.77685 0.954521 0
M  V30 3704 C 354.828 -1.88616 -0.518025 0
M  V30 3705 O 356.034 -2.57714 -0.854144 0
M  V30 3706 C 354.49 -3.19402 1.65863 0
M  V30 3707 C 354.098 -3.16605 3.16963 0
M  V30 3708 C 355.842 -3.96237 1.52303 0
M  V30 3709 C 353.749 -4.53103 3.80068 0
M  V30 3710 H 352.679 -0.666 0.353496 0
M  V30 3711 H 355.33 -1.1805 1.40486 0
M  V30 3712 H 353.712 -3.79355 1.13602 0
M  V30 3713 H 354.886 -2.66176 3.76148 0
M  V30 3714 H 353.201 -2.53268 3.30521 0
M  V30 3715 H 355.798 -4.97157 1.96822 0
M  V30 3716 H 356.141 -4.136 0.473401 0
M  V30 3717 H 356.674 -3.42829 2.01775 0
M  V30 3718 H 353.413 -4.40946 4.85023 0
M  V30 3719 H 352.933 -5.03686 3.2567 0
M  V30 3720 H 354.612 -5.22045 3.82202 0
M  V30 3721 N 354.744 -0.972509 -1.24016 0
M  V30 3722 C 355.677 -0.45117 -2.23696 0
M  V30 3723 C 356.655 0.477378 -1.55434 0
M  V30 3724 O 357.839 0.407647 -1.84039 0
M  V30 3725 C 354.966 0.34818 -3.36906 0
M  V30 3726 C 354.012 -0.523355 -4.23277 0
M  V30 3727 S 354.845 -1.96647 -4.98087 0
M  V30 3728 C 356.001 -1.17604 -6.14752 0
M  V30 3729 H 356.234 -1.29588 -2.67571 0
M  V30 3730 H 353.767 -0.777903 -1.33372 0
M  V30 3731 H 355.725 0.803387 -4.02562 0
M  V30 3732 H 354.386 1.16792 -2.91579 0
M  V30 3733 H 353.579 0.0906181 -5.03919 0
M  V30 3734 H 353.181 -0.914485 -3.62647 0
M  V30 3735 H 355.473 -0.433434 -6.76112 0
M  V30 3736 H 356.416 -1.95701 -6.8052 0
M  V30 3737 H 356.824 -0.698295 -5.60164 0
M  V30 3738 N 356.222 1.38976 -0.743202 0
M  V30 3739 C 357.471 1.99581 -0.291592 0
M  V30 3740 C 357.784 1.59656 1.13001 0
M  V30 3741 O 358.99 2.13157 1.68156 0
M  V30 3742 C 357.446 3.56813 -0.470391 0
M  V30 3743 C 357.054 4.05695 -1.90041 0
M  V30 3744 C 358.798 4.24423 -0.0809709 0
M  V30 3745 C 356.705 5.5553 -2.02832 0
M  V30 3746 H 355.635 0.746615 -0.105272 0
M  V30 3747 H 358.286 1.58872 -0.918258 0
M  V30 3748 H 356.668 3.95359 0.225299 0
M  V30 3749 H 357.842 3.78464 -2.62872 0
M  V30 3750 H 356.157 3.50775 -2.24379 0
M  V30 3751 H 358.754 5.34474 -0.155445 0
M  V30 3752 H 359.097 4.04962 0.96497 0
M  V30 3753 H 359.63 3.9108 -0.728124 0
M  V30 3754 H 356.369 5.79881 -3.05643 0
M  V30 3755 H 355.889 5.84537 -1.34448 0
M  V30 3756 H 357.568 6.21069 -1.81335 0
M  V30 3757 N 357.7 0.491464 1.49741 0
M  V30 3758 C 358.946 -0.0565092 2.02721 0
M  V30 3759 C 359.279 -1.37522 1.37118 0
M  V30 3760 O 358.554 -1.87866 0.503645 0
M  V30 3761 C 358.837 -0.219051 3.59433 0
M  V30 3762 C 358.69 1.12211 4.35579 0
M  V30 3763 C 360.009 -0.964157 4.29409 0
M  V30 3764 H 357.128 -0.0190627 0.736753 0
M  V30 3765 H 359.77 0.641021 1.7886 0
M  V30 3766 H 357.92 -0.813165 3.79895 0
M  V30 3767 H 359.592 1.75437 4.26637 0
M  V30 3768 H 357.835 1.71377 3.98513 0
M  V30 3769 H 358.506 0.961794 5.43556 0
M  V30 3770 H 360.982 -0.460378 4.13545 0
M  V30 3771 H 359.858 -1.04671 5.38828 0
M  V30 3772 H 360.119 -2.00563 3.93988 0
M  V30 3773 N 359.178 -1.55987 0.224894 0
M  V30 3774 C 360.406 -2.02784 -0.410665 0
M  V30 3775 C 360.821 -1.10464 -1.53112 0
M  V30 3776 O 360.178 -0.114871 -1.82138 0
M  V30 3777 C 360.229 -3.49087 -0.939165 0
M  V30 3778 O 359.95 -4.37887 0.136614 0
M  V30 3779 C 361.451 -4.11543 -1.64763 0
M  V30 3780 H 358.671 -0.663484 -0.100148 0
M  V30 3781 H 361.215 -2.01614 0.342326 0
M  V30 3782 H 359.37 -3.50861 -1.64242 0
M  V30 3783 H 359.784 -5.23849 -0.261155 0
M  V30 3784 H 361.258 -5.15673 -1.96939 0
M  V30 3785 H 361.735 -3.56736 -2.56195 0
M  V30 3786 H 362.341 -4.13629 -0.989503 0
M  V30 3787 N 360.656 0.0484629 -1.57525 0
M  V30 3788 C 361.886 0.754326 -1.92337 0
M  V30 3789 C 362.294 1.70443 -0.82132 0
M  V30 3790 O 361.637 1.82466 0.21254 0
M  V30 3791 C 361.699 1.58231 -3.22805 0
M  V30 3792 C 361.363 0.799074 -4.4996 0
M  V30 3793 C 362.36 0.1079 -5.19788 0
M  V30 3794 C 360.045 0.759345 -4.96527 0
M  V30 3795 C 362.039 -0.612516 -6.3445 0
M  V30 3796 C 359.726 0.0351713 -6.1109 0
M  V30 3797 C 360.724 -0.649537 -6.79904 0
M  V30 3798 O 360.412 -1.36199 -7.92278 0
M  V30 3799 H 360.144 0.218257 -0.639797 0
M  V30 3800 H 362.698 0.0159295 -2.05394 0
M  V30 3801 H 360.928 2.36406 -3.06021 0
M  V30 3802 H 362.617 2.16898 -3.43089 0
M  V30 3803 H 363.383 0.129748 -4.84826 0
M  V30 3804 H 359.262 1.28177 -4.42822 0
M  V30 3805 H 362.806 -1.14751 -6.88097 0
M  V30 3806 H 358.703 0.0113314 -6.45499 0
M  V30 3807 H 359.471 -1.27366 -8.0853 0
M  V30 3808 N 362.134 1.5431 0.320358 0
M  V30 3809 C 363.362 1.76636 1.07738 0
M  V30 3810 C 363.777 0.51649 1.81598 0
M  V30 3811 O 363.134 -0.512942 1.75143 0
M  V30 3812 C 363.185 2.96158 2.07299 0
M  V30 3813 O 362.906 4.16313 1.36438 0
M  V30 3814 C 364.407 3.3072 2.95193 0
M  V30 3815 H 361.627 0.589597 0.320339 0
M  V30 3816 H 364.171 2.01207 0.36551 0
M  V30 3817 H 362.326 2.73851 2.74016 0
M  V30 3818 H 362.74 4.83565 2.03138 0
M  V30 3819 H 364.214 4.17643 3.60941 0
M  V30 3820 H 364.691 2.48026 3.62463 0
M  V30 3821 H 365.297 3.55117 2.34034 0
M  V30 3822 N 363.613 -0.582584 1.46437 0
M  V30 3823 C 365.029 -0.905962 1.31394 0
M  V30 3824 C 365.229 -1.99468 0.285476 0
M  V30 3825 O 364.285 -2.50566 -0.311914 0
M  V30 3826 C 365.598 -1.3232 2.70022 0
M  V30 3827 C 367.146 -1.43604 2.78113 0
M  V30 3828 C 367.621 -1.88694 4.17323 0
M  V30 3829 N 369.112 -1.95887 4.19741 0
M  V30 3830 C 369.847 -2.32051 5.24347 0
M  V30 3831 N 369.343 -2.67006 6.39281 0
M  V30 3832 N 371.136 -2.32606 5.11713 0
M  V30 3833 H 363.287 0.1366 2.1196 0
M  V30 3834 H 365.55 -0.00155736 0.947999 0
M  V30 3835 H 365.256 -0.597242 3.46592 0
M  V30 3836 H 365.13 -2.28469 3.00136 0
M  V30 3837 H 367.517 -2.15286 2.01832 0
M  V30 3838 H 367.598 -0.457059 2.51684 0
M  V30 3839 H 367.242 -1.1759 4.941 0
M  V30 3840 H 367.172 -2.8755 4.4116 0
M  V30 3841 H 369.663 -1.71362 3.36814 0
M  V30 3842 H 369.976 -2.93554 7.14875 0
M  V30 3843 H 368.321 -2.64644 6.42642 0
M  V30 3844 H 371.512 -2.04721 4.2096 0
M  V30 3845 H 371.685 -2.60462 5.93349 0
M  V30 3846 N 365.091 -1.34144 -0.827227 0
M  V30 3847 C 366.34 -1.25602 -1.5782 0
M  V30 3848 C 366.653 0.173445 -1.94829 0
M  V30 3849 O 367.859 0.380984 -2.68814 0
M  V30 3850 C 366.315 -2.20151 -2.84713 0
M  V30 3851 C 365.923 -3.68331 -2.55021 0
M  V30 3852 C 367.667 -2.20508 -3.62735 0
M  V30 3853 C 365.574 -4.54762 -3.78082 0
M  V30 3854 H 364.504 -0.466573 -0.592306 0
M  V30 3855 H 367.155 -1.59283 -0.911116 0
M  V30 3856 H 365.537 -1.79417 -3.53023 0
M  V30 3857 H 366.711 -4.17577 -1.94849 0
M  V30 3858 H 365.026 -3.7038 -1.90283 0
M  V30 3859 H 367.623 -2.82306 -4.54101 0
M  V30 3860 H 367.966 -1.20322 -3.98533 0
M  V30 3861 H 368.499 -2.59664 -3.01362 0
M  V30 3862 H 365.238 -5.55867 -3.47407 0
M  V30 3863 H 364.758 -4.10254 -4.37552 0
M  V30 3864 H 366.437 -4.69153 -4.45538 0
M  V30 3865 N 366.569 1.04691 -1.17803 0
M  V30 3866 C 367.799 1.81183 -0.992788 0
M  V30 3867 C 368.207 1.8347 0.462098 0
M  V30 3868 O 367.55 1.2643 1.33271 0
M  V30 3869 C 367.612 3.28363 -1.46349 0
M  V30 3870 C 367.276 3.49749 -2.94151 0
M  V30 3871 C 368.273 3.41456 -3.92051 0
M  V30 3872 C 365.958 3.76548 -3.32441 0
M  V30 3873 C 367.952 3.59656 -5.26238 0
M  V30 3874 C 365.639 3.94396 -4.66792 0
M  V30 3875 C 366.637 3.8595 -5.635 0
M  V30 3876 O 366.325 4.03294 -6.9542 0
M  V30 3877 H 366.057 0.577622 -0.351182 0
M  V30 3878 H 368.611 1.32876 -1.5663 0
M  V30 3879 H 366.841 3.77609 -0.833574 0
M  V30 3880 H 368.53 3.86395 -1.24313 0
M  V30 3881 H 369.296 3.20723 -3.63815 0
M  V30 3882 H 365.175 3.82224 -2.57732 0
M  V30 3883 H 368.719 3.52979 -6.01707 0
M  V30 3884 H 364.616 4.14622 -4.94731 0
M  V30 3885 H 365.384 4.2049 -7.02232 0
M  V30 3886 N 368.047 0.979072 1.23499 0
M  V30 3887 C 369.463 0.687475 1.44034 0
M  V30 3888 C 369.663 -0.746801 1.8715 0
M  V30 3889 O 368.719 -1.51939 2.0167 0
M  V30 3890 C 370.032 1.68127 2.49307 0
M  V30 3891 C 371.58 1.69516 2.63122 0
M  V30 3892 C 372.055 2.67723 3.71603 0
M  V30 3893 N 373.546 2.66233 3.79044 0
M  V30 3894 C 374.281 3.38891 4.62537 0
M  V30 3895 N 373.777 4.21103 5.50131 0
M  V30 3896 N 375.57 3.27661 4.56721 0
M  V30 3897 H 367.721 1.90559 0.938135 0
M  V30 3898 H 369.984 0.821051 0.473897 0
M  V30 3899 H 369.69 2.70693 2.2454 0
M  V30 3900 H 369.564 1.46306 3.4767 0
M  V30 3901 H 371.951 0.676561 2.8724 0
M  V30 3902 H 372.032 1.95404 1.65079 0
M  V30 3903 H 371.676 3.69724 3.48233 0
M  V30 3904 H 371.606 2.39111 4.69184 0
M  V30 3905 H 374.097 2.06568 3.16446 0
M  V30 3906 H 374.41 4.73403 6.10827 0
M  V30 3907 H 372.755 4.25195 5.49759 0
M  V30 3908 H 375.946 2.62887 3.87309 0
M  V30 3909 H 376.119 3.84547 5.21562 0
M  V30 3910 N 369.525 -1.3858 0.750561 0
M  V30 3911 C 370.774 -1.99424 0.302172 0
M  V30 3912 C 371.087 -1.60254 -1.12152 0
M  V30 3913 O 372.293 -2.14046 -1.67023 0
M  V30 3914 C 370.749 -3.56558 0.489307 0
M  V30 3915 C 370.357 -4.04682 1.92189 0
M  V30 3916 C 372.101 -4.24374 0.103478 0
M  V30 3917 C 370.008 -5.54446 2.05775 0
M  V30 3918 H 368.938 -0.746046 0.10923 0
M  V30 3919 H 371.589 -1.58383 0.92667 0
M  V30 3920 H 369.971 -3.95472 -0.204329 0
M  V30 3921 H 371.145 -3.77065 2.64875 0
M  V30 3922 H 369.46 -3.4958 2.26236 0
M  V30 3923 H 372.057 -5.34384 0.183787 0
M  V30 3924 H 372.4 -4.05468 -0.943481 0
M  V30 3925 H 372.933 -3.90688 0.748854 0
M  V30 3926 H 369.672 -5.78252 3.08714 0
M  V30 3927 H 369.192 -5.83816 1.37546 0
M  V30 3928 H 370.871 -6.20099 1.84626 0
M  V30 3929 N 371.003 -0.499398 -1.49478 0
M  V30 3930 C 371.966 0.268838 -2.27618 0
M  V30 3931 C 372.966 0.895383 -1.33565 0
M  V30 3932 O 374.156 0.760164 -1.56739 0
M  V30 3933 C 371.288 1.38559 -3.11471 0
M  V30 3934 H 372.481 -0.416812 -2.96989 0
M  V30 3935 H 370.034 -0.254313 -1.54217 0
M  V30 3936 H 370.769 2.10544 -2.46661 0
M  V30 3937 H 370.554 0.941797 -3.80621 0
M  V30 3938 H 372.044 1.92678 -3.70493 0
M  V30 3939 N 372.481 1.55866 -0.233164 0
M  V30 3940 C 373.413 2.18099 0.704668 0
M  V30 3941 C 374.426 1.15334 1.14899 0
M  V30 3942 O 375.615 1.42262 1.07814 0
M  V30 3943 C 372.715 2.7592 1.96777 0
M  V30 3944 C 371.888 4.03969 1.67713 0
M  V30 3945 C 370.947 4.46242 2.78845 0
M  V30 3946 O 369.973 5.12903 2.46818 0
M  V30 3947 N 371.175 4.12886 4.08051 0
M  V30 3948 H 373.94 2.99205 0.172258 0
M  V30 3949 H 371.501 1.61815 -0.0525945 0
M  V30 3950 H 373.493 3.01165 2.70337 0
M  V30 3951 H 372.063 1.99051 2.41034 0
M  V30 3952 H 371.283 3.86459 0.777391 0
M  V30 3953 H 372.571 4.8748 1.4574 0
M  V30 3954 H 371.969 3.59342 4.3691 0
M  V30 3955 H 370.526 4.42997 4.78118 0
M  V30 3956 N 373.959 -0.0401083 1.57549 0
M  V30 3957 C 375.205 -0.734211 1.89043 0
M  V30 3958 C 375.538 -1.75591 0.829535 0
M  V30 3959 O 374.813 -1.93868 -0.156706 0
M  V30 3960 C 375.096 -1.41374 3.31188 0
M  V30 3961 C 374.949 -0.406299 4.47961 0
M  V30 3962 C 376.268 -2.35061 3.72068 0
M  V30 3963 H 373.387 -0.265447 0.687537 0
M  V30 3964 H 376.029 0.00294087 1.9 0
M  V30 3965 H 374.179 -2.04206 3.30503 0
M  V30 3966 H 375.851 0.219255 4.60779 0
M  V30 3967 H 374.094 0.275485 4.32924 0
M  V30 3968 H 374.765 -0.920022 5.44279 0
M  V30 3969 H 377.241 -1.82282 3.74049 0
M  V30 3970 H 376.117 -2.79593 4.72355 0
M  V30 3971 H 376.378 -3.21258 3.0372 0
M  V30 3972 N 375.437 -1.54477 -0.31217 0
M  V30 3973 C 376.369 -1.81011 -1.40598 0
M  V30 3974 C 377.382 -0.692546 -1.47335 0
M  V30 3975 O 378.571 -0.969847 -1.49854 0
M  V30 3976 C 375.671 -1.92307 -2.79054 0
M  V30 3977 C 374.844 -3.22594 -2.95384 0
M  V30 3978 C 373.903 -3.24448 -4.1427 0
M  V30 3979 O 372.929 -3.98035 -4.06887 0
M  V30 3980 N 374.131 -2.49042 -5.24365 0
M  V30 3981 H 376.896 -2.75408 -1.18196 0
M  V30 3982 H 374.457 -1.53914 -0.502202 0
M  V30 3983 H 376.449 -1.90962 -3.56813 0
M  V30 3984 H 375.019 -1.04955 -2.94454 0
M  V30 3985 H 374.239 -3.36806 -2.04831 0
M  V30 3986 H 375.527 -4.08593 -3.03198 0
M  V30 3987 H 374.925 -1.88867 -5.33241 0
M  V30 3988 H 373.482 -2.53463 -6.005 0
M  V30 3989 N 376.915 0.57481 -1.46744 0
M  V30 3990 C 378.164 1.32898 -1.51727 0
M  V30 3991 C 378.477 1.948 -0.176692 0
M  V30 3992 O 379.683 2.71299 -0.104385 0
M  V30 3993 C 378.139 2.40901 -2.67385 0
M  V30 3994 C 377.747 1.85266 -4.07898 0
M  V30 3995 C 379.491 3.17609 -2.81646 0
M  V30 3996 C 377.398 2.90945 -5.14883 0
M  V30 3997 H 376.328 0.499631 -0.564699 0
M  V30 3998 H 378.979 0.612536 -1.72975 0
M  V30 3999 H 377.361 3.15379 -2.39483 0
M  V30 4000 H 378.535 1.17278 -4.45626 0
M  V30 4001 H 376.85 1.21199 -3.98371 0
M  V30 4002 H 379.447 3.96493 -3.58744 0
M  V30 4003 H 379.79 3.70696 -1.89448 0
M  V30 4004 H 380.323 2.50239 -3.09233 0
M  V30 4005 H 377.062 2.42736 -6.089 0
M  V30 4006 H 376.582 3.57398 -4.81691 0
M  V30 4007 H 378.261 3.54755 -5.41071 0
M  V30 4008 N 378.394 1.34581 0.820102 0
M  V30 4009 C 379.81 1.14325 1.11364 0
M  V30 4010 C 380.01 -0.0533648 2.01429 0
M  V30 4011 O 379.066 -0.728044 2.41776 0
M  V30 4012 C 380.379 2.43983 1.75764 0
M  V30 4013 C 381.927 2.50065 1.88246 0
M  V30 4014 C 382.402 3.79732 2.56061 0
M  V30 4015 N 383.893 3.80908 2.63558 0
M  V30 4016 C 384.628 4.77961 3.16766 0
M  V30 4017 N 384.124 5.85397 3.70517 0
M  V30 4018 N 385.917 4.65413 3.15194 0
M  V30 4019 H 378.068 2.11246 0.221096 0
M  V30 4020 H 380.331 0.934289 0.160649 0
M  V30 4021 H 380.037 3.31651 1.1705 0
M  V30 4022 H 379.911 2.57531 2.75604 0
M  V30 4023 H 382.298 1.62834 2.46108 0
M  V30 4024 H 382.379 2.40442 0.873006 0
M  V30 4025 H 382.023 4.67354 1.98853 0
M  V30 4026 H 381.953 3.86639 3.57516 0
M  V30 4027 H 384.444 3.03274 2.25463 0
M  V30 4028 H 384.757 6.55463 4.09376 0
M  V30 4029 H 383.102 5.89107 3.68752 0
M  V30 4030 H 386.293 3.80627 2.72471 0
M  V30 4031 H 386.466 5.41216 3.56356 0
M  V30 4032 N 379.872 -1.04064 1.18357 0
M  V30 4033 C 381.288 -1.2947 0.933258 0
M  V30 4034 C 381.488 -1.97466 -0.401169 0
M  V30 4035 O 380.544 -2.25528 -1.13549 0
M  V30 4036 C 381.857 -2.15337 2.09882 0
M  V30 4037 C 383.405 -2.28683 2.13712 0
M  V30 4038 C 383.88 -3.17917 3.29686 0
M  V30 4039 N 385.371 -3.25504 3.29547 0
M  V30 4040 C 386.106 -3.94706 4.15926 0
M  V30 4041 N 385.602 -4.66239 5.12439 0
M  V30 4042 N 387.395 -3.90986 4.0384 0
M  V30 4043 H 379.546 -0.583359 2.04232 0
M  V30 4044 H 381.809 -0.319921 0.892387 0
M  V30 4045 H 381.515 -1.72682 3.06389 0
M  V30 4046 H 381.389 -3.16015 2.05947 0
M  V30 4047 H 383.776 -2.70575 1.17784 0
M  V30 4048 H 383.857 -1.27596 2.21705 0
M  V30 4049 H 383.501 -2.76736 4.25887 0
M  V30 4050 H 383.431 -4.19036 3.1893 0
M  V30 4051 H 385.922 -2.74547 2.59677 0
M  V30 4052 H 386.235 -5.16638 5.74722 0
M  V30 4053 H 384.58 -4.65143 5.16398 0
M  V30 4054 H 387.771 -3.34234 3.27727 0
M  V30 4055 H 387.944 -4.44646 4.71375 0
M  V30 4056 N 381.35 -0.985608 -1.22978 0
M  V30 4057 C 382.599 -0.652881 -1.90841 0
M  V30 4058 C 382.912 0.817842 -1.77681 0
M  V30 4059 O 384.118 1.26185 -2.40395 0
M  V30 4060 C 382.574 -1.11717 -3.42122 0
M  V30 4061 C 382.182 -2.6126 -3.63933 0
M  V30 4062 C 383.926 -0.85843 -4.1573 0
M  V30 4063 C 381.833 -3.0133 -5.08876 0
M  V30 4064 H 380.763 -0.240491 -0.714619 0
M  V30 4065 H 383.414 -1.1942 -1.39324 0
M  V30 4066 H 381.796 -0.504027 -3.92779 0
M  V30 4067 H 382.97 -3.27858 -3.23799 0
M  V30 4068 H 381.285 -2.84937 -3.03644 0
M  V30 4069 H 383.882 -1.13359 -5.22546 0
M  V30 4070 H 384.225 0.205461 -4.15793 0
M  V30 4071 H 384.758 -1.43341 -3.71077 0
M  V30 4072 H 381.497 -4.06864 -5.13947 0
M  V30 4073 H 381.017 -2.3943 -5.49939 0
M  V30 4074 H 382.696 -2.92224 -5.77247 0
M  V30 4075 N 382.828 1.3818 -0.7579 0
M  V30 4076 C 384.053 2.04827 -0.325679 0
M  V30 4077 C 384.478 1.56788 1.03919 0
M  V30 4078 O 383.836 0.721811 1.66312 0
M  V30 4079 C 383.884 3.58774 -0.362447 0
M  V30 4080 O 382.988 4.07372 0.642033 0
M  V30 4081 H 382.329 0.64833 -0.143402 0
M  V30 4082 H 384.859 1.7677 -1.03023 0
M  V30 4083 H 384.869 4.07434 -0.214844 0
M  V30 4084 H 383.544 3.93096 -1.35824 0
M  V30 4085 H 382.121 3.70068 0.458688 0
M  V30 4086 N 384.306 0.507319 1.49211 0
M  V30 4087 C 385.531 -0.033725 2.07373 0
M  V30 4088 C 385.956 -1.29485 1.36437 0
M  V30 4089 O 385.314 -1.76294 0.423087 0
M  V30 4090 C 385.362 -0.263945 3.59633 0
M  V30 4091 O 384.466 -1.33737 3.90113 0
M  V30 4092 H 383.807 0.0290331 0.663365 0
M  V30 4093 H 386.337 0.708749 1.91932 0
M  V30 4094 H 386.347 -0.493536 4.05004 0
M  V30 4095 H 385.022 0.657424 4.10671 0
M  V30 4096 H 383.599 -1.09224 3.56545 0
M  V30 4097 N 385.784 -1.5574 0.241426 0
M  V30 4098 C 386.714 -2.24133 -0.654722 0
M  V30 4099 C 387.695 -1.21974 -1.1856 0
M  V30 4100 O 388.88 -1.50612 -1.22595 0
M  V30 4101 C 386.01 -2.93659 -1.85423 0
M  V30 4102 C 384.964 -4.0246 -1.45636 0
M  V30 4103 C 384.29 -4.59383 -2.73626 0
M  V30 4104 C 385.59 -5.18468 -0.631506 0
M  V30 4105 H 387.284 -2.99281 -0.0844353 0
M  V30 4106 H 384.83 -1.43947 -0.0391707 0
M  V30 4107 H 386.783 -3.40203 -2.48676 0
M  V30 4108 H 385.507 -2.15991 -2.44981 0
M  V30 4109 H 384.166 -3.56676 -0.847202 0
M  V30 4110 H 383.814 -3.78422 -3.3137 0
M  V30 4111 H 383.514 -5.32826 -2.4773 0
M  V30 4112 H 385.038 -5.08658 -3.37786 0
M  V30 4113 H 386.452 -5.61272 -1.1682 0
M  V30 4114 H 384.849 -5.98266 -0.468831 0
M  V30 4115 H 385.919 -4.8358 0.357506 0
M  V30 4116 N 387.262 0.0317525 -1.57568 0
M  V30 4117 C 388.172 1.05021 -2.0978 0
M  V30 4118 C 389.188 1.39809 -1.03583 0
M  V30 4119 O 390.364 1.49182 -1.35302 0
M  V30 4120 C 387.429 2.33301 -2.56459 0
M  V30 4121 C 386.49 2.0512 -3.77127 0
M  V30 4122 C 385.723 3.27283 -4.2157 0
M  V30 4123 O 385.946 4.37861 -3.65559 0
M  V30 4124 O 384.88 3.13141 -5.14029 0
M  V30 4125 H 388.706 0.636505 -2.96955 0
M  V30 4126 H 386.291 0.248559 -1.47318 0
M  V30 4127 H 388.173 3.08722 -2.86825 0
M  V30 4128 H 386.848 2.73973 -1.72397 0
M  V30 4129 H 385.755 1.27276 -3.51784 0
M  V30 4130 H 387.088 1.69305 -4.62165 0
M  V30 4131 N 388.74 1.54641 0.303973 0
M  V30 4132 C 390.156 1.45788 0.649463 0
M  V30 4133 C 390.356 0.64666 1.90842 0
M  V30 4134 O 389.412 0.153183 2.52035 0
M  V30 4135 C 390.725 2.89718 0.805227 0
M  V30 4136 C 392.273 2.99742 0.901305 0
M  V30 4137 C 392.748 4.44863 1.08909 0
M  V30 4138 N 394.239 4.48559 1.15536 0
M  V30 4139 C 394.974 5.58026 1.3189 0
M  V30 4140 N 394.47 6.77422 1.45161 0
M  V30 4141 N 396.263 5.45708 1.34755 0
M  V30 4142 H 388.414 2.05854 -0.523237 0
M  V30 4143 H 390.677 0.932186 -0.172431 0
M  V30 4144 H 390.383 3.51666 -0.0489108 0
M  V30 4145 H 390.257 3.36964 1.69513 0
M  V30 4146 H 392.644 2.3791 1.74593 0
M  V30 4147 H 392.725 2.55797 -0.0125531 0
M  V30 4148 H 392.369 5.07288 0.249241 0
M  V30 4149 H 392.299 4.86436 2.01713 0
M  V30 4150 H 394.79 3.6254 1.06646 0
M  V30 4151 H 395.103 7.56604 1.57387 0
M  V30 4152 H 393.448 6.80292 1.42223 0
M  V30 4153 H 396.639 4.51378 1.23996 0
M  V30 4154 H 396.812 6.3107 1.47157 0
M  V30 4155 N 390.218 -0.567019 1.47046 0
M  V30 4156 C 391.181 -1.65696 1.58359 0
M  V30 4157 C 392.181 -1.54097 0.459441 0
M  V30 4158 O 393.371 -1.58432 0.724225 0
M  V30 4159 C 390.503 -3.05197 1.51879 0
M  V30 4160 H 391.696 -1.57019 2.5551 0
M  V30 4161 H 389.249 -0.786148 1.3509 0
M  V30 4162 H 389.984 -3.19417 0.560673 0
M  V30 4163 H 389.769 -3.15025 2.33455 0
M  V30 4164 H 391.259 -3.84511 1.62913 0
M  V30 4165 N 391.696 -1.35014 -0.812953 0
M  V30 4166 C 392.659 -1.27292 -1.90602 0
M  V30 4167 C 393.659 -0.185817 -1.59723 0
M  V30 4168 O 394.849 -0.439102 -1.68575 0
M  V30 4169 C 391.981 -0.967676 -3.26877 0
M  V30 4170 H 393.174 -2.24479 -1.9887 0
M  V30 4171 H 390.727 -1.19446 -1.00808 0
M  V30 4172 H 391.462 0.0005954 -3.243 0
M  V30 4173 H 391.247 -1.75412 -3.50675 0
M  V30 4174 H 392.737 -0.939085 -4.06904 0
M  V30 4175 N 393.175 1.03435 -1.18907 0
M  V30 4176 C 394.085 2.15075 -0.937015 0
M  V30 4177 C 395.101 1.73706 0.101085 0
M  V30 4178 O 396.277 2.01232 -0.0822948 0
M  V30 4179 C 393.342 3.43458 -0.473057 0
M  V30 4180 C 392.403 3.99172 -1.57989 0
M  V30 4181 C 391.636 5.21427 -1.13797 0
M  V30 4182 O 391.859 5.704 0.000725941 0
M  V30 4183 O 390.793 5.69837 -1.9383 0
M  V30 4184 H 394.619 2.39198 -1.87131 0
M  V30 4185 H 392.204 1.13506 -0.971427 0
M  V30 4186 H 394.086 4.20811 -0.222702 0
M  V30 4187 H 392.761 3.20793 0.432869 0
M  V30 4188 H 391.668 3.23178 -1.88433 0
M  V30 4189 H 393.001 4.2619 -2.46217 0
M  V30 4190 N 394.653 0.992116 1.22453 0
M  V30 4191 C 395.603 0.512969 2.22155 0
M  V30 4192 C 396.587 -0.418416 1.55364 0
M  V30 4193 O 397.779 -0.245363 1.75291 0
M  V30 4194 C 394.908 -0.171822 3.4287 0
M  V30 4195 C 393.994 0.779822 4.16869 0
M  V30 4196 N 394.385 1.92734 4.6764 0
M  V30 4197 C 392.683 0.59554 4.42006 0
M  V30 4198 C 393.384 2.52458 5.24061 0
M  V30 4199 N 392.36 1.80735 5.12675 0
M  V30 4200 H 396.162 1.38817 2.5905 0
M  V30 4201 H 393.676 0.854277 1.38115 0
M  V30 4202 H 395.673 -0.532469 4.13486 0
M  V30 4203 H 394.333 -1.04317 3.07487 0
M  V30 4204 H 395.344 2.30816 4.63621 0
M  V30 4205 H 392.021 -0.229805 4.16867 0
M  V30 4206 H 393.411 3.49433 5.73887 0
M  V30 4207 N 396.131 -1.37776 0.765217 0
M  V30 4208 C 397.094 -2.28686 0.153416 0
M  V30 4209 C 398.094 -1.47727 -0.635081 0
M  V30 4210 O 399.284 -1.68027 -0.459632 0
M  V30 4211 C 396.416 -3.31608 -0.790495 0
M  V30 4212 H 397.609 -2.84297 0.954723 0
M  V30 4213 H 395.162 -1.46932 0.53299 0
M  V30 4214 H 395.897 -2.81109 -1.61705 0
M  V30 4215 H 395.682 -3.9144 -0.227348 0
M  V30 4216 H 397.172 -3.99559 -1.21419 0
M  V30 4217 N 397.609 -0.515225 -1.4894 0
M  V30 4218 C 398.541 0.292481 -2.27326 0
M  V30 4219 C 399.554 0.917838 -1.3446 0
M  V30 4220 O 400.743 0.798772 -1.5963 0
M  V30 4221 C 397.843 1.42803 -3.07344 0
M  V30 4222 C 397.016 0.907347 -4.27885 0
M  V30 4223 C 396.075 1.92222 -4.89834 0
M  V30 4224 O 395.101 1.48506 -5.49486 0
M  V30 4225 N 396.303 3.25355 -4.80754 0
M  V30 4226 H 399.068 -0.379721 -2.97285 0
M  V30 4227 H 396.629 -0.348638 -1.58102 0
M  V30 4228 H 398.621 2.10481 -3.45658 0
M  V30 4229 H 397.191 2.00414 -2.39902 0
M  V30 4230 H 396.411 0.0550218 -3.94162 0
M  V30 4231 H 397.699 0.538108 -5.05946 0
M  V30 4232 H 397.097 3.6355 -4.33414 0
M  V30 4233 H 395.654 3.88707 -5.23211 0
M  V30 4234 N 399.087 1.5561 -0.249682 0
M  V30 4235 C 400.312 2.03865 0.381305 0
M  V30 4236 C 400.737 1.12769 1.50548 0
M  V30 4237 O 400.095 0.121189 1.80895 0
M  V30 4238 C 400.143 3.50101 0.863816 0
M  V30 4239 O 399.247 3.62132 1.97318 0
M  V30 4240 H 398.588 0.658827 0.0827194 0
M  V30 4241 H 401.118 2.01105 -0.376552 0
M  V30 4242 H 401.128 3.90975 1.1663 0
M  V30 4243 H 399.803 4.1588 0.0411816 0
M  V30 4244 H 398.38 3.33155 1.67517 0
M  V30 4245 N 400.565 -0.0233959 1.57583 0
M  V30 4246 C 401.805 -0.71784 1.9138 0
M  V30 4247 C 402.169 -1.72216 0.848853 0
M  V30 4248 O 403.37 -2.46527 1.07134 0
M  V30 4249 C 401.641 -1.36489 3.30311 0
M  V30 4250 S 403.2 -2.0877 3.85954 0
M  V30 4251 H 400.018 -0.237676 0.670098 0
M  V30 4252 H 402.62 0.0276709 1.9548 0
M  V30 4253 H 401.324 -0.620782 4.05678 0
M  V30 4254 H 400.855 -2.14883 3.29528 0
M  V30 4255 H 402.87 -3.35988 3.65139 0
M  V30 4256 N 402.043 -1.548 -0.295768 0
M  V30 4257 C 403.459 -1.4613 -0.641722 0
M  V30 4258 C 403.659 -0.656771 -1.90496 0
M  V30 4259 O 402.715 -0.166547 -2.5195 0
M  V30 4260 C 404.028 -2.90141 -0.789852 0
M  V30 4261 C 405.576 -3.00216 -0.885396 0
M  V30 4262 C 406.051 -4.45434 -1.06548 0
M  V30 4263 N 407.542 -4.49166 -1.13156 0
M  V30 4264 C 408.277 -5.58717 -1.28929 0
M  V30 4265 N 407.773 -6.78182 -1.41567 0
M  V30 4266 N 409.566 -5.46415 -1.31859 0
M  V30 4267 H 401.717 -2.05574 0.534147 0
M  V30 4268 H 403.98 -0.931259 0.177372 0
M  V30 4269 H 403.686 -3.51635 0.0675598 0
M  V30 4270 H 403.56 -3.37859 -1.67724 0
M  V30 4271 H 405.947 -2.38833 -1.73329 0
M  V30 4272 H 406.028 -2.55787 0.0261185 0
M  V30 4273 H 405.672 -5.07413 -0.222335 0
M  V30 4274 H 405.602 -4.87499 -1.9913 0
M  V30 4275 H 408.093 -3.631 -1.04721 0
M  V30 4276 H 408.406 -7.57428 -1.53372 0
M  V30 4277 H 406.751 -6.81037 -1.38613 0
M  V30 4278 H 409.942 -4.5203 -1.21601 0
M  V30 4279 H 410.115 -6.31841 -1.43808 0
M  V30 4280 N 403.521 0.559213 -1.47345 0
M  V30 4281 C 404.746 1.34676 -1.57725 0
M  V30 4282 C 405.171 1.86723 -0.227164 0
M  V30 4283 O 404.529 1.6286 0.796642 0
M  V30 4284 C 404.577 2.49399 -2.60447 0
M  V30 4285 O 403.681 3.51567 -2.15578 0
M  V30 4286 H 403.022 0.400115 -0.52991 0
M  V30 4287 H 405.552 0.676009 -1.93109 0
M  V30 4288 H 405.562 2.95996 -2.80803 0
M  V30 4289 H 404.237 2.10873 -3.58477 0
M  V30 4290 H 402.814 3.11289 -2.05313 0
M  V30 4291 N 404.999 1.35443 0.805782 0
M  V30 4292 C 406.224 1.32037 1.59941 0
M  V30 4293 C 406.649 -0.0994215 1.87837 0
M  V30 4294 O 406.007 -1.06648 1.46615 0
M  V30 4295 C 406.055 2.13354 2.90711 0
M  V30 4296 O 405.159 1.5148 3.83572 0
M  V30 4297 H 404.5 0.452666 0.485787 0
M  V30 4298 H 407.03 1.78496 1.00002 0
M  V30 4299 H 407.04 2.25338 3.40128 0
M  V30 4300 H 405.715 3.16572 2.69732 0
M  V30 4301 H 404.292 1.4834 3.42125 0
M  V30 4302 N 406.477 -1.02803 1.19454 0
M  V30 4303 C 407.44 -2.09264 0.934955 0
M  V30 4304 C 408.44 -1.60576 -0.0849015 0
M  V30 4305 O 409.63 -1.73554 0.149933 0
M  V30 4306 C 406.762 -3.38482 0.40531 0
M  V30 4307 H 407.955 -2.33726 1.87916 0
M  V30 4308 H 405.508 -1.19426 1.00832 0
M  V30 4309 H 406.243 -3.19689 -0.544899 0
M  V30 4310 H 406.028 -3.75142 1.14065 0
M  V30 4311 H 407.518 -4.16894 0.242806 0
M  V30 4312 N 407.956 -0.998596 -1.21925 0
M  V30 4313 C 408.919 -0.558679 -2.22287 0
M  V30 4314 C 409.919 0.361525 -1.56683 0
M  V30 4315 O 411.109 0.152695 -1.73529 0
M  V30 4316 C 408.241 0.18661 -3.40389 0
M  V30 4317 H 409.434 -1.4463 -2.62721 0
M  V30 4318 H 406.987 -0.786413 -1.35075 0
M  V30 4319 H 407.722 1.08996 -3.05435 0
M  V30 4320 H 407.507 -0.474188 -3.89222 0
M  V30 4321 H 408.997 0.482367 -4.14805 0
M  V30 4322 N 409.434 1.37368 -0.772513 0
M  V30 4323 C 410.674 2.01512 -0.342361 0
M  V30 4324 C 411.038 1.59997 1.06136 0
M  V30 4325 O 412.239 2.16609 1.59167 0
M  V30 4326 C 410.51 3.54134 -0.482048 0
M  V30 4327 S 412.069 4.38585 -0.137272 0
M  V30 4328 H 408.887 0.698699 -0.131686 0
M  V30 4329 H 411.489 1.67552 -1.0073 0
M  V30 4330 H 410.193 3.81837 -1.50428 0
M  V30 4331 H 409.724 3.92894 0.199413 0
M  V30 4332 H 411.739 4.84594 1.06692 0
M  V30 4333 N 410.912 0.523116 1.48665 0
M  V30 4334 C 411.875 -0.232592 2.28017 0
M  V30 4335 C 412.875 -0.874021 1.34972 0
M  V30 4336 O 414.065 -0.735132 1.57929 0
M  V30 4337 C 411.197 -1.33586 3.13636 0
M  V30 4338 H 412.39 0.464008 2.96289 0
M  V30 4339 H 409.943 0.278816 1.53793 0
M  V30 4340 H 410.678 -2.06593 2.4998 0
M  V30 4341 H 410.463 -0.881125 3.82071 0
M  V30 4342 H 411.953 -1.86759 3.73511 0
M  V30 4343 N 412.39 -1.55475 0.257931 0
M  V30 4344 C 413.801 -1.8511 -0.243135 0
M  V30 4345 C 414.152 -1.17986 -1.5676 0
M  V30 4346 O 413.277 -0.462102 -2.11409 0
M  V30 4347 C 413.872 -3.35826 -0.447929 0
M  V30 4348 C 412.431 -3.65647 -0.893245 0
M  V30 4349 C 411.578 -2.7729 0.0232965 0
M  V30 4350 H 414.529 -1.51261 0.480199 0
M  V30 4351 H 414.55 -3.58002 -1.28898 0
M  V30 4352 H 414.062 -3.84652 0.516196 0
M  V30 4353 H 412.163 -3.22308 -1.86945 0
M  V30 4354 H 412.276 -4.73312 -0.742469 0
M  V30 4355 H 410.64 -2.49942 -0.490021 0
M  V30 4356 H 411.423 -3.28926 0.982994 0
M  V30 4357 N 413.868 0.0150385 -1.57593 0
M  V30 4358 C 415.145 0.7392 -1.81094 0
M  V30 4359 C 415.525 1.92817 -0.859344 0
M  V30 4360 O 414.873 2.28301 0.095362 0
M  V30 4361 C 415.083 1.15907 -3.29191 0
M  V30 4362 C 416.431 1.56918 -3.9454 0
M  V30 4363 O 417.455 1.25328 -3.33424 0
M  V30 4364 O 416.314 2.15604 -5.02173 0
M  V30 4365 H 413.408 0.358631 -0.745193 0
M  V30 4366 H 415.954 -0.00926156 -1.69697 0
M  V30 4367 H 414.726 0.310921 -3.90063 0
M  V30 4368 H 414.349 1.96711 -3.45529 0
M  V30 4369 N 415.346 1.54954 0.287554 0
M  V30 4370 C 416.574 1.78881 1.03967 0
M  V30 4371 C 416.989 0.554894 1.80462 0
M  V30 4372 O 416.346 -0.475676 1.76192 0
M  V30 4373 C 416.397 3.00488 2.0097 0
M  V30 4374 O 416.118 4.19113 1.27577 0
M  V30 4375 C 417.619 3.36907 2.88112 0
M  V30 4376 H 414.839 0.596259 0.307761 0
M  V30 4377 H 417.383 2.01937 0.322749 0
M  V30 4378 H 415.538 2.79601 2.68145 0
M  V30 4379 H 415.952 4.87765 1.92835 0
M  V30 4380 H 417.426 4.25205 3.52001 0
M  V30 4381 H 417.903 2.55659 3.57121 0
M  V30 4382 H 418.509 3.60001 2.26449 0
M  V30 4383 N 416.824 -0.551391 1.4764 0
M  V30 4384 C 418.049 -1.33837 1.58437 0
M  V30 4385 C 418.474 -1.866 0.237063 0
M  V30 4386 O 417.832 -1.6328 -0.787994 0
M  V30 4387 C 417.88 -2.48014 2.61766 0
M  V30 4388 O 416.984 -3.50419 2.1744 0
M  V30 4389 H 416.325 -0.397299 0.532024 0
M  V30 4390 H 418.855 -0.665759 1.93465 0
M  V30 4391 H 418.865 -2.94503 2.82369 0
M  V30 4392 H 417.54 -2.08969 3.5959 0
M  V30 4393 H 416.117 -3.10196 2.06961 0
M  V30 4394 N 418.302 -1.35869 -0.798587 0
M  V30 4395 C 419.232 -1.32118 -1.92528 0
M  V30 4396 C 420.213 -0.194209 -1.68988 0
M  V30 4397 O 421.398 -0.390426 -1.90235 0
M  V30 4398 C 418.528 -1.10047 -3.29404 0
M  V30 4399 C 417.482 -2.19471 -3.67446 0
M  V30 4400 C 416.808 -1.82555 -5.02571 0
M  V30 4401 C 418.108 -3.61495 -3.76987 0
M  V30 4402 H 419.802 -2.26394 -1.95924 0
M  V30 4403 H 417.348 -1.08981 -0.94123 0
M  V30 4404 H 419.301 -1.06061 -4.07835 0
M  V30 4405 H 418.025 -0.122195 -3.26371 0
M  V30 4406 H 416.684 -2.22568 -2.91306 0
M  V30 4407 H 416.332 -0.833249 -4.9605 0
M  V30 4408 H 416.032 -2.5581 -5.28995 0
M  V30 4409 H 417.556 -1.80108 -5.83432 0
M  V30 4410 H 418.97 -3.60676 -4.4563 0
M  V30 4411 H 417.367 -4.33577 -4.14887 0
M  V30 4412 H 418.437 -3.97065 -2.78329 0
M  V30 4413 N 419.78 1.02168 -1.19998 0
M  V30 4414 C 421.196 1.27969 -0.953737 0
M  V30 4415 C 421.396 1.98079 0.369703 0
M  V30 4416 O 420.452 2.27306 1.09947 0
M  V30 4417 C 421.765 2.11971 -2.13281 0
M  V30 4418 C 423.313 2.25255 -2.17323 0
M  V30 4419 C 423.788 3.12632 -3.34702 0
M  V30 4420 N 425.279 3.2022 -3.34684 0
M  V30 4421 C 426.014 3.88039 -4.22153 0
M  V30 4422 N 425.51 4.58027 -5.19791 0
M  V30 4423 N 427.303 3.84511 -4.10009 0
M  V30 4424 H 419.454 0.550794 -2.05134 0
M  V30 4425 H 421.717 0.305683 -0.897364 0
M  V30 4426 H 421.423 1.67785 -3.09097 0
M  V30 4427 H 421.297 3.12699 -2.10949 0
M  V30 4428 H 423.684 2.68667 -1.22073 0
M  V30 4429 H 423.765 1.24053 -2.23706 0
M  V30 4430 H 423.409 2.69926 -4.30235 0
M  V30 4431 H 423.339 4.13909 -3.25556 0
M  V30 4432 H 425.83 2.70382 -2.64012 0
M  V30 4433 H 426.143 5.07429 -5.82868 0
M  V30 4434 H 424.488 4.56869 -5.23733 0
M  V30 4435 H 427.679 3.28978 -3.33003 0
M  V30 4436 H 427.852 4.3709 -4.78389 0
M  V30 4437 N 421.258 1.00505 1.21394 0
M  V30 4438 C 422.221 0.570459 2.21987 0
M  V30 4439 C 423.221 -0.353211 1.56873 0
M  V30 4440 O 424.411 -0.14349 1.73608 0
M  V30 4441 C 421.543 -0.168555 3.40483 0
M  V30 4442 H 422.736 1.46021 2.6195 0
M  V30 4443 H 420.289 0.793565 1.34656 0
M  V30 4444 H 421.024 -1.07374 3.06009 0
M  V30 4445 H 420.809 0.494823 3.88965 0
M  V30 4446 H 422.299 -0.460362 4.15055 0
M  V30 4447 N 422.737 -1.36956 0.779787 0
M  V30 4448 C 423.962 -2.04283 0.358224 0
M  V30 4449 C 424.387 -1.58422 -1.01411 0
M  V30 4450 O 423.745 -0.748179 -1.65142 0
M  V30 4451 C 423.793 -3.58152 0.419479 0
M  V30 4452 O 422.897 -4.08342 -0.577142 0
M  V30 4453 H 422.238 -0.645967 0.153698 0
M  V30 4454 H 424.768 -1.75108 1.05822 0
M  V30 4455 H 424.778 -4.07041 0.279636 0
M  V30 4456 H 423.453 -3.90886 1.42061 0
M  V30 4457 H 422.03 -3.70751 -0.399755 0
M  V30 4458 N 424.215 -0.530993 -1.48385 0
M  V30 4459 C 425.464 0.00474348 -2.01699 0
M  V30 4460 C 425.777 1.35227 -1.41325 0
M  V30 4461 O 426.983 1.97643 -1.86144 0
M  V30 4462 C 425.439 0.0588473 -3.59852 0
M  V30 4463 C 425.047 -1.28385 -4.2921 0
M  V30 4464 C 426.791 0.543358 -4.21008 0
M  V30 4465 C 424.698 -1.19028 -5.79298 0
M  V30 4466 H 423.628 0.00554317 -0.75398 0
M  V30 4467 H 426.279 -0.674924 -1.70637 0
M  V30 4468 H 424.661 0.803612 -3.8776 0
M  V30 4469 H 425.835 -2.04426 -4.12973 0
M  V30 4470 H 424.15 -1.70418 -3.7993 0
M  V30 4471 H 426.747 0.631351 -5.3096 0
M  V30 4472 H 427.09 1.54937 -3.86394 0
M  V30 4473 H 427.623 -0.145754 -3.97533 0
M  V30 4474 H 424.362 -2.17147 -6.18488 0
M  V30 4475 H 423.882 -0.471246 -5.97946 0
M  V30 4476 H 425.561 -0.881365 -6.40969 0
M  V30 4477 N 425.693 1.55336 -0.266172 0
M  V30 4478 C 426.64 2.22172 0.625165 0
M  V30 4479 C 427.61 1.19211 1.15663 0
M  V30 4480 O 428.795 1.47723 1.20758 0
M  V30 4481 C 425.935 2.93972 1.8076 0
M  V30 4482 C 425.048 4.11632 1.31084 0
M  V30 4483 C 424.183 4.71099 2.45436 0
M  V30 4484 C 423.222 5.8097 1.92718 0
M  V30 4485 N 422.359 6.34538 3.00509 0
M  V30 4486 H 427.199 2.9796 0.0485582 0
M  V30 4487 H 424.736 1.47095 0.0122024 0
M  V30 4488 H 426.694 3.33811 2.50251 0
M  V30 4489 H 425.324 2.20623 2.35638 0
M  V30 4490 H 424.376 3.76975 0.509326 0
M  V30 4491 H 425.688 4.90893 0.884633 0
M  V30 4492 H 424.842 5.13612 3.22936 0
M  V30 4493 H 423.581 3.91096 2.91368 0
M  V30 4494 H 422.586 5.37916 1.13695 0
M  V30 4495 H 423.811 6.62836 1.47733 0
M  V30 4496 H 421.757 5.57433 3.45839 0
M  V30 4497 H 421.674 7.09046 2.62279 0
M  V30 4498 H 422.942 6.81709 3.78011 0
M  V30 4499 N 427.171 -0.0066808 1.57599 0
M  V30 4500 C 428.118 -1.00024 2.08 0
M  V30 4501 C 429.088 -1.34549 0.973943 0
M  V30 4502 O 430.273 -1.44502 1.24595 0
M  V30 4503 C 427.413 -2.2891 2.58252 0
M  V30 4504 C 426.526 -2.00346 3.82734 0
M  V30 4505 C 425.661 -3.23265 4.21513 0
M  V30 4506 C 424.7 -2.90357 5.3885 0
M  V30 4507 N 423.837 -4.05793 5.72954 0
M  V30 4508 H 428.677 -0.563499 2.92624 0
M  V30 4509 H 426.214 -0.266592 1.44664 0
M  V30 4510 H 428.172 -3.04247 2.85464 0
M  V30 4511 H 426.802 -2.70265 1.76512 0
M  V30 4512 H 425.854 -1.15406 3.62471 0
M  V30 4513 H 427.166 -1.72086 4.68175 0
M  V30 4514 H 426.32 -4.06953 4.49971 0
M  V30 4515 H 425.059 -3.54657 3.34768 0
M  V30 4516 H 424.064 -2.05075 5.10122 0
M  V30 4517 H 425.289 -2.60219 6.27266 0
M  V30 4518 H 423.235 -4.37094 4.89167 0
M  V30 4519 H 423.152 -3.81034 6.52954 0
M  V30 4520 H 424.42 -4.90289 6.06001 0
M  V30 4521 N 428.649 -1.55105 -0.279332 0
M  V30 4522 C 429.559 -1.90638 -1.36727 0
M  V30 4523 C 430.575 -0.802899 -1.54368 0
M  V30 4524 O 431.751 -1.10138 -1.68616 0
M  V30 4525 C 428.816 -2.16547 -2.70755 0
M  V30 4526 C 427.877 -3.40146 -2.61915 0
M  V30 4527 C 427.11 -3.6481 -3.8955 0
M  V30 4528 O 427.333 -2.92095 -4.89935 0
M  V30 4529 O 426.267 -4.58343 -3.90135 0
M  V30 4530 H 430.093 -2.83237 -1.09591 0
M  V30 4531 H 427.678 -1.4157 -0.477306 0
M  V30 4532 H 429.56 -2.34665 -3.50014 0
M  V30 4533 H 428.235 -1.27131 -2.9769 0
M  V30 4534 H 427.142 -3.2737 -1.81052 0
M  V30 4535 H 428.475 -4.29761 -2.3993 0
M  V30 4536 N 430.127 0.543554 -1.4793 0
M  V30 4537 C 431.355 1.32516 -1.58894 0
M  V30 4538 C 431.77 1.87215 -0.244131 0
M  V30 4539 O 431.127 1.65709 0.764652 0
M  V30 4540 C 431.178 2.48554 -2.62494 0
M  V30 4541 O 430.899 1.96112 -3.91755 0
M  V30 4542 C 432.4 3.40572 -2.8377 0
M  V30 4543 H 429.62 0.403472 -0.536145 0
M  V30 4544 H 432.164 0.657106 -1.93655 0
M  V30 4545 H 430.319 3.1127 -2.30629 0
M  V30 4546 H 430.733 2.71967 -4.4848 0
M  V30 4547 H 432.207 4.18375 -3.60093 0
M  V30 4548 H 432.684 3.94965 -1.92092 0
M  V30 4549 H 433.29 2.8366 -3.16887 0
M  V30 4550 N 431.605 1.3629 0.791371 0
M  V30 4551 C 432.552 1.30458 1.90393 0
M  V30 4552 C 433.522 0.173632 1.6519 0
M  V30 4553 O 434.707 0.35983 1.87376 0
M  V30 4554 C 431.847 1.09777 3.27174 0
M  V30 4555 C 430.96 2.31929 3.64462 0
M  V30 4556 C 430.095 2.04276 4.90352 0
M  V30 4557 C 429.134 3.224 5.20312 0
M  V30 4558 N 428.271 2.94424 6.37385 0
M  V30 4559 H 433.111 2.25589 1.94714 0
M  V30 4560 H 430.648 1.12122 0.952216 0
M  V30 4561 H 432.606 0.958133 4.06049 0
M  V30 4562 H 431.236 0.183014 3.22281 0
M  V30 4563 H 430.288 2.56703 2.80727 0
M  V30 4564 H 431.6 3.20085 3.82553 0
M  V30 4565 H 430.754 1.87231 5.77087 0
M  V30 4566 H 429.493 1.13428 4.74326 0
M  V30 4567 H 428.498 3.40005 4.32061 0
M  V30 4568 H 429.723 4.14071 5.38258 0
M  V30 4569 H 427.669 2.06185 6.22755 0
M  V30 4570 H 427.586 3.76118 6.55798 0
M  V30 4571 H 428.854 2.80953 7.27108 0
M  V30 4572 N 433.083 -1.0153 1.20538 0
M  V30 4573 C 434.329 -1.75408 1.01783 0
M  V30 4574 C 434.662 -1.88943 -0.448814 0
M  V30 4575 O 433.937 -1.4162 -1.33319 0
M  V30 4576 C 434.22 -3.17255 1.70356 0
M  V30 4577 C 434.073 -3.11508 3.24473 0
M  V30 4578 C 435.392 -4.15955 1.43769 0
M  V30 4579 H 432.511 -0.636713 0.371167 0
M  V30 4580 H 435.153 -1.18436 1.4857 0
M  V30 4581 H 433.303 -3.65898 1.30578 0
M  V30 4582 H 434.975 -2.70658 3.73553 0
M  V30 4583 H 433.218 -2.4887 3.55311 0
M  V30 4584 H 433.889 -4.11784 3.67611 0
M  V30 4585 H 436.365 -3.75973 1.7828 0
M  V30 4586 H 435.241 -5.13368 1.94279 0
M  V30 4587 H 435.502 -4.40586 0.365564 0
M  V30 4588 N 434.561 -1.01147 -1.20859 0
M  V30 4589 C 435.491 -0.597663 -2.25722 0
M  V30 4590 C 436.472 0.384744 -1.65692 0
M  V30 4591 O 437.657 0.271303 -1.92296 0
M  V30 4592 C 434.787 0.0700149 -3.47229 0
M  V30 4593 C 433.741 -0.832843 -4.19819 0
M  V30 4594 C 433.067 -0.0312202 -5.34691 0
M  V30 4595 C 434.367 -2.1385 -4.76514 0
M  V30 4596 H 436.061 -1.47423 -2.60589 0
M  V30 4597 H 433.607 -0.710301 -1.25263 0
M  V30 4598 H 435.56 0.37103 -4.19763 0
M  V30 4599 H 434.284 0.981259 -3.11511 0
M  V30 4600 H 432.943 -1.11778 -3.49144 0
M  V30 4601 H 432.591 0.881515 -4.95215 0
M  V30 4602 H 432.291 -0.632434 -5.84187 0
M  V30 4603 H 433.815 0.26346 -6.10031 0
M  V30 4604 H 435.229 -1.9002 -5.40893 0
M  V30 4605 H 433.626 -2.69012 -5.36426 0
M  V30 4606 H 434.696 -2.80495 -3.95538 0
M  V30 4607 N 436.039 1.36541 -0.78704 0
M  V30 4608 C 436.986 2.30082 -0.181901 0
M  V30 4609 C 437.956 1.5186 0.672896 0
M  V30 4610 O 439.141 1.80374 0.622072 0
M  V30 4611 C 436.281 3.3835 0.679197 0
M  V30 4612 C 435.394 4.31565 -0.193882 0
M  V30 4613 C 434.529 5.26915 0.673364 0
M  V30 4614 C 433.568 6.11769 -0.201315 0
M  V30 4615 N 432.705 6.99315 0.624777 0
M  V30 4616 H 437.545 2.81248 -0.985064 0
M  V30 4617 H 435.082 1.38437 -0.497342 0
M  V30 4618 H 437.04 3.99767 1.19341 0
M  V30 4619 H 435.67 2.8851 1.44781 0
M  V30 4620 H 434.722 3.71323 -0.826044 0
M  V30 4621 H 436.034 4.91191 -0.867937 0
M  V30 4622 H 435.188 5.9361 1.25348 0
M  V30 4623 H 433.927 4.67737 1.38105 0
M  V30 4624 H 432.932 5.44039 -0.793849 0
M  V30 4625 H 434.157 6.73022 -0.906568 0
M  V30 4626 H 432.103 6.42648 1.3168 0
M  V30 4627 H 432.02 7.56 0.00835237 0
M  V30 4628 H 433.288 7.70382 1.18879 0
M  V30 4629 N 437.518 0.538854 1.48102 0
M  V30 4630 C 438.746 0.0123136 2.06896 0
M  V30 4631 C 439.161 -1.27312 1.39417 0
M  V30 4632 O 438.518 -1.75949 0.484582 0
M  V30 4633 C 438.569 -0.206118 3.60912 0
M  V30 4634 O 438.29 1.0284 4.25859 0
M  V30 4635 C 439.791 -0.772033 4.36526 0
M  V30 4636 H 437.011 0.0375239 0.66995 0
M  V30 4637 H 439.555 0.747032 1.90367 0
M  V30 4638 H 437.71 -0.89091 3.77017 0
M  V30 4639 H 438.124 0.814654 5.18135 0
M  V30 4640 H 439.598 -0.874251 5.45033 0
M  V30 4641 H 440.075 -1.77904 4.01555 0
M  V30 4642 H 440.681 -0.123526 4.25121 0
M  V30 4643 N 438.996 -1.55193 0.274407 0
M  V30 4644 C 439.926 -2.25471 -0.607032 0
M  V30 4645 C 440.907 -1.24461 -1.15946 0
M  V30 4646 O 442.092 -1.53179 -1.19373 0
M  V30 4647 C 439.222 -2.97526 -1.79153 0
M  V30 4648 C 438.176 -4.05459 -1.37067 0
M  V30 4649 C 437.502 -4.65084 -2.6382 0
M  V30 4650 C 438.802 -5.19691 -0.521389 0
M  V30 4651 H 440.496 -2.99393 -0.0209343 0
M  V30 4652 H 438.042 -1.43997 -0.00862866 0
M  V30 4653 H 439.995 -3.45402 -2.41404 0
M  V30 4654 H 438.719 -2.21138 -2.40344 0
M  V30 4655 H 437.378 -3.58393 -0.771355 0
M  V30 4656 H 437.026 -3.85365 -3.23268 0
M  V30 4657 H 436.726 -5.37961 -2.36372 0
M  V30 4658 H 438.25 -5.15708 -3.26921 0
M  V30 4659 H 439.664 -5.63623 -1.04889 0
M  V30 4660 H 438.061 -5.99126 -0.341825 0
M  V30 4661 H 439.131 -4.82713 0.46 0
M  V30 4662 N 440.474 -0.00167713 -1.576 0
M  V30 4663 C 441.699 0.69739 -1.95323 0
M  V30 4664 C 442.124 1.6642 -0.876706 0
M  V30 4665 O 441.482 1.80548 0.165007 0
M  V30 4666 C 441.53 1.40403 -3.32144 0
M  V30 4667 O 440.634 2.5185 -3.26566 0
M  V30 4668 H 439.975 0.185373 -0.637599 0
M  V30 4669 H 442.505 -0.0553665 -2.04525 0
M  V30 4670 H 442.515 1.76707 -3.67748 0
M  V30 4671 H 441.19 0.695167 -4.10049 0
M  V30 4672 H 439.767 2.17861 -3.0264 0
M  V30 4673 N 441.952 1.55251 0.271103 0
M  V30 4674 C 443.198 1.76207 1.00394 0
M  V30 4675 C 443.531 0.562604 1.85872 0
M  V30 4676 O 442.806 -0.439785 1.89463 0
M  V30 4677 C 443.089 3.06828 1.8849 0
M  V30 4678 C 442.942 4.37134 1.05992 0
M  V30 4679 C 444.261 3.33503 2.87165 0
M  V30 4680 H 441.38 0.641086 0.363562 0
M  V30 4681 H 444.022 1.87982 0.276189 0
M  V30 4682 H 442.172 2.96921 2.5054 0
M  V30 4683 H 443.844 4.59001 0.459978 0
M  V30 4684 H 442.087 4.32275 0.363443 0
M  V30 4685 H 442.758 5.2486 1.70955 0
M  V30 4686 H 445.234 3.43215 2.3525 0
M  V30 4687 H 444.11 4.2616 3.45946 0
M  V30 4688 H 444.371 2.53235 3.62387 0
M  V30 4689 N 443.43 -0.535701 1.48216 0
M  V30 4690 C 444.679 -1.28828 1.55197 0
M  V30 4691 C 444.992 -1.94263 0.228278 0
M  V30 4692 O 446.198 -2.70927 0.176278 0
M  V30 4693 C 444.654 -2.33727 2.73678 0
M  V30 4694 C 444.262 -1.74386 4.12666 0
M  V30 4695 C 446.006 -3.1003 2.89968 0
M  V30 4696 C 443.913 -2.77192 5.22416 0
M  V30 4697 H 442.843 -0.484484 0.577747 0
M  V30 4698 H 445.494 -0.56646 1.74538 0
M  V30 4699 H 443.876 -3.08919 2.4776 0
M  V30 4700 H 445.05 -1.05421 4.48579 0
M  V30 4701 H 443.365 -1.10595 4.01445 0
M  V30 4702 H 445.962 -3.86842 3.6913 0
M  V30 4703 H 446.305 -3.65542 1.9921 0
M  V30 4704 H 446.838 -2.41952 3.15759 0
M  V30 4705 H 443.577 -2.26507 6.15122 0
M  V30 4706 H 443.097 -3.44502 4.90998 0
M  V30 4707 H 444.776 -3.40285 5.50286 0
M  V30 4708 N 444.908 -1.36708 -0.784132 0
M  V30 4709 C 445.841 -1.25827 -1.90375 0
M  V30 4710 C 446.819 -0.141331 -1.61985 0
M  V30 4711 O 448.003 -0.313389 -1.85877 0
M  V30 4712 C 445.13 -0.942621 -3.25319 0
M  V30 4713 C 444.176 -2.07474 -3.72635 0
M  V30 4714 S 445.009 -3.69317 -3.8777 0
M  V30 4715 C 446.165 -3.39876 -5.25581 0
M  V30 4716 H 446.398 -2.20593 -1.99314 0
M  V30 4717 H 443.931 -1.22186 -0.943926 0
M  V30 4718 H 445.889 -0.767321 -4.03265 0
M  V30 4719 H 444.55 -0.0126566 -3.14097 0
M  V30 4720 H 443.743 -1.80858 -4.70432 0
M  V30 4721 H 443.345 -2.20953 -3.01754 0
M  V30 4722 H 445.637 -2.94097 -6.10339 0
M  V30 4723 H 446.58 -4.36956 -5.57203 0
M  V30 4724 H 446.988 -2.75098 -4.92931 0
M  V30 4725 N 446.386 1.0089 -1.21074 0
M  V30 4726 C 447.634 1.74262 -1.02358 0
M  V30 4727 C 447.955 1.89869 0.444393 0
M  V30 4728 O 447.225 1.44677 1.32081 0
M  V30 4729 H 445.805 0.645615 -0.375754 0
M  V30 4730 H 448.467 1.21596 -1.52317 0
M  V30 4731 H 447.563 2.74328 -1.4883 0
M  V30 4732 N 447.864 1.01787 1.20321 0
M  V30 4733 C 449.11 0.708985 1.90003 0
M  V30 4734 C 449.443 -0.759572 1.78729 0
M  V30 4735 O 448.718 -1.55198 1.17234 0
M  V30 4736 C 449.001 1.1469 3.41348 0
M  V30 4737 C 448.854 2.67586 3.61549 0
M  V30 4738 C 450.173 0.71915 4.34185 0
M  V30 4739 H 447.292 0.259034 0.689978 0
M  V30 4740 H 449.934 1.26584 1.41692 0
M  V30 4741 H 448.084 0.673128 3.82624 0
M  V30 4742 H 449.756 3.22826 3.29517 0
M  V30 4743 H 447.999 3.085 3.04976 0
M  V30 4744 H 448.67 2.93281 4.67643 0
M  V30 4745 H 451.146 1.12647 4.00562 0
M  V30 4746 H 450.022 1.05358 5.38694 0
M  V30 4747 H 450.283 -0.379111 4.40472 0
M  V30 4748 N 449.342 -1.36122 0.79427 0
M  V30 4749 C 450.589 -1.99111 0.368905 0
M  V30 4750 C 450.917 -1.63032 -1.0607 0
M  V30 4751 O 450.172 -0.879303 -1.74833 0
M  V30 4752 C 450.471 -3.5409 0.48527 0
M  V30 4753 C 450.137 -4.10003 1.87638 0
M  V30 4754 C 448.799 -4.24986 2.257 0
M  V30 4755 C 451.151 -4.40423 2.78706 0
M  V30 4756 C 448.479 -4.67701 3.54221 0
M  V30 4757 C 450.831 -4.84573 4.0666 0
M  V30 4758 C 449.495 -4.97761 4.44737 0
M  V30 4759 H 448.765 -0.7286 0.134992 0
M  V30 4760 H 451.412 -1.62534 1.01267 0
M  V30 4761 H 449.717 -3.91052 -0.241984 0
M  V30 4762 H 451.414 -4.00766 0.137109 0
M  V30 4763 H 448.004 -3.98784 1.57064 0
M  V30 4764 H 452.188 -4.28412 2.50553 0
M  V30 4765 H 447.444 -4.761 3.83587 0
M  V30 4766 H 451.618 -5.07074 4.77336 0
M  V30 4767 H 449.245 -5.30618 5.44379 0
M  V30 4768 N 450.82 -0.546701 -1.47814 0
M  V30 4769 C 452.066 -0.0187684 -2.02791 0
M  V30 4770 C 452.399 1.32338 -1.42128 0
M  V30 4771 O 451.674 1.85867 -0.573023 0
M  V30 4772 C 451.957 0.0854985 -3.59998 0
M  V30 4773 C 451.81 -1.283 -4.31114 0
M  V30 4774 C 453.129 0.80412 -4.32691 0
M  V30 4775 H 450.248 -0.0082946 -0.736953 0
M  V30 4776 H 452.89 -0.706962 -1.76358 0
M  V30 4777 H 451.04 0.671609 -3.82651 0
M  V30 4778 H 452.712 -1.91151 -4.19832 0
M  V30 4779 H 450.955 -1.86049 -3.91878 0
M  V30 4780 H 451.626 -1.16287 -5.39612 0
M  V30 4781 H 454.102 0.306576 -4.14969 0
M  V30 4782 H 452.978 0.846011 -5.42341 0
M  V30 4783 H 453.239 1.85802 -4.01161 0
M  V30 4784 N 452.299 1.55045 -0.282633 0
M  V30 4785 C 453.539 2.01668 0.333088 0
M  V30 4786 C 453.903 1.1667 1.52486 0
M  V30 4787 O 455.104 1.52907 2.21072 0
M  V30 4788 C 453.375 3.50509 0.698442 0
M  V30 4789 S 454.934 4.19112 1.29963 0
M  V30 4790 H 451.752 0.703468 0.103219 0
M  V30 4791 H 454.354 1.91233 -0.406222 0
M  V30 4792 H 453.058 4.10015 -0.177693 0
M  V30 4793 H 452.589 3.64943 1.46902 0
M  V30 4794 H 454.604 4.23362 2.58803 0
M  V30 4795 N 453.777 0.010035 1.57597 0
M  V30 4796 C 455.017 -0.677084 1.9286 0
M  V30 4797 C 455.381 -1.70377 0.885192 0
M  V30 4798 O 456.582 -2.44199 1.12339 0
M  V30 4799 C 454.853 -1.29452 3.33132 0
M  V30 4800 S 456.412 -2.00537 3.90295 0
M  V30 4801 H 453.23 -0.223409 0.674989 0
M  V30 4802 H 455.832 0.0691289 1.95378 0
M  V30 4803 H 454.536 -0.534593 4.06903 0
M  V30 4804 H 454.067 -2.07845 3.34012 0
M  V30 4805 H 456.082 -3.28168 3.72183 0
M  V30 4806 N 455.255 -1.55392 -0.262866 0
M  V30 4807 C 456.501 -1.77657 -0.990424 0
M  V30 4808 C 456.856 -0.576333 -1.83565 0
M  V30 4809 O 456.149 0.430795 -1.86694 0
M  V30 4810 C 456.343 -3.02889 -1.89718 0
M  V30 4811 C 456.172 -4.34979 -1.14121 0
M  V30 4812 C 454.942 -4.98052 -0.852768 0
M  V30 4813 C 457.14 -5.11597 -0.526625 0
M  V30 4814 N 455.122 -6.13859 -0.0710649 0
M  V30 4815 C 456.493 -6.19883 0.12042 0
M  V30 4816 C 458.548 -4.95992 -0.435485 0
M  V30 4817 C 457.251 -7.14262 0.849833 0
M  V30 4818 C 459.277 -5.90735 0.280359 0
M  V30 4819 C 458.639 -6.98417 0.916103 0
M  V30 4820 H 454.738 -0.702242 -0.344064 0
M  V30 4821 H 457.322 -1.92887 -0.265088 0
M  V30 4822 H 455.493 -2.89017 -2.59468 0
M  V30 4823 H 457.225 -3.13516 -2.5591 0
M  V30 4824 H 453.98 -4.5916 -1.16058 0
M  V30 4825 H 454.404 -6.76302 0.307413 0
M  V30 4826 H 459.046 -4.12832 -0.912671 0
M  V30 4827 H 456.764 -7.96935 1.33867 0
M  V30 4828 H 460.35 -5.80738 0.351332 0
M  V30 4829 H 459.23 -7.70467 1.46119 0
M  V30 4830 N 456.733 0.527833 -1.48498 0
M  V30 4831 C 457.663 1.64136 -1.66077 0
M  V30 4832 C 458.644 1.62286 -0.509625 0
M  V30 4833 O 459.829 1.79449 -0.742413 0
M  V30 4834 C 456.959 3.02717 -1.70234 0
M  V30 4835 C 455.913 3.19426 -2.8487 0
M  V30 4836 C 455.239 4.5909 -2.74118 0
M  V30 4837 C 456.539 3.01993 -4.26142 0
M  V30 4838 H 458.233 1.4968 -2.593 0
M  V30 4839 H 455.779 0.718654 -1.24785 0
M  V30 4840 H 457.732 3.80491 -1.8112 0
M  V30 4841 H 456.456 3.18201 -0.735911 0
M  V30 4842 H 455.115 2.4407 -2.73542 0
M  V30 4843 H 454.763 4.71413 -1.7544 0
M  V30 4844 H 454.463 4.71214 -3.51042 0
M  V30 4845 H 455.987 5.3896 -2.86974 0
M  V30 4846 H 457.401 3.69558 -4.38292 0
M  V30 4847 H 455.798 3.2561 -5.04082 0
M  V30 4848 H 456.868 1.98396 -4.42456 0
M  V30 4849 N 458.211 1.37122 0.776871 0
M  V30 4850 C 459.622 1.28667 1.35284 0
M  V30 4851 C 459.973 -0.0680035 1.96082 0
M  V30 4852 O 459.098 -0.969743 1.93455 0
M  V30 4853 C 459.693 2.32997 2.45963 0
M  V30 4854 C 458.252 2.28191 2.99342 0
M  V30 4855 C 457.399 2.17101 1.72517 0
M  V30 4856 H 460.35 1.47819 0.577527 0
M  V30 4857 H 460.371 1.97366 3.2531 0
M  V30 4858 H 459.883 3.3158 2.01684 0
M  V30 4859 H 457.984 1.33115 3.4801 0
M  V30 4860 H 458.097 3.21397 3.55304 0
M  V30 4861 H 456.461 1.63562 1.95242 0
M  V30 4862 H 457.244 3.17591 1.30348 0
M  V30 4863 N 459.689 -1.00246 1.21608 0
M  V30 4864 C 460.936 -1.74061 1.03485 0
M  V30 4865 C 461.264 -1.89658 -0.431308 0
M  V30 4866 O 460.519 -1.42976 -1.33627 0
M  V30 4867 C 460.818 -3.15448 1.68009 0
M  V30 4868 C 460.484 -3.19792 3.17874 0
M  V30 4869 C 459.146 -3.20685 3.58768 0
M  V30 4870 C 461.498 -3.16835 4.13842 0
M  V30 4871 C 458.826 -3.16309 4.94131 0
M  V30 4872 C 461.178 -3.14001 5.49169 0
M  V30 4873 C 459.842 -3.13204 5.89457 0
M  V30 4874 H 459.112 -0.636934 0.378677 0
M  V30 4875 H 461.759 -1.17473 1.51236 0
M  V30 4876 H 460.064 -3.75284 1.12557 0
M  V30 4877 H 461.761 -3.71285 1.51487 0
M  V30 4878 H 458.351 -3.19842 2.85305 0
M  V30 4879 H 462.535 -3.15303 3.83272 0
M  V30 4880 H 457.791 -3.14032 5.24589 0
M  V30 4881 H 461.965 -3.10667 6.23265 0
M  V30 4882 H 459.592 -3.09568 6.94314 0
M  V30 4883 N 461.167 -1.02423 -1.1978 0
M  V30 4884 C 462.414 -0.717988 -1.89344 0
M  V30 4885 C 462.742 0.753036 -1.79331 0
M  V30 4886 O 461.997 1.56355 -1.17692 0
M  V30 4887 C 462.296 -1.1088 -3.39765 0
M  V30 4888 C 461.962 -2.57731 -3.6998 0
M  V30 4889 C 460.624 -2.97854 -3.77937 0
M  V30 4890 C 462.976 -3.52763 -3.83677 0
M  V30 4891 C 460.304 -4.31931 -3.97054 0
M  V30 4892 C 462.656 -4.86538 -4.04306 0
M  V30 4893 C 461.32 -5.26356 -4.10494 0
M  V30 4894 H 460.59 -0.26273 -0.692859 0
M  V30 4895 H 463.237 -1.28623 -1.41875 0
M  V30 4896 H 461.542 -0.459094 -3.89101 0
M  V30 4897 H 463.239 -0.849432 -3.919 0
M  V30 4898 H 459.829 -2.25646 -3.64393 0
M  V30 4899 H 464.013 -3.2292 -3.76877 0
M  V30 4900 H 459.269 -4.62324 -4.00083 0
M  V30 4901 H 463.443 -5.60093 -4.13846 0
M  V30 4902 H 461.07 -6.3026 -4.2506 0
M  V30 4903 N 462.645 1.35699 -0.801477 0
M  V30 4904 C 463.894 1.98165 -0.375979 0
M  V30 4905 C 464.207 1.64306 1.06127 0
M  V30 4906 O 465.413 2.20097 1.58964 0
M  V30 4907 C 463.869 3.54497 -0.621305 0
M  V30 4908 C 463.477 3.9727 -2.07076 0
M  V30 4909 C 465.221 4.23697 -0.26091 0
M  V30 4910 C 463.128 5.46427 -2.26211 0
M  V30 4911 H 462.058 0.741478 -0.136844 0
M  V30 4912 H 464.709 1.54834 -0.984814 0
M  V30 4913 H 463.091 3.95958 0.0574112 0
M  V30 4914 H 464.265 3.66974 -2.78687 0
M  V30 4915 H 462.58 3.40943 -2.39054 0
M  V30 4916 H 465.177 5.33334 -0.381994 0
M  V30 4917 H 465.52 4.0869 0.792344 0
M  V30 4918 H 466.053 3.87639 -0.893339 0
M  V30 4919 H 462.792 5.66396 -3.29963 0
M  V30 4920 H 462.312 5.78309 -1.59119 0
M  V30 4921 H 463.991 6.12819 -2.07513 0
M  V30 4922 N 464.123 0.554532 1.47522 0
M  V30 4923 C 465.053 -0.182974 2.32782 0
M  V30 4924 C 466.034 -0.911377 1.43624 0
M  V30 4925 O 467.219 -0.892366 1.72483 0
M  V30 4926 C 464.349 -1.21513 3.25349 0
M  V30 4927 C 463.303 -0.603355 4.23726 0
M  V30 4928 C 462.629 -1.73995 5.05598 0
M  V30 4929 C 463.929 0.441121 5.20434 0
M  V30 4930 H 465.623 0.52882 2.94693 0
M  V30 4931 H 463.169 0.255759 1.41711 0
M  V30 4932 H 465.122 -1.73922 3.83835 0
M  V30 4933 H 463.846 -1.95683 2.61487 0
M  V30 4934 H 462.505 -0.10059 3.66462 0
M  V30 4935 H 462.153 -2.47063 4.38143 0
M  V30 4936 H 461.853 -1.3364 5.72201 0
M  V30 4937 H 463.377 -2.26735 5.66942 0
M  V30 4938 H 464.791 0.00319931 5.733 0
M  V30 4939 H 463.188 0.763402 5.95224 0
M  V30 4940 H 464.258 1.33799 4.66075 0
M  V30 4941 N 465.601 -1.54893 0.290851 0
M  V30 4942 C 466.549 -2.24579 -0.605576 0
M  V30 4943 C 467.543 -1.24824 -1.14522 0
M  V30 4944 O 468.749 -1.42706 -1.09704 0
M  V30 4945 H 465.124 -0.720946 -0.213872 0
M  V30 4946 H 467.095 -2.984 0.0048173 0
M  V30 4947 C 465.844 -2.99224 -1.77088 0
M  V30 4948 H 465.167 -3.75782 -1.36484 0
M  V30 4949 H 466.607 -3.51281 -2.3744 0
M  V30 4950 C 465.066 -2.05602 -2.66888 0
M  V30 4951 O 465.596 -1.61745 -3.67698 0
M  V30 4952 N 463.802 -1.71771 -2.34399 0
M  V30 4953 H 463.349 -2.07633 -1.52468 0
M  V30 4954 H 463.307 -1.09403 -2.94751 0
M  V30 4955 N 467.08 -0.0183926 -1.57589 0
M  V30 4956 C 468.32 0.666846 -1.93216 0
M  V30 4957 C 468.684 1.69905 -0.894215 0
M  V30 4958 O 469.885 2.436 -1.13633 0
M  V30 4959 C 468.156 1.27684 -3.33814 0
M  V30 4960 S 469.715 1.98464 -3.91353 0
M  V30 4961 H 466.533 0.219826 -0.676164 0
M  V30 4962 H 469.135 -0.0794893 -1.95338 0
M  V30 4963 H 467.839 0.513006 -4.07181 0
M  V30 4964 H 467.37 2.06071 -3.3511 0
M  V30 4965 H 469.385 3.26189 -3.73918 0
M  V30 4966 N 468.558 1.5553 0.254621 0
M  V30 4967 C 469.491 1.84624 1.34124 0
M  V30 4968 C 470.469 0.700693 1.46728 0
M  V30 4969 O 471.653 0.94564 1.63064 0
M  V30 4970 C 468.78 2.02412 2.71564 0
M  V30 4971 C 467.826 3.25028 2.7615 0
M  V30 4972 S 468.659 4.81893 2.33538 0
M  V30 4973 C 469.815 5.02677 3.72917 0
M  V30 4974 H 470.048 2.76501 1.09245 0
M  V30 4975 H 467.581 1.47537 0.455211 0
M  V30 4976 H 469.539 2.13345 3.50705 0
M  V30 4977 H 468.2 1.11391 2.93685 0
M  V30 4978 H 467.393 3.34418 3.77069 0
M  V30 4979 H 466.995 3.12781 2.05046 0
M  V30 4980 H 469.287 4.89546 4.68349 0
M  V30 4981 H 470.23 6.0468 3.68467 0
M  V30 4982 H 470.638 4.30561 3.65072 0
M  V30 4983 N 470.036 -0.519951 1.48776 0
M  V30 4984 C 471.282 -1.27711 1.57536 0
M  V30 4985 C 471.615 -1.92547 0.252866 0
M  V30 4986 O 470.89 -1.7979 -0.742021 0
M  V30 4987 C 471.173 -2.35875 2.72094 0
M  V30 4988 C 471.026 -1.75664 4.1408 0
M  V30 4989 C 472.345 -3.37575 2.82367 0
M  V30 4990 H 469.464 -0.462971 0.573434 0
M  V30 4991 H 472.106 -0.578194 1.80989 0
M  V30 4992 H 470.256 -2.95488 2.52228 0
M  V30 4993 H 471.928 -1.20025 4.45412 0
M  V30 4994 H 470.171 -1.06154 4.20611 0
M  V30 4995 H 470.842 -2.54029 4.90075 0
M  V30 4996 H 473.318 -2.87929 3.00393 0
M  V30 4997 H 472.194 -4.1064 3.64233 0
M  V30 4998 H 472.455 -3.98743 1.90936 0
M  V30 4999 N 471.514 -1.37532 -0.769588 0
M  V30 5000 C 472.925 -1.29382 -1.346 0
M  V30 5001 C 473.276 0.0576039 -1.96115 0
M  V30 5002 O 472.401 0.95947 -1.93967 0
M  V30 5003 C 472.996 -2.34298 -2.44724 0
M  V30 5004 C 471.555 -2.29776 -2.98128 0
M  V30 5005 C 470.702 -2.18013 -1.71364 0
M  V30 5006 H 473.653 -1.48123 -0.56968 0
M  V30 5007 H 473.674 -1.99089 -3.24259 0
M  V30 5008 H 473.186 -3.32645 -1.99922 0
M  V30 5009 H 471.287 -1.34959 -3.47299 0
M  V30 5010 H 471.4 -3.23276 -3.53595 0
M  V30 5011 H 469.764 -1.64595 -1.94372 0
M  V30 5012 H 470.547 -3.18278 -1.28662 0
M  V30 5013 N 472.992 0.995999 -1.22138 0
M  V30 5014 C 474.239 1.7351 -1.04406 0
M  V30 5015 C 474.567 1.89884 0.421244 0
M  V30 5016 O 473.822 1.43683 1.32867 0
M  V30 5017 C 474.121 3.14553 -1.6968 0
M  V30 5018 C 473.787 3.18102 -3.19565 0
M  V30 5019 C 472.449 3.18778 -3.60464 0
M  V30 5020 C 474.801 3.14636 -4.15516 0
M  V30 5021 C 472.129 3.13684 -4.95801 0
M  V30 5022 C 474.481 3.11084 -5.50826 0
M  V30 5023 C 473.145 3.10074 -5.91109 0
M  V30 5024 H 472.415 0.634916 -0.38205 0
M  V30 5025 H 475.062 1.1667 -1.51857 0
M  V30 5026 H 473.367 3.74682 -1.14546 0
M  V30 5027 H 475.064 3.70477 -1.53454 0
M  V30 5028 H 471.654 3.18324 -2.86998 0
M  V30 5029 H 475.838 3.13266 -3.84939 0
M  V30 5030 H 471.094 3.11245 -5.26247 0
M  V30 5031 H 475.268 3.07357 -6.24904 0
M  V30 5032 H 472.895 3.05882 -6.95946 0
M  V30 5033 N 474.47 1.03057 1.19235 0
M  V30 5034 C 475.71 0.736757 1.9066 0
M  V30 5035 C 476.074 -0.721521 1.77927 0
M  V30 5036 O 477.275 -1.12849 2.43964 0
M  V30 5037 C 475.546 1.17755 3.37444 0
M  V30 5038 S 477.105 1.00783 4.27069 0
M  V30 5039 H 473.923 0.268174 0.658486 0
M  V30 5040 H 476.525 1.32076 1.4414 0
M  V30 5041 H 475.229 2.23448 3.44237 0
M  V30 5042 H 474.76 0.586912 3.88997 0
M  V30 5043 H 476.775 -0.0806356 4.96134 0
M  V30 5044 N 475.948 -1.35272 0.808662 0
M  V30 5045 C 477.173 -2.03477 0.401475 0
M  V30 5046 C 477.598 -1.60537 -0.980279 0
M  V30 5047 O 476.956 -0.78304 -1.63518 0
M  V30 5048 C 477.004 -3.57181 0.495354 0
M  V30 5049 O 476.108 -4.09474 -0.490397 0
M  V30 5050 H 475.449 -0.642561 0.167366 0
M  V30 5051 H 477.979 -1.72824 1.09512 0
M  V30 5052 H 477.989 -4.06356 0.365912 0
M  V30 5053 H 476.664 -3.87784 1.5032 0
M  V30 5054 H 475.241 -3.71516 -0.321023 0
M  V30 5055 N 477.426 -0.562348 -1.47226 0
M  V30 5056 C 478.674 -0.0401371 -2.0206 0
M  V30 5057 C 478.995 1.3165 -1.43852 0
M  V30 5058 O 478.265 1.85976 -0.615599 0
M  V30 5059 H 476.845 -0.0118479 -0.746906 0
M  V30 5060 H 479.507 -0.73352 -1.8057 0
M  V30 5061 H 478.603 0.0441254 -3.12069 0
M  V30 5062 N 478.904 1.54736 -0.299062 0
M  V30 5063 C 479.854 2.20155 0.592932 0
M  V30 5064 C 480.838 1.1739 1.10038 0
M  V30 5065 O 482.03 1.43116 1.04147 0
M  V30 5066 C 479.159 2.94437 1.76527 0
M  V30 5067 C 478.245 4.04516 1.27388 0
M  V30 5068 N 478.636 5.03319 0.500339 0
M  V30 5069 C 476.934 4.18022 1.55478 0
M  V30 5070 C 477.635 5.81209 0.238909 0
M  V30 5071 N 476.611 5.37408 0.818163 0
M  V30 5072 H 480.413 2.93899 -0.00563596 0
M  V30 5073 H 477.927 1.62068 -0.103732 0
M  V30 5074 H 479.924 3.3977 2.41582 0
M  V30 5075 H 478.584 2.22209 2.36756 0
M  V30 5076 H 479.595 5.17696 0.145419 0
M  V30 5077 H 476.272 3.56998 2.16469 0
M  V30 5078 H 477.662 6.70812 -0.382223 0
M  V30 5079 N 480.382 0.0267497 1.57577 0
M  V30 5080 C 481.793 -0.512413 1.79531 0
M  V30 5081 C 482.144 -1.72391 0.936791 0
M  V30 5082 O 481.269 -2.15903 0.146543 0
M  V30 5083 C 481.864 -0.936378 3.25603 0
M  V30 5084 C 480.423 -1.42067 3.4856 0
M  V30 5085 C 479.57 -0.384278 2.74624 0
M  V30 5086 H 482.521 0.252797 1.56674 0
M  V30 5087 H 482.542 -1.80088 3.35184 0
M  V30 5088 H 482.054 -0.0544332 3.88062 0
M  V30 5089 H 480.155 -2.32262 2.9135 0
M  V30 5090 H 480.268 -1.42968 4.57271 0
M  V30 5091 H 478.632 -0.851855 2.40032 0
M  V30 5092 H 479.415 0.489159 3.39797 0
M  V30 5093 N 481.861 -1.55662 -0.24637 0
M  V30 5094 C 482.771 -1.93495 -1.32653 0
M  V30 5095 C 483.787 -0.835462 -1.5263 0
M  V30 5096 O 484.963 -1.1369 -1.66242 0
M  V30 5097 C 482.028 -2.22242 -2.66101 0
M  V30 5098 C 481.089 -3.45625 -2.54641 0
M  V30 5099 C 480.322 -3.72991 -3.81724 0
M  V30 5100 O 480.545 -3.02421 -4.8363 0
M  V30 5101 O 479.479 -4.66515 -3.80325 0
M  V30 5102 H 483.305 -2.85498 -1.03559 0
M  V30 5103 H 480.89 -1.42551 -0.44717 0
M  V30 5104 H 482.772 -2.42037 -3.44958 0
M  V30 5105 H 481.447 -1.33417 -2.94926 0
M  V30 5106 H 480.354 -3.31136 -1.74067 0
M  V30 5107 H 481.687 -4.34754 -2.3076 0
M  V30 5108 N 483.339 0.512053 -1.4905 0
M  V30 5109 C 484.587 1.26436 -1.57665 0
M  V30 5110 C 484.908 1.93255 -0.260293 0
M  V30 5111 O 484.178 1.82206 0.719564 0
M  V30 5112 H 482.758 0.469658 -0.580888 0
M  V30 5113 H 485.42 0.594398 -1.85615 0
M  V30 5114 H 484.516 2.03417 -2.36702 0
M  V30 5115 N 484.817 1.37938 0.762283 0
M  V30 5116 C 486.228 1.30094 1.33912 0
M  V30 5117 C 486.579 -0.0472026 1.96143 0
M  V30 5118 O 485.704 -0.94917 1.94473 0
M  V30 5119 C 486.299 2.35592 2.43478 0
M  V30 5120 C 484.858 2.31353 2.96905 0
M  V30 5121 C 484.005 2.18919 1.70205 0
M  V30 5122 H 486.956 1.48423 0.561816 0
M  V30 5123 H 486.977 2.00806 3.23199 0
M  V30 5124 H 486.489 3.33701 1.98155 0
M  V30 5125 H 484.59 1.36799 3.46579 0
M  V30 5126 H 484.703 3.25147 3.51875 0
M  V30 5127 H 483.067 1.65624 1.93496 0
M  V30 5128 H 483.85 3.18956 1.26973 0
M  V30 5129 N 486.295 -0.989507 1.22664 0
M  V30 5130 C 487.706 -1.54406 1.04955 0
M  V30 5131 C 488.057 -1.92366 -0.385951 0
M  V30 5132 O 487.182 -1.75111 -1.27142 0
M  V30 5133 C 487.777 -2.80578 1.89899 0
M  V30 5134 C 486.336 -3.32464 1.76478 0
M  V30 5135 C 485.483 -2.05524 1.86159 0
M  V30 5136 H 488.434 -0.810211 1.3646 0
M  V30 5137 H 488.455 -3.53075 1.4184 0
M  V30 5138 H 487.967 -2.52918 2.94371 0
M  V30 5139 H 486.068 -3.65024 0.747528 0
M  V30 5140 H 486.181 -4.02838 2.59342 0
M  V30 5141 H 484.545 -2.19241 1.29636 0
M  V30 5142 H 485.328 -1.80258 2.92168 0
M  V30 5143 N 487.773 -1.03688 -1.18687 0
M  V30 5144 C 488.736 -0.629115 -2.20397 0
M  V30 5145 C 489.736 0.311495 -1.57754 0
M  V30 5146 O 490.926 0.0974107 -1.73927 0
M  V30 5147 C 488.058 0.0782231 -3.4081 0
M  V30 5148 H 489.251 -1.52915 -2.57987 0
M  V30 5149 H 486.804 -0.828988 -1.32505 0
M  V30 5150 H 487.539 0.992233 -3.08748 0
M  V30 5151 H 487.324 -0.597776 -3.87517 0
M  V30 5152 H 488.814 0.350156 -4.16129 0
M  V30 5153 N 489.251 1.34841 -0.815825 0
M  V30 5154 C 490.499 1.98107 -0.399744 0
M  V30 5155 C 490.82 1.65019 1.03894 0
M  V30 5156 O 490.09 0.937311 1.72021 0
M  V30 5157 H 488.67 0.732827 -0.144823 0
M  V30 5158 H 491.332 1.64599 -1.0437 0
M  V30 5159 H 490.428 3.07856 -0.512965 0
M  V30 5160 N 490.729 0.570148 1.46925 0
M  V30 5161 C 491.976 0.0509529 2.02436 0
M  V30 5162 C 492.304 -1.30405 1.44308 0
M  V30 5163 O 491.559 -1.86493 0.593198 0
M  V30 5164 C 491.858 -0.0780336 3.57315 0
M  V30 5165 C 491.524 1.20775 4.34424 0
M  V30 5166 C 490.186 1.56004 4.5521 0
M  V30 5167 C 492.538 2.0592 4.78797 0
M  V30 5168 C 489.866 2.76201 5.17619 0
M  V30 5169 C 492.218 3.25332 5.42533 0
M  V30 5170 C 490.882 3.60859 5.61549 0
M  V30 5171 H 490.152 0.018645 0.740765 0
M  V30 5172 H 492.799 0.744262 1.76445 0
M  V30 5173 H 491.104 -0.854394 3.82371 0
M  V30 5174 H 492.801 -0.495312 3.97929 0
M  V30 5175 H 489.391 0.923469 4.18533 0
M  V30 5176 H 493.575 1.80008 4.62505 0
M  V30 5177 H 488.831 3.0388 5.30535 0
M  V30 5178 H 493.005 3.91586 5.75876 0
M  V30 5179 H 490.632 4.54088 6.09678 0
M  V30 5180 N 492.207 -1.54576 0.307264 0
M  V30 5181 C 493.618 -1.8579 -0.184121 0
M  V30 5182 C 493.969 -1.22914 -1.52927 0
M  V30 5183 O 493.094 -0.529126 -2.09831 0
M  V30 5184 C 493.689 -3.37081 -0.340862 0
M  V30 5185 C 492.248 -3.68304 -0.776465 0
M  V30 5186 C 491.395 -2.77076 0.111503 0
M  V30 5187 H 494.346 -1.49656 0.528078 0
M  V30 5188 H 494.367 -3.61922 -1.17443 0
M  V30 5189 H 493.879 -3.82815 0.638309 0
M  V30 5190 H 491.98 -3.28092 -1.76596 0
M  V30 5191 H 492.093 -4.75434 -0.591512 0
M  V30 5192 H 490.457 -2.51374 -0.410256 0
M  V30 5193 H 491.24 -3.25632 1.08714 0
M  V30 5194 N 493.685 -0.035106 -1.57561 0
M  V30 5195 C 494.925 0.646316 -1.93913 0
M  V30 5196 C 495.289 1.68947 -0.912185 0
M  V30 5197 O 496.49 2.42381 -1.1621 0
M  V30 5198 C 494.761 1.24136 -3.35149 0
M  V30 5199 S 496.32 1.94302 -3.93436 0
M  V30 5200 H 493.138 0.212642 -0.678457 0
M  V30 5201 H 495.74 -0.100203 -1.95243 0
M  V30 5202 H 494.444 0.46979 -4.07702 0
M  V30 5203 H 493.975 2.02505 -3.37276 0
M  V30 5204 H 495.99 3.22205 -3.77357 0
M  V30 5205 N 495.163 1.55791 0.238111 0
M  V30 5206 C 496.409 1.78297 0.966337 0
M  V30 5207 C 496.742 0.601903 1.84637 0
M  V30 5208 O 496.017 -0.399499 1.90353 0
M  V30 5209 C 496.3 3.10758 1.81939 0
M  V30 5210 C 496.153 4.39283 0.966958 0
M  V30 5211 C 497.472 3.39519 2.80027 0
M  V30 5212 H 494.591 0.648654 0.349882 0
M  V30 5213 H 497.233 1.88525 0.236253 0
M  V30 5214 H 495.383 3.02168 2.44185 0
M  V30 5215 H 497.055 4.59873 0.362514 0
M  V30 5216 H 495.298 4.32948 0.271669 0
M  V30 5217 H 495.969 5.28368 1.59784 0
M  V30 5218 H 498.445 3.48128 2.27917 0
M  V30 5219 H 497.321 4.33402 3.36829 0
M  V30 5220 H 497.582 2.60864 3.56934 0
M  V30 5221 N 496.642 -0.504142 1.49319 0
M  V30 5222 C 497.867 -1.28729 1.62615 0
M  V30 5223 C 498.292 -1.85752 0.296309 0
M  V30 5224 O 497.65 -1.65704 -0.735649 0
M  V30 5225 C 497.698 -2.39561 2.69524 0
M  V30 5226 O 496.802 -3.43324 2.28478 0
M  V30 5227 H 496.143 -0.380172 0.544395 0
M  V30 5228 H 498.673 -0.603872 1.95485 0
M  V30 5229 H 498.683 -2.8537 2.91595 0
M  V30 5230 H 497.358 -1.97423 3.66056 0
M  V30 5231 H 495.935 -3.03455 2.16725 0
M  V30 5232 N 498.12 -1.38341 -0.754957 0
M  V30 5233 C 499.03 -1.3769 -1.89944 0
M  V30 5234 C 500.046 -0.274194 -1.71826 0
M  V30 5235 O 501.222 -0.512391 -1.94773 0
M  V30 5236 C 498.287 -1.19938 -3.25293 0
M  V30 5237 C 497.348 -2.40001 -3.55946 0
M  V30 5238 C 496.581 -2.23087 -4.84838 0
M  V30 5239 O 496.804 -1.22386 -5.57116 0
M  V30 5240 O 495.738 -3.11646 -5.14937 0
M  V30 5241 H 499.564 -2.3412 -1.93446 0
M  V30 5242 H 497.149 -1.19246 -0.900044 0
M  V30 5243 H 499.031 -1.12093 -4.06218 0
M  V30 5244 H 497.706 -0.265919 -3.22606 0
M  V30 5245 H 496.613 -2.53421 -2.75188 0
M  V30 5246 H 497.946 -3.31973 -3.63394 0
M  V30 5247 N 499.598 0.982988 -1.23187 0
M  V30 5248 C 500.826 1.75921 -1.08901 0
M  V30 5249 C 501.241 1.85341 0.359719 0
M  V30 5250 O 500.598 1.33072 1.24892 0
M  V30 5251 C 500.649 3.18742 -1.70545 0
M  V30 5252 O 500.37 3.09814 -3.09753 0
M  V30 5253 C 501.871 4.1277 -1.61667 0
M  V30 5254 H 499.091 0.552166 -0.381252 0
M  V30 5255 H 501.635 1.23516 -1.62985 0
M  V30 5256 H 499.79 3.68182 -1.20501 0
M  V30 5257 H 500.204 3.99703 -3.39614 0
M  V30 5258 H 501.678 5.10697 -2.09506 0
M  V30 5259 H 502.155 4.3542 -0.575009 0
M  V30 5260 H 502.761 3.69232 -2.11064 0
M  V30 5261 N 501.076 1.04316 1.18135 0
M  V30 5262 C 502.304 0.768117 1.92113 0
M  V30 5263 C 502.719 -0.675057 1.76319 0
M  V30 5264 O 502.076 -1.46038 1.09449 0
M  V30 5265 C 502.127 1.12808 3.43448 0
M  V30 5266 O 501.848 2.5146 3.58747 0
M  V30 5267 C 503.349 0.8779 4.3452 0
M  V30 5268 H 500.569 0.279937 0.609817 0
M  V30 5269 H 503.113 1.39149 1.49859 0
M  V30 5270 H 501.268 0.549623 3.83481 0
M  V30 5271 H 501.682 2.65313 4.52448 0
M  V30 5272 H 503.156 1.17959 5.39249 0
M  V30 5273 H 503.633 -0.187239 4.38801 0
M  V30 5274 H 504.239 1.43977 4.00188 0
M  V30 5275 N 502.554 -1.34406 0.822964 0
M  V30 5276 C 503.801 -1.98284 0.411057 0
M  V30 5277 C 504.129 -1.65245 -1.02588 0
M  V30 5278 O 503.384 -0.91619 -1.72929 0
M  V30 5279 C 503.683 -3.52981 0.560268 0
M  V30 5280 C 503.349 -4.05931 1.96293 0
M  V30 5281 C 502.011 -4.20103 2.34664 0
M  V30 5282 C 504.363 -4.34412 2.87985 0
M  V30 5283 C 501.691 -4.60082 3.64062 0
M  V30 5284 C 504.043 -4.75838 4.16847 0
M  V30 5285 C 502.707 -4.88215 4.55195 0
M  V30 5286 H 501.977 -0.725573 0.150416 0
M  V30 5287 H 504.624 -1.60349 1.04692 0
M  V30 5288 H 502.929 -3.91477 -0.158982 0
M  V30 5289 H 504.626 -4.00385 0.222087 0
M  V30 5290 H 501.216 -3.95363 1.65487 0
M  V30 5291 H 505.4 -4.23001 2.59584 0
M  V30 5292 H 500.656 -4.67856 3.93599 0
M  V30 5293 H 504.83 -4.96834 4.87984 0
M  V30 5294 H 502.457 -5.18952 5.55512 0
M  V30 5295 N 504.032 -0.577932 -1.46621 0
M  V30 5296 C 505.309 0.00495287 -1.95599 0
M  V30 5297 C 505.689 1.46428 -1.5206 0
M  V30 5298 O 505.037 2.1517 -0.769046 0
M  V30 5299 C 505.247 -0.162114 -3.48623 0
M  V30 5300 C 506.595 -0.0274623 -4.24591 0
M  V30 5301 O 507.619 -0.0907067 -3.56084 0
M  V30 5302 O 506.478 0.1122 -5.46385 0
M  V30 5303 H 503.572 0.0525057 -0.825332 0
M  V30 5304 H 506.118 -0.645914 -1.56927 0
M  V30 5305 H 504.89 -1.17679 -3.73185 0
M  V30 5306 H 504.513 0.525407 -3.94113 0
M  V30 5307 N 505.51 1.54411 -0.315457 0
M  V30 5308 C 506.756 2.00716 0.289972 0
M  V30 5309 C 507.089 1.2034 1.5242 0
M  V30 5310 O 506.364 0.283579 1.92422 0
M  V30 5311 C 506.647 3.54507 0.632196 0
M  V30 5312 C 506.5 4.45615 -0.61218 0
M  V30 5313 C 507.819 4.15421 1.45305 0
M  V30 5314 H 504.938 0.729637 0.10392 0
M  V30 5315 H 507.58 1.8506 -0.430427 0
M  V30 5316 H 505.73 3.67979 1.24595 0
M  V30 5317 H 507.402 4.44026 -1.25053 0
M  V30 5318 H 505.645 4.15621 -1.24264 0
M  V30 5319 H 506.316 5.51022 -0.328379 0
M  V30 5320 H 508.792 4.05474 0.934331 0
M  V30 5321 H 507.668 5.23157 1.66127 0
M  V30 5322 H 507.929 3.68223 2.44671 0
M  V30 5323 N 506.988 0.0434614 1.5754 0
M  V30 5324 C 508.235 -0.632035 1.92384 0
M  V30 5325 C 508.563 -1.71304 0.921157 0
M  V30 5326 O 507.818 -1.95583 -0.067744 0
M  V30 5327 C 508.117 -1.2738 3.3393 0
M  V30 5328 C 507.783 -0.321757 4.49751 0
M  V30 5329 C 506.445 -0.0597611 4.81163 0
M  V30 5330 C 508.797 0.331158 5.20147 0
M  V30 5331 C 506.125 0.862715 5.80322 0
M  V30 5332 C 508.477 1.24178 6.20292 0
M  V30 5333 C 507.141 1.51252 6.50138 0
M  V30 5334 H 506.411 -0.231278 0.703983 0
M  V30 5335 H 509.058 0.108294 1.91194 0
M  V30 5336 H 507.363 -2.08921 3.3145 0
M  V30 5337 H 509.06 -1.80326 3.58167 0
M  V30 5338 H 505.65 -0.53614 4.25233 0
M  V30 5339 H 509.834 0.141826 4.96097 0
M  V30 5340 H 505.09 1.08003 6.01785 0
M  V30 5341 H 509.264 1.75381 6.73954 0
M  V30 5342 H 506.891 2.22897 7.26788 0
M  V30 5343 N 508.466 -1.55915 -0.229846 0
M  V30 5344 C 509.712 -1.78807 -0.956868 0
M  V30 5345 C 510.045 -0.611687 -1.84315 0
M  V30 5346 O 509.32 0.389398 -1.90562 0
M  V30 5347 C 509.603 -3.11718 -1.80288 0
M  V30 5348 C 509.456 -4.3979 -0.943649 0
M  V30 5349 C 510.775 -3.40999 -2.78222 0
M  V30 5350 H 507.894 -0.6505 -0.346437 0
M  V30 5351 H 510.536 -1.88648 -0.226252 0
M  V30 5352 H 508.686 -3.03459 -2.42579 0
M  V30 5353 H 510.358 -4.60059 -0.338121 0
M  V30 5354 H 508.601 -4.33086 -0.248705 0
M  V30 5355 H 509.272 -5.29208 -1.5698 0
M  V30 5356 H 511.748 -3.49332 -2.26067 0
M  V30 5357 H 510.624 -4.35183 -3.34526 0
M  V30 5358 H 510.885 -2.62754 -3.55546 0
M  V30 5359 N 509.944 0.496216 -1.49584 0
M  V30 5360 C 511.19 1.24918 -1.60521 0
M  V30 5361 C 511.545 1.90197 -0.290352 0
M  V30 5362 O 510.838 1.77967 0.709813 0
M  V30 5363 C 511.032 2.3359 -2.705 0
M  V30 5364 C 510.861 1.78969 -4.12553 0
M  V30 5365 C 509.631 1.60057 -4.79281 0
M  V30 5366 C 511.829 1.29883 -4.97629 0
M  V30 5367 N 509.811 1.00415 -6.05632 0
M  V30 5368 C 511.182 0.824057 -6.14499 0
M  V30 5369 C 513.237 1.18501 -4.83593 0
M  V30 5370 C 511.94 0.246721 -7.18877 0
M  V30 5371 C 513.966 0.621634 -5.88124 0
M  V30 5372 C 513.328 0.157116 -7.04225 0
M  V30 5373 H 509.427 0.446896 -0.641722 0
M  V30 5374 H 512.011 0.555456 -1.86609 0
M  V30 5375 H 510.182 3.00418 -2.46178 0
M  V30 5376 H 511.914 3.00628 -2.70933 0
M  V30 5377 H 508.669 1.84562 -4.36158 0
M  V30 5378 H 509.093 0.725074 -6.73106 0
M  V30 5379 H 513.735 1.53012 -3.94141 0
M  V30 5380 H 511.453 -0.110651 -8.08024 0
M  V30 5381 H 515.039 0.536279 -5.79323 0
M  V30 5382 H 513.919 -0.272009 -7.83728 0
M  V30 5383 N 511.423 1.38739 0.74761 0
M  V30 5384 C 512.67 1.35274 1.50689 0
M  V30 5385 C 512.998 -0.0553359 1.94421 0
M  V30 5386 O 512.253 -1.03365 1.66175 0
M  V30 5387 C 512.552 2.25992 2.7688 0
M  V30 5388 C 512.218 3.73854 2.5208 0
M  V30 5389 C 510.88 4.14145 2.45025 0
M  V30 5390 C 513.232 4.67427 2.30568 0
M  V30 5391 C 510.56 5.4609 2.14483 0
M  V30 5392 C 512.912 5.99635 2.01545 0
M  V30 5393 C 511.576 6.39004 1.92951 0
M  V30 5394 H 510.846 0.495003 0.55141 0
M  V30 5395 H 513.493 1.71145 0.859158 0
M  V30 5396 H 511.798 1.83196 3.46333 0
M  V30 5397 H 513.495 2.20611 3.34861 0
M  V30 5398 H 510.085 3.41913 2.58444 0
M  V30 5399 H 514.269 4.3714 2.34994 0
M  V30 5400 H 509.525 5.75528 2.06342 0
M  V30 5401 H 513.699 6.71678 1.83906 0
M  V30 5402 H 511.326 7.41165 1.6905 0
M  V30 5403 N 512.901 -0.976442 1.23707 0
M  V30 5404 C 514.149 -1.71487 1.06942 0
M  V30 5405 C 514.47 -1.9098 -0.393897 0
M  V30 5406 O 513.74 -1.48128 -1.28198 0
M  V30 5407 H 512.32 -0.635425 0.392739 0
M  V30 5408 H 514.982 -1.17515 1.55487 0
M  V30 5409 H 514.078 -2.70286 1.56051 0
M  V30 5410 N 514.379 -1.04941 -1.1758 0
M  V30 5411 C 515.625 -0.768896 -1.88307 0
M  V30 5412 C 515.98 0.696361 -1.79356 0
M  V30 5413 O 515.273 1.50245 -1.18899 0
M  V30 5414 C 515.467 -1.18062 -3.37337 0
M  V30 5415 C 515.296 -2.68436 -3.60794 0
M  V30 5416 C 514.066 -3.35709 -3.77661 0
M  V30 5417 C 516.264 -3.66657 -3.60649 0
M  V30 5418 N 514.246 -4.74974 -3.88939 0
M  V30 5419 C 515.617 -4.91638 -3.77747 0
M  V30 5420 C 517.672 -3.60162 -3.43785 0
M  V30 5421 C 516.375 -6.10902 -3.79726 0
M  V30 5422 C 518.401 -4.78863 -3.47051 0
M  V30 5423 C 517.763 -6.02666 -3.64654 0
M  V30 5424 H 513.862 -0.33355 -0.707296 0
M  V30 5425 H 516.446 -1.34085 -1.41171 0
M  V30 5426 H 514.617 -0.636648 -3.83147 0
M  V30 5427 H 516.349 -0.8502 -3.95669 0
M  V30 5428 H 513.104 -2.8611 -3.77409 0
M  V30 5429 H 513.528 -5.47378 -3.98379 0
M  V30 5430 H 518.17 -2.65412 -3.29114 0
M  V30 5431 H 515.888 -7.05998 -3.93182 0
M  V30 5432 H 519.474 -4.75488 -3.35265 0
M  V30 5433 H 518.354 -6.92979 -3.67083 0
M  V30 5434 N 515.857 1.33968 -0.830081 0
M  V30 5435 C 516.82 2.27694 -0.26235 0
M  V30 5436 C 517.82 1.50589 0.563876 0
M  V30 5437 O 519.01 1.70028 0.378941 0
M  V30 5438 C 516.142 3.35002 0.63138 0
M  V30 5439 H 517.335 2.79419 -1.08928 0
M  V30 5440 H 514.888 1.44221 -0.602486 0
M  V30 5441 H 515.623 2.88504 1.48109 0
M  V30 5442 H 515.408 3.92079 0.0403276 0
M  V30 5443 H 516.898 4.04897 1.02217 0
M  V30 5444 N 517.335 0.585699 1.46312 0
M  V30 5445 C 518.283 -0.158577 2.32059 0
M  V30 5446 C 519.277 -0.881427 1.44662 0
M  V30 5447 O 520.483 -0.799476 1.61271 0
M  V30 5448 H 516.858 -0.0700066 0.748734 0
M  V30 5449 H 518.829 0.583383 2.92642 0
M  V30 5450 C 517.578 -1.15701 3.27885 0
M  V30 5451 H 516.901 -0.610215 3.95116 0
M  V30 5452 H 518.341 -1.64812 3.90657 0
M  V30 5453 C 516.8 -2.21951 2.53455 0
M  V30 5454 O 517.33 -3.29352 2.29978 0
M  V30 5455 N 515.536 -1.9664 2.13965 0
M  V30 5456 H 515.083 -1.09309 2.33258 0
M  V30 5457 H 515.041 -2.6794 1.64485 0
M  V30 5458 N 518.813 -1.54241 0.323641 0
M  V30 5459 C 520.038 -2.05452 -0.283605 0
M  V30 5460 C 520.463 -1.19823 -1.44997 0
M  V30 5461 O 519.821 -0.207358 -1.8011 0
M  V30 5462 C 519.869 -3.53823 -0.695795 0
M  V30 5463 O 518.973 -3.71134 -1.79815 0
M  V30 5464 H 518.314 -0.662024 -0.0511917 0
M  V30 5465 H 520.844 -1.99079 0.472073 0
M  V30 5466 H 520.854 -3.96094 -0.978434 0
M  V30 5467 H 519.529 -4.15602 0.157287 0
M  V30 5468 H 518.106 -3.40768 -1.51431 0
M  V30 5469 N 520.291 -0.0518155 -1.57515 0
M  V30 5470 C 521.516 0.634896 -1.97443 0
M  V30 5471 C 521.941 1.63546 -0.929207 0
M  V30 5472 O 521.299 1.80981 0.107484 0
M  V30 5473 C 521.347 1.29765 -3.36442 0
M  V30 5474 O 520.451 2.41333 -3.34413 0
M  V30 5475 H 519.792 0.164994 -0.643174 0
M  V30 5476 H 522.322 -0.120407 -2.04245 0
M  V30 5477 H 522.332 1.64918 -3.73184 0
M  V30 5478 H 521.007 0.564361 -4.12053 0
M  V30 5479 H 519.584 2.08122 -3.09418 0
M  V30 5480 N 521.769 1.56035 0.221574 0
M  V30 5481 C 522.699 1.95434 1.2778 0
M  V30 5482 C 523.68 0.822564 1.48889 0
M  V30 5483 O 524.865 1.08486 1.61072 0
M  V30 5484 C 521.995 2.27102 2.62759 0
M  V30 5485 C 520.949 3.4277 2.56306 0
M  V30 5486 C 520.275 3.60043 3.95314 0
M  V30 5487 C 521.575 4.77742 2.11093 0
M  V30 5488 H 523.269 2.83912 0.950504 0
M  V30 5489 H 520.815 1.36596 0.455791 0
M  V30 5490 H 522.768 2.53256 3.36807 0
M  V30 5491 H 521.492 1.35478 2.97176 0
M  V30 5492 H 520.151 3.16664 1.84715 0
M  V30 5493 H 519.799 2.65794 4.27039 0
M  V30 5494 H 519.499 4.37841 3.91879 0
M  V30 5495 H 521.023 3.88545 4.71025 0
M  V30 5496 H 522.437 5.03102 2.74885 0
M  V30 5497 H 520.834 5.58823 2.18716 0
M  V30 5498 H 521.904 4.731 1.06321 0
M  V30 5499 N 523.247 -0.488276 1.49845 0
M  V30 5500 C 524.195 -1.60917 1.67954 0
M  V30 5501 C 525.189 -1.6038 0.54539 0
M  V30 5502 O 526.395 -1.64736 0.7254 0
M  V30 5503 H 522.77 -0.533658 0.529824 0
M  V30 5504 H 524.741 -1.428 2.62013 0
M  V30 5505 C 523.49 -2.98975 1.77509 0
M  V30 5506 H 522.813 -3.00099 2.6416 0
M  V30 5507 H 524.253 -3.76906 1.9421 0
M  V30 5508 C 522.712 -3.3282 0.522745 0
M  V30 5509 O 523.242 -4.00208 -0.345866 0
M  V30 5510 N 521.448 -2.8808 0.381882 0
M  V30 5511 H 520.995 -2.33415 1.08974 0
M  V30 5512 H 520.953 -3.11091 -0.454929 0
M  V30 5513 N 524.725 -1.39134 -0.740242 0
M  V30 5514 C 526.136 -1.32208 -1.31825 0
M  V30 5515 C 526.487 0.0159919 -1.96193 0
M  V30 5516 O 525.612 0.918111 -1.95958 0
M  V30 5517 C 526.207 -2.39436 -2.39699 0
M  V30 5518 C 524.766 -2.36048 -2.93187 0
M  V30 5519 C 523.913 -2.21599 -1.66701 0
M  V30 5520 H 526.864 -1.49298 -0.538133 0
M  V30 5521 H 526.885 -2.05922 -3.19963 0
M  V30 5522 H 526.397 -3.36811 -1.92821 0
M  V30 5523 H 524.498 -1.42295 -3.44359 0
M  V30 5524 H 524.611 -3.30704 -3.46658 0
M  V30 5525 H 522.975 -1.68681 -1.90837 0
M  V30 5526 H 523.758 -3.20936 -1.21882 0
M  V30 5527 N 526.204 0.969867 -1.24223 0
M  V30 5528 C 527.45 1.7151 -1.08223 0
M  V30 5529 C 527.783 1.90478 0.37838 0
M  V30 5530 O 527.058 1.4647 1.27971 0
M  V30 5531 C 527.341 3.10714 -1.82013 0
M  V30 5532 C 527.194 2.9925 -3.35811 0
M  V30 5533 C 528.513 4.10332 -1.59108 0
M  V30 5534 H 525.632 0.622499 -0.394543 0
M  V30 5535 H 528.274 1.1284 -1.52863 0
M  V30 5536 H 526.424 3.608 -1.44068 0
M  V30 5537 H 528.096 2.56608 -3.83341 0
M  V30 5538 H 526.339 2.35512 -3.64303 0
M  V30 5539 H 527.01 3.97857 -3.82641 0
M  V30 5540 H 529.486 3.69097 -1.92111 0
M  V30 5541 H 528.362 5.05804 -2.13198 0
M  V30 5542 H 528.623 4.38926 -0.528832 0
M  V30 5543 N 527.682 1.05563 1.17022 0
M  V30 5544 C 528.931 0.763036 1.8671 0
M  V30 5545 C 529.244 -0.712857 1.82147 0
M  V30 5546 O 530.45 -1.11955 2.47343 0
M  V30 5547 C 528.906 1.31474 3.35026 0
M  V30 5548 C 528.514 2.82034 3.48081 0
M  V30 5549 C 530.258 1.09935 4.10018 0
M  V30 5550 C 528.165 3.30486 4.90442 0
M  V30 5551 H 527.095 0.281747 0.699382 0
M  V30 5552 H 529.746 1.2734 1.32124 0
M  V30 5553 H 528.128 0.732171 3.89173 0
M  V30 5554 H 529.302 3.46178 3.04133 0
M  V30 5555 H 527.617 3.02156 2.86515 0
M  V30 5556 H 530.214 1.43632 5.15048 0
M  V30 5557 H 530.557 0.0373072 4.16283 0
M  V30 5558 H 531.09 1.64732 3.62089 0
M  V30 5559 H 527.829 4.36137 4.89352 0
M  V30 5560 H 527.349 2.71086 5.35044 0
M  V30 5561 H 529.028 3.25382 5.59227 0
M  V30 5562 N 529.16 -1.33526 0.837174 0
M  V30 5563 C 530.39 -2.01754 0.444848 0
M  V30 5564 C 530.798 -1.63149 -0.958072 0
M  V30 5565 O 530.141 -0.839827 -1.63379 0
M  V30 5566 C 530.203 -3.56228 0.483917 0
M  V30 5567 C 529.867 -4.18205 1.84265 0
M  V30 5568 C 530.864 -4.37699 2.80563 0
M  V30 5569 C 528.549 -4.54667 2.13503 0
M  V30 5570 C 530.543 -4.928 4.04261 0
M  V30 5571 C 528.23 -5.09475 3.37458 0
M  V30 5572 C 529.228 -5.28488 4.32654 0
M  V30 5573 O 528.916 -5.82132 5.54417 0
M  V30 5574 H 528.648 -0.652928 0.175104 0
M  V30 5575 H 531.202 -1.71469 1.13082 0
M  V30 5576 H 529.432 -3.85833 -0.258826 0
M  V30 5577 H 531.121 -4.05752 0.109653 0
M  V30 5578 H 531.887 -4.0988 2.59274 0
M  V30 5579 H 527.766 -4.39164 1.40201 0
M  V30 5580 H 531.31 -5.07555 4.78574 0
M  V30 5581 H 527.207 -5.36725 3.58604 0
M  V30 5582 H 527.975 -6.00548 5.56133 0
M  V30 5583 N 530.638 -0.59345 -1.46 0
M  V30 5584 C 531.601 0.123538 -2.28867 0
M  V30 5585 C 532.601 0.808628 -1.38989 0
M  V30 5586 O 533.791 0.658945 -1.61256 0
M  V30 5587 C 530.923 1.1847 -3.19653 0
M  V30 5588 H 532.116 -0.604843 -2.93737 0
M  V30 5589 H 529.669 -0.351875 -1.52288 0
M  V30 5590 H 530.404 1.94431 -2.59552 0
M  V30 5591 H 530.189 0.69783 -3.8584 0
M  V30 5592 H 531.679 1.68726 -3.81997 0
M  V30 5593 N 532.116 1.54067 -0.331816 0
M  V30 5594 C 533.363 2.00715 0.268269 0
M  V30 5595 C 533.691 1.21986 1.51491 0
M  V30 5596 O 532.946 0.292309 1.93505 0
M  V30 5597 C 533.245 3.51634 0.639392 0
M  V30 5598 C 532.911 4.48018 -0.509019 0
M  V30 5599 C 531.573 4.74089 -0.824209 0
M  V30 5600 C 533.925 5.05237 -1.28003 0
M  V30 5601 C 531.253 5.54637 -1.91298 0
M  V30 5602 C 533.605 5.86972 -2.35895 0
M  V30 5603 C 532.269 6.11342 -2.67987 0
M  V30 5604 H 531.539 0.734469 0.0981667 0
M  V30 5605 H 534.186 1.8596 -0.457304 0
M  V30 5606 H 532.491 3.6416 1.44551 0
M  V30 5607 H 534.188 3.85175 1.11539 0
M  V30 5608 H 530.778 4.27851 -0.253287 0
M  V30 5609 H 534.962 4.8507 -1.04978 0
M  V30 5610 H 530.218 5.71747 -2.16599 0
M  V30 5611 H 534.392 6.30327 -2.96076 0
M  V30 5612 H 532.019 6.73544 -3.5248 0
M  V30 5613 N 533.594 0.0601682 1.57485 0
M  V30 5614 C 534.542 -0.928899 2.13247 0
M  V30 5615 C 535.536 -1.31616 1.06647 0
M  V30 5616 O 536.742 -1.29476 1.25043 0
M  V30 5617 H 533.117 -0.317455 0.681708 0
M  V30 5618 H 535.088 -0.433566 2.95233 0
M  V30 5619 C 533.837 -2.19121 2.69965 0
M  V30 5620 H 533.16 -1.90204 3.51657 0
M  V30 5621 H 534.6 -2.86465 3.12592 0
M  V30 5622 C 533.059 -2.94195 1.64168 0
M  V30 5623 O 533.589 -3.87468 1.05978 0
M  V30 5624 N 531.795 -2.57089 1.35476 0
M  V30 5625 H 531.342 -1.81314 1.82984 0
M  V30 5626 H 531.3 -3.07624 0.649196 0
M  V30 5627 N 535.072 -1.5615 -0.213296 0
M  V30 5628 C 536.035 -1.92249 -1.24792 0
M  V30 5629 C 537.035 -0.801828 -1.39382 0
M  V30 5630 O 538.225 -1.06948 -1.37506 0
M  V30 5631 C 535.357 -2.18056 -2.62039 0
M  V30 5632 H 536.55 -2.84793 -0.939845 0
M  V30 5633 H 534.103 -1.49559 -0.454062 0
M  V30 5634 H 534.838 -1.2809 -2.97932 0
M  V30 5635 H 534.623 -2.99703 -2.52825 0
M  V30 5636 H 536.113 -2.47051 -3.36683 0
M  V30 5637 N 536.55 0.480323 -1.50102 0
M  V30 5638 C 537.827 1.24159 -1.51142 0
M  V30 5639 C 538.207 2.09605 -0.250818 0
M  V30 5640 O 537.555 2.15274 0.766118 0
M  V30 5641 C 537.765 2.08057 -2.80202 0
M  V30 5642 C 539.113 2.66556 -3.30504 0
M  V30 5643 O 540.137 2.18308 -2.81461 0
M  V30 5644 O 538.996 3.54442 -4.15973 0
M  V30 5645 H 536.09 0.562928 -0.605839 0
M  V30 5646 H 538.636 0.492899 -1.62384 0
M  V30 5647 H 537.408 1.45032 -3.6343 0
M  V30 5648 H 537.031 2.90079 -2.71919 0
M  V30 5649 N 538.028 1.39524 0.732853 0
M  V30 5650 C 539.275 1.36865 1.49246 0
M  V30 5651 C 539.603 -0.0347118 1.94469 0
M  V30 5652 O 538.858 -1.01596 1.67262 0
M  V30 5653 C 539.157 2.28916 2.74468 0
M  V30 5654 C 538.823 3.76506 2.481 0
M  V30 5655 C 537.485 4.16721 2.40619 0
M  V30 5656 C 539.837 4.69846 2.25598 0
M  V30 5657 C 537.165 5.48334 2.08679 0
M  V30 5658 C 539.517 6.01739 1.95174 0
M  V30 5659 C 538.181 6.41015 1.86163 0
M  V30 5660 H 537.451 0.500824 0.546129 0
M  V30 5661 H 540.098 1.72047 0.840958 0
M  V30 5662 H 538.403 1.86859 3.4437 0
M  V30 5663 H 540.1 2.2415 3.32502 0
M  V30 5664 H 536.69 3.44635 2.54803 0
M  V30 5665 H 540.874 4.39608 2.30344 0
M  V30 5666 H 536.13 5.77685 2.00226 0
M  V30 5667 H 540.304 6.73591 1.76771 0
M  V30 5668 H 537.931 7.42917 1.61179 0
M  V30 5669 N 539.506 -0.963266 1.24736 0
M  V30 5670 C 540.438 -2.06162 1.0015 0
M  V30 5671 C 541.451 -1.62771 -0.0305905 0
M  V30 5672 O 542.64 -1.77296 0.206966 0
M  V30 5673 C 539.74 -3.35333 0.490385 0
M  V30 5674 C 538.913 -4.07609 1.58663 0
M  V30 5675 C 537.972 -5.15052 1.0774 0
M  V30 5676 O 536.998 -5.4098 1.77002 0
M  V30 5677 N 538.2 -5.80436 -0.0858605 0
M  V30 5678 H 540.965 -2.27825 1.94719 0
M  V30 5679 H 538.526 -1.13121 1.15825 0
M  V30 5680 H 540.518 -4.04477 0.134371 0
M  V30 5681 H 539.088 -3.10507 -0.361155 0
M  V30 5682 H 538.308 -3.32681 2.11463 0
M  V30 5683 H 539.596 -4.52656 2.32336 0
M  V30 5684 H 538.994 -5.6178 -0.664806 0
M  V30 5685 H 537.551 -6.50674 -0.382981 0
M  V30 5686 N 540.985 -1.06182 -1.16461 0
M  V30 5687 C 541.932 -0.671613 -2.20812 0
M  V30 5688 C 542.902 0.331186 -1.62765 0
M  V30 5689 O 544.087 0.22033 -1.89524 0
M  V30 5690 C 541.227 -0.063029 -3.45042 0
M  V30 5691 C 540.34 -1.11587 -4.1734 0
M  V30 5692 C 539.475 -0.473546 -5.29085 0
M  V30 5693 C 538.514 -1.51 -5.93182 0
M  V30 5694 N 537.651 -0.891118 -6.96422 0
M  V30 5695 H 542.491 -1.56589 -2.53542 0
M  V30 5696 H 540.028 -0.782951 -1.24532 0
M  V30 5697 H 541.986 0.307344 -4.16066 0
M  V30 5698 H 540.616 0.794663 -3.12866 0
M  V30 5699 H 539.668 -1.60396 -3.44931 0
M  V30 5700 H 540.98 -1.90221 -4.61104 0
M  V30 5701 H 540.134 -0.0501432 -6.06679 0
M  V30 5702 H 538.873 0.344687 -4.8648 0
M  V30 5703 H 537.878 -1.94331 -5.14311 0
M  V30 5704 H 539.103 -2.33031 -6.37866 0
M  V30 5705 H 537.049 -0.0935753 -6.55933 0
M  V30 5706 H 536.966 -1.61486 -7.38551 0
M  V30 5707 H 538.234 -0.492822 -7.77941 0
M  V30 5708 N 542.463 1.3308 -0.844243 0
M  V30 5709 C 543.709 1.97898 -0.443206 0
M  V30 5710 C 544.042 1.66699 0.99625 0
M  V30 5711 O 543.317 0.949704 1.69738 0
M  V30 5712 C 543.6 3.53801 -0.670606 0
M  V30 5713 C 543.453 3.94667 -2.15772 0
M  V30 5714 C 544.772 4.39936 -0.120226 0
M  V30 5715 H 541.891 0.718861 -0.162504 0
M  V30 5716 H 544.533 1.57633 -1.06075 0
M  V30 5717 H 542.683 3.88229 -0.14496 0
M  V30 5718 H 544.355 3.70469 -2.74865 0
M  V30 5719 H 542.598 3.44203 -2.6402 0
M  V30 5720 H 543.269 5.03275 -2.26757 0
M  V30 5721 H 545.745 4.12183 -0.5696 0
M  V30 5722 H 544.621 5.4803 -0.308984 0
M  V30 5723 H 544.882 4.31184 0.976347 0
M  V30 5724 N 543.941 0.601185 1.45683 0
M  V30 5725 C 545.188 0.0938811 2.02282 0
M  V30 5726 C 545.516 -1.27315 1.47041 0
M  V30 5727 O 544.771 -1.85193 0.632623 0
M  V30 5728 C 545.07 -0.00222425 3.574 0
M  V30 5729 C 544.736 1.29963 4.31764 0
M  V30 5730 C 543.398 1.65625 4.51798 0
M  V30 5731 C 545.75 2.1603 4.74321 0
M  V30 5732 C 543.078 2.87119 5.11644 0
M  V30 5733 C 545.43 3.36766 5.3551 0
M  V30 5734 C 544.094 3.72689 5.53768 0
M  V30 5735 H 543.364 0.0343535 0.740203 0
M  V30 5736 H 546.011 0.781522 1.74827 0
M  V30 5737 H 544.316 -0.773096 3.84097 0
M  V30 5738 H 546.013 -0.410794 3.9889 0
M  V30 5739 H 542.603 1.01204 4.1648 0
M  V30 5740 H 546.787 1.89778 4.58582 0
M  V30 5741 H 542.043 3.15065 5.2397 0
M  V30 5742 H 546.217 4.03713 5.67441 0
M  V30 5743 H 543.844 4.66918 5.99909 0
M  V30 5744 N 545.419 -1.53889 0.339982 0
M  V30 5745 C 546.382 -2.23547 -0.50592 0
M  V30 5746 C 547.382 -1.23445 -1.03044 0
M  V30 5747 O 548.572 -1.47909 -0.920253 0
M  V30 5748 C 545.704 -2.95234 -1.7044 0
M  V30 5749 H 546.897 -2.99722 0.103247 0
M  V30 5750 H 544.45 -1.56033 0.0912804 0
M  V30 5751 H 545.185 -2.23236 -2.35236 0
M  V30 5752 H 544.97 -3.68654 -1.33553 0
M  V30 5753 H 546.46 -3.48258 -2.30447 0
M  V30 5754 N 546.897 -0.0685191 -1.57451 0
M  V30 5755 C 547.829 0.929372 -2.09512 0
M  V30 5756 C 548.842 1.26354 -1.02657 0
M  V30 5757 O 550.031 1.2213 -1.30179 0
M  V30 5758 C 547.131 2.24612 -2.53777 0
M  V30 5759 C 546.304 2.09128 -3.84167 0
M  V30 5760 C 545.363 3.24079 -4.14559 0
M  V30 5761 O 544.389 2.99215 -4.8421 0
M  V30 5762 N 545.591 4.49077 -3.67845 0
M  V30 5763 H 548.356 0.484901 -2.95751 0
M  V30 5764 H 545.917 0.11729 -1.61475 0
M  V30 5765 H 547.909 3.00412 -2.71172 0
M  V30 5766 H 546.479 2.60569 -1.72692 0
M  V30 5767 H 545.699 1.17815 -3.76182 0
M  V30 5768 H 546.987 1.9603 -4.69521 0
M  V30 5769 H 546.385 4.72165 -3.11571 0
M  V30 5770 H 544.942 5.21915 -3.90446 0
M  V30 5771 N 548.375 1.56261 0.205012 0
M  V30 5772 C 549.305 1.96779 1.257 0
M  V30 5773 C 550.286 0.838309 1.48008 0
M  V30 5774 O 551.471 1.10189 1.59913 0
M  V30 5775 C 548.601 2.29876 2.60335 0
M  V30 5776 C 547.555 3.45469 2.52656 0
M  V30 5777 C 546.881 3.64215 3.91473 0
M  V30 5778 C 548.181 4.79954 2.06014 0
M  V30 5779 H 549.875 2.84904 0.920338 0
M  V30 5780 H 547.421 1.37072 0.441277 0
M  V30 5781 H 549.374 2.56814 3.34102 0
M  V30 5782 H 548.098 1.38622 2.95722 0
M  V30 5783 H 546.757 3.18605 1.81345 0
M  V30 5784 H 546.405 2.70309 4.24196 0
M  V30 5785 H 546.105 4.41973 3.87213 0
M  V30 5786 H 547.629 3.93519 4.66878 0
M  V30 5787 H 549.043 5.05989 2.69533 0
M  V30 5788 H 547.44 5.61111 2.12777 0
M  V30 5789 H 548.51 4.74201 1.01297 0
M  V30 5790 N 549.853 -0.472356 1.50355 0
M  V30 5791 C 550.783 -1.57859 1.72055 0
M  V30 5792 C 551.764 -1.60283 0.569505 0
M  V30 5793 O 552.949 -1.7657 0.808503 0
M  V30 5794 C 550.079 -2.96191 1.81351 0
M  V30 5795 C 549.033 -3.08633 2.96529 0
M  V30 5796 C 548.359 -4.486 2.90968 0
M  V30 5797 C 549.659 -2.85969 4.37057 0
M  V30 5798 H 551.353 -1.39953 2.64676 0
M  V30 5799 H 548.899 -0.671846 1.27367 0
M  V30 5800 H 550.852 -3.73507 1.95117 0
M  V30 5801 H 549.576 -3.15251 0.853502 0
M  V30 5802 H 548.235 -2.33749 2.82413 0
M  V30 5803 H 547.883 -4.64577 1.92815 0
M  V30 5804 H 547.583 -4.57861 3.68289 0
M  V30 5805 H 549.107 -5.27938 3.0678 0
M  V30 5806 H 550.521 -3.53036 4.51706 0
M  V30 5807 H 548.918 -3.06677 5.15819 0
M  V30 5808 H 549.988 -1.81838 4.49514 0
M  V30 5809 N 551.331 -1.39911 -0.725443 0
M  V30 5810 C 552.579 -1.37382 -1.48224 0
M  V30 5811 C 552.9 0.0264107 -1.94982 0
M  V30 5812 O 552.17 0.979408 -1.6966 0
M  V30 5813 H 550.75 -0.505596 -0.549892 0
M  V30 5814 H 553.412 -1.7487 -0.860608 0
M  V30 5815 H 552.508 -2.04254 -2.3598 0
M  V30 5816 N 552.809 0.956637 -1.25245 0
M  V30 5817 C 554.049 1.71585 -1.11076 0
M  V30 5818 C 554.413 1.88916 0.34277 0
M  V30 5819 O 555.614 2.61875 0.606227 0
M  V30 5820 C 553.885 3.06267 -1.84215 0
M  V30 5821 S 555.444 3.97469 -1.85914 0
M  V30 5822 H 552.262 0.589803 -0.397055 0
M  V30 5823 H 554.864 1.14114 -1.58739 0
M  V30 5824 H 553.568 2.91322 -2.89067 0
M  V30 5825 H 553.099 3.688 -1.36931 0
M  V30 5826 H 555.114 4.87316 -0.93474 0
M  V30 5827 N 554.287 1.06798 1.15896 0
M  V30 5828 C 555.512 0.808739 1.90982 0
M  V30 5829 C 555.937 -0.6316 1.77179 0
M  V30 5830 O 555.295 -1.4407 1.10061 0
M  V30 5831 C 555.343 1.21468 3.39526 0
M  V30 5832 O 554.447 0.356562 4.10856 0
M  V30 5833 H 553.788 0.29512 0.594811 0
M  V30 5834 H 556.318 1.42513 1.46804 0
M  V30 5835 H 556.328 1.18844 3.90308 0
M  V30 5836 H 555.003 2.26379 3.48891 0
M  V30 5837 H 553.58 0.444808 3.70238 0
M  V30 5838 N 555.766 -1.3263 0.851289 0
M  V30 5839 C 556.716 -2.26451 0.265302 0
M  V30 5840 C 557.7 -1.49814 -0.586899 0
M  V30 5841 O 558.892 -1.71525 -0.436834 0
M  V30 5842 C 556.021 -3.38895 -0.548212 0
M  V30 5843 C 555.107 -4.2292 0.316189 0
M  V30 5844 N 555.498 -4.86014 1.40084 0
M  V30 5845 C 553.796 -4.45876 0.105356 0
M  V30 5846 C 554.497 -5.48667 1.93235 0
M  V30 5847 N 553.473 -5.29455 1.232 0
M  V30 5848 H 557.275 -2.72757 1.09457 0
M  V30 5849 H 554.789 -1.4668 0.697047 0
M  V30 5850 H 556.786 -4.05111 -0.984402 0
M  V30 5851 H 555.446 -2.94135 -1.37531 0
M  V30 5852 H 556.457 -4.86212 1.78377 0
M  V30 5853 H 553.134 -4.11804 -0.687299 0
M  V30 5854 H 554.524 -6.08865 2.84135 0
M  V30 5855 N 557.244 -0.608902 -1.45362 0
M  V30 5856 C 558.491 -0.104607 -2.0223 0
M  V30 5857 C 558.819 1.26534 -1.47714 0
M  V30 5858 O 558.074 1.84855 -0.642435 0
M  V30 5859 C 558.373 -0.0167296 -3.57396 0
M  V30 5860 C 558.039 -1.32251 -4.31069 0
M  V30 5861 C 556.701 -1.68019 -4.50914 0
M  V30 5862 C 559.053 -2.18542 -4.73169 0
M  V30 5863 C 556.381 -2.89828 -5.10114 0
M  V30 5864 C 558.733 -3.39602 -5.33717 0
M  V30 5865 C 557.397 -3.7562 -5.51784 0
M  V30 5866 H 556.667 -0.0382785 -0.740011 0
M  V30 5867 H 559.314 -0.790782 -1.7441 0
M  V30 5868 H 557.619 0.752715 -3.84502 0
M  V30 5869 H 559.316 0.389634 -3.99103 0
M  V30 5870 H 555.906 -1.03411 -4.15938 0
M  V30 5871 H 560.09 -1.92208 -4.5757 0
M  V30 5872 H 555.346 -3.17839 -5.22291 0
M  V30 5873 H 559.52 -4.06716 -5.65292 0
M  V30 5874 H 557.147 -4.70093 -5.97425 0
M  V30 5875 N 558.722 1.53707 -0.348139 0
M  V30 5876 C 559.962 2.02899 0.247254 0
M  V30 5877 C 560.326 1.23033 1.47401 0
M  V30 5878 O 561.527 1.62146 2.14388 0
M  V30 5879 C 559.798 3.53156 0.549151 0
M  V30 5880 S 561.357 4.24247 1.1207 0
M  V30 5881 H 558.175 0.707213 0.0732894 0
M  V30 5882 H 560.777 1.89338 -0.486965 0
M  V30 5883 H 559.481 4.08893 -0.351435 0
M  V30 5884 H 559.012 3.70845 1.31291 0
M  V30 5885 H 561.027 4.33958 2.40613 0
M  V30 5886 N 560.2 0.0768682 1.57412 0
M  V30 5887 C 561.425 -0.603404 1.98428 0
M  V30 5888 C 561.85 -1.62047 0.955108 0
M  V30 5889 O 561.208 -1.81129 -0.0786778 0
M  V30 5890 C 561.256 -1.24396 3.38464 0
M  V30 5891 O 560.36 -2.35982 3.3821 0
M  V30 5892 H 559.701 -0.154741 0.645718 0
M  V30 5893 H 562.231 0.152885 2.04028 0
M  V30 5894 H 562.241 -1.5896 3.7576 0
M  V30 5895 H 560.916 -0.498735 4.12899 0
M  V30 5896 H 559.493 -2.03173 3.1269 0
M  V30 5897 N 561.678 -1.56367 -0.196722 0
M  V30 5898 C 563.094 -1.49916 -0.54749 0
M  V30 5899 C 563.294 -0.77659 -1.85934 0
M  V30 5900 O 562.35 -0.32644 -2.50381 0
M  V30 5901 C 563.663 -2.94577 -0.603734 0
M  V30 5902 C 565.211 -3.05239 -0.692677 0
M  V30 5903 C 565.686 -4.51308 -0.780046 0
M  V30 5904 N 567.177 -4.55453 -0.843616 0
M  V30 5905 C 567.912 -5.65786 -0.931358 0
M  V30 5906 N 567.408 -6.85812 -0.981503 0
M  V30 5907 N 569.201 -5.53695 -0.968421 0
M  V30 5908 H 561.352 -2.01761 0.663803 0
M  V30 5909 H 563.615 -0.918094 0.236238 0
M  V30 5910 H 563.321 -3.50494 0.29105 0
M  V30 5911 H 563.195 -3.47841 -1.45898 0
M  V30 5912 H 565.582 -2.49372 -1.57789 0
M  V30 5913 H 565.663 -2.55103 0.188736 0
M  V30 5914 H 565.307 -5.078 0.100811 0
M  V30 5915 H 565.237 -4.99176 -1.67724 0
M  V30 5916 H 567.728 -3.69025 -0.814176 0
M  V30 5917 H 568.041 -7.65648 -1.04892 0
M  V30 5918 H 566.386 -6.88474 -0.950208 0
M  V30 5919 H 569.577 -4.58848 -0.926072 0
M  V30 5920 H 569.75 -6.39708 -1.03334 0
M  V30 5921 N 563.156 0.464375 -1.50603 0
M  V30 5922 C 564.384 1.23907 -1.65695 0
M  V30 5923 C 564.799 1.85658 -0.343027 0
M  V30 5924 O 564.156 1.69529 0.675739 0
M  V30 5925 C 564.207 2.3429 -2.75301 0
M  V30 5926 O 563.928 1.7507 -4.01599 0
M  V30 5927 C 565.429 3.25051 -3.01424 0
M  V30 5928 H 562.649 0.374485 -0.556778 0
M  V30 5929 H 565.193 0.55353 -1.96866 0
M  V30 5930 H 563.348 2.98607 -2.46804 0
M  V30 5931 H 563.762 2.47812 -4.62266 0
M  V30 5932 H 565.236 3.98699 -3.81763 0
M  V30 5933 H 565.713 3.84227 -2.12758 0
M  V30 5934 H 566.319 2.66463 -3.31477 0
M  V30 5935 N 564.634 1.40294 0.718013 0
M  V30 5936 C 566.045 1.34289 1.29705 0
M  V30 5937 C 566.396 0.0152228 1.96194 0
M  V30 5938 O 565.521 -0.88682 1.97394 0
M  V30 5939 C 566.116 2.43219 2.3586 0
M  V30 5940 C 564.675 2.40682 2.89394 0
M  V30 5941 C 563.822 2.24223 1.63154 0
M  V30 5942 H 566.773 1.50135 0.514312 0
M  V30 5943 H 566.794 2.10986 3.16647 0
M  V30 5944 H 566.306 3.39836 1.87439 0
M  V30 5945 H 564.407 1.47756 3.42051 0
M  V30 5946 H 564.52 3.36177 3.41353 0
M  V30 5947 H 562.884 1.71696 1.88129 0
M  V30 5948 H 563.667 3.22834 1.16761 0
M  V30 5949 N 566.112 -0.949982 1.2575 0
M  V30 5950 C 567.358 -1.69766 1.10938 0
M  V30 5951 C 567.691 -1.91056 -0.348028 0
M  V30 5952 O 566.966 -1.48488 -1.25625 0
M  V30 5953 C 567.249 -3.07779 1.86933 0
M  V30 5954 C 567.102 -2.9387 3.4053 0
M  V30 5955 C 568.421 -4.07749 1.65616 0
M  V30 5956 H 565.54 -0.616144 0.404396 0
M  V30 5957 H 568.182 -1.10394 1.54639 0
M  V30 5958 H 566.332 -3.58462 1.4979 0
M  V30 5959 H 568.004 -2.50476 3.87375 0
M  V30 5960 H 566.247 -2.29686 3.68004 0
M  V30 5961 H 566.918 -3.91719 3.88922 0
M  V30 5962 H 569.394 -3.65994 1.97959 0
M  V30 5963 H 568.27 -5.02348 2.21218 0
M  V30 5964 H 568.531 -4.38029 0.598595 0
M  V30 5965 N 567.59 -1.07411 -1.15328 0
M  V30 5966 C 568.5 -0.706438 -2.23711 0
M  V30 5967 C 569.516 0.282586 -1.7169 0
M  V30 5968 O 570.692 0.129066 -2.00986 0
M  V30 5969 C 567.757 -0.11048 -3.46524 0
M  V30 5970 C 566.818 -1.15282 -4.13532 0
M  V30 5971 C 566.051 -0.585205 -5.30482 0
M  V30 5972 O 566.274 0.598549 -5.67251 0
M  V30 5973 O 565.208 -1.33039 -5.87013 0
M  V30 5974 H 569.034 -1.61031 -2.57493 0
M  V30 5975 H 566.619 -0.847113 -1.23062 0
M  V30 5976 H 568.501 0.21957 -4.20828 0
M  V30 5977 H 567.176 0.766703 -3.14489 0
M  V30 5978 H 566.083 -1.53523 -3.41147 0
M  V30 5979 H 567.416 -2.00192 -4.49649 0
M  V30 5980 N 569.068 1.32177 -0.85831 0
M  V30 5981 C 570.296 2.01313 -0.477582 0
M  V30 5982 C 570.711 1.6449 0.926736 0
M  V30 5983 O 570.068 0.868096 1.60531 0
M  V30 5984 C 570.119 3.56293 -0.611337 0
M  V30 5985 O 569.84 3.91794 -1.96034 0
M  V30 5986 C 571.341 4.42702 -0.230093 0
M  V30 5987 H 568.561 0.644323 -0.187322 0
M  V30 5988 H 571.105 1.68674 -1.15626 0
M  V30 5989 H 569.26 3.87395 0.0196494 0
M  V30 5990 H 569.674 4.86513 -1.95973 0
M  V30 5991 H 571.148 5.50727 -0.374674 0
M  V30 5992 H 571.625 4.3129 0.829779 0
M  V30 5993 H 572.231 4.16997 -0.836302 0
M  V30 5994 N 570.547 0.616602 1.45037 0
M  V30 5995 C 571.793 0.115501 2.02471 0
M  V30 5996 C 572.126 -1.25406 1.4828 0
M  V30 5997 O 571.401 -1.82922 0.661051 0
M  V30 5998 C 571.684 0.0863588 3.59996 0
M  V30 5999 C 571.537 1.48723 4.24501 0
M  V30 6000 C 572.856 -0.596762 4.36035 0
M  V30 6001 H 569.975 0.0434461 0.735718 0
M  V30 6002 H 572.617 0.7903 1.72784 0
M  V30 6003 H 570.767 -0.488277 3.85419 0
M  V30 6004 H 572.439 2.10964 4.10234 0
M  V30 6005 H 570.682 2.04534 3.82555 0
M  V30 6006 H 571.353 1.419 5.3345 0
M  V30 6007 H 573.829 -0.10824 4.15959 0
M  V30 6008 H 572.705 -0.586289 5.4576 0
M  V30 6009 H 572.966 -1.66451 4.09569 0
M  V30 6010 N 572.025 -1.5352 0.356285 0
M  V30 6011 C 572.973 -2.26945 -0.50978 0
M  V30 6012 C 573.967 -1.29569 -1.09125 0
M  V30 6013 O 575.173 -1.47231 -1.03552 0
M  V30 6014 H 571.548 -0.729368 -0.183102 0
M  V30 6015 H 573.519 -2.98111 0.131374 0
M  V30 6016 C 572.268 -3.06466 -1.64237 0
M  V30 6017 H 571.591 -3.81233 -1.20423 0
M  V30 6018 H 573.031 -3.61035 -2.22327 0
M  V30 6019 C 571.49 -2.16737 -2.57928 0
M  V30 6020 O 572.02 -1.77195 -3.60507 0
M  V30 6021 N 570.226 -1.81558 -2.26903 0
M  V30 6022 H 569.773 -2.13913 -1.43524 0
M  V30 6023 H 569.731 -1.21806 -2.89846 0
M  V30 6024 N 573.503 -0.0852151 -1.57369 0
M  V30 6025 C 574.752 0.580443 -1.93168 0
M  V30 6026 C 575.065 1.6995 -0.968319 0
M  V30 6027 O 576.271 2.42564 -1.21963 0
M  V30 6028 C 574.727 1.08386 -3.43192 0
M  V30 6029 C 574.335 -0.00491388 -4.48 0
M  V30 6030 C 576.079 1.72281 -3.87968 0
M  V30 6031 C 573.986 0.513299 -5.89168 0
M  V30 6032 H 572.916 0.22059 -0.72101 0
M  V30 6033 H 575.567 -0.159621 -1.82804 0
M  V30 6034 H 573.949 1.8773 -3.48674 0
M  V30 6035 H 575.123 -0.780032 -4.5415 0
M  V30 6036 H 573.438 -0.548453 -4.12772 0
M  V30 6037 H 576.035 2.12108 -4.9083 0
M  V30 6038 H 576.378 2.58811 -3.26071 0
M  V30 6039 H 576.911 0.995359 -3.85146 0
M  V30 6040 H 573.65 -0.315153 -6.54742 0
M  V30 6041 H 573.17 1.25564 -5.8651 0
M  V30 6042 H 574.849 0.985433 -6.39451 0
M  V30 6043 N 574.981 1.5647 0.188427 0
M  V30 6044 C 576.206 1.85486 0.927891 0
M  V30 6045 C 576.631 0.669575 1.75779 0
M  V30 6046 O 575.989 -0.381573 1.77239 0
M  V30 6047 C 576.037 3.12784 1.7944 0
M  V30 6048 O 575.141 2.93805 2.894 0
M  V30 6049 H 574.482 0.610585 0.260925 0
M  V30 6050 H 577.012 2.037 0.191729 0
M  V30 6051 H 577.022 3.43749 2.19774 0
M  V30 6052 H 575.697 3.98671 1.18468 0
M  V30 6053 H 574.274 2.74153 2.52774 0
M  V30 6054 N 576.459 -0.456382 1.50847 0
M  V30 6055 C 577.407 -1.57318 1.71329 0
M  V30 6056 C 578.401 -1.59187 0.579287 0
M  V30 6057 O 579.607 -1.6316 0.76018 0
M  V30 6058 H 575.982 -0.5223 0.541024 0
M  V30 6059 H 577.953 -1.3721 2.64983 0
M  V30 6060 C 576.702 -2.95142 1.83811 0
M  V30 6061 H 576.025 -2.94428 2.70467 0
M  V30 6062 H 577.465 -3.72702 2.02161 0
M  V30 6063 C 575.924 -3.31636 0.593224 0
M  V30 6064 O 576.454 -4.00852 -0.260898 0
M  V30 6065 N 574.66 -2.87205 0.442902 0
M  V30 6066 H 574.207 -2.31051 1.13901 0
M  V30 6067 H 574.165 -3.11986 -0.38884 0
M  V30 6068 N 577.937 -1.40673 -0.710563 0
M  V30 6069 C 578.847 -1.43663 -1.85467 0
M  V30 6070 C 579.863 -0.328721 -1.70867 0
M  V30 6071 O 581.039 -0.574098 -1.93044 0
M  V30 6072 C 578.104 -1.30226 -3.21313 0
M  V30 6073 C 577.165 -2.51204 -3.48131 0
M  V30 6074 C 576.398 -2.38398 -4.77495 0
M  V30 6075 O 576.621 -1.40048 -5.5294 0
M  V30 6076 O 575.555 -3.2787 -5.04762 0
M  V30 6077 H 579.381 -2.40156 -1.859 0
M  V30 6078 H 576.966 -1.22049 -0.861652 0
M  V30 6079 H 578.848 -1.2496 -4.02446 0
M  V30 6080 H 577.523 -0.368419 -3.21597 0
M  V30 6081 H 576.43 -2.62048 -2.66987 0
M  V30 6082 H 577.763 -3.43366 -3.52648 0
M  V30 6083 N 579.415 0.9433 -1.26252 0
M  V30 6084 C 580.345 2.05902 -1.10122 0
M  V30 6085 C 581.326 1.70099 -0.00700552 0
M  V30 6086 O 582.511 1.93377 -0.178641 0
M  V30 6087 C 579.641 3.39516 -0.731175 0
M  V30 6088 C 578.595 3.89372 -1.77688 0
M  V30 6089 C 577.921 5.19613 -1.26122 0
M  V30 6090 C 579.221 4.14489 -3.17799 0
M  V30 6091 H 580.915 2.19655 -2.03451 0
M  V30 6092 H 578.461 1.05548 -0.979576 0
M  V30 6093 H 580.414 4.17031 -0.605215 0
M  V30 6094 H 579.138 3.25733 0.23782 0
M  V30 6095 H 577.797 3.14036 -1.89148 0
M  V30 6096 H 577.445 5.02208 -0.282128 0
M  V30 6097 H 577.145 5.53939 -1.96023 0
M  V30 6098 H 578.669 5.99713 -1.14789 0
M  V30 6099 H 580.083 4.82625 -3.09428 0
M  V30 6100 H 578.48 4.60094 -3.85271 0
M  V30 6101 H 579.55 3.20347 -3.64014 0
M  V30 6102 N 580.893 1.08022 1.14757 0
M  V30 6103 C 582.142 0.802468 1.8505 0
M  V30 6104 C 582.455 -0.674061 1.83619 0
M  V30 6105 O 583.661 -1.06683 2.49662 0
M  V30 6106 C 582.117 1.38551 3.32162 0
M  V30 6107 C 581.725 2.89354 3.42021 0
M  V30 6108 C 583.469 1.18608 4.07594 0
M  V30 6109 C 581.376 3.40815 4.83321 0
M  V30 6110 H 580.306 0.296518 0.693248 0
M  V30 6111 H 582.957 1.30114 1.29393 0
M  V30 6112 H 581.339 0.814556 3.87532 0
M  V30 6113 H 582.513 3.52552 2.96722 0
M  V30 6114 H 580.828 3.08165 2.80041 0
M  V30 6115 H 583.425 1.54525 5.11885 0
M  V30 6116 H 583.768 0.125599 4.1611 0
M  V30 6117 H 584.301 1.72375 3.58513 0
M  V30 6118 H 581.04 4.46418 4.79991 0
M  V30 6119 H 580.56 2.82374 5.29174 0
M  V30 6120 H 582.239 3.37171 5.522 0
M  V30 6121 N 582.371 -1.3172 0.865308 0
M  V30 6122 C 583.596 -2.01591 0.487415 0
M  V30 6123 C 584.021 -1.6455 -0.911307 0
M  V30 6124 O 583.379 -0.851689 -1.6005 0
M  V30 6125 C 583.427 -3.54759 0.646401 0
M  V30 6126 O 582.531 -4.11185 -0.316284 0
M  V30 6127 H 581.872 -0.634884 0.194468 0
M  V30 6128 H 584.402 -1.68024 1.16744 0
M  V30 6129 H 584.412 -4.04438 0.537932 0
M  V30 6130 H 583.087 -3.8106 1.66632 0
M  V30 6131 H 581.664 -3.72543 -0.163162 0
M  V30 6132 N 583.85 -0.624285 -1.44708 0
M  V30 6133 C 585.08 -0.132726 -2.06173 0
M  V30 6134 C 585.488 1.19513 -1.46674 0
M  V30 6135 O 584.831 1.74254 -0.581491 0
M  V30 6136 C 584.893 0.0636732 -3.59444 0
M  V30 6137 C 584.557 -1.18496 -4.4137 0
M  V30 6138 C 585.553 -2.10706 -4.75288 0
M  V30 6139 C 583.239 -1.41846 -4.81856 0
M  V30 6140 C 585.233 -3.24582 -5.48567 0
M  V30 6141 C 582.92 -2.5602 -5.54885 0
M  V30 6142 C 583.918 -3.47215 -5.88159 0
M  V30 6143 O 583.606 -4.59399 -6.59703 0
M  V30 6144 H 583.338 -0.0737313 -0.671967 0
M  V30 6145 H 585.892 -0.856789 -1.86677 0
M  V30 6146 H 584.122 0.842809 -3.77404 0
M  V30 6147 H 585.811 0.508924 -4.02697 0
M  V30 6148 H 586.577 -1.93898 -4.44554 0
M  V30 6149 H 582.456 -0.717556 -4.55381 0
M  V30 6150 H 586 -3.95785 -5.74456 0
M  V30 6151 H 581.897 -2.72774 -5.85034 0
M  V30 6152 H 582.665 -4.58293 -6.78166 0
M  V30 6153 N 585.328 1.53329 -0.364422 0
M  V30 6154 C 586.276 2.27212 0.497737 0
M  V30 6155 C 587.27 1.30146 1.08437 0
M  V30 6156 O 588.476 1.47778 1.0277 0
M  V30 6157 H 584.851 0.730329 0.179232 0
M  V30 6158 H 586.822 2.98037 -0.147182 0
M  V30 6159 C 585.571 3.07333 1.6261 0
M  V30 6160 H 584.894 3.81866 1.184 0
M  V30 6161 H 586.334 3.62209 2.20409 0
M  V30 6162 C 584.793 2.18102 2.56775 0
M  V30 6163 O 585.323 1.79104 3.59562 0
M  V30 6164 N 583.529 1.82759 2.25937 0
M  V30 6165 H 583.076 2.14671 1.42387 0
M  V30 6166 H 583.034 1.23342 2.89196 0
M  V30 6167 N 586.806 0.0935595 1.57322 0
M  V30 6168 C 587.738 -0.895923 2.10964 0
M  V30 6169 C 588.751 -1.24705 1.04654 0
M  V30 6170 O 589.94 -1.20044 1.32105 0
M  V30 6171 C 587.04 -2.20546 2.57318 0
M  V30 6172 C 586.213 -2.0299 3.87445 0
M  V30 6173 C 585.272 -3.17443 4.19662 0
M  V30 6174 O 584.298 -2.91474 4.88909 0
M  V30 6175 N 585.5 -4.43168 3.74943 0
M  V30 6176 H 588.265 -0.437788 2.96485 0
M  V30 6177 H 585.826 -0.0915863 1.61641 0
M  V30 6178 H 587.818 -2.9606 2.75917 0
M  V30 6179 H 586.388 -2.57789 1.76816 0
M  V30 6180 H 585.608 -1.11815 3.78009 0
M  V30 6181 H 586.896 -1.88535 4.7258 0
M  V30 6182 H 586.294 -4.67149 3.19043 0
M  V30 6183 H 584.851 -5.15637 3.987 0
M  V30 6184 N 588.284 -1.56567 -0.180126 0
M  V30 6185 C 589.561 -1.7235 -0.924931 0
M  V30 6186 C 589.941 -0.652523 -2.00762 0
M  V30 6187 O 589.289 0.334115 -2.26044 0
M  V30 6188 C 589.499 -3.1523 -1.49771 0
M  V30 6189 C 590.847 -3.75921 -1.97405 0
M  V30 6190 O 591.871 -3.18452 -1.59583 0
M  V30 6191 O 590.73 -4.7681 -2.67048 0
M  V30 6192 H 587.824 -0.703502 -0.434758 0
M  V30 6193 H 590.37 -1.6886 -0.168647 0
M  V30 6194 H 589.142 -3.84656 -0.718027 0
M  V30 6195 H 588.765 -3.23009 -2.31842 0
M  V30 6196 N 589.762 0.448376 -1.51087 0
M  V30 6197 C 591.011 1.19561 -1.62444 0
M  V30 6198 C 591.324 1.92602 -0.341151 0
M  V30 6199 O 592.53 2.69439 -0.333936 0
M  V30 6200 C 590.986 2.17373 -2.8684 0
M  V30 6201 C 590.594 1.5003 -4.22131 0
M  V30 6202 C 592.338 2.92597 -3.0755 0
M  V30 6203 C 590.245 2.46262 -5.37689 0
M  V30 6204 H 589.175 0.449975 -0.605011 0
M  V30 6205 H 591.826 0.463735 -1.77544 0
M  V30 6206 H 590.208 2.93948 -2.65349 0
M  V30 6207 H 591.382 0.790886 -4.53962 0
M  V30 6208 H 589.697 0.870011 -4.0721 0
M  V30 6209 H 592.294 3.64663 -3.91056 0
M  V30 6210 H 592.637 3.53306 -2.20183 0
M  V30 6211 H 593.17 2.23131 -3.29329 0
M  V30 6212 H 589.909 1.90258 -6.27281 0
M  V30 6213 H 589.429 3.15289 -5.10248 0
M  V30 6214 H 591.108 3.07623 -5.6919 0
M  V30 6215 N 591.24 1.41047 0.703093 0
M  V30 6216 C 592.486 1.40207 1.46526 0
M  V30 6217 C 592.819 0.00847763 1.94198 0
M  V30 6218 O 592.094 -0.962437 1.69019 0
M  V30 6219 C 592.377 2.40238 2.6825 0
M  V30 6220 C 592.23 3.88674 2.26391 0
M  V30 6221 C 593.549 2.37627 3.70434 0
M  V30 6222 H 590.668 0.510594 0.531472 0
M  V30 6223 H 593.31 1.72271 0.801422 0
M  V30 6224 H 591.46 2.13026 3.24888 0
M  V30 6225 H 593.132 4.2676 1.75138 0
M  V30 6226 H 591.375 4.03903 1.58255 0
M  V30 6227 H 592.046 4.542 3.13698 0
M  V30 6228 H 594.522 2.61759 3.23452 0
M  V30 6229 H 593.398 3.09645 4.53223 0
M  V30 6230 H 593.659 1.39223 4.19606 0
M  V30 6231 N 592.718 -0.936591 1.26751 0
M  V30 6232 C 593.965 -1.68331 1.12566 0
M  V30 6233 C 594.293 -1.91677 -0.330168 0
M  V30 6234 O 593.548 -1.49859 -1.2586 0
M  V30 6235 C 593.847 -3.06099 1.84494 0
M  V30 6236 C 593.513 -3.02493 3.34378 0
M  V30 6237 C 592.175 -3.01217 3.75262 0
M  V30 6238 C 594.527 -2.94453 4.30055 0
M  V30 6239 C 591.855 -2.89672 5.10203 0
M  V30 6240 C 594.207 -2.84449 5.65041 0
M  V30 6241 C 592.871 -2.81518 6.0523 0
M  V30 6242 H 592.141 -0.615965 0.411907 0
M  V30 6243 H 594.788 -1.09292 1.5725 0
M  V30 6244 H 593.093 -3.6879 1.32292 0
M  V30 6245 H 594.79 -3.62733 1.70955 0
M  V30 6246 H 591.38 -3.04269 3.01858 0
M  V30 6247 H 595.564 -2.94544 3.99447 0
M  V30 6248 H 590.82 -2.85783 5.40498 0
M  V30 6249 H 594.994 -2.77192 6.38856 0
M  V30 6250 H 592.621 -2.72329 7.09747 0
M  V30 6251 N 594.196 -1.08629 -1.14182 0
M  V30 6252 C 595.146 -0.687882 -2.17376 0
M  V30 6253 C 596.13 0.293632 -1.58198 0
M  V30 6254 O 597.322 0.105292 -1.76687 0
M  V30 6255 C 594.451 -0.101184 -3.43151 0
M  V30 6256 C 593.537 -1.10862 -4.09354 0
M  V30 6257 N 593.928 -2.29285 -4.50846 0
M  V30 6258 C 592.226 -0.944897 -4.35876 0
M  V30 6259 C 592.927 -2.93305 -5.02342 0
M  V30 6260 N 591.903 -2.20903 -4.96692 0
M  V30 6261 H 595.705 -1.58963 -2.472 0
M  V30 6262 H 593.219 -0.961329 -1.3089 0
M  V30 6263 H 595.216 0.202209 -4.16409 0
M  V30 6264 H 593.876 0.795522 -3.14804 0
M  V30 6265 H 594.887 -2.66927 -4.43813 0
M  V30 6266 H 591.564 -0.102186 -4.17375 0
M  V30 6267 H 592.954 -3.93932 -5.44304 0
M  V30 6268 N 595.674 1.31259 -0.872281 0
M  V30 6269 C 596.621 2.28459 -0.327857 0
M  V30 6270 C 597.591 1.55831 0.574957 0
M  V30 6271 O 598.776 1.83965 0.506101 0
M  V30 6272 C 595.916 3.41985 0.462644 0
M  V30 6273 C 595.029 4.29458 -0.467949 0
M  V30 6274 C 594.164 5.30131 0.336903 0
M  V30 6275 C 593.203 6.0925 -0.58997 0
M  V30 6276 N 592.34 7.01872 0.178775 0
M  V30 6277 H 597.18 2.74414 -1.16193 0
M  V30 6278 H 594.717 1.34994 -0.584376 0
M  V30 6279 H 596.675 4.06547 0.936759 0
M  V30 6280 H 595.305 2.97134 1.2614 0
M  V30 6281 H 594.357 3.65318 -1.06052 0
M  V30 6282 H 595.669 4.84677 -1.17856 0
M  V30 6283 H 594.823 6.0038 0.873427 0
M  V30 6284 H 593.562 4.75573 1.08079 0
M  V30 6285 H 592.567 5.37889 -1.13823 0
M  V30 6286 H 593.792 6.65894 -1.33275 0
M  V30 6287 H 591.738 6.49721 0.905435 0
M  V30 6288 H 591.655 7.54522 -0.472452 0
M  V30 6289 H 592.923 7.76382 0.696454 0
M  V30 6290 N 597.152 0.631951 1.44375 0
M  V30 6291 C 598.062 -0.073674 2.34484 0
M  V30 6292 C 599.078 -0.834825 1.52665 0
M  V30 6293 O 600.254 -0.786902 1.85391 0
M  V30 6294 C 597.319 -1.04247 3.30656 0
M  V30 6295 C 596.38 -0.280602 4.28382 0
M  V30 6296 C 595.613 -1.20325 5.19959 0
M  V30 6297 O 595.836 -2.44199 5.15484 0
M  V30 6298 O 594.77 -0.687128 5.97965 0
M  V30 6299 H 598.596 0.667477 2.96274 0
M  V30 6300 H 596.181 0.392144 1.44162 0
M  V30 6301 H 598.063 -1.59981 3.89851 0
M  V30 6302 H 596.738 -1.76422 2.71398 0
M  V30 6303 H 595.645 0.319804 3.72731 0
M  V30 6304 H 596.978 0.401144 4.90563 0
M  V30 6305 N 598.631 -1.53133 0.372548 0
M  V30 6306 C 599.88 -2.00539 -0.216115 0
M  V30 6307 C 600.193 -1.26374 -1.49295 0
M  V30 6308 O 601.399 -1.64404 -2.16064 0
M  V30 6309 C 599.855 -3.57253 -0.435678 0
M  V30 6310 C 599.463 -4.40302 0.82693 0
M  V30 6311 C 601.207 -4.12995 -0.981618 0
M  V30 6312 C 599.114 -5.88583 0.576567 0
M  V30 6313 H 598.044 -0.749246 -0.084536 0
M  V30 6314 H 600.695 -1.76771 0.492364 0
M  V30 6315 H 599.077 -3.77202 -1.20559 0
M  V30 6316 H 600.251 -4.32124 1.60017 0
M  V30 6317 H 598.566 -3.95699 1.29659 0
M  V30 6318 H 601.163 -5.21418 -1.18436 0
M  V30 6319 H 601.506 -3.68027 -1.94581 0
M  V30 6320 H 602.039 -3.96871 -0.271696 0
M  V30 6321 H 598.778 -6.37841 1.51128 0
M  V30 6322 H 598.298 -5.99592 -0.158047 0
M  V30 6323 H 599.977 -6.46676 0.204722 0
M  V30 6324 N 600.109 -0.101901 -1.5727 0
M  V30 6325 C 601.072 0.840129 -2.13247 0
M  V30 6326 C 602.072 1.20625 -1.06331 0
M  V30 6327 O 603.262 1.13456 -1.32186 0
M  V30 6328 C 600.394 2.13372 -2.65867 0
M  V30 6329 H 601.587 0.353945 -2.97804 0
M  V30 6330 H 599.14 0.147167 -1.55606 0
M  V30 6331 H 599.875 2.66461 -1.84849 0
M  V30 6332 H 599.66 1.88085 -3.44044 0
M  V30 6333 H 601.15 2.80748 -3.09145 0
M  V30 6334 N 601.587 1.56661 0.17182 0
M  V30 6335 C 602.55 1.9549 1.19651 0
M  V30 6336 C 603.55 0.838501 1.37207 0
M  V30 6337 O 604.74 1.10556 1.34622 0
M  V30 6338 C 601.872 2.24927 2.56166 0
M  V30 6339 H 603.065 2.87184 0.864007 0
M  V30 6340 H 600.618 1.50711 0.41425 0
M  V30 6341 H 601.353 1.35944 2.94431 0
M  V30 6342 H 601.138 3.06301 2.4479 0
M  V30 6343 H 602.628 2.55891 3.30014 0
M  V30 6344 N 603.065 -0.440357 1.51323 0
M  V30 6345 C 604.028 -1.51679 1.71832 0
M  V30 6346 C 605.028 -1.49648 0.588386 0
M  V30 6347 O 606.218 -1.51724 0.855891 0
M  V30 6348 C 603.35 -2.91228 1.77199 0
M  V30 6349 H 604.543 -1.34799 2.67898 0
M  V30 6350 H 602.096 -0.66883 1.41267 0
M  V30 6351 H 602.831 -3.13516 0.829363 0
M  V30 6352 H 602.616 -2.94107 2.59314 0
M  V30 6353 H 604.106 -3.69321 1.94915 0
M  V30 6354 N 604.543 -1.41418 -0.695603 0
M  V30 6355 C 605.773 -1.43921 -1.48224 0
M  V30 6356 C 606.181 -0.0428855 -1.89151 0
M  V30 6357 O 605.524 0.948138 -1.5734 0
M  V30 6358 C 605.586 -2.28466 -2.77567 0
M  V30 6359 C 605.25 -3.76629 -2.58844 0
M  V30 6360 C 606.247 -4.6879 -2.24793 0
M  V30 6361 C 603.932 -4.2067 -2.74485 0
M  V30 6362 C 605.926 -6.02981 -2.06622 0
M  V30 6363 C 603.613 -5.54926 -2.55931 0
M  V30 6364 C 604.611 -6.45897 -2.2205 0
M  V30 6365 O 604.299 -7.77675 -2.03657 0
M  V30 6366 H 604.031 -0.492252 -0.463318 0
M  V30 6367 H 606.585 -1.86347 -0.863952 0
M  V30 6368 H 604.815 -1.80853 -3.41802 0
M  V30 6369 H 606.504 -2.2267 -3.39371 0
M  V30 6370 H 607.27 -4.36055 -2.12323 0
M  V30 6371 H 603.149 -3.50167 -2.9984 0
M  V30 6372 H 606.693 -6.73951 -1.80099 0
M  V30 6373 H 602.59 -5.8724 -2.67991 0
M  V30 6374 H 603.358 -7.88819 -2.1842 0
M  V30 6375 N 606.021 0.929856 -1.27246 0
M  V30 6376 C 607.27 1.67182 -1.12842 0
M  V30 6377 C 607.583 1.9287 0.325666 0
M  V30 6378 O 608.789 2.64999 0.590572 0
M  V30 6379 C 607.245 3.01097 -1.97151 0
M  V30 6380 C 606.853 2.83115 -3.47203 0
M  V30 6381 C 608.597 3.78907 -1.91389 0
M  V30 6382 C 606.504 4.12573 -4.23719 0
M  V30 6383 H 605.434 0.627064 -0.418697 0
M  V30 6384 H 608.085 1.0332 -1.51649 0
M  V30 6385 H 606.467 3.66004 -1.51186 0
M  V30 6386 H 607.641 2.26989 -4.01015 0
M  V30 6387 H 605.956 2.18736 -3.54321 0
M  V30 6388 H 608.553 4.74837 -2.45834 0
M  V30 6389 H 608.896 4.0674 -0.887047 0
M  V30 6390 H 609.429 3.20794 -2.35237 0
M  V30 6391 H 606.168 3.8992 -5.26918 0
M  V30 6392 H 605.688 4.68371 -3.74685 0
M  V30 6393 H 607.367 4.8095 -4.32777 0
M  V30 6394 N 607.499 1.09233 1.13605 0
M  V30 6395 C 608.449 0.6994 2.17008 0
M  V30 6396 C 609.433 -0.285238 1.58352 0
M  V30 6397 O 610.625 -0.09592 1.7674 0
M  V30 6398 C 607.754 0.11938 3.43092 0
M  V30 6399 C 606.84 1.13031 4.0876 0
M  V30 6400 N 607.231 2.31673 4.49623 0
M  V30 6401 C 605.529 0.967999 4.35369 0
M  V30 6402 C 606.23 2.95964 5.00779 0
M  V30 6403 N 605.206 2.23534 4.95513 0
M  V30 6404 H 609.008 1.60272 2.46354 0
M  V30 6405 H 606.522 0.968257 1.30378 0
M  V30 6406 H 608.519 -0.180122 4.16511 0
M  V30 6407 H 607.179 -0.778816 3.15221 0
M  V30 6408 H 608.19 2.69277 4.42391 0
M  V30 6409 H 604.867 0.124319 4.17315 0
M  V30 6410 H 606.257 3.96813 5.42208 0
M  V30 6411 N 608.977 -1.30795 0.87923 0
M  V30 6412 C 609.91 -2.26396 0.286404 0
M  V30 6413 C 610.888 -1.51528 -0.589748 0
M  V30 6414 O 612.072 -1.80566 -0.541119 0
M  V30 6415 C 609.199 -3.33458 -0.593581 0
M  V30 6416 C 608.245 -4.2597 0.21247 0
M  V30 6417 S 609.078 -5.11132 1.59702 0
M  V30 6418 C 610.234 -6.21705 0.723408 0
M  V30 6419 H 610.467 -2.7633 1.09677 0
M  V30 6420 H 608 -1.38703 0.678305 0
M  V30 6421 H 609.958 -3.9561 -1.09557 0
M  V30 6422 H 608.619 -2.82259 -1.37799 0
M  V30 6423 H 607.812 -5.01907 -0.458822 0
M  V30 6424 H 607.414 -3.68363 0.646883 0
M  V30 6425 H 609.706 -6.77472 -0.0620739 0
M  V30 6426 H 610.649 -6.93007 1.4542 0
M  V30 6427 H 611.057 -5.63771 0.286855 0
M  V30 6428 N 610.455 -0.639598 -1.44038 0
M  V30 6429 C 611.388 0.109736 -2.27936 0
M  V30 6430 C 612.366 0.843095 -1.39035 0
M  V30 6431 O 613.55 0.845456 -1.68476 0
M  V30 6432 C 610.677 1.16173 -3.18153 0
M  V30 6433 C 609.723 0.527954 -4.2322 0
M  V30 6434 S 610.556 -0.688318 -5.31058 0
M  V30 6435 C 611.712 0.363481 -6.24844 0
M  V30 6436 H 611.945 -0.601986 -2.91142 0
M  V30 6437 H 609.478 -0.42802 -1.48349 0
M  V30 6438 H 611.436 1.76372 -3.7068 0
M  V30 6439 H 610.097 1.84569 -2.54151 0
M  V30 6440 H 609.29 1.32054 -4.86393 0
M  V30 6441 H 608.892 0.000396444 -3.74 0
M  V30 6442 H 611.184 1.23362 -6.66174 0
M  V30 6443 H 612.127 -0.23288 -7.07717 0
M  V30 6444 H 612.535 0.693179 -5.60228 0
M  V30 6445 N 611.933 1.52934 -0.380664 0
M  V30 6446 C 613.344 1.86457 0.0952684 0
M  V30 6447 C 613.695 1.3007 1.46889 0
M  V30 6448 O 612.82 0.628636 2.07068 0
M  V30 6449 C 613.415 3.38323 0.179648 0
M  V30 6450 C 611.974 3.71589 0.599858 0
M  V30 6451 C 611.121 2.76228 -0.243572 0
M  V30 6452 H 614.072 1.46966 -0.59888 0
M  V30 6453 H 614.093 3.67113 1.00042 0
M  V30 6454 H 613.605 3.79333 -0.820228 0
M  V30 6455 H 611.706 3.36144 1.60742 0
M  V30 6456 H 611.819 4.77715 0.364003 0
M  V30 6457 H 610.183 2.53045 0.289855 0
M  V30 6458 H 610.966 3.20074 -1.24127 0
M  V30 6459 N 613.412 0.11024 1.57214 0
M  V30 6460 C 614.36 -0.860586 2.16094 0
M  V30 6461 C 615.354 -1.28156 1.1078 0
M  V30 6462 O 616.56 -1.25433 1.29099 0
M  V30 6463 H 612.935 -0.295606 0.691463 0
M  V30 6464 H 614.906 -0.33942 2.96463 0
M  V30 6465 C 613.655 -2.10421 2.768 0
M  V30 6466 H 612.978 -1.7892 3.5753 0
M  V30 6467 H 614.418 -2.76375 3.21547 0
M  V30 6468 C 612.877 -2.88823 1.73444 0
M  V30 6469 O 613.407 -3.839 1.18251 0
M  V30 6470 N 611.613 -2.52649 1.43586 0
M  V30 6471 H 611.16 -1.754 1.8866 0
M  V30 6472 H 611.118 -3.05403 0.746735 0
M  V30 6473 N 614.89 -1.56749 -0.16351 0
M  V30 6474 C 615.853 -1.96121 -1.18613 0
M  V30 6475 C 616.853 -0.845765 -1.36761 0
M  V30 6476 O 618.043 -1.11268 -1.34033 0
M  V30 6477 C 615.175 -2.26282 -2.54969 0
M  V30 6478 H 616.368 -2.87639 -0.848764 0
M  V30 6479 H 613.921 -1.50928 -0.406251 0
M  V30 6480 H 614.656 -1.37504 -2.93706 0
M  V30 6481 H 614.441 -3.07595 -2.43162 0
M  V30 6482 H 615.931 -2.57638 -3.28653 0
M  V30 6483 N 616.368 0.432326 -1.51554 0
M  V30 6484 C 617.614 1.18309 -1.64714 0
M  V30 6485 C 617.947 1.90745 -0.364696 0
M  V30 6486 O 617.222 1.8381 0.635936 0
M  V30 6487 C 617.505 2.1961 -2.85383 0
M  V30 6488 C 617.358 1.51223 -4.23617 0
M  V30 6489 C 618.677 3.20538 -3.01569 0
M  V30 6490 H 615.796 0.428751 -0.599451 0
M  V30 6491 H 618.438 0.471689 -1.84052 0
M  V30 6492 H 616.588 2.8028 -2.69027 0
M  V30 6493 H 618.26 0.938516 -4.51652 0
M  V30 6494 H 616.503 0.814501 -4.26085 0
M  V30 6495 H 617.174 2.25024 -5.04052 0
M  V30 6496 H 619.65 2.69926 -3.16669 0
M  V30 6497 H 618.526 3.88706 -3.87555 0
M  V30 6498 H 618.787 3.86933 -2.13859 0
M  V30 6499 N 617.846 1.41785 0.688094 0
M  V30 6500 C 619.074 1.44915 1.47673 0
M  V30 6501 C 619.489 0.0565786 1.88715 0
M  V30 6502 O 618.846 -0.92579 1.57275 0
M  V30 6503 C 618.897 2.36452 2.73446 0
M  V30 6504 O 618.618 3.7029 2.34131 0
M  V30 6505 C 620.119 2.48463 3.67125 0
M  V30 6506 H 617.339 0.493324 0.454832 0
M  V30 6507 H 619.883 1.86153 0.846594 0
M  V30 6508 H 618.038 1.98502 3.3268 0
M  V30 6509 H 618.452 4.19183 3.15255 0
M  V30 6510 H 619.926 3.16662 4.52138 0
M  V30 6511 H 620.403 1.51826 4.12123 0
M  V30 6512 H 621.009 2.8708 3.13792 0
M  V30 6513 N 619.324 -0.923095 1.27737 0
M  V30 6514 C 620.735 -1.48626 1.12993 0
M  V30 6515 C 621.086 -1.94142 -0.283439 0
M  V30 6516 O 620.211 -1.81605 -1.17681 0
M  V30 6517 C 620.806 -2.70117 2.04505 0
M  V30 6518 C 619.365 -3.22642 1.93853 0
M  V30 6519 C 618.512 -1.95368 1.96791 0
M  V30 6520 H 621.463 -0.736737 1.40563 0
M  V30 6521 H 621.484 -3.4506 1.60356 0
M  V30 6522 H 620.996 -2.36959 3.07363 0
M  V30 6523 H 619.097 -3.60549 0.939968 0
M  V30 6524 H 619.21 -3.88525 2.80331 0
M  V30 6525 H 617.574 -2.12061 1.41076 0
M  V30 6526 H 618.357 -1.64517 3.01312 0
M  V30 6527 N 620.802 -1.09834 -1.13024 0
M  V30 6528 C 622.05 -0.835297 -1.8403 0
M  V30 6529 C 622.371 0.640944 -1.84165 0
M  V30 6530 O 621.641 1.46517 -1.30037 0
M  V30 6531 H 620.221 -0.306018 -0.681441 0
M  V30 6532 H 622.883 -1.38734 -1.36891 0
M  V30 6533 H 621.979 -1.19258 -2.88416 0
M  V30 6534 N 622.28 1.30327 -0.886154 0
M  V30 6535 C 623.228 2.30052 -0.343317 0
M  V30 6536 C 624.222 1.60212 0.550305 0
M  V30 6537 O 625.428 1.74674 0.434609 0
M  V30 6538 H 621.803 0.746306 -0.0923681 0
M  V30 6539 H 623.774 2.73294 -1.19804 0
M  V30 6540 C 622.523 3.45079 0.426107 0
M  V30 6541 H 621.846 3.99003 -0.25227 0
M  V30 6542 H 623.286 4.16931 0.771009 0
M  V30 6543 C 621.745 2.95195 1.62363 0
M  V30 6544 O 622.275 2.95323 2.723 0
M  V30 6545 N 620.481 2.51192 1.4612 0
M  V30 6546 H 620.028 2.51286 0.566832 0
M  V30 6547 H 619.986 2.18173 2.2638 0
M  V30 6548 N 623.758 0.647228 1.43697 0
M  V30 6549 C 625.174 0.314256 1.56476 0
M  V30 6550 C 625.374 -1.18191 1.63196 0
M  V30 6551 O 624.43 -1.96655 1.58376 0
M  V30 6552 C 625.743 1.02034 2.82859 0
M  V30 6553 C 627.291 1.00002 2.96595 0
M  V30 6554 C 627.766 1.68689 4.25803 0
M  V30 6555 N 629.257 1.65424 4.32654 0
M  V30 6556 C 629.992 2.1545 5.31384 0
M  V30 6557 N 629.488 2.73738 6.36427 0
M  V30 6558 N 631.281 2.05985 5.22998 0
M  V30 6559 H 623.432 1.61821 1.37578 0
M  V30 6560 H 625.695 0.680184 0.660344 0
M  V30 6561 H 625.401 2.07542 2.83935 0
M  V30 6562 H 625.275 0.568146 3.72897 0
M  V30 6563 H 627.662 -0.0466319 2.95063 0
M  V30 6564 H 627.743 1.49086 2.07863 0
M  V30 6565 H 627.387 2.73308 4.28095 0
M  V30 6566 H 627.317 1.17076 5.13421 0
M  V30 6567 H 629.808 1.22884 3.57363 0
M  V30 6568 H 630.121 3.09602 7.08072 0
M  V30 6569 H 628.466 2.77796 6.37067 0
M  V30 6570 H 631.657 1.60157 4.39849 0
M  V30 6571 H 631.83 2.45281 5.99784 0
M  V30 6572 N 625.236 -1.5273 0.388769 0
M  V30 6573 C 626.146 -2.30165 -0.453993 0
M  V30 6574 C 627.162 -1.37058 -1.07197 0
M  V30 6575 O 628.338 -1.70127 -1.0779 0
M  V30 6576 C 625.403 -3.09303 -1.56628 0
M  V30 6577 C 624.464 -4.18117 -0.973467 0
M  V30 6578 C 623.697 -4.93472 -2.03275 0
M  V30 6579 O 623.92 -4.68913 -3.24772 0
M  V30 6580 O 622.854 -5.78833 -1.65034 0
M  V30 6581 H 626.68 -3.03185 0.176816 0
M  V30 6582 H 624.265 -1.4862 0.152501 0
M  V30 6583 H 626.147 -3.58648 -2.21246 0
M  V30 6584 H 624.822 -2.39098 -2.18206 0
M  V30 6585 H 623.729 -3.7297 -0.290556 0
M  V30 6586 H 625.062 -4.90556 -0.401908 0
M  V30 6587 N 626.714 -0.118576 -1.57153 0
M  V30 6588 C 627.96 0.540326 -1.95469 0
M  V30 6589 C 628.293 1.66356 -1.00196 0
M  V30 6590 O 627.568 1.94461 -0.039104 0
M  V30 6591 C 627.851 1.07342 -3.43729 0
M  V30 6592 C 627.704 -0.0463732 -4.49776 0
M  V30 6593 C 629.023 1.96442 -3.93826 0
M  V30 6594 H 626.142 0.19494 -0.710751 0
M  V30 6595 H 628.784 -0.19405 -1.89006 0
M  V30 6596 H 626.934 1.69925 -3.49368 0
M  V30 6597 H 628.606 -0.681648 -4.56236 0
M  V30 6598 H 626.849 -0.709574 -4.27957 0
M  V30 6599 H 627.52 0.367856 -5.50773 0
M  V30 6600 H 629.996 1.43731 -3.90488 0
M  V30 6601 H 628.872 2.3066 -4.98084 0
M  V30 6602 H 629.133 2.89077 -3.34495 0
M  V30 6603 N 628.193 1.56834 0.155195 0
M  V30 6604 C 629.47 1.73799 0.897395 0
M  V30 6605 C 629.85 0.684379 1.99698 0
M  V30 6606 O 629.198 -0.298111 2.26547 0
M  V30 6607 C 629.408 3.17572 1.44737 0
M  V30 6608 C 630.756 3.79014 1.91399 0
M  V30 6609 O 631.78 3.20951 1.54496 0
M  V30 6610 O 630.639 4.80998 2.59429 0
M  V30 6611 H 627.733 0.710329 0.423511 0
M  V30 6612 H 630.279 1.69107 0.141761 0
M  V30 6613 H 629.051 3.85749 0.656741 0
M  V30 6614 H 628.674 3.26657 2.26674 0
M  V30 6615 N 629.671 -0.424282 1.51781 0
M  V30 6616 C 630.619 -1.53649 1.74628 0
M  V30 6617 C 631.613 -1.57923 0.612922 0
M  V30 6618 O 632.819 -1.61511 0.794618 0
M  V30 6619 H 629.194 -0.510706 0.551981 0
M  V30 6620 H 631.165 -1.31558 2.67834 0
M  V30 6621 C 629.914 -2.91177 1.9003 0
M  V30 6622 H 629.237 -2.88625 2.76651 0
M  V30 6623 H 630.677 -3.6833 2.10021 0
M  V30 6624 C 629.136 -3.30303 0.663435 0
M  V30 6625 O 629.666 -4.01315 -0.175812 0
M  V30 6626 N 627.872 -2.86201 0.503723 0
M  V30 6627 H 627.419 -2.28583 1.18776 0
M  V30 6628 H 627.377 -3.12741 -0.322575 0
M  V30 6629 N 631.149 -1.42148 -0.680565 0
M  V30 6630 C 632.426 -1.32795 -1.43614 0
M  V30 6631 C 632.806 0.037415 -2.11067 0
M  V30 6632 O 632.154 1.05258 -2.02813 0
M  V30 6633 C 632.364 -2.49206 -2.44331 0
M  V30 6634 C 633.712 -2.91059 -3.09144 0
M  V30 6635 O 634.736 -2.49054 -2.54657 0
M  V30 6636 O 633.595 -3.63741 -4.07866 0
M  V30 6637 H 630.689 -0.523397 -0.640301 0
M  V30 6638 H 633.235 -1.54144 -0.709775 0
M  V30 6639 H 632.007 -3.40252 -1.93247 0
M  V30 6640 H 631.63 -2.29813 -3.24456 0
M  V30 6641 N 632.627 0.916307 -1.28225 0
M  V30 6642 C 633.537 2.05165 -1.13775 0
M  V30 6643 C 634.553 1.73879 -0.0649418 0
M  V30 6644 O 635.729 1.99531 -0.273722 0
M  V30 6645 C 632.794 3.37385 -0.798267 0
M  V30 6646 C 631.855 3.82296 -1.95316 0
M  V30 6647 C 631.088 5.08206 -1.62978 0
M  V30 6648 O 631.311 5.6781 -0.542948 0
M  V30 6649 O 630.245 5.48768 -2.47261 0
M  V30 6650 H 634.071 2.20273 -2.09078 0
M  V30 6651 H 631.656 1.0373 -1.07519 0
M  V30 6652 H 633.538 4.16773 -0.62278 0
M  V30 6653 H 632.213 3.23458 0.125139 0
M  V30 6654 H 631.12 3.03746 -2.18378 0
M  V30 6655 H 632.453 4.00782 -2.85718 0
M  V30 6656 N 634.105 1.10431 1.1244 0
M  V30 6657 C 635.015 0.765502 2.21759 0
M  V30 6658 C 636.031 -0.236966 1.72379 0
M  V30 6659 O 637.207 -0.0757329 2.01258 0
M  V30 6660 C 634.272 0.202316 3.46109 0
M  V30 6661 C 633.333 1.26205 4.1033 0
M  V30 6662 C 632.566 0.725648 5.28744 0
M  V30 6663 O 632.789 -0.447942 5.68638 0
M  V30 6664 O 631.723 1.48555 5.83279 0
M  V30 6665 H 635.549 1.67801 2.53133 0
M  V30 6666 H 633.134 0.879443 1.20773 0
M  V30 6667 H 635.016 -0.107918 4.21262 0
M  V30 6668 H 633.691 -0.683052 3.16411 0
M  V30 6669 H 632.598 1.62514 3.36957 0
M  V30 6670 H 633.931 2.12044 4.44183 0
M  V30 6671 N 635.583 -1.29855 0.893053 0
M  V30 6672 C 636.493 -2.31661 0.370157 0
M  V30 6673 C 637.509 -1.65677 -0.531723 0
M  V30 6674 O 638.685 -1.9691 -0.422902 0
M  V30 6675 C 635.75 -3.44388 -0.399741 0
M  V30 6676 C 634.811 -4.2598 0.532861 0
M  V30 6677 C 634.044 -5.33324 -0.200388 0
M  V30 6678 O 634.267 -5.52305 -1.42531 0
M  V30 6679 O 633.201 -6.00188 0.453668 0
M  V30 6680 H 637.027 -2.78354 1.2146 0
M  V30 6681 H 634.612 -1.34171 0.657153 0
M  V30 6682 H 636.494 -4.13037 -0.835358 0
M  V30 6683 H 635.169 -2.99815 -1.22035 0
M  V30 6684 H 634.076 -3.59998 1.01746 0
M  V30 6685 H 635.409 -4.74178 1.3197 0
M  V30 6686 N 637.061 -0.65484 -1.43351 0
M  V30 6687 C 638.309 -0.168559 -2.01396 0
M  V30 6688 C 638.63 1.22235 -1.51933 0
M  V30 6689 O 637.9 1.81685 -0.732627 0
M  V30 6690 H 636.48 -0.0593244 -0.744641 0
M  V30 6691 H 639.142 -0.846871 -1.75539 0
M  V30 6692 H 638.238 -0.154428 -3.11718 0
M  V30 6693 N 638.539 1.52521 -0.396863 0
M  V30 6694 C 639.95 1.86547 0.0754868 0
M  V30 6695 C 640.301 1.31621 1.45501 0
M  V30 6696 O 639.426 0.650563 2.0639 0
M  V30 6697 C 640.021 3.38495 0.143754 0
M  V30 6698 C 638.58 3.72205 0.560413 0
M  V30 6699 C 637.727 2.75954 -0.272856 0
M  V30 6700 H 640.678 1.46323 -0.614434 0
M  V30 6701 H 640.699 3.68153 0.961425 0
M  V30 6702 H 640.211 3.78442 -0.860415 0
M  V30 6703 H 638.312 3.3783 1.57167 0
M  V30 6704 H 638.425 4.78074 0.313314 0
M  V30 6705 H 636.789 2.53339 0.263 0
M  V30 6706 H 637.572 3.1874 -1.27515 0
M  V30 6707 N 640.017 0.126909 1.57088 0
M  V30 6708 C 641.264 -0.529168 1.95464 0
M  V30 6709 C 641.592 -1.6618 1.01067 0
M  V30 6710 O 640.847 -1.95667 0.0360254 0
M  V30 6711 C 641.146 -1.095 3.40212 0
M  V30 6712 C 640.812 -0.0829015 4.50824 0
M  V30 6713 C 639.474 0.195377 4.80803 0
M  V30 6714 C 641.826 0.606411 5.1766 0
M  V30 6715 C 639.154 1.16912 5.74933 0
M  V30 6716 C 641.506 1.56884 6.12838 0
M  V30 6717 C 640.17 1.85502 6.41206 0
M  V30 6718 H 639.44 -0.193636 0.715252 0
M  V30 6719 H 642.087 0.209489 1.90351 0
M  V30 6720 H 640.392 -1.91058 3.42059 0
M  V30 6721 H 642.089 -1.61087 3.67222 0
M  V30 6722 H 638.679 -0.309979 4.27478 0
M  V30 6723 H 642.863 0.404597 4.94648 0
M  V30 6724 H 638.119 1.3975 5.95214 0
M  V30 6725 H 642.293 2.10859 6.6371 0
M  V30 6726 H 639.92 2.61109 7.13951 0
M  V30 6727 N 641.495 -1.56914 -0.146875 0
M  V30 6728 C 642.772 -1.74273 -0.888165 0
M  V30 6729 C 643.152 -0.69496 -1.99333 0
M  V30 6730 O 642.5 0.286093 -2.26702 0
M  V30 6731 C 642.71 -3.18336 -1.43051 0
M  V30 6732 C 644.058 -3.80024 -1.89387 0
M  V30 6733 O 645.082 -3.21765 -1.52792 0
M  V30 6734 O 643.941 -4.82367 -2.56874 0
M  V30 6735 H 641.035 -0.712565 -0.419738 0
M  V30 6736 H 643.581 -1.6918 -0.132791 0
M  V30 6737 H 642.353 -3.86092 -0.636274 0
M  V30 6738 H 641.976 -3.27854 -2.24938 0
M  V30 6739 N 642.974 0.416227 -1.52004 0
M  V30 6740 C 644.39 0.754319 -1.40649 0
M  V30 6741 C 644.59 1.95059 -0.505392 0
M  V30 6742 O 643.646 2.5248 0.0315057 0
M  V30 6743 C 644.959 1.0149 -2.83055 0
M  V30 6744 C 646.507 1.11805 -2.9235 0
M  V30 6745 C 646.982 1.41144 -4.35709 0
M  V30 6746 N 648.473 1.48024 -4.38911 0
M  V30 6747 C 649.208 1.72338 -5.46889 0
M  V30 6748 N 648.704 1.94303 -6.64995 0
M  V30 6749 N 650.497 1.74294 -5.34395 0
M  V30 6750 H 642.648 -0.371324 -2.09129 0
M  V30 6751 H 644.911 -0.103811 -0.942299 0
M  V30 6752 H 644.617 0.208345 -3.51082 0
M  V30 6753 H 644.491 1.93697 -3.23668 0
M  V30 6754 H 646.878 1.91521 -2.24508 0
M  V30 6755 H 646.959 0.17451 -2.55204 0
M  V30 6756 H 646.603 0.619484 -5.04108 0
M  V30 6757 H 646.533 2.36739 -4.70385 0
M  V30 6758 H 649.024 1.32868 -3.53772 0
M  V30 6759 H 649.337 2.12286 -7.43071 0
M  V30 6760 H 647.682 1.91582 -6.68073 0
M  V30 6761 H 650.873 1.56667 -4.41104 0
M  V30 6762 H 651.046 1.92904 -6.18621 0
M  V30 6763 N 644.452 1.42507 0.673017 0
M  V30 6764 C 645.385 1.40557 1.79774 0
M  V30 6765 C 646.363 0.269606 1.60349 0
M  V30 6766 O 647.547 0.460105 1.82798 0
M  V30 6767 C 644.674 1.19815 3.168 0
M  V30 6768 C 643.72 2.36429 3.5497 0
M  V30 6769 S 644.553 3.98963 3.57196 0
M  V30 6770 C 645.709 3.80567 4.9691 0
M  V30 6771 H 645.942 2.35734 1.81154 0
M  V30 6772 H 643.475 1.293 0.843846 0
M  V30 6773 H 645.433 1.08535 3.95892 0
M  V30 6774 H 644.094 0.262215 3.13004 0
M  V30 6775 H 643.287 2.17669 4.54573 0
M  V30 6776 H 642.889 2.44233 2.83242 0
M  V30 6777 H 645.181 3.41668 5.85038 0
M  V30 6778 H 646.124 4.79852 5.20718 0
M  V30 6779 H 646.532 3.13399 4.69512 0
M  V30 6780 N 645.93 -0.909495 1.28709 0
M  V30 6781 C 647.177 -1.65905 1.16111 0
M  V30 6782 C 647.505 -1.92334 -0.289436 0
M  V30 6783 O 646.76 -1.52495 -1.22653 0
M  V30 6784 C 647.059 -3.02117 1.90945 0
M  V30 6785 C 646.725 -2.95332 3.40719 0
M  V30 6786 C 645.387 -2.93189 3.81567 0
M  V30 6787 C 647.739 -2.85264 4.36204 0
M  V30 6788 C 645.067 -2.78784 5.16233 0
M  V30 6789 C 647.419 -2.724 5.70948 0
M  V30 6790 C 646.083 -2.68617 6.11066 0
M  V30 6791 H 645.353 -0.60709 0.42488 0
M  V30 6792 H 648 -1.05932 1.59533 0
M  V30 6793 H 646.305 -3.65901 1.40085 0
M  V30 6794 H 648.002 -3.59026 1.7861 0
M  V30 6795 H 644.592 -2.97797 3.08245 0
M  V30 6796 H 648.776 -2.86005 4.05605 0
M  V30 6797 H 644.032 -2.74254 5.46438 0
M  V30 6798 H 648.206 -2.63579 6.44592 0
M  V30 6799 H 645.833 -2.57213 7.15364 0
M  V30 6800 N 647.408 -1.11026 -1.11852 0
M  V30 6801 C 648.34 -0.72249 -2.17515 0
M  V30 6802 C 649.353 0.243782 -1.60964 0
M  V30 6803 O 650.542 0.0273252 -1.78479 0
M  V30 6804 C 647.642 -0.0463979 -3.38868 0
M  V30 6805 C 646.815 -1.0384 -4.24895 0
M  V30 6806 C 645.874 -0.392659 -5.24733 0
M  V30 6807 O 644.9 -1.0453 -5.5952 0
M  V30 6808 N 646.102 0.846296 -5.74298 0
M  V30 6809 H 648.867 -1.63161 -2.51393 0
M  V30 6810 H 646.428 -0.999899 -1.27333 0
M  V30 6811 H 648.42 0.397215 -4.02746 0
M  V30 6812 H 646.99 0.765231 -3.03089 0
M  V30 6813 H 646.21 -1.6601 -3.57539 0
M  V30 6814 H 647.498 -1.70968 -4.79215 0
M  V30 6815 H 646.896 1.39578 -5.4821 0
M  V30 6816 H 645.453 1.23296 -6.40032 0
M  V30 6817 N 648.886 1.2938 -0.899927 0
M  V30 6818 C 650.135 1.9483 -0.521937 0
M  V30 6819 C 650.448 1.71725 0.936473 0
M  V30 6820 O 651.654 2.31282 1.42199 0
M  V30 6821 C 650.11 3.48911 -0.88255 0
M  V30 6822 C 649.718 3.80815 -2.35974 0
M  V30 6823 C 651.462 4.20595 -0.57448 0
M  V30 6824 C 649.369 5.28142 -2.66121 0
M  V30 6825 H 648.299 0.729285 -0.191468 0
M  V30 6826 H 650.95 1.47103 -1.09695 0
M  V30 6827 H 649.332 3.95293 -0.236459 0
M  V30 6828 H 650.506 3.45291 -3.05141 0
M  V30 6829 H 648.821 3.22271 -2.63686 0
M  V30 6830 H 651.418 5.29031 -0.776556 0
M  V30 6831 H 651.761 4.13442 0.487005 0
M  V30 6832 H 652.294 3.79945 -1.17842 0
M  V30 6833 H 649.033 5.4036 -3.71068 0
M  V30 6834 H 648.553 5.64913 -2.01578 0
M  V30 6835 H 650.232 5.95738 -2.52399 0
M  V30 6836 N 650.364 0.662433 1.43002 0
M  V30 6837 C 651.594 0.187343 2.05749 0
M  V30 6838 C 652.002 -1.15582 1.49791 0
M  V30 6839 O 651.345 -1.72651 0.627487 0
M  V30 6840 C 651.407 0.0316493 3.59486 0
M  V30 6841 C 651.071 1.30156 4.38073 0
M  V30 6842 C 652.068 2.23234 4.69535 0
M  V30 6843 C 649.753 1.54572 4.77926 0
M  V30 6844 C 651.747 3.39012 5.39768 0
M  V30 6845 C 649.434 2.70641 5.47902 0
M  V30 6846 C 650.432 3.62687 5.78746 0
M  V30 6847 O 650.12 4.76728 6.47291 0
M  V30 6848 H 649.852 0.0915214 0.669776 0
M  V30 6849 H 652.406 0.905982 1.8434 0
M  V30 6850 H 650.636 -0.742451 3.79506 0
M  V30 6851 H 652.325 -0.401977 4.03905 0
M  V30 6852 H 653.091 2.05616 4.39257 0
M  V30 6853 H 648.97 0.83804 4.53319 0
M  V30 6854 H 652.514 4.10877 5.63761 0
M  V30 6855 H 648.411 2.88189 5.77596 0
M  V30 6856 H 649.179 4.76113 6.65777 0
M  V30 6857 N 651.842 -1.52309 0.404946 0
M  V30 6858 C 652.774 -2.24579 -0.45791 0
M  V30 6859 C 653.787 -1.2739 -1.01369 0
M  V30 6860 O 654.976 -1.53363 -0.91335 0
M  V30 6861 C 652.076 -2.9608 -1.64893 0
M  V30 6862 C 651.249 -4.20106 -1.21777 0
M  V30 6863 C 650.308 -4.74468 -2.27523 0
M  V30 6864 O 649.334 -5.37157 -1.88285 0
M  V30 6865 N 650.536 -4.55678 -3.59635 0
M  V30 6866 H 653.301 -2.99265 0.161341 0
M  V30 6867 H 650.862 -1.60228 0.232107 0
M  V30 6868 H 652.854 -3.29344 -2.35191 0
M  V30 6869 H 651.424 -2.24606 -2.17419 0
M  V30 6870 H 650.644 -3.92704 -0.343071 0
M  V30 6871 H 651.932 -5.00658 -0.906596 0
M  V30 6872 H 651.33 -4.05673 -3.94266 0
M  V30 6873 H 649.887 -4.9339 -4.25922 0
M  V30 6874 N 653.32 -0.135238 -1.57019 0
M  V30 6875 C 654.548 0.526066 -2.001 0
M  V30 6876 C 654.963 1.59184 -1.01519 0
M  V30 6877 O 654.32 1.82497 -0.0104258 0
M  V30 6878 C 654.371 1.13744 -3.43139 0
M  V30 6879 O 654.092 0.114259 -4.37951 0
M  V30 6880 C 655.593 1.8805 -4.01438 0
M  V30 6881 H 652.813 0.137962 -0.656664 0
M  V30 6882 H 655.357 -0.226359 -2.03243 0
M  V30 6883 H 653.512 1.84056 -3.40885 0
M  V30 6884 H 653.926 0.56058 -5.21496 0
M  V30 6885 H 655.4 2.26133 -5.03555 0
M  V30 6886 H 655.877 2.76194 -3.41487 0
M  V30 6887 H 656.483 1.22464 -4.07287 0
M  V30 6888 N 654.798 1.5699 0.138552 0
M  V30 6889 C 656.023 1.88344 0.86841 0
M  V30 6890 C 656.448 0.725159 1.7356 0
M  V30 6891 O 655.806 -0.324992 1.78363 0
M  V30 6892 C 655.854 3.18334 1.69398 0
M  V30 6893 O 654.958 3.02863 2.79907 0
M  V30 6894 H 654.299 0.618577 0.241367 0
M  V30 6895 H 656.829 2.04207 0.126826 0
M  V30 6896 H 656.839 3.50567 2.08726 0
M  V30 6897 H 655.514 4.02238 1.05725 0
M  V30 6898 H 654.091 2.82056 2.43924 0
M  V30 6899 N 656.276 -0.40816 1.52223 0
M  V30 6900 C 657.687 -0.986929 1.58482 0
M  V30 6901 C 658.038 -1.91521 0.425917 0
M  V30 6902 O 657.163 -2.11593 -0.453593 0
M  V30 6903 C 657.758 -1.7967 2.87235 0
M  V30 6904 C 656.317 -2.32549 2.9597 0
M  V30 6905 C 655.464 -1.12558 2.53428 0
M  V30 6906 H 658.415 -0.188362 1.57578 0
M  V30 6907 H 658.436 -2.65417 2.72642 0
M  V30 6908 H 657.948 -1.12082 3.71563 0
M  V30 6909 H 656.049 -3.03505 2.16137 0
M  V30 6910 H 656.162 -2.63348 4.00231 0
M  V30 6911 H 654.526 -1.47984 2.07299 0
M  V30 6912 H 655.309 -0.465351 3.40131 0
M  V30 6913 N 657.755 -1.42862 -0.66545 0
M  V30 6914 C 659.032 -1.3431 -1.42197 0
M  V30 6915 C 659.412 0.0150265 -2.11095 0
M  V30 6916 O 658.76 1.03101 -2.03918 0
M  V30 6917 C 658.97 -2.51783 -2.41674 0
M  V30 6918 C 660.318 -2.94321 -3.0604 0
M  V30 6919 O 661.342 -2.51741 -2.52001 0
M  V30 6920 O 660.201 -3.68047 -4.03985 0
M  V30 6921 H 657.295 -0.530159 -0.634713 0
M  V30 6922 H 659.841 -1.54888 -0.693386 0
M  V30 6923 H 658.613 -3.42282 -1.89627 0
M  V30 6924 H 658.236 -2.33241 -3.22001 0
M  V30 6925 N 659.233 0.902656 -1.29189 0
M  V30 6926 C 660.481 1.6496 -1.16758 0
M  V30 6927 C 660.802 1.92952 0.28188 0
M  V30 6928 O 660.072 1.55351 1.19344 0
M  V30 6929 H 658.652 0.611447 -0.429118 0
M  V30 6930 H 661.314 1.0825 -1.62074 0
M  V30 6931 H 660.41 2.60728 -1.71544 0
M  V30 6932 N 660.711 1.11618 1.11262 0
M  V30 6933 C 661.988 0.777876 1.79467 0
M  V30 6934 C 662.368 -0.733774 1.97937 0
M  V30 6935 O 661.716 -1.66443 1.56554 0
M  V30 6936 C 661.926 1.5431 3.13032 0
M  V30 6937 C 663.274 1.72357 3.88044 0
M  V30 6938 O 664.298 1.5075 3.22727 0
M  V30 6939 O 663.157 2.08276 5.05256 0
M  V30 6940 H 660.251 0.282018 0.777428 0
M  V30 6941 H 662.797 1.21971 1.17988 0
M  V30 6942 H 661.569 2.57132 2.94956 0
M  V30 6943 H 661.192 1.09495 3.82226 0
M  V30 6944 N 662.189 -1.289 0.906776 0
M  V30 6945 C 663.6 -1.77336 0.58384 0
M  V30 6946 C 663.951 -1.74304 -0.900697 0
M  V30 6947 O 663.076 -1.33335 -1.70443 0
M  V30 6948 C 663.671 -3.22019 1.05304 0
M  V30 6949 C 662.23 -3.68205 0.781148 0
M  V30 6950 C 661.377 -2.48837 1.22373 0
M  V30 6951 H 664.328 -1.15462 1.08877 0
M  V30 6952 H 664.349 -3.78481 0.391414 0
M  V30 6953 H 663.861 -3.24194 2.13353 0
M  V30 6954 H 661.962 -3.71497 -0.28643 0
M  V30 6955 H 662.075 -4.58675 1.384 0
M  V30 6956 H 660.439 -2.46461 0.642594 0
M  V30 6957 H 661.222 -2.53736 2.31242 0
M  V30 6958 N 663.667 -0.670007 -1.42649 0
M  V30 6959 C 664.913 -0.190568 -2.01903 0
M  V30 6960 C 665.246 1.19817 -1.52832 0
M  V30 6961 O 664.521 1.80342 -0.728485 0
M  V30 6962 C 664.804 -0.21991 -3.59428 0
M  V30 6963 C 664.657 -1.64376 -4.18689 0
M  V30 6964 C 665.976 0.434519 -4.3795 0
M  V30 6965 H 663.095 -0.0707219 -0.733599 0
M  V30 6966 H 665.737 -0.853883 -1.69732 0
M  V30 6967 H 663.887 0.344894 -3.86966 0
M  V30 6968 H 665.559 -2.26044 -4.02122 0
M  V30 6969 H 663.802 -2.18591 -3.747 0
M  V30 6970 H 664.473 -1.61601 -5.27815 0
M  V30 6971 H 666.949 -0.0462156 -4.16074 0
M  V30 6972 H 665.825 0.38333 -5.4756 0
M  V30 6973 H 666.086 1.51135 -4.15464 0
M  V30 6974 N 665.145 1.52092 -0.413018 0
M  V30 6975 C 666.108 2.25706 0.398687 0
M  V30 6976 C 667.108 1.28221 0.970368 0
M  V30 6977 O 668.298 1.52131 0.848635 0
M  V30 6978 C 665.43 3.03029 1.5616 0
M  V30 6979 H 666.623 2.98888 -0.246131 0
M  V30 6980 H 664.176 1.5542 -0.165622 0
M  V30 6981 H 664.911 2.34205 2.24317 0
M  V30 6982 H 664.696 3.74606 1.15812 0
M  V30 6983 H 666.186 3.58857 2.13569 0
M  V30 6984 N 666.623 0.143563 1.56945 0
M  V30 6985 C 667.533 -0.810562 2.20152 0
M  V30 6986 C 668.549 -1.27431 1.1848 0
M  V30 6987 O 669.725 -1.33221 1.51044 0
M  V30 6988 C 666.79 -2.03353 2.80799 0
M  V30 6989 C 665.851 -1.61936 3.97587 0
M  V30 6990 C 665.084 -2.78403 4.55332 0
M  V30 6991 O 665.307 -3.94521 4.11958 0
M  V30 6992 O 664.241 -2.54073 5.45647 0
M  V30 6993 H 668.067 -0.30253 3.02189 0
M  V30 6994 H 665.652 -0.0832925 1.49168 0
M  V30 6995 H 667.534 -2.74932 3.19359 0
M  V30 6996 H 666.209 -2.53116 2.01777 0
M  V30 6997 H 665.116 -0.873904 3.6375 0
M  V30 6998 H 666.449 -1.16892 4.78118 0
M  V30 6999 N 668.101 -1.57061 -0.130224 0
M  V30 7000 C 669.326 -1.88802 -0.858409 0
M  V30 7001 C 669.751 -0.734353 -1.73173 0
M  V30 7002 O 669.109 0.315529 -1.78533 0
M  V30 7003 C 669.157 -3.19228 -1.67708 0
M  V30 7004 O 668.261 -3.04343 -2.78297 0
M  V30 7005 H 667.602 -0.619849 -0.238083 0
M  V30 7006 H 670.132 -2.04271 -0.115995 0
M  V30 7007 H 670.142 -3.51669 -2.06864 0
M  V30 7008 H 668.817 -4.02793 -1.0359 0
M  V30 7009 H 667.394 -2.83346 -2.42425 0
M  V30 7010 N 669.579 0.400081 -1.52437 0
M  V30 7011 C 670.825 1.14788 -1.67187 0
M  V30 7012 C 671.158 1.89928 -0.405074 0
M  V30 7013 O 670.433 1.85118 0.596804 0
M  V30 7014 C 670.716 2.13507 -2.89977 0
M  V30 7015 C 670.569 1.42204 -4.2673 0
M  V30 7016 C 671.888 3.14069 -3.083 0
M  V30 7017 H 669.007 0.415939 -0.608411 0
M  V30 7018 H 671.649 0.432542 -1.85011 0
M  V30 7019 H 669.799 2.7451 -2.74912 0
M  V30 7020 H 671.471 0.842503 -4.53541 0
M  V30 7021 H 669.714 0.723939 -4.27717 0
M  V30 7022 H 670.385 2.14281 -5.08712 0
M  V30 7023 H 672.861 2.63148 -3.22323 0
M  V30 7024 H 671.737 3.80398 -3.95713 0
M  V30 7025 H 671.998 3.82309 -2.22018 0
M  V30 7026 N 671.057 1.43213 0.657864 0
M  V30 7027 C 672.303 1.45795 1.41829 0
M  V30 7028 C 672.658 0.0792176 1.92237 0
M  V30 7029 O 671.951 -0.901406 1.69072 0
M  V30 7030 C 672.145 2.43143 2.61947 0
M  V30 7031 C 671.974 3.90345 2.23295 0
M  V30 7032 C 670.744 4.58749 2.11843 0
M  V30 7033 C 672.942 4.80308 1.83873 0
M  V30 7034 N 670.924 5.90898 1.66473 0
M  V30 7035 C 672.295 6.01693 1.49549 0
M  V30 7036 C 674.35 4.67609 1.71015 0
M  V30 7037 C 673.053 7.11792 1.03657 0
M  V30 7038 C 675.079 5.77707 1.26527 0
M  V30 7039 C 674.441 6.98215 0.931379 0
M  V30 7040 H 670.54 0.588628 0.514822 0
M  V30 7041 H 673.124 1.7936 0.7575 0
M  V30 7042 H 671.295 2.11612 3.25692 0
M  V30 7043 H 673.027 2.36193 3.28626 0
M  V30 7044 H 669.782 4.1319 2.31453 0
M  V30 7045 H 670.206 6.61034 1.46163 0
M  V30 7046 H 674.848 3.74902 1.95469 0
M  V30 7047 H 672.566 8.04332 0.779502 0
M  V30 7048 H 676.152 5.69899 1.17074 0
M  V30 7049 H 675.032 7.81959 0.592379 0
M  V30 7050 N 672.536 -0.895792 1.29666 0
M  V30 7051 C 673.446 -2.03329 1.17024 0
M  V30 7052 C 674.462 -1.73753 0.0925962 0
M  V30 7053 O 675.638 -1.99071 0.305431 0
M  V30 7054 C 672.703 -3.36072 0.851841 0
M  V30 7055 C 671.764 -3.7914 2.01373 0
M  V30 7056 C 670.997 -5.05549 1.71043 0
M  V30 7057 O 671.22 -5.66874 0.633213 0
M  V30 7058 O 670.154 -5.44764 2.5596 0
M  V30 7059 H 673.98 -2.16918 2.12556 0
M  V30 7060 H 671.565 -1.02007 1.09156 0
M  V30 7061 H 673.447 -4.15729 0.689006 0
M  V30 7062 H 672.122 -3.23616 -0.0736634 0
M  V30 7063 H 671.029 -3.00233 2.23183 0
M  V30 7064 H 672.362 -3.96186 2.92058 0
M  V30 7065 N 674.014 -1.12206 -1.10668 0
M  V30 7066 C 674.944 -0.810086 -2.18997 0
M  V30 7067 C 675.925 0.225065 -1.68604 0
M  V30 7068 O 677.11 0.086783 -1.94006 0
M  V30 7069 C 674.24 -0.261262 -3.46316 0
M  V30 7070 C 673.194 -1.2292 -4.09969 0
M  V30 7071 C 672.52 -0.540713 -5.31959 0
M  V30 7072 C 673.82 -2.58295 -4.53962 0
M  V30 7073 H 675.514 -1.7159 -2.45352 0
M  V30 7074 H 673.06 -0.82646 -1.17922 0
M  V30 7075 H 675.013 -0.0307522 -4.21389 0
M  V30 7076 H 673.737 0.679879 -3.19445 0
M  V30 7077 H 672.396 -1.44548 -3.369 0
M  V30 7078 H 672.044 0.405492 -5.01363 0
M  V30 7079 H 671.744 -1.18637 -5.75499 0
M  V30 7080 H 673.268 -0.319184 -6.09765 0
M  V30 7081 H 674.682 -2.40709 -5.20319 0
M  V30 7082 H 673.079 -3.18916 -5.08343 0
M  V30 7083 H 674.149 -3.16918 -3.67002 0
M  V30 7084 N 675.492 1.28418 -0.913599 0
M  V30 7085 C 676.769 1.89977 -0.465619 0
M  V30 7086 C 677.149 1.82813 1.05559 0
M  V30 7087 O 676.497 1.26397 1.90358 0
M  V30 7088 C 676.707 3.34492 -0.995813 0
M  V30 7089 C 678.055 4.11468 -1.04782 0
M  V30 7090 O 679.079 3.43451 -0.944445 0
M  V30 7091 O 677.938 5.33046 -1.20518 0
M  V30 7092 H 675.032 0.813734 -0.147532 0
M  V30 7093 H 677.578 1.36786 -1.00437 0
M  V30 7094 H 676.35 3.33929 -2.03978 0
M  V30 7095 H 675.973 3.95181 -0.437878 0
M  V30 7096 N 676.97 0.677563 1.42291 0
M  V30 7097 C 678.21 0.204894 2.0337 0
M  V30 7098 C 678.574 -1.16744 1.5243 0
M  V30 7099 O 679.775 -1.73492 2.05314 0
M  V30 7100 C 678.046 0.240742 3.56588 0
M  V30 7101 S 679.605 -0.16052 4.38506 0
M  V30 7102 H 676.423 0.0839932 0.706021 0
M  V30 7103 H 679.025 0.891332 1.73999 0
M  V30 7104 H 677.729 1.24184 3.91161 0
M  V30 7105 H 677.26 -0.465439 3.90637 0
M  V30 7106 H 679.275 -1.39315 4.76241 0
M  V30 7107 N 678.448 -1.51871 0.421078 0
M  V30 7108 C 679.358 -2.31077 -0.405069 0
M  V30 7109 C 680.374 -1.39301 -1.04265 0
M  V30 7110 O 681.55 -1.72376 -1.04157 0
M  V30 7111 C 678.615 -3.12556 -1.50032 0
M  V30 7112 C 677.676 -4.20088 -0.884559 0
M  V30 7113 C 676.909 -4.97673 -1.92762 0
M  V30 7114 O 677.132 -4.75696 -3.14753 0
M  V30 7115 O 676.066 -5.82203 -1.52719 0
M  V30 7116 H 679.892 -3.02742 0.241086 0
M  V30 7117 H 677.477 -1.48263 0.183991 0
M  V30 7118 H 679.359 -3.6326 -2.13589 0
M  V30 7119 H 678.034 -2.43672 -2.13086 0
M  V30 7120 H 676.941 -3.73502 -0.211379 0
M  V30 7121 H 678.274 -4.91298 -0.297763 0
M  V30 7122 N 679.926 -0.151884 -1.56866 0
M  V30 7123 C 681.174 0.497021 -1.95893 0
M  V30 7124 C 681.495 1.65078 -1.03799 0
M  V30 7125 O 680.765 1.95642 -0.10049 0
M  V30 7126 H 679.345 0.186603 -0.723318 0
M  V30 7127 H 682.007 -0.228525 -1.93556 0
M  V30 7128 H 681.103 0.869933 -2.99731 0
M  V30 7129 N 681.404 1.57128 0.121893 0
M  V30 7130 C 682.314 2.03425 1.16857 0
M  V30 7131 C 683.33 0.954108 1.45509 0
M  V30 7132 O 684.506 1.26541 1.56682 0
M  V30 7133 C 681.571 2.42685 2.47599 0
M  V30 7134 C 680.632 3.64767 2.2637 0
M  V30 7135 C 679.865 4.02145 3.50878 0
M  V30 7136 O 680.088 3.39897 4.58068 0
M  V30 7137 O 679.022 4.95262 3.42051 0
M  V30 7138 H 682.848 2.92825 0.80544 0
M  V30 7139 H 680.433 1.45654 0.332477 0
M  V30 7140 H 682.315 2.68684 3.24634 0
M  V30 7141 H 680.99 1.56432 2.83392 0
M  V30 7142 H 679.897 3.43922 1.47203 0
M  V30 7143 H 681.23 4.51716 1.95482 0
M  V30 7144 N 682.882 -0.391992 1.52647 0
M  V30 7145 C 684.131 -1.13449 1.6677 0
M  V30 7146 C 684.444 -1.91203 0.412399 0
M  V30 7147 O 685.65 -2.68013 0.433707 0
M  V30 7148 C 684.106 -2.06577 2.9471 0
M  V30 7149 C 683.714 -1.3426 4.27409 0
M  V30 7150 C 685.458 -2.80981 3.18198 0
M  V30 7151 C 683.365 -2.26136 5.46458 0
M  V30 7152 H 682.295 -0.427211 0.621295 0
M  V30 7153 H 684.946 -0.397522 1.79142 0
M  V30 7154 H 683.328 -2.83898 2.76076 0
M  V30 7155 H 684.502 -0.621856 4.56585 0
M  V30 7156 H 682.817 -0.718279 4.10158 0
M  V30 7157 H 685.414 -3.49898 4.04321 0
M  V30 7158 H 685.757 -3.44891 2.33144 0
M  V30 7159 H 686.29 -2.10754 3.37383 0
M  V30 7160 H 683.029 -1.66846 6.33911 0
M  V30 7161 H 682.549 -2.96134 5.21598 0
M  V30 7162 H 684.228 -2.86286 5.80215 0
M  V30 7163 N 684.36 -1.4356 -0.65026 0
M  V30 7164 C 685.585 -1.48995 -1.44275 0
M  V30 7165 C 686.01 -0.109954 -1.87778 0
M  V30 7166 O 685.368 0.896926 -1.57559 0
M  V30 7167 C 685.416 -2.44341 -2.65198 0
M  V30 7168 O 684.52 -1.93172 -3.6436 0
M  V30 7169 H 683.861 -0.503852 -0.432469 0
M  V30 7170 H 686.391 -1.88504 -0.795446 0
M  V30 7171 H 686.401 -2.61743 -3.12977 0
M  V30 7172 H 685.076 -3.44588 -2.32877 0
M  V30 7173 H 683.653 -1.85445 -3.23519 0
M  V30 7174 N 685.838 0.888903 -1.30139 0
M  V30 7175 C 686.768 2.01046 -1.18755 0
M  V30 7176 C 687.749 1.69916 -0.0791438 0
M  V30 7177 O 688.934 1.92445 -0.260498 0
M  V30 7178 C 686.064 3.36109 -0.874518 0
M  V30 7179 C 685.018 3.81486 -1.94043 0
M  V30 7180 C 684.344 5.13796 -1.48047 0
M  V30 7181 C 685.644 4.00637 -3.35093 0
M  V30 7182 H 687.338 2.10828 -2.12584 0
M  V30 7183 H 684.884 1.01298 -1.02346 0
M  V30 7184 H 686.837 4.14089 -0.781548 0
M  V30 7185 H 685.561 3.26449 0.0994519 0
M  V30 7186 H 684.22 3.05731 -2.02297 0
M  V30 7187 H 683.868 5.0056 -0.494878 0
M  V30 7188 H 683.568 5.45127 -2.19341 0
M  V30 7189 H 685.092 5.94305 -1.40121 0
M  V30 7190 H 686.506 4.69067 -3.2962 0
M  V30 7191 H 684.903 4.43339 -4.04438 0
M  V30 7192 H 685.973 3.0462 -3.77273 0
M  V30 7193 N 687.317 1.12792 1.10072 0
M  V30 7194 C 688.594 0.796867 1.78632 0
M  V30 7195 C 688.974 -0.712739 1.98704 0
M  V30 7196 O 688.322 -1.64773 1.5831 0
M  V30 7197 C 688.532 1.57622 3.11378 0
M  V30 7198 C 689.88 1.76463 3.86194 0
M  V30 7199 O 690.904 1.54165 3.2111 0
M  V30 7200 O 689.763 2.13623 5.03018 0
M  V30 7201 H 686.857 0.290248 0.774394 0
M  V30 7202 H 689.403 1.23215 1.16688 0
M  V30 7203 H 688.175 2.60246 2.92212 0
M  V30 7204 H 687.798 1.13543 3.81043 0
M  V30 7205 N 688.795 -1.27931 0.920396 0
M  V30 7206 C 689.742 -2.27085 0.412422 0
M  V30 7207 C 690.712 -1.57858 -0.516725 0
M  V30 7208 O 691.897 -1.85717 -0.437475 0
M  V30 7209 C 689.037 -3.43466 -0.335399 0
M  V30 7210 C 688.15 -4.27425 0.627017 0
M  V30 7211 C 687.285 -5.31016 -0.139916 0
M  V30 7212 C 686.324 -6.06641 0.815683 0
M  V30 7213 N 685.461 -7.02052 0.0818439 0
M  V30 7214 H 690.301 -2.69913 1.26298 0
M  V30 7215 H 687.838 -1.32732 0.634076 0
M  V30 7216 H 689.796 -4.09744 -0.785226 0
M  V30 7217 H 688.426 -3.01611 -1.15025 0
M  V30 7218 H 687.478 -3.6113 1.19537 0
M  V30 7219 H 688.79 -4.79969 1.35763 0
M  V30 7220 H 687.944 -6.03208 -0.649998 0
M  V30 7221 H 686.683 -4.79257 -0.903543 0
M  V30 7222 H 685.688 -5.33294 1.33708 0
M  V30 7223 H 686.913 -6.60489 1.57897 0
M  V30 7224 H 684.859 -6.52634 -0.663671 0
M  V30 7225 H 684.776 -7.52249 0.752163 0
M  V30 7226 H 686.044 -7.78432 -0.407825 0
M  V30 7227 N 690.273 -0.685099 -1.4193 0
M  V30 7228 C 691.522 -0.208816 -2.00616 0
M  V30 7229 C 691.835 1.19506 -1.54847 0
M  V30 7230 O 693.041 1.76826 -2.06021 0
M  V30 7231 C 691.497 -0.322446 -3.58453 0
M  V30 7232 C 691.105 -1.73102 -4.13206 0
M  V30 7233 C 692.849 0.0945979 -4.24395 0
M  V30 7234 C 690.756 -1.79687 -5.63442 0
M  V30 7235 H 689.686 -0.0743092 -0.750329 0
M  V30 7236 H 692.337 -0.851778 -1.62533 0
M  V30 7237 H 690.719 0.388588 -3.94089 0
M  V30 7238 H 691.893 -2.46997 -3.8901 0
M  V30 7239 H 690.208 -2.09682 -3.59753 0
M  V30 7240 H 692.805 0.0656937 -5.3466 0
M  V30 7241 H 693.148 1.1316 -4.00625 0
M  V30 7242 H 693.681 -0.56579 -3.93756 0
M  V30 7243 H 690.42 -2.81404 -5.92024 0
M  V30 7244 H 689.94 -1.10162 -5.89597 0
M  V30 7245 H 691.619 -1.55498 -6.28036 0
M  V30 7246 N 691.751 1.51645 -0.429126 0
M  V30 7247 C 692.979 2.06433 0.138994 0
M  V30 7248 C 693.394 1.29735 1.37165 0
M  V30 7249 O 692.751 0.354638 1.79021 0
M  V30 7250 C 692.802 3.58439 0.469452 0
M  V30 7251 O 692.523 4.32238 -0.714273 0
M  V30 7252 C 694.024 4.29712 1.08914 0
M  V30 7253 H 691.244 0.6709 0.0115608 0
M  V30 7254 H 693.788 1.9532 -0.605843 0
M  V30 7255 H 691.943 3.69494 1.16419 0
M  V30 7256 H 692.357 5.22704 -0.433633 0
M  V30 7257 H 693.831 5.37182 1.27042 0
M  V30 7258 H 694.308 3.87473 2.06788 0
M  V30 7259 H 694.914 4.2308 0.434028 0
M  V30 7260 N 693.229 0.160201 1.56784 0
M  V30 7261 C 694.64 -0.358417 1.83227 0
M  V30 7262 C 694.991 -1.63831 1.07952 0
M  V30 7263 O 694.116 -2.13885 0.328995 0
M  V30 7264 C 694.711 -0.657058 3.32368 0
M  V30 7265 C 693.27 -1.12015 3.59346 0
M  V30 7266 C 692.417 -0.15015 2.76893 0
M  V30 7267 H 695.368 0.384669 1.53967 0
M  V30 7268 H 695.389 -1.51033 3.49241 0
M  V30 7269 H 694.901 0.274647 3.87127 0
M  V30 7270 H 693.002 -2.06734 3.09987 0
M  V30 7271 H 693.115 -1.037 4.67743 0
M  V30 7272 H 691.479 -0.645361 2.46388 0
M  V30 7273 H 692.262 0.775379 3.34429 0
M  V30 7274 N 694.707 -1.5719 -0.113559 0
M  V30 7275 C 695.954 -1.85138 -0.820382 0
M  V30 7276 C 696.282 -0.74608 -1.79622 0
M  V30 7277 O 695.537 0.262077 -1.93937 0
M  V30 7278 C 695.836 -3.19593 -1.59984 0
M  V30 7279 C 695.502 -4.44315 -0.767809 0
M  V30 7280 C 694.164 -4.78179 -0.538379 0
M  V30 7281 C 696.516 -5.2086 -0.188203 0
M  V30 7282 C 693.844 -5.86028 0.28082 0
M  V30 7283 C 696.196 -6.29572 0.618217 0
M  V30 7284 C 694.86 -6.61964 0.857912 0
M  V30 7285 H 694.13 -0.677467 -0.300199 0
M  V30 7286 H 696.777 -1.91322 -0.0825443 0
M  V30 7287 H 695.082 -3.0901 -2.40874 0
M  V30 7288 H 696.779 -3.3844 -2.1508 0
M  V30 7289 H 693.369 -4.17786 -0.956724 0
M  V30 7290 H 697.553 -4.95045 -0.352658 0
M  V30 7291 H 692.809 -6.09547 0.475693 0
M  V30 7292 H 696.983 -6.88064 1.0743 0
M  V30 7293 H 694.61 -7.45365 1.49451 0
M  V30 7294 N 696.185 0.383891 -1.52853 0
M  V30 7295 C 697.413 1.1495 -1.7203 0
M  V30 7296 C 697.828 1.83578 -0.440957 0
M  V30 7297 O 697.185 1.72872 0.584925 0
M  V30 7298 C 697.236 2.19368 -2.87333 0
M  V30 7299 O 696.957 1.53536 -4.10315 0
M  V30 7300 C 698.458 3.08616 -3.18231 0
M  V30 7301 H 695.678 0.344445 -0.575846 0
M  V30 7302 H 698.222 0.448397 -1.99524 0
M  V30 7303 H 696.377 2.85105 -2.62286 0
M  V30 7304 H 696.791 2.2296 -4.74752 0
M  V30 7305 H 698.265 3.77902 -4.02361 0
M  V30 7306 H 698.742 3.72409 -2.32826 0
M  V30 7307 H 699.348 2.48518 -3.45136 0
M  V30 7308 N 697.663 1.43903 0.642637 0
M  V30 7309 C 699.074 1.40975 1.22404 0
M  V30 7310 C 699.425 0.1192 1.95838 0
M  V30 7311 O 698.55 -0.780939 2.01818 0
M  V30 7312 C 699.145 2.5538 2.22636 0
M  V30 7313 C 697.704 2.55684 2.76229 0
M  V30 7314 C 696.851 2.32556 1.51039 0
M  V30 7315 H 699.802 1.5265 0.434006 0
M  V30 7316 H 699.823 2.27474 3.05017 0
M  V30 7317 H 699.335 3.49294 1.69161 0
M  V30 7318 H 697.436 1.65679 3.33738 0
M  V30 7319 H 697.549 3.53799 3.23053 0
M  V30 7320 H 695.913 1.81427 1.78764 0
M  V30 7321 H 696.696 3.28569 0.99484 0
M  V30 7322 N 699.141 -0.881989 1.30609 0
M  V30 7323 C 700.089 -2.00942 1.17155 0
M  V30 7324 C 701.083 -1.69198 0.0827154 0
M  V30 7325 O 702.289 -1.78342 0.243775 0
M  V30 7326 H 698.664 -0.658913 0.362406 0
M  V30 7327 H 700.635 -2.09423 2.12567 0
M  V30 7328 C 699.384 -3.36294 0.883273 0
M  V30 7329 H 698.707 -3.61233 1.7132 0
M  V30 7330 H 700.147 -4.15812 0.829255 0
M  V30 7331 C 698.606 -3.34348 -0.413851 0
M  V30 7332 O 699.136 -3.75216 -1.43444 0
M  V30 7333 N 697.342 -2.87459 -0.426082 0
M  V30 7334 H 696.889 -2.54397 0.40493 0
M  V30 7335 H 696.847 -2.8654 -1.29391 0
M  V30 7336 N 700.619 -1.13374 -1.09472 0
M  V30 7337 C 701.867 -0.893422 -1.8128 0
M  V30 7338 C 702.188 0.582029 -1.86111 0
M  V30 7339 O 701.458 1.42305 -1.34633 0
M  V30 7340 H 700.038 -0.327543 -0.67136 0
M  V30 7341 H 702.7 -1.43018 -1.32408 0
M  V30 7342 H 701.796 -1.28374 -2.84476 0
M  V30 7343 N 702.098 1.27442 -0.927168 0
M  V30 7344 C 703.345 1.94391 -0.567324 0
M  V30 7345 C 703.673 1.72875 0.891321 0
M  V30 7346 O 702.928 1.05071 1.65102 0
M  V30 7347 C 703.227 3.47413 -0.838994 0
M  V30 7348 C 702.893 3.89049 -2.2793 0
M  V30 7349 C 701.555 4.00127 -2.67305 0
M  V30 7350 C 703.907 4.10154 -3.21595 0
M  V30 7351 C 701.235 4.29697 -3.99471 0
M  V30 7352 C 703.587 4.41208 -4.53341 0
M  V30 7353 C 702.251 4.50499 -4.92551 0
M  V30 7354 H 701.521 0.711325 -0.207598 0
M  V30 7355 H 704.168 1.51523 -1.17103 0
M  V30 7356 H 702.473 3.91503 -0.152609 0
M  V30 7357 H 704.17 3.97354 -0.53955 0
M  V30 7358 H 700.76 3.80962 -1.96381 0
M  V30 7359 H 704.944 4.01036 -2.92377 0
M  V30 7360 H 700.2 4.35099 -4.29533 0
M  V30 7361 H 704.374 4.56486 -5.25922 0
M  V30 7362 H 702.001 4.73167 -5.94994 0
M  V30 7363 N 703.576 0.692616 1.41565 0
M  V30 7364 C 704.526 0.00231847 2.28 0
M  V30 7365 C 705.51 -0.755793 1.42044 0
M  V30 7366 O 706.702 -0.631772 1.65341 0
M  V30 7367 C 703.831 -0.935468 3.30309 0
M  V30 7368 C 702.917 -0.173761 4.23744 0
M  V30 7369 N 703.308 0.830872 4.98929 0
M  V30 7370 C 701.606 -0.409666 4.44115 0
M  V30 7371 C 702.307 1.28656 5.67294 0
M  V30 7372 N 701.283 0.613053 5.40132 0
M  V30 7373 H 705.085 0.772635 2.83562 0
M  V30 7374 H 702.599 0.523198 1.53741 0
M  V30 7375 H 704.596 -1.44513 3.91052 0
M  V30 7376 H 703.256 -1.70542 2.76307 0
M  V30 7377 H 704.267 1.21101 5.03542 0
M  V30 7378 H 700.944 -1.15773 4.01127 0
M  V30 7379 H 702.334 2.12006 6.37576 0
M  V30 7380 O 705.093 -1.50756 0.579208 0
M  V30 7381 H 705.784 -1.93523 0.0829038 0
M  V30 END ATOM
M  V30 BEGIN BOND
M  V30 END BOND
M  V30 END CTAB
M  END
$$$$
