drugbank_drug|DB12202  Zalutumumab (A chain)
 OpenBabel12092119123D

  0  0  0     0  0            999 V3000
M  V30 BEGIN CTAB
M  V30 COUNTS 6987 7082 0 0 0
M  V30 BEGIN ATOM
M  V30 1 H -0.908 1.98254 -0.117106 0
M  V30 2 N 0 1.576 0 0
M  V30 3 C 0.932 2.05273 1.01958 0
M  V30 4 C 1.945 0.970662 1.30698 0
M  V30 5 O 3.134 1.24746 1.27674 0
M  V30 6 C 0.234 2.43771 2.35433 0
M  V30 7 C -0.593 3.74711 2.25633 0
M  V30 8 C -1.534 4.00077 3.41796 0
M  V30 9 O -2.508 4.70743 3.19984 0
M  V30 10 N -1.306 3.47973 4.64645 0
M  V30 11 H 1.459 2.93363 0.613025 0
M  V30 12 H -0.98 1.60812 0.187383 0
M  V30 13 H 1.012 2.57855 3.11918 0
M  V30 14 H -0.418 1.612 2.67831 0
M  V30 15 H -1.198 3.70705 1.34059 0
M  V30 16 H 0.09 4.60554 2.16258 0
M  V30 17 H -0.512 2.90748 4.85265 0
M  V30 18 H -1.955 3.67386 5.38396 0
M  V30 19 N 1.4781 -0.272755 1.55222 0
M  V30 20 C 2.7241 -1.00581 1.761 0
M  V30 21 C 3.0571 -1.85932 0.560625 0
M  V30 22 O 2.3321 -1.89416 -0.441801 0
M  V30 23 C 2.6151 -1.88816 3.06628 0
M  V30 24 C 2.4681 -1.06457 4.37021 0
M  V30 25 C 3.7871 -2.8752 3.33197 0
M  V30 26 H 0.9061 -0.364244 0.640699 0
M  V30 27 H 3.5481 -0.278189 1.87952 0
M  V30 28 H 1.6981 -2.50856 2.96654 0
M  V30 29 H 3.3701 -0.464863 4.58952 0
M  V30 30 H 1.6131 -0.368043 4.32236 0
M  V30 31 H 2.2841 -1.71514 5.24678 0
M  V30 32 H 4.7601 -2.35615 3.42965 0
M  V30 33 H 3.6361 -3.46399 4.25792 0
M  V30 34 H 3.8971 -3.62657 2.52849 0
M  V30 35 N 2.9562 -1.48159 -0.537278 0
M  V30 36 C 3.8882 -1.58218 -1.65831 0
M  V30 37 C 4.9012 -0.466948 -1.5596 0
M  V30 38 O 6.0902 -0.73747 -1.62553 0
M  V30 39 C 3.1902 -1.48906 -3.04434 0
M  V30 40 C 2.3632 -2.75343 -3.3986 0
M  V30 41 C 1.4222 -2.59588 -4.57712 0
M  V30 42 O 0.4482 -3.33457 -4.61297 0
M  V30 43 N 1.6502 -1.68724 -5.55439 0
M  V30 44 H 4.4152 -2.54891 -1.57641 0
M  V30 45 H 1.9762 -1.4479 -0.724386 0
M  V30 46 H 3.9682 -1.36072 -3.81139 0
M  V30 47 H 2.5382 -0.602368 -3.06741 0
M  V30 48 H 1.7582 -3.02795 -2.52406 0
M  V30 49 H 3.0462 -3.5924 -3.60311 0
M  V30 50 H 2.4442 -1.07898 -5.55315 0
M  V30 51 H 1.0012 -1.61832 -6.3139 0
M  V30 52 N 4.4343 0.785586 -1.36625 0
M  V30 53 C 5.3643 1.91259 -1.33949 0
M  V30 54 C 6.3453 1.68795 -0.210325 0
M  V30 55 O 7.5303 1.89854 -0.408561 0
M  V30 56 C 4.6603 3.28339 -1.13186 0
M  V30 57 C 3.6143 3.65335 -2.22967 0
M  V30 58 C 2.9403 5.00806 -1.87342 0
M  V30 59 C 4.2403 3.7352 -3.65075 0
M  V30 60 H 5.9343 1.93755 -2.28253 0
M  V30 61 H 3.4803 0.930788 -1.09874 0
M  V30 62 H 5.4333 4.06804 -1.09948 0
M  V30 63 H 4.1573 3.2624 -0.153332 0
M  V30 64 H 2.8163 2.89169 -2.25337 0
M  V30 65 H 2.4643 4.95233 -0.880545 0
M  V30 66 H 2.1643 5.26529 -2.60846 0
M  V30 67 H 3.6883 5.81687 -1.85667 0
M  V30 68 H 5.1023 4.42168 -3.64911 0
M  V30 69 H 3.4993 4.10731 -4.37516 0
M  V30 70 H 4.5693 2.74527 -3.99703 0
M  V30 71 N 5.9124 1.20967 1.01018 0
M  V30 72 C 7.1584 1.02526 1.74975 0
M  V30 73 C 7.4914 -0.4408 1.89131 0
M  V30 74 O 6.7664 -1.32718 1.42184 0
M  V30 75 C 7.0494 1.71699 3.1653 0
M  V30 76 C 6.9024 3.25791 3.10129 0
M  V30 77 C 8.2214 1.45531 4.15342 0
M  V30 78 H 5.3404 0.373863 0.635134 0
M  V30 79 H 7.9824 1.49071 1.17805 0
M  V30 80 H 6.1324 1.32128 3.65341 0
M  V30 81 H 7.8044 3.74697 2.69072 0
M  V30 82 H 6.0474 3.56363 2.47362 0
M  V30 83 H 6.7184 3.69353 4.10222 0
M  V30 84 H 9.1944 1.79872 3.75213 0
M  V30 85 H 8.0704 1.96453 5.1254 0
M  V30 86 H 8.3314 0.384237 4.40427 0
M  V30 87 N 7.3905 -1.2043 1.01659 0
M  V30 88 C 8.3005 -2.2689 0.596484 0
M  V30 89 C 9.3165 -1.70107 -0.36599 0
M  V30 90 O 10.4925 -2.00117 -0.226942 0
M  V30 91 C 7.5575 -3.4665 -0.0586659 0
M  V30 92 C 6.6185 -4.18662 0.949751 0
M  V30 93 C 5.8515 -5.32705 0.32577 0
M  V30 94 O 6.0745 -5.63656 -0.874509 0
M  V30 95 O 5.0085 -5.92803 1.04249 0
M  V30 96 H 8.8345 -2.65041 1.4828 0
M  V30 97 H 6.4195 -1.27048 0.786082 0
M  V30 98 H 8.3015 -4.19256 -0.424564 0
M  V30 99 H 6.9765 -3.10375 -0.91918 0
M  V30 100 H 5.8835 -3.48229 1.36702 0
M  V30 101 H 7.2165 -4.58878 1.78023 0
M  V30 102 N 8.8686 -0.792821 -1.36206 0
M  V30 103 C 10.0936 -0.377701 -2.03932 0
M  V30 104 C 10.5186 0.998947 -1.59382 0
M  V30 105 O 9.8766 1.64421 -0.763903 0
M  V30 106 C 9.9246 -0.453635 -3.57735 0
M  V30 107 O 9.0286 0.538151 -4.08874 0
M  V30 108 H 8.3696 -0.159855 -0.644471 0
M  V30 109 H 10.8996 -1.07488 -1.7409 0
M  V30 110 H 10.9096 -0.318464 -4.06755 0
M  V30 111 H 9.5846 -1.45784 -3.89512 0
M  V30 112 H 8.1616 0.364359 -3.71116 0
M  V30 113 N 10.3467 1.47872 -0.545128 0
M  V30 114 C 11.5947 2.02093 -0.016553 0
M  V30 115 C 11.9157 1.42305 1.3332 0
M  V30 116 O 11.1857 0.593853 1.86682 0
M  V30 117 H 9.7657 0.746993 -0.00313038 0
M  V30 118 H 12.4277 1.81414 -0.712397 0
M  V30 119 H 11.5237 3.11996 0.0805422 0
M  V30 120 N 11.8248 0.280983 1.55075 0
M  V30 121 C 13.0728 -0.333455 1.9933 0
M  V30 122 C 13.3938 -1.55937 1.17085 0
M  V30 123 O 12.6638 -1.94143 0.261805 0
M  V30 124 H 11.2438 -0.126197 0.736263 0
M  V30 125 H 13.9058 0.387678 1.91005 0
M  V30 126 H 13.0018 -0.619292 3.05894 0
M  V30 127 N 13.3029 -1.57598 0.00835791 0
M  V30 128 C 14.5509 -1.90551 -0.6734 0
M  V30 129 C 14.8719 -0.883301 -1.73847 0
M  V30 130 O 14.1419 0.0781442 -1.95744 0
M  V30 131 H 12.7219 -0.703312 -0.251717 0
M  V30 132 H 15.3839 -1.94833 0.0512592 0
M  V30 133 H 14.4799 -2.9056 -1.13935 0
M  V30 134 N 14.781 0.264519 -1.55364 0
M  V30 135 C 16.027 0.99646 -1.76631 0
M  V30 136 C 16.36 1.85632 -0.570478 0
M  V30 137 O 15.635 1.89647 0.43175 0
M  V30 138 C 15.918 1.87187 -3.07625 0
M  V30 139 C 15.771 1.04138 -4.37579 0
M  V30 140 C 17.09 2.85749 -3.34717 0
M  V30 141 H 14.209 0.360841 -0.642622 0
M  V30 142 H 16.851 0.268218 -1.88097 0
M  V30 143 H 15.001 2.49279 -2.9798 0
M  V30 144 H 16.673 0.440517 -4.59192 0
M  V30 145 H 14.916 0.345115 -4.32425 0
M  V30 146 H 15.587 1.68729 -5.2558 0
M  V30 147 H 18.063 2.33793 -3.4421 0
M  V30 148 H 16.939 3.44136 -4.27623 0
M  V30 149 H 17.2 3.61311 -2.54768 0
M  V30 150 N 16.2591 1.48442 0.529413 0
M  V30 151 C 17.5051 1.5672 1.28711 0
M  V30 152 C 17.8381 0.2406 1.92704 0
M  V30 153 O 17.1131 -0.753454 1.79313 0
M  V30 154 C 17.3961 2.70587 2.37603 0
M  V30 155 C 17.2491 4.12953 1.78297 0
M  V30 156 C 18.5681 2.80212 3.39366 0
M  V30 157 H 15.6871 0.570474 0.466613 0
M  V30 158 H 18.3291 1.80617 0.589706 0
M  V30 159 H 16.4791 2.50342 2.97088 0
M  V30 160 H 18.1511 4.44639 1.22858 0
M  V30 161 H 16.3941 4.19927 1.0883 0
M  V30 162 H 17.0651 4.88448 2.57144 0
M  V30 163 H 19.5411 2.98553 2.89836 0
M  V30 164 H 18.4171 3.61611 4.12951 0
M  V30 165 H 18.6781 1.88393 3.99951 0
M  V30 166 N 17.7372 -0.778329 1.37039 0
M  V30 167 C 18.6692 -1.90034 1.2814 0
M  V30 168 C 19.6822 -1.61585 0.198558 0
M  V30 169 O 20.8712 -1.72625 0.454175 0
M  V30 170 C 17.9712 -3.25108 0.956968 0
M  V30 171 C 17.1442 -3.81253 2.14394 0
M  V30 172 C 16.2032 -4.94789 1.79082 0
M  V30 173 O 15.2292 -5.10721 2.51301 0
M  V30 174 N 16.4312 -5.75878 0.731043 0
M  V30 175 H 19.1962 -1.98186 2.24816 0
M  V30 176 H 16.7572 -0.957129 1.30578 0
M  V30 177 H 18.7492 -3.9857 0.701701 0
M  V30 178 H 17.3192 -3.125 0.0789812 0
M  V30 179 H 16.5392 -2.99647 2.56135 0
M  V30 180 H 17.8272 -4.15495 2.93668 0
M  V30 181 H 17.2252 -5.65547 0.131618 0
M  V30 182 H 15.7822 -6.49596 0.535622 0
M  V30 183 N 19.2153 -1.21501 -1.00376 0
M  V30 184 C 20.6263 -1.03146 -1.55621 0
M  V30 185 C 20.9773 0.408375 -1.91903 0
M  V30 186 O 20.1023 1.29177 -1.73616 0
M  V30 187 C 20.6973 -1.86612 -2.82775 0
M  V30 188 C 19.2563 -1.72586 -3.34501 0
M  V30 189 C 18.4033 -1.83747 -2.07683 0
M  V30 190 H 21.3543 -1.35505 -0.826081 0
M  V30 191 H 21.3753 -1.3771 -3.54706 0
M  V30 192 H 20.8873 -2.91399 -2.56336 0
M  V30 193 H 18.9883 -0.704877 -3.65872 0
M  V30 194 H 19.1013 -2.54623 -4.05837 0
M  V30 195 H 17.4653 -1.27069 -2.20739 0
M  V30 196 H 18.2483 -2.90044 -1.83655 0
M  V30 197 N 20.6934 1.19889 -1.02296 0
M  V30 198 C 21.9414 1.89046 -0.714558 0
M  V30 199 C 22.2624 1.79636 0.758681 0
M  V30 200 O 21.5324 1.20292 1.54618 0
M  V30 201 H 20.1124 0.699802 -0.261317 0
M  V30 202 H 22.7744 1.45574 -1.29592 0
M  V30 203 H 21.8704 2.95524 -1.0036 0
M  V30 204 N 22.1715 0.800033 1.35784 0
M  V30 205 C 23.5875 0.482977 1.52117 0
M  V30 206 C 23.7875 -0.996948 1.75109 0
M  V30 207 O 22.8435 -1.78216 1.78872 0
M  V30 208 C 24.1565 1.32264 2.70049 0
M  V30 209 C 25.7045 1.31742 2.83924 0
M  V30 210 C 26.1795 2.14106 4.04874 0
M  V30 211 N 27.6705 2.11607 4.12039 0
M  V30 212 C 28.4055 2.72099 5.04727 0
M  V30 213 N 27.9015 3.41492 6.02789 0
M  V30 214 N 29.6945 2.61776 4.97423 0
M  V30 215 H 21.8455 1.75856 1.19115 0
M  V30 216 H 24.1085 0.748122 0.582252 0
M  V30 217 H 23.8145 2.37261 2.59616 0
M  V30 218 H 23.6885 0.971303 3.6448 0
M  V30 219 H 26.0755 0.275333 2.93813 0
M  V30 220 H 26.1565 1.70859 1.9037 0
M  V30 221 H 25.8005 3.18351 3.95746 0
M  V30 222 H 25.7305 1.72353 4.97596 0
M  V30 223 H 28.2215 1.61112 3.41835 0
M  V30 224 H 28.5345 3.84953 6.70098 0
M  V30 225 H 26.8795 3.45596 6.02983 0
M  V30 226 H 30.0705 2.07157 4.19766 0
M  V30 227 H 30.2435 3.0921 5.69468 0
M  V30 228 N 23.6496 -1.47581 0.552962 0
M  V30 229 C 24.8746 -2.07378 0.0300593 0
M  V30 230 C 25.2996 -1.40355 -1.25229 0
M  V30 231 O 24.6576 -0.477099 -1.7491 0
M  V30 232 C 24.7056 -3.60274 -0.153231 0
M  V30 233 O 23.8096 -3.94041 -1.21678 0
M  V30 234 H 23.1506 -0.662158 0.0494182 0
M  V30 235 H 25.6806 -1.89662 0.767434 0
M  V30 236 H 25.6906 -4.0633 -0.368761 0
M  V30 237 H 24.3656 -4.08455 0.783397 0
M  V30 238 H 22.9426 -3.59735 -0.982079 0
M  V30 239 N 25.1277 -0.289203 -1.54924 0
M  V30 240 C 26.0577 0.58549 -2.2604 0
M  V30 241 C 27.0387 1.14753 -1.25562 0
M  V30 242 O 28.2237 1.17906 -1.54311 0
M  V30 243 C 25.3537 1.76305 -2.99222 0
M  V30 244 C 24.3077 1.33191 -4.06748 0
M  V30 245 C 23.6337 2.5937 -4.6758 0
M  V30 246 C 24.9337 0.471775 -5.20165 0
M  V30 247 H 26.6277 -0.00763532 -2.99399 0
M  V30 248 H 24.1737 -0.00511229 -1.43999 0
M  V30 249 H 26.1267 2.38097 -3.47689 0
M  V30 250 H 24.8507 2.38223 -2.23422 0
M  V30 251 H 23.5097 0.737121 -3.59113 0
M  V30 252 H 23.1577 3.19576 -3.88433 0
M  V30 253 H 22.8577 2.31228 -5.40192 0
M  V30 254 H 24.3817 3.21985 -5.18804 0
M  V30 255 H 25.7957 0.995056 -5.64599 0
M  V30 256 H 24.1927 0.284639 -5.99425 0
M  V30 257 H 25.2627 -0.506041 -4.82252 0
M  V30 258 N 26.6058 1.57591 -0.0167156 0
M  V30 259 C 28.0218 1.55946 0.339557 0
M  V30 260 C 28.2218 1.02109 1.73713 0
M  V30 261 O 27.2778 0.662303 2.43659 0
M  V30 262 C 28.5908 3.00037 0.199499 0
M  V30 263 C 30.1388 3.11805 0.273193 0
M  V30 264 C 30.6138 4.57713 0.162068 0
M  V30 265 N 32.1048 4.6268 0.219444 0
M  V30 266 C 32.8398 5.73185 0.157054 0
M  V30 267 N 32.3358 6.92786 0.0442936 0
M  V30 268 N 34.1288 5.61707 0.21014 0
M  V30 269 H 26.2798 1.90921 -0.930758 0
M  V30 270 H 28.5428 0.877674 -0.358319 0
M  V30 271 H 28.2488 3.4333 -0.76273 0
M  V30 272 H 28.1228 3.64387 0.974786 0
M  V30 273 H 30.5098 2.68433 1.22587 0
M  V30 274 H 30.5908 2.50201 -0.532256 0
M  V30 275 H 30.2348 5.01763 -0.78714 0
M  V30 276 H 30.1648 5.17283 0.986222 0
M  V30 277 H 32.6558 3.76649 0.307246 0
M  V30 278 H 32.9688 7.728 0.00304069 0
M  V30 279 H 31.3138 6.94999 0.00968457 0
M  V30 280 H 34.5048 4.6716 0.296546 0
M  V30 281 H 34.6778 6.47807 0.158054 0
M  V30 282 N 28.0839 -0.256276 1.55502 0
M  V30 283 C 29.0139 -1.32102 1.92539 0
M  V30 284 C 29.9949 -1.50684 0.789194 0
M  V30 285 O 31.1799 -1.63449 1.04872 0
M  V30 286 C 28.3099 -2.67752 2.21192 0
M  V30 287 C 27.2639 -2.63878 3.36975 0
M  V30 288 C 26.5899 -4.03236 3.51147 0
M  V30 289 C 27.8899 -2.21682 4.72921 0
M  V30 290 H 29.5839 -1.01351 2.81724 0
M  V30 291 H 27.1299 -0.486105 1.35547 0
M  V30 292 H 29.0829 -3.42365 2.45691 0
M  V30 293 H 27.8069 -3.0012 1.28824 0
M  V30 294 H 26.4659 -1.91722 3.12471 0
M  V30 295 H 26.1139 -4.32854 2.56216 0
M  V30 296 H 25.8139 -4.01535 4.29003 0
M  V30 297 H 27.3379 -4.79563 3.77957 0
M  V30 298 H 28.7519 -2.86023 4.96854 0
M  V30 299 H 27.1489 -2.3111 5.53812 0
M  V30 300 H 28.2189 -1.16833 4.70615 0
M  V30 301 N 29.562 -1.4872 -0.521534 0
M  V30 302 C 30.787 -1.61101 -1.30618 0
M  V30 303 C 31.212 -0.274611 -1.86085 0
M  V30 304 O 30.57 0.754937 -1.64834 0
M  V30 305 C 30.618 -2.66709 -2.4269 0
M  V30 306 O 29.722 -2.24456 -3.45967 0
M  V30 307 H 29.063 -0.539921 -0.386499 0
M  V30 308 H 31.593 -1.94767 -0.626645 0
M  V30 309 H 31.603 -2.88245 -2.88754 0
M  V30 310 H 30.278 -3.63727 -2.01682 0
M  V30 311 H 28.855 -2.13168 -3.05964 0
M  V30 312 N 31.0401 0.771051 -1.3745 0
M  V30 313 C 32.2801 1.54264 -1.34096 0
M  V30 314 C 32.6441 1.91858 0.0737639 0
M  V30 315 O 33.8451 2.67797 0.23203 0
M  V30 316 C 32.1161 2.77326 -2.25445 0
M  V30 317 S 33.6751 3.67383 -2.39948 0
M  V30 318 H 30.4931 0.528122 -0.476034 0
M  V30 319 H 33.0951 0.906633 -1.73206 0
M  V30 320 H 31.7991 2.47788 -3.27153 0
M  V30 321 H 31.3301 3.45886 -1.87421 0
M  V30 322 H 33.3451 4.69334 -1.61059 0
M  V30 323 N 32.5182 1.22032 0.997298 0
M  V30 324 C 33.4812 0.987909 2.06816 0
M  V30 325 C 34.4812 -0.0440084 1.6074 0
M  V30 326 O 35.6712 0.194053 1.73116 0
M  V30 327 C 32.8032 0.49132 3.37341 0
M  V30 328 H 33.9962 1.93803 2.28868 0
M  V30 329 H 31.5492 1.03838 1.16822 0
M  V30 330 H 32.2842 -0.463364 3.20973 0
M  V30 331 H 32.0692 1.23575 3.72118 0
M  V30 332 H 33.5592 0.348824 4.16141 0
M  V30 333 N 33.9963 -1.19345 1.0293 0
M  V30 334 C 34.9593 -2.20793 0.615069 0
M  V30 335 C 35.9593 -1.57553 -0.321533 0
M  V30 336 O 37.1493 -1.73862 -0.108483 0
M  V30 337 C 34.2813 -3.40754 -0.0999222 0
M  V30 338 H 35.4743 -2.58955 1.51269 0
M  V30 339 H 33.0273 -1.3303 0.820534 0
M  V30 340 H 33.7623 -3.0811 -1.01187 0
M  V30 341 H 33.5473 -3.87889 0.57309 0
M  V30 342 H 35.0373 -4.15898 -0.376645 0
M  V30 343 N 35.4744 -0.807222 -1.35358 0
M  V30 344 C 36.6994 -0.399309 -2.0352 0
M  V30 345 C 37.1244 0.981986 -1.60433 0
M  V30 346 O 36.4824 1.63601 -0.781299 0
M  V30 347 C 36.5304 -0.491552 -3.57234 0
M  V30 348 O 35.6344 0.494754 -4.09421 0
M  V30 349 H 34.9754 -0.166682 -0.642739 0
M  V30 350 H 37.5054 -1.09328 -1.72941 0
M  V30 351 H 37.5154 -0.361588 -4.06395 0
M  V30 352 H 36.1904 -1.49907 -3.87944 0
M  V30 353 H 34.7674 0.324977 -3.71481 0
M  V30 354 N 36.9525 1.47285 -0.560781 0
M  V30 355 C 38.2005 2.02064 -0.0379868 0
M  V30 356 C 38.5215 1.43711 1.31803 0
M  V30 357 O 37.7915 0.61362 1.86042 0
M  V30 358 H 36.3715 0.746918 -0.0110531 0
M  V30 359 H 39.0335 1.80648 -0.731598 0
M  V30 360 H 38.1295 3.12064 0.0474463 0
M  V30 361 N 38.4306 0.297415 1.54768 0
M  V30 362 C 39.6776 -0.312913 2.00068 0
M  V30 363 C 40.0056 -1.54171 1.18582 0
M  V30 364 O 39.2606 -1.94108 0.249133 0
M  V30 365 C 39.5596 -0.717561 3.50123 0
M  V30 366 C 39.2256 0.409095 4.4904 0
M  V30 367 C 37.8876 0.718399 4.75807 0
M  V30 368 C 40.2396 1.16717 5.07963 0
M  V30 369 C 37.5676 1.78896 5.5876 0
M  V30 370 C 39.9196 2.22762 5.92081 0
M  V30 371 C 38.5836 2.54303 6.1716 0
M  V30 372 H 37.8536 -0.114503 0.7321 0
M  V30 373 H 40.5006 0.415767 1.86932 0
M  V30 374 H 38.8056 -1.52627 3.60849 0
M  V30 375 H 40.5026 -1.20091 3.82595 0
M  V30 376 H 37.0926 0.157918 4.28309 0
M  V30 377 H 41.2766 0.941466 4.87289 0
M  V30 378 H 36.5326 2.0381 5.7643 0
M  V30 379 H 40.7066 2.81962 6.36765 0
M  V30 380 H 38.3336 3.3739 6.81229 0
M  V30 381 N 39.9087 -1.5758 0.0250728 0
M  V30 382 C 41.1367 -1.9593 -0.664747 0
M  V30 383 C 41.5517 -0.901352 -1.65895 0
M  V30 384 O 40.9087 0.117255 -1.82123 0
M  V30 385 C 40.9597 -3.34342 -1.37468 0
M  V30 386 O 40.6807 -4.36079 -0.420324 0
M  V30 387 C 42.1817 -3.873 -2.1567 0
M  V30 388 H 39.4017 -0.645405 -0.183557 0
M  V30 389 H 41.9457 -2.04329 0.0836372 0
M  V30 390 H 40.1007 -3.27175 -2.0745 0
M  V30 391 H 40.5147 -5.16297 -0.923991 0
M  V30 392 H 41.9887 -4.86504 -2.60803 0
M  V30 393 H 42.4657 -3.21331 -2.99405 0
M  V30 394 H 43.0717 -3.97723 -1.50654 0
M  V30 395 N 41.3868 0.248026 -1.55636 0
M  V30 396 C 42.6338 0.976224 -1.77415 0
M  V30 397 C 42.9618 1.85361 -0.589193 0
M  V30 398 O 42.2168 1.90973 0.427529 0
M  V30 399 C 42.5158 1.86819 -3.04686 0
M  V30 400 C 42.1818 1.14625 -4.36087 0
M  V30 401 C 40.8438 0.946723 -4.71795 0
M  V30 402 C 43.1958 0.634463 -5.17324 0
M  V30 403 C 40.5238 0.223091 -5.86276 0
M  V30 404 C 42.8758 -0.0756959 -6.32555 0
M  V30 405 C 41.5398 -0.286711 -6.66884 0
M  V30 406 H 40.8098 0.357226 -0.649208 0
M  V30 407 H 43.4568 0.246415 -1.89908 0
M  V30 408 H 41.7618 2.66502 -2.872 0
M  V30 409 H 43.4588 2.43329 -3.18735 0
M  V30 410 H 40.0488 1.3117 -4.08035 0
M  V30 411 H 44.2328 0.77616 -4.90193 0
M  V30 412 H 39.4888 0.0491185 -6.1138 0
M  V30 413 H 43.6628 -0.479899 -6.94745 0
M  V30 414 H 41.2898 -0.849389 -7.5544 0
M  V30 415 N 42.8649 1.48995 0.513639 0
M  V30 416 C 44.0899 1.61792 1.29762 0
M  V30 417 C 44.5149 0.284475 1.85936 0
M  V30 418 O 43.8729 -0.746185 1.65232 0
M  V30 419 C 43.9209 2.67993 2.41272 0
M  V30 420 O 43.0249 2.26287 3.44772 0
M  V30 421 H 42.3659 0.541963 0.38363 0
M  V30 422 H 44.8959 1.95097 0.616307 0
M  V30 423 H 44.9059 2.89772 2.87221 0
M  V30 424 H 43.5809 3.64791 1.9975 0
M  V30 425 H 42.1579 2.14788 3.04829 0
M  V30 426 N 44.343 -0.763751 1.37857 0
M  V30 427 C 45.571 -1.55293 1.36718 0
M  V30 428 C 45.986 -1.88745 -0.0455434 0
M  V30 429 O 45.343 -1.52039 -1.00947 0
M  V30 430 C 45.394 -2.85831 2.2132 0
M  V30 431 O 45.115 -2.5381 3.57089 0
M  V30 432 C 46.616 -3.80023 2.28249 0
M  V30 433 H 43.836 -0.480841 0.468009 0
M  V30 434 H 46.38 -0.946009 1.81303 0
M  V30 435 H 44.535 -3.42926 1.80223 0
M  V30 436 H 44.949 -3.37459 4.01524 0
M  V30 437 H 46.423 -4.68599 2.91752 0
M  V30 438 H 46.9 -4.1973 1.2932 0
M  V30 439 H 47.506 -3.28855 2.69693 0
M  V30 440 N 45.8211 -1.22559 -0.990812 0
M  V30 441 C 47.0511 -1.07623 -1.76355 0
M  V30 442 C 47.4591 0.37601 -1.85426 0
M  V30 443 O 46.8021 1.27228 -1.32509 0
M  V30 444 C 46.8641 -1.61507 -3.21179 0
M  V30 445 C 46.5281 -3.10146 -3.35646 0
M  V30 446 C 47.5251 -4.07553 -3.22796 0
M  V30 447 C 45.2101 -3.49644 -3.60631 0
M  V30 448 C 47.2041 -5.42442 -3.34716 0
M  V30 449 C 44.8911 -4.84682 -3.72192 0
M  V30 450 C 45.8891 -5.8089 -3.59243 0
M  V30 451 O 45.5771 -7.13476 -3.70415 0
M  V30 452 H 45.3091 -0.377745 -0.560611 0
M  V30 453 H 47.8631 -1.62658 -1.25425 0
M  V30 454 H 46.0931 -1.00881 -3.73309 0
M  V30 455 H 47.7821 -1.42202 -3.80175 0
M  V30 456 H 48.5481 -3.78381 -3.03403 0
M  V30 457 H 44.4271 -2.75282 -3.69785 0
M  V30 458 H 47.9711 -6.17518 -3.24526 0
M  V30 459 H 43.8681 -5.13534 -3.91092 0
M  V30 460 H 44.6361 -7.21083 -3.87275 0
M  V30 461 N 47.2992 1.18797 -1.03562 0
M  V30 462 C 48.5472 1.88278 -0.734569 0
M  V30 463 C 48.8682 1.8043 0.739586 0
M  V30 464 O 48.1382 1.21925 1.53333 0
M  V30 465 H 46.7182 0.696991 -0.268725 0
M  V30 466 H 49.3802 1.44192 -1.31129 0
M  V30 467 H 48.4762 2.94443 -1.03489 0
M  V30 468 N 48.7773 0.814389 1.34928 0
M  V30 469 C 49.7103 0.175641 2.27523 0
M  V30 470 C 50.6883 -0.662953 1.48471 0
M  V30 471 O 51.8723 -0.628545 1.77712 0
M  V30 472 C 48.9993 -0.755516 3.30166 0
M  V30 473 C 48.0453 0.00445305 4.265 0
M  V30 474 S 48.8783 1.34582 5.18313 0
M  V30 475 C 50.0343 0.419315 6.24494 0
M  V30 476 H 50.2673 0.960691 2.8135 0
M  V30 477 H 47.8003 0.609846 1.41846 0
M  V30 478 H 49.7583 -1.28723 3.89796 0
M  V30 479 H 48.4193 -1.51402 2.75202 0
M  V30 480 H 47.6123 -0.703077 4.99072 0
M  V30 481 H 47.2143 0.466447 3.7108 0
M  V30 482 H 49.5063 -0.392432 6.76362 0
M  V30 483 H 50.4493 1.11446 6.99275 0
M  V30 484 H 50.8573 0.0115389 5.64499 0
M  V30 485 N 50.2554 -1.46986 0.568584 0
M  V30 486 C 51.2054 -2.27179 -0.193339 0
M  V30 487 C 52.1894 -1.35035 -0.874895 0
M  V30 488 O 53.3814 -1.5931 -0.771322 0
M  V30 489 C 50.5104 -3.21063 -1.21546 0
M  V30 490 C 49.5964 -4.2069 -0.536738 0
M  V30 491 N 49.9874 -5.04218 0.399673 0
M  V30 492 C 48.2854 -4.38961 -0.789254 0
M  V30 493 C 48.9864 -5.76242 0.795017 0
M  V30 494 N 47.9624 -5.434 0.1473 0
M  V30 495 H 51.7644 -2.89146 0.526458 0
M  V30 496 H 49.2784 -1.57664 0.389342 0
M  V30 497 H 51.2754 -3.77209 -1.77536 0
M  V30 498 H 49.9354 -2.60654 -1.93623 0
M  V30 499 H 50.9464 -5.12077 0.774454 0
M  V30 500 H 47.6234 -3.89713 -1.49767 0
M  V30 501 H 49.0134 -6.53417 1.56513 0
M  V30 502 N 51.7335 -0.305618 -1.54608 0
M  V30 503 C 52.9795 0.295595 -2.01241 0
M  V30 504 C 53.3345 1.51171 -1.19018 0
M  V30 505 O 52.6275 1.89832 -0.259684 0
M  V30 506 C 52.8215 0.698983 -3.50498 0
M  V30 507 C 52.6505 -0.476491 -4.47168 0
M  V30 508 C 51.4205 -0.969963 -4.95903 0
M  V30 509 C 53.6185 -1.32294 -4.96994 0
M  V30 510 N 51.6005 -2.11172 -5.76437 0
M  V30 511 C 52.9715 -2.31212 -5.75275 0
M  V30 512 C 55.0265 -1.35278 -4.7917 0
M  V30 513 C 53.7295 -3.32896 -6.37631 0
M  V30 514 C 55.7555 -2.35823 -5.42348 0
M  V30 515 C 55.1175 -3.33469 -6.20466 0
M  V30 516 H 51.2165 0.0724992 -0.778632 0
M  V30 517 H 53.8005 -0.436583 -1.89742 0
M  V30 518 H 51.9715 1.40032 -3.62278 0
M  V30 519 H 53.7035 1.28013 -3.8392 0
M  V30 520 H 50.4585 -0.544178 -4.70463 0
M  V30 521 H 50.8825 -2.68714 -6.21387 0
M  V30 522 H 55.5245 -0.61157 -4.18354 0
M  V30 523 H 53.2425 -4.07933 -6.97579 0
M  V30 524 H 56.8285 -2.38911 -5.30484 0
M  V30 525 H 55.7085 -4.09996 -6.68485 0
M  V30 526 N 53.2116 1.57565 -0.0334293 0
M  V30 527 C 54.4576 1.92262 0.645226 0
M  V30 528 C 54.7906 0.910543 1.71531 0
M  V30 529 O 54.0656 -0.066099 1.94388 0
M  V30 530 C 54.3486 3.37422 1.2577 0
M  V30 531 C 54.2016 4.49369 0.196891 0
M  V30 532 C 55.5206 3.82628 2.17449 0
M  V30 533 H 52.6396 0.699171 0.233085 0
M  V30 534 H 55.2816 1.89779 -0.0915694 0
M  V30 535 H 53.4316 3.39669 1.88566 0
M  V30 536 H 55.1036 4.59254 -0.433962 0
M  V30 537 H 53.3466 4.31168 -0.477137 0
M  V30 538 H 54.0176 5.47978 0.665124 0
M  V30 539 H 56.4936 3.82145 1.64634 0
M  V30 540 H 55.3696 4.84883 2.57254 0
M  V30 541 H 55.6306 3.18376 3.0674 0
M  V30 542 N 54.6897 -0.239769 1.55765 0
M  V30 543 C 56.1057 -0.588624 1.48349 0
M  V30 544 C 56.3057 -1.88005 0.72502 0
M  V30 545 O 55.3617 -2.51186 0.257269 0
M  V30 546 C 56.6747 -0.68474 2.928 0
M  V30 547 C 58.2227 -0.77659 3.03213 0
M  V30 548 C 58.6977 -0.904207 4.48986 0
M  V30 549 N 60.1887 -0.968896 4.52953 0
M  V30 550 C 60.9237 -1.08703 5.63002 0
M  V30 551 N 60.4197 -1.17026 6.82845 0
M  V30 552 N 62.2127 -1.12074 5.50814 0
M  V30 553 H 54.3637 0.607911 2.03515 0
M  V30 554 H 56.6267 0.21083 0.924259 0
M  V30 555 H 56.3327 0.194284 3.51163 0
M  V30 556 H 56.2067 -1.55435 3.43686 0
M  V30 557 H 58.5937 -1.64606 2.44926 0
M  V30 558 H 58.6747 0.118315 2.55526 0
M  V30 559 H 58.3187 -0.0392633 5.07885 0
M  V30 560 H 58.2487 -1.81426 4.9436 0
M  V30 561 H 60.7397 -0.915633 3.6664 0
M  V30 562 H 61.0527 -1.25966 7.62465 0
M  V30 563 H 59.3977 -1.13971 6.85591 0
M  V30 564 H 62.5887 -1.05226 4.5612 0
M  V30 565 H 62.7617 -1.20936 6.36615 0
M  V30 566 N 56.1678 -1.49265 -0.50573 0
M  V30 567 C 57.0998 -1.617 -1.62437 0
M  V30 568 C 58.1128 -0.499924 -1.54934 0
M  V30 569 O 59.3018 -0.771785 -1.60953 0
M  V30 570 C 56.4018 -1.5533 -3.01207 0
M  V30 571 C 55.5748 -2.8249 -3.33943 0
M  V30 572 C 54.6338 -2.69238 -4.52103 0
M  V30 573 O 53.6598 -3.43167 -4.5412 0
M  V30 574 N 54.8618 -1.80468 -5.51735 0
M  V30 575 H 57.6268 -2.58177 -1.52199 0
M  V30 576 H 55.1878 -1.46294 -0.693511 0
M  V30 577 H 57.1798 -1.44125 -3.78167 0
M  V30 578 H 55.7498 -0.667297 -3.05395 0
M  V30 579 H 54.9698 -3.08081 -2.45926 0
M  V30 580 H 56.2578 -3.66802 -3.5261 0
M  V30 581 H 55.6558 -1.19653 -5.52901 0
M  V30 582 H 54.2128 -1.75188 -6.27816 0
M  V30 583 N 57.6459 0.756429 -1.3826 0
M  V30 584 C 58.6089 1.85176 -1.35065 0
M  V30 585 C 59.6089 1.58818 -0.251703 0
M  V30 586 O 60.7989 1.66615 -0.508433 0
M  V30 587 C 57.9309 3.22596 -1.10201 0
M  V30 588 H 59.1239 1.89417 -2.3251 0
M  V30 589 H 56.6769 0.95783 -1.23512 0
M  V30 590 H 57.4119 3.24025 -0.133504 0
M  V30 591 H 57.1969 3.43122 -1.89762 0
M  V30 592 H 58.6869 4.02673 -1.10654 0
M  V30 593 N 59.124 1.23083 0.984299 0
M  V30 594 C 60.535 1.05609 1.5396 0
M  V30 595 C 60.886 -0.377793 1.92528 0
M  V30 596 O 60.011 -1.26398 1.75649 0
M  V30 597 C 60.606 1.91087 2.7977 0
M  V30 598 C 59.165 1.77885 3.31713 0
M  V30 599 C 58.312 1.87028 2.04733 0
M  V30 600 H 61.263 1.36802 0.804419 0
M  V30 601 H 61.284 1.43336 3.5247 0
M  V30 602 H 60.796 2.9544 2.51668 0
M  V30 603 H 58.897 0.762995 3.64704 0
M  V30 604 H 59.01 2.61047 4.01735 0
M  V30 605 H 57.374 1.30565 2.18689 0
M  V30 606 H 58.157 2.92929 1.79017 0
M  V30 607 N 60.6021 -1.18246 1.0419 0
M  V30 608 C 61.8501 -1.87886 0.744543 0
M  V30 609 C 62.1711 -1.8082 -0.730006 0
M  V30 610 O 61.4411 -1.22736 -1.52685 0
M  V30 611 H 60.0211 -0.695556 0.272417 0
M  V30 612 H 62.6831 -1.43494 1.31892 0
M  V30 613 H 61.7791 -2.9389 1.05049 0
M  V30 614 N 62.0802 -0.821533 -1.34494 0
M  V30 615 C 63.0272 -0.240397 -2.29545 0
M  V30 616 C 63.9972 0.634031 -1.53523 0
M  V30 617 O 65.1822 0.575966 -1.81899 0
M  V30 618 C 62.3222 0.592869 -3.39969 0
M  V30 619 C 61.4352 -0.30365 -4.30932 0
M  V30 620 C 60.5702 0.539049 -5.28458 0
M  V30 621 C 59.6092 -0.356942 -6.11058 0
M  V30 622 N 58.7462 0.446603 -7.00678 0
M  V30 623 H 63.5862 -1.05632 -2.7865 0
M  V30 624 H 61.1232 -0.532413 -1.37127 0
M  V30 625 H 63.0812 1.09129 -4.02675 0
M  V30 626 H 61.7112 1.37392 -2.92102 0
M  V30 627 H 60.7632 -0.920276 -3.691 0
M  V30 628 H 62.0752 -0.992661 -4.88823 0
M  V30 629 H 61.2292 1.102 -5.96608 0
M  V30 630 H 59.9682 1.26157 -4.71101 0
M  V30 631 H 58.9732 -0.932047 -5.41842 0
M  V30 632 H 60.1982 -1.07755 -6.70497 0
M  V30 633 H 58.1442 1.15282 -6.45791 0
M  V30 634 H 58.0612 -0.184048 -7.55776 0
M  V30 635 H 59.3292 0.992352 -7.73158 0
M  V30 636 N 63.5583 1.46682 -0.576371 0
M  V30 637 C 64.8063 2.02013 -0.0594163 0
M  V30 638 C 65.1273 1.45101 1.30271 0
M  V30 639 O 64.3973 0.633317 1.8538 0
M  V30 640 H 62.9773 0.746759 -0.0189745 0
M  V30 641 H 65.6393 1.79862 -0.750717 0
M  V30 642 H 64.7353 3.12097 0.014345 0
M  V30 643 N 65.0364 0.313813 1.54444 0
M  V30 644 C 65.9664 -0.549454 2.26943 0
M  V30 645 C 66.9474 -1.12741 1.27372 0
M  V30 646 O 68.1324 -1.15436 1.56167 0
M  V30 647 C 65.2624 -1.71523 3.01989 0
M  V30 648 C 64.2164 -1.26703 4.08816 0
M  V30 649 C 63.5424 -2.51898 4.71647 0
M  V30 650 C 64.8424 -0.388962 5.2085 0
M  V30 651 H 66.5364 0.0552661 2.99349 0
M  V30 652 H 64.0824 0.0280207 1.43973 0
M  V30 653 H 66.0354 -2.32535 3.51433 0
M  V30 654 H 64.7594 -2.34639 2.27183 0
M  V30 655 H 63.4184 -0.679896 3.6024 0
M  V30 656 H 63.0664 -3.13356 3.93468 0
M  V30 657 H 62.7664 -2.22605 5.43802 0
M  V30 658 H 64.2904 -3.1369 5.23861 0
M  V30 659 H 65.7044 -0.905107 5.6611 0
M  V30 660 H 64.1014 -0.18924 5.99802 0
M  V30 661 H 65.1714 0.582699 4.81386 0
M  V30 662 N 66.5145 -1.57545 0.0417849 0
M  V30 663 C 67.4245 -2.14451 -0.951213 0
M  V30 664 C 68.4405 -1.09992 -1.34825 0
M  V30 665 O 69.6165 -1.42114 -1.42708 0
M  V30 666 C 66.6815 -2.67063 -2.21084 0
M  V30 667 C 65.7425 -3.86284 -1.87304 0
M  V30 668 C 64.9755 -4.36378 -3.07261 0
M  V30 669 O 65.1985 -3.85587 -4.20332 0
M  V30 670 O 64.1325 -5.28077 -2.88822 0
M  V30 671 H 67.9585 -2.99601 -0.497287 0
M  V30 672 H 65.5435 -1.48317 -0.179567 0
M  V30 673 H 67.4255 -3.00914 -2.95006 0
M  V30 674 H 66.1005 -1.84989 -2.65633 0
M  V30 675 H 65.0075 -3.57338 -1.10727 0
M  V30 676 H 66.3405 -4.6956 -1.47562 0
M  V30 677 N 67.9926 0.231505 -1.5589 0
M  V30 678 C 69.2386 0.954429 -1.79617 0
M  V30 679 C 69.5936 1.82367 -0.613199 0
M  V30 680 O 68.8866 1.87524 0.393094 0
M  V30 681 C 69.0806 1.83577 -3.0665 0
M  V30 682 C 68.9096 1.05334 -4.3719 0
M  V30 683 C 67.6796 0.75225 -4.99669 0
M  V30 684 C 69.8776 0.423444 -5.12554 0
M  V30 685 N 67.8596 -0.052627 -6.13877 0
M  V30 686 C 69.2306 -0.245287 -6.19515 0
M  V30 687 C 71.2856 0.335466 -4.96769 0
M  V30 688 C 69.9886 -0.993566 -7.12405 0
M  V30 689 C 72.0146 -0.399321 -5.9005 0
M  V30 690 C 71.3766 -1.05663 -6.9643 0
M  V30 691 H 67.4756 0.329846 -0.709031 0
M  V30 692 H 70.0596 0.226172 -1.93382 0
M  V30 693 H 68.2306 2.53592 -2.94186 0
M  V30 694 H 69.9626 2.49541 -3.18608 0
M  V30 695 H 66.7176 1.06783 -4.61405 0
M  V30 696 H 67.1416 -0.443609 -6.75545 0
M  V30 697 H 71.7836 0.829311 -4.14587 0
M  V30 698 H 69.5016 -1.49896 -7.94076 0
M  V30 699 H 73.0876 -0.468265 -5.79913 0
M  V30 700 H 71.9676 -1.61612 -7.67366 0
M  V30 701 N 69.4707 1.49531 0.497807 0
M  V30 702 C 70.7167 1.59415 1.25358 0
M  V30 703 C 71.0497 0.281422 1.9215 0
M  V30 704 O 70.3247 -0.715249 1.80871 0
M  V30 705 C 70.6077 2.75566 2.3181 0
M  V30 706 C 70.4607 4.16642 1.69498 0
M  V30 707 C 71.7797 2.87347 3.33346 0
M  V30 708 H 68.8987 0.580244 0.454408 0
M  V30 709 H 71.5407 1.81827 0.551262 0
M  V30 710 H 69.6907 2.56587 2.91711 0
M  V30 711 H 71.3627 4.47145 1.13399 0
M  V30 712 H 69.6057 4.22141 0.998978 0
M  V30 713 H 70.2767 4.93792 2.46725 0
M  V30 714 H 72.7527 3.04634 2.83438 0
M  V30 715 H 71.6287 3.70289 4.05188 0
M  V30 716 H 71.8897 1.96834 3.95865 0
M  V30 717 N 70.9488 -0.749086 1.3866 0
M  V30 718 C 71.9118 -1.84457 1.36045 0
M  V30 719 C 72.9118 -1.58682 0.260122 0
M  V30 720 O 74.1018 -1.66343 0.517261 0
M  V30 721 C 71.2338 -3.22008 1.11911 0
M  V30 722 H 72.4268 -1.88182 2.33512 0
M  V30 723 H 69.9798 -0.951266 1.24019 0
M  V30 724 H 70.7148 -3.2395 0.150686 0
M  V30 725 H 70.4998 -3.42111 1.91579 0
M  V30 726 H 71.9898 -4.0208 1.12788 0
M  V30 727 N 72.4269 -1.23603 -0.977757 0
M  V30 728 C 73.6729 -1.07129 -1.72195 0
M  V30 729 C 74.0059 0.390501 -1.90233 0
M  V30 730 O 73.2809 1.28902 -1.45653 0
M  V30 731 C 73.5639 -1.80031 -3.11867 0
M  V30 732 C 73.4169 -3.33899 -3.01383 0
M  V30 733 C 74.7359 -1.56492 -4.11337 0
M  V30 734 H 71.8549 -0.390571 -0.624999 0
M  V30 735 H 74.4969 -1.52142 -1.13811 0
M  V30 736 H 72.6469 -1.41768 -3.6171 0
M  V30 737 H 74.3189 -3.81699 -2.59043 0
M  V30 738 H 72.5619 -3.62796 -2.37827 0
M  V30 739 H 73.2329 -3.801 -4.00285 0
M  V30 740 H 75.7089 -1.89757 -3.70313 0
M  V30 741 H 74.5849 -2.09973 -5.07151 0
M  V30 742 H 74.8459 -0.500874 -4.39254 0
M  V30 743 N 73.905 1.17692 -1.04816 0
M  V30 744 C 75.154 1.87192 -0.751132 0
M  V30 745 C 75.467 1.8169 0.724441 0
M  V30 746 O 76.673 2.46625 1.13527 0
M  V30 747 C 75.129 3.35857 -1.29338 0
M  V30 748 C 74.737 3.4987 -2.79812 0
M  V30 749 C 76.481 4.10709 -1.07322 0
M  V30 750 C 74.388 4.92536 -3.27356 0
M  V30 751 H 73.318 0.701162 -0.277288 0
M  V30 752 H 75.969 1.32932 -1.26496 0
M  V30 753 H 74.351 3.89631 -0.707376 0
M  V30 754 H 75.525 3.06332 -3.44235 0
M  V30 755 H 73.84 2.88433 -3.00325 0
M  V30 756 H 76.437 5.15952 -1.4035 0
M  V30 757 H 76.78 4.16299 -0.0108001 0
M  V30 758 H 77.313 3.6313 -1.62423 0
M  V30 759 H 74.052 4.92119 -4.33012 0
M  V30 760 H 73.572 5.3676 -2.67673 0
M  V30 761 H 75.251 5.61288 -3.21815 0
M  V30 762 N 75.3831 0.828654 1.34056 0
M  V30 763 C 76.6291 0.429279 1.98818 0
M  V30 764 C 76.9841 -0.998011 1.64492 0
M  V30 765 O 76.2771 -1.68652 0.909228 0
M  V30 766 C 76.4711 0.575226 3.52741 0
M  V30 767 C 76.3001 2.01515 4.02022 0
M  V30 768 C 75.0701 2.64825 4.30344 0
M  V30 769 C 77.2681 2.98261 4.18981 0
M  V30 770 N 75.2501 3.99998 4.65698 0
M  V30 771 C 76.6211 4.18356 4.57578 0
M  V30 772 C 78.6761 2.94802 4.01243 0
M  V30 773 C 77.3791 5.35454 4.80293 0
M  V30 774 C 79.4051 4.11121 4.25128 0
M  V30 775 C 78.7671 5.29969 4.64018 0
M  V30 776 H 74.8661 0.205304 0.754569 0
M  V30 777 H 77.4501 1.07457 1.62361 0
M  V30 778 H 75.6211 -0.0401962 3.88379 0
M  V30 779 H 77.3531 0.148292 4.04428 0
M  V30 780 H 74.1081 2.16027 4.21461 0
M  V30 781 H 74.5321 4.69653 4.87601 0
M  V30 782 H 79.1741 2.04054 3.70299 0
M  V30 783 H 76.8921 6.26755 5.10102 0
M  V30 784 H 80.4781 4.0985 4.12934 0
M  V30 785 H 79.3581 6.18479 4.82134 0
M  V30 786 N 76.8612 -1.46375 0.584142 0
M  V30 787 C 78.1382 -1.956 0.0033388 0
M  V30 788 C 78.5182 -1.52679 -1.45782 0
M  V30 789 O 77.8662 -0.77816 -2.14842 0
M  V30 790 C 78.0762 -3.48551 0.176891 0
M  V30 791 C 79.4242 -4.24576 0.0454609 0
M  V30 792 O 80.4482 -3.56043 0.105801 0
M  V30 793 O 79.3072 -5.46427 -0.0890376 0
M  V30 794 H 76.4012 -0.825547 -0.0490066 0
M  V30 795 H 78.9472 -1.56652 0.65256 0
M  V30 796 H 77.7192 -3.72683 1.1926 0
M  V30 797 H 77.3422 -3.94332 -0.508695 0
M  V30 798 N 78.3393 -0.321999 -1.54275 0
M  V30 799 C 79.6163 0.335232 -1.92706 0
M  V30 800 C 79.9963 1.70006 -1.25145 0
M  V30 801 O 79.3443 2.25067 -0.394596 0
M  V30 802 C 79.5543 0.429008 -3.46353 0
M  V30 803 C 80.9023 0.690029 -4.18956 0
M  V30 804 O 81.9263 0.511992 -3.52501 0
M  V30 805 O 80.7853 1.03338 -5.36641 0
M  V30 806 H 77.8793 0.191143 -0.804608 0
M  V30 807 H 80.4253 -0.3716 -1.65581 0
M  V30 808 H 79.1973 -0.529611 -3.87699 0
M  V30 809 H 78.8203 1.18348 -3.79578 0
M  V30 810 N 79.8174 1.5752 -0.0501392 0
M  V30 811 C 81.0654 1.9227 0.622642 0
M  V30 812 C 81.3864 0.929083 1.71444 0
M  V30 813 O 80.6564 -0.0262186 1.95882 0
M  V30 814 H 79.2364 0.709739 0.232981 0
M  V30 815 H 81.8984 1.94628 -0.102898 0
M  V30 816 H 80.9944 2.93479 1.06191 0
M  V30 817 N 81.2955 -0.223234 1.56011 0
M  V30 818 C 82.5205 -0.968978 1.83373 0
M  V30 819 C 82.9455 -1.77227 0.630254 0
M  V30 820 O 82.3035 -1.76345 -0.420959 0
M  V30 821 C 82.3515 -1.86363 3.08709 0
M  V30 822 O 81.4555 -2.95873 2.87285 0
M  V30 823 H 80.7965 -0.274461 0.604622 0
M  V30 824 H 83.3265 -0.237056 2.03222 0
M  V30 825 H 83.3365 -2.27376 3.38768 0
M  V30 826 H 82.0115 -1.27319 3.95933 0
M  V30 827 H 80.5885 -2.58818 2.68454 0
M  V30 828 N 82.7736 -1.49793 -0.48987 0
M  V30 829 C 84.0036 -1.6333 -1.26518 0
M  V30 830 C 84.4116 -0.308392 -1.8667 0
M  V30 831 O 83.7546 0.717512 -1.69108 0
M  V30 832 C 83.8166 -2.6522 -2.4269 0
M  V30 833 C 83.4806 -4.09279 -2.03321 0
M  V30 834 C 84.4776 -4.95738 -1.56652 0
M  V30 835 C 82.1626 -4.55082 -2.12616 0
M  V30 836 C 84.1566 -6.26041 -1.19795 0
M  V30 837 C 81.8436 -5.85396 -1.75371 0
M  V30 838 C 82.8416 -6.707 -1.29036 0
M  V30 839 O 82.5296 -7.98584 -0.92299 0
M  V30 840 H 82.2616 -0.552502 -0.389509 0
M  V30 841 H 84.8156 -1.96642 -0.593381 0
M  V30 842 H 83.0456 -2.27112 -3.12981 0
M  V30 843 H 84.7346 -2.68171 -3.04695 0
M  V30 844 H 85.5006 -4.61575 -1.48908 0
M  V30 845 H 81.3796 -3.88844 -2.47631 0
M  V30 846 H 84.9236 -6.92578 -0.835582 0
M  V30 847 H 80.8206 -6.19085 -1.82768 0
M  V30 848 H 81.5886 -8.11692 -1.05349 0
M  V30 849 N 84.2517 0.741722 -1.39055 0
M  V30 850 C 85.1987 1.85566 -1.37237 0
M  V30 851 C 86.1687 1.64457 -0.233072 0
M  V30 852 O 87.3537 1.85957 -0.427147 0
M  V30 853 C 84.4937 3.23004 -1.215 0
M  V30 854 C 83.6067 3.55864 -2.44918 0
M  V30 855 C 82.7417 4.82669 -2.21821 0
M  V30 856 C 81.7807 5.08351 -3.40948 0
M  V30 857 N 80.9177 6.26356 -3.17211 0
M  V30 858 H 85.7577 1.86455 -2.32462 0
M  V30 859 H 83.2947 0.911176 -1.15482 0
M  V30 860 H 85.2527 4.02331 -1.10389 0
M  V30 861 H 83.8827 3.21411 -0.29908 0
M  V30 862 H 82.9347 2.7129 -2.66657 0
M  V30 863 H 84.2467 3.70765 -3.33668 0
M  V30 864 H 83.4007 5.69962 -2.07914 0
M  V30 865 H 82.1397 4.69929 -1.30454 0
M  V30 866 H 81.1447 4.19522 -3.55361 0
M  V30 867 H 82.3697 5.22981 -4.33207 0
M  V30 868 H 80.3157 6.14917 -2.28502 0
M  V30 869 H 80.2327 6.41813 -3.99515 0
M  V30 870 H 81.5007 7.16506 -3.06984 0
M  V30 871 N 85.7298 1.2412 0.971189 0
M  V30 872 C 86.9598 1.10415 1.7462 0
M  V30 873 C 87.3678 -0.346462 1.86001 0
M  V30 874 O 86.7108 -1.25104 1.34517 0
M  V30 875 C 86.7728 1.66596 3.18568 0
M  V30 876 C 86.4368 3.15446 3.3067 0
M  V30 877 C 87.4338 4.12636 3.16271 0
M  V30 878 C 85.1188 3.55337 3.55022 0
M  V30 879 C 87.1128 5.47699 3.26044 0
M  V30 880 C 84.7998 4.90542 3.64434 0
M  V30 881 C 85.7978 5.86532 3.49956 0
M  V30 882 O 85.4858 7.19279 3.59017 0
M  V30 883 H 85.2178 0.386616 0.55453 0
M  V30 884 H 87.7718 1.64633 1.22821 0
M  V30 885 H 86.0018 1.06808 3.71657 0
M  V30 886 H 87.6908 1.48232 3.77865 0
M  V30 887 H 88.4568 3.8316 2.97344 0
M  V30 888 H 84.3358 2.8113 3.65359 0
M  V30 889 H 87.8798 6.22603 3.14661 0
M  V30 890 H 83.7768 5.19691 3.82873 0
M  V30 891 H 84.5448 7.27153 3.75754 0
M  V30 892 N 87.2079 -1.17134 1.05439 0
M  V30 893 C 88.4379 -1.91094 0.785274 0
M  V30 894 C 88.8459 -1.77198 -0.663142 0
M  V30 895 O 88.1889 -1.10835 -1.46497 0
M  V30 896 C 88.2509 -3.42594 1.08949 0
M  V30 897 C 87.9149 -3.80274 2.53458 0
M  V30 898 C 88.9119 -3.82912 3.51673 0
M  V30 899 C 86.5969 -4.11162 2.88532 0
M  V30 900 C 88.5909 -4.15913 4.83006 0
M  V30 901 C 86.2779 -4.43831 4.20068 0
M  V30 902 C 87.2759 -4.46185 5.17115 0
M  V30 903 O 86.9639 -4.78083 6.46291 0
M  V30 904 H 86.6959 -0.613073 0.284811 0
M  V30 905 H 89.2499 -1.49461 1.40893 0
M  V30 906 H 87.4799 -3.84534 0.408741 0
M  V30 907 H 89.1689 -3.97817 0.805991 0
M  V30 908 H 89.9349 -3.5917 3.25917 0
M  V30 909 H 85.8139 -4.085 2.13656 0
M  V30 910 H 89.3579 -4.17665 5.5875 0
M  V30 911 H 85.2549 -4.67037 4.45586 0
M  V30 912 H 86.0229 -4.9593 6.51149 0
M  V30 913 N 88.686 -0.835752 -1.33615 0
M  V30 914 C 89.934 -0.429109 -1.97492 0
M  V30 915 C 90.255 1.01433 -1.66543 0
M  V30 916 O 89.525 1.70611 -0.962744 0
M  V30 917 H 88.105 -0.155686 -0.730596 0
M  V30 918 H 90.767 -1.06802 -1.63031 0
M  V30 919 H 89.863 -0.55861 -3.0706 0
M  V30 920 N 90.1641 1.46063 -0.591896 0
M  V30 921 C 91.4411 1.95595 -0.0137119 0
M  V30 922 C 91.8211 1.5345 1.4497 0
M  V30 923 O 91.1691 0.789543 2.14426 0
M  V30 924 C 91.3791 3.48453 -0.195373 0
M  V30 925 C 92.7271 4.24546 -0.0679765 0
M  V30 926 O 93.7511 3.55982 -0.124681 0
M  V30 927 O 92.6101 5.46467 0.0600579 0
M  V30 928 H 89.7041 0.825795 0.0446279 0
M  V30 929 H 92.2501 1.56303 -0.660859 0
M  V30 930 H 91.0221 3.72045 -1.21235 0
M  V30 931 H 90.6451 3.94597 0.487775 0
M  V30 932 N 91.6422 0.330177 1.54103 0
M  V30 933 C 92.8672 -0.274893 2.0557 0
M  V30 934 C 93.2922 -1.44487 1.20437 0
M  V30 935 O 92.6502 -1.80021 0.214991 0
M  V30 936 C 92.6982 -0.68079 3.54115 0
M  V30 937 O 91.8022 -1.7824 3.71893 0
M  V30 938 H 91.1432 -0.0483849 0.662235 0
M  V30 939 H 93.6732 0.480508 1.98878 0
M  V30 940 H 93.6832 -0.961635 3.96505 0
M  V30 941 H 92.3582 0.174903 4.15532 0
M  V30 942 H 90.9352 -1.49985 3.41407 0
M  V30 943 N 93.1203 -1.57491 0.0584922 0
M  V30 944 C 94.3663 -1.93264 -0.614558 0
M  V30 945 C 94.6993 -0.937717 -1.7006 0
M  V30 946 O 93.9743 0.0351652 -1.94468 0
M  V30 947 C 94.2573 -3.3938 -1.20386 0
M  V30 948 C 94.1103 -4.49625 -0.125375 0
M  V30 949 C 95.4293 -3.86039 -2.11334 0
M  V30 950 H 92.5483 -0.702791 -0.221933 0
M  V30 951 H 95.1903 -1.8961 0.12175 0
M  V30 952 H 93.3403 -3.42626 -1.83139 0
M  V30 953 H 95.0123 -4.58506 0.506971 0
M  V30 954 H 93.2553 -4.30354 0.545672 0
M  V30 955 H 93.9263 -5.48967 -0.577861 0
M  V30 956 H 96.4023 -3.84716 -1.58534 0
M  V30 957 H 95.2783 -4.88914 -2.49507 0
M  V30 958 H 95.5393 -3.23215 -3.01636 0
M  V30 959 N 94.5984 0.214957 -1.56127 0
M  V30 960 C 95.5454 1.26642 -1.92952 0
M  V30 961 C 96.5154 1.46244 -0.78753 0
M  V30 962 O 97.7004 1.59704 -1.04399 0
M  V30 963 C 94.8404 2.6104 -2.25726 0
M  V30 964 C 93.9534 2.49183 -3.52891 0
M  V30 965 C 93.0884 3.76149 -3.7508 0
M  V30 966 C 92.1274 3.59041 -4.95738 0
M  V30 967 N 91.2644 4.77972 -5.14283 0
M  V30 968 H 96.1044 0.945384 -2.82607 0
M  V30 969 H 93.6414 0.455489 -1.3987 0
M  V30 970 H 95.5994 3.39313 -2.42739 0
M  V30 971 H 94.2294 2.91227 -1.39236 0
M  V30 972 H 93.2814 1.6231 -3.44034 0
M  V30 973 H 94.5934 2.32466 -4.41318 0
M  V30 974 H 93.7474 4.62865 -3.92226 0
M  V30 975 H 92.4864 3.95799 -2.84947 0
M  V30 976 H 91.4914 2.7071 -4.78535 0
M  V30 977 H 92.7164 3.40856 -5.87362 0
M  V30 978 H 90.6624 4.97923 -4.27093 0
M  V30 979 H 90.5794 4.64006 -5.96853 0
M  V30 980 H 91.8474 5.66096 -5.35869 0
M  V30 981 N 96.0765 1.50051 0.48192 0
M  V30 982 C 97.3245 1.60181 1.23234 0
M  V30 983 C 97.6455 0.299176 1.92691 0
M  V30 984 O 96.9155 -0.682708 1.83619 0
M  V30 985 H 95.4955 0.590232 0.457859 0
M  V30 986 H 98.1575 1.86775 0.556881 0
M  V30 987 H 97.2535 2.40753 1.98607 0
M  V30 988 N 97.5546 -0.734337 1.39446 0
M  V30 989 C 98.9706 -1.03997 1.21065 0
M  V30 990 C 99.1706 -2.01369 0.0727019 0
M  V30 991 O 98.2266 -2.45856 -0.575426 0
M  V30 992 C 99.5396 -1.60163 2.54496 0
M  V30 993 C 101.088 -1.7224 2.61347 0
M  V30 994 C 101.563 -2.31814 3.95002 0
M  V30 995 N 103.054 -2.39223 3.96644 0
M  V30 996 C 103.789 -2.86258 4.96834 0
M  V30 997 N 103.285 -3.33184 6.07421 0
M  V30 998 N 105.078 -2.85473 4.84213 0
M  V30 999 H 97.2286 -0.0885624 2.12215 0
M  V30 1000 H 99.4916 -0.10191 0.942506 0
M  V30 1001 H 99.1976 -0.960811 3.38321 0
M  V30 1002 H 99.0716 -2.5896 2.74262 0
M  V30 1003 H 101.459 -2.35443 1.77906 0
M  V30 1004 H 101.54 -0.720939 2.4543 0
M  V30 1005 H 101.184 -1.69238 4.78875 0
M  V30 1006 H 101.114 -3.32638 4.08239 0
M  V30 1007 H 103.605 -2.06057 3.16779 0
M  V30 1008 H 103.918 -3.67586 6.7978 0
M  V30 1009 H 102.263 -3.31191 6.11013 0
M  V30 1010 H 105.454 -2.48136 3.96921 0
M  V30 1011 H 105.627 -3.21814 5.62441 0
M  V30 1012 N 99.0327 -1.24633 -0.964593 0
M  V30 1013 C 100.28 -1.08788 -1.70796 0
M  V30 1014 C 100.608 0.372783 -1.90894 0
M  V30 1015 O 99.8627 1.29167 -1.47018 0
M  V30 1016 C 100.162 -1.7763 -3.10133 0
M  V30 1017 C 99.8277 -3.27557 -3.09866 0
M  V30 1018 C 98.4897 -3.6846 -3.09501 0
M  V30 1019 C 100.842 -4.23389 -3.03959 0
M  V30 1020 C 98.1697 -5.03624 -3.00965 0
M  V30 1021 C 100.522 -5.58565 -2.96965 0
M  V30 1022 C 99.1857 -5.98809 -2.9493 0
M  V30 1023 H 98.4557 -0.398084 -0.624988 0
M  V30 1024 H 101.103 -1.54777 -1.12767 0
M  V30 1025 H 99.4077 -1.24044 -3.71645 0
M  V30 1026 H 101.105 -1.62832 -3.66451 0
M  V30 1027 H 97.6947 -2.95006 -3.10917 0
M  V30 1028 H 101.879 -3.92787 -3.03368 0
M  V30 1029 H 97.1347 -5.33998 -2.97752 0
M  V30 1030 H 101.309 -6.32523 -2.91354 0
M  V30 1031 H 98.9357 -7.03505 -2.88071 0
M  V30 1032 N 100.511 1.16574 -1.06058 0
M  V30 1033 C 101.739 1.90952 -0.796552 0
M  V30 1034 C 102.154 1.77302 0.648808 0
M  V30 1035 O 101.511 1.11605 1.44397 0
M  V30 1036 C 101.562 3.41736 -1.17894 0
M  V30 1037 O 101.283 3.54975 -2.56758 0
M  V30 1038 C 102.784 4.33169 -0.942308 0
M  V30 1039 H 100.004 0.605594 -0.288959 0
M  V30 1040 H 102.548 1.47777 -1.41358 0
M  V30 1041 H 100.703 3.82623 -0.606491 0
M  V30 1042 H 101.117 4.4846 -2.72 0
M  V30 1043 H 102.591 5.37439 -1.25952 0
M  V30 1044 H 103.068 4.3903 0.122078 0
M  V30 1045 H 103.674 3.98007 -1.49902 0
M  V30 1046 N 101.989 0.842826 1.3317 0
M  V30 1047 C 103.238 0.436738 1.96915 0
M  V30 1048 C 103.551 -1.01025 1.67491 0
M  V30 1049 O 104.757 -1.5212 2.24881 0
M  V30 1050 C 103.213 0.730021 3.52418 0
M  V30 1051 C 102.821 2.19195 3.90714 0
M  V30 1052 C 104.565 0.391076 4.22695 0
M  V30 1053 C 102.472 2.42907 5.39212 0
M  V30 1054 H 101.402 0.15958 0.736919 0
M  V30 1055 H 104.053 1.03196 1.51733 0
M  V30 1056 H 102.435 0.0643755 3.95948 0
M  V30 1057 H 103.609 2.8984 3.58231 0
M  V30 1058 H 101.924 2.49425 3.33431 0
M  V30 1059 H 104.521 0.545817 5.31907 0
M  V30 1060 H 104.864 -0.666294 4.10933 0
M  V30 1061 H 105.397 1.01212 3.84709 0
M  V30 1062 H 102.136 3.47224 5.55982 0
M  V30 1063 H 101.656 1.76827 5.73142 0
M  V30 1064 H 103.335 2.2626 6.06148 0
M  V30 1065 N 103.467 -1.45747 0.599634 0
M  V30 1066 C 104.692 -2.07178 0.0960198 0
M  V30 1067 C 105.117 -1.44268 -1.207 0
M  V30 1068 O 104.475 -0.532503 -1.73303 0
M  V30 1069 C 104.523 -3.60579 -0.0385348 0
M  V30 1070 O 103.627 -3.97713 -1.0908 0
M  V30 1071 H 102.968 -0.660251 0.0704593 0
M  V30 1072 H 105.498 -1.87124 0.827385 0
M  V30 1073 H 105.508 -4.07298 -0.239304 0
M  V30 1074 H 104.183 -4.05756 0.912947 0
M  V30 1075 H 102.76 -3.62678 -0.867135 0
M  V30 1076 N 104.945 -0.338344 -1.53925 0
M  V30 1077 C 106.361 0.0137736 -1.59594 0
M  V30 1078 C 106.561 1.49186 -1.35447 0
M  V30 1079 O 105.617 2.24987 -1.14616 0
M  V30 1080 C 106.93 -0.41773 -2.97784 0
M  V30 1081 C 108.478 -0.369633 -3.1081 0
M  V30 1082 C 108.953 -0.776524 -4.51369 0
M  V30 1083 N 110.444 -0.730506 -4.57403 0
M  V30 1084 C 111.179 -1.01736 -5.64303 0
M  V30 1085 N 110.675 -1.3721 -6.79077 0
M  V30 1086 N 112.468 -0.941942 -5.54151 0
M  V30 1087 H 104.619 -1.3012 -1.67876 0
M  V30 1088 H 106.882 -0.530082 -0.78595 0
M  V30 1089 H 106.588 -1.44811 -3.20504 0
M  V30 1090 H 106.462 0.209729 -3.76616 0
M  V30 1091 H 108.849 0.651568 -2.87817 0
M  V30 1092 H 108.93 -1.03223 -2.34049 0
M  V30 1093 H 108.574 -1.79571 -4.75096 0
M  V30 1094 H 108.504 -0.0914649 -5.26521 0
M  V30 1095 H 110.995 -0.468783 -3.74981 0
M  V30 1096 H 111.308 -1.57597 -7.5656 0
M  V30 1097 H 109.653 -1.4105 -6.80536 0
M  V30 1098 H 112.844 -0.664184 -4.63364 0
M  V30 1099 H 113.017 -1.16884 -6.37371 0
M  V30 1100 N 106.423 1.57458 -0.0668435 0
M  V30 1101 C 107.7 1.8469 0.644132 0
M  V30 1102 C 108.08 0.958343 1.88093 0
M  V30 1103 O 107.428 0.0233579 2.28488 0
M  V30 1104 C 107.638 3.34767 0.986509 0
M  V30 1105 C 108.986 4.02159 1.36212 0
M  V30 1106 O 110.01 3.39484 1.07839 0
M  V30 1107 O 108.869 5.12694 1.89227 0
M  V30 1108 H 105.963 0.762816 0.319437 0
M  V30 1109 H 108.509 1.6942 -0.0973986 0
M  V30 1110 H 107.281 3.91151 0.107883 0
M  V30 1111 H 106.904 3.55281 1.78497 0
M  V30 1112 N 107.901 -0.206675 1.56239 0
M  V30 1113 C 108.849 -1.27571 1.94495 0
M  V30 1114 C 109.843 -1.47737 0.828862 0
M  V30 1115 O 111.049 -1.48735 1.0138 0
M  V30 1116 H 107.424 -0.428029 0.6183 0
M  V30 1117 H 109.395 -0.925961 2.8367 0
M  V30 1118 C 108.144 -2.61568 2.29079 0
M  V30 1119 H 107.467 -2.46863 3.14482 0
M  V30 1120 H 108.907 -3.35144 2.5972 0
M  V30 1121 C 107.366 -3.17695 1.12123 0
M  V30 1122 O 107.896 -3.99801 0.390153 0
M  V30 1123 N 106.102 -2.76276 0.901097 0
M  V30 1124 H 105.649 -2.09613 1.49733 0
M  V30 1125 H 105.607 -3.1417 0.120319 0
M  V30 1126 N 109.379 -1.50304 -0.473955 0
M  V30 1127 C 110.604 -1.65175 -1.25427 0
M  V30 1128 C 111.029 -0.333673 -1.85117 0
M  V30 1129 O 110.387 0.702114 -1.67153 0
M  V30 1130 C 110.435 -2.74295 -2.34082 0
M  V30 1131 O 109.539 -2.35349 -3.38651 0
M  V30 1132 H 108.88 -0.551944 -0.369126 0
M  V30 1133 H 111.41 -1.96662 -0.564364 0
M  V30 1134 H 111.42 -2.97285 -2.79438 0
M  V30 1135 H 110.095 -3.69959 -1.90008 0
M  V30 1136 H 108.672 -2.22794 -2.99027 0
M  V30 1137 N 110.857 0.726932 -1.39834 0
M  V30 1138 C 111.804 1.841 -1.39197 0
M  V30 1139 C 112.774 1.642 -0.250502 0
M  V30 1140 O 113.959 1.85494 -0.446846 0
M  V30 1141 C 111.099 3.21697 -1.24919 0
M  V30 1142 C 110.212 3.53247 -2.48678 0
M  V30 1143 C 109.347 4.80289 -2.26928 0
M  V30 1144 C 108.386 5.04707 -3.4632 0
M  V30 1145 N 107.523 6.22956 -3.23836 0
M  V30 1146 H 112.363 1.83979 -2.34427 0
M  V30 1147 H 109.9 0.898876 -1.16442 0
M  V30 1148 H 111.858 4.01137 -1.1465 0
M  V30 1149 H 110.488 3.21076 -0.333153 0
M  V30 1150 H 109.54 2.68447 -2.69519 0
M  V30 1151 H 110.852 3.67205 -3.37582 0
M  V30 1152 H 110.006 5.67725 -2.13947 0
M  V30 1153 H 108.745 4.68519 -1.35431 0
M  V30 1154 H 107.75 4.1573 -3.5979 0
M  V30 1155 H 108.975 5.18357 -4.38729 0
M  V30 1156 H 106.921 6.12459 -2.35011 0
M  V30 1157 H 106.838 6.37539 -4.063 0
M  V30 1158 H 108.106 7.1321 -3.14566 0
M  V30 1159 N 112.336 1.25143 0.95797 0
M  V30 1160 C 113.284 1.05019 2.07542 0
M  V30 1161 C 114.278 -0.0178751 1.69391 0
M  V30 1162 O 115.484 0.137472 1.79474 0
M  V30 1163 H 111.859 0.32265 0.679265 0
M  V30 1164 H 113.83 1.99759 2.21673 0
M  V30 1165 C 112.579 0.682074 3.40944 0
M  V30 1166 H 111.902 1.49573 3.70767 0
M  V30 1167 H 113.342 0.580945 4.20001 0
M  V30 1168 C 111.801 -0.611608 3.31302 0
M  V30 1169 O 112.331 -1.65465 3.66038 0
M  V30 1170 N 110.537 -0.595982 2.84423 0
M  V30 1171 H 110.084 0.253192 2.56353 0
M  V30 1172 H 110.042 -1.46173 2.78354 0
M  V30 1173 N 113.814 -1.1601 1.06675 0
M  V30 1174 C 115.042 -1.90527 0.806667 0
M  V30 1175 C 115.457 -1.77643 -0.639396 0
M  V30 1176 O 114.814 -1.12369 -1.43803 0
M  V30 1177 C 114.865 -3.41106 1.19705 0
M  V30 1178 O 114.586 -3.53608 2.58636 0
M  V30 1179 C 116.087 -4.32663 0.965266 0
M  V30 1180 H 113.307 -0.604053 0.292166 0
M  V30 1181 H 115.851 -1.47026 1.4214 0
M  V30 1182 H 114.006 -3.82296 0.626774 0
M  V30 1183 H 114.42 -4.47011 2.74375 0
M  V30 1184 H 115.894 -5.36763 1.288 0
M  V30 1185 H 116.371 -4.39089 -0.0987936 0
M  V30 1186 H 116.977 -3.97206 1.52011 0
M  V30 1187 N 115.292 -0.849877 -1.32721 0
M  V30 1188 C 116.222 -0.306308 -2.31482 0
M  V30 1189 C 117.203 0.591952 -1.59468 0
M  V30 1190 O 118.388 0.513199 -1.87296 0
M  V30 1191 C 115.518 0.510204 -3.43532 0
M  V30 1192 C 114.472 -0.293209 -4.26994 0
M  V30 1193 C 113.798 0.647743 -5.30762 0
M  V30 1194 C 115.098 -1.51634 -4.99804 0
M  V30 1195 H 116.792 -1.13153 -2.77195 0
M  V30 1196 H 114.338 -0.545553 -1.33266 0
M  V30 1197 H 116.291 0.900856 -4.11658 0
M  V30 1198 H 115.015 1.36874 -2.96535 0
M  V30 1199 H 113.674 -0.665555 -3.60508 0
M  V30 1200 H 113.322 1.50299 -4.8002 0
M  V30 1201 H 113.022 0.11422 -5.87489 0
M  V30 1202 H 114.546 1.03567 -6.01753 0
M  V30 1203 H 115.96 -1.19824 -5.60638 0
M  V30 1204 H 114.357 -1.98745 -5.66234 0
M  V30 1205 H 115.427 -2.28018 -4.27943 0
M  V30 1206 N 116.77 1.45427 -0.607355 0
M  V30 1207 C 118 2.06314 -0.108656 0
M  V30 1208 C 118.408 1.45269 1.21217 0
M  V30 1209 O 117.751 0.561115 1.74921 0
M  V30 1210 C 117.813 3.59345 0.105618 0
M  V30 1211 C 117.477 4.42723 -1.13337 0
M  V30 1212 C 118.474 4.77715 -2.05145 0
M  V30 1213 C 116.159 4.83478 -1.36213 0
M  V30 1214 C 118.153 5.52317 -3.18158 0
M  V30 1215 C 115.84 5.57835 -2.49527 0
M  V30 1216 C 116.838 5.92171 -3.40327 0
M  V30 1217 O 116.526 6.65019 -4.51669 0
M  V30 1218 H 116.258 0.672782 -0.0658842 0
M  V30 1219 H 118.812 1.87664 -0.834945 0
M  V30 1220 H 117.042 3.76394 0.886796 0
M  V30 1221 H 118.731 4.02076 0.555886 0
M  V30 1222 H 119.497 4.46787 -1.88697 0
M  V30 1223 H 115.376 4.56188 -0.664362 0
M  V30 1224 H 118.92 5.79036 -3.89054 0
M  V30 1225 H 114.817 5.88177 -2.65928 0
M  V30 1226 H 115.585 6.83469 -4.50348 0
M  V30 1227 N 118.248 0.346503 1.53744 0
M  V30 1228 C 119.178 -0.501193 2.28058 0
M  V30 1229 C 120.159 -1.10014 1.29734 0
M  V30 1230 O 121.344 -1.12097 1.58581 0
M  V30 1231 C 118.474 -1.65078 3.05559 0
M  V30 1232 C 117.428 -1.18003 4.11411 0
M  V30 1233 C 116.754 -2.41837 4.76884 0
M  V30 1234 C 118.054 -0.278394 5.21558 0
M  V30 1235 H 119.748 0.11875 2.99164 0
M  V30 1236 H 117.294 0.0585531 1.43881 0
M  V30 1237 H 119.247 -2.25028 3.56287 0
M  V30 1238 H 117.971 -2.29767 2.32109 0
M  V30 1239 H 116.63 -0.603331 3.61601 0
M  V30 1240 H 116.278 -3.0494 4.00026 0
M  V30 1241 H 115.978 -2.1102 5.48402 0
M  V30 1242 H 117.502 -3.02508 5.30397 0
M  V30 1243 H 118.916 -0.784823 5.67903 0
M  V30 1244 H 117.313 -0.0619707 6.00068 0
M  V30 1245 H 118.383 0.684677 4.80042 0
M  V30 1246 N 119.726 -1.57421 0.075193 0
M  V30 1247 C 120.658 -2.09904 -0.920483 0
M  V30 1248 C 121.671 -1.03191 -1.25918 0
M  V30 1249 O 122.86 -1.30695 -1.21577 0
M  V30 1250 C 119.96 -2.54726 -2.23534 0
M  V30 1251 C 119.133 -3.8505 -2.07498 0
M  V30 1252 C 118.192 -4.15929 -3.22319 0
M  V30 1253 O 117.218 -4.85474 -2.9716 0
M  V30 1254 N 118.42 -3.69745 -4.47514 0
M  V30 1255 H 121.185 -2.95954 -0.472359 0
M  V30 1256 H 118.746 -1.61523 -0.110444 0
M  V30 1257 H 120.738 -2.72443 -2.9926 0
M  V30 1258 H 119.308 -1.73795 -2.59835 0
M  V30 1259 H 118.528 -3.76679 -1.16219 0
M  V30 1260 H 119.816 -4.70348 -1.94038 0
M  V30 1261 H 119.214 -3.13569 -4.7084 0
M  V30 1262 H 117.771 -3.92655 -5.20255 0
M  V30 1263 N 121.204 0.198386 -1.56346 0
M  V30 1264 C 122.137 1.27381 -1.89339 0
M  V30 1265 C 123.115 1.44106 -0.753134 0
M  V30 1266 O 124.299 1.59549 -1.00381 0
M  V30 1267 C 121.426 2.6409 -2.12071 0
M  V30 1268 C 120.472 2.64253 -3.34772 0
M  V30 1269 S 121.305 2.16013 -4.89999 0
M  V30 1270 C 122.461 3.54553 -5.15794 0
M  V30 1271 H 122.694 0.992058 -2.8026 0
M  V30 1272 H 120.227 0.401726 -1.49082 0
M  V30 1273 H 122.185 3.42786 -2.2585 0
M  V30 1274 H 120.846 2.89478 -1.21906 0
M  V30 1275 H 120.039 3.64768 -3.47794 0
M  V30 1276 H 119.641 1.93637 -3.1997 0
M  V30 1277 H 121.933 4.50396 -5.06112 0
M  V30 1278 H 122.876 3.46428 -6.1757 0
M  V30 1279 H 123.284 3.49313 -4.43442 0
M  V30 1280 N 122.682 1.50554 0.465978 0
M  V30 1281 C 123.63 1.70324 1.58406 0
M  V30 1282 C 124.624 0.569139 1.59553 0
M  V30 1283 O 125.83 0.749776 1.63641 0
M  V30 1284 H 122.205 0.537688 0.525734 0
M  V30 1285 H 124.176 2.64104 1.38894 0
M  V30 1286 C 122.925 1.81928 2.96307 0
M  V30 1287 H 122.248 2.68586 2.96144 0
M  V30 1288 H 123.688 1.99784 3.73982 0
M  V30 1289 C 122.147 0.572095 3.32007 0
M  V30 1290 O 122.677 -0.286416 4.00678 0
M  V30 1291 N 120.883 0.424606 2.87481 0
M  V30 1292 H 120.43 1.12427 2.31771 0
M  V30 1293 H 120.388 -0.408697 3.11732 0
M  V30 1294 N 124.16 -0.719506 1.40217 0
M  V30 1295 C 125.385 -1.51371 1.4178 0
M  V30 1296 C 125.81 -1.88091 0.0182355 0
M  V30 1297 O 125.168 -1.52997 -0.972707 0
M  V30 1298 C 125.216 -2.768 2.31115 0
M  V30 1299 O 124.32 -3.73349 1.7517 0
M  V30 1300 H 123.661 -0.456529 0.482159 0
M  V30 1301 H 126.191 -0.88644 1.844 0
M  V30 1302 H 126.201 -3.25371 2.46167 0
M  V30 1303 H 124.876 -2.49407 3.3282 0
M  V30 1304 H 123.453 -3.32179 1.69444 0
M  V30 1305 N 125.638 -1.25649 -0.95132 0
M  V30 1306 C 126.568 -1.08808 -2.06599 0
M  V30 1307 C 127.549 0.00382547 -1.701 0
M  V30 1308 O 128.734 -0.166325 -1.93486 0
M  V30 1309 C 125.864 -0.709542 -3.39975 0
M  V30 1310 C 124.818 -1.75206 -3.90496 0
M  V30 1311 C 124.144 -1.22811 -5.20405 0
M  V30 1312 C 125.444 -3.15153 -4.16504 0
M  V30 1313 H 127.138 -2.02048 -2.20946 0
M  V30 1314 H 124.684 -0.972835 -1.06169 0
M  V30 1315 H 126.637 -0.578649 -4.17408 0
M  V30 1316 H 125.361 0.258556 -3.25575 0
M  V30 1317 H 124.02 -1.87145 -3.15234 0
M  V30 1318 H 123.668 -0.250145 -5.02378 0
M  V30 1319 H 123.368 -1.92492 -5.55176 0
M  V30 1320 H 124.892 -1.10968 -6.00432 0
M  V30 1321 H 126.306 -3.06349 -4.84586 0
M  V30 1322 H 124.703 -3.82333 -4.62538 0
M  V30 1323 H 125.773 -3.61966 -3.22658 0
M  V30 1324 N 127.117 1.15442 -1.07289 0
M  V30 1325 C 128.533 1.38201 -0.798288 0
M  V30 1326 C 128.733 1.92429 0.597769 0
M  V30 1327 O 127.789 2.12962 1.3566 0
M  V30 1328 C 129.102 2.35357 -1.87156 0
M  V30 1329 C 130.65 2.49021 -1.89624 0
M  V30 1330 C 131.125 3.49468 -2.96034 0
M  V30 1331 N 132.616 3.57003 -2.95132 0
M  V30 1332 C 133.351 4.34543 -3.74112 0
M  V30 1333 N 132.847 5.15421 -4.6294 0
M  V30 1334 N 134.64 4.29625 -3.62462 0
M  V30 1335 H 126.791 0.78584 -1.97328 0
M  V30 1336 H 129.054 0.408065 -0.855679 0
M  V30 1337 H 128.76 2.02626 -2.87464 0
M  V30 1338 H 128.634 3.35129 -1.73114 0
M  V30 1339 H 131.021 2.81051 -0.899687 0
M  V30 1340 H 131.102 1.4925 -2.07745 0
M  V30 1341 H 130.746 3.18173 -3.95889 0
M  V30 1342 H 130.676 4.48992 -2.75161 0
M  V30 1343 H 133.167 2.99276 -2.30743 0
M  V30 1344 H 133.48 5.7183 -5.19837 0
M  V30 1345 H 131.825 5.14729 -4.66989 0
M  V30 1346 H 135.016 3.65505 -2.92444 0
M  V30 1347 H 135.189 4.89807 -4.24256 0
M  V30 1348 N 128.595 0.856903 1.32268 0
M  V30 1349 C 129.558 0.308171 2.27119 0
M  V30 1350 C 130.558 -0.533421 1.51695 0
M  V30 1351 O 131.748 -0.344607 1.70757 0
M  V30 1352 C 128.88 -0.563757 3.36206 0
M  V30 1353 H 130.073 1.14535 2.77167 0
M  V30 1354 H 127.626 0.631421 1.42978 0
M  V30 1355 H 128.361 -1.42266 2.91429 0
M  V30 1356 H 128.146 0.0386749 3.92081 0
M  V30 1357 H 129.636 -0.940386 4.06874 0
M  V30 1358 N 130.073 -1.45103 0.615059 0
M  V30 1359 C 130.983 -2.34382 -0.101034 0
M  V30 1360 C 131.999 -1.51681 -0.852585 0
M  V30 1361 O 133.175 -1.8446 -0.808484 0
M  V30 1362 C 130.24 -3.29417 -1.08099 0
M  V30 1363 C 129.301 -4.28025 -0.330577 0
M  V30 1364 C 128.534 -5.1852 -1.26385 0
M  V30 1365 O 128.757 -5.12598 -2.50198 0
M  V30 1366 O 127.691 -5.97122 -0.756866 0
M  V30 1367 H 131.517 -2.97033 0.632855 0
M  V30 1368 H 129.102 -1.4461 0.375293 0
M  V30 1369 H 130.984 -3.87958 -1.6452 0
M  V30 1370 H 129.659 -2.69321 -1.79577 0
M  V30 1371 H 128.566 -3.73078 0.276283 0
M  V30 1372 H 129.899 -4.90997 0.343866 0
M  V30 1373 N 131.551 -0.354651 -1.53558 0
M  V30 1374 C 132.828 0.294281 -1.93374 0
M  V30 1375 C 133.208 1.67313 -1.28723 0
M  V30 1376 O 132.556 2.24179 -0.442247 0
M  V30 1377 C 132.766 0.355445 -3.47185 0
M  V30 1378 C 134.114 0.601007 -4.20325 0
M  V30 1379 O 135.138 0.437106 -3.53508 0
M  V30 1380 O 133.997 0.919322 -5.38712 0
M  V30 1381 H 131.091 0.174033 -0.808481 0
M  V30 1382 H 133.637 -0.406638 -1.64756 0
M  V30 1383 H 132.409 -0.611729 -3.86489 0
M  V30 1384 H 132.032 1.1027 -3.82003 0
M  V30 1385 N 133.029 1.57378 -0.0835403 0
M  V30 1386 C 134.257 1.98263 0.59157 0
M  V30 1387 C 134.672 0.962302 1.62435 0
M  V30 1388 O 134.029 -0.049581 1.82433 0
M  V30 1389 C 134.08 3.39214 1.24965 0
M  V30 1390 O 133.801 4.37339 0.258186 0
M  V30 1391 C 135.302 3.95038 2.01147 0
M  V30 1392 H 132.522 0.651773 0.159477 0
M  V30 1393 H 135.066 2.03878 -0.159415 0
M  V30 1394 H 133.221 3.34649 1.95164 0
M  V30 1395 H 133.635 5.19371 0.731734 0
M  V30 1396 H 135.109 4.95848 2.42567 0
M  V30 1397 H 135.586 3.32222 2.87272 0
M  V30 1398 H 136.192 4.0304 1.35789 0
M  V30 1399 N 134.507 -0.190092 1.56449 0
M  V30 1400 C 135.47 -1.21925 1.9408 0
M  V30 1401 C 136.47 -1.38176 0.822431 0
M  V30 1402 O 137.66 -1.35903 1.08977 0
M  V30 1403 C 134.792 -2.58773 2.21922 0
M  V30 1404 H 135.985 -0.897464 2.86157 0
M  V30 1405 H 133.538 -0.43181 1.50217 0
M  V30 1406 H 134.273 -2.95998 1.32499 0
M  V30 1407 H 134.058 -2.48348 3.03424 0
M  V30 1408 H 135.548 -3.32978 2.52022 0
M  V30 1409 N 135.985 -1.50799 -0.457987 0
M  V30 1410 C 137.231 -1.62683 -1.21088 0
M  V30 1411 C 137.564 -0.332268 -1.91336 0
M  V30 1412 O 136.839 0.667043 -1.82704 0
M  V30 1413 C 137.122 -2.81615 -2.24422 0
M  V30 1414 C 136.975 -4.20989 -1.58392 0
M  V30 1415 C 138.294 -2.96085 -3.2561 0
M  V30 1416 H 135.413 -0.592087 -0.438864 0
M  V30 1417 H 138.055 -1.83225 -0.50286 0
M  V30 1418 H 136.205 -2.64231 -2.84806 0
M  V30 1419 H 137.877 -4.49994 -1.01504 0
M  V30 1420 H 136.12 -4.24641 -0.886704 0
M  V30 1421 H 136.791 -5.0016 -2.33547 0
M  V30 1422 H 139.267 -3.12042 -2.75262 0
M  V30 1423 H 138.143 -3.80902 -3.95228 0
M  V30 1424 H 138.404 -2.0726 -3.90507 0
M  V30 1425 N 137.463 0.71206 -1.40597 0
M  V30 1426 C 138.693 1.49894 -1.42181 0
M  V30 1427 C 139.101 1.89189 -0.0208078 0
M  V30 1428 O 138.444 1.56223 0.966436 0
M  V30 1429 C 138.506 2.80215 -2.25211 0
M  V30 1430 C 138.17 2.63221 -3.73582 0
M  V30 1431 C 139.167 2.30249 -4.66135 0
M  V30 1432 C 136.852 2.79376 -4.17438 0
M  V30 1433 C 138.846 2.13645 -6.00529 0
M  V30 1434 C 136.533 2.6239 -5.51901 0
M  V30 1435 C 137.531 2.29573 -6.43262 0
M  V30 1436 O 137.219 2.12719 -7.75246 0
M  V30 1437 H 136.951 0.469031 -0.486812 0
M  V30 1438 H 139.505 0.88564 -1.85326 0
M  V30 1439 H 137.735 3.4389 -1.76852 0
M  V30 1440 H 139.424 3.41947 -2.18694 0
M  V30 1441 H 140.19 2.17398 -4.33547 0
M  V30 1442 H 136.069 3.03906 -3.46644 0
M  V30 1443 H 139.613 1.87953 -6.71803 0
M  V30 1444 H 135.51 2.74826 -5.84073 0
M  V30 1445 H 136.278 2.27611 -7.86216 0
M  V30 1446 N 138.941 1.26152 0.944643 0
M  V30 1447 C 140.171 1.14094 1.72239 0
M  V30 1448 C 140.579 -0.306931 1.86694 0
M  V30 1449 O 139.922 -1.22222 1.3714 0
M  V30 1450 C 139.984 1.73316 3.14963 0
M  V30 1451 C 139.648 3.2239 3.23904 0
M  V30 1452 C 140.645 4.19252 3.07447 0
M  V30 1453 C 138.33 3.62788 3.47405 0
M  V30 1454 C 140.324 5.54491 3.14353 0
M  V30 1455 C 138.011 4.98162 3.53947 0
M  V30 1456 C 139.009 5.93823 3.37436 0
M  V30 1457 O 138.697 7.26732 3.43679 0
M  V30 1458 H 138.429 0.398292 0.546205 0
M  V30 1459 H 140.983 1.67201 1.19301 0
M  V30 1460 H 139.213 1.14667 3.69308 0
M  V30 1461 H 140.902 1.56214 3.74636 0
M  V30 1462 H 141.668 3.8938 2.8915 0
M  V30 1463 H 137.547 2.88816 3.59313 0
M  V30 1464 H 141.091 6.29137 3.01384 0
M  V30 1465 H 136.988 5.27695 3.71763 0
M  V30 1466 H 137.756 7.3496 3.60245 0
M  V30 1467 N 140.419 -1.14872 1.07899 0
M  V30 1468 C 141.659 -1.8745 0.814965 0
M  V30 1469 C 142.023 -1.80758 -0.64733 0
M  V30 1470 O 143.224 -2.48422 -1.02664 0
M  V30 1471 C 141.495 -3.32286 1.31607 0
M  V30 1472 S 143.054 -4.22537 1.18357 0
M  V30 1473 H 139.872 -0.646833 0.295174 0
M  V30 1474 H 142.474 -1.38555 1.37923 0
M  V30 1475 H 141.178 -3.34703 2.37491 0
M  V30 1476 H 140.709 -3.86238 0.747261 0
M  V30 1477 H 142.724 -4.96044 0.124586 0
M  V30 1478 N 141.898 -0.863906 -1.31812 0
M  V30 1479 C 142.861 -0.320212 -2.26952 0
M  V30 1480 C 143.861 0.525369 -1.51975 0
M  V30 1481 O 145.051 0.335547 -1.70938 0
M  V30 1482 C 142.183 0.545919 -3.365 0
M  V30 1483 H 143.376 -1.16004 -2.76556 0
M  V30 1484 H 140.929 -0.638995 -1.42641 0
M  V30 1485 H 141.664 1.40718 -2.92179 0
M  V30 1486 H 141.449 -0.0594674 -3.92055 0
M  V30 1487 H 142.939 0.918796 -4.07367 0
M  V30 1488 N 143.376 1.44774 -0.622745 0
M  V30 1489 C 144.792 1.56986 -0.287652 0
M  V30 1490 C 144.992 1.61167 1.20944 0
M  V30 1491 O 144.048 1.55015 1.99315 0
M  V30 1492 C 145.361 2.84551 -0.972188 0
M  V30 1493 C 146.909 2.9825 -0.949536 0
M  V30 1494 C 147.384 4.28605 -1.61437 0
M  V30 1495 N 148.875 4.35399 -1.58057 0
M  V30 1496 C 149.61 5.34964 -2.064 0
M  V30 1497 N 149.106 6.40981 -2.62897 0
M  V30 1498 N 150.899 5.26419 -1.97078 0
M  V30 1499 H 143.05 1.40304 -1.59463 0
M  V30 1500 H 145.313 0.671794 -0.668878 0
M  V30 1501 H 145.019 2.87417 -2.02693 0
M  V30 1502 H 144.893 3.73807 -0.504771 0
M  V30 1503 H 147.28 2.94941 0.0967067 0
M  V30 1504 H 147.361 2.10364 -1.45536 0
M  V30 1505 H 147.005 4.32672 -2.66002 0
M  V30 1506 H 146.935 5.15334 -1.08344 0
M  V30 1507 H 149.426 3.59397 -1.16801 0
M  V30 1508 H 149.739 7.13225 -2.97539 0
M  V30 1509 H 148.084 6.4169 -2.66943 0
M  V30 1510 H 151.275 4.42504 -1.52669 0
M  V30 1511 H 151.448 6.03861 -2.35066 0
M  V30 1512 N 144.854 0.36279 1.53368 0
M  V30 1513 C 146.131 -0.284021 1.93527 0
M  V30 1514 C 146.511 -1.66628 1.29608 0
M  V30 1515 O 145.859 -2.23942 0.45413 0
M  V30 1516 C 146.069 -0.337028 3.47369 0
M  V30 1517 C 147.417 -0.578708 4.20638 0
M  V30 1518 O 148.441 -0.418352 3.53735 0
M  V30 1519 O 147.3 -0.89074 5.39192 0
M  V30 1520 H 144.394 -0.169743 0.809393 0
M  V30 1521 H 146.94 0.41537 1.64538 0
M  V30 1522 H 145.712 0.632217 3.86159 0
M  V30 1523 H 145.335 -1.08243 3.82582 0
M  V30 1524 N 146.332 -1.57332 0.0918853 0
M  V30 1525 C 147.58 -1.93853 -0.571446 0
M  V30 1526 C 147.901 -0.974212 -1.6892 0
M  V30 1527 O 147.171 -0.0257254 -1.95883 0
M  V30 1528 H 145.751 -0.715666 -0.214082 0
M  V30 1529 H 148.413 -1.94287 0.154464 0
M  V30 1530 H 147.509 -2.96191 -0.983729 0
M  V30 1531 N 147.81 0.181792 -1.56548 0
M  V30 1532 C 149.059 0.898348 -1.8059 0
M  V30 1533 C 149.372 1.83862 -0.667379 0
M  V30 1534 O 150.578 2.59678 -0.792446 0
M  V30 1535 C 149.034 1.64791 -3.19956 0
M  V30 1536 C 148.642 0.751789 -4.41647 0
M  V30 1537 C 150.386 2.35331 -3.53298 0
M  V30 1538 C 148.293 1.50098 -5.72035 0
M  V30 1539 H 147.223 0.339194 -0.673397 0
M  V30 1540 H 149.874 0.151413 -1.82874 0
M  V30 1541 H 148.256 2.43921 -3.11959 0
M  V30 1542 H 149.43 -0.0018076 -4.608 0
M  V30 1543 H 147.745 0.156562 -4.16106 0
M  V30 1544 H 150.342 2.91958 -4.47956 0
M  V30 1545 H 150.685 3.10164 -2.77676 0
M  V30 1546 H 151.218 1.63154 -3.62803 0
M  V30 1547 H 147.957 0.795175 -6.50659 0
M  V30 1548 H 147.477 2.22817 -5.56878 0
M  V30 1549 H 149.156 2.05125 -6.13622 0
M  V30 1550 N 149.288 1.51039 0.449983 0
M  V30 1551 C 150.516 1.66869 1.2232 0
M  V30 1552 C 150.931 0.360727 1.85322 0
M  V30 1553 O 150.288 -0.659531 1.70166 0
M  V30 1554 C 150.339 2.77524 2.31652 0
M  V30 1555 O 150.06 4.03252 1.7123 0
M  V30 1556 C 151.561 3.04512 3.2216 0
M  V30 1557 H 148.781 0.560326 0.369155 0
M  V30 1558 H 151.325 1.97385 0.534719 0
M  V30 1559 H 149.48 2.49642 2.96239 0
M  V30 1560 H 149.894 4.64609 2.43389 0
M  V30 1561 H 151.368 3.85551 3.95038 0
M  V30 1562 H 151.845 2.16415 3.8218 0
M  V30 1563 H 152.451 3.34005 2.63288 0
M  V30 1564 N 150.766 -0.704594 1.40972 0
M  V30 1565 C 151.699 -1.82861 1.36518 0
M  V30 1566 C 152.677 -1.6091 0.23382 0
M  V30 1567 O 153.861 -1.83778 0.419271 0
M  V30 1568 C 150.988 -3.1939 1.12729 0
M  V30 1569 C 150.034 -3.60148 2.28463 0
M  V30 1570 S 150.867 -3.65994 3.90907 0
M  V30 1571 C 152.023 -5.05264 3.69403 0
M  V30 1572 H 152.256 -1.86361 2.3164 0
M  V30 1573 H 149.789 -0.872439 1.27389 0
M  V30 1574 H 151.747 -3.98211 0.996893 0
M  V30 1575 H 150.408 -3.1351 0.192427 0
M  V30 1576 H 149.601 -4.59309 2.07489 0
M  V30 1577 H 149.203 -2.88612 2.37863 0
M  V30 1578 H 151.495 -5.92504 3.28551 0
M  V30 1579 H 152.438 -5.31278 4.68134 0
M  V30 1580 H 152.846 -4.76377 3.02862 0
M  V30 1581 N 152.244 -1.26651 -0.937939 0
M  V30 1582 C 153.49 -1.12553 -1.687 0
M  V30 1583 C 153.823 0.329782 -1.91379 0
M  V30 1584 O 153.098 1.24202 -1.4968 0
M  V30 1585 C 153.381 -1.89862 -3.05981 0
M  V30 1586 C 153.234 -3.43318 -2.90607 0
M  V30 1587 C 154.553 -1.69499 -4.0615 0
M  V30 1588 H 151.672 -0.410257 -0.612257 0
M  V30 1589 H 154.314 -1.55685 -1.08913 0
M  V30 1590 H 152.464 -1.53204 -3.57017 0
M  V30 1591 H 154.136 -3.89747 -2.46769 0
M  V30 1592 H 152.379 -3.70179 -2.26164 0
M  V30 1593 H 153.05 -3.92642 -3.8799 0
M  V30 1594 H 155.526 -2.01442 -3.64088 0
M  V30 1595 H 154.402 -2.26002 -5.00214 0
M  V30 1596 H 154.663 -0.640365 -4.37438 0
M  V30 1597 N 153.722 1.14298 -1.08507 0
M  V30 1598 C 155.138 1.37347 -0.812901 0
M  V30 1599 C 155.338 1.93052 0.577325 0
M  V30 1600 O 154.394 2.14389 1.33393 0
M  V30 1601 C 155.707 2.33359 -1.89642 0
M  V30 1602 C 157.255 2.46996 -1.92255 0
M  V30 1603 C 157.73 3.46309 -2.99724 0
M  V30 1604 N 159.221 3.53853 -2.98902 0
M  V30 1605 C 159.956 4.3055 -3.787 0
M  V30 1606 N 159.452 5.10482 -4.6838 0
M  V30 1607 N 161.245 4.25757 -3.66998 0
M  V30 1608 H 153.396 0.764867 -1.9815 0
M  V30 1609 H 155.659 0.398966 -0.859959 0
M  V30 1610 H 155.365 1.99565 -2.89597 0
M  V30 1611 H 155.239 3.33274 -1.76659 0
M  V30 1612 H 157.626 2.80081 -0.929445 0
M  V30 1613 H 157.707 1.47039 -2.09316 0
M  V30 1614 H 157.351 3.13957 -3.99241 0
M  V30 1615 H 157.281 4.46049 -2.79907 0
M  V30 1616 H 159.772 2.96812 -2.33904 0
M  V30 1617 H 160.085 5.66284 -5.25873 0
M  V30 1618 H 158.43 5.09747 -4.72422 0
M  V30 1619 H 161.621 3.62383 -2.96304 0
M  V30 1620 H 161.794 4.85279 -4.29427 0
M  V30 1621 N 155.201 0.870884 1.31352 0
M  V30 1622 C 156.449 0.48132 1.96285 0
M  V30 1623 C 156.77 -0.969813 1.69173 0
M  V30 1624 O 156.04 -1.67998 1.00764 0
M  V30 1625 H 154.62 0.175002 0.726212 0
M  V30 1626 H 157.282 1.11087 1.60143 0
M  V30 1627 H 156.378 0.639825 3.05471 0
M  V30 1628 N 156.679 -1.44442 0.630414 0
M  V30 1629 C 157.925 -2.02351 0.134816 0
M  V30 1630 C 158.258 -1.4947 -1.23986 0
M  V30 1631 O 157.533 -0.678475 -1.82283 0
M  V30 1632 C 157.816 -3.59898 0.120707 0
M  V30 1633 C 157.669 -4.23063 1.52767 0
M  V30 1634 C 158.988 -4.36585 -0.555127 0
M  V30 1635 H 156.107 -0.73527 0.0504646 0
M  V30 1636 H 158.749 -1.72022 0.806751 0
M  V30 1637 H 156.899 -3.85868 -0.451477 0
M  V30 1638 H 158.571 -4.08202 2.14869 0
M  V30 1639 H 156.814 -3.80586 2.08175 0
M  V30 1640 H 157.485 -5.32071 1.46984 0
M  V30 1641 H 159.961 -4.16044 -0.0685429 0
M  V30 1642 H 158.837 -5.46294 -0.534185 0
M  V30 1643 H 159.098 -4.11138 -1.62535 0
M  V30 1644 N 158.157 -0.370918 -1.53173 0
M  V30 1645 C 159.09 0.516727 -2.22273 0
M  V30 1646 C 160.068 1.07877 -1.21661 0
M  V30 1647 O 161.252 1.13389 -1.50583 0
M  V30 1648 C 158.379 1.71346 -2.92161 0
M  V30 1649 C 157.425 1.27838 -4.0689 0
M  V30 1650 S 158.258 0.275217 -5.34792 0
M  V30 1651 C 159.414 1.47816 -6.08195 0
M  V30 1652 H 159.647 -0.0701054 -2.97217 0
M  V30 1653 H 157.18 -0.155038 -1.5362 0
M  V30 1654 H 159.138 2.39988 -3.3304 0
M  V30 1655 H 157.799 2.27156 -2.16931 0
M  V30 1656 H 156.992 2.17141 -4.54825 0
M  V30 1657 H 156.594 0.671105 -3.6793 0
M  V30 1658 H 158.886 2.40831 -6.33251 0
M  V30 1659 H 159.829 1.04008 -7.0042 0
M  V30 1660 H 160.237 1.68663 -5.38714 0
M  V30 1661 N 159.635 1.57281 -0.100228 0
M  V30 1662 C 160.582 2.14305 0.856858 0
M  V30 1663 C 161.552 1.06296 1.27634 0
M  V30 1664 O 162.737 1.34109 1.35718 0
M  V30 1665 C 159.877 2.73184 2.10866 0
M  V30 1666 C 158.99 3.95442 1.73925 0
M  V30 1667 C 158.125 4.42468 2.93931 0
M  V30 1668 C 157.164 5.57303 2.5314 0
M  V30 1669 N 156.301 5.99158 3.65997 0
M  V30 1670 H 161.141 2.95772 0.363726 0
M  V30 1671 H 158.678 1.46139 0.167858 0
M  V30 1672 H 160.636 3.05442 2.84185 0
M  V30 1673 H 159.266 1.94437 2.57671 0
M  V30 1674 H 158.318 3.69464 0.905554 0
M  V30 1675 H 159.63 4.78769 1.39935 0
M  V30 1676 H 158.784 4.76537 3.75496 0
M  V30 1677 H 157.523 3.58052 3.31134 0
M  V30 1678 H 156.528 5.22857 1.70003 0
M  V30 1679 H 157.753 6.43471 2.17075 0
M  V30 1680 H 155.699 5.17687 4.02909 0
M  V30 1681 H 155.616 6.77295 3.35869 0
M  V30 1682 H 156.884 6.3786 4.48057 0
M  V30 1683 N 161.113 -0.173488 1.56642 0
M  V30 1684 C 162.39 -0.917617 1.7274 0
M  V30 1685 C 162.77 -2.00484 0.661027 0
M  V30 1686 O 162.118 -2.26184 -0.32453 0
M  V30 1687 C 162.328 -1.48433 3.15862 0
M  V30 1688 C 163.676 -1.95809 3.76754 0
M  V30 1689 O 164.7 -1.58231 3.19126 0
M  V30 1690 O 163.559 -2.65024 4.77938 0
M  V30 1691 H 160.653 -0.431772 0.705338 0
M  V30 1692 H 163.199 -0.161487 1.6893 0
M  V30 1693 H 161.971 -0.701715 3.84957 0
M  V30 1694 H 161.594 -2.30471 3.23989 0
M  V30 1695 N 162.591 -1.51276 -0.441967 0
M  V30 1696 C 163.821 -1.67273 -1.21257 0
M  V30 1697 C 164.229 -0.367624 -1.85594 0
M  V30 1698 O 163.572 0.663349 -1.71305 0
M  V30 1699 C 163.634 -2.72807 -2.34129 0
M  V30 1700 C 163.298 -4.1554 -1.90198 0
M  V30 1701 C 164.295 -5.00471 -1.40801 0
M  V30 1702 C 161.98 -4.61616 -1.9803 0
M  V30 1703 C 163.974 -6.29536 -0.998174 0
M  V30 1704 C 161.661 -5.90679 -1.56658 0
M  V30 1705 C 162.659 -6.74466 -1.07633 0
M  V30 1706 O 162.347 -8.01116 -0.668459 0
M  V30 1707 H 162.079 -0.564614 -0.371734 0
M  V30 1708 H 164.633 -1.9843 -0.530521 0
M  V30 1709 H 162.863 -2.36954 -3.05597 0
M  V30 1710 H 164.552 -2.77729 -2.96009 0
M  V30 1711 H 165.318 -4.66079 -1.34148 0
M  V30 1712 H 161.197 -3.96526 -2.35135 0
M  V30 1713 H 164.741 -6.94885 -0.61482 0
M  V30 1714 H 160.638 -6.24586 -1.62979 0
M  V30 1715 H 161.406 -8.14633 -0.794722 0
M  V30 1716 N 164.069 0.697108 -1.41344 0
M  V30 1717 C 165.316 1.45714 -1.40619 0
M  V30 1718 C 165.644 1.94494 -0.0147907 0
M  V30 1719 O 164.899 1.69794 0.973066 0
M  V30 1720 C 165.198 2.68553 -2.35826 0
M  V30 1721 C 164.864 2.38438 -3.82698 0
M  V30 1722 C 163.526 2.29936 -4.22709 0
M  V30 1723 C 165.878 2.13567 -4.75435 0
M  V30 1724 C 163.206 1.94656 -5.53467 0
M  V30 1725 C 165.558 1.79797 -6.06511 0
M  V30 1726 C 164.222 1.69789 -6.45545 0
M  V30 1727 H 163.492 0.533206 -0.51456 0
M  V30 1728 H 166.139 0.796901 -1.74131 0
M  V30 1729 H 164.444 3.39503 -1.95563 0
M  V30 1730 H 166.141 3.2669 -2.32539 0
M  V30 1731 H 162.731 2.4595 -3.51008 0
M  V30 1732 H 166.915 2.19082 -4.45328 0
M  V30 1733 H 162.171 1.8546 -5.82593 0
M  V30 1734 H 166.345 1.59572 -6.77872 0
M  V30 1735 H 163.972 1.4222 -7.46778 0
M  V30 1736 N 165.547 1.27147 0.931209 0
M  V30 1737 C 166.824 1.0401 1.65654 0
M  V30 1738 C 167.204 -0.426297 2.06751 0
M  V30 1739 O 166.552 -1.40879 1.79904 0
M  V30 1740 C 166.762 1.99834 2.86125 0
M  V30 1741 C 168.11 2.29007 3.57549 0
M  V30 1742 O 169.134 1.97779 2.96246 0
M  V30 1743 O 167.993 2.82222 4.67989 0
M  V30 1744 H 165.087 0.396239 0.725895 0
M  V30 1745 H 167.633 1.38397 0.982056 0
M  V30 1746 H 166.405 2.98744 2.52721 0
M  V30 1747 H 166.028 1.65987 3.61295 0
M  V30 1748 N 167.025 -1.13721 1.09112 0
M  V30 1749 C 168.255 -1.88499 0.845671 0
M  V30 1750 C 168.663 -1.79218 -0.606432 0
M  V30 1751 O 168.006 -1.1544 -1.42896 0
M  V30 1752 C 168.068 -3.38954 1.19793 0
M  V30 1753 C 167.732 -3.72018 2.65428 0
M  V30 1754 C 168.729 -3.7153 3.63677 0
M  V30 1755 C 166.414 -4.01775 3.01467 0
M  V30 1756 C 168.408 -4.00336 4.95994 0
M  V30 1757 C 166.095 -4.30243 4.33975 0
M  V30 1758 C 167.093 -4.29508 5.31048 0
M  V30 1759 O 166.781 -4.5728 6.61173 0
M  V30 1760 H 166.513 -0.603702 0.304171 0
M  V30 1761 H 169.067 -1.44903 1.45576 0
M  V30 1762 H 167.297 -3.83039 0.530871 0
M  V30 1763 H 168.986 -3.95052 0.932146 0
M  V30 1764 H 169.752 -3.4862 3.37179 0
M  V30 1765 H 165.631 -4.01496 2.26544 0
M  V30 1766 H 169.175 -3.99678 5.71755 0
M  V30 1767 H 165.072 -4.52625 4.60219 0
M  V30 1768 H 165.84 -4.74964 6.66597 0
M  V30 1769 N 168.503 -0.877838 -1.30888 0
M  V30 1770 C 169.749 -0.502773 -1.97088 0
M  V30 1771 C 170.104 0.936274 -1.68082 0
M  V30 1772 O 169.397 1.65162 -0.971196 0
M  V30 1773 C 169.591 -0.705748 -3.50363 0
M  V30 1774 C 169.42 -2.16297 -3.94266 0
M  V30 1775 C 168.19 -2.80614 -4.20219 0
M  V30 1776 C 170.388 -3.13606 -4.07622 0
M  V30 1777 N 168.37 -4.17007 -4.50532 0
M  V30 1778 C 169.741 -4.35051 -4.41736 0
M  V30 1779 C 171.796 -3.09491 -3.90026 0
M  V30 1780 C 170.499 -5.52911 -4.60089 0
M  V30 1781 C 172.525 -4.26616 -4.09576 0
M  V30 1782 C 171.887 -5.46825 -4.44029 0
M  V30 1783 H 167.986 -0.233168 -0.746429 0
M  V30 1784 H 170.57 -1.13408 -1.58261 0
M  V30 1785 H 168.741 -0.103976 -3.88261 0
M  V30 1786 H 170.473 -0.298291 -4.03599 0
M  V30 1787 H 167.228 -2.3152 -4.13153 0
M  V30 1788 H 167.652 -4.87426 -4.69834 0
M  V30 1789 H 172.294 -2.17657 -3.62471 0
M  V30 1790 H 170.012 -6.45255 -4.86489 0
M  V30 1791 H 173.598 -4.24894 -3.97438 0
M  V30 1792 H 172.478 -6.35947 -4.58848 0
M  V30 1793 N 169.982 1.44106 -0.638065 0
M  V30 1794 C 171.23 2.01579 -0.145043 0
M  V30 1795 C 171.551 1.50496 1.24 0
M  V30 1796 O 170.821 0.711374 1.82527 0
M  V30 1797 H 169.401 0.745282 -0.05063 0
M  V30 1798 H 172.063 1.76516 -0.826327 0
M  V30 1799 H 171.159 3.11877 -0.118039 0
M  V30 1800 N 171.46 0.379036 1.52974 0
M  V30 1801 C 172.392 -0.495963 2.2377 0
M  V30 1802 C 173.405 -1.03517 1.25651 0
M  V30 1803 O 174.594 -0.939249 1.51791 0
M  V30 1804 C 171.694 -1.69894 2.93239 0
M  V30 1805 C 170.867 -1.2889 4.17979 0
M  V30 1806 C 169.926 -2.35543 4.70538 0
M  V30 1807 O 168.952 -1.97375 5.33883 0
M  V30 1808 N 170.154 -3.67318 4.49508 0
M  V30 1809 H 172.919 0.110523 2.99496 0
M  V30 1810 H 170.48 0.204878 1.60598 0
M  V30 1811 H 172.472 -2.40747 3.25304 0
M  V30 1812 H 171.042 -2.212 2.20883 0
M  V30 1813 H 170.262 -0.409676 3.92065 0
M  V30 1814 H 171.55 -0.991443 4.99047 0
M  V30 1815 H 170.948 -4.01095 3.98923 0
M  V30 1816 H 169.505 -4.34235 4.8609 0
M  V30 1817 N 172.938 -1.57226 0.108567 0
M  V30 1818 C 174.186 -1.94448 -0.550853 0
M  V30 1819 C 174.507 -0.992074 -1.67878 0
M  V30 1820 O 173.777 -0.0465 -1.95845 0
M  V30 1821 H 172.357 -0.717897 -0.206479 0
M  V30 1822 H 175.019 -1.94112 0.175062 0
M  V30 1823 H 174.115 -2.97218 -0.952259 0
M  V30 1824 N 174.416 0.165178 -1.56732 0
M  V30 1825 C 175.644 0.896218 -1.86482 0
M  V30 1826 C 176.059 1.75555 -0.694675 0
M  V30 1827 O 175.416 1.79379 0.33607 0
M  V30 1828 C 175.467 1.76792 -3.1532 0
M  V30 1829 O 175.188 0.943239 -4.27825 0
M  V30 1830 C 176.689 2.6081 -3.58459 0
M  V30 1831 H 173.909 0.260064 -0.618553 0
M  V30 1832 H 176.453 0.163428 -2.03846 0
M  V30 1833 H 174.608 2.45398 -2.99764 0
M  V30 1834 H 175.022 1.53998 -5.01383 0
M  V30 1835 H 176.496 3.17579 -4.51495 0
M  V30 1836 H 176.973 3.35977 -2.82872 0
M  V30 1837 H 177.579 1.97526 -3.76648 0
M  V30 1838 N 175.894 1.51508 0.433938 0
M  V30 1839 C 176.824 1.76016 1.53429 0
M  V30 1840 C 177.805 0.610112 1.58782 0
M  V30 1841 O 178.99 0.853177 1.74455 0
M  V30 1842 C 176.12 1.88831 2.9148 0
M  V30 1843 C 175.074 3.04288 3.00987 0
M  V30 1844 C 174.4 3.0229 4.4105 0
M  V30 1845 C 175.7 4.44193 2.74754 0
M  V30 1846 H 177.394 2.68152 1.33171 0
M  V30 1847 H 174.94 1.29035 0.639214 0
M  V30 1848 H 176.893 2.04559 3.6842 0
M  V30 1849 H 175.617 0.933455 3.12976 0
M  V30 1850 H 174.276 2.8827 2.26486 0
M  V30 1851 H 173.924 2.04576 4.59519 0
M  V30 1852 H 173.624 3.79822 4.4834 0
M  V30 1853 H 175.148 3.20116 5.1996 0
M  V30 1854 H 176.562 4.60544 3.41426 0
M  V30 1855 H 174.959 5.23457 2.9345 0
M  V30 1856 H 176.029 4.53996 1.70339 0
M  V30 1857 N 177.372 -0.689602 1.41712 0
M  V30 1858 C 178.618 -1.45181 1.41599 0
M  V30 1859 C 178.951 -1.94181 0.0270081 0
M  V30 1860 O 178.226 -1.6993 -0.946265 0
M  V30 1861 C 178.509 -2.65945 2.42787 0
M  V30 1862 C 178.362 -2.22672 3.90816 0
M  V30 1863 C 179.681 -3.68149 2.41151 0
M  V30 1864 H 176.8 -0.526576 0.515642 0
M  V30 1865 H 179.442 -0.784947 1.73028 0
M  V30 1866 H 177.592 -3.2284 2.16116 0
M  V30 1867 H 179.264 -1.71058 4.28412 0
M  V30 1868 H 177.507 -1.54394 4.05395 0
M  V30 1869 H 178.178 -3.0935 4.57172 0
M  V30 1870 H 180.654 -3.2094 2.64834 0
M  V30 1871 H 179.53 -4.50248 3.13955 0
M  V30 1872 H 179.791 -4.18259 1.43221 0
M  V30 1873 N 178.85 -1.27639 -0.924453 0
M  V30 1874 C 180.078 -1.16989 -1.70649 0
M  V30 1875 C 180.493 0.272869 -1.86818 0
M  V30 1876 O 179.85 1.18549 -1.38753 0
M  V30 1877 C 179.901 -1.85229 -3.10439 0
M  V30 1878 O 179.622 -3.23868 -2.95028 0
M  V30 1879 C 181.123 -1.80746 -4.04779 0
M  V30 1880 H 178.343 -0.406595 -0.53378 0
M  V30 1881 H 180.887 -1.68569 -1.15778 0
M  V30 1882 H 179.042 -1.37545 -3.6216 0
M  V30 1883 H 179.456 -3.57889 -3.83426 0
M  V30 1884 H 180.93 -2.33101 -5.00368 0
M  V30 1885 H 181.407 -0.777499 -4.32263 0
M  V30 1886 H 182.013 -2.28059 -3.58984 0
M  V30 1887 N 180.328 1.1314 -1.09713 0
M  V30 1888 C 181.574 1.84757 -0.836224 0
M  V30 1889 C 181.907 1.8347 0.636598 0
M  V30 1890 O 181.182 1.27491 1.46889 0
M  V30 1891 C 181.465 3.32782 -1.37578 0
M  V30 1892 C 181.318 3.42567 -2.91493 0
M  V30 1893 C 182.637 4.28307 -1.01198 0
M  V30 1894 H 179.756 0.67082 -0.305236 0
M  V30 1895 H 182.398 1.3278 -1.35903 0
M  V30 1896 H 180.548 3.77177 -0.931097 0
M  V30 1897 H 182.22 3.06862 -3.44432 0
M  V30 1898 H 180.463 2.83349 -3.28475 0
M  V30 1899 H 181.134 4.46674 -3.24324 0
M  V30 1900 H 183.61 3.91999 -1.39556 0
M  V30 1901 H 182.486 5.30307 -1.41653 0
M  V30 1902 H 182.747 4.42029 0.0794833 0
M  V30 1903 N 181.806 0.884767 1.30421 0
M  V30 1904 C 183.031 0.517288 2.00845 0
M  V30 1905 C 183.456 -0.886779 1.65885 0
M  V30 1906 O 182.814 -1.58768 0.875354 0
M  V30 1907 C 182.862 0.698994 3.5376 0
M  V30 1908 O 181.966 -0.255208 4.1161 0
M  V30 1909 H 181.307 0.203872 0.631927 0
M  V30 1910 H 183.837 1.19225 1.66272 0
M  V30 1911 H 183.847 0.597912 4.03595 0
M  V30 1912 H 182.522 1.72271 3.78544 0
M  V30 1913 H 181.099 -0.10784 3.72744 0
M  V30 1914 N 183.284 -1.43765 0.645699 0
M  V30 1915 C 184.509 -2.06767 0.161883 0
M  V30 1916 C 184.934 -1.48034 -1.16049 0
M  V30 1917 O 184.292 -0.587369 -1.71522 0
M  V30 1918 C 184.34 -3.60519 0.0762003 0
M  V30 1919 O 183.444 -4.00982 -0.963721 0
M  V30 1920 H 182.785 -0.657675 0.091429 0
M  V30 1921 H 185.315 -1.84397 0.886499 0
M  V30 1922 H 185.325 -4.07853 -0.109604 0
M  V30 1923 H 184 -4.02646 1.04157 0
M  V30 1924 H 182.577 -3.65253 -0.751312 0
M  V30 1925 N 184.763 -0.387143 -1.52771 0
M  V30 1926 C 185.726 0.436939 -2.24997 0
M  V30 1927 C 186.726 0.991991 -1.26555 0
M  V30 1928 O 187.916 0.874335 -1.50669 0
M  V30 1929 C 185.048 1.61281 -3.00335 0
M  V30 1930 H 186.241 -0.195365 -2.99263 0
M  V30 1931 H 183.794 -0.139218 -1.55679 0
M  V30 1932 H 184.529 2.2826 -2.30364 0
M  V30 1933 H 184.314 1.22154 -3.72587 0
M  V30 1934 H 185.804 2.19629 -3.5518 0
M  V30 1935 N 186.241 1.57166 -0.116904 0
M  V30 1936 C 187.466 1.999 0.55271 0
M  V30 1937 C 187.891 0.996039 1.59564 0
M  V30 1938 O 187.249 -0.032556 1.81271 0
M  V30 1939 C 187.297 3.4152 1.15742 0
M  V30 1940 O 186.401 3.44106 2.27299 0
M  V30 1941 H 185.742 0.649447 0.138258 0
M  V30 1942 H 188.272 2.03573 -0.204759 0
M  V30 1943 H 188.282 3.79684 1.49346 0
M  V30 1944 H 186.957 4.14034 0.393493 0
M  V30 1945 H 185.534 3.17759 1.9515 0
M  V30 1946 N 187.719 -0.156864 1.56817 0
M  V30 1947 C 188.947 -0.886316 1.86955 0
M  V30 1948 C 189.362 -1.75185 0.703975 0
M  V30 1949 O 188.719 -1.79555 -0.326552 0
M  V30 1950 C 188.77 -1.75117 3.16253 0
M  V30 1951 O 188.491 -0.920537 4.2832 0
M  V30 1952 C 189.992 -2.58905 3.59837 0
M  V30 1953 H 187.212 -0.25678 0.619923 0
M  V30 1954 H 189.756 -0.152615 2.0393 0
M  V30 1955 H 187.911 -2.43805 3.01062 0
M  V30 1956 H 188.325 -1.51337 5.02192 0
M  V30 1957 H 189.799 -3.1518 4.53172 0
M  V30 1958 H 190.276 -3.34472 2.84649 0
M  V30 1959 H 190.882 -1.95526 3.7769 0
M  V30 1960 N 189.197 -1.51736 -0.425897 0
M  V30 1961 C 190.144 -1.73875 -1.51776 0
M  V30 1962 C 191.114 -0.580702 -1.55618 0
M  V30 1963 O 192.299 -0.81641 -1.72451 0
M  V30 1964 C 189.439 -1.88012 -2.89388 0
M  V30 1965 C 188.552 -3.15606 -2.94986 0
M  V30 1966 C 187.687 -3.20271 -4.23793 0
M  V30 1967 C 186.726 -4.42134 -4.23302 0
M  V30 1968 N 185.863 -4.44284 -5.43651 0
M  V30 1969 H 190.703 -2.67071 -1.32201 0
M  V30 1970 H 188.24 -1.32351 -0.642008 0
M  V30 1971 H 190.198 -1.9419 -3.69251 0
M  V30 1972 H 188.828 -0.98213 -3.07496 0
M  V30 1973 H 187.88 -3.18681 -2.07717 0
M  V30 1974 H 189.192 -4.05486 -2.90486 0
M  V30 1975 H 188.346 -3.25428 -5.12036 0
M  V30 1976 H 187.085 -2.28299 -4.30965 0
M  V30 1977 H 186.09 -4.3714 -3.3345 0
M  V30 1978 H 187.315 -5.35382 -4.17783 0
M  V30 1979 H 185.261 -3.55188 -5.51523 0
M  V30 1980 H 185.178 -5.27988 -5.41078 0
M  V30 1981 H 186.446 -4.53649 -6.33895 0
M  V30 1982 N 190.675 0.682077 -1.42076 0
M  V30 1983 C 191.923 1.4393 -1.41876 0
M  V30 1984 C 192.244 1.94971 -0.0335599 0
M  V30 1985 O 191.514 1.72591 0.926773 0
M  V30 1986 H 190.094 0.534085 -0.522267 0
M  V30 1987 H 192.756 0.806427 -1.77434 0
M  V30 1988 H 191.852 2.29588 -2.11414 0
M  V30 1989 N 192.153 1.28127 0.917671 0
M  V30 1990 C 193.564 1.13622 1.48145 0
M  V30 1991 C 193.915 -0.275207 1.9426 0
M  V30 1992 O 193.04 -1.1691 1.82102 0
M  V30 1993 C 193.635 2.05648 2.69248 0
M  V30 1994 C 192.194 1.95219 3.21818 0
M  V30 1995 C 191.341 1.97618 1.94532 0
M  V30 1996 H 194.292 1.40874 0.730772 0
M  V30 1997 H 194.313 1.61818 3.44377 0
M  V30 1998 H 193.825 3.08365 2.35653 0
M  V30 1999 H 191.926 0.955244 3.60147 0
M  V30 2000 H 192.039 2.81976 3.87333 0
M  V30 2001 H 190.403 1.41973 2.11461 0
M  V30 2002 H 191.186 3.02007 1.63238 0
M  V30 2003 N 193.631 -1.12557 1.10312 0
M  V30 2004 C 194.856 -1.88405 0.867085 0
M  V30 2005 C 195.281 -1.79038 -0.576817 0
M  V30 2006 O 194.639 -1.14439 -1.40618 0
M  V30 2007 C 194.687 -3.3563 1.31851 0
M  V30 2008 O 193.791 -4.09565 0.482734 0
M  V30 2009 H 193.132 -0.585455 0.313271 0
M  V30 2010 H 195.662 -1.42352 1.4696 0
M  V30 2011 H 195.672 -3.86469 1.3079 0
M  V30 2012 H 194.347 -3.41765 2.37001 0
M  V30 2013 H 192.924 -3.68695 0.558448 0
M  V30 2014 N 195.109 -0.891671 -1.2995 0
M  V30 2015 C 196.355 -0.514261 -1.96171 0
M  V30 2016 C 196.688 0.935506 -1.70182 0
M  V30 2017 O 195.963 1.66204 -1.01028 0
M  V30 2018 C 196.246 -0.797719 -3.51153 0
M  V30 2019 C 196.099 -2.2986 -3.86632 0
M  V30 2020 C 197.418 -0.278749 -4.39216 0
M  V30 2021 H 194.537 -0.188314 -0.712535 0
M  V30 2022 H 197.179 -1.11689 -1.53706 0
M  V30 2023 H 195.329 -0.284826 -3.87455 0
M  V30 2024 H 197.001 -2.88042 -3.60319 0
M  V30 2025 H 195.244 -2.76257 -3.34462 0
M  V30 2026 H 195.915 -2.44753 -4.94773 0
M  V30 2027 H 198.391 -0.717825 -4.09862 0
M  V30 2028 H 197.267 -0.506353 -5.46559 0
M  V30 2029 H 197.528 0.820266 -4.34424 0
M  V30 2030 N 196.587 1.43421 -0.653314 0
M  V30 2031 C 197.834 2.01812 -0.166745 0
M  V30 2032 C 198.162 1.51535 1.21931 0
M  V30 2033 O 197.417 0.698975 1.82792 0
M  V30 2034 C 197.716 3.57176 -0.126623 0
M  V30 2035 C 197.382 4.26798 -1.45444 0
M  V30 2036 C 196.044 4.45534 -1.81805 0
M  V30 2037 C 198.396 4.66225 -2.32989 0
M  V30 2038 C 195.724 5.00961 -3.05377 0
M  V30 2039 C 198.076 5.23021 -3.55853 0
M  V30 2040 C 196.74 5.39973 -3.9241 0
M  V30 2041 H 196.01 0.738484 -0.0610162 0
M  V30 2042 H 198.657 1.71896 -0.84404 0
M  V30 2043 H 196.962 3.86634 0.634123 0
M  V30 2044 H 198.659 4.00112 0.266723 0
M  V30 2045 H 195.249 4.12561 -1.16153 0
M  V30 2046 H 199.433 4.51443 -2.06187 0
M  V30 2047 H 194.689 5.12271 -3.3375 0
M  V30 2048 H 198.863 5.52518 -4.23907 0
M  V30 2049 H 196.49 5.82687 -4.88242 0
M  V30 2050 N 198.065 0.39524 1.52563 0
M  V30 2051 C 199.476 -0.0774719 1.86539 0
M  V30 2052 C 199.827 -1.45641 1.31466 0
M  V30 2053 O 198.952 -2.06459 0.648367 0
M  V30 2054 C 199.547 -0.147356 3.38479 0
M  V30 2055 C 198.106 -0.564373 3.72145 0
M  V30 2056 C 197.253 0.269919 2.75983 0
M  V30 2057 H 200.204 0.612876 1.46388 0
M  V30 2058 H 200.225 -0.965343 3.68051 0
M  V30 2059 H 199.737 0.856387 3.78534 0
M  V30 2060 H 197.838 -1.57527 3.37663 0
M  V30 2061 H 197.951 -0.318402 4.78041 0
M  V30 2062 H 196.315 -0.265696 2.5331 0
M  V30 2063 H 197.098 1.27175 3.18875 0
M  V30 2064 N 199.544 -1.57102 0.125237 0
M  V30 2065 C 200.474 -2.18659 -0.819174 0
M  V30 2066 C 201.455 -1.12843 -1.27281 0
M  V30 2067 O 202.64 -1.41104 -1.33429 0
M  V30 2068 C 199.77 -2.79096 -2.06695 0
M  V30 2069 C 198.724 -3.90548 -1.75088 0
M  V30 2070 C 198.05 -4.37821 -3.06948 0
M  V30 2071 C 199.35 -5.12356 -1.01435 0
M  V30 2072 H 201.044 -2.9783 -0.306202 0
M  V30 2073 H 198.59 -1.4326 -0.145839 0
M  V30 2074 H 200.543 -3.2082 -2.73226 0
M  V30 2075 H 199.267 -1.97223 -2.60328 0
M  V30 2076 H 197.926 -3.49409 -1.10944 0
M  V30 2077 H 197.574 -3.52799 -3.58527 0
M  V30 2078 H 197.274 -5.12982 -2.86571 0
M  V30 2079 H 198.798 -4.822 -3.74587 0
M  V30 2080 H 200.212 -5.5106 -1.58132 0
M  V30 2081 H 198.609 -5.9314 -0.911319 0
M  V30 2082 H 199.679 -4.849 -0.00218681 0
M  V30 2083 N 201.022 0.148545 -1.56898 0
M  V30 2084 C 201.985 1.16736 -1.97244 0
M  V30 2085 C 202.985 1.35947 -0.858777 0
M  V30 2086 O 204.175 1.32966 -1.12542 0
M  V30 2087 C 201.307 2.52798 -2.28705 0
M  V30 2088 H 202.5 0.821279 -2.88435 0
M  V30 2089 H 200.053 0.391831 -1.51309 0
M  V30 2090 H 200.788 2.92381 -1.403 0
M  V30 2091 H 200.573 2.40216 -3.09901 0
M  V30 2092 H 202.063 3.26179 -2.60762 0
M  V30 2093 N 202.5 1.5196 0.417844 0
M  V30 2094 C 203.911 1.57851 0.997 0
M  V30 2095 C 204.262 0.413714 1.91789 0
M  V30 2096 O 203.387 -0.467057 2.113 0
M  V30 2097 C 203.982 2.86085 1.81496 0
M  V30 2098 C 202.541 2.94483 2.34428 0
M  V30 2099 C 201.688 2.52707 1.14169 0
M  V30 2100 H 204.639 1.57455 0.198392 0
M  V30 2101 H 204.66 2.70947 2.67148 0
M  V30 2102 H 204.172 3.70842 1.14446 0
M  V30 2103 H 202.273 2.142 3.04875 0
M  V30 2104 H 202.386 3.98546 2.65891 0
M  V30 2105 H 200.75 2.06353 1.49301 0
M  V30 2106 H 201.533 3.39828 0.486999 0
M  V30 2107 N 203.978 -0.674533 1.42435 0
M  V30 2108 C 205.203 -1.46784 1.46524 0
M  V30 2109 C 205.628 -1.87938 0.078066 0
M  V30 2110 O 204.986 -1.56014 -0.92354 0
M  V30 2111 C 205.034 -2.69307 2.39805 0
M  V30 2112 O 204.138 -3.67587 1.86959 0
M  V30 2113 H 203.479 -0.440959 0.496439 0
M  V30 2114 H 206.009 -0.827326 1.87127 0
M  V30 2115 H 206.019 -3.17374 2.56393 0
M  V30 2116 H 204.694 -2.38692 3.40586 0
M  V30 2117 H 203.271 -3.2662 1.79927 0
M  V30 2118 N 205.456 -1.28612 -0.910864 0
M  V30 2119 C 206.681 -1.1891 -1.69927 0
M  V30 2120 C 207.106 0.248372 -1.86453 0
M  V30 2121 O 206.464 1.17961 -1.37676 0
M  V30 2122 C 206.512 -1.89578 -3.06745 0
M  V30 2123 O 205.616 -1.20521 -3.94396 0
M  V30 2124 H 204.957 -0.412632 -0.520222 0
M  V30 2125 H 207.487 -1.69985 -1.1387 0
M  V30 2126 H 207.497 -1.97597 -3.56958 0
M  V30 2127 H 206.172 -2.94136 -2.94035 0
M  V30 2128 H 204.749 -1.20684 -3.52831 0
M  V30 2129 N 206.934 1.1197 -1.10907 0
M  V30 2130 C 207.881 2.17846 -0.762345 0
M  V30 2131 C 208.851 1.63995 0.263599 0
M  V30 2132 O 210.036 1.90273 0.141773 0
M  V30 2133 C 207.176 3.44487 -0.205651 0
M  V30 2134 C 206.289 4.12369 -1.28748 0
M  V30 2135 C 205.424 5.26674 -0.691919 0
M  V30 2136 C 204.463 5.86431 -1.75399 0
M  V30 2137 N 203.6 6.92142 -1.17833 0
M  V30 2138 H 208.44 2.46851 -1.6694 0
M  V30 2139 H 205.977 1.21188 -0.833776 0
M  V30 2140 H 207.935 4.16981 0.135037 0
M  V30 2141 H 206.565 3.15884 0.664613 0
M  V30 2142 H 205.617 3.38003 -1.74522 0
M  V30 2143 H 206.929 4.52844 -2.09125 0
M  V30 2144 H 206.083 6.05953 -0.300963 0
M  V30 2145 H 204.822 4.8749 0.143232 0
M  V30 2146 H 203.827 5.05835 -2.15432 0
M  V30 2147 H 205.052 6.27685 -2.59208 0
M  V30 2148 H 202.998 6.54985 -0.364725 0
M  V30 2149 H 202.915 7.31242 -1.91887 0
M  V30 2150 H 204.183 7.75237 -0.81408 0
M  V30 2151 N 208.412 0.89855 1.29475 0
M  V30 2152 C 209.637 0.538561 2.00285 0
M  V30 2153 C 210.062 -0.869135 1.66816 0
M  V30 2154 O 209.42 -1.57831 0.892145 0
M  V30 2155 C 209.468 0.736475 3.52999 0
M  V30 2156 O 208.572 -0.211537 4.11857 0
M  V30 2157 H 207.913 0.210563 0.62973 0
M  V30 2158 H 210.443 1.20982 1.64998 0
M  V30 2159 H 210.453 0.640685 4.02938 0
M  V30 2160 H 209.128 1.76276 3.76696 0
M  V30 2161 H 207.705 -0.0682991 3.72837 0
M  V30 2162 N 209.89 -1.43072 0.660911 0
M  V30 2163 C 211.118 -2.06067 0.185422 0
M  V30 2164 C 211.533 -1.49582 -1.15198 0
M  V30 2165 O 210.89 -0.630134 -1.71276 0
M  V30 2166 C 210.941 -3.61371 0.0966523 0
M  V30 2167 O 210.662 -4.15758 1.38119 0
M  V30 2168 C 212.163 -4.41455 -0.403996 0
M  V30 2169 H 209.383 -0.664459 0.0934604 0
M  V30 2170 H 211.927 -1.83447 0.90373 0
M  V30 2171 H 210.082 -3.8315 -0.572259 0
M  V30 2172 H 210.496 -5.09499 1.24542 0
M  V30 2173 H 211.97 -5.50437 -0.415045 0
M  V30 2174 H 212.447 -4.15036 -1.43674 0
M  V30 2175 H 213.053 -4.24663 0.232691 0
M  V30 2176 N 211.368 -0.403325 -1.52352 0
M  V30 2177 C 212.593 0.176499 -2.06648 0
M  V30 2178 C 213.018 1.38577 -1.27193 0
M  V30 2179 O 212.376 1.7879 -0.300637 0
M  V30 2180 C 212.424 0.511061 -3.5696 0
M  V30 2181 O 211.528 1.60294 -3.79973 0
M  V30 2182 H 210.869 0.0167337 -0.663789 0
M  V30 2183 H 213.399 -0.574848 -1.96359 0
M  V30 2184 H 213.409 0.771362 -4.00642 0
M  V30 2185 H 212.084 -0.37296 -4.14224 0
M  V30 2186 H 210.661 1.33526 -3.48174 0
M  V30 2187 N 212.846 1.57033 -0.133567 0
M  V30 2188 C 214.094 1.953 0.519848 0
M  V30 2189 C 214.415 1.01866 1.66278 0
M  V30 2190 O 213.685 0.0776513 1.95746 0
M  V30 2191 H 212.265 0.721091 0.195032 0
M  V30 2192 H 214.927 1.93809 -0.205921 0
M  V30 2193 H 214.023 2.98695 0.904854 0
M  V30 2194 N 214.325 -0.140222 1.56975 0
M  V30 2195 C 215.573 -0.850005 1.83356 0
M  V30 2196 C 215.894 -1.81399 0.71551 0
M  V30 2197 O 215.164 -1.94136 -0.262294 0
M  V30 2198 H 213.744 -0.316886 0.676456 0
M  V30 2199 H 216.406 -0.132608 1.94448 0
M  V30 2200 H 215.502 -1.40814 2.78528 0
M  V30 2201 N 215.803 -1.52179 -0.40978 0
M  V30 2202 C 217.031 -1.70054 -1.17853 0
M  V30 2203 C 217.446 -0.409735 -1.843 0
M  V30 2204 O 216.803 0.614183 -1.71855 0
M  V30 2205 C 216.854 -2.83568 -2.24213 0
M  V30 2206 O 216.575 -4.0765 -1.60478 0
M  V30 2207 C 218.076 -3.12947 -3.13973 0
M  V30 2208 H 215.296 -0.569917 -0.354169 0
M  V30 2209 H 217.84 -1.98734 -0.482198 0
M  V30 2210 H 215.995 -2.57409 -2.89516 0
M  V30 2211 H 216.409 -4.70899 -2.30986 0
M  V30 2212 H 217.883 -3.95889 -3.84677 0
M  V30 2213 H 218.36 -2.26472 -3.76307 0
M  V30 2214 H 218.966 -3.40868 -2.5434 0
M  V30 2215 N 217.281 0.66697 -1.42791 0
M  V30 2216 C 218.244 1.76211 -1.46568 0
M  V30 2217 C 219.244 1.56896 -0.352196 0
M  V30 2218 O 220.434 1.63044 -0.613364 0
M  V30 2219 C 217.566 3.14935 -1.30494 0
M  V30 2220 H 218.759 1.74247 -2.44086 0
M  V30 2221 H 216.312 0.877342 -1.29354 0
M  V30 2222 H 217.047 3.2252 -0.339301 0
M  V30 2223 H 216.832 3.30359 -2.11199 0
M  V30 2224 H 218.322 3.94821 -1.36038 0
M  V30 2225 N 218.759 1.29093 0.90403 0
M  V30 2226 C 219.722 1.1386 1.98919 0
M  V30 2227 C 220.722 0.0753457 1.60623 0
M  V30 2228 O 221.912 0.321931 1.71199 0
M  V30 2229 C 219.044 0.740198 3.32767 0
M  V30 2230 H 220.237 2.10246 2.13861 0
M  V30 2231 H 217.79 1.12218 1.08797 0
M  V30 2232 H 218.525 -0.223997 3.23525 0
M  V30 2233 H 218.31 1.50838 3.61926 0
M  V30 2234 H 219.8 0.656546 4.12407 0
M  V30 2235 N 220.237 -1.11381 1.11499 0
M  V30 2236 C 221.167 -2.19509 0.796125 0
M  V30 2237 C 222.148 -1.68458 -0.235796 0
M  V30 2238 O 223.333 -1.93947 -0.0991344 0
M  V30 2239 C 220.463 -3.46475 0.239205 0
M  V30 2240 C 219.417 -4.10744 1.20307 0
M  V30 2241 C 218.743 -5.32293 0.50683 0
M  V30 2242 C 220.043 -4.55597 2.55399 0
M  V30 2243 H 221.737 -2.46439 1.70024 0
M  V30 2244 H 219.283 -1.18446 0.818935 0
M  V30 2245 H 221.236 -4.214 0.00392006 0
M  V30 2246 H 219.96 -3.19006 -0.700206 0
M  V30 2247 H 218.619 -3.37813 1.42399 0
M  V30 2248 H 218.267 -5.01095 -0.437408 0
M  V30 2249 H 217.967 -5.76243 1.1497 0
M  V30 2250 H 219.491 -6.09956 0.280351 0
M  V30 2251 H 220.905 -5.21841 2.37391 0
M  V30 2252 H 219.302 -5.10363 3.15673 0
M  V30 2253 H 220.372 -3.69013 3.14575 0
M  V30 2254 N 221.715 -0.905404 -1.28997 0
M  V30 2255 C 222.963 -0.533192 -1.9494 0
M  V30 2256 C 223.284 0.924618 -1.71685 0
M  V30 2257 O 222.554 1.65268 -1.05183 0
M  V30 2258 H 221.134 -0.194194 -0.721317 0
M  V30 2259 H 223.796 -1.15294 -1.57141 0
M  V30 2260 H 222.892 -0.72059 -3.03667 0
M  V30 2261 N 223.193 1.4272 -0.668489 0
M  V30 2262 C 224.433 2.03497 -0.19194 0
M  V30 2263 C 224.797 1.51684 1.17712 0
M  V30 2264 O 225.998 2.04205 1.74796 0
M  V30 2265 C 224.269 3.56734 -0.218032 0
M  V30 2266 S 225.828 4.38395 0.188438 0
M  V30 2267 H 222.646 0.706542 -0.0794959 0
M  V30 2268 H 225.248 1.74563 -0.880235 0
M  V30 2269 H 223.952 3.91943 -1.2169 0
M  V30 2270 H 223.483 3.90333 0.490303 0
M  V30 2271 H 225.498 4.75345 1.42345 0
M  V30 2272 N 224.671 0.411399 1.52136 0
M  V30 2273 C 225.601 -0.404015 2.29978 0
M  V30 2274 C 226.582 -1.04412 1.34284 0
M  V30 2275 O 227.767 -1.0527 1.63192 0
M  V30 2276 C 224.897 -1.5197 3.12286 0
M  V30 2277 C 223.851 -1.00448 4.16046 0
M  V30 2278 C 223.177 -2.21393 4.86712 0
M  V30 2279 C 224.477 -0.0569336 5.22269 0
M  V30 2280 H 226.171 0.245529 2.98392 0
M  V30 2281 H 223.717 0.119525 1.43503 0
M  V30 2282 H 225.67 -2.09715 3.6551 0
M  V30 2283 H 224.394 -2.19716 2.41646 0
M  V30 2284 H 223.053 -0.449421 3.63835 0
M  V30 2285 H 222.701 -2.87699 4.12599 0
M  V30 2286 H 222.401 -1.87571 5.56858 0
M  V30 2287 H 223.925 -2.7974 5.4275 0
M  V30 2288 H 225.339 -0.54325 5.7072 0
M  V30 2289 H 223.736 0.192594 5.99791 0
M  V30 2290 H 224.806 0.887663 4.76706 0
M  V30 2291 N 226.149 -1.5696 0.141893 0
M  V30 2292 C 227.395 -1.9625 -0.511248 0
M  V30 2293 C 227.728 -1.02654 -1.64851 0
M  V30 2294 O 227.003 -0.0679676 -1.94381 0
M  V30 2295 C 227.286 -3.45285 -1.02227 0
M  V30 2296 C 227.139 -4.49658 0.113138 0
M  V30 2297 C 228.458 -3.96698 -1.90574 0
M  V30 2298 H 225.577 -0.713567 -0.184367 0
M  V30 2299 H 228.219 -1.88698 0.222087 0
M  V30 2300 H 226.369 -3.51852 -1.64719 0
M  V30 2301 H 228.041 -4.55174 0.749302 0
M  V30 2302 H 226.284 -4.26857 0.773026 0
M  V30 2303 H 226.955 -5.51258 -0.286053 0
M  V30 2304 H 229.431 -3.92578 -1.37918 0
M  V30 2305 H 228.307 -5.01453 -2.2324 0
M  V30 2306 H 228.568 -3.3875 -2.84079 0
M  V30 2307 N 227.627 0.131896 -1.57047 0
M  V30 2308 C 228.574 1.16236 -1.99393 0
M  V30 2309 C 229.544 1.41863 -0.863943 0
M  V30 2310 O 230.729 1.53946 -1.12718 0
M  V30 2311 C 227.869 2.48708 -2.39245 0
M  V30 2312 C 226.982 2.30127 -3.65603 0
M  V30 2313 C 226.117 3.55738 -3.94492 0
M  V30 2314 C 225.156 3.32259 -5.14073 0
M  V30 2315 N 224.293 4.50039 -5.38896 0
M  V30 2316 H 229.133 0.794251 -2.87221 0
M  V30 2317 H 226.67 0.380707 -1.42088 0
M  V30 2318 H 228.628 3.25969 -2.60384 0
M  V30 2319 H 227.258 2.83437 -1.54478 0
M  V30 2320 H 226.31 1.43845 -3.52154 0
M  V30 2321 H 227.622 2.08746 -4.5302 0
M  V30 2322 H 226.776 4.41423 -4.1621 0
M  V30 2323 H 225.515 3.80138 -3.05526 0
M  V30 2324 H 224.52 2.44963 -4.92212 0
M  V30 2325 H 225.745 3.09242 -6.04604 0
M  V30 2326 H 223.691 4.74584 -4.52886 0
M  V30 2327 H 223.608 4.31716 -6.2061 0
M  V30 2328 H 224.876 5.36895 -5.65123 0
M  V30 2329 N 229.106 1.52395 0.401703 0
M  V30 2330 C 230.383 1.57387 1.16141 0
M  V30 2331 C 230.763 0.359359 2.08019 0
M  V30 2332 O 230.111 -0.65326 2.18963 0
M  V30 2333 C 230.321 2.90631 1.93221 0
M  V30 2334 C 231.669 3.43904 2.49028 0
M  V30 2335 O 232.693 2.92421 2.03393 0
M  V30 2336 O 231.552 4.33823 3.32356 0
M  V30 2337 H 228.646 0.634262 0.530698 0
M  V30 2338 H 231.192 1.64725 0.407883 0
M  V30 2339 H 229.964 3.70473 1.25958 0
M  V30 2340 H 229.587 2.8662 2.75563 0
M  V30 2341 N 230.584 -0.659388 1.43143 0
M  V30 2342 C 231.814 -1.44513 1.47646 0
M  V30 2343 C 232.222 -1.88981 0.0910095 0
M  V30 2344 O 231.565 -1.59702 -0.907789 0
M  V30 2345 C 231.627 -2.71663 2.35456 0
M  V30 2346 C 231.291 -2.49175 3.83094 0
M  V30 2347 C 232.288 -2.1279 4.74359 0
M  V30 2348 C 229.973 -2.63691 4.27519 0
M  V30 2349 C 231.967 -1.9121 6.08044 0
M  V30 2350 C 229.654 -2.41726 5.61259 0
M  V30 2351 C 230.652 -2.0554 6.51339 0
M  V30 2352 O 230.34 -1.838 7.82606 0
M  V30 2353 H 230.072 -0.45064 0.503884 0
M  V30 2354 H 232.626 -0.816248 1.88485 0
M  V30 2355 H 230.856 -3.37089 1.89493 0
M  V30 2356 H 232.545 -3.33595 2.31235 0
M  V30 2357 H 233.311 -2.01157 4.41317 0
M  V30 2358 H 229.19 -2.90832 3.57684 0
M  V30 2359 H 232.734 -1.62889 6.78316 0
M  V30 2360 H 228.631 -2.52959 5.9387 0
M  V30 2361 H 229.399 -1.98275 7.94122 0
M  V30 2362 N 232.062 -1.29571 -0.897171 0
M  V30 2363 C 233.309 -1.17689 -1.6479 0
M  V30 2364 C 233.637 0.27107 -1.92602 0
M  V30 2365 O 232.892 1.21193 -1.53658 0
M  V30 2366 C 233.191 -1.9382 -3.00281 0
M  V30 2367 C 232.857 -3.43522 -2.92068 0
M  V30 2368 C 231.519 -3.84348 -2.89535 0
M  V30 2369 C 233.871 -4.38906 -2.81089 0
M  V30 2370 C 231.199 -5.18869 -2.73846 0
M  V30 2371 C 233.551 -5.73521 -2.66939 0
M  V30 2372 C 232.215 -6.13601 -2.62774 0
M  V30 2373 H 231.485 -0.430654 -0.603008 0
M  V30 2374 H 234.132 -1.60536 -1.04404 0
M  V30 2375 H 232.437 -1.4357 -3.64547 0
M  V30 2376 H 234.134 -1.82028 -3.57305 0
M  V30 2377 H 230.724 -3.11072 -2.94842 0
M  V30 2378 H 234.908 -4.08315 -2.82121 0
M  V30 2379 H 230.164 -5.4903 -2.69027 0
M  V30 2380 H 234.338 -6.47078 -2.57416 0
M  V30 2381 H 231.965 -7.17786 -2.50375 0
M  V30 2382 N 233.54 1.10788 -1.12088 0
M  V30 2383 C 234.951 1.64181 -0.88891 0
M  V30 2384 C 235.302 1.87508 0.577498 0
M  V30 2385 O 234.427 1.61434 1.44112 0
M  V30 2386 C 235.022 2.98257 -1.60712 0
M  V30 2387 C 233.581 3.4853 -1.42139 0
M  V30 2388 C 232.728 2.23208 -1.6454 0
M  V30 2389 H 235.679 0.943368 -1.27618 0
M  V30 2390 H 235.7 3.65552 -1.05604 0
M  V30 2391 H 235.212 2.81246 -2.67436 0
M  V30 2392 H 233.313 3.70692 -0.376552 0
M  V30 2393 H 233.426 4.26882 -2.17505 0
M  V30 2394 H 231.79 2.31169 -1.06925 0
M  V30 2395 H 232.573 2.08733 -2.72554 0
M  V30 2396 N 235.018 0.912232 1.28515 0
M  V30 2397 C 235.928 0.404506 2.31086 0
M  V30 2398 C 236.944 -0.50707 1.66448 0
M  V30 2399 O 238.12 -0.393624 1.97516 0
M  V30 2400 C 235.185 -0.348572 3.44943 0
M  V30 2401 C 234.246 0.59604 4.25142 0
M  V30 2402 C 233.479 -0.121194 5.33562 0
M  V30 2403 O 233.702 -1.34317 5.5436 0
M  V30 2404 O 232.636 0.542716 5.99448 0
M  V30 2405 H 236.462 1.25579 2.76521 0
M  V30 2406 H 234.047 0.676998 1.33181 0
M  V30 2407 H 235.929 -0.77395 4.14232 0
M  V30 2408 H 234.604 -1.17571 3.01594 0
M  V30 2409 H 233.511 1.07079 3.58448 0
M  V30 2410 H 234.844 1.38995 4.72167 0
M  V30 2411 N 236.496 -1.42363 0.676048 0
M  V30 2412 C 237.907 -1.84649 0.275948 0
M  V30 2413 C 238.258 -1.56588 -1.18214 0
M  V30 2414 O 237.383 -1.02634 -1.90513 0
M  V30 2415 C 237.978 -3.35178 0.494053 0
M  V30 2416 C 236.537 -3.76109 0.148061 0
M  V30 2417 C 235.684 -2.65931 0.785891 0
M  V30 2418 H 238.635 -1.32192 0.878121 0
M  V30 2419 H 238.656 -3.79655 -0.25343 0
M  V30 2420 H 238.168 -3.55571 1.55535 0
M  V30 2421 H 236.269 -3.61323 -0.909742 0
M  V30 2422 H 236.382 -4.7546 0.589454 0
M  V30 2423 H 234.746 -2.53773 0.217113 0
M  V30 2424 H 235.529 -2.89146 1.85067 0
M  V30 2425 N 237.974 -0.419461 -1.51915 0
M  V30 2426 C 239.22 0.153166 -2.02221 0
M  V30 2427 C 239.553 1.43907 -1.30401 0
M  V30 2428 O 238.828 1.90055 -0.413438 0
M  V30 2429 C 239.111 0.390291 -3.57979 0
M  V30 2430 C 238.964 -0.913014 -4.40436 0
M  V30 2431 C 240.283 1.16794 -4.2432 0
M  V30 2432 H 237.402 0.0541924 -0.735005 0
M  V30 2433 H 240.044 -0.554955 -1.81715 0
M  V30 2434 H 238.194 0.993491 -3.75582 0
M  V30 2435 H 239.866 -1.54882 -4.34522 0
M  V30 2436 H 238.109 -1.52168 -4.06236 0
M  V30 2437 H 238.78 -0.701361 -5.47526 0
M  V30 2438 H 241.256 0.657161 -4.10878 0
M  V30 2439 H 240.132 1.3026 -5.3322 0
M  V30 2440 H 240.393 2.19132 -3.83971 0
M  V30 2441 N 239.452 1.56882 -0.150215 0
M  V30 2442 C 240.68 2.00593 0.506948 0
M  V30 2443 C 241.095 1.03033 1.58208 0
M  V30 2444 O 240.452 0.0278396 1.82479 0
M  V30 2445 C 240.503 3.44209 1.10465 0
M  V30 2446 O 240.224 4.3804 0.0724636 0
M  V30 2447 C 241.725 4.03214 1.84211 0
M  V30 2448 H 238.945 0.65795 0.13169 0
M  V30 2449 H 241.489 2.03018 -0.245743 0
M  V30 2450 H 239.644 3.42625 1.80795 0
M  V30 2451 H 240.058 5.22007 0.510793 0
M  V30 2452 H 241.532 5.0569 2.21318 0
M  V30 2453 H 242.009 3.44107 2.72923 0
M  V30 2454 H 242.615 4.08437 1.18572 0
M  V30 2455 N 240.93 -0.123565 1.57115 0
M  V30 2456 C 242.176 -0.833386 1.84885 0
M  V30 2457 C 242.509 -1.79742 0.735292 0
M  V30 2458 O 241.784 -1.92764 -0.25925 0
M  V30 2459 C 242.067 -1.5873 3.23228 0
M  V30 2460 C 241.92 -0.643183 4.45178 0
M  V30 2461 C 243.239 -2.54453 3.59085 0
M  V30 2462 H 240.358 -0.301518 0.6725 0
M  V30 2463 H 243 -0.097778 1.89748 0
M  V30 2464 H 241.15 -2.21438 3.19214 0
M  V30 2465 H 242.822 -0.0253015 4.61293 0
M  V30 2466 H 241.065 0.0456139 4.33776 0
M  V30 2467 H 241.736 -1.20724 5.38637 0
M  V30 2468 H 244.212 -2.01853 3.63861 0
M  V30 2469 H 243.088 -3.04238 4.5687 0
M  V30 2470 H 243.349 -3.36906 2.86264 0
M  V30 2471 N 242.408 -1.52605 -0.393616 0
M  V30 2472 C 243.633 -1.71592 -1.16495 0
M  V30 2473 C 244.058 -0.43133 -1.83088 0
M  V30 2474 O 243.416 0.612523 -1.7064 0
M  V30 2475 C 243.464 -2.86318 -2.19213 0
M  V30 2476 O 242.568 -2.52969 -3.257 0
M  V30 2477 H 241.909 -0.570734 -0.33935 0
M  V30 2478 H 244.439 -1.99377 -0.459324 0
M  V30 2479 H 244.449 -3.1168 -2.63286 0
M  V30 2480 H 243.124 -3.79511 -1.7013 0
M  V30 2481 H 241.701 -2.38332 -2.86797 0
M  V30 2482 N 243.887 0.651787 -1.4349 0
M  V30 2483 C 245.133 1.4121 -1.46395 0
M  V30 2484 C 245.488 1.92202 -0.087366 0
M  V30 2485 O 244.781 1.69452 0.894231 0
M  V30 2486 C 244.975 2.60914 -2.44251 0
M  V30 2487 C 244.804 2.21639 -3.91288 0
M  V30 2488 C 243.574 2.09897 -4.59643 0
M  V30 2489 C 245.772 1.81835 -4.81083 0
M  V30 2490 N 243.754 1.63967 -5.91598 0
M  V30 2491 C 245.125 1.46998 -6.02322 0
M  V30 2492 C 247.18 1.69031 -4.6833 0
M  V30 2493 C 245.883 1.00638 -7.12225 0
M  V30 2494 C 247.909 1.24077 -5.78238 0
M  V30 2495 C 247.271 0.901772 -6.98604 0
M  V30 2496 H 243.37 0.512322 -0.590805 0
M  V30 2497 H 245.954 0.74989 -1.7968 0
M  V30 2498 H 244.125 3.24792 -2.1299 0
M  V30 2499 H 245.857 3.27622 -2.37584 0
M  V30 2500 H 242.612 2.297 -4.14168 0
M  V30 2501 H 243.036 1.43359 -6.61647 0
M  V30 2502 H 247.678 1.93878 -3.75727 0
M  V30 2503 H 245.396 0.745399 -8.04655 0
M  V30 2504 H 248.982 1.14657 -5.7039 0
M  V30 2505 H 247.862 0.559226 -7.82203 0
M  V30 2506 N 245.365 1.30045 0.890287 0
M  V30 2507 C 246.313 1.15873 2.01683 0
M  V30 2508 C 247.307 0.0719403 1.69247 0
M  V30 2509 O 248.513 0.232414 1.78493 0
M  V30 2510 H 244.888 0.358203 0.661207 0
M  V30 2511 H 246.859 2.11229 2.10772 0
M  V30 2512 C 245.608 0.861842 3.36849 0
M  V30 2513 H 244.931 1.69016 3.62317 0
M  V30 2514 H 246.371 0.802762 4.16331 0
M  V30 2515 C 244.83 -0.435132 3.34078 0
M  V30 2516 O 245.36 -1.4583 3.74295 0
M  V30 2517 N 243.566 -0.444377 2.87182 0
M  V30 2518 H 243.113 0.388723 2.5465 0
M  V30 2519 H 243.071 -1.31213 2.85711 0
M  V30 2520 N 246.843 -1.10192 1.12674 0
M  V30 2521 C 248.068 -1.86523 0.906853 0
M  V30 2522 C 248.493 -1.80221 -0.538711 0
M  V30 2523 O 247.851 -1.17396 -1.38158 0
M  V30 2524 C 247.899 -3.32758 1.3894 0
M  V30 2525 O 247.003 -4.08449 0.5695 0
M  V30 2526 H 246.344 -0.578678 0.325619 0
M  V30 2527 H 248.874 -1.39203 1.49946 0
M  V30 2528 H 248.884 -3.83608 1.38958 0
M  V30 2529 H 247.559 -3.36661 2.44197 0
M  V30 2530 H 246.136 -3.67427 0.636528 0
M  V30 2531 N 248.321 -0.919034 -1.28029 0
M  V30 2532 C 249.569 -0.553838 -1.94363 0
M  V30 2533 C 249.89 0.906357 -1.72656 0
M  V30 2534 O 249.16 1.64143 -1.0693 0
M  V30 2535 H 247.74 -0.201834 -0.719216 0
M  V30 2536 H 250.402 -1.16954 -1.55909 0
M  V30 2537 H 249.498 -0.752758 -3.02886 0
M  V30 2538 N 249.799 1.42003 -0.683588 0
M  V30 2539 C 250.762 2.29191 -0.0198243 0
M  V30 2540 C 251.762 1.43773 0.72013 0
M  V30 2541 O 252.952 1.65061 0.556815 0
M  V30 2542 C 250.084 3.26435 0.982487 0
M  V30 2543 H 251.277 2.8938 -0.787345 0
M  V30 2544 H 248.83 1.49789 -0.446418 0
M  V30 2545 H 249.565 2.71203 1.77819 0
M  V30 2546 H 249.35 3.89449 0.455182 0
M  V30 2547 H 250.84 3.918 1.44508 0
M  V30 2548 N 251.277 0.427512 1.51691 0
M  V30 2549 C 252.207 -0.3796 2.30394 0
M  V30 2550 C 253.188 -1.02982 1.35384 0
M  V30 2551 O 254.373 -1.03534 1.643 0
M  V30 2552 C 251.503 -1.48649 3.1388 0
M  V30 2553 C 250.457 -0.960294 4.17088 0
M  V30 2554 C 249.783 -2.16219 4.89033 0
M  V30 2555 C 251.083 -0.00153679 5.223 0
M  V30 2556 H 252.777 0.277164 2.98114 0
M  V30 2557 H 250.323 0.134739 1.43368 0
M  V30 2558 H 252.276 -2.05826 3.67714 0
M  V30 2559 H 251 -2.1714 2.43962 0
M  V30 2560 H 249.659 -0.410806 3.64291 0
M  V30 2561 H 249.307 -2.83307 4.15628 0
M  V30 2562 H 249.007 -1.81654 5.58816 0
M  V30 2563 H 250.531 -2.73968 5.45687 0
M  V30 2564 H 251.945 -0.482687 5.71264 0
M  V30 2565 H 250.342 0.256199 5.99553 0
M  V30 2566 H 251.412 0.938174 4.75738 0
M  V30 2567 N 252.755 -1.56801 0.158532 0
M  V30 2568 C 253.983 -2.00859 -0.496303 0
M  V30 2569 C 254.398 -1.03871 -1.57659 0
M  V30 2570 O 253.755 -0.0375165 -1.82461 0
M  V30 2571 C 253.806 -3.4479 -1.08638 0
M  V30 2572 O 253.527 -4.38072 -0.0492322 0
M  V30 2573 C 255.028 -4.04185 -1.8207 0
M  V30 2574 H 252.248 -0.65864 -0.128199 0
M  V30 2575 H 254.792 -2.02885 0.256506 0
M  V30 2576 H 252.947 -3.43579 -1.78975 0
M  V30 2577 H 253.361 -5.2227 -0.483102 0
M  V30 2578 H 254.835 -5.06857 -2.18633 0
M  V30 2579 H 255.312 -3.45549 -2.71095 0
M  V30 2580 H 255.918 -4.0906 -1.16405 0
M  V30 2581 N 254.233 0.115231 -1.57178 0
M  V30 2582 C 255.458 0.840354 -1.89612 0
M  V30 2583 C 255.883 1.72464 -0.750845 0
M  V30 2584 O 255.241 1.78826 0.298478 0
M  V30 2585 C 255.289 1.64654 -3.20814 0
M  V30 2586 O 254.393 2.7538 -3.06985 0
M  V30 2587 H 253.734 0.232158 -0.622092 0
M  V30 2588 H 256.264 0.0964977 -2.04372 0
M  V30 2589 H 256.274 2.03499 -3.53627 0
M  V30 2590 H 254.949 0.997416 -4.03763 0
M  V30 2591 H 253.526 2.3971 -2.85646 0
M  V30 2592 N 255.711 1.52812 0.385517 0
M  V30 2593 C 256.959 1.67694 1.12797 0
M  V30 2594 C 257.28 0.421115 1.90399 0
M  V30 2595 O 256.55 -0.564551 1.87589 0
M  V30 2596 H 255.13 0.618155 0.419396 0
M  V30 2597 H 257.792 1.89938 0.436972 0
M  V30 2598 H 256.888 2.52896 1.82894 0
M  V30 2599 N 257.189 -0.644168 1.43834 0
M  V30 2600 C 258.435 -1.40603 1.46146 0
M  V30 2601 C 258.768 -1.93997 0.0887717 0
M  V30 2602 O 258.043 -1.72854 -0.891724 0
M  V30 2603 C 258.326 -2.58086 2.51124 0
M  V30 2604 C 258.179 -2.10126 3.97702 0
M  V30 2605 C 259.498 -3.60291 2.52742 0
M  V30 2606 H 256.617 -0.509905 0.532134 0
M  V30 2607 H 259.259 -0.729502 1.75437 0
M  V30 2608 H 257.409 -3.15801 2.26278 0
M  V30 2609 H 259.081 -1.57342 4.33637 0
M  V30 2610 H 257.324 -1.41419 4.10101 0
M  V30 2611 H 257.995 -2.94649 4.66783 0
M  V30 2612 H 260.471 -3.12352 2.7491 0
M  V30 2613 H 259.347 -4.40032 3.28121 0
M  V30 2614 H 259.608 -4.1349 1.56455 0
M  V30 2615 N 258.668 -1.30515 -0.883378 0
M  V30 2616 C 259.618 -1.13641 -1.9766 0
M  V30 2617 C 260.602 -0.0511314 -1.60819 0
M  V30 2618 O 261.794 -0.274623 -1.74857 0
M  V30 2619 C 258.923 -0.831976 -3.33066 0
M  V30 2620 C 258.009 -1.95759 -3.76217 0
M  V30 2621 N 258.4 -3.20313 -3.9145 0
M  V30 2622 C 256.698 -1.85431 -4.05625 0
M  V30 2623 C 257.399 -3.93856 -4.2808 0
M  V30 2624 N 256.375 -3.21919 -4.38029 0
M  V30 2625 H 260.177 -2.08106 -2.07531 0
M  V30 2626 H 257.691 -1.21877 -1.0733 0
M  V30 2627 H 259.688 -0.692102 -4.11115 0
M  V30 2628 H 258.348 0.104588 -3.24532 0
M  V30 2629 H 259.359 -3.55583 -3.76538 0
M  V30 2630 H 256.036 -0.991531 -4.05555 0
M  V30 2631 H 257.426 -5.01125 -4.47575 0
M  V30 2632 N 260.146 1.09593 -1.13257 0
M  V30 2633 C 261.374 1.855 -0.916378 0
M  V30 2634 C 261.789 1.81069 0.534738 0
M  V30 2635 O 261.146 1.20562 1.37007 0
M  V30 2636 C 261.197 3.33546 -1.39388 0
M  V30 2637 O 260.918 3.37927 -2.78813 0
M  V30 2638 C 262.419 4.26299 -1.21588 0
M  V30 2639 H 259.639 0.585991 -0.326887 0
M  V30 2640 H 262.183 1.38488 -1.5047 0
M  V30 2641 H 260.338 3.77992 -0.848597 0
M  V30 2642 H 260.752 4.30254 -2.9997 0
M  V30 2643 H 262.226 5.28341 -1.59876 0
M  V30 2644 H 262.703 4.38918 -0.157376 0
M  V30 2645 H 263.309 3.87668 -1.7491 0
M  V30 2646 N 261.624 0.925811 1.2754 0
M  V30 2647 C 262.871 0.565255 1.94451 0
M  V30 2648 C 263.199 -0.89316 1.7278 0
M  V30 2649 O 262.454 -1.65213 1.04895 0
M  V30 2650 C 262.753 0.835296 3.47502 0
M  V30 2651 C 262.419 2.27515 3.89291 0
M  V30 2652 C 261.081 2.66879 4.00411 0
M  V30 2653 C 263.433 3.21158 4.10496 0
M  V30 2654 C 260.761 3.99014 4.30122 0
M  V30 2655 C 263.113 4.52871 4.4169 0
M  V30 2656 C 261.777 4.92072 4.51023 0
M  V30 2657 H 261.047 0.206841 0.711546 0
M  V30 2658 H 263.694 1.16942 1.51647 0
M  V30 2659 H 261.999 0.148442 3.91519 0
M  V30 2660 H 263.696 0.535322 3.97411 0
M  V30 2661 H 260.286 1.95976 3.81171 0
M  V30 2662 H 264.47 2.9195 4.01346 0
M  V30 2663 H 259.726 4.2907 4.35556 0
M  V30 2664 H 263.9 5.25436 4.57045 0
M  V30 2665 H 261.527 5.9449 4.738 0
M  V30 2666 N 263.102 -1.41638 0.69111 0
M  V30 2667 C 264.513 -1.84346 0.295517 0
M  V30 2668 C 264.864 -1.57833 -1.16547 0
M  V30 2669 O 263.989 -1.04648 -1.89414 0
M  V30 2670 C 264.584 -3.34636 0.529575 0
M  V30 2671 C 263.143 -3.7593 0.187944 0
M  V30 2672 C 262.29 -2.65082 0.814052 0
M  V30 2673 H 265.241 -1.31253 0.892092 0
M  V30 2674 H 265.262 -3.79903 -0.213148 0
M  V30 2675 H 264.774 -3.53901 1.59297 0
M  V30 2676 H 262.875 -3.62268 -0.871367 0
M  V30 2677 H 262.988 -4.74808 0.63985 0
M  V30 2678 H 261.352 -2.53528 0.244017 0
M  V30 2679 H 262.135 -2.87167 1.88123 0
M  V30 2680 N 264.58 -0.43555 -1.51462 0
M  V30 2681 C 265.543 0.365137 -2.26273 0
M  V30 2682 C 266.543 0.951227 -1.29647 0
M  V30 2683 O 267.733 0.825958 -1.53374 0
M  V30 2684 C 264.865 1.51645 -3.05314 0
M  V30 2685 H 266.058 -0.290474 -2.9849 0
M  V30 2686 H 263.611 -0.188676 -1.55157 0
M  V30 2687 H 264.346 2.20816 -2.3751 0
M  V30 2688 H 264.131 1.10238 -3.76284 0
M  V30 2689 H 265.621 2.08218 -3.61987 0
M  V30 2690 N 266.058 1.56714 -0.166846 0
M  V30 2691 C 267.304 1.97039 0.479962 0
M  V30 2692 C 267.637 1.05264 1.63197 0
M  V30 2693 O 266.912 0.0988833 1.94248 0
M  V30 2694 C 267.195 3.46867 0.967212 0
M  V30 2695 C 267.048 4.49421 -0.18466 0
M  V30 2696 C 268.367 3.9968 1.84238 0
M  V30 2697 H 265.486 0.71641 0.172992 0
M  V30 2698 H 268.128 1.8832 -0.252079 0
M  V30 2699 H 266.278 3.54428 1.59101 0
M  V30 2700 H 267.95 4.53924 -0.821621 0
M  V30 2701 H 266.193 4.25573 -0.840837 0
M  V30 2702 H 266.864 5.51644 0.198317 0
M  V30 2703 H 269.34 3.94723 1.31655 0
M  V30 2704 H 268.216 5.04941 2.15234 0
M  V30 2705 H 268.477 3.43226 2.78654 0
M  V30 2706 N 267.536 -0.106894 1.57237 0
M  V30 2707 C 268.466 -1.13148 2.04254 0
M  V30 2708 C 269.447 -1.42476 0.929224 0
M  V30 2709 O 270.632 -1.52709 1.19973 0
M  V30 2710 C 267.762 -2.4545 2.45706 0
M  V30 2711 C 266.716 -2.30558 3.60592 0
M  V30 2712 C 266.042 -3.67931 3.87983 0
M  V30 2713 C 267.342 -1.75597 4.91897 0
M  V30 2714 H 269.036 -0.740374 2.90101 0
M  V30 2715 H 266.582 -0.354696 1.39563 0
M  V30 2716 H 268.535 -3.17389 2.77205 0
M  V30 2717 H 267.259 -2.86475 1.56843 0
M  V30 2718 H 265.918 -1.61067 3.29322 0
M  V30 2719 H 265.566 -4.06462 2.96306 0
M  V30 2720 H 265.266 -3.58817 4.65322 0
M  V30 2721 H 266.79 -4.41356 4.21945 0
M  V30 2722 H 268.204 -2.37364 5.21854 0
M  V30 2723 H 266.601 -1.77272 5.73319 0
M  V30 2724 H 267.671 -0.714451 4.79608 0
M  V30 2725 N 269.014 -1.53014 -0.377408 0
M  V30 2726 C 269.946 -1.74884 -1.48149 0
M  V30 2727 C 270.959 -0.629433 -1.5014 0
M  V30 2728 O 272.148 -0.905416 -1.53833 0
M  V30 2729 C 269.248 -1.80299 -2.86959 0
M  V30 2730 C 268.421 -3.09776 -3.08801 0
M  V30 2731 C 267.48 -3.06586 -4.27658 0
M  V30 2732 O 266.506 -3.80419 -4.23403 0
M  V30 2733 N 267.708 -2.26578 -5.34455 0
M  V30 2734 H 270.473 -2.70147 -1.29771 0
M  V30 2735 H 268.034 -1.51646 -0.56703 0
M  V30 2736 H 270.026 -1.75657 -3.64591 0
M  V30 2737 H 268.596 -0.92372 -2.98641 0
M  V30 2738 H 267.816 -3.27815 -2.18931 0
M  V30 2739 H 269.104 -3.95366 -3.20255 0
M  V30 2740 H 268.502 -1.66081 -5.40771 0
M  V30 2741 H 267.059 -2.27766 -6.10709 0
M  V30 2742 N 270.492 0.636531 -1.44174 0
M  V30 2743 C 271.717 1.42847 -1.50364 0
M  V30 2744 C 272.142 1.87665 -0.127867 0
M  V30 2745 O 271.5 1.58408 0.88185 0
M  V30 2746 C 271.548 2.62854 -2.4686 0
M  V30 2747 O 270.652 3.62501 -1.9664 0
M  V30 2748 H 269.993 0.427642 -0.507955 0
M  V30 2749 H 272.523 0.777422 -1.89255 0
M  V30 2750 H 272.533 3.10465 -2.64718 0
M  V30 2751 H 271.208 2.29578 -3.46795 0
M  V30 2752 H 269.785 3.21735 -1.88523 0
M  V30 2753 N 271.97 1.30982 0.876444 0
M  V30 2754 C 273.195 1.23373 1.66715 0
M  V30 2755 C 273.62 -0.19885 1.87046 0
M  V30 2756 O 272.978 -1.1427 1.40756 0
M  V30 2757 C 273.026 1.97644 3.01611 0
M  V30 2758 O 272.13 1.30935 3.91062 0
M  V30 2759 H 271.471 0.426279 0.509099 0
M  V30 2760 H 274.001 1.72944 1.09323 0
M  V30 2761 H 274.011 2.06992 3.51594 0
M  V30 2762 H 272.686 3.01829 2.86133 0
M  V30 2763 H 271.263 1.29996 3.49507 0
M  V30 2764 N 273.449 -1.08991 1.13837 0
M  V30 2765 C 274.697 -1.80899 0.901098 0
M  V30 2766 C 275.018 -1.86356 -0.574134 0
M  V30 2767 O 274.288 -1.35235 -1.41733 0
M  V30 2768 H 272.868 -0.669966 0.330386 0
M  V30 2769 H 275.53 -1.318 1.43578 0
M  V30 2770 H 274.626 -2.83929 1.29578 0
M  V30 2771 N 274.927 -0.932562 -1.27047 0
M  V30 2772 C 275.857 -0.452902 -2.29066 0
M  V30 2773 C 276.838 0.489338 -1.62909 0
M  V30 2774 O 278.023 0.393046 -1.90181 0
M  V30 2775 C 275.153 0.290698 -3.46081 0
M  V30 2776 C 274.107 -0.564168 -4.24265 0
M  V30 2777 C 273.433 0.308886 -5.33807 0
M  V30 2778 C 274.733 -1.83112 -4.89149 0
M  V30 2779 H 276.427 -1.30552 -2.69437 0
M  V30 2780 H 273.973 -0.629201 -1.29526 0
M  V30 2781 H 275.926 0.637233 -4.16554 0
M  V30 2782 H 274.65 1.17738 -3.0464 0
M  V30 2783 H 273.309 -0.893477 -3.55545 0
M  V30 2784 H 272.957 1.19467 -4.88607 0
M  V30 2785 H 272.657 -0.259633 -5.87026 0
M  V30 2786 H 274.181 0.650884 -6.07121 0
M  V30 2787 H 275.595 -1.55236 -5.51883 0
M  V30 2788 H 273.992 -2.34353 -5.52448 0
M  V30 2789 H 275.062 -2.54772 -4.12576 0
M  V30 2790 N 276.405 1.4127 -0.698611 0
M  V30 2791 C 277.635 2.05205 -0.239644 0
M  V30 2792 C 278.043 1.52684 1.11733 0
M  V30 2793 O 277.386 0.671222 1.70998 0
M  V30 2794 C 277.448 3.59289 -0.123126 0
M  V30 2795 C 277.112 4.34619 -1.41263 0
M  V30 2796 C 278.109 4.63701 -2.35111 0
M  V30 2797 C 275.794 4.73837 -1.66684 0
M  V30 2798 C 277.788 5.30966 -3.52639 0
M  V30 2799 C 275.475 5.40837 -2.84498 0
M  V30 2800 C 276.473 5.69329 -3.77298 0
M  V30 2801 O 276.161 6.34949 -4.93047 0
M  V30 2802 H 275.893 0.66723 -0.108537 0
M  V30 2803 H 278.447 1.81974 -0.952602 0
M  V30 2804 H 276.677 3.81272 0.645628 0
M  V30 2805 H 278.366 4.04797 0.299056 0
M  V30 2806 H 279.132 4.33882 -2.16729 0
M  V30 2807 H 275.011 4.51039 -0.953135 0
M  V30 2808 H 278.555 5.53121 -4.25091 0
M  V30 2809 H 274.452 5.70075 -3.02795 0
M  V30 2810 H 275.22 6.53445 -4.92902 0
M  V30 2811 N 277.883 0.443576 1.51229 0
M  V30 2812 C 279.108 -0.121648 2.07043 0
M  V30 2813 C 279.533 -1.35156 1.30823 0
M  V30 2814 O 278.891 -1.7793 0.347934 0
M  V30 2815 C 278.939 -0.41624 3.5819 0
M  V30 2816 O 278.043 -1.50163 3.8409 0
M  V30 2817 H 277.384 0.000871367 0.663999 0
M  V30 2818 H 279.914 0.626706 1.94765 0
M  V30 2819 H 279.924 -0.664867 4.02546 0
M  V30 2820 H 278.599 0.482653 4.1309 0
M  V30 2821 H 277.176 -1.24248 3.51592 0
M  V30 2822 N 279.361 -1.56624 0.175154 0
M  V30 2823 C 280.291 -2.21155 -0.749195 0
M  V30 2824 C 281.272 -1.16836 -1.23626 0
M  V30 2825 O 282.457 -1.45277 -1.28873 0
M  V30 2826 C 279.587 -2.8553 -1.97711 0
M  V30 2827 C 278.541 -3.95921 -1.62575 0
M  V30 2828 C 277.867 -4.47365 -2.92864 0
M  V30 2829 C 279.167 -5.15323 -0.850838 0
M  V30 2830 H 280.861 -2.98653 -0.211295 0
M  V30 2831 H 278.407 -1.43651 -0.100188 0
M  V30 2832 H 280.36 -3.2935 -2.62881 0
M  V30 2833 H 279.084 -2.05406 -2.53921 0
M  V30 2834 H 277.743 -3.52762 -0.997719 0
M  V30 2835 H 277.391 -3.64027 -3.47122 0
M  V30 2836 H 277.091 -5.21839 -2.70106 0
M  V30 2837 H 278.615 -4.93873 -3.59056 0
M  V30 2838 H 280.029 -5.55812 -1.40521 0
M  V30 2839 H 278.426 -5.95739 -0.722154 0
M  V30 2840 H 279.496 -4.84661 0.152082 0
M  V30 2841 N 280.839 0.0985539 -1.57292 0
M  V30 2842 C 282.064 0.820196 -1.90493 0
M  V30 2843 C 282.489 1.71658 -0.769094 0
M  V30 2844 O 281.847 1.79133 0.279495 0
M  V30 2845 C 281.895 1.61242 -3.22542 0
M  V30 2846 O 280.999 2.72108 -3.09888 0
M  V30 2847 H 280.34 0.225547 -0.62452 0
M  V30 2848 H 282.87 0.0748159 -2.04463 0
M  V30 2849 H 282.88 1.99737 -3.55766 0
M  V30 2850 H 281.555 0.954535 -4.04798 0
M  V30 2851 H 280.132 2.36667 -2.88172 0
M  V30 2852 N 282.317 1.53212 0.369288 0
M  V30 2853 C 283.542 1.73423 1.1375 0
M  V30 2854 C 283.967 0.460404 1.82378 0
M  V30 2855 O 283.325 -0.585298 1.71592 0
M  V30 2856 C 283.373 2.89769 2.1463 0
M  V30 2857 O 282.477 2.58119 3.21634 0
M  V30 2858 H 281.818 0.576061 0.330227 0
M  V30 2859 H 284.348 2.00083 0.427547 0
M  V30 2860 H 284.358 3.15829 2.58294 0
M  V30 2861 H 283.033 3.8217 1.64071 0
M  V30 2862 H 281.61 2.42864 2.82969 0
M  V30 2863 N 283.795 -0.628877 1.44509 0
M  V30 2864 C 285.041 -1.39045 1.47629 0
M  V30 2865 C 285.374 -1.93892 0.109343 0
M  V30 2866 O 284.649 -1.7379 -0.87334 0
M  V30 2867 C 284.932 -2.55408 2.53848 0
M  V30 2868 C 284.785 -2.05896 3.99909 0
M  V30 2869 C 286.104 -3.5759 2.56549 0
M  V30 2870 H 283.223 -0.504232 0.537512 0
M  V30 2871 H 285.865 -0.710854 1.76201 0
M  V30 2872 H 284.015 -3.13384 2.29615 0
M  V30 2873 H 285.687 -1.52734 4.35282 0
M  V30 2874 H 283.93 -1.37061 4.11578 0
M  V30 2875 H 284.601 -2.89681 4.69882 0
M  V30 2876 H 287.077 -3.09419 2.78207 0
M  V30 2877 H 285.953 -4.36527 3.32769 0
M  V30 2878 H 286.214 -4.11808 1.60832 0
M  V30 2879 N 285.273 -1.31445 -0.869486 0
M  V30 2880 C 286.519 -1.21337 -1.62496 0
M  V30 2881 C 286.852 0.227872 -1.92858 0
M  V30 2882 O 286.127 1.16094 -1.56053 0
M  V30 2883 C 286.41 -2.05814 -2.95487 0
M  V30 2884 C 286.263 -3.5824 -2.72 0
M  V30 2885 C 287.582 -1.9079 -3.96594 0
M  V30 2886 H 284.701 -0.442135 -0.589649 0
M  V30 2887 H 287.343 -1.6124 -1.00507 0
M  V30 2888 H 285.493 -1.71913 -3.48394 0
M  V30 2889 H 287.165 -4.0228 -2.25762 0
M  V30 2890 H 285.408 -3.81647 -2.06224 0
M  V30 2891 H 286.079 -4.12657 -3.66631 0
M  V30 2892 H 288.555 -2.20459 -3.52898 0
M  V30 2893 H 287.431 -2.52199 -4.87531 0
M  V30 2894 H 287.692 -0.871341 -4.33428 0
M  V30 2895 N 286.751 1.08385 -1.14413 0
M  V30 2896 C 287.979 1.84517 -0.936001 0
M  V30 2897 C 288.394 1.81626 0.515503 0
M  V30 2898 O 287.751 1.22008 1.35721 0
M  V30 2899 C 287.802 3.32049 -1.42918 0
M  V30 2900 O 287.523 3.34951 -2.82381 0
M  V30 2901 C 289.024 4.24986 -1.26103 0
M  V30 2902 H 286.244 0.582491 -0.333084 0
M  V30 2903 H 288.788 1.36885 -1.5193 0
M  V30 2904 H 286.943 3.7707 -0.888641 0
M  V30 2905 H 287.357 4.27048 -3.04517 0
M  V30 2906 H 288.831 5.26615 -1.6547 0
M  V30 2907 H 289.308 4.38726 -0.20392 0
M  V30 2908 H 289.914 3.85791 -1.79012 0
M  V30 2909 N 288.23 0.939286 1.26551 0
M  V30 2910 C 289.476 0.586715 1.94128 0
M  V30 2911 C 289.809 -0.8717 1.73537 0
M  V30 2912 O 289.084 -1.62339 1.07127 0
M  V30 2913 C 289.367 0.927497 3.4795 0
M  V30 2914 C 289.22 2.44052 3.77834 0
M  V30 2915 C 290.539 0.441569 4.37879 0
M  V30 2916 H 287.658 0.21463 0.705055 0
M  V30 2917 H 290.3 1.17316 1.49455 0
M  V30 2918 H 288.45 0.428431 3.8613 0
M  V30 2919 H 290.122 3.01216 3.4938 0
M  V30 2920 H 288.365 2.8848 3.23978 0
M  V30 2921 H 289.036 2.62947 4.85348 0
M  V30 2922 H 291.512 0.869448 4.06915 0
M  V30 2923 H 290.388 0.708856 5.44304 0
M  V30 2924 H 290.649 -0.658467 4.37169 0
M  V30 2925 N 289.708 -1.40897 0.706093 0
M  V30 2926 C 291.119 -1.84023 0.315052 0
M  V30 2927 C 291.47 -1.5906 -1.14866 0
M  V30 2928 O 290.595 -1.06651 -1.88293 0
M  V30 2929 C 291.19 -3.34055 0.565038 0
M  V30 2930 C 289.749 -3.7571 0.227806 0
M  V30 2931 C 288.896 -2.64204 0.842122 0
M  V30 2932 H 291.847 -1.303 0.905963 0
M  V30 2933 H 291.868 -3.80107 -0.172843 0
M  V30 2934 H 291.38 -3.52192 1.63042 0
M  V30 2935 H 289.481 -3.63172 -0.832895 0
M  V30 2936 H 289.594 -4.74103 0.690174 0
M  V30 2937 H 287.958 -2.53255 0.270893 0
M  V30 2938 H 288.741 -2.85155 1.91158 0
M  V30 2939 N 291.186 -0.45159 -1.50991 0
M  V30 2940 C 292.411 0.110667 -2.07105 0
M  V30 2941 C 292.836 1.3446 -1.31538 0
M  V30 2942 O 292.194 1.77743 -0.357365 0
M  V30 2943 C 292.242 0.397238 -3.58405 0
M  V30 2944 O 291.346 1.48124 -3.84881 0
M  V30 2945 H 290.687 -0.00439271 -0.663985 0
M  V30 2946 H 293.217 -0.637026 -1.9443 0
M  V30 2947 H 293.227 0.64351 -4.02893 0
M  V30 2948 H 291.902 -0.504553 -4.12828 0
M  V30 2949 H 290.479 1.22381 -3.52246 0
M  V30 2950 N 292.664 1.56529 -0.183458 0
M  V30 2951 C 293.889 2.02064 0.467428 0
M  V30 2952 C 294.314 1.06282 1.55196 0
M  V30 2953 O 293.672 0.0443565 1.81246 0
M  V30 2954 C 293.72 3.46122 1.01153 0
M  V30 2955 O 292.824 3.53437 2.12499 0
M  V30 2956 H 292.165 0.654726 0.110588 0
M  V30 2957 H 294.695 2.02521 -0.290917 0
M  V30 2958 H 294.705 3.85676 1.33108 0
M  V30 2959 H 293.38 4.15331 0.217533 0
M  V30 2960 H 291.957 3.2575 1.81497 0
M  V30 2961 N 294.142 -0.090211 1.57342 0
M  V30 2962 C 295.367 -0.810082 1.90925 0
M  V30 2963 C 295.792 -1.71248 0.778187 0
M  V30 2964 O 295.15 -1.79278 -0.269991 0
M  V30 2965 C 295.198 -1.59529 3.23393 0
M  V30 2966 O 294.302 -2.70461 3.11327 0
M  V30 2967 H 293.643 -0.222231 0.625707 0
M  V30 2968 H 296.173 -0.0639716 2.045 0
M  V30 2969 H 296.183 -1.97847 3.5682 0
M  V30 2970 H 294.858 -0.933055 4.05299 0
M  V30 2971 H 293.435 -2.35135 2.89423 0
M  V30 2972 N 295.62 -1.53406 -0.361157 0
M  V30 2973 C 296.55 -1.83136 -1.44857 0
M  V30 2974 C 297.531 -0.685174 -1.5569 0
M  V30 2975 O 298.716 -0.93544 -1.70186 0
M  V30 2976 C 295.846 -2.02522 -2.82138 0
M  V30 2977 C 294.8 -3.18302 -2.86126 0
M  V30 2978 C 294.126 -3.22989 -4.26125 0
M  V30 2979 C 295.426 -4.56796 -2.53248 0
M  V30 2980 H 297.12 -2.74201 -1.20226 0
M  V30 2981 H 294.666 -1.31938 -0.576922 0
M  V30 2982 H 296.619 -2.21904 -3.58241 0
M  V30 2983 H 295.343 -1.08172 -3.08166 0
M  V30 2984 H 294.002 -2.98747 -2.12475 0
M  V30 2985 H 293.65 -2.26267 -4.49235 0
M  V30 2986 H 293.35 -4.00781 -4.29708 0
M  V30 2987 H 294.874 -3.44559 -5.04094 0
M  V30 2988 H 296.288 -4.7631 -3.19064 0
M  V30 2989 H 294.685 -5.36862 -2.68141 0
M  V30 2990 H 295.755 -4.61606 -1.48484 0
M  V30 2991 N 297.098 0.621204 -1.44841 0
M  V30 2992 C 298.346 1.37783 -1.47852 0
M  V30 2993 C 298.667 1.94653 -0.116224 0
M  V30 2994 O 297.937 1.76367 0.852737 0
M  V30 2995 H 296.517 0.511453 -0.544449 0
M  V30 2996 H 299.179 0.730446 -1.80694 0
M  V30 2997 H 298.275 2.20414 -2.20961 0
M  V30 2998 N 298.576 1.31904 0.862503 0
M  V30 2999 C 299.804 1.24998 1.64873 0
M  V30 3000 C 300.219 -0.183425 1.87907 0
M  V30 3001 O 299.576 -1.11794 1.44251 0
M  V30 3002 C 299.627 1.99829 3.01248 0
M  V30 3003 O 299.348 3.37575 2.79239 0
M  V30 3004 C 300.849 1.99852 3.95694 0
M  V30 3005 H 298.069 0.431599 0.513773 0
M  V30 3006 H 300.613 1.73901 1.07604 0
M  V30 3007 H 298.768 1.54668 3.55185 0
M  V30 3008 H 299.182 3.75776 3.65914 0
M  V30 3009 H 300.656 2.56709 4.88676 0
M  V30 3010 H 301.133 0.982852 4.28062 0
M  V30 3011 H 301.739 2.44926 3.47694 0
M  V30 3012 N 300.054 -1.07777 1.14986 0
M  V30 3013 C 300.986 -2.14769 0.800436 0
M  V30 3014 C 301.999 -1.61739 -0.185595 0
M  V30 3015 O 303.188 -1.78462 0.0370358 0
M  V30 3016 C 300.288 -3.38481 0.168533 0
M  V30 3017 C 299.461 -4.20876 1.1909 0
M  V30 3018 C 298.52 -5.22976 0.581575 0
M  V30 3019 O 297.546 -5.55388 1.24633 0
M  V30 3020 N 298.748 -5.76976 -0.638706 0
M  V30 3021 H 301.513 -2.45348 1.72118 0
M  V30 3022 H 299.074 -1.23645 1.04515 0
M  V30 3023 H 301.066 -4.03916 -0.251764 0
M  V30 3024 H 299.636 -3.05651 -0.655467 0
M  V30 3025 H 298.856 -3.51322 1.78791 0
M  V30 3026 H 300.144 -4.7274 1.88133 0
M  V30 3027 H 299.542 -5.52886 -1.19723 0
M  V30 3028 H 298.099 -6.44061 -1.00142 0
M  V30 3029 N 301.532 -0.945985 -1.26051 0
M  V30 3030 C 302.76 -0.613025 -1.9761 0
M  V30 3031 C 303.175 0.813035 -1.70397 0
M  V30 3032 O 302.532 1.54274 -0.974979 0
M  V30 3033 C 302.583 -0.85159 -3.51326 0
M  V30 3034 O 302.304 -2.22157 -3.77595 0
M  V30 3035 C 303.805 -0.529831 -4.40122 0
M  V30 3036 H 301.025 -0.230593 -0.630133 0
M  V30 3037 H 303.569 -1.268 -1.60443 0
M  V30 3038 H 301.724 -0.243151 -3.86636 0
M  V30 3039 H 302.138 -2.2852 -4.721 0
M  V30 3040 H 303.612 -0.747348 -5.46917 0
M  V30 3041 H 304.089 0.535341 -4.35925 0
M  V30 3042 H 304.695 -1.11721 -4.10364 0
M  V30 3043 N 303.011 1.40521 -0.713556 0
M  V30 3044 C 304.241 2.0494 -0.261395 0
M  V30 3045 C 304.649 1.53861 1.10107 0
M  V30 3046 O 303.992 0.689321 1.70276 0
M  V30 3047 C 304.054 3.59138 -0.161227 0
M  V30 3048 C 303.718 4.33096 -1.45865 0
M  V30 3049 C 304.715 4.61182 -2.40016 0
M  V30 3050 C 302.4 4.72043 -1.71701 0
M  V30 3051 C 304.394 5.27196 -3.58251 0
M  V30 3052 C 302.081 5.37789 -2.90218 0
M  V30 3053 C 303.079 5.65295 -3.83315 0
M  V30 3054 O 302.767 6.29683 -4.99754 0
M  V30 3055 H 302.499 0.666041 -0.115608 0
M  V30 3056 H 305.053 1.80954 -0.971849 0
M  V30 3057 H 303.283 3.81936 0.605153 0
M  V30 3058 H 304.972 4.05091 0.256105 0
M  V30 3059 H 305.738 4.31559 -2.21318 0
M  V30 3060 H 301.617 4.50003 -1.00092 0
M  V30 3061 H 305.161 5.48582 -4.30934 0
M  V30 3062 H 301.058 5.66831 -3.08825 0
M  V30 3063 H 301.826 6.4818 -4.99805 0
M  V30 3064 N 304.489 0.459591 1.5075 0
M  V30 3065 C 305.738 -0.100971 2.01447 0
M  V30 3066 C 306.051 -1.41816 1.34713 0
M  V30 3067 O 307.257 -2.06299 1.76502 0
M  V30 3068 C 305.713 -0.23047 3.59161 0
M  V30 3069 C 305.321 1.0776 4.34847 0
M  V30 3070 C 307.065 -0.743608 4.17936 0
M  V30 3071 C 304.972 0.91253 5.84317 0
M  V30 3072 H 303.902 -0.0415102 0.752856 0
M  V30 3073 H 306.553 0.592742 1.73663 0
M  V30 3074 H 304.935 -0.987703 3.83485 0
M  V30 3075 H 306.109 1.8449 4.22256 0
M  V30 3076 H 304.424 1.52097 3.87628 0
M  V30 3077 H 307.021 -0.883959 5.27343 0
M  V30 3078 H 307.364 -1.73196 3.78562 0
M  V30 3079 H 307.897 -0.04408 3.97776 0
M  V30 3080 H 304.636 1.87391 6.28144 0
M  V30 3081 H 304.156 0.185422 5.99513 0
M  V30 3082 H 305.835 0.574547 6.44444 0
M  V30 3083 N 305.967 -1.56429 0.191757 0
M  V30 3084 C 307.207 -1.99383 -0.450099 0
M  V30 3085 C 307.571 -1.07581 -1.59029 0
M  V30 3086 O 308.772 -1.39758 -2.29611 0
M  V30 3087 C 307.043 -3.45841 -0.901611 0
M  V30 3088 S 308.602 -4.10822 -1.54177 0
M  V30 3089 H 305.42 -0.696253 -0.144057 0
M  V30 3090 H 308.022 -1.93276 0.294036 0
M  V30 3091 H 306.726 -4.10354 -0.0616596 0
M  V30 3092 H 306.257 -3.55757 -1.67929 0
M  V30 3093 H 308.272 -4.07553 -2.83046 0
M  V30 3094 N 307.445 0.0818655 -1.57387 0
M  V30 3095 C 308.393 1.11712 -2.04018 0
M  V30 3096 C 309.387 1.40683 -0.94364 0
M  V30 3097 O 310.593 1.40209 -1.12878 0
M  V30 3098 H 306.968 0.377542 -0.650358 0
M  V30 3099 H 308.939 0.697614 -2.90131 0
M  V30 3100 C 307.688 2.42537 -2.49141 0
M  V30 3101 H 307.011 2.21092 -3.33104 0
M  V30 3102 H 308.451 3.13446 -2.85531 0
M  V30 3103 C 306.91 3.0778 -1.37014 0
M  V30 3104 O 307.44 3.95436 -0.706621 0
M  V30 3105 N 305.646 2.68242 -1.11779 0
M  V30 3106 H 305.193 1.97052 -1.65917 0
M  V30 3107 H 305.151 3.1222 -0.369594 0
M  V30 3108 N 308.923 1.53595 0.353017 0
M  V30 3109 C 310.169 1.70638 1.09593 0
M  V30 3110 C 310.502 0.463286 1.88593 0
M  V30 3111 O 309.777 -0.539597 1.86865 0
M  V30 3112 C 310.06 2.96406 2.04489 0
M  V30 3113 C 309.913 4.30901 1.29014 0
M  V30 3114 C 311.232 3.17812 3.0444 0
M  V30 3115 H 308.351 0.620913 0.397034 0
M  V30 3116 H 310.993 1.86254 0.375446 0
M  V30 3117 H 309.143 2.83223 2.65927 0
M  V30 3118 H 310.815 4.55917 0.702638 0
M  V30 3119 H 309.058 4.29741 0.592071 0
M  V30 3120 H 309.729 5.1506 1.98537 0
M  V30 3121 H 312.205 3.30263 2.53112 0
M  V30 3122 H 311.081 4.07223 3.6805 0
M  V30 3123 H 311.342 2.33669 3.75301 0
M  V30 3124 N 310.401 -0.613514 1.45168 0
M  V30 3125 C 311.349 -1.74572 1.53712 0
M  V30 3126 C 312.343 -1.64426 0.407505 0
M  V30 3127 O 313.549 -1.70291 0.583176 0
M  V30 3128 H 309.924 -0.576641 0.48269 0
M  V30 3129 H 311.895 -1.64492 2.48968 0
M  V30 3130 C 310.644 -3.12943 1.51532 0
M  V30 3131 H 309.967 -3.21407 2.37776 0
M  V30 3132 H 311.407 -3.9201 1.61569 0
M  V30 3133 C 309.866 -3.36053 0.238798 0
M  V30 3134 O 310.396 -3.95837 -0.6838 0
M  V30 3135 N 308.602 -2.9028 0.136359 0
M  V30 3136 H 308.149 -2.41811 0.887999 0
M  V30 3137 H 308.107 -3.06116 -0.716944 0
M  V30 3138 N 311.879 -1.3236 -0.855495 0
M  V30 3139 C 312.829 -1.17809 -1.95205 0
M  V30 3140 C 313.813 -0.0852319 -1.60674 0
M  V30 3141 O 315.005 -0.311651 -1.74235 0
M  V30 3142 C 312.134 -0.902437 -3.31226 0
M  V30 3143 C 311.22 -2.03695 -3.7198 0
M  V30 3144 N 311.611 -3.28544 -3.84568 0
M  V30 3145 C 309.909 -1.93993 -4.016 0
M  V30 3146 C 310.61 -4.02847 -4.19629 0
M  V30 3147 N 309.586 -3.31138 -4.31102 0
M  V30 3148 H 313.388 -2.12462 -2.0307 0
M  V30 3149 H 310.902 -1.24127 -1.0472 0
M  V30 3150 H 312.899 -0.77915 -4.09554 0
M  V30 3151 H 311.559 0.0357267 -3.2468 0
M  V30 3152 H 312.57 -3.6349 -3.68911 0
M  V30 3153 H 309.247 -1.07733 -4.03361 0
M  V30 3154 H 310.637 -5.10506 -4.36845 0
M  V30 3155 N 313.357 1.07166 -1.15556 0
M  V30 3156 C 314.304 2.14417 -0.854055 0
M  V30 3157 C 315.274 1.64965 0.193806 0
M  V30 3158 O 316.459 1.90703 0.0609443 0
M  V30 3159 C 313.599 3.43304 -0.351574 0
M  V30 3160 C 312.712 4.06537 -1.46123 0
M  V30 3161 C 311.847 5.23266 -0.914677 0
M  V30 3162 C 310.886 5.78464 -2.00114 0
M  V30 3163 N 310.023 6.86521 -1.47083 0
M  V30 3164 H 314.863 2.39548 -1.77259 0
M  V30 3165 H 312.4 1.17543 -0.884425 0
M  V30 3166 H 314.358 4.17179 -0.0419409 0
M  V30 3167 H 312.988 3.18419 0.530037 0
M  V30 3168 H 312.04 3.30297 -1.88701 0
M  V30 3169 H 313.352 4.43567 -2.28144 0
M  V30 3170 H 312.506 6.04131 -0.557698 0
M  V30 3171 H 311.245 4.87658 -0.0636583 0
M  V30 3172 H 310.25 4.96243 -2.36692 0
M  V30 3173 H 311.475 6.16126 -2.85597 0
M  V30 3174 H 309.421 6.52849 -0.642198 0
M  V30 3175 H 309.338 7.22446 -2.22729 0
M  V30 3176 H 310.606 7.71087 -1.14215 0
M  V30 3177 N 314.835 0.952656 1.25548 0
M  V30 3178 C 316.246 0.647392 1.75116 0
M  V30 3179 C 316.597 -0.837274 1.77438 0
M  V30 3180 O 315.722 -1.65525 1.39393 0
M  V30 3181 C 316.317 1.16845 3.18014 0
M  V30 3182 C 314.876 0.913382 3.6515 0
M  V30 3183 C 314.023 1.31265 2.44264 0
M  V30 3184 H 316.974 1.12968 1.11462 0
M  V30 3185 H 316.995 0.527606 3.76824 0
M  V30 3186 H 316.507 2.24902 3.16292 0
M  V30 3187 H 314.608 -0.152316 3.72289 0
M  V30 3188 H 314.721 1.54845 4.53387 0
M  V30 3189 H 313.085 0.731028 2.43984 0
M  V30 3190 H 313.868 2.40239 2.45234 0
M  V30 3191 N 316.313 -1.40141 0.720998 0
M  V30 3192 C 317.538 -2.05618 0.271258 0
M  V30 3193 C 317.963 -1.53978 -1.08039 0
M  V30 3194 O 317.321 -0.677463 -1.68167 0
M  V30 3195 C 317.369 -3.59609 0.267197 0
M  V30 3196 O 316.473 -4.05526 -0.749814 0
M  V30 3197 H 315.814 -0.651904 0.126162 0
M  V30 3198 H 318.344 -1.79439 0.982997 0
M  V30 3199 H 318.354 -4.0786 0.106744 0
M  V30 3200 H 317.029 -3.96559 1.25354 0
M  V30 3201 H 315.606 -3.68722 -0.556644 0
M  V30 3202 N 317.792 -0.46758 -1.50504 0
M  V30 3203 C 318.74 0.342482 -2.30065 0
M  V30 3204 C 319.734 0.993596 -1.37201 0
M  V30 3205 O 320.94 0.925102 -1.54408 0
M  V30 3206 H 317.315 0.129283 -0.740803 0
M  V30 3207 H 319.286 -0.34899 -2.96352 0
M  V30 3208 C 318.035 1.4139 -3.17654 0
M  V30 3209 H 317.358 0.922264 -3.89017 0
M  V30 3210 H 318.798 1.95335 -3.76325 0
M  V30 3211 C 317.257 2.4139 -2.35016 0
M  V30 3212 O 317.787 3.46586 -2.03079 0
M  V30 3213 N 315.993 2.13021 -1.97662 0
M  V30 3214 H 315.54 1.27499 -2.23834 0
M  V30 3215 H 315.498 2.80164 -1.42673 0
M  V30 3216 N 319.27 1.56325 -0.20005 0
M  V30 3217 C 320.498 2.02105 0.442874 0
M  V30 3218 C 320.913 1.08014 1.5485 0
M  V30 3219 O 320.27 0.0858797 1.82298 0
M  V30 3220 C 320.321 3.47549 0.994583 0
M  V30 3221 O 320.042 4.38049 -0.0669322 0
M  V30 3222 C 321.543 4.0887 1.7129 0
M  V30 3223 H 318.763 0.661807 0.110691 0
M  V30 3224 H 321.307 2.02134 -0.310207 0
M  V30 3225 H 319.462 3.48204 1.69803 0
M  V30 3226 H 319.876 5.23368 0.344462 0
M  V30 3227 H 321.35 5.12475 2.05118 0
M  V30 3228 H 321.827 3.52615 2.61838 0
M  V30 3229 H 322.433 4.12002 1.05518 0
M  V30 3230 N 320.748 -0.0735177 1.57428 0
M  V30 3231 C 321.695 -1.08756 2.0357 0
M  V30 3232 C 322.665 -1.38559 0.916 0
M  V30 3233 O 323.85 -1.49656 1.18354 0
M  V30 3234 C 320.99 -2.39657 2.48311 0
M  V30 3235 C 320.103 -2.16399 3.73892 0
M  V30 3236 C 319.238 -3.40852 4.07423 0
M  V30 3237 C 318.277 -3.1295 5.2605 0
M  V30 3238 N 317.414 -4.29729 5.55228 0
M  V30 3239 H 322.254 -0.687104 2.8997 0
M  V30 3240 H 319.791 -0.327709 1.43403 0
M  V30 3241 H 321.749 -3.16081 2.72303 0
M  V30 3242 H 320.379 -2.77508 1.64891 0
M  V30 3243 H 319.431 -1.30676 3.57251 0
M  V30 3244 H 320.743 -1.91788 4.60455 0
M  V30 3245 H 319.897 -4.25671 4.32306 0
M  V30 3246 H 318.636 -3.68537 3.19425 0
M  V30 3247 H 317.641 -2.26526 5.00965 0
M  V30 3248 H 318.866 -2.86589 6.15665 0
M  V30 3249 H 316.812 -4.57448 4.70188 0
M  V30 3250 H 316.729 -4.08385 6.36206 0
M  V30 3251 H 317.997 -5.1555 5.84661 0
M  V30 3252 N 322.226 -1.5378 -0.344866 0
M  V30 3253 C 323.472 -1.71216 -1.08687 0
M  V30 3254 C 323.805 -0.473281 -1.88345 0
M  V30 3255 O 323.08 0.52968 -1.87149 0
M  V30 3256 C 323.363 -2.97486 -2.02914 0
M  V30 3257 C 323.216 -4.31579 -1.26727 0
M  V30 3258 C 324.535 -3.19422 -3.0275 0
M  V30 3259 H 321.654 -0.62301 -0.393735 0
M  V30 3260 H 324.296 -1.8645 -0.365563 0
M  V30 3261 H 322.446 -2.84629 -2.64421 0
M  V30 3262 H 324.118 -4.56284 -0.67845 0
M  V30 3263 H 322.361 -4.30049 -0.569273 0
M  V30 3264 H 323.032 -5.16106 -1.95803 0
M  V30 3265 H 325.508 -3.316 -2.51357 0
M  V30 3266 H 324.384 -4.09169 -3.65885 0
M  V30 3267 H 324.645 -2.35656 -3.74057 0
M  V30 3268 N 323.704 0.605807 -1.45491 0
M  V30 3269 C 324.981 1.36522 -1.40075 0
M  V30 3270 C 325.361 2.10976 -0.0722744 0
M  V30 3271 O 324.709 2.08007 0.945808 0
M  V30 3272 C 324.919 2.31056 -2.61561 0
M  V30 3273 C 326.267 2.93608 -3.06724 0
M  V30 3274 O 327.291 2.41376 -2.61946 0
M  V30 3275 O 326.15 3.88421 -3.84437 0
M  V30 3276 H 323.244 0.612248 -0.555951 0
M  V30 3277 H 325.79 0.628747 -1.57623 0
M  V30 3278 H 324.562 1.75311 -3.49831 0
M  V30 3279 H 324.185 3.12081 -2.46356 0
M  V30 3280 N 325.182 1.32811 0.848464 0
M  V30 3281 C 326.129 1.22265 1.95755 0
M  V30 3282 C 327.099 0.103413 1.65778 0
M  V30 3283 O 328.284 0.280033 1.88734 0
M  V30 3284 C 325.424 0.958014 3.31536 0
M  V30 3285 C 324.537 2.16262 3.73971 0
M  V30 3286 C 323.672 1.83295 4.98575 0
M  V30 3287 C 322.711 3.00041 5.33518 0
M  V30 3288 N 321.848 2.67125 6.49299 0
M  V30 3289 H 326.688 2.17128 2.04107 0
M  V30 3290 H 324.225 1.07982 0.998913 0
M  V30 3291 H 326.183 0.785052 4.09747 0
M  V30 3292 H 324.813 0.046159 3.22767 0
M  V30 3293 H 323.865 2.44565 2.91362 0
M  V30 3294 H 325.177 3.03572 3.95785 0
M  V30 3295 H 324.331 1.62586 5.84509 0
M  V30 3296 H 323.07 0.932078 4.7871 0
M  V30 3297 H 322.075 3.21374 4.46093 0
M  V30 3298 H 323.3 3.90869 5.55336 0
M  V30 3299 H 321.246 1.79586 6.3094 0
M  V30 3300 H 321.163 3.47965 6.71161 0
M  V30 3301 H 322.431 2.49861 7.3837 0
M  V30 3302 N 326.66 -1.06551 1.16123 0
M  V30 3303 C 328.076 -1.3142 0.905585 0
M  V30 3304 C 328.276 -1.96571 -0.442964 0
M  V30 3305 O 327.332 -2.23068 -1.18308 0
M  V30 3306 C 328.645 -2.19741 2.05267 0
M  V30 3307 C 330.193 -2.33165 2.08813 0
M  V30 3308 C 330.668 -3.24838 3.22868 0
M  V30 3309 N 332.159 -3.32421 3.22568 0
M  V30 3310 C 332.894 -4.0344 4.0746 0
M  V30 3311 N 332.39 -4.77003 5.02434 0
M  V30 3312 N 334.183 -3.99464 3.95456 0
M  V30 3313 H 326.334 -0.626548 2.02949 0
M  V30 3314 H 328.597 -0.338777 0.8854 0
M  V30 3315 H 328.303 -1.79142 3.02657 0
M  V30 3316 H 328.177 -3.20313 1.99198 0
M  V30 3317 H 330.564 -2.73013 1.12018 0
M  V30 3318 H 330.645 -1.3227 2.18948 0
M  V30 3319 H 330.289 -2.85708 4.19921 0
M  V30 3320 H 330.219 -4.25707 3.0997 0
M  V30 3321 H 332.71 -2.79994 2.53795 0
M  V30 3322 H 333.023 -5.28712 5.63634 0
M  V30 3323 H 331.368 -4.75992 5.06415 0
M  V30 3324 H 334.559 -3.4111 3.20564 0
M  V30 3325 H 334.732 -4.54544 4.61837 0
M  V30 3326 N 328.138 -0.959301 -1.25041 0
M  V30 3327 C 329.384 -0.617525 -1.9317 0
M  V30 3328 C 329.717 0.843981 -1.74902 0
M  V30 3329 O 328.992 1.60615 -1.09696 0
M  V30 3330 C 329.275 -0.982736 -3.46431 0
M  V30 3331 C 329.128 -2.50032 -3.73904 0
M  V30 3332 C 330.447 -0.511176 -4.37121 0
M  V30 3333 H 327.566 -0.22582 -0.701552 0
M  V30 3334 H 330.208 -1.19679 -1.4757 0
M  V30 3335 H 328.358 -0.489806 -3.854 0
M  V30 3336 H 330.03 -3.06737 -3.44544 0
M  V30 3337 H 328.273 -2.93598 -3.19348 0
M  V30 3338 H 328.944 -2.70635 -4.81103 0
M  V30 3339 H 331.42 -0.934075 -4.0548 0
M  V30 3340 H 330.296 -0.795361 -5.43107 0
M  V30 3341 H 330.557 0.588834 -4.38161 0
M  V30 3342 N 329.616 1.39756 -0.72842 0
M  V30 3343 C 330.526 2.34444 -0.0855374 0
M  V30 3344 C 331.542 1.57976 0.729356 0
M  V30 3345 O 332.718 1.90301 0.659346 0
M  V30 3346 C 329.783 3.36965 0.815798 0
M  V30 3347 C 328.844 4.29299 -0.0105996 0
M  V30 3348 C 328.077 5.26923 0.84781 0
M  V30 3349 O 328.3 5.30859 2.08673 0
M  V30 3350 O 327.234 6.01249 0.279969 0
M  V30 3351 H 331.06 2.91065 -0.866892 0
M  V30 3352 H 328.645 1.4117 -0.48902 0
M  V30 3353 H 330.527 3.99804 1.33171 0
M  V30 3354 H 329.202 2.82739 1.57608 0
M  V30 3355 H 328.109 3.69703 -0.571877 0
M  V30 3356 H 329.442 4.86712 -0.73295 0
M  V30 3357 N 331.094 0.475555 1.50254 0
M  V30 3358 C 332.505 0.0215174 1.86688 0
M  V30 3359 C 332.856 -1.38467 1.39001 0
M  V30 3360 O 331.981 -2.02732 0.756894 0
M  V30 3361 C 332.576 0.0322715 3.38785 0
M  V30 3362 C 331.135 -0.366314 3.74613 0
M  V30 3363 C 330.282 0.415832 2.74164 0
M  V30 3364 H 333.233 0.689612 1.42934 0
M  V30 3365 H 333.254 -0.76889 3.7265 0
M  V30 3366 H 332.766 1.05584 3.73462 0
M  V30 3367 H 330.867 -1.39406 3.45538 0
M  V30 3368 H 330.98 -0.064555 4.79057 0
M  V30 3369 H 329.344 -0.131048 2.54363 0
M  V30 3370 H 330.127 1.43899 3.11686 0
M  V30 3371 N 332.573 -1.56217 0.208337 0
M  V30 3372 C 333.52 -2.19699 -0.707192 0
M  V30 3373 C 334.49 -1.14836 -1.20008 0
M  V30 3374 O 335.675 -1.4314 -1.26157 0
M  V30 3375 C 332.815 -2.87061 -1.91546 0
M  V30 3376 C 331.928 -4.06483 -1.46271 0
M  V30 3377 C 331.063 -4.61665 -2.62752 0
M  V30 3378 C 330.102 -5.73417 -2.14147 0
M  V30 3379 N 329.239 -6.22948 -3.23853 0
M  V30 3380 H 334.079 -2.97575 -0.159111 0
M  V30 3381 H 331.616 -1.46948 -0.0667874 0
M  V30 3382 H 333.574 -3.24294 -2.62468 0
M  V30 3383 H 332.204 -2.11725 -2.43664 0
M  V30 3384 H 331.256 -3.74825 -0.648886 0
M  V30 3385 H 332.568 -4.87271 -1.06622 0
M  V30 3386 H 331.722 -5.01272 -3.41776 0
M  V30 3387 H 330.461 -3.80013 -3.05682 0
M  V30 3388 H 329.466 -5.33326 -1.33581 0
M  V30 3389 H 330.691 -6.56897 -1.72232 0
M  V30 3390 H 328.637 -5.44213 -3.6629 0
M  V30 3391 H 328.554 -6.98823 -2.88414 0
M  V30 3392 H 329.822 -6.6721 -4.03052 0
M  V30 3393 N 334.051 0.0651679 -1.57465 0
M  V30 3394 C 335.276 0.779605 -1.9219 0
M  V30 3395 C 335.701 1.69988 -0.805333 0
M  V30 3396 O 335.059 1.79685 0.241435 0
M  V30 3397 C 335.107 1.54364 -3.2589 0
M  V30 3398 O 334.211 2.65474 -3.1559 0
M  V30 3399 H 333.552 0.212249 -0.629163 0
M  V30 3400 H 336.082 0.0314294 -2.04576 0
M  V30 3401 H 336.092 1.92146 -3.59922 0
M  V30 3402 H 334.767 0.868457 -4.06732 0
M  V30 3403 H 333.344 2.30501 -2.93128 0
M  V30 3404 N 335.529 1.53961 0.336706 0
M  V30 3405 C 336.769 1.73254 1.08454 0
M  V30 3406 C 337.133 0.488937 1.8567 0
M  V30 3407 O 338.334 0.559001 2.62923 0
M  V30 3408 C 336.605 2.96519 1.99528 0
M  V30 3409 S 338.164 3.36655 2.81441 0
M  V30 3410 H 334.982 0.609353 0.366347 0
M  V30 3411 H 337.584 1.92117 0.362124 0
M  V30 3412 H 336.288 3.85193 1.41614 0
M  V30 3413 H 335.819 2.80142 2.76196 0
M  V30 3414 H 337.834 2.90925 4.01967 0
M  V30 3415 N 337.007 -0.598083 1.45811 0
M  V30 3416 C 338.284 -1.35777 1.40797 0
M  V30 3417 C 338.664 -2.10935 0.083462 0
M  V30 3418 O 338.012 -2.08505 -0.934763 0
M  V30 3419 C 338.222 -2.29666 2.62783 0
M  V30 3420 C 339.57 -2.91977 3.08277 0
M  V30 3421 O 340.594 -2.39984 2.63223 0
M  V30 3422 O 339.453 -3.86376 3.86491 0
M  V30 3423 H 336.547 -0.609291 0.55919 0
M  V30 3424 H 339.093 -0.620379 1.57954 0
M  V30 3425 H 337.865 -1.73454 3.50756 0
M  V30 3426 H 337.488 -3.1077 2.48008 0
M  V30 3427 N 338.485 -1.33259 -0.841409 0
M  V30 3428 C 339.432 -1.23302 -1.95103 0
M  V30 3429 C 340.402 -0.112204 -1.65721 0
M  V30 3430 O 341.587 -0.290038 -1.88583 0
M  V30 3431 C 338.727 -0.975583 -3.31023 0
M  V30 3432 C 337.84 -2.18243 -3.72819 0
M  V30 3433 C 336.975 -1.85936 -4.97595 0
M  V30 3434 C 336.014 -3.02866 -5.3192 0
M  V30 3435 N 335.151 -2.70565 -6.47873 0
M  V30 3436 H 339.991 -2.18207 -2.02952 0
M  V30 3437 H 337.528 -1.0851 -0.993173 0
M  V30 3438 H 339.486 -0.80677 -4.09325 0
M  V30 3439 H 338.116 -0.0632755 -3.22738 0
M  V30 3440 H 337.168 -2.46107 -2.90061 0
M  V30 3441 H 338.48 -3.05666 -3.94169 0
M  V30 3442 H 337.634 -1.65684 -5.83638 0
M  V30 3443 H 336.373 -0.957452 -4.78209 0
M  V30 3444 H 335.378 -3.23736 -4.44382 0
M  V30 3445 H 336.603 -3.93809 -5.53255 0
M  V30 3446 H 334.549 -1.8293 -6.29978 0
M  V30 3447 H 334.466 -3.51519 -6.69306 0
M  V30 3448 H 335.734 -2.53774 -7.37034 0
M  V30 3449 N 339.963 1.05934 -1.16686 0
M  V30 3450 C 341.191 1.8249 -0.974929 0
M  V30 3451 C 341.606 1.82679 0.476861 0
M  V30 3452 O 340.963 1.2486 1.33103 0
M  V30 3453 C 341.014 3.28943 -1.49929 0
M  V30 3454 O 340.735 3.28886 -2.89423 0
M  V30 3455 C 342.236 4.22215 -1.35089 0
M  V30 3456 H 339.456 0.575295 -0.345365 0
M  V30 3457 H 342 1.33631 -1.548 0
M  V30 3458 H 340.155 3.751 -0.968423 0
M  V30 3459 H 340.569 4.20493 -3.13506 0
M  V30 3460 H 342.043 5.22987 -1.76603 0
M  V30 3461 H 342.52 4.38195 -0.296935 0
M  V30 3462 H 343.126 3.81907 -1.87155 0
M  V30 3463 N 341.441 0.965919 1.2453 0
M  V30 3464 C 342.391 0.465731 2.23193 0
M  V30 3465 C 343.375 -0.451277 1.54442 0
M  V30 3466 O 344.567 -0.282489 1.74731 0
M  V30 3467 C 341.696 -0.244511 3.42428 0
M  V30 3468 C 340.782 0.691222 4.18429 0
M  V30 3469 N 341.173 1.82771 4.71623 0
M  V30 3470 C 339.471 0.501649 4.4317 0
M  V30 3471 C 340.172 2.41285 5.29298 0
M  V30 3472 N 339.148 1.69819 5.16394 0
M  V30 3473 H 342.95 1.33291 2.61937 0
M  V30 3474 H 340.464 0.824789 1.39896 0
M  V30 3475 H 342.461 -0.620056 4.12263 0
M  V30 3476 H 341.121 -1.10815 3.05205 0
M  V30 3477 H 342.132 2.20929 4.68413 0
M  V30 3478 H 338.809 -0.318177 4.16286 0
M  V30 3479 H 340.199 3.37181 5.8117 0
M  V30 3480 N 342.919 -1.39368 0.735821 0
M  V30 3481 C 344.147 -2.04795 0.294393 0
M  V30 3482 C 344.562 -1.55478 -1.07107 0
M  V30 3483 O 343.919 -0.720038 -1.67695 0
M  V30 3484 C 343.97 -3.6035 0.288071 0
M  V30 3485 O 343.691 -4.07852 1.59963 0
M  V30 3486 C 345.192 -4.42976 -0.169422 0
M  V30 3487 H 342.412 -0.658571 0.128551 0
M  V30 3488 H 344.956 -1.78399 0.999701 0
M  V30 3489 H 343.111 -3.85645 -0.368355 0
M  V30 3490 H 343.525 -5.02181 1.51375 0
M  V30 3491 H 344.999 -5.51864 -0.122687 0
M  V30 3492 H 345.476 -4.22068 -1.21472 0
M  V30 3493 H 346.082 -4.22832 0.457469 0
M  V30 3494 N 344.397 -0.483516 -1.5 0
M  V30 3495 C 345.637 0.0657469 -2.04294 0
M  V30 3496 C 346.001 1.35869 -1.35659 0
M  V30 3497 O 347.202 1.99111 -1.80578 0
M  V30 3498 C 345.473 0.232758 -3.56641 0
M  V30 3499 S 347.032 0.738788 -4.32536 0
M  V30 3500 H 343.85 0.0100755 -0.710929 0
M  V30 3501 H 346.452 -0.653494 -1.84254 0
M  V30 3502 H 345.156 -0.713847 -4.04144 0
M  V30 3503 H 344.687 0.977751 -3.81056 0
M  V30 3504 H 346.702 2.01048 -4.53645 0
M  V30 3505 N 345.875 1.56104 -0.216619 0
M  V30 3506 C 347.286 1.844 0.292128 0
M  V30 3507 C 347.637 1.13788 1.59833 0
M  V30 3508 O 346.762 0.405888 2.12559 0
M  V30 3509 C 347.357 3.3452 0.53681 0
M  V30 3510 C 345.916 3.63151 0.989876 0
M  V30 3511 C 345.063 2.77255 0.0502302 0
M  V30 3512 H 348.014 1.52481 -0.439926 0
M  V30 3513 H 348.035 3.54459 1.38345 0
M  V30 3514 H 347.547 3.85885 -0.414031 0
M  V30 3515 H 345.648 3.17238 1.95425 0
M  V30 3516 H 345.761 4.71177 0.867698 0
M  V30 3517 H 344.125 2.48555 0.556117 0
M  V30 3518 H 344.908 3.31416 -0.89544 0
M  V30 3519 N 347.353 -0.0568162 1.57498 0
M  V30 3520 C 348.764 -0.606858 1.76562 0
M  V30 3521 C 349.115 -1.77114 0.844094 0
M  V30 3522 O 348.24 -2.16376 0.0318911 0
M  V30 3523 C 348.835 -1.10766 3.20182 0
M  V30 3524 C 347.394 -1.60344 3.40539 0
M  V30 3525 C 346.541 -0.529311 2.72201 0
M  V30 3526 H 349.492 0.169393 1.57793 0
M  V30 3527 H 349.513 -1.97602 3.25167 0
M  V30 3528 H 349.025 -0.26006 3.87228 0
M  V30 3529 H 347.126 -2.47379 2.78629 0
M  V30 3530 H 347.239 -1.67006 4.4905 0
M  V30 3531 H 345.603 -0.977893 2.35179 0
M  V30 3532 H 346.386 0.308352 3.41912 0
M  V30 3533 N 348.832 -1.54138 -0.328536 0
M  V30 3534 C 350.072 -1.73827 -1.07534 0
M  V30 3535 C 350.436 -0.498777 -1.85408 0
M  V30 3536 O 351.637 -0.572937 -2.62623 0
M  V30 3537 C 349.908 -2.97573 -1.97952 0
M  V30 3538 S 351.467 -3.38143 -2.79652 0
M  V30 3539 H 348.285 -0.611287 -0.36311 0
M  V30 3540 H 350.887 -1.92306 -0.351931 0
M  V30 3541 H 349.591 -3.85939 -1.39569 0
M  V30 3542 H 349.122 -2.81603 -2.74706 0
M  V30 3543 H 351.137 -2.93052 -4.00418 0
M  V30 3544 N 350.31 0.590341 -1.46126 0
M  V30 3545 C 351.721 1.17243 -1.45296 0
M  V30 3546 C 352.072 1.95281 -0.189723 0
M  V30 3547 O 351.197 2.04502 0.707674 0
M  V30 3548 C 351.792 2.13284 -2.6324 0
M  V30 3549 C 350.351 2.66832 -2.65476 0
M  V30 3550 C 349.498 1.42557 -2.3785 0
M  V30 3551 H 352.449 0.378692 -1.54116 0
M  V30 3552 H 352.47 2.96619 -2.38323 0
M  V30 3553 H 351.982 1.56459 -3.55165 0
M  V30 3554 H 350.083 3.27548 -1.77603 0
M  V30 3555 H 350.196 3.10088 -3.65215 0
M  V30 3556 H 348.56 1.72107 -1.87753 0
M  V30 3557 H 349.343 0.875741 -3.31942 0
M  V30 3558 N 351.788 1.33704 0.83433 0
M  V30 3559 C 352.751 1.24244 1.92603 0
M  V30 3560 C 353.751 0.160383 1.59998 0
M  V30 3561 O 354.941 0.412228 1.69252 0
M  V30 3562 C 352.073 0.91555 3.28376 0
M  V30 3563 H 353.266 2.21287 2.02416 0
M  V30 3564 H 350.819 1.17827 1.02696 0
M  V30 3565 H 351.554 -0.0521886 3.24258 0
M  V30 3566 H 351.339 1.69811 3.53422 0
M  V30 3567 H 352.829 0.874231 4.08347 0
M  V30 3568 N 353.266 -1.05314 1.17247 0
M  V30 3569 C 354.677 -1.59753 0.96623 0
M  V30 3570 C 355.028 -1.9005 -0.487378 0
M  V30 3571 O 354.153 -1.68126 -1.36245 0
M  V30 3572 C 354.748 -2.90249 1.74759 0
M  V30 3573 C 353.307 -3.41352 1.58606 0
M  V30 3574 C 352.454 -2.15103 1.75002 0
M  V30 3575 H 355.405 -0.881406 1.31973 0
M  V30 3576 H 355.426 -3.60097 1.22925 0
M  V30 3577 H 354.938 -2.68166 2.8055 0
M  V30 3578 H 353.039 -3.68474 0.552985 0
M  V30 3579 H 353.152 -4.16019 2.37624 0
M  V30 3580 H 351.516 -2.25804 1.17833 0
M  V30 3581 H 352.299 -1.95491 2.82202 0
M  V30 3582 N 354.744 -0.972509 -1.24016 0
M  V30 3583 C 355.654 -0.5143 -2.28893 0
M  V30 3584 C 356.67 0.427078 -1.68677 0
M  V30 3585 O 357.846 0.298939 -1.99169 0
M  V30 3586 C 354.911 0.183598 -3.46214 0
M  V30 3587 C 353.972 -0.798202 -4.21814 0
M  V30 3588 C 353.205 -0.133514 -5.33533 0
M  V30 3589 O 353.428 1.07714 -5.60137 0
M  V30 3590 O 352.362 -0.828103 -5.96176 0
M  V30 3591 H 356.188 -1.38629 -2.70214 0
M  V30 3592 H 353.773 -0.739769 -1.29799 0
M  V30 3593 H 355.655 0.575433 -4.17453 0
M  V30 3594 H 354.33 1.03048 -3.0686 0
M  V30 3595 H 353.237 -1.24059 -3.52931 0
M  V30 3596 H 354.57 -1.61364 -4.64997 0
M  V30 3597 N 356.222 1.38976 -0.743202 0
M  V30 3598 C 357.152 2.33171 -0.123873 0
M  V30 3599 C 358.133 1.54336 0.71516 0
M  V30 3600 O 359.318 1.82696 0.658467 0
M  V30 3601 C 356.448 3.38474 0.777978 0
M  V30 3602 C 355.402 4.27979 0.0424758 0
M  V30 3603 C 354.728 5.2405 1.06189 0
M  V30 3604 C 356.028 5.10155 -1.1198 0
M  V30 3605 H 357.722 2.85213 -0.910709 0
M  V30 3606 H 355.268 1.37133 -0.439388 0
M  V30 3607 H 357.221 4.03328 1.22084 0
M  V30 3608 H 355.945 2.84891 1.59702 0
M  V30 3609 H 354.604 3.64616 -0.380853 0
M  V30 3610 H 354.252 4.66758 1.87472 0
M  V30 3611 H 353.952 5.84785 0.574485 0
M  V30 3612 H 355.476 5.9178 1.50428 0
M  V30 3613 H 356.89 5.68307 -0.75499 0
M  V30 3614 H 355.287 5.80073 -1.53738 0
M  V30 3615 H 356.357 4.44504 -1.93764 0
M  V30 3616 N 357.7 0.491464 1.49741 0
M  V30 3617 C 358.63 -0.28154 2.31796 0
M  V30 3618 C 359.611 -0.971473 1.3963 0
M  V30 3619 O 360.796 -0.964719 1.68543 0
M  V30 3620 C 357.926 -1.35203 3.19902 0
M  V30 3621 C 356.88 -0.782529 4.20786 0
M  V30 3622 C 356.206 -1.95283 4.97764 0
M  V30 3623 C 357.506 0.21999 5.21837 0
M  V30 3624 H 359.2 0.403355 2.96671 0
M  V30 3625 H 356.746 0.195425 1.42668 0
M  V30 3626 H 358.699 -1.90045 3.76113 0
M  V30 3627 H 357.423 -2.06598 2.52953 0
M  V30 3628 H 356.082 -0.255928 3.65706 0
M  V30 3629 H 355.73 -2.65423 4.2727 0
M  V30 3630 H 355.43 -1.57789 5.66018 0
M  V30 3631 H 356.954 -2.50577 5.56816 0
M  V30 3632 H 358.368 -0.23996 5.72798 0
M  V30 3633 H 356.765 0.51026 5.97927 0
M  V30 3634 H 357.835 1.13911 4.7133 0
M  V30 3635 N 359.178 -1.55987 0.224894 0
M  V30 3636 C 360.426 -1.97998 -0.405099 0
M  V30 3637 C 360.747 -1.11387 -1.60056 0
M  V30 3638 O 360.017 -0.191645 -1.9496 0
M  V30 3639 H 358.597 -0.731235 -0.152658 0
M  V30 3640 H 361.259 -1.92279 0.318567 0
M  V30 3641 H 360.355 -3.03463 -0.729167 0
M  V30 3642 N 360.656 0.0484629 -1.57525 0
M  V30 3643 C 361.904 0.741657 -1.88 0
M  V30 3644 C 362.225 1.76918 -0.820054 0
M  V30 3645 O 361.495 1.95335 0.148661 0
M  V30 3646 H 360.075 0.276908 -0.69378 0
M  V30 3647 H 362.737 0.019013 -1.94891 0
M  V30 3648 H 361.833 1.24336 -2.86264 0
M  V30 3649 N 362.134 1.5431 0.320358 0
M  V30 3650 C 363.545 1.63872 0.894594 0
M  V30 3651 C 363.896 0.534847 1.88769 0
M  V30 3652 O 363.021 -0.331732 2.13842 0
M  V30 3653 C 363.616 2.97049 1.62934 0
M  V30 3654 C 362.175 3.08796 2.15226 0
M  V30 3655 C 361.322 2.59456 0.978671 0
M  V30 3656 H 364.273 1.58398 0.0978544 0
M  V30 3657 H 364.294 2.87388 2.49376 0
M  V30 3658 H 363.806 3.7737 0.906302 0
M  V30 3659 H 361.907 2.33156 2.90636 0
M  V30 3660 H 362.02 4.14649 2.40006 0
M  V30 3661 H 360.384 2.1543 1.35875 0
M  V30 3662 H 361.167 3.42237 0.269895 0
M  V30 3663 N 363.613 -0.582584 1.46437 0
M  V30 3664 C 364.838 -1.37168 1.55563 0
M  V30 3665 C 365.263 -1.87061 0.19743 0
M  V30 3666 O 364.621 -1.61572 -0.822451 0
M  V30 3667 C 364.669 -2.53511 2.56446 0
M  V30 3668 O 363.773 -3.54953 2.09958 0
M  V30 3669 H 363.114 -0.408494 0.523477 0
M  V30 3670 H 365.644 -0.706646 1.9201 0
M  V30 3671 H 365.654 -3.00426 2.76058 0
M  V30 3672 H 364.329 -2.16549 3.55076 0
M  V30 3673 H 362.906 -3.14516 2.00334 0
M  V30 3674 N 365.091 -1.34144 -0.827227 0
M  V30 3675 C 366.337 -1.26446 -1.58554 0
M  V30 3676 C 366.67 0.1664 -1.93486 0
M  V30 3677 O 365.945 1.1107 -1.59667 0
M  V30 3678 C 366.228 -2.15111 -2.8879 0
M  V30 3679 C 366.081 -3.66712 -2.60465 0
M  V30 3680 C 367.4 -2.03311 -3.90324 0
M  V30 3681 H 364.519 -0.46067 -0.575284 0
M  V30 3682 H 367.161 -1.64356 -0.953269 0
M  V30 3683 H 365.311 -1.8291 -3.42748 0
M  V30 3684 H 366.983 -4.09259 -2.1285 0
M  V30 3685 H 365.226 -3.88014 -1.93978 0
M  V30 3686 H 365.897 -4.24112 -3.53317 0
M  V30 3687 H 368.373 -2.31574 -3.45706 0
M  V30 3688 H 367.249 -2.67582 -4.79261 0
M  V30 3689 H 367.51 -1.00879 -4.30437 0
M  V30 3690 N 366.569 1.04691 -1.17803 0
M  V30 3691 C 367.816 1.77782 -0.969532 0
M  V30 3692 C 368.144 1.87926 0.501401 0
M  V30 3693 O 367.399 1.37918 1.38842 0
M  V30 3694 C 367.698 3.21467 -1.56186 0
M  V30 3695 C 367.364 3.3137 -3.05786 0
M  V30 3696 C 366.026 3.3378 -3.46619 0
M  V30 3697 C 368.378 3.31976 -4.01797 0
M  V30 3698 C 365.706 3.34431 -4.82051 0
M  V30 3699 C 368.058 3.34167 -5.37136 0
M  V30 3700 C 366.722 3.34866 -5.77426 0
M  V30 3701 H 365.992 0.650549 -0.354777 0
M  V30 3702 H 368.639 1.23006 -1.46772 0
M  V30 3703 H 366.944 3.79203 -0.985515 0
M  V30 3704 H 368.641 3.76652 -1.37602 0
M  V30 3705 H 365.231 3.3021 -2.73238 0
M  V30 3706 H 369.415 3.29311 -3.71306 0
M  V30 3707 H 364.671 3.33285 -5.12573 0
M  V30 3708 H 368.845 3.33585 -6.11305 0
M  V30 3709 H 366.472 3.35124 -6.82346 0
M  V30 3710 N 368.047 0.979072 1.23499 0
M  V30 3711 C 368.977 0.537606 2.27227 0
M  V30 3712 C 369.958 -0.428539 1.64613 0
M  V30 3713 O 371.143 -0.322191 1.91509 0
M  V30 3714 C 368.273 -0.162052 3.46922 0
M  V30 3715 C 367.227 0.721242 4.21879 0
M  V30 3716 C 366.553 -0.110555 5.34586 0
M  V30 3717 C 367.853 2.01141 4.82016 0
M  V30 3718 H 369.547 1.40462 2.64406 0
M  V30 3719 H 367.093 0.67684 1.27102 0
M  V30 3720 H 369.046 -0.482192 4.18632 0
M  V30 3721 H 367.77 -1.06351 3.08799 0
M  V30 3722 H 366.429 1.02482 3.51984 0
M  V30 3723 H 366.077 -1.0125 4.92704 0
M  V30 3724 H 365.777 0.477325 5.85658 0
M  V30 3725 H 367.301 -0.425107 6.09118 0
M  V30 3726 H 368.715 1.75612 5.45741 0
M  V30 3727 H 367.112 2.54695 5.43369 0
M  V30 3728 H 368.182 2.69909 4.02836 0
M  V30 3729 N 369.525 -1.3858 0.750561 0
M  V30 3730 C 370.772 -2.00184 0.305373 0
M  V30 3731 C 371.1 -1.59575 -1.11203 0
M  V30 3732 O 370.355 -0.823236 -1.77542 0
M  V30 3733 C 370.654 -3.55455 0.372373 0
M  V30 3734 C 370.32 -4.15765 1.745 0
M  V30 3735 C 368.982 -4.31951 2.12065 0
M  V30 3736 C 371.334 -4.49067 2.64553 0
M  V30 3737 C 368.662 -4.78734 3.39162 0
M  V30 3738 C 371.014 -4.97265 3.91038 0
M  V30 3739 C 369.678 -5.11658 4.28676 0
M  V30 3740 H 368.948 -0.732526 0.111744 0
M  V30 3741 H 371.595 -1.65673 0.960451 0
M  V30 3742 H 369.9 -3.90084 -0.366272 0
M  V30 3743 H 371.597 -4.00999 0.00953918 0
M  V30 3744 H 368.187 -4.03579 1.44297 0
M  V30 3745 H 372.371 -4.36166 2.36796 0
M  V30 3746 H 367.627 -4.88062 3.68246 0
M  V30 3747 H 371.801 -5.22003 4.60962 0
M  V30 3748 H 369.428 -5.47668 5.27222 0
M  V30 3749 N 371.003 -0.499398 -1.49478 0
M  V30 3750 C 372.414 -0.051215 -1.8663 0
M  V30 3751 C 372.765 1.36238 -1.41186 0
M  V30 3752 O 371.89 2.01502 -0.789051 0
M  V30 3753 C 372.485 -0.0861651 -3.3869 0
M  V30 3754 C 371.044 0.30667 -3.75149 0
M  V30 3755 C 370.191 -0.459397 -2.73468 0
M  V30 3756 H 373.142 -0.712264 -1.41818 0
M  V30 3757 H 373.163 0.709507 -3.73826 0
M  V30 3758 H 372.675 -1.11512 -3.71735 0
M  V30 3759 H 370.776 1.33892 -3.47712 0
M  V30 3760 H 370.889 -0.0116669 -4.79099 0
M  V30 3761 H 369.253 0.0905645 -2.54539 0
M  V30 3762 H 370.036 -1.4884 -3.09357 0
M  V30 3763 N 372.481 1.55866 -0.233164 0
M  V30 3764 C 373.892 1.847 0.272554 0
M  V30 3765 C 374.243 1.15477 1.58617 0
M  V30 3766 O 373.368 0.42841 2.12117 0
M  V30 3767 C 373.963 3.35071 0.501299 0
M  V30 3768 C 372.522 3.6418 0.951304 0
M  V30 3769 C 371.669 2.77292 0.0208209 0
M  V30 3770 H 374.62 1.52005 -0.456074 0
M  V30 3771 H 374.641 3.55906 1.34577 0
M  V30 3772 H 374.153 3.85424 -0.454936 0
M  V30 3773 H 372.254 3.19293 1.92049 0
M  V30 3774 H 372.367 4.72071 0.817675 0
M  V30 3775 H 370.731 2.49131 0.529723 0
M  V30 3776 H 371.514 3.30448 -0.93054 0
M  V30 3777 N 373.959 -0.0401083 1.57549 0
M  V30 3778 C 374.906 -1.04413 2.05831 0
M  V30 3779 C 375.876 -1.36585 0.945184 0
M  V30 3780 O 377.061 -1.47112 1.21502 0
M  V30 3781 C 374.201 -2.34336 2.53339 0
M  V30 3782 C 373.314 -2.08419 3.78398 0
M  V30 3783 C 372.449 -3.32133 4.14561 0
M  V30 3784 C 371.488 -3.01721 5.3257 0
M  V30 3785 N 370.625 -4.17855 5.64218 0
M  V30 3786 H 375.465 -0.625442 2.91363 0
M  V30 3787 H 373.002 -0.297218 1.44066 0
M  V30 3788 H 374.96 -3.10234 2.78946 0
M  V30 3789 H 373.59 -2.73948 1.7074 0
M  V30 3790 H 372.642 -1.23069 3.59942 0
M  V30 3791 H 373.954 -1.81978 4.64419 0
M  V30 3792 H 373.108 -4.16406 4.41238 0
M  V30 3793 H 371.847 -3.61678 3.2717 0
M  V30 3794 H 370.852 -2.15849 5.05657 0
M  V30 3795 H 372.077 -2.73466 6.21605 0
M  V30 3796 H 370.023 -4.47372 4.79786 0
M  V30 3797 H 369.94 -3.94798 6.44725 0
M  V30 3798 H 371.208 -5.03033 5.95465 0
M  V30 3799 N 375.437 -1.54477 -0.31217 0
M  V30 3800 C 376.848 -1.64344 -0.885891 0
M  V30 3801 C 377.199 -0.54485 -1.88483 0
M  V30 3802 O 376.324 0.320387 -2.14015 0
M  V30 3803 C 376.919 -2.97908 -1.61357 0
M  V30 3804 C 375.478 -3.09933 -2.13585 0
M  V30 3805 C 374.625 -2.59971 -0.964897 0
M  V30 3806 H 377.576 -1.58448 -0.0894528 0
M  V30 3807 H 377.597 -2.88706 -2.47848 0
M  V30 3808 H 377.109 -3.77845 -0.886277 0
M  V30 3809 H 375.21 -2.34694 -2.89395 0
M  V30 3810 H 375.323 -4.15916 -2.37804 0
M  V30 3811 H 373.687 -2.16147 -1.34731 0
M  V30 3812 H 374.47 -3.42376 -0.251742 0
M  V30 3813 N 376.915 0.57481 -1.46744 0
M  V30 3814 C 377.862 1.68329 -1.57905 0
M  V30 3815 C 378.832 1.60625 -0.422927 0
M  V30 3816 O 380.017 1.79721 -0.640711 0
M  V30 3817 C 377.157 3.06665 -1.58274 0
M  V30 3818 C 376.27 3.24935 -2.84678 0
M  V30 3819 C 375.405 4.53566 -2.76499 0
M  V30 3820 C 374.444 4.65207 -3.97806 0
M  V30 3821 N 373.581 5.85172 -3.87967 0
M  V30 3822 H 378.421 1.58127 -2.52587 0
M  V30 3823 H 375.958 0.770552 -1.25303 0
M  V30 3824 H 377.916 3.86745 -1.56473 0
M  V30 3825 H 376.546 3.15745 -0.671194 0
M  V30 3826 H 375.598 2.38405 -2.96424 0
M  V30 3827 H 376.91 3.29403 -3.7456 0
M  V30 3828 H 376.064 5.41885 -2.72848 0
M  V30 3829 H 374.803 4.51548 -1.8427 0
M  V30 3830 H 373.808 3.75304 -4.0178 0
M  V30 3831 H 375.033 4.68997 -4.9114 0
M  V30 3832 H 372.979 5.84137 -2.98529 0
M  V30 3833 H 372.896 5.90943 -4.71511 0
M  V30 3834 H 374.164 6.759 -3.88303 0
M  V30 3835 N 378.394 1.34581 0.820102 0
M  V30 3836 C 379.671 1.17675 1.56244 0
M  V30 3837 C 380.051 -0.249541 2.0962 0
M  V30 3838 O 379.399 -1.25125 1.91196 0
M  V30 3839 C 379.609 2.23364 2.6816 0
M  V30 3840 C 380.957 2.58485 3.36854 0
M  V30 3841 O 381.981 2.22175 2.78418 0
M  V30 3842 O 380.84 3.20868 4.42386 0
M  V30 3843 H 377.934 0.456333 0.689702 0
M  V30 3844 H 380.48 1.46222 0.861231 0
M  V30 3845 H 379.252 3.19087 2.26493 0
M  V30 3846 H 378.875 1.96009 3.45928 0
M  V30 3847 N 379.872 -1.04064 1.18357 0
M  V30 3848 C 381.1 -1.80916 1.00384 0
M  V30 3849 C 381.515 -1.83414 -0.447738 0
M  V30 3850 O 380.872 -1.26962 -1.31099 0
M  V30 3851 C 380.923 -3.26516 1.55144 0
M  V30 3852 O 380.644 -3.2424 2.94618 0
M  V30 3853 C 382.145 -4.20013 1.41789 0
M  V30 3854 H 379.365 -0.569728 0.354474 0
M  V30 3855 H 381.909 -1.31151 1.56906 0
M  V30 3856 H 380.064 -3.73512 1.02798 0
M  V30 3857 H 380.478 -4.15452 3.20156 0
M  V30 3858 H 381.952 -5.20111 1.84901 0
M  V30 3859 H 382.429 -4.37667 0.36661 0
M  V30 3860 H 383.035 -3.78881 1.93207 0
M  V30 3861 N 381.35 -0.985608 -1.22978 0
M  V30 3862 C 382.28 -0.549649 -2.26939 0
M  V30 3863 C 383.261 0.419803 -1.64838 0
M  V30 3864 O 384.446 0.31203 -1.91677 0
M  V30 3865 C 381.576 0.143652 -3.47003 0
M  V30 3866 C 380.53 -0.743606 -4.21491 0
M  V30 3867 C 379.856 0.0822027 -5.34637 0
M  V30 3868 C 381.156 -2.03694 -4.80943 0
M  V30 3869 H 382.85 -1.41862 -2.63658 0
M  V30 3870 H 380.396 -0.683571 -1.26741 0
M  V30 3871 H 382.349 0.459985 -4.18882 0
M  V30 3872 H 381.073 1.04711 -3.09359 0
M  V30 3873 H 379.732 -1.04347 -3.51436 0
M  V30 3874 H 379.38 0.986359 -4.93234 0
M  V30 3875 H 379.08 -0.508377 -5.85397 0
M  V30 3876 H 380.604 0.392797 -6.09335 0
M  V30 3877 H 382.018 -1.78504 -5.44802 0
M  V30 3878 H 380.415 -2.57573 -5.42011 0
M  V30 3879 H 381.485 -2.72042 -4.01399 0
M  V30 3880 N 382.828 1.3818 -0.7579 0
M  V30 3881 C 383.761 2.28055 -0.0814093 0
M  V30 3882 C 384.739 1.45603 0.723779 0
M  V30 3883 O 385.923 1.74961 0.701491 0
M  V30 3884 C 383.05 3.2676 0.891394 0
M  V30 3885 C 382.096 4.26153 0.171909 0
M  V30 3886 S 382.929 5.23434 -1.13035 0
M  V30 3887 C 384.085 6.25694 -0.160727 0
M  V30 3888 H 384.318 2.85082 -0.84353 0
M  V30 3889 H 381.851 1.44246 -0.550671 0
M  V30 3890 H 383.809 3.8414 1.44731 0
M  V30 3891 H 382.47 2.68706 1.62652 0
M  V30 3892 H 381.663 4.95738 0.908843 0
M  V30 3893 H 381.265 3.72691 -0.312606 0
M  V30 3894 H 383.557 6.74161 0.671773 0
M  V30 3895 H 384.5 7.03285 -0.824353 0
M  V30 3896 H 384.908 5.64064 0.221892 0
M  V30 3897 N 384.306 0.507319 1.49211 0
M  V30 3898 C 385.555 -0.0368315 2.01666 0
M  V30 3899 C 385.868 -1.37459 1.39156 0
M  V30 3900 O 387.074 -2.00579 1.82976 0
M  V30 3901 C 385.53 -0.116089 3.59713 0
M  V30 3902 C 385.138 1.2154 4.31198 0
M  V30 3903 C 386.882 -0.610268 4.2009 0
M  V30 3904 C 384.789 1.09796 5.81119 0
M  V30 3905 H 383.719 -0.0175376 0.753796 0
M  V30 3906 H 386.37 0.647691 1.71689 0
M  V30 3907 H 384.752 -0.8652 3.86433 0
M  V30 3908 H 385.926 1.9783 4.16173 0
M  V30 3909 H 384.241 1.64352 3.82593 0
M  V30 3910 H 386.838 -0.715742 5.29888 0
M  V30 3911 H 387.181 -1.61064 3.8388 0
M  V30 3912 H 387.714 0.0824916 3.97714 0
M  V30 3913 H 384.453 2.0728 6.21864 0
M  V30 3914 H 383.973 0.376058 5.9862 0
M  V30 3915 H 385.652 0.779281 6.4229 0
M  V30 3916 N 385.784 -1.5574 0.241426 0
M  V30 3917 C 387.009 -2.0366 -0.392111 0
M  V30 3918 C 387.434 -1.11969 -1.51144 0
M  V30 3919 O 386.792 -0.111594 -1.80956 0
M  V30 3920 C 386.84 -3.49638 -0.882371 0
M  V30 3921 O 385.944 -3.6108 -1.99235 0
M  V30 3922 H 385.285 -0.658379 -0.0862122 0
M  V30 3923 H 387.815 -2.01302 0.365881 0
M  V30 3924 H 387.825 -3.90351 -1.18702 0
M  V30 3925 H 386.5 -4.15852 -0.0632361 0
M  V30 3926 H 385.077 -3.32262 -1.69282 0
M  V30 3927 N 387.262 0.0317525 -1.57568 0
M  V30 3928 C 388.678 0.38735 -1.54828 0
M  V30 3929 C 388.878 1.7677 -0.967187 0
M  V30 3930 O 387.934 2.45581 -0.587063 0
M  V30 3931 C 389.247 0.291667 -2.99282 0
M  V30 3932 C 390.795 0.368946 -3.10818 0
M  V30 3933 C 391.27 0.302741 -4.56998 0
M  V30 3934 N 392.761 0.361617 -4.61786 0
M  V30 3935 C 393.496 0.333238 -5.72431 0
M  V30 3936 N 392.992 0.257308 -6.92322 0
M  V30 3937 N 394.785 0.382769 -5.60795 0
M  V30 3938 H 386.936 -0.871609 -1.93692 0
M  V30 3939 H 389.199 -0.331161 -0.888277 0
M  V30 3940 H 388.905 -0.656794 -3.45513 0
M  V30 3941 H 388.779 1.08638 -3.61217 0
M  V30 3942 H 391.166 1.30784 -2.64536 0
M  V30 3943 H 391.247 -0.455066 -2.5172 0
M  V30 3944 H 390.891 -0.632473 -5.03947 0
M  V30 3945 H 390.821 1.14482 -5.14005 0
M  V30 3946 H 393.312 0.422923 -3.75526 0
M  V30 3947 H 393.625 0.24068 -7.72425 0
M  V30 3948 H 391.97 0.223396 -6.94641 0
M  V30 3949 H 395.161 0.44006 -4.66027 0
M  V30 3950 H 395.334 0.357184 -6.47015 0
M  V30 3951 N 388.74 1.54641 0.303973 0
M  V30 3952 C 389.968 1.77768 1.05858 0
M  V30 3953 C 390.383 0.535722 1.8104 0
M  V30 3954 O 389.74 -0.494337 1.75677 0
M  V30 3955 C 389.791 2.9834 2.04146 0
M  V30 3956 O 389.512 4.17736 1.32015 0
M  V30 3957 C 391.013 3.33832 2.91669 0
M  V30 3958 H 388.233 0.592961 0.314067 0
M  V30 3959 H 390.777 2.01583 0.344149 0
M  V30 3960 H 388.932 2.76742 2.71096 0
M  V30 3961 H 389.346 4.85693 1.97998 0
M  V30 3962 H 390.82 4.21448 3.56491 0
M  V30 3963 H 391.297 2.51857 3.59812 0
M  V30 3964 H 391.903 3.57579 2.30254 0
M  V30 3965 N 390.218 -0.567019 1.47046 0
M  V30 3966 C 391.629 -1.14916 1.47143 0
M  V30 3967 C 391.98 -1.94954 0.220767 0
M  V30 3968 O 391.105 -2.05602 -0.67505 0
M  V30 3969 C 391.7 -2.09069 2.666 0
M  V30 3970 C 390.259 -2.62575 2.69687 0
M  V30 3971 C 389.406 -1.38755 2.40088 0
M  V30 3972 H 392.357 -0.354126 1.54699 0
M  V30 3973 H 392.378 -2.92789 2.43011 0
M  V30 3974 H 391.89 -1.50789 3.57609 0
M  V30 3975 H 389.991 -3.24681 1.82792 0
M  V30 3976 H 390.104 -3.04239 3.70102 0
M  V30 3977 H 388.468 -1.69098 1.90468 0
M  V30 3978 H 389.251 -0.822822 3.33293 0
M  V30 3979 N 391.696 -1.35014 -0.812953 0
M  V30 3980 C 392.606 -1.2951 -1.95613 0
M  V30 3981 C 393.622 -0.20107 -1.72834 0
M  V30 3982 O 394.798 -0.42932 -1.96771 0
M  V30 3983 C 391.863 -1.06033 -3.30088 0
M  V30 3984 C 390.924 -2.24688 -3.65805 0
M  V30 3985 C 390.157 -2.02322 -4.93864 0
M  V30 3986 O 390.38 -0.986464 -5.61805 0
M  V30 3987 O 389.314 -2.89525 -5.27692 0
M  V30 3988 H 393.14 -2.25705 -2.03202 0
M  V30 3989 H 390.725 -1.15321 -0.949811 0
M  V30 3990 H 392.607 -0.94763 -4.10607 0
M  V30 3991 H 391.282 -0.128852 -3.23443 0
M  V30 3992 H 390.189 -2.41521 -2.85689 0
M  V30 3993 H 391.522 -3.16261 -3.77147 0
M  V30 3994 N 393.175 1.03435 -1.18907 0
M  V30 3995 C 394.421 1.77005 -0.989798 0
M  V30 3996 C 394.754 1.88205 0.478816 0
M  V30 3997 O 394.029 1.39481 1.35556 0
M  V30 3998 C 394.312 3.19925 -1.65287 0
M  V30 3999 C 394.165 3.1663 -3.19477 0
M  V30 4000 C 395.484 4.18189 -1.37134 0
M  V30 4001 H 392.603 0.642538 -0.360991 0
M  V30 4002 H 395.245 1.20784 -1.46667 0
M  V30 4003 H 393.395 3.67929 -1.24741 0
M  V30 4004 H 395.067 2.76567 -3.692 0
M  V30 4005 H 393.31 2.54491 -3.51307 0
M  V30 4006 H 393.981 4.1758 -3.61013 0
M  V30 4007 H 396.457 3.78761 -1.72276 0
M  V30 4008 H 395.333 5.16394 -1.86087 0
M  V30 4009 H 395.594 4.41112 -0.295424 0
M  V30 4010 N 394.653 0.992116 1.22453 0
M  V30 4011 C 395.881 0.685944 1.95198 0
M  V30 4012 C 396.296 -0.749233 1.73297 0
M  V30 4013 O 395.653 -1.50549 1.03156 0
M  V30 4014 C 395.704 0.981395 3.47924 0
M  V30 4015 O 395.425 2.36018 3.6909 0
M  V30 4016 C 396.926 0.692815 4.37853 0
M  V30 4017 H 394.146 0.253821 0.621141 0
M  V30 4018 H 396.69 1.32668 1.55626 0
M  V30 4019 H 394.845 0.386481 3.85467 0
M  V30 4020 H 395.259 2.45884 4.63294 0
M  V30 4021 H 396.733 0.949818 5.43767 0
M  V30 4022 H 397.21 -0.373181 4.37612 0
M  V30 4023 H 397.816 1.26874 4.05935 0
M  V30 4024 N 396.131 -1.37776 0.765217 0
M  V30 4025 C 397.371 -2.01691 0.331669 0
M  V30 4026 C 397.735 -1.59432 -1.06983 0
M  V30 4027 O 398.936 -2.15761 -1.60314 0
M  V30 4028 C 397.207 -3.54385 0.463261 0
M  V30 4029 S 398.766 -4.38652 0.114011 0
M  V30 4030 H 395.584 -0.699387 0.127979 0
M  V30 4031 H 398.186 -1.68084 0.998396 0
M  V30 4032 H 396.89 -3.82629 1.48401 0
M  V30 4033 H 396.421 -3.92783 -0.220246 0
M  V30 4034 H 398.436 -4.84021 -1.09261 0
M  V30 4035 N 397.609 -0.515225 -1.4894 0
M  V30 4036 C 398.855 0.0242508 -2.02785 0
M  V30 4037 C 399.188 1.35323 -1.39289 0
M  V30 4038 O 398.463 1.87041 -0.533469 0
M  V30 4039 C 398.746 0.16184 -3.59736 0
M  V30 4040 C 398.599 -1.19127 -4.33738 0
M  V30 4041 C 399.918 0.895719 -4.30888 0
M  V30 4042 H 397.037 0.00733914 -0.736963 0
M  V30 4043 H 399.679 -0.669395 -1.77818 0
M  V30 4044 H 397.829 0.752624 -3.8114 0
M  V30 4045 H 399.501 -1.82202 -4.23792 0
M  V30 4046 H 397.744 -1.77695 -3.95736 0
M  V30 4047 H 398.415 -1.04815 -5.41957 0
M  V30 4048 H 400.891 0.394528 -4.14225 0
M  V30 4049 H 399.767 0.960859 -5.40425 0
M  V30 4050 H 400.028 1.9427 -3.97129 0
M  V30 4051 N 399.087 1.5561 -0.249682 0
M  V30 4052 C 400.333 1.99306 0.374841 0
M  V30 4053 C 400.666 1.13767 1.57387 0
M  V30 4054 O 399.941 0.201711 1.93451 0
M  V30 4055 C 400.224 3.51507 0.781986 0
M  V30 4056 C 400.077 4.4781 -0.422629 0
M  V30 4057 C 401.396 4.08884 1.62793 0
M  V30 4058 H 398.515 0.724572 0.134773 0
M  V30 4059 H 401.157 1.86719 -0.351549 0
M  V30 4060 H 399.307 3.62363 1.4009 0
M  V30 4061 H 400.979 4.48931 -1.06108 0
M  V30 4062 H 399.222 4.20518 -1.06524 0
M  V30 4063 H 399.893 5.51919 -0.0943766 0
M  V30 4064 H 402.369 4.01147 1.10547 0
M  V30 4065 H 401.245 5.1564 1.88166 0
M  V30 4066 H 401.506 3.57515 2.60068 0
M  V30 4067 N 400.565 -0.0233959 1.57583 0
M  V30 4068 C 401.811 -0.714119 1.89811 0
M  V30 4069 C 402.144 -1.74702 0.848113 0
M  V30 4070 O 401.419 -1.94023 -0.136135 0
M  V30 4071 C 401.702 -1.37853 3.32669 0
M  V30 4072 C 401.555 -0.358764 4.48367 0
M  V30 4073 C 402.874 -2.31101 3.7454 0
M  V30 4074 H 399.993 -0.25814 0.690314 0
M  V30 4075 H 402.635 0.0230927 1.89986 0
M  V30 4076 H 400.785 -2.00689 3.3265 0
M  V30 4077 H 402.457 0.268115 4.6052 0
M  V30 4078 H 400.7 0.321387 4.32608 0
M  V30 4079 H 401.371 -0.862242 5.45224 0
M  V30 4080 H 403.847 -1.78304 3.75961 0
M  V30 4081 H 402.723 -2.74567 4.75294 0
M  V30 4082 H 402.984 -3.18018 3.0711 0
M  V30 4083 N 402.043 -1.548 -0.295768 0
M  V30 4084 C 403.32 -1.65014 -1.05023 0
M  V30 4085 C 403.7 -0.501805 -2.05049 0
M  V30 4086 O 403.048 0.500869 -2.22943 0
M  V30 4087 C 403.258 -3.03252 -1.72741 0
M  V30 4088 C 404.606 -3.60242 -2.24746 0
M  V30 4089 O 405.63 -3.05737 -1.82765 0
M  V30 4090 O 404.489 -4.55687 -3.01681 0
M  V30 4091 H 401.583 -0.669314 -0.485744 0
M  V30 4092 H 404.129 -1.67144 -0.293438 0
M  V30 4093 H 402.901 -3.7827 -1.00138 0
M  V30 4094 H 402.524 -3.04922 -2.55163 0
M  V30 4095 N 403.521 0.559213 -1.47345 0
M  V30 4096 C 404.767 1.31843 -1.54095 0
M  V30 4097 C 405.1 1.93149 -0.201726 0
M  V30 4098 O 404.375 1.77759 0.789428 0
M  V30 4099 C 404.658 2.43006 -2.65744 0
M  V30 4100 C 404.511 1.86581 -4.09277 0
M  V30 4101 C 405.83 3.44943 -2.73318 0
M  V30 4102 H 402.949 0.478012 -0.560957 0
M  V30 4103 H 405.591 0.625977 -1.79392 0
M  V30 4104 H 403.741 3.02072 -2.44305 0
M  V30 4105 H 405.413 1.31792 -4.42073 0
M  V30 4106 H 403.656 1.17268 -4.17649 0
M  V30 4107 H 404.327 2.66933 -4.83168 0
M  V30 4108 H 406.803 2.95793 -2.92653 0
M  V30 4109 H 405.679 4.20153 -3.53218 0
M  V30 4110 H 405.94 4.03665 -1.80296 0
M  V30 4111 N 404.999 1.35443 0.805782 0
M  V30 4112 C 406.224 1.32037 1.59941 0
M  V30 4113 C 406.649 -0.0994215 1.87837 0
M  V30 4114 O 406.007 -1.06648 1.46615 0
M  V30 4115 C 406.055 2.13354 2.90711 0
M  V30 4116 O 405.159 1.5148 3.83572 0
M  V30 4117 H 404.5 0.452666 0.485787 0
M  V30 4118 H 407.03 1.78496 1.00002 0
M  V30 4119 H 407.04 2.25338 3.40128 0
M  V30 4120 H 405.715 3.16572 2.69732 0
M  V30 4121 H 404.292 1.4834 3.42125 0
M  V30 4122 N 406.477 -1.02803 1.19454 0
M  V30 4123 C 407.427 -2.0945 0.900827 0
M  V30 4124 C 408.411 -1.60335 -0.134715 0
M  V30 4125 O 409.603 -1.76857 0.0710924 0
M  V30 4126 C 406.732 -3.4044 0.442229 0
M  V30 4127 C 405.818 -3.96286 1.51056 0
M  V30 4128 N 406.209 -4.25785 2.73021 0
M  V30 4129 C 404.507 -4.24307 1.37404 0
M  V30 4130 C 405.208 -4.70654 3.41848 0
M  V30 4131 N 404.184 -4.72238 2.69243 0
M  V30 4132 H 407.986 -2.3015 1.82779 0
M  V30 4133 H 405.5 -1.20672 1.08683 0
M  V30 4134 H 407.497 -4.16354 0.21326 0
M  V30 4135 H 406.157 -3.21159 -0.478238 0
M  V30 4136 H 407.168 -4.15041 3.09776 0
M  V30 4137 H 403.845 -4.14285 0.517103 0
M  V30 4138 H 405.235 -5.02392 4.46152 0
M  V30 4139 N 407.956 -0.998596 -1.21925 0
M  V30 4140 C 408.866 -0.562736 -2.27751 0
M  V30 4141 C 409.882 0.391203 -1.69545 0
M  V30 4142 O 411.058 0.256625 -1.99758 0
M  V30 4143 C 408.123 0.11012 -3.46525 0
M  V30 4144 C 407.184 -0.887495 -4.20026 0
M  V30 4145 C 406.417 -0.246654 -5.3313 0
M  V30 4146 O 406.64 0.958088 -5.62296 0
M  V30 4147 O 405.574 -0.954374 -5.94286 0
M  V30 4148 H 409.4 -1.44329 -2.67213 0
M  V30 4149 H 406.985 -0.767135 -1.28201 0
M  V30 4150 H 408.867 0.486756 -4.18579 0
M  V30 4151 H 407.542 0.965154 -3.08976 0
M  V30 4152 H 406.449 -1.31517 -3.5022 0
M  V30 4153 H 407.782 -1.71191 -4.6147 0
M  V30 4154 N 409.434 1.37368 -0.772513 0
M  V30 4155 C 410.711 1.93839 -0.26188 0
M  V30 4156 C 411.091 1.7061 1.24319 0
M  V30 4157 O 410.439 1.05534 2.02669 0
M  V30 4158 C 410.649 3.43154 -0.636102 0
M  V30 4159 C 411.997 4.20249 -0.606324 0
M  V30 4160 O 413.021 3.5152 -0.575538 0
M  V30 4161 O 411.88 5.42809 -0.634086 0
M  V30 4162 H 408.974 0.82478 -0.0605555 0
M  V30 4163 H 411.52 1.4665 -0.853917 0
M  V30 4164 H 410.292 3.53647 -1.6748 0
M  V30 4165 H 409.915 3.97596 -0.0170516 0
M  V30 4166 N 410.912 0.523116 1.48665 0
M  V30 4167 C 412.323 0.0808997 1.86525 0
M  V30 4168 C 412.674 -1.33975 1.43336 0
M  V30 4169 O 411.799 -2.00221 0.821009 0
M  V30 4170 C 412.394 0.140037 3.3851 0
M  V30 4171 C 410.953 -0.246948 3.75589 0
M  V30 4172 C 410.1 0.502845 2.72703 0
M  V30 4173 H 413.051 0.734736 1.40667 0
M  V30 4174 H 413.072 -0.649945 3.74908 0
M  V30 4175 H 412.584 1.17412 3.69914 0
M  V30 4176 H 410.685 -1.28343 3.49798 0
M  V30 4177 H 410.798 0.0878859 4.79019 0
M  V30 4178 H 409.162 -0.0500581 2.54651 0
M  V30 4179 H 409.945 1.53743 3.0695 0
M  V30 4180 N 412.39 -1.55475 0.257931 0
M  V30 4181 C 413.3 -2.2549 -0.647425 0
M  V30 4182 C 414.316 -1.2748 -1.18427 0
M  V30 4183 O 415.492 -1.6038 -1.2182 0
M  V30 4184 C 412.557 -2.94916 -1.82278 0
M  V30 4185 C 411.618 -4.08363 -1.32432 0
M  V30 4186 C 410.851 -4.74469 -2.44366 0
M  V30 4187 O 411.074 -4.39701 -3.63344 0
M  V30 4188 O 410.008 -5.62763 -2.13497 0
M  V30 4189 H 413.834 -3.03593 -0.0807707 0
M  V30 4190 H 411.419 -1.49377 0.0259962 0
M  V30 4191 H 413.301 -3.38606 -2.50846 0
M  V30 4192 H 411.976 -2.19744 -2.37685 0
M  V30 4193 H 410.883 -3.69166 -0.605605 0
M  V30 4194 H 412.216 -4.85385 -0.816211 0
M  V30 4195 N 413.868 0.0150385 -1.57593 0
M  V30 4196 C 415.114 0.704043 -1.90187 0
M  V30 4197 C 415.447 1.74249 -0.857366 0
M  V30 4198 O 414.722 1.94092 0.125843 0
M  V30 4199 C 415.005 1.36087 -3.33395 0
M  V30 4200 C 414.858 0.334981 -4.48551 0
M  V30 4201 C 416.177 2.29112 -3.7576 0
M  V30 4202 H 413.296 0.254475 -0.691673 0
M  V30 4203 H 415.938 -0.0331678 -1.89971 0
M  V30 4204 H 414.088 1.98922 -3.3371 0
M  V30 4205 H 415.76 -0.292534 -4.60372 0
M  V30 4206 H 414.003 -0.344325 -4.32431 0
M  V30 4207 H 414.674 0.833316 -5.45674 0
M  V30 4208 H 417.15 1.76308 -3.76902 0
M  V30 4209 H 416.026 2.72043 -4.76743 0
M  V30 4210 H 416.287 3.16385 -3.08793 0
M  V30 4211 N 415.346 1.54954 0.287554 0
M  V30 4212 C 416.293 1.86834 1.35505 0
M  V30 4213 C 417.263 0.718452 1.49758 0
M  V30 4214 O 418.448 0.968358 1.644 0
M  V30 4215 C 415.588 2.13303 2.71286 0
M  V30 4216 C 414.701 3.40883 2.65373 0
M  V30 4217 C 413.836 3.57125 3.93236 0
M  V30 4218 C 412.875 4.78449 3.81776 0
M  V30 4219 N 412.012 4.91426 5.01443 0
M  V30 4220 H 416.852 2.77889 1.07619 0
M  V30 4221 H 414.389 1.37593 0.520241 0
M  V30 4222 H 416.347 2.26646 3.50267 0
M  V30 4223 H 414.977 1.25499 2.97405 0
M  V30 4224 H 414.029 3.36088 1.78182 0
M  V30 4225 H 415.341 4.29993 2.52799 0
M  V30 4226 H 414.495 3.70207 4.80658 0
M  V30 4227 H 413.234 2.66173 4.0866 0
M  V30 4228 H 412.239 4.65386 2.92738 0
M  V30 4229 H 413.464 5.70822 3.67884 0
M  V30 4230 H 411.41 4.03401 5.17304 0
M  V30 4231 H 411.327 5.74559 4.91343 0
M  V30 4232 H 412.595 5.08879 5.90477 0
M  V30 4233 N 416.824 -0.551391 1.4764 0
M  V30 4234 C 418.071 -1.3083 1.54563 0
M  V30 4235 C 418.399 -1.93359 0.210361 0
M  V30 4236 O 417.654 -1.78721 -0.797332 0
M  V30 4237 C 417.953 -2.43469 2.61644 0
M  V30 4238 C 417.619 -1.98732 4.04742 0
M  V30 4239 C 416.281 -1.86248 4.43695 0
M  V30 4240 C 418.633 -1.64659 4.94507 0
M  V30 4241 C 415.961 -1.37995 5.70241 0
M  V30 4242 C 418.313 -1.17875 6.21521 0
M  V30 4243 C 416.977 -1.03992 6.5935 0
M  V30 4244 H 416.247 -0.478741 0.565587 0
M  V30 4245 H 418.894 -0.617697 1.81264 0
M  V30 4246 H 417.199 -3.18109 2.28722 0
M  V30 4247 H 418.896 -3.01642 2.64222 0
M  V30 4248 H 415.486 -2.09393 3.73968 0
M  V30 4249 H 419.67 -1.73174 4.65107 0
M  V30 4250 H 414.926 -1.25915 5.98294 0
M  V30 4251 H 419.1 -0.905739 6.90485 0
M  V30 4252 H 416.727 -0.663794 7.57296 0
M  V30 4253 N 418.302 -1.35869 -0.798587 0
M  V30 4254 C 419.25 -1.29491 -1.93222 0
M  V30 4255 C 420.244 -0.18836 -1.6835 0
M  V30 4256 O 421.45 -0.354822 -1.76468 0
M  V30 4257 H 417.825 -0.402901 -0.63496 0
M  V30 4258 H 419.796 -2.25247 -1.9572 0
M  V30 4259 C 418.545 -1.09184 -3.30112 0
M  V30 4260 H 417.868 -1.93574 -3.49813 0
M  V30 4261 H 419.308 -1.08766 -4.09812 0
M  V30 4262 C 417.767 0.203959 -3.36282 0
M  V30 4263 O 418.297 1.19699 -3.83451 0
M  V30 4264 N 416.503 0.245488 -2.89561 0
M  V30 4265 H 416.05 -0.563223 -2.51367 0
M  V30 4266 H 416.008 1.11219 -2.94071 0
M  V30 4267 N 419.78 1.02168 -1.19998 0
M  V30 4268 C 421.026 1.7606 -1.01855 0
M  V30 4269 C 421.381 1.87178 0.445222 0
M  V30 4270 O 420.674 1.3828 1.32624 0
M  V30 4271 C 420.868 3.18081 -1.62969 0
M  V30 4272 C 420.697 3.20809 -3.15137 0
M  V30 4273 C 419.467 3.28342 -3.84083 0
M  V30 4274 C 421.665 3.07268 -4.1242 0
M  V30 4275 N 419.647 3.2052 -5.23584 0
M  V30 4276 C 421.018 3.0716 -5.38566 0
M  V30 4277 C 423.073 2.91448 -4.03686 0
M  V30 4278 C 421.776 2.92853 -6.56985 0
M  V30 4279 C 423.802 2.78494 -5.21723 0
M  V30 4280 C 423.164 2.79046 -6.46771 0
M  V30 4281 H 419.263 0.655192 -0.426905 0
M  V30 4282 H 421.847 1.21564 -1.52087 0
M  V30 4283 H 420.018 3.70882 -1.15329 0
M  V30 4284 H 421.75 3.80375 -1.38192 0
M  V30 4285 H 418.505 3.34859 -3.34913 0
M  V30 4286 H 418.929 3.19997 -5.96599 0
M  V30 4287 H 423.571 2.89838 -3.07821 0
M  V30 4288 H 421.289 2.93213 -7.53028 0
M  V30 4289 H 424.875 2.67278 -5.16773 0
M  V30 4290 H 423.755 2.69134 -7.36571 0
M  V30 4291 N 421.258 1.00505 1.21394 0
M  V30 4292 C 422.488 0.705584 1.94178 0
M  V30 4293 C 422.896 -0.735846 1.74304 0
M  V30 4294 O 422.239 -1.50954 1.04683 0
M  V30 4295 C 422.301 0.94689 3.46806 0
M  V30 4296 C 421.965 2.37517 3.90429 0
M  V30 4297 C 422.962 3.35539 3.97127 0
M  V30 4298 C 420.647 2.71284 4.22742 0
M  V30 4299 C 422.641 4.65395 4.3553 0
M  V30 4300 C 420.328 4.01356 4.60822 0
M  V30 4301 C 421.326 4.98223 4.67186 0
M  V30 4302 O 421.014 6.25969 5.04399 0
M  V30 4303 H 420.746 0.259216 0.624326 0
M  V30 4304 H 423.3 1.34592 1.55159 0
M  V30 4305 H 421.53 0.249386 3.85895 0
M  V30 4306 H 423.219 0.640804 4.0081 0
M  V30 4307 H 423.985 3.10786 3.7234 0
M  V30 4308 H 419.864 1.96581 4.16985 0
M  V30 4309 H 423.408 5.41002 4.40412 0
M  V30 4310 H 419.305 4.25893 4.85063 0
M  V30 4311 H 420.073 6.30085 5.22431 0
M  V30 4312 N 422.737 -1.36956 0.779787 0
M  V30 4313 C 423.983 -1.99787 0.348281 0
M  V30 4314 C 424.316 -1.61756 -1.07465 0
M  V30 4315 O 423.591 -0.867639 -1.74075 0
M  V30 4316 C 423.874 -3.56597 0.50104 0
M  V30 4317 C 423.727 -4.04513 1.96697 0
M  V30 4318 C 425.046 -4.40008 -0.0898097 0
M  V30 4319 H 422.165 -0.725796 0.128022 0
M  V30 4320 H 424.807 -1.62514 0.984331 0
M  V30 4321 H 422.957 -3.88479 -0.0404347 0
M  V30 4322 H 424.629 -3.83161 2.56876 0
M  V30 4323 H 422.872 -3.56408 2.47297 0
M  V30 4324 H 423.543 -5.1352 2.02486 0
M  V30 4325 H 426.019 -4.14431 0.372293 0
M  V30 4326 H 424.895 -5.4888 0.0471605 0
M  V30 4327 H 425.156 -4.26035 -1.18096 0
M  V30 4328 N 424.215 -0.530993 -1.48385 0
M  V30 4329 C 425.492 0.0671788 -1.95485 0
M  V30 4330 C 425.872 1.51191 -1.47324 0
M  V30 4331 O 425.22 2.17507 -0.700202 0
M  V30 4332 C 425.43 -0.0511206 -3.48963 0
M  V30 4333 C 426.778 0.107632 -4.24464 0
M  V30 4334 O 427.802 0.0226248 -3.56193 0
M  V30 4335 O 426.661 0.285972 -5.45751 0
M  V30 4336 H 423.755 0.0787365 -0.823243 0
M  V30 4337 H 426.301 -0.595662 -1.58902 0
M  V30 4338 H 425.073 -1.05747 -3.7674 0
M  V30 4339 H 424.696 0.650525 -3.92242 0
M  V30 4340 N 425.693 1.55336 -0.266172 0
M  V30 4341 C 426.941 1.99003 0.35246 0
M  V30 4342 C 427.262 1.15591 1.57047 0
M  V30 4343 O 426.532 0.243268 1.94384 0
M  V30 4344 H 425.112 0.735025 0.133217 0
M  V30 4345 H 427.774 1.91367 -0.369434 0
M  V30 4346 H 426.87 3.05289 0.648453 0
M  V30 4347 N 427.171 -0.0066808 1.57599 0
M  V30 4348 C 428.417 -0.693947 1.90558 0
M  V30 4349 C 428.75 -1.73792 0.866594 0
M  V30 4350 O 428.025 -1.94156 -0.115548 0
M  V30 4351 C 428.308 -1.34317 3.34112 0
M  V30 4352 C 428.161 -0.311189 4.48722 0
M  V30 4353 C 429.48 -2.27116 3.7697 0
M  V30 4354 H 426.599 -0.250803 0.693013 0
M  V30 4355 H 429.241 0.043242 1.89951 0
M  V30 4356 H 427.391 -1.9715 3.3476 0
M  V30 4357 H 429.063 0.316944 4.6021 0
M  V30 4358 H 427.306 0.367253 4.32243 0
M  V30 4359 H 427.977 -0.804366 5.46108 0
M  V30 4360 H 430.453 -1.74306 3.77831 0
M  V30 4361 H 429.329 -2.69511 4.78179 0
M  V30 4362 H 429.59 -3.14743 3.10466 0
M  V30 4363 N 428.649 -1.55105 -0.279332 0
M  V30 4364 C 429.559 -1.90638 -1.36727 0
M  V30 4365 C 430.575 -0.802899 -1.54368 0
M  V30 4366 O 431.751 -1.10138 -1.68616 0
M  V30 4367 C 428.816 -2.16547 -2.70755 0
M  V30 4368 C 427.877 -3.40146 -2.61915 0
M  V30 4369 C 427.11 -3.6481 -3.8955 0
M  V30 4370 O 427.333 -2.92095 -4.89935 0
M  V30 4371 O 426.267 -4.58343 -3.90135 0
M  V30 4372 H 430.093 -2.83237 -1.09591 0
M  V30 4373 H 427.678 -1.4157 -0.477306 0
M  V30 4374 H 429.56 -2.34665 -3.50014 0
M  V30 4375 H 428.235 -1.27131 -2.9769 0
M  V30 4376 H 427.142 -3.2737 -1.81052 0
M  V30 4377 H 428.475 -4.29761 -2.3993 0
M  V30 4378 N 430.127 0.543554 -1.4793 0
M  V30 4379 C 431.373 1.30201 -1.55485 0
M  V30 4380 C 431.706 1.92925 -0.222201 0
M  V30 4381 O 430.981 1.78586 0.77053 0
M  V30 4382 C 431.264 2.40174 -2.68307 0
M  V30 4383 C 431.117 1.8223 -4.11233 0
M  V30 4384 C 432.436 3.42024 -2.76961 0
M  V30 4385 H 429.555 0.472036 -0.565996 0
M  V30 4386 H 432.197 0.606914 -1.80046 0
M  V30 4387 H 430.347 2.99463 -2.47495 0
M  V30 4388 H 432.019 1.27096 -4.43446 0
M  V30 4389 H 430.262 1.12832 -4.18869 0
M  V30 4390 H 430.933 2.61793 -4.85972 0
M  V30 4391 H 433.409 2.92672 -2.95774 0
M  V30 4392 H 432.285 4.16383 -3.57654 0
M  V30 4393 H 432.546 4.0173 -1.84568 0
M  V30 4394 N 431.605 1.3629 0.791371 0
M  V30 4395 C 432.555 1.26988 1.89362 0
M  V30 4396 C 433.539 0.161795 1.60084 0
M  V30 4397 O 434.731 0.394426 1.72549 0
M  V30 4398 C 431.86 1.05944 3.26544 0
M  V30 4399 C 430.946 2.21211 3.61838 0
M  V30 4400 N 431.337 3.46518 3.68455 0
M  V30 4401 C 429.635 2.12933 3.91887 0
M  V30 4402 C 430.336 4.2241 3.99931 0
M  V30 4403 N 429.312 3.51329 4.14812 0
M  V30 4404 H 433.114 2.21908 1.92702 0
M  V30 4405 H 430.628 1.28982 0.986787 0
M  V30 4406 H 432.625 0.973666 4.05371 0
M  V30 4407 H 431.285 0.119223 3.24481 0
M  V30 4408 H 432.296 3.80677 3.51148 0
M  V30 4409 H 428.973 1.26855 3.97761 0
M  V30 4410 H 430.363 5.30767 4.1199 0
M  V30 4411 N 433.083 -1.0153 1.20538 0
M  V30 4412 C 434.031 -2.12215 0.952235 0
M  V30 4413 C 435.025 -1.69123 -0.0968735 0
M  V30 4414 O 436.231 -1.7992 0.0536006 0
M  V30 4415 H 432.606 -0.693576 0.290613 0
M  V30 4416 H 434.577 -2.3075 1.89201 0
M  V30 4417 C 433.326 -3.43755 0.522287 0
M  V30 4418 H 432.649 -3.7734 1.32115 0
M  V30 4419 H 434.089 -4.22254 0.384389 0
M  V30 4420 C 432.548 -3.28088 -0.765489 0
M  V30 4421 O 433.078 -3.57921 -1.8236 0
M  V30 4422 N 431.284 -2.81333 -0.728011 0
M  V30 4423 H 430.831 -2.57255 0.133332 0
M  V30 4424 H 430.789 -2.71232 -1.58999 0
M  V30 4425 N 434.561 -1.01147 -1.20859 0
M  V30 4426 C 435.524 -0.582224 -2.21682 0
M  V30 4427 C 436.524 0.344887 -1.57058 0
M  V30 4428 O 437.714 0.134281 -1.73682 0
M  V30 4429 C 434.846 0.150496 -3.40568 0
M  V30 4430 H 436.039 -1.47408 -2.61172 0
M  V30 4431 H 433.592 -0.800695 -1.34233 0
M  V30 4432 H 434.327 1.0575 -3.06574 0
M  V30 4433 H 434.112 -0.515444 -3.88697 0
M  V30 4434 H 435.602 0.438344 -4.15293 0
M  V30 4435 N 436.039 1.36541 -0.78704 0
M  V30 4436 C 436.986 2.30082 -0.181901 0
M  V30 4437 C 437.956 1.5186 0.672896 0
M  V30 4438 O 439.141 1.80374 0.622072 0
M  V30 4439 C 436.281 3.3835 0.679197 0
M  V30 4440 C 435.394 4.31565 -0.193882 0
M  V30 4441 C 434.529 5.26915 0.673364 0
M  V30 4442 C 433.568 6.11769 -0.201315 0
M  V30 4443 N 432.705 6.99315 0.624777 0
M  V30 4444 H 437.545 2.81248 -0.985064 0
M  V30 4445 H 435.082 1.38437 -0.497342 0
M  V30 4446 H 437.04 3.99767 1.19341 0
M  V30 4447 H 435.67 2.8851 1.44781 0
M  V30 4448 H 434.722 3.71323 -0.826044 0
M  V30 4449 H 436.034 4.91191 -0.867937 0
M  V30 4450 H 435.188 5.9361 1.25348 0
M  V30 4451 H 433.927 4.67737 1.38105 0
M  V30 4452 H 432.932 5.44039 -0.793849 0
M  V30 4453 H 434.157 6.73022 -0.906568 0
M  V30 4454 H 432.103 6.42648 1.3168 0
M  V30 4455 H 432.02 7.56 0.00835237 0
M  V30 4456 H 433.288 7.70382 1.18879 0
M  V30 4457 N 437.518 0.538854 1.48102 0
M  V30 4458 C 438.746 0.0123136 2.06896 0
M  V30 4459 C 439.161 -1.27312 1.39417 0
M  V30 4460 O 438.518 -1.75949 0.484582 0
M  V30 4461 C 438.569 -0.206118 3.60912 0
M  V30 4462 O 438.29 1.0284 4.25859 0
M  V30 4463 C 439.791 -0.772033 4.36526 0
M  V30 4464 H 437.011 0.0375239 0.66995 0
M  V30 4465 H 439.555 0.747032 1.90367 0
M  V30 4466 H 437.71 -0.89091 3.77017 0
M  V30 4467 H 438.124 0.814654 5.18135 0
M  V30 4468 H 439.598 -0.874251 5.45033 0
M  V30 4469 H 440.075 -1.77904 4.01555 0
M  V30 4470 H 440.681 -0.123526 4.25121 0
M  V30 4471 N 438.996 -1.55193 0.274407 0
M  V30 4472 C 439.943 -2.225 -0.613374 0
M  V30 4473 C 440.913 -1.19823 -1.15029 0
M  V30 4474 O 442.098 -1.48362 -1.19973 0
M  V30 4475 C 439.238 -2.94927 -1.79199 0
M  V30 4476 C 438.351 -4.12322 -1.28899 0
M  V30 4477 C 437.486 -4.72394 -2.42934 0
M  V30 4478 C 436.525 -5.81984 -1.89634 0
M  V30 4479 N 435.662 -6.36123 -2.9714 0
M  V30 4480 H 440.502 -2.97982 -0.032756 0
M  V30 4481 H 438.039 -1.47099 -0.00440146 0
M  V30 4482 H 439.997 -3.35134 -2.48478 0
M  V30 4483 H 438.627 -2.2187 -2.34465 0
M  V30 4484 H 437.679 -3.7724 -0.489327 0
M  V30 4485 H 438.991 -4.91355 -0.858587 0
M  V30 4486 H 438.145 -5.15317 -3.20208 0
M  V30 4487 H 436.884 -3.92636 -2.8929 0
M  V30 4488 H 435.889 -5.38511 -1.1084 0
M  V30 4489 H 437.114 -6.6361 -1.44215 0
M  V30 4490 H 435.06 -5.59259 -3.42878 0
M  V30 4491 H 434.977 -7.10427 -2.58515 0
M  V30 4492 H 436.245 -6.83704 -3.74391 0
M  V30 4493 N 440.474 -0.00167713 -1.576 0
M  V30 4494 C 441.885 0.54091 -1.78693 0
M  V30 4495 C 442.236 1.7386 -0.909247 0
M  V30 4496 O 441.361 2.16109 -0.112176 0
M  V30 4497 C 441.956 0.98806 -3.24072 0
M  V30 4498 C 440.515 1.47594 -3.46256 0
M  V30 4499 C 439.662 0.42792 -2.73978 0
M  V30 4500 H 442.613 -0.22784 -1.57056 0
M  V30 4501 H 442.634 1.85398 -3.32277 0
M  V30 4502 H 442.146 0.116164 -3.87926 0
M  V30 4503 H 440.247 2.36868 -2.87618 0
M  V30 4504 H 440.36 1.50225 -4.54939 0
M  V30 4505 H 438.724 0.889934 -2.38647 0
M  V30 4506 H 439.507 -0.435038 -3.40532 0
M  V30 4507 N 441.952 1.55251 0.271103 0
M  V30 4508 C 443.368 1.47133 0.618393 0
M  V30 4509 C 443.568 0.686994 1.89427 0
M  V30 4510 O 442.624 0.206609 2.51653 0
M  V30 4511 C 443.937 2.91361 0.743593 0
M  V30 4512 C 445.485 3.01587 0.837522 0
M  V30 4513 C 445.96 4.47073 0.994483 0
M  V30 4514 N 447.451 4.50909 1.05996 0
M  V30 4515 C 448.186 5.60698 1.20024 0
M  V30 4516 N 447.682 6.80348 1.30759 0
M  V30 4517 N 449.475 5.48444 1.23149 0
M  V30 4518 H 441.626 2.04698 -0.566784 0
M  V30 4519 H 443.889 0.928319 -0.192165 0
M  V30 4520 H 443.595 3.51483 -0.123493 0
M  V30 4521 H 443.469 3.40484 1.62328 0
M  V30 4522 H 445.856 2.4156 1.69507 0
M  V30 4523 H 445.937 2.55713 -0.0668086 0
M  V30 4524 H 445.581 5.07703 0.141582 0
M  V30 4525 H 445.511 4.90605 1.91349 0
M  V30 4526 H 448.002 3.6472 0.989316 0
M  V30 4527 H 448.315 7.59772 1.41303 0
M  V30 4528 H 446.66 6.83156 1.27761 0
M  V30 4529 H 449.851 4.53907 1.14394 0
M  V30 4530 H 450.024 6.34049 1.33738 0
M  V30 4531 N 443.43 -0.535701 1.48216 0
M  V30 4532 C 444.34 -1.66785 1.64985 0
M  V30 4533 C 445.356 -1.65654 0.532414 0
M  V30 4534 O 446.532 -1.8471 0.80275 0
M  V30 4535 C 443.597 -3.0326 1.68031 0
M  V30 4536 C 442.658 -3.1529 2.9136 0
M  V30 4537 C 441.891 -4.45255 2.94252 0
M  V30 4538 O 442.114 -5.32011 2.05719 0
M  V30 4539 O 441.048 -4.6153 3.86359 0
M  V30 4540 H 444.874 -1.55576 2.60825 0
M  V30 4541 H 442.459 -0.70815 1.31551 0
M  V30 4542 H 444.341 -3.84436 1.72589 0
M  V30 4543 H 443.016 -3.14805 0.753628 0
M  V30 4544 H 441.923 -2.3343 2.92337 0
M  V30 4545 H 443.256 -3.08658 3.83394 0
M  V30 4546 N 444.908 -1.36708 -0.784132 0
M  V30 4547 C 445.818 -1.3363 -1.92822 0
M  V30 4548 C 446.834 -0.237686 -1.72369 0
M  V30 4549 O 448.01 -0.470962 -1.95816 0
M  V30 4550 C 445.075 -1.13011 -3.27764 0
M  V30 4551 C 444.136 -2.32397 -3.60957 0
M  V30 4552 C 443.369 -2.12752 -4.89461 0
M  V30 4553 O 443.592 -1.10541 -5.59586 0
M  V30 4554 O 442.526 -3.00653 -5.21432 0
M  V30 4555 H 446.352 -2.29964 -1.98369 0
M  V30 4556 H 443.937 -1.1731 -0.925136 0
M  V30 4557 H 445.819 -1.03451 -4.08504 0
M  V30 4558 H 444.494 -0.19743 -3.23097 0
M  V30 4559 H 443.401 -2.47527 -2.80502 0
M  V30 4560 H 444.734 -3.2419 -3.70354 0
M  V30 4561 N 446.386 1.0089 -1.21074 0
M  V30 4562 C 447.318 2.09737 -0.924291 0
M  V30 4563 C 448.331 1.62546 0.0909809 0
M  V30 4564 O 449.52 1.77942 -0.141021 0
M  V30 4565 C 446.62 3.36922 -0.36559 0
M  V30 4566 C 445.793 4.13216 -1.43426 0
M  V30 4567 C 444.852 5.18696 -0.885496 0
M  V30 4568 O 443.878 5.47176 -1.56801 0
M  V30 4569 N 445.08 5.79718 0.301227 0
M  V30 4570 H 447.845 2.34895 -1.8613 0
M  V30 4571 H 445.406 1.17341 -1.11546 0
M  V30 4572 H 447.398 4.04697 0.0158407 0
M  V30 4573 H 445.968 3.08952 0.476149 0
M  V30 4574 H 445.188 3.40301 -1.9897 0
M  V30 4575 H 446.476 4.60967 -2.15376 0
M  V30 4576 H 445.874 5.58926 0.872849 0
M  V30 4577 H 444.431 6.48804 0.624211 0
M  V30 4578 N 447.864 1.01787 1.20321 0
M  V30 4579 C 449.094 0.72614 1.93419 0
M  V30 4580 C 449.502 -0.717317 1.75075 0
M  V30 4581 O 448.845 -1.49836 1.06278 0
M  V30 4582 C 448.907 0.983621 3.45782 0
M  V30 4583 C 448.571 2.41645 3.87888 0
M  V30 4584 C 449.568 3.39732 3.93545 0
M  V30 4585 C 447.253 2.75752 4.19841 0
M  V30 4586 C 449.247 4.69988 4.30569 0
M  V30 4587 C 446.934 4.06221 4.56539 0
M  V30 4588 C 447.932 5.0315 4.61876 0
M  V30 4589 O 447.62 6.31284 4.97731 0
M  V30 4590 H 447.352 0.265824 0.621541 0
M  V30 4591 H 449.906 1.3623 1.53722 0
M  V30 4592 H 448.136 0.290301 3.85609 0
M  V30 4593 H 449.825 0.683279 4.00108 0
M  V30 4594 H 450.591 3.14718 3.69022 0
M  V30 4595 H 446.47 2.00993 4.14877 0
M  V30 4596 H 450.014 5.45642 4.3465 0
M  V30 4597 H 445.911 4.31013 4.80518 0
M  V30 4598 H 446.679 6.35591 5.15719 0
M  V30 4599 N 449.342 -1.36122 0.79427 0
M  V30 4600 C 450.29 -2.31871 0.184023 0
M  V30 4601 C 451.284 -1.56041 -0.659365 0
M  V30 4602 O 452.49 -1.71266 -0.553906 0
M  V30 4603 H 448.865 -0.750896 0.0407373 0
M  V30 4604 H 450.836 -2.80898 1.00693 0
M  V30 4605 C 449.585 -3.41324 -0.662813 0
M  V30 4606 H 448.908 -3.99793 -0.0231944 0
M  V30 4607 H 450.348 -4.10629 -1.05639 0
M  V30 4608 C 448.807 -2.83308 -1.82313 0
M  V30 4609 O 449.337 -2.75863 -2.91997 0
M  V30 4610 N 447.543 -2.40529 -1.63077 0
M  V30 4611 H 447.09 -2.46785 -0.738591 0
M  V30 4612 H 447.048 -2.02059 -2.40872 0
M  V30 4613 N 450.82 -0.546701 -1.47814 0
M  V30 4614 C 452.045 -0.021268 -2.07389 0
M  V30 4615 C 452.47 1.25822 -1.39822 0
M  V30 4616 O 451.828 1.75111 -0.46968 0
M  V30 4617 C 451.876 0.168502 -3.60206 0
M  V30 4618 O 450.98 1.23347 -3.93522 0
M  V30 4619 H 450.321 -0.0466108 -0.662362 0
M  V30 4620 H 452.851 -0.759387 -1.89985 0
M  V30 4621 H 452.861 0.385982 -4.0617 0
M  V30 4622 H 451.536 -0.766075 -4.08784 0
M  V30 4623 H 450.113 0.997319 -3.59316 0
M  V30 4624 N 452.299 1.55045 -0.282633 0
M  V30 4625 C 453.527 2.04168 0.33512 0
M  V30 4626 C 453.942 1.16071 1.48906 0
M  V30 4627 O 453.299 0.182391 1.81586 0
M  V30 4628 C 453.35 3.52332 0.808957 0
M  V30 4629 O 453.071 4.37078 -0.299038 0
M  V30 4630 C 454.572 4.17375 1.49375 0
M  V30 4631 H 451.792 0.666744 0.0754543 0
M  V30 4632 H 454.336 2.00205 -0.416918 0
M  V30 4633 H 452.491 3.56715 1.51106 0
M  V30 4634 H 452.905 5.24458 0.0665514 0
M  V30 4635 H 454.379 5.22627 1.77664 0
M  V30 4636 H 454.856 3.65999 2.42778 0
M  V30 4637 H 455.462 4.17016 0.835305 0
M  V30 4638 N 453.777 0.010035 1.57597 0
M  V30 4639 C 455.007 -0.682422 1.95004 0
M  V30 4640 C 455.415 -1.67278 0.884014 0
M  V30 4641 O 454.758 -1.83129 -0.144672 0
M  V30 4642 C 454.82 -1.46141 3.28456 0
M  V30 4643 C 454.484 -0.631523 4.52615 0
M  V30 4644 C 455.481 0.0850905 5.1983 0
M  V30 4645 C 453.166 -0.574539 4.99003 0
M  V30 4646 C 455.16 0.847566 6.3174 0
M  V30 4647 C 452.847 0.191655 6.10799 0
M  V30 4648 C 453.845 0.901432 6.77025 0
M  V30 4649 O 453.533 1.65511 7.86677 0
M  V30 4650 H 453.265 -0.194361 0.647456 0
M  V30 4651 H 455.819 0.060312 2.05311 0
M  V30 4652 H 454.049 -2.24885 3.14585 0
M  V30 4653 H 455.738 -2.04016 3.50902 0
M  V30 4654 H 456.504 0.0502812 4.84974 0
M  V30 4655 H 452.383 -1.11654 4.47274 0
M  V30 4656 H 455.927 1.4021 6.83364 0
M  V30 4657 H 451.824 0.228249 6.45096 0
M  V30 4658 H 452.592 1.57287 8.03245 0
M  V30 4659 N 455.255 -1.55392 -0.262866 0
M  V30 4660 C 456.671 -1.47459 -0.610582 0
M  V30 4661 C 456.871 -0.697031 -1.8906 0
M  V30 4662 O 455.927 -0.219952 -2.5154 0
M  V30 4663 C 457.24 -2.91751 -0.728131 0
M  V30 4664 C 458.788 -3.02027 -0.821517 0
M  V30 4665 C 459.263 -4.47594 -0.97076 0
M  V30 4666 N 460.754 -4.51465 -1.03603 0
M  V30 4667 C 461.489 -5.61326 -1.17049 0
M  V30 4668 N 460.985 -6.81032 -1.2715 0
M  V30 4669 N 462.778 -5.49089 -1.20239 0
M  V30 4670 H 454.929 -2.04395 0.577632 0
M  V30 4671 H 457.192 -0.927287 0.197086 0
M  V30 4672 H 456.898 -3.51413 0.142132 0
M  V30 4673 H 456.772 -3.4134 -1.6052 0
M  V30 4674 H 459.159 -2.42456 -1.68224 0
M  V30 4675 H 459.24 -2.55674 0.0803688 0
M  V30 4676 H 458.884 -5.07771 -0.114655 0
M  V30 4677 H 458.814 -4.91613 -1.88745 0
M  V30 4678 H 461.305 -3.6524 -0.96996 0
M  V30 4679 H 461.618 -7.60511 -1.37271 0
M  V30 4680 H 459.963 -6.83824 -1.24136 0
M  V30 4681 H 463.154 -4.54507 -1.11985 0
M  V30 4682 H 463.327 -6.34749 -1.30373 0
M  V30 4683 N 456.733 0.527833 -1.48498 0
M  V30 4684 C 457.979 1.28545 -1.56857 0
M  V30 4685 C 458.312 1.92678 -0.242651 0
M  V30 4686 O 457.587 1.79394 0.751545 0
M  V30 4687 C 457.87 2.37314 -2.70839 0
M  V30 4688 C 457.723 1.77858 -4.13142 0
M  V30 4689 C 459.042 3.39068 -2.80573 0
M  V30 4690 H 456.161 0.466006 -0.570971 0
M  V30 4691 H 458.803 0.587784 -1.8068 0
M  V30 4692 H 456.953 2.96821 -2.50658 0
M  V30 4693 H 458.625 1.22385 -4.44769 0
M  V30 4694 H 456.868 1.08383 -4.20042 0
M  V30 4695 H 457.539 2.56624 -4.88721 0
M  V30 4696 H 460.015 2.89518 -2.98862 0
M  V30 4697 H 458.891 4.12566 -3.6205 0
M  V30 4698 H 459.152 3.9975 -1.88818 0
M  V30 4699 N 458.211 1.37122 0.776871 0
M  V30 4700 C 459.457 1.32243 1.53752 0
M  V30 4701 C 459.79 -0.0944745 1.9397 0
M  V30 4702 O 459.065 -1.05068 1.6368 0
M  V30 4703 C 459.348 2.25681 2.80607 0
M  V30 4704 C 459.201 3.76127 2.46676 0
M  V30 4705 C 460.52 2.17657 3.82509 0
M  V30 4706 H 457.639 0.481704 0.557791 0
M  V30 4707 H 460.281 1.6778 0.891612 0
M  V30 4708 H 458.431 1.95505 3.35723 0
M  V30 4709 H 460.103 4.16877 1.97513 0
M  V30 4710 H 458.346 3.94946 1.79443 0
M  V30 4711 H 459.017 4.36933 3.37333 0
M  V30 4712 H 461.493 2.44245 3.36873 0
M  V30 4713 H 460.369 2.85185 4.69 0
M  V30 4714 H 460.63 1.16785 4.26396 0
M  V30 4715 N 459.689 -1.00246 1.21608 0
M  V30 4716 C 460.914 -1.78167 1.06167 0
M  V30 4717 C 461.339 -1.84138 -0.384035 0
M  V30 4718 O 460.697 -1.28683 -1.27712 0
M  V30 4719 C 460.745 -3.19786 1.66642 0
M  V30 4720 O 459.849 -4.02153 0.913613 0
M  V30 4721 H 459.19 -0.549 0.37349 0
M  V30 4722 H 461.72 -1.25994 1.61204 0
M  V30 4723 H 461.73 -3.70451 1.70969 0
M  V30 4724 H 460.405 -3.14754 2.7185 0
M  V30 4725 H 458.982 -3.60711 0.945635 0
M  V30 4726 N 461.167 -1.02423 -1.1978 0
M  V30 4727 C 462.413 -0.719051 -1.89625 0
M  V30 4728 C 462.746 0.750083 -1.7913 0
M  V30 4729 O 462.021 1.54574 -1.18056 0
M  V30 4730 C 462.304 -1.16499 -3.40735 0
M  V30 4731 C 462.157 -2.695 -3.60125 0
M  V30 4732 C 463.476 -0.742166 -4.33797 0
M  V30 4733 H 460.595 -0.26269 -0.688595 0
M  V30 4734 H 463.237 -1.27333 -1.41018 0
M  V30 4735 H 461.387 -0.69341 -3.82262 0
M  V30 4736 H 463.059 -3.24569 -3.278 0
M  V30 4737 H 461.302 -3.10113 -3.03336 0
M  V30 4738 H 461.973 -2.95757 -4.66081 0
M  V30 4739 H 464.449 -1.1477 -3.99959 0
M  V30 4740 H 463.325 -1.08213 -5.38127 0
M  V30 4741 H 463.586 0.355747 -4.40666 0
M  V30 4742 N 462.645 1.35699 -0.801477 0
M  V30 4743 C 463.575 2.32436 -0.222658 0
M  V30 4744 C 464.556 1.5723 0.649057 0
M  V30 4745 O 465.741 1.85324 0.580387 0
M  V30 4746 C 462.871 3.41469 0.633719 0
M  V30 4747 C 461.825 4.27774 -0.139083 0
M  V30 4748 C 461.151 5.28082 0.838666 0
M  V30 4749 C 462.451 5.04946 -1.33517 0
M  V30 4750 H 464.145 2.81094 -1.03086 0
M  V30 4751 H 461.691 1.35146 -0.497155 0
M  V30 4752 H 463.644 4.08143 1.04868 0
M  V30 4753 H 462.368 2.91408 1.47475 0
M  V30 4754 H 461.027 3.62673 -0.535156 0
M  V30 4755 H 460.675 4.7429 1.67506 0
M  V30 4756 H 460.375 5.86695 0.32594 0
M  V30 4757 H 461.899 5.97628 1.25194 0
M  V30 4758 H 463.313 5.64593 -0.995349 0
M  V30 4759 H 461.71 5.7303 -1.78202 0
M  V30 4760 H 462.78 4.35886 -2.12442 0
M  V30 4761 N 464.123 0.554532 1.47522 0
M  V30 4762 C 465.351 0.034257 2.06872 0
M  V30 4763 C 465.766 -1.25826 1.40759 0
M  V30 4764 O 465.123 -1.75425 0.503217 0
M  V30 4765 C 465.174 -0.167827 3.6111 0
M  V30 4766 O 464.895 1.07351 4.24744 0
M  V30 4767 C 466.396 -0.72569 4.3732 0
M  V30 4768 H 463.616 0.0446275 0.669514 0
M  V30 4769 H 466.16 0.767181 1.89564 0
M  V30 4770 H 464.315 -0.850872 3.7794 0
M  V30 4771 H 464.729 0.869563 5.17242 0
M  V30 4772 H 466.203 -0.816394 5.45929 0
M  V30 4773 H 466.68 -1.73635 4.0342 0
M  V30 4774 H 467.286 -0.0784292 4.25228 0
M  V30 4775 N 465.601 -1.54893 0.290851 0
M  V30 4776 C 466.847 -2.0023 -0.321867 0
M  V30 4777 C 467.18 -1.179 -1.54316 0
M  V30 4778 O 466.455 -0.25293 -1.92848 0
M  V30 4779 C 466.738 -3.53456 -0.688515 0
M  V30 4780 C 466.591 -4.46532 0.541209 0
M  V30 4781 C 467.91 -4.13057 -1.51895 0
M  V30 4782 H 465.029 -0.727891 -0.115515 0
M  V30 4783 H 467.671 -1.85722 0.400931 0
M  V30 4784 H 465.821 -3.6595 -1.30433 0
M  V30 4785 H 467.493 -4.4596 1.17973 0
M  V30 4786 H 465.736 -4.17545 1.17636 0
M  V30 4787 H 466.407 -5.51475 0.240675 0
M  V30 4788 H 468.883 -4.03937 -0.99872 0
M  V30 4789 H 467.759 -5.20448 -1.74429 0
M  V30 4790 H 468.02 -3.64284 -2.50498 0
M  V30 4791 N 467.08 -0.0183926 -1.57589 0
M  V30 4792 C 468.01 0.965596 -2.12599 0
M  V30 4793 C 468.991 1.34641 -1.0395 0
M  V30 4794 O 470.176 1.42693 -1.31729 0
M  V30 4795 C 467.306 2.25149 -2.64434 0
M  V30 4796 C 466.26 2.01175 -3.77773 0
M  V30 4797 C 465.586 3.35937 -4.15994 0
M  V30 4798 C 466.886 1.35953 -5.04296 0
M  V30 4799 H 468.58 0.507504 -2.95067 0
M  V30 4800 H 466.126 0.242671 -1.41941 0
M  V30 4801 H 468.079 2.94357 -3.01549 0
M  V30 4802 H 466.803 2.73105 -1.79112 0
M  V30 4803 H 465.462 1.34388 -3.4108 0
M  V30 4804 H 465.11 3.81631 -3.27669 0
M  V30 4805 H 464.81 3.20705 -4.92364 0
M  V30 4806 H 466.334 4.0643 -4.55683 0
M  V30 4807 H 467.748 1.95144 -5.39065 0
M  V30 4808 H 466.145 1.31152 -5.85593 0
M  V30 4809 H 467.215 0.331071 -4.83768 0
M  V30 4810 N 468.558 1.5553 0.254621 0
M  V30 4811 C 469.508 1.86057 1.31783 0
M  V30 4812 C 470.492 0.720827 1.4385 0
M  V30 4813 O 471.684 0.982586 1.47222 0
M  V30 4814 C 468.813 2.15203 2.67475 0
M  V30 4815 C 467.899 3.35484 2.59444 0
M  V30 4816 N 468.29 4.54945 2.2104 0
M  V30 4817 C 466.588 3.38441 2.90472 0
M  V30 4818 C 467.289 5.3707 2.23453 0
M  V30 4819 N 466.265 4.75936 2.62652 0
M  V30 4820 H 470.067 2.75953 1.01129 0
M  V30 4821 H 467.581 1.55653 0.463255 0
M  V30 4822 H 469.578 2.35235 3.44195 0
M  V30 4823 H 468.238 1.26601 2.99002 0
M  V30 4824 H 469.249 4.8071 1.92712 0
M  V30 4825 H 465.926 2.60087 3.2659 0
M  V30 4826 H 467.316 6.42626 1.96166 0
M  V30 4827 N 470.036 -0.519951 1.48776 0
M  V30 4828 C 470.968 -1.63973 1.60142 0
M  V30 4829 C 471.981 -1.55404 0.485117 0
M  V30 4830 O 473.17 -1.61682 0.756391 0
M  V30 4831 C 470.27 -3.02676 1.52449 0
M  V30 4832 C 469.443 -3.36624 2.79291 0
M  V30 4833 C 468.502 -4.54652 2.64912 0
M  V30 4834 O 467.528 -4.57374 3.38818 0
M  V30 4835 N 468.73 -5.53432 1.75195 0
M  V30 4836 H 471.495 -1.54656 2.56713 0
M  V30 4837 H 469.056 -0.707439 1.45626 0
M  V30 4838 H 471.048 -3.79525 1.4051 0
M  V30 4839 H 469.618 -3.06018 0.638125 0
M  V30 4840 H 468.838 -2.48855 3.0572 0
M  V30 4841 H 470.126 -3.56094 3.6342 0
M  V30 4842 H 469.524 -5.54018 1.14371 0
M  V30 4843 H 468.081 -6.29459 1.69189 0
M  V30 4844 N 471.514 -1.37532 -0.769588 0
M  V30 4845 C 472.791 -1.23392 -1.51768 0
M  V30 4846 C 473.171 0.17157 -2.10402 0
M  V30 4847 O 472.519 1.17943 -1.95708 0
M  V30 4848 C 472.729 -2.33163 -2.59685 0
M  V30 4849 C 474.077 -2.70809 -3.27028 0
M  V30 4850 O 475.101 -2.32355 -2.69981 0
M  V30 4851 O 473.96 -3.37066 -4.30173 0
M  V30 4852 H 471.054 -0.481617 -0.67229 0
M  V30 4853 H 473.6 -1.49318 -0.806368 0
M  V30 4854 H 472.372 -3.27273 -2.14494 0
M  V30 4855 H 471.995 -2.08713 -3.38415 0
M  V30 4856 N 472.992 0.995999 -1.22138 0
M  V30 4857 C 474.238 1.7386 -1.05567 0
M  V30 4858 C 474.593 1.8808 0.405418 0
M  V30 4859 O 473.886 1.41062 1.29661 0
M  V30 4860 C 474.08 3.14553 -1.6968 0
M  V30 4861 C 473.909 3.14053 -3.21871 0
M  V30 4862 C 472.679 3.20121 -3.90961 0
M  V30 4863 C 474.877 2.98451 -4.18845 0
M  V30 4864 N 472.859 3.09342 -5.30265 0
M  V30 4865 C 474.23 2.95667 -5.4496 0
M  V30 4866 C 476.285 2.8282 -4.09777 0
M  V30 4867 C 474.988 2.78852 -6.63049 0
M  V30 4868 C 477.014 2.67364 -5.27513 0
M  V30 4869 C 476.376 2.65264 -6.52544 0
M  V30 4870 H 472.475 0.645989 -0.440706 0
M  V30 4871 H 475.059 1.1831 -1.54631 0
M  V30 4872 H 473.23 3.68353 -1.2317 0
M  V30 4873 H 474.962 3.77358 -1.4623 0
M  V30 4874 H 471.717 3.27679 -3.4194 0
M  V30 4875 H 472.141 3.0727 -6.03253 0
M  V30 4876 H 476.783 2.83243 -3.139 0
M  V30 4877 H 474.501 2.77175 -7.59078 0
M  V30 4878 H 478.087 2.56256 -5.22326 0
M  V30 4879 H 476.967 2.5345 -7.42114 0
M  V30 4880 N 474.47 1.03057 1.19235 0
M  V30 4881 C 475.4 0.633497 2.24742 0
M  V30 4882 C 476.381 -0.358335 1.66283 0
M  V30 4883 O 477.566 -0.240676 1.92703 0
M  V30 4884 C 474.696 -0.0147648 3.47297 0
M  V30 4885 C 473.65 0.899527 4.18441 0
M  V30 4886 C 472.976 0.116281 5.34574 0
M  V30 4887 C 474.276 2.21404 4.73051 0
M  V30 4888 H 475.97 1.5155 2.58211 0
M  V30 4889 H 473.516 0.73014 1.24117 0
M  V30 4890 H 475.469 -0.304202 4.20301 0
M  V30 4891 H 474.193 -0.931577 3.13032 0
M  V30 4892 H 472.852 1.17319 3.47321 0
M  V30 4893 H 472.5 -0.802619 4.96555 0
M  V30 4894 H 472.2 0.725293 5.83107 0
M  V30 4895 H 473.724 -0.166376 6.10373 0
M  V30 4896 H 475.138 1.98601 5.37802 0
M  V30 4897 H 473.535 2.77512 5.32078 0
M  V30 4898 H 474.605 2.86752 3.91026 0
M  V30 4899 N 475.948 -1.35272 0.808662 0
M  V30 4900 C 476.896 -2.31663 0.208606 0
M  V30 4901 C 477.89 -1.56731 -0.642778 0
M  V30 4902 O 479.096 -1.71843 -0.53571 0
M  V30 4903 H 475.471 -0.750421 0.0486993 0
M  V30 4904 H 477.442 -2.79814 1.03666 0
M  V30 4905 C 476.191 -3.42008 -0.626573 0
M  V30 4906 H 475.514 -3.99795 0.0192103 0
M  V30 4907 H 476.954 -4.11727 -1.01278 0
M  V30 4908 C 475.413 -2.85226 -1.79298 0
M  V30 4909 O 475.943 -2.78945 -2.89055 0
M  V30 4910 N 474.149 -2.42245 -1.60516 0
M  V30 4911 H 473.696 -2.47554 -0.712375 0
M  V30 4912 H 473.654 -2.04603 -2.38715 0
M  V30 4913 N 477.426 -0.562348 -1.47226 0
M  V30 4914 C 478.674 -0.0401371 -2.0206 0
M  V30 4915 C 478.995 1.3165 -1.43852 0
M  V30 4916 O 478.265 1.85976 -0.615599 0
M  V30 4917 H 476.845 -0.0118479 -0.746906 0
M  V30 4918 H 479.507 -0.73352 -1.8057 0
M  V30 4919 H 478.603 0.0441254 -3.12069 0
M  V30 4920 N 478.904 1.54736 -0.299062 0
M  V30 4921 C 479.851 2.23448 0.577899 0
M  V30 4922 C 480.821 1.21637 1.13109 0
M  V30 4923 O 482.006 1.50252 1.17597 0
M  V30 4924 C 479.146 2.9774 1.74484 0
M  V30 4925 C 478.259 4.1432 1.22323 0
M  V30 4926 C 477.394 4.76199 2.35388 0
M  V30 4927 C 476.433 5.84927 1.80351 0
M  V30 4928 N 475.57 6.4077 2.86982 0
M  V30 4929 H 480.41 2.97996 -0.0146545 0
M  V30 4930 H 477.947 1.47088 -0.0190013 0
M  V30 4931 H 479.905 3.39045 2.43114 0
M  V30 4932 H 478.535 2.25572 2.30905 0
M  V30 4933 H 477.587 3.7797 0.429249 0
M  V30 4934 H 478.899 4.92659 0.780309 0
M  V30 4935 H 478.053 5.20346 3.11969 0
M  V30 4936 H 476.792 3.97188 2.83006 0
M  V30 4937 H 475.797 5.40207 1.02259 0
M  V30 4938 H 477.022 6.65821 1.3364 0
M  V30 4939 H 474.968 5.64643 3.33938 0
M  V30 4940 H 474.885 7.1445 2.4718 0
M  V30 4941 H 476.153 6.89574 3.63466 0
M  V30 4942 N 480.382 0.0267497 1.57577 0
M  V30 4943 C 481.292 -0.971633 2.13533 0
M  V30 4944 C 482.308 -1.35868 1.08701 0
M  V30 4945 O 483.484 -1.44058 1.40746 0
M  V30 4946 C 480.549 -2.23622 2.64941 0
M  V30 4947 C 479.61 -1.90982 3.8448 0
M  V30 4948 C 478.843 -3.11411 4.33427 0
M  V30 4949 O 479.066 -4.23992 3.81558 0
M  V30 4950 O 478 -2.93848 5.25297 0
M  V30 4951 H 481.826 -0.525853 2.99113 0
M  V30 4952 H 479.411 -0.193712 1.48139 0
M  V30 4953 H 481.293 -2.97864 2.98086 0
M  V30 4954 H 479.968 -2.67386 1.82446 0
M  V30 4955 H 478.875 -1.14132 3.56265 0
M  V30 4956 H 480.208 -1.52036 4.6813 0
M  V30 4957 N 481.861 -1.55662 -0.24637 0
M  V30 4958 C 483.091 -1.81312 -0.990438 0
M  V30 4959 C 483.499 -0.600234 -1.79426 0
M  V30 4960 O 482.842 0.440537 -1.78339 0
M  V30 4961 C 482.904 -3.0032 -1.97607 0
M  V30 4962 C 482.568 -4.36322 -1.35912 0
M  V30 4963 C 483.565 -5.14295 -0.761348 0
M  V30 4964 C 481.25 -4.83019 -1.37833 0
M  V30 4965 C 483.244 -6.37114 -0.190998 0
M  V30 4966 C 480.931 -6.05786 -0.804128 0
M  V30 4967 C 481.929 -6.82672 -0.211489 0
M  V30 4968 O 481.617 -8.03121 0.353845 0
M  V30 4969 H 481.349 -0.607233 -0.297058 0
M  V30 4970 H 483.903 -2.0356 -0.274351 0
M  V30 4971 H 482.133 -2.73829 -2.73047 0
M  V30 4972 H 483.822 -3.13057 -2.58361 0
M  V30 4973 H 484.588 -4.79337 -0.739013 0
M  V30 4974 H 480.467 -4.23165 -1.829 0
M  V30 4975 H 484.011 -6.97069 0.272206 0
M  V30 4976 H 479.908 -6.40222 -0.823792 0
M  V30 4977 H 480.676 -8.18131 0.245761 0
M  V30 4978 N 483.339 0.512053 -1.4905 0
M  V30 4979 C 484.286 1.6148 -1.64902 0
M  V30 4980 C 485.256 1.58687 -0.490673 0
M  V30 4981 O 486.441 1.76842 -0.71636 0
M  V30 4982 C 483.581 2.99676 -1.71139 0
M  V30 4983 C 482.694 3.12568 -2.98203 0
M  V30 4984 C 481.829 4.4143 -2.95487 0
M  V30 4985 C 480.868 4.47916 -4.17179 0
M  V30 4986 N 480.005 5.68191 -4.12437 0
M  V30 4987 H 484.845 1.47271 -2.59066 0
M  V30 4988 H 482.382 0.716713 -1.28459 0
M  V30 4989 H 484.34 3.79761 -1.72736 0
M  V30 4990 H 482.97 3.12614 -0.804508 0
M  V30 4991 H 482.022 2.25618 -3.06269 0
M  V30 4992 H 483.334 3.1322 -3.88194 0
M  V30 4993 H 482.488 5.29825 -2.95585 0
M  V30 4994 H 481.227 4.43326 -2.03256 0
M  V30 4995 H 480.232 3.57925 -4.17337 0
M  V30 4996 H 481.457 4.47744 -5.1059 0
M  V30 4997 H 479.403 5.7095 -3.23036 0
M  V30 4998 H 479.32 5.70413 -4.96151 0
M  V30 4999 H 480.588 6.58823 -4.16621 0
M  V30 5000 N 484.817 1.37938 0.762283 0
M  V30 5001 C 486.057 1.35076 1.53407 0
M  V30 5002 C 486.421 -0.061546 1.91901 0
M  V30 5003 O 487.622 -0.214973 2.67939 0
M  V30 5004 C 485.893 2.27206 2.75884 0
M  V30 5005 S 487.452 2.42283 3.65848 0
M  V30 5006 H 484.27 0.479387 0.52508 0
M  V30 5007 H 486.872 1.7378 0.895586 0
M  V30 5008 H 485.576 3.28724 2.457 0
M  V30 5009 H 485.107 1.8962 3.44685 0
M  V30 5010 H 487.122 1.64044 4.68299 0
M  V30 5011 N 486.295 -0.989507 1.22664 0
M  V30 5012 C 487.242 -2.08024 0.999733 0
M  V30 5013 C 488.212 -1.65909 -0.0797047 0
M  V30 5014 O 489.397 -1.90669 0.0705715 0
M  V30 5015 C 486.537 -3.40067 0.587234 0
M  V30 5016 C 485.65 -3.95505 1.73781 0
M  V30 5017 C 484.785 -5.15722 1.27297 0
M  V30 5018 C 483.824 -5.63305 2.39488 0
M  V30 5019 N 482.961 -6.74758 1.94026 0
M  V30 5020 H 487.801 -2.26768 1.9334 0
M  V30 5021 H 485.338 -1.11171 0.963297 0
M  V30 5022 H 487.296 -4.15899 0.329227 0
M  V30 5023 H 485.926 -3.21314 -0.309426 0
M  V30 5024 H 484.978 -3.16513 2.11006 0
M  V30 5025 H 486.29 -4.26797 2.58158 0
M  V30 5026 H 485.444 -5.98854 0.972546 0
M  V30 5027 H 484.183 -4.86061 0.399445 0
M  V30 5028 H 483.188 -4.78759 2.70315 0
M  V30 5029 H 484.413 -5.94988 3.27362 0
M  V30 5030 H 482.359 -6.46874 1.09041 0
M  V30 5031 H 482.276 -7.05386 2.71968 0
M  V30 5032 H 483.544 -7.61387 1.67062 0
M  V30 5033 N 487.773 -1.03688 -1.18687 0
M  V30 5034 C 489.019 -0.739123 -1.88851 0
M  V30 5035 C 489.352 0.731042 -1.79915 0
M  V30 5036 O 488.627 1.53313 -1.19688 0
M  V30 5037 C 488.91 -1.20106 -3.3948 0
M  V30 5038 C 488.763 -2.73304 -3.57246 0
M  V30 5039 C 490.082 -0.788134 -4.32986 0
M  V30 5040 H 487.201 -0.269978 -0.68577 0
M  V30 5041 H 489.843 -1.28822 -1.3966 0
M  V30 5042 H 487.993 -0.733915 -3.81505 0
M  V30 5043 H 489.665 -3.28027 -3.24339 0
M  V30 5044 H 487.908 -3.13313 -3.00029 0
M  V30 5045 H 488.579 -3.00684 -4.62918 0
M  V30 5046 H 491.055 -1.19005 -3.98719 0
M  V30 5047 H 489.931 -1.13915 -5.36949 0
M  V30 5048 H 490.192 0.308988 -4.41019 0
M  V30 5049 N 489.251 1.34841 -0.815825 0
M  V30 5050 C 490.476 2.03261 -0.41226 0
M  V30 5051 C 490.901 1.61055 0.971751 0
M  V30 5052 O 490.259 0.7917 1.63101 0
M  V30 5053 C 490.307 3.56914 -0.514289 0
M  V30 5054 O 489.411 4.09728 0.468675 0
M  V30 5055 H 488.752 0.641664 -0.170771 0
M  V30 5056 H 491.282 1.72241 -1.10427 0
M  V30 5057 H 491.292 4.06156 -0.387457 0
M  V30 5058 H 489.967 3.86982 -1.52375 0
M  V30 5059 H 488.544 3.71681 0.301316 0
M  V30 5060 N 490.729 0.570148 1.46925 0
M  V30 5061 C 491.677 -0.183181 2.31878 0
M  V30 5062 C 492.671 -0.896721 1.43719 0
M  V30 5063 O 493.877 -0.816536 1.60414 0
M  V30 5064 H 490.252 -0.077944 0.74795 0
M  V30 5065 H 492.223 0.552312 2.93244 0
M  V30 5066 C 490.972 -1.19172 3.2664 0
M  V30 5067 H 490.295 -0.652088 3.94446 0
M  V30 5068 H 491.735 -1.68946 3.88887 0
M  V30 5069 C 490.194 -2.24627 2.51086 0
M  V30 5070 O 490.724 -3.31773 2.26472 0
M  V30 5071 N 488.93 -1.98898 2.11867 0
M  V30 5072 H 488.477 -1.11777 2.32086 0
M  V30 5073 H 488.435 -2.6967 1.61634 0
M  V30 5074 N 492.207 -1.54576 0.307264 0
M  V30 5075 C 493.154 -2.23751 -0.56604 0
M  V30 5076 C 494.124 -1.22235 -1.12462 0
M  V30 5077 O 495.309 -1.50873 -1.16799 0
M  V30 5078 C 492.449 -2.98661 -1.72903 0
M  V30 5079 C 491.562 -4.14963 -1.20124 0
M  V30 5080 C 490.697 -4.77441 -2.3286 0
M  V30 5081 C 489.736 -5.85875 -1.77247 0
M  V30 5082 N 488.873 -6.42282 -2.8358 0
M  V30 5083 H 493.713 -2.97984 0.0304578 0
M  V30 5084 H 491.25 -1.47076 0.0268015 0
M  V30 5085 H 493.208 -3.40329 -2.41313 0
M  V30 5086 H 491.838 -2.26793 -2.29706 0
M  V30 5087 H 490.89 -3.78193 -0.409198 0
M  V30 5088 H 492.202 -4.93066 -0.754171 0
M  V30 5089 H 491.356 -5.21993 -3.09205 0
M  V30 5090 H 490.095 -3.98684 -2.80896 0
M  V30 5091 H 489.1 -5.40741 -0.993926 0
M  V30 5092 H 490.325 -6.6652 -1.30107 0
M  V30 5093 H 488.271 -5.66406 -3.30939 0
M  V30 5094 H 488.188 -7.1575 -2.43388 0
M  V30 5095 H 489.456 -6.91492 -3.59804 0
M  V30 5096 N 493.685 -0.035106 -1.57561 0
M  V30 5097 C 494.648 0.929819 -2.09492 0
M  V30 5098 C 495.648 1.25026 -1.01119 0
M  V30 5099 O 496.838 1.18961 -1.27255 0
M  V30 5100 C 493.97 2.24457 -2.56577 0
M  V30 5101 H 495.163 0.479935 -2.96035 0
M  V30 5102 H 492.716 0.213033 -1.54841 0
M  V30 5103 H 493.451 2.74061 -1.73382 0
M  V30 5104 H 493.236 2.02508 -3.35757 0
M  V30 5105 H 494.726 2.93607 -2.96959 0
M  V30 5106 N 495.163 1.55791 0.238111 0
M  V30 5107 C 496.093 1.94068 1.29846 0
M  V30 5108 C 497.074 0.806726 1.49753 0
M  V30 5109 O 498.259 1.06772 1.62214 0
M  V30 5110 C 495.389 2.24302 2.65153 0
M  V30 5111 C 494.343 3.40032 2.59927 0
M  V30 5112 C 493.669 3.55829 3.99111 0
M  V30 5113 C 494.969 4.75476 2.16148 0
M  V30 5114 H 496.663 2.82887 0.980563 0
M  V30 5115 H 494.209 1.36105 0.470253 0
M  V30 5116 H 496.162 2.4967 3.39475 0
M  V30 5117 H 494.886 1.32318 2.98596 0
M  V30 5118 H 493.545 3.14687 1.88063 0
M  V30 5119 H 493.193 2.6125 4.29834 0
M  V30 5120 H 492.893 4.3366 3.96501 0
M  V30 5121 H 494.417 3.83528 4.7512 0
M  V30 5122 H 495.831 5.00158 2.80205 0
M  V30 5123 H 494.228 5.56472 2.24631 0
M  V30 5124 H 495.298 4.71946 1.11333 0
M  V30 5125 N 496.642 -0.504142 1.49319 0
M  V30 5126 C 498.053 -1.08572 1.51885 0
M  V30 5127 C 498.404 -1.93842 0.303255 0
M  V30 5128 O 497.529 -2.0828 -0.58724 0
M  V30 5129 C 498.124 -1.97574 2.75227 0
M  V30 5130 C 496.683 -2.509 2.80581 0
M  V30 5131 C 495.83 -1.28447 2.45757 0
M  V30 5132 H 498.781 -0.288194 1.56061 0
M  V30 5133 H 498.802 -2.82219 2.55211 0
M  V30 5134 H 498.314 -1.35486 3.63683 0
M  V30 5135 H 496.415 -3.16636 1.96398 0
M  V30 5136 H 496.528 -2.88268 3.82673 0
M  V30 5137 H 494.892 -1.60868 1.97468 0
M  V30 5138 H 495.675 -0.68072 3.36483 0
M  V30 5139 N 498.12 -1.38341 -0.754957 0
M  V30 5140 C 499.083 -1.35262 -1.85032 0
M  V30 5141 C 500.083 -0.253393 -1.58791 0
M  V30 5142 O 501.273 -0.510205 -1.66561 0
M  V30 5143 C 498.405 -1.10544 -3.22479 0
M  V30 5144 H 499.598 -2.32712 -1.8917 0
M  V30 5145 H 497.151 -1.23614 -0.956515 0
M  V30 5146 H 497.886 -0.136952 -3.24011 0
M  V30 5147 H 497.671 -1.90127 -3.4292 0
M  V30 5148 H 499.161 -1.11082 -4.02555 0
M  V30 5149 N 499.598 0.982988 -1.23187 0
M  V30 5150 C 501.009 1.53847 -1.05773 0
M  V30 5151 C 501.36 1.92568 0.375744 0
M  V30 5152 O 500.485 1.75783 1.26211 0
M  V30 5153 C 501.08 2.79567 -1.91384 0
M  V30 5154 C 499.639 3.31524 -1.78238 0
M  V30 5155 C 498.786 2.04534 -1.87246 0
M  V30 5156 H 501.737 0.802962 -1.36888 0
M  V30 5157 H 501.758 3.52317 -1.43711 0
M  V30 5158 H 501.27 2.51353 -2.95708 0
M  V30 5159 H 499.371 3.64623 -0.766875 0
M  V30 5160 H 499.484 4.01457 -2.61475 0
M  V30 5161 H 497.848 2.1855 -1.30797 0
M  V30 5162 H 498.631 1.78706 -2.9312 0
M  V30 5163 N 501.076 1.04316 1.18135 0
M  V30 5164 C 502.325 0.74319 1.87509 0
M  V30 5165 C 502.638 -0.732136 1.81381 0
M  V30 5166 O 503.844 -1.14572 2.46141 0
M  V30 5167 C 502.3 1.27913 3.36402 0
M  V30 5168 C 501.908 2.78326 3.51053 0
M  V30 5169 C 503.652 1.0558 4.11161 0
M  V30 5170 C 501.559 3.25266 4.93919 0
M  V30 5171 H 500.489 0.274313 0.702331 0
M  V30 5172 H 503.14 1.25931 1.33467 0
M  V30 5173 H 501.522 0.690853 3.89927 0
M  V30 5174 H 502.696 3.42933 3.07788 0
M  V30 5175 H 501.011 2.991 2.89704 0
M  V30 5176 H 503.608 1.38161 5.16542 0
M  V30 5177 H 503.951 -0.00684729 4.16299 0
M  V30 5178 H 504.484 1.60882 3.63816 0
M  V30 5179 H 501.223 4.30922 4.9395 0
M  V30 5180 H 500.743 2.65396 5.3789 0
M  V30 5181 H 502.422 3.19433 5.62647 0
M  V30 5182 N 502.554 -1.34406 0.822964 0
M  V30 5183 C 503.464 -2.33298 0.246838 0
M  V30 5184 C 504.48 -1.62625 -0.618797 0
M  V30 5185 O 505.656 -1.94391 -0.526685 0
M  V30 5186 C 502.721 -3.41785 -0.581731 0
M  V30 5187 C 501.782 -4.28206 0.306309 0
M  V30 5188 C 501.015 -5.31512 -0.48281 0
M  V30 5189 O 501.238 -5.43973 -1.71607 0
M  V30 5190 O 500.172 -6.01749 0.134884 0
M  V30 5191 H 503.998 -2.84401 1.06534 0
M  V30 5192 H 501.583 -1.37466 0.585108 0
M  V30 5193 H 503.465 -4.08028 -1.05313 0
M  V30 5194 H 502.14 -2.92925 -1.37756 0
M  V30 5195 H 501.047 -3.64885 0.825199 0
M  V30 5196 H 502.38 -4.80507 1.06649 0
M  V30 5197 N 504.032 -0.577932 -1.46621 0
M  V30 5198 C 504.979 0.158048 -2.30258 0
M  V30 5199 C 505.949 0.888669 -1.40328 0
M  V30 5200 O 507.134 0.880283 -1.6928 0
M  V30 5201 C 504.274 1.16884 -3.24703 0
M  V30 5202 C 503.387 0.442163 -4.29731 0
M  V30 5203 C 502.522 1.44007 -5.11308 0
M  V30 5204 C 501.561 0.69952 -6.0809 0
M  V30 5205 N 500.698 1.64525 -6.82551 0
M  V30 5206 H 505.538 -0.561242 -2.92667 0
M  V30 5207 H 503.075 -0.288591 -1.44241 0
M  V30 5208 H 505.033 1.7677 -3.779 0
M  V30 5209 H 503.663 1.85591 -2.64113 0
M  V30 5210 H 502.715 -0.271632 -3.79429 0
M  V30 5211 H 504.027 -0.136992 -4.98612 0
M  V30 5212 H 503.181 2.11186 -5.68758 0
M  V30 5213 H 501.92 2.05315 -4.42377 0
M  V30 5214 H 500.925 0.0139217 -5.49798 0
M  V30 5215 H 502.15 0.091894 -6.79038 0
M  V30 5216 H 500.096 2.24653 -6.16334 0
M  V30 5217 H 500.013 1.11878 -7.47676 0
M  V30 5218 H 501.281 2.30754 -7.44562 0
M  V30 5219 N 505.51 1.54411 -0.315457 0
M  V30 5220 C 506.738 2.04833 0.291738 0
M  V30 5221 C 507.153 1.19203 1.46411 0
M  V30 5222 O 506.51 0.220867 1.81159 0
M  V30 5223 C 506.561 3.53969 0.73404 0
M  V30 5224 O 506.282 4.36346 -0.391682 0
M  V30 5225 C 507.783 4.2045 1.40489 0
M  V30 5226 H 505.003 0.668195 0.0612947 0
M  V30 5227 H 507.547 1.99276 -0.45929 0
M  V30 5228 H 505.702 3.5984 1.43506 0
M  V30 5229 H 506.116 5.24481 -0.0447088 0
M  V30 5230 H 507.59 5.26278 1.66539 0
M  V30 5231 H 508.067 3.71067 2.3496 0
M  V30 5232 H 508.673 4.18694 0.746662 0
M  V30 5233 N 506.988 0.0434614 1.5754 0
M  V30 5234 C 508.237 -0.631454 1.91561 0
M  V30 5235 C 508.55 -1.72457 0.92292 0
M  V30 5236 O 509.756 -2.45712 1.15489 0
M  V30 5237 C 508.212 -1.17447 3.40197 0
M  V30 5238 C 507.82 -0.113867 4.47855 0
M  V30 5239 C 509.564 -1.82507 3.83264 0
M  V30 5240 C 507.471 -0.669326 5.876 0
M  V30 5241 H 506.401 -0.239629 0.714908 0
M  V30 5242 H 509.052 0.111097 1.83163 0
M  V30 5243 H 507.434 -1.96909 3.43574 0
M  V30 5244 H 508.608 0.659348 4.56058 0
M  V30 5245 H 506.923 0.438821 4.14081 0
M  V30 5246 H 509.52 -2.25047 4.85034 0
M  V30 5247 H 509.863 -2.67365 3.19095 0
M  V30 5248 H 510.396 -1.09712 3.82372 0
M  V30 5249 H 507.135 0.141449 6.55347 0
M  V30 5250 H 506.655 -1.4107 5.82974 0
M  V30 5251 H 508.334 -1.15463 6.36614 0
M  V30 5252 N 508.466 -1.55915 -0.229846 0
M  V30 5253 C 509.691 -1.8296 -0.976743 0
M  V30 5254 C 510.116 -0.622735 -1.77493 0
M  V30 5255 O 509.474 0.428431 -1.76165 0
M  V30 5256 C 509.522 -3.07916 -1.8767 0
M  V30 5257 O 508.626 -2.86028 -2.97088 0
M  V30 5258 H 507.967 -0.603453 -0.277021 0
M  V30 5259 H 510.497 -2.0312 -0.245669 0
M  V30 5260 H 510.507 -3.37802 -2.2881 0
M  V30 5261 H 509.182 -3.95389 -1.28996 0
M  V30 5262 H 507.759 -2.67355 -2.59954 0
M  V30 5263 N 509.944 0.496216 -1.49584 0
M  V30 5264 C 510.891 1.59722 -1.66606 0
M  V30 5265 C 511.861 1.58158 -0.507477 0
M  V30 5266 O 513.046 1.76072 -0.735076 0
M  V30 5267 C 510.186 2.97844 -1.74308 0
M  V30 5268 C 509.299 3.09388 -3.01502 0
M  V30 5269 C 508.434 4.38271 -3.00153 0
M  V30 5270 C 507.473 4.43466 -4.21906 0
M  V30 5271 N 506.61 5.63784 -4.1844 0
M  V30 5272 H 511.45 1.44515 -2.60613 0
M  V30 5273 H 508.987 0.703048 -1.29212 0
M  V30 5274 H 510.945 3.77907 -1.76754 0
M  V30 5275 H 509.575 3.11743 -0.837619 0
M  V30 5276 H 508.627 2.22357 -3.08645 0
M  V30 5277 H 509.939 3.09085 -3.91494 0
M  V30 5278 H 509.093 5.2666 -3.01188 0
M  V30 5279 H 507.832 4.41146 -2.07947 0
M  V30 5280 H 506.837 3.53478 -4.21109 0
M  V30 5281 H 508.062 4.42303 -5.1531 0
M  V30 5282 H 506.008 5.67491 -3.29074 0
M  V30 5283 H 505.925 5.65118 -5.02173 0
M  V30 5284 H 507.193 6.54367 -4.23585 0
M  V30 5285 N 511.423 1.38739 0.74761 0
M  V30 5286 C 512.386 1.36241 1.84312 0
M  V30 5287 C 513.386 0.261811 1.58654 0
M  V30 5288 O 514.576 0.519031 1.66288 0
M  V30 5289 C 511.708 1.12253 3.21888 0
M  V30 5290 H 512.901 2.33712 1.87933 0
M  V30 5291 H 510.454 1.2412 0.949946 0
M  V30 5292 H 511.189 0.154133 3.23934 0
M  V30 5293 H 510.974 1.91943 3.41907 0
M  V30 5294 H 512.464 1.13215 4.0196 0
M  V30 5295 N 512.901 -0.976442 1.23707 0
M  V30 5296 C 513.848 -2.06952 1.02174 0
M  V30 5297 C 514.818 -1.65984 -0.0621034 0
M  V30 5298 O 516.003 -1.90584 0.0907906 0
M  V30 5299 C 513.143 -3.39425 0.62327 0
M  V30 5300 C 512.256 -3.9364 1.77966 0
M  V30 5301 C 511.391 -5.14343 1.3276 0
M  V30 5302 C 510.43 -5.60733 2.45449 0
M  V30 5303 N 509.567 -6.72662 2.01172 0
M  V30 5304 H 514.407 -2.24704 1.95734 0
M  V30 5305 H 511.944 -1.10143 0.975034 0
M  V30 5306 H 513.902 -4.15526 0.37332 0
M  V30 5307 H 512.532 -3.21624 -0.275329 0
M  V30 5308 H 511.584 -3.14258 2.14351 0
M  V30 5309 H 512.896 -4.24035 2.62671 0
M  V30 5310 H 512.05 -5.97789 1.03601 0
M  V30 5311 H 510.789 -4.8561 0.450975 0
M  V30 5312 H 509.794 -4.75865 2.75378 0
M  V30 5313 H 511.019 -5.91483 3.33654 0
M  V30 5314 H 508.965 -6.45681 1.15895 0
M  V30 5315 H 508.882 -7.02462 2.79434 0
M  V30 5316 H 510.15 -7.59572 1.75129 0
M  V30 5317 N 514.379 -1.04941 -1.1758 0
M  V30 5318 C 515.627 -0.756492 -1.87408 0
M  V30 5319 C 515.948 0.718478 -1.81281 0
M  V30 5320 O 515.218 1.519 -1.23706 0
M  V30 5321 H 513.798 -0.276841 -0.693807 0
M  V30 5322 H 516.46 -1.32803 -1.42652 0
M  V30 5323 H 515.556 -1.06918 -2.93215 0
M  V30 5324 N 515.857 1.33968 -0.830081 0
M  V30 5325 C 516.789 2.28194 -0.21448 0
M  V30 5326 C 517.802 1.5135 0.599752 0
M  V30 5327 O 518.991 1.73286 0.42826 0
M  V30 5328 C 516.091 3.31221 0.717356 0
M  V30 5329 C 515.264 4.37365 -0.055613 0
M  V30 5330 C 514.323 5.2011 0.798231 0
M  V30 5331 O 513.349 5.68691 0.240616 0
M  V30 5332 N 514.551 5.40523 2.11695 0
M  V30 5333 H 517.316 2.81662 -1.02405 0
M  V30 5334 H 514.877 1.46568 -0.687713 0
M  V30 5335 H 516.869 3.83477 1.29334 0
M  V30 5336 H 515.439 2.78095 1.42765 0
M  V30 5337 H 514.659 3.85727 -0.812936 0
M  V30 5338 H 515.947 5.05397 -0.587444 0
M  V30 5339 H 515.345 5.0274 2.59363 0
M  V30 5340 H 513.902 5.95871 2.64162 0
M  V30 5341 N 517.335 0.585699 1.46312 0
M  V30 5342 C 518.746 0.159938 1.86014 0
M  V30 5343 C 519.097 -1.27775 1.48889 0
M  V30 5344 O 518.222 -1.96559 0.90519 0
M  V30 5345 C 518.817 0.283485 3.37612 0
M  V30 5346 C 517.376 -0.0874256 3.76298 0
M  V30 5347 C 516.523 0.618055 2.70325 0
M  V30 5348 H 519.474 0.793737 1.37425 0
M  V30 5349 H 519.495 -0.490348 3.77327 0
M  V30 5350 H 519.007 1.32995 3.64601 0
M  V30 5351 H 517.108 -1.13391 3.54927 0
M  V30 5352 H 517.221 0.290975 4.78216 0
M  V30 5353 H 515.585 0.057993 2.54634 0
M  V30 5354 H 516.368 1.66623 3.00153 0
M  V30 5355 N 518.813 -1.54241 0.323641 0
M  V30 5356 C 520.229 -1.59574 -0.0290018 0
M  V30 5357 C 520.429 -1.34017 -1.50472 0
M  V30 5358 O 519.485 -1.12464 -2.26071 0
M  V30 5359 C 520.798 -2.98169 0.389295 0
M  V30 5360 C 522.346 -3.11148 0.339958 0
M  V30 5361 C 522.821 -4.5209 0.733418 0
M  V30 5362 N 524.312 -4.5808 0.686827 0
M  V30 5363 C 525.047 -5.65248 0.963464 0
M  V30 5364 N 524.543 -6.80355 1.30724 0
M  V30 5365 N 526.336 -5.55025 0.88902 0
M  V30 5366 H 518.487 -1.6911 1.28512 0
M  V30 5367 H 520.75 -0.790972 0.522558 0
M  V30 5368 H 520.456 -3.21871 1.41746 0
M  V30 5369 H 520.33 -3.76399 -0.245657 0
M  V30 5370 H 522.717 -2.87182 -0.679002 0
M  V30 5371 H 522.798 -2.35023 1.00985 0
M  V30 5372 H 522.442 -4.76788 1.75029 0
M  V30 5373 H 522.372 -5.26584 0.0412189 0
M  V30 5374 H 524.863 -3.75411 0.43298 0
M  V30 5375 H 525.176 -7.58029 1.5037 0
M  V30 5376 H 523.521 -6.81851 1.3455 0
M  V30 5377 H 526.712 -4.63977 0.619939 0
M  V30 5378 H 526.885 -6.38458 1.10797 0
M  V30 5379 N 520.291 -0.0518155 -1.57515 0
M  V30 5380 C 521.201 0.937539 -2.15052 0
M  V30 5381 C 522.217 1.34121 -1.10849 0
M  V30 5382 O 523.393 1.418 -1.4302 0
M  V30 5383 C 520.458 2.19379 -2.68466 0
M  V30 5384 C 519.519 1.84841 -3.87469 0
M  V30 5385 C 518.752 3.04477 -4.38326 0
M  V30 5386 O 518.975 4.17868 -3.88256 0
M  V30 5387 O 517.909 2.85453 -5.29906 0
M  V30 5388 H 521.735 0.478201 -2.99912 0
M  V30 5389 H 519.32 0.17012 -1.48428 0
M  V30 5390 H 521.202 2.93084 -3.02787 0
M  V30 5391 H 519.877 2.64449 -1.86677 0
M  V30 5392 H 518.784 1.08449 -3.58036 0
M  V30 5393 H 520.117 1.44569 -4.7049 0
M  V30 5394 N 521.769 1.56035 0.221574 0
M  V30 5395 C 523.18 1.69229 0.788567 0
M  V30 5396 C 523.531 0.653814 1.84986 0
M  V30 5397 O 522.656 -0.195065 2.15519 0
M  V30 5398 C 523.251 3.06809 1.43713 0
M  V30 5399 C 521.81 3.21858 1.95152 0
M  V30 5400 C 520.957 2.65155 0.811685 0
M  V30 5401 H 523.908 1.587 -0.00307894 0
M  V30 5402 H 523.929 3.02666 2.30594 0
M  V30 5403 H 523.441 3.82369 0.664475 0
M  V30 5404 H 521.542 2.51167 2.7522 0
M  V30 5405 H 521.655 4.29073 2.1315 0
M  V30 5406 H 520.019 2.23635 1.21899 0
M  V30 5407 H 520.802 3.43261 0.0516987 0
M  V30 5408 N 523.247 -0.488276 1.49845 0
M  V30 5409 C 524.179 -1.60539 1.63584 0
M  V30 5410 C 525.192 -1.5434 0.517972 0
M  V30 5411 O 526.381 -1.60041 0.790516 0
M  V30 5412 C 523.481 -2.99374 1.58835 0
M  V30 5413 C 522.654 -3.30624 2.86368 0
M  V30 5414 C 521.713 -4.4893 2.74496 0
M  V30 5415 O 520.739 -4.50085 3.48443 0
M  V30 5416 N 521.941 -5.49591 1.86894 0
M  V30 5417 H 524.706 -1.49176 2.59936 0
M  V30 5418 H 522.267 -0.67639 1.47094 0
M  V30 5419 H 524.259 -3.76459 1.48529 0
M  V30 5420 H 522.829 -3.04595 0.702892 0
M  V30 5421 H 522.049 -2.42314 3.1093 0
M  V30 5422 H 523.337 -3.48305 3.70892 0
M  V30 5423 H 522.735 -5.51467 1.26097 0
M  V30 5424 H 521.292 -6.25728 1.82503 0
M  V30 5425 N 524.725 -1.39134 -0.740242 0
M  V30 5426 C 525.971 -1.36273 -1.50192 0
M  V30 5427 C 526.304 0.0430136 -1.94152 0
M  V30 5428 O 525.579 1.00691 -1.66408 0
M  V30 5429 C 525.862 -2.33041 -2.74525 0
M  V30 5430 C 525.715 -3.82535 -2.36617 0
M  V30 5431 C 527.034 -2.27723 -3.76604 0
M  V30 5432 H 524.153 -0.496323 -0.544823 0
M  V30 5433 H 526.795 -1.70085 -0.846815 0
M  V30 5434 H 524.945 -2.04337 -3.30422 0
M  V30 5435 H 526.617 -4.21967 -1.86391 0
M  V30 5436 H 524.86 -3.99565 -1.68909 0
M  V30 5437 H 525.531 -4.45723 -3.2563 0
M  V30 5438 H 528.007 -2.53091 -3.30279 0
M  V30 5439 H 526.883 -2.97519 -4.61274 0
M  V30 5440 H 527.144 -1.28049 -4.2315 0
M  V30 5441 N 526.204 0.969867 -1.24223 0
M  V30 5442 C 527.434 1.74502 -1.106 0
M  V30 5443 C 527.842 1.86038 0.344483 0
M  V30 5444 O 527.185 1.3465 1.24961 0
M  V30 5445 C 527.247 3.18391 -1.66935 0
M  V30 5446 C 526.911 3.30334 -3.15798 0
M  V30 5447 C 527.908 3.15832 -4.12973 0
M  V30 5448 C 525.593 3.54644 -3.55715 0
M  V30 5449 C 527.587 3.25461 -5.48045 0
M  V30 5450 C 525.274 3.63912 -4.90929 0
M  V30 5451 C 526.272 3.49332 -5.86904 0
M  V30 5452 O 525.96 3.58251 -7.1966 0
M  V30 5453 H 525.692 0.554119 -0.387206 0
M  V30 5454 H 528.246 1.22646 -1.64764 0
M  V30 5455 H 526.476 3.71543 -1.07203 0
M  V30 5456 H 528.165 3.77707 -1.48634 0
M  V30 5457 H 528.931 2.96937 -3.83476 0
M  V30 5458 H 524.81 3.65059 -2.81519 0
M  V30 5459 H 528.354 3.13998 -6.22937 0
M  V30 5460 H 524.251 3.82319 -5.20098 0
M  V30 5461 H 525.019 3.7498 -7.27552 0
M  V30 5462 N 527.682 1.05563 1.17022 0
M  V30 5463 C 528.91 0.78845 1.91288 0
M  V30 5464 C 529.325 -0.656318 1.77025 0
M  V30 5465 O 528.682 -1.44869 1.10992 0
M  V30 5466 C 528.733 1.16444 3.42232 0
M  V30 5467 O 528.454 2.5525 3.5606 0
M  V30 5468 C 529.955 0.923937 4.33565 0
M  V30 5469 H 527.175 0.286389 0.606813 0
M  V30 5470 H 529.719 1.4073 1.48375 0
M  V30 5471 H 527.874 0.590266 3.82877 0
M  V30 5472 H 528.288 2.70097 4.49609 0
M  V30 5473 H 529.762 1.23672 5.37968 0
M  V30 5474 H 530.239 -0.140688 4.38975 0
M  V30 5475 H 530.845 1.48214 3.98639 0
M  V30 5476 N 529.16 -1.33526 0.837174 0
M  V30 5477 C 530.09 -2.31764 0.284206 0
M  V30 5478 C 531.071 -1.58896 -0.607142 0
M  V30 5479 O 532.256 -1.86798 -0.531047 0
M  V30 5480 C 529.386 -3.43029 -0.542962 0
M  V30 5481 C 528.34 -4.27255 0.252451 0
M  V30 5482 C 527.666 -5.3012 -0.69836 0
M  V30 5483 C 528.966 -5.01229 1.46858 0
M  V30 5484 H 530.66 -2.78262 1.10502 0
M  V30 5485 H 528.206 -1.3378 0.532812 0
M  V30 5486 H 530.159 -4.1078 -0.940096 0
M  V30 5487 H 528.883 -2.95216 -1.39697 0
M  V30 5488 H 527.542 -3.61127 0.631124 0
M  V30 5489 H 527.19 -4.78564 -1.54872 0
M  V30 5490 H 526.89 -5.87353 -0.170274 0
M  V30 5491 H 528.414 -6.00737 -1.09305 0
M  V30 5492 H 529.828 -5.61756 1.14469 0
M  V30 5493 H 528.225 -5.68104 1.93333 0
M  V30 5494 H 529.295 -4.301 2.23924 0
M  V30 5495 N 530.638 -0.59345 -1.46 0
M  V30 5496 C 532.049 -0.169801 -1.85926 0
M  V30 5497 C 532.4 1.26984 -1.49565 0
M  V30 5498 O 531.525 1.96076 -0.915602 0
M  V30 5499 C 532.12 -0.301385 -3.37457 0
M  V30 5500 C 530.679 0.0674684 -3.7634 0
M  V30 5501 C 529.826 -0.632383 -2.69993 0
M  V30 5502 H 532.777 -0.801014 -1.37002 0
M  V30 5503 H 532.798 0.470331 -3.77582 0
M  V30 5504 H 532.31 -1.34927 -3.63891 0
M  V30 5505 H 530.411 1.11507 -3.55523 0
M  V30 5506 H 530.524 -0.316332 -4.78055 0
M  V30 5507 H 528.888 -0.0714961 -2.546 0
M  V30 5508 H 529.671 -1.68212 -2.99265 0
M  V30 5509 N 532.116 1.54067 -0.331816 0
M  V30 5510 C 533.527 1.86059 0.15454 0
M  V30 5511 C 533.878 1.25331 1.50952 0
M  V30 5512 O 533.003 0.562441 2.08963 0
M  V30 5513 C 533.598 3.37581 0.287192 0
M  V30 5514 C 532.157 3.69493 0.717773 0
M  V30 5515 C 531.304 2.76863 -0.155569 0
M  V30 5516 H 534.255 1.48797 -0.55182 0
M  V30 5517 H 534.276 3.63744 1.11671 0
M  V30 5518 H 533.788 3.81751 -0.699131 0
M  V30 5519 H 531.889 3.3086 1.71354 0
M  V30 5520 H 532.002 4.76315 0.5158 0
M  V30 5521 H 530.366 2.51995 0.370213 0
M  V30 5522 H 531.149 3.23861 -1.13881 0
M  V30 5523 N 533.594 0.0601682 1.57485 0
M  V30 5524 C 534.819 -0.624416 1.97777 0
M  V30 5525 C 535.244 -1.63051 0.937867 0
M  V30 5526 O 534.602 -1.81036 -0.0978845 0
M  V30 5527 C 534.65 -1.27979 3.37126 0
M  V30 5528 O 533.754 -2.39556 3.35688 0
M  V30 5529 H 533.095 -0.161581 0.64404 0
M  V30 5530 H 535.625 0.131237 2.04179 0
M  V30 5531 H 535.635 -1.62937 3.74053 0
M  V30 5532 H 534.31 -0.542501 4.12347 0
M  V30 5533 H 532.887 -2.06478 3.10517 0
M  V30 5534 N 535.072 -1.5615 -0.213296 0
M  V30 5535 C 536.488 -1.49327 -0.56336 0
M  V30 5536 C 536.688 -0.756826 -1.86747 0
M  V30 5537 O 535.744 -0.299866 -2.50713 0
M  V30 5538 C 537.057 -2.9392 -0.634944 0
M  V30 5539 C 538.605 -3.04487 -0.725013 0
M  V30 5540 C 539.08 -4.50456 -0.82787 0
M  V30 5541 N 540.571 -4.54533 -0.891876 0
M  V30 5542 C 541.306 -5.64766 -0.991315 0
M  V30 5543 N 540.802 -6.84733 -1.05419 0
M  V30 5544 N 542.595 -5.52637 -1.02709 0
M  V30 5545 H 534.746 -2.02453 0.642366 0
M  V30 5546 H 537.009 -0.920548 0.226487 0
M  V30 5547 H 536.715 -3.50783 0.253859 0
M  V30 5548 H 536.589 -3.46274 -1.49579 0
M  V30 5549 H 538.976 -2.47685 -1.60425 0
M  V30 5550 H 539.057 -2.55289 0.161669 0
M  V30 5551 H 538.701 -5.07878 0.0469464 0
M  V30 5552 H 538.631 -4.97369 -1.73009 0
M  V30 5553 H 541.122 -3.68141 -0.85327 0
M  V30 5554 H 541.435 -7.64493 -1.13007 0
M  V30 5555 H 539.78 -6.87427 -1.02318 0
M  V30 5556 H 542.971 -4.5784 -0.974687 0
M  V30 5557 H 543.144 -6.38576 -1.10113 0
M  V30 5558 N 536.55 0.480323 -1.50102 0
M  V30 5559 C 537.46 1.60547 -1.71061 0
M  V30 5560 C 538.476 1.63564 -0.593529 0
M  V30 5561 O 539.652 1.81604 -0.870751 0
M  V30 5562 C 536.717 2.96814 -1.79171 0
M  V30 5563 C 535.778 3.04259 -3.02861 0
M  V30 5564 C 535.011 4.34027 -3.10574 0
M  V30 5565 O 535.234 5.24009 -2.25323 0
M  V30 5566 O 534.168 4.46873 -4.03223 0
M  V30 5567 H 537.994 1.45788 -2.6642 0
M  V30 5568 H 535.579 0.658838 -1.34088 0
M  V30 5569 H 537.461 3.77765 -1.86738 0
M  V30 5570 H 536.136 3.11791 -0.869947 0
M  V30 5571 H 535.043 2.22419 -3.008 0
M  V30 5572 H 536.376 2.94216 -3.94586 0
M  V30 5573 N 538.028 1.39524 0.732853 0
M  V30 5574 C 538.938 1.40695 1.87729 0
M  V30 5575 C 539.954 0.301496 1.71368 0
M  V30 5576 O 541.13 0.543313 1.93933 0
M  V30 5577 C 538.195 1.25098 3.23344 0
M  V30 5578 C 537.256 2.45634 3.52083 0
M  V30 5579 C 536.489 2.30772 4.81228 0
M  V30 5580 O 536.712 1.31233 5.55098 0
M  V30 5581 O 535.646 3.19799 5.09914 0
M  V30 5582 H 539.472 2.37168 1.89697 0
M  V30 5583 H 537.057 1.20663 0.880959 0
M  V30 5584 H 538.939 1.18541 4.04383 0
M  V30 5585 H 537.614 0.317209 3.22142 0
M  V30 5586 H 536.521 2.57767 2.71122 0
M  V30 5587 H 537.854 3.37712 3.58066 0
M  V30 5588 N 539.506 -0.963266 1.24736 0
M  V30 5589 C 540.439 -2.05758 0.986852 0
M  V30 5590 C 541.417 -1.62398 -0.0809272 0
M  V30 5591 O 542.601 -1.88414 0.0569347 0
M  V30 5592 C 539.728 -3.35135 0.490095 0
M  V30 5593 C 538.774 -3.97451 1.54709 0
M  V30 5594 S 539.607 -4.34519 3.12976 0
M  V30 5595 C 540.763 -5.67026 2.65014 0
M  V30 5596 H 540.996 -2.27539 1.91346 0
M  V30 5597 H 538.529 -1.10176 1.08169 0
M  V30 5598 H 540.487 -4.09962 0.21012 0
M  V30 5599 H 539.148 -3.11335 -0.415873 0
M  V30 5600 H 538.341 -4.90704 1.15003 0
M  V30 5601 H 537.943 -3.29071 1.77731 0
M  V30 5602 H 540.235 -6.44748 2.08102 0
M  V30 5603 H 541.178 -6.11594 3.56873 0
M  V30 5604 H 541.586 -5.25847 2.05294 0
M  V30 5605 N 540.985 -1.06182 -1.16461 0
M  V30 5606 C 542.213 -0.798583 -1.90867 0
M  V30 5607 C 542.628 0.646921 -1.77371 0
M  V30 5608 O 541.985 1.44279 -1.11758 0
M  V30 5609 C 542.036 -1.18258 -3.4161 0
M  V30 5610 O 541.757 -2.57135 -3.54701 0
M  V30 5611 C 543.258 -0.946917 -4.33069 0
M  V30 5612 H 540.478 -0.289603 -0.605286 0
M  V30 5613 H 543.022 -1.41515 -1.47627 0
M  V30 5614 H 541.177 -0.610562 -3.82558 0
M  V30 5615 H 541.591 -2.72477 -4.4817 0
M  V30 5616 H 543.065 -1.26523 -5.37304 0
M  V30 5617 H 543.542 0.117406 -4.39043 0
M  V30 5618 H 544.148 -1.50326 -3.97847 0
M  V30 5619 N 542.463 1.3308 -0.844243 0
M  V30 5620 C 543.41 2.29104 -0.279323 0
M  V30 5621 C 544.38 1.54577 0.607882 0
M  V30 5622 O 545.565 1.8285 0.545009 0
M  V30 5623 C 542.705 3.40927 0.53508 0
M  V30 5624 C 541.818 4.30354 -0.376749 0
M  V30 5625 C 540.953 5.29297 0.449276 0
M  V30 5626 C 539.992 6.10365 -0.460606 0
M  V30 5627 N 539.129 7.01335 0.327612 0
M  V30 5628 H 543.969 2.76817 -1.10346 0
M  V30 5629 H 541.506 1.36203 -0.555611 0
M  V30 5630 H 543.464 4.04469 1.02278 0
M  V30 5631 H 542.094 2.94391 1.32414 0
M  V30 5632 H 541.146 3.67485 -0.982791 0
M  V30 5633 H 542.458 4.87067 -1.07549 0
M  V30 5634 H 541.612 5.98392 1.00058 0
M  V30 5635 H 540.351 4.73174 1.18143 0
M  V30 5636 H 539.356 5.40182 -1.02388 0
M  V30 5637 H 540.581 6.68571 -1.1912 0
M  V30 5638 H 538.527 6.47655 1.04305 0
M  V30 5639 H 538.444 7.55355 -0.3123 0
M  V30 5640 H 539.712 7.74731 0.86098 0
M  V30 5641 N 543.941 0.601185 1.45683 0
M  V30 5642 C 544.889 -0.133955 2.32214 0
M  V30 5643 C 545.883 -0.866034 1.45589 0
M  V30 5644 O 547.089 -0.782326 1.6211 0
M  V30 5645 H 543.464 -0.0620613 0.749435 0
M  V30 5646 H 545.435 0.614389 2.92007 0
M  V30 5647 C 544.184 -1.12216 3.29094 0
M  V30 5648 H 543.507 -0.568273 3.95741 0
M  V30 5649 H 544.947 -1.60659 3.92383 0
M  V30 5650 C 543.406 -2.19251 2.55794 0
M  V30 5651 O 543.936 -3.26894 2.33459 0
M  V30 5652 N 542.142 -1.9436 2.16039 0
M  V30 5653 H 541.689 -1.06829 2.34404 0
M  V30 5654 H 541.647 -2.66181 1.67318 0
M  V30 5655 N 545.419 -1.53889 0.339982 0
M  V30 5656 C 546.351 -2.22435 -0.55275 0
M  V30 5657 C 547.364 -1.22975 -1.06681 0
M  V30 5658 O 548.553 -1.49351 -0.977575 0
M  V30 5659 C 545.653 -2.8882 -1.77302 0
M  V30 5660 C 544.826 -4.14563 -1.39486 0
M  V30 5661 C 543.885 -4.64391 -2.47442 0
M  V30 5662 O 542.911 -5.28687 -2.10899 0
M  V30 5663 N 544.113 -4.40015 -3.78639 0
M  V30 5664 H 546.878 -2.9968 0.0342669 0
M  V30 5665 H 544.439 -1.61068 0.16394 0
M  V30 5666 H 546.431 -3.19072 -2.48948 0
M  V30 5667 H 545.001 -2.15182 -2.26749 0
M  V30 5668 H 544.221 -3.90896 -0.509321 0
M  V30 5669 H 545.509 -4.96362 -1.11813 0
M  V30 5670 H 544.907 -3.88586 -4.11118 0
M  V30 5671 H 543.464 -4.74881 -4.46465 0
M  V30 5672 N 546.897 -0.0685191 -1.57451 0
M  V30 5673 C 548.143 0.602239 -1.93652 0
M  V30 5674 C 548.476 1.6946 -0.948526 0
M  V30 5675 O 547.751 1.94487 0.022782 0
M  V30 5676 C 548.034 1.18223 -3.4014 0
M  V30 5677 C 547.887 0.0967431 -4.49696 0
M  V30 5678 C 549.206 2.08872 -3.87377 0
M  V30 5679 H 546.325 0.217453 -0.70419 0
M  V30 5680 H 548.967 -0.133821 -1.89528 0
M  V30 5681 H 547.117 1.80953 -3.43785 0
M  V30 5682 H 548.789 -0.536155 -4.58174 0
M  V30 5683 H 547.032 -0.573063 -4.29998 0
M  V30 5684 H 547.703 0.542894 -5.49324 0
M  V30 5685 H 550.179 1.56081 -3.85717 0
M  V30 5686 H 549.055 2.46389 -4.90493 0
M  V30 5687 H 549.316 2.99572 -3.25129 0
M  V30 5688 N 548.375 1.56261 0.205012 0
M  V30 5689 C 549.6 1.84491 0.947512 0
M  V30 5690 C 550.025 0.650894 1.76479 0
M  V30 5691 O 549.383 -0.40035 1.76824 0
M  V30 5692 C 549.431 3.10863 1.82747 0
M  V30 5693 O 548.535 2.90719 2.925 0
M  V30 5694 H 547.876 0.607783 0.267386 0
M  V30 5695 H 550.406 2.03485 0.213323 0
M  V30 5696 H 550.416 3.41399 2.23407 0
M  V30 5697 H 549.091 3.97392 1.2269 0
M  V30 5698 H 547.668 2.71457 2.55667 0
M  V30 5699 N 549.853 -0.472356 1.50355 0
M  V30 5700 C 550.783 -1.57859 1.72055 0
M  V30 5701 C 551.764 -1.60283 0.569505 0
M  V30 5702 O 552.949 -1.7657 0.808503 0
M  V30 5703 C 550.079 -2.96191 1.81351 0
M  V30 5704 C 549.033 -3.08633 2.96529 0
M  V30 5705 C 548.359 -4.486 2.90968 0
M  V30 5706 C 549.659 -2.85969 4.37057 0
M  V30 5707 H 551.353 -1.39953 2.64676 0
M  V30 5708 H 548.899 -0.671846 1.27367 0
M  V30 5709 H 550.852 -3.73507 1.95117 0
M  V30 5710 H 549.576 -3.15251 0.853502 0
M  V30 5711 H 548.235 -2.33749 2.82413 0
M  V30 5712 H 547.883 -4.64577 1.92815 0
M  V30 5713 H 547.583 -4.57861 3.68289 0
M  V30 5714 H 549.107 -5.27938 3.0678 0
M  V30 5715 H 550.521 -3.53036 4.51706 0
M  V30 5716 H 548.918 -3.06677 5.15819 0
M  V30 5717 H 549.988 -1.81838 4.49514 0
M  V30 5718 N 551.331 -1.39911 -0.725443 0
M  V30 5719 C 552.559 -1.40949 -1.51463 0
M  V30 5720 C 552.974 -0.0065242 -1.88799 0
M  V30 5721 O 552.331 0.967163 -1.54765 0
M  V30 5722 C 552.382 -2.29119 -2.79619 0
M  V30 5723 O 552.103 -3.63952 -2.43866 0
M  V30 5724 C 553.604 -2.38642 -3.73584 0
M  V30 5725 H 550.824 -0.481091 -0.467752 0
M  V30 5726 H 553.368 -1.83843 -0.895651 0
M  V30 5727 H 551.523 -1.89612 -3.37826 0
M  V30 5728 H 551.937 -4.10677 -3.26258 0
M  V30 5729 H 553.411 -3.04563 -4.60375 0
M  V30 5730 H 553.888 -1.40846 -4.16004 0
M  V30 5731 H 554.494 -2.78659 -3.21293 0
M  V30 5732 N 552.809 0.956637 -1.25245 0
M  V30 5733 C 554.049 1.71585 -1.11076 0
M  V30 5734 C 554.413 1.88916 0.34277 0
M  V30 5735 O 555.614 2.61875 0.606227 0
M  V30 5736 C 553.885 3.06267 -1.84215 0
M  V30 5737 S 555.444 3.97469 -1.85914 0
M  V30 5738 H 552.262 0.589803 -0.397055 0
M  V30 5739 H 554.864 1.14114 -1.58739 0
M  V30 5740 H 553.568 2.91322 -2.89067 0
M  V30 5741 H 553.099 3.688 -1.36931 0
M  V30 5742 H 555.114 4.87316 -0.93474 0
M  V30 5743 N 554.287 1.06798 1.15896 0
M  V30 5744 C 555.217 0.704677 2.22613 0
M  V30 5745 C 556.198 -0.305252 1.67339 0
M  V30 5746 O 557.383 -0.179247 1.93371 0
M  V30 5747 C 554.513 0.0957325 3.47168 0
M  V30 5748 C 553.467 1.0322 4.15367 0
M  V30 5749 C 552.793 0.286293 5.33933 0
M  V30 5750 C 554.093 2.36341 4.65768 0
M  V30 5751 H 555.787 1.59688 2.53259 0
M  V30 5752 H 553.333 0.769257 1.21731 0
M  V30 5753 H 555.286 -0.170333 4.21056 0
M  V30 5754 H 554.01 -0.831516 3.15838 0
M  V30 5755 H 552.669 1.28309 3.43413 0
M  V30 5756 H 552.317 -0.644237 4.98857 0
M  V30 5757 H 552.017 0.910436 5.80504 0
M  V30 5758 H 553.541 0.0278938 6.10594 0
M  V30 5759 H 554.955 2.1561 5.31211 0
M  V30 5760 H 553.352 2.94299 5.2298 0
M  V30 5761 H 554.422 2.99047 3.81705 0
M  V30 5762 N 555.766 -1.3263 0.851289 0
M  V30 5763 C 557.012 -1.9766 0.453694 0
M  V30 5764 C 557.345 -1.67225 -0.987396 0
M  V30 5765 O 556.62 -0.958693 -1.69232 0
M  V30 5766 C 556.903 -3.5344 0.68936 0
M  V30 5767 C 556.756 -3.93517 2.17862 0
M  V30 5768 C 558.075 -4.39866 0.143555 0
M  V30 5769 H 555.194 -0.717989 0.166314 0
M  V30 5770 H 557.836 -1.57068 1.06909 0
M  V30 5771 H 555.986 -3.88147 0.165546 0
M  V30 5772 H 557.658 -3.69006 2.76826 0
M  V30 5773 H 555.901 -3.42798 2.65841 0
M  V30 5774 H 556.572 -5.02065 2.29422 0
M  V30 5775 H 559.048 -4.11875 0.591451 0
M  V30 5776 H 557.924 -5.47858 0.338043 0
M  V30 5777 H 558.185 -4.31696 -0.953466 0
M  V30 5778 N 557.244 -0.608902 -1.45362 0
M  V30 5779 C 558.191 0.109172 -2.30542 0
M  V30 5780 C 559.161 0.858704 -1.42181 0
M  V30 5781 O 560.346 0.844178 -1.71109 0
M  V30 5782 C 557.486 1.09971 -3.27109 0
M  V30 5783 C 556.599 0.350911 -4.30572 0
M  V30 5784 C 555.734 1.33129 -5.14247 0
M  V30 5785 C 554.773 0.570377 -6.09437 0
M  V30 5786 N 553.91 1.5001 -6.85887 0
M  V30 5787 H 558.75 -0.623195 -2.91411 0
M  V30 5788 H 556.287 -0.319122 -1.43597 0
M  V30 5789 H 558.245 1.68714 -3.81564 0
M  V30 5790 H 556.875 1.79947 -2.67991 0
M  V30 5791 H 555.927 -0.352054 -3.78767 0
M  V30 5792 H 557.239 -0.242725 -4.98209 0
M  V30 5793 H 556.393 1.99074 -5.73109 0
M  V30 5794 H 555.132 1.95885 -4.46632 0
M  V30 5795 H 554.137 -0.102702 -5.49704 0
M  V30 5796 H 555.362 -0.0521607 -6.7908 0
M  V30 5797 H 553.308 2.11529 -6.2096 0
M  V30 5798 H 553.225 0.959934 -7.49881 0
M  V30 5799 H 554.493 2.14909 -7.49289 0
M  V30 5800 N 558.722 1.53707 -0.348139 0
M  V30 5801 C 559.97 2.00591 0.246478 0
M  V30 5802 C 560.291 1.23753 1.50699 0
M  V30 5803 O 559.561 0.345964 1.92821 0
M  V30 5804 H 558.141 0.741053 0.0940679 0
M  V30 5805 H 560.803 1.89139 -0.470354 0
M  V30 5806 H 559.899 3.08297 0.485714 0
M  V30 5807 N 560.2 0.0768682 1.57412 0
M  V30 5808 C 561.447 -0.591085 1.93681 0
M  V30 5809 C 561.775 -1.69311 0.957286 0
M  V30 5810 O 561.03 -1.95682 -0.0262428 0
M  V30 5811 C 561.329 -1.20268 3.36557 0
M  V30 5812 C 560.995 -0.226286 4.50332 0
M  V30 5813 C 559.657 0.0423142 4.81181 0
M  V30 5814 C 562.009 0.441415 5.19327 0
M  V30 5815 C 559.337 0.985616 5.78362 0
M  V30 5816 C 561.689 1.37307 6.17519 0
M  V30 5817 C 560.353 1.65009 6.46783 0
M  V30 5818 H 559.623 -0.216293 0.70873 0
M  V30 5819 H 562.27 0.148824 1.90921 0
M  V30 5820 H 560.575 -2.01844 3.35807 0
M  V30 5821 H 562.272 -1.72688 3.61911 0
M  V30 5822 H 558.862 -0.445821 4.26275 0
M  V30 5823 H 563.046 0.247023 4.95685 0
M  V30 5824 H 558.302 1.20743 5.99359 0
M  V30 5825 H 562.476 1.89637 6.70083 0
M  V30 5826 H 560.103 2.38263 7.21897 0
M  V30 5827 N 561.678 -1.56367 -0.196722 0
M  V30 5828 C 562.908 -1.84371 -0.932254 0
M  V30 5829 C 563.316 -0.657013 -1.77426 0
M  V30 5830 O 562.659 0.383576 -1.79651 0
M  V30 5831 C 562.721 -3.06454 -1.87952 0
M  V30 5832 C 562.385 -4.40425 -1.21962 0
M  V30 5833 C 563.382 -5.16457 -0.597343 0
M  V30 5834 C 561.067 -4.8716 -1.22396 0
M  V30 5835 C 563.061 -6.37399 0.0117913 0
M  V30 5836 C 560.748 -6.08038 -0.610995 0
M  V30 5837 C 561.746 -6.83 0.00580487 0
M  V30 5838 O 561.434 -8.01589 0.609173 0
M  V30 5839 H 561.166 -0.616377 -0.277589 0
M  V30 5840 H 563.72 -2.04329 -0.209452 0
M  V30 5841 H 561.95 -2.82377 -2.64197 0
M  V30 5842 H 563.639 -3.21118 -2.48271 0
M  V30 5843 H 564.405 -4.81445 -0.586142 0
M  V30 5844 H 560.284 -4.2877 -1.69345 0
M  V30 5845 H 563.828 -6.9585 0.493836 0
M  V30 5846 H 559.725 -6.42519 -0.619693 0
M  V30 5847 H 560.493 -8.16935 0.505919 0
M  V30 5848 N 563.156 0.464375 -1.50603 0
M  V30 5849 C 564.567 1.04507 -1.5471 0
M  V30 5850 C 564.918 1.9297 -0.354542 0
M  V30 5851 O 564.043 2.09763 0.531812 0
M  V30 5852 C 564.638 1.90207 -2.80369 0
M  V30 5853 C 563.197 2.43373 -2.87135 0
M  V30 5854 C 562.344 1.21886 -2.49076 0
M  V30 5855 H 565.295 0.246716 -1.56771 0
M  V30 5856 H 565.316 2.75353 -2.62604 0
M  V30 5857 H 564.828 1.25796 -3.67147 0
M  V30 5858 H 562.929 3.11318 -2.04724 0
M  V30 5859 H 563.042 2.7802 -3.90181 0
M  V30 5860 H 561.406 1.55575 -2.01664 0
M  V30 5861 H 562.189 0.591268 -3.3817 0
M  V30 5862 N 564.634 1.40294 0.718013 0
M  V30 5863 C 565.859 1.41941 1.5122 0
M  V30 5864 C 566.284 0.0202371 1.88089 0
M  V30 5865 O 565.642 -0.971078 1.53101 0
M  V30 5866 C 565.69 2.3141 2.76554 0
M  V30 5867 O 564.794 1.75567 3.73162 0
M  V30 5868 H 564.135 0.482644 0.456016 0
M  V30 5869 H 566.665 1.84494 0.884478 0
M  V30 5870 H 566.675 2.46513 3.25108 0
M  V30 5871 H 565.35 3.33085 2.49053 0
M  V30 5872 H 563.927 1.69798 3.31999 0
M  V30 5873 N 566.112 -0.949982 1.2575 0
M  V30 5874 C 567.389 -1.6718 1.01539 0
M  V30 5875 C 567.769 -2.06095 -0.456942 0
M  V30 5876 O 567.117 -1.77792 -1.43534 0
M  V30 5877 C 567.327 -2.8906 1.95564 0
M  V30 5878 C 568.675 -3.60909 2.23673 0
M  V30 5879 O 569.699 -2.9915 1.9336 0
M  V30 5880 O 568.558 -4.72127 2.75243 0
M  V30 5881 H 565.652 -0.731697 0.385419 0
M  V30 5882 H 568.198 -1.00249 1.36924 0
M  V30 5883 H 566.97 -2.57128 2.94959 0
M  V30 5884 H 566.593 -3.63719 1.60605 0
M  V30 5885 N 567.59 -1.07411 -1.15328 0
M  V30 5886 C 568.839 -0.792643 -1.85473 0
M  V30 5887 C 569.152 0.683789 -1.83259 0
M  V30 5888 O 570.358 1.08005 -2.49093 0
M  V30 5889 C 568.814 -1.36787 -3.32892 0
M  V30 5890 C 568.422 -2.87536 -3.43551 0
M  V30 5891 C 570.166 -1.16444 -4.08217 0
M  V30 5892 C 568.073 -3.38247 -4.85122 0
M  V30 5893 H 567.003 -0.292838 -0.694811 0
M  V30 5894 H 569.654 -1.29426 -1.30082 0
M  V30 5895 H 568.036 -0.793993 -3.87958 0
M  V30 5896 H 569.21 -3.50973 -2.98588 0
M  V30 5897 H 567.525 -3.06676 -2.81672 0
M  V30 5898 H 570.122 -1.51808 -5.12697 0
M  V30 5899 H 570.465 -0.10353 -4.16171 0
M  V30 5900 H 570.998 -1.70472 -3.59422 0
M  V30 5901 H 567.737 -4.43866 -4.82351 0
M  V30 5902 H 567.257 -2.79564 -5.30664 0
M  V30 5903 H 568.936 -3.34238 -5.5398 0
M  V30 5904 N 569.068 1.32177 -0.85831 0
M  V30 5905 C 570.031 2.27086 -0.310588 0
M  V30 5906 C 571.031 1.51751 0.531806 0
M  V30 5907 O 572.221 1.70794 0.34279 0
M  V30 5908 C 569.353 3.36266 0.560179 0
M  V30 5909 H 570.546 2.77045 -1.1483 0
M  V30 5910 H 568.099 1.42911 -0.632942 0
M  V30 5911 H 568.834 2.9158 1.41956 0
M  V30 5912 H 568.619 3.92077 -0.0428473 0
M  V30 5913 H 570.109 4.06974 0.936056 0
M  V30 5914 N 570.547 0.616602 1.45037 0
M  V30 5915 C 571.793 0.115501 2.02471 0
M  V30 5916 C 572.126 -1.25406 1.4828 0
M  V30 5917 O 571.401 -1.82922 0.661051 0
M  V30 5918 C 571.684 0.0863588 3.59996 0
M  V30 5919 C 571.537 1.48723 4.24501 0
M  V30 5920 C 572.856 -0.596762 4.36035 0
M  V30 5921 H 569.975 0.0434461 0.735718 0
M  V30 5922 H 572.617 0.7903 1.72784 0
M  V30 5923 H 570.767 -0.488277 3.85419 0
M  V30 5924 H 572.439 2.10964 4.10234 0
M  V30 5925 H 570.682 2.04534 3.82555 0
M  V30 5926 H 571.353 1.419 5.3345 0
M  V30 5927 H 573.829 -0.10824 4.15959 0
M  V30 5928 H 572.705 -0.586289 5.4576 0
M  V30 5929 H 572.966 -1.66451 4.09569 0
M  V30 5930 N 572.025 -1.5352 0.356285 0
M  V30 5931 C 572.935 -2.29151 -0.502712 0
M  V30 5932 C 573.951 -1.34753 -1.1008 0
M  V30 5933 O 575.127 -1.67803 -1.11374 0
M  V30 5934 C 572.192 -3.05911 -1.63154 0
M  V30 5935 C 571.253 -4.15958 -1.06194 0
M  V30 5936 C 570.486 -4.8905 -2.13696 0
M  V30 5937 O 570.709 -4.61919 -3.34645 0
M  V30 5938 O 569.643 -5.75202 -1.77275 0
M  V30 5939 H 573.469 -3.03492 0.112466 0
M  V30 5940 H 571.054 -1.4891 0.120942 0
M  V30 5941 H 572.936 -3.53874 -2.28804 0
M  V30 5942 H 571.611 -2.34415 -2.23229 0
M  V30 5943 H 570.518 -3.7227 -0.369603 0
M  V30 5944 H 571.851 -4.89593 -0.505872 0
M  V30 5945 N 573.503 -0.0852151 -1.57369 0
M  V30 5946 C 574.749 0.575588 -1.95086 0
M  V30 5947 C 575.104 1.66402 -0.96582 0
M  V30 5948 O 574.397 1.91598 0.00978463 0
M  V30 5949 C 574.591 1.18482 -3.3719 0
M  V30 5950 C 574.42 0.156928 -4.49426 0
M  V30 5951 C 573.19 -0.263126 -5.04614 0
M  V30 5952 C 575.388 -0.611068 -5.10657 0
M  V30 5953 N 573.37 -1.28032 -6.00401 0
M  V30 5954 C 574.741 -1.48036 -6.02068 0
M  V30 5955 C 576.796 -0.665669 -4.9343 0
M  V30 5956 C 575.499 -2.39943 -6.781 0
M  V30 5957 C 577.525 -1.5723 -5.70116 0
M  V30 5958 C 576.887 -2.42924 -6.61186 0
M  V30 5959 H 572.986 0.181249 -0.760705 0
M  V30 5960 H 575.57 -0.165484 -1.93995 0
M  V30 5961 H 573.741 1.89575 -3.38992 0
M  V30 5962 H 575.473 1.80718 -3.62109 0
M  V30 5963 H 572.228 0.122664 -4.73441 0
M  V30 5964 H 572.652 -1.78682 -6.52994 0
M  V30 5965 H 577.294 -0.0173214 -4.22796 0
M  V30 5966 H 575.012 -3.05807 -7.48002 0
M  V30 5967 H 578.598 -1.61956 -5.58804 0
M  V30 5968 H 577.478 -3.1194 -7.19488 0
M  V30 5969 N 574.981 1.5647 0.188427 0
M  V30 5970 C 575.891 1.98285 1.2538 0
M  V30 5971 C 576.907 0.891535 1.49424 0
M  V30 5972 O 578.083 1.19782 1.61908 0
M  V30 5973 C 575.148 2.31965 2.57669 0
M  V30 5974 C 574.209 3.54838 2.41638 0
M  V30 5975 C 573.442 3.86901 3.67618 0
M  V30 5976 O 573.665 3.20163 4.72072 0
M  V30 5977 O 572.599 4.80309 3.62749 0
M  V30 5978 H 576.425 2.89145 0.928912 0
M  V30 5979 H 574.01 1.44112 0.393955 0
M  V30 5980 H 575.892 2.54673 3.35737 0
M  V30 5981 H 574.567 1.44271 2.89771 0
M  V30 5982 H 573.474 3.37369 1.61658 0
M  V30 5983 H 574.807 4.43019 2.14465 0
M  V30 5984 N 576.459 -0.456382 1.50847 0
M  V30 5985 C 577.684 -1.2349 1.66628 0
M  V30 5986 C 578.109 -1.84715 0.355254 0
M  V30 5987 O 577.467 -1.67961 -0.682559 0
M  V30 5988 C 577.515 -2.30865 2.77009 0
M  V30 5989 O 576.619 -3.35882 2.39285 0
M  V30 5990 H 575.96 -0.36266 0.556214 0
M  V30 5991 H 578.49 -0.541374 1.97308 0
M  V30 5992 H 578.5 -2.75949 3.00526 0
M  V30 5993 H 577.175 -1.85677 3.72152 0
M  V30 5994 H 575.752 -2.96406 2.26269 0
M  V30 5995 N 577.937 -1.40673 -0.710563 0
M  V30 5996 C 578.885 -1.41517 -1.84596 0
M  V30 5997 C 579.879 -0.295043 -1.66811 0
M  V30 5998 O 581.085 -0.466331 -1.73854 0
M  V30 5999 H 577.46 -0.442467 -0.608052 0
M  V30 6000 H 579.431 -2.37238 -1.80999 0
M  V30 6001 C 578.18 -1.29957 -3.225 0
M  V30 6002 H 577.503 -2.15429 -3.36794 0
M  V30 6003 H 578.943 -1.34608 -4.02066 0
M  V30 6004 C 577.402 -0.0103164 -3.36898 0
M  V30 6005 O 577.932 0.950707 -3.90288 0
M  V30 6006 N 576.138 0.0608409 -2.90536 0
M  V30 6007 H 575.685 -0.721943 -2.47277 0
M  V30 6008 H 575.643 0.92292 -3.00549 0
M  V30 6009 N 579.415 0.9433 -1.26252 0
M  V30 6010 C 580.663 1.68592 -1.11451 0
M  V30 6011 C 580.984 1.91957 0.343123 0
M  V30 6012 O 580.254 1.51475 1.24226 0
M  V30 6013 H 578.834 0.624789 -0.409448 0
M  V30 6014 H 581.496 1.13351 -1.58548 0
M  V30 6015 H 580.592 2.66054 -1.63162 0
M  V30 6016 N 580.893 1.08022 1.14757 0
M  V30 6017 C 581.825 0.664566 2.19354 0
M  V30 6018 C 582.838 -0.286374 1.60261 0
M  V30 6019 O 584.027 -0.0746362 1.78344 0
M  V30 6020 C 581.127 -0.0434634 3.38872 0
M  V30 6021 C 580.3 0.925381 4.27499 0
M  V30 6022 C 579.359 0.253398 5.2559 0
M  V30 6023 O 578.385 0.896581 5.62094 0
M  V30 6024 N 579.587 -0.998263 5.71852 0
M  V30 6025 H 582.352 1.56438 2.55631 0
M  V30 6026 H 579.913 0.965788 1.29939 0
M  V30 6027 H 581.905 -0.503857 4.01551 0
M  V30 6028 H 580.475 -0.845321 3.00954 0
M  V30 6029 H 579.695 1.56472 3.61815 0
M  V30 6030 H 580.983 1.58203 4.8358 0
M  V30 6031 H 580.381 -1.54063 5.44317 0
M  V30 6032 H 578.938 -1.40222 6.36538 0
M  V30 6033 N 582.371 -1.3172 0.865308 0
M  V30 6034 C 583.782 -1.79104 0.527126 0
M  V30 6035 C 584.133 -1.7135 -0.955695 0
M  V30 6036 O 583.258 -1.27845 -1.74598 0
M  V30 6037 C 583.853 -3.25207 0.950061 0
M  V30 6038 C 582.412 -3.70504 0.663611 0
M  V30 6039 C 581.559 -2.52605 1.14395 0
M  V30 6040 H 584.51 -1.18868 1.05148 0
M  V30 6041 H 584.531 -3.79535 0.270805 0
M  V30 6042 H 584.043 -3.30818 2.02931 0
M  V30 6043 H 582.144 -3.70398 -0.404474 0
M  V30 6044 H 582.257 -4.62845 1.23737 0
M  V30 6045 H 580.621 -2.4838 0.563859 0
M  V30 6046 H 581.404 -2.60964 2.23053 0
M  V30 6047 N 583.85 -0.624285 -1.44708 0
M  V30 6048 C 584.76 0.0861083 -2.34442 0
M  V30 6049 C 585.776 0.84291 -1.5222 0
M  V30 6050 O 586.952 0.796723 -1.84971 0
M  V30 6051 C 584.017 1.05999 -3.30099 0
M  V30 6052 C 583.077 0.303316 -4.28227 0
M  V30 6053 C 582.311 1.23081 -5.19314 0
M  V30 6054 O 582.534 2.46929 -5.14181 0
M  V30 6055 O 581.468 0.71883 -5.97592 0
M  V30 6056 H 585.293 -0.651756 -2.96624 0
M  V30 6057 H 582.879 -0.384493 -1.44368 0
M  V30 6058 H 584.76 1.62046 -3.88997 0
M  V30 6059 H 583.436 1.77859 -2.70459 0
M  V30 6060 H 582.343 -0.300033 -3.72895 0
M  V30 6061 H 583.676 -0.375123 -4.90768 0
M  V30 6062 N 585.328 1.53329 -0.364422 0
M  V30 6063 C 586.276 2.27212 0.497737 0
M  V30 6064 C 587.27 1.30146 1.08437 0
M  V30 6065 O 588.476 1.47778 1.0277 0
M  V30 6066 H 584.851 0.730329 0.179232 0
M  V30 6067 H 586.822 2.98037 -0.147182 0
M  V30 6068 C 585.571 3.07333 1.6261 0
M  V30 6069 H 584.894 3.81866 1.184 0
M  V30 6070 H 586.334 3.62209 2.20409 0
M  V30 6071 C 584.793 2.18102 2.56775 0
M  V30 6072 O 585.323 1.79104 3.59562 0
M  V30 6073 N 583.529 1.82759 2.25937 0
M  V30 6074 H 583.076 2.14671 1.42387 0
M  V30 6075 H 583.034 1.23342 2.89196 0
M  V30 6076 N 586.806 0.0935595 1.57322 0
M  V30 6077 C 587.754 -0.883457 2.15169 0
M  V30 6078 C 588.748 -1.29324 1.09415 0
M  V30 6079 O 589.954 -1.26795 1.27762 0
M  V30 6080 H 586.329 -0.302923 0.688289 0
M  V30 6081 H 588.3 -0.370845 2.96087 0
M  V30 6082 C 587.049 -2.13345 2.74552 0
M  V30 6083 H 586.372 -1.82702 3.55612 0
M  V30 6084 H 587.812 -2.7977 3.18598 0
M  V30 6085 C 586.271 -2.90646 1.70371 0
M  V30 6086 O 586.801 -3.85133 1.14173 0
M  V30 6087 N 585.007 -2.54157 1.40899 0
M  V30 6088 H 584.554 -1.77391 1.86789 0
M  V30 6089 H 584.512 -3.06178 0.714301 0
M  V30 6090 N 588.284 -1.56567 -0.180126 0
M  V30 6091 C 589.514 -1.85349 -0.912647 0
M  V30 6092 C 589.922 -0.675795 -1.76719 0
M  V30 6093 O 589.265 0.3645 -1.80047 0
M  V30 6094 C 589.327 -3.08431 -1.84691 0
M  V30 6095 C 588.991 -4.41694 -1.17284 0
M  V30 6096 C 589.988 -5.17062 -0.542532 0
M  V30 6097 C 587.673 -4.8843 -1.17223 0
M  V30 6098 C 589.667 -6.37351 0.0793953 0
M  V30 6099 C 587.354 -6.08652 -0.54647 0
M  V30 6100 C 588.352 -6.82955 0.0782458 0
M  V30 6101 O 588.04 -8.00897 0.694158 0
M  V30 6102 H 587.772 -0.619286 -0.271036 0
M  V30 6103 H 590.326 -2.0454 -0.187768 0
M  V30 6104 H 588.556 -2.85163 -2.61188 0
M  V30 6105 H 590.245 -3.23733 -2.44851 0
M  V30 6106 H 591.011 -4.8204 -0.535045 0
M  V30 6107 H 586.89 -4.30542 -1.64788 0
M  V30 6108 H 590.434 -6.95287 0.567612 0
M  V30 6109 H 586.331 -6.4314 -0.55151 0
M  V30 6110 H 587.099 -8.16352 0.592537 0
M  V30 6111 N 589.762 0.448376 -1.51087 0
M  V30 6112 C 590.709 1.54341 -1.71603 0
M  V30 6113 C 591.679 1.56463 -0.557536 0
M  V30 6114 O 592.864 1.73644 -0.79072 0
M  V30 6115 C 590.004 2.92148 -1.83695 0
M  V30 6116 C 589.117 2.99639 -3.11192 0
M  V30 6117 C 588.252 4.285 -3.13944 0
M  V30 6118 C 587.291 4.29819 -4.35801 0
M  V30 6119 N 586.428 5.50186 -4.36164 0
M  V30 6120 H 591.268 1.36151 -2.65079 0
M  V30 6121 H 588.805 0.661585 -1.31383 0
M  V30 6122 H 590.763 3.72093 -1.88687 0
M  V30 6123 H 589.393 3.0892 -0.936374 0
M  V30 6124 H 588.445 2.12425 -3.15562 0
M  V30 6125 H 589.757 2.96474 -4.01129 0
M  V30 6126 H 588.911 5.16811 -3.17791 0
M  V30 6127 H 587.65 4.34307 -2.21876 0
M  V30 6128 H 586.655 3.39902 -4.32142 0
M  V30 6129 H 587.88 4.25685 -5.29121 0
M  V30 6130 H 585.826 5.56735 -3.46961 0
M  V30 6131 H 585.743 5.48856 -5.19897 0
M  V30 6132 H 587.011 6.40559 -4.44189 0
M  V30 6133 N 591.24 1.41047 0.703093 0
M  V30 6134 C 592.468 1.4334 1.49202 0
M  V30 6135 C 592.883 0.0365596 1.88765 0
M  V30 6136 O 592.24 -0.942419 1.56284 0
M  V30 6137 C 592.291 2.33538 2.75939 0
M  V30 6138 O 592.012 3.67786 2.38045 0
M  V30 6139 C 593.513 2.44555 3.6974 0
M  V30 6140 H 590.733 0.488472 0.460039 0
M  V30 6141 H 593.277 1.85245 0.86629 0
M  V30 6142 H 591.432 1.94962 3.34766 0
M  V30 6143 H 591.846 4.15816 3.19683 0
M  V30 6144 H 593.32 3.11849 4.55471 0
M  V30 6145 H 593.797 1.47447 4.1371 0
M  V30 6146 H 594.403 2.83735 3.16819 0
M  V30 6147 N 592.718 -0.936591 1.26751 0
M  V30 6148 C 593.946 -1.71758 1.15355 0
M  V30 6149 C 594.361 -1.86549 -0.290683 0
M  V30 6150 O 593.718 -1.37616 -1.19868 0
M  V30 6151 C 593.769 -3.12193 1.82258 0
M  V30 6152 O 593.49 -2.98105 3.21038 0
M  V30 6153 C 594.991 -4.06485 1.76875 0
M  V30 6154 H 592.211 -0.537636 0.401483 0
M  V30 6155 H 594.755 -1.17382 1.67457 0
M  V30 6156 H 592.91 -3.63456 1.34083 0
M  V30 6157 H 593.324 -3.86824 3.54214 0
M  V30 6158 H 594.798 -5.02569 2.28316 0
M  V30 6159 H 595.275 -4.32986 0.736216 0
M  V30 6160 H 595.881 -3.61144 2.24623 0
M  V30 6161 N 594.196 -1.08629 -1.14182 0
M  V30 6162 C 595.607 -0.838003 -1.66836 0
M  V30 6163 C 595.958 0.634885 -1.85644 0
M  V30 6164 O 595.083 1.49008 -1.56926 0
M  V30 6165 C 595.678 -1.51465 -3.03058 0
M  V30 6166 C 594.237 -1.31355 -3.52736 0
M  V30 6167 C 593.384 -1.57599 -2.28162 0
M  V30 6168 H 596.335 -1.24656 -0.982165 0
M  V30 6169 H 596.356 -0.943134 -3.68626 0
M  V30 6170 H 595.868 -2.58661 -2.89337 0
M  V30 6171 H 593.969 -0.262384 -3.71675 0
M  V30 6172 H 594.082 -2.04275 -4.33369 0
M  V30 6173 H 592.446 -0.997659 -2.34348 0
M  V30 6174 H 593.229 -2.66006 -2.17015 0
M  V30 6175 N 595.674 1.31259 -0.872281 0
M  V30 6176 C 597.085 1.78822 -0.536617 0
M  V30 6177 C 597.436 1.71855 0.946594 0
M  V30 6178 O 596.561 1.28769 1.73918 0
M  V30 6179 C 597.156 3.24698 -0.967294 0
M  V30 6180 C 595.715 3.70147 -0.683251 0
M  V30 6181 C 594.862 2.51994 -1.15733 0
M  V30 6182 H 597.813 1.18308 -1.05777 0
M  V30 6183 H 597.834 3.79386 -0.290929 0
M  V30 6184 H 597.346 3.29737 -2.04683 0
M  V30 6185 H 595.447 3.70607 0.384825 0
M  V30 6186 H 595.56 4.62183 -1.2619 0
M  V30 6187 H 593.924 2.48078 -0.577024 0
M  V30 6188 H 594.707 2.59778 -2.24434 0
M  V30 6189 N 597.152 0.631951 1.44375 0
M  V30 6190 C 598.398 0.13697 2.02337 0
M  V30 6191 C 598.731 -1.23826 1.49602 0
M  V30 6192 O 598.006 -1.8221 0.680415 0
M  V30 6193 C 598.289 0.124536 3.59885 0
M  V30 6194 C 598.142 1.53217 4.229 0
M  V30 6195 C 599.461 -0.550481 4.36644 0
M  V30 6196 H 596.58 0.051247 0.735216 0
M  V30 6197 H 599.222 0.808581 1.71936 0
M  V30 6198 H 597.372 -0.44737 3.85916 0
M  V30 6199 H 599.044 2.15303 4.07973 0
M  V30 6200 H 597.287 2.0858 3.80364 0
M  V30 6201 H 597.958 1.4755 5.31914 0
M  V30 6202 H 600.434 -0.0641154 4.16051 0
M  V30 6203 H 599.31 -0.528371 5.46351 0
M  V30 6204 H 599.571 -1.62097 4.11311 0
M  V30 6205 N 598.631 -1.53133 0.372548 0
M  V30 6206 C 599.561 -2.28876 -0.462412 0
M  V30 6207 C 600.542 -1.31583 -1.07796 0
M  V30 6208 O 601.727 -1.60461 -1.09389 0
M  V30 6209 C 598.857 -3.08317 -1.59868 0
M  V30 6210 C 597.811 -4.13355 -1.11003 0
M  V30 6211 C 597.137 -4.8092 -2.33708 0
M  V30 6212 C 598.437 -5.21955 -0.18983 0
M  V30 6213 H 600.131 -2.9892 0.169511 0
M  V30 6214 H 597.677 -1.43761 0.0829658 0
M  V30 6215 H 599.63 -3.60055 -2.18949 0
M  V30 6216 H 598.354 -2.35976 -2.25794 0
M  V30 6217 H 597.013 -3.62573 -0.541869 0
M  V30 6218 H 596.661 -4.05144 -2.98106 0
M  V30 6219 H 596.361 -5.51904 -2.01682 0
M  V30 6220 H 597.885 -5.35455 -2.93462 0
M  V30 6221 H 599.299 -5.69153 -0.688319 0
M  V30 6222 H 597.696 -6.00087 0.0398887 0
M  V30 6223 H 598.766 -4.78811 0.766057 0
M  V30 6224 N 600.109 -0.101901 -1.5727 0
M  V30 6225 C 601.386 0.602832 -1.86079 0
M  V30 6226 C 601.766 1.85912 -1 0
M  V30 6227 O 601.114 2.28379 -0.0742488 0
M  V30 6228 C 601.324 0.911694 -3.36881 0
M  V30 6229 C 602.672 1.2722 -4.05093 0
M  V30 6230 O 603.696 1.0025 -3.41802 0
M  V30 6231 O 602.555 1.7776 -5.16782 0
M  V30 6232 H 599.649 0.302366 -0.769743 0
M  V30 6233 H 602.195 -0.135113 -1.69161 0
M  V30 6234 H 600.967 0.0207256 -3.91295 0
M  V30 6235 H 600.59 1.70538 -3.59169 0
M  V30 6236 N 601.587 1.56661 0.17182 0
M  V30 6237 C 602.812 1.86459 0.908165 0
M  V30 6238 C 603.237 0.688181 1.75059 0
M  V30 6239 O 602.595 -0.362753 1.77634 0
M  V30 6240 C 602.643 3.14669 1.76112 0
M  V30 6241 O 601.747 2.96858 2.86268 0
M  V30 6242 H 601.088 0.613318 0.254434 0
M  V30 6243 H 603.618 2.03892 0.170113 0
M  V30 6244 H 603.628 3.46061 2.16115 0
M  V30 6245 H 602.303 3.99905 1.14233 0
M  V30 6246 H 600.88 2.76819 2.49852 0
M  V30 6247 N 603.065 -0.440357 1.51323 0
M  V30 6248 C 604.342 -1.20109 1.5438 0
M  V30 6249 C 604.722 -2.08866 0.306303 0
M  V30 6250 O 604.07 -2.1723 -0.708773 0
M  V30 6251 C 604.28 -2.00555 2.8562 0
M  V30 6252 C 605.628 -2.577 3.37455 0
M  V30 6253 O 606.652 -2.10769 2.8715 0
M  V30 6254 O 605.511 -3.43289 4.25224 0
M  V30 6255 H 602.605 -0.546668 0.620551 0
M  V30 6256 H 605.151 -0.449672 1.63634 0
M  V30 6257 H 603.923 -1.35346 3.67147 0
M  V30 6258 H 603.546 -2.82768 2.79514 0
M  V30 6259 N 604.543 -1.41418 -0.695603 0
M  V30 6260 C 605.791 -1.40496 -1.45277 0
M  V30 6261 C 606.112 -0.0149538 -1.94994 0
M  V30 6262 O 605.382 0.9432 -1.71699 0
M  V30 6263 H 603.962 -0.517147 -0.539044 0
M  V30 6264 H 606.624 -1.76656 -0.823321 0
M  V30 6265 H 605.72 -2.09214 -2.31595 0
M  V30 6266 N 606.021 0.929856 -1.27246 0
M  V30 6267 C 607.246 1.71674 -1.16374 0
M  V30 6268 C 607.671 1.86064 0.276024 0
M  V30 6269 O 607.029 1.3591 1.19992 0
M  V30 6270 C 607.077 3.09526 -1.85003 0
M  V30 6271 O 606.181 3.96142 -1.14653 0
M  V30 6272 H 605.522 0.52629 -0.404863 0
M  V30 6273 H 608.052 1.16381 -1.68276 0
M  V30 6274 H 608.062 3.59852 -1.92276 0
M  V30 6275 H 606.737 2.98369 -2.89739 0
M  V30 6276 H 605.314 3.54584 -1.15433 0
M  V30 6277 N 607.499 1.09233 1.13605 0
M  V30 6278 C 608.746 0.827159 1.84836 0
M  V30 6279 C 609.074 -0.647199 1.83416 0
M  V30 6280 O 608.329 -1.49228 1.26608 0
M  V30 6281 C 608.628 1.305 3.32723 0
M  V30 6282 C 608.294 2.78864 3.54325 0
M  V30 6283 C 606.956 3.19382 3.59928 0
M  V30 6284 C 609.308 3.74532 3.62457 0
M  V30 6285 C 606.636 4.54346 3.71196 0
M  V30 6286 C 608.988 5.09283 3.75252 0
M  V30 6287 C 607.652 5.49394 3.79108 0
M  V30 6288 H 606.922 0.302679 0.676363 0
M  V30 6289 H 609.569 1.36676 1.34134 0
M  V30 6290 H 607.874 0.68517 3.85762 0
M  V30 6291 H 609.571 1.07648 3.86281 0
M  V30 6292 H 606.161 2.46507 3.50617 0
M  V30 6293 H 610.345 3.44343 3.57409 0
M  V30 6294 H 605.601 4.84864 3.72447 0
M  V30 6295 H 609.775 5.83269 3.80487 0
M  V30 6296 H 607.402 6.5397 3.87591 0
M  V30 6297 N 608.977 -1.30795 0.87923 0
M  V30 6298 C 610.224 -1.96362 0.494786 0
M  V30 6299 C 610.552 -1.69448 -0.954868 0
M  V30 6300 O 609.807 -0.988711 -1.68888 0
M  V30 6301 C 610.106 -3.50287 0.709476 0
M  V30 6302 C 609.772 -3.9724 2.13333 0
M  V30 6303 C 608.434 -4.09772 2.52271 0
M  V30 6304 C 610.786 -4.21807 3.06151 0
M  V30 6305 C 608.114 -4.44227 3.83248 0
M  V30 6306 C 610.466 -4.5773 4.36654 0
M  V30 6307 C 609.13 -4.68469 4.75492 0
M  V30 6308 H 608.4 -0.71854 0.181055 0
M  V30 6309 H 611.047 -1.55764 1.11399 0
M  V30 6310 H 609.352 -3.91799 0.0072 0
M  V30 6311 H 611.049 -3.99082 0.391703 0
M  V30 6312 H 607.639 -3.87988 1.82107 0
M  V30 6313 H 611.823 -4.11611 2.77291 0
M  V30 6314 H 607.079 -4.50741 4.13089 0
M  V30 6315 H 611.253 -4.7569 5.08617 0
M  V30 6316 H 608.88 -4.94923 5.77022 0
M  V30 6317 N 610.455 -0.639598 -1.44038 0
M  V30 6318 C 611.385 0.0469443 -2.33453 0
M  V30 6319 C 612.366 0.82609 -1.48694 0
M  V30 6320 O 613.551 0.790285 -1.77393 0
M  V30 6321 C 610.681 1.02338 -3.3188 0
M  V30 6322 C 609.635 0.355284 -4.26523 0
M  V30 6323 C 608.961 1.44221 -5.14883 0
M  V30 6324 C 610.261 -0.743798 -5.16977 0
M  V30 6325 H 611.955 -0.699735 -2.91108 0
M  V30 6326 H 609.501 -0.337946 -1.39978 0
M  V30 6327 H 611.454 1.51247 -3.93322 0
M  V30 6328 H 610.178 1.80105 -2.72451 0
M  V30 6329 H 608.837 -0.113239 -3.66425 0
M  V30 6330 H 608.485 2.21097 -4.51802 0
M  V30 6331 H 608.185 1.00052 -5.79019 0
M  V30 6332 H 609.709 1.93295 -5.79197 0
M  V30 6333 H 611.123 -0.337444 -5.72306 0
M  V30 6334 H 609.52 -1.10914 -5.89761 0
M  V30 6335 H 610.59 -1.60745 -4.57481 0
M  V30 6336 N 611.933 1.52934 -0.380664 0
M  V30 6337 C 613.163 2.05587 0.204302 0
M  V30 6338 C 613.571 1.25288 1.41773 0
M  V30 6339 O 612.914 0.290394 1.8139 0
M  V30 6340 C 612.976 3.53624 0.647324 0
M  V30 6341 C 612.64 4.54765 -0.451465 0
M  V30 6342 C 613.637 5.03226 -1.30614 0
M  V30 6343 C 611.322 4.98508 -0.616025 0
M  V30 6344 C 613.316 5.94046 -2.31058 0
M  V30 6345 C 611.003 5.89131 -1.62381 0
M  V30 6346 C 612.001 6.36792 -2.46952 0
M  V30 6347 O 611.689 7.25626 -3.46009 0
M  V30 6348 H 611.421 0.675013 0.0365198 0
M  V30 6349 H 613.975 1.98125 -0.541827 0
M  V30 6350 H 612.205 3.58676 1.44529 0
M  V30 6351 H 613.894 3.89061 1.15698 0
M  V30 6352 H 614.66 4.70167 -1.19027 0
M  V30 6353 H 610.539 4.60989 0.0324987 0
M  V30 6354 H 614.083 6.3117 -2.97104 0
M  V30 6355 H 609.98 6.21603 -1.7401 0
M  V30 6356 H 610.748 7.43664 -3.41916 0
M  V30 6357 N 613.412 0.11024 1.57214 0
M  V30 6358 C 614.637 -0.561179 1.99664 0
M  V30 6359 C 615.062 -1.59985 0.989266 0
M  V30 6360 O 614.42 -1.81255 -0.0402399 0
M  V30 6361 C 614.468 -1.17189 3.41027 0
M  V30 6362 O 613.572 -2.28755 3.4314 0
M  V30 6363 H 612.913 -0.14101 0.648855 0
M  V30 6364 H 615.443 0.196128 2.03658 0
M  V30 6365 H 615.453 -1.50954 3.79047 0
M  V30 6366 H 614.128 -0.411041 4.13864 0
M  V30 6367 H 612.705 -1.96495 3.16929 0
M  V30 6368 N 614.89 -1.56749 -0.16351 0
M  V30 6369 C 615.837 -1.97011 -1.2023 0
M  V30 6370 C 616.807 -0.835186 -1.43575 0
M  V30 6371 O 617.992 -1.09594 -1.56185 0
M  V30 6372 C 615.132 -2.34186 -2.53478 0
M  V30 6373 C 614.245 -3.60893 -2.37446 0
M  V30 6374 C 613.38 -3.87245 -3.63614 0
M  V30 6375 C 612.419 -5.07274 -3.42548 0
M  V30 6376 N 611.556 -5.29719 -4.60806 0
M  V30 6377 H 616.396 -2.85562 -0.851958 0
M  V30 6378 H 613.933 -1.41292 -0.409257 0
M  V30 6379 H 615.891 -2.53764 -3.31149 0
M  V30 6380 H 614.521 -1.48736 -2.86492 0
M  V30 6381 H 613.573 -3.49185 -1.50911 0
M  V30 6382 H 614.885 -4.48722 -2.1783 0
M  V30 6383 H 614.039 -4.07232 -4.49719 0
M  V30 6384 H 612.778 -2.97806 -3.86216 0
M  V30 6385 H 611.783 -4.87177 -2.5483 0
M  V30 6386 H 613.008 -5.98251 -3.2136 0
M  V30 6387 H 610.954 -4.43233 -4.83612 0
M  V30 6388 H 610.871 -6.11786 -4.44132 0
M  V30 6389 H 612.139 -5.54192 -5.48171 0
M  V30 6390 N 616.368 0.432326 -1.51554 0
M  V30 6391 C 617.298 1.53242 -1.76179 0
M  V30 6392 C 618.279 1.58717 -0.611801 0
M  V30 6393 O 619.464 1.74364 -0.855033 0
M  V30 6394 C 616.594 2.91278 -1.89141 0
M  V30 6395 C 615.548 3.00663 -3.04608 0
M  V30 6396 C 614.874 4.40728 -3.02759 0
M  V30 6397 C 616.174 2.74281 -4.44485 0
M  V30 6398 H 617.868 1.32886 -2.68294 0
M  V30 6399 H 615.414 0.637841 -1.29103 0
M  V30 6400 H 617.367 3.68203 -2.04951 0
M  V30 6401 H 616.091 3.12877 -0.936785 0
M  V30 6402 H 614.75 2.26179 -2.88511 0
M  V30 6403 H 614.398 4.59301 -2.05065 0
M  V30 6404 H 614.098 4.47936 -3.80299 0
M  V30 6405 H 615.622 5.19619 -3.20669 0
M  V30 6406 H 617.036 3.40936 -4.60907 0
M  V30 6407 H 615.433 2.92893 -5.23769 0
M  V30 6408 H 616.503 1.69856 -4.54177 0
M  V30 6409 N 617.846 1.41785 0.688094 0
M  V30 6410 C 619.074 1.44915 1.47673 0
M  V30 6411 C 619.489 0.0565786 1.88715 0
M  V30 6412 O 618.846 -0.92579 1.57275 0
M  V30 6413 C 618.897 2.36452 2.73446 0
M  V30 6414 O 618.618 3.7029 2.34131 0
M  V30 6415 C 620.119 2.48463 3.67125 0
M  V30 6416 H 617.339 0.493324 0.454832 0
M  V30 6417 H 619.883 1.86153 0.846594 0
M  V30 6418 H 618.038 1.98502 3.3268 0
M  V30 6419 H 618.452 4.19183 3.15255 0
M  V30 6420 H 619.926 3.16662 4.52138 0
M  V30 6421 H 620.403 1.51826 4.12123 0
M  V30 6422 H 621.009 2.8708 3.13792 0
M  V30 6423 N 619.324 -0.923095 1.27737 0
M  V30 6424 C 620.57 -1.67375 1.14514 0
M  V30 6425 C 620.903 -1.91751 -0.307424 0
M  V30 6426 O 620.178 -1.51119 -1.22447 0
M  V30 6427 C 620.461 -3.03745 1.9342 0
M  V30 6428 C 620.314 -2.86581 3.46686 0
M  V30 6429 C 621.633 -4.04144 1.74228 0
M  V30 6430 H 618.752 -0.607427 0.417374 0
M  V30 6431 H 621.394 -1.07089 1.56946 0
M  V30 6432 H 619.544 -3.55204 1.5736 0
M  V30 6433 H 621.216 -2.42203 3.92601 0
M  V30 6434 H 619.459 -2.21829 3.72793 0
M  V30 6435 H 620.13 -3.83381 3.97143 0
M  V30 6436 H 622.606 -3.61712 2.05678 0
M  V30 6437 H 621.482 -4.97543 2.31824 0
M  V30 6438 H 621.743 -4.36661 0.691373 0
M  V30 6439 N 620.802 -1.09834 -1.13024 0
M  V30 6440 C 622.079 -0.749225 -1.80682 0
M  V30 6441 C 622.459 0.765171 -1.96744 0
M  V30 6442 O 621.807 1.68912 -1.53886 0
M  V30 6443 C 622.017 -1.49311 -3.15448 0
M  V30 6444 C 623.365 -1.66162 -3.90737 0
M  V30 6445 O 624.389 -1.45597 -3.25085 0
M  V30 6446 O 623.248 -2.00211 -5.08505 0
M  V30 6447 H 620.342 -0.269614 -0.781817 0
M  V30 6448 H 622.888 -1.20078 -1.19914 0
M  V30 6449 H 621.66 -2.52407 -2.99009 0
M  V30 6450 H 621.283 -1.034 -3.8392 0
M  V30 6451 N 622.28 1.30327 -0.886154 0
M  V30 6452 C 623.227 2.28099 -0.352069 0
M  V30 6453 C 624.197 1.56433 0.558397 0
M  V30 6454 O 625.382 1.84492 0.486561 0
M  V30 6455 C 622.522 3.42456 0.426346 0
M  V30 6456 C 621.635 4.28938 -0.513472 0
M  V30 6457 C 620.77 5.30458 0.280657 0
M  V30 6458 C 619.809 6.0859 -0.654556 0
M  V30 6459 N 618.946 7.02022 0.104322 0
M  V30 6460 H 623.786 2.73166 -1.19097 0
M  V30 6461 H 621.323 1.34367 -0.598662 0
M  V30 6462 H 623.281 4.07518 0.893587 0
M  V30 6463 H 621.911 2.98455 1.22981 0
M  V30 6464 H 620.963 3.64173 -1.09921 0
M  V30 6465 H 622.275 4.83399 -1.2299 0
M  V30 6466 H 621.429 6.01273 0.8097 0
M  V30 6467 H 620.168 4.76693 1.03029 0
M  V30 6468 H 619.173 5.36651 -1.19522 0
M  V30 6469 H 620.398 6.64443 -1.4033 0
M  V30 6470 H 618.344 6.50645 0.836472 0
M  V30 6471 H 618.261 7.53979 -0.552453 0
M  V30 6472 H 619.529 7.77077 0.614069 0
M  V30 6473 N 623.758 0.647228 1.43697 0
M  V30 6474 C 624.983 0.164083 2.0675 0
M  V30 6475 C 625.408 -1.15892 1.48158 0
M  V30 6476 O 624.766 -1.71459 0.589194 0
M  V30 6477 C 624.814 0.0800368 3.60511 0
M  V30 6478 O 623.918 -0.959453 4.01084 0
M  V30 6479 H 623.259 0.0921288 0.657578 0
M  V30 6480 H 625.789 0.88846 1.84303 0
M  V30 6481 H 625.799 -0.105263 4.07864 0
M  V30 6482 H 624.474 1.04586 4.02535 0
M  V30 6483 H 623.051 -0.747425 3.65333 0
M  V30 6484 N 625.236 -1.5273 0.388769 0
M  V30 6485 C 626.652 -1.59553 0.0387049 0
M  V30 6486 C 626.852 -1.40278 -1.44652 0
M  V30 6487 O 625.908 -1.21951 -2.21098 0
M  V30 6488 C 627.221 -2.9625 0.515409 0
M  V30 6489 C 628.769 -3.09426 0.471621 0
M  V30 6490 C 629.244 -4.48572 0.924505 0
M  V30 6491 N 630.735 -4.54754 0.880496 0
M  V30 6492 C 631.47 -5.60653 1.20234 0
M  V30 6493 N 630.966 -6.74198 1.59463 0
M  V30 6494 N 632.759 -5.50755 1.12363 0
M  V30 6495 H 624.91 -1.63508 1.35569 0
M  V30 6496 H 627.173 -0.768097 0.555636 0
M  V30 6497 H 626.879 -3.15569 1.5527 0
M  V30 6498 H 626.753 -3.77102 -0.085792 0
M  V30 6499 H 629.14 -2.89804 -0.556588 0
M  V30 6500 H 629.221 -2.30528 1.10862 0
M  V30 6501 H 628.865 -4.68936 1.95094 0
M  V30 6502 H 628.795 -5.25935 0.264524 0
M  V30 6503 H 631.286 -3.73237 0.591815 0
M  V30 6504 H 631.599 -7.5097 1.82385 0
M  V30 6505 H 629.944 -6.75531 1.63349 0
M  V30 6506 H 633.135 -4.6093 0.816169 0
M  V30 6507 H 633.308 -6.33184 1.37777 0
M  V30 6508 N 626.714 -0.118576 -1.57153 0
M  V30 6509 C 627.96 0.534078 -1.96263 0
M  V30 6510 C 628.315 1.64316 -1.0009 0
M  V30 6511 O 627.608 1.91575 -0.0308582 0
M  V30 6512 C 627.802 1.11303 -3.39627 0
M  V30 6513 C 627.631 0.0615624 -4.49658 0
M  V30 6514 C 626.401 -0.370103 -5.03943 0
M  V30 6515 C 628.599 -0.719249 -5.09246 0
M  V30 6516 N 626.581 -1.40738 -5.9755 0
M  V30 6517 C 627.952 -1.60774 -5.98792 0
M  V30 6518 C 630.007 -0.770183 -4.91907 0
M  V30 6519 C 628.71 -2.54272 -6.72858 0
M  V30 6520 C 630.736 -1.69288 -5.66653 0
M  V30 6521 C 630.098 -2.56894 -6.55885 0
M  V30 6522 H 626.197 0.165072 -0.764379 0
M  V30 6523 H 628.781 -0.206596 -1.93601 0
M  V30 6524 H 626.952 1.82342 -3.42937 0
M  V30 6525 H 628.684 1.72996 -3.65861 0
M  V30 6526 H 625.439 0.0222121 -4.73595 0
M  V30 6527 H 625.863 -1.92493 -6.49057 0
M  V30 6528 H 630.505 -0.106999 -4.22665 0
M  V30 6529 H 628.223 -3.21605 -7.41347 0
M  V30 6530 H 631.809 -1.73772 -5.55243 0
M  V30 6531 H 630.689 -3.27131 -7.1271 0
M  V30 6532 N 628.193 1.56834 0.155195 0
M  V30 6533 C 629.125 1.94235 1.21677 0
M  V30 6534 C 630.138 0.83724 1.39621 0
M  V30 6535 O 631.327 1.11567 1.39338 0
M  V30 6536 C 628.427 2.19402 2.58294 0
M  V30 6537 C 627.6 3.50671 2.61436 0
M  V30 6538 C 626.659 3.64475 3.79532 0
M  V30 6539 O 625.685 4.36945 3.64784 0
M  V30 6540 N 626.887 3.00526 4.96653 0
M  V30 6541 H 629.652 2.85901 0.898932 0
M  V30 6542 H 627.213 1.58185 0.34483 0
M  V30 6543 H 629.205 2.25886 3.35794 0
M  V30 6544 H 627.775 1.34042 2.82403 0
M  V30 6545 H 626.995 3.55702 1.69912 0
M  V30 6546 H 628.283 4.3702 2.60559 0
M  V30 6547 H 627.681 2.41549 5.11538 0
M  V30 6548 H 626.238 3.12583 5.71958 0
M  V30 6549 N 629.671 -0.424282 1.51781 0
M  V30 6550 C 630.603 -1.53457 1.70246 0
M  V30 6551 C 631.616 -1.52004 0.582967 0
M  V30 6552 O 632.805 -1.56544 0.857683 0
M  V30 6553 C 629.905 -2.92368 1.71389 0
M  V30 6554 C 629.078 -3.1818 3.00133 0
M  V30 6555 C 628.137 -4.36884 2.9329 0
M  V30 6556 O 627.163 -4.34901 3.67219 0
M  V30 6557 N 628.365 -5.4117 2.10036 0
M  V30 6558 H 631.13 -1.38017 2.66029 0
M  V30 6559 H 628.691 -0.613394 1.4983 0
M  V30 6560 H 630.683 -3.6982 1.64362 0
M  V30 6561 H 629.253 -3.0134 0.831449 0
M  V30 6562 H 628.473 -2.28908 3.20928 0
M  V30 6563 H 629.761 -3.32261 3.85331 0
M  V30 6564 H 629.159 -5.45623 1.49373 0
M  V30 6565 H 627.716 -6.17425 2.08878 0
M  V30 6566 N 631.149 -1.42148 -0.680565 0
M  V30 6567 C 632.397 -1.42029 -1.43779 0
M  V30 6568 C 632.718 -0.0356347 -1.94967 0
M  V30 6569 O 631.988 0.924936 -1.7269 0
M  V30 6570 H 630.568 -0.522835 -0.533529 0
M  V30 6571 H 633.23 -1.7752 -0.804538 0
M  V30 6572 H 632.326 -2.11658 -2.29363 0
M  V30 6573 N 632.627 0.916307 -1.28225 0
M  V30 6574 C 633.575 2.03977 -1.11786 0
M  V30 6575 C 634.569 1.69358 -0.0378265 0
M  V30 6576 O 635.775 1.78925 -0.196405 0
M  V30 6577 H 632.15 0.66829 -0.344809 0
M  V30 6578 H 634.121 2.14985 -2.06939 0
M  V30 6579 C 632.87 3.38518 -0.7938 0
M  V30 6580 H 632.193 3.65649 -1.61682 0
M  V30 6581 H 633.633 4.17864 -0.718719 0
M  V30 6582 C 632.092 3.33134 0.502353 0
M  V30 6583 O 632.622 3.71281 1.53341 0
M  V30 6584 N 630.828 2.86229 0.502147 0
M  V30 6585 H 630.375 2.55382 -0.337338 0
M  V30 6586 H 630.333 2.83009 1.36942 0
M  V30 6587 N 634.105 1.10431 1.1244 0
M  V30 6588 C 635.351 0.847972 1.84221 0
M  V30 6589 C 635.684 -0.624903 1.83871 0
M  V30 6590 O 634.959 -1.46074 1.28423 0
M  V30 6591 C 635.242 1.39695 3.319 0
M  V30 6592 C 635.095 2.93668 3.40704 0
M  V30 6593 C 636.414 1.03924 4.27654 0
M  V30 6594 H 633.533 0.309502 0.668863 0
M  V30 6595 H 636.175 1.36745 1.31912 0
M  V30 6596 H 634.325 0.955095 3.76577 0
M  V30 6597 H 635.997 3.46379 3.04662 0
M  V30 6598 H 634.24 3.30272 2.81252 0
M  V30 6599 H 634.911 3.27162 4.446 0
M  V30 6600 H 637.387 1.42049 3.91102 0
M  V30 6601 H 636.263 1.45027 5.29394 0
M  V30 6602 H 636.524 -0.051336 4.4207 0
M  V30 6603 N 635.583 -1.29855 0.893053 0
M  V30 6604 C 636.83 -1.95826 0.515585 0
M  V30 6605 C 637.158 -1.70451 -0.936842 0
M  V30 6606 O 636.413 -1.00657 -1.67829 0
M  V30 6607 C 636.712 -3.49515 0.746588 0
M  V30 6608 C 636.378 -3.94955 2.17535 0
M  V30 6609 C 635.04 -4.07073 2.56603 0
M  V30 6610 C 637.392 -4.18536 3.10607 0
M  V30 6611 C 634.72 -4.40138 3.87938 0
M  V30 6612 C 637.072 -4.53073 4.41484 0
M  V30 6613 C 635.736 -4.634 4.80434 0
M  V30 6614 H 635.006 -0.71658 0.188666 0
M  V30 6615 H 637.653 -1.54574 1.13045 0
M  V30 6616 H 635.958 -3.9177 0.0487551 0
M  V30 6617 H 637.655 -3.98644 0.434009 0
M  V30 6618 H 634.245 -3.86035 1.86212 0
M  V30 6619 H 638.429 -4.08646 2.81641 0
M  V30 6620 H 633.685 -4.46335 4.17846 0
M  V30 6621 H 637.859 -4.70269 5.13634 0
M  V30 6622 H 635.486 -4.88775 5.82239 0
M  V30 6623 N 637.061 -0.65484 -1.43351 0
M  V30 6624 C 638.286 -0.175046 -2.0666 0
M  V30 6625 C 638.711 1.15104 -1.4877 0
M  V30 6626 O 638.069 1.71144 -0.598279 0
M  V30 6627 C 638.117 -0.0991544 -3.60464 0
M  V30 6628 O 637.221 0.938169 -4.01587 0
M  V30 6629 H 636.562 -0.0956148 -0.65708 0
M  V30 6630 H 639.092 -0.898222 -1.83829 0
M  V30 6631 H 639.102 0.083632 -4.07914 0
M  V30 6632 H 637.777 -1.06719 -4.01975 0
M  V30 6633 H 636.354 0.72804 -3.65724 0
M  V30 6634 N 638.539 1.52521 -0.396863 0
M  V30 6635 C 639.779 2.03583 0.182578 0
M  V30 6636 C 640.143 1.2766 1.43412 0
M  V30 6637 O 641.344 1.68884 2.09121 0
M  V30 6638 C 639.615 3.54724 0.436519 0
M  V30 6639 S 641.174 4.27598 0.985163 0
M  V30 6640 H 637.992 0.709186 0.0507529 0
M  V30 6641 H 640.594 1.87693 -0.546955 0
M  V30 6642 H 639.298 4.07567 -0.481343 0
M  V30 6643 H 638.829 3.74834 1.19427 0
M  V30 6644 H 640.844 4.41393 2.26686 0
M  V30 6645 N 640.017 0.126909 1.57088 0
M  V30 6646 C 641.242 -0.53997 2.00248 0
M  V30 6647 C 641.667 -1.58927 1.00618 0
M  V30 6648 O 641.025 -1.81288 -0.0210131 0
M  V30 6649 C 641.073 -1.13565 3.4225 0
M  V30 6650 O 640.177 -2.25103 3.45547 0
M  V30 6651 H 639.518 -0.13412 0.650314 0
M  V30 6652 H 642.048 0.217718 2.03438 0
M  V30 6653 H 642.058 -1.46925 3.80627 0
M  V30 6654 H 640.733 -0.367122 4.14277 0
M  V30 6655 H 639.31 -1.93123 3.18995 0
M  V30 6656 N 641.495 -1.56914 -0.146875 0
M  V30 6657 C 642.741 -1.83628 -0.860741 0
M  V30 6658 C 643.074 -0.708528 -1.80813 0
M  V30 6659 O 642.349 0.287838 -1.92358 0
M  V30 6660 C 642.632 -3.20836 -1.63511 0
M  V30 6661 C 642.485 -4.44174 -0.709199 0
M  V30 6662 C 643.804 -3.55268 -2.59756 0
M  V30 6663 H 640.923 -0.667949 -0.311468 0
M  V30 6664 H 643.565 -1.89582 -0.125936 0
M  V30 6665 H 641.715 -3.15891 -2.26153 0
M  V30 6666 H 643.387 -4.61205 -0.0937781 0
M  V30 6667 H 641.63 -4.33796 -0.0187856 0
M  V30 6668 H 642.301 -5.36785 -1.28707 0
M  V30 6669 H 644.777 -3.60824 -2.07232 0
M  V30 6670 H 643.653 -4.52303 -3.10987 0
M  V30 6671 H 643.914 -2.81231 -3.41118 0
M  V30 6672 N 642.974 0.416227 -1.52004 0
M  V30 6673 C 643.907 1.52736 -1.6955 0
M  V30 6674 C 644.885 1.53264 -0.54305 0
M  V30 6675 O 646.069 1.72077 -0.769527 0
M  V30 6676 C 643.196 2.91283 -1.72835 0
M  V30 6677 C 642.242 3.08695 -2.94295 0
M  V30 6678 S 643.075 2.82758 -4.54762 0
M  V30 6679 C 644.231 4.23548 -4.60823 0
M  V30 6680 H 644.464 1.37623 -2.63528 0
M  V30 6681 H 641.997 0.607335 -1.41954 0
M  V30 6682 H 643.955 3.71134 -1.75413 0
M  V30 6683 H 642.616 3.03742 -0.799966 0
M  V30 6684 H 641.809 4.10042 -2.93056 0
M  V30 6685 H 641.411 2.36699 -2.89568 0
M  V30 6686 H 643.703 5.17078 -4.37763 0
M  V30 6687 H 644.646 4.29813 -5.62731 0
M  V30 6688 H 645.054 4.08188 -3.89927 0
M  V30 6689 N 644.452 1.42507 0.673017 0
M  V30 6690 C 645.402 1.4258 1.77919 0
M  V30 6691 C 646.386 0.296885 1.58137 0
M  V30 6692 O 647.578 0.539243 1.68586 0
M  V30 6693 C 644.707 1.33238 3.1639 0
M  V30 6694 C 643.793 2.51081 3.41788 0
M  V30 6695 N 644.184 3.76498 3.37761 0
M  V30 6696 C 642.482 2.4538 3.72431 0
M  V30 6697 C 643.183 4.54784 3.62693 0
M  V30 6698 N 642.159 3.8522 3.83544 0
M  V30 6699 H 645.961 2.37442 1.73201 0
M  V30 6700 H 643.475 1.36881 0.873924 0
M  V30 6701 H 645.472 1.31372 3.9566 0
M  V30 6702 H 644.132 0.393794 3.22303 0
M  V30 6703 H 645.143 4.09068 3.17622 0
M  V30 6704 H 641.82 1.60109 3.85579 0
M  V30 6705 H 643.21 5.63774 3.65525 0
M  V30 6706 N 645.93 -0.909495 1.28709 0
M  V30 6707 C 646.84 -2.04558 1.14861 0
M  V30 6708 C 647.856 -1.73842 0.0741621 0
M  V30 6709 O 649.032 -1.99383 0.2843 0
M  V30 6710 C 646.097 -3.36957 0.816148 0
M  V30 6711 C 645.158 -3.81255 1.97341 0
M  V30 6712 C 644.391 -5.07335 1.65671 0
M  V30 6713 O 644.614 -5.67514 0.573053 0
M  V30 6714 O 643.548 -5.47449 2.50167 0
M  V30 6715 H 647.374 -2.19161 2.10243 0
M  V30 6716 H 644.959 -1.03159 1.08068 0
M  V30 6717 H 646.841 -4.16436 0.644873 0
M  V30 6718 H 645.516 -3.2352 -0.107983 0
M  V30 6719 H 644.423 -3.02584 2.19986 0
M  V30 6720 H 645.756 -3.99261 2.87839 0
M  V30 6721 N 647.408 -1.11026 -1.11852 0
M  V30 6722 C 648.371 -0.768006 -2.1595 0
M  V30 6723 C 649.371 0.210538 -1.59416 0
M  V30 6724 O 650.561 -0.0133978 -1.74195 0
M  V30 6725 C 647.693 -0.138678 -3.40618 0
M  V30 6726 H 648.886 -1.69012 -2.4774 0
M  V30 6727 H 646.439 -0.911578 -1.26964 0
M  V30 6728 H 647.174 0.793872 -3.14433 0
M  V30 6729 H 646.959 -0.843012 -3.8293 0
M  V30 6730 H 648.449 0.0848039 -4.17514 0
M  V30 6731 N 648.886 1.2938 -0.899927 0
M  V30 6732 C 649.816 2.30144 -0.39446 0
M  V30 6733 C 650.797 1.61611 0.530639 0
M  V30 6734 O 651.982 1.89119 0.441319 0
M  V30 6735 C 649.112 3.45229 0.37868 0
M  V30 6736 C 648.066 4.25564 -0.456012 0
M  V30 6737 C 647.392 5.32848 0.444637 0
M  V30 6738 C 648.692 4.93651 -1.70605 0
M  V30 6739 H 650.386 2.72673 -1.23653 0
M  V30 6740 H 647.932 1.31086 -0.596034 0
M  V30 6741 H 649.885 4.14797 0.743037 0
M  V30 6742 H 648.609 3.01545 1.25453 0
M  V30 6743 H 647.268 3.57704 -0.802704 0
M  V30 6744 H 646.916 4.85408 1.31863 0
M  V30 6745 H 646.616 5.87497 -0.110154 0
M  V30 6746 H 648.14 6.05268 0.805182 0
M  V30 6747 H 649.554 5.55655 -1.41141 0
M  V30 6748 H 647.951 5.58233 -2.20217 0
M  V30 6749 H 649.021 4.18926 -2.4419 0
M  V30 6750 N 650.364 0.662433 1.43002 0
M  V30 6751 C 651.314 -0.0460442 2.27954 0
M  V30 6752 C 652.298 -0.785753 1.40409 0
M  V30 6753 O 653.49 -0.666701 1.63964 0
M  V30 6754 C 650.619 -1.00532 3.2825 0
M  V30 6755 C 649.705 -0.263604 4.2328 0
M  V30 6756 N 650.096 0.724855 5.00579 0
M  V30 6757 C 648.394 -0.503778 4.43146 0
M  V30 6758 C 649.095 1.16594 5.69895 0
M  V30 6759 N 648.071 0.498345 5.41311 0
M  V30 6760 H 651.873 0.712314 2.85137 0
M  V30 6761 H 649.387 0.490469 1.54817 0
M  V30 6762 H 651.384 -1.52775 3.87899 0
M  V30 6763 H 650.044 -1.76364 2.72628 0
M  V30 6764 H 651.055 1.10393 5.05998 0
M  V30 6765 H 647.732 -1.24255 3.98581 0
M  V30 6766 H 649.122 1.98434 6.4193 0
M  V30 6767 N 651.842 -1.52309 0.404946 0
M  V30 6768 C 652.79 -2.28452 -0.437321 0
M  V30 6769 C 653.784 -1.32975 -1.04948 0
M  V30 6770 O 654.99 -1.50451 -0.988159 0
M  V30 6771 H 651.365 -0.734824 -0.159805 0
M  V30 6772 H 653.336 -2.97542 0.22615 0
M  V30 6773 C 652.085 -3.11536 -1.54404 0
M  V30 6774 H 651.408 -3.84871 -1.08233 0
M  V30 6775 H 652.848 -3.67926 -2.10729 0
M  V30 6776 C 651.307 -2.24833 -2.50902 0
M  V30 6777 O 651.837 -1.88574 -3.54687 0
M  V30 6778 N 650.043 -1.88685 -2.21012 0
M  V30 6779 H 649.59 -2.18371 -1.36646 0
M  V30 6780 H 649.548 -1.30966 -2.85824 0
M  V30 6781 N 653.32 -0.135238 -1.57019 0
M  V30 6782 C 654.27 0.820408 -2.12728 0
M  V30 6783 C 655.254 1.21735 -1.05211 0
M  V30 6784 O 656.446 1.18574 -1.31413 0
M  V30 6785 C 653.575 2.06414 -2.74314 0
M  V30 6786 C 652.661 1.69083 -3.88937 0
M  V30 6787 N 653.052 1.0251 -4.95303 0
M  V30 6788 C 651.35 1.98434 -3.99425 0
M  V30 6789 C 652.051 0.846749 -5.75504 0
M  V30 6790 N 651.027 1.3769 -5.25873 0
M  V30 6791 H 654.829 0.302426 -2.9234 0
M  V30 6792 H 652.343 0.0667009 -1.62263 0
M  V30 6793 H 654.34 2.75863 -3.12579 0
M  V30 6794 H 653 2.58741 -1.96171 0
M  V30 6795 H 654.011 0.687207 -5.1332 0
M  V30 6796 H 650.688 2.52693 -3.32344 0
M  V30 6797 H 652.078 0.322949 -6.71123 0
M  V30 6798 N 654.798 1.5699 0.138552 0
M  V30 6799 C 656.028 1.87704 0.863184 0
M  V30 6800 C 656.436 0.722411 1.74865 0
M  V30 6801 O 655.779 -0.316636 1.80951 0
M  V30 6802 C 655.841 3.13219 1.76449 0
M  V30 6803 C 655.505 4.44648 1.05532 0
M  V30 6804 C 656.502 5.18318 0.405252 0
M  V30 6805 C 654.187 4.91367 1.04231 0
M  V30 6806 C 656.181 6.36916 -0.24835 0
M  V30 6807 C 653.868 6.09887 0.384904 0
M  V30 6808 C 654.866 6.82508 -0.259292 0
M  V30 6809 O 654.554 7.98775 -0.906258 0
M  V30 6810 H 654.286 0.626255 0.254521 0
M  V30 6811 H 656.84 2.04966 0.133472 0
M  V30 6812 H 655.07 2.91988 2.53535 0
M  V30 6813 H 656.759 3.30111 2.36181 0
M  V30 6814 H 657.525 4.83289 0.407053 0
M  V30 6815 H 653.404 4.34759 1.53315 0
M  V30 6816 H 656.948 6.93538 -0.751755 0
M  V30 6817 H 652.845 6.44376 0.380799 0
M  V30 6818 H 653.613 8.14494 -0.80877 0
M  V30 6819 N 656.276 -0.40816 1.52223 0
M  V30 6820 C 657.504 -1.17672 1.70179 0
M  V30 6821 C 657.919 -1.84257 0.411696 0
M  V30 6822 O 657.276 -1.7192 -0.612354 0
M  V30 6823 C 657.327 -2.23911 2.83806 0
M  V30 6824 O 657.048 -1.60044 4.0782 0
M  V30 6825 C 658.549 -3.1364 3.13281 0
M  V30 6826 H 655.769 -0.353562 0.570293 0
M  V30 6827 H 658.313 -0.480083 1.98785 0
M  V30 6828 H 656.468 -2.89242 2.57717 0
M  V30 6829 H 656.882 -2.30484 4.71145 0
M  V30 6830 H 658.356 -3.84255 3.96298 0
M  V30 6831 H 658.833 -3.76066 2.26872 0
M  V30 6832 H 659.439 -2.53977 3.41139 0
M  V30 6833 N 657.755 -1.42862 -0.66545 0
M  V30 6834 C 658.687 -1.43026 -1.79098 0
M  V30 6835 C 659.7 -0.32803 -1.59461 0
M  V30 6836 O 660.889 -0.591709 -1.68407 0
M  V30 6837 C 657.989 -1.21566 -3.16346 0
M  V30 6838 C 657.162 -2.44399 -3.62751 0
M  V30 6839 C 656.221 -2.18344 -4.78761 0
M  V30 6840 O 655.247 -2.91611 -4.88827 0
M  V30 6841 N 656.449 -1.1924 -5.68122 0
M  V30 6842 H 659.214 -2.40045 -1.79439 0
M  V30 6843 H 656.775 -1.37861 -0.848872 0
M  V30 6844 H 658.767 -1.02037 -3.91625 0
M  V30 6845 H 657.337 -0.330368 -3.10849 0
M  V30 6846 H 656.557 -2.79433 -2.78048 0
M  V30 6847 H 657.845 -3.26173 -3.90498 0
M  V30 6848 H 657.243 -0.586603 -5.6265 0
M  V30 6849 H 655.8 -1.05698 -6.43173 0
M  V30 6850 N 659.233 0.902656 -1.29189 0
M  V30 6851 C 660.18 2.00643 -1.14066 0
M  V30 6852 C 661.15 1.66064 -0.0347756 0
M  V30 6853 O 662.335 1.8973 -0.201752 0
M  V30 6854 C 659.475 3.35214 -0.820104 0
M  V30 6855 C 658.588 3.82594 -2.00614 0
M  V30 6856 C 657.723 5.05727 -1.62522 0
M  V30 6857 C 656.762 5.45469 -2.77724 0
M  V30 6858 N 655.899 6.59789 -2.40048 0
M  V30 6859 H 660.739 2.1291 -2.08502 0
M  V30 6860 H 658.276 1.04271 -1.03759 0
M  V30 6861 H 660.234 4.12643 -0.614949 0
M  V30 6862 H 658.864 3.22682 0.0873452 0
M  V30 6863 H 657.916 3.01226 -2.32308 0
M  V30 6864 H 659.228 4.07999 -2.86946 0
M  V30 6865 H 658.382 5.90732 -1.38277 0
M  V30 6866 H 657.121 4.82155 -0.733333 0
M  V30 6867 H 656.126 4.59 -3.02653 0
M  V30 6868 H 657.351 5.71024 -3.67572 0
M  V30 6869 H 655.297 6.37826 -1.53343 0
M  V30 6870 H 655.214 6.84975 -3.19914 0
M  V30 6871 H 656.482 7.4807 -2.19116 0
M  V30 6872 N 660.711 1.11618 1.11262 0
M  V30 6873 C 661.936 0.889013 1.8738 0
M  V30 6874 C 662.361 -0.555884 1.79698 0
M  V30 6875 O 661.719 -1.39272 1.16073 0
M  V30 6876 C 661.767 1.35759 3.34069 0
M  V30 6877 O 660.871 0.530499 4.08974 0
M  V30 6878 H 660.212 0.320082 0.581759 0
M  V30 6879 H 662.742 1.48611 1.40627 0
M  V30 6880 H 662.752 1.35291 3.84916 0
M  V30 6881 H 661.427 2.40973 3.38976 0
M  V30 6882 H 660.004 0.601439 3.68018 0
M  V30 6883 N 662.189 -1.289 0.906776 0
M  V30 6884 C 663.119 -2.29932 0.406659 0
M  V30 6885 C 664.1 -1.6189 -0.522061 0
M  V30 6886 O 665.285 -1.8935 -0.431283 0
M  V30 6887 C 662.415 -3.45425 -0.360366 0
M  V30 6888 C 661.369 -4.25316 0.478574 0
M  V30 6889 C 660.695 -5.33076 -0.416373 0
M  V30 6890 C 661.995 -4.92739 1.7322 0
M  V30 6891 H 663.689 -2.72013 1.25097 0
M  V30 6892 H 661.235 -1.30768 0.602977 0
M  V30 6893 H 663.188 -4.15186 -0.721029 0
M  V30 6894 H 661.912 -3.02206 -1.23852 0
M  V30 6895 H 660.571 -3.57273 0.821662 0
M  V30 6896 H 660.219 -4.86101 -1.29287 0
M  V30 6897 H 659.919 -5.8743 0.141309 0
M  V30 6898 H 661.443 -6.05686 -0.773072 0
M  V30 6899 H 662.857 -5.54898 1.44086 0
M  V30 6900 H 661.254 -5.57057 2.23175 0
M  V30 6901 H 662.324 -4.17625 2.46408 0
M  V30 6902 N 663.667 -0.670007 -1.42649 0
M  V30 6903 C 664.892 -0.196955 -2.06463 0
M  V30 6904 C 665.317 1.1352 -1.49983 0
M  V30 6905 O 664.675 1.705 -0.616397 0
M  V30 6906 C 664.723 -0.137381 -3.60338 0
M  V30 6907 O 663.827 0.895523 -4.02559 0
M  V30 6908 H 663.168 -0.102579 -0.656029 0
M  V30 6909 H 665.698 -0.917669 -1.82866 0
M  V30 6910 H 665.708 0.0403625 -4.0798 0
M  V30 6911 H 664.383 -1.10977 -4.0082 0
M  V30 6912 H 662.96 0.689209 -3.66476 0
M  V30 6913 N 665.145 1.52092 -0.413018 0
M  V30 6914 C 666.075 2.30021 0.401567 0
M  V30 6915 C 667.056 1.34395 1.04269 0
M  V30 6916 O 668.241 1.63304 1.05097 0
M  V30 6917 C 665.371 3.12447 1.51638 0
M  V30 6918 C 664.325 4.16153 1.00005 0
M  V30 6919 C 663.651 4.86948 2.20875 0
M  V30 6920 C 664.951 5.22275 0.0513757 0
M  V30 6921 H 666.645 2.98365 -0.248704 0
M  V30 6922 H 664.191 1.4349 -0.121052 0
M  V30 6923 H 666.144 3.65733 2.09326 0
M  V30 6924 H 664.868 2.41879 2.19458 0
M  V30 6925 H 663.527 3.63882 0.445549 0
M  V30 6926 H 663.175 4.12905 2.8726 0
M  V30 6927 H 662.875 5.57057 1.86978 0
M  V30 6928 H 664.399 5.43048 2.79162 0
M  V30 6929 H 665.813 5.70778 0.537176 0
M  V30 6930 H 664.21 5.9977 -0.198977 0
M  V30 6931 H 665.28 4.76611 -0.892736 0
M  V30 6932 N 666.623 0.143563 1.56945 0
M  V30 6933 C 667.848 -0.518701 2.00809 0
M  V30 6934 C 668.273 -1.5785 1.02298 0
M  V30 6935 O 667.631 -1.813 -0.0017839 0
M  V30 6936 C 667.679 -1.09929 3.43436 0
M  V30 6937 O 666.783 -2.21425 3.47915 0
M  V30 6938 H 666.124 -0.127215 0.6517 0
M  V30 6939 H 668.654 0.239283 2.03196 0
M  V30 6940 H 668.664 -1.4288 3.82164 0
M  V30 6941 H 667.339 -0.323162 4.14643 0
M  V30 6942 H 665.916 -1.89728 3.21026 0
M  V30 6943 N 668.101 -1.57061 -0.130224 0
M  V30 6944 C 669.512 -1.73539 -0.68856 0
M  V30 6945 C 669.863 -0.760554 -1.80859 0
M  V30 6946 O 668.988 0.0690796 -2.1629 0
M  V30 6947 C 669.583 -3.14666 -1.25581 0
M  V30 6948 C 668.142 -3.32689 -1.76055 0
M  V30 6949 C 667.289 -2.69436 -0.655712 0
M  V30 6950 H 670.24 -1.58412 0.0956002 0
M  V30 6951 H 670.261 -3.15595 -2.12556 0
M  V30 6952 H 669.773 -3.85593 -0.440412 0
M  V30 6953 H 667.874 -2.66786 -2.60108 0
M  V30 6954 H 667.987 -4.4077 -1.87772 0
M  V30 6955 H 666.351 -2.30362 -1.08654 0
M  V30 6956 H 667.134 -3.42979 0.14852 0
M  V30 6957 N 669.579 0.400081 -1.52437 0
M  V30 6958 C 670.827 1.14392 -1.6661 0
M  V30 6959 C 671.148 1.90792 -0.402927 0
M  V30 6960 O 670.418 1.87042 0.582425 0
M  V30 6961 H 668.998 0.425275 -0.614125 0
M  V30 6962 H 671.66 0.455076 -1.89513 0
M  V30 6963 H 670.756 1.85298 -2.51139 0
M  V30 6964 N 671.057 1.43213 0.657864 0
M  V30 6965 C 672.004 1.48011 1.77092 0
M  V30 6966 C 672.974 0.330291 1.62783 0
M  V30 6967 O 674.159 0.536787 1.83094 0
M  V30 6968 C 671.299 1.40461 3.15222 0
M  V30 6969 C 670.412 2.65612 3.40697 0
M  V30 6970 C 669.547 2.50083 4.68649 0
M  V30 6971 C 668.586 3.70525 4.87214 0
M  V30 6972 N 667.723 3.53835 6.0642 0
M  V30 6973 H 672.563 2.43121 1.72326 0
M  V30 6974 H 670.1 1.20687 0.841013 0
M  V30 6975 H 672.058 1.34079 3.95068 0
M  V30 6976 H 670.688 0.489359 3.19069 0
M  V30 6977 H 669.74 2.82292 2.54982 0
M  V30 6978 H 671.052 3.5509 3.50303 0
M  V30 6979 H 670.206 2.41383 5.56614 0
M  V30 6980 H 668.945 1.58121 4.61356 0
M  V30 6981 H 667.95 3.79639 3.97686 0
M  V30 6982 H 669.175 4.63489 4.96341 0
M  V30 6983 H 667.121 2.64604 6.00267 0
M  V30 6984 H 667.038 4.36912 6.16963 0
M  V30 6985 H 668.306 3.48978 6.97019 0
M  V30 6986 O 672.574 -0.8008 1.40248 0
M  V30 6987 H 673.265 -1.44601 1.28881 0
M  V30 END ATOM
M  V30 BEGIN BOND
M  V30 END BOND
M  V30 END CTAB
M  END
$$$$
