drugbank_target|P11021 78 kDa glucose-regulated protein (DB00025; DB00945; DB09130; DB13998; DB13999)
 OpenBabel12092119473D

  0  0  0     0  0            999 V3000
M  V30 BEGIN CTAB
M  V30 COUNTS 10217 10289 0 0 0
M  V30 BEGIN ATOM
M  V30 1 H -0.908 1.98254 -0.117106 0
M  V30 2 N 0 1.576 0 0
M  V30 3 C 0.933 2.03868 1.02534 0
M  V30 4 C 1.911 0.928543 1.3348 0
M  V30 5 O 3.095 1.19667 1.45644 0
M  V30 6 C 0.222 2.43627 2.35294 0
M  V30 7 C -0.732 3.65373 2.2001 0
M  V30 8 S 0.101 5.13292 1.52614 0
M  V30 9 C 1.257 5.56322 2.86805 0
M  V30 10 H 1.49 2.90518 0.631377 0
M  V30 11 H -0.977 1.52953 0.210867 0
M  V30 12 H 0.981 2.67203 3.11629 0
M  V30 13 H -0.358 1.57376 2.7183 0
M  V30 14 H -1.165 3.90944 3.18086 0
M  V30 15 H -1.563 3.418 1.51819 0
M  V30 16 H 0.729 5.58782 3.83104 0
M  V30 17 H 1.672 6.56266 2.65933 0
M  V30 18 H 2.08 4.83886 2.90714 0
M  V30 19 N 1.4781 -0.272755 1.55222 0
M  V30 20 C 2.4251 -1.33716 1.88119 0
M  V30 21 C 3.3951 -1.49066 0.73271 0
M  V30 22 O 4.5801 -1.63469 0.984002 0
M  V30 23 C 1.7201 -2.69238 2.15882 0
M  V30 24 C 0.8331 -2.62108 3.43399 0
M  V30 25 C -0.0319 -3.89811 3.60861 0
M  V30 26 C -0.9929 -3.77193 4.8207 0
M  V30 27 N -1.8559 -4.9673 4.96189 0
M  V30 28 H 2.9841 -1.04962 2.78903 0
M  V30 29 H 0.5211 -0.507088 1.38083 0
M  V30 30 H 2.4791 -3.48089 2.29978 0
M  V30 31 H 1.1091 -2.96194 1.28331 0
M  V30 32 H 0.1611 -1.74967 3.37773 0
M  V30 33 H 1.4731 -2.48685 4.32386 0
M  V30 34 H 0.6271 -4.77103 3.74777 0
M  V30 35 H -0.6339 -4.06102 2.7006 0
M  V30 36 H -1.6289 -2.88284 4.68159 0
M  V30 37 H -0.4039 -3.62421 5.74307 0
M  V30 38 H -2.4579 -5.13431 4.08319 0
M  V30 39 H -2.5409 -4.85839 5.79221 0
M  V30 40 H -1.2729 -5.85594 5.1449 0
M  V30 41 N 2.9562 -1.48159 -0.537278 0
M  V30 42 C 3.8862 -1.65029 -1.6519 0
M  V30 43 C 4.8672 -0.499281 -1.62607 0
M  V30 44 O 6.0522 -0.730972 -1.79918 0
M  V30 45 C 3.1822 -1.68303 -3.03795 0
M  V30 46 C 2.1362 -2.8283 -3.21234 0
M  V30 47 C 1.4622 -2.71189 -4.60826 0
M  V30 48 C 2.7622 -4.24211 -3.04701 0
M  V30 49 H 4.4562 -2.58341 -1.51328 0
M  V30 50 H 2.0022 -1.24325 -0.726585 0
M  V30 51 H 3.9552 -1.78693 -3.81637 0
M  V30 52 H 2.6792 -0.715635 -3.18663 0
M  V30 53 H 1.3382 -2.71983 -2.45807 0
M  V30 54 H 0.9862 -1.72435 -4.7252 0
M  V30 55 H 0.6862 -3.48035 -4.7344 0
M  V30 56 H 2.2102 -2.83537 -5.40777 0
M  V30 57 H 3.6242 -4.3593 -3.72341 0
M  V30 58 H 2.0212 -5.01998 -3.28813 0
M  V30 59 H 3.0912 -4.41184 -2.01209 0
M  V30 60 N 4.4343 0.785586 -1.36625 0
M  V30 61 C 5.6593 1.57963 -1.34397 0
M  V30 62 C 6.0843 1.87964 0.071526 0
M  V30 63 O 5.4423 1.48182 1.0446 0
M  V30 64 C 5.4903 2.87511 -2.17646 0
M  V30 65 O 4.5943 3.81281 -1.57158 0
M  V30 66 H 3.9353 0.479014 -0.459828 0
M  V30 67 H 6.4653 0.973411 -1.79961 0
M  V30 68 H 6.4753 3.36745 -2.30362 0
M  V30 69 H 5.1503 2.65002 -3.20541 0
M  V30 70 H 3.7273 3.39885 -1.53403 0
M  V30 71 N 5.9124 1.20967 1.01018 0
M  V30 72 C 6.8424 0.988272 2.11555 0
M  V30 73 C 7.8234 -0.0849778 1.69888 0
M  V30 74 O 9.0084 0.0738202 1.9406 0
M  V30 75 C 6.1384 0.546528 3.42973 0
M  V30 76 C 5.0924 1.56375 3.9841 0
M  V30 77 C 4.4184 0.97842 5.25672 0
M  V30 78 C 5.7184 2.94922 4.31066 0
M  V30 79 H 7.4124 1.91276 2.30334 0
M  V30 80 H 4.9584 0.921073 1.1069 0
M  V30 81 H 6.9114 0.378839 4.19694 0
M  V30 82 H 5.6354 -0.413598 3.23971 0
M  V30 83 H 4.2944 1.71891 3.23804 0
M  V30 84 H 3.9424 0.0101688 5.02999 0
M  V30 85 H 3.6424 1.65784 5.63728 0
M  V30 86 H 5.1664 0.821939 6.05043 0
M  V30 87 H 6.5804 2.8288 4.9865 0
M  V30 88 H 4.9774 3.5983 4.80253 0
M  V30 89 H 6.0474 3.4616 3.39561 0
M  V30 90 N 7.3905 -1.2043 1.01659 0
M  V30 91 C 8.6365 -1.90079 0.706963 0
M  V30 92 C 8.9695 -1.78648 -0.761474 0
M  V30 93 O 8.2445 -1.17069 -1.55323 0
M  V30 94 C 8.5275 -3.41469 1.14327 0
M  V30 95 C 8.3805 -3.61833 2.67201 0
M  V30 96 C 9.6995 -4.34261 0.714529 0
M  V30 97 H 6.8185 -0.690254 0.2583 0
M  V30 98 H 9.4605 -1.41826 1.26433 0
M  V30 99 H 7.6105 -3.82696 0.669056 0
M  V30 100 H 9.2825 -3.2986 3.22475 0
M  V30 101 H 7.5255 -3.05304 3.08175 0
M  V30 102 H 8.1965 -4.67955 2.92783 0
M  V30 103 H 10.6725 -4.00682 1.12221 0
M  V30 104 H 9.5485 -5.38806 1.04784 0
M  V30 105 H 9.8095 -4.40431 -0.383799 0
M  V30 106 N 8.8686 -0.792821 -1.36206 0
M  V30 107 C 9.8316 -0.199459 -2.2833 0
M  V30 108 C 10.8316 0.605189 -1.48977 0
M  V30 109 O 12.0216 0.425685 -1.68919 0
M  V30 110 C 9.1536 0.723523 -3.33134 0
M  V30 111 H 10.3466 -1.01181 -2.82316 0
M  V30 112 H 7.8996 -0.562485 -1.45828 0
M  V30 113 H 8.6346 1.56008 -2.84309 0
M  V30 114 H 8.4196 0.148436 -3.91819 0
M  V30 115 H 9.9096 1.13344 -4.01924 0
M  V30 116 N 10.3467 1.47872 -0.545128 0
M  V30 117 C 11.3097 2.28337 0.198717 0
M  V30 118 C 12.3097 1.36255 0.853888 0
M  V30 119 O 13.4997 1.59003 0.711606 0
M  V30 120 C 10.6317 3.15585 1.28915 0
M  V30 121 H 11.8247 2.95567 -0.507941 0
M  V30 122 H 9.3777 1.53362 -0.301616 0
M  V30 123 H 10.1127 2.53019 2.02859 0
M  V30 124 H 9.8977 3.83337 0.824309 0
M  V30 125 H 11.3877 3.76243 1.81194 0
M  V30 126 N 11.8248 0.280983 1.55075 0
M  V30 127 C 12.7578 -0.645439 2.18882 0
M  V30 128 C 13.7358 -1.14786 1.15165 0
M  V30 129 O 14.9198 -1.21975 1.43716 0
M  V30 130 C 12.0468 -1.88088 2.81674 0
M  V30 131 C 11.0928 -1.51343 3.98745 0
M  V30 132 S 11.9258 -0.586548 5.32278 0
M  V30 133 C 13.0818 -1.83024 5.98543 0
M  V30 134 H 13.3148 -0.1033 2.9712 0
M  V30 135 H 10.8478 0.0652099 1.54262 0
M  V30 136 H 12.8058 -2.58997 3.18482 0
M  V30 137 H 11.4668 -2.39417 2.03318 0
M  V30 138 H 10.6598 -2.43289 4.41392 0
M  V30 139 H 10.2618 -0.884477 3.63391 0
M  V30 140 H 12.5538 -2.77342 6.18133 0
M  V30 141 H 13.4968 -1.44668 6.93164 0
M  V30 142 H 13.9048 -1.99785 5.27964 0
M  V30 143 N 13.3029 -1.57598 0.00835791 0
M  V30 144 C 14.2329 -2.1198 -0.979113 0
M  V30 145 C 15.2139 -1.03091 -1.35301 0
M  V30 146 O 16.3989 -1.30818 -1.43528 0
M  V30 147 C 13.5289 -2.62995 -2.26828 0
M  V30 148 C 12.4829 -3.76485 -2.03576 0
M  V30 149 C 11.8089 -4.13846 -3.38579 0
M  V30 150 C 13.1089 -5.0342 -1.39161 0
M  V30 151 H 14.8029 -2.94738 -0.526281 0
M  V30 152 H 12.3489 -1.41783 -0.251704 0
M  V30 153 H 14.3019 -2.99669 -2.96271 0
M  V30 154 H 13.0259 -1.7737 -2.7424 0
M  V30 155 H 11.6849 -3.40217 -1.36557 0
M  V30 156 H 11.3329 -3.25232 -3.83709 0
M  V30 157 H 11.0329 -4.90312 -3.23834 0
M  V30 158 H 12.5569 -4.53086 -4.09323 0
M  V30 159 H 13.9709 -5.37812 -1.98573 0
M  V30 160 H 12.3679 -5.84746 -1.34878 0
M  V30 161 H 13.4379 -4.83548 -0.361868 0
M  V30 162 N 14.781 0.264519 -1.55364 0
M  V30 163 C 15.711 1.33121 -1.91836 0
M  V30 164 C 16.692 1.51101 -0.781192 0
M  V30 165 O 17.877 1.64003 -1.04003 0
M  V30 166 C 15.007 2.68921 -2.19769 0
M  V30 167 C 13.961 2.65661 -3.35571 0
M  V30 168 C 13.287 4.05093 -3.49004 0
M  V30 169 C 14.587 2.24187 -4.71739 0
M  V30 170 H 16.281 1.02844 -2.81182 0
M  V30 171 H 13.827 0.493286 -1.35287 0
M  V30 172 H 15.78 3.43663 -2.43872 0
M  V30 173 H 14.504 3.00799 -1.27231 0
M  V30 174 H 13.163 1.93377 -3.1145 0
M  V30 175 H 12.811 4.34206 -2.53917 0
M  V30 176 H 12.511 4.03804 -4.26868 0
M  V30 177 H 14.035 4.81561 -3.75408 0
M  V30 178 H 15.449 2.88654 -4.9533 0
M  V30 179 H 13.846 2.34044 -5.52579 0
M  V30 180 H 14.916 1.19327 -4.69988 0
M  V30 181 N 16.2591 1.48442 0.529413 0
M  V30 182 C 17.1891 1.65902 1.64313 0
M  V30 183 C 18.1701 0.507897 1.6234 0
M  V30 184 O 19.3551 0.740503 1.79528 0
M  V30 185 C 16.4851 1.69911 3.02898 0
M  V30 186 C 15.4391 2.8453 3.19729 0
M  V30 187 C 14.7651 2.73629 4.59381 0
M  V30 188 C 16.0651 4.25821 3.02447 0
M  V30 189 H 17.7591 2.5914 1.49955 0
M  V30 190 H 15.3051 1.24709 0.719982 0
M  V30 191 H 17.2581 1.80715 3.80684 0
M  V30 192 H 15.9821 0.732524 3.18279 0
M  V30 193 H 14.6411 2.73283 2.44361 0
M  V30 194 H 14.2891 1.74938 4.71599 0
M  V30 195 H 13.9891 3.50541 4.71588 0
M  V30 196 H 15.5131 2.86401 5.39265 0
M  V30 197 H 16.9271 4.37898 3.70024 0
M  V30 198 H 15.3241 5.03735 3.26146 0
M  V30 199 H 16.3941 4.42244 1.98867 0
M  V30 200 N 17.7372 -0.778329 1.37039 0
M  V30 201 C 18.6672 -1.90546 1.34962 0
M  V30 202 C 19.6482 -1.68681 0.219274 0
M  V30 203 O 20.8332 -1.89634 0.418624 0
M  V30 204 C 17.9632 -3.27734 1.14925 0
M  V30 205 C 16.9172 -3.64147 2.24902 0
M  V30 206 C 16.2432 -4.99806 1.89996 0
M  V30 207 C 17.5432 -3.71579 3.67051 0
M  V30 208 H 19.2372 -1.92541 2.29277 0
M  V30 209 H 16.7832 -0.924948 1.10366 0
M  V30 210 H 18.7362 -4.06215 1.12104 0
M  V30 211 H 17.4602 -3.26154 0.170631 0
M  V30 212 H 16.1192 -2.8797 2.26868 0
M  V30 213 H 15.7672 -4.94759 0.906796 0
M  V30 214 H 15.4672 -5.25139 2.63634 0
M  V30 215 H 16.9912 -5.80694 1.88749 0
M  V30 216 H 18.4052 -4.40227 3.67251 0
M  V30 217 H 16.8022 -4.08405 4.39688 0
M  V30 218 H 17.8722 -2.72404 4.01154 0
M  V30 219 N 19.2153 -1.21501 -1.00376 0
M  V30 220 C 20.4403 -1.05977 -1.78279 0
M  V30 221 C 20.8653 0.385994 -1.84097 0
M  V30 222 O 20.2233 1.27849 -1.28547 0
M  V30 223 C 20.2713 -1.66302 -3.19963 0
M  V30 224 O 19.3753 -0.909333 -4.0225 0
M  V30 225 H 18.7163 -0.372906 -0.549397 0
M  V30 226 H 21.2463 -1.6107 -1.26165 0
M  V30 227 H 21.2563 -1.70574 -3.70632 0
M  V30 228 H 19.9313 -2.71515 -3.15043 0
M  V30 229 H 18.5083 -0.941795 -3.60811 0
M  V30 230 N 20.6934 1.19889 -1.02296 0
M  V30 231 C 21.6564 2.21116 -0.603351 0
M  V30 232 C 22.6564 1.5738 0.329884 0
M  V30 233 O 23.8464 1.73802 0.117702 0
M  V30 234 C 20.9784 3.40696 0.117992 0
M  V30 235 H 22.1714 2.59754 -1.49893 0
M  V30 236 H 19.7244 1.33463 -0.813468 0
M  V30 237 H 20.4594 3.07569 1.0282 0
M  V30 238 H 20.2444 3.88188 -0.552511 0
M  V30 239 H 21.7344 4.15692 0.398696 0
M  V30 240 N 22.1715 0.800033 1.35784 0
M  V30 241 C 23.1345 0.211565 2.28221 0
M  V30 242 C 24.1345 -0.59728 1.49296 0
M  V30 243 O 25.3245 -0.416721 1.69142 0
M  V30 244 C 22.4565 -0.705846 3.33513 0
M  V30 245 H 23.6495 1.02677 2.81776 0
M  V30 246 H 21.2025 0.570211 1.45528 0
M  V30 247 H 21.9375 -1.54498 2.85133 0
M  V30 248 H 21.7225 -0.127655 3.91892 0
M  V30 249 H 23.2125 -1.11211 4.02519 0
M  V30 250 N 23.6496 -1.47581 0.552962 0
M  V30 251 C 25.0656 -1.5818 0.212424 0
M  V30 252 C 25.2656 -1.55213 -1.28496 0
M  V30 253 O 24.3216 -1.45329 -2.06484 0
M  V30 254 C 25.6346 -2.88865 0.835318 0
M  V30 255 C 27.1826 -3.0244 0.806156 0
M  V30 256 C 27.6576 -4.35819 1.40804 0
M  V30 257 N 29.1486 -4.42444 1.37103 0
M  V30 258 C 29.8836 -5.44202 1.80641 0
M  V30 259 N 29.3796 -6.52795 2.32015 0
M  V30 260 N 31.1726 -5.35222 1.71738 0
M  V30 261 H 23.3236 -1.47753 1.52587 0
M  V30 262 H 25.5866 -0.702941 0.636064 0
M  V30 263 H 25.2926 -2.9676 1.88749 0
M  V30 264 H 25.1666 -3.7579 0.325848 0
M  V30 265 H 27.5536 -2.94144 -0.237317 0
M  V30 266 H 27.6346 -2.17068 1.35334 0
M  V30 267 H 27.2786 -4.44871 2.45056 0
M  V30 268 H 27.2086 -5.19916 0.836338 0
M  V30 269 H 29.6996 -3.6456 0.995202 0
M  V30 270 H 30.0126 -7.26609 2.63171 0
M  V30 271 H 28.3576 -6.53696 2.36023 0
M  V30 272 H 31.5486 -4.49284 1.31382 0
M  V30 273 H 31.7216 -6.14389 2.05987 0
M  V30 274 N 25.1277 -0.289203 -1.54924 0
M  V30 275 C 26.0907 0.579144 -2.21762 0
M  V30 276 C 27.0907 1.07047 -1.1999 0
M  V30 277 O 28.2807 0.968384 -1.44803 0
M  V30 278 C 25.4127 1.80055 -2.8947 0
M  V30 279 H 26.6057 -0.00464908 -2.999 0
M  V30 280 H 24.1587 -0.0399306 -1.56249 0
M  V30 281 H 24.8937 2.42449 -2.15381 0
M  V30 282 H 24.6787 1.45602 -3.64064 0
M  V30 283 H 26.1687 2.41773 -3.40493 0
M  V30 284 N 26.6058 1.57591 -0.0167156 0
M  V30 285 C 27.5158 2.1291 0.98521 0
M  V30 286 C 28.5318 1.07834 1.36557 0
M  V30 287 O 29.7078 1.39826 1.44951 0
M  V30 288 C 26.7728 2.63512 2.25305 0
M  V30 289 C 25.8338 3.83256 1.93426 0
M  V30 290 C 25.0668 4.31435 3.14165 0
M  V30 291 O 25.2898 3.78851 4.26413 0
M  V30 292 O 24.2238 5.23416 2.97186 0
M  V30 293 H 28.0498 2.98772 0.544888 0
M  V30 294 H 25.6348 1.48012 0.203141 0
M  V30 295 H 27.5168 2.96183 2.99756 0
M  V30 296 H 26.1918 1.8074 2.68542 0
M  V30 297 H 25.0988 3.55531 1.16398 0
M  V30 298 H 26.4318 4.67153 1.55013 0
M  V30 299 N 28.0839 -0.256276 1.55502 0
M  V30 300 C 28.9939 -1.33882 1.92647 0
M  V30 301 C 30.0099 -1.53159 0.825727 0
M  V30 302 O 31.1859 -1.66963 1.12629 0
M  V30 303 C 28.2509 -2.6751 2.20543 0
M  V30 304 C 27.3119 -2.56836 3.43997 0
M  V30 305 C 26.5449 -3.84092 3.70553 0
M  V30 306 O 26.7679 -4.85545 2.99336 0
M  V30 307 O 25.7019 -3.83288 4.64084 0
M  V30 308 H 29.5279 -1.05374 2.84833 0
M  V30 309 H 27.1129 -0.456237 1.42263 0
M  V30 310 H 28.9949 -3.46492 2.39835 0
M  V30 311 H 27.6699 -2.9577 1.31536 0
M  V30 312 H 26.5769 -1.76172 3.30021 0
M  V30 313 H 27.9099 -2.33523 4.33275 0
M  V30 314 N 29.562 -1.4872 -0.521534 0
M  V30 315 C 30.472 -1.66569 -1.65203 0
M  V30 316 C 31.488 -0.548197 -1.65139 0
M  V30 317 O 32.664 -0.820339 -1.83936 0
M  V30 318 C 29.729 -1.70917 -3.01642 0
M  V30 319 C 28.79 -2.94356 -3.12495 0
M  V30 320 C 28.023 -2.98487 -4.42426 0
M  V30 321 O 28.246 -2.10786 -5.30024 0
M  V30 322 O 27.18 -3.90746 -4.57822 0
M  V30 323 H 31.006 -2.62298 -1.5308 0
M  V30 324 H 28.591 -1.3222 -0.695565 0
M  V30 325 H 30.473 -1.7625 -3.82771 0
M  V30 326 H 29.148 -0.783633 -3.14071 0
M  V30 327 H 28.055 -2.94552 -2.3063 0
M  V30 328 H 29.388 -3.86322 -3.04986 0
M  V30 329 N 31.0401 0.771051 -1.3745 0
M  V30 330 C 32.3171 1.519 -1.23231 0
M  V30 331 C 32.6971 2.10383 0.173809 0
M  V30 332 O 32.0451 1.95583 1.18151 0
M  V30 333 C 32.2551 2.59933 -2.32886 0
M  V30 334 C 33.6031 3.27316 -2.70461 0
M  V30 335 O 34.6271 2.70228 -2.32068 0
M  V30 336 O 33.4861 4.30531 -3.36608 0
M  V30 337 H 30.5801 0.672803 -0.480901 0
M  V30 338 H 33.1261 0.807957 -1.49232 0
M  V30 339 H 31.8981 2.14842 -3.27045 0
M  V30 340 H 31.5211 3.38637 -2.08353 0
M  V30 341 N 32.5182 1.22032 0.997298 0
M  V30 342 C 33.4652 0.986467 2.08656 0
M  V30 343 C 34.4352 -0.0902671 1.65855 0
M  V30 344 O 35.6202 0.0584294 1.90711 0
M  V30 345 C 32.7602 0.565569 3.40434 0
M  V30 346 C 31.8732 1.71259 3.96604 0
M  V30 347 C 31.0082 1.24011 5.16522 0
M  V30 348 C 30.0472 2.35896 5.64818 0
M  V30 349 N 29.1842 1.89726 6.7598 0
M  V30 350 H 34.0242 1.91892 2.27994 0
M  V30 351 H 31.5612 0.956199 1.11782 0
M  V30 352 H 33.5192 0.302738 4.161 0
M  V30 353 H 32.1492 -0.329879 3.2111 0
M  V30 354 H 31.2012 2.08986 3.17851 0
M  V30 355 H 32.5132 2.55436 4.28432 0
M  V30 356 H 31.6672 0.934395 5.99461 0
M  V30 357 H 30.4062 0.368487 4.86306 0
M  V30 358 H 29.4112 2.67261 4.8047 0
M  V30 359 H 30.6362 3.23567 5.97061 0
M  V30 360 H 28.5822 1.0492 6.47555 0
M  V30 361 H 28.4992 2.67471 7.07103 0
M  V30 362 H 29.7672 1.62211 7.62435 0
M  V30 363 N 33.9963 -1.19345 1.0293 0
M  V30 364 C 34.9433 -2.2258 0.610464 0
M  V30 365 C 35.9133 -1.6179 -0.375946 0
M  V30 366 O 37.0983 -1.88844 -0.272511 0
M  V30 367 C 34.2383 -3.45085 -0.0321473 0
M  V30 368 C 33.3513 -4.20258 1.00035 0
M  V30 369 C 32.4863 -5.3019 0.32746 0
M  V30 370 C 31.5253 -5.97121 1.34584 0
M  V30 371 N 30.6623 -6.98615 0.698726 0
M  V30 372 H 35.5023 -2.57764 1.49538 0
M  V30 373 H 33.0393 -1.26644 0.748311 0
M  V30 374 H 34.9973 -4.15061 -0.421966 0
M  V30 375 H 33.6273 -3.10555 -0.88064 0
M  V30 376 H 32.6793 -3.49223 1.50823 0
M  V30 377 H 33.9913 -4.66175 1.77433 0
M  V30 378 H 33.1453 -6.06587 -0.11718 0
M  V30 379 H 31.8843 -4.85345 -0.478713 0
M  V30 380 H 30.8893 -5.19474 1.80074 0
M  V30 381 H 32.1143 -6.4405 2.15352 0
M  V30 382 H 30.0603 -6.55942 -0.0873471 0
M  V30 383 H 29.9773 -7.42724 1.41058 0
M  V30 384 H 31.2453 -7.79004 0.278102 0
M  V30 385 N 35.4744 -0.807222 -1.35358 0
M  V30 386 C 36.3844 -0.219594 -2.3357 0
M  V30 387 C 37.4004 0.637734 -1.61892 0
M  V30 388 O 38.5764 0.549336 -1.93763 0
M  V30 389 C 35.6414 0.62158 -3.41083 0
M  V30 390 C 34.7024 -0.256315 -4.28534 0
M  V30 391 C 33.9354 0.544807 -5.30912 0
M  V30 392 O 34.1584 1.77944 -5.41934 0
M  V30 393 O 33.0924 -0.0646478 -6.01865 0
M  V30 394 H 36.9184 -1.03208 -2.85625 0
M  V30 395 H 34.5034 -0.569025 -1.38139 0
M  V30 396 H 36.3854 1.10067 -4.06772 0
M  V30 397 H 35.0604 1.41165 -2.91297 0
M  V30 398 H 33.9674 -0.782559 -3.65823 0
M  V30 399 H 35.3004 -1.01034 -4.81719 0
M  V30 400 N 36.9525 1.47285 -0.560781 0
M  V30 401 C 38.2295 1.9558 0.0277798 0
M  V30 402 C 38.6095 1.5034 1.48192 0
M  V30 403 O 37.9575 0.743882 2.16052 0
M  V30 404 C 38.1675 3.48789 -0.121418 0
M  V30 405 C 39.5155 4.24594 0.0220912 0
M  V30 406 O 40.5395 3.56166 -0.0491439 0
M  V30 407 O 39.3985 5.46217 0.175958 0
M  V30 408 H 36.4925 0.824663 0.0621342 0
M  V30 409 H 39.0385 1.5767 -0.627556 0
M  V30 410 H 37.8105 3.74533 -1.13316 0
M  V30 411 H 37.4335 3.93473 0.571366 0
M  V30 412 N 38.4306 0.297415 1.54768 0
M  V30 413 C 39.6766 -0.313376 2.00364 0
M  V30 414 C 40.0096 -1.53815 1.18553 0
M  V30 415 O 39.2846 -1.92739 0.261103 0
M  V30 416 C 39.5676 -0.673525 3.53745 0
M  V30 417 C 39.4206 0.560133 4.46299 0
M  V30 418 C 40.7396 -1.50143 4.13697 0
M  V30 419 H 37.8586 -0.112428 0.728374 0
M  V30 420 H 40.5006 0.4088 1.8555 0
M  V30 421 H 38.6506 -1.28881 3.665 0
M  V30 422 H 40.3226 1.19863 4.45455 0
M  V30 423 H 38.5656 1.19405 4.17043 0
M  V30 424 H 39.2366 0.26405 5.51368 0
M  V30 425 H 41.7126 -0.981588 4.04356 0
M  V30 426 H 40.5886 -1.72221 5.21182 0
M  V30 427 H 40.8496 -2.48952 3.65343 0
M  V30 428 N 39.9087 -1.5758 0.0250728 0
M  V30 429 C 41.1567 -1.91255 -0.653151 0
M  V30 430 C 41.4777 -0.901691 -1.729 0
M  V30 431 O 40.7477 0.0573785 -1.95816 0
M  V30 432 H 39.3277 -0.705942 -0.244243 0
M  V30 433 H 41.9897 -1.94767 0.0719209 0
M  V30 434 H 41.0857 -2.91752 -1.10847 0
M  V30 435 N 41.3868 0.248026 -1.55636 0
M  V30 436 C 42.6148 0.993808 -1.81469 0
M  V30 437 C 43.0298 1.78991 -0.60064 0
M  V30 438 O 42.3868 1.77345 0.430682 0
M  V30 439 C 42.4378 1.93258 -3.05506 0
M  V30 440 O 42.1588 1.16869 -4.22224 0
M  V30 441 C 43.6598 2.79444 -3.4413 0
M  V30 442 H 40.8798 0.292486 -0.603898 0
M  V30 443 H 43.4238 0.271253 -2.02693 0
M  V30 444 H 41.5788 2.60943 -2.86335 0
M  V30 445 H 41.9928 1.80359 -4.92515 0
M  V30 446 H 43.4668 3.41066 -4.34026 0
M  V30 447 H 43.9438 3.50499 -2.64665 0
M  V30 448 H 44.5498 2.17214 -3.65648 0
M  V30 449 N 42.8649 1.48995 0.513639 0
M  V30 450 C 44.1109 1.58076 1.27042 0
M  V30 451 C 44.4439 0.261026 1.92438 0
M  V30 452 O 43.7189 -0.734393 1.80103 0
M  V30 453 C 44.0019 2.73091 2.34719 0
M  V30 454 C 43.8549 4.14821 1.73907 0
M  V30 455 C 45.1739 2.83796 3.36375 0
M  V30 456 H 42.2929 0.575391 0.460536 0
M  V30 457 H 44.9349 1.81232 0.570516 0
M  V30 458 H 43.0849 2.53479 2.94416 0
M  V30 459 H 44.7569 4.45917 1.18135 0
M  V30 460 H 42.9999 4.21058 1.0437 0
M  V30 461 H 43.6709 4.91147 2.51949 0
M  V30 462 H 46.1469 3.01611 2.86653 0
M  V30 463 H 45.0229 3.65971 4.09093 0
M  V30 464 H 45.2839 1.92624 3.9793 0
M  V30 465 N 44.343 -0.763751 1.37857 0
M  V30 466 C 45.589 -1.52483 1.33704 0
M  V30 467 C 45.922 -1.94051 -0.0759612 0
M  V30 468 O 45.197 -1.64675 -1.03501 0
M  V30 469 C 45.48 -2.78441 2.28348 0
M  V30 470 C 45.333 -2.43075 3.78463 0
M  V30 471 C 46.652 -3.80415 2.21298 0
M  V30 472 H 43.771 -0.553169 0.487005 0
M  V30 473 H 46.413 -0.875562 1.68624 0
M  V30 474 H 44.563 -3.33842 1.987 0
M  V30 475 H 46.235 -1.93527 4.18742 0
M  V30 476 H 44.478 -1.75666 3.96641 0
M  V30 477 H 45.149 -3.33149 4.40132 0
M  V30 478 H 47.625 -3.34527 2.47449 0
M  V30 479 H 46.501 -4.66257 2.89647 0
M  V30 480 H 46.762 -4.25262 1.20849 0
M  V30 481 N 45.8211 -1.22559 -0.990812 0
M  V30 482 C 47.0691 -1.04933 -1.72724 0
M  V30 483 C 47.3901 0.416158 -1.90508 0
M  V30 484 O 46.6601 1.29918 -1.46622 0
M  V30 485 H 45.2401 -0.385296 -0.639965 0
M  V30 486 H 47.9021 -1.54105 -1.19322 0
M  V30 487 H 46.9981 -1.52886 -2.72089 0
M  V30 488 N 47.2992 1.18797 -1.03562 0
M  V30 489 C 48.5482 1.87978 -0.731235 0
M  V30 490 C 48.8612 1.80911 0.743671 0
M  V30 491 O 50.0672 2.45407 1.16137 0
M  V30 492 C 48.5232 3.3721 -1.25768 0
M  V30 493 C 48.1312 3.52818 -2.76085 0
M  V30 494 C 49.8752 4.11825 -1.0296 0
M  V30 495 C 47.7822 4.9598 -3.22114 0
M  V30 496 H 46.7122 0.704063 -0.269835 0
M  V30 497 H 49.3632 1.34266 -1.25079 0
M  V30 498 H 47.7452 3.90359 -0.666011 0
M  V30 499 H 48.9192 3.09965 -3.40966 0
M  V30 500 H 47.2342 2.91602 -2.97249 0
M  V30 501 H 49.8312 5.17411 -1.34869 0
M  V30 502 H 50.1742 4.16287 0.0333546 0
M  V30 503 H 50.7072 3.64833 -1.58562 0
M  V30 504 H 47.4462 4.96684 -4.27768 0
M  V30 505 H 46.9662 5.39569 -2.61965 0
M  V30 506 H 48.6452 5.6467 -3.15844 0
M  V30 507 N 48.7773 0.814389 1.34928 0
M  V30 508 C 50.0543 0.321363 1.92942 0
M  V30 509 C 50.4343 -1.19014 1.74353 0
M  V30 510 O 49.7823 -1.99328 1.11716 0
M  V30 511 C 49.9923 0.741323 3.41036 0
M  V30 512 C 51.3403 0.735266 4.18185 0
M  V30 513 O 52.3643 0.68336 3.49584 0
M  V30 514 O 51.2233 0.800703 5.40602 0
M  V30 515 H 48.3173 0.0858893 0.822528 0
M  V30 516 H 50.8633 0.898609 1.43955 0
M  V30 517 H 49.6353 1.78276 3.4833 0
M  V30 518 H 49.2583 0.139307 3.97356 0
M  V30 519 N 50.2554 -1.46986 0.568584 0
M  V30 520 C 51.1854 -2.32946 -0.160753 0
M  V30 521 C 52.1664 -1.44487 -0.897631 0
M  V30 522 O 53.3514 -1.73327 -0.875867 0
M  V30 523 C 50.4814 -3.26494 -1.18403 0
M  V30 524 C 49.4354 -4.24282 -0.562895 0
M  V30 525 C 48.7614 -5.07236 -1.69163 0
M  V30 526 C 50.0614 -5.19989 0.490761 0
M  V30 527 H 51.7554 -2.94175 0.556916 0
M  V30 528 H 49.3014 -1.4146 0.26927 0
M  V30 529 H 51.2544 -3.85477 -1.70251 0
M  V30 530 H 49.9784 -2.63343 -1.93179 0
M  V30 531 H 48.6374 -3.66541 -0.0656164 0
M  V30 532 H 48.2854 -4.4048 -2.42871 0
M  V30 533 H 47.9854 -5.7345 -1.28174 0
M  V30 534 H 49.5094 -5.6908 -2.21314 0
M  V30 535 H 50.9234 -5.73271 0.0579047 0
M  V30 536 H 49.3204 -5.94469 0.820165 0
M  V30 537 H 50.3904 -4.64777 1.3824 0
M  V30 538 N 51.7335 -0.305618 -1.54608 0
M  V30 539 C 52.9815 0.301701 -1.99835 0
M  V30 540 C 53.3025 1.54054 -1.19551 0
M  V30 541 O 52.5725 1.93702 -0.292658 0
M  V30 542 H 51.1525 0.114468 -0.738178 0
M  V30 543 H 53.8145 -0.418016 -1.90364 0
M  V30 544 H 52.9105 0.570548 -3.06841 0
M  V30 545 N 53.2116 1.57565 -0.0334293 0
M  V30 546 C 54.4396 1.9628 0.654347 0
M  V30 547 C 54.8546 0.910138 1.65414 0
M  V30 548 O 54.2116 -0.107595 1.82183 0
M  V30 549 C 54.2626 3.35067 1.35693 0
M  V30 550 O 53.9836 4.36296 0.397191 0
M  V30 551 C 55.4846 3.88439 2.13613 0
M  V30 552 H 52.7046 0.646369 0.180132 0
M  V30 553 H 55.2486 2.04282 -0.0944721 0
M  V30 554 H 53.4036 3.2827 2.05712 0
M  V30 555 H 53.8176 5.1678 0.896597 0
M  V30 556 H 55.2916 4.8788 2.58219 0
M  V30 557 H 55.7686 3.22914 2.97696 0
M  V30 558 H 56.3746 3.98516 1.48543 0
M  V30 559 N 54.6897 -0.239769 1.55765 0
M  V30 560 C 55.9177 -0.98417 1.81994 0
M  V30 561 C 56.3327 -1.7867 0.610124 0
M  V30 562 O 55.6897 -1.77571 -0.421271 0
M  V30 563 C 55.7407 -1.91635 3.06526 0
M  V30 564 O 55.4617 -1.14629 4.22838 0
M  V30 565 C 56.9627 -2.77616 3.45607 0
M  V30 566 H 54.1827 -0.28928 0.605441 0
M  V30 567 H 56.7267 -0.260499 2.02834 0
M  V30 568 H 54.8817 -2.5942 2.87715 0
M  V30 569 H 55.2957 -1.77745 4.93464 0
M  V30 570 H 56.7697 -3.38759 4.35828 0
M  V30 571 H 57.2467 -3.4909 2.6652 0
M  V30 572 H 57.8527 -2.15271 3.66795 0
M  V30 573 N 56.1678 -1.49265 -0.50573 0
M  V30 574 C 57.3978 -1.61979 -1.28243 0
M  V30 575 C 57.8058 -0.288576 -1.86986 0
M  V30 576 O 57.1488 0.735408 -1.68337 0
M  V30 577 C 57.2108 -2.62632 -2.45489 0
M  V30 578 C 56.8748 -4.071 -2.07651 0
M  V30 579 C 57.8718 -4.94049 -1.61901 0
M  V30 580 C 55.5568 -4.52801 -2.17431 0
M  V30 581 C 57.5508 -6.24736 -1.26428 0
M  V30 582 C 55.2378 -5.83503 -1.8157 0
M  V30 583 C 56.2358 -6.69294 -1.36142 0
M  V30 584 O 55.9238 -7.9756 -1.00764 0
M  V30 585 H 55.6558 -0.54834 -0.395347 0
M  V30 586 H 58.2098 -1.96002 -0.614204 0
M  V30 587 H 56.4398 -2.2378 -3.15372 0
M  V30 588 H 58.1288 -2.64925 -3.07522 0
M  V30 589 H 58.8948 -4.5997 -1.53795 0
M  V30 590 H 54.7738 -3.86196 -2.51742 0
M  V30 591 H 58.3178 -6.91652 -0.908992 0
M  V30 592 H 54.2148 -6.17112 -1.89324 0
M  V30 593 H 54.9828 -8.10529 -1.13952 0
M  V30 594 N 57.6459 0.756429 -1.3826 0
M  V30 595 C 58.8709 1.55077 -1.37717 0
M  V30 596 C 59.2959 1.88073 0.03164 0
M  V30 597 O 58.6539 1.50364 1.01293 0
M  V30 598 C 58.7019 2.8283 -2.23695 0
M  V30 599 O 57.8059 3.77862 -1.6521 0
M  V30 600 H 57.1469 0.469152 -0.469885 0
M  V30 601 H 59.6769 0.935019 -1.81985 0
M  V30 602 H 59.6869 3.31783 -2.37453 0
M  V30 603 H 58.3619 2.58144 -3.2609 0
M  V30 604 H 56.9389 3.36555 -1.60578 0
M  V30 605 N 59.124 1.23083 0.984299 0
M  V30 606 C 60.364 1.07226 1.74017 0
M  V30 607 C 60.728 -0.384766 1.88105 0
M  V30 608 O 61.929 -0.664411 2.60459 0
M  V30 609 C 60.2 1.77348 3.10294 0
M  V30 610 S 61.759 1.77014 4.01512 0
M  V30 611 H 58.577 0.383819 0.598502 0
M  V30 612 H 61.179 1.56158 1.17622 0
M  V30 613 H 59.883 2.82506 2.97689 0
M  V30 614 H 59.414 1.28682 3.71759 0
M  V30 615 H 61.429 0.825956 4.89277 0
M  V30 616 N 60.6021 -1.18246 1.0419 0
M  V30 617 C 61.8481 -1.88536 0.747122 0
M  V30 618 C 62.1811 -1.80223 -0.723409 0
M  V30 619 O 61.4561 -1.20337 -1.52804 0
M  V30 620 C 61.7391 -3.38968 1.21544 0
M  V30 621 C 61.5921 -3.56084 2.74816 0
M  V30 622 C 62.9111 -4.32648 0.806482 0
M  V30 623 H 60.0301 -0.684619 0.272883 0
M  V30 624 H 62.6721 -1.39113 1.29413 0
M  V30 625 H 60.8221 -3.8119 0.750081 0
M  V30 626 H 62.4941 -3.22946 3.29399 0
M  V30 627 H 60.7371 -2.98699 3.14582 0
M  V30 628 H 61.4081 -4.61639 3.02644 0
M  V30 629 H 63.8841 -3.98211 1.20695 0
M  V30 630 H 62.7601 -5.36462 1.1619 0
M  V30 631 H 63.0211 -4.41146 -0.29029 0
M  V30 632 N 62.0802 -0.821533 -1.34494 0
M  V30 633 C 63.3282 -0.408139 -1.97936 0
M  V30 634 C 63.6492 1.03193 -1.65457 0
M  V30 635 O 62.9192 1.71622 -0.944595 0
M  V30 636 H 61.4992 -0.147928 -0.732206 0
M  V30 637 H 64.1612 -1.05067 -1.64155 0
M  V30 638 H 63.2572 -0.52601 -3.07635 0
M  V30 639 N 63.5583 1.46682 -0.576371 0
M  V30 640 C 64.8043 2.02712 -0.0596221 0
M  V30 641 C 65.1373 1.44765 1.29448 0
M  V30 642 O 64.4123 0.610355 1.84675 0
M  V30 643 C 64.6953 3.60098 0.0129503 0
M  V30 644 C 64.5483 4.28441 -1.3696 0
M  V30 645 C 65.8673 4.34224 0.71678 0
M  V30 646 H 62.9863 0.736637 -0.0231407 0
M  V30 647 H 65.6283 1.74898 -0.742351 0
M  V30 648 H 63.7783 3.83926 0.594378 0
M  V30 649 H 65.4503 4.15896 -1.9957 0
M  V30 650 H 63.6933 3.8805 -1.93907 0
M  V30 651 H 64.3643 5.3716 -1.27135 0
M  V30 652 H 66.8403 4.15503 0.222908 0
M  V30 653 H 65.7163 5.43936 0.73657 0
M  V30 654 H 65.9773 4.04823 1.77682 0
M  V30 655 N 65.0364 0.313813 1.54444 0
M  V30 656 C 66.2834 -0.291675 2.00388 0
M  V30 657 C 66.6114 -1.52904 1.2021 0
M  V30 658 O 65.8664 -1.93833 0.269707 0
M  V30 659 C 66.1654 -0.680386 3.50864 0
M  V30 660 C 65.8314 0.456699 4.48581 0
M  V30 661 C 64.4934 0.768824 4.75018 0
M  V30 662 C 66.8454 1.22098 5.06697 0
M  V30 663 C 64.1734 1.84812 5.56831 0
M  V30 664 C 66.5254 2.29029 5.89685 0
M  V30 665 C 65.1894 2.60834 6.14428 0
M  V30 666 H 64.4594 -0.106732 0.733273 0
M  V30 667 H 67.1064 0.43557 1.86481 0
M  V30 668 H 65.4114 -1.48791 3.62448 0
M  V30 669 H 67.1084 -1.16026 3.83847 0
M  V30 670 H 63.6984 0.203337 4.28117 0
M  V30 671 H 67.8824 0.993096 4.86263 0
M  V30 672 H 63.1384 2.09912 5.74236 0
M  V30 673 H 67.3124 2.887 6.33739 0
M  V30 674 H 64.9394 3.44596 6.77612 0
M  V30 675 N 66.5145 -1.57545 0.0417849 0
M  V30 676 C 67.4615 -2.10977 -0.935805 0
M  V30 677 C 68.4315 -1.01486 -1.31491 0
M  V30 678 O 69.6165 -1.2898 -1.40602 0
M  V30 679 C 66.7565 -2.65169 -2.2086 0
M  V30 680 C 65.8695 -3.88714 -1.88482 0
M  V30 681 C 65.0045 -4.31254 -3.1015 0
M  V30 682 C 64.0435 -5.47524 -2.7365 0
M  V30 683 N 63.1805 -5.85162 -3.87982 0
M  V30 684 H 68.0205 -2.94218 -0.473249 0
M  V30 685 H 65.5575 -1.45415 -0.221981 0
M  V30 686 H 67.5155 -2.94685 -2.95325 0
M  V30 687 H 66.1455 -1.8474 -2.64709 0
M  V30 688 H 65.1975 -3.65849 -1.04205 0
M  V30 689 H 66.5095 -4.73245 -1.57608 0
M  V30 690 H 65.6635 -4.62273 -3.92923 0
M  V30 691 H 64.4025 -3.45516 -3.44195 0
M  V30 692 H 63.4075 -5.16187 -1.89291 0
M  V30 693 H 64.6325 -6.34971 -2.40807 0
M  V30 694 H 62.5785 -5.02377 -4.21846 0
M  V30 695 H 62.4955 -6.64362 -3.60775 0
M  V30 696 H 63.7635 -6.20791 -4.71422 0
M  V30 697 N 67.9926 0.231505 -1.5589 0
M  V30 698 C 68.9406 1.30649 -1.92441 0
M  V30 699 C 69.9346 1.49037 -0.805254 0
M  V30 700 O 71.1406 1.50329 -0.990007 0
M  V30 701 H 67.5156 0.437812 -0.611412 0
M  V30 702 H 69.4866 0.970973 -2.82161 0
M  V30 703 C 68.2356 2.65179 -2.24889 0
M  V30 704 H 67.5586 2.51835 -3.10514 0
M  V30 705 H 68.9986 3.39234 -2.54355 0
M  V30 706 C 67.4576 3.19439 -1.07054 0
M  V30 707 O 67.9876 4.00371 -0.326499 0
M  V30 708 N 66.1936 2.77675 -0.85703 0
M  V30 709 H 65.7406 2.11969 -1.46379 0
M  V30 710 H 65.6986 3.14321 -0.0703223 0
M  V30 711 N 69.4707 1.49531 0.497807 0
M  V30 712 C 70.7187 1.58865 1.24926 0
M  V30 713 C 71.0397 0.278721 1.92998 0
M  V30 714 O 70.3097 -0.702144 1.82885 0
M  V30 715 H 68.8897 0.585343 0.464094 0
M  V30 716 H 71.5517 1.86174 0.57666 0
M  V30 717 H 70.6477 2.38633 2.01149 0
M  V30 718 N 70.9488 -0.749086 1.3866 0
M  V30 719 C 72.3648 -1.05276 1.19955 0
M  V30 720 C 72.5648 -2.01435 0.05134 0
M  V30 721 O 71.6208 -2.45232 -0.60147 0
M  V30 722 C 72.9338 -1.62853 2.52783 0
M  V30 723 C 74.4818 -1.75002 2.59506 0
M  V30 724 C 74.9568 -2.35991 3.92521 0
M  V30 725 N 76.4478 -2.43416 3.94085 0
M  V30 726 C 77.1828 -2.91511 4.9377 0
M  V30 727 N 76.6788 -3.39608 6.03853 0
M  V30 728 N 78.4718 -2.90592 4.81157 0
M  V30 729 H 70.6228 -0.111066 2.12109 0
M  V30 730 H 72.8858 -0.111901 0.941373 0
M  V30 731 H 72.5918 -0.99664 3.37283 0
M  V30 732 H 72.4658 -2.61854 2.715 0
M  V30 733 H 74.8528 -2.37317 1.75398 0
M  V30 734 H 74.9338 -0.74693 2.44652 0
M  V30 735 H 74.5778 -1.74308 4.77053 0
M  V30 736 H 74.5078 -3.3695 4.04688 0
M  V30 737 H 76.9988 -2.09405 3.14576 0
M  V30 738 H 77.3118 -3.74775 6.75843 0
M  V30 739 H 75.6568 -3.37653 6.07466 0
M  V30 740 H 78.8478 -2.52332 3.94267 0
M  V30 741 H 79.0208 -3.27762 5.58996 0
M  V30 742 N 72.4269 -1.23603 -0.977757 0
M  V30 743 C 73.6729 -1.07129 -1.72195 0
M  V30 744 C 74.0059 0.390501 -1.90233 0
M  V30 745 O 73.2809 1.28902 -1.45653 0
M  V30 746 C 73.5639 -1.80031 -3.11867 0
M  V30 747 C 73.4169 -3.33899 -3.01383 0
M  V30 748 C 74.7359 -1.56492 -4.11337 0
M  V30 749 H 71.8549 -0.390571 -0.624999 0
M  V30 750 H 74.4969 -1.52142 -1.13811 0
M  V30 751 H 72.6469 -1.41768 -3.6171 0
M  V30 752 H 74.3189 -3.81699 -2.59043 0
M  V30 753 H 72.5619 -3.62796 -2.37827 0
M  V30 754 H 73.2329 -3.801 -4.00285 0
M  V30 755 H 75.7089 -1.89757 -3.70313 0
M  V30 756 H 74.5849 -2.09973 -5.07151 0
M  V30 757 H 74.8459 -0.500874 -4.39254 0
M  V30 758 N 73.905 1.17692 -1.04816 0
M  V30 759 C 74.815 2.25229 -0.65643 0
M  V30 760 C 75.831 1.71018 0.320761 0
M  V30 761 O 77.007 2.00649 0.173805 0
M  V30 762 C 74.072 3.46684 -0.0332629 0
M  V30 763 C 73.133 4.15997 -1.06042 0
M  V30 764 C 72.366 5.31654 -0.466893 0
M  V30 765 O 72.589 5.65777 0.724758 0
M  V30 766 O 71.523 5.89831 -1.1993 0
M  V30 767 H 75.349 2.61016 -1.55255 0
M  V30 768 H 72.934 1.24919 -0.81949 0
M  V30 769 H 74.816 4.20234 0.313256 0
M  V30 770 H 73.491 3.12703 0.836566 0
M  V30 771 H 72.398 3.44482 -1.45886 0
M  V30 772 H 73.731 4.53996 -1.90127 0
M  V30 773 N 75.3831 0.828654 1.34056 0
M  V30 774 C 76.6321 0.415828 1.97367 0
M  V30 775 C 76.9451 -1.02796 1.6641 0
M  V30 776 O 78.1511 -1.54497 2.23255 0
M  V30 777 C 76.6071 0.692601 3.53173 0
M  V30 778 C 76.2151 2.15038 3.93017 0
M  V30 779 C 77.9591 0.346222 4.23086 0
M  V30 780 C 75.8661 2.37174 5.41758 0
M  V30 781 H 74.7961 0.151755 0.738571 0
M  V30 782 H 77.4471 1.01581 1.52819 0
M  V30 783 H 75.8291 0.0223764 3.95994 0
M  V30 784 H 77.0031 2.86024 3.61285 0
M  V30 785 H 75.3181 2.45875 3.36057 0
M  V30 786 H 77.9151 0.48937 5.32456 0
M  V30 787 H 78.2581 -0.709842 4.10204 0
M  V30 788 H 78.7911 0.971258 3.85761 0
M  V30 789 H 75.5301 3.41308 5.59633 0
M  V30 790 H 75.0501 1.70738 5.74986 0
M  V30 791 H 76.7291 2.19818 6.08514 0
M  V30 792 N 76.8612 -1.46375 0.584142 0
M  V30 793 C 78.1102 -2.01585 0.0679741 0
M  V30 794 C 78.4232 -1.46109 -1.30045 0
M  V30 795 O 79.6292 -1.93148 -1.90804 0
M  V30 796 C 78.0852 -3.5983 0.0709207 0
M  V30 797 C 77.6932 -4.24303 1.43775 0
M  V30 798 C 79.4372 -4.22693 -0.391228 0
M  V30 799 C 77.3442 -5.74631 1.39834 0
M  V30 800 H 76.2742 -0.753689 0.0216421 0
M  V30 801 H 78.9252 -1.68093 0.736001 0
M  V30 802 H 77.3072 -3.90405 -0.663299 0
M  V30 803 H 78.4812 -4.05335 2.19181 0
M  V30 804 H 76.7962 -3.73539 1.84004 0
M  V30 805 H 79.3932 -5.3289 -0.439524 0
M  V30 806 H 79.7362 -3.91728 -1.40906 0
M  V30 807 H 80.2692 -3.96749 0.288974 0
M  V30 808 H 77.0082 -6.10258 2.39303 0
M  V30 809 H 76.5282 -5.95858 0.686505 0
M  V30 810 H 78.2072 -6.37375 1.11187 0
M  V30 811 N 78.3393 -0.321999 -1.54275 0
M  V30 812 C 79.3023 0.531975 -2.22941 0
M  V30 813 C 80.3023 1.04478 -1.22234 0
M  V30 814 O 81.4923 0.937452 -1.46825 0
M  V30 815 C 78.6243 1.73874 -2.93224 0
M  V30 816 H 79.8173 -0.0682612 -2.99822 0
M  V30 817 H 77.3703 -0.0730644 -1.56129 0
M  V30 818 H 78.1053 2.37825 -2.20476 0
M  V30 819 H 77.8903 1.37847 -3.6707 0
M  V30 820 H 79.3803 2.34496 -3.45545 0
M  V30 821 N 79.8174 1.5752 -0.0501392 0
M  V30 822 C 80.7654 2.12651 0.942459 0
M  V30 823 C 81.7594 1.05807 1.32292 0
M  V30 824 O 82.9654 1.24217 1.3027 0
M  V30 825 H 79.3404 0.679673 0.321789 0
M  V30 826 H 81.3114 2.94951 0.452356 0
M  V30 827 C 80.0604 2.68565 2.20836 0
M  V30 828 H 79.3834 3.50439 1.92439 0
M  V30 829 H 80.8234 3.10761 2.8845 0
M  V30 830 C 79.2824 1.62291 2.95234 0
M  V30 831 O 79.8124 1.03508 3.88135 0
M  V30 832 N 78.0184 1.33836 2.57946 0
M  V30 833 H 77.5654 1.81826 1.82475 0
M  V30 834 H 77.5234 0.629595 3.08032 0
M  V30 835 N 81.2955 -0.223234 1.56011 0
M  V30 836 C 82.5725 -0.972108 1.69733 0
M  V30 837 C 82.9525 -2.02485 0.59691 0
M  V30 838 O 82.3005 -2.25037 -0.396324 0
M  V30 839 C 82.5105 -1.58407 3.10979 0
M  V30 840 C 83.8585 -2.07696 3.70334 0
M  V30 841 O 84.8825 -1.68304 3.1393 0
M  V30 842 O 83.7415 -2.80096 4.69264 0
M  V30 843 H 80.8355 -0.453993 0.691245 0
M  V30 844 H 83.3815 -0.215149 1.68331 0
M  V30 845 H 82.1535 -0.823831 3.82529 0
M  V30 846 H 81.7765 -2.40661 3.16493 0
M  V30 847 N 82.7736 -1.49793 -0.48987 0
M  V30 848 C 83.7056 -1.63413 -1.60713 0
M  V30 849 C 84.7186 -0.516329 -1.54395 0
M  V30 850 O 85.9076 -0.788812 -1.60125 0
M  V30 851 C 83.0076 -1.58516 -2.99543 0
M  V30 852 C 82.1806 -2.86016 -3.30928 0
M  V30 853 C 81.2396 -2.74018 -4.49222 0
M  V30 854 O 80.2656 -3.47964 -4.50455 0
M  V30 855 N 81.4676 -1.86309 -5.4979 0
M  V30 856 H 84.2326 -2.59777 -1.49452 0
M  V30 857 H 81.7936 -1.47022 -0.677955 0
M  V30 858 H 83.7856 -1.48128 -3.76617 0
M  V30 859 H 82.3556 -0.69965 -3.0467 0
M  V30 860 H 81.5756 -3.10672 -2.42645 0
M  V30 861 H 82.8636 -3.70521 -3.487 0
M  V30 862 H 82.2616 -1.2551 -5.51601 0
M  V30 863 H 80.8186 -1.81837 -6.25922 0
M  V30 864 N 84.2517 0.741722 -1.39055 0
M  V30 865 C 85.4997 1.49818 -1.35643 0
M  V30 866 C 85.8207 1.94938 0.0491642 0
M  V30 867 O 85.0907 1.68505 0.999141 0
M  V30 868 H 83.6707 0.555755 -0.499144 0
M  V30 869 H 86.3327 0.880957 -1.73854 0
M  V30 870 H 85.4287 2.38348 -2.01486 0
M  V30 871 N 85.7298 1.2412 0.971189 0
M  V30 872 C 86.6778 1.02812 2.08644 0
M  V30 873 C 87.6718 -0.0358403 1.69362 0
M  V30 874 O 88.8778 0.118429 1.7961 0
M  V30 875 H 85.2528 0.315428 0.682649 0
M  V30 876 H 87.2238 1.97397 2.23779 0
M  V30 877 C 85.9728 0.645874 3.41649 0
M  V30 878 H 85.2958 1.45632 3.72332 0
M  V30 879 H 86.7358 0.536366 4.20594 0
M  V30 880 C 85.1948 -0.646713 3.30635 0
M  V30 881 O 85.7248 -1.69338 3.64263 0
M  V30 882 N 83.9308 -0.626115 2.83775 0
M  V30 883 H 83.4778 0.225988 2.56607 0
M  V30 884 H 83.4358 -1.49117 2.76788 0
M  V30 885 N 87.2079 -1.17134 1.05439 0
M  V30 886 C 88.6239 -1.39454 0.776201 0
M  V30 887 C 88.8239 -1.91454 -0.628307 0
M  V30 888 O 87.8799 -2.10777 -1.39031 0
M  V30 889 C 89.1929 -2.38305 1.83388 0
M  V30 890 C 90.7409 -2.52006 1.85639 0
M  V30 891 C 91.2159 -3.54133 2.90437 0
M  V30 892 N 92.7069 -3.61653 2.89415 0
M  V30 893 C 93.4419 -4.4044 3.67152 0
M  V30 894 N 92.9379 -5.22721 4.54681 0
M  V30 895 N 94.7309 -4.35337 3.55581 0
M  V30 896 H 86.8819 -0.817134 1.96053 0
M  V30 897 H 89.1449 -0.421626 0.849079 0
M  V30 898 H 88.8509 -2.07173 2.84204 0
M  V30 899 H 88.7249 -3.37841 1.67761 0
M  V30 900 H 91.1119 -2.82447 0.85486 0
M  V30 901 H 91.1929 -1.52537 2.05344 0
M  V30 902 H 90.8369 -3.24431 3.90777 0
M  V30 903 H 90.7669 -4.53313 2.67983 0
M  V30 904 H 93.2579 -3.02909 2.25952 0
M  V30 905 H 93.5709 -5.80027 5.10674 0
M  V30 906 H 91.9159 -5.22093 4.58741 0
M  V30 907 H 95.1069 -3.70112 2.86592 0
M  V30 908 H 95.2799 -4.96494 4.1641 0
M  V30 909 N 88.686 -0.835752 -1.33615 0
M  V30 910 C 89.935 -0.426289 -1.97144 0
M  V30 911 C 90.248 1.01912 -1.66953 0
M  V30 912 O 91.454 1.53311 -2.24072 0
M  V30 913 C 89.91 -0.711321 -3.52801 0
M  V30 914 C 89.518 -2.1712 -3.91871 0
M  V30 915 C 91.262 -0.368654 -4.22896 0
M  V30 916 C 89.169 -2.40044 -5.40493 0
M  V30 917 H 88.099 -0.15567 -0.737755 0
M  V30 918 H 90.75 -1.0239 -1.52278 0
M  V30 919 H 89.132 -0.0433766 -3.95976 0
M  V30 920 H 90.306 -2.87936 -3.59763 0
M  V30 921 H 88.621 -2.47654 -3.34749 0
M  V30 922 H 91.218 -0.517601 -5.32189 0
M  V30 923 H 91.561 0.688078 -4.10574 0
M  V30 924 H 92.094 -0.991702 -3.8524 0
M  V30 925 H 88.833 -3.44271 -5.57815 0
M  V30 926 H 88.353 -1.73785 -5.74072 0
M  V30 927 H 90.032 -2.23042 -6.0734 0
M  V30 928 N 90.1641 1.46063 -0.591896 0
M  V30 929 C 91.3921 2.06717 -0.0868936 0
M  V30 930 C 91.8071 1.43916 1.22203 0
M  V30 931 O 91.1641 0.547698 1.74088 0
M  V30 932 C 91.2151 3.6142 0.0758725 0
M  V30 933 O 90.9361 4.21874 -1.18126 0
M  V30 934 C 92.4371 4.39025 0.61416 0
M  V30 935 H 89.6571 0.668162 -0.0616518 0
M  V30 936 H 92.2011 1.8755 -0.815175 0
M  V30 937 H 90.3561 3.79983 0.754413 0
M  V30 938 H 90.7701 5.14861 -1.00092 0
M  V30 939 H 92.2441 5.4783 0.677193 0
M  V30 940 H 92.7211 4.07708 1.63312 0
M  V30 941 H 93.3271 4.2529 -0.0298142 0
M  V30 942 N 91.6422 0.330177 1.54103 0
M  V30 943 C 93.0532 -0.15652 1.86043 0
M  V30 944 C 93.4042 -1.51086 1.2517 0
M  V30 945 O 92.5292 -2.09023 0.560217 0
M  V30 946 C 93.1242 -0.290784 3.3755 0
M  V30 947 C 91.6832 -0.721705 3.69416 0
M  V30 948 C 90.8302 0.152622 2.7688 0
M  V30 949 H 93.7812 0.550237 1.48856 0
M  V30 950 H 93.8022 -1.12058 3.63625 0
M  V30 951 H 93.3142 0.695068 3.81825 0
M  V30 952 H 91.4152 -1.71706 3.30678 0
M  V30 953 H 91.5282 -0.520869 4.7626 0
M  V30 954 H 89.8922 -0.372894 2.51956 0
M  V30 955 H 90.6752 1.13536 3.23982 0
M  V30 956 N 93.1203 -1.57491 0.0584922 0
M  V30 957 C 94.3453 -1.97711 -0.62652 0
M  V30 958 C 94.7703 -0.936132 -1.63151 0
M  V30 959 O 94.1283 0.099811 -1.81025 0
M  V30 960 C 94.1763 -3.36989 -1.28338 0
M  V30 961 O 93.2803 -3.35433 -2.39913 0
M  V30 962 H 92.6213 -0.643868 -0.162266 0
M  V30 963 H 95.1513 -2.04193 0.129064 0
M  V30 964 H 95.1613 -3.73879 -1.63335 0
M  V30 965 H 93.8363 -4.12289 -0.546889 0
M  V30 966 H 92.4133 -3.10298 -2.06809 0
M  V30 967 N 94.5984 0.214957 -1.56127 0
M  V30 968 C 95.8284 0.953707 -1.8327 0
M  V30 969 C 96.2364 1.78181 -0.636262 0
M  V30 970 O 95.5794 1.79191 0.404516 0
M  V30 971 C 95.6414 1.91516 -3.0424 0
M  V30 972 C 95.3054 1.27094 -4.38972 0
M  V30 973 C 96.3024 0.657575 -5.15725 0
M  V30 974 C 93.9874 1.28073 -4.85698 0
M  V30 975 C 95.9814 0.0625968 -6.37369 0
M  V30 976 C 93.6684 0.681914 -6.07283 0
M  V30 977 C 94.6664 0.0739046 -6.8296 0
M  V30 978 O 94.3544 -0.515582 -8.02245 0
M  V30 979 H 94.0864 0.284764 -0.613095 0
M  V30 980 H 96.6404 0.233283 -2.04071 0
M  V30 981 H 94.8704 2.67475 -2.79274 0
M  V30 982 H 96.5594 2.52001 -3.18198 0
M  V30 983 H 97.3254 0.642288 -4.80728 0
M  V30 984 H 93.2044 1.74337 -4.26764 0
M  V30 985 H 96.7484 -0.412593 -6.96379 0
M  V30 986 H 92.6454 0.694636 -6.41752 0
M  V30 987 H 93.4134 -0.410544 -8.1747 0
M  V30 988 N 96.0765 1.50051 0.48192 0
M  V30 989 C 97.3225 1.60736 1.2366 0
M  V30 990 C 97.6555 0.301786 1.91841 0
M  V30 991 O 96.9305 -0.696025 1.8162 0
M  V30 992 C 97.2135 2.78009 2.28874 0
M  V30 993 C 97.0665 4.18416 1.65069 0
M  V30 994 C 98.3855 2.90867 3.30279 0
M  V30 995 H 95.5045 0.585031 0.448228 0
M  V30 996 H 98.1465 1.82402 0.531946 0
M  V30 997 H 96.2965 2.59667 2.88973 0
M  V30 998 H 97.9685 4.48322 1.0865 0
M  V30 999 H 96.2115 4.23177 0.954148 0
M  V30 1000 H 96.8825 4.96381 2.41474 0
M  V30 1001 H 99.3585 3.07623 2.80191 0
M  V30 1002 H 98.2345 3.74566 4.01238 0
M  V30 1003 H 98.4955 2.01021 3.93755 0
M  V30 1004 N 97.5546 -0.734337 1.39446 0
M  V30 1005 C 98.5176 -1.83004 1.37994 0
M  V30 1006 C 99.5176 -1.58397 0.276938 0
M  V30 1007 O 100.708 -1.65785 0.534875 0
M  V30 1008 C 97.8396 -3.20802 1.1532 0
M  V30 1009 H 99.0326 -1.85694 2.35494 0
M  V30 1010 H 96.5856 -0.938059 1.25021 0
M  V30 1011 H 97.3206 -3.23772 0.185036 0
M  V30 1012 H 97.1056 -3.4006 1.95197 0
M  V30 1013 H 98.5956 -4.00862 1.17046 0
M  V30 1014 N 99.0327 -1.24633 -0.964593 0
M  V30 1015 C 100.28 -1.08788 -1.70796 0
M  V30 1016 C 100.608 0.372783 -1.90894 0
M  V30 1017 O 99.8627 1.29167 -1.47018 0
M  V30 1018 C 100.162 -1.7763 -3.10133 0
M  V30 1019 C 99.8277 -3.27557 -3.09866 0
M  V30 1020 C 98.4897 -3.6846 -3.09501 0
M  V30 1021 C 100.842 -4.23389 -3.03959 0
M  V30 1022 C 98.1697 -5.03624 -3.00965 0
M  V30 1023 C 100.522 -5.58565 -2.96965 0
M  V30 1024 C 99.1857 -5.98809 -2.9493 0
M  V30 1025 H 98.4557 -0.398084 -0.624988 0
M  V30 1026 H 101.103 -1.54777 -1.12767 0
M  V30 1027 H 99.4077 -1.24044 -3.71645 0
M  V30 1028 H 101.105 -1.62832 -3.66451 0
M  V30 1029 H 97.6947 -2.95006 -3.10917 0
M  V30 1030 H 101.879 -3.92787 -3.03368 0
M  V30 1031 H 97.1347 -5.33998 -2.97752 0
M  V30 1032 H 101.309 -6.32523 -2.91354 0
M  V30 1033 H 98.9357 -7.03505 -2.88071 0
M  V30 1034 N 100.511 1.16574 -1.06058 0
M  V30 1035 C 101.739 1.90952 -0.796552 0
M  V30 1036 C 102.154 1.77302 0.648808 0
M  V30 1037 O 101.511 1.11605 1.44397 0
M  V30 1038 C 101.562 3.41736 -1.17894 0
M  V30 1039 O 101.283 3.54975 -2.56758 0
M  V30 1040 C 102.784 4.33169 -0.942308 0
M  V30 1041 H 100.004 0.605594 -0.288959 0
M  V30 1042 H 102.548 1.47777 -1.41358 0
M  V30 1043 H 100.703 3.82623 -0.606491 0
M  V30 1044 H 101.117 4.4846 -2.72 0
M  V30 1045 H 102.591 5.37439 -1.25952 0
M  V30 1046 H 103.068 4.3903 0.122078 0
M  V30 1047 H 103.674 3.98007 -1.49902 0
M  V30 1048 N 101.989 0.842826 1.3317 0
M  V30 1049 C 103.4 0.496651 1.79973 0
M  V30 1050 C 103.751 -0.984641 1.69703 0
M  V30 1051 O 102.876 -1.76743 1.24863 0
M  V30 1052 C 103.471 0.894727 3.26772 0
M  V30 1053 C 102.03 0.600629 3.71577 0
M  V30 1054 C 101.177 1.10091 2.5451 0
M  V30 1055 H 104.128 1.03116 1.20635 0
M  V30 1056 H 104.149 0.206347 3.7994 0
M  V30 1057 H 103.661 1.97287 3.34215 0
M  V30 1058 H 101.762 -0.467284 3.69658 0
M  V30 1059 H 101.875 1.15863 4.64879 0
M  V30 1060 H 100.239 0.52162 2.49301 0
M  V30 1061 H 101.022 2.18591 2.64713 0
M  V30 1062 N 103.467 -1.45747 0.599634 0
M  V30 1063 C 104.377 -2.34262 -0.125888 0
M  V30 1064 C 105.393 -1.50768 -0.868625 0
M  V30 1065 O 106.569 -1.83592 -0.828003 0
M  V30 1066 C 103.634 -3.28252 -1.11587 0
M  V30 1067 C 102.695 -4.27651 -0.375956 0
M  V30 1068 C 101.928 -5.1715 -1.31877 0
M  V30 1069 O 102.151 -5.09916 -2.55621 0
M  V30 1070 O 101.085 -5.96286 -0.820157 0
M  V30 1071 H 104.911 -2.97688 0.601315 0
M  V30 1072 H 102.496 -1.44999 0.359934 0
M  V30 1073 H 104.378 -3.86191 -1.68626 0
M  V30 1074 H 103.053 -2.67401 -1.82424 0
M  V30 1075 H 101.96 -3.7335 0.236698 0
M  V30 1076 H 103.293 -4.91334 0.29177 0
M  V30 1077 N 104.945 -0.338344 -1.53925 0
M  V30 1078 C 106.193 0.259245 -2.0043 0
M  V30 1079 C 106.514 1.51484 -1.22791 0
M  V30 1080 O 105.784 1.93037 -0.33368 0
M  V30 1081 H 104.364 0.0987845 -0.740439 0
M  V30 1082 H 107.026 -0.458302 -1.89435 0
M  V30 1083 H 106.122 0.505334 -3.07982 0
M  V30 1084 N 106.423 1.57458 -0.0668435 0
M  V30 1085 C 107.333 2.15937 0.916975 0
M  V30 1086 C 108.349 1.12123 1.33058 0
M  V30 1087 O 109.525 1.44366 1.40429 0
M  V30 1088 C 106.59 2.70547 2.16807 0
M  V30 1089 C 105.651 3.89215 1.81135 0
M  V30 1090 C 104.884 4.41211 3.0028 0
M  V30 1091 O 105.107 3.92225 4.14144 0
M  V30 1092 O 104.041 5.32605 2.80384 0
M  V30 1093 H 107.867 3.00354 0.449561 0
M  V30 1094 H 105.452 1.48584 0.155949 0
M  V30 1095 H 107.334 3.0557 2.90181 0
M  V30 1096 H 106.009 1.89192 2.62656 0
M  V30 1097 H 104.916 3.59054 1.05028 0
M  V30 1098 H 106.249 4.71848 1.40073 0
M  V30 1099 N 107.901 -0.206675 1.56239 0
M  V30 1100 C 109.317 -0.557025 1.49564 0
M  V30 1101 C 109.517 -1.86424 0.764735 0
M  V30 1102 O 108.573 -2.50584 0.310491 0
M  V30 1103 C 109.886 -0.622478 2.94186 0
M  V30 1104 C 111.434 -0.712099 3.04792 0
M  V30 1105 C 111.909 -0.808767 4.50803 0
M  V30 1106 N 113.4 -0.8726 4.54907 0
M  V30 1107 C 114.135 -0.967365 5.65181 0
M  V30 1108 N 113.631 -1.02515 6.85173 0
M  V30 1109 N 115.424 -1.00366 5.53067 0
M  V30 1110 H 107.575 0.650943 2.02179 0
M  V30 1111 H 109.838 0.230387 0.919579 0
M  V30 1112 H 109.544 0.268727 3.50672 0
M  V30 1113 H 109.418 -1.4811 3.46905 0
M  V30 1114 H 111.805 -1.59374 2.48363 0
M  V30 1115 H 111.886 0.172489 2.55218 0
M  V30 1116 H 111.53 0.0684754 5.07854 0
M  V30 1117 H 111.46 -1.70899 4.98098 0
M  V30 1118 H 113.951 -0.837657 3.68499 0
M  V30 1119 H 114.264 -1.09765 7.64965 0
M  V30 1120 H 112.609 -0.994026 6.87855 0
M  V30 1121 H 115.8 -0.95527 4.58249 0
M  V30 1122 H 115.973 -1.07405 6.39037 0
M  V30 1123 N 109.379 -1.50304 -0.473955 0
M  V30 1124 C 110.309 -1.71886 -1.58042 0
M  V30 1125 C 111.29 -0.567799 -1.60344 0
M  V30 1126 O 112.475 -0.806623 -1.76656 0
M  V30 1127 C 109.605 -1.81036 -2.96384 0
M  V30 1128 C 108.559 -2.962 -3.08949 0
M  V30 1129 C 107.885 -2.9049 -4.48909 0
M  V30 1130 C 109.185 -4.36752 -2.86434 0
M  V30 1131 H 110.879 -2.64527 -1.40234 0
M  V30 1132 H 108.425 -1.27295 -0.673201 0
M  V30 1133 H 110.378 -1.94719 -3.73714 0
M  V30 1134 H 109.102 -0.850147 -3.15341 0
M  V30 1135 H 107.761 -2.82164 -2.3405 0
M  V30 1136 H 107.409 -1.92321 -4.64781 0
M  V30 1137 H 107.109 -3.67802 -4.58253 0
M  V30 1138 H 108.633 -3.06218 -5.28264 0
M  V30 1139 H 110.047 -4.5133 -3.53517 0
M  V30 1140 H 108.444 -5.15493 -3.07225 0
M  V30 1141 H 109.514 -4.49321 -1.82316 0
M  V30 1142 N 110.857 0.726932 -1.39834 0
M  V30 1143 C 112.106 1.48214 -1.36805 0
M  V30 1144 C 112.419 1.95576 0.0305291 0
M  V30 1145 O 113.625 2.7088 0.183417 0
M  V30 1146 C 112.081 2.67854 -2.40379 0
M  V30 1147 C 111.689 2.27408 -3.85992 0
M  V30 1148 C 113.433 3.45641 -2.46439 0
M  V30 1149 C 111.34 3.43819 -4.81189 0
M  V30 1150 H 110.27 0.556606 -0.508631 0
M  V30 1151 H 112.921 0.792216 -1.65518 0
M  V30 1152 H 111.303 3.3896 -2.04749 0
M  V30 1153 H 112.477 1.63795 -4.30706 0
M  V30 1154 H 110.792 1.62692 -3.83302 0
M  V30 1155 H 113.389 4.32244 -3.14753 0
M  V30 1156 H 113.732 3.88669 -1.49139 0
M  V30 1157 H 114.265 2.8157 -2.81004 0
M  V30 1158 H 111.004 3.05834 -5.79781 0
M  V30 1159 H 110.524 4.06385 -4.41148 0
M  V30 1160 H 112.203 4.10043 -5.00474 0
M  V30 1161 N 112.336 1.25143 0.95797 0
M  V30 1162 C 113.584 1.09476 1.69881 0
M  V30 1163 C 113.905 -0.365502 1.91544 0
M  V30 1164 O 113.175 -1.25985 1.50015 0
M  V30 1165 H 111.755 0.402128 0.629525 0
M  V30 1166 H 114.417 1.57214 1.15194 0
M  V30 1167 H 113.513 1.60046 2.6794 0
M  V30 1168 N 113.814 -1.1601 1.06675 0
M  V30 1169 C 115.091 -1.82679 0.699114 0
M  V30 1170 C 115.471 -1.94559 -0.819137 0
M  V30 1171 O 114.819 -1.49169 -1.73092 0
M  V30 1172 C 115.029 -3.19445 1.40555 0
M  V30 1173 C 116.377 -3.95171 1.55323 0
M  V30 1174 O 117.401 -3.28976 1.36577 0
M  V30 1175 O 116.26 -5.13833 1.86112 0
M  V30 1176 H 113.354 -0.788954 0.247951 0
M  V30 1177 H 115.9 -1.23179 1.16726 0
M  V30 1178 H 114.672 -3.05856 2.44065 0
M  V30 1179 H 114.295 -3.86625 0.927733 0
M  V30 1180 N 115.292 -0.849877 -1.32721 0
M  V30 1181 C 116.255 -0.296122 -2.27279 0
M  V30 1182 C 117.255 0.541458 -1.5141 0
M  V30 1183 O 118.445 0.353658 -1.70572 0
M  V30 1184 C 115.577 0.581579 -3.35902 0
M  V30 1185 H 116.77 -1.13064 -2.77771 0
M  V30 1186 H 114.323 -0.62383 -1.43311 0
M  V30 1187 H 115.058 1.43809 -2.9067 0
M  V30 1188 H 114.843 -0.0178814 -3.92096 0
M  V30 1189 H 116.333 0.961951 -4.0637 0
M  V30 1190 N 116.77 1.45427 -0.607355 0
M  V30 1191 C 117.733 2.28974 0.101693 0
M  V30 1192 C 118.733 1.39754 0.795329 0
M  V30 1193 O 119.923 1.61878 0.643527 0
M  V30 1194 C 117.055 3.20768 1.15414 0
M  V30 1195 H 118.248 2.93147 -0.632844 0
M  V30 1196 H 115.801 1.51945 -0.366391 0
M  V30 1197 H 116.536 2.61395 1.91945 0
M  V30 1198 H 116.321 3.86489 0.66098 0
M  V30 1199 H 117.811 3.83589 1.65073 0
M  V30 1200 N 118.248 0.346503 1.53744 0
M  V30 1201 C 119.195 -0.508914 2.25119 0
M  V30 1202 C 120.165 -1.09315 1.25058 0
M  V30 1203 O 121.35 -1.12921 1.53797 0
M  V30 1204 C 118.49 -1.65246 3.02965 0
M  V30 1205 C 117.603 -1.09525 4.17886 0
M  V30 1206 C 116.738 -2.20634 4.83212 0
M  V30 1207 C 115.777 -1.62279 5.90196 0
M  V30 1208 N 114.914 -2.67143 6.49291 0
M  V30 1209 H 119.754 0.106283 2.9781 0
M  V30 1210 H 117.291 0.0642227 1.4696 0
M  V30 1211 H 119.249 -2.32574 3.4636 0
M  V30 1212 H 117.879 -2.2386 2.32565 0
M  V30 1213 H 116.931 -0.312818 3.79112 0
M  V30 1214 H 118.243 -0.628444 4.94825 0
M  V30 1215 H 117.397 -2.95821 5.29693 0
M  V30 1216 H 116.136 -2.70659 4.05703 0
M  V30 1217 H 115.141 -0.855989 5.43096 0
M  V30 1218 H 116.366 -1.13102 6.69615 0
M  V30 1219 H 114.312 -3.16417 5.74645 0
M  V30 1220 H 114.229 -2.25093 7.21713 0
M  V30 1221 H 115.497 -3.4209 7.00425 0
M  V30 1222 N 119.726 -1.57421 0.075193 0
M  V30 1223 C 120.674 -2.14124 -0.908508 0
M  V30 1224 C 121.668 -1.07898 -1.30592 0
M  V30 1225 O 122.874 -1.26273 -1.28277 0
M  V30 1226 H 119.249 -0.684707 -0.310935 0
M  V30 1227 H 121.22 -2.95634 -0.405374 0
M  V30 1228 C 119.969 -2.72044 -2.16535 0
M  V30 1229 H 119.292 -3.53456 -1.86839 0
M  V30 1230 H 120.732 -3.15311 -2.83469 0
M  V30 1231 C 119.191 -1.66968 -2.92615 0
M  V30 1232 O 119.721 -1.0967 -3.86439 0
M  V30 1233 N 117.927 -1.37923 -2.55784 0
M  V30 1234 H 117.474 -1.84706 -1.79559 0
M  V30 1235 H 117.432 -0.67852 -3.06991 0
M  V30 1236 N 121.204 0.198386 -1.56346 0
M  V30 1237 C 122.136 1.26987 -1.90806 0
M  V30 1238 C 123.149 1.41877 -0.798419 0
M  V30 1239 O 124.338 1.42362 -1.07682 0
M  V30 1240 C 121.438 2.64246 -2.12196 0
M  V30 1241 C 120.611 2.71007 -3.43328 0
M  V30 1242 C 119.67 3.89439 -3.5387 0
M  V30 1243 O 118.696 3.76695 -4.26719 0
M  V30 1244 N 119.898 5.04752 -2.86715 0
M  V30 1245 H 122.663 0.977433 -2.83313 0
M  V30 1246 H 120.224 0.388322 -1.57174 0
M  V30 1247 H 122.216 3.41896 -2.1654 0
M  V30 1248 H 120.786 2.85992 -1.26204 0
M  V30 1249 H 120.006 1.79657 -3.50881 0
M  V30 1250 H 121.294 2.72512 -4.29668 0
M  V30 1251 H 120.692 5.18004 -2.2735 0
M  V30 1252 H 119.249 5.8036 -2.96691 0
M  V30 1253 N 122.682 1.50554 0.465978 0
M  V30 1254 C 123.612 1.72722 1.57128 0
M  V30 1255 C 124.593 0.576294 1.6004 0
M  V30 1256 O 125.778 0.81598 1.76225 0
M  V30 1257 C 122.908 1.82605 2.95419 0
M  V30 1258 C 121.862 2.97835 3.07373 0
M  V30 1259 C 121.188 2.92867 4.47363 0
M  V30 1260 C 122.488 4.38265 2.84114 0
M  V30 1261 H 124.182 2.65267 1.38829 0
M  V30 1262 H 121.728 1.2765 0.666441 0
M  V30 1263 H 123.681 1.96698 3.72677 0
M  V30 1264 H 122.405 0.866858 3.14886 0
M  V30 1265 H 121.064 2.83401 2.3255 0
M  V30 1266 H 120.712 1.94783 4.63755 0
M  V30 1267 H 120.412 3.70227 4.56296 0
M  V30 1268 H 121.936 3.09015 5.26633 0
M  V30 1269 H 123.35 4.53198 3.51118 0
M  V30 1270 H 121.747 5.17115 3.04487 0
M  V30 1271 H 122.817 4.50281 1.7993 0
M  V30 1272 N 124.16 -0.719506 1.40217 0
M  V30 1273 C 125.388 -1.50864 1.41589 0
M  V30 1274 C 125.803 -1.88794 0.0145275 0
M  V30 1275 O 125.16 -1.55174 -0.960594 0
M  V30 1276 C 125.211 -2.78646 2.30302 0
M  V30 1277 O 124.932 -2.42321 3.64983 0
M  V30 1278 C 126.433 -3.72569 2.40224 0
M  V30 1279 H 123.653 -0.465709 0.48307 0
M  V30 1280 H 126.197 -0.88785 1.84221 0
M  V30 1281 H 124.352 -3.37019 1.91042 0
M  V30 1282 H 124.766 -3.24514 4.12057 0
M  V30 1283 H 126.24 -4.5908 3.06512 0
M  V30 1284 H 126.717 -4.15403 1.42608 0
M  V30 1285 H 127.323 -3.20109 2.80019 0
M  V30 1286 N 125.638 -1.25649 -0.95132 0
M  V30 1287 C 126.863 -1.13443 -1.73624 0
M  V30 1288 C 127.288 0.307565 -1.85568 0
M  V30 1289 O 126.646 1.22282 -1.33854 0
M  V30 1290 C 126.694 -1.79723 -3.12621 0
M  V30 1291 O 125.798 -1.07912 -3.98031 0
M  V30 1292 H 125.139 -0.395872 -0.533086 0
M  V30 1293 H 127.669 -1.66276 -1.1922 0
M  V30 1294 H 127.679 -1.86141 -3.63064 0
M  V30 1295 H 126.354 -2.84633 -3.03244 0
M  V30 1296 H 124.931 -1.09398 -3.56492 0
M  V30 1297 N 127.117 1.15442 -1.07289 0
M  V30 1298 C 128.065 2.22225 -0.686952 0
M  V30 1299 C 129.059 1.66688 0.30193 0
M  V30 1300 O 130.265 1.79236 0.165712 0
M  V30 1301 H 126.64 0.723783 -0.204064 0
M  V30 1302 H 128.611 2.52056 -1.5972 0
M  V30 1303 C 127.36 3.47556 -0.100149 0
M  V30 1304 H 126.683 3.90612 -0.852211 0
M  V30 1305 H 128.123 4.23794 0.132235 0
M  V30 1306 C 126.582 3.16337 1.159 0
M  V30 1307 O 127.112 3.33074 2.24555 0
M  V30 1308 N 125.318 2.70385 1.06491 0
M  V30 1309 H 124.865 2.56966 0.180668 0
M  V30 1310 H 124.823 2.49871 1.90819 0
M  V30 1311 N 128.595 0.856903 1.32268 0
M  V30 1312 C 130.006 0.515711 1.79436 0
M  V30 1313 C 130.357 -0.966586 1.70738 0
M  V30 1314 O 129.482 -1.75409 1.26731 0
M  V30 1315 C 130.077 0.929335 3.25805 0
M  V30 1316 C 128.636 0.640006 3.70919 0
M  V30 1317 C 127.783 1.12784 2.53328 0
M  V30 1318 H 130.734 1.04389 1.19535 0
M  V30 1319 H 130.755 0.246633 3.797 0
M  V30 1320 H 130.267 2.00821 3.32103 0
M  V30 1321 H 128.368 -0.428051 3.70133 0
M  V30 1322 H 128.481 1.20788 4.63624 0
M  V30 1323 H 126.845 0.548033 2.48734 0
M  V30 1324 H 127.628 2.21387 2.62379 0
M  V30 1325 N 130.073 -1.45103 0.615059 0
M  V30 1326 C 130.983 -2.34382 -0.101034 0
M  V30 1327 C 131.999 -1.51681 -0.852585 0
M  V30 1328 O 133.175 -1.8446 -0.808484 0
M  V30 1329 C 130.24 -3.29417 -1.08099 0
M  V30 1330 C 129.301 -4.28025 -0.330577 0
M  V30 1331 C 128.534 -5.1852 -1.26385 0
M  V30 1332 O 128.757 -5.12598 -2.50198 0
M  V30 1333 O 127.691 -5.97122 -0.756866 0
M  V30 1334 H 131.517 -2.97033 0.632855 0
M  V30 1335 H 129.102 -1.4461 0.375293 0
M  V30 1336 H 130.984 -3.87958 -1.6452 0
M  V30 1337 H 129.659 -2.69321 -1.79577 0
M  V30 1338 H 128.566 -3.73078 0.276283 0
M  V30 1339 H 129.899 -4.90997 0.343866 0
M  V30 1340 N 131.551 -0.354651 -1.53558 0
M  V30 1341 C 132.499 0.512195 -2.26891 0
M  V30 1342 C 133.493 1.09263 -1.29452 0
M  V30 1343 O 134.699 1.03709 -1.47121 0
M  V30 1344 H 131.074 0.183878 -0.729173 0
M  V30 1345 H 133.045 -0.128202 -2.98124 0
M  V30 1346 C 131.794 1.64563 -3.06291 0
M  V30 1347 H 131.117 1.20829 -3.81104 0
M  V30 1348 H 132.557 2.22711 -3.60799 0
M  V30 1349 C 131.016 2.58158 -2.16462 0
M  V30 1350 O 131.546 3.60695 -1.76811 0
M  V30 1351 N 129.752 2.27096 -1.81317 0
M  V30 1352 H 129.299 1.43751 -2.1376 0
M  V30 1353 H 129.257 2.89975 -1.21498 0
M  V30 1354 N 133.029 1.57378 -0.0835403 0
M  V30 1355 C 134.257 1.98263 0.59157 0
M  V30 1356 C 134.672 0.962302 1.62435 0
M  V30 1357 O 134.029 -0.049581 1.82433 0
M  V30 1358 C 134.08 3.39214 1.24965 0
M  V30 1359 O 133.801 4.37339 0.258186 0
M  V30 1360 C 135.302 3.95038 2.01147 0
M  V30 1361 H 132.522 0.651773 0.159477 0
M  V30 1362 H 135.066 2.03878 -0.159415 0
M  V30 1363 H 133.221 3.34649 1.95164 0
M  V30 1364 H 133.635 5.19371 0.731734 0
M  V30 1365 H 135.109 4.95848 2.42567 0
M  V30 1366 H 135.586 3.32222 2.87272 0
M  V30 1367 H 136.192 4.0304 1.35789 0
M  V30 1368 N 134.507 -0.190092 1.56449 0
M  V30 1369 C 135.753 -0.911052 1.81184 0
M  V30 1370 C 136.086 -1.82699 0.658396 0
M  V30 1371 O 135.361 -1.91491 -0.340775 0
M  V30 1372 C 135.644 -1.72297 3.16205 0
M  V30 1373 C 135.497 -0.831419 4.42049 0
M  V30 1374 C 136.816 -2.69454 3.47969 0
M  V30 1375 H 133.935 -0.32977 0.659106 0
M  V30 1376 H 136.577 -0.178169 1.89163 0
M  V30 1377 H 134.727 -2.34778 3.09534 0
M  V30 1378 H 136.399 -0.220929 4.60771 0
M  V30 1379 H 134.642 -0.138406 4.33579 0
M  V30 1380 H 135.313 -1.43461 5.33032 0
M  V30 1381 H 137.789 -2.17104 3.54972 0
M  V30 1382 H 136.665 -3.23342 4.43555 0
M  V30 1383 H 136.926 -3.48744 2.71717 0
M  V30 1384 N 135.985 -1.50799 -0.457987 0
M  V30 1385 C 137.232 -1.62442 -1.20908 0
M  V30 1386 C 137.56 -0.330865 -1.91665 0
M  V30 1387 O 136.815 0.68401 -1.83357 0
M  V30 1388 C 137.114 -2.76358 -2.2663 0
M  V30 1389 C 136.78 -4.16378 -1.73033 0
M  V30 1390 C 135.442 -4.54473 -1.58138 0
M  V30 1391 C 137.794 -5.03836 -1.33413 0
M  V30 1392 C 135.122 -5.77754 -1.02065 0
M  V30 1393 C 137.474 -6.27676 -0.78778 0
M  V30 1394 C 136.138 -6.64562 -0.625561 0
M  V30 1395 H 135.408 -0.594417 -0.442435 0
M  V30 1396 H 138.055 -1.84772 -0.503136 0
M  V30 1397 H 136.36 -2.48167 -3.03184 0
M  V30 1398 H 138.057 -2.82568 -2.84528 0
M  V30 1399 H 134.647 -3.86331 -1.85598 0
M  V30 1400 H 138.831 -4.75026 -1.4375 0
M  V30 1401 H 134.087 -6.04997 -0.882547 0
M  V30 1402 H 138.261 -6.94797 -0.472177 0
M  V30 1403 H 135.888 -7.59965 -0.188926 0
M  V30 1404 N 137.463 0.71206 -1.40597 0
M  V30 1405 C 138.74 1.46536 -1.29563 0
M  V30 1406 C 139.12 2.10931 0.0844217 0
M  V30 1407 O 138.468 2.00418 1.0975 0
M  V30 1408 C 138.678 2.49821 -2.43701 0
M  V30 1409 C 140.026 3.15551 -2.841 0
M  V30 1410 O 141.05 2.60142 -2.4332 0
M  V30 1411 O 139.909 4.15867 -3.54566 0
M  V30 1412 H 137.003 0.651801 -0.509004 0
M  V30 1413 H 139.549 0.743935 -1.52524 0
M  V30 1414 H 138.321 2.00778 -3.35863 0
M  V30 1415 H 137.944 3.29495 -2.22528 0
M  V30 1416 N 138.941 1.26152 0.944643 0
M  V30 1417 C 139.904 1.07474 2.0244 0
M  V30 1418 C 140.904 0.0242064 1.60782 0
M  V30 1419 O 142.094 0.267302 1.72137 0
M  V30 1420 C 139.226 0.633956 3.34953 0
M  V30 1421 H 140.419 2.03336 2.20442 0
M  V30 1422 H 137.972 1.087 1.12312 0
M  V30 1423 H 138.707 -0.326811 3.22649 0
M  V30 1424 H 138.492 1.39247 3.66542 0
M  V30 1425 H 139.982 0.52501 4.14287 0
M  V30 1426 N 140.419 -1.14872 1.07899 0
M  V30 1427 C 141.366 -2.19791 0.704319 0
M  V30 1428 C 142.336 -1.63238 -0.306987 0
M  V30 1429 O 143.521 -1.8983 -0.192171 0
M  V30 1430 C 140.661 -3.44911 0.114244 0
M  V30 1431 C 139.774 -4.15637 1.1777 0
M  V30 1432 C 138.909 -5.28324 0.552037 0
M  V30 1433 C 137.948 -5.90875 1.59789 0
M  V30 1434 N 137.085 -6.95022 0.994404 0
M  V30 1435 H 141.925 -2.5119 1.60336 0
M  V30 1436 H 139.462 -1.23356 0.801352 0
M  V30 1437 H 141.42 -4.16477 -0.245544 0
M  V30 1438 H 140.05 -3.14011 -0.74813 0
M  V30 1439 H 139.102 -3.42512 1.65499 0
M  V30 1440 H 140.414 -4.5823 1.97046 0
M  V30 1441 H 139.568 -6.06538 0.1402 0
M  V30 1442 H 138.307 -4.86939 -0.272431 0
M  V30 1443 H 137.312 -5.11369 2.01945 0
M  V30 1444 H 138.537 -6.34337 2.42474 0
M  V30 1445 H 136.483 -6.55722 0.190939 0
M  V30 1446 H 136.4 -7.36073 1.72432 0
M  V30 1447 H 137.668 -7.77123 0.608253 0
M  V30 1448 N 141.898 -0.863906 -1.31812 0
M  V30 1449 C 143.314 -0.555004 -1.49639 0
M  V30 1450 C 143.514 0.912266 -1.79666 0
M  V30 1451 O 142.57 1.69479 -1.87171 0
M  V30 1452 C 143.883 -1.44998 -2.63431 0
M  V30 1453 C 145.431 -1.45138 -2.77316 0
M  V30 1454 C 145.906 -2.33179 -3.94197 0
M  V30 1455 N 147.397 -2.31025 -4.01474 0
M  V30 1456 C 148.132 -2.95871 -4.9117 0
M  V30 1457 N 147.628 -3.69863 -5.8581 0
M  V30 1458 N 149.421 -2.85211 -4.84367 0
M  V30 1459 H 141.572 -1.81339 -1.10589 0
M  V30 1460 H 143.835 -0.77505 -0.545895 0
M  V30 1461 H 143.541 -2.49377 -2.48 0
M  V30 1462 H 143.415 -1.14409 -3.59431 0
M  V30 1463 H 145.802 -0.415201 -2.92164 0
M  V30 1464 H 145.883 -1.79747 -1.82001 0
M  V30 1465 H 145.527 -3.3687 -3.80107 0
M  V30 1466 H 145.457 -1.95897 -4.88807 0
M  V30 1467 H 147.948 -1.77238 -3.33759 0
M  V30 1468 H 148.261 -4.16486 -6.50968 0
M  V30 1469 H 146.606 -3.73971 -5.85808 0
M  V30 1470 H 149.797 -2.26948 -4.09405 0
M  V30 1471 H 149.97 -3.36027 -5.54066 0
M  V30 1472 N 143.376 1.44774 -0.622745 0
M  V30 1473 C 144.306 2.33382 0.0741861 0
M  V30 1474 C 145.287 1.47719 0.843387 0
M  V30 1475 O 146.472 1.76458 0.810934 0
M  V30 1476 C 143.602 3.30663 1.06204 0
M  V30 1477 C 142.556 4.26079 0.405037 0
M  V30 1478 C 141.882 5.13165 1.5022 0
M  V30 1479 C 143.182 5.1781 -0.683414 0
M  V30 1480 H 144.876 2.91905 -0.665713 0
M  V30 1481 H 142.422 1.40363 -0.321587 0
M  V30 1482 H 144.375 3.9153 1.55827 0
M  V30 1483 H 143.099 2.70331 1.83272 0
M  V30 1484 H 141.758 3.66532 -0.0704683 0
M  V30 1485 H 141.406 4.49191 2.26355 0
M  V30 1486 H 141.106 5.77812 1.06803 0
M  V30 1487 H 142.63 5.76902 2.00041 0
M  V30 1488 H 144.044 5.72661 -0.270631 0
M  V30 1489 H 142.441 5.91015 -1.04023 0
M  V30 1490 H 143.511 4.59326 -1.55395 0
M  V30 1491 N 144.854 0.36279 1.53368 0
M  V30 1492 C 146.103 -0.22888 2.00397 0
M  V30 1493 C 146.416 -1.50096 1.25421 0
M  V30 1494 O 147.622 -2.17106 1.63025 0
M  V30 1495 C 146.078 -0.458417 3.56969 0
M  V30 1496 C 145.686 0.798877 4.4082 0
M  V30 1497 C 147.43 -1.00789 4.12361 0
M  V30 1498 C 145.337 0.539078 5.88938 0
M  V30 1499 H 144.267 -0.089305 0.748693 0
M  V30 1500 H 146.918 0.481099 1.77081 0
M  V30 1501 H 145.3 -1.22959 3.76427 0
M  V30 1502 H 146.474 1.57262 4.33134 0
M  V30 1503 H 144.789 1.27137 3.96516 0
M  V30 1504 H 147.386 -1.21754 5.20653 0
M  V30 1505 H 147.729 -1.9692 3.66781 0
M  V30 1506 H 148.262 -0.296961 3.9669 0
M  V30 1507 H 145.001 1.47064 6.3879 0
M  V30 1508 H 144.521 -0.196222 5.99479 0
M  V30 1509 H 146.2 0.163542 6.46793 0
M  V30 1510 N 146.332 -1.57332 0.0918853 0
M  V30 1511 C 147.58 -1.93853 -0.571446 0
M  V30 1512 C 147.901 -0.974212 -1.6892 0
M  V30 1513 O 147.171 -0.0257254 -1.95883 0
M  V30 1514 H 145.751 -0.715666 -0.214082 0
M  V30 1515 H 148.413 -1.94287 0.154464 0
M  V30 1516 H 147.509 -2.96191 -0.983729 0
M  V30 1517 N 147.81 0.181792 -1.56548 0
M  V30 1518 C 149.226 0.53316 -1.50431 0
M  V30 1519 C 149.426 1.85184 -0.794297 0
M  V30 1520 O 148.482 2.50058 -0.350318 0
M  V30 1521 C 149.795 0.575597 -2.9514 0
M  V30 1522 C 151.343 0.663519 -3.05886 0
M  V30 1523 C 151.818 0.736946 -4.52032 0
M  V30 1524 N 153.309 0.800118 -4.56237 0
M  V30 1525 C 154.044 0.877327 -5.66649 0
M  V30 1526 N 153.54 0.916016 -6.86718 0
M  V30 1527 N 155.333 0.915542 -5.54594 0
M  V30 1528 H 147.484 -0.683025 -2.01118 0
M  V30 1529 H 149.747 -0.244988 -0.915797 0
M  V30 1530 H 149.453 -0.324482 -3.502 0
M  V30 1531 H 149.327 1.42572 -3.49218 0
M  V30 1532 H 151.714 1.55403 -2.50867 0
M  V30 1533 H 151.795 -0.21307 -2.54911 0
M  V30 1534 H 151.439 -0.149262 -5.07681 0
M  V30 1535 H 151.369 1.62953 -5.00753 0
M  V30 1536 H 153.86 0.778926 -3.69785 0
M  V30 1537 H 154.173 0.975813 -7.66614 0
M  V30 1538 H 152.518 0.884469 -6.89349 0
M  V30 1539 H 155.709 0.882245 -4.59711 0
M  V30 1540 H 155.882 0.972253 -6.40665 0
M  V30 1541 N 149.288 1.51039 0.449983 0
M  V30 1542 C 150.516 1.66869 1.2232 0
M  V30 1543 C 150.931 0.360727 1.85322 0
M  V30 1544 O 150.288 -0.659531 1.70166 0
M  V30 1545 C 150.339 2.77524 2.31652 0
M  V30 1546 O 150.06 4.03252 1.7123 0
M  V30 1547 C 151.561 3.04512 3.2216 0
M  V30 1548 H 148.781 0.560326 0.369155 0
M  V30 1549 H 151.325 1.97385 0.534719 0
M  V30 1550 H 149.48 2.49642 2.96239 0
M  V30 1551 H 149.894 4.64609 2.43389 0
M  V30 1552 H 151.368 3.85551 3.95038 0
M  V30 1553 H 151.845 2.16415 3.8218 0
M  V30 1554 H 152.451 3.34005 2.63288 0
M  V30 1555 N 150.766 -0.704594 1.40972 0
M  V30 1556 C 152.012 -1.46546 1.41053 0
M  V30 1557 C 152.367 -1.92393 0.0159714 0
M  V30 1558 O 151.66 -1.66017 -0.956506 0
M  V30 1559 C 151.854 -2.698 2.34399 0
M  V30 1560 C 151.683 -2.36008 3.82793 0
M  V30 1561 C 150.453 -2.26812 4.51536 0
M  V30 1562 C 152.651 -1.99565 4.74003 0
M  V30 1563 N 150.633 -1.8581 5.85105 0
M  V30 1564 C 152.004 -1.69251 5.96451 0
M  V30 1565 C 154.059 -1.86296 4.61734 0
M  V30 1566 C 152.762 -1.27003 7.07999 0
M  V30 1567 C 154.788 -1.45452 5.73234 0
M  V30 1568 C 154.15 -1.16043 6.94776 0
M  V30 1569 H 150.249 -0.533896 0.571383 0
M  V30 1570 H 152.833 -0.816061 1.76773 0
M  V30 1571 H 151.004 -3.32473 2.00789 0
M  V30 1572 H 152.736 -3.36214 2.25261 0
M  V30 1573 H 149.491 -2.44913 4.05357 0
M  V30 1574 H 149.915 -1.67817 6.55871 0
M  V30 1575 H 154.557 -2.0769 3.68273 0
M  V30 1576 H 152.275 -1.04353 8.01334 0
M  V30 1577 H 155.861 -1.35748 5.65742 0
M  V30 1578 H 154.741 -0.84915 7.79589 0
M  V30 1579 N 152.244 -1.26651 -0.937939 0
M  V30 1580 C 153.192 -1.08308 -2.05845 0
M  V30 1581 C 154.186 -0.0090757 -1.69398 0
M  V30 1582 O 155.392 -0.166007 -1.79233 0
M  V30 1583 H 151.767 -0.333416 -0.674046 0
M  V30 1584 H 153.738 -2.03261 -2.18467 0
M  V30 1585 C 152.487 -0.736229 -3.39816 0
M  V30 1586 H 151.81 -1.55453 -3.6834 0
M  V30 1587 H 153.25 -0.64769 -4.19024 0
M  V30 1588 C 151.709 0.558824 -3.32233 0
M  V30 1589 O 152.239 1.59621 -3.68624 0
M  V30 1590 N 150.445 0.550657 -2.85335 0
M  V30 1591 H 149.992 -0.293943 -2.55917 0
M  V30 1592 H 149.95 1.41726 -2.80644 0
M  V30 1593 N 153.722 1.14298 -1.08507 0
M  V30 1594 C 154.999 1.81544 -0.728088 0
M  V30 1595 C 155.379 1.95838 0.78808 0
M  V30 1596 O 154.727 1.51904 1.70697 0
M  V30 1597 C 154.937 3.17169 -1.45619 0
M  V30 1598 C 156.285 3.9265 -1.61591 0
M  V30 1599 O 157.309 3.26762 -1.41793 0
M  V30 1600 O 156.168 5.10807 -1.94263 0
M  V30 1601 H 153.262 0.78491 -0.260471 0
M  V30 1602 H 155.808 1.21307 -1.18671 0
M  V30 1603 H 154.58 3.01934 -2.489 0
M  V30 1604 H 154.203 3.851 -0.989124 0
M  V30 1605 N 155.201 0.870884 1.31352 0
M  V30 1606 C 156.612 0.534714 1.78879 0
M  V30 1607 C 156.963 -0.948423 1.71754 0
M  V30 1608 O 156.088 -1.74055 1.28584 0
M  V30 1609 C 156.683 0.963839 3.24801 0
M  V30 1610 C 155.242 0.679311 3.70219 0
M  V30 1611 C 154.389 1.15465 2.52117 0
M  V30 1612 H 157.34 1.05651 1.18421 0
M  V30 1613 H 157.361 0.286892 3.79417 0
M  V30 1614 H 156.873 2.04332 3.29955 0
M  V30 1615 H 154.974 -0.388769 3.70566 0
M  V30 1616 H 155.087 1.25698 4.62317 0
M  V30 1617 H 153.451 0.574383 2.48139 0
M  V30 1618 H 154.234 2.24157 2.60016 0
M  V30 1619 N 156.679 -1.44442 0.630414 0
M  V30 1620 C 157.904 -2.06927 0.139944 0
M  V30 1621 C 158.329 -1.46795 -1.17613 0
M  V30 1622 O 157.687 -0.569144 -1.72135 0
M  V30 1623 C 157.735 -3.6058 0.0379581 0
M  V30 1624 O 156.839 -3.99937 -1.0062 0
M  V30 1625 H 156.18 -0.658608 0.0844483 0
M  V30 1626 H 158.71 -1.85327 0.866891 0
M  V30 1627 H 158.72 -4.07714 -0.152856 0
M  V30 1628 H 157.395 -4.03728 0.998809 0
M  V30 1629 H 155.972 -3.64436 -0.79001 0
M  V30 1630 N 158.157 -0.370918 -1.53173 0
M  V30 1631 C 159.403 0.217423 -2.01631 0
M  V30 1632 C 159.736 1.47983 -1.25756 0
M  V30 1633 O 159.011 1.91274 -0.352764 0
M  V30 1634 C 159.294 0.503982 -3.56556 0
M  V30 1635 C 159.147 -0.77243 -4.43118 0
M  V30 1636 C 160.466 1.30234 -4.20389 0
M  V30 1637 H 157.585 0.0775486 -0.732909 0
M  V30 1638 H 160.227 -0.496863 -1.83388 0
M  V30 1639 H 158.377 1.11248 -3.72231 0
M  V30 1640 H 160.049 -1.4098 -4.39229 0
M  V30 1641 H 158.292 -1.39167 -4.10871 0
M  V30 1642 H 158.963 -0.526815 -5.4948 0
M  V30 1643 H 161.439 0.787546 -4.08579 0
M  V30 1644 H 160.315 1.47158 -5.28806 0
M  V30 1645 H 160.576 2.31237 -3.76805 0
M  V30 1646 N 159.635 1.57281 -0.100228 0
M  V30 1647 C 160.567 2.11342 0.886972 0
M  V30 1648 C 161.58 1.05182 1.24261 0
M  V30 1649 O 162.769 1.32613 1.19483 0
M  V30 1650 C 159.869 2.5825 2.19454 0
M  V30 1651 C 159.042 3.88302 2.01346 0
M  V30 1652 C 158.101 4.21004 3.15661 0
M  V30 1653 O 157.127 4.9014 2.89398 0
M  V30 1654 N 158.329 3.76818 4.41575 0
M  V30 1655 H 161.094 2.96668 0.425216 0
M  V30 1656 H 158.655 1.61678 0.0847334 0
M  V30 1657 H 160.647 2.7717 2.94888 0
M  V30 1658 H 159.217 1.77907 2.57037 0
M  V30 1659 H 158.437 3.7848 1.10212 0
M  V30 1660 H 159.725 4.73375 1.8653 0
M  V30 1661 H 159.123 3.2102 4.65792 0
M  V30 1662 H 157.68 4.00882 5.13942 0
M  V30 1663 N 161.113 -0.173488 1.56642 0
M  V30 1664 C 162.045 -1.23935 1.92802 0
M  V30 1665 C 163.058 -1.40589 0.820889 0
M  V30 1666 O 164.247 -1.40631 1.09933 0
M  V30 1667 C 161.347 -2.60837 2.16373 0
M  V30 1668 C 160.52 -2.6551 3.47596 0
M  V30 1669 C 159.579 -3.8376 3.60021 0
M  V30 1670 O 158.605 -3.69859 4.32658 0
M  V30 1671 N 159.807 -5.00127 2.94709 0
M  V30 1672 H 162.572 -0.932236 2.84832 0
M  V30 1673 H 160.133 -0.363268 1.57772 0
M  V30 1674 H 162.125 -3.38407 2.21952 0
M  V30 1675 H 160.695 -2.83948 1.30738 0
M  V30 1676 H 159.915 -1.74052 3.53694 0
M  V30 1677 H 161.203 -2.65641 4.33949 0
M  V30 1678 H 160.601 -5.14322 2.35563 0
M  V30 1679 H 159.158 -5.75567 3.05886 0
M  V30 1680 N 162.591 -1.51276 -0.441967 0
M  V30 1681 C 163.868 -1.54252 -1.20273 0
M  V30 1682 C 164.248 -0.30408 -2.08898 0
M  V30 1683 O 163.596 0.711084 -2.17154 0
M  V30 1684 C 163.806 -2.85406 -2.00859 0
M  V30 1685 C 165.154 -3.37181 -2.58059 0
M  V30 1686 O 166.178 -2.86925 -2.11074 0
M  V30 1687 O 165.037 -4.24858 -3.43741 0
M  V30 1688 H 162.131 -0.619969 -0.547328 0
M  V30 1689 H 164.677 -1.63586 -0.451413 0
M  V30 1690 H 163.449 -3.67003 -1.35736 0
M  V30 1691 H 163.072 -2.79213 -2.83065 0
M  V30 1692 N 164.069 0.697108 -1.41344 0
M  V30 1693 C 165.318 1.45279 -1.39918 0
M  V30 1694 C 165.631 1.95597 -0.0109624 0
M  V30 1695 O 166.837 2.71208 0.125919 0
M  V30 1696 C 165.293 2.62695 -2.46007 0
M  V30 1697 C 164.901 2.19169 -3.90729 0
M  V30 1698 C 166.645 3.40336 -2.53715 0
M  V30 1699 C 164.552 3.33535 -4.88373 0
M  V30 1700 H 163.482 0.545692 -0.520323 0
M  V30 1701 H 166.133 0.756929 -1.67161 0
M  V30 1702 H 164.515 3.34541 -2.11892 0
M  V30 1703 H 165.689 1.54623 -4.34083 0
M  V30 1704 H 164.004 1.54525 -3.86666 0
M  V30 1705 H 166.601 4.2547 -3.2385 0
M  V30 1706 H 166.944 3.85418 -1.5735 0
M  V30 1707 H 167.477 2.75546 -2.86913 0
M  V30 1708 H 164.216 2.93468 -5.86137 0
M  V30 1709 H 163.736 3.96936 -4.49668 0
M  V30 1710 H 165.415 3.99335 -5.09059 0
M  V30 1711 N 165.547 1.27147 0.931209 0
M  V30 1712 C 166.494 1.09568 2.03134 0
M  V30 1713 C 167.464 -0.00222433 1.661 0
M  V30 1714 O 168.649 0.159439 1.90133 0
M  V30 1715 C 165.789 0.745231 3.36957 0
M  V30 1716 C 164.902 1.92041 3.86968 0
M  V30 1717 C 164.037 1.51216 5.09222 0
M  V30 1718 C 163.076 2.65504 5.5152 0
M  V30 1719 N 162.213 2.25291 6.64972 0
M  V30 1720 H 167.053 2.03708 2.17502 0
M  V30 1721 H 164.59 1.01411 1.06556 0
M  V30 1722 H 166.548 0.522878 4.1391 0
M  V30 1723 H 165.178 -0.159202 3.22407 0
M  V30 1724 H 164.23 2.25541 3.06326 0
M  V30 1725 H 165.542 2.77787 4.1429 0
M  V30 1726 H 164.696 1.25084 5.93666 0
M  V30 1727 H 163.435 0.625749 4.83669 0
M  V30 1728 H 162.44 2.92354 4.65628 0
M  V30 1729 H 163.665 3.54761 5.7907 0
M  V30 1730 H 161.611 1.39098 6.41083 0
M  V30 1731 H 161.528 3.04577 6.91931 0
M  V30 1732 H 162.796 2.02398 7.52765 0
M  V30 1733 N 167.025 -1.13721 1.09112 0
M  V30 1734 C 168.272 -1.84924 0.825192 0
M  V30 1735 C 168.6 -1.83347 -0.649151 0
M  V30 1736 O 167.855 -1.26449 -1.49362 0
M  V30 1737 C 168.154 -3.32861 1.30146 0
M  V30 1738 C 167.82 -3.54621 2.78486 0
M  V30 1739 C 166.482 -3.60268 3.18999 0
M  V30 1740 C 168.834 -3.62855 3.74146 0
M  V30 1741 C 166.162 -3.71679 4.53951 0
M  V30 1742 C 168.514 -3.75793 5.08883 0
M  V30 1743 C 167.178 -3.79692 5.4899 0
M  V30 1744 H 166.448 -0.676684 0.301959 0
M  V30 1745 H 169.095 -1.3428 1.36533 0
M  V30 1746 H 167.4 -3.85835 0.681064 0
M  V30 1747 H 169.097 -3.86395 1.07236 0
M  V30 1748 H 165.687 -3.50879 2.46134 0
M  V30 1749 H 169.871 -3.57775 3.43963 0
M  V30 1750 H 165.127 -3.72963 4.84467 0
M  V30 1751 H 169.301 -3.81107 5.82864 0
M  V30 1752 H 166.928 -3.88287 6.53558 0
M  V30 1753 N 168.503 -0.877838 -1.30888 0
M  V30 1754 C 169.433 -0.35534 -2.3078 0
M  V30 1755 C 170.414 0.557994 -1.60687 0
M  V30 1756 O 171.599 0.473355 -1.88343 0
M  V30 1757 C 168.729 0.437221 -3.44537 0
M  V30 1758 C 167.683 -0.383715 -4.26276 0
M  V30 1759 C 167.009 0.535014 -5.32017 0
M  V30 1760 C 168.309 -1.62201 -4.96476 0
M  V30 1761 H 170.003 -1.19007 -2.74732 0
M  V30 1762 H 167.549 -0.573698 -1.32078 0
M  V30 1763 H 169.502 0.813334 -4.13477 0
M  V30 1764 H 168.226 1.30553 -2.99372 0
M  V30 1765 H 166.885 -0.741874 -3.59015 0
M  V30 1766 H 166.533 1.40083 -4.831 0
M  V30 1767 H 166.233 -0.0104211 -5.87599 0
M  V30 1768 H 167.757 0.907799 -6.03814 0
M  V30 1769 H 169.171 -1.31689 -5.5797 0
M  V30 1770 H 167.568 -2.10711 -5.61891 0
M  V30 1771 H 168.638 -2.37044 -4.23011 0
M  V30 1772 N 169.982 1.44106 -0.638065 0
M  V30 1773 C 171.393 1.85316 -0.226894 0
M  V30 1774 C 171.744 1.53399 1.22324 0
M  V30 1775 O 170.869 0.975463 1.93167 0
M  V30 1776 C 171.464 3.3637 -0.405013 0
M  V30 1777 C 170.023 3.76369 -0.0482902 0
M  V30 1778 C 169.17 2.67921 -0.715108 0
M  V30 1779 H 172.121 1.34474 -0.842764 0
M  V30 1780 H 172.142 3.7885 0.354 0
M  V30 1781 H 171.654 3.59569 -1.46053 0
M  V30 1782 H 169.755 3.58784 1.00522 0
M  V30 1783 H 169.868 4.76856 -0.463187 0
M  V30 1784 H 168.232 2.54259 -0.149753 0
M  V30 1785 H 169.015 2.93951 -1.77335 0
M  V30 1786 N 171.46 0.379036 1.52974 0
M  V30 1787 C 172.707 -0.206421 2.01445 0
M  V30 1788 C 173.035 -1.47668 1.26587 0
M  V30 1789 O 172.29 -1.92514 0.351675 0
M  V30 1790 C 172.589 -0.53096 3.53434 0
M  V30 1791 C 172.255 0.646546 4.46241 0
M  V30 1792 C 170.917 0.969604 4.7133 0
M  V30 1793 C 173.269 1.43479 5.01062 0
M  V30 1794 C 170.597 2.08263 5.48492 0
M  V30 1795 C 172.949 2.53834 5.7944 0
M  V30 1796 C 171.613 2.86659 6.02812 0
M  V30 1797 H 170.883 -0.0755349 0.73714 0
M  V30 1798 H 173.53 0.514271 1.84465 0
M  V30 1799 H 171.835 -1.33285 3.68432 0
M  V30 1800 H 173.532 -0.996417 3.88423 0
M  V30 1801 H 170.122 0.384734 4.2687 0
M  V30 1802 H 174.306 1.19844 4.81613 0
M  V30 1803 H 169.562 2.34078 5.64816 0
M  V30 1804 H 173.736 3.15319 6.20924 0
M  V30 1805 H 171.363 3.73026 6.62387 0
M  V30 1806 N 172.938 -1.57226 0.108567 0
M  V30 1807 C 173.885 -2.14756 -0.845481 0
M  V30 1808 C 174.855 -1.06971 -1.27068 0
M  V30 1809 O 176.04 -1.34827 -1.35005 0
M  V30 1810 C 173.18 -2.74298 -2.09415 0
M  V30 1811 C 172.293 -3.96358 -1.71826 0
M  V30 1812 C 171.428 -4.44021 -2.9158 0
M  V30 1813 C 170.467 -5.58637 -2.50181 0
M  V30 1814 N 169.604 -6.01091 -3.62814 0
M  V30 1815 H 174.444 -2.95961 -0.348035 0
M  V30 1816 H 171.981 -1.46226 -0.160106 0
M  V30 1817 H 173.939 -3.06945 -2.82561 0
M  V30 1818 H 172.569 -1.95801 -2.56636 0
M  V30 1819 H 171.621 -3.69939 -0.885947 0
M  V30 1820 H 172.933 -4.79504 -1.37394 0
M  V30 1821 H 172.087 -4.78522 -3.72963 0
M  V30 1822 H 170.826 -3.59803 -3.29231 0
M  V30 1823 H 169.831 -5.23751 -1.67228 0
M  V30 1824 H 171.056 -6.44613 -2.13659 0
M  V30 1825 H 169.002 -5.19817 -4.00158 0
M  V30 1826 H 168.919 -6.79066 -3.32273 0
M  V30 1827 H 170.187 -6.40227 -4.44668 0
M  V30 1828 N 174.416 0.165178 -1.56732 0
M  V30 1829 C 175.662 0.882112 -1.82611 0
M  V30 1830 C 175.995 1.81628 -0.687378 0
M  V30 1831 O 175.27 1.92009 0.310267 0
M  V30 1832 C 175.553 1.67245 -3.18906 0
M  V30 1833 C 175.406 0.760987 -4.43316 0
M  V30 1834 C 176.725 2.63884 -3.52212 0
M  V30 1835 H 173.844 0.319242 -0.664269 0
M  V30 1836 H 176.486 0.148052 -1.89422 0
M  V30 1837 H 174.636 2.29824 -3.1323 0
M  V30 1838 H 176.308 0.147596 -4.61064 0
M  V30 1839 H 174.551 0.0694102 -4.33744 0
M  V30 1840 H 175.222 1.34962 -5.35247 0
M  V30 1841 H 177.698 2.11429 -3.58381 0
M  V30 1842 H 176.574 3.16245 -4.48643 0
M  V30 1843 H 176.835 3.44377 -2.77231 0
M  V30 1844 N 175.894 1.51508 0.433938 0
M  V30 1845 C 177.14 1.64588 1.18484 0
M  V30 1846 C 177.473 0.362666 1.90784 0
M  V30 1847 O 176.748 -0.637892 1.83742 0
M  V30 1848 C 177.031 2.85149 2.19913 0
M  V30 1849 C 176.884 4.23456 1.51674 0
M  V30 1850 C 178.203 3.01227 3.20858 0
M  V30 1851 H 175.322 0.598994 0.429389 0
M  V30 1852 H 177.964 1.84002 0.473647 0
M  V30 1853 H 176.114 2.68729 2.80566 0
M  V30 1854 H 177.786 4.51552 0.943322 0
M  V30 1855 H 176.029 4.25998 0.819035 0
M  V30 1856 H 176.7 5.03812 2.2556 0
M  V30 1857 H 179.176 3.16382 2.70263 0
M  V30 1858 H 178.052 3.87141 3.89118 0
M  V30 1859 H 178.313 2.13447 3.8716 0
M  V30 1860 N 177.372 -0.689602 1.41712 0
M  V30 1861 C 178.282 -1.83314 1.46401 0
M  V30 1862 C 179.298 -1.7036 0.35405 0
M  V30 1863 O 180.474 -1.92171 0.602692 0
M  V30 1864 C 177.539 -3.19344 1.34982 0
M  V30 1865 C 176.6 -3.44363 2.56344 0
M  V30 1866 C 175.833 -4.73904 2.45461 0
M  V30 1867 O 176.056 -5.508 1.48241 0
M  V30 1868 O 174.99 -4.99839 3.35328 0
M  V30 1869 H 178.816 -1.82314 2.42889 0
M  V30 1870 H 176.401 -0.843438 1.23315 0
M  V30 1871 H 178.283 -4.00547 1.3092 0
M  V30 1872 H 176.958 -3.21014 0.41612 0
M  V30 1873 H 175.865 -2.63067 2.65982 0
M  V30 1874 H 177.198 -3.47512 3.48563 0
M  V30 1875 N 178.85 -1.27639 -0.924453 0
M  V30 1876 C 179.797 -1.10644 -2.0255 0
M  V30 1877 C 180.767 -0.00658438 -1.66099 0
M  V30 1878 O 181.952 -0.16952 -1.90045 0
M  V30 1879 C 179.092 -0.76309 -3.36557 0
M  V30 1880 C 178.205 -1.94091 -3.85944 0
M  V30 1881 C 177.34 -1.53914 -5.08413 0
M  V30 1882 C 176.379 -2.68425 -5.50104 0
M  V30 1883 N 175.516 -2.28815 -6.63768 0
M  V30 1884 H 180.356 -2.04858 -2.16419 0
M  V30 1885 H 177.893 -1.01974 -1.06017 0
M  V30 1886 H 179.851 -0.544822 -4.13627 0
M  V30 1887 H 178.481 0.142102 -3.22487 0
M  V30 1888 H 177.533 -2.27162 -3.05125 0
M  V30 1889 H 178.845 -2.7998 -4.12811 0
M  V30 1890 H 177.999 -1.28231 -5.92994 0
M  V30 1891 H 176.738 -0.651391 -4.8333 0
M  V30 1892 H 175.743 -2.94819 -4.64071 0
M  V30 1893 H 176.968 -3.57826 -5.7718 0
M  V30 1894 H 174.914 -1.42495 -6.40337 0
M  V30 1895 H 174.831 -3.08242 -6.90306 0
M  V30 1896 H 176.099 -2.06387 -7.51681 0
M  V30 1897 N 180.328 1.1314 -1.09713 0
M  V30 1898 C 181.275 2.18642 -0.739196 0
M  V30 1899 C 182.245 1.63706 0.280978 0
M  V30 1900 O 183.43 1.90111 0.161946 0
M  V30 1901 C 180.57 3.44685 -0.169102 0
M  V30 1902 C 179.683 4.13711 -1.24367 0
M  V30 1903 C 178.818 5.27379 -0.636019 0
M  V30 1904 C 177.857 5.88259 -1.69169 0
M  V30 1905 N 176.994 6.93352 -1.10485 0
M  V30 1906 H 181.834 2.48607 -1.64312 0
M  V30 1907 H 179.371 1.22066 -0.820875 0
M  V30 1908 H 181.329 4.16815 0.179256 0
M  V30 1909 H 179.959 3.15161 0.698079 0
M  V30 1910 H 179.011 3.39835 -1.70927 0
M  V30 1911 H 180.323 4.55037 -2.04311 0
M  V30 1912 H 179.477 6.06238 -0.236677 0
M  V30 1913 H 178.216 4.8731 0.194928 0
M  V30 1914 H 177.221 5.08092 -2.10055 0
M  V30 1915 H 178.446 6.30399 -2.52536 0
M  V30 1916 H 176.392 6.55335 -0.295234 0
M  V30 1917 H 176.309 7.33236 -1.84121 0
M  V30 1918 H 177.577 7.76057 -0.73181 0
M  V30 1919 N 181.806 0.884767 1.30421 0
M  V30 1920 C 183.034 0.518044 2.0031 0
M  V30 1921 C 183.449 -0.893408 1.66324 0
M  V30 1922 O 182.806 -1.5875 0.900262 0
M  V30 1923 C 182.857 0.682997 3.54989 0
M  V30 1924 O 182.578 2.03888 3.87764 0
M  V30 1925 C 184.079 0.31924 4.42149 0
M  V30 1926 H 181.299 0.200265 0.640418 0
M  V30 1927 H 183.843 1.19001 1.6631 0
M  V30 1928 H 181.998 0.0584052 3.87356 0
M  V30 1929 H 182.412 2.05735 4.82466 0
M  V30 1930 H 183.886 0.485555 5.4986 0
M  V30 1931 H 184.363 -0.742717 4.32875 0
M  V30 1932 H 184.969 0.920147 4.15227 0
M  V30 1933 N 183.284 -1.43765 0.645699 0
M  V30 1934 C 184.231 -2.30745 -0.0504648 0
M  V30 1935 C 185.201 -1.4432 -0.822241 0
M  V30 1936 O 186.386 -1.73202 -0.800358 0
M  V30 1937 C 183.526 -3.29802 -1.0161 0
M  V30 1938 C 182.639 -4.31326 -0.241219 0
M  V30 1939 C 181.774 -5.17469 -1.19998 0
M  V30 1940 C 180.813 -6.10691 -0.415094 0
M  V30 1941 N 179.95 -6.89483 -1.32506 0
M  V30 1942 H 184.79 -2.8973 0.697155 0
M  V30 1943 H 182.327 -1.42738 0.355563 0
M  V30 1944 H 184.285 -3.85734 -1.58949 0
M  V30 1945 H 182.915 -2.72483 -1.73069 0
M  V30 1946 H 181.967 -3.77749 0.448334 0
M  V30 1947 H 183.279 -4.9743 0.369437 0
M  V30 1948 H 182.433 -5.7799 -1.84424 0
M  V30 1949 H 181.172 -4.51473 -1.84455 0
M  V30 1950 H 180.177 -5.49265 0.242565 0
M  V30 1951 H 181.402 -6.78727 0.224966 0
M  V30 1952 H 179.348 -6.26142 -1.95657 0
M  V30 1953 H 179.265 -7.52081 -0.768783 0
M  V30 1954 H 180.533 -7.54516 -1.9577 0
M  V30 1955 N 184.763 -0.387143 -1.52771 0
M  V30 1956 C 186.174 0.0873634 -1.86495 0
M  V30 1957 C 186.525 1.46336 -1.30691 0
M  V30 1958 O 185.65 2.068 -0.637409 0
M  V30 1959 C 186.245 0.165305 -3.38396 0
M  V30 1960 C 184.804 0.584101 -3.7184 0
M  V30 1961 C 183.951 -0.255279 -2.76122 0
M  V30 1962 H 186.902 -0.605104 -1.46711 0
M  V30 1963 H 186.923 0.984848 -3.67534 0
M  V30 1964 H 186.435 -0.836301 -3.78982 0
M  V30 1965 H 184.536 1.59315 -3.36823 0
M  V30 1966 H 184.649 0.343749 -4.77865 0
M  V30 1967 H 183.013 0.279126 -2.53166 0
M  V30 1968 H 183.796 -1.25482 -3.19545 0
M  V30 1969 N 186.241 1.57166 -0.116904 0
M  V30 1970 C 187.471 1.99184 0.548586 0
M  V30 1971 C 187.879 0.995436 1.60897 0
M  V30 1972 O 187.222 -0.0201293 1.83689 0
M  V30 1973 C 187.284 3.37611 1.23526 0
M  V30 1974 C 186.948 4.55857 0.323077 0
M  V30 1975 C 187.945 5.18056 -0.437476 0
M  V30 1976 C 185.63 5.01751 0.234761 0
M  V30 1977 C 187.624 6.24536 -1.2741 0
M  V30 1978 C 185.311 6.08093 -0.605496 0
M  V30 1979 C 186.309 6.69352 -1.35856 0
M  V30 1980 O 185.997 7.7364 -2.18487 0
M  V30 1981 H 185.729 0.659148 0.149999 0
M  V30 1982 H 188.283 2.0443 -0.199428 0
M  V30 1983 H 186.513 3.29113 2.0303 0
M  V30 1984 H 188.202 3.63932 1.79745 0
M  V30 1985 H 188.968 4.83516 -0.379105 0
M  V30 1986 H 184.847 4.53817 0.810601 0
M  V30 1987 H 188.391 6.72281 -1.86237 0
M  V30 1988 H 184.288 6.42063 -0.665268 0
M  V30 1989 H 185.056 7.90727 -2.11406 0
M  V30 1990 N 187.719 -0.156864 1.56817 0
M  V30 1991 C 188.968 -0.869504 1.81996 0
M  V30 1992 C 189.281 -1.82777 0.696545 0
M  V30 1993 O 190.487 -2.58384 0.833658 0
M  V30 1994 C 188.943 -1.59679 3.22538 0
M  V30 1995 C 188.551 -0.681431 4.42787 0
M  V30 1996 C 190.295 -2.2968 3.56997 0
M  V30 1997 C 188.202 -1.40978 5.74351 0
M  V30 1998 H 187.132 -0.328438 0.678708 0
M  V30 1999 H 189.783 -0.1223 1.83092 0
M  V30 2000 H 188.165 -2.38927 3.158 0
M  V30 2001 H 189.339 0.0751166 4.60739 0
M  V30 2002 H 187.654 -0.0903431 4.16302 0
M  V30 2003 H 190.251 -2.84794 4.52544 0
M  V30 2004 H 190.594 -3.05707 2.82576 0
M  V30 2005 H 191.127 -1.57361 3.65352 0
M  V30 2006 H 187.866 -0.691561 6.51842 0
M  V30 2007 H 187.386 -2.13929 5.60352 0
M  V30 2008 H 189.065 -1.95337 6.16808 0
M  V30 2009 N 189.197 -1.51736 -0.425897 0
M  V30 2010 C 190.129 -1.70083 -1.53638 0
M  V30 2011 C 191.142 -0.581349 -1.52066 0
M  V30 2012 O 192.331 -0.856017 -1.56635 0
M  V30 2013 C 189.431 -1.71078 -2.9255 0
M  V30 2014 C 188.604 -2.99795 -3.185 0
M  V30 2015 C 187.663 -2.92825 -4.37196 0
M  V30 2016 O 186.689 -3.66756 -4.35291 0
M  V30 2017 N 187.891 -2.0946 -5.41393 0
M  V30 2018 H 190.656 -2.65882 -1.383 0
M  V30 2019 H 188.217 -1.49765 -0.614988 0
M  V30 2020 H 190.209 -1.63969 -3.69995 0
M  V30 2021 H 188.779 -0.828242 -3.01428 0
M  V30 2022 H 187.999 -3.20684 -2.2925 0
M  V30 2023 H 189.287 -3.84977 -3.32671 0
M  V30 2024 H 188.685 -1.48792 -5.45781 0
M  V30 2025 H 187.242 -2.08221 -6.17647 0
M  V30 2026 N 190.675 0.682077 -1.42076 0
M  V30 2027 C 191.921 1.44428 -1.42367 0
M  V30 2028 C 192.254 1.94164 -0.0373056 0
M  V30 2029 O 191.529 1.70429 0.937239 0
M  V30 2030 C 191.812 2.64654 -2.44194 0
M  V30 2031 C 191.665 2.20596 -3.91991 0
M  V30 2032 C 192.984 3.66865 -2.431 0
M  V30 2033 H 190.103 0.523834 -0.518428 0
M  V30 2034 H 192.745 0.77576 -1.73442 0
M  V30 2035 H 190.895 3.2169 -2.17826 0
M  V30 2036 H 192.567 1.68783 -4.29313 0
M  V30 2037 H 190.81 1.52242 -4.06208 0
M  V30 2038 H 191.481 3.06921 -4.58807 0
M  V30 2039 H 193.957 3.19531 -2.66532 0
M  V30 2040 H 192.833 4.48577 -3.16339 0
M  V30 2041 H 193.094 4.17493 -1.45437 0
M  V30 2042 N 192.153 1.28127 0.917671 0
M  V30 2043 C 193.43 1.05761 1.64542 0
M  V30 2044 C 193.81 -0.404344 2.07191 0
M  V30 2045 O 193.158 -1.38963 1.81388 0
M  V30 2046 C 193.368 2.02857 2.83989 0
M  V30 2047 C 194.716 2.32786 3.551 0
M  V30 2048 O 195.74 2.0091 2.94132 0
M  V30 2049 O 194.599 2.87169 4.64969 0
M  V30 2050 H 191.693 0.403916 0.721652 0
M  V30 2051 H 194.239 1.39431 0.967322 0
M  V30 2052 H 193.011 3.01407 2.49538 0
M  V30 2053 H 192.634 1.69809 3.59514 0
M  V30 2054 N 193.631 -1.12557 1.10312 0
M  V30 2055 C 194.88 -1.83395 0.839588 0
M  V30 2056 C 195.193 -1.84939 -0.636929 0
M  V30 2057 O 196.399 -2.51761 -1.01631 0
M  V30 2058 C 194.855 -3.29303 1.45215 0
M  V30 2059 C 194.463 -3.36122 2.96186 0
M  V30 2060 C 196.207 -4.05121 1.26796 0
M  V30 2061 C 194.114 -4.76357 3.50483 0
M  V30 2062 H 193.044 -0.687133 0.310425 0
M  V30 2063 H 195.695 -1.26746 1.32694 0
M  V30 2064 H 194.077 -3.85812 0.892469 0
M  V30 2065 H 195.251 -2.89559 3.58458 0
M  V30 2066 H 193.566 -2.73776 3.13745 0
M  V30 2067 H 196.163 -5.08668 1.64806 0
M  V30 2068 H 196.506 -4.15773 0.209409 0
M  V30 2069 H 197.039 -3.54967 1.79563 0
M  V30 2070 H 193.778 -4.70899 4.55998 0
M  V30 2071 H 193.298 -5.23377 2.92978 0
M  V30 2072 H 194.977 -5.45294 3.48228 0
M  V30 2073 N 195.109 -0.891671 -1.2995 0
M  V30 2074 C 196.357 -0.512486 -1.95494 0
M  V30 2075 C 196.678 0.942776 -1.70695 0
M  V30 2076 O 195.948 1.66374 -1.03424 0
M  V30 2077 H 194.528 -0.186533 -0.723336 0
M  V30 2078 H 197.19 -1.13621 -1.58355 0
M  V30 2079 H 196.286 -0.688342 -3.04415 0
M  V30 2080 N 196.587 1.43421 -0.653314 0
M  V30 2081 C 197.835 2.01414 -0.166415 0
M  V30 2082 C 198.156 1.51803 1.22397 0
M  V30 2083 O 197.426 0.730693 1.81763 0
M  V30 2084 H 196.006 0.744703 -0.0585319 0
M  V30 2085 H 198.668 1.75629 -0.845003 0
M  V30 2086 H 197.764 3.11734 -0.151111 0
M  V30 2087 N 198.065 0.39524 1.52563 0
M  V30 2088 C 199.313 -0.184678 2.01254 0
M  V30 2089 C 199.634 -1.46822 1.28329 0
M  V30 2090 O 198.904 -1.91666 0.405094 0
M  V30 2091 H 197.484 -0.0712355 0.743596 0
M  V30 2092 H 200.146 0.528293 1.87603 0
M  V30 2093 H 199.242 -0.390681 3.09645 0
M  V30 2094 N 199.544 -1.57102 0.125237 0
M  V30 2095 C 200.476 -2.12726 -0.853237 0
M  V30 2096 C 201.489 -1.07145 -1.22571 0
M  V30 2097 O 202.678 -1.34497 -1.17358 0
M  V30 2098 C 199.778 -2.61709 -2.15317 0
M  V30 2099 C 198.951 -3.91456 -1.95143 0
M  V30 2100 C 198.01 -4.25973 -3.08923 0
M  V30 2101 O 197.036 -4.94682 -2.81564 0
M  V30 2102 N 198.238 -3.83795 -4.35524 0
M  V30 2103 H 201.003 -2.97307 -0.377964 0
M  V30 2104 H 198.564 -1.61792 -0.0590011 0
M  V30 2105 H 200.556 -2.81826 -2.90441 0
M  V30 2106 H 199.126 -1.81974 -2.54174 0
M  V30 2107 H 198.346 -3.80185 -1.04177 0
M  V30 2108 H 199.634 -4.76283 -1.78976 0
M  V30 2109 H 199.032 -3.2839 -4.60626 0
M  V30 2110 H 197.589 -4.09008 -5.07499 0
M  V30 2111 N 201.022 0.148545 -1.56898 0
M  V30 2112 C 202.25 0.876389 -1.87422 0
M  V30 2113 C 202.665 1.74809 -0.713256 0
M  V30 2114 O 202.022 1.79725 0.317025 0
M  V30 2115 C 202.073 1.73438 -3.17178 0
M  V30 2116 O 201.794 0.897809 -4.28802 0
M  V30 2117 C 203.295 2.56993 -3.61205 0
M  V30 2118 H 200.515 0.253489 -0.621277 0
M  V30 2119 H 203.059 0.141798 -2.04008 0
M  V30 2120 H 201.214 2.42205 -3.0235 0
M  V30 2121 H 201.628 1.48672 -5.02988 0
M  V30 2122 H 203.102 3.12773 -4.54838 0
M  V30 2123 H 203.579 3.32958 -2.86419 0
M  V30 2124 H 204.185 1.9352 -3.78722 0
M  V30 2125 N 202.5 1.5196 0.417844 0
M  V30 2126 C 203.447 1.74678 1.50852 0
M  V30 2127 C 204.417 0.588947 1.55308 0
M  V30 2128 O 205.602 0.825544 1.72016 0
M  V30 2129 C 202.742 1.89544 2.88387 0
M  V30 2130 C 201.855 3.17166 2.93309 0
M  V30 2131 C 200.99 3.22513 4.22088 0
M  V30 2132 C 200.029 4.44372 4.20951 0
M  V30 2133 N 199.166 4.47161 5.41287 0
M  V30 2134 H 204.006 2.67768 1.30783 0
M  V30 2135 H 201.543 1.32689 0.63498 0
M  V30 2136 H 203.501 1.96146 3.68216 0
M  V30 2137 H 202.131 0.998424 3.06971 0
M  V30 2138 H 201.183 3.19778 2.06024 0
M  V30 2139 H 202.495 4.07021 2.88332 0
M  V30 2140 H 201.649 3.28139 5.10303 0
M  V30 2141 H 200.388 2.30581 4.29748 0
M  V30 2142 H 199.393 4.38902 3.31127 0
M  V30 2143 H 200.618 5.3759 4.14938 0
M  V30 2144 H 198.564 3.58108 5.49632 0
M  V30 2145 H 198.481 5.3085 5.3827 0
M  V30 2146 H 199.749 4.57005 6.3148 0
M  V30 2147 N 203.978 -0.674533 1.42435 0
M  V30 2148 C 205.206 -1.46283 1.46317 0
M  V30 2149 C 205.621 -1.88653 0.0745836 0
M  V30 2150 O 204.978 -1.58151 -0.91074 0
M  V30 2151 C 205.029 -2.71178 2.3905 0
M  V30 2152 O 204.75 -2.30586 3.72507 0
M  V30 2153 C 206.251 -3.64738 2.51955 0
M  V30 2154 H 203.471 -0.450104 0.497642 0
M  V30 2155 H 206.015 -0.828792 1.86953 0
M  V30 2156 H 204.17 -3.3077 2.01667 0
M  V30 2157 H 204.584 -3.11241 4.22172 0
M  V30 2158 H 206.058 -4.49096 3.20962 0
M  V30 2159 H 206.535 -4.10656 1.55752 0
M  V30 2160 H 207.141 -3.11038 2.90061 0
M  V30 2161 N 205.456 -1.28612 -0.910864 0
M  V30 2162 C 206.703 -1.15934 -1.66029 0
M  V30 2163 C 207.031 0.291483 -1.92303 0
M  V30 2164 O 206.286 1.22816 -1.52364 0
M  V30 2165 C 206.585 -1.90624 -3.0232 0
M  V30 2166 C 206.251 -3.40405 -2.95695 0
M  V30 2167 C 204.913 -3.81255 -2.93595 0
M  V30 2168 C 207.265 -4.359 -2.85728 0
M  V30 2169 C 204.593 -5.15936 -2.79334 0
M  V30 2170 C 206.945 -5.70657 -2.73007 0
M  V30 2171 C 205.609 -6.10779 -2.69267 0
M  V30 2172 H 204.879 -0.424234 -0.607541 0
M  V30 2173 H 207.526 -1.5942 -1.06101 0
M  V30 2174 H 205.831 -1.39696 -3.6605 0
M  V30 2175 H 207.528 -1.78228 -3.59215 0
M  V30 2176 H 204.118 -3.07927 -2.98125 0
M  V30 2177 H 208.302 -4.053 -2.86436 0
M  V30 2178 H 203.558 -5.46146 -2.74835 0
M  V30 2179 H 207.732 -6.44311 -2.64264 0
M  V30 2180 H 205.359 -7.1509 -2.57974 0
M  V30 2181 N 206.934 1.1197 -1.10907 0
M  V30 2182 C 207.897 2.16031 -0.765707 0
M  V30 2183 C 208.897 1.59393 0.212235 0
M  V30 2184 O 210.087 1.74196 -0.0115441 0
M  V30 2185 C 207.219 3.40632 -0.135053 0
M  V30 2186 H 208.412 2.47919 -1.68748 0
M  V30 2187 H 205.965 1.27061 -0.910226 0
M  V30 2188 H 206.7 3.14348 0.797218 0
M  V30 2189 H 206.485 3.8302 -0.838937 0
M  V30 2190 H 207.975 4.17505 0.0892469 0
M  V30 2191 N 208.412 0.89855 1.29475 0
M  V30 2192 C 209.823 0.572537 1.77705 0
M  V30 2193 C 210.174 -0.911778 1.73727 0
M  V30 2194 O 209.299 -1.71288 1.32247 0
M  V30 2195 C 209.894 1.03252 3.22683 0
M  V30 2196 C 208.453 0.757687 3.68695 0
M  V30 2197 C 207.6 1.20787 2.49612 0
M  V30 2198 H 210.551 1.08139 1.16153 0
M  V30 2199 H 210.572 0.367307 3.78723 0
M  V30 2200 H 210.084 2.11285 3.25546 0
M  V30 2201 H 208.185 -0.310079 3.71308 0
M  V30 2202 H 208.298 1.35476 4.59547 0
M  V30 2203 H 206.662 0.626888 2.46865 0
M  V30 2204 H 207.445 2.29622 2.55203 0
M  V30 2205 N 209.89 -1.43072 0.660911 0
M  V30 2206 C 210.8 -2.34585 -0.0264163 0
M  V30 2207 C 211.816 -1.54316 -0.803898 0
M  V30 2208 O 212.992 -1.86939 -0.749391 0
M  V30 2209 C 210.057 -3.32689 -0.975639 0
M  V30 2210 C 209.118 -4.2886 -0.194236 0
M  V30 2211 C 208.351 -5.22278 -1.09825 0
M  V30 2212 O 208.574 -5.20299 -2.33763 0
M  V30 2213 O 207.508 -5.99228 -0.566513 0
M  V30 2214 H 211.334 -2.94869 0.727034 0
M  V30 2215 H 208.919 -1.43342 0.42111 0
M  V30 2216 H 210.801 -3.92995 -1.52094 0
M  V30 2217 H 209.476 -2.74898 -1.70918 0
M  V30 2218 H 208.383 -3.72011 0.394835 0
M  V30 2219 H 209.716 -4.89655 0.499899 0
M  V30 2220 N 211.368 -0.403325 -1.52352 0
M  V30 2221 C 212.278 0.432009 -2.30588 0
M  V30 2222 C 213.294 1.05884 -1.38075 0
M  V30 2223 O 214.47 1.06161 -1.71148 0
M  V30 2224 C 211.535 1.53669 -3.10784 0
M  V30 2225 C 210.596 0.933525 -4.19027 0
M  V30 2226 C 209.829 1.98557 -4.9539 0
M  V30 2227 O 210.052 3.20283 -4.71991 0
M  V30 2228 O 208.986 1.59504 -5.80381 0
M  V30 2229 H 212.812 -0.205739 -3.03002 0
M  V30 2230 H 210.397 -0.166675 -1.48467 0
M  V30 2231 H 212.279 2.17814 -3.60742 0
M  V30 2232 H 210.954 2.15915 -2.41169 0
M  V30 2233 H 209.861 0.254954 -3.7323 0
M  V30 2234 H 211.194 0.35508 -4.90918 0
M  V30 2235 N 212.846 1.57033 -0.133567 0
M  V30 2236 C 214.095 1.94861 0.520768 0
M  V30 2237 C 214.408 1.02012 1.66892 0
M  V30 2238 O 215.614 1.29365 2.38699 0
M  V30 2239 C 214.07 3.46362 0.977809 0
M  V30 2240 C 213.678 4.47773 -0.142674 0
M  V30 2241 C 215.422 3.93083 1.60269 0
M  V30 2242 C 213.329 5.90468 0.331883 0
M  V30 2243 H 212.259 0.727453 0.198315 0
M  V30 2244 H 214.91 1.82227 -0.215759 0
M  V30 2245 H 213.292 3.54282 1.7692 0
M  V30 2246 H 214.466 4.51536 -0.919317 0
M  V30 2247 H 212.781 4.10891 -0.675124 0
M  V30 2248 H 215.378 4.97121 1.96914 0
M  V30 2249 H 215.721 3.33876 2.48662 0
M  V30 2250 H 216.254 3.88025 0.876453 0
M  V30 2251 H 212.993 6.53463 -0.516341 0
M  V30 2252 H 212.513 5.90094 1.07469 0
M  V30 2253 H 214.192 6.42179 0.788332 0
M  V30 2254 N 214.325 -0.140222 1.56975 0
M  V30 2255 C 215.55 -0.870414 1.88251 0
M  V30 2256 C 215.975 -1.73637 0.723312 0
M  V30 2257 O 215.333 -1.78329 -0.32689 0
M  V30 2258 C 215.381 -1.69737 3.18154 0
M  V30 2259 O 214.485 -2.80229 3.02565 0
M  V30 2260 H 213.826 -0.242025 0.61832 0
M  V30 2261 H 216.356 -0.128999 2.04193 0
M  V30 2262 H 216.366 -2.09099 3.50345 0
M  V30 2263 H 215.041 -1.06152 4.02125 0
M  V30 2264 H 213.618 -2.44224 2.81796 0
M  V30 2265 N 215.803 -1.52179 -0.40978 0
M  V30 2266 C 216.766 -1.74853 -1.48186 0
M  V30 2267 C 217.766 -0.618417 -1.48433 0
M  V30 2268 O 218.956 -0.886286 -1.49969 0
M  V30 2269 C 216.088 -1.8303 -2.87598 0
M  V30 2270 H 217.281 -2.70559 -1.29374 0
M  V30 2271 H 214.834 -1.42586 -0.640233 0
M  V30 2272 H 215.569 -0.89236 -3.11781 0
M  V30 2273 H 215.354 -2.65187 -2.88822 0
M  V30 2274 H 216.844 -2.02316 -3.65319 0
M  V30 2275 N 217.281 0.66697 -1.42791 0
M  V30 2276 C 218.214 1.79177 -1.41318 0
M  V30 2277 C 219.192 1.60234 -0.276401 0
M  V30 2278 O 220.376 1.82602 -0.46785 0
M  V30 2279 C 217.503 3.16289 -1.21157 0
M  V30 2280 C 216.549 3.53964 -2.37932 0
M  V30 2281 S 217.382 3.55501 -4.00474 0
M  V30 2282 C 218.538 4.95292 -3.8267 0
M  V30 2283 H 218.771 1.80153 -2.365 0
M  V30 2284 H 216.304 0.838357 -1.29657 0
M  V30 2285 H 218.262 3.95428 -1.10212 0
M  V30 2286 H 216.923 3.1289 -0.275481 0
M  V30 2287 H 216.116 4.53646 -2.19594 0
M  V30 2288 H 215.718 2.82204 -2.45432 0
M  V30 2289 H 218.01 5.83584 -3.44145 0
M  V30 2290 H 218.953 5.18679 -4.82055 0
M  V30 2291 H 219.361 4.68179 -3.15386 0
M  V30 2292 N 218.759 1.29093 0.90403 0
M  V30 2293 C 220.005 1.16986 1.65656 0
M  V30 2294 C 220.338 -0.278925 1.92186 0
M  V30 2295 O 219.613 -1.2019 1.5292 0
M  V30 2296 C 219.896 1.97908 3.0084 0
M  V30 2297 C 219.749 3.50903 2.81403 0
M  V30 2298 C 221.068 1.80208 4.01513 0
M  V30 2299 H 218.187 0.426346 0.601164 0
M  V30 2300 H 220.829 1.58518 1.04747 0
M  V30 2301 H 218.979 1.62616 3.52829 0
M  V30 2302 H 220.651 3.96153 2.36348 0
M  V30 2303 H 218.894 3.76045 2.1627 0
M  V30 2304 H 219.565 4.02791 3.77443 0
M  V30 2305 H 222.041 2.11025 3.58619 0
M  V30 2306 H 220.917 2.39184 4.94047 0
M  V30 2307 H 221.178 0.756119 4.35586 0
M  V30 2308 N 220.237 -1.11381 1.11499 0
M  V30 2309 C 221.167 -2.19509 0.796125 0
M  V30 2310 C 222.148 -1.68458 -0.235796 0
M  V30 2311 O 223.333 -1.93947 -0.0991344 0
M  V30 2312 C 220.463 -3.46475 0.239205 0
M  V30 2313 C 219.417 -4.10744 1.20307 0
M  V30 2314 C 218.743 -5.32293 0.50683 0
M  V30 2315 C 220.043 -4.55597 2.55399 0
M  V30 2316 H 221.737 -2.46439 1.70024 0
M  V30 2317 H 219.283 -1.18446 0.818935 0
M  V30 2318 H 221.236 -4.214 0.00392006 0
M  V30 2319 H 219.96 -3.19006 -0.700206 0
M  V30 2320 H 218.619 -3.37813 1.42399 0
M  V30 2321 H 218.267 -5.01095 -0.437408 0
M  V30 2322 H 217.967 -5.76243 1.1497 0
M  V30 2323 H 219.491 -6.09956 0.280351 0
M  V30 2324 H 220.905 -5.21841 2.37391 0
M  V30 2325 H 219.302 -5.10363 3.15673 0
M  V30 2326 H 220.372 -3.69013 3.14575 0
M  V30 2327 N 221.715 -0.905404 -1.28997 0
M  V30 2328 C 222.943 -0.549846 -1.9946 0
M  V30 2329 C 223.358 0.866834 -1.67724 0
M  V30 2330 O 222.715 1.57298 -0.925404 0
M  V30 2331 C 222.766 -0.739387 -3.53858 0
M  V30 2332 O 222.487 -2.10031 -3.84472 0
M  V30 2333 C 223.988 -0.389541 -4.41585 0
M  V30 2334 H 221.208 -0.210429 -0.637151 0
M  V30 2335 H 223.752 -1.21632 -1.64396 0
M  V30 2336 H 221.907 -0.120023 -3.87214 0
M  V30 2337 H 222.321 -2.13385 -4.79132 0
M  V30 2338 H 223.795 -0.572972 -5.49018 0
M  V30 2339 H 224.272 0.673756 -4.34001 0
M  V30 2340 H 224.878 -0.986089 -4.1371 0
M  V30 2341 N 223.193 1.4272 -0.668489 0
M  V30 2342 C 224.14 2.30796 0.0137489 0
M  V30 2343 C 225.11 1.4561 0.799177 0
M  V30 2344 O 226.295 1.74453 0.772702 0
M  V30 2345 C 223.435 3.31377 0.963507 0
M  V30 2346 C 222.548 4.31655 0.172569 0
M  V30 2347 C 221.683 5.19312 1.1175 0
M  V30 2348 C 220.722 6.11274 0.317886 0
M  V30 2349 N 219.859 6.91504 1.2152 0
M  V30 2350 H 224.699 2.88585 -0.743161 0
M  V30 2351 H 222.236 1.42154 -0.378226 0
M  V30 2352 H 224.194 3.88214 1.52792 0
M  V30 2353 H 222.824 2.75202 1.68712 0
M  V30 2354 H 221.876 3.76988 -0.508374 0
M  V30 2355 H 223.188 4.96779 -0.448527 0
M  V30 2356 H 222.342 5.80851 1.75206 0
M  V30 2357 H 221.081 4.5435 1.77249 0
M  V30 2358 H 220.086 5.48809 -0.329918 0
M  V30 2359 H 221.311 6.78283 -0.332917 0
M  V30 2360 H 219.257 6.29176 1.85671 0
M  V30 2361 H 219.174 7.53209 0.649036 0
M  V30 2362 H 220.442 7.57535 1.83742 0
M  V30 2363 N 224.671 0.411399 1.52136 0
M  V30 2364 C 225.604 -0.457614 2.23565 0
M  V30 2365 C 226.582 -1.04613 1.24478 0
M  V30 2366 O 227.766 -1.09356 1.53536 0
M  V30 2367 C 224.893 -1.6354 2.96602 0
M  V30 2368 C 223.939 -1.17005 4.10137 0
M  V30 2369 S 224.772 -0.13333 5.35334 0
M  V30 2370 C 225.928 -1.31638 6.119 0
M  V30 2371 H 226.161 0.148883 2.96927 0
M  V30 2372 H 223.694 0.195713 1.53155 0
M  V30 2373 H 225.652 -2.31074 3.39286 0
M  V30 2374 H 224.313 -2.21324 2.22878 0
M  V30 2375 H 223.506 -2.05005 4.60422 0
M  V30 2376 H 223.108 -0.573319 3.6958 0
M  V30 2377 H 225.4 -2.23957 6.39413 0
M  V30 2378 H 226.343 -0.854014 7.02931 0
M  V30 2379 H 226.751 -1.54321 5.42997 0
M  V30 2380 N 226.149 -1.5696 0.141893 0
M  V30 2381 C 227.096 -2.16501 -0.799737 0
M  V30 2382 C 228.066 -1.09643 -1.24771 0
M  V30 2383 O 229.251 -1.3766 -1.32115 0
M  V30 2384 C 226.391 -2.78679 -2.03549 0
M  V30 2385 C 225.504 -3.99914 -1.6338 0
M  V30 2386 C 224.639 -4.50106 -2.82096 0
M  V30 2387 C 223.678 -5.63819 -2.38275 0
M  V30 2388 N 222.815 -6.08651 -3.49983 0
M  V30 2389 H 227.655 -2.96632 -0.285179 0
M  V30 2390 H 225.192 -1.46533 -0.129053 0
M  V30 2391 H 227.15 -3.1287 -2.75986 0
M  V30 2392 H 225.78 -2.012 -2.52425 0
M  V30 2393 H 224.832 -3.71735 -0.807279 0
M  V30 2394 H 226.144 -4.82311 -1.27192 0
M  V30 2395 H 225.298 -4.86325 -3.62729 0
M  V30 2396 H 224.037 -3.66706 -3.21525 0
M  V30 2397 H 223.042 -5.2718 -1.56081 0
M  V30 2398 H 224.267 -6.49 -1.99938 0
M  V30 2399 H 222.213 -5.28188 -3.89042 0
M  V30 2400 H 222.13 -6.85961 -3.17794 0
M  V30 2401 H 223.398 -6.49515 -4.30988 0
M  V30 2402 N 227.627 0.131896 -1.57047 0
M  V30 2403 C 228.537 1.1815 -2.02676 0
M  V30 2404 C 229.553 1.46113 -0.944824 0
M  V30 2405 O 230.729 1.57485 -1.25541 0
M  V30 2406 C 227.794 2.49139 -2.41103 0
M  V30 2407 C 226.855 2.28688 -3.63318 0
M  V30 2408 C 226.088 3.53431 -3.99903 0
M  V30 2409 O 226.311 4.60223 -3.36973 0
M  V30 2410 O 225.245 3.45198 -4.93074 0
M  V30 2411 H 229.071 0.824069 -2.92306 0
M  V30 2412 H 226.656 0.341745 -1.45439 0
M  V30 2413 H 228.538 3.26338 -2.66611 0
M  V30 2414 H 227.213 2.84382 -1.54624 0
M  V30 2415 H 226.12 1.4939 -3.42977 0
M  V30 2416 H 227.453 1.98355 -4.50462 0
M  V30 2417 N 229.106 1.52395 0.401703 0
M  V30 2418 C 230.334 1.70676 1.16949 0
M  V30 2419 C 230.749 0.419503 1.8408 0
M  V30 2420 O 230.106 -0.605061 1.72178 0
M  V30 2421 C 230.157 2.84753 2.22706 0
M  V30 2422 O 229.878 4.08495 1.58314 0
M  V30 2423 C 231.379 3.14608 3.12309 0
M  V30 2424 H 228.599 0.571787 0.351142 0
M  V30 2425 H 231.143 1.98987 0.471652 0
M  V30 2426 H 229.298 2.58941 2.88147 0
M  V30 2427 H 229.712 4.72117 2.28485 0
M  V30 2428 H 231.186 3.97923 3.82572 0
M  V30 2429 H 231.663 2.28464 3.75101 0
M  V30 2430 H 232.269 3.42212 2.52529 0
M  V30 2431 N 230.584 -0.659388 1.43143 0
M  V30 2432 C 231.547 -1.75432 1.47501 0
M  V30 2433 C 232.547 -1.56707 0.360512 0
M  V30 2434 O 233.737 -1.62717 0.622002 0
M  V30 2435 C 230.869 -3.14239 1.32162 0
M  V30 2436 H 232.062 -1.7295 2.45006 0
M  V30 2437 H 229.615 -0.870469 1.29817 0
M  V30 2438 H 230.35 -3.22336 0.356401 0
M  V30 2439 H 230.135 -3.29235 2.12948 0
M  V30 2440 H 231.625 -3.94094 1.3813 0
M  V30 2441 N 232.062 -1.29571 -0.897171 0
M  V30 2442 C 232.972 -1.16808 -2.03453 0
M  V30 2443 C 233.988 -0.0907471 -1.73763 0
M  V30 2444 O 235.164 -0.303312 -1.99103 0
M  V30 2445 C 232.229 -0.848264 -3.36163 0
M  V30 2446 C 231.29 -2.0097 -3.79354 0
M  V30 2447 C 230.523 -1.70505 -5.05731 0
M  V30 2448 O 230.746 -0.62718 -5.66941 0
M  V30 2449 O 229.68 -2.5538 -5.45036 0
M  V30 2450 H 233.506 -2.12325 -2.17144 0
M  V30 2451 H 231.091 -1.09047 -1.02123 0
M  V30 2452 H 232.973 -0.684581 -4.15802 0
M  V30 2453 H 231.648 0.0771071 -3.23608 0
M  V30 2454 H 230.555 -2.22863 -3.00471 0
M  V30 2455 H 231.888 -2.91636 -3.96496 0
M  V30 2456 N 233.54 1.10788 -1.12088 0
M  V30 2457 C 234.503 2.15207 -0.788577 0
M  V30 2458 C 235.503 1.59609 0.195317 0
M  V30 2459 O 236.693 1.74174 -0.0300193 0
M  V30 2460 C 233.825 3.4047 -0.171174 0
M  V30 2461 H 235.018 2.46116 -1.71368 0
M  V30 2462 H 232.571 1.26089 -0.923652 0
M  V30 2463 H 233.306 3.15176 0.763832 0
M  V30 2464 H 233.091 3.82109 -0.879514 0
M  V30 2465 H 234.581 4.17576 0.04496 0
M  V30 2466 N 235.018 0.912232 1.28515 0
M  V30 2467 C 236.248 0.559604 1.98877 0
M  V30 2468 C 236.656 -0.863113 1.68366 0
M  V30 2469 O 235.999 -1.58304 0.931969 0
M  V30 2470 C 236.061 0.68703 3.52874 0
M  V30 2471 C 235.725 2.07901 4.06972 0
M  V30 2472 C 236.722 3.05157 4.20922 0
M  V30 2473 C 234.407 2.39178 4.417 0
M  V30 2474 C 236.401 4.31806 4.68852 0
M  V30 2475 C 234.088 3.66068 4.89324 0
M  V30 2476 C 235.086 4.62195 5.02856 0
M  V30 2477 O 234.774 5.86829 5.49442 0
M  V30 2478 H 234.506 0.212191 0.641834 0
M  V30 2479 H 237.06 1.22712 1.64715 0
M  V30 2480 H 235.29 -0.0375486 3.86682 0
M  V30 2481 H 236.979 0.341727 4.04459 0
M  V30 2482 H 237.745 2.82311 3.94367 0
M  V30 2483 H 233.624 1.65109 4.30418 0
M  V30 2484 H 237.168 5.06842 4.79329 0
M  V30 2485 H 233.065 3.88739 5.15318 0
M  V30 2486 H 233.833 5.89597 5.6773 0
M  V30 2487 N 236.496 -1.42363 0.676048 0
M  V30 2488 C 237.426 -2.33497 0.0124832 0
M  V30 2489 C 238.407 -1.50748 -0.787981 0
M  V30 2490 O 239.592 -1.79346 -0.744884 0
M  V30 2491 C 236.722 -3.34377 -0.938582 0
M  V30 2492 C 235.676 -4.27289 -0.246622 0
M  V30 2493 C 235.002 -5.18386 -1.31071 0
M  V30 2494 C 236.302 -5.14916 0.875125 0
M  V30 2495 H 237.996 -2.89233 0.773593 0
M  V30 2496 H 235.542 -1.39073 0.37346 0
M  V30 2497 H 237.495 -3.97044 -1.41188 0
M  V30 2498 H 236.219 -2.76947 -1.73113 0
M  V30 2499 H 234.878 -3.66018 0.206456 0
M  V30 2500 H 234.526 -4.57282 -2.09528 0
M  V30 2501 H 234.226 -5.81378 -0.852839 0
M  V30 2502 H 235.75 -5.83929 -1.78492 0
M  V30 2503 H 237.164 -5.71262 0.482983 0
M  V30 2504 H 235.561 -5.86747 1.25887 0
M  V30 2505 H 236.631 -4.53242 1.72335 0
M  V30 2506 N 237.974 -0.419461 -1.51915 0
M  V30 2507 C 239.222 0.152637 -2.01523 0
M  V30 2508 C 239.543 1.44762 -1.30649 0
M  V30 2509 O 238.813 1.90997 -0.435535 0
M  V30 2510 H 237.393 0.0593966 -0.744635 0
M  V30 2511 H 240.055 -0.558073 -1.86739 0
M  V30 2512 H 239.151 0.341369 -3.10227 0
M  V30 2513 N 239.452 1.56882 -0.150215 0
M  V30 2514 C 240.399 2.16922 0.788244 0
M  V30 2515 C 241.369 1.10303 1.24187 0
M  V30 2516 O 242.554 1.38359 1.31383 0
M  V30 2517 C 239.694 2.79754 2.02068 0
M  V30 2518 C 238.807 4.00775 1.61257 0
M  V30 2519 C 237.942 4.51595 2.79705 0
M  V30 2520 C 236.981 5.65074 2.35282 0
M  V30 2521 N 236.118 6.10499 3.4675 0
M  V30 2522 H 240.958 2.96779 0.269444 0
M  V30 2523 H 238.495 1.46599 0.12128 0
M  V30 2524 H 240.453 3.14329 2.74323 0
M  V30 2525 H 239.083 2.02536 2.51354 0
M  V30 2526 H 238.135 3.72158 0.787553 0
M  V30 2527 H 239.447 4.82978 1.24633 0
M  V30 2528 H 238.601 4.88242 3.60145 0
M  V30 2529 H 237.34 3.68406 3.19576 0
M  V30 2530 H 236.345 5.28 1.53283 0
M  V30 2531 H 237.57 6.50052 1.96493 0
M  V30 2532 H 235.516 5.30243 3.86236 0
M  V30 2533 H 235.433 6.87637 3.14152 0
M  V30 2534 H 236.701 6.51791 4.27537 0
M  V30 2535 N 240.93 -0.123565 1.57115 0
M  V30 2536 C 241.877 -1.15177 2.00007 0
M  V30 2537 C 242.847 -1.41403 0.871454 0
M  V30 2538 O 244.032 -1.53346 1.13533 0
M  V30 2539 C 241.172 -2.47436 2.40561 0
M  V30 2540 C 240.285 -2.28184 3.66819 0
M  V30 2541 C 239.42 -3.53641 3.96373 0
M  V30 2542 C 238.459 -3.29528 5.15827 0
M  V30 2543 N 237.596 -4.47175 5.41275 0
M  V30 2544 H 242.436 -0.779008 2.87638 0
M  V30 2545 H 239.973 -0.373166 1.42288 0
M  V30 2546 H 241.931 -3.24584 2.62109 0
M  V30 2547 H 240.561 -2.82614 1.55978 0
M  V30 2548 H 239.613 -1.41976 3.52912 0
M  V30 2549 H 240.925 -2.0634 4.5412 0
M  V30 2550 H 240.079 -4.39209 4.18545 0
M  V30 2551 H 238.818 -3.78512 3.07538 0
M  V30 2552 H 237.823 -2.42349 4.93505 0
M  V30 2553 H 239.048 -3.06031 6.06236 0
M  V30 2554 H 236.994 -4.72175 4.55397 0
M  V30 2555 H 236.911 -4.28419 6.22891 0
M  V30 2556 H 238.179 -5.3389 5.67963 0
M  V30 2557 N 242.408 -1.52605 -0.393616 0
M  V30 2558 C 243.654 -1.67672 -1.14079 0
M  V30 2559 C 243.987 -0.413121 -1.89755 0
M  V30 2560 O 243.262 0.588952 -1.85369 0
M  V30 2561 C 243.545 -2.9088 -2.12276 0
M  V30 2562 C 243.398 -4.27329 -1.40394 0
M  V30 2563 C 244.717 -3.09628 -3.12759 0
M  V30 2564 H 241.836 -0.610168 -0.413356 0
M  V30 2565 H 244.478 -1.85193 -0.424696 0
M  V30 2566 H 242.628 -2.76073 -2.73342 0
M  V30 2567 H 244.3 -4.53894 -0.82327 0
M  V30 2568 H 242.543 -4.2802 -0.705801 0
M  V30 2569 H 243.214 -5.09615 -2.12123 0
M  V30 2570 H 245.69 -3.23436 -2.61779 0
M  V30 2571 H 244.566 -3.97322 -3.78717 0
M  V30 2572 H 244.827 -2.23637 -3.81365 0
M  V30 2573 N 243.887 0.651787 -1.4349 0
M  V30 2574 C 245.115 1.43937 -1.48626 0
M  V30 2575 C 245.53 1.8851 -0.104587 0
M  V30 2576 O 244.887 1.5958 0.885464 0
M  V30 2577 C 244.938 2.6734 -2.43334 0
M  V30 2578 O 244.659 2.24631 -3.76128 0
M  V30 2579 C 246.16 3.60683 -2.57726 0
M  V30 2580 H 243.38 0.44213 -0.504739 0
M  V30 2581 H 245.924 0.798944 -1.88248 0
M  V30 2582 H 244.079 3.2752 -2.06904 0
M  V30 2583 H 244.493 3.04485 -4.2707 0
M  V30 2584 H 245.967 4.43933 -3.28067 0
M  V30 2585 H 246.444 4.08126 -1.62265 0
M  V30 2586 H 247.05 3.06384 -2.94973 0
M  V30 2587 N 245.365 1.30045 0.890287 0
M  V30 2588 C 246.315 1.12592 1.9826 0
M  V30 2589 C 247.299 0.0426021 1.60844 0
M  V30 2590 O 248.491 0.265346 1.75 0
M  V30 2591 C 245.62 0.814301 3.33503 0
M  V30 2592 C 244.706 1.93761 3.7725 0
M  V30 2593 N 245.097 3.18232 3.93143 0
M  V30 2594 C 243.395 1.83277 4.06602 0
M  V30 2595 C 244.096 3.9158 4.30163 0
M  V30 2596 N 243.072 3.19591 4.3973 0
M  V30 2597 H 246.874 2.07003 2.08631 0
M  V30 2598 H 244.388 1.21307 1.07974 0
M  V30 2599 H 246.385 0.67029 4.11476 0
M  V30 2600 H 245.045 -0.121797 3.24471 0
M  V30 2601 H 246.056 3.53581 3.78419 0
M  V30 2602 H 242.733 0.97001 4.06075 0
M  V30 2603 H 244.123 4.98744 4.50226 0
M  V30 2604 N 246.843 -1.10192 1.12674 0
M  V30 2605 C 247.806 -2.14786 0.799979 0
M  V30 2606 C 248.806 -1.59711 -0.18685 0
M  V30 2607 O 249.996 -1.74156 0.0392558 0
M  V30 2608 C 247.128 -3.40374 0.189228 0
M  V30 2609 H 248.321 -2.45203 1.72671 0
M  V30 2610 H 245.874 -1.25597 0.930326 0
M  V30 2611 H 246.609 -3.15577 -0.747107 0
M  V30 2612 H 246.394 -3.81637 0.899766 0
M  V30 2613 H 247.884 -4.17594 -0.0228143 0
M  V30 2614 N 248.321 -0.919034 -1.28029 0
M  V30 2615 C 249.567 -0.555757 -1.95036 0
M  V30 2616 C 249.9 0.899198 -1.72128 0
M  V30 2617 O 249.175 1.64023 -1.04531 0
M  V30 2618 C 249.458 -0.872024 -3.49382 0
M  V30 2619 C 249.311 -2.3801 -3.81669 0
M  V30 2620 C 250.63 -0.37185 -4.38526 0
M  V30 2621 H 247.749 -0.203386 -0.708381 0
M  V30 2622 H 250.391 -1.14924 -1.51303 0
M  V30 2623 H 248.541 -0.366946 -3.86763 0
M  V30 2624 H 250.213 -2.9562 -3.54128 0
M  V30 2625 H 248.456 -2.83289 -3.28526 0
M  V30 2626 H 249.127 -2.55192 -4.8947 0
M  V30 2627 H 251.603 -0.804602 -4.08247 0
M  V30 2628 H 250.479 -0.622173 -5.45362 0
M  V30 2629 H 250.74 0.727934 -4.36066 0
M  V30 2630 N 249.799 1.42003 -0.683588 0
M  V30 2631 C 251.045 2.01712 -0.209825 0
M  V30 2632 C 251.378 1.53968 1.18353 0
M  V30 2633 O 250.653 0.745661 1.79639 0
M  V30 2634 C 250.936 3.59202 -0.254197 0
M  V30 2635 C 250.789 4.17102 -1.68363 0
M  V30 2636 C 252.108 4.38344 0.392709 0
M  V30 2637 H 249.227 0.732891 -0.0777189 0
M  V30 2638 H 251.869 1.68909 -0.87004 0
M  V30 2639 H 250.019 3.87278 0.307954 0
M  V30 2640 H 251.691 3.99946 -2.29871 0
M  V30 2641 H 249.934 3.72597 -2.22157 0
M  V30 2642 H 250.605 5.26249 -1.6663 0
M  V30 2643 H 253.081 4.16011 -0.0859162 0
M  V30 2644 H 251.957 5.47901 0.331063 0
M  V30 2645 H 252.218 4.16887 1.47164 0
M  V30 2646 N 251.277 0.427512 1.51691 0
M  V30 2647 C 252.505 -0.141191 2.06418 0
M  V30 2648 C 252.92 -1.37303 1.29589 0
M  V30 2649 O 252.277 -1.79059 0.352732 0
M  V30 2650 C 252.328 -0.473266 3.58389 0
M  V30 2651 O 252.049 0.709673 4.32314 0
M  V30 2652 C 253.55 -1.09371 4.29596 0
M  V30 2653 H 250.77 -0.0122747 0.670888 0
M  V30 2654 H 253.314 0.603764 1.95384 0
M  V30 2655 H 251.469 -1.16812 3.69369 0
M  V30 2656 H 251.883 0.42807 5.2275 0
M  V30 2657 H 253.357 -1.27613 5.37046 0
M  V30 2658 H 253.834 -2.072 3.87253 0
M  V30 2659 H 254.44 -0.43853 4.23033 0
M  V30 2660 N 252.755 -1.56801 0.158532 0
M  V30 2661 C 254.001 -1.96781 -0.490405 0
M  V30 2662 C 254.334 -1.04397 -1.63753 0
M  V30 2663 O 253.609 -0.0885805 -1.94298 0
M  V30 2664 C 253.892 -3.4635 -0.985594 0
M  V30 2665 C 253.745 -4.49512 0.160824 0
M  V30 2666 C 255.064 -3.98697 -1.86355 0
M  V30 2667 H 252.183 -0.715482 -0.176788 0
M  V30 2668 H 254.825 -1.88451 0.242088 0
M  V30 2669 H 252.975 -3.53579 -1.60978 0
M  V30 2670 H 254.647 -4.54353 0.797537 0
M  V30 2671 H 252.89 -4.26013 0.818256 0
M  V30 2672 H 253.561 -5.51531 -0.227569 0
M  V30 2673 H 256.037 -3.94019 -1.33746 0
M  V30 2674 H 254.913 -5.03792 -2.17909 0
M  V30 2675 H 255.174 -3.41744 -2.8047 0
M  V30 2676 N 254.233 0.115231 -1.57178 0
M  V30 2677 C 255.644 0.67197 -1.74188 0
M  V30 2678 C 255.995 1.80125 -0.777777 0
M  V30 2679 O 255.12 2.16346 0.0484376 0
M  V30 2680 C 255.715 1.22573 -3.1585 0
M  V30 2681 C 254.274 1.72872 -3.34353 0
M  V30 2682 C 253.421 0.629972 -2.70049 0
M  V30 2683 H 256.372 -0.110712 -1.58313 0
M  V30 2684 H 256.393 2.09535 -3.17609 0
M  V30 2685 H 255.905 0.403598 -3.85996 0
M  V30 2686 H 254.006 2.5755 -2.69256 0
M  V30 2687 H 254.119 1.83557 -4.42542 0
M  V30 2688 H 252.483 1.0645 -2.31388 0
M  V30 2689 H 253.266 -0.181241 -3.42821 0
M  V30 2690 N 255.711 1.52812 0.385517 0
M  V30 2691 C 256.674 1.77188 1.45386 0
M  V30 2692 C 257.674 0.641953 1.4743 0
M  V30 2693 O 258.864 0.910033 1.4854 0
M  V30 2694 C 255.996 1.87582 2.8465 0
M  V30 2695 H 257.189 2.72583 1.25054 0
M  V30 2696 H 254.742 1.43586 0.617467 0
M  V30 2697 H 255.477 0.941849 3.10322 0
M  V30 2698 H 255.262 2.69748 2.84567 0
M  V30 2699 H 256.752 2.08102 3.62054 0
M  V30 2700 N 257.189 -0.644168 1.43834 0
M  V30 2701 C 258.419 -1.42939 1.49171 0
M  V30 2702 C 258.827 -1.88874 0.111048 0
M  V30 2703 O 258.17 -1.60656 -0.8908 0
M  V30 2704 C 258.232 -2.69151 2.38324 0
M  V30 2705 C 257.896 -2.45097 3.85715 0
M  V30 2706 C 258.893 -2.07747 4.76589 0
M  V30 2707 C 256.578 -2.59141 4.30292 0
M  V30 2708 C 258.572 -1.8475 6.10038 0
M  V30 2709 C 256.259 -2.35759 5.63792 0
M  V30 2710 C 257.257 -1.9862 6.53482 0
M  V30 2711 O 256.945 -1.75489 7.84512 0
M  V30 2712 H 256.677 -0.445271 0.508635 0
M  V30 2713 H 259.231 -0.79621 1.8934 0
M  V30 2714 H 257.461 -3.3506 1.93058 0
M  V30 2715 H 259.15 -3.31123 2.3476 0
M  V30 2716 H 259.916 -1.96465 4.43426 0
M  V30 2717 H 255.795 -2.87022 3.60749 0
M  V30 2718 H 259.339 -1.55686 6.80006 0
M  V30 2719 H 255.236 -2.46646 5.9652 0
M  V30 2720 H 256.004 -1.89841 7.9618 0
M  V30 2721 N 258.668 -1.30515 -0.883378 0
M  V30 2722 C 259.915 -1.1943 -1.63532 0
M  V30 2723 C 260.243 0.250627 -1.92878 0
M  V30 2724 O 259.498 1.19556 -1.54935 0
M  V30 2725 C 259.797 -1.96994 -2.98209 0
M  V30 2726 C 259.463 -3.466 -2.88408 0
M  V30 2727 C 258.125 -3.87397 -2.85442 0
M  V30 2728 C 260.477 -4.41863 -2.76418 0
M  V30 2729 C 257.805 -5.21745 -2.68327 0
M  V30 2730 C 260.157 -5.7632 -2.60841 0
M  V30 2731 C 258.821 -6.16354 -2.56251 0
M  V30 2732 H 258.091 -0.437025 -0.598406 0
M  V30 2733 H 260.738 -1.61635 -1.02696 0
M  V30 2734 H 259.043 -1.47429 -3.63004 0
M  V30 2735 H 260.74 -1.85808 -3.55354 0
M  V30 2736 H 257.33 -3.14182 -2.91527 0
M  V30 2737 H 261.514 -4.11285 -2.77775 0
M  V30 2738 H 256.77 -5.51853 -2.63189 0
M  V30 2739 H 260.944 -6.49772 -2.50538 0
M  V30 2740 H 258.571 -7.20401 -2.42748 0
M  V30 2741 N 260.146 1.09593 -1.13257 0
M  V30 2742 C 261.094 2.18271 -0.803783 0
M  V30 2743 C 262.088 1.68054 0.213148 0
M  V30 2744 O 263.294 1.79862 0.0704699 0
M  V30 2745 H 259.669 0.711949 -0.242143 0
M  V30 2746 H 261.64 2.43235 -1.72856 0
M  V30 2747 C 260.389 3.46536 -0.28424 0
M  V30 2748 H 259.712 3.85545 -1.05807 0
M  V30 2749 H 261.152 4.23899 -0.0925945 0
M  V30 2750 C 259.611 3.22036 0.989684 0
M  V30 2751 O 260.141 3.44509 2.06584 0
M  V30 2752 N 258.347 2.7565 0.920086 0
M  V30 2753 H 257.894 2.57562 0.0442019 0
M  V30 2754 H 257.852 2.59635 1.77306 0
M  V30 2755 N 261.624 0.925811 1.2754 0
M  V30 2756 C 262.901 0.483726 1.89524 0
M  V30 2757 C 263.281 -1.03809 1.83812 0
M  V30 2758 O 262.629 -1.89143 1.28207 0
M  V30 2759 C 262.839 1.02769 3.33526 0
M  V30 2760 C 264.187 1.08703 4.10449 0
M  V30 2761 O 265.211 0.977175 3.42534 0
M  V30 2762 O 264.07 1.25599 5.31871 0
M  V30 2763 H 261.164 0.15529 0.812289 0
M  V30 2764 H 263.71 1.01738 1.35822 0
M  V30 2765 H 262.482 2.07155 3.31967 0
M  V30 2766 H 262.105 0.475567 3.94746 0
M  V30 2767 N 263.102 -1.41638 0.69111 0
M  V30 2768 C 264.065 -2.29178 0.0319786 0
M  V30 2769 C 265.065 -1.44153 -0.712496 0
M  V30 2770 O 266.255 -1.65354 -0.548053 0
M  V30 2771 C 263.387 -3.26952 -0.965161 0
M  V30 2772 H 264.58 -2.88959 0.802681 0
M  V30 2773 H 262.133 -1.4955 0.454356 0
M  V30 2774 H 262.868 -2.72142 -1.76378 0
M  V30 2775 H 262.653 -3.89685 -0.434522 0
M  V30 2776 H 264.143 -3.92561 -1.42428 0
M  V30 2777 N 264.58 -0.43555 -1.51462 0
M  V30 2778 C 265.512 0.41257 -2.25456 0
M  V30 2779 C 266.525 0.987822 -1.29406 0
M  V30 2780 O 267.714 0.882266 -1.55172 0
M  V30 2781 C 264.814 1.58894 -2.99342 0
M  V30 2782 C 263.987 1.13288 -4.22474 0
M  V30 2783 C 263.046 2.17917 -4.78956 0
M  V30 2784 O 262.072 1.77425 -5.40841 0
M  V30 2785 N 263.274 3.50382 -4.62832 0
M  V30 2786 H 266.039 -0.221603 -2.9888 0
M  V30 2787 H 263.6 -0.264342 -1.59727 0
M  V30 2788 H 265.592 2.28508 -3.34015 0
M  V30 2789 H 264.162 2.12849 -2.28941 0
M  V30 2790 H 263.382 0.263881 -3.93316 0
M  V30 2791 H 264.67 0.805542 -5.02383 0
M  V30 2792 H 264.068 3.86013 -4.13534 0
M  V30 2793 H 262.625 4.15895 -5.01871 0
M  V30 2794 N 266.058 1.56714 -0.166846 0
M  V30 2795 C 267.474 1.58473 0.189372 0
M  V30 2796 C 267.674 1.18201 1.63189 0
M  V30 2797 O 266.73 0.891528 2.36237 0
M  V30 2798 C 268.043 3.00573 -0.0873872 0
M  V30 2799 C 269.591 3.1299 -0.0252443 0
M  V30 2800 C 270.066 4.57174 -0.274934 0
M  V30 2801 N 271.557 4.62665 -0.222553 0
M  V30 2802 C 272.292 5.72072 -0.389985 0
M  V30 2803 N 271.788 6.90054 -0.616229 0
M  V30 2804 N 273.581 5.61153 -0.326202 0
M  V30 2805 H 265.732 1.8118 -1.10849 0
M  V30 2806 H 267.995 0.839525 -0.440342 0
M  V30 2807 H 267.701 3.34497 -1.0865 0
M  V30 2808 H 267.575 3.72019 0.623037 0
M  V30 2809 H 269.962 2.78895 0.96444 0
M  V30 2810 H 270.043 2.43989 -0.768309 0
M  V30 2811 H 269.687 4.91976 -1.26181 0
M  V30 2812 H 269.617 5.24328 0.48869 0
M  V30 2813 H 272.108 3.77863 -0.0531512 0
M  V30 2814 H 272.421 7.69311 -0.733559 0
M  V30 2815 H 270.766 6.91927 -0.652791 0
M  V30 2816 H 273.957 4.67859 -0.150072 0
M  V30 2817 H 274.13 6.46364 -0.460116 0
M  V30 2818 N 267.536 -0.106894 1.57237 0
M  V30 2819 C 268.468 -1.15646 1.97885 0
M  V30 2820 C 269.481 -1.36981 0.879779 0
M  V30 2821 O 270.67 -1.35841 1.15799 0
M  V30 2822 C 267.77 -2.51425 2.27241 0
M  V30 2823 C 266.943 -2.50529 3.58545 0
M  V30 2824 C 266.002 -3.68145 3.75973 0
M  V30 2825 O 265.028 -3.51176 4.47956 0
M  V30 2826 N 266.23 -4.87177 3.15656 0
M  V30 2827 H 268.995 -0.81059 2.8853 0
M  V30 2828 H 266.556 -0.296024 1.59171 0
M  V30 2829 H 268.548 -3.28689 2.36105 0
M  V30 2830 H 267.118 -2.78147 1.42663 0
M  V30 2831 H 266.338 -1.58894 3.60758 0
M  V30 2832 H 267.626 -2.46997 4.44826 0
M  V30 2833 H 267.024 -5.03868 2.57165 0
M  V30 2834 H 265.581 -5.62075 3.30023 0
M  V30 2835 N 269.014 -1.53014 -0.377408 0
M  V30 2836 C 269.977 -1.77957 -1.44444 0
M  V30 2837 C 270.977 -0.649763 -1.47087 0
M  V30 2838 O 272.167 -0.917897 -1.48055 0
M  V30 2839 C 269.299 -1.89089 -2.83651 0
M  V30 2840 H 270.492 -2.73243 -1.23606 0
M  V30 2841 H 268.045 -1.43912 -0.609844 0
M  V30 2842 H 268.78 -0.958293 -3.09818 0
M  V30 2843 H 268.565 -2.71254 -2.83132 0
M  V30 2844 H 270.055 -2.1002 -3.60945 0
M  V30 2845 N 270.492 0.636531 -1.44174 0
M  V30 2846 C 271.72 1.42353 -1.50144 0
M  V30 2847 C 272.135 1.88389 -0.124575 0
M  V30 2848 O 271.492 1.6051 0.868489 0
M  V30 2849 C 271.543 2.64744 -2.46156 0
M  V30 2850 O 271.264 2.20629 -3.7849 0
M  V30 2851 C 272.765 3.57929 -2.61537 0
M  V30 2852 H 269.985 0.436752 -0.5094 0
M  V30 2853 H 272.529 0.778933 -1.89084 0
M  V30 2854 H 270.684 3.25307 -2.10366 0
M  V30 2855 H 271.098 2.99938 -4.30276 0
M  V30 2856 H 272.572 4.40428 -3.32757 0
M  V30 2857 H 273.049 4.06382 -1.66585 0
M  V30 2858 H 273.655 3.03238 -2.98206 0
M  V30 2859 N 271.97 1.30982 0.876444 0
M  V30 2860 C 272.917 1.18085 1.98304 0
M  V30 2861 C 273.887 0.0682263 1.6596 0
M  V30 2862 O 275.072 0.239937 1.89285 0
M  V30 2863 C 272.212 0.887475 3.33493 0
M  V30 2864 C 271.325 2.08281 3.78475 0
M  V30 2865 C 270.46 1.72678 5.0235 0
M  V30 2866 C 269.499 2.88657 5.39762 0
M  V30 2867 N 268.636 2.53292 6.54819 0
M  V30 2868 H 273.476 2.1275 2.08666 0
M  V30 2869 H 271.013 1.05839 1.02159 0
M  V30 2870 H 272.971 0.697961 4.1132 0
M  V30 2871 H 271.601 -0.022315 3.22792 0
M  V30 2872 H 270.653 2.3833 2.96484 0
M  V30 2873 H 271.965 2.95108 4.02135 0
M  V30 2874 H 271.119 1.50151 5.87826 0
M  V30 2875 H 269.858 0.830327 4.8058 0
M  V30 2876 H 268.863 3.1184 4.52809 0
M  V30 2877 H 270.088 3.79002 5.63502 0
M  V30 2878 H 268.034 1.66163 6.34607 0
M  V30 2879 H 267.951 3.3365 6.7839 0
M  V30 2880 H 269.219 2.34143 7.43503 0
M  V30 2881 N 273.449 -1.08991 1.13837 0
M  V30 2882 C 274.726 -1.77863 0.813876 0
M  V30 2883 C 275.106 -1.99375 -0.693746 0
M  V30 2884 O 274.454 -1.59875 -1.63255 0
M  V30 2885 C 274.664 -3.0986 1.60586 0
M  V30 2886 C 276.012 -3.84493 1.8014 0
M  V30 2887 O 277.036 -3.19624 1.57222 0
M  V30 2888 O 275.895 -5.00957 2.18413 0
M  V30 2889 H 272.989 -0.771589 0.297624 0
M  V30 2890 H 275.535 -1.15507 1.24323 0
M  V30 2891 H 274.307 -2.89715 2.63022 0
M  V30 2892 H 273.93 -3.79942 1.17173 0
M  V30 2893 N 274.927 -0.932562 -1.27047 0
M  V30 2894 C 275.89 -0.440064 -2.24936 0
M  V30 2895 C 276.89 0.444071 -1.54547 0
M  V30 2896 O 278.08 0.244465 -1.72476 0
M  V30 2897 C 275.212 0.36678 -3.38921 0
M  V30 2898 H 276.405 -1.305 -2.70018 0
M  V30 2899 H 273.958 -0.713707 -1.39054 0
M  V30 2900 H 274.693 1.25033 -2.99228 0
M  V30 2901 H 274.478 -0.267204 -3.91188 0
M  V30 2902 H 275.968 0.701567 -4.11665 0
M  V30 2903 N 276.405 1.4127 -0.698611 0
M  V30 2904 C 277.653 2.00782 -0.230409 0
M  V30 2905 C 277.974 1.5562 1.17505 0
M  V30 2906 O 277.244 0.78815 1.79346 0
M  V30 2907 H 275.824 0.742464 -0.0821944 0
M  V30 2908 H 278.486 1.72852 -0.90045 0
M  V30 2909 H 277.582 3.11095 -0.25021 0
M  V30 2910 N 277.883 0.443576 1.51229 0
M  V30 2911 C 279.111 -0.11929 2.06556 0
M  V30 2912 C 279.526 -1.35921 1.31038 0
M  V30 2913 O 278.883 -1.78675 0.371704 0
M  V30 2914 C 278.934 -0.435228 3.5887 0
M  V30 2915 O 278.655 0.755486 4.31537 0
M  V30 2916 C 280.156 -1.04808 4.30732 0
M  V30 2917 H 277.376 -0.0051584 0.67098 0
M  V30 2918 H 279.92 0.624453 1.94733 0
M  V30 2919 H 278.075 -1.12887 3.70588 0
M  V30 2920 H 278.489 0.483491 5.22267 0
M  V30 2921 H 279.963 -1.2191 5.3837 0
M  V30 2922 H 280.44 -2.03081 3.89429 0
M  V30 2923 H 281.046 -0.393637 4.23474 0
M  V30 2924 N 279.361 -1.56624 0.175154 0
M  V30 2925 C 280.61 -1.96173 -0.468921 0
M  V30 2926 C 280.923 -1.06401 -1.64128 0
M  V30 2927 O 282.129 -1.35648 -2.35185 0
M  V30 2928 C 280.585 -3.48833 -0.885633 0
M  V30 2929 C 280.193 -4.47237 0.261343 0
M  V30 2930 C 281.937 -3.97194 -1.49791 0
M  V30 2931 C 279.844 -5.9114 -0.175214 0
M  V30 2932 H 278.774 -0.732455 -0.178958 0
M  V30 2933 H 281.425 -1.81591 0.263997 0
M  V30 2934 H 279.807 -3.58848 -1.67464 0
M  V30 2935 H 280.981 -4.4894 1.03871 0
M  V30 2936 H 279.296 -4.08956 0.783827 0
M  V30 2937 H 281.893 -5.02167 -1.83665 0
M  V30 2938 H 282.236 -3.40351 -2.39722 0
M  V30 2939 H 282.769 -3.90212 -0.773267 0
M  V30 2940 H 279.508 -6.51865 0.689414 0
M  V30 2941 H 279.028 -5.92735 -0.91786 0
M  V30 2942 H 280.707 -6.44044 -0.617792 0
M  V30 2943 N 280.839 0.0985539 -1.57292 0
M  V30 2944 C 281.802 1.10402 -2.00858 0
M  V30 2945 C 282.802 1.33146 -0.901593 0
M  V30 2946 O 283.992 1.29318 -1.16716 0
M  V30 2947 C 281.124 2.45394 -2.36632 0
M  V30 2948 H 282.317 0.729099 -2.90902 0
M  V30 2949 H 279.87 0.343495 -1.52479 0
M  V30 2950 H 280.605 2.87769 -1.49531 0
M  V30 2951 H 280.39 2.30235 -3.17387 0
M  V30 2952 H 281.88 3.17718 -2.71007 0
M  V30 2953 N 282.317 1.53212 0.369288 0
M  V30 2954 C 283.565 1.68881 1.11012 0
M  V30 2955 C 283.886 0.441285 1.89941 0
M  V30 2956 O 283.156 -0.544623 1.88177 0
M  V30 2957 H 281.736 0.622569 0.412816 0
M  V30 2958 H 284.398 1.90391 0.416802 0
M  V30 2959 H 283.494 2.54822 1.80201 0
M  V30 2960 N 283.795 -0.628877 1.44509 0
M  V30 2961 C 284.725 -1.75187 1.54376 0
M  V30 2962 C 285.706 -1.65411 0.396618 0
M  V30 2963 O 286.891 -1.84137 0.617031 0
M  V30 2964 C 284.021 -3.13725 1.48976 0
M  V30 2965 C 282.975 -3.38291 2.62189 0
M  V30 2966 C 282.301 -4.76883 2.41841 0
M  V30 2967 C 283.601 -3.30632 4.04326 0
M  V30 2968 H 285.295 -1.67187 2.48373 0
M  V30 2969 H 282.841 -0.802909 1.19538 0
M  V30 2970 H 284.794 -3.92064 1.54478 0
M  V30 2971 H 283.518 -3.22515 0.514961 0
M  V30 2972 H 282.177 -2.62334 2.56079 0
M  V30 2973 H 281.825 -4.82378 1.42548 0
M  V30 2974 H 281.525 -4.94278 3.17747 0
M  V30 2975 H 283.049 -5.57449 2.49165 0
M  V30 2976 H 284.463 -3.98873 4.11793 0
M  V30 2977 H 282.86 -3.59561 4.80454 0
M  V30 2978 H 283.93 -2.28404 4.27738 0
M  V30 2979 N 285.273 -1.31445 -0.869486 0
M  V30 2980 C 286.221 -1.19067 -1.99814 0
M  V30 2981 C 287.215 -0.0988569 -1.69111 0
M  V30 2982 O 288.421 -0.260781 -1.78101 0
M  V30 2983 H 284.796 -0.368677 -0.655425 0
M  V30 2984 H 286.767 -2.14555 -2.07385 0
M  V30 2985 C 285.516 -0.915323 -3.35436 0
M  V30 2986 H 284.839 -1.74759 -3.59582 0
M  V30 2987 H 286.279 -0.868895 -4.15001 0
M  V30 2988 C 284.738 0.381928 -3.34728 0
M  V30 2989 O 285.268 1.39857 -3.76567 0
M  V30 2990 N 283.474 0.398633 -2.87853 0
M  V30 2991 H 283.021 -0.429186 -2.54 0
M  V30 2992 H 282.979 1.26651 -2.87762 0
M  V30 2993 N 286.751 1.08385 -1.14413 0
M  V30 2994 C 287.997 1.81044 -0.913834 0
M  V30 2995 C 288.33 1.86004 0.558209 0
M  V30 2996 O 287.605 1.33606 1.4135 0
M  V30 2997 C 287.888 3.26648 -1.51569 0
M  V30 2998 C 287.741 3.29895 -3.0576 0
M  V30 2999 C 289.06 4.23629 -1.19273 0
M  V30 3000 H 286.179 0.65727 -0.333414 0
M  V30 3001 H 288.821 1.26896 -1.41412 0
M  V30 3002 H 286.971 3.72889 -1.09023 0
M  V30 3003 H 288.643 2.91977 -3.57137 0
M  V30 3004 H 286.886 2.69163 -3.40197 0
M  V30 3005 H 287.557 4.32516 -3.42977 0
M  V30 3006 H 290.033 3.85727 -1.56057 0
M  V30 3007 H 288.909 5.23822 -1.64017 0
M  V30 3008 H 289.17 4.41968 -0.108068 0
M  V30 3009 N 288.23 0.939286 1.26551 0
M  V30 3010 C 289.163 0.391702 2.24813 0
M  V30 3011 C 290.141 -0.518421 1.54114 0
M  V30 3012 O 291.325 -0.456299 1.82894 0
M  V30 3013 C 288.452 -0.437382 3.35864 0
M  V30 3014 C 287.498 0.410946 4.24516 0
M  V30 3015 S 288.331 1.83372 5.03125 0
M  V30 3016 C 289.487 1.01264 6.17654 0
M  V30 3017 H 289.72 1.22448 2.70913 0
M  V30 3018 H 287.253 0.742269 1.35387 0
M  V30 3019 H 289.211 -0.909837 4.0029 0
M  V30 3020 H 287.872 -1.24482 2.8838 0
M  V30 3021 H 287.065 -0.224191 5.03501 0
M  V30 3022 H 286.667 0.818014 3.64945 0
M  V30 3023 H 288.959 0.254023 6.77024 0
M  V30 3024 H 289.902 1.77589 6.85469 0
M  V30 3025 H 290.31 0.549532 5.61819 0
M  V30 3026 N 289.708 -1.40897 0.706093 0
M  V30 3027 C 291.124 -1.55042 0.37869 0
M  V30 3028 C 291.324 -1.67944 -1.11342 0
M  V30 3029 O 290.38 -1.66372 -1.89938 0
M  V30 3030 C 291.693 -2.78398 1.13643 0
M  V30 3031 C 293.241 -2.92206 1.12181 0
M  V30 3032 C 293.716 -4.18463 1.86152 0
M  V30 3033 N 295.207 -4.25443 1.83173 0
M  V30 3034 C 295.942 -5.2202 2.37239 0
M  V30 3035 N 295.438 -6.24563 2.99821 0
M  V30 3036 N 297.231 -5.14033 2.27435 0
M  V30 3037 H 289.382 -1.30769 1.67372 0
M  V30 3038 H 291.645 -0.631653 0.706907 0
M  V30 3039 H 291.351 -2.7511 2.19106 0
M  V30 3040 H 291.225 -3.70228 0.721853 0
M  V30 3041 H 293.612 -2.95004 0.0754171 0
M  V30 3042 H 293.693 -2.01521 1.57554 0
M  V30 3043 H 293.337 -4.16427 2.90776 0
M  V30 3044 H 293.267 -5.08141 1.38206 0
M  V30 3045 H 295.758 -3.51976 1.37556 0
M  V30 3046 H 296.071 -6.94665 3.38616 0
M  V30 3047 H 294.416 -6.25035 3.03902 0
M  V30 3048 H 297.607 -4.3285 1.78208 0
M  V30 3049 H 297.78 -5.89129 2.69873 0
M  V30 3050 N 291.186 -0.45159 -1.50991 0
M  V30 3051 C 292.435 0.111653 -2.01391 0
M  V30 3052 C 292.748 1.42529 -1.33959 0
M  V30 3053 O 293.954 2.07232 -1.75405 0
M  V30 3054 C 292.41 0.249514 -3.59034 0
M  V30 3055 C 292.018 -1.05453 -4.35412 0
M  V30 3056 C 293.762 0.765762 -4.17536 0
M  V30 3057 C 291.669 -0.881529 -5.84793 0
M  V30 3058 H 290.599 0.0455022 -0.752626 0
M  V30 3059 H 293.25 -0.583524 -1.73975 0
M  V30 3060 H 291.632 1.00803 -3.82955 0
M  V30 3061 H 292.806 -1.82248 -4.23229 0
M  V30 3062 H 291.121 -1.50039 -3.88429 0
M  V30 3063 H 293.718 0.911913 -5.26866 0
M  V30 3064 H 294.061 1.75201 -3.77638 0
M  V30 3065 H 294.594 0.0651744 -3.97747 0
M  V30 3066 H 291.333 -1.84057 -6.29129 0
M  V30 3067 H 290.853 -0.153625 -5.99603 0
M  V30 3068 H 292.532 -0.540363 -6.4474 0
M  V30 3069 N 292.664 1.56529 -0.183458 0
M  V30 3070 C 293.913 1.96419 0.458511 0
M  V30 3071 C 294.226 1.0727 1.63562 0
M  V30 3072 O 295.432 1.36893 2.34462 0
M  V30 3073 C 293.888 3.49298 0.867122 0
M  V30 3074 C 293.496 4.47092 -0.285057 0
M  V30 3075 C 295.24 3.97983 1.47683 0
M  V30 3076 C 293.147 5.91225 0.143862 0
M  V30 3077 H 292.077 0.733394 0.175071 0
M  V30 3078 H 294.728 1.81448 -0.273624 0
M  V30 3079 H 293.11 3.59731 1.65559 0
M  V30 3080 H 294.284 4.48383 -1.0625 0
M  V30 3081 H 292.599 4.08535 -0.805503 0
M  V30 3082 H 295.196 5.03134 1.80999 0
M  V30 3083 H 295.539 3.41618 2.37914 0
M  V30 3084 H 296.072 3.90617 0.752562 0
M  V30 3085 H 292.811 6.5149 -0.723974 0
M  V30 3086 H 292.331 5.93214 0.886413 0
M  V30 3087 H 294.01 6.44362 0.583628 0
M  V30 3088 N 294.142 -0.090211 1.57342 0
M  V30 3089 C 295.09 -1.12792 2.03422 0
M  V30 3090 C 296.084 -1.41182 0.936166 0
M  V30 3091 O 297.29 -1.40805 1.12133 0
M  V30 3092 H 293.665 -0.380986 0.648347 0
M  V30 3093 H 295.636 -0.71299 2.89757 0
M  V30 3094 C 294.385 -2.43855 2.47851 0
M  V30 3095 H 293.708 -2.22855 3.31927 0
M  V30 3096 H 295.148 -3.14955 2.83865 0
M  V30 3097 C 293.607 -3.08503 1.3538 0
M  V30 3098 O 294.137 -3.95805 0.685641 0
M  V30 3099 N 292.343 -2.68831 1.10355 0
M  V30 3100 H 291.89 -1.97929 1.64869 0
M  V30 3101 H 291.848 -3.12412 0.353031 0
M  V30 3102 N 295.62 -1.53406 -0.361157 0
M  V30 3103 C 296.53 -1.83122 -1.4664 0
M  V30 3104 C 297.546 -0.719943 -1.58407 0
M  V30 3105 O 298.722 -1.01046 -1.74218 0
M  V30 3106 C 295.787 -2.01891 -2.81853 0
M  V30 3107 C 294.848 -3.25784 -2.79577 0
M  V30 3108 C 294.081 -3.43648 -4.0834 0
M  V30 3109 O 294.304 -2.65714 -5.0473 0
M  V30 3110 O 293.238 -4.37018 -4.13883 0
M  V30 3111 H 297.064 -2.7703 -1.24451 0
M  V30 3112 H 294.649 -1.38841 -0.551678 0
M  V30 3113 H 296.531 -2.15782 -3.61962 0
M  V30 3114 H 295.206 -1.11173 -3.0401 0
M  V30 3115 H 294.113 -3.17312 -1.98151 0
M  V30 3116 H 295.446 -4.16439 -2.62373 0
M  V30 3117 N 297.098 0.621204 -1.44841 0
M  V30 3118 C 298.509 1.20298 -1.42777 0
M  V30 3119 C 298.86 1.95639 -0.148259 0
M  V30 3120 O 297.985 2.02955 0.750892 0
M  V30 3121 C 298.58 2.1882 -2.58657 0
M  V30 3122 C 297.139 2.72403 -2.59756 0
M  V30 3123 C 296.286 1.4757 -2.34773 0
M  V30 3124 H 299.237 0.411297 -1.53278 0
M  V30 3125 H 299.258 3.01607 -2.31977 0
M  V30 3126 H 298.77 1.63957 -3.51766 0
M  V30 3127 H 296.871 3.31242 -1.70615 0
M  V30 3128 H 296.984 3.17765 -3.58556 0
M  V30 3129 H 295.348 1.76051 -1.8406 0
M  V30 3130 H 296.131 0.945954 -3.3001 0
M  V30 3131 N 298.576 1.31904 0.862503 0
M  V30 3132 C 299.804 1.24998 1.64873 0
M  V30 3133 C 300.219 -0.183425 1.87907 0
M  V30 3134 O 299.576 -1.11794 1.44251 0
M  V30 3135 C 299.627 1.99829 3.01248 0
M  V30 3136 O 299.348 3.37575 2.79239 0
M  V30 3137 C 300.849 1.99852 3.95694 0
M  V30 3138 H 298.069 0.431599 0.513773 0
M  V30 3139 H 300.613 1.73901 1.07604 0
M  V30 3140 H 298.768 1.54668 3.55185 0
M  V30 3141 H 299.182 3.75776 3.65914 0
M  V30 3142 H 300.656 2.56709 4.88676 0
M  V30 3143 H 301.133 0.982852 4.28062 0
M  V30 3144 H 301.739 2.44926 3.47694 0
M  V30 3145 N 300.054 -1.07777 1.14986 0
M  V30 3146 C 301.017 -2.13041 0.845358 0
M  V30 3147 C 302.017 -1.60071 -0.152931 0
M  V30 3148 O 303.207 -1.74033 0.0761879 0
M  V30 3149 C 300.339 -3.39896 0.261383 0
M  V30 3150 H 301.532 -2.41485 1.77834 0
M  V30 3151 H 299.085 -1.23595 0.956757 0
M  V30 3152 H 299.82 -3.17091 -0.68 0
M  V30 3153 H 299.605 -3.79642 0.980514 0
M  V30 3154 H 301.095 -4.17548 0.0657687 0
M  V30 3155 N 301.532 -0.945985 -1.26051 0
M  V30 3156 C 302.495 -0.463897 -2.24456 0
M  V30 3157 C 303.495 0.427655 -1.55009 0
M  V30 3158 O 304.685 0.226157 -1.72726 0
M  V30 3159 C 301.817 0.330812 -3.39291 0
M  V30 3160 H 303.01 -1.33357 -2.68619 0
M  V30 3161 H 300.563 -0.728416 -1.38289 0
M  V30 3162 H 301.298 1.21852 -3.00537 0
M  V30 3163 H 301.083 -0.308679 -3.90883 0
M  V30 3164 H 302.573 0.657865 -4.12386 0
M  V30 3165 N 303.011 1.40521 -0.713556 0
M  V30 3166 C 303.974 2.29098 -0.0684347 0
M  V30 3167 C 304.974 1.45268 0.689472 0
M  V30 3168 O 306.164 1.66205 0.521677 0
M  V30 3169 C 303.296 3.28446 0.913024 0
M  V30 3170 H 304.489 2.87645 -0.84855 0
M  V30 3171 H 302.042 1.48809 -0.47809 0
M  V30 3172 H 302.777 2.74913 1.72027 0
M  V30 3173 H 302.562 3.90327 0.372472 0
M  V30 3174 H 304.052 3.94777 1.36165 0
M  V30 3175 N 304.489 0.459591 1.5075 0
M  V30 3176 C 305.738 -0.100971 2.01447 0
M  V30 3177 C 306.051 -1.41816 1.34713 0
M  V30 3178 O 307.257 -2.06299 1.76502 0
M  V30 3179 C 305.713 -0.23047 3.59161 0
M  V30 3180 C 305.321 1.0776 4.34847 0
M  V30 3181 C 307.065 -0.743608 4.17936 0
M  V30 3182 C 304.972 0.91253 5.84317 0
M  V30 3183 H 303.902 -0.0415102 0.752856 0
M  V30 3184 H 306.553 0.592742 1.73663 0
M  V30 3185 H 304.935 -0.987703 3.83485 0
M  V30 3186 H 306.109 1.8449 4.22256 0
M  V30 3187 H 304.424 1.52097 3.87628 0
M  V30 3188 H 307.021 -0.883959 5.27343 0
M  V30 3189 H 307.364 -1.73196 3.78562 0
M  V30 3190 H 307.897 -0.04408 3.97776 0
M  V30 3191 H 304.636 1.87391 6.28144 0
M  V30 3192 H 304.156 0.185422 5.99513 0
M  V30 3193 H 305.835 0.574547 6.44444 0
M  V30 3194 N 305.967 -1.56429 0.191757 0
M  V30 3195 C 306.93 -2.17707 -0.716688 0
M  V30 3196 C 307.93 -1.13061 -1.14341 0
M  V30 3197 O 309.12 -1.38464 -1.05704 0
M  V30 3198 C 306.252 -2.77644 -1.97804 0
M  V30 3199 H 307.445 -2.99342 -0.1829 0
M  V30 3200 H 304.998 -1.56193 -0.0578566 0
M  V30 3201 H 305.733 -1.99799 -2.55443 0
M  V30 3202 H 305.518 -3.54246 -1.68083 0
M  V30 3203 H 307.008 -3.24708 -2.62592 0
M  V30 3204 N 307.445 0.0818655 -1.57387 0
M  V30 3205 C 308.675 0.794954 -1.90694 0
M  V30 3206 C 309.083 1.72147 -0.784982 0
M  V30 3207 O 308.426 1.81974 0.251196 0
M  V30 3208 C 308.488 1.65042 -3.19376 0
M  V30 3209 C 308.152 0.894337 -4.48164 0
M  V30 3210 C 309.149 0.21813 -5.19442 0
M  V30 3211 C 306.834 0.864495 -4.94805 0
M  V30 3212 C 308.828 -0.477802 -6.35607 0
M  V30 3213 C 306.515 0.164785 -6.10878 0
M  V30 3214 C 307.513 -0.505173 -6.81129 0
M  V30 3215 O 307.201 -1.19363 -7.94989 0
M  V30 3216 H 306.933 0.231779 -0.635023 0
M  V30 3217 H 309.487 0.059493 -2.05314 0
M  V30 3218 H 307.717 2.42844 -3.00938 0
M  V30 3219 H 309.406 2.24127 -3.38411 0
M  V30 3220 H 310.172 0.232558 -4.84442 0
M  V30 3221 H 306.051 1.37542 -4.40004 0
M  V30 3222 H 309.595 -1.00129 -6.90377 0
M  V30 3223 H 305.492 0.148249 -6.4533 0
M  V30 3224 H 306.26 -1.10188 -8.11049 0
M  V30 3225 N 308.923 1.53595 0.353017 0
M  V30 3226 C 310.171 1.70049 1.09215 0
M  V30 3227 C 310.492 0.461406 1.89463 0
M  V30 3228 O 309.762 -0.524633 1.88744 0
M  V30 3229 H 308.342 0.626912 0.40619 0
M  V30 3230 H 311.004 1.90822 0.396585 0
M  V30 3231 H 310.1 2.56718 1.77488 0
M  V30 3232 N 310.401 -0.613514 1.45168 0
M  V30 3233 C 311.331 -1.7354 1.56225 0
M  V30 3234 C 312.312 -1.64981 0.41414 0
M  V30 3235 O 313.497 -1.83472 0.636526 0
M  V30 3236 C 310.627 -3.12128 1.52295 0
M  V30 3237 C 309.581 -3.35491 2.65762 0
M  V30 3238 C 308.907 -4.74291 2.46885 0
M  V30 3239 C 310.207 -3.26325 4.0781 0
M  V30 3240 H 311.901 -1.64543 2.50132 0
M  V30 3241 H 309.447 -0.790185 1.20383 0
M  V30 3242 H 311.4 -3.90404 1.58628 0
M  V30 3243 H 310.124 -3.2195 0.549139 0
M  V30 3244 H 308.783 -2.59603 2.58847 0
M  V30 3245 H 308.431 -4.80839 1.47657 0
M  V30 3246 H 308.131 -4.9088 3.22972 0
M  V30 3247 H 309.655 -5.54775 2.55063 0
M  V30 3248 H 311.069 -3.94483 4.16 0
M  V30 3249 H 309.466 -3.54445 4.8424 0
M  V30 3250 H 310.536 -2.23855 4.30136 0
M  V30 3251 N 311.879 -1.3236 -0.855495 0
M  V30 3252 C 313.156 -1.13491 -1.59309 0
M  V30 3253 C 313.536 0.30503 -2.08885 0
M  V30 3254 O 312.884 1.30151 -1.87811 0
M  V30 3255 C 313.094 -2.16176 -2.73987 0
M  V30 3256 C 314.442 -2.49463 -3.43589 0
M  V30 3257 O 315.466 -2.14715 -2.84211 0
M  V30 3258 O 314.325 -3.09027 -4.50738 0
M  V30 3259 H 311.419 -0.437887 -0.701559 0
M  V30 3260 H 313.965 -1.43887 -0.899696 0
M  V30 3261 H 312.737 -3.1297 -2.34873 0
M  V30 3262 H 312.36 -1.86769 -3.51003 0
M  V30 3263 N 313.357 1.07166 -1.15556 0
M  V30 3264 C 314.304 2.14417 -0.854055 0
M  V30 3265 C 315.274 1.64965 0.193806 0
M  V30 3266 O 316.459 1.90703 0.0609443 0
M  V30 3267 C 313.599 3.43304 -0.351574 0
M  V30 3268 C 312.712 4.06537 -1.46123 0
M  V30 3269 C 311.847 5.23266 -0.914677 0
M  V30 3270 C 310.886 5.78464 -2.00114 0
M  V30 3271 N 310.023 6.86521 -1.47083 0
M  V30 3272 H 314.863 2.39548 -1.77259 0
M  V30 3273 H 312.4 1.17543 -0.884425 0
M  V30 3274 H 314.358 4.17179 -0.0419409 0
M  V30 3275 H 312.988 3.18419 0.530037 0
M  V30 3276 H 312.04 3.30297 -1.88701 0
M  V30 3277 H 313.352 4.43567 -2.28144 0
M  V30 3278 H 312.506 6.04131 -0.557698 0
M  V30 3279 H 311.245 4.87658 -0.0636583 0
M  V30 3280 H 310.25 4.96243 -2.36692 0
M  V30 3281 H 311.475 6.16126 -2.85597 0
M  V30 3282 H 309.421 6.52849 -0.642198 0
M  V30 3283 H 309.338 7.22446 -2.22729 0
M  V30 3284 H 310.606 7.71087 -1.14215 0
M  V30 3285 N 314.835 0.952656 1.25548 0
M  V30 3286 C 316.251 0.656769 1.4546 0
M  V30 3287 C 316.451 -0.78633 1.85524 0
M  V30 3288 O 315.507 -1.56183 1.98402 0
M  V30 3289 C 316.82 1.62801 2.52817 0
M  V30 3290 C 318.368 1.63897 2.66659 0
M  V30 3291 C 318.843 2.5978 3.77198 0
M  V30 3292 N 320.334 2.58133 3.84606 0
M  V30 3293 C 321.069 3.29003 4.69621 0
M  V30 3294 N 320.565 4.09339 5.58939 0
M  V30 3295 N 322.358 3.179 4.63569 0
M  V30 3296 H 314.509 1.88526 0.978344 0
M  V30 3297 H 316.772 0.810815 0.491206 0
M  V30 3298 H 316.478 2.65869 2.30232 0
M  V30 3299 H 316.352 1.38898 3.50695 0
M  V30 3300 H 318.739 0.615481 2.8861 0
M  V30 3301 H 318.82 1.91858 1.69187 0
M  V30 3302 H 318.464 3.62254 3.55997 0
M  V30 3303 H 318.394 2.29105 4.7415 0
M  V30 3304 H 320.885 1.99809 3.20757 0
M  V30 3305 H 321.198 4.6034 6.20731 0
M  V30 3306 H 319.543 4.13438 5.58654 0
M  V30 3307 H 322.734 2.54612 3.92798 0
M  V30 3308 H 322.907 3.73398 5.29602 0
M  V30 3309 N 316.313 -1.40141 0.720998 0
M  V30 3310 C 317.223 -2.34486 0.0731031 0
M  V30 3311 C 318.239 -1.57587 -0.737723 0
M  V30 3312 O 319.415 -1.89949 -0.669429 0
M  V30 3313 C 316.48 -3.36528 -0.833656 0
M  V30 3314 C 315.541 -4.29298 -0.0121673 0
M  V30 3315 C 314.774 -5.26466 -0.875742 0
M  V30 3316 O 314.997 -5.29745 -2.11485 0
M  V30 3317 O 313.931 -6.01092 -0.31185 0
M  V30 3318 H 317.757 -2.9152 0.851444 0
M  V30 3319 H 315.342 -1.41427 0.481527 0
M  V30 3320 H 317.224 -3.99093 -1.35289 0
M  V30 3321 H 315.899 -2.81899 -1.59105 0
M  V30 3322 H 314.806 -3.70001 0.552262 0
M  V30 3323 H 316.139 -4.87094 0.707129 0
M  V30 3324 N 317.792 -0.46758 -1.50504 0
M  V30 3325 C 319.04 0.0884469 -2.01906 0
M  V30 3326 C 319.361 1.40532 -1.35188 0
M  V30 3327 O 318.631 1.89515 -0.496079 0
M  V30 3328 H 317.211 0.0356765 -0.746148 0
M  V30 3329 H 319.873 -0.6172 -1.84869 0
M  V30 3330 H 318.969 0.2425 -3.11156 0
M  V30 3331 N 319.27 1.56325 -0.20005 0
M  V30 3332 C 320.18 2.22931 0.730668 0
M  V30 3333 C 321.196 1.22997 1.23076 0
M  V30 3334 O 322.372 1.55748 1.27689 0
M  V30 3335 C 319.437 2.87948 1.93098 0
M  V30 3336 C 318.498 4.03166 1.47497 0
M  V30 3337 C 317.731 4.65073 2.61807 0
M  V30 3338 O 317.954 4.25913 3.79413 0
M  V30 3339 O 316.888 5.54452 2.34237 0
M  V30 3340 H 320.714 3.03084 0.193391 0
M  V30 3341 H 318.299 1.49371 0.0294621 0
M  V30 3342 H 320.181 3.29063 2.6324 0
M  V30 3343 H 318.856 2.10771 2.45677 0
M  V30 3344 H 317.763 3.66664 0.742201 0
M  V30 3345 H 319.096 4.82022 0.995796 0
M  V30 3346 N 320.748 -0.0735177 1.57428 0
M  V30 3347 C 321.695 -1.08756 2.0357 0
M  V30 3348 C 322.665 -1.38559 0.916 0
M  V30 3349 O 323.85 -1.49656 1.18354 0
M  V30 3350 C 320.99 -2.39657 2.48311 0
M  V30 3351 C 320.103 -2.16399 3.73892 0
M  V30 3352 C 319.238 -3.40852 4.07423 0
M  V30 3353 C 318.277 -3.1295 5.2605 0
M  V30 3354 N 317.414 -4.29729 5.55228 0
M  V30 3355 H 322.254 -0.687104 2.8997 0
M  V30 3356 H 319.791 -0.327709 1.43403 0
M  V30 3357 H 321.749 -3.16081 2.72303 0
M  V30 3358 H 320.379 -2.77508 1.64891 0
M  V30 3359 H 319.431 -1.30676 3.57251 0
M  V30 3360 H 320.743 -1.91788 4.60455 0
M  V30 3361 H 319.897 -4.25671 4.32306 0
M  V30 3362 H 318.636 -3.68537 3.19425 0
M  V30 3363 H 317.641 -2.26526 5.00965 0
M  V30 3364 H 318.866 -2.86589 6.15665 0
M  V30 3365 H 316.812 -4.57448 4.70188 0
M  V30 3366 H 316.729 -4.08385 6.36206 0
M  V30 3367 H 317.997 -5.1555 5.84661 0
M  V30 3368 N 322.226 -1.5378 -0.344866 0
M  V30 3369 C 323.174 -1.82373 -1.4437 0
M  V30 3370 C 324.168 -0.694128 -1.54526 0
M  V30 3371 O 325.374 -0.877442 -1.57165 0
M  V30 3372 H 321.749 -0.577765 -0.481344 0
M  V30 3373 H 323.72 -2.74306 -1.17468 0
M  V30 3374 C 322.469 -2.04898 -2.80913 0
M  V30 3375 H 321.792 -2.9127 -2.73865 0
M  V30 3376 H 323.232 -2.28871 -3.56923 0
M  V30 3377 C 321.691 -0.834116 -3.26411 0
M  V30 3378 O 322.221 -0.0328885 -4.01687 0
M  V30 3379 N 320.427 -0.65171 -2.83198 0
M  V30 3380 H 319.974 -1.30489 -2.22104 0
M  V30 3381 H 319.932 0.159686 -3.13994 0
M  V30 3382 N 323.704 0.605807 -1.45491 0
M  V30 3383 C 324.953 1.36086 -1.48874 0
M  V30 3384 C 325.266 1.95131 -0.135333 0
M  V30 3385 O 326.472 2.7146 -0.0468144 0
M  V30 3386 C 324.928 2.46518 -2.62215 0
M  V30 3387 C 324.536 1.93877 -4.03876 0
M  V30 3388 C 326.28 3.23512 -2.74846 0
M  V30 3389 C 324.187 3.01801 -5.08596 0
M  V30 3390 H 323.117 0.511497 -0.553974 0
M  V30 3391 H 325.768 0.649089 -1.71636 0
M  V30 3392 H 324.15 3.20388 -2.32739 0
M  V30 3393 H 325.324 1.26704 -4.43038 0
M  V30 3394 H 323.639 1.29622 -3.95711 0
M  V30 3395 H 326.236 4.04013 -3.50253 0
M  V30 3396 H 326.579 3.74631 -1.81542 0
M  V30 3397 H 327.112 2.56742 -3.03856 0
M  V30 3398 H 323.851 2.55597 -6.03614 0
M  V30 3399 H 323.371 3.67535 -4.74002 0
M  V30 3400 H 325.05 3.66152 -5.33424 0
M  V30 3401 N 325.182 1.32811 0.848464 0
M  V30 3402 C 326.112 1.24882 1.97299 0
M  V30 3403 C 327.093 0.131357 1.69592 0
M  V30 3404 O 328.278 0.319553 1.91553 0
M  V30 3405 C 325.408 0.97746 3.33261 0
M  V30 3406 C 324.362 2.05682 3.75338 0
M  V30 3407 C 323.688 1.63777 5.09 0
M  V30 3408 C 324.988 3.47254 3.90144 0
M  V30 3409 H 326.682 2.18966 2.04191 0
M  V30 3410 H 324.228 1.05413 0.981029 0
M  V30 3411 H 326.181 0.908513 4.1149 0
M  V30 3412 H 324.905 0.000980011 3.266 0
M  V30 3413 H 323.564 2.11603 2.99366 0
M  V30 3414 H 323.212 0.648569 4.98801 0
M  V30 3415 H 322.912 2.36 5.38124 0
M  V30 3416 H 324.436 1.5833 5.89715 0
M  V30 3417 H 325.85 3.43888 4.58709 0
M  V30 3418 H 324.247 4.1788 4.30693 0
M  V30 3419 H 325.317 3.86462 2.92874 0
M  V30 3420 N 326.66 -1.06551 1.16123 0
M  V30 3421 C 327.906 -1.79567 0.94252 0
M  V30 3422 C 328.239 -1.86869 -0.528547 0
M  V30 3423 O 327.514 -1.35838 -1.39206 0
M  V30 3424 C 327.797 -3.24195 1.56747 0
M  V30 3425 C 327.65 -3.24989 3.10969 0
M  V30 3426 C 328.969 -4.21678 1.25998 0
M  V30 3427 H 326.088 -0.651883 0.343828 0
M  V30 3428 H 328.73 -1.2463 1.43413 0
M  V30 3429 H 326.88 -3.71107 1.14942 0
M  V30 3430 H 328.552 -2.86258 3.61737 0
M  V30 3431 H 326.795 -2.63716 3.44436 0
M  V30 3432 H 327.466 -4.27005 3.49815 0
M  V30 3433 H 329.942 -3.83196 1.62174 0
M  V30 3434 H 328.818 -5.21146 1.7233 0
M  V30 3435 H 329.079 -4.4174 0.178367 0
M  V30 3436 N 328.138 -0.959301 -1.25041 0
M  V30 3437 C 329.385 -0.616611 -1.92884 0
M  V30 3438 C 329.713 0.847036 -1.75087 0
M  V30 3439 O 328.968 1.62374 -1.09239 0
M  V30 3440 C 329.267 -0.927136 -3.45165 0
M  V30 3441 C 328.933 -2.37757 -3.83122 0
M  V30 3442 C 327.595 -2.77402 -3.93194 0
M  V30 3443 C 329.947 -3.31929 -4.01836 0
M  V30 3444 C 327.275 -4.10277 -4.19392 0
M  V30 3445 C 329.627 -4.64423 -4.29528 0
M  V30 3446 C 328.291 -5.03857 -4.37818 0
M  V30 3447 H 327.561 -0.225634 -0.705812 0
M  V30 3448 H 330.208 -1.20921 -1.48493 0
M  V30 3449 H 328.513 -0.252195 -3.90987 0
M  V30 3450 H 330.21 -0.6405 -3.95852 0
M  V30 3451 H 326.8 -2.06013 -3.75841 0
M  V30 3452 H 330.984 -3.02488 -3.93465 0
M  V30 3453 H 326.24 -4.40467 -4.24027 0
M  V30 3454 H 330.414 -5.37369 -4.42953 0
M  V30 3455 H 328.041 -6.06843 -4.57871 0
M  V30 3456 N 329.616 1.39756 -0.72842 0
M  V30 3457 C 330.893 1.94574 -0.200079 0
M  V30 3458 C 331.273 1.66569 1.29684 0
M  V30 3459 O 330.621 0.990326 2.05924 0
M  V30 3460 C 330.831 3.45004 -0.526608 0
M  V30 3461 C 332.179 4.21965 -0.472318 0
M  V30 3462 O 333.203 3.53173 -0.463413 0
M  V30 3463 O 332.062 5.44552 -0.461075 0
M  V30 3464 H 329.156 0.826289 -0.0342851 0
M  V30 3465 H 331.702 1.49293 -0.806829 0
M  V30 3466 H 330.474 3.58796 -1.56144 0
M  V30 3467 H 330.097 3.97449 0.109449 0
M  V30 3468 N 331.094 0.475555 1.50254 0
M  V30 3469 C 332.024 -0.30611 2.31485 0
M  V30 3470 C 333.005 -0.986228 1.38591 0
M  V30 3471 O 334.19 -0.982541 1.67511 0
M  V30 3472 C 331.32 -1.38588 3.1845 0
M  V30 3473 C 330.274 -0.827115 4.19932 0
M  V30 3474 C 329.6 -2.00551 4.95665 0
M  V30 3475 C 330.9 0.16463 5.2204 0
M  V30 3476 H 332.594 0.371866 2.97082 0
M  V30 3477 H 330.14 0.180282 1.42867 0
M  V30 3478 H 332.093 -1.94023 3.74076 0
M  V30 3479 H 330.817 -2.09269 2.50747 0
M  V30 3480 H 329.476 -0.294702 3.65414 0
M  V30 3481 H 329.124 -2.6994 4.2443 0
M  V30 3482 H 328.824 -1.63784 5.64313 0
M  V30 3483 H 330.348 -2.56468 5.54127 0
M  V30 3484 H 331.762 -0.300699 5.72511 0
M  V30 3485 H 330.159 0.446813 5.98434 0
M  V30 3486 H 331.229 1.08905 4.72512 0
M  V30 3487 N 332.573 -1.56217 0.208337 0
M  V30 3488 C 333.821 -1.97558 -0.426076 0
M  V30 3489 C 334.142 -1.09683 -1.61229 0
M  V30 3490 O 333.412 -0.170956 -1.95153 0
M  V30 3491 H 331.992 -0.729575 -0.160405 0
M  V30 3492 H 334.654 -1.92606 0.298155 0
M  V30 3493 H 333.75 -3.02672 -0.761312 0
M  V30 3494 N 334.051 0.0651679 -1.57465 0
M  V30 3495 C 335.299 0.761555 -1.87202 0
M  V30 3496 C 335.62 1.77778 -0.801243 0
M  V30 3497 O 334.89 1.95166 0.16937 0
M  V30 3498 H 333.47 0.284251 -0.690804 0
M  V30 3499 H 336.132 0.0396827 -1.9486 0
M  V30 3500 H 335.228 1.27365 -2.84929 0
M  V30 3501 N 335.529 1.53961 0.336706 0
M  V30 3502 C 336.777 1.71197 1.07405 0
M  V30 3503 C 337.098 0.481475 1.88962 0
M  V30 3504 O 336.368 -0.504585 1.8929 0
M  V30 3505 H 334.948 0.631185 0.399517 0
M  V30 3506 H 337.61 1.91232 0.376323 0
M  V30 3507 H 336.706 2.58587 1.74755 0
M  V30 3508 N 337.007 -0.598083 1.45811 0
M  V30 3509 C 338.235 -1.38322 1.53866 0
M  V30 3510 C 338.65 -1.87992 0.174479 0
M  V30 3511 O 338.007 -1.62756 -0.825627 0
M  V30 3512 C 338.058 -2.58125 2.53089 0
M  V30 3513 O 337.779 -2.10516 3.84206 0
M  V30 3514 C 339.28 -3.50869 2.70935 0
M  V30 3515 H 336.5 -0.423093 0.520801 0
M  V30 3516 H 339.044 -0.728527 1.91083 0
M  V30 3517 H 337.199 -3.19615 2.18917 0
M  V30 3518 H 337.613 -2.88425 4.38077 0
M  V30 3519 H 339.087 -4.31451 3.44317 0
M  V30 3520 H 339.564 -4.01822 1.77301 0
M  V30 3521 H 340.17 -2.95225 3.06141 0
M  V30 3522 N 338.485 -1.33259 -0.841409 0
M  V30 3523 C 339.732 -1.24572 -1.5965 0
M  V30 3524 C 340.06 0.189137 -1.93578 0
M  V30 3525 O 339.315 1.14566 -1.5866 0
M  V30 3526 C 339.614 -2.06381 -2.9179 0
M  V30 3527 C 339.28 -3.556 -2.77235 0
M  V30 3528 C 337.942 -3.96282 -2.72973 0
M  V30 3529 C 340.294 -4.50433 -2.62221 0
M  V30 3530 C 337.622 -5.30017 -2.51592 0
M  V30 3531 C 339.974 -5.84327 -2.42374 0
M  V30 3532 C 338.638 -6.24194 -2.36512 0
M  V30 3533 H 337.908 -0.455842 -0.5842 0
M  V30 3534 H 340.555 -1.6482 -0.975016 0
M  V30 3535 H 338.86 -1.58903 -3.5813 0
M  V30 3536 H 340.557 -1.97019 -3.49263 0
M  V30 3537 H 337.147 -3.23298 -2.81384 0
M  V30 3538 H 341.331 -4.19914 -2.64549 0
M  V30 3539 H 336.587 -5.59947 -2.45499 0
M  V30 3540 H 340.761 -6.57414 -2.29739 0
M  V30 3541 H 338.388 -7.27759 -2.19706 0
M  V30 3542 N 339.963 1.05934 -1.16686 0
M  V30 3543 C 341.24 1.75643 -0.860747 0
M  V30 3544 C 341.62 2.01144 0.640641 0
M  V30 3545 O 340.968 1.64147 1.58959 0
M  V30 3546 C 341.178 3.05493 -1.68745 0
M  V30 3547 C 342.526 3.79581 -1.90271 0
M  V30 3548 O 343.55 3.15344 -1.65641 0
M  V30 3549 O 342.409 4.9499 -2.31618 0
M  V30 3550 H 339.503 0.763426 -0.317977 0
M  V30 3551 H 342.049 1.1217 -1.27342 0
M  V30 3552 H 340.821 2.8264 -2.70611 0
M  V30 3553 H 340.444 3.76702 -1.27206 0
M  V30 3554 N 341.441 0.965919 1.2453 0
M  V30 3555 C 342.687 0.62776 1.92839 0
M  V30 3556 C 343.02 -0.834694 1.75347 0
M  V30 3557 O 342.295 -1.60031 1.10546 0
M  V30 3558 C 342.578 1.00109 3.45905 0
M  V30 3559 C 342.431 2.52011 3.72573 0
M  V30 3560 C 343.75 0.53435 4.36844 0
M  V30 3561 H 340.869 0.229537 0.700344 0
M  V30 3562 H 343.511 1.2046 1.46933 0
M  V30 3563 H 341.661 0.510238 3.85135 0
M  V30 3564 H 343.333 3.08559 3.42912 0
M  V30 3565 H 341.576 2.95287 3.17786 0
M  V30 3566 H 342.247 2.73183 4.79661 0
M  V30 3567 H 344.723 0.955565 4.04979 0
M  V30 3568 H 343.599 0.824152 5.42678 0
M  V30 3569 H 343.86 -0.565589 4.38467 0
M  V30 3570 N 342.919 -1.39368 0.735821 0
M  V30 3571 C 344.144 -2.05319 0.293052 0
M  V30 3572 C 344.569 -1.55115 -1.064 0
M  V30 3573 O 343.927 -0.695261 -1.67439 0
M  V30 3574 C 343.975 -3.59305 0.305323 0
M  V30 3575 O 343.079 -4.06299 -0.706761 0
M  V30 3576 H 342.42 -0.650529 0.13307 0
M  V30 3577 H 344.95 -1.78386 1.00197 0
M  V30 3578 H 344.96 -4.07724 0.149997 0
M  V30 3579 H 343.635 -3.95207 1.29553 0
M  V30 3580 H 342.212 -3.69292 -0.517504 0
M  V30 3581 N 344.397 -0.483516 -1.5 0
M  V30 3582 C 345.327 0.293829 -2.31644 0
M  V30 3583 C 346.308 0.978864 -1.39112 0
M  V30 3584 O 347.493 0.973644 -1.68029 0
M  V30 3585 C 344.623 1.36897 -3.19181 0
M  V30 3586 C 343.577 0.804833 -4.20365 0
M  V30 3587 C 342.903 1.9792 -4.96721 0
M  V30 3588 C 344.203 -0.192313 -5.21946 0
M  V30 3589 H 345.897 -0.387616 -2.9688 0
M  V30 3590 H 343.443 -0.187856 -1.42769 0
M  V30 3591 H 345.396 1.92037 -3.751 0
M  V30 3592 H 344.12 2.07936 -2.51853 0
M  V30 3593 H 342.779 0.275319 -3.65565 0
M  V30 3594 H 342.427 2.67686 -4.25856 0
M  V30 3595 H 342.127 1.60789 -5.65173 0
M  V30 3596 H 343.651 2.53526 -5.55479 0
M  V30 3597 H 345.065 0.270333 -5.72662 0
M  V30 3598 H 343.462 -0.478543 -5.98189 0
M  V30 3599 H 344.532 -1.11409 -4.71928 0
M  V30 3600 N 345.875 1.56104 -0.216619 0
M  V30 3601 C 346.805 2.23063 0.690296 0
M  V30 3602 C 347.786 1.20072 1.20485 0
M  V30 3603 O 348.971 1.48643 1.24976 0
M  V30 3604 C 346.101 2.90672 1.90072 0
M  V30 3605 C 345.055 4.00092 1.5202 0
M  V30 3606 C 344.381 4.54972 2.80899 0
M  V30 3607 C 345.681 5.17398 0.71391 0
M  V30 3608 H 347.375 2.99109 0.132038 0
M  V30 3609 H 344.921 1.43866 0.0620664 0
M  V30 3610 H 346.874 3.36204 2.54057 0
M  V30 3611 H 345.598 2.12066 2.48386 0
M  V30 3612 H 344.257 3.55283 0.903839 0
M  V30 3613 H 343.905 3.73102 3.37348 0
M  V30 3614 H 343.605 5.28817 2.56176 0
M  V30 3615 H 345.129 5.0322 3.45836 0
M  V30 3616 H 346.543 5.59342 1.25735 0
M  V30 3617 H 344.94 5.97444 0.563951 0
M  V30 3618 H 346.01 4.84088 -0.280527 0
M  V30 3619 N 347.353 -0.0568162 1.57498 0
M  V30 3620 C 348.581 -0.765626 1.92213 0
M  V30 3621 C 348.996 -1.70353 0.813961 0
M  V30 3622 O 348.353 -1.81268 -0.211701 0
M  V30 3623 C 348.404 -1.5465 3.2675 0
M  V30 3624 O 348.125 -0.646278 4.33307 0
M  V30 3625 C 349.626 -2.35497 3.75574 0
M  V30 3626 H 346.846 -0.216835 0.634999 0
M  V30 3627 H 349.39 -0.0226146 2.04487 0
M  V30 3628 H 347.545 -2.24165 3.15957 0
M  V30 3629 H 347.959 -1.19093 5.108 0
M  V30 3630 H 349.433 -2.85722 4.72299 0
M  V30 3631 H 349.91 -3.15692 3.05344 0
M  V30 3632 H 350.516 -1.7111 3.8936 0
M  V30 3633 N 348.832 -1.54138 -0.328536 0
M  V30 3634 C 350.081 -1.71318 -1.06456 0
M  V30 3635 C 350.394 -0.491109 -1.89334 0
M  V30 3636 O 351.6 -0.54416 -2.65991 0
M  V30 3637 C 350.056 -3.03 -1.94214 0
M  V30 3638 C 349.664 -4.32595 -1.16471 0
M  V30 3639 C 351.408 -3.29544 -2.67583 0
M  V30 3640 C 349.315 -5.55341 -2.03347 0
M  V30 3641 H 348.245 -0.638429 -0.401155 0
M  V30 3642 H 350.896 -1.80633 -0.323106 0
M  V30 3643 H 349.278 -2.87579 -2.72239 0
M  V30 3644 H 350.452 -4.58766 -0.432525 0
M  V30 3645 H 348.767 -4.12777 -0.548063 0
M  V30 3646 H 351.364 -4.18444 -3.3288 0
M  V30 3647 H 351.707 -2.47206 -3.34955 0
M  V30 3648 H 352.24 -3.45809 -1.96623 0
M  V30 3649 H 348.979 -6.40268 -1.40491 0
M  V30 3650 H 348.499 -5.33397 -2.74313 0
M  V30 3651 H 350.178 -5.91557 -2.62049 0
M  V30 3652 N 350.31 0.590341 -1.46126 0
M  V30 3653 C 351.587 1.35029 -1.41515 0
M  V30 3654 C 351.967 2.10888 -0.0946472 0
M  V30 3655 O 351.315 2.08998 0.923693 0
M  V30 3656 C 351.525 2.28269 -2.63997 0
M  V30 3657 C 352.873 2.90338 -3.09821 0
M  V30 3658 O 353.897 2.38585 -2.64492 0
M  V30 3659 O 352.756 3.84321 -3.88535 0
M  V30 3660 H 349.85 0.606317 -0.562413 0
M  V30 3661 H 352.396 0.611994 -1.58281 0
M  V30 3662 H 351.168 1.71591 -3.51671 0
M  V30 3663 H 350.791 3.0945 -2.49652 0
M  V30 3664 N 351.788 1.33704 0.83433 0
M  V30 3665 C 352.736 1.24323 1.96587 0
M  V30 3666 C 353.73 0.143659 1.6879 0
M  V30 3667 O 354.936 0.30791 1.77347 0
M  V30 3668 H 351.311 0.385925 0.645419 0
M  V30 3669 H 353.282 2.19978 2.01624 0
M  V30 3670 C 352.031 1.00394 3.32891 0
M  V30 3671 H 351.354 1.84231 3.54822 0
M  V30 3672 H 352.794 0.97862 4.12552 0
M  V30 3673 C 351.253 -0.293047 3.35623 0
M  V30 3674 O 351.783 -1.29823 3.80143 0
M  V30 3675 N 349.989 -0.322174 2.88809 0
M  V30 3676 H 349.536 0.496379 2.52772 0
M  V30 3677 H 349.494 -1.18977 2.91019 0
M  V30 3678 N 353.266 -1.05314 1.17247 0
M  V30 3679 C 354.514 -1.77941 0.958194 0
M  V30 3680 C 354.835 -1.88089 -0.514556 0
M  V30 3681 O 354.105 -1.39676 -1.37359 0
M  V30 3682 H 352.685 -0.659116 0.351533 0
M  V30 3683 H 355.347 -1.27166 1.47699 0
M  V30 3684 H 354.443 -2.79663 1.38546 0
M  V30 3685 N 354.744 -0.972509 -1.24016 0
M  V30 3686 C 355.99 -0.637978 -1.92504 0
M  V30 3687 C 356.323 0.825383 -1.75787 0
M  V30 3688 O 355.598 1.59442 -1.11393 0
M  V30 3689 C 355.881 -1.01942 -3.45369 0
M  V30 3690 C 355.734 -2.53983 -3.71231 0
M  V30 3691 C 357.053 -0.55751 -4.36555 0
M  V30 3692 H 354.172 -0.233248 -0.699117 0
M  V30 3693 H 356.814 -1.21238 -1.46292 0
M  V30 3694 H 354.964 -0.530656 -3.84859 0
M  V30 3695 H 356.636 -3.10374 -3.41271 0
M  V30 3696 H 354.879 -2.96968 -3.16216 0
M  V30 3697 H 355.55 -2.75723 -4.78206 0
M  V30 3698 H 358.026 -0.977029 -4.04467 0
M  V30 3699 H 356.902 -0.85292 -5.42233 0
M  V30 3700 H 357.163 0.542328 -4.38761 0
M  V30 3701 N 356.222 1.38976 -0.743202 0
M  V30 3702 C 357.469 2.00343 -0.294752 0
M  V30 3703 C 357.797 1.58983 1.12047 0
M  V30 3704 O 357.052 0.813809 1.77977 0
M  V30 3705 C 357.351 3.55647 -0.353517 0
M  V30 3706 C 357.017 4.16685 -1.72292 0
M  V30 3707 C 355.679 4.3307 -2.09771 0
M  V30 3708 C 358.031 4.50464 -2.62168 0
M  V30 3709 C 355.359 4.80526 -3.36618 0
M  V30 3710 C 357.711 4.99332 -3.88395 0
M  V30 3711 C 356.375 5.13924 -4.25956 0
M  V30 3712 H 355.645 0.733108 -0.107857 0
M  V30 3713 H 358.292 1.6618 -0.951651 0
M  V30 3714 H 356.597 3.89884 0.386954 0
M  V30 3715 H 358.294 4.00998 0.0117269 0
M  V30 3716 H 354.884 4.04339 -1.42155 0
M  V30 3717 H 359.068 4.37416 -2.3448 0
M  V30 3718 H 354.324 4.90008 -3.65653 0
M  V30 3719 H 358.498 5.2444 -4.58187 0
M  V30 3720 H 356.125 5.50457 -5.2431 0
M  V30 3721 N 357.7 0.491464 1.49741 0
M  V30 3722 C 358.61 -0.296835 2.32715 0
M  V30 3723 C 359.626 -0.976536 1.44013 0
M  V30 3724 O 360.802 -0.960023 1.77047 0
M  V30 3725 C 357.867 -1.35288 3.19215 0
M  V30 3726 C 356.928 -0.687632 4.23757 0
M  V30 3727 C 356.161 -1.69336 5.06123 0
M  V30 3728 O 356.384 -2.92219 4.89861 0
M  V30 3729 O 355.318 -1.25394 5.88693 0
M  V30 3730 H 359.144 0.382048 3.01287 0
M  V30 3731 H 356.729 0.252953 1.47243 0
M  V30 3732 H 358.611 -1.96411 3.72828 0
M  V30 3733 H 357.286 -2.01487 2.53347 0
M  V30 3734 H 356.193 -0.0369159 3.74082 0
M  V30 3735 H 357.526 -0.0682566 4.92153 0
M  V30 3736 N 359.178 -1.55987 0.224894 0
M  V30 3737 C 360.424 -1.98684 -0.406502 0
M  V30 3738 C 360.757 -1.11248 -1.59177 0
M  V30 3739 O 360.032 -0.170909 -1.93748 0
M  V30 3740 C 360.315 -3.50218 -0.837808 0
M  V30 3741 C 360.168 -4.48426 0.351332 0
M  V30 3742 C 361.487 -4.06243 -1.69278 0
M  V30 3743 H 358.606 -0.722337 -0.146283 0
M  V30 3744 H 361.248 -1.87255 0.321799 0
M  V30 3745 H 359.398 -3.60089 -1.45837 0
M  V30 3746 H 361.07 -4.50562 0.989526 0
M  V30 3747 H 359.313 -4.22159 0.998207 0
M  V30 3748 H 359.984 -5.52 0.00655905 0
M  V30 3749 H 362.46 -3.99337 -1.16914 0
M  V30 3750 H 361.336 -5.12581 -1.96346 0
M  V30 3751 H 361.597 -3.53332 -2.65723 0
M  V30 3752 N 360.656 0.0484629 -1.57525 0
M  V30 3753 C 361.902 0.744226 -1.88651 0
M  V30 3754 C 362.235 1.76029 -0.820212 0
M  V30 3755 O 361.51 1.93782 0.166985 0
M  V30 3756 C 361.793 1.43128 -3.30434 0
M  V30 3757 C 361.646 0.43005 -4.47739 0
M  V30 3758 C 362.965 2.37031 -3.70816 0
M  V30 3759 H 360.084 0.269089 -0.68612 0
M  V30 3760 H 362.726 0.00713532 -1.89999 0
M  V30 3761 H 360.876 2.05956 -3.29415 0
M  V30 3762 H 362.548 -0.194816 -4.60888 0
M  V30 3763 H 360.791 -0.252522 -4.33064 0
M  V30 3764 H 361.462 0.948874 -5.43783 0
M  V30 3765 H 363.938 1.84263 -3.73077 0
M  V30 3766 H 362.814 2.82094 -4.70865 0
M  V30 3767 H 363.075 3.22864 -3.02012 0
M  V30 3768 N 362.134 1.5431 0.320358 0
M  V30 3769 C 363.097 1.83195 1.3774 0
M  V30 3770 C 364.097 0.703906 1.44575 0
M  V30 3771 O 365.287 0.972214 1.44546 0
M  V30 3772 C 362.419 1.99487 2.76438 0
M  V30 3773 H 363.612 2.77642 1.1338 0
M  V30 3774 H 361.165 1.46076 0.556012 0
M  V30 3775 H 361.9 1.07262 3.06048 0
M  V30 3776 H 361.685 2.81575 2.7287 0
M  V30 3777 H 363.175 2.23271 3.52902 0
M  V30 3778 N 363.613 -0.582584 1.46437 0
M  V30 3779 C 364.841 -1.36682 1.55324 0
M  V30 3780 C 365.256 -1.87796 0.194409 0
M  V30 3781 O 364.613 -1.63623 -0.808318 0
M  V30 3782 C 364.664 -2.55426 2.55812 0
M  V30 3783 O 364.385 -2.0643 3.86417 0
M  V30 3784 C 365.886 -3.47976 2.74641 0
M  V30 3785 H 363.106 -0.417545 0.525259 0
M  V30 3786 H 365.65 -0.708219 1.91845 0
M  V30 3787 H 363.805 -3.17275 2.22295 0
M  V30 3788 H 364.219 -2.83762 4.41111 0
M  V30 3789 H 365.693 -4.27775 3.48874 0
M  V30 3790 H 366.17 -3.99919 1.81553 0
M  V30 3791 H 366.776 -2.91962 3.09255 0
M  V30 3792 N 365.091 -1.34144 -0.827227 0
M  V30 3793 C 366.039 -1.25364 -1.95925 0
M  V30 3794 C 367.033 -0.152608 -1.68711 0
M  V30 3795 O 368.239 -0.317311 -1.77181 0
M  V30 3796 H 364.614 -0.389342 -0.643364 0
M  V30 3797 H 366.585 -2.21045 -2.00454 0
M  V30 3798 C 365.334 -1.02158 -3.32354 0
M  V30 3799 H 364.657 -1.86111 -3.5384 0
M  V30 3800 H 366.097 -1.00048 -4.12027 0
M  V30 3801 C 364.556 0.275244 -3.35774 0
M  V30 3802 O 365.086 1.27806 -3.80826 0
M  V30 3803 N 363.292 0.306853 -2.88975 0
M  V30 3804 H 362.839 -0.509777 -2.52506 0
M  V30 3805 H 362.797 1.17432 -2.91646 0
M  V30 3806 N 366.569 1.04691 -1.17803 0
M  V30 3807 C 367.817 1.7743 -0.967617 0
M  V30 3808 C 368.138 1.88359 0.504574 0
M  V30 3809 O 367.408 1.40402 1.36617 0
M  V30 3810 H 365.988 0.657242 -0.355024 0
M  V30 3811 H 368.65 1.2638 -1.48371 0
M  V30 3812 H 367.746 2.78924 -1.40027 0
M  V30 3813 N 368.047 0.979072 1.23499 0
M  V30 3814 C 369.324 0.563674 1.87302 0
M  V30 3815 C 369.704 -0.959199 1.88049 0
M  V30 3816 O 369.052 -1.83535 1.36114 0
M  V30 3817 C 369.262 1.16822 3.28867 0
M  V30 3818 C 370.61 1.26014 4.0547 0
M  V30 3819 O 371.634 1.12158 3.38082 0
M  V30 3820 O 370.493 1.48044 5.26066 0
M  V30 3821 H 367.587 0.189602 0.804972 0
M  V30 3822 H 370.133 1.07407 1.31384 0
M  V30 3823 H 368.905 2.21049 3.22883 0
M  V30 3824 H 368.528 0.642564 3.92373 0
M  V30 3825 N 369.525 -1.3858 0.750561 0
M  V30 3826 C 370.753 -2.04471 0.316098 0
M  V30 3827 C 371.168 -1.56606 -1.05452 0
M  V30 3828 O 370.525 -0.737784 -1.66922 0
M  V30 3829 C 370.576 -3.60025 0.326275 0
M  V30 3830 O 370.297 -4.06133 1.6428 0
M  V30 3831 C 371.798 -4.43131 -0.122429 0
M  V30 3832 H 369.018 -0.65717 0.135528 0
M  V30 3833 H 371.562 -1.77329 1.01857 0
M  V30 3834 H 369.717 -3.86014 -0.327431 0
M  V30 3835 H 370.131 -5.00547 1.56693 0
M  V30 3836 H 371.605 -5.51963 -0.0641473 0
M  V30 3837 H 372.082 -4.23333 -1.16988 0
M  V30 3838 H 372.688 -4.22323 0.50229 0
M  V30 3839 N 371.003 -0.499398 -1.49478 0
M  V30 3840 C 371.953 0.299103 -2.2603 0
M  V30 3841 C 372.937 0.936934 -1.30807 0
M  V30 3842 O 374.129 0.844798 -1.55538 0
M  V30 3843 C 371.258 1.36391 -3.15044 0
M  V30 3844 C 370.344 0.732398 -4.17728 0
M  V30 3845 N 370.735 -0.164028 -5.05534 0
M  V30 3846 C 369.033 0.993162 -4.34801 0
M  V30 3847 C 369.734 -0.525345 -5.79323 0
M  V30 3848 N 368.71 0.106348 -5.43496 0
M  V30 3849 H 372.512 -0.391003 -2.91287 0
M  V30 3850 H 370.026 -0.31537 -1.59308 0
M  V30 3851 H 372.023 1.94939 -3.68516 0
M  V30 3852 H 370.683 2.05571 -2.51338 0
M  V30 3853 H 371.694 -0.534736 -5.15132 0
M  V30 3854 H 368.371 1.67783 -3.82302 0
M  V30 3855 H 369.761 -1.25862 -6.60006 0
M  V30 3856 N 372.481 1.55866 -0.233164 0
M  V30 3857 C 373.411 2.23783 0.666599 0
M  V30 3858 C 374.392 1.21343 1.19205 0
M  V30 3859 O 375.577 1.4996 1.23392 0
M  V30 3860 C 372.707 2.92671 1.86978 0
M  V30 3861 C 371.661 4.01682 1.47768 0
M  V30 3862 C 370.987 4.57926 2.76058 0
M  V30 3863 C 372.287 5.18126 0.658993 0
M  V30 3864 H 373.981 2.99232 0.100306 0
M  V30 3865 H 371.527 1.43924 0.046804 0
M  V30 3866 H 373.48 3.3888 2.50476 0
M  V30 3867 H 372.204 2.14688 2.46123 0
M  V30 3868 H 370.863 3.56222 0.866106 0
M  V30 3869 H 370.511 3.76659 3.33372 0
M  V30 3870 H 370.211 5.31505 2.50552 0
M  V30 3871 H 371.735 5.06859 3.40479 0
M  V30 3872 H 373.149 5.60644 1.19795 0
M  V30 3873 H 371.546 5.98009 0.500552 0
M  V30 3874 H 372.616 4.83763 -0.331856 0
M  V30 3875 N 373.959 -0.0401083 1.57549 0
M  V30 3876 C 375.207 -0.731677 1.8839 0
M  V30 3877 C 375.528 -1.76481 0.829425 0
M  V30 3878 O 374.798 -1.95411 -0.1383 0
M  V30 3879 H 373.378 -0.273225 0.695239 0
M  V30 3880 H 376.04 -0.00867725 1.94898 0
M  V30 3881 H 375.136 -1.22816 2.86919 0
M  V30 3882 N 375.437 -1.54477 -0.31217 0
M  V30 3883 C 376.685 -1.72884 -1.04668 0
M  V30 3884 C 377.006 -0.511477 -1.88173 0
M  V30 3885 O 376.276 0.474407 -1.90069 0
M  V30 3886 H 374.856 -0.637461 -0.389425 0
M  V30 3887 H 377.518 -1.91807 -0.345852 0
M  V30 3888 H 376.614 -2.61334 -1.70619 0
M  V30 3889 N 376.915 0.57481 -1.46744 0
M  V30 3890 C 377.825 1.711 -1.60505 0
M  V30 3891 C 378.841 1.67008 -0.488307 0
M  V30 3892 O 380.017 1.86774 -0.753495 0
M  V30 3893 C 377.082 3.07608 -1.59932 0
M  V30 3894 C 376.143 3.22904 -2.82898 0
M  V30 3895 C 375.376 4.529 -2.82343 0
M  V30 3896 O 375.599 5.37278 -1.91542 0
M  V30 3897 O 374.533 4.71611 -3.73987 0
M  V30 3898 H 378.359 1.62436 -2.56609 0
M  V30 3899 H 375.944 0.742779 -1.29627 0
M  V30 3900 H 377.826 3.88877 -1.62336 0
M  V30 3901 H 376.501 3.16692 -0.669898 0
M  V30 3902 H 375.408 2.41099 -2.86046 0
M  V30 3903 H 376.741 3.18715 -3.75076 0
M  V30 3904 N 378.394 1.34581 0.820102 0
M  V30 3905 C 379.671 1.17675 1.56244 0
M  V30 3906 C 380.051 -0.249541 2.0962 0
M  V30 3907 O 379.399 -1.25125 1.91196 0
M  V30 3908 C 379.609 2.23364 2.6816 0
M  V30 3909 C 380.957 2.58485 3.36854 0
M  V30 3910 O 381.981 2.22175 2.78418 0
M  V30 3911 O 380.84 3.20868 4.42386 0
M  V30 3912 H 377.934 0.456333 0.689702 0
M  V30 3913 H 380.48 1.46222 0.861231 0
M  V30 3914 H 379.252 3.19087 2.26493 0
M  V30 3915 H 378.875 1.96009 3.45928 0
M  V30 3916 N 379.872 -1.04064 1.18357 0
M  V30 3917 C 381.119 -1.77265 0.978947 0
M  V30 3918 C 381.447 -1.88189 -0.491428 0
M  V30 3919 O 380.702 -1.38653 -1.38108 0
M  V30 3920 C 381.001 -3.20634 1.57888 0
M  V30 3921 C 380.667 -3.29743 3.07539 0
M  V30 3922 C 379.329 -3.31937 3.48384 0
M  V30 3923 C 381.681 -3.29841 4.03552 0
M  V30 3924 C 379.009 -3.3187 4.83818 0
M  V30 3925 C 381.361 -3.31313 5.38901 0
M  V30 3926 C 380.025 -3.31799 5.79194 0
M  V30 3927 H 379.295 -0.648659 0.358222 0
M  V30 3928 H 381.942 -1.22225 1.47422 0
M  V30 3929 H 380.247 -3.78675 1.00561 0
M  V30 3930 H 381.944 -3.75917 1.39598 0
M  V30 3931 H 378.534 -3.28757 2.74986 0
M  V30 3932 H 382.718 -3.27337 3.73047 0
M  V30 3933 H 377.974 -3.30562 5.14333 0
M  V30 3934 H 382.148 -3.30338 6.13066 0
M  V30 3935 H 379.775 -3.315 6.84114 0
M  V30 3936 N 381.35 -0.985608 -1.22978 0
M  V30 3937 C 382.627 -0.573599 -1.87001 0
M  V30 3938 C 383.007 0.949213 -1.88555 0
M  V30 3939 O 382.355 1.82811 -1.37086 0
M  V30 3940 C 382.565 -1.18564 -3.28243 0
M  V30 3941 C 383.913 -1.28163 -4.04796 0
M  V30 3942 O 384.937 -1.13949 -3.37482 0
M  V30 3943 O 383.796 -1.50832 -5.25273 0
M  V30 3944 H 380.89 -0.193868 -0.803955 0
M  V30 3945 H 383.436 -1.08102 -1.30813 0
M  V30 3946 H 382.208 -2.22758 -3.21706 0
M  V30 3947 H 381.831 -0.663363 -3.92027 0
M  V30 3948 N 382.828 1.3818 -0.7579 0
M  V30 3949 C 383.76 2.2901 -0.0932177 0
M  V30 3950 C 384.773 1.47958 0.679136 0
M  V30 3951 O 385.962 1.70773 0.519514 0
M  V30 3952 C 383.062 3.26953 0.89192 0
M  V30 3953 C 382.235 4.37045 0.176303 0
M  V30 3954 C 381.294 5.15148 1.07281 0
M  V30 3955 O 380.32 5.66616 0.541728 0
M  V30 3956 N 381.522 5.28542 2.40049 0
M  V30 3957 H 384.287 2.86694 -0.873303 0
M  V30 3958 H 381.848 1.50007 -0.609054 0
M  V30 3959 H 383.84 3.76083 1.49479 0
M  V30 3960 H 382.41 2.70136 1.57306 0
M  V30 3961 H 381.63 3.89493 -0.607328 0
M  V30 3962 H 382.918 5.07801 -0.318718 0
M  V30 3963 H 382.316 4.88285 2.85647 0
M  V30 3964 H 380.873 5.8103 2.95376 0
M  V30 3965 N 384.306 0.507319 1.49211 0
M  V30 3966 C 385.722 0.163682 1.58758 0
M  V30 3967 C 385.922 -1.33208 1.51188 0
M  V30 3968 O 384.978 -2.10855 1.38911 0
M  V30 3969 C 386.291 0.746095 2.91297 0
M  V30 3970 C 387.839 0.712773 3.04776 0
M  V30 3971 C 388.314 1.27336 4.39943 0
M  V30 3972 N 389.805 1.23433 4.46451 0
M  V30 3973 C 390.54 1.63821 5.495 0
M  V30 3974 N 390.036 2.11832 6.5962 0
M  V30 3975 N 391.829 1.55198 5.4025 0
M  V30 3976 H 383.98 1.47972 1.52375 0
M  V30 3977 H 386.243 0.614147 0.722168 0
M  V30 3978 H 385.949 1.79534 3.02424 0
M  V30 3979 H 385.823 0.210137 3.76614 0
M  V30 3980 H 388.21 -0.327656 2.93275 0
M  V30 3981 H 388.291 1.28595 2.21127 0
M  V30 3982 H 387.935 2.3126 4.52196 0
M  V30 3983 H 387.865 0.676066 5.22242 0
M  V30 3984 H 390.356 0.882627 3.67448 0
M  V30 3985 H 390.669 2.40703 7.34358 0
M  V30 3986 H 389.014 2.1581 6.60644 0
M  V30 3987 H 392.205 1.17505 4.53112 0
M  V30 3988 H 392.378 1.86997 6.20432 0
M  V30 3989 N 385.784 -1.5574 0.241426 0
M  V30 3990 C 387.03 -1.99104 -0.385406 0
M  V30 3991 C 387.363 -1.1293 -1.57988 0
M  V30 3992 O 386.638 -0.191449 -1.93555 0
M  V30 3993 C 386.921 -3.51087 -0.800616 0
M  V30 3994 C 386.774 -4.48028 0.398874 0
M  V30 3995 C 388.093 -4.08015 -1.64959 0
M  V30 3996 H 385.212 -0.723848 -0.138614 0
M  V30 3997 H 387.854 -1.86903 0.341642 0
M  V30 3998 H 386.004 -3.61615 -1.4201 0
M  V30 3999 H 387.676 -4.49487 1.03726 0
M  V30 4000 H 385.919 -4.21077 1.04293 0
M  V30 4001 H 386.59 -5.51962 0.0651056 0
M  V30 4002 H 389.066 -4.00555 -1.12672 0
M  V30 4003 H 387.942 -5.14635 -1.90898 0
M  V30 4004 H 388.203 -3.56131 -2.61961 0
M  V30 4005 N 387.262 0.0317525 -1.57568 0
M  V30 4006 C 388.195 1.06621 -2.0176 0
M  V30 4007 C 389.173 1.35323 -0.901462 0
M  V30 4008 O 390.357 1.48025 -1.16708 0
M  V30 4009 C 387.484 2.40155 -2.38837 0
M  V30 4010 C 386.53 2.27327 -3.60867 0
M  V30 4011 S 387.363 1.62925 -5.10113 0
M  V30 4012 C 388.519 2.97955 -5.5043 0
M  V30 4013 H 388.752 0.689781 -2.89187 0
M  V30 4014 H 386.285 0.24164 -1.52497 0
M  V30 4015 H 388.243 3.1695 -2.6087 0
M  V30 4016 H 386.904 2.74946 -1.51867 0
M  V30 4017 H 386.097 3.25898 -3.84456 0
M  V30 4018 H 385.699 1.58675 -3.38671 0
M  V30 4019 H 387.991 3.94285 -5.5095 0
M  V30 4020 H 388.934 2.79102 -6.50775 0
M  V30 4021 H 389.342 3.00404 -4.77931 0
M  V30 4022 N 388.74 1.54641 0.303973 0
M  V30 4023 C 389.65 1.88439 1.39743 0
M  V30 4024 C 390.666 0.778239 1.55626 0
M  V30 4025 O 391.842 1.07442 1.70347 0
M  V30 4026 C 388.907 2.12212 2.74166 0
M  V30 4027 C 387.968 3.35936 2.67293 0
M  V30 4028 C 387.201 3.58566 3.95305 0
M  V30 4029 O 387.424 2.84263 4.9452 0
M  V30 4030 O 386.358 4.52078 3.97378 0
M  V30 4031 H 390.184 2.81458 1.14083 0
M  V30 4032 H 387.769 1.40793 0.499768 0
M  V30 4033 H 389.651 2.29067 3.53704 0
M  V30 4034 H 388.326 1.22379 2.99675 0
M  V30 4035 H 387.233 3.24448 1.86237 0
M  V30 4036 H 388.566 4.2589 2.46736 0
M  V30 4037 N 390.218 -0.567019 1.47046 0
M  V30 4038 C 391.168 -1.67018 1.55207 0
M  V30 4039 C 392.152 -1.55543 0.411714 0
M  V30 4040 O 393.344 -1.64192 0.661064 0
M  V30 4041 C 390.473 -3.05801 1.56014 0
M  V30 4042 C 389.559 -3.22515 2.75399 0
M  V30 4043 N 389.95 -3.09329 4.00186 0
M  V30 4044 C 388.248 -3.53493 2.71954 0
M  V30 4045 C 388.949 -3.2847 4.80086 0
M  V30 4046 N 387.925 -3.54352 4.12233 0
M  V30 4047 H 391.727 -1.55377 2.4947 0
M  V30 4048 H 389.241 -0.771503 1.42904 0
M  V30 4049 H 391.238 -3.84996 1.59949 0
M  V30 4050 H 389.898 -3.18561 0.628396 0
M  V30 4051 H 390.909 -2.86863 4.31196 0
M  V30 4052 H 387.586 -3.7284 1.87873 0
M  V30 4053 H 388.976 -3.23326 5.88991 0
M  V30 4054 N 391.696 -1.35014 -0.812953 0
M  V30 4055 C 392.943 -1.27931 -1.56971 0
M  V30 4056 C 393.271 0.148034 -1.93936 0
M  V30 4057 O 392.526 1.11175 -1.61054 0
M  V30 4058 C 392.825 -2.12524 -2.87347 0
M  V30 4059 C 392.491 -3.61401 -2.6963 0
M  V30 4060 C 391.153 -4.01983 -2.64506 0
M  V30 4061 C 393.505 -4.55894 -2.52607 0
M  V30 4062 C 390.833 -5.35235 -2.40293 0
M  V30 4063 C 393.185 -5.89336 -2.29925 0
M  V30 4064 C 391.849 -6.2907 -2.23219 0
M  V30 4065 H 391.119 -0.468131 -0.574399 0
M  V30 4066 H 393.766 -1.66851 -0.939836 0
M  V30 4067 H 392.071 -1.66463 -3.54679 0
M  V30 4068 H 393.768 -2.04383 -3.45005 0
M  V30 4069 H 390.358 -3.29193 -2.74463 0
M  V30 4070 H 394.542 -4.25431 -2.55583 0
M  V30 4071 H 389.798 -5.65028 -2.33566 0
M  V30 4072 H 393.972 -6.62139 -2.15743 0
M  V30 4073 H 391.599 -7.32256 -2.04219 0
M  V30 4074 N 393.175 1.03435 -1.18907 0
M  V30 4075 C 394.424 1.76143 -0.982669 0
M  V30 4076 C 394.737 1.89416 0.487953 0
M  V30 4077 O 395.943 2.59041 0.813036 0
M  V30 4078 C 394.399 3.16722 -1.70924 0
M  V30 4079 C 394.007 3.11522 -3.21959 0
M  V30 4080 C 395.751 3.93764 -1.58588 0
M  V30 4081 C 393.658 4.46999 -3.87228 0
M  V30 4082 H 392.588 0.660292 -0.364047 0
M  V30 4083 H 395.239 1.158 -1.42347 0
M  V30 4084 H 393.621 3.775 -1.19623 0
M  V30 4085 H 394.795 2.60158 -3.80335 0
M  V30 4086 H 393.11 2.47978 -3.34508 0
M  V30 4087 H 395.707 4.93963 -2.04707 0
M  V30 4088 H 396.05 4.12794 -0.539142 0
M  V30 4089 H 396.583 3.39576 -2.07203 0
M  V30 4090 H 393.322 4.33174 -4.91976 0
M  V30 4091 H 392.842 4.98441 -3.33642 0
M  V30 4092 H 394.521 5.15898 -3.90459 0
M  V30 4093 N 394.653 0.992116 1.22453 0
M  V30 4094 C 395.6 0.541731 2.24352 0
M  V30 4095 C 396.57 -0.425519 1.60557 0
M  V30 4096 O 397.755 -0.330453 1.87917 0
M  V30 4097 C 394.895 -0.138248 3.44823 0
M  V30 4098 C 394.008 0.870649 4.23136 0
M  V30 4099 C 393.143 0.164269 5.30946 0
M  V30 4100 C 392.182 1.16159 6.00977 0
M  V30 4101 N 391.319 0.483568 7.00433 0
M  V30 4102 H 396.159 1.41541 2.62241 0
M  V30 4103 H 393.696 0.709013 1.28885 0
M  V30 4104 H 395.654 -0.5494 4.13567 0
M  V30 4105 H 394.284 -0.975721 3.077 0
M  V30 4106 H 393.336 1.40013 3.53696 0
M  V30 4107 H 394.648 1.63014 4.7141 0
M  V30 4108 H 393.802 -0.303653 6.0594 0
M  V30 4109 H 392.541 -0.627733 4.83643 0
M  V30 4110 H 391.546 1.64015 5.24766 0
M  V30 4111 H 392.771 1.95445 6.50368 0
M  V30 4112 H 390.717 -0.289012 6.55363 0
M  V30 4113 H 390.634 1.18152 7.4671 0
M  V30 4114 H 391.902 0.0384219 7.79491 0
M  V30 4115 N 396.131 -1.37776 0.765217 0
M  V30 4116 C 397.061 -2.32945 0.160953 0
M  V30 4117 C 398.042 -1.55454 -0.690516 0
M  V30 4118 O 399.227 -1.83721 -0.629318 0
M  V30 4119 C 396.357 -3.39669 -0.724031 0
M  V30 4120 C 395.311 -4.27992 0.0256173 0
M  V30 4121 C 394.637 -5.25673 -0.978383 0
M  V30 4122 C 395.937 -5.08309 1.20082 0
M  V30 4123 H 397.631 -2.83728 0.955969 0
M  V30 4124 H 395.177 -1.36416 0.461149 0
M  V30 4125 H 397.13 -4.05219 -1.15652 0
M  V30 4126 H 395.854 -2.87396 -1.5515 0
M  V30 4127 H 394.513 -3.63964 0.438812 0
M  V30 4128 H 394.161 -4.69682 -1.80022 0
M  V30 4129 H 393.861 -5.85625 -0.481378 0
M  V30 4130 H 395.385 -5.94098 -1.40995 0
M  V30 4131 H 396.799 -5.67034 0.845307 0
M  V30 4132 H 395.196 -5.77554 1.62947 0
M  V30 4133 H 396.266 -4.41365 2.00811 0
M  V30 4134 N 397.609 -0.515225 -1.4894 0
M  V30 4135 C 398.839 0.0205735 -2.0659 0
M  V30 4136 C 399.247 1.30064 -1.37405 0
M  V30 4137 O 398.59 1.78087 -0.450632 0
M  V30 4138 C 398.652 0.330124 -3.57981 0
M  V30 4139 C 398.316 -0.854295 -4.48944 0
M  V30 4140 C 399.313 -1.7487 -4.89609 0
M  V30 4141 C 396.998 -1.05712 -4.9105 0
M  V30 4142 C 398.992 -2.82996 -5.71132 0
M  V30 4143 C 396.679 -2.14154 -5.72347 0
M  V30 4144 C 397.677 -3.0263 -6.12294 0
M  V30 4145 O 397.365 -4.09198 -6.91962 0
M  V30 4146 H 397.097 -0.0236833 -0.675585 0
M  V30 4147 H 399.651 -0.715956 -1.92518 0
M  V30 4148 H 397.881 1.12044 -3.70112 0
M  V30 4149 H 399.57 0.806233 -3.97812 0
M  V30 4150 H 400.336 -1.60388 -4.57712 0
M  V30 4151 H 396.215 -0.377788 -4.59449 0
M  V30 4152 H 399.759 -3.52083 -6.02232 0
M  V30 4153 H 395.656 -2.28626 -6.03656 0
M  V30 4154 H 396.424 -4.06726 -7.10293 0
M  V30 4155 N 399.087 1.5561 -0.249682 0
M  V30 4156 C 400.034 2.21496 0.648694 0
M  V30 4157 C 401.004 1.17977 1.16921 0
M  V30 4158 O 402.189 1.46434 1.22318 0
M  V30 4159 C 399.329 2.92039 1.83868 0
M  V30 4160 C 398.442 4.10219 1.35442 0
M  V30 4161 C 397.577 4.6847 2.50419 0
M  V30 4162 C 396.616 5.78893 1.98869 0
M  V30 4163 N 395.753 6.31315 3.07223 0
M  V30 4164 H 400.593 2.97892 0.0801582 0
M  V30 4165 H 398.13 1.47074 0.0278031 0
M  V30 4166 H 400.088 3.31138 2.53778 0
M  V30 4167 H 398.718 2.18111 2.37965 0
M  V30 4168 H 397.77 3.76413 0.54928 0
M  V30 4169 H 399.082 4.89927 0.936649 0
M  V30 4170 H 398.236 5.10158 3.28366 0
M  V30 4171 H 396.975 3.87984 2.95499 0
M  V30 4172 H 395.98 5.3668 1.19393 0
M  V30 4173 H 397.205 6.61232 1.54755 0
M  V30 4174 H 395.151 5.53733 3.51732 0
M  V30 4175 H 395.068 7.06224 2.69784 0
M  V30 4176 H 396.336 6.77662 3.8522 0
M  V30 4177 N 400.565 -0.0233959 1.57583 0
M  V30 4178 C 401.512 -1.02224 2.06927 0
M  V30 4179 C 402.482 -1.35575 0.959617 0
M  V30 4180 O 403.667 -1.45815 1.23055 0
M  V30 4181 C 400.807 -2.31636 2.5581 0
M  V30 4182 C 399.92 -2.04394 3.80588 0
M  V30 4183 C 399.055 -3.27717 4.18061 0
M  V30 4184 C 398.094 -2.96056 5.3574 0
M  V30 4185 N 397.231 -4.11847 5.68618 0
M  V30 4186 H 402.071 -0.594504 2.9201 0
M  V30 4187 H 399.608 -0.281921 1.44373 0
M  V30 4188 H 401.566 -3.07258 2.82221 0
M  V30 4189 H 400.196 -2.72122 1.73636 0
M  V30 4190 H 399.248 -1.19244 3.61227 0
M  V30 4191 H 400.56 -1.77042 4.66323 0
M  V30 4192 H 399.714 -4.11702 4.4563 0
M  V30 4193 H 398.453 -3.58188 3.30988 0
M  V30 4194 H 397.458 -2.10474 5.07918 0
M  V30 4195 H 398.683 -2.66857 6.24471 0
M  V30 4196 H 396.629 -4.42258 4.84504 0
M  V30 4197 H 396.546 -3.87938 6.48876 0
M  V30 4198 H 397.814 -4.96689 6.00766 0
M  V30 4199 N 402.043 -1.548 -0.295768 0
M  V30 4200 C 402.99 -1.86113 -1.36494 0
M  V30 4201 C 403.96 -0.7105 -1.50137 0
M  V30 4202 O 405.145 -0.959626 -1.64912 0
M  V30 4203 C 402.285 -2.11861 -2.72413 0
M  V30 4204 C 401.398 -3.39471 -2.67177 0
M  V30 4205 C 400.533 -3.55035 -3.95125 0
M  V30 4206 C 399.572 -4.76418 -3.84308 0
M  V30 4207 N 398.709 -4.8876 -5.04042 0
M  V30 4208 H 403.549 -2.77314 -1.09091 0
M  V30 4209 H 401.086 -1.37315 -0.52753 0
M  V30 4210 H 403.044 -2.24786 -3.51464 0
M  V30 4211 H 401.674 -1.2392 -2.98066 0
M  V30 4212 H 400.726 -3.35139 -1.79962 0
M  V30 4213 H 402.038 -4.28646 -2.55076 0
M  V30 4214 H 401.192 -3.67653 -4.82614 0
M  V30 4215 H 399.931 -2.64002 -4.10066 0
M  V30 4216 H 398.936 -4.63827 -2.95202 0
M  V30 4217 H 400.161 -5.68863 -3.70906 0
M  V30 4218 H 398.107 -4.00652 -5.19436 0
M  V30 4219 H 398.024 -5.71945 -4.94384 0
M  V30 4220 H 399.292 -5.0574 -5.93167 0
M  V30 4221 N 403.521 0.559213 -1.47345 0
M  V30 4222 C 404.749 1.34194 -1.57479 0
M  V30 4223 C 405.164 1.87463 -0.224261 0
M  V30 4224 O 404.521 1.64888 0.782185 0
M  V30 4225 C 404.572 2.51324 -2.59843 0
M  V30 4226 O 404.293 2.00256 -3.89653 0
M  V30 4227 C 405.794 3.43563 -2.80142 0
M  V30 4228 H 403.014 0.409136 -0.531835 0
M  V30 4229 H 405.558 0.677609 -1.92947 0
M  V30 4230 H 403.713 3.13699 -2.27314 0
M  V30 4231 H 404.127 2.76708 -4.4557 0
M  V30 4232 H 405.601 4.2217 -3.55635 0
M  V30 4233 H 406.078 3.9698 -1.87892 0
M  V30 4234 H 406.684 2.87005 -3.1386 0
M  V30 4235 N 404.999 1.35443 0.805782 0
M  V30 4236 C 406.247 1.28507 1.55982 0
M  V30 4237 C 406.568 -0.140046 1.94496 0
M  V30 4238 O 405.838 -1.07666 1.63661 0
M  V30 4239 H 404.418 0.472676 0.578434 0
M  V30 4240 H 407.08 1.69555 0.961098 0
M  V30 4241 H 406.176 1.90148 2.47488 0
M  V30 4242 N 406.477 -1.02803 1.19454 0
M  V30 4243 C 407.424 -2.11099 0.933046 0
M  V30 4244 C 408.394 -1.65571 -0.132447 0
M  V30 4245 O 409.579 -1.90797 0.00987576 0
M  V30 4246 C 406.719 -3.41763 0.478747 0
M  V30 4247 C 405.832 -4.00833 1.6111 0
M  V30 4248 C 404.967 -5.19511 1.10825 0
M  V30 4249 C 404.006 -5.70639 2.21445 0
M  V30 4250 N 403.143 -6.80589 1.72461 0
M  V30 4251 H 407.983 -2.32804 1.86028 0
M  V30 4252 H 405.52 -1.14179 0.927441 0
M  V30 4253 H 407.478 -4.16736 0.196745 0
M  V30 4254 H 406.108 -3.20166 -0.411493 0
M  V30 4255 H 405.16 -3.23066 2.00829 0
M  V30 4256 H 406.472 -4.34794 2.4445 0
M  V30 4257 H 405.626 -6.01645 0.781533 0
M  V30 4258 H 404.365 -4.87086 0.244606 0
M  V30 4259 H 403.37 -4.87116 2.54947 0
M  V30 4260 H 404.595 -6.05102 3.08267 0
M  V30 4261 H 402.541 -6.50016 0.884056 0
M  V30 4262 H 402.458 -7.13681 2.49389 0
M  V30 4263 H 403.726 -7.66317 1.42755 0
M  V30 4264 N 407.956 -0.998596 -1.21925 0
M  V30 4265 C 409.233 -0.593401 -1.86382 0
M  V30 4266 C 409.613 0.92916 -1.89552 0
M  V30 4267 O 408.961 1.81347 -1.39017 0
M  V30 4268 C 409.171 -1.22039 -3.26967 0
M  V30 4269 C 410.519 -1.32449 -4.03413 0
M  V30 4270 O 411.543 -1.17522 -3.36254 0
M  V30 4271 O 410.402 -1.56395 -5.23644 0
M  V30 4272 H 407.496 -0.202385 -0.801854 0
M  V30 4273 H 410.042 -1.09484 -1.29659 0
M  V30 4274 H 408.814 -2.26158 -3.19325 0
M  V30 4275 H 408.437 -0.704906 -3.91301 0
M  V30 4276 N 409.434 1.37368 -0.772513 0
M  V30 4277 C 410.68 1.99969 -0.337681 0
M  V30 4278 C 411.013 1.61184 1.08321 0
M  V30 4279 O 410.288 0.858395 1.74533 0
M  V30 4280 C 410.571 3.56858 -0.482121 0
M  V30 4281 C 410.424 4.0555 -1.94549 0
M  V30 4282 C 411.743 4.39955 0.113143 0
M  V30 4283 H 408.862 0.726464 -0.124171 0
M  V30 4284 H 411.504 1.63034 -0.975699 0
M  V30 4285 H 409.654 3.88452 0.0610361 0
M  V30 4286 H 411.326 3.84518 -2.54841 0
M  V30 4287 H 409.569 3.57715 -2.45403 0
M  V30 4288 H 410.24 5.14587 -1.9976 0
M  V30 4289 H 412.716 4.14623 -0.35031 0
M  V30 4290 H 411.592 5.48897 -0.0180514 0
M  V30 4291 H 411.853 4.25403 1.20354 0
M  V30 4292 N 410.912 0.523116 1.48665 0
M  V30 4293 C 412.328 0.180511 1.58576 0
M  V30 4294 C 412.528 -1.31597 1.52592 0
M  V30 4295 O 411.584 -2.0937 1.4114 0
M  V30 4296 C 412.897 0.776949 2.90489 0
M  V30 4297 C 414.445 0.745058 3.04003 0
M  V30 4298 C 414.92 1.31995 4.38567 0
M  V30 4299 N 416.411 1.28162 4.45117 0
M  V30 4300 C 417.146 1.6964 5.47731 0
M  V30 4301 N 416.642 2.18816 6.57337 0
M  V30 4302 N 418.435 1.6092 5.38573 0
M  V30 4303 H 410.586 1.4958 1.50797 0
M  V30 4304 H 412.849 0.621772 0.715614 0
M  V30 4305 H 412.555 1.82732 3.00503 0
M  V30 4306 H 412.429 0.25007 3.7637 0
M  V30 4307 H 414.816 -0.296532 2.93606 0
M  V30 4308 H 414.897 1.30933 2.1975 0
M  V30 4309 H 414.541 2.36043 4.49718 0
M  V30 4310 H 414.471 0.731418 5.21496 0
M  V30 4311 H 416.962 0.92155 3.66491 0
M  V30 4312 H 417.275 2.48478 7.31764 0
M  V30 4313 H 415.62 2.22805 6.58318 0
M  V30 4314 H 418.811 1.22304 4.5184 0
M  V30 4315 H 418.984 1.93567 6.18414 0
M  V30 4316 N 412.39 -1.55475 0.257931 0
M  V30 4317 C 413.337 -2.21837 -0.636939 0
M  V30 4318 C 414.307 -1.18596 -1.16294 0
M  V30 4319 O 415.492 -1.47081 -1.21539 0
M  V30 4320 C 412.632 -2.9301 -1.82317 0
M  V30 4321 C 411.745 -4.10931 -1.33265 0
M  V30 4322 C 410.88 -4.69791 -2.47931 0
M  V30 4323 C 409.919 -5.7994 -1.95796 0
M  V30 4324 N 409.056 -6.32935 -3.0387 0
M  V30 4325 H 413.896 -2.9793 -0.0643591 0
M  V30 4326 H 411.433 -1.47086 -0.0200031 0
M  V30 4327 H 413.391 -3.3248 -2.52018 0
M  V30 4328 H 412.021 -2.1937 -2.36805 0
M  V30 4329 H 411.073 -3.76699 -0.52931 0
M  V30 4330 H 412.385 -4.90417 -0.910654 0
M  V30 4331 H 411.539 -5.11892 -3.25656 0
M  V30 4332 H 410.278 -3.89545 -2.93438 0
M  V30 4333 H 409.283 -5.37305 -1.16546 0
M  V30 4334 H 410.508 -6.62043 -1.51246 0
M  V30 4335 H 408.454 -5.55591 -3.48791 0
M  V30 4336 H 408.371 -7.07645 -2.66035 0
M  V30 4337 H 409.639 -6.79695 -3.81621 0
M  V30 4338 N 413.868 0.0150385 -1.57593 0
M  V30 4339 C 415.145 0.7392 -1.81094 0
M  V30 4340 C 415.525 1.92817 -0.859344 0
M  V30 4341 O 414.873 2.28301 0.095362 0
M  V30 4342 C 415.083 1.15907 -3.29191 0
M  V30 4343 C 416.431 1.56918 -3.9454 0
M  V30 4344 O 417.455 1.25328 -3.33424 0
M  V30 4345 O 416.314 2.15604 -5.02173 0
M  V30 4346 H 413.408 0.358631 -0.745193 0
M  V30 4347 H 415.954 -0.00926156 -1.69697 0
M  V30 4348 H 414.726 0.310921 -3.90063 0
M  V30 4349 H 414.349 1.96711 -3.45529 0
M  V30 4350 N 415.346 1.54954 0.287554 0
M  V30 4351 C 416.294 1.87606 1.37502 0
M  V30 4352 C 417.288 0.751001 1.51843 0
M  V30 4353 O 418.494 0.935169 1.53801 0
M  V30 4354 H 414.869 0.595231 0.459569 0
M  V30 4355 H 416.84 2.78477 1.07206 0
M  V30 4356 C 415.589 2.15183 2.73115 0
M  V30 4357 H 414.912 3.01234 2.62866 0
M  V30 4358 H 416.352 2.4196 3.48183 0
M  V30 4359 C 414.811 0.954686 3.2309 0
M  V30 4360 O 415.341 0.181949 4.01288 0
M  V30 4361 N 413.547 0.756368 2.80584 0
M  V30 4362 H 413.094 1.38643 2.17108 0
M  V30 4363 H 413.052 -0.0430391 3.14371 0
M  V30 4364 N 416.824 -0.551391 1.4764 0
M  V30 4365 C 418.24 -0.877887 1.33287 0
M  V30 4366 C 418.44 -1.98817 0.327721 0
M  V30 4367 O 417.496 -2.51171 -0.258695 0
M  V30 4368 C 418.809 -1.26563 2.72768 0
M  V30 4369 C 420.357 -1.37673 2.81097 0
M  V30 4370 C 420.832 -1.79799 4.21232 0
M  V30 4371 N 422.323 -1.8694 4.23802 0
M  V30 4372 C 423.058 -2.20876 5.29151 0
M  V30 4373 N 422.554 -2.53386 6.448 0
M  V30 4374 N 424.347 -2.217 5.16532 0
M  V30 4375 H 416.498 0.18153 2.11623 0
M  V30 4376 H 418.761 0.0185514 0.947818 0
M  V30 4377 H 418.467 -0.523591 3.47781 0
M  V30 4378 H 418.341 -2.22052 3.04915 0
M  V30 4379 H 420.728 -2.10956 2.06353 0
M  V30 4380 H 420.809 -0.40357 2.52596 0
M  V30 4381 H 420.453 -1.07083 4.96483 0
M  V30 4382 H 420.383 -2.78128 4.4716 0
M  V30 4383 H 422.874 -1.64179 3.40373 0
M  V30 4384 H 423.187 -2.78325 7.20941 0
M  V30 4385 H 421.532 -2.50953 6.48111 0
M  V30 4386 H 424.723 -1.95745 4.25207 0
M  V30 4387 H 424.896 -2.47818 5.98741 0
M  V30 4388 N 418.302 -1.35869 -0.798587 0
M  V30 4389 C 419.265 -1.29307 -1.89242 0
M  V30 4390 C 420.265 -0.202747 -1.59517 0
M  V30 4391 O 421.455 -0.456957 -1.681 0
M  V30 4392 C 418.587 -1.00229 -3.25833 0
M  V30 4393 H 419.78 -2.26576 -1.96478 0
M  V30 4394 H 417.333 -1.20509 -0.995358 0
M  V30 4395 H 418.068 -0.033801 -3.24282 0
M  V30 4396 H 417.853 -1.79121 -3.48795 0
M  V30 4397 H 419.343 -0.98219 -4.05885 0
M  V30 4398 N 419.78 1.02168 -1.19998 0
M  V30 4399 C 421.026 1.75945 -1.00852 0
M  V30 4400 C 421.359 1.88702 0.458828 0
M  V30 4401 O 420.634 1.40911 1.34069 0
M  V30 4402 C 420.917 3.18154 -1.68671 0
M  V30 4403 C 420.77 3.13224 -3.22817 0
M  V30 4404 C 422.089 4.16711 -1.41561 0
M  V30 4405 H 419.208 0.638673 -0.367785 0
M  V30 4406 H 421.85 1.19222 -1.4794 0
M  V30 4407 H 420 3.66586 -1.28636 0
M  V30 4408 H 421.672 2.72635 -3.72112 0
M  V30 4409 H 419.915 2.50751 -3.53986 0
M  V30 4410 H 420.586 4.13728 -3.65422 0
M  V30 4411 H 423.062 3.76913 -1.76284 0
M  V30 4412 H 421.938 5.14391 -1.91553 0
M  V30 4413 H 422.199 4.40774 -0.342193 0
M  V30 4414 N 421.258 1.00505 1.21394 0
M  V30 4415 C 422.19 0.52372 2.23136 0
M  V30 4416 C 423.203 -0.387714 1.58116 0
M  V30 4417 O 424.392 -0.187905 1.77508 0
M  V30 4418 C 421.492 -0.258885 3.3791 0
M  V30 4419 C 420.665 0.651634 4.32519 0
M  V30 4420 C 419.724 -0.0813705 5.26137 0
M  V30 4421 O 418.75 0.537295 5.66658 0
M  V30 4422 N 419.952 -1.35992 5.64346 0
M  V30 4423 H 422.717 1.39865 2.65062 0
M  V30 4424 H 420.278 0.881196 1.35818 0
M  V30 4425 H 422.27 -0.758208 3.97534 0
M  V30 4426 H 420.84 -1.035 2.94968 0
M  V30 4427 H 420.06 1.33145 3.71034 0
M  V30 4428 H 421.348 1.27129 4.92662 0
M  V30 4429 H 420.746 -1.88368 5.33417 0
M  V30 4430 H 419.303 -1.8042 6.26332 0
M  V30 4431 N 422.737 -1.36956 0.779787 0
M  V30 4432 C 423.684 -2.30175 0.169697 0
M  V30 4433 C 424.654 -1.51501 -0.68094 0
M  V30 4434 O 425.839 -1.80042 -0.631629 0
M  V30 4435 C 422.979 -3.37985 -0.697131 0
M  V30 4436 C 422.092 -4.31661 0.170992 0
M  V30 4437 C 421.227 -5.2655 -0.701298 0
M  V30 4438 C 420.266 -6.11867 0.168869 0
M  V30 4439 N 419.403 -6.98973 -0.661855 0
M  V30 4440 H 424.243 -2.81767 0.970135 0
M  V30 4441 H 421.78 -1.38699 0.489994 0
M  V30 4442 H 423.738 -3.99128 -1.2146 0
M  V30 4443 H 422.368 -2.87739 -1.46309 0
M  V30 4444 H 421.42 -3.71756 0.80634 0
M  V30 4445 H 422.732 -4.91644 0.841875 0
M  V30 4446 H 421.886 -5.92937 -1.28494 0
M  V30 4447 H 420.625 -4.66998 -1.40584 0
M  V30 4448 H 419.63 -5.44452 0.764986 0
M  V30 4449 H 420.855 -6.73493 0.870863 0
M  V30 4450 H 418.801 -6.41941 -1.35086 0
M  V30 4451 H 418.718 -7.55984 -0.0484447 0
M  V30 4452 H 419.986 -7.6974 -1.22963 0
M  V30 4453 N 424.215 -0.530993 -1.48385 0
M  V30 4454 C 425.145 0.219985 -2.32461 0
M  V30 4455 C 426.126 0.934111 -1.42156 0
M  V30 4456 O 427.311 0.919694 -1.71042 0
M  V30 4457 C 424.441 1.26674 -3.23375 0
M  V30 4458 C 423.395 0.67069 -4.22712 0
M  V30 4459 C 422.721 1.82017 -5.02766 0
M  V30 4460 C 424.021 -0.358268 -5.2107 0
M  V30 4461 H 425.715 -0.48187 -2.95497 0
M  V30 4462 H 423.261 -0.233182 -1.42099 0
M  V30 4463 H 425.214 1.80006 -3.81019 0
M  V30 4464 H 423.938 1.99818 -2.58341 0
M  V30 4465 H 422.597 0.158878 -3.66256 0
M  V30 4466 H 422.245 2.54002 -4.34157 0
M  V30 4467 H 421.945 1.42727 -5.70003 0
M  V30 4468 H 423.469 2.35725 -5.63264 0
M  V30 4469 H 424.883 0.0880081 -5.73232 0
M  V30 4470 H 423.28 -0.66861 -5.96364 0
M  V30 4471 H 424.35 -1.26367 -4.68145 0
M  V30 4472 N 425.693 1.55336 -0.266172 0
M  V30 4473 C 427.109 1.59356 0.0882065 0
M  V30 4474 C 427.309 1.2834 1.55342 0
M  V30 4475 O 426.365 1.03996 2.30089 0
M  V30 4476 C 427.678 2.99409 -0.278364 0
M  V30 4477 C 429.226 3.12196 -0.224243 0
M  V30 4478 C 429.701 4.545 -0.565123 0
M  V30 4479 N 431.192 4.60313 -0.51634 0
M  V30 4480 C 431.927 5.68434 -0.753013 0
M  V30 4481 N 431.423 6.84738 -1.05383 0
M  V30 4482 N 433.216 5.57942 -0.682414 0
M  V30 4483 H 425.367 1.73764 -1.22147 0
M  V30 4484 H 427.63 0.809822 -0.492841 0
M  V30 4485 H 427.336 3.2691 -1.29703 0
M  V30 4486 H 427.21 3.75228 0.385186 0
M  V30 4487 H 429.597 2.84464 0.78512 0
M  V30 4488 H 429.678 2.38609 -0.921922 0
M  V30 4489 H 429.322 4.82956 -1.57213 0
M  V30 4490 H 429.252 5.26374 0.154248 0
M  V30 4491 H 431.743 3.7676 -0.29335 0
M  V30 4492 H 432.056 7.63088 -1.22133 0
M  V30 4493 H 430.401 6.86375 -1.09151 0
M  V30 4494 H 433.592 4.65958 -0.44731 0
M  V30 4495 H 433.765 6.4213 -0.870248 0
M  V30 4496 N 427.171 -0.0066808 1.57599 0
M  V30 4497 C 428.587 -0.36267 1.55425 0
M  V30 4498 C 428.787 -1.75209 0.995187 0
M  V30 4499 O 427.843 -2.44616 0.626058 0
M  V30 4500 C 429.156 -0.244017 2.99708 0
M  V30 4501 C 430.704 -0.319451 3.11366 0
M  V30 4502 C 431.179 -0.229998 4.57422 0
M  V30 4503 N 432.67 -0.288105 4.62303 0
M  V30 4504 C 433.405 -0.242127 5.72889 0
M  V30 4505 N 432.901 -0.147133 6.92644 0
M  V30 4506 N 434.694 -0.293502 5.61333 0
M  V30 4507 H 426.845 0.902314 1.92281 0
M  V30 4508 H 429.108 0.34525 0.882896 0
M  V30 4509 H 428.814 0.711678 3.44424 0
M  V30 4510 H 428.688 -1.02877 3.629 0
M  V30 4511 H 431.075 -1.26559 2.66584 0
M  V30 4512 H 431.156 0.495055 2.50964 0
M  V30 4513 H 430.8 0.712566 5.02877 0
M  V30 4514 H 430.73 -1.0629 5.15761 0
M  V30 4515 H 433.221 -0.363126 3.76151 0
M  V30 4516 H 433.534 -0.117763 7.7271 0
M  V30 4517 H 431.879 -0.112857 6.94908 0
M  V30 4518 H 435.07 -0.365864 4.66668 0
M  V30 4519 H 435.243 -0.254204 6.47501 0
M  V30 4520 N 428.649 -1.55105 -0.279332 0
M  V30 4521 C 429.559 -1.90638 -1.36727 0
M  V30 4522 C 430.575 -0.802899 -1.54368 0
M  V30 4523 O 431.751 -1.10138 -1.68616 0
M  V30 4524 C 428.816 -2.16547 -2.70755 0
M  V30 4525 C 427.877 -3.40146 -2.61915 0
M  V30 4526 C 427.11 -3.6481 -3.8955 0
M  V30 4527 O 427.333 -2.92095 -4.89935 0
M  V30 4528 O 426.267 -4.58343 -3.90135 0
M  V30 4529 H 430.093 -2.83237 -1.09591 0
M  V30 4530 H 427.678 -1.4157 -0.477306 0
M  V30 4531 H 429.56 -2.34665 -3.50014 0
M  V30 4532 H 428.235 -1.27131 -2.9769 0
M  V30 4533 H 427.142 -3.2737 -1.81052 0
M  V30 4534 H 428.475 -4.29761 -2.3993 0
M  V30 4535 N 430.127 0.543554 -1.4793 0
M  V30 4536 C 431.373 1.30201 -1.55485 0
M  V30 4537 C 431.706 1.92925 -0.222201 0
M  V30 4538 O 430.981 1.78586 0.77053 0
M  V30 4539 C 431.264 2.40174 -2.68307 0
M  V30 4540 C 431.117 1.8223 -4.11233 0
M  V30 4541 C 432.436 3.42024 -2.76961 0
M  V30 4542 H 429.555 0.472036 -0.565996 0
M  V30 4543 H 432.197 0.606914 -1.80046 0
M  V30 4544 H 430.347 2.99463 -2.47495 0
M  V30 4545 H 432.019 1.27096 -4.43446 0
M  V30 4546 H 430.262 1.12832 -4.18869 0
M  V30 4547 H 430.933 2.61793 -4.85972 0
M  V30 4548 H 433.409 2.92672 -2.95774 0
M  V30 4549 H 432.285 4.16383 -3.57654 0
M  V30 4550 H 432.546 4.0173 -1.84568 0
M  V30 4551 N 431.605 1.3629 0.791371 0
M  V30 4552 C 432.515 1.32606 1.93527 0
M  V30 4553 C 433.531 0.228541 1.72493 0
M  V30 4554 O 434.707 0.460571 1.96063 0
M  V30 4555 C 431.772 1.11271 3.28359 0
M  V30 4556 C 430.833 2.3048 3.62185 0
M  V30 4557 C 430.066 2.10154 4.90583 0
M  V30 4558 O 430.289 1.07572 5.60165 0
M  V30 4559 O 429.223 2.97884 5.23019 0
M  V30 4560 H 433.049 2.28909 1.99585 0
M  V30 4561 H 430.634 1.16818 0.931344 0
M  V30 4562 H 432.516 1.01283 4.09047 0
M  V30 4563 H 431.191 0.180292 3.23198 0
M  V30 4564 H 430.098 2.46036 2.81811 0
M  V30 4565 H 431.431 3.22221 3.72068 0
M  V30 4566 N 433.083 -1.0153 1.20538 0
M  V30 4567 C 434.03 -2.10098 0.955383 0
M  V30 4568 C 435 -1.65702 -0.114878 0
M  V30 4569 O 436.185 -1.90776 0.0301118 0
M  V30 4570 C 433.325 -3.41236 0.514969 0
M  V30 4571 C 432.438 -3.99102 1.65353 0
M  V30 4572 C 431.573 -5.18306 1.16329 0
M  V30 4573 C 430.612 -5.68258 2.27485 0
M  V30 4574 N 429.749 -6.78722 1.7967 0
M  V30 4575 H 434.589 -2.30818 1.88486 0
M  V30 4576 H 432.126 -1.13189 0.939499 0
M  V30 4577 H 434.084 -4.16504 0.240935 0
M  V30 4578 H 432.714 -3.20585 -0.377512 0
M  V30 4579 H 431.766 -3.20918 2.04245 0
M  V30 4580 H 433.078 -4.32177 2.49047 0
M  V30 4581 H 432.232 -6.00782 0.845302 0
M  V30 4582 H 430.971 -4.86799 0.296254 0
M  V30 4583 H 429.976 -4.84385 2.60099 0
M  V30 4584 H 431.201 -6.01798 3.14667 0
M  V30 4585 H 429.147 -6.49042 0.95295 0
M  V30 4586 H 429.064 -7.10996 2.56944 0
M  V30 4587 H 430.332 -7.64759 1.50875 0
M  V30 4588 N 434.561 -1.01147 -1.20859 0
M  V30 4589 C 435.524 -0.582224 -2.21682 0
M  V30 4590 C 436.524 0.344887 -1.57058 0
M  V30 4591 O 437.714 0.134281 -1.73682 0
M  V30 4592 C 434.846 0.150496 -3.40568 0
M  V30 4593 H 436.039 -1.47408 -2.61172 0
M  V30 4594 H 433.592 -0.800695 -1.34233 0
M  V30 4595 H 434.327 1.0575 -3.06574 0
M  V30 4596 H 434.112 -0.515444 -3.88697 0
M  V30 4597 H 435.602 0.438344 -4.15293 0
M  V30 4598 N 436.039 1.36541 -0.78704 0
M  V30 4599 C 436.986 2.30082 -0.181901 0
M  V30 4600 C 437.956 1.5186 0.672896 0
M  V30 4601 O 439.141 1.80374 0.622072 0
M  V30 4602 C 436.281 3.3835 0.679197 0
M  V30 4603 C 435.394 4.31565 -0.193882 0
M  V30 4604 C 434.529 5.26915 0.673364 0
M  V30 4605 C 433.568 6.11769 -0.201315 0
M  V30 4606 N 432.705 6.99315 0.624777 0
M  V30 4607 H 437.545 2.81248 -0.985064 0
M  V30 4608 H 435.082 1.38437 -0.497342 0
M  V30 4609 H 437.04 3.99767 1.19341 0
M  V30 4610 H 435.67 2.8851 1.44781 0
M  V30 4611 H 434.722 3.71323 -0.826044 0
M  V30 4612 H 436.034 4.91191 -0.867937 0
M  V30 4613 H 435.188 5.9361 1.25348 0
M  V30 4614 H 433.927 4.67737 1.38105 0
M  V30 4615 H 432.932 5.44039 -0.793849 0
M  V30 4616 H 434.157 6.73022 -0.906568 0
M  V30 4617 H 432.103 6.42648 1.3168 0
M  V30 4618 H 432.02 7.56 0.00835237 0
M  V30 4619 H 433.288 7.70382 1.18879 0
M  V30 4620 N 437.518 0.538854 1.48102 0
M  V30 4621 C 438.934 0.19732 1.58376 0
M  V30 4622 C 439.134 -1.29971 1.5398 0
M  V30 4623 O 438.19 -2.07861 1.43352 0
M  V30 4624 C 439.503 0.807716 2.89649 0
M  V30 4625 C 441.051 0.77726 3.03196 0
M  V30 4626 C 441.526 1.36639 4.37143 0
M  V30 4627 N 443.017 1.32875 4.43732 0
M  V30 4628 C 443.752 1.7544 5.45901 0
M  V30 4629 N 443.248 2.25776 6.54979 0
M  V30 4630 N 445.041 1.66623 5.36836 0
M  V30 4631 H 437.192 1.5117 1.49202 0
M  V30 4632 H 439.455 0.629327 0.708979 0
M  V30 4633 H 439.161 1.85909 2.98548 0
M  V30 4634 H 439.035 0.289975 3.76084 0
M  V30 4635 H 441.422 -0.265374 2.93904 0
M  V30 4636 H 441.503 1.33256 2.18349 0
M  V30 4637 H 441.147 2.408 4.47189 0
M  V30 4638 H 441.077 0.786689 5.20691 0
M  V30 4639 H 443.568 0.96037 3.65493 0
M  V30 4640 H 443.881 2.56226 7.29087 0
M  V30 4641 H 442.226 2.29775 6.55918 0
M  V30 4642 H 445.417 1.27089 4.50517 0
M  V30 4643 H 445.59 2.00115 6.16326 0
M  V30 4644 N 438.996 -1.55193 0.274407 0
M  V30 4645 C 439.959 -2.212 -0.600279 0
M  V30 4646 C 440.959 -1.18963 -1.08187 0
M  V30 4647 O 442.149 -1.43873 -0.982158 0
M  V30 4648 C 439.281 -2.87739 -1.82809 0
M  V30 4649 H 440.474 -2.9989 -0.0239682 0
M  V30 4650 H 438.027 -1.5628 0.0250192 0
M  V30 4651 H 438.762 -2.13058 -2.44493 0
M  V30 4652 H 438.547 -3.62658 -1.49069 0
M  V30 4653 H 440.037 -3.38171 -2.45011 0
M  V30 4654 N 440.474 -0.00167713 -1.576 0
M  V30 4655 C 441.404 0.988091 -2.11563 0
M  V30 4656 C 442.385 1.35736 -1.02517 0
M  V30 4657 O 443.57 1.44082 -1.30208 0
M  V30 4658 C 440.7 2.27941 -2.62031 0
M  V30 4659 C 439.654 2.0517 -3.75619 0
M  V30 4660 C 438.98 3.4033 -4.12407 0
M  V30 4661 C 440.28 1.41294 -5.02825 0
M  V30 4662 H 441.974 0.538771 -2.94513 0
M  V30 4663 H 439.52 0.257712 -1.41675 0
M  V30 4664 H 441.473 2.97539 -2.9841 0
M  V30 4665 H 440.197 2.74989 -1.76205 0
M  V30 4666 H 438.856 1.37998 -3.39635 0
M  V30 4667 H 438.504 3.85085 -3.23603 0
M  V30 4668 H 438.204 3.25909 -4.88935 0
M  V30 4669 H 439.728 4.1124 -4.51347 0
M  V30 4670 H 441.142 2.00851 -5.36965 0
M  V30 4671 H 439.539 1.37356 -5.84169 0
M  V30 4672 H 440.609 0.382362 -4.8339 0
M  V30 4673 N 441.952 1.55251 0.271103 0
M  V30 4674 C 443.177 1.80306 1.02491 0
M  V30 4675 C 443.602 0.575457 1.79081 0
M  V30 4676 O 442.96 -0.474987 1.74967 0
M  V30 4677 C 443.008 3.02832 1.95768 0
M  V30 4678 O 442.112 2.78051 3.04568 0
M  V30 4679 H 441.453 0.595896 0.292923 0
M  V30 4680 H 443.983 2.02397 0.299436 0
M  V30 4681 H 443.993 3.31616 2.37686 0
M  V30 4682 H 442.668 3.9183 1.39434 0
M  V30 4683 H 441.245 2.60369 2.66951 0
M  V30 4684 N 443.43 -0.535701 1.48216 0
M  V30 4685 C 444.655 -1.32149 1.59848 0
M  V30 4686 C 445.08 -1.86338 0.256842 0
M  V30 4687 O 444.438 -1.64107 -0.770632 0
M  V30 4688 C 444.486 -2.45224 2.64381 0
M  V30 4689 O 443.59 -3.48093 2.21144 0
M  V30 4690 H 442.931 -0.391634 0.536208 0
M  V30 4691 H 445.461 -0.645202 1.94161 0
M  V30 4692 H 445.471 -2.91491 2.85476 0
M  V30 4693 H 444.146 -2.05143 3.61786 0
M  V30 4694 H 442.723 -3.07984 2.10239 0
M  V30 4695 N 444.908 -1.36708 -0.784132 0
M  V30 4696 C 445.84 -1.27333 -1.90575 0
M  V30 4697 C 446.853 -0.191706 -1.61667 0
M  V30 4698 O 448.042 -0.446854 -1.72816 0
M  V30 4699 C 445.142 -0.943177 -3.25511 0
M  V30 4700 C 444.315 -2.12776 -3.82158 0
M  V30 4701 C 443.374 -1.76983 -4.95544 0
M  V30 4702 O 442.4 -2.49134 -5.11782 0
M  V30 4703 N 443.602 -0.706624 -5.76183 0
M  V30 4704 H 446.367 -2.23974 -1.99138 0
M  V30 4705 H 443.928 -1.30171 -0.962656 0
M  V30 4706 H 445.92 -0.684799 -3.98864 0
M  V30 4707 H 444.49 -0.0657333 -3.12531 0
M  V30 4708 H 443.71 -2.54863 -3.0073 0
M  V30 4709 H 444.998 -2.91904 -4.16737 0
M  V30 4710 H 444.396 -0.107643 -5.65598 0
M  V30 4711 H 442.953 -0.50808 -6.49817 0
M  V30 4712 N 446.386 1.0089 -1.21074 0
M  V30 4713 C 447.336 2.0799 -0.934034 0
M  V30 4714 C 448.32 1.60529 0.10919 0
M  V30 4715 O 449.512 1.76722 -0.0992198 0
M  V30 4716 C 446.641 3.39693 -0.496334 0
M  V30 4717 C 445.727 3.93833 -1.57341 0
M  V30 4718 N 446.118 4.21388 -2.7976 0
M  V30 4719 C 444.416 4.22067 -1.44137 0
M  V30 4720 C 445.117 4.65156 -3.49292 0
M  V30 4721 N 444.093 4.67895 -2.76722 0
M  V30 4722 H 447.895 2.27213 -1.86417 0
M  V30 4723 H 445.409 1.18927 -1.10589 0
M  V30 4724 H 447.406 4.15962 -0.279471 0
M  V30 4725 H 446.066 3.21879 0.427084 0
M  V30 4726 H 447.077 4.10061 -3.1634 0
M  V30 4727 H 443.754 4.1341 -0.582947 0
M  V30 4728 H 445.144 4.95231 -4.54088 0
M  V30 4729 N 447.864 1.01787 1.20321 0
M  V30 4730 C 448.796 0.547357 2.22568 0
M  V30 4731 C 449.809 -0.370922 1.58518 0
M  V30 4732 O 450.998 -0.169067 1.77698 0
M  V30 4733 C 448.098 -0.223031 3.38165 0
M  V30 4734 C 447.271 0.697472 4.31803 0
M  V30 4735 C 446.33 -0.025562 5.26194 0
M  V30 4736 O 445.356 0.597367 5.66057 0
M  V30 4737 N 446.558 -1.29999 5.65757 0
M  V30 4738 H 449.323 1.42668 2.63564 0
M  V30 4739 H 446.884 0.895552 1.34876 0
M  V30 4740 H 448.876 -0.716002 3.98316 0
M  V30 4741 H 447.446 -1.00366 2.9605 0
M  V30 4742 H 446.666 1.37073 3.69601 0
M  V30 4743 H 447.954 1.32347 4.91286 0
M  V30 4744 H 447.352 -1.827 5.35385 0
M  V30 4745 H 445.909 -1.73766 6.28211 0
M  V30 4746 N 449.342 -1.36122 0.79427 0
M  V30 4747 C 450.305 -2.28309 0.201889 0
M  V30 4748 C 451.305 -1.49041 -0.603603 0
M  V30 4749 O 452.495 -1.68964 -0.423888 0
M  V30 4750 C 449.627 -3.3321 -0.719978 0
M  V30 4751 H 450.82 -2.82208 1.01481 0
M  V30 4752 H 448.373 -1.45768 0.564037 0
M  V30 4753 H 449.108 -2.84475 -1.55706 0
M  V30 4754 H 448.893 -3.91835 -0.144266 0
M  V30 4755 H 450.383 -4.02044 -1.12916 0
M  V30 4756 N 450.82 -0.546701 -1.47814 0
M  V30 4757 C 452.236 -0.205717 -1.58269 0
M  V30 4758 C 452.436 1.29153 -1.54667 0
M  V30 4759 O 451.492 2.07098 -1.44453 0
M  V30 4760 C 452.805 -0.823065 -2.89216 0
M  V30 4761 C 454.353 -0.793328 -3.02779 0
M  V30 4762 C 454.828 -1.38955 -4.36412 0
M  V30 4763 N 456.319 -1.35227 -4.43021 0
M  V30 4764 C 457.054 -1.78333 -5.44963 0
M  V30 4765 N 456.55 -2.29246 -6.53772 0
M  V30 4766 N 458.343 -1.69467 -5.35945 0
M  V30 4767 H 450.494 -1.5196 -1.48398 0
M  V30 4768 H 452.757 -0.633078 -0.705632 0
M  V30 4769 H 452.463 -1.8749 -2.97558 0
M  V30 4770 H 452.337 -0.309915 -3.75925 0
M  V30 4771 H 454.724 0.249784 -2.94041 0
M  V30 4772 H 454.805 -1.34412 -2.17639 0
M  V30 4773 H 454.449 -2.43168 -4.45906 0
M  V30 4774 H 454.379 -0.814291 -5.20266 0
M  V30 4775 H 456.87 -0.979739 -3.64979 0
M  V30 4776 H 457.183 -2.60089 -7.27718 0
M  V30 4777 H 455.528 -2.3325 -6.5469 0
M  V30 4778 H 458.719 -1.29477 -4.49837 0
M  V30 4779 H 458.892 -2.03381 -6.15256 0
M  V30 4780 N 452.299 1.55045 -0.282633 0
M  V30 4781 C 453.548 1.98938 0.332667 0
M  V30 4782 C 453.861 1.17455 1.56409 0
M  V30 4783 O 455.067 1.51527 2.25282 0
M  V30 4784 C 453.523 3.54105 0.643226 0
M  V30 4785 C 453.131 4.44374 -0.568814 0
M  V30 4786 C 454.875 4.06569 1.22074 0
M  V30 4787 C 452.782 5.90943 -0.232426 0
M  V30 4788 H 451.712 0.743043 0.128075 0
M  V30 4789 H 454.363 1.79341 -0.388464 0
M  V30 4790 H 452.745 3.69532 1.42346 0
M  V30 4791 H 453.919 4.40718 -1.34551 0
M  V30 4792 H 452.234 4.02585 -1.06369 0
M  V30 4793 H 454.831 5.13626 1.48635 0
M  V30 4794 H 455.174 3.56057 2.15707 0
M  V30 4795 H 455.707 3.94612 0.502621 0
M  V30 4796 H 452.446 6.45567 -1.13683 0
M  V30 4797 H 451.966 5.9765 0.507357 0
M  V30 4798 H 453.645 6.4677 0.172657 0
M  V30 4799 N 453.777 0.010035 1.57597 0
M  V30 4800 C 454.687 -0.994226 2.12491 0
M  V30 4801 C 455.703 -1.37013 1.07254 0
M  V30 4802 O 456.879 -1.45542 1.3921 0
M  V30 4803 C 453.944 -2.2642 2.62555 0
M  V30 4804 C 453.005 -1.95049 3.82432 0
M  V30 4805 C 452.238 -3.15991 4.30099 0
M  V30 4806 O 452.461 -4.28015 3.7704 0
M  V30 4807 O 451.395 -2.99403 5.22151 0
M  V30 4808 H 455.221 -0.557549 2.98538 0
M  V30 4809 H 452.806 -0.209413 1.47925 0
M  V30 4810 H 454.688 -3.01009 2.9491 0
M  V30 4811 H 453.363 -2.69306 1.796 0
M  V30 4812 H 452.27 -1.17904 3.55034 0
M  V30 4813 H 453.603 -1.56992 4.66491 0
M  V30 4814 N 455.255 -1.55392 -0.262866 0
M  V30 4815 C 456.504 -1.75679 -0.990943 0
M  V30 4816 C 456.817 -0.57097 -1.87081 0
M  V30 4817 O 458.023 -0.656486 -2.63444 0
M  V30 4818 C 456.479 -3.10964 -1.81188 0
M  V30 4819 C 456.087 -4.37146 -0.980188 0
M  V30 4820 C 457.831 -3.40597 -2.53365 0
M  V30 4821 C 455.738 -5.63466 -1.7961 0
M  V30 4822 H 454.668 -0.654868 -0.373716 0
M  V30 4823 H 457.319 -1.81841 -0.246203 0
M  V30 4824 H 455.701 -2.98867 -2.59797 0
M  V30 4825 H 456.875 -4.60187 -0.237558 0
M  V30 4826 H 455.19 -4.14731 -0.372497 0
M  V30 4827 H 457.787 -4.32186 -3.14833 0
M  V30 4828 H 458.13 -2.6119 -3.24169 0
M  V30 4829 H 458.663 -3.53838 -1.81779 0
M  V30 4830 H 455.402 -6.4565 -1.13209 0
M  V30 4831 H 454.922 -5.44552 -2.51443 0
M  V30 4832 H 456.601 -6.02139 -2.36723 0
M  V30 4833 N 456.733 0.527833 -1.48498 0
M  V30 4834 C 457.643 1.65907 -1.65867 0
M  V30 4835 C 458.659 1.6537 -0.541192 0
M  V30 4836 O 459.835 1.84282 -0.812534 0
M  V30 4837 C 456.9 3.02364 -1.69637 0
M  V30 4838 C 455.961 3.1374 -2.93028 0
M  V30 4839 C 455.194 4.43688 -2.96609 0
M  V30 4840 O 455.417 5.30913 -2.08538 0
M  V30 4841 O 454.351 4.59475 -3.88802 0
M  V30 4842 H 458.177 1.5419 -2.61647 0
M  V30 4843 H 455.762 0.701163 -1.31924 0
M  V30 4844 H 457.644 3.83515 -1.74625 0
M  V30 4845 H 456.319 3.14401 -0.770312 0
M  V30 4846 H 455.226 2.31877 -2.93571 0
M  V30 4847 H 456.559 3.06621 -3.85026 0
M  V30 4848 N 458.211 1.37122 0.776871 0
M  V30 4849 C 459.436 1.354 1.57104 0
M  V30 4850 C 459.861 -0.0595562 1.88006 0
M  V30 4851 O 459.219 -1.03514 1.48844 0
M  V30 4852 C 459.267 2.19472 2.8612 0
M  V30 4853 O 458.371 1.59582 3.80273 0
M  V30 4854 H 457.712 0.462869 0.476076 0
M  V30 4855 H 460.242 1.80577 0.961932 0
M  V30 4856 H 460.252 2.32502 3.35271 0
M  V30 4857 H 458.927 3.22222 2.62956 0
M  V30 4858 H 457.504 1.55564 3.38902 0
M  V30 4859 N 459.689 -1.00246 1.21608 0
M  V30 4860 C 460.936 -1.74061 1.03485 0
M  V30 4861 C 461.264 -1.89658 -0.431308 0
M  V30 4862 O 460.519 -1.42976 -1.33627 0
M  V30 4863 C 460.818 -3.15448 1.68009 0
M  V30 4864 C 460.484 -3.19792 3.17874 0
M  V30 4865 C 459.146 -3.20685 3.58768 0
M  V30 4866 C 461.498 -3.16835 4.13842 0
M  V30 4867 C 458.826 -3.16309 4.94131 0
M  V30 4868 C 461.178 -3.14001 5.49169 0
M  V30 4869 C 459.842 -3.13204 5.89457 0
M  V30 4870 H 459.112 -0.636934 0.378677 0
M  V30 4871 H 461.759 -1.17473 1.51236 0
M  V30 4872 H 460.064 -3.75284 1.12557 0
M  V30 4873 H 461.761 -3.71285 1.51487 0
M  V30 4874 H 458.351 -3.19842 2.85305 0
M  V30 4875 H 462.535 -3.15303 3.83272 0
M  V30 4876 H 457.791 -3.14032 5.24589 0
M  V30 4877 H 461.965 -3.10667 6.23265 0
M  V30 4878 H 459.592 -3.09568 6.94314 0
M  V30 4879 N 461.167 -1.02423 -1.1978 0
M  V30 4880 C 462.397 -0.736387 -1.93031 0
M  V30 4881 C 462.805 0.708023 -1.75453 0
M  V30 4882 O 462.148 1.4927 -1.07071 0
M  V30 4883 C 462.21 -1.00194 -3.45255 0
M  V30 4884 C 461.874 -2.43698 -3.86601 0
M  V30 4885 C 462.871 -3.41814 -3.91738 0
M  V30 4886 C 460.556 -2.77975 -4.18372 0
M  V30 4887 C 462.55 -4.72265 -4.28071 0
M  V30 4888 C 460.237 -4.08636 -4.54378 0
M  V30 4889 C 461.235 -5.05592 -4.59201 0
M  V30 4890 O 460.923 -6.33914 -4.94376 0
M  V30 4891 H 460.655 -0.269116 -0.620123 0
M  V30 4892 H 463.209 -1.37043 -1.52998 0
M  V30 4893 H 461.439 -0.310747 -3.85449 0
M  V30 4894 H 463.128 -0.704488 -3.9974 0
M  V30 4895 H 463.894 -3.16671 -3.67348 0
M  V30 4896 H 459.773 -2.0319 -4.13805 0
M  V30 4897 H 463.317 -5.4794 -4.3175 0
M  V30 4898 H 459.214 -4.33556 -4.78226 0
M  V30 4899 H 459.982 -6.38317 -5.12341 0
M  V30 4900 N 462.645 1.35699 -0.801477 0
M  V30 4901 C 463.555 2.33661 -0.209691 0
M  V30 4902 C 464.571 1.6162 0.644591 0
M  V30 4903 O 465.747 1.93529 0.557545 0
M  V30 4904 C 462.812 3.40816 0.636033 0
M  V30 4905 C 461.873 4.28639 -0.238147 0
M  V30 4906 C 461.106 5.30676 0.567307 0
M  V30 4907 O 461.329 5.41174 1.8024 0
M  V30 4908 O 460.263 6.01887 -0.0391336 0
M  V30 4909 H 464.089 2.8606 -1.01996 0
M  V30 4910 H 461.674 1.38379 -0.563164 0
M  V30 4911 H 463.556 4.06301 1.11791 0
M  V30 4912 H 462.231 2.90696 1.42399 0
M  V30 4913 H 461.138 3.66152 -0.767044 0
M  V30 4914 H 462.471 4.82143 -0.989915 0
M  V30 4915 N 464.123 0.554532 1.47522 0
M  V30 4916 C 465.371 0.0294208 2.02079 0
M  V30 4917 C 465.692 -1.32411 1.43151 0
M  V30 4918 O 464.962 -1.863 0.605728 0
M  V30 4919 H 463.542 0.00788672 0.746958 0
M  V30 4920 H 466.204 0.723934 1.80956 0
M  V30 4921 H 465.3 -0.0606745 3.12041 0
M  V30 4922 N 465.601 -1.54893 0.290851 0
M  V30 4923 C 466.511 -2.26812 -0.59945 0
M  V30 4924 C 467.527 -1.29963 -1.15696 0
M  V30 4925 O 468.703 -1.62928 -1.18391 0
M  V30 4926 C 465.768 -2.98716 -1.75982 0
M  V30 4927 C 464.829 -4.1108 -1.2374 0
M  V30 4928 C 464.062 -4.79546 -2.34246 0
M  V30 4929 O 464.285 -4.47309 -3.53936 0
M  V30 4930 O 463.219 -5.67165 -2.01512 0
M  V30 4931 H 467.045 -3.03696 -0.0163561 0
M  V30 4932 H 464.63 -1.49289 0.0576755 0
M  V30 4933 H 466.512 -3.43851 -2.43607 0
M  V30 4934 H 465.187 -2.24737 -2.3297 0
M  V30 4935 H 464.094 -3.70367 -0.527163 0
M  V30 4936 H 465.427 -4.87007 -0.71307 0
M  V30 4937 N 467.08 -0.0183926 -1.57589 0
M  V30 4938 C 468.357 0.700621 -1.82622 0
M  V30 4939 C 468.737 1.90951 -0.90005 0
M  V30 4940 O 468.085 2.28452 0.0469145 0
M  V30 4941 C 468.295 1.08899 -3.31575 0
M  V30 4942 C 469.643 1.48514 -3.9778 0
M  V30 4943 O 470.667 1.18227 -3.36007 0
M  V30 4944 O 469.526 2.04903 -5.06633 0
M  V30 4945 H 466.62 0.342743 -0.752633 0
M  V30 4946 H 469.166 -0.0452548 -1.6964 0
M  V30 4947 H 467.938 0.228113 -3.90635 0
M  V30 4948 H 467.561 1.89338 -3.49624 0
M  V30 4949 N 468.558 1.5553 0.254621 0
M  V30 4950 C 469.805 1.77 0.983736 0
M  V30 4951 C 470.133 0.58133 1.85609 0
M  V30 4952 O 469.388 -0.435621 1.9079 0
M  V30 4953 C 469.687 3.03891 1.88109 0
M  V30 4954 C 469.353 4.35597 1.16472 0
M  V30 4955 C 468.015 4.7139 0.966714 0
M  V30 4956 C 470.367 5.1705 0.656387 0
M  V30 4957 C 467.695 5.86176 0.247942 0
M  V30 4958 C 470.047 6.32581 -0.0488807 0
M  V30 4959 C 468.711 6.67 -0.258438 0
M  V30 4960 H 467.981 0.647688 0.359974 0
M  V30 4961 H 470.628 1.89802 0.254463 0
M  V30 4962 H 468.933 2.86068 2.67717 0
M  V30 4963 H 470.63 3.17701 2.44677 0
M  V30 4964 H 467.22 4.07475 1.32899 0
M  V30 4965 H 471.404 4.8986 0.796933 0
M  V30 4966 H 466.66 6.11354 0.075035 0
M  V30 4967 H 470.834 6.94942 -0.450444 0
M  V30 4968 H 468.461 7.55793 -0.817358 0
M  V30 4969 N 470.036 -0.519951 1.48776 0
M  V30 4970 C 471.261 -1.30447 1.6124 0
M  V30 4971 C 471.686 -1.86055 0.276591 0
M  V30 4972 O 471.044 -1.64915 -0.753183 0
M  V30 4973 C 471.092 -2.42406 2.66967 0
M  V30 4974 O 470.196 -3.45728 2.24824 0
M  V30 4975 H 469.537 -0.385924 0.540332 0
M  V30 4976 H 472.067 -0.624572 1.94834 0
M  V30 4977 H 472.077 -2.88447 2.88552 0
M  V30 4978 H 470.752 -2.01294 3.63941 0
M  V30 4979 H 469.329 -3.05737 2.13494 0
M  V30 4980 N 471.514 -1.37532 -0.769588 0
M  V30 4981 C 472.424 -1.35668 -1.91393 0
M  V30 4982 C 473.44 -0.255954 -1.72107 0
M  V30 4983 O 474.616 -0.491704 -1.95305 0
M  V30 4984 C 471.681 -1.16481 -3.26547 0
M  V30 4985 C 470.742 -2.36212 -3.58472 0
M  V30 4986 C 469.975 -2.17932 -4.87177 0
M  V30 4987 O 470.198 -1.1647 -5.58382 0
M  V30 4988 O 469.132 -3.06167 -5.18214 0
M  V30 4989 H 472.958 -2.32055 -1.95918 0
M  V30 4990 H 470.543 -1.18284 -0.912641 0
M  V30 4991 H 472.425 -1.07778 -4.07384 0
M  V30 4992 H 471.1 -0.231687 -3.2287 0
M  V30 4993 H 470.007 -2.50488 -2.77861 0
M  V30 4994 H 471.34 -3.281 -3.66894 0
M  V30 4995 N 472.992 0.995999 -1.22138 0
M  V30 4996 C 474.22 1.77066 -1.07029 0
M  V30 4997 C 474.635 1.8495 0.379357 0
M  V30 4998 O 473.992 1.3174 1.26297 0
M  V30 4999 C 474.043 3.20533 -1.67155 0
M  V30 5000 O 473.764 3.13082 -3.06449 0
M  V30 5001 C 475.265 4.14461 -1.5728 0
M  V30 5002 H 472.485 0.556179 -0.375374 0
M  V30 5003 H 475.029 1.25238 -1.61666 0
M  V30 5004 H 473.184 3.6944 -1.16589 0
M  V30 5005 H 473.598 4.03283 -3.35355 0
M  V30 5006 H 475.072 5.1289 -2.04078 0
M  V30 5007 H 475.549 4.36005 -0.528795 0
M  V30 5008 H 476.155 3.71449 -2.07136 0
M  V30 5009 N 474.47 1.03057 1.19235 0
M  V30 5010 C 475.4 0.633497 2.24742 0
M  V30 5011 C 476.381 -0.358335 1.66283 0
M  V30 5012 O 477.566 -0.240676 1.92703 0
M  V30 5013 C 474.696 -0.0147648 3.47297 0
M  V30 5014 C 473.65 0.899527 4.18441 0
M  V30 5015 C 472.976 0.116281 5.34574 0
M  V30 5016 C 474.276 2.21404 4.73051 0
M  V30 5017 H 475.97 1.5155 2.58211 0
M  V30 5018 H 473.516 0.73014 1.24117 0
M  V30 5019 H 475.469 -0.304202 4.20301 0
M  V30 5020 H 474.193 -0.931577 3.13032 0
M  V30 5021 H 472.852 1.17319 3.47321 0
M  V30 5022 H 472.5 -0.802619 4.96555 0
M  V30 5023 H 472.2 0.725293 5.83107 0
M  V30 5024 H 473.724 -0.166376 6.10373 0
M  V30 5025 H 475.138 1.98601 5.37802 0
M  V30 5026 H 473.535 2.77512 5.32078 0
M  V30 5027 H 474.605 2.86752 3.91026 0
M  V30 5028 N 475.948 -1.35272 0.808662 0
M  V30 5029 C 477.176 -2.02946 0.402537 0
M  V30 5030 C 477.591 -1.60937 -0.987147 0
M  V30 5031 O 476.948 -0.807917 -1.63643 0
M  V30 5032 C 476.999 -3.58317 0.47868 0
M  V30 5033 O 476.72 -3.98799 1.81358 0
M  V30 5034 C 478.221 -4.43251 0.0656281 0
M  V30 5035 H 475.441 -0.650831 0.163279 0
M  V30 5036 H 477.985 -1.72849 1.09286 0
M  V30 5037 H 476.14 -3.87055 -0.163415 0
M  V30 5038 H 476.554 -4.93451 1.77781 0
M  V30 5039 H 478.028 -5.51738 0.170017 0
M  V30 5040 H 478.505 -4.27913 -0.989278 0
M  V30 5041 H 479.111 -4.19813 0.68096 0
M  V30 5042 N 477.426 -0.562348 -1.47226 0
M  V30 5043 C 478.842 -0.222492 -1.58042 0
M  V30 5044 C 479.042 1.27505 -1.56028 0
M  V30 5045 O 478.098 2.05555 -1.46641 0
M  V30 5046 C 479.411 -0.853694 -2.88327 0
M  V30 5047 C 480.959 -0.825397 -3.01921 0
M  V30 5048 C 481.434 -1.43576 -4.34914 0
M  V30 5049 N 482.925 -1.39918 -4.41562 0
M  V30 5050 C 483.66 -1.84103 -5.43041 0
M  V30 5051 N 483.156 -2.36167 -6.51304 0
M  V30 5052 N 484.949 -1.75142 -5.34118 0
M  V30 5053 H 477.1 -1.53525 -1.46778 0
M  V30 5054 H 479.363 -0.640527 -0.698877 0
M  V30 5055 H 479.069 -1.90635 -2.95552 0
M  V30 5056 H 478.943 -0.34977 -3.75575 0
M  V30 5057 H 481.33 0.218583 -2.94289 0
M  V30 5058 H 481.411 -1.36713 -2.16202 0
M  V30 5059 H 481.055 -2.47884 -4.43301 0
M  V30 5060 H 480.985 -0.869427 -5.19373 0
M  V30 5061 H 483.476 -1.0184 -3.63919 0
M  V30 5062 H 483.789 -2.67793 -7.24919 0
M  V30 5063 H 482.134 -2.40181 -6.52179 0
M  V30 5064 H 485.325 -1.34241 -4.48439 0
M  V30 5065 H 485.498 -2.09895 -6.13065 0
M  V30 5066 N 478.904 1.54736 -0.299062 0
M  V30 5067 C 479.867 2.22127 0.565012 0
M  V30 5068 C 480.867 1.20669 1.06281 0
M  V30 5069 O 482.057 1.45417 0.959145 0
M  V30 5070 C 479.189 2.90611 1.78208 0
M  V30 5071 H 480.382 2.99891 -0.0237448 0
M  V30 5072 H 477.935 1.5622 -0.0498788 0
M  V30 5073 H 478.67 2.16921 2.41072 0
M  V30 5074 H 478.455 3.64984 1.43281 0
M  V30 5075 H 479.945 3.42026 2.396 0
M  V30 5076 N 480.382 0.0267497 1.57577 0
M  V30 5077 C 481.329 -0.955894 2.10075 0
M  V30 5078 C 482.299 -1.32453 1.00226 0
M  V30 5079 O 483.484 -1.41826 1.27632 0
M  V30 5080 C 480.624 -2.2338 2.6305 0
M  V30 5081 C 479.737 -1.92183 3.86898 0
M  V30 5082 C 478.872 -3.14251 4.28275 0
M  V30 5083 C 477.911 -2.78862 5.44888 0
M  V30 5084 N 477.048 -3.93548 5.81433 0
M  V30 5085 H 481.888 -0.501303 2.93753 0
M  V30 5086 H 479.425 -0.235847 1.45197 0
M  V30 5087 H 481.383 -2.98124 2.91853 0
M  V30 5088 H 480.013 -2.6646 1.82205 0
M  V30 5089 H 479.065 -1.07692 3.64838 0
M  V30 5090 H 480.377 -1.62117 4.7172 0
M  V30 5091 H 479.531 -3.97317 4.58502 0
M  V30 5092 H 478.27 -3.47476 3.42215 0
M  V30 5093 H 477.275 -1.94208 5.14357 0
M  V30 5094 H 478.5 -2.46855 6.32645 0
M  V30 5095 H 476.446 -4.2662 4.98328 0
M  V30 5096 H 476.363 -3.67098 6.6089 0
M  V30 5097 H 477.631 -4.77325 6.16264 0
M  V30 5098 N 481.861 -1.55662 -0.24637 0
M  V30 5099 C 483.108 -1.77519 -0.974335 0
M  V30 5100 C 483.436 -0.591165 -1.85298 0
M  V30 5101 O 482.691 0.425497 -1.91018 0
M  V30 5102 C 482.99 -3.04885 -1.86494 0
M  V30 5103 C 482.656 -4.36209 -1.14161 0
M  V30 5104 C 481.318 -4.71896 -0.941701 0
M  V30 5105 C 483.67 -5.17391 -0.628957 0
M  V30 5106 C 480.998 -5.86299 -0.216852 0
M  V30 5107 C 483.35 -6.32546 0.0824273 0
M  V30 5108 C 482.014 -6.66853 0.293807 0
M  V30 5109 H 481.284 -0.649588 -0.356535 0
M  V30 5110 H 483.931 -1.89934 -0.244394 0
M  V30 5111 H 482.236 -2.87484 -2.66196 0
M  V30 5112 H 483.933 -3.18994 -2.42989 0
M  V30 5113 H 480.523 -4.08174 -1.30736 0
M  V30 5114 H 484.707 -4.90276 -0.770943 0
M  V30 5115 H 479.963 -6.11385 -0.0426124 0
M  V30 5116 H 484.137 -6.94693 0.487292 0
M  V30 5117 H 481.764 -7.55349 0.857428 0
M  V30 5118 N 483.339 0.512053 -1.4905 0
M  V30 5119 C 484.249 1.64139 -1.67617 0
M  V30 5120 C 485.265 1.64786 -0.558701 0
M  V30 5121 O 486.441 1.8341 -0.832034 0
M  V30 5122 C 483.506 3.00548 -1.72835 0
M  V30 5123 C 482.567 3.10615 -2.96339 0
M  V30 5124 C 481.8 4.40517 -3.01298 0
M  V30 5125 O 482.023 5.28671 -2.14157 0
M  V30 5126 O 480.957 4.55325 -3.93653 0
M  V30 5127 H 484.783 1.51407 -2.63267 0
M  V30 5128 H 482.368 0.687131 -1.32661 0
M  V30 5129 H 484.25 3.81641 -1.78683 0
M  V30 5130 H 482.925 3.13566 -0.803616 0
M  V30 5131 H 481.832 2.2875 -2.96014 0
M  V30 5132 H 483.165 3.0252 -3.88256 0
M  V30 5133 N 484.817 1.37938 0.762283 0
M  V30 5134 C 485.727 1.36681 1.90671 0
M  V30 5135 C 486.743 0.265078 1.71969 0
M  V30 5136 O 487.919 0.502055 1.95042 0
M  V30 5137 C 484.984 1.18211 3.25925 0
M  V30 5138 C 484.045 2.3811 3.57214 0
M  V30 5139 C 483.278 2.20512 4.86014 0
M  V30 5140 O 483.501 1.19429 5.57757 0
M  V30 5141 O 482.435 3.08911 5.16583 0
M  V30 5142 H 486.261 2.33091 1.94685 0
M  V30 5143 H 483.846 1.18767 0.906356 0
M  V30 5144 H 485.728 1.09937 4.06807 0
M  V30 5145 H 484.403 0.248807 3.22742 0
M  V30 5146 H 483.31 2.51958 2.76529 0
M  V30 5147 H 484.643 3.30041 3.65149 0
M  V30 5148 N 486.295 -0.989507 1.22664 0
M  V30 5149 C 487.225 -2.09847 1.02404 0
M  V30 5150 C 488.206 -1.70007 -0.0561303 0
M  V30 5151 O 489.391 -1.93906 0.106748 0
M  V30 5152 C 486.521 -3.41996 0.604663 0
M  V30 5153 C 485.475 -3.95699 1.63115 0
M  V30 5154 C 484.801 -5.23936 1.0675 0
M  V30 5155 C 486.101 -4.25999 3.02196 0
M  V30 5156 H 487.795 -2.27054 1.95158 0
M  V30 5157 H 485.341 -1.09111 0.939727 0
M  V30 5158 H 487.294 -4.1899 0.45002 0
M  V30 5159 H 486.018 -3.24626 -0.35855 0
M  V30 5160 H 484.677 -3.2084 1.77362 0
M  V30 5161 H 484.325 -5.02909 0.0955422 0
M  V30 5162 H 484.025 -5.60833 1.75328 0
M  V30 5163 H 485.549 -6.0356 0.924516 0
M  V30 5164 H 486.963 -4.93777 2.91303 0
M  V30 5165 H 485.36 -4.74076 3.67929 0
M  V30 5166 H 486.43 -3.33636 3.51873 0
M  V30 5167 N 487.773 -1.03688 -1.18687 0
M  V30 5168 C 488.721 -0.618292 -2.24232 0
M  V30 5169 C 489.715 0.353045 -1.6568 0
M  V30 5170 O 490.921 0.220749 -1.78641 0
M  V30 5171 H 487.296 -0.181711 -0.729716 0
M  V30 5172 H 489.267 -1.51893 -2.56848 0
M  V30 5173 C 488.016 0.00677342 -3.47699 0
M  V30 5174 H 487.339 -0.731692 -3.93047 0
M  V30 5175 H 488.779 0.262492 -4.23187 0
M  V30 5176 C 487.238 1.25572 -3.12623 0
M  V30 5177 O 487.768 2.34691 -3.26011 0
M  V30 5178 N 485.974 1.14755 -2.66982 0
M  V30 5179 H 485.521 0.259601 -2.56289 0
M  V30 5180 H 485.479 1.98412 -2.43885 0
M  V30 5181 N 489.251 1.34841 -0.815825 0
M  V30 5182 C 490.184 2.27504 -0.178062 0
M  V30 5183 C 491.162 1.48542 0.661373 0
M  V30 5184 O 492.346 1.77779 0.626653 0
M  V30 5185 C 489.473 3.30246 0.752002 0
M  V30 5186 C 488.519 4.26499 -0.00899172 0
M  V30 5187 S 489.352 5.18169 -1.35134 0
M  V30 5188 C 490.508 6.24449 -0.42596 0
M  V30 5189 H 490.741 2.81248 -0.963684 0
M  V30 5190 H 488.274 1.41781 -0.611355 0
M  V30 5191 H 490.232 3.89933 1.28308 0
M  V30 5192 H 488.893 2.75363 1.51109 0
M  V30 5193 H 488.086 4.99146 0.697766 0
M  V30 5194 H 487.688 3.7103 -0.470396 0
M  V30 5195 H 489.98 6.76404 0.385234 0
M  V30 5196 H 490.923 6.99156 -1.1219 0
M  V30 5197 H 491.331 5.64497 -0.0175461 0
M  V30 5198 N 490.729 0.570148 1.46925 0
M  V30 5199 C 492.006 -0.0153259 1.95594 0
M  V30 5200 C 492.386 -1.47232 1.51281 0
M  V30 5201 O 491.734 -2.15574 0.757624 0
M  V30 5202 C 491.944 0.143624 3.48704 0
M  V30 5203 C 493.292 0.00494484 4.246 0
M  V30 5204 O 494.316 0.0718214 3.56128 0
M  V30 5205 O 493.175 -0.141175 5.46318 0
M  V30 5206 H 490.269 -0.0568819 0.825041 0
M  V30 5207 H 492.815 0.637583 1.57267 0
M  V30 5208 H 491.587 1.15699 3.73804 0
M  V30 5209 H 491.21 -0.5463 3.93829 0
M  V30 5210 N 492.207 -1.54576 0.307264 0
M  V30 5211 C 493.137 -2.26708 -0.55907 0
M  V30 5212 C 494.118 -1.26893 -1.1328 0
M  V30 5213 O 495.303 -1.55677 -1.16097 0
M  V30 5214 C 492.433 -3.01259 -1.72801 0
M  V30 5215 C 491.387 -4.08275 -1.28435 0
M  V30 5216 C 490.713 -4.70575 -2.53895 0
M  V30 5217 C 492.013 -5.2068 -0.411038 0
M  V30 5218 H 493.707 -2.9937 0.042576 0
M  V30 5219 H 491.253 -1.43983 0.0219173 0
M  V30 5220 H 493.206 -3.50444 -2.34023 0
M  V30 5221 H 491.93 -2.26187 -2.356 0
M  V30 5222 H 490.589 -3.59949 -0.695161 0
M  V30 5223 H 490.237 -3.92136 -3.15021 0
M  V30 5224 H 489.937 -5.42854 -2.24908 0
M  V30 5225 H 491.461 -5.22527 -3.15908 0
M  V30 5226 H 492.875 -5.65721 -0.929097 0
M  V30 5227 H 491.272 -5.99716 -0.214664 0
M  V30 5228 H 492.342 -4.81629 0.562287 0
M  V30 5229 N 493.685 -0.035106 -1.57561 0
M  V30 5230 C 494.932 0.642229 -1.92046 0
M  V30 5231 C 495.26 1.7179 -0.91206 0
M  V30 5232 O 494.515 1.95544 0.0781153 0
M  V30 5233 C 494.814 1.29149 -3.3325 0
M  V30 5234 C 494.48 0.345604 -4.49574 0
M  V30 5235 C 493.142 0.0852775 -4.81124 0
M  V30 5236 C 495.494 -0.303569 -5.20315 0
M  V30 5237 C 492.822 -0.831927 -5.80772 0
M  V30 5238 C 495.174 -1.20886 -6.20942 0
M  V30 5239 C 493.838 -1.47802 -6.50931 0
M  V30 5240 H 493.108 0.235008 -0.702746 0
M  V30 5241 H 495.755 -0.0981529 -1.91248 0
M  V30 5242 H 494.06 2.10676 -3.30337 0
M  V30 5243 H 495.757 1.82223 -3.57205 0
M  V30 5244 H 492.347 0.558683 -4.24943 0
M  V30 5245 H 496.531 -0.115515 -4.96166 0
M  V30 5246 H 491.787 -1.0481 -6.02349 0
M  V30 5247 H 495.961 -1.71804 -6.74875 0
M  V30 5248 H 493.588 -2.19039 -7.2796 0
M  V30 5249 N 495.163 1.55791 0.238111 0
M  V30 5250 C 496.579 1.48411 0.587045 0
M  V30 5251 C 496.779 0.72702 1.87927 0
M  V30 5252 O 495.835 0.259942 2.51158 0
M  V30 5253 C 497.148 2.92873 0.681623 0
M  V30 5254 C 498.696 3.03295 0.773363 0
M  V30 5255 C 499.171 4.49082 0.899428 0
M  V30 5256 N 500.662 4.53056 0.964075 0
M  V30 5257 C 501.397 5.63117 1.08104 0
M  V30 5258 N 500.893 6.82969 1.16299 0
M  V30 5259 N 502.686 5.50933 1.11488 0
M  V30 5260 H 494.837 2.0345 -0.610076 0
M  V30 5261 H 497.1 0.924034 -0.211813 0
M  V30 5262 H 496.806 3.51142 -0.19802 0
M  V30 5263 H 496.68 3.43851 1.55069 0
M  V30 5264 H 499.067 2.45101 1.64346 0
M  V30 5265 H 499.148 2.55513 -0.121034 0
M  V30 5266 H 498.792 5.07889 0.0338586 0
M  V30 5267 H 498.722 4.94553 1.809 0
M  V30 5268 H 501.213 3.66737 0.91173 0
M  V30 5269 H 501.526 7.62598 1.25155 0
M  V30 5270 H 499.871 6.85712 1.13241 0
M  V30 5271 H 503.062 4.56231 1.0474 0
M  V30 5272 H 503.235 6.36743 1.20259 0
M  V30 5273 N 496.642 -0.504142 1.49319 0
M  V30 5274 C 497.867 -1.28729 1.62615 0
M  V30 5275 C 498.292 -1.85752 0.296309 0
M  V30 5276 O 497.65 -1.65704 -0.735649 0
M  V30 5277 C 497.698 -2.39561 2.69524 0
M  V30 5278 O 496.802 -3.43324 2.28478 0
M  V30 5279 H 496.143 -0.380172 0.544395 0
M  V30 5280 H 498.673 -0.603872 1.95485 0
M  V30 5281 H 498.683 -2.8537 2.91595 0
M  V30 5282 H 497.358 -1.97423 3.66056 0
M  V30 5283 H 495.935 -3.03455 2.16725 0
M  V30 5284 N 498.12 -1.38341 -0.754957 0
M  V30 5285 C 499.348 -1.37704 -1.54419 0
M  V30 5286 C 499.763 0.0335243 -1.8877 0
M  V30 5287 O 499.12 0.999773 -1.52679 0
M  V30 5288 C 499.171 -2.23136 -2.84416 0
M  V30 5289 O 498.892 -3.58697 -2.51531 0
M  V30 5290 C 500.393 -2.30664 -3.78562 0
M  V30 5291 H 497.613 -0.471061 -0.477852 0
M  V30 5292 H 500.157 -1.81902 -0.934446 0
M  V30 5293 H 498.312 -1.82403 -3.41772 0
M  V30 5294 H 498.726 -4.03665 -3.34896 0
M  V30 5295 H 500.2 -2.9473 -4.66732 0
M  V30 5296 H 500.677 -1.3199 -4.18898 0
M  V30 5297 H 501.283 -2.71781 -3.27131 0
M  V30 5298 N 499.598 0.982988 -1.23187 0
M  V30 5299 C 500.531 2.07302 -0.953993 0
M  V30 5300 C 501.509 1.62249 0.106753 0
M  V30 5301 O 502.693 1.88481 -0.0269525 0
M  V30 5302 C 499.82 3.35873 -0.436716 0
M  V30 5303 C 498.866 3.99862 -1.48367 0
M  V30 5304 S 499.699 4.39443 -3.06023 0
M  V30 5305 C 500.855 5.7117 -2.55959 0
M  V30 5306 H 501.088 2.30554 -1.87702 0
M  V30 5307 H 498.621 1.11883 -1.06403 0
M  V30 5308 H 500.579 4.10244 -0.144872 0
M  V30 5309 H 499.24 3.10634 0.465351 0
M  V30 5310 H 498.433 4.92471 -1.07182 0
M  V30 5311 H 498.035 3.31857 -1.72473 0
M  V30 5312 H 500.327 6.47977 -1.97818 0
M  V30 5313 H 501.27 6.17194 -3.47098 0
M  V30 5314 H 501.678 5.29046 -1.96902 0
M  V30 5315 N 501.076 1.04316 1.18135 0
M  V30 5316 C 502.023 0.636398 2.21853 0
M  V30 5317 C 502.993 -0.357039 1.62217 0
M  V30 5318 O 504.178 -0.250453 1.89149 0
M  V30 5319 C 501.318 0.00812779 3.45099 0
M  V30 5320 C 500.431 1.04933 4.19062 0
M  V30 5321 C 499.566 0.389313 5.29771 0
M  V30 5322 C 498.605 1.41544 5.9551 0
M  V30 5323 N 497.742 0.78021 6.97751 0
M  V30 5324 H 502.582 1.52536 2.56002 0
M  V30 5325 H 500.119 0.76304 1.25762 0
M  V30 5326 H 502.077 -0.373497 4.15525 0
M  V30 5327 H 500.707 -0.844336 3.11562 0
M  V30 5328 H 499.759 1.54888 3.47439 0
M  V30 5329 H 501.071 1.82862 4.64072 0
M  V30 5330 H 500.225 -0.0463805 6.06682 0
M  V30 5331 H 498.964 -0.422038 4.8587 0
M  V30 5332 H 497.969 1.86124 5.17337 0
M  V30 5333 H 499.194 2.22854 6.41493 0
M  V30 5334 H 497.14 -0.0107899 6.55999 0
M  V30 5335 H 497.057 1.49716 7.41027 0
M  V30 5336 H 498.325 0.368996 7.78626 0
M  V30 5337 N 502.554 -1.34406 0.822964 0
M  V30 5338 C 503.965 -1.8069 0.469879 0
M  V30 5339 C 504.316 -1.68223 -1.00972 0
M  V30 5340 O 503.441 -1.22226 -1.78577 0
M  V30 5341 C 504.036 -3.28064 0.846118 0
M  V30 5342 C 502.595 -3.72428 0.545402 0
M  V30 5343 C 501.742 -2.56116 1.06301 0
M  V30 5344 H 504.693 -1.22153 1.01313 0
M  V30 5345 H 504.714 -3.80205 0.149922 0
M  V30 5346 H 504.226 -3.37107 1.92304 0
M  V30 5347 H 502.327 -3.68924 -0.522109 0
M  V30 5348 H 502.44 -4.66548 1.0895 0
M  V30 5349 H 500.804 -2.50048 0.484554 0
M  V30 5350 H 501.587 -2.67928 2.14638 0
M  V30 5351 N 504.032 -0.577932 -1.46621 0
M  V30 5352 C 505.278 -0.0617793 -2.02706 0
M  V30 5353 C 505.611 1.29294 -1.44903 0
M  V30 5354 O 504.886 1.8461 -0.61232 0
M  V30 5355 C 505.169 0.00911824 -3.60099 0
M  V30 5356 C 505.022 -1.37416 -4.28295 0
M  V30 5357 C 506.341 0.712159 -4.343 0
M  V30 5358 H 503.46 -0.0239246 -0.736612 0
M  V30 5359 H 506.102 -0.744211 -1.74818 0
M  V30 5360 H 504.252 0.590292 -3.83989 0
M  V30 5361 H 505.924 -2.00013 -4.15683 0
M  V30 5362 H 504.167 -1.94319 -3.87843 0
M  V30 5363 H 504.838 -1.27707 -5.37024 0
M  V30 5364 H 507.314 0.218486 -4.15526 0
M  V30 5365 H 506.19 0.730782 -5.44014 0
M  V30 5366 H 506.451 1.77251 -4.05012 0
M  V30 5367 N 505.51 1.54411 -0.315457 0
M  V30 5368 C 506.442 2.21527 0.588067 0
M  V30 5369 C 507.455 1.21263 1.08624 0
M  V30 5370 O 508.644 1.47777 1.00121 0
M  V30 5371 C 505.744 2.85963 1.81875 0
M  V30 5372 C 504.917 4.12291 1.46063 0
M  V30 5373 C 503.976 4.60396 2.54799 0
M  V30 5374 O 503.002 5.25265 2.19283 0
M  V30 5375 N 504.204 4.33935 3.85591 0
M  V30 5376 H 506.969 2.99697 0.013414 0
M  V30 5377 H 504.53 1.61308 -0.138295 0
M  V30 5378 H 506.522 3.15071 2.53993 0
M  V30 5379 H 505.092 2.11548 2.30144 0
M  V30 5380 H 504.312 3.90036 0.571445 0
M  V30 5381 H 505.6 4.9452 1.19695 0
M  V30 5382 H 504.998 3.81996 4.17248 0
M  V30 5383 H 503.555 4.67718 4.53964 0
M  V30 5384 N 506.988 0.0434614 1.5754 0
M  V30 5385 C 507.935 -0.93356 2.11077 0
M  V30 5386 C 508.905 -1.31383 1.01626 0
M  V30 5387 O 510.09 -1.40465 1.29129 0
M  V30 5388 C 507.23 -2.20578 2.65404 0
M  V30 5389 C 506.343 -1.88068 3.88914 0
M  V30 5390 C 505.478 -3.09691 4.31584 0
M  V30 5391 C 504.517 -2.73067 5.47815 0
M  V30 5392 N 503.654 -3.87359 5.85574 0
M  V30 5393 H 508.494 -0.470118 2.94268 0
M  V30 5394 H 506.031 -0.220434 1.45439 0
M  V30 5395 H 507.989 -2.95011 2.94999 0
M  V30 5396 H 506.619 -2.64513 1.85021 0
M  V30 5397 H 505.671 -1.03816 3.6596 0
M  V30 5398 H 506.983 -1.57104 4.73413 0
M  V30 5399 H 506.137 -3.92431 4.62691 0
M  V30 5400 H 504.876 -3.43827 3.45882 0
M  V30 5401 H 503.881 -1.88742 5.16388 0
M  V30 5402 H 505.106 -2.40131 6.35227 0
M  V30 5403 H 503.052 -4.21311 5.02825 0
M  V30 5404 H 502.969 -3.60068 6.64746 0
M  V30 5405 H 504.237 -4.70761 6.21292 0
M  V30 5406 N 508.466 -1.55915 -0.229846 0
M  V30 5407 C 509.712 -1.78807 -0.956868 0
M  V30 5408 C 510.045 -0.611687 -1.84315 0
M  V30 5409 O 509.32 0.389398 -1.90562 0
M  V30 5410 C 509.603 -3.11718 -1.80288 0
M  V30 5411 C 509.456 -4.3979 -0.943649 0
M  V30 5412 C 510.775 -3.40999 -2.78222 0
M  V30 5413 H 507.894 -0.6505 -0.346437 0
M  V30 5414 H 510.536 -1.88648 -0.226252 0
M  V30 5415 H 508.686 -3.03459 -2.42579 0
M  V30 5416 H 510.358 -4.60059 -0.338121 0
M  V30 5417 H 508.601 -4.33086 -0.248705 0
M  V30 5418 H 509.272 -5.29208 -1.5698 0
M  V30 5419 H 511.748 -3.49332 -2.26067 0
M  V30 5420 H 510.624 -4.35183 -3.34526 0
M  V30 5421 H 510.885 -2.62754 -3.55546 0
M  V30 5422 N 509.944 0.496216 -1.49584 0
M  V30 5423 C 510.874 1.60576 -1.69521 0
M  V30 5424 C 511.855 1.61169 -0.543933 0
M  V30 5425 O 513.04 1.77834 -0.78031 0
M  V30 5426 C 510.17 2.99038 -1.76616 0
M  V30 5427 C 509.124 3.13312 -2.91581 0
M  V30 5428 C 508.45 4.53172 -2.83794 0
M  V30 5429 C 509.75 2.92886 -4.32452 0
M  V30 5430 H 511.444 1.44146 -2.62416 0
M  V30 5431 H 508.99 0.692024 -1.26282 0
M  V30 5432 H 510.943 3.76564 -1.8915 0
M  V30 5433 H 509.667 3.16568 -0.80324 0
M  V30 5434 H 508.326 2.38213 -2.78658 0
M  V30 5435 H 507.974 4.67585 -1.854 0
M  V30 5436 H 507.674 4.63662 -3.60958 0
M  V30 5437 H 509.198 5.32752 -2.98342 0
M  V30 5438 H 510.612 3.60178 -4.46032 0
M  V30 5439 H 509.009 3.14844 -5.10875 0
M  V30 5440 H 510.079 1.88966 -4.46565 0
M  V30 5441 N 511.423 1.38739 0.74761 0
M  V30 5442 C 512.333 1.38696 1.89211 0
M  V30 5443 C 513.349 0.283303 1.71678 0
M  V30 5444 O 514.525 0.522713 1.94498 0
M  V30 5445 C 511.59 1.21662 3.24653 0
M  V30 5446 C 510.651 2.41886 3.54669 0
M  V30 5447 C 509.884 2.25655 4.83648 0
M  V30 5448 O 510.107 1.25339 5.56459 0
M  V30 5449 O 509.041 3.14372 5.13277 0
M  V30 5450 H 512.867 2.35143 1.92202 0
M  V30 5451 H 510.452 1.19721 0.893708 0
M  V30 5452 H 512.334 1.14246 4.05618 0
M  V30 5453 H 511.009 0.283024 3.2246 0
M  V30 5454 H 509.916 2.54877 2.73841 0
M  V30 5455 H 511.249 3.33895 3.61628 0
M  V30 5456 N 512.901 -0.976442 1.23707 0
M  V30 5457 C 514.178 -1.69296 0.979699 0
M  V30 5458 C 514.558 -2.0508 -0.500555 0
M  V30 5459 O 513.906 -1.74708 -1.47273 0
M  V30 5460 C 514.116 -2.93143 1.89389 0
M  V30 5461 C 515.464 -3.65572 2.15968 0
M  V30 5462 O 516.488 -3.03184 1.86971 0
M  V30 5463 O 515.347 -4.77859 2.65167 0
M  V30 5464 H 512.441 -0.739708 0.369812 0
M  V30 5465 H 514.987 -1.03131 1.34767 0
M  V30 5466 H 513.759 -2.63327 2.89439 0
M  V30 5467 H 513.382 -3.67044 1.52854 0
M  V30 5468 N 514.379 -1.04941 -1.1758 0
M  V30 5469 C 515.604 -0.778253 -1.92245 0
M  V30 5470 C 516.029 0.659707 -1.76152 0
M  V30 5471 O 515.387 1.45803 -1.07755 0
M  V30 5472 C 515.435 -1.16051 -3.41416 0
M  V30 5473 O 514.539 -0.291153 -4.11371 0
M  V30 5474 H 513.88 -0.285619 -0.599431 0
M  V30 5475 H 516.41 -1.40159 -1.49052 0
M  V30 5476 H 516.42 -1.12619 -3.92149 0
M  V30 5477 H 515.095 -2.208 -3.52449 0
M  V30 5478 H 513.672 -0.385851 -3.70898 0
M  V30 5479 N 515.857 1.33968 -0.830081 0
M  V30 5480 C 517.134 1.92554 -0.343858 0
M  V30 5481 C 517.514 1.7573 1.16971 0
M  V30 5482 O 516.862 1.14035 1.98011 0
M  V30 5483 C 517.072 3.40147 -0.781073 0
M  V30 5484 C 518.42 4.17299 -0.78402 0
M  V30 5485 O 519.444 3.48762 -0.724112 0
M  V30 5486 O 518.303 5.39631 -0.863739 0
M  V30 5487 H 515.397 0.821469 -0.0954827 0
M  V30 5488 H 517.943 1.42897 -0.915348 0
M  V30 5489 H 516.715 3.46225 -1.82329 0
M  V30 5490 H 516.338 3.97166 -0.18567 0
M  V30 5491 N 517.335 0.585699 1.46312 0
M  V30 5492 C 518.265 -0.133556 2.33118 0
M  V30 5493 C 519.246 -0.880707 1.45525 0
M  V30 5494 O 520.431 -0.855579 1.74337 0
M  V30 5495 C 517.561 -1.14585 3.27853 0
M  V30 5496 C 516.515 -0.513341 4.2491 0
M  V30 5497 C 515.841 -1.63231 5.09175 0
M  V30 5498 C 517.141 0.551413 5.19381 0
M  V30 5499 H 518.835 0.59121 2.93505 0
M  V30 5500 H 516.381 0.285761 1.41136 0
M  V30 5501 H 518.334 -1.65741 3.87438 0
M  V30 5502 H 517.058 -1.90093 2.65579 0
M  V30 5503 H 515.717 -0.0228349 3.66593 0
M  V30 5504 H 515.365 -2.37713 4.43285 0
M  V30 5505 H 515.065 -1.21473 5.74907 0
M  V30 5506 H 516.589 -2.14658 5.71624 0
M  V30 5507 H 518.003 0.124804 5.73164 0
M  V30 5508 H 516.4 0.889486 5.93471 0
M  V30 5509 H 517.47 1.43655 4.63132 0
M  V30 5510 N 518.813 -1.54241 0.323641 0
M  V30 5511 C 519.76 -2.24339 -0.542277 0
M  V30 5512 C 520.73 -1.23421 -1.11159 0
M  V30 5513 O 521.915 -1.52104 -1.15192 0
M  V30 5514 C 519.055 -3.00479 -1.69725 0
M  V30 5515 C 518.168 -4.16214 -1.15716 0
M  V30 5516 C 517.303 -4.79884 -2.27783 0
M  V30 5517 C 516.342 -5.87722 -1.71023 0
M  V30 5518 N 515.479 -6.45254 -2.76752 0
M  V30 5519 H 520.319 -2.97935 0.0620613 0
M  V30 5520 H 517.856 -1.47039 0.0423993 0
M  V30 5521 H 519.814 -3.42869 -2.3769 0
M  V30 5522 H 518.444 -2.29217 -2.27288 0
M  V30 5523 H 517.496 -3.78605 -0.369063 0
M  V30 5524 H 518.808 -4.93838 -0.701832 0
M  V30 5525 H 517.962 -5.25243 -3.03651 0
M  V30 5526 H 516.701 -4.01641 -2.76652 0
M  V30 5527 H 515.706 -5.41765 -0.936518 0
M  V30 5528 H 516.931 -6.67863 -1.2303 0
M  V30 5529 H 514.877 -5.69884 -3.24912 0
M  V30 5530 H 514.794 -7.18292 -2.35782 0
M  V30 5531 H 516.062 -6.95269 -3.5245 0
M  V30 5532 N 520.291 -0.0518155 -1.57515 0
M  V30 5533 C 521.238 0.922352 -2.11569 0
M  V30 5534 C 522.208 1.30842 -1.02321 0
M  V30 5535 O 523.393 1.39778 -1.29872 0
M  V30 5536 C 520.533 2.19167 -2.6657 0
M  V30 5537 C 519.646 1.86003 -3.89906 0
M  V30 5538 C 518.781 3.07398 -4.33221 0
M  V30 5539 C 517.82 2.70158 -5.49255 0
M  V30 5540 N 516.957 3.84248 -5.8762 0
M  V30 5541 H 521.797 0.454506 -2.94514 0
M  V30 5542 H 519.334 0.212718 -1.45554 0
M  V30 5543 H 521.292 2.93443 -2.96559 0
M  V30 5544 H 519.922 2.63528 -1.86421 0
M  V30 5545 H 518.974 1.01874 -3.66505 0
M  V30 5546 H 520.286 1.54592 -4.74239 0
M  V30 5547 H 519.44 3.89972 -4.64765 0
M  V30 5548 H 518.179 3.41988 -3.477 0
M  V30 5549 H 517.184 1.86001 -5.17382 0
M  V30 5550 H 518.409 2.36759 -6.36492 0
M  V30 5551 H 516.355 4.18638 -5.05053 0
M  V30 5552 H 516.272 3.56538 -6.66646 0
M  V30 5553 H 517.54 4.6746 -6.2378 0
M  V30 5554 N 521.769 1.56035 0.221574 0
M  V30 5555 C 522.994 1.83476 0.967026 0
M  V30 5556 C 523.419 0.632139 1.7716 0
M  V30 5557 O 522.777 -0.419082 1.7639 0
M  V30 5558 C 522.825 3.08907 1.86034 0
M  V30 5559 O 521.929 2.876 2.95567 0
M  V30 5560 H 521.27 0.604913 0.273817 0
M  V30 5561 H 523.8 2.03247 0.234893 0
M  V30 5562 H 523.81 3.3901 2.27016 0
M  V30 5563 H 522.485 3.96068 1.26898 0
M  V30 5564 H 521.062 2.6873 2.58532 0
M  V30 5565 N 523.247 -0.488276 1.49845 0
M  V30 5566 C 524.524 -1.24959 1.50481 0
M  V30 5567 C 524.904 -2.09735 0.239698 0
M  V30 5568 O 524.252 -2.14865 -0.777524 0
M  V30 5569 C 524.462 -2.0954 2.79095 0
M  V30 5570 C 525.81 -2.68305 3.29086 0
M  V30 5571 O 526.834 -2.19797 2.80299 0
M  V30 5572 O 525.693 -3.56643 4.14087 0
M  V30 5573 H 522.787 -0.566133 0.602845 0
M  V30 5574 H 525.333 -0.501504 1.6212 0
M  V30 5575 H 524.105 -1.46958 3.62656 0
M  V30 5576 H 523.728 -2.91517 2.70377 0
M  V30 5577 N 524.725 -1.39134 -0.740242 0
M  V30 5578 C 525.974 -1.35384 -1.49512 0
M  V30 5579 C 526.287 0.04919 -1.95538 0
M  V30 5580 O 527.493 0.209257 -2.70692 0
M  V30 5581 C 525.949 -2.37812 -2.70136 0
M  V30 5582 C 525.557 -3.83804 -2.31081 0
M  V30 5583 C 527.301 -2.4313 -3.47977 0
M  V30 5584 C 525.208 -4.77886 -3.48395 0
M  V30 5585 H 524.138 -0.503297 -0.561434 0
M  V30 5586 H 526.789 -1.64754 -0.807974 0
M  V30 5587 H 525.171 -2.01505 -3.40899 0
M  V30 5588 H 526.345 -4.29123 -1.67898 0
M  V30 5589 H 524.66 -3.81732 -1.66343 0
M  V30 5590 H 527.257 -3.10614 -4.35228 0
M  V30 5591 H 527.6 -1.45423 -3.90074 0
M  V30 5592 H 528.133 -2.78304 -2.84239 0
M  V30 5593 H 524.872 -5.76836 -3.11353 0
M  V30 5594 H 524.392 -4.3725 -4.10576 0
M  V30 5595 H 526.071 -4.96538 -4.148 0
M  V30 5596 N 526.204 0.969867 -1.24223 0
M  V30 5597 C 527.481 1.68774 -0.988664 0
M  V30 5598 C 527.861 2.05342 0.489673 0
M  V30 5599 O 527.209 1.75486 1.46345 0
M  V30 5600 C 527.419 2.92135 -1.90941 0
M  V30 5601 C 528.767 3.64422 -2.17903 0
M  V30 5602 O 529.791 3.02188 -1.88576 0
M  V30 5603 O 528.65 4.76446 -2.67697 0
M  V30 5604 H 525.744 0.737736 -0.37373 0
M  V30 5605 H 528.29 1.02415 -1.35312 0
M  V30 5606 H 527.062 2.61788 -2.90831 0
M  V30 5607 H 526.685 3.66228 -1.54798 0
M  V30 5608 N 527.682 1.05563 1.17022 0
M  V30 5609 C 528.592 0.670758 2.24807 0
M  V30 5610 C 529.608 -0.309865 1.71219 0
M  V30 5611 O 530.784 -0.161025 2.00755 0
M  V30 5612 C 527.849 0.055337 3.46656 0
M  V30 5613 C 526.91 1.08688 4.15314 0
M  V30 5614 C 526.143 0.500736 5.31346 0
M  V30 5615 O 526.366 -0.688718 5.66227 0
M  V30 5616 O 525.3 1.23683 5.89055 0
M  V30 5617 H 529.126 1.56914 2.60023 0
M  V30 5618 H 526.711 0.827428 1.24395 0
M  V30 5619 H 528.593 -0.286492 4.20425 0
M  V30 5620 H 527.268 -0.816638 3.13229 0
M  V30 5621 H 526.175 1.48077 3.43546 0
M  V30 5622 H 527.508 1.93014 4.52777 0
M  V30 5623 N 529.16 -1.33526 0.837174 0
M  V30 5624 C 530.409 -1.97098 0.428387 0
M  V30 5625 C 530.722 -1.67062 -1.01734 0
M  V30 5626 O 531.928 -2.24235 -1.53072 0
M  V30 5627 C 530.384 -3.52725 0.715075 0
M  V30 5628 C 529.992 -3.9164 2.17537 0
M  V30 5629 C 531.736 -4.22857 0.373154 0
M  V30 5630 C 529.643 -5.40237 2.40619 0
M  V30 5631 H 528.573 -0.737589 0.156455 0
M  V30 5632 H 531.224 -1.52169 1.02552 0
M  V30 5633 H 529.606 -3.95971 0.0475904 0
M  V30 5634 H 530.78 -3.59456 2.88319 0
M  V30 5635 H 529.095 -3.34485 2.4801 0
M  V30 5636 H 531.692 -5.32133 0.523264 0
M  V30 5637 H 532.035 -4.10647 -0.683708 0
M  V30 5638 H 532.568 -3.85135 0.995801 0
M  V30 5639 H 529.307 -5.57449 3.44864 0
M  V30 5640 H 528.827 -5.73887 1.74396 0
M  V30 5641 H 530.506 -6.07102 2.23688 0
M  V30 5642 N 530.638 -0.59345 -1.46 0
M  V30 5643 C 531.884 -0.0832754 -2.02629 0
M  V30 5644 C 532.217 1.27749 -1.46266 0
M  V30 5645 O 531.492 1.8395 -0.631866 0
M  V30 5646 C 531.775 -0.0290756 -3.60088 0
M  V30 5647 C 531.628 -1.41951 -4.26814 0
M  V30 5648 C 532.947 0.666055 -4.35031 0
M  V30 5649 H 530.066 -0.031736 -0.736316 0
M  V30 5650 H 532.708 -0.762711 -1.74019 0
M  V30 5651 H 530.858 0.549532 -3.84594 0
M  V30 5652 H 532.53 -2.04411 -4.13538 0
M  V30 5653 H 530.773 -1.98422 -3.8576 0
M  V30 5654 H 531.444 -1.33395 -5.3564 0
M  V30 5655 H 533.92 0.174401 -4.15734 0
M  V30 5656 H 532.796 0.673041 -5.44758 0
M  V30 5657 H 533.057 1.72946 -4.06869 0
M  V30 5658 N 532.116 1.54067 -0.331816 0
M  V30 5659 C 533.046 2.27569 0.522932 0
M  V30 5660 C 534.027 1.28679 1.11247 0
M  V30 5661 O 535.212 1.57504 1.13605 0
M  V30 5662 C 532.342 3.0397 1.67987 0
M  V30 5663 C 531.296 4.10267 1.21924 0
M  V30 5664 C 530.622 4.74555 2.46377 0
M  V30 5665 C 531.922 5.21268 0.32815 0
M  V30 5666 H 533.616 2.99264 -0.0901977 0
M  V30 5667 H 531.162 1.4393 -0.044821 0
M  V30 5668 H 533.115 3.54123 2.28418 0
M  V30 5669 H 531.839 2.29906 2.31971 0
M  V30 5670 H 530.498 3.61009 0.637809 0
M  V30 5671 H 530.146 3.97098 3.08743 0
M  V30 5672 H 529.846 5.46363 2.16243 0
M  V30 5673 H 531.37 5.27487 3.07555 0
M  V30 5674 H 532.784 5.67128 0.838978 0
M  V30 5675 H 531.181 5.99982 0.119228 0
M  V30 5676 H 532.251 4.80673 -0.638839 0
M  V30 5677 N 533.594 0.0601682 1.57485 0
M  V30 5678 C 534.84 -0.612501 1.93329 0
M  V30 5679 C 535.173 -1.6996 0.939526 0
M  V30 5680 O 534.448 -1.94472 -0.0330957 0
M  V30 5681 C 534.731 -1.20025 3.39508 0
M  V30 5682 C 534.584 -0.12059 4.49638 0
M  V30 5683 C 535.903 -2.10923 3.86264 0
M  V30 5684 H 533.022 -0.221185 0.703027 0
M  V30 5685 H 535.664 0.123768 1.89596 0
M  V30 5686 H 533.814 -1.82774 3.42821 0
M  V30 5687 H 535.486 0.51185 4.58452 0
M  V30 5688 H 533.729 0.550251 4.30296 0
M  V30 5689 H 534.4 -0.572019 5.49028 0
M  V30 5690 H 536.876 -1.58124 3.84884 0
M  V30 5691 H 535.752 -2.48987 4.8918 0
M  V30 5692 H 536.013 -3.01292 3.23536 0
M  V30 5693 N 535.072 -1.5615 -0.213296 0
M  V30 5694 C 536.32 -1.79191 -0.934612 0
M  V30 5695 C 536.641 -0.630112 -1.84539 0
M  V30 5696 O 535.911 0.35257 -1.92701 0
M  V30 5697 H 534.491 -0.660937 -0.348097 0
M  V30 5698 H 537.153 -1.93618 -0.22317 0
M  V30 5699 H 536.249 -2.71656 -1.53654 0
M  V30 5700 N 536.55 0.480323 -1.50102 0
M  V30 5701 C 537.798 1.23063 -1.60312 0
M  V30 5702 C 538.119 1.92659 -0.301226 0
M  V30 5703 O 537.389 1.83691 0.680753 0
M  V30 5704 H 535.969 0.457231 -0.590719 0
M  V30 5705 H 538.631 0.554893 -1.86834 0
M  V30 5706 H 537.727 1.9835 -2.40964 0
M  V30 5707 N 538.028 1.39524 0.732853 0
M  V30 5708 C 539.253 1.40329 1.52717 0
M  V30 5709 C 539.678 0.000286574 1.881 0
M  V30 5710 O 539.036 -0.987262 1.52062 0
M  V30 5711 C 539.084 2.28464 2.78992 0
M  V30 5712 O 538.188 1.716 3.75003 0
M  V30 5713 H 537.529 0.47778 0.461109 0
M  V30 5714 H 540.059 1.83546 0.903996 0
M  V30 5715 H 540.069 2.43051 3.27705 0
M  V30 5716 H 538.744 3.30425 2.52572 0
M  V30 5717 H 537.321 1.66267 3.33781 0
M  V30 5718 N 539.506 -0.963266 1.24736 0
M  V30 5719 C 540.734 -1.74166 1.11686 0
M  V30 5720 C 541.149 -1.8589 -0.330187 0
M  V30 5721 O 540.506 -1.35042 -1.2276 0
M  V30 5722 C 540.557 -3.15989 1.75595 0
M  V30 5723 O 540.278 -3.04847 3.14642 0
M  V30 5724 C 541.779 -4.10145 1.68213 0
M  V30 5725 H 538.999 -0.546031 0.389989 0
M  V30 5726 H 541.543 -1.20907 1.64929 0
M  V30 5727 H 539.698 -3.66219 1.26343 0
M  V30 5728 H 540.112 -3.9425 3.4593 0
M  V30 5729 H 541.586 -5.07299 2.17604 0
M  V30 5730 H 542.063 -4.3445 0.644208 0
M  V30 5731 H 542.669 -3.65827 2.16912 0
M  V30 5732 N 540.985 -1.06182 -1.16461 0
M  V30 5733 C 542.401 -0.785065 -1.38956 0
M  V30 5734 C 542.601 0.616103 -1.9185 0
M  V30 5735 O 541.657 1.37686 -2.11657 0
M  V30 5736 C 542.97 -1.84902 -2.37132 0
M  V30 5737 C 544.518 -1.8724 -2.50819 0
M  V30 5738 C 544.993 -2.92686 -3.52277 0
M  V30 5739 N 546.484 -2.91712 -3.59803 0
M  V30 5740 C 547.219 -3.69949 -4.38093 0
M  V30 5741 N 546.715 -4.58 -5.19815 0
M  V30 5742 N 548.508 -3.58346 -4.33064 0
M  V30 5743 H 540.659 -1.96569 -0.804634 0
M  V30 5744 H 542.922 -0.851747 -0.416211 0
M  V30 5745 H 542.628 -2.85518 -2.0536 0
M  V30 5746 H 542.502 -1.69908 -3.36766 0
M  V30 5747 H 544.889 -0.872827 -2.81897 0
M  V30 5748 H 544.97 -2.06311 -1.51226 0
M  V30 5749 H 544.614 -3.92835 -3.21937 0
M  V30 5750 H 544.544 -2.70864 -4.51598 0
M  V30 5751 H 547.035 -2.27876 -3.01464 0
M  V30 5752 H 547.348 -5.14357 -5.76764 0
M  V30 5753 H 545.693 -4.62056 -5.19162 0
M  V30 5754 H 548.884 -2.88943 -3.68279 0
M  V30 5755 H 549.057 -4.19563 -4.93833 0
M  V30 5756 N 542.463 1.3308 -0.844243 0
M  V30 5757 C 543.712 1.96868 -0.438833 0
M  V30 5758 C 544.025 1.67599 1.00846 0
M  V30 5759 O 545.231 2.25043 1.51881 0
M  V30 5760 C 543.687 3.5234 -0.73377 0
M  V30 5761 C 543.295 3.90481 -2.1961 0
M  V30 5762 C 545.039 4.22653 -0.395574 0
M  V30 5763 C 542.946 5.38954 -2.43481 0
M  V30 5764 H 541.876 0.736749 -0.160364 0
M  V30 5765 H 544.527 1.51623 -1.03358 0
M  V30 5766 H 542.909 3.95941 -0.068589 0
M  V30 5767 H 544.083 3.57922 -2.90221 0
M  V30 5768 H 542.398 3.33165 -2.4978 0
M  V30 5769 H 544.995 5.31848 -0.551477 0
M  V30 5770 H 545.338 4.11004 0.661921 0
M  V30 5771 H 545.871 3.84601 -1.01621 0
M  V30 5772 H 542.61 5.55612 -3.47816 0
M  V30 5773 H 542.13 5.72954 -1.77437 0
M  V30 5774 H 543.809 6.05907 -2.26905 0
M  V30 5775 N 543.941 0.601185 1.45683 0
M  V30 5776 C 545.352 0.179659 1.85834 0
M  V30 5777 C 545.703 -1.26189 1.50236 0
M  V30 5778 O 544.828 -1.95587 0.925987 0
M  V30 5779 C 545.423 0.319277 3.37292 0
M  V30 5780 C 543.982 -0.0475092 3.7637 0
M  V30 5781 C 543.129 0.646692 2.69654 0
M  V30 5782 H 546.08 0.808268 1.36575 0
M  V30 5783 H 546.101 -0.4503 3.77826 0
M  V30 5784 H 545.613 1.36855 3.6317 0
M  V30 5785 H 543.714 -1.0962 3.5611 0
M  V30 5786 H 543.827 0.34168 4.7788 0
M  V30 5787 H 542.191 0.0849971 2.54558 0
M  V30 5788 H 542.974 1.69797 2.98369 0
M  V30 5789 N 545.419 -1.53889 0.339982 0
M  V30 5790 C 546.366 -2.24902 -0.518452 0
M  V30 5791 C 547.336 -1.24593 -1.09844 0
M  V30 5792 O 548.521 -1.53317 -1.13572 0
M  V30 5793 C 545.661 -3.02262 -1.66529 0
M  V30 5794 C 544.774 -4.17418 -1.11295 0
M  V30 5795 C 543.909 -4.82273 -2.2268 0
M  V30 5796 C 542.948 -5.89503 -1.6478 0
M  V30 5797 N 542.085 -6.48153 -2.69893 0
M  V30 5798 H 546.925 -2.97853 0.0936579 0
M  V30 5799 H 544.462 -1.46986 0.0579924 0
M  V30 5800 H 546.42 -3.45371 -2.3404 0
M  V30 5801 H 545.05 -2.31614 -2.24844 0
M  V30 5802 H 544.102 -3.78976 -0.328886 0
M  V30 5803 H 545.414 -4.94554 -0.649414 0
M  V30 5804 H 544.568 -5.28435 -2.98063 0
M  V30 5805 H 543.307 -4.04552 -2.72376 0
M  V30 5806 H 542.312 -5.42728 -0.879004 0
M  V30 5807 H 543.537 -6.6913 -1.1594 0
M  V30 5808 H 541.483 -5.73298 -3.1885 0
M  V30 5809 H 541.4 -7.20752 -2.28151 0
M  V30 5810 H 542.668 -6.98968 -3.45056 0
M  V30 5811 N 546.897 -0.0685191 -1.57451 0
M  V30 5812 C 548.146 0.600898 -1.92541 0
M  V30 5813 C 548.459 1.70967 -0.950239 0
M  V30 5814 O 549.665 2.43844 -1.19384 0
M  V30 5815 C 548.121 1.12019 -3.42023 0
M  V30 5816 C 547.729 0.0426028 -4.4798 0
M  V30 5817 C 549.473 1.76386 -3.86119 0
M  V30 5818 C 547.38 0.575759 -5.88591 0
M  V30 5819 H 546.31 0.228225 -0.71863 0
M  V30 5820 H 548.961 -0.140223 -1.82963 0
M  V30 5821 H 547.343 1.91418 -3.46663 0
M  V30 5822 H 548.517 -0.73182 -4.54952 0
M  V30 5823 H 546.832 -0.504642 -4.13331 0
M  V30 5824 H 549.429 2.17302 -4.88553 0
M  V30 5825 H 549.772 2.62255 -3.23308 0
M  V30 5826 H 550.305 1.03615 -3.84069 0
M  V30 5827 H 547.044 -0.245691 -6.55039 0
M  V30 5828 H 546.564 1.31778 -5.85145 0
M  V30 5829 H 548.243 1.0532 -6.3837 0
M  V30 5830 N 548.375 1.56261 0.205012 0
M  V30 5831 C 549.307 1.90266 1.27795 0
M  V30 5832 C 550.32 0.792397 1.42214 0
M  V30 5833 O 551.509 1.07077 1.42817 0
M  V30 5834 C 548.609 2.11074 2.65143 0
M  V30 5835 C 547.782 3.42176 2.7246 0
M  V30 5836 C 546.841 3.52216 3.90936 0
M  V30 5837 O 545.867 4.25119 3.78501 0
M  V30 5838 N 547.069 2.84573 5.05963 0
M  V30 5839 H 549.834 2.82896 0.989434 0
M  V30 5840 H 547.395 1.57008 0.394981 0
M  V30 5841 H 549.387 2.15089 3.4281 0
M  V30 5842 H 547.957 1.2499 2.86524 0
M  V30 5843 H 547.177 3.50116 1.81142 0
M  V30 5844 H 548.465 4.28509 2.74331 0
M  V30 5845 H 547.863 2.25152 5.18963 0
M  V30 5846 H 546.42 2.94228 5.81613 0
M  V30 5847 N 549.853 -0.472356 1.50355 0
M  V30 5848 C 550.785 -1.58795 1.65278 0
M  V30 5849 C 551.798 -1.53782 0.534313 0
M  V30 5850 O 552.987 -1.59193 0.807446 0
M  V30 5851 C 550.087 -2.97672 1.62001 0
M  V30 5852 C 549.26 -3.27568 2.89859 0
M  V30 5853 C 548.319 -4.45993 2.79242 0
M  V30 5854 O 547.345 -4.46364 3.53197 0
M  V30 5855 N 548.547 -5.47578 1.92713 0
M  V30 5856 H 551.312 -1.46411 2.61503 0
M  V30 5857 H 548.873 -0.660751 1.47803 0
M  V30 5858 H 550.865 -3.74862 1.52513 0
M  V30 5859 H 549.435 -3.03832 0.735159 0
M  V30 5860 H 548.655 -2.39003 3.13483 0
M  V30 5861 H 549.943 -3.44352 3.74565 0
M  V30 5862 H 549.341 -5.50099 1.31939 0
M  V30 5863 H 547.898 -6.23757 1.8913 0
M  V30 5864 N 551.331 -1.39911 -0.725443 0
M  V30 5865 C 552.261 -1.42138 -1.85254 0
M  V30 5866 C 553.242 -0.283513 -1.67721 0
M  V30 5867 O 554.427 -0.490717 -1.87898 0
M  V30 5868 C 551.557 -1.27354 -3.23107 0
M  V30 5869 C 550.511 -2.3864 -3.55296 0
M  V30 5870 C 549.837 -2.08939 -4.92188 0
M  V30 5871 C 551.137 -3.8097 -3.57295 0
M  V30 5872 H 552.831 -2.36461 -1.83648 0
M  V30 5873 H 550.377 -1.13817 -0.882138 0
M  V30 5874 H 552.33 -1.2753 -4.01639 0
M  V30 5875 H 551.054 -0.295025 -3.25265 0
M  V30 5876 H 549.713 -2.37696 -2.79099 0
M  V30 5877 H 549.361 -1.09502 -4.90936 0
M  V30 5878 H 549.061 -2.83491 -5.14691 0
M  V30 5879 H 550.585 -2.10781 -5.73065 0
M  V30 5880 H 551.999 -3.8379 -4.25885 0
M  V30 5881 H 550.396 -4.5496 -3.9132 0
M  V30 5882 H 551.466 -4.11261 -2.5689 0
M  V30 5883 N 552.809 0.956637 -1.25245 0
M  V30 5884 C 554.055 1.70352 -1.10036 0
M  V30 5885 C 554.388 1.90869 0.358156 0
M  V30 5886 O 553.663 1.47819 1.26411 0
M  V30 5887 C 553.946 3.08766 -1.85298 0
M  V30 5888 C 553.799 2.95672 -3.38966 0
M  V30 5889 C 555.118 4.08622 -1.63451 0
M  V30 5890 H 552.237 0.618279 -0.401123 0
M  V30 5891 H 554.879 1.11212 -1.54051 0
M  V30 5892 H 553.029 3.59252 -1.47887 0
M  V30 5893 H 554.701 2.52527 -3.86041 0
M  V30 5894 H 552.944 2.31634 -3.6678 0
M  V30 5895 H 553.615 3.93776 -3.86839 0
M  V30 5896 H 556.091 3.67038 -1.96015 0
M  V30 5897 H 554.967 5.03514 -2.18551 0
M  V30 5898 H 555.228 4.3834 -0.575357 0
M  V30 5899 N 554.287 1.06798 1.15896 0
M  V30 5900 C 555.234 0.683314 2.20453 0
M  V30 5901 C 556.204 -0.32255 1.62938 0
M  V30 5902 O 557.389 -0.210276 1.89638 0
M  V30 5903 C 554.529 0.0813266 3.45004 0
M  V30 5904 C 553.642 1.13799 4.16742 0
M  V30 5905 C 552.777 0.501598 5.28826 0
M  V30 5906 C 551.816 1.54144 5.92373 0
M  V30 5907 N 550.953 0.928038 6.9594 0
M  V30 5908 H 555.793 1.57932 2.52708 0
M  V30 5909 H 553.33 0.789544 1.24115 0
M  V30 5910 H 555.288 -0.285274 4.16224 0
M  V30 5911 H 553.918 -0.77806 3.13283 0
M  V30 5912 H 552.97 1.62223 3.44075 0
M  V30 5913 H 554.282 1.92664 4.60089 0
M  V30 5914 H 553.436 0.0823162 6.06644 0
M  V30 5915 H 552.175 -0.318883 4.86656 0
M  V30 5916 H 551.18 1.97056 5.13273 0
M  V30 5917 H 552.405 2.3641 6.36621 0
M  V30 5918 H 550.351 0.12836 6.55874 0
M  V30 5919 H 550.268 1.65401 7.37685 0
M  V30 5920 H 551.536 0.534071 7.77668 0
M  V30 5921 N 555.766 -1.3263 0.851289 0
M  V30 5922 C 556.676 -2.32722 0.296268 0
M  V30 5923 C 557.692 -1.63901 -0.584162 0
M  V30 5924 O 558.868 -1.95465 -0.485334 0
M  V30 5925 C 555.933 -3.42942 -0.509103 0
M  V30 5926 C 554.994 -4.2746 0.397069 0
M  V30 5927 C 554.227 -5.32416 -0.36996 0
M  V30 5928 O 554.45 -5.47491 -1.6003 0
M  V30 5929 O 553.384 -6.01327 0.262493 0
M  V30 5930 H 557.21 -2.82078 1.12543 0
M  V30 5931 H 554.795 -1.36194 0.614135 0
M  V30 5932 H 556.677 -4.1017 -0.96634 0
M  V30 5933 H 555.352 -2.95781 -1.31512 0
M  V30 5934 H 554.259 -3.63053 0.902411 0
M  V30 5935 H 555.592 -4.78136 1.16818 0
M  V30 5936 N 557.244 -0.608902 -1.45362 0
M  V30 5937 C 558.491 -0.104607 -2.0223 0
M  V30 5938 C 558.819 1.26534 -1.47714 0
M  V30 5939 O 558.074 1.84855 -0.642435 0
M  V30 5940 C 558.373 -0.0167296 -3.57396 0
M  V30 5941 C 558.039 -1.32251 -4.31069 0
M  V30 5942 C 556.701 -1.68019 -4.50914 0
M  V30 5943 C 559.053 -2.18542 -4.73169 0
M  V30 5944 C 556.381 -2.89828 -5.10114 0
M  V30 5945 C 558.733 -3.39602 -5.33717 0
M  V30 5946 C 557.397 -3.7562 -5.51784 0
M  V30 5947 H 556.667 -0.0382785 -0.740011 0
M  V30 5948 H 559.314 -0.790782 -1.7441 0
M  V30 5949 H 557.619 0.752715 -3.84502 0
M  V30 5950 H 559.316 0.389634 -3.99103 0
M  V30 5951 H 555.906 -1.03411 -4.15938 0
M  V30 5952 H 560.09 -1.92208 -4.5757 0
M  V30 5953 H 555.346 -3.17839 -5.22291 0
M  V30 5954 H 559.52 -4.06716 -5.65292 0
M  V30 5955 H 557.147 -4.70093 -5.97425 0
M  V30 5956 N 558.722 1.53707 -0.348139 0
M  V30 5957 C 559.969 2.00988 0.246966 0
M  V30 5958 C 560.297 1.23586 1.50189 0
M  V30 5959 O 559.552 0.312817 1.93184 0
M  V30 5960 C 559.851 3.52292 0.602061 0
M  V30 5961 C 559.517 4.47453 -0.556509 0
M  V30 5962 C 558.179 4.73188 -0.874446 0
M  V30 5963 C 560.531 5.03851 -1.33354 0
M  V30 5964 C 557.859 5.52577 -1.9717 0
M  V30 5965 C 560.211 5.84437 -2.42108 0
M  V30 5966 C 558.875 6.08465 -2.74456 0
M  V30 5967 H 558.145 0.735469 0.0903712 0
M  V30 5968 H 560.792 1.85464 -0.477001 0
M  V30 5969 H 559.097 3.65672 1.40681 0
M  V30 5970 H 560.794 3.86337 1.07447 0
M  V30 5971 H 557.384 4.27558 -0.298652 0
M  V30 5972 H 561.568 4.8393 -1.10117 0
M  V30 5973 H 556.824 5.69418 -2.22651 0
M  V30 5974 H 560.998 6.27151 -3.02745 0
M  V30 5975 H 558.625 6.69768 -3.59604 0
M  V30 5976 N 560.2 0.0768682 1.57412 0
M  V30 5977 C 561.148 -0.906229 2.1422 0
M  V30 5978 C 562.142 -1.30477 1.08037 0
M  V30 5979 O 563.348 -1.28143 1.2641 0
M  V30 5980 H 559.723 -0.310207 0.685037 0
M  V30 5981 H 561.694 -0.402228 2.95677 0
M  V30 5982 C 560.443 -2.16245 2.72274 0
M  V30 5983 H 559.766 -1.86463 3.53655 0
M  V30 5984 H 561.206 -2.83134 3.15613 0
M  V30 5985 C 559.665 -2.92437 1.67279 0
M  V30 5986 O 560.195 -3.86322 1.10081 0
M  V30 5987 N 558.401 -2.55637 1.38195 0
M  V30 5988 H 557.948 -1.79363 1.84897 0
M  V30 5989 H 557.906 -3.06919 0.681787 0
M  V30 5990 N 561.678 -1.56367 -0.196722 0
M  V30 5991 C 562.926 -1.80172 -0.915554 0
M  V30 5992 C 563.247 -0.649649 -1.8386 0
M  V30 5993 O 562.517 0.332111 -1.93064 0
M  V30 5994 H 561.097 -0.664592 -0.341067 0
M  V30 5995 H 563.759 -1.93844 -0.202622 0
M  V30 5996 H 562.855 -2.7327 -1.50764 0
M  V30 5997 N 563.156 0.464375 -1.50603 0
M  V30 5998 C 564.103 1.56152 -1.69956 0
M  V30 5999 C 565.073 1.57046 -0.54091 0
M  V30 6000 O 566.258 1.74473 -0.772258 0
M  V30 6001 C 563.398 2.94079 -1.80586 0
M  V30 6002 C 562.511 3.02923 -3.07996 0
M  V30 6003 C 561.646 4.31806 -3.09382 0
M  V30 6004 C 560.685 4.34417 -4.31218 0
M  V30 6005 N 559.822 5.54782 -4.30304 0
M  V30 6006 H 564.662 1.38955 -2.6362 0
M  V30 6007 H 562.199 0.675482 -1.30674 0
M  V30 6008 H 564.157 3.74073 -1.8473 0
M  V30 6009 H 562.787 3.09896 -0.903556 0
M  V30 6010 H 561.839 2.1576 -3.13292 0
M  V30 6011 H 563.151 3.00712 -3.97962 0
M  V30 6012 H 562.305 5.20153 -3.12292 0
M  V30 6013 H 561.044 4.36636 -2.17257 0
M  V30 6014 H 560.049 3.44467 -4.28512 0
M  V30 6015 H 561.274 4.31273 -5.24576 0
M  V30 6016 H 559.22 5.60384 -3.41037 0
M  V30 6017 H 559.137 5.54339 -5.14047 0
M  V30 6018 H 560.405 6.45235 -4.3737 0
M  V30 6019 N 564.634 1.40294 0.718013 0
M  V30 6020 C 565.544 1.42678 1.86226 0
M  V30 6021 C 566.56 0.319655 1.71039 0
M  V30 6022 O 567.736 0.563852 1.93346 0
M  V30 6023 C 564.801 1.2852 3.21999 0
M  V30 6024 C 563.862 2.49354 3.49458 0
M  V30 6025 C 563.095 2.35863 4.78753 0
M  V30 6026 O 563.318 1.37114 5.53675 0
M  V30 6027 O 562.252 3.25189 5.06494 0
M  V30 6028 H 566.078 2.39167 1.87171 0
M  V30 6029 H 563.663 1.2159 0.868112 0
M  V30 6030 H 565.545 1.22824 4.03103 0
M  V30 6031 H 564.22 0.351359 3.21787 0
M  V30 6032 H 563.127 2.60628 2.68373 0
M  V30 6033 H 564.46 3.41491 3.54464 0
M  V30 6034 N 566.112 -0.949982 1.2575 0
M  V30 6035 C 567.523 -1.50989 1.09815 0
M  V30 6036 C 567.874 -1.93497 -0.324556 0
M  V30 6037 O 566.999 -1.79068 -1.21506 0
M  V30 6038 C 567.594 -2.74394 1.98729 0
M  V30 6039 C 566.153 -3.26682 1.86965 0
M  V30 6040 C 565.3 -1.99498 1.92603 0
M  V30 6041 H 568.251 -0.766387 1.38968 0
M  V30 6042 H 568.272 -3.48383 1.53001 0
M  V30 6043 H 567.784 -2.43425 3.02268 0
M  V30 6044 H 565.885 -3.62461 0.863279 0
M  V30 6045 H 565.998 -3.94383 2.72027 0
M  V30 6046 H 564.362 -2.15005 1.36546 0
M  V30 6047 H 565.145 -1.70871 2.97755 0
M  V30 6048 N 567.59 -1.07411 -1.15328 0
M  V30 6049 C 568.815 -0.818856 -1.90551 0
M  V30 6050 C 569.24 0.622194 -1.77512 0
M  V30 6051 O 568.598 1.43484 -1.10824 0
M  V30 6052 C 568.646 -1.23267 -3.38877 0
M  V30 6053 O 567.75 -0.378345 -4.10661 0
M  V30 6054 H 567.091 -0.29827 -0.593238 0
M  V30 6055 H 569.621 -1.43289 -1.46046 0
M  V30 6056 H 569.631 -1.20912 -3.89672 0
M  V30 6057 H 568.306 -2.28226 -3.47686 0
M  V30 6058 H 566.883 -0.464437 -3.69996 0
M  V30 6059 N 569.068 1.32177 -0.85831 0
M  V30 6060 C 570.484 1.49873 -0.548656 0
M  V30 6061 C 570.684 1.79278 0.919874 0
M  V30 6062 O 569.74 1.86451 1.70271 0
M  V30 6063 C 571.053 2.64043 -1.4388 0
M  V30 6064 C 572.601 2.77928 -1.43961 0
M  V30 6065 C 573.076 3.95182 -2.31506 0
M  V30 6066 N 574.567 4.0245 -2.29321 0
M  V30 6067 C 575.302 4.9242 -2.93786 0
M  V30 6068 N 574.798 5.87373 -3.67376 0
M  V30 6069 N 576.591 4.85572 -2.83155 0
M  V30 6070 H 568.742 1.11357 -1.80868 0
M  V30 6071 H 571.005 0.549175 -0.772729 0
M  V30 6072 H 570.711 2.49055 -2.48324 0
M  V30 6073 H 570.585 3.59912 -1.12885 0
M  V30 6074 H 572.972 2.92338 -0.402813 0
M  V30 6075 H 573.053 1.82762 -1.78974 0
M  V30 6076 H 572.697 3.81531 -3.35256 0
M  V30 6077 H 572.627 4.89633 -1.93823 0
M  V30 6078 H 575.118 3.34507 -1.75822 0
M  V30 6079 H 575.431 6.52728 -4.13722 0
M  V30 6080 H 573.776 5.87388 -3.71484 0
M  V30 6081 H 576.967 4.10363 -2.25211 0
M  V30 6082 H 577.14 5.55486 -3.33676 0
M  V30 6083 N 570.547 0.616602 1.45037 0
M  V30 6084 C 571.795 0.115103 2.01772 0
M  V30 6085 C 572.116 -1.2622 1.48639 0
M  V30 6086 O 571.386 -1.83563 0.684199 0
M  V30 6087 H 569.966 0.0395607 0.745952 0
M  V30 6088 H 572.628 0.800032 1.77723 0
M  V30 6089 H 571.724 0.0717274 3.12018 0
M  V30 6090 N 572.025 -1.5352 0.356285 0
M  V30 6091 C 573.274 -2.00298 -0.237373 0
M  V30 6092 C 573.587 -1.24784 -1.50627 0
M  V30 6093 O 574.793 -1.62103 -2.17795 0
M  V30 6094 C 573.249 -3.56771 -0.473545 0
M  V30 6095 C 572.857 -4.41154 0.780183 0
M  V30 6096 C 574.601 -4.1193 -1.02537 0
M  V30 6097 C 572.508 -5.89161 0.514108 0
M  V30 6098 H 571.438 -0.748307 -0.092478 0
M  V30 6099 H 574.089 -1.77283 0.473588 0
M  V30 6100 H 572.471 -3.75902 -1.24553 0
M  V30 6101 H 573.645 -4.33797 1.55425 0
M  V30 6102 H 571.96 -3.97052 1.25455 0
M  V30 6103 H 574.557 -5.20133 -1.2396 0
M  V30 6104 H 574.9 -3.65943 -1.98473 0
M  V30 6105 H 575.433 -3.96561 -0.313775 0
M  V30 6106 H 572.172 -6.39408 1.44355 0
M  V30 6107 H 571.692 -5.9939 -0.221632 0
M  V30 6108 H 573.371 -6.46857 0.136122 0
M  V30 6109 N 573.503 -0.0852151 -1.57369 0
M  V30 6110 C 574.451 0.894856 -2.14698 0
M  V30 6111 C 575.445 1.29903 -1.08727 0
M  V30 6112 O 576.651 1.27471 -1.27088 0
M  V30 6113 H 573.026 0.306569 -0.686673 0
M  V30 6114 H 574.997 0.386542 -2.95886 0
M  V30 6115 C 573.746 2.14798 -2.73417 0
M  V30 6116 H 573.069 1.84585 -3.54638 0
M  V30 6117 H 574.509 2.81456 -3.1711 0
M  V30 6118 C 572.968 2.91546 -1.68828 0
M  V30 6119 O 573.498 3.85733 -1.12129 0
M  V30 6120 N 571.704 2.54901 -1.39549 0
M  V30 6121 H 571.251 1.7838 -1.85845 0
M  V30 6122 H 571.209 3.06553 -0.698054 0
M  V30 6123 N 574.981 1.5647 0.188427 0
M  V30 6124 C 576.392 1.70864 0.752494 0
M  V30 6125 C 576.743 0.692905 1.83557 0
M  V30 6126 O 575.868 -0.149307 2.15884 0
M  V30 6127 C 576.463 3.09789 1.37173 0
M  V30 6128 C 575.022 3.25925 1.88281 0
M  V30 6129 C 574.169 2.66817 0.755259 0
M  V30 6130 H 577.12 1.58657 -0.0367408 0
M  V30 6131 H 577.141 3.07489 2.24122 0
M  V30 6132 H 576.653 3.83693 0.583219 0
M  V30 6133 H 574.754 2.56948 2.6983 0
M  V30 6134 H 574.867 4.33498 2.04001 0
M  V30 6135 H 573.231 2.2617 1.17128 0
M  V30 6136 H 574.014 3.43294 -0.0211237 0
M  V30 6137 N 576.459 -0.456382 1.50847 0
M  V30 6138 C 577.736 -1.21739 1.53098 0
M  V30 6139 C 578.116 -2.09179 0.284132 0
M  V30 6140 O 577.464 -2.16466 -0.731773 0
M  V30 6141 C 577.674 -2.03573 2.83477 0
M  V30 6142 C 579.022 -2.61264 3.34703 0
M  V30 6143 O 580.046 -2.13802 2.84898 0
M  V30 6144 O 578.905 -3.47779 4.21559 0
M  V30 6145 H 575.999 -0.553219 0.614718 0
M  V30 6146 H 578.545 -0.467003 1.63148 0
M  V30 6147 H 577.317 -1.39232 3.65691 0
M  V30 6148 H 576.94 -2.85716 2.76499 0
M  V30 6149 N 577.937 -1.40673 -0.710563 0
M  V30 6150 C 578.847 -1.43663 -1.85467 0
M  V30 6151 C 579.863 -0.328721 -1.70867 0
M  V30 6152 O 581.039 -0.574098 -1.93044 0
M  V30 6153 C 578.104 -1.30226 -3.21313 0
M  V30 6154 C 577.165 -2.51204 -3.48131 0
M  V30 6155 C 576.398 -2.38398 -4.77495 0
M  V30 6156 O 576.621 -1.40048 -5.5294 0
M  V30 6157 O 575.555 -3.2787 -5.04762 0
M  V30 6158 H 579.381 -2.40156 -1.859 0
M  V30 6159 H 576.966 -1.22049 -0.861652 0
M  V30 6160 H 578.848 -1.2496 -4.02446 0
M  V30 6161 H 577.523 -0.368419 -3.21597 0
M  V30 6162 H 576.43 -2.62048 -2.66987 0
M  V30 6163 H 577.763 -3.43366 -3.52648 0
M  V30 6164 N 579.415 0.9433 -1.26252 0
M  V30 6165 C 580.378 2.02326 -1.07689 0
M  V30 6166 C 581.378 1.60779 -0.0259174 0
M  V30 6167 O 582.568 1.72108 -0.269134 0
M  V30 6168 C 579.7 3.34886 -0.63752 0
M  V30 6169 H 580.893 2.20225 -2.0357 0
M  V30 6170 H 578.446 1.12197 -1.08819 0
M  V30 6171 H 579.181 3.22684 0.323377 0
M  V30 6172 H 578.966 3.66393 -1.39637 0
M  V30 6173 H 580.456 4.14231 -0.529418 0
M  V30 6174 N 580.893 1.08022 1.14757 0
M  V30 6175 C 582.139 0.808705 1.85978 0
M  V30 6176 C 582.472 -0.663764 1.82504 0
M  V30 6177 O 581.747 -1.48765 1.25296 0
M  V30 6178 C 582.03 1.32623 3.34788 0
M  V30 6179 C 581.883 2.86375 3.46856 0
M  V30 6180 C 583.202 0.948291 4.29762 0
M  V30 6181 H 580.321 0.295244 0.675278 0
M  V30 6182 H 582.963 1.33917 1.34783 0
M  V30 6183 H 581.113 0.875002 3.78518 0
M  V30 6184 H 582.785 3.39839 3.11941 0
M  V30 6185 H 581.028 3.24232 2.88194 0
M  V30 6186 H 581.699 3.17658 4.51439 0
M  V30 6187 H 584.175 1.33722 3.94028 0
M  V30 6188 H 583.051 1.33765 5.32352 0
M  V30 6189 H 583.312 -0.145094 4.41862 0
M  V30 6190 N 582.371 -1.3172 0.865308 0
M  V30 6191 C 583.334 -2.26918 0.322627 0
M  V30 6192 C 584.334 -1.52031 -0.523751 0
M  V30 6193 O 585.524 -1.70973 -0.333727 0
M  V30 6194 C 582.656 -3.36558 -0.542338 0
M  V30 6195 H 583.849 -2.76432 1.16298 0
M  V30 6196 H 581.402 -1.42573 0.640512 0
M  V30 6197 H 582.137 -2.92329 -1.40407 0
M  V30 6198 H 581.922 -3.92048 0.0636395 0
M  V30 6199 H 583.412 -4.07465 -0.91446 0
M  V30 6200 N 583.85 -0.624285 -1.44708 0
M  V30 6201 C 585.08 -0.132726 -2.06173 0
M  V30 6202 C 585.488 1.19513 -1.46674 0
M  V30 6203 O 584.831 1.74254 -0.581491 0
M  V30 6204 C 584.893 0.0636732 -3.59444 0
M  V30 6205 C 584.557 -1.18496 -4.4137 0
M  V30 6206 C 585.553 -2.10706 -4.75288 0
M  V30 6207 C 583.239 -1.41846 -4.81856 0
M  V30 6208 C 585.233 -3.24582 -5.48567 0
M  V30 6209 C 582.92 -2.5602 -5.54885 0
M  V30 6210 C 583.918 -3.47215 -5.88159 0
M  V30 6211 O 583.606 -4.59399 -6.59703 0
M  V30 6212 H 583.338 -0.0737313 -0.671967 0
M  V30 6213 H 585.892 -0.856789 -1.86677 0
M  V30 6214 H 584.122 0.842809 -3.77404 0
M  V30 6215 H 585.811 0.508924 -4.02697 0
M  V30 6216 H 586.577 -1.93898 -4.44554 0
M  V30 6217 H 582.456 -0.717556 -4.55381 0
M  V30 6218 H 586 -3.95785 -5.74456 0
M  V30 6219 H 581.897 -2.72774 -5.85034 0
M  V30 6220 H 582.665 -4.58293 -6.78166 0
M  V30 6221 N 585.328 1.53329 -0.364422 0
M  V30 6222 C 586.576 2.00842 0.225189 0
M  V30 6223 C 586.897 1.25345 1.49378 0
M  V30 6224 O 586.167 0.366396 1.92443 0
M  V30 6225 H 584.747 0.742009 0.0862027 0
M  V30 6226 H 587.409 1.8863 -0.490389 0
M  V30 6227 H 586.505 3.08795 0.452987 0
M  V30 6228 N 586.806 0.0935595 1.57322 0
M  V30 6229 C 587.769 -0.851426 2.12799 0
M  V30 6230 C 588.769 -1.21187 1.0569 0
M  V30 6231 O 589.959 -1.14156 1.31583 0
M  V30 6232 C 587.091 -2.14779 2.64731 0
M  V30 6233 H 588.284 -0.369733 2.97612 0
M  V30 6234 H 585.837 -0.155417 1.55525 0
M  V30 6235 H 586.572 -2.67437 1.83434 0
M  V30 6236 H 586.357 -1.89907 3.43042 0
M  V30 6237 H 587.847 -2.82383 3.07651 0
M  V30 6238 N 588.284 -1.56567 -0.180126 0
M  V30 6239 C 589.247 -1.94852 -1.20686 0
M  V30 6240 C 590.247 -0.831212 -1.3765 0
M  V30 6241 O 591.437 -1.09841 -1.35206 0
M  V30 6242 C 588.569 -2.23565 -2.57355 0
M  V30 6243 H 589.762 -2.86722 -0.879225 0
M  V30 6244 H 587.315 -1.50489 -0.422237 0
M  V30 6245 H 588.05 -1.34381 -2.95148 0
M  V30 6246 H 587.835 -3.04999 -2.46411 0
M  V30 6247 H 589.325 -2.54137 -3.31367 0
M  V30 6248 N 589.762 0.448376 -1.51087 0
M  V30 6249 C 591.008 1.20049 -1.6345 0
M  V30 6250 C 591.341 1.91121 -0.344444 0
M  V30 6251 O 590.616 1.83125 0.655396 0
M  V30 6252 C 590.899 2.22624 -2.83038 0
M  V30 6253 C 590.752 1.55708 -4.21989 0
M  V30 6254 C 592.071 3.23718 -2.98152 0
M  V30 6255 H 589.19 0.435085 -0.59487 0
M  V30 6256 H 591.832 0.491183 -1.83541 0
M  V30 6257 H 589.982 2.83117 -2.66039 0
M  V30 6258 H 591.654 0.986367 -4.50631 0
M  V30 6259 H 589.897 0.859647 -4.25197 0
M  V30 6260 H 590.568 2.30357 -5.01637 0
M  V30 6261 H 593.044 2.73269 -3.13788 0
M  V30 6262 H 591.92 3.92795 -3.83411 0
M  V30 6263 H 592.181 3.89179 -2.09743 0
M  V30 6264 N 591.24 1.41047 0.703093 0
M  V30 6265 C 592.172 1.38228 1.82827 0
M  V30 6266 C 593.185 0.285637 1.60275 0
M  V30 6267 O 594.374 0.54685 1.69917 0
M  V30 6268 C 591.474 1.13136 3.19458 0
M  V30 6269 C 590.647 2.34695 3.69103 0
M  V30 6270 C 589.706 2.05574 4.84382 0
M  V30 6271 O 588.732 2.78549 4.96386 0
M  V30 6272 N 589.934 1.04135 5.71083 0
M  V30 6273 H 592.699 2.35203 1.85741 0
M  V30 6274 H 590.26 1.35562 0.885125 0
M  V30 6275 H 592.252 0.916183 3.94193 0
M  V30 6276 H 590.822 0.247836 3.11616 0
M  V30 6277 H 590.042 2.71963 2.85359 0
M  V30 6278 H 591.33 3.15705 3.99009 0
M  V30 6279 H 590.728 0.43722 5.64008 0
M  V30 6280 H 589.285 0.886078 6.45749 0
M  V30 6281 N 592.718 -0.936591 1.26751 0
M  V30 6282 C 593.681 -2.01752 1.08761 0
M  V30 6283 C 594.681 -1.60763 0.0344435 0
M  V30 6284 O 595.871 -1.71963 0.278258 0
M  V30 6285 C 593.003 -3.34543 0.655271 0
M  V30 6286 H 594.196 -2.19143 2.04735 0
M  V30 6287 H 591.749 -1.11618 1.09413 0
M  V30 6288 H 592.484 -3.22851 -0.30626 0
M  V30 6289 H 592.269 -3.65647 1.41578 0
M  V30 6290 H 593.759 -4.13944 0.551378 0
M  V30 6291 N 594.196 -1.08629 -1.14182 0
M  V30 6292 C 595.444 -0.815731 -1.84906 0
M  V30 6293 C 595.765 0.660441 -1.83475 0
M  V30 6294 O 595.035 1.47888 -1.28476 0
M  V30 6295 H 593.615 -0.298773 -0.684648 0
M  V30 6296 H 596.277 -1.37274 -1.38354 0
M  V30 6297 H 595.373 -1.16193 -2.89665 0
M  V30 6298 N 595.674 1.31259 -0.872281 0
M  V30 6299 C 596.92 1.96913 -0.485083 0
M  V30 6300 C 597.253 1.68774 0.960667 0
M  V30 6301 O 596.528 0.985495 1.67685 0
M  V30 6302 C 596.811 3.52299 -0.745502 0
M  V30 6303 C 596.664 3.90002 -2.24095 0
M  V30 6304 C 597.983 4.39582 -0.213516 0
M  V30 6305 H 595.102 0.715252 -0.177716 0
M  V30 6306 H 597.744 1.55347 -1.09395 0
M  V30 6307 H 595.894 3.87835 -0.227276 0
M  V30 6308 H 597.566 3.64555 -2.82661 0
M  V30 6309 H 595.809 3.38526 -2.71261 0
M  V30 6310 H 596.48 4.98352 -2.37381 0
M  V30 6311 H 598.956 4.10882 -0.656902 0
M  V30 6312 H 597.832 5.47251 -0.42516 0
M  V30 6313 H 598.093 4.33158 0.884666 0
M  V30 6314 N 597.152 0.631951 1.44375 0
M  V30 6315 C 598.082 -0.0593243 2.33425 0
M  V30 6316 C 599.063 -0.833964 1.48253 0
M  V30 6317 O 600.248 -0.799682 1.76971 0
M  V30 6318 C 597.378 -1.04096 3.31333 0
M  V30 6319 C 596.332 -0.377899 4.26328 0
M  V30 6320 C 595.658 -1.4695 5.14111 0
M  V30 6321 C 596.958 0.716371 5.17364 0
M  V30 6322 H 598.652 0.684287 2.91475 0
M  V30 6323 H 596.198 0.330518 1.40156 0
M  V30 6324 H 598.151 -1.53331 3.92514 0
M  V30 6325 H 596.875 -1.81547 2.71493 0
M  V30 6326 H 595.534 0.0938054 3.6648 0
M  V30 6327 H 595.182 -2.2349 4.50623 0
M  V30 6328 H 594.882 -1.03121 5.78481 0
M  V30 6329 H 596.406 -1.96363 5.78164 0
M  V30 6330 H 597.82 0.307089 5.72477 0
M  V30 6331 H 596.217 1.07784 5.90341 0
M  V30 6332 H 597.287 1.58316 4.58327 0
M  V30 6333 N 598.631 -1.53133 0.372548 0
M  V30 6334 C 599.856 -2.0625 -0.218098 0
M  V30 6335 C 600.281 -1.24375 -1.41111 0
M  V30 6336 O 599.639 -0.264554 -1.79359 0
M  V30 6337 C 599.687 -3.55858 -0.582876 0
M  V30 6338 O 598.791 -3.76667 -1.67917 0
M  V30 6339 H 598.132 -0.663317 -0.030104 0
M  V30 6340 H 600.662 -1.97477 0.535169 0
M  V30 6341 H 600.672 -3.99007 -0.851925 0
M  V30 6342 H 599.347 -4.14892 0.289428 0
M  V30 6343 H 597.924 -3.45413 -1.40513 0
M  V30 6344 N 600.109 -0.101901 -1.5727 0
M  V30 6345 C 601.357 0.559091 -1.94213 0
M  V30 6346 C 601.678 1.68297 -0.984948 0
M  V30 6347 O 600.948 1.95863 -0.0381975 0
M  V30 6348 H 599.528 0.20952 -0.717015 0
M  V30 6349 H 602.19 -0.166831 -1.94185 0
M  V30 6350 H 601.286 0.96485 -2.96811 0
M  V30 6351 N 601.587 1.56661 0.17182 0
M  V30 6352 C 602.864 1.72838 0.915778 0
M  V30 6353 C 603.244 0.66316 2.00413 0
M  V30 6354 O 602.592 -0.322123 2.26218 0
M  V30 6355 C 602.802 3.16019 1.48097 0
M  V30 6356 C 604.15 3.76962 1.95408 0
M  V30 6357 O 605.174 3.19294 1.57892 0
M  V30 6358 O 604.033 4.78219 2.64516 0
M  V30 6359 H 601.127 0.705797 0.431021 0
M  V30 6360 H 603.673 1.68947 0.159689 0
M  V30 6361 H 602.445 3.85031 0.697618 0
M  V30 6362 H 602.068 3.24234 2.30126 0
M  V30 6363 N 603.065 -0.440357 1.51323 0
M  V30 6364 C 603.997 -1.55254 1.68609 0
M  V30 6365 C 605.01 -1.52614 0.566812 0
M  V30 6366 O 606.199 -1.57445 0.841032 0
M  V30 6367 C 603.299 -2.94169 1.68279 0
M  V30 6368 C 602.472 -3.21346 2.96742 0
M  V30 6369 C 601.531 -4.3997 2.8864 0
M  V30 6370 O 600.557 -4.38771 3.62586 0
M  V30 6371 N 601.759 -5.43367 2.04285 0
M  V30 6372 H 604.524 -1.40831 2.6455 0
M  V30 6373 H 602.085 -0.629251 1.49171 0
M  V30 6374 H 604.077 -3.71543 1.60431 0
M  V30 6375 H 602.647 -3.02205 0.799441 0
M  V30 6376 H 601.867 -2.32299 3.18482 0
M  V30 6377 H 603.155 -3.3633 3.81785 0
M  V30 6378 H 602.553 -5.47176 1.43578 0
M  V30 6379 H 601.11 -6.19605 2.02318 0
M  V30 6380 N 604.543 -1.41418 -0.695603 0
M  V30 6381 C 605.82 -1.31264 -1.45014 0
M  V30 6382 C 606.2 0.0597994 -2.11015 0
M  V30 6383 O 605.548 1.07403 -2.01685 0
M  V30 6384 C 605.758 -2.466 -2.4696 0
M  V30 6385 C 607.106 -2.87763 -3.12214 0
M  V30 6386 O 608.13 -2.46339 -2.57285 0
M  V30 6387 O 606.989 -3.59395 -4.11701 0
M  V30 6388 H 604.083 -0.516576 -0.645816 0
M  V30 6389 H 606.629 -1.53382 -0.726084 0
M  V30 6390 H 605.401 -3.38183 -1.96845 0
M  V30 6391 H 605.024 -2.26358 -3.26876 0
M  V30 6392 N 606.021 0.929856 -1.27246 0
M  V30 6393 C 607.249 1.71144 -1.16265 0
M  V30 6394 C 607.664 1.867 0.280786 0
M  V30 6395 O 607.021 1.38249 1.19136 0
M  V30 6396 C 607.072 3.11222 -1.83911 0
M  V30 6397 O 606.793 2.96398 -3.22614 0
M  V30 6398 C 608.294 4.05541 -1.79028 0
M  V30 6399 H 605.514 0.535499 -0.404328 0
M  V30 6400 H 608.058 1.16492 -1.68077 0
M  V30 6401 H 606.213 3.6274 -1.36009 0
M  V30 6402 H 606.627 3.8494 -3.56261 0
M  V30 6403 H 608.101 5.01351 -2.30978 0
M  V30 6404 H 608.578 4.32589 -0.759168 0
M  V30 6405 H 609.184 3.59947 -2.26535 0
M  V30 6406 N 607.499 1.09233 1.13605 0
M  V30 6407 C 608.747 0.825525 1.84471 0
M  V30 6408 C 609.068 -0.650702 1.83823 0
M  V30 6409 O 608.338 -1.47204 1.29259 0
M  V30 6410 H 606.918 0.3024 0.683054 0
M  V30 6411 H 609.58 1.38006 1.37624 0
M  V30 6412 H 608.676 1.17727 2.89045 0
M  V30 6413 N 608.977 -1.30795 0.87923 0
M  V30 6414 C 610.254 -1.91145 0.415086 0
M  V30 6415 C 610.634 -1.7995 -1.10368 0
M  V30 6416 O 609.982 -1.21305 -1.93642 0
M  V30 6417 C 610.192 -3.37014 0.906778 0
M  V30 6418 C 611.54 -4.14101 0.938358 0
M  V30 6419 O 612.564 -3.45834 0.853053 0
M  V30 6420 O 611.423 -5.36054 1.06342 0
M  V30 6421 H 608.517 -0.81736 0.125905 0
M  V30 6422 H 611.063 -1.39401 0.967753 0
M  V30 6423 H 609.835 -3.3922 1.95053 0
M  V30 6424 H 609.458 -3.96204 0.332948 0
M  V30 6425 N 610.455 -0.639598 -1.44038 0
M  V30 6426 C 611.385 0.0469443 -2.33453 0
M  V30 6427 C 612.366 0.82609 -1.48694 0
M  V30 6428 O 613.551 0.790285 -1.77393 0
M  V30 6429 C 610.681 1.02338 -3.3188 0
M  V30 6430 C 609.635 0.355284 -4.26523 0
M  V30 6431 C 608.961 1.44221 -5.14883 0
M  V30 6432 C 610.261 -0.743798 -5.16977 0
M  V30 6433 H 611.955 -0.699735 -2.91108 0
M  V30 6434 H 609.501 -0.337946 -1.39978 0
M  V30 6435 H 611.454 1.51247 -3.93322 0
M  V30 6436 H 610.178 1.80105 -2.72451 0
M  V30 6437 H 608.837 -0.113239 -3.66425 0
M  V30 6438 H 608.485 2.21097 -4.51802 0
M  V30 6439 H 608.185 1.00052 -5.79019 0
M  V30 6440 H 609.709 1.93295 -5.79197 0
M  V30 6441 H 611.123 -0.337444 -5.72306 0
M  V30 6442 H 609.52 -1.10914 -5.89761 0
M  V30 6443 H 610.59 -1.60745 -4.57481 0
M  V30 6444 N 611.933 1.52934 -0.380664 0
M  V30 6445 C 613.179 2.01765 0.20458 0
M  V30 6446 C 613.512 1.26696 1.47179 0
M  V30 6447 O 612.787 0.364936 1.91046 0
M  V30 6448 C 613.07 3.56869 0.481269 0
M  V30 6449 C 612.923 4.42617 -0.800629 0
M  V30 6450 C 614.242 4.2121 1.27554 0
M  V30 6451 H 611.361 0.733388 0.0728803 0
M  V30 6452 H 614.003 1.83068 -0.50853 0
M  V30 6453 H 612.153 3.72932 1.08875 0
M  V30 6454 H 613.825 4.38323 -1.43773 0
M  V30 6455 H 612.068 4.09977 -1.4178 0
M  V30 6456 H 612.739 5.49134 -0.561791 0
M  V30 6457 H 615.215 4.09072 0.761514 0
M  V30 6458 H 614.091 5.29732 1.43788 0
M  V30 6459 H 614.352 3.78269 2.28833 0
M  V30 6460 N 613.412 0.11024 1.57214 0
M  V30 6461 C 614.342 -0.840002 2.17867 0
M  V30 6462 C 615.323 -1.28352 1.11624 0
M  V30 6463 O 616.508 -1.3477 1.39824 0
M  V30 6464 C 613.638 -2.09349 2.77111 0
M  V30 6465 C 612.592 -1.78807 3.8886 0
M  V30 6466 C 611.918 -3.11112 4.34872 0
M  V30 6467 C 613.218 -1.0632 5.11364 0
M  V30 6468 H 614.912 -0.334608 2.97524 0
M  V30 6469 H 612.458 -0.159502 1.43114 0
M  V30 6470 H 614.411 -2.76275 3.18198 0
M  V30 6471 H 613.135 -2.62198 1.9473 0
M  V30 6472 H 611.794 -1.14273 3.48335 0
M  V30 6473 H 611.442 -3.61877 3.49362 0
M  V30 6474 H 611.142 -2.91453 5.10224 0
M  V30 6475 H 612.666 -3.79171 4.78604 0
M  V30 6476 H 614.08 -1.63383 5.49526 0
M  V30 6477 H 612.477 -0.967876 5.92243 0
M  V30 6478 H 613.547 -0.0484569 4.84876 0
M  V30 6479 N 614.89 -1.56749 -0.16351 0
M  V30 6480 C 615.82 -2.00042 -1.20438 0
M  V30 6481 C 616.801 -0.877256 -1.45733 0
M  V30 6482 O 617.986 -1.1439 -1.56935 0
M  V30 6483 C 615.116 -2.36697 -2.54149 0
M  V30 6484 C 614.07 -3.52046 -2.43408 0
M  V30 6485 C 613.396 -3.74466 -3.81679 0
M  V30 6486 C 614.696 -4.85247 -1.93216 0
M  V30 6487 H 616.39 -2.87244 -0.844477 0
M  V30 6488 H 613.936 -1.38194 -0.40478 0
M  V30 6489 H 615.889 -2.65582 -3.27176 0
M  V30 6490 H 614.613 -1.46414 -2.91943 0
M  V30 6491 H 613.272 -3.23301 -1.72834 0
M  V30 6492 H 612.92 -2.81461 -4.1688 0
M  V30 6493 H 612.62 -4.52084 -3.75359 0
M  V30 6494 H 614.144 -4.0576 -4.5628 0
M  V30 6495 H 615.558 -5.12957 -2.56023 0
M  V30 6496 H 613.955 -5.66556 -1.97825 0
M  V30 6497 H 615.025 -4.7672 -0.88689 0
M  V30 6498 N 616.368 0.432326 -1.51554 0
M  V30 6499 C 617.645 1.19288 -1.55015 0
M  V30 6500 C 618.025 2.08701 -0.317375 0
M  V30 6501 O 617.373 2.17602 0.697243 0
M  V30 6502 C 617.583 1.99037 -2.86679 0
M  V30 6503 C 618.931 2.55907 -3.38817 0
M  V30 6504 O 619.955 2.09243 -2.88263 0
M  V30 6505 O 618.814 3.41029 -4.27038 0
M  V30 6506 H 615.908 0.543369 -0.623441 0
M  V30 6507 H 618.454 0.440988 -1.6387 0
M  V30 6508 H 617.226 1.33397 -3.6786 0
M  V30 6509 H 616.849 2.81281 -2.8101 0
M  V30 6510 N 617.846 1.41785 0.688094 0
M  V30 6511 C 619.092 1.41753 1.4503 0
M  V30 6512 C 619.425 0.0290745 1.94178 0
M  V30 6513 O 618.7 -0.944456 1.7003 0
M  V30 6514 C 618.983 2.43069 2.65686 0
M  V30 6515 C 618.836 3.91053 2.22256 0
M  V30 6516 C 620.155 2.41543 3.67893 0
M  V30 6517 H 617.274 0.516202 0.526027 0
M  V30 6518 H 619.916 1.73111 0.783105 0
M  V30 6519 H 618.066 2.1646 3.2261 0
M  V30 6520 H 619.738 4.28594 1.70602 0
M  V30 6521 H 617.981 4.05559 1.53963 0
M  V30 6522 H 618.652 4.57501 3.08863 0
M  V30 6523 H 621.128 2.65175 3.20658 0
M  V30 6524 H 620.004 3.14434 4.49914 0
M  V30 6525 H 620.265 1.43666 4.18106 0
M  V30 6526 N 619.324 -0.923095 1.27737 0
M  V30 6527 C 620.564 -1.6858 1.15586 0
M  V30 6528 C 620.928 -1.89758 -0.292562 0
M  V30 6529 O 622.129 -2.6339 -0.536583 0
M  V30 6530 C 620.4 -3.01275 1.92271 0
M  V30 6531 S 621.959 -3.924 1.96387 0
M  V30 6532 H 618.777 -0.579069 0.412554 0
M  V30 6533 H 621.379 -1.09866 1.61709 0
M  V30 6534 H 620.083 -2.83556 2.96689 0
M  V30 6535 H 619.614 -3.6504 1.46661 0
M  V30 6536 H 621.629 -4.84667 1.06361 0
M  V30 6537 N 620.802 -1.09834 -1.13024 0
M  V30 6538 C 622.213 -0.855651 -1.65938 0
M  V30 6539 C 622.564 0.615159 -1.86307 0
M  V30 6540 O 621.689 1.47335 -1.58497 0
M  V30 6541 C 622.284 -1.5467 -3.01434 0
M  V30 6542 C 620.843 -1.35088 -3.51323 0
M  V30 6543 C 619.99 -1.6001 -2.26478 0
M  V30 6544 H 622.941 -1.25691 -0.968889 0
M  V30 6545 H 622.962 -0.982179 -3.67605 0
M  V30 6546 H 622.474 -2.61715 -2.86578 0
M  V30 6547 H 620.575 -0.30179 -3.71376 0
M  V30 6548 H 620.688 -2.0886 -4.31178 0
M  V30 6549 H 619.052 -1.02246 -2.33276 0
M  V30 6550 H 619.835 -2.68293 -2.14182 0
M  V30 6551 N 622.28 1.30327 -0.886154 0
M  V30 6552 C 623.21 2.30549 -0.370028 0
M  V30 6553 C 624.191 1.61039 0.547751 0
M  V30 6554 O 625.376 1.8864 0.461353 0
M  V30 6555 C 622.506 3.44808 0.415275 0
M  V30 6556 C 621.46 4.26024 -0.41085 0
M  V30 6557 C 620.786 5.32347 0.501128 0
M  V30 6558 C 622.086 4.95433 -1.65359 0
M  V30 6559 H 623.78 2.73969 -1.20754 0
M  V30 6560 H 621.326 1.3171 -0.582097 0
M  V30 6561 H 623.279 4.13986 0.78699 0
M  V30 6562 H 622.003 3.00197 1.28644 0
M  V30 6563 H 620.662 3.58535 -0.764719 0
M  V30 6564 H 620.31 4.83982 1.37004 0
M  V30 6565 H 620.01 5.87581 -0.0478356 0
M  V30 6566 H 621.534 6.0438 0.869333 0
M  V30 6567 H 622.948 5.5712 -1.35239 0
M  V30 6568 H 621.345 5.60537 -2.14284 0
M  V30 6569 H 622.415 4.21493 -2.39733 0
M  V30 6570 N 623.758 0.647228 1.43697 0
M  V30 6571 C 624.986 0.16575 2.06235 0
M  V30 6572 C 625.401 -1.1662 1.48476 0
M  V30 6573 O 624.758 -1.7187 0.613762 0
M  V30 6574 C 624.809 0.0621651 3.61447 0
M  V30 6575 O 624.53 1.34146 4.17057 0
M  V30 6576 C 626.031 -0.446102 4.4105 0
M  V30 6577 H 623.251 0.0871158 0.665321 0
M  V30 6578 H 625.795 0.886183 1.84301 0
M  V30 6579 H 623.95 -0.608794 3.82587 0
M  V30 6580 H 624.364 1.19675 5.10664 0
M  V30 6581 H 625.838 -0.46755 5.50016 0
M  V30 6582 H 626.315 -1.47627 4.13646 0
M  V30 6583 H 626.921 0.192159 4.24866 0
M  V30 6584 N 625.236 -1.5273 0.388769 0
M  V30 6585 C 626.166 -2.29353 -0.438111 0
M  V30 6586 C 627.147 -1.32719 -1.06394 0
M  V30 6587 O 628.332 -1.61612 -1.07681 0
M  V30 6588 C 625.462 -3.09995 -1.56589 0
M  V30 6589 C 624.416 -4.14509 -1.06613 0
M  V30 6590 C 623.742 -4.83372 -2.28594 0
M  V30 6591 C 625.042 -5.22127 -0.134459 0
M  V30 6592 H 626.736 -2.98723 0.201206 0
M  V30 6593 H 624.282 -1.43665 0.0982089 0
M  V30 6594 H 626.235 -3.62357 -2.15118 0
M  V30 6595 H 624.959 -2.38357 -2.23279 0
M  V30 6596 H 623.618 -3.63128 -0.503383 0
M  V30 6597 H 623.266 -4.08283 -2.93792 0
M  V30 6598 H 622.966 -5.54012 -1.95817 0
M  V30 6599 H 624.49 -5.38538 -2.87766 0
M  V30 6600 H 625.904 -5.69851 -0.627914 0
M  V30 6601 H 624.301 -6.00011 0.103534 0
M  V30 6602 H 625.371 -4.77971 0.816798 0
M  V30 6603 N 626.714 -0.118576 -1.57153 0
M  V30 6604 C 627.962 0.538461 -1.94795 0
M  V30 6605 C 628.283 1.67243 -1.00274 0
M  V30 6606 O 627.553 1.95811 -0.0589692 0
M  V30 6607 H 626.133 0.201904 -0.719197 0
M  V30 6608 H 628.795 -0.187418 -1.93997 0
M  V30 6609 H 627.891 0.933315 -2.97818 0
M  V30 6610 N 628.193 1.56834 0.155195 0
M  V30 6611 C 629.442 1.82088 0.867567 0
M  V30 6612 C 629.755 0.69849 1.82703 0
M  V30 6613 O 630.961 0.836407 2.58295 0
M  V30 6614 C 629.417 3.22707 1.59336 0
M  V30 6615 C 629.025 4.42859 0.676719 0
M  V30 6616 C 630.769 3.57242 2.293 0
M  V30 6617 C 628.676 5.74501 1.40367 0
M  V30 6618 H 627.606 0.679057 0.327715 0
M  V30 6619 H 630.257 1.83105 0.120351 0
M  V30 6620 H 628.639 3.16054 2.38591 0
M  V30 6621 H 629.813 4.60731 -0.0800196 0
M  V30 6622 H 628.128 4.16311 0.0859129 0
M  V30 6623 H 630.725 4.52847 2.84312 0
M  V30 6624 H 631.068 2.82901 3.05406 0
M  V30 6625 H 631.601 3.6552 1.56972 0
M  V30 6626 H 628.34 6.51915 0.684623 0
M  V30 6627 H 627.86 5.60579 2.13332 0
M  V30 6628 H 629.539 6.17016 1.94681 0
M  V30 6629 N 629.671 -0.424282 1.51781 0
M  V30 6630 C 630.581 -1.54087 1.76902 0
M  V30 6631 C 631.597 -1.61249 0.653826 0
M  V30 6632 O 632.773 -1.78247 0.937552 0
M  V30 6633 C 629.838 -2.8996 1.90063 0
M  V30 6634 C 628.899 -2.92809 3.13945 0
M  V30 6635 C 628.132 -4.22201 3.26469 0
M  V30 6636 O 628.355 -5.15286 2.44616 0
M  V30 6637 O 627.289 -4.31599 4.1953 0
M  V30 6638 H 631.115 -1.358 2.71647 0
M  V30 6639 H 628.7 -0.608618 1.36441 0
M  V30 6640 H 630.582 -3.70575 2.0063 0
M  V30 6641 H 629.257 -3.08347 0.985067 0
M  V30 6642 H 628.164 -2.11102 3.08847 0
M  V30 6643 H 629.497 -2.79369 4.05233 0
M  V30 6644 N 631.149 -1.42148 -0.680565 0
M  V30 6645 C 632.377 -1.45696 -1.46902 0
M  V30 6646 C 632.792 -0.0665858 -1.88683 0
M  V30 6647 O 632.149 0.917436 -1.57764 0
M  V30 6648 C 632.2 -2.37898 -2.72188 0
M  V30 6649 O 631.921 -3.71526 -2.32163 0
M  V30 6650 C 633.422 -2.50407 -3.65802 0
M  V30 6651 H 630.642 -0.495729 -0.45221 0
M  V30 6652 H 633.186 -1.866 -0.836709 0
M  V30 6653 H 631.341 -2.00263 -3.31622 0
M  V30 6654 H 631.755 -4.20849 -3.13027 0
M  V30 6655 H 633.229 -3.19056 -4.50452 0
M  V30 6656 H 633.706 -1.5401 -4.11312 0
M  V30 6657 H 634.312 -2.8874 -3.12265 0
M  V30 6658 N 632.627 0.916307 -1.28225 0
M  V30 6659 C 633.873 1.66765 -1.154 0
M  V30 6660 C 634.206 1.91912 0.297251 0
M  V30 6661 O 633.481 1.51766 1.21644 0
M  V30 6662 C 633.764 3.02715 -1.95028 0
M  V30 6663 C 633.617 2.84738 -3.48201 0
M  V30 6664 C 634.936 4.03215 -1.76369 0
M  V30 6665 H 632.055 0.605205 -0.42059 0
M  V30 6666 H 634.697 1.06255 -1.57512 0
M  V30 6667 H 632.847 3.54365 -1.59242 0
M  V30 6668 H 634.519 2.40118 -3.9388 0
M  V30 6669 H 632.762 2.19848 -3.73964 0
M  V30 6670 H 633.433 3.8127 -3.99171 0
M  V30 6671 H 635.909 3.60617 -2.07593 0
M  V30 6672 H 634.785 4.96306 -2.34459 0
M  V30 6673 H 635.046 4.36288 -0.71452 0
M  V30 6674 N 634.105 1.10431 1.1244 0
M  V30 6675 C 635.353 0.845045 1.83585 0
M  V30 6676 C 635.674 -0.631168 1.84503 0
M  V30 6677 O 634.944 -1.45825 1.30813 0
M  V30 6678 H 633.524 0.309628 0.679809 0
M  V30 6679 H 636.186 1.39458 1.36153 0
M  V30 6680 H 635.282 1.20786 2.8778 0
M  V30 6681 N 635.583 -1.29855 0.893053 0
M  V30 6682 C 636.831 -1.9544 0.514566 0
M  V30 6683 C 637.152 -1.70795 -0.940959 0
M  V30 6684 O 636.422 -1.03601 -1.66264 0
M  V30 6685 H 635.002 -0.723137 0.187302 0
M  V30 6686 H 637.664 -1.58234 1.13789 0
M  V30 6687 H 636.76 -3.04341 0.691581 0
M  V30 6688 N 637.061 -0.65484 -1.43351 0
M  V30 6689 C 638.307 -0.169142 -2.02093 0
M  V30 6690 C 638.64 1.21431 -1.51553 0
M  V30 6691 O 637.915 1.81105 -0.709317 0
M  V30 6692 C 638.198 -0.181775 -3.59641 0
M  V30 6693 C 638.051 -1.59926 -4.20409 0
M  V30 6694 C 639.37 0.480945 -4.37464 0
M  V30 6695 H 636.489 -0.0629371 -0.734308 0
M  V30 6696 H 639.131 -0.835833 -1.70628 0
M  V30 6697 H 637.281 0.385918 -3.86578 0
M  V30 6698 H 638.953 -2.21766 -4.04497 0
M  V30 6699 H 637.196 -2.14605 -3.76998 0
M  V30 6700 H 637.867 -1.55994 -5.295 0
M  V30 6701 H 640.343 -0.00208273 -4.161 0
M  V30 6702 H 639.219 0.441384 -5.47122 0
M  V30 6703 H 639.48 1.55533 -4.13838 0
M  V30 6704 N 638.539 1.52521 -0.396863 0
M  V30 6705 C 639.472 2.23118 0.478926 0
M  V30 6706 C 640.45 1.23475 1.05796 0
M  V30 6707 O 641.634 1.52486 1.10817 0
M  V30 6708 C 638.761 2.95028 1.66362 0
M  V30 6709 C 637.807 4.09002 1.20913 0
M  V30 6710 S 638.64 5.35182 0.184407 0
M  V30 6711 C 639.796 6.10616 1.37471 0
M  V30 6712 H 640.029 2.97056 -0.120542 0
M  V30 6713 H 637.562 1.53334 -0.18109 0
M  V30 6714 H 639.52 3.37066 2.34301 0
M  V30 6715 H 638.181 2.20756 2.23441 0
M  V30 6716 H 637.374 4.58445 2.09389 0
M  V30 6717 H 636.976 3.69016 0.608559 0
M  V30 6718 H 639.268 6.37247 2.30048 0
M  V30 6719 H 640.211 7.02084 0.921051 0
M  V30 6720 H 640.619 5.41499 1.59495 0
M  V30 6721 N 640.017 0.126909 1.57088 0
M  V30 6722 C 641.245 -0.53667 1.99819 0
M  V30 6723 C 641.66 -1.5972 1.00673 0
M  V30 6724 O 641.017 -1.825 0.000747365 0
M  V30 6725 C 641.068 -1.15563 3.42531 0
M  V30 6726 O 640.789 -0.137483 4.37884 0
M  V30 6727 C 642.29 -1.90176 4.00435 0
M  V30 6728 H 639.51 -0.141443 0.655923 0
M  V30 6729 H 642.054 0.215578 2.03361 0
M  V30 6730 H 640.209 -1.85861 3.39904 0
M  V30 6731 H 640.623 -0.588229 5.21191 0
M  V30 6732 H 642.097 -2.28801 5.02349 0
M  V30 6733 H 642.574 -2.78002 3.40017 0
M  V30 6734 H 643.18 -1.24623 4.06632 0
M  V30 6735 N 641.495 -1.56914 -0.146875 0
M  V30 6736 C 642.442 -1.98275 -1.18134 0
M  V30 6737 C 643.412 -0.850367 -1.42681 0
M  V30 6738 O 644.597 -1.11244 -1.55014 0
M  V30 6739 C 641.737 -2.36861 -2.5098 0
M  V30 6740 C 640.85 -3.63391 -2.33605 0
M  V30 6741 C 639.985 -3.91079 -3.59486 0
M  V30 6742 C 639.024 -5.10879 -3.37149 0
M  V30 6743 N 638.161 -5.34577 -4.55161 0
M  V30 6744 H 643.001 -2.8645 -0.821622 0
M  V30 6745 H 640.538 -1.41718 -0.394248 0
M  V30 6746 H 642.496 -2.57262 -3.28439 0
M  V30 6747 H 641.126 -1.51766 -2.84898 0
M  V30 6748 H 640.178 -3.50766 -1.47199 0
M  V30 6749 H 641.49 -4.51007 -2.13059 0
M  V30 6750 H 640.644 -4.11979 -4.45374 0
M  V30 6751 H 639.383 -3.01885 -3.83036 0
M  V30 6752 H 638.388 -4.89853 -2.49649 0
M  V30 6753 H 639.613 -6.01626 -3.14997 0
M  V30 6754 H 637.559 -4.48337 -4.78884 0
M  V30 6755 H 637.476 -6.16463 -4.37618 0
M  V30 6756 H 638.744 -5.59975 -5.42263 0
M  V30 6757 N 642.974 0.416227 -1.52004 0
M  V30 6758 C 643.904 1.51365 -1.77795 0
M  V30 6759 C 644.885 1.58059 -0.628601 0
M  V30 6760 O 646.07 1.73447 -0.873478 0
M  V30 6761 C 643.2 2.89256 -1.92219 0
M  V30 6762 C 642.154 2.97415 -3.0778 0
M  V30 6763 C 641.48 4.37492 -3.07417 0
M  V30 6764 C 642.78 2.69551 -4.47369 0
M  V30 6765 H 644.474 1.30033 -2.69688 0
M  V30 6766 H 642.02 0.624112 -1.29772 0
M  V30 6767 H 643.973 3.66008 -2.08845 0
M  V30 6768 H 642.697 3.11866 -0.969917 0
M  V30 6769 H 641.356 2.23107 -2.90893 0
M  V30 6770 H 641.004 4.571 -2.09925 0
M  V30 6771 H 640.704 4.43877 -3.85029 0
M  V30 6772 H 642.228 5.16188 -3.26162 0
M  V30 6773 H 643.642 3.36028 -4.64497 0
M  V30 6774 H 642.039 2.87321 -5.26846 0
M  V30 6775 H 643.109 1.65029 -4.55953 0
M  V30 6776 N 644.452 1.42507 0.673017 0
M  V30 6777 C 645.701 1.42364 1.42883 0
M  V30 6778 C 646.014 0.0441598 1.9555 0
M  V30 6779 O 647.22 -0.0798679 2.71382 0
M  V30 6780 C 645.676 2.5043 2.58482 0
M  V30 6781 C 645.284 3.94392 2.12506 0
M  V30 6782 C 647.028 2.59455 3.35981 0
M  V30 6783 C 644.935 4.93964 3.25198 0
M  V30 6784 H 643.865 0.52951 0.536782 0
M  V30 6785 H 646.516 1.68422 0.728448 0
M  V30 6786 H 644.898 2.1754 3.30896 0
M  V30 6787 H 646.072 4.36645 1.47233 0
M  V30 6788 H 644.387 3.89233 1.4794 0
M  V30 6789 H 646.984 3.31025 4.19912 0
M  V30 6790 H 647.327 1.63869 3.82691 0
M  V30 6791 H 647.86 2.91549 2.70637 0
M  V30 6792 H 644.599 5.91034 2.83477 0
M  V30 6793 H 644.119 4.56341 3.89247 0
M  V30 6794 H 645.798 5.15763 3.90637 0
M  V30 6795 N 645.93 -0.909495 1.28709 0
M  V30 6796 C 647.341 -1.47419 1.14563 0
M  V30 6797 C 647.692 -1.94432 -0.262832 0
M  V30 6798 O 646.817 -1.82842 -1.15748 0
M  V30 6799 C 647.412 -2.67933 2.07358 0
M  V30 6800 C 645.971 -3.20568 1.97264 0
M  V30 6801 C 645.118 -1.93269 1.98852 0
M  V30 6802 H 648.069 -0.721787 1.41336 0
M  V30 6803 H 648.09 -3.43339 1.64007 0
M  V30 6804 H 647.602 -2.33685 3.09859 0
M  V30 6805 H 645.703 -3.59531 0.978157 0
M  V30 6806 H 645.816 -3.85529 2.84436 0
M  V30 6807 H 644.18 -2.10553 1.43317 0
M  V30 6808 H 644.963 -1.61312 3.0304 0
M  V30 6809 N 647.408 -1.11026 -1.11852 0
M  V30 6810 C 648.824 -0.843294 -1.35502 0
M  V30 6811 C 649.024 0.534179 -1.9429 0
M  V30 6812 O 648.08 1.28585 -2.17307 0
M  V30 6813 C 649.393 -1.94793 -2.29077 0
M  V30 6814 C 650.941 -1.97709 -2.42652 0
M  V30 6815 C 651.416 -3.07364 -3.39546 0
M  V30 6816 N 652.907 -3.0671 -3.47107 0
M  V30 6817 C 653.642 -3.88197 -4.22008 0
M  V30 6818 N 653.138 -4.79635 -4.99922 0
M  V30 6819 N 654.931 -3.76391 -4.17476 0
M  V30 6820 H 647.082 -1.99805 -0.720538 0
M  V30 6821 H 649.345 -0.868633 -0.379711 0
M  V30 6822 H 649.051 -2.93971 -1.93065 0
M  V30 6823 H 648.925 -1.84039 -3.29256 0
M  V30 6824 H 651.312 -0.991604 -2.77941 0
M  V30 6825 H 651.393 -2.1254 -1.4234 0
M  V30 6826 H 651.037 -4.06136 -3.04985 0
M  V30 6827 H 650.967 -2.89774 -4.39703 0
M  V30 6828 H 653.458 -2.40457 -2.91528 0
M  V30 6829 H 653.771 -5.38357 -5.54429 0
M  V30 6830 H 652.116 -4.8366 -4.99097 0
M  V30 6831 H 655.307 -3.04303 -3.55693 0
M  V30 6832 H 655.48 -4.40131 -4.75593 0
M  V30 6833 N 648.886 1.2938 -0.899927 0
M  V30 6834 C 649.834 2.29675 -0.367698 0
M  V30 6835 C 650.828 1.60787 0.533282 0
M  V30 6836 O 652.034 1.75126 0.416058 0
M  V30 6837 H 648.409 0.745284 -0.100279 0
M  V30 6838 H 650.38 2.72008 -1.22696 0
M  V30 6839 C 649.129 3.45512 0.389483 0
M  V30 6840 H 648.452 3.98713 -0.294575 0
M  V30 6841 H 649.892 4.17725 0.726744 0
M  V30 6842 C 648.351 2.969 1.59223 0
M  V30 6843 O 648.881 2.98195 2.69152 0
M  V30 6844 N 647.087 2.52728 1.43447 0
M  V30 6845 H 646.634 2.51873 0.540148 0
M  V30 6846 H 646.592 2.20561 2.24054 0
M  V30 6847 N 650.364 0.662433 1.43002 0
M  V30 6848 C 651.592 0.187615 2.06048 0
M  V30 6849 C 652.007 -1.15039 1.49705 0
M  V30 6850 O 651.364 -1.71209 0.631956 0
M  V30 6851 C 651.415 0.100498 3.6136 0
M  V30 6852 O 651.136 1.38562 4.15611 0
M  V30 6853 C 652.637 -0.399298 4.41498 0
M  V30 6854 H 649.857 0.0941675 0.664359 0
M  V30 6855 H 652.401 0.905681 1.83351 0
M  V30 6856 H 650.556 -0.568181 3.83211 0
M  V30 6857 H 650.97 1.25084 5.09366 0
M  V30 6858 H 652.444 -0.409187 5.50481 0
M  V30 6859 H 652.921 -1.43232 4.15188 0
M  V30 6860 H 653.527 0.23721 4.24638 0
M  V30 6861 N 651.842 -1.52309 0.404946 0
M  V30 6862 C 653.088 -2.02065 -0.172455 0
M  V30 6863 C 653.421 -1.29022 -1.45145 0
M  V30 6864 O 652.696 -0.395284 -1.90441 0
M  V30 6865 C 652.979 -3.5759 -0.424433 0
M  V30 6866 C 652.832 -4.41287 0.870945 0
M  V30 6867 C 654.151 -4.23186 -1.20837 0
M  V30 6868 H 651.27 -0.734454 -0.0612035 0
M  V30 6869 H 653.912 -1.82236 0.53759 0
M  V30 6870 H 652.062 -3.74617 -1.02929 0
M  V30 6871 H 653.734 -4.3598 1.50729 0
M  V30 6872 H 651.977 -4.07669 1.48284 0
M  V30 6873 H 652.648 -5.48171 0.649083 0
M  V30 6874 H 655.124 -4.10232 -0.696338 0
M  V30 6875 H 654 -5.31953 -1.35343 0
M  V30 6876 H 654.261 -3.81862 -2.22786 0
M  V30 6877 N 653.32 -0.135238 -1.57019 0
M  V30 6878 C 654.566 0.519563 -1.96032 0
M  V30 6879 C 654.899 1.65284 -1.01955 0
M  V30 6880 O 654.174 1.94408 -0.059727 0
M  V30 6881 C 654.457 1.0369 -3.44848 0
M  V30 6882 C 654.31 -0.0940754 -4.49702 0
M  V30 6883 C 655.629 1.92254 -3.95887 0
M  V30 6884 H 652.748 0.18739 -0.712779 0
M  V30 6885 H 655.39 -0.214086 -1.8879 0
M  V30 6886 H 653.54 1.66209 -3.5115 0
M  V30 6887 H 655.212 -0.73 -4.55487 0
M  V30 6888 H 653.455 -0.754924 -4.27181 0
M  V30 6889 H 654.126 0.309419 -5.51132 0
M  V30 6890 H 656.602 1.39581 -3.9199 0
M  V30 6891 H 655.478 2.25364 -5.00502 0
M  V30 6892 H 655.739 2.85513 -3.37543 0
M  V30 6893 N 654.798 1.5699 0.138552 0
M  V30 6894 C 656.209 1.73171 0.697754 0
M  V30 6895 C 656.56 0.750952 1.8126 0
M  V30 6896 O 655.685 -0.080549 2.1625 0
M  V30 6897 C 656.28 3.13996 1.27248 0
M  V30 6898 C 654.839 3.3175 1.77816 0
M  V30 6899 C 653.986 2.69084 0.669991 0
M  V30 6900 H 656.937 1.5846 -0.0871979 0
M  V30 6901 H 656.958 3.14463 2.14227 0
M  V30 6902 H 656.47 3.85354 0.460855 0
M  V30 6903 H 654.571 2.65403 2.61519 0
M  V30 6904 H 654.684 4.39768 1.90107 0
M  V30 6905 H 653.048 2.29782 1.09874 0
M  V30 6906 H 653.831 3.43053 -0.130329 0
M  V30 6907 N 656.276 -0.40816 1.52223 0
M  V30 6908 C 657.504 -1.17672 1.70179 0
M  V30 6909 C 657.919 -1.84257 0.411696 0
M  V30 6910 O 657.276 -1.7192 -0.612354 0
M  V30 6911 C 657.327 -2.23911 2.83806 0
M  V30 6912 O 657.048 -1.60044 4.0782 0
M  V30 6913 C 658.549 -3.1364 3.13281 0
M  V30 6914 H 655.769 -0.353562 0.570293 0
M  V30 6915 H 658.313 -0.480083 1.98785 0
M  V30 6916 H 656.468 -2.89242 2.57717 0
M  V30 6917 H 656.882 -2.30484 4.71145 0
M  V30 6918 H 658.356 -3.84255 3.96298 0
M  V30 6919 H 658.833 -3.76066 2.26872 0
M  V30 6920 H 659.439 -2.53977 3.41139 0
M  V30 6921 N 657.755 -1.42862 -0.66545 0
M  V30 6922 C 658.702 -1.4707 -1.77874 0
M  V30 6923 C 659.672 -0.321654 -1.62956 0
M  V30 6924 O 660.857 -0.52707 -1.83376 0
M  V30 6925 C 657.997 -1.38788 -3.15962 0
M  V30 6926 C 657.11 -2.63801 -3.42101 0
M  V30 6927 C 656.245 -2.47594 -4.69969 0
M  V30 6928 C 655.284 -3.67936 -4.89172 0
M  V30 6929 N 654.421 -3.50614 -6.08288 0
M  V30 6930 H 659.261 -2.42204 -1.73613 0
M  V30 6931 H 656.798 -1.20239 -0.847401 0
M  V30 6932 H 658.756 -1.31982 -3.95773 0
M  V30 6933 H 657.386 -0.472431 -3.19324 0
M  V30 6934 H 656.438 -2.80935 -2.56475 0
M  V30 6935 H 657.75 -3.53228 -3.52181 0
M  V30 6936 H 656.904 -2.38427 -5.57886 0
M  V30 6937 H 655.643 -1.55672 -4.62188 0
M  V30 6938 H 654.648 -3.77525 -3.99694 0
M  V30 6939 H 655.873 -4.60851 -4.98792 0
M  V30 6940 H 653.819 -2.61417 -6.01662 0
M  V30 6941 H 653.736 -4.33634 -6.19272 0
M  V30 6942 H 655.004 -3.45276 -6.98859 0
M  V30 6943 N 659.233 0.902656 -1.29189 0
M  V30 6944 C 660.18 2.00643 -1.14066 0
M  V30 6945 C 661.15 1.66064 -0.0347756 0
M  V30 6946 O 662.335 1.8973 -0.201752 0
M  V30 6947 C 659.475 3.35214 -0.820104 0
M  V30 6948 C 658.588 3.82594 -2.00614 0
M  V30 6949 C 657.723 5.05727 -1.62522 0
M  V30 6950 C 656.762 5.45469 -2.77724 0
M  V30 6951 N 655.899 6.59789 -2.40048 0
M  V30 6952 H 660.739 2.1291 -2.08502 0
M  V30 6953 H 658.276 1.04271 -1.03759 0
M  V30 6954 H 660.234 4.12643 -0.614949 0
M  V30 6955 H 658.864 3.22682 0.0873452 0
M  V30 6956 H 657.916 3.01226 -2.32308 0
M  V30 6957 H 659.228 4.07999 -2.86946 0
M  V30 6958 H 658.382 5.90732 -1.38277 0
M  V30 6959 H 657.121 4.82155 -0.733333 0
M  V30 6960 H 656.126 4.59 -3.02653 0
M  V30 6961 H 657.351 5.71024 -3.67572 0
M  V30 6962 H 655.297 6.37826 -1.53343 0
M  V30 6963 H 655.214 6.84975 -3.19914 0
M  V30 6964 H 656.482 7.4807 -2.19116 0
M  V30 6965 N 660.711 1.11618 1.11262 0
M  V30 6966 C 661.936 0.889013 1.8738 0
M  V30 6967 C 662.361 -0.555884 1.79698 0
M  V30 6968 O 661.719 -1.39272 1.16073 0
M  V30 6969 C 661.767 1.35759 3.34069 0
M  V30 6970 O 660.871 0.530499 4.08974 0
M  V30 6971 H 660.212 0.320082 0.581759 0
M  V30 6972 H 662.742 1.48611 1.40627 0
M  V30 6973 H 662.752 1.35291 3.84916 0
M  V30 6974 H 661.427 2.40973 3.38976 0
M  V30 6975 H 660.004 0.601439 3.68018 0
M  V30 6976 N 662.189 -1.289 0.906776 0
M  V30 6977 C 663.121 -2.26556 0.347159 0
M  V30 6978 C 664.134 -1.54589 -0.51049 0
M  V30 6979 O 665.323 -1.75489 -0.326501 0
M  V30 6980 C 662.423 -3.3484 -0.523024 0
M  V30 6981 C 661.596 -4.36296 0.310515 0
M  V30 6982 C 660.655 -5.23879 -0.493634 0
M  V30 6983 O 659.681 -5.69127 0.0913569 0
M  V30 6984 N 660.883 -5.51946 -1.7982 0
M  V30 6985 H 663.648 -2.75212 1.18652 0
M  V30 6986 H 661.209 -1.42309 0.771996 0
M  V30 6987 H 663.201 -3.90366 -1.06756 0
M  V30 6988 H 661.771 -2.85946 -1.26309 0
M  V30 6989 H 660.991 -3.80331 1.03644 0
M  V30 6990 H 662.279 -5.01113 0.881106 0
M  V30 6991 H 661.677 -5.17006 -2.2961 0
M  V30 6992 H 660.234 -6.10258 -2.28971 0
M  V30 6993 N 663.667 -0.670007 -1.42649 0
M  V30 6994 C 664.916 -0.187526 -2.00826 0
M  V30 6995 C 665.229 1.21142 -1.53571 0
M  V30 6996 O 666.435 1.79001 -2.04134 0
M  V30 6997 C 664.891 -0.284409 -3.58774 0
M  V30 6998 C 664.499 -1.6871 -4.15019 0
M  V30 6999 C 666.243 0.139605 -4.2427 0
M  V30 7000 C 664.15 -1.73701 -5.65316 0
M  V30 7001 H 663.08 -0.0663468 -0.751075 0
M  V30 7002 H 665.731 -0.834492 -1.63427 0
M  V30 7003 H 664.113 0.430364 -3.93655 0
M  V30 7004 H 665.287 -2.42857 -3.91608 0
M  V30 7005 H 663.602 -2.05855 -3.61957 0
M  V30 7006 H 666.199 0.122398 -5.3456 0
M  V30 7007 H 666.542 1.17403 -3.99402 0
M  V30 7008 H 667.075 -0.523995 -3.94334 0
M  V30 7009 H 663.814 -2.75109 -5.94975 0
M  V30 7010 H 663.334 -1.03903 -5.90732 0
M  V30 7011 H 665.013 -1.48829 -6.2965 0
M  V30 7012 N 665.145 1.52092 -0.413018 0
M  V30 7013 C 666.392 2.01855 0.161497 0
M  V30 7014 C 666.72 1.29845 1.44812 0
M  V30 7015 O 665.975 0.394471 1.91683 0
M  V30 7016 C 666.274 3.54529 0.4521 0
M  V30 7017 C 665.94 4.4469 -0.745788 0
M  V30 7018 C 664.602 4.69053 -1.07435 0
M  V30 7019 C 666.954 4.97742 -1.54604 0
M  V30 7020 C 664.282 5.43717 -2.20429 0
M  V30 7021 C 666.634 5.73642 -2.66678 0
M  V30 7022 C 665.298 5.96277 -3.00016 0
M  V30 7023 H 664.568 0.73864 0.0590961 0
M  V30 7024 H 667.215 1.83274 -0.555234 0
M  V30 7025 H 665.52 3.7131 1.25045 0
M  V30 7026 H 667.217 3.90546 0.909647 0
M  V30 7027 H 663.807 4.25907 -0.479725 0
M  V30 7028 H 667.991 4.78824 -1.30543 0
M  V30 7029 H 663.247 5.59462 -2.46602 0
M  V30 7030 H 667.421 6.13746 -3.29072 0
M  V30 7031 H 665.048 6.53913 -3.87688 0
M  V30 7032 N 666.623 0.143563 1.56945 0
M  V30 7033 C 667.848 -0.518701 2.00809 0
M  V30 7034 C 668.273 -1.5785 1.02298 0
M  V30 7035 O 667.631 -1.813 -0.0017839 0
M  V30 7036 C 667.679 -1.09929 3.43436 0
M  V30 7037 O 666.783 -2.21425 3.47915 0
M  V30 7038 H 666.124 -0.127215 0.6517 0
M  V30 7039 H 668.654 0.239283 2.03196 0
M  V30 7040 H 668.664 -1.4288 3.82164 0
M  V30 7041 H 667.339 -0.323162 4.14643 0
M  V30 7042 H 665.916 -1.89728 3.21026 0
M  V30 7043 N 668.101 -1.57061 -0.130224 0
M  V30 7044 C 669.329 -1.88432 -0.854456 0
M  V30 7045 C 669.744 -0.733608 -1.73964 0
M  V30 7046 O 669.101 0.296029 -1.80083 0
M  V30 7047 C 669.152 -3.1918 -1.69724 0
M  V30 7048 O 668.873 -4.2982 -0.847705 0
M  V30 7049 C 670.374 -3.6418 -2.5276 0
M  V30 7050 H 667.594 -0.624193 -0.246221 0
M  V30 7051 H 670.138 -2.04159 -0.11798 0
M  V30 7052 H 668.293 -3.05156 -2.3866 0
M  V30 7053 H 668.707 -5.04689 -1.42792 0
M  V30 7054 H 670.181 -4.58457 -3.07443 0
M  V30 7055 H 670.658 -2.90285 -3.29592 0
M  V30 7056 H 671.264 -3.80954 -1.89087 0
M  V30 7057 N 669.579 0.400081 -1.52437 0
M  V30 7058 C 670.542 1.4707 -1.75793 0
M  V30 7059 C 671.542 1.48036 -0.627856 0
M  V30 7060 O 672.732 1.49401 -0.895817 0
M  V30 7061 C 669.864 2.86427 -1.84858 0
M  V30 7062 H 671.057 1.27649 -2.71377 0
M  V30 7063 H 668.61 0.631141 -1.42991 0
M  V30 7064 H 669.345 3.11207 -0.912194 0
M  V30 7065 H 669.13 2.87128 -2.6702 0
M  V30 7066 H 670.62 3.64023 -2.04638 0
M  V30 7067 N 671.057 1.43213 0.657864 0
M  V30 7068 C 672.282 1.48227 1.45064 0
M  V30 7069 C 672.707 0.0999939 1.87834 0
M  V30 7070 O 672.065 -0.905269 1.57081 0
M  V30 7071 C 672.113 2.42931 2.6649 0
M  V30 7072 O 671.217 1.91237 3.6538 0
M  V30 7073 H 670.558 0.501551 0.435135 0
M  V30 7074 H 673.088 1.8808 0.805431 0
M  V30 7075 H 673.098 2.6008 3.1436 0
M  V30 7076 H 671.773 3.43348 2.34701 0
M  V30 7077 H 670.35 1.83726 3.24498 0
M  V30 7078 N 672.536 -0.895792 1.29666 0
M  V30 7079 C 673.813 -1.62723 1.08538 0
M  V30 7080 C 674.193 -2.07848 -0.369119 0
M  V30 7081 O 673.541 -1.8372 -1.35864 0
M  V30 7082 C 673.751 -2.80505 2.07648 0
M  V30 7083 C 675.099 -3.51098 2.3878 0
M  V30 7084 O 676.123 -2.90679 2.05874 0
M  V30 7085 O 674.982 -4.60028 2.9502 0
M  V30 7086 H 672.076 -0.714692 0.416106 0
M  V30 7087 H 674.622 -0.943517 1.41053 0
M  V30 7088 H 673.394 -2.44386 3.05599 0
M  V30 7089 H 673.017 -3.5658 1.75887 0
M  V30 7090 N 674.014 -1.12206 -1.10668 0
M  V30 7091 C 674.962 -0.782918 -2.19028 0
M  V30 7092 C 675.956 0.229175 -1.67843 0
M  V30 7093 O 677.162 0.0876295 -1.79787 0
M  V30 7094 H 673.537 -0.235339 -0.714227 0
M  V30 7095 H 675.508 -1.70527 -2.44874 0
M  V30 7096 C 674.257 -0.25116 -3.46792 0
M  V30 7097 H 673.58 -1.02123 -3.86537 0
M  V30 7098 H 675.02 -0.0521409 -4.23968 0
M  V30 7099 C 673.479 1.02037 -3.21076 0
M  V30 7100 O 674.009 2.09862 -3.42522 0
M  V30 7101 N 672.215 0.946348 -2.74759 0
M  V30 7102 H 671.762 0.068777 -2.57508 0
M  V30 7103 H 671.72 1.79775 -2.57931 0
M  V30 7104 N 675.492 1.28418 -0.913599 0
M  V30 7105 C 676.424 2.26368 -0.359169 0
M  V30 7106 C 677.437 1.54858 0.502285 0
M  V30 7107 O 678.626 1.75659 0.31719 0
M  V30 7108 C 675.726 3.35112 0.50526 0
M  V30 7109 C 674.899 4.36126 -0.333648 0
M  V30 7110 C 673.958 5.24134 0.465845 0
M  V30 7111 O 672.984 5.6907 -0.121538 0
M  V30 7112 N 674.186 5.52892 1.76891 0
M  V30 7113 H 676.951 2.74579 -1.2011 0
M  V30 7114 H 674.512 1.41898 -0.779532 0
M  V30 7115 H 676.504 3.90926 1.04684 0
M  V30 7116 H 675.074 2.86611 1.2479 0
M  V30 7117 H 674.294 3.79776 -1.0566 0
M  V30 7118 H 675.582 5.00638 -0.907669 0
M  V30 7119 H 674.98 5.18217 2.26865 0
M  V30 7120 H 673.537 6.11464 2.25732 0
M  V30 7121 N 676.97 0.677563 1.42291 0
M  V30 7122 C 678.381 0.277912 1.8462 0
M  V30 7123 C 678.732 -1.18048 1.56714 0
M  V30 7124 O 677.857 -1.90404 1.02836 0
M  V30 7125 C 678.452 0.497619 3.35126 0
M  V30 7126 C 677.011 0.152063 3.76093 0
M  V30 7127 C 676.158 0.78872 2.65847 0
M  V30 7128 H 679.109 0.879527 1.32098 0
M  V30 7129 H 679.13 -0.24939 3.79682 0
M  V30 7130 H 678.642 1.55913 3.55405 0
M  V30 7131 H 676.743 -0.905896 3.6142 0
M  V30 7132 H 676.856 0.594514 4.75397 0
M  V30 7133 H 675.22 0.219813 2.5375 0
M  V30 7134 H 676.003 1.85374 2.88949 0
M  V30 7135 N 678.448 -1.51871 0.421078 0
M  V30 7136 C 679.676 -2.06356 -0.14994 0
M  V30 7137 C 680.091 -1.29006 -1.37851 0
M  V30 7138 O 679.448 -0.345139 -1.79207 0
M  V30 7139 C 679.499 -3.58185 -0.488454 0
M  V30 7140 O 679.22 -4.32611 0.691341 0
M  V30 7141 C 680.721 -4.29129 -1.11191 0
M  V30 7142 H 677.941 -0.67083 -0.0151186 0
M  V30 7143 H 680.485 -1.95638 0.595476 0
M  V30 7144 H 678.64 -3.68871 -1.18376 0
M  V30 7145 H 679.054 -5.22927 0.405906 0
M  V30 7146 H 680.528 -5.36501 -1.29889 0
M  V30 7147 H 681.005 -3.86371 -2.0884 0
M  V30 7148 H 681.611 -4.22843 -0.456458 0
M  V30 7149 N 679.926 -0.151884 -1.56866 0
M  V30 7150 C 681.172 0.498742 -1.96572 0
M  V30 7151 C 681.505 1.64194 -1.03702 0
M  V30 7152 O 680.78 1.94334 -0.0803432 0
M  V30 7153 C 681.063 1.00027 -3.45929 0
M  V30 7154 C 680.916 -0.141767 -4.49577 0
M  V30 7155 C 682.235 1.88044 -3.97904 0
M  V30 7156 H 679.354 0.17982 -0.714726 0
M  V30 7157 H 681.996 -0.234097 -1.88552 0
M  V30 7158 H 680.146 1.62476 -3.52894 0
M  V30 7159 H 681.818 -0.778269 -4.54687 0
M  V30 7160 H 680.061 -0.80019 -4.26356 0
M  V30 7161 H 680.732 0.250947 -5.51429 0
M  V30 7162 H 683.208 1.35416 -3.93449 0
M  V30 7163 H 682.084 2.20043 -5.02864 0
M  V30 7164 H 682.345 2.81916 -3.40552 0
M  V30 7165 N 681.404 1.57128 0.121893 0
M  V30 7166 C 682.632 1.88883 0.844451 0
M  V30 7167 C 683.047 0.742824 1.73573 0
M  V30 7168 O 682.404 -0.286475 1.80238 0
M  V30 7169 C 682.455 3.20076 1.68029 0
M  V30 7170 O 682.176 4.30264 0.824898 0
M  V30 7171 C 683.677 3.65515 2.50826 0
M  V30 7172 H 680.897 0.62549 0.242907 0
M  V30 7173 H 683.441 2.04219 0.107151 0
M  V30 7174 H 681.596 3.06418 2.37038 0
M  V30 7175 H 682.01 5.05439 1.40113 0
M  V30 7176 H 683.484 4.60081 3.05008 0
M  V30 7177 H 683.961 2.92029 3.28048 0
M  V30 7178 H 684.567 3.81952 1.87064 0
M  V30 7179 N 682.882 -0.391992 1.52647 0
M  V30 7180 C 684.131 -1.13449 1.6677 0
M  V30 7181 C 684.444 -1.91203 0.412399 0
M  V30 7182 O 685.65 -2.68013 0.433707 0
M  V30 7183 C 684.106 -2.06577 2.9471 0
M  V30 7184 C 683.714 -1.3426 4.27409 0
M  V30 7185 C 685.458 -2.80981 3.18198 0
M  V30 7186 C 683.365 -2.26136 5.46458 0
M  V30 7187 H 682.295 -0.427211 0.621295 0
M  V30 7188 H 684.946 -0.397522 1.79142 0
M  V30 7189 H 683.328 -2.83898 2.76076 0
M  V30 7190 H 684.502 -0.621856 4.56585 0
M  V30 7191 H 682.817 -0.718279 4.10158 0
M  V30 7192 H 685.414 -3.49898 4.04321 0
M  V30 7193 H 685.757 -3.44891 2.33144 0
M  V30 7194 H 686.29 -2.10754 3.37383 0
M  V30 7195 H 683.029 -1.66846 6.33911 0
M  V30 7196 H 682.549 -2.96134 5.21598 0
M  V30 7197 H 684.228 -2.86286 5.80215 0
M  V30 7198 N 684.36 -1.4356 -0.65026 0
M  V30 7199 C 685.307 -1.48948 -1.76304 0
M  V30 7200 C 686.277 -0.338919 -1.62605 0
M  V30 7201 O 687.462 -0.54649 -1.82806 0
M  V30 7202 C 684.602 -1.42131 -3.14472 0
M  V30 7203 C 683.715 -2.67415 -3.39284 0
M  V30 7204 C 682.85 -2.52565 -4.67316 0
M  V30 7205 C 681.889 -3.73103 -4.85243 0
M  V30 7206 N 681.026 -3.57046 -6.04535 0
M  V30 7207 H 685.866 -2.44032 -1.71034 0
M  V30 7208 H 683.403 -1.21131 -0.834601 0
M  V30 7209 H 685.361 -1.36172 -3.94351 0
M  V30 7210 H 683.991 -0.506273 -3.18805 0
M  V30 7211 H 683.043 -2.8364 -2.53481 0
M  V30 7212 H 684.355 -3.56943 -3.48415 0
M  V30 7213 H 683.509 -2.44331 -5.55326 0
M  V30 7214 H 682.248 -1.60566 -4.60511 0
M  V30 7215 H 681.253 -3.81743 -3.95667 0
M  V30 7216 H 682.478 -4.66115 -4.93876 0
M  V30 7217 H 680.424 -2.67783 -5.98856 0
M  V30 7218 H 680.341 -4.40178 -6.14638 0
M  V30 7219 H 681.609 -3.52669 -6.95158 0
M  V30 7220 N 685.838 0.888903 -1.30139 0
M  V30 7221 C 687.084 1.6428 -1.18912 0
M  V30 7222 C 687.417 1.92499 0.256477 0
M  V30 7223 O 686.692 1.54312 1.18397 0
M  V30 7224 C 686.975 2.9851 -2.01405 0
M  V30 7225 C 686.828 2.77288 -3.54163 0
M  V30 7226 C 688.147 3.99383 -1.84882 0
M  V30 7227 H 685.266 0.596148 -0.433333 0
M  V30 7228 H 687.908 1.0289 -1.5973 0
M  V30 7229 H 686.058 3.50907 -1.66722 0
M  V30 7230 H 687.73 2.31709 -3.98884 0
M  V30 7231 H 685.973 2.11867 -3.78543 0
M  V30 7232 H 686.644 3.72717 -4.07168 0
M  V30 7233 H 689.12 3.56132 -2.15196 0
M  V30 7234 H 687.996 4.91222 -2.44934 0
M  V30 7235 H 688.257 4.34674 -0.806902 0
M  V30 7236 N 687.317 1.12792 1.10072 0
M  V30 7237 C 688.547 0.907189 1.85617 0
M  V30 7238 C 688.955 -0.547181 1.81115 0
M  V30 7239 O 688.298 -1.39024 1.20075 0
M  V30 7240 C 688.36 1.30872 3.34832 0
M  V30 7241 C 688.024 2.77516 3.6309 0
M  V30 7242 C 689.021 3.75696 3.59373 0
M  V30 7243 C 686.706 3.14513 3.91646 0
M  V30 7244 C 688.7 5.08888 3.83812 0
M  V30 7245 C 686.387 4.47886 4.15742 0
M  V30 7246 C 687.385 5.44882 4.11816 0
M  V30 7247 O 687.073 6.7585 4.35295 0
M  V30 7248 H 686.805 0.323855 0.593375 0
M  V30 7249 H 689.359 1.50262 1.40038 0
M  V30 7250 H 687.589 0.656518 3.81086 0
M  V30 7251 H 689.278 1.06153 3.91773 0
M  V30 7252 H 690.044 3.48458 3.37345 0
M  V30 7253 H 685.923 2.39622 3.93831 0
M  V30 7254 H 689.467 5.84586 3.80663 0
M  V30 7255 H 685.364 4.74851 4.37249 0
M  V30 7256 H 686.132 6.81853 4.52791 0
M  V30 7257 N 688.795 -1.27931 0.920396 0
M  V30 7258 C 689.705 -2.30824 0.419212 0
M  V30 7259 C 690.721 -1.66767 -0.496461 0
M  V30 7260 O 691.897 -1.97763 -0.38104 0
M  V30 7261 C 688.962 -3.45158 -0.326601 0
M  V30 7262 C 688.023 -4.24754 0.623098 0
M  V30 7263 C 687.256 -5.33629 -0.0872172 0
M  V30 7264 O 687.479 -5.55204 -1.30784 0
M  V30 7265 O 686.413 -5.99091 0.580875 0
M  V30 7266 H 690.239 -2.75716 1.27337 0
M  V30 7267 H 687.824 -1.32747 0.685465 0
M  V30 7268 H 689.706 -4.14716 -0.747559 0
M  V30 7269 H 688.381 -3.02336 -1.15648 0
M  V30 7270 H 687.288 -3.57759 1.09359 0
M  V30 7271 H 688.621 -4.71272 1.41998 0
M  V30 7272 N 690.273 -0.685099 -1.4193 0
M  V30 7273 C 691.521 -0.21124 -2.00993 0
M  V30 7274 C 691.842 1.18985 -1.54491 0
M  V30 7275 O 691.112 1.8009 -0.771 0
M  V30 7276 H 689.692 -0.0751059 -0.743215 0
M  V30 7277 H 692.354 -0.883915 -1.73704 0
M  V30 7278 H 691.45 -0.220513 -3.1132 0
M  V30 7279 N 691.751 1.51645 -0.429126 0
M  V30 7280 C 692.661 2.31288 0.392809 0
M  V30 7281 C 693.677 1.39852 1.03525 0
M  V30 7282 O 694.853 1.72926 1.03241 0
M  V30 7283 C 691.918 3.13347 1.48372 0
M  V30 7284 C 690.979 4.20551 0.862268 0
M  V30 7285 C 690.212 4.98688 1.9012 0
M  V30 7286 O 690.435 4.77359 3.12225 0
M  V30 7287 O 689.369 5.83005 1.4963 0
M  V30 7288 H 693.195 3.02609 -0.257138 0
M  V30 7289 H 690.78 1.48163 -0.191851 0
M  V30 7290 H 692.662 3.64387 2.1166 0
M  V30 7291 H 691.337 2.44799 2.1179 0
M  V30 7292 H 690.244 3.73609 0.191568 0
M  V30 7293 H 691.577 4.91449 0.271704 0
M  V30 7294 N 693.229 0.160201 1.56784 0
M  V30 7295 C 694.645 -0.196089 1.58391 0
M  V30 7296 C 694.845 -1.63689 1.17508 0
M  V30 7297 O 693.901 -2.36613 0.881506 0
M  V30 7298 C 695.214 0.0746449 3.00607 0
M  V30 7299 C 696.762 0.0119762 3.12998 0
M  V30 7300 C 697.237 0.255551 4.57286 0
M  V30 7301 N 698.728 0.202938 4.62755 0
M  V30 7302 C 699.463 0.365731 5.72232 0
M  V30 7303 N 698.959 0.586972 6.90309 0
M  V30 7304 N 700.752 0.302411 5.61286 0
M  V30 7305 H 692.903 1.1008 1.81648 0
M  V30 7306 H 695.166 0.436779 0.841384 0
M  V30 7307 H 694.872 1.07231 3.34954 0
M  V30 7308 H 694.746 -0.638802 3.71751 0
M  V30 7309 H 697.133 -0.976254 2.78484 0
M  V30 7310 H 697.214 0.75796 2.44313 0
M  V30 7311 H 696.858 1.24094 4.92507 0
M  V30 7312 H 696.788 -0.510912 5.24116 0
M  V30 7313 H 699.279 0.0371328 3.77882 0
M  V30 7314 H 699.592 0.700941 7.69615 0
M  V30 7315 H 697.937 0.623453 6.92198 0
M  V30 7316 H 701.128 0.130238 4.67919 0
M  V30 7317 H 701.301 0.432712 6.46554 0
M  V30 7318 N 694.707 -1.5719 -0.113559 0
M  V30 7319 C 696.118 -1.74259 -0.670116 0
M  V30 7320 C 696.469 -0.779694 -1.80042 0
M  V30 7321 O 695.594 0.0461353 -2.16351 0
M  V30 7322 C 696.189 -3.15981 -1.22236 0
M  V30 7323 C 694.748 -3.34537 -1.72516 0
M  V30 7324 C 693.895 -2.70116 -0.627098 0
M  V30 7325 H 696.846 -1.58301 0.112396 0
M  V30 7326 H 696.867 -3.17832 -2.09197 0
M  V30 7327 H 696.379 -3.86038 -0.39949 0
M  V30 7328 H 694.48 -2.6953 -2.57263 0
M  V30 7329 H 694.593 -4.42737 -1.83086 0
M  V30 7330 H 692.957 -2.31501 -1.06204 0
M  V30 7331 H 693.74 -3.42802 0.184889 0
M  V30 7332 N 696.185 0.383891 -1.52853 0
M  V30 7333 C 697.115 1.47559 -1.80965 0
M  V30 7334 C 698.096 1.5669 -0.661986 0
M  V30 7335 O 699.281 1.71556 -0.910072 0
M  V30 7336 C 696.411 2.85114 -1.98312 0
M  V30 7337 C 695.365 2.9082 -3.14019 0
M  V30 7338 C 694.691 4.30873 -3.16627 0
M  V30 7339 C 695.991 2.60001 -4.52986 0
M  V30 7340 H 697.685 1.24283 -2.72386 0
M  V30 7341 H 695.231 0.596445 -1.31067 0
M  V30 7342 H 697.184 3.61496 -2.16561 0
M  V30 7343 H 695.908 3.09738 -1.03585 0
M  V30 7344 H 694.567 2.16886 -2.9556 0
M  V30 7345 H 694.215 4.52545 -2.19573 0
M  V30 7346 H 693.915 4.3561 -3.94357 0
M  V30 7347 H 695.439 5.09154 -3.37038 0
M  V30 7348 H 696.853 3.261 -4.71521 0
M  V30 7349 H 695.25 2.76081 -5.32822 0
M  V30 7350 H 696.32 1.5532 -4.59351 0
M  V30 7351 N 697.663 1.43903 0.642637 0
M  V30 7352 C 698.891 1.4954 1.42988 0
M  V30 7353 C 699.306 0.116588 1.8844 0
M  V30 7354 O 698.663 -0.875285 1.60141 0
M  V30 7355 C 698.714 2.45031 2.65785 0
M  V30 7356 O 698.435 3.77551 2.22232 0
M  V30 7357 C 699.936 2.60017 3.59035 0
M  V30 7358 H 697.156 0.507544 0.438907 0
M  V30 7359 H 699.7 1.88752 0.786942 0
M  V30 7360 H 697.855 2.08985 3.26196 0
M  V30 7361 H 698.269 4.29001 3.01759 0
M  V30 7362 H 699.743 3.30887 4.41835 0
M  V30 7363 H 700.22 1.64861 4.07084 0
M  V30 7364 H 700.826 2.96918 3.045 0
M  V30 7365 N 699.141 -0.881989 1.30609 0
M  V30 7366 C 700.088 -1.98803 1.17244 0
M  V30 7367 C 701.058 -1.65987 0.0611905 0
M  V30 7368 O 702.243 -1.89385 0.231911 0
M  V30 7369 C 699.383 -3.33867 0.87333 0
M  V30 7370 C 698.496 -3.79354 2.06675 0
M  V30 7371 C 697.631 -5.03078 1.70547 0
M  V30 7372 C 696.67 -5.40981 2.86366 0
M  V30 7373 N 695.807 -6.55886 2.50514 0
M  V30 7374 H 700.647 -2.09566 2.11863 0
M  V30 7375 H 698.184 -1.02607 1.05405 0
M  V30 7376 H 700.142 -4.11612 0.680519 0
M  V30 7377 H 698.772 -3.2278 -0.0359983 0
M  V30 7378 H 697.824 -2.97492 2.37071 0
M  V30 7379 H 699.136 -4.03382 2.93401 0
M  V30 7380 H 698.29 -5.88457 1.47658 0
M  V30 7381 H 697.029 -4.80927 0.809947 0
M  V30 7382 H 696.034 -4.54127 3.09917 0
M  V30 7383 H 697.259 -5.65104 3.76609 0
M  V30 7384 H 695.205 -6.35306 1.63471 0
M  V30 7385 H 695.122 -6.79799 3.30771 0
M  V30 7386 H 696.39 -7.44489 2.30989 0
M  V30 7387 N 700.619 -1.13374 -1.09472 0
M  V30 7388 C 701.896 -0.806329 -1.78207 0
M  V30 7389 C 702.276 0.702191 -1.99079 0
M  V30 7390 O 701.624 1.63931 -1.59182 0
M  V30 7391 C 701.834 -1.59271 -3.10538 0
M  V30 7392 C 703.182 -1.78509 -3.85253 0
M  V30 7393 O 704.206 -1.55866 -3.20288 0
M  V30 7394 O 703.065 -2.16287 -5.01879 0
M  V30 7395 H 700.159 -0.29435 -0.772843 0
M  V30 7396 H 702.705 -1.23833 -1.16033 0
M  V30 7397 H 701.477 -2.61792 -2.90828 0
M  V30 7398 H 701.1 -1.15562 -3.80436 0
M  V30 7399 N 702.098 1.27442 -0.927168 0
M  V30 7400 C 703.046 2.28844 -0.416333 0
M  V30 7401 C 704.04 1.61882 0.499057 0
M  V30 7402 O 705.246 1.75969 0.378817 0
M  V30 7403 H 701.621 0.742989 -0.116065 0
M  V30 7404 H 703.592 2.69344 -1.28438 0
M  V30 7405 C 702.341 3.4626 0.316107 0
M  V30 7406 H 701.664 3.97999 -0.379082 0
M  V30 7407 H 703.104 4.19173 0.637975 0
M  V30 7408 C 701.563 3.00211 1.5289 0
M  V30 7409 O 702.093 3.03837 2.62766 0
M  V30 7410 N 700.299 2.55713 1.38054 0
M  V30 7411 H 699.846 2.52962 0.4866 0
M  V30 7412 H 699.804 2.25264 2.19325 0
M  V30 7413 N 703.576 0.692616 1.41565 0
M  V30 7414 C 704.526 0.00231847 2.28 0
M  V30 7415 C 705.51 -0.755793 1.42044 0
M  V30 7416 O 706.702 -0.631772 1.65341 0
M  V30 7417 C 703.831 -0.935468 3.30309 0
M  V30 7418 C 702.917 -0.173761 4.23744 0
M  V30 7419 N 703.308 0.830872 4.98929 0
M  V30 7420 C 701.606 -0.409666 4.44115 0
M  V30 7421 C 702.307 1.28656 5.67294 0
M  V30 7422 N 701.283 0.613053 5.40132 0
M  V30 7423 H 705.085 0.772635 2.83562 0
M  V30 7424 H 702.599 0.523198 1.53741 0
M  V30 7425 H 704.596 -1.44513 3.91052 0
M  V30 7426 H 703.256 -1.70542 2.76307 0
M  V30 7427 H 704.267 1.21101 5.03542 0
M  V30 7428 H 700.944 -1.15773 4.01127 0
M  V30 7429 H 702.334 2.12006 6.37576 0
M  V30 7430 N 705.054 -1.51416 0.437162 0
M  V30 7431 C 705.984 -2.30631 -0.364922 0
M  V30 7432 C 706.965 -1.36037 -1.02118 0
M  V30 7433 O 708.15 -1.64956 -1.02485 0
M  V30 7434 C 705.28 -3.1482 -1.46648 0
M  V30 7435 C 704.234 -4.17691 -0.933717 0
M  V30 7436 C 703.56 -4.904 -2.13101 0
M  V30 7437 C 704.86 -5.2229 0.0317201 0
M  V30 7438 H 706.554 -2.97932 0.29614 0
M  V30 7439 H 704.1 -1.4328 0.143865 0
M  V30 7440 H 706.053 -3.69017 -2.03481 0
M  V30 7441 H 704.777 -2.4534 -2.15583 0
M  V30 7442 H 703.436 -3.64545 -0.387602 0
M  V30 7443 H 703.084 -4.17423 -2.80654 0
M  V30 7444 H 702.784 -5.59962 -1.78092 0
M  V30 7445 H 704.308 -5.4742 -2.70487 0
M  V30 7446 H 705.722 -5.7156 -0.446302 0
M  V30 7447 H 704.119 -5.99378 0.29437 0
M  V30 7448 H 705.189 -4.75131 0.968447 0
M  V30 7449 N 706.532 -0.168513 -1.56696 0
M  V30 7450 C 707.462 0.758563 -2.20835 0
M  V30 7451 C 708.443 1.24121 -1.1631 0
M  V30 7452 O 709.628 1.29487 -1.4473 0
M  V30 7453 C 706.758 1.9892 -2.8469 0
M  V30 7454 C 705.712 1.64252 -3.95228 0
M  V30 7455 C 705.038 2.94757 -4.46119 0
M  V30 7456 C 706.338 0.872675 -5.14958 0
M  V30 7457 H 708.032 0.223953 -2.98561 0
M  V30 7458 H 705.578 0.106277 -1.43607 0
M  V30 7459 H 707.531 2.64275 -3.28233 0
M  V30 7460 H 706.255 2.5479 -2.04327 0
M  V30 7461 H 704.914 1.01266 -3.52336 0
M  V30 7462 H 704.562 3.48662 -3.62552 0
M  V30 7463 H 704.262 2.72316 -5.2069 0
M  V30 7464 H 705.786 3.61147 -4.92347 0
M  V30 7465 H 707.2 1.42875 -5.55211 0
M  V30 7466 H 705.597 0.747402 -5.95428 0
M  V30 7467 H 706.667 -0.131535 -4.84722 0
M  V30 7468 N 708.01 1.57248 0.105221 0
M  V30 7469 C 709.258 1.85204 0.808951 0
M  V30 7470 C 709.579 0.75574 1.7976 0
M  V30 7471 O 708.849 -0.218984 1.94672 0
M  V30 7472 H 707.429 0.683346 0.301739 0
M  V30 7473 H 710.091 1.94695 0.0892605 0
M  V30 7474 H 709.187 2.81595 1.34575 0
M  V30 7475 N 709.488 -0.375779 1.53054 0
M  V30 7476 C 710.716 -1.14036 1.72637 0
M  V30 7477 C 711.131 -1.83342 0.450687 0
M  V30 7478 O 710.488 -1.7318 -0.575749 0
M  V30 7479 C 710.539 -2.17841 2.88492 0
M  V30 7480 O 710.26 -1.51358 4.11123 0
M  V30 7481 C 711.761 -3.06924 3.19863 0
M  V30 7482 H 708.981 -0.341386 0.577665 0
M  V30 7483 H 711.525 -0.437809 1.99759 0
M  V30 7484 H 709.68 -2.8371 2.63794 0
M  V30 7485 H 710.094 -2.20439 4.75928 0
M  V30 7486 H 711.568 -3.75763 4.04359 0
M  V30 7487 H 712.045 -3.71169 2.34798 0
M  V30 7488 H 712.651 -2.46684 3.46449 0
M  V30 7489 N 710.966 -1.44241 -0.634997 0
M  V30 7490 C 712.213 -1.46821 -1.39463 0
M  V30 7491 C 712.541 -0.0993362 -1.94246 0
M  V30 7492 O 711.796 0.898325 -1.73864 0
M  V30 7493 C 712.095 -2.47279 -2.58046 0
M  V30 7494 C 711.761 -3.92703 -2.21574 0
M  V30 7495 C 710.423 -4.32306 -2.1134 0
M  V30 7496 C 712.775 -4.84271 -1.92695 0
M  V30 7497 C 710.103 -5.61407 -1.70409 0
M  V30 7498 C 712.455 -6.13755 -1.53258 0
M  V30 7499 C 711.119 -6.52316 -1.41562 0
M  V30 7500 H 710.389 -0.537256 -0.51033 0
M  V30 7501 H 713.036 -1.77431 -0.720441 0
M  V30 7502 H 711.341 -2.10138 -3.3068 0
M  V30 7503 H 713.038 -2.46523 -3.16271 0
M  V30 7504 H 709.628 -3.61369 -2.30456 0
M  V30 7505 H 713.812 -4.54432 -1.99513 0
M  V30 7506 H 709.068 -5.90105 -1.59955 0
M  V30 7507 H 713.242 -6.84168 -1.29949 0
M  V30 7508 H 710.869 -7.52255 -1.09619 0
M  V30 7509 N 712.444 0.87505 -1.31075 0
M  V30 7510 C 713.721 1.60976 -1.11113 0
M  V30 7511 C 714.101 2.08409 0.336006 0
M  V30 7512 O 713.449 1.85858 1.32924 0
M  V30 7513 C 713.659 2.77166 -2.12085 0
M  V30 7514 C 715.007 3.47254 -2.44335 0
M  V30 7515 O 716.031 2.87367 -2.10472 0
M  V30 7516 O 714.89 4.55276 -3.02301 0
M  V30 7517 H 711.984 0.707982 -0.427424 0
M  V30 7518 H 714.53 0.920957 -1.42536 0
M  V30 7519 H 713.302 2.39494 -3.09449 0
M  V30 7520 H 712.925 3.53737 -1.81538 0
M  V30 7521 N 713.922 1.13953 1.08869 0
M  V30 7522 C 714.852 0.844824 2.17681 0
M  V30 7523 C 715.833 -0.198213 1.68941 0
M  V30 7524 O 717.018 -0.0559073 1.9412 0
M  V30 7525 C 714.148 0.316325 3.45856 0
M  V30 7526 C 713.102 1.29426 4.07962 0
M  V30 7527 C 712.428 0.625275 5.31031 0
M  V30 7528 C 713.728 2.65484 4.49795 0
M  V30 7529 H 715.422 1.75471 2.42591 0
M  V30 7530 H 712.968 0.845116 1.16592 0
M  V30 7531 H 714.921 0.0977876 4.21287 0
M  V30 7532 H 713.645 -0.628972 3.20486 0
M  V30 7533 H 712.304 1.49889 3.34558 0
M  V30 7534 H 711.952 -0.325678 5.01945 0
M  V30 7535 H 711.652 1.27777 5.73539 0
M  V30 7536 H 713.176 0.416152 6.0918 0
M  V30 7537 H 714.59 2.48957 5.16424 0
M  V30 7538 H 712.987 3.26963 5.03205 0
M  V30 7539 H 714.057 3.22717 3.61914 0
M  V30 7540 N 715.4 -1.26948 0.933913 0
M  V30 7541 C 716.628 -1.98186 0.59414 0
M  V30 7542 C 717.043 -1.69614 -0.829257 0
M  V30 7543 O 716.4 -0.960213 -1.55197 0
M  V30 7544 C 716.451 -3.52123 0.818026 0
M  V30 7545 O 716.172 -3.79698 2.18543 0
M  V30 7546 C 717.673 -4.40608 0.48781 0
M  V30 7547 H 714.893 -0.632305 0.224569 0
M  V30 7548 H 717.437 -1.61646 1.25263 0
M  V30 7549 H 715.592 -3.86851 0.206246 0
M  V30 7550 H 716.006 -4.7426 2.24005 0
M  V30 7551 H 717.48 -5.47606 0.695126 0
M  V30 7552 H 717.957 -4.35394 -0.576913 0
M  V30 7553 H 718.563 -4.11411 1.078 0
M  V30 7554 N 716.879 -0.700114 -1.41195 0
M  V30 7555 C 718.127 -0.232546 -2.00758 0
M  V30 7556 C 718.448 1.1734 -1.55745 0
M  V30 7557 O 717.718 1.79262 -0.790058 0
M  V30 7558 H 716.298 -0.0829845 -0.742376 0
M  V30 7559 H 718.96 -0.902289 -1.72756 0
M  V30 7560 H 718.056 -0.253521 -3.11069 0
M  V30 7561 N 718.357 1.51182 -0.445186 0
M  V30 7562 C 719.606 2.01342 0.120189 0
M  V30 7563 C 719.919 1.33353 1.43095 0
M  V30 7564 O 721.125 1.74525 2.07974 0
M  V30 7565 C 719.581 3.58925 0.264732 0
M  V30 7566 C 719.189 4.35855 -1.03606 0
M  V30 7567 C 720.933 4.17208 0.783455 0
M  V30 7568 C 718.84 5.85162 -0.856731 0
M  V30 7569 H 717.77 0.752426 0.0486922 0
M  V30 7570 H 720.421 1.74221 -0.576143 0
M  V30 7571 H 718.803 3.82525 1.02425 0
M  V30 7572 H 719.977 4.23997 -1.80452 0
M  V30 7573 H 718.292 3.89062 -1.48391 0
M  V30 7574 H 720.889 5.26475 0.934239 0
M  V30 7575 H 721.232 3.76892 1.768 0
M  V30 7576 H 721.765 3.97715 0.0820346 0
M  V30 7577 H 718.504 6.29904 -1.81388 0
M  V30 7578 H 718.024 5.99663 -0.128206 0
M  V30 7579 H 719.703 6.44963 -0.513027 0
M  V30 7580 N 719.835 0.176821 1.56605 0
M  V30 7581 C 721.246 -0.338963 1.83597 0
M  V30 7582 C 721.597 -1.62677 1.09684 0
M  V30 7583 O 720.722 -2.13524 0.351661 0
M  V30 7584 C 721.317 -0.62177 3.33046 0
M  V30 7585 C 719.876 -1.08198 3.60514 0
M  V30 7586 C 719.023 -0.120774 2.77037 0
M  V30 7587 H 721.974 0.400978 1.53551 0
M  V30 7588 H 721.995 -1.47321 3.50823 0
M  V30 7589 H 721.507 0.315692 3.86814 0
M  V30 7590 H 719.608 -2.03435 3.12162 0
M  V30 7591 H 719.721 -0.987329 4.68816 0
M  V30 7592 H 718.085 -0.619192 2.47059 0
M  V30 7593 H 718.868 0.810806 3.33588 0
M  V30 7594 N 721.313 -1.57302 -0.09688 0
M  V30 7595 C 722.724 -1.7496 -0.651595 0
M  V30 7596 C 723.075 -0.798746 -1.79205 0
M  V30 7597 O 722.2 0.0231858 -2.16388 0
M  V30 7598 C 722.795 -3.17259 -1.18878 0
M  V30 7599 C 721.354 -3.36348 -1.68958 0
M  V30 7600 C 720.501 -2.70766 -0.598413 0
M  V30 7601 H 723.452 -1.58173 0.12918 0
M  V30 7602 H 723.473 -3.20033 -2.05814 0
M  V30 7603 H 722.985 -3.8644 -0.358523 0
M  V30 7604 H 721.086 -2.72243 -2.5439 0
M  V30 7605 H 721.199 -4.44654 -1.7838 0
M  V30 7606 H 719.563 -2.32615 -1.03743 0
M  V30 7607 H 720.346 -3.42586 0.221238 0
M  V30 7608 N 722.791 0.367657 -1.53252 0
M  V30 7609 C 723.754 1.43308 -1.78873 0
M  V30 7610 C 724.754 1.46671 -0.659115 0
M  V30 7611 O 725.944 1.47468 -0.927306 0
M  V30 7612 C 723.076 2.82442 -1.90892 0
M  V30 7613 H 724.269 1.21864 -2.74024 0
M  V30 7614 H 721.822 0.600668 -1.44297 0
M  V30 7615 H 722.557 3.09202 -0.978 0
M  V30 7616 H 722.342 2.81399 -2.73051 0
M  V30 7617 H 723.832 3.59601 -2.12314 0
M  V30 7618 N 724.269 1.44576 0.627338 0
M  V30 7619 C 725.68 1.42266 1.20902 0
M  V30 7620 C 726.031 0.139964 1.957 0
M  V30 7621 O 725.156 -0.759489 2.02634 0
M  V30 7622 C 725.751 2.57727 2.19914 0
M  V30 7623 C 724.31 2.58599 2.73502 0
M  V30 7624 C 723.457 2.34145 1.48564 0
M  V30 7625 H 726.408 1.53102 0.417791 0
M  V30 7626 H 726.429 2.30697 3.02588 0
M  V30 7627 H 725.941 3.51068 1.65447 0
M  V30 7628 H 724.042 1.6921 3.31962 0
M  V30 7629 H 724.155 3.57205 3.19282 0
M  V30 7630 H 722.519 1.83313 1.76829 0
M  V30 7631 H 723.302 3.29606 0.959935 0
M  V30 7632 N 725.747 -0.868086 1.31537 0
M  V30 7633 C 727.163 -1.15414 1.10235 0
M  V30 7634 C 727.363 -2.01106 -0.125947 0
M  V30 7635 O 726.419 -2.38994 -0.814734 0
M  V30 7636 C 727.732 -1.84445 2.37488 0
M  V30 7637 C 729.28 -1.97139 2.43116 0
M  V30 7638 C 729.755 -2.69585 3.70254 0
M  V30 7639 N 731.246 -2.77119 3.71159 0
M  V30 7640 C 731.981 -3.33791 4.6623 0
M  V30 7641 N 731.477 -3.9138 5.71659 0
M  V30 7642 N 733.27 -3.31767 4.53747 0
M  V30 7643 H 725.421 -0.297109 2.10312 0
M  V30 7644 H 727.684 -0.194227 0.92789 0
M  V30 7645 H 727.39 -1.2893 3.27215 0
M  V30 7646 H 727.264 -2.84709 2.47428 0
M  V30 7647 H 729.651 -2.51818 1.53856 0
M  V30 7648 H 729.732 -0.95912 2.37138 0
M  V30 7649 H 729.376 -2.15572 4.59881 0
M  V30 7650 H 729.306 -3.71223 3.73499 0
M  V30 7651 H 731.797 -2.3625 2.94948 0
M  V30 7652 H 732.11 -4.3274 6.40278 0
M  V30 7653 H 730.455 -3.8975 5.7543 0
M  V30 7654 H 733.646 -2.86016 3.70557 0
M  V30 7655 H 733.819 -3.75636 5.28017 0
M  V30 7656 N 727.225 -1.14528 -1.08264 0
M  V30 7657 C 728.473 -0.912599 -1.80322 0
M  V30 7658 C 728.794 0.562256 -1.86718 0
M  V30 7659 O 728.064 1.40869 -1.36135 0
M  V30 7660 H 726.644 -0.334645 -0.667849 0
M  V30 7661 H 729.306 -1.44415 -1.30883 0
M  V30 7662 H 728.402 -1.31384 -2.83098 0
M  V30 7663 N 728.703 1.26451 -0.940633 0
M  V30 7664 C 729.949 1.94065 -0.58878 0
M  V30 7665 C 730.282 1.7363 0.869853 0
M  V30 7666 O 729.557 1.073 1.62225 0
M  V30 7667 C 729.84 3.47852 -0.931199 0
M  V30 7668 C 729.693 3.77575 -2.44453 0
M  V30 7669 C 731.012 4.37832 -0.446229 0
M  V30 7670 H 728.131 0.704827 -0.21538 0
M  V30 7671 H 730.773 1.4933 -1.17475 0
M  V30 7672 H 728.923 3.86085 -0.432539 0
M  V30 7673 H 730.595 3.49059 -3.01588 0
M  V30 7674 H 728.838 3.23671 -2.88825 0
M  V30 7675 H 729.509 4.85068 -2.63464 0
M  V30 7676 H 731.985 4.06822 -0.873778 0
M  V30 7677 H 730.861 5.44228 -0.714648 0
M  V30 7678 H 731.122 4.37239 0.653815 0
M  V30 7679 N 730.181 0.707592 1.40822 0
M  V30 7680 C 731.592 0.317011 1.83989 0
M  V30 7681 C 731.943 -1.14697 1.59182 0
M  V30 7682 O 731.068 -1.8818 1.06852 0
M  V30 7683 C 731.663 0.568593 3.33995 0
M  V30 7684 C 730.222 0.231804 3.75686 0
M  V30 7685 C 729.369 0.844933 2.64114 0
M  V30 7686 H 732.32 0.907349 1.30203 0
M  V30 7687 H 732.341 -0.168798 3.80125 0
M  V30 7688 H 731.853 1.63417 3.52018 0
M  V30 7689 H 729.954 -0.82903 3.6326 0
M  V30 7690 H 730.067 0.695219 4.74029 0
M  V30 7691 H 728.431 0.273588 2.53226 0
M  V30 7692 H 729.214 1.91462 2.84951 0
M  V30 7693 N 731.66 -1.50943 0.453197 0
M  V30 7694 C 732.592 -2.25922 -0.38623 0
M  V30 7695 C 733.605 -1.3055 -0.972652 0
M  V30 7696 O 734.794 -1.56191 -0.864097 0
M  V30 7697 C 731.894 -3.01176 -1.5539 0
M  V30 7698 C 731.067 -4.23768 -1.0835 0
M  V30 7699 C 730.126 -4.81466 -2.12313 0
M  V30 7700 O 729.152 -5.42875 -1.71101 0
M  V30 7701 N 730.354 -4.66889 -3.44956 0
M  V30 7702 H 733.119 -2.98601 0.256468 0
M  V30 7703 H 730.68 -1.59408 0.282965 0
M  V30 7704 H 732.672 -3.36659 -2.24594 0
M  V30 7705 H 731.242 -2.31409 -2.10163 0
M  V30 7706 H 730.462 -3.93597 -0.217961 0
M  V30 7707 H 731.75 -5.03289 -0.746857 0
M  V30 7708 H 731.148 -4.18011 -3.81161 0
M  V30 7709 H 729.705 -5.06691 -4.1001 0
M  V30 7710 N 733.138 -0.185124 -1.56509 0
M  V30 7711 C 734.387 0.456421 -1.96468 0
M  V30 7712 C 734.7 1.63448 -1.07444 0
M  V30 7713 O 735.906 2.34316 -1.37143 0
M  V30 7714 C 734.362 0.863404 -3.4939 0
M  V30 7715 C 733.97 -0.289815 -4.47062 0
M  V30 7716 C 735.714 1.47259 -3.98139 0
M  V30 7717 C 733.621 0.137571 -5.9124 0
M  V30 7718 H 732.551 0.17429 -0.733579 0
M  V30 7719 H 735.202 -0.275554 -1.81419 0
M  V30 7720 H 733.584 1.65176 -3.59907 0
M  V30 7721 H 734.758 -1.06728 -4.4827 0
M  V30 7722 H 733.073 -0.809851 -4.08449 0
M  V30 7723 H 735.67 1.80463 -5.03326 0
M  V30 7724 H 736.013 2.3755 -3.41871 0
M  V30 7725 H 736.546 0.748405 -3.90696 0
M  V30 7726 H 733.285 -0.730907 -6.51412 0
M  V30 7727 H 732.805 0.8801 -5.93308 0
M  V30 7728 H 734.484 0.576771 -6.44424 0
M  V30 7729 N 734.616 1.57351 0.0885366 0
M  V30 7730 C 735.526 2.05858 1.12516 0
M  V30 7731 C 736.542 0.984758 1.43452 0
M  V30 7732 O 737.718 1.29836 1.53963 0
M  V30 7733 C 734.783 2.47882 2.42395 0
M  V30 7734 C 733.844 3.69487 2.18582 0
M  V30 7735 C 733.077 4.09497 3.42268 0
M  V30 7736 O 733.3 3.49536 4.50755 0
M  V30 7737 O 732.234 5.02406 3.31469 0
M  V30 7738 H 736.06 2.94467 0.743146 0
M  V30 7739 H 733.645 1.46326 0.301507 0
M  V30 7740 H 735.527 2.75509 3.18862 0
M  V30 7741 H 734.202 1.62408 2.8001 0
M  V30 7742 H 733.109 3.46967 1.39875 0
M  V30 7743 H 734.442 4.55761 1.85857 0
M  V30 7744 N 736.094 -0.359525 1.53444 0
M  V30 7745 C 737.34 -1.10315 1.70172 0
M  V30 7746 C 737.673 -1.88788 0.455287 0
M  V30 7747 O 736.948 -1.86635 -0.547514 0
M  V30 7748 C 737.231 -2.05744 2.95536 0
M  V30 7749 C 737.084 -1.3084 4.3035 0
M  V30 7750 C 738.403 -3.05784 3.16518 0
M  V30 7751 H 735.522 -0.399662 0.619225 0
M  V30 7752 H 738.164 -0.383338 1.86093 0
M  V30 7753 H 736.314 -2.67125 2.82093 0
M  V30 7754 H 737.986 -0.721959 4.55615 0
M  V30 7755 H 736.229 -0.610283 4.29486 0
M  V30 7756 H 736.9 -2.00718 5.14214 0
M  V30 7757 H 739.376 -2.5451 3.29187 0
M  V30 7758 H 738.252 -3.69772 4.05659 0
M  V30 7759 H 738.513 -3.76289 2.32076 0
M  V30 7760 N 737.572 -1.44907 -0.619662 0
M  V30 7761 C 738.8 -1.51795 -1.40591 0
M  V30 7762 C 739.215 -0.146553 -1.8823 0
M  V30 7763 O 738.572 0.849698 -1.61513 0
M  V30 7764 C 738.623 -2.49229 -2.61853 0
M  V30 7765 O 738.344 -3.81039 -2.16197 0
M  V30 7766 C 739.845 -2.65696 -3.54853 0
M  V30 7767 H 737.065 -0.514463 -0.430777 0
M  V30 7768 H 739.609 -1.8998 -0.756813 0
M  V30 7769 H 737.764 -2.14149 -3.2283 0
M  V30 7770 H 738.178 -4.33747 -2.94896 0
M  V30 7771 H 739.652 -3.37874 -4.36515 0
M  V30 7772 H 740.129 -1.71316 -4.0441 0
M  V30 7773 H 740.735 -3.01724 -2.99737 0
M  V30 7774 N 739.05 0.861098 -1.31996 0
M  V30 7775 C 740.297 1.61481 -1.22188 0
M  V30 7776 C 740.625 1.93276 0.217853 0
M  V30 7777 O 739.88 1.56942 1.16909 0
M  V30 7778 C 740.179 2.94822 -2.02027 0
M  V30 7779 C 739.845 2.82483 -3.51446 0
M  V30 7780 C 738.507 2.78825 -3.92186 0
M  V30 7781 C 740.859 2.68878 -4.46491 0
M  V30 7782 C 738.187 2.59433 -5.26224 0
M  V30 7783 C 740.539 2.51022 -5.80664 0
M  V30 7784 C 739.203 2.45753 -6.20614 0
M  V30 7785 H 738.473 0.590902 -0.447119 0
M  V30 7786 H 741.12 0.999376 -1.63355 0
M  V30 7787 H 739.425 3.6045 -1.53569 0
M  V30 7788 H 741.122 3.52149 -1.91812 0
M  V30 7789 H 737.712 2.86152 -3.19085 0
M  V30 7790 H 741.896 2.70754 -4.1594 0
M  V30 7791 H 737.152 2.53784 -5.5624 0
M  V30 7792 H 741.326 2.39473 -6.53931 0
M  V30 7793 H 738.953 2.30485 -7.24417 0
M  V30 7794 N 740.528 1.15101 1.07655 0
M  V30 7795 C 741.438 0.858869 2.18313 0
M  V30 7796 C 742.454 -0.163641 1.73229 0
M  V30 7797 O 743.63 0.00969541 2.01398 0
M  V30 7798 C 740.695 0.34893 3.4494 0
M  V30 7799 C 739.756 1.43495 4.04608 0
M  V30 7800 C 738.989 0.949253 5.2519 0
M  V30 7801 O 739.212 -0.20636 5.70027 0
M  V30 7802 O 738.146 1.73161 5.76454 0
M  V30 7803 H 741.972 1.78386 2.45788 0
M  V30 7804 H 739.557 0.929876 1.16934 0
M  V30 7805 H 741.439 0.070851 4.2134 0
M  V30 7806 H 740.114 -0.548237 3.19024 0
M  V30 7807 H 739.021 1.7666 3.29761 0
M  V30 7808 H 740.354 2.30692 4.3479 0
M  V30 7809 N 742.006 -1.2595 0.947325 0
M  V30 7810 C 743.255 -1.92759 0.593887 0
M  V30 7811 C 743.568 -1.75083 -0.872093 0
M  V30 7812 O 744.774 -2.36401 -1.33518 0
M  V30 7813 C 743.23 -3.45395 1.01144 0
M  V30 7814 C 742.838 -3.71795 2.49946 0
M  V30 7815 C 744.582 -4.18173 0.730185 0
M  V30 7816 C 742.489 -5.17901 2.85539 0
M  V30 7817 H 741.419 -0.721676 0.218403 0
M  V30 7818 H 744.07 -1.4293 1.15079 0
M  V30 7819 H 742.452 -3.94143 0.383007 0
M  V30 7820 H 743.626 -3.33728 3.17746 0
M  V30 7821 H 741.941 -3.12263 2.75465 0
M  V30 7822 H 744.538 -5.25784 0.972367 0
M  V30 7823 H 744.881 -4.14964 -0.333223 0
M  V30 7824 H 745.414 -3.75309 1.31862 0
M  V30 7825 H 742.153 -5.26216 3.90867 0
M  V30 7826 H 741.673 -5.57042 2.22406 0
M  V30 7827 H 743.352 -5.8596 2.74336 0
M  V30 7828 N 743.484 -0.715051 -1.40445 0
M  V30 7829 C 744.761 -0.181503 -1.94756 0
M  V30 7830 C 745.141 1.31268 -1.65324 0
M  V30 7831 O 744.489 2.0686 -0.970631 0
M  V30 7832 C 744.699 -0.493663 -3.45491 0
M  V30 7833 C 746.047 -0.432032 -4.22396 0
M  V30 7834 O 747.071 -0.429692 -3.53599 0
M  V30 7835 O 745.93 -0.409091 -5.44967 0
M  V30 7836 H 743.024 -0.0263989 -0.826579 0
M  V30 7837 H 745.57 -0.792546 -1.50056 0
M  V30 7838 H 744.342 -1.52713 -3.6027 0
M  V30 7839 H 743.965 0.14737 -3.97327 0
M  V30 7840 N 744.962 1.50701 -0.461195 0
M  V30 7841 C 746.208 2.02566 0.0973411 0
M  V30 7842 C 746.541 1.3432 1.40257 0
M  V30 7843 O 745.816 0.465692 1.88843 0
M  V30 7844 C 746.099 3.58919 0.291423 0
M  V30 7845 C 745.952 4.37751 -1.03413 0
M  V30 7846 C 747.271 4.27379 1.05048 0
M  V30 7847 H 744.39 0.73622 0.0339026 0
M  V30 7848 H 747.032 1.80115 -0.604855 0
M  V30 7849 H 745.182 3.78179 0.889539 0
M  V30 7850 H 746.854 4.30085 -1.66806 0
M  V30 7851 H 745.097 4.01885 -1.63313 0
M  V30 7852 H 745.768 5.45384 -0.852085 0
M  V30 7853 H 748.244 4.12534 0.543603 0
M  V30 7854 H 747.12 5.36609 1.15506 0
M  V30 7855 H 747.381 3.89868 2.0846 0
M  V30 7856 N 746.441 0.193421 1.56409 0
M  V30 7857 C 747.389 -0.744829 2.20352 0
M  V30 7858 C 748.383 -1.22104 1.17418 0
M  V30 7859 O 749.589 -1.18413 1.35567 0
M  V30 7860 H 745.964 -0.258538 0.70616 0
M  V30 7861 H 747.935 -0.181794 2.97846 0
M  V30 7862 C 746.684 -1.95453 2.87565 0
M  V30 7863 H 746.007 -1.59716 3.66512 0
M  V30 7864 H 747.447 -2.58942 3.35745 0
M  V30 7865 C 745.906 -2.79223 1.8851 0
M  V30 7866 O 746.436 -3.77093 1.38434 0
M  V30 7867 N 744.642 -2.44682 1.56777 0
M  V30 7868 H 744.189 -1.65153 1.97692 0
M  V30 7869 H 744.147 -3.01016 0.907573 0
M  V30 7870 N 747.919 -1.57396 -0.0801906 0
M  V30 7871 C 749.167 -1.86467 -0.779384 0
M  V30 7872 C 749.488 -0.784243 -1.78535 0
M  V30 7873 O 748.758 0.187986 -1.94996 0
M  V30 7874 H 747.338 -0.68806 -0.29083 0
M  V30 7875 H 750 -1.94813 -0.0582749 0
M  V30 7876 H 749.096 -2.83701 -1.30078 0
M  V30 7877 N 749.397 0.351382 -1.53633 0
M  V30 7878 C 750.646 1.08988 -1.69719 0
M  V30 7879 C 750.959 1.90043 -0.462948 0
M  V30 7880 O 752.165 2.66769 -0.504613 0
M  V30 7881 C 750.621 1.98691 -3.00083 0
M  V30 7882 C 750.229 1.22881 -4.30818 0
M  V30 7883 C 751.973 2.72446 -3.25536 0
M  V30 7884 C 749.88 2.11568 -5.52262 0
M  V30 7885 H 748.81 0.410588 -0.632403 0
M  V30 7886 H 751.461 0.349886 -1.80133 0
M  V30 7887 H 749.843 2.76478 -2.83506 0
M  V30 7888 H 751.017 0.500582 -4.58073 0
M  V30 7889 H 749.332 0.60928 -4.11918 0
M  V30 7890 H 751.929 3.39055 -4.13456 0
M  V30 7891 H 752.272 3.38588 -2.42206 0
M  V30 7892 H 752.805 2.01735 -3.42852 0
M  V30 7893 H 749.544 1.4998 -6.38111 0
M  V30 7894 H 749.064 2.82201 -5.29266 0
M  V30 7895 H 750.743 2.70802 -5.87601 0
M  V30 7896 N 750.875 1.45233 0.611969 0
M  V30 7897 C 751.805 1.5641 1.73373 0
M  V30 7898 C 752.786 0.415896 1.64937 0
M  V30 7899 O 753.971 0.638478 1.83404 0
M  V30 7900 C 751.101 1.52627 3.11965 0
M  V30 7901 C 750.055 2.66119 3.35208 0
M  V30 7902 C 749.381 2.4739 4.74028 0
M  V30 7903 C 750.681 4.08157 3.25891 0
M  V30 7904 H 752.375 2.50307 1.64277 0
M  V30 7905 H 749.921 1.20467 0.788904 0
M  V30 7906 H 751.874 1.59043 3.90235 0
M  V30 7907 H 750.598 0.552564 3.21892 0
M  V30 7908 H 749.257 2.59123 2.59327 0
M  V30 7909 H 748.905 1.48168 4.80682 0
M  V30 7910 H 748.605 3.23494 4.90536 0
M  V30 7911 H 750.129 2.55653 5.54503 0
M  V30 7912 H 751.543 4.1642 3.9404 0
M  V30 7913 H 749.94 4.84617 3.5393 0
M  V30 7914 H 751.01 4.30374 2.23397 0
M  V30 7915 N 752.353 -0.854086 1.3245 0
M  V30 7916 C 753.769 -1.14238 1.11453 0
M  V30 7917 C 753.969 -2.01228 -0.10461 0
M  V30 7918 O 753.025 -2.39845 -0.789339 0
M  V30 7919 C 754.338 -1.81916 2.39431 0
M  V30 7920 C 755.886 -1.94549 2.45193 0
M  V30 7921 C 756.361 -2.65642 3.73093 0
M  V30 7922 N 757.852 -2.73167 3.74078 0
M  V30 7923 C 758.587 -3.28828 4.69744 0
M  V30 7924 N 758.083 -3.85295 5.75778 0
M  V30 7925 N 759.876 -3.26936 4.57241 0
M  V30 7926 H 752.027 -0.274786 2.10615 0
M  V30 7927 H 754.29 -0.184375 0.929898 0
M  V30 7928 H 753.996 -1.25452 3.28565 0
M  V30 7929 H 753.87 -2.82068 2.50434 0
M  V30 7930 H 756.257 -2.50172 1.56518 0
M  V30 7931 H 756.338 -0.933914 2.38142 0
M  V30 7932 H 755.982 -2.10683 4.62142 0
M  V30 7933 H 755.912 -3.6724 3.77415 0
M  V30 7934 H 758.403 -2.33108 2.97438 0
M  V30 7935 H 758.716 -4.25925 6.44832 0
M  V30 7936 H 757.061 -3.83625 5.79531 0
M  V30 7937 H 760.252 -2.8207 3.7357 0
M  V30 7938 H 760.425 -3.70014 5.31971 0
M  V30 7939 N 753.831 -1.1567 -1.07043 0
M  V30 7940 C 755.077 -0.9349 -1.79965 0
M  V30 7941 C 755.41 0.536464 -1.86643 0
M  V30 7942 O 754.685 1.39781 -1.35247 0
M  V30 7943 C 754.968 -1.55371 -3.24857 0
M  V30 7944 C 754.821 -3.09589 -3.26305 0
M  V30 7945 C 756.14 -1.24209 -4.22209 0
M  V30 7946 H 753.259 -0.341061 -0.653335 0
M  V30 7947 H 755.901 -1.42883 -1.25237 0
M  V30 7948 H 754.051 -1.13368 -3.71591 0
M  V30 7949 H 755.723 -3.60521 -2.87789 0
M  V30 7950 H 753.966 -3.43315 -2.65174 0
M  V30 7951 H 754.637 -3.48002 -4.28484 0
M  V30 7952 H 757.113 -1.60548 -3.8388 0
M  V30 7953 H 755.989 -1.70119 -5.21872 0
M  V30 7954 H 756.25 -0.15964 -4.41812 0
M  V30 7955 N 755.309 1.25446 -0.953992 0
M  V30 7956 C 756.537 1.97215 -0.625595 0
M  V30 7957 C 756.952 1.70911 0.802168 0
M  V30 7958 O 756.309 0.984782 1.5365 0
M  V30 7959 C 756.36 3.50777 -0.873943 0
M  V30 7960 O 756.081 3.76173 -2.24556 0
M  V30 7961 C 757.582 4.39776 -0.557845 0
M  V30 7962 H 754.802 0.628652 -0.2346 0
M  V30 7963 H 757.346 1.59632 -1.27819 0
M  V30 7964 H 755.501 3.86474 -0.267765 0
M  V30 7965 H 755.915 4.70636 -2.31522 0
M  V30 7966 H 757.389 5.46431 -0.782157 0
M  V30 7967 H 757.866 4.36257 0.507573 0
M  V30 7968 H 758.472 4.09644 -1.14332 0
M  V30 7969 N 756.787 0.722489 1.40064 0
M  V30 7970 C 757.75 0.0830209 2.2905 0
M  V30 7971 C 758.75 -0.680208 1.45705 0
M  V30 7972 O 759.94 -0.511084 1.66534 0
M  V30 7973 C 757.072 -0.892092 3.29021 0
M  V30 7974 H 758.265 0.866848 2.87099 0
M  V30 7975 H 755.818 0.487556 1.48501 0
M  V30 7976 H 756.553 -1.70273 2.76003 0
M  V30 7977 H 756.338 -0.34761 3.90556 0
M  V30 7978 H 757.828 -1.33648 3.95636 0
M  V30 7979 N 758.265 -1.50454 0.469181 0
M  V30 7980 C 759.175 -2.32248 -0.331349 0
M  V30 7981 C 760.191 -1.42548 -0.997807 0
M  V30 7982 O 761.367 -1.75602 -0.9862 0
M  V30 7983 C 758.432 -3.17171 -1.40012 0
M  V30 7984 C 757.493 -4.2269 -0.750463 0
M  V30 7985 C 756.726 -5.03554 -1.76831 0
M  V30 7986 O 756.949 -4.85469 -2.99459 0
M  V30 7987 O 755.883 -5.86767 -1.3412 0
M  V30 7988 H 759.709 -3.01821 0.337279 0
M  V30 7989 H 757.294 -1.47602 0.231066 0
M  V30 7990 H 759.176 -3.69871 -2.01924 0
M  V30 7991 H 757.851 -2.50328 -2.05226 0
M  V30 7992 H 756.758 -3.73986 -0.0924446 0
M  V30 7993 H 758.091 -4.91997 -0.14131 0
M  V30 7994 N 759.743 -0.201713 -1.56304 0
M  V30 7995 C 761.02 0.483273 -1.89536 0
M  V30 7996 C 761.4 1.79176 -1.11621 0
M  V30 7997 O 760.748 2.27445 -0.219339 0
M  V30 7998 C 760.958 0.695604 -3.41998 0
M  V30 7999 C 762.306 1.012 -4.12364 0
M  V30 8000 O 763.33 0.783094 -3.47485 0
M  V30 8001 O 762.189 1.44534 -5.27041 0
M  V30 8002 H 759.283 0.252801 -0.787414 0
M  V30 8003 H 761.829 -0.24242 -1.6796 0
M  V30 8004 H 760.601 -0.228165 -3.90634 0
M  V30 8005 H 760.224 1.47351 -3.69288 0
M  V30 8006 N 761.222 1.57436 0.0718424 0
M  V30 8007 C 762.169 2.03686 1.08539 0
M  V30 8008 C 763.139 0.917474 1.38462 0
M  V30 8009 O 764.324 1.18513 1.4953 0
M  V30 8010 C 761.464 2.48566 2.39393 0
M  V30 8011 C 760.577 3.74122 2.16001 0
M  V30 8012 C 759.712 4.07786 3.40418 0
M  V30 8013 C 758.751 5.26383 3.1239 0
M  V30 8014 N 757.888 5.55685 4.29138 0
M  V30 8015 H 762.728 2.90043 0.684018 0
M  V30 8016 H 760.265 1.43438 0.326183 0
M  V30 8017 H 762.223 2.72639 3.15791 0
M  V30 8018 H 760.853 1.65186 2.77333 0
M  V30 8019 H 759.905 3.57389 1.30296 0
M  V30 8020 H 761.217 4.60659 1.91298 0
M  V30 8021 H 760.371 4.32759 4.25211 0
M  V30 8022 H 759.11 3.19817 3.68197 0
M  V30 8023 H 758.115 5.01206 2.25993 0
M  V30 8024 H 759.34 6.1597 2.85934 0
M  V30 8025 H 757.286 4.70675 4.56948 0
M  V30 8026 H 757.203 6.3664 4.07708 0
M  V30 8027 H 758.471 5.85209 5.14928 0
M  V30 8028 N 762.7 -0.34323 1.53817 0
M  V30 8029 C 763.948 -1.0813 1.70741 0
M  V30 8030 C 764.269 -1.89165 0.473461 0
M  V30 8031 O 763.539 -1.89075 -0.512605 0
M  V30 8032 H 762.119 -0.40219 0.629486 0
M  V30 8033 H 764.781 -0.384426 1.91071 0
M  V30 8034 H 763.877 -1.7585 2.57843 0
M  V30 8035 N 764.178 -1.45556 -0.604258 0
M  V30 8036 C 765.406 -1.53278 -1.38973 0
M  V30 8037 C 765.821 -0.166509 -1.88064 0
M  V30 8038 O 765.178 0.832519 -1.62405 0
M  V30 8039 C 765.229 -2.51992 -2.59195 0
M  V30 8040 O 764.95 -3.8331 -2.12143 0
M  V30 8041 C 766.451 -2.69445 -3.52015 0
M  V30 8042 H 763.671 -0.519003 -0.425297 0
M  V30 8043 H 766.215 -1.90773 -0.736621 0
M  V30 8044 H 764.37 -2.17561 -3.2054 0
M  V30 8045 H 764.784 -4.3685 -2.90279 0
M  V30 8046 H 766.258 -3.42485 -4.32907 0
M  V30 8047 H 766.735 -1.75596 -4.0257 0
M  V30 8048 H 767.341 -3.04886 -2.9652 0
M  V30 8049 N 765.656 0.84705 -1.32902 0
M  V30 8050 C 766.904 1.5986 -1.2365 0
M  V30 8051 C 767.225 1.93974 0.199789 0
M  V30 8052 O 766.495 1.60273 1.12648 0
M  V30 8053 H 765.075 0.592696 -0.454665 0
M  V30 8054 H 767.737 1.01278 -1.66519 0
M  V30 8055 H 766.833 2.53218 -1.82448 0
M  V30 8056 N 767.134 1.16236 1.06428 0
M  V30 8057 C 768.082 0.863669 2.15971 0
M  V30 8058 C 769.076 -0.166723 1.68578 0
M  V30 8059 O 770.282 -0.0208425 1.79988 0
M  V30 8060 H 766.657 0.261684 0.705 0
M  V30 8061 H 768.628 1.79498 2.38376 0
M  V30 8062 C 767.377 0.379697 3.45621 0
M  V30 8063 H 766.7 1.16399 3.82481 0
M  V30 8064 H 768.14 0.209458 4.23482 0
M  V30 8065 C 766.599 -0.900499 3.24642 0
M  V30 8066 O 767.129 -1.97004 3.50074 0
M  V30 8067 N 765.335 -0.843721 2.78082 0
M  V30 8068 H 764.882 0.0268429 2.57586 0
M  V30 8069 H 764.84 -1.70078 2.64425 0
M  V30 8070 N 768.612 -1.24939 0.960631 0
M  V30 8071 C 769.559 -2.25658 0.484459 0
M  V30 8072 C 770.529 -1.59422 -0.466242 0
M  V30 8073 O 771.714 -1.87015 -0.378169 0
M  V30 8074 C 768.854 -3.44359 -0.225958 0
M  V30 8075 C 767.967 -4.25214 0.762682 0
M  V30 8076 C 767.102 -5.31192 0.0290931 0
M  V30 8077 C 766.141 -6.03739 1.00827 0
M  V30 8078 N 765.278 -7.01437 0.305155 0
M  V30 8079 H 770.118 -2.65758 1.34821 0
M  V30 8080 H 767.655 -1.30648 0.675983 0
M  V30 8081 H 769.613 -4.12035 -0.654472 0
M  V30 8082 H 768.243 -3.05118 -1.05371 0
M  V30 8083 H 767.295 -3.57144 1.30966 0
M  V30 8084 H 768.607 -4.75406 1.50964 0
M  V30 8085 H 767.761 -6.04971 -0.457763 0
M  V30 8086 H 766.5 -4.81889 -0.750614 0
M  V30 8087 H 765.505 -5.2877 1.50607 0
M  V30 8088 H 766.73 -6.55131 1.7883 0
M  V30 8089 H 764.676 -6.54415 -0.455704 0
M  V30 8090 H 764.593 -7.49475 0.991104 0
M  V30 8091 H 765.861 -7.79336 -0.159966 0
M  V30 8092 N 770.09 -0.729906 -1.39679 0
M  V30 8093 C 771.038 -0.0756589 -2.32477 0
M  V30 8094 C 772.032 0.731438 -1.52795 0
M  V30 8095 O 773.238 0.633195 -1.68495 0
M  V30 8096 H 769.613 -0.00566492 -0.751979 0
M  V30 8097 H 771.584 -0.874797 -2.85289 0
M  V30 8098 C 770.333 0.821313 -3.37861 0
M  V30 8099 H 769.656 0.209666 -3.9925 0
M  V30 8100 H 771.096 1.24679 -4.05254 0
M  V30 8101 C 769.555 1.9533 -2.74495 0
M  V30 8102 O 770.085 3.04548 -2.61942 0
M  V30 8103 N 768.291 1.74119 -2.3266 0
M  V30 8104 H 767.838 0.852908 -2.4307 0
M  V30 8105 H 767.796 2.50036 -1.90603 0
M  V30 8106 N 771.568 1.50203 -0.477153 0
M  V30 8107 C 772.515 2.28656 0.31386 0
M  V30 8108 C 773.485 1.33977 0.981802 0
M  V30 8109 O 774.67 1.62919 0.993072 0
M  V30 8110 C 771.81 3.16027 1.38639 0
M  V30 8111 C 770.923 4.25743 0.732615 0
M  V30 8112 C 770.058 5.00363 1.78355 0
M  V30 8113 C 769.097 6.01945 1.11035 0
M  V30 8114 N 768.234 6.6982 2.10441 0
M  V30 8115 H 773.074 2.958 -0.361445 0
M  V30 8116 H 770.611 1.45867 -0.190093 0
M  V30 8117 H 772.569 3.6504 2.01994 0
M  V30 8118 H 771.199 2.50917 2.03077 0
M  V30 8119 H 770.251 3.80398 -0.0136546 0
M  V30 8120 H 771.563 4.98393 0.201513 0
M  V30 8121 H 770.717 5.53124 2.49276 0
M  V30 8122 H 769.456 4.27432 2.34847 0
M  V30 8123 H 768.461 5.48438 0.386797 0
M  V30 8124 H 769.686 6.76851 0.552248 0
M  V30 8125 H 767.632 5.99677 2.65939 0
M  V30 8126 H 767.549 7.38366 1.62332 0
M  V30 8127 H 768.817 7.27196 2.80724 0
M  V30 8128 N 773.046 0.209999 1.56195 0
M  V30 8129 C 774.295 -0.425106 1.97169 0
M  V30 8130 C 774.608 -1.61718 1.10031 0
M  V30 8131 O 775.814 -2.32105 1.40853 0
M  V30 8132 C 774.27 -0.80771 3.50719 0
M  V30 8133 C 773.878 0.360902 4.46544 0
M  V30 8134 C 775.622 -1.40906 4.00432 0
M  V30 8135 C 773.529 -0.0434919 5.91384 0
M  V30 8136 H 772.459 -0.162598 0.736259 0
M  V30 8137 H 775.11 0.304382 1.80958 0
M  V30 8138 H 773.492 -1.59429 3.62489 0
M  V30 8139 H 774.666 1.13846 4.46515 0
M  V30 8140 H 772.981 0.874729 4.07109 0
M  V30 8141 H 775.578 -1.72433 5.06133 0
M  V30 8142 H 775.921 -2.32081 3.45607 0
M  V30 8143 H 776.454 -0.686154 3.91838 0
M  V30 8144 H 773.193 0.834448 6.50167 0
M  V30 8145 H 772.713 -0.785598 5.94633 0
M  V30 8146 H 774.392 -0.474176 6.4526 0
M  V30 8147 N 774.524 -1.57472 -0.0634922 0
M  V30 8148 C 775.752 -1.91887 -0.773767 0
M  V30 8149 C 776.167 -0.806733 -1.70696 0
M  V30 8150 O 775.524 0.219383 -1.81177 0
M  V30 8151 C 775.575 -3.26092 -1.56034 0
M  V30 8152 O 775.296 -4.33029 -0.66464 0
M  V30 8153 C 776.797 -3.74573 -2.37087 0
M  V30 8154 H 774.017 -0.634074 -0.219525 0
M  V30 8155 H 776.561 -2.04476 -0.0312828 0
M  V30 8156 H 774.716 -3.15004 -2.25502 0
M  V30 8157 H 775.13 -5.10291 -1.21258 0
M  V30 8158 H 776.604 -4.71084 -2.87722 0
M  V30 8159 H 777.081 -3.04003 -3.16984 0
M  V30 8160 H 777.687 -3.88631 -1.72759 0
M  V30 8161 N 776.003 0.335068 -1.53997 0
M  V30 8162 C 777.252 1.07182 -1.70865 0
M  V30 8163 C 777.565 1.89541 -0.483078 0
M  V30 8164 O 778.771 2.66219 -0.532879 0
M  V30 8165 C 777.227 1.95497 -3.02174 0
M  V30 8166 C 776.835 1.18304 -4.32097 0
M  V30 8167 C 778.579 2.68978 -3.28407 0
M  V30 8168 C 776.486 2.05699 -5.54474 0
M  V30 8169 H 775.416 0.403857 -0.636722 0
M  V30 8170 H 778.067 0.33076 -1.80494 0
M  V30 8171 H 776.449 2.73456 -2.86423 0
M  V30 8172 H 777.623 0.451969 -4.58578 0
M  V30 8173 H 775.938 0.565556 -4.12541 0
M  V30 8174 H 778.535 3.34651 -4.17029 0
M  V30 8175 H 778.878 3.36 -2.45784 0
M  V30 8176 H 779.411 1.98087 -3.44973 0
M  V30 8177 H 776.15 1.43204 -6.39666 0
M  V30 8178 H 775.67 2.76572 -5.32229 0
M  V30 8179 H 777.349 2.64554 -5.90441 0
M  V30 8180 N 777.481 1.45874 0.596531 0
M  V30 8181 C 778.709 1.54013 1.38158 0
M  V30 8182 C 779.124 0.17648 1.87973 0
M  V30 8183 O 778.481 -0.823895 1.62844 0
M  V30 8184 C 778.532 2.53363 2.57855 0
M  V30 8185 O 778.253 3.8443 2.10108 0
M  V30 8186 C 779.754 2.71308 3.50581 0
M  V30 8187 H 776.974 0.521251 0.422538 0
M  V30 8188 H 779.518 1.9116 0.726493 0
M  V30 8189 H 777.673 2.19257 3.19382 0
M  V30 8190 H 778.087 4.38384 2.87958 0
M  V30 8191 H 779.561 3.44776 4.31084 0
M  V30 8192 H 780.038 1.77728 4.01633 0
M  V30 8193 H 780.644 3.06455 2.94899 0
M  V30 8194 N 778.959 -0.83999 1.33349 0
M  V30 8195 C 779.907 -1.97113 1.23488 0
M  V30 8196 C 780.901 -1.68849 0.136503 0
M  V30 8197 O 782.107 -1.77476 0.300389 0
M  V30 8198 H 778.482 -0.647049 0.383185 0
M  V30 8199 H 780.453 -2.02554 2.19122 0
M  V30 8200 C 779.202 -3.33314 0.989815 0
M  V30 8201 H 778.525 -3.556 1.82726 0
M  V30 8202 H 779.965 -4.12963 0.961123 0
M  V30 8203 C 778.424 -3.35496 -0.307272 0
M  V30 8204 O 778.954 -3.79589 -1.31434 0
M  V30 8205 N 777.16 -2.88669 -0.334414 0
M  V30 8206 H 776.707 -2.5298 0.485659 0
M  V30 8207 H 776.665 -2.90512 -1.20209 0
M  V30 8208 N 780.437 -1.16799 -1.0581 0
M  V30 8209 C 781.714 -0.862616 -1.75551 0
M  V30 8210 C 782.094 0.6385 -2.01212 0
M  V30 8211 O 781.442 1.58784 -1.64317 0
M  V30 8212 C 781.652 -1.6907 -3.05314 0
M  V30 8213 C 783 -1.90675 -3.79379 0
M  V30 8214 O 784.024 -1.65976 -3.15167 0
M  V30 8215 O 782.883 -2.32145 -4.94743 0
M  V30 8216 H 779.977 -0.318789 -0.763088 0
M  V30 8217 H 782.523 -1.27461 -1.12034 0
M  V30 8218 H 781.295 -2.70912 -2.82352 0
M  V30 8219 H 780.918 -1.27606 -3.76567 0
M  V30 8220 N 781.915 1.24427 -0.967243 0
M  V30 8221 C 782.847 2.24641 -0.454856 0
M  V30 8222 C 783.86 1.56849 0.436152 0
M  V30 8223 O 785.049 1.76846 0.242401 0
M  V30 8224 C 782.149 3.36954 0.362672 0
M  V30 8225 C 781.322 4.34318 -0.518324 0
M  V30 8226 C 780.381 5.25638 0.243122 0
M  V30 8227 O 779.407 5.68043 -0.362791 0
M  V30 8228 N 780.609 5.59897 1.53282 0
M  V30 8229 H 783.374 2.69238 -1.31648 0
M  V30 8230 H 780.935 1.38464 -0.839015 0
M  V30 8231 H 782.927 3.95014 0.880094 0
M  V30 8232 H 781.497 2.91646 1.12522 0
M  V30 8233 H 780.717 3.74953 -1.21672 0
M  V30 8234 H 782.005 4.96338 -1.11919 0
M  V30 8235 H 781.403 5.27373 2.04682 0
M  V30 8236 H 779.96 6.20488 1.99594 0
M  V30 8237 N 783.393 0.737304 1.3929 0
M  V30 8238 C 784.341 0.0879867 2.32434 0
M  V30 8239 C 785.335 -0.723324 1.53181 0
M  V30 8240 O 786.541 -0.624251 1.68829 0
M  V30 8241 H 782.916 0.00965277 0.751938 0
M  V30 8242 H 784.887 0.889915 2.84821 0
M  V30 8243 C 783.636 -0.803384 3.38291 0
M  V30 8244 H 782.959 -0.18849 3.99355 0
M  V30 8245 H 784.399 -1.22528 4.0591 0
M  V30 8246 C 782.858 -1.93872 2.75527 0
M  V30 8247 O 783.388 -3.03154 2.63553 0
M  V30 8248 N 781.594 -1.72883 2.3358 0
M  V30 8249 H 781.141 -0.840005 2.43519 0
M  V30 8250 H 781.099 -2.49021 1.91927 0
M  V30 8251 N 784.871 -1.49948 0.485112 0
M  V30 8252 C 786.287 -1.58984 0.140096 0
M  V30 8253 C 786.487 -1.49194 -1.35438 0
M  V30 8254 O 785.543 -1.35765 -2.12894 0
M  V30 8255 C 786.856 -2.92372 0.702769 0
M  V30 8256 C 788.404 -3.05801 0.66745 0
M  V30 8257 C 788.879 -4.41785 1.20791 0
M  V30 8258 N 790.37 -4.48234 1.16792 0
M  V30 8259 C 791.105 -5.51871 1.55646 0
M  V30 8260 N 790.601 -6.62692 2.02016 0
M  V30 8261 N 792.394 -5.42494 1.47161 0
M  V30 8262 H 784.545 -1.54555 1.45693 0
M  V30 8263 H 786.808 -0.731206 0.603359 0
M  V30 8264 H 786.514 -3.05056 1.75025 0
M  V30 8265 H 786.388 -3.76885 0.154205 0
M  V30 8266 H 788.775 -2.92757 -0.371157 0
M  V30 8267 H 788.856 -2.23011 1.25298 0
M  V30 8268 H 788.5 -4.55579 2.24522 0
M  V30 8269 H 788.43 -5.23188 0.598464 0
M  V30 8270 H 790.921 -3.68718 0.827982 0
M  V30 8271 H 791.234 -7.3785 2.29775 0
M  V30 8272 H 789.579 -6.63775 2.05979 0
M  V30 8273 H 792.77 -4.54806 1.10765 0
M  V30 8274 H 792.943 -6.2314 1.77766 0
M  V30 8275 N 786.349 -0.21828 -1.56081 0
M  V30 8276 C 787.279 0.687922 -2.23136 0
M  V30 8277 C 788.26 1.20357 -1.202 0
M  V30 8278 O 789.445 1.24817 -1.48776 0
M  V30 8279 C 786.575 1.89762 -2.90874 0
M  V30 8280 C 785.529 1.51595 -4.00254 0
M  V30 8281 C 784.855 2.80415 -4.55271 0
M  V30 8282 C 786.155 0.708404 -5.17474 0
M  V30 8283 H 787.849 0.128854 -2.99123 0
M  V30 8284 H 785.395 0.0605354 -1.43873 0
M  V30 8285 H 787.348 2.53699 -3.36474 0
M  V30 8286 H 786.072 2.4816 -2.1233 0
M  V30 8287 H 784.731 0.900058 -3.55379 0
M  V30 8288 H 784.379 3.36951 -3.73461 0
M  V30 8289 H 784.079 2.55613 -5.2909 0
M  V30 8290 H 785.603 3.453 -5.03587 0
M  V30 8291 H 787.017 1.2514 -5.59476 0
M  V30 8292 H 785.414 0.557593 -5.97504 0
M  V30 8293 H 786.484 -0.285679 -4.84058 0
M  V30 8294 N 787.827 1.57504 0.0551401 0
M  V30 8295 C 789.055 1.92294 0.76358 0
M  V30 8296 C 789.47 0.815774 1.70266 0
M  V30 8297 O 788.827 -0.209772 1.8129 0
M  V30 8298 C 788.878 3.26914 1.54302 0
M  V30 8299 O 788.599 4.33375 0.641666 0
M  V30 8300 C 790.1 3.75825 2.35097 0
M  V30 8301 H 787.32 0.635229 0.216159 0
M  V30 8302 H 789.864 2.0449 0.0204385 0
M  V30 8303 H 788.019 3.16196 2.23828 0
M  V30 8304 H 788.433 5.10927 1.1855 0
M  V30 8305 H 789.907 4.72603 2.8522 0
M  V30 8306 H 790.384 3.0568 3.15367 0
M  V30 8307 H 790.99 3.89542 1.70696 0
M  V30 8308 N 789.305 -0.326896 1.54172 0
M  V30 8309 C 790.716 -0.901533 1.63491 0
M  V30 8310 C 791.067 -1.88994 0.52684 0
M  V30 8311 O 790.192 -2.137 -0.340794 0
M  V30 8312 C 790.787 -1.64192 2.96355 0
M  V30 8313 C 789.346 -2.16533 3.07881 0
M  V30 8314 C 788.493 -0.98966 2.59039 0
M  V30 8315 H 791.444 -0.104568 1.58355 0
M  V30 8316 H 791.465 -2.50592 2.86328 0
M  V30 8317 H 790.977 -0.922291 3.76982 0
M  V30 8318 H 789.078 -2.91622 2.31922 0
M  V30 8319 H 789.191 -2.41762 4.13628 0
M  V30 8320 H 787.555 -1.36787 2.14852 0
M  V30 8321 H 788.338 -0.284401 3.4212 0
M  V30 8322 N 790.784 -1.46188 -0.588786 0
M  V30 8323 C 791.694 -1.58865 -1.72624 0
M  V30 8324 C 792.71 -0.472348 -1.67466 0
M  V30 8325 O 793.886 -0.735638 -1.87484 0
M  V30 8326 C 790.951 -1.56989 -3.0912 0
M  V30 8327 C 790.012 -2.79804 -3.25589 0
M  V30 8328 C 789.245 -2.78009 -4.55573 0
M  V30 8329 O 789.468 -1.86406 -5.39082 0
M  V30 8330 O 788.402 -3.6947 -4.75159 0
M  V30 8331 H 792.228 -2.55047 -1.64878 0
M  V30 8332 H 789.813 -1.28912 -0.755115 0
M  V30 8333 H 791.695 -1.58618 -3.90408 0
M  V30 8334 H 790.37 -0.639648 -3.17317 0
M  V30 8335 H 789.277 -2.83732 -2.43818 0
M  V30 8336 H 790.61 -3.72017 -3.22279 0
M  V30 8337 N 792.262 0.832906 -1.33792 0
M  V30 8338 C 793.172 1.97514 -1.26592 0
M  V30 8339 C 794.188 1.73114 -0.175391 0
M  V30 8340 O 795.364 1.97387 -0.400062 0
M  V30 8341 C 792.429 3.31625 -1.01121 0
M  V30 8342 C 791.49 3.69101 -2.19233 0
M  V30 8343 C 790.723 4.96813 -1.94968 0
M  V30 8344 O 790.946 5.63208 -0.902955 0
M  V30 8345 O 789.88 5.31932 -2.8166 0
M  V30 8346 H 793.706 2.0653 -2.22664 0
M  V30 8347 H 791.291 0.966826 -1.13898 0
M  V30 8348 H 793.173 4.11968 -0.886571 0
M  V30 8349 H 791.848 3.23599 -0.080822 0
M  V30 8350 H 790.755 2.89243 -2.37253 0
M  V30 8351 H 792.088 3.818 -3.10628 0
M  V30 8352 N 793.74 1.17359 1.05189 0
M  V30 8353 C 794.989 0.956412 1.77583 0
M  V30 8354 C 795.302 -0.516018 1.88671 0
M  V30 8355 O 796.508 -0.851401 2.57805 0
M  V30 8356 C 794.964 1.66203 3.19225 0
M  V30 8357 C 794.572 3.17299 3.16267 0
M  V30 8358 C 796.316 1.52725 3.96075 0
M  V30 8359 C 794.223 3.8055 4.52698 0
M  V30 8360 H 793.153 0.354204 0.665624 0
M  V30 8361 H 795.804 1.40612 1.17901 0
M  V30 8362 H 794.186 1.14006 3.79234 0
M  V30 8363 H 795.36 3.76431 2.65776 0
M  V30 8364 H 793.675 3.3079 2.52917 0
M  V30 8365 H 796.272 1.97351 4.96947 0
M  V30 8366 H 796.615 0.477803 4.13549 0
M  V30 8367 H 797.148 2.02139 3.42614 0
M  V30 8368 H 793.887 4.85492 4.4043 0
M  V30 8369 H 793.407 3.26206 5.03339 0
M  V30 8370 H 795.086 3.82757 5.21638 0
M  V30 8371 N 795.218 -1.23913 0.973828 0
M  V30 8372 C 796.128 -2.28838 0.516735 0
M  V30 8373 C 797.144 -1.68723 -0.425282 0
M  V30 8374 O 798.32 -1.99201 -0.296819 0
M  V30 8375 C 795.385 -3.46233 -0.179914 0
M  V30 8376 C 794.446 -4.21729 0.80269 0
M  V30 8377 C 793.679 -5.33518 0.139191 0
M  V30 8378 O 793.902 -5.60252 -1.07118 0
M  V30 8379 O 792.836 -5.96088 0.834447 0
M  V30 8380 H 796.662 -2.70067 1.38916 0
M  V30 8381 H 794.247 -1.2972 0.74115 0
M  V30 8382 H 796.129 -4.17514 -0.570991 0
M  V30 8383 H 794.804 -3.06969 -1.02721 0
M  V30 8384 H 793.711 -3.52799 1.24434 0
M  V30 8385 H 795.044 -4.64825 1.61859 0
M  V30 8386 N 796.696 -0.74468 -1.38897 0
M  V30 8387 C 798.112 -0.421302 -1.53939 0
M  V30 8388 C 798.312 1.06668 -1.70951 0
M  V30 8389 O 797.368 1.85278 -1.71547 0
M  V30 8390 C 798.681 -1.21278 -2.75159 0
M  V30 8391 C 800.229 -1.20196 -2.89001 0
M  V30 8392 C 800.704 -1.97621 -4.13171 0
M  V30 8393 N 802.195 -1.94836 -4.2023 0
M  V30 8394 C 802.93 -2.51545 -5.15279 0
M  V30 8395 N 802.426 -3.1693 -6.16058 0
M  V30 8396 N 804.219 -2.41524 -5.07565 0
M  V30 8397 H 796.37 -1.70914 -1.26103 0
M  V30 8398 H 798.633 -0.724058 -0.611919 0
M  V30 8399 H 798.339 -2.26609 -2.68963 0
M  V30 8400 H 798.213 -0.823677 -3.68097 0
M  V30 8401 H 800.6 -0.156742 -2.94683 0
M  V30 8402 H 800.681 -1.63051 -1.97099 0
M  V30 8403 H 800.325 -3.02149 -4.0825 0
M  V30 8404 H 800.255 -1.52166 -5.04136 0
M  V30 8405 H 802.746 -1.4721 -3.48048 0
M  V30 8406 H 803.059 -3.57644 -6.85062 0
M  V30 8407 H 801.404 -3.21023 -6.16417 0
M  V30 8408 H 804.595 -1.90077 -4.27771 0
M  V30 8409 H 804.768 -2.86016 -5.81462 0
M  V30 8410 N 798.174 1.49689 -0.493057 0
M  V30 8411 C 799.107 2.25712 0.336062 0
M  V30 8412 C 800.085 1.29953 0.977294 0
M  V30 8413 O 801.269 1.59225 1.00895 0
M  V30 8414 C 798.396 3.0501 1.47263 0
M  V30 8415 C 797.442 4.15863 0.946575 0
M  V30 8416 S 798.275 5.35272 -0.156323 0
M  V30 8417 C 799.431 6.18123 0.983601 0
M  V30 8418 H 799.664 2.95688 -0.309215 0
M  V30 8419 H 797.197 1.51872 -0.278238 0
M  V30 8420 H 799.155 3.51284 2.12391 0
M  V30 8421 H 797.816 2.34519 2.08949 0
M  V30 8422 H 797.009 4.70834 1.7981 0
M  V30 8423 H 796.611 3.72139 0.372647 0
M  V30 8424 H 798.903 6.50588 1.89056 0
M  V30 8425 H 799.846 7.06521 0.472687 0
M  V30 8426 H 800.254 5.50547 1.24735 0
M  V30 8427 N 799.652 0.226554 1.55963 0
M  V30 8428 C 800.898 -0.404387 1.98727 0
M  V30 8429 C 801.231 -1.59059 1.11418 0
M  V30 8430 O 800.506 -1.93729 0.172971 0
M  V30 8431 C 800.789 -0.834081 3.50307 0
M  V30 8432 C 800.642 0.356104 4.48388 0
M  V30 8433 C 801.961 -1.68845 4.06423 0
M  V30 8434 H 799.08 -0.145515 0.722492 0
M  V30 8435 H 801.722 0.323791 1.87221 0
M  V30 8436 H 799.872 -1.45454 3.60244 0
M  V30 8437 H 801.544 0.99432 4.50456 0
M  V30 8438 H 799.787 1.0027 4.22053 0
M  V30 8439 H 800.458 0.0124333 5.51999 0
M  V30 8440 H 802.934 -1.16489 3.99461 0
M  V30 8441 H 801.81 -1.958 5.1279 0
M  V30 8442 H 802.071 -2.65347 3.53615 0
M  V30 8443 N 801.13 -1.57531 -0.0467866 0
M  V30 8444 C 802.078 -2.06455 -1.0714 0
M  V30 8445 C 803.072 -0.974744 -1.38546 0
M  V30 8446 O 804.278 -1.15974 -1.37659 0
M  V30 8447 H 800.653 -0.658607 -0.362962 0
M  V30 8448 H 802.624 -2.91613 -0.632813 0
M  V30 8449 C 801.373 -2.54481 -2.36927 0
M  V30 8450 H 800.696 -3.37946 -2.13617 0
M  V30 8451 H 802.136 -2.92442 -3.07007 0
M  V30 8452 C 800.595 -1.43836 -3.04652 0
M  V30 8453 O 801.125 -0.794531 -3.93764 0
M  V30 8454 N 799.331 -1.17727 -2.65686 0
M  V30 8455 H 798.878 -1.70265 -1.93307 0
M  V30 8456 H 798.836 -0.439051 -3.11319 0
M  V30 8457 N 802.608 0.318715 -1.54344 0
M  V30 8458 C 803.885 1.07461 -1.63437 0
M  V30 8459 C 804.265 2.05771 -0.47131 0
M  V30 8460 O 803.613 2.22175 0.53391 0
M  V30 8461 C 803.823 1.77224 -3.00654 0
M  V30 8462 C 805.171 2.30069 -3.56866 0
M  V30 8463 O 806.195 1.87284 -3.0299 0
M  V30 8464 O 805.054 3.08412 -4.51159 0
M  V30 8465 H 802.148 0.495627 -0.66203 0
M  V30 8466 H 804.694 0.318218 -1.6669 0
M  V30 8467 H 803.466 1.05742 -3.76742 0
M  V30 8468 H 803.089 2.59662 -3.01101 0
M  V30 8469 N 804.086 1.46499 0.581025 0
M  V30 8470 C 805.049 1.5677 1.672 0
M  V30 8471 C 806.049 0.444716 1.54528 0
M  V30 8472 O 807.239 0.709074 1.59116 0
M  V30 8473 C 804.371 1.4896 3.06633 0
M  V30 8474 H 805.564 2.54 1.5945 0
M  V30 8475 H 803.117 1.34334 0.799003 0
M  V30 8476 H 803.852 0.530168 3.19937 0
M  V30 8477 H 803.637 2.30439 3.17239 0
M  V30 8478 H 805.127 1.59237 3.86048 0
M  V30 8479 N 805.565 -0.825799 1.34232 0
M  V30 8480 C 806.475 -1.9684 1.27638 0
M  V30 8481 C 807.491 -1.73018 0.184569 0
M  V30 8482 O 808.667 -1.97172 0.410525 0
M  V30 8483 C 805.732 -3.31084 1.02879 0
M  V30 8484 C 804.793 -3.67933 2.21188 0
M  V30 8485 C 804.026 -4.95772 1.976 0
M  V30 8486 O 804.249 -5.62721 0.93281 0
M  V30 8487 O 803.183 -5.30431 2.84477 0
M  V30 8488 H 807.009 -2.05346 2.23756 0
M  V30 8489 H 804.594 -0.960772 1.1441 0
M  V30 8490 H 806.476 -4.11492 0.908406 0
M  V30 8491 H 805.151 -3.23552 0.0979821 0
M  V30 8492 H 804.058 -2.87981 2.38784 0
M  V30 8493 H 805.391 -3.80147 3.12648 0
M  V30 8494 N 807.043 -1.17915 -1.04565 0
M  V30 8495 C 807.99 -0.901605 -2.12461 0
M  V30 8496 C 808.96 0.157011 -1.65356 0
M  V30 8497 O 810.145 0.0184494 -1.90791 0
M  V30 8498 C 807.285 -0.42796 -3.42436 0
M  V30 8499 C 806.398 -1.55142 -4.03181 0
M  V30 8500 C 805.533 -1.03101 -5.21098 0
M  V30 8501 C 804.572 -2.1295 -5.73863 0
M  V30 8502 N 803.709 -1.62339 -6.83074 0
M  V30 8503 H 808.549 -1.82551 -2.3554 0
M  V30 8504 H 806.086 -0.910389 -1.15544 0
M  V30 8505 H 808.044 -0.134859 -4.16982 0
M  V30 8506 H 806.674 0.458977 -3.1952 0
M  V30 8507 H 805.726 -1.96011 -3.26012 0
M  V30 8508 H 807.038 -2.37968 -4.38375 0
M  V30 8509 H 806.192 -0.692132 -6.02739 0
M  V30 8510 H 804.931 -0.17227 -4.87396 0
M  V30 8511 H 803.936 -2.47687 -4.90847 0
M  V30 8512 H 805.161 -2.9925 -6.09611 0
M  V30 8513 H 803.107 -0.787464 -6.51256 0
M  V30 8514 H 803.024 -2.38767 -7.17305 0
M  V30 8515 H 804.292 -1.31363 -7.68351 0
M  V30 8516 N 808.521 1.23394 -0.980386 0
M  V30 8517 C 809.768 1.91809 -0.649261 0
M  V30 8518 C 810.096 1.765 0.817197 0
M  V30 8519 O 809.351 1.11979 1.60497 0
M  V30 8520 C 809.65 3.43542 -0.985588 0
M  V30 8521 C 809.316 3.79031 -2.44225 0
M  V30 8522 C 807.978 3.88429 -2.84035 0
M  V30 8523 C 810.33 3.96145 -3.38702 0
M  V30 8524 C 807.658 4.12368 -4.17336 0
M  V30 8525 C 810.01 4.21583 -4.71646 0
M  V30 8526 C 808.674 4.29203 -5.11215 0
M  V30 8527 H 807.944 0.70188 -0.237581 0
M  V30 8528 H 810.591 1.4642 -1.23424 0
M  V30 8529 H 808.896 3.90503 -0.318521 0
M  V30 8530 H 810.593 3.94708 -0.707596 0
M  V30 8531 H 807.183 3.7229 -2.12362 0
M  V30 8532 H 811.367 3.88274 -3.09123 0
M  V30 8533 H 806.623 4.1649 -4.47601 0
M  V30 8534 H 810.797 4.33769 -5.4481 0
M  V30 8535 H 808.424 4.47505 -6.14527 0
M  V30 8536 N 809.999 0.752036 1.385 0
M  V30 8537 C 810.962 0.131587 2.28822 0
M  V30 8538 C 811.962 -0.649149 1.47115 0
M  V30 8539 O 813.152 -0.475645 1.67581 0
M  V30 8540 C 810.284 -0.822101 3.30839 0
M  V30 8541 H 811.477 0.927551 2.85196 0
M  V30 8542 H 809.03 0.518945 1.47434 0
M  V30 8543 H 809.765 -1.6438 2.79553 0
M  V30 8544 H 809.55 -0.264689 3.91206 0
M  V30 8545 H 811.04 -1.25226 3.98382 0
M  V30 8546 N 811.477 -1.49425 0.500989 0
M  V30 8547 C 812.387 -2.32899 -0.282011 0
M  V30 8548 C 813.403 -1.44632 -0.967346 0
M  V30 8549 O 814.579 -1.77654 -0.94873 0
M  V30 8550 C 811.644 -3.20069 -1.33253 0
M  V30 8551 C 810.705 -4.24186 -0.660636 0
M  V30 8552 C 809.938 -5.07191 -1.6611 0
M  V30 8553 O 810.161 -4.91712 -2.89094 0
M  V30 8554 O 809.095 -5.8948 -1.21643 0
M  V30 8555 H 812.921 -3.01038 0.401224 0
M  V30 8556 H 810.506 -1.47079 0.262323 0
M  V30 8557 H 812.388 -3.74071 -1.94033 0
M  V30 8558 H 811.063 -2.54625 -1.9987 0
M  V30 8559 H 809.97 -3.74098 -0.0130959 0
M  V30 8560 H 811.303 -4.92186 -0.0369179 0
M  V30 8561 N 812.955 -0.234822 -1.55841 0
M  V30 8562 C 813.865 0.680828 -2.24504 0
M  V30 8563 C 814.881 1.20306 -1.25708 0
M  V30 8564 O 816.057 1.24188 -1.58554 0
M  V30 8565 C 813.122 1.86636 -2.92178 0
M  V30 8566 C 812.183 1.3848 -4.06352 0
M  V30 8567 C 811.416 2.51382 -4.70789 0
M  V30 8568 O 811.639 3.69831 -4.34259 0
M  V30 8569 O 810.573 2.21828 -5.59532 0
M  V30 8570 H 814.399 0.12583 -3.03439 0
M  V30 8571 H 811.984 -0.00381817 -1.494 0
M  V30 8572 H 813.866 2.55845 -3.34845 0
M  V30 8573 H 812.541 2.40921 -2.16192 0
M  V30 8574 H 811.448 0.660341 -3.68226 0
M  V30 8575 H 812.781 0.888177 -4.8412 0
M  V30 8576 N 814.433 1.57553 0.0384317 0
M  V30 8577 C 815.71 1.79977 0.766002 0
M  V30 8578 C 816.09 0.830625 1.94072 0
M  V30 8579 O 815.438 -0.129243 2.28134 0
M  V30 8580 C 815.648 3.27434 1.20781 0
M  V30 8581 C 816.996 3.92167 1.62758 0
M  V30 8582 O 818.02 3.31527 1.30263 0
M  V30 8583 O 816.879 4.98917 2.23035 0
M  V30 8584 H 813.973 0.739787 0.369654 0
M  V30 8585 H 816.519 1.69693 0.0159312 0
M  V30 8586 H 815.291 3.89558 0.368792 0
M  V30 8587 H 814.914 3.42571 2.01819 0
M  V30 8588 N 815.911 -0.310526 1.54511 0
M  V30 8589 C 816.858 -1.38264 1.84802 0
M  V30 8590 C 817.828 -1.50808 0.696141 0
M  V30 8591 O 819.013 -1.6582 0.943846 0
M  V30 8592 C 816.153 -2.74422 2.09252 0
M  V30 8593 C 815.266 -2.70405 3.36906 0
M  V30 8594 C 814.401 -3.98495 3.51248 0
M  V30 8595 C 813.44 -3.88836 4.72729 0
M  V30 8596 N 812.577 -5.08683 4.83928 0
M  V30 8597 H 817.417 -1.11732 2.76261 0
M  V30 8598 H 814.954 -0.540609 1.36806 0
M  V30 8599 H 816.912 -3.53593 2.21422 0
M  V30 8600 H 815.542 -2.99235 1.2107 0
M  V30 8601 H 814.594 -1.83151 3.33406 0
M  V30 8602 H 815.906 -2.59155 4.26193 0
M  V30 8603 H 815.06 -4.861 3.63031 0
M  V30 8604 H 813.799 -4.12567 2.60077 0
M  V30 8605 H 812.804 -2.99615 4.60989 0
M  V30 8606 H 814.029 -3.76318 5.65298 0
M  V30 8607 H 811.975 -5.23236 3.95677 0
M  V30 8608 H 811.892 -4.99819 5.67201 0
M  V30 8609 H 813.16 -5.97966 5.00057 0
M  V30 8610 N 817.389 -1.46805 -0.573248 0
M  V30 8611 C 818.336 -1.58084 -1.68161 0
M  V30 8612 C 819.306 -0.424636 -1.6058 0
M  V30 8613 O 820.491 -0.642623 -1.79652 0
M  V30 8614 C 817.631 -1.58601 -3.06496 0
M  V30 8615 C 816.744 -2.85023 -3.24632 0
M  V30 8616 C 815.879 -2.76981 -4.53271 0
M  V30 8617 C 814.918 -3.983 -4.64783 0
M  V30 8618 N 814.055 -3.88589 -5.84759 0
M  V30 8619 H 818.895 -2.52755 -1.57858 0
M  V30 8620 H 816.432 -1.25385 -0.769218 0
M  V30 8621 H 818.39 -1.56885 -3.86579 0
M  V30 8622 H 817.02 -0.674553 -3.15673 0
M  V30 8623 H 816.072 -2.96678 -2.38089 0
M  V30 8624 H 817.384 -3.7491 -3.29004 0
M  V30 8625 H 816.538 -2.73424 -5.41594 0
M  V30 8626 H 815.277 -1.84751 -4.51352 0
M  V30 8627 H 814.282 -4.02179 -3.74876 0
M  V30 8628 H 815.507 -4.91639 -4.68474 0
M  V30 8629 H 813.453 -2.99151 -5.83819 0
M  V30 8630 H 813.37 -4.7214 -5.90441 0
M  V30 8631 H 814.638 -3.89022 -6.75486 0
M  V30 8632 N 818.867 0.818669 -1.34668 0
M  V30 8633 C 819.797 1.94468 -1.29245 0
M  V30 8634 C 820.778 1.69257 -0.169101 0
M  V30 8635 O 821.963 1.90794 -0.362143 0
M  V30 8636 C 819.093 3.31001 -1.05145 0
M  V30 8637 C 818.047 3.70663 -2.13992 0
M  V30 8638 C 817.373 5.05226 -1.75074 0
M  V30 8639 C 818.673 3.82312 -3.55858 0
M  V30 8640 H 820.367 1.99263 -2.2346 0
M  V30 8641 H 817.913 0.957304 -1.07572 0
M  V30 8642 H 819.866 4.09364 -0.999949 0
M  V30 8643 H 818.59 3.26517 -0.0737312 0
M  V30 8644 H 817.249 2.94578 -2.18219 0
M  V30 8645 H 816.897 4.97233 -0.759518 0
M  V30 8646 H 816.597 5.32734 -2.47928 0
M  V30 8647 H 818.121 5.86042 -1.71427 0
M  V30 8648 H 819.535 4.50935 -3.5402 0
M  V30 8649 H 817.932 4.21278 -4.2737 0
M  V30 8650 H 819.002 2.84193 -3.9289 0
M  V30 8651 N 820.346 1.18468 1.03938 0
M  V30 8652 C 821.293 0.912859 2.1198 0
M  V30 8653 C 822.263 -0.14824 1.65437 0
M  V30 8654 O 823.448 -0.008331 1.90798 0
M  V30 8655 C 820.588 0.446114 3.42204 0
M  V30 8656 C 819.701 1.57278 4.02353 0
M  V30 8657 C 818.836 1.05863 5.20544 0
M  V30 8658 C 817.875 2.1599 5.72726 0
M  V30 8659 N 817.012 1.65959 6.82204 0
M  V30 8660 H 821.852 1.83798 2.34569 0
M  V30 8661 H 819.389 0.916504 1.15059 0
M  V30 8662 H 821.347 0.15697 4.16905 0
M  V30 8663 H 819.977 -0.442025 3.19759 0
M  V30 8664 H 819.029 1.97737 3.24968 0
M  V30 8665 H 820.341 2.40289 4.37107 0
M  V30 8666 H 819.495 0.724087 6.02364 0
M  V30 8667 H 818.234 0.198116 4.87297 0
M  V30 8668 H 817.239 2.50287 4.89527 0
M  V30 8669 H 818.464 3.02479 6.08016 0
M  V30 8670 H 816.41 0.82199 6.5083 0
M  V30 8671 H 816.327 2.42567 7.16029 0
M  V30 8672 H 817.595 1.35436 7.67644 0
M  V30 8673 N 821.824 -1.22873 0.986916 0
M  V30 8674 C 822.734 -2.28277 0.540978 0
M  V30 8675 C 823.75 -1.69164 -0.407363 0
M  V30 8676 O 824.926 -1.99504 -0.275674 0
M  V30 8677 C 821.991 -3.46404 -0.143181 0
M  V30 8678 C 821.052 -4.20854 0.847375 0
M  V30 8679 C 820.285 -5.33341 0.19577 0
M  V30 8680 O 820.508 -5.61356 -1.0117 0
M  V30 8681 O 819.442 -5.95169 0.897623 0
M  V30 8682 H 823.268 -2.68578 1.41773 0
M  V30 8683 H 820.853 -1.28927 0.754867 0
M  V30 8684 H 822.735 -4.18096 -0.526676 0
M  V30 8685 H 821.41 -3.08041 -0.994593 0
M  V30 8686 H 820.317 -3.51459 1.28169 0
M  V30 8687 H 821.65 -4.63082 1.6678 0
M  V30 8688 N 823.302 -0.75937 -1.38099 0
M  V30 8689 C 824.718 -0.437606 -1.53483 0
M  V30 8690 C 824.918 1.04849 -1.72072 0
M  V30 8691 O 823.974 1.83448 -1.73502 0
M  V30 8692 C 825.287 -1.24189 -2.73857 0
M  V30 8693 C 826.835 -1.23255 -2.8771 0
M  V30 8694 C 827.31 -2.01992 -4.11051 0
M  V30 8695 N 828.801 -1.99282 -4.1814 0
M  V30 8696 C 829.536 -2.56996 -5.12583 0
M  V30 8697 N 829.032 -3.23446 -6.12662 0
M  V30 8698 N 830.825 -2.46894 -5.04975 0
M  V30 8699 H 822.976 -1.72242 -1.24283 0
M  V30 8700 H 825.239 -0.730507 -0.604205 0
M  V30 8701 H 824.945 -2.29449 -2.66545 0
M  V30 8702 H 824.819 -0.862672 -3.67203 0
M  V30 8703 H 827.206 -0.187988 -2.94501 0
M  V30 8704 H 827.287 -1.65132 -1.95359 0
M  V30 8705 H 826.931 -3.06462 -4.05023 0
M  V30 8706 H 826.861 -1.57505 -5.02494 0
M  V30 8707 H 829.352 -1.50893 -3.46467 0
M  V30 8708 H 829.665 -3.6489 -6.81231 0
M  V30 8709 H 828.01 -3.27543 -6.12977 0
M  V30 8710 H 831.201 -1.94604 -4.25731 0
M  V30 8711 H 831.374 -2.92168 -5.78396 0
M  V30 8712 N 824.78 1.49157 -0.508906 0
M  V30 8713 C 826.029 2.0167 0.0346854 0
M  V30 8714 C 826.342 1.39302 1.37311 0
M  V30 8715 O 827.548 1.83189 2.00385 0
M  V30 8716 C 826.004 3.59725 0.112261 0
M  V30 8717 C 825.612 4.31069 -1.21999 0
M  V30 8718 C 827.356 4.20155 0.605798 0
M  V30 8719 C 825.263 5.81001 -1.10415 0
M  V30 8720 H 824.193 0.753814 0.0167355 0
M  V30 8721 H 826.844 1.7162 -0.649518 0
M  V30 8722 H 825.226 3.86525 0.861087 0
M  V30 8723 H 826.4 4.15962 -1.98273 0
M  V30 8724 H 824.715 3.82418 -1.64759 0
M  V30 8725 H 827.312 5.29964 0.710102 0
M  V30 8726 H 827.655 3.84051 1.60656 0
M  V30 8727 H 828.188 3.97705 -0.0867239 0
M  V30 8728 H 824.927 6.21643 -2.07941 0
M  V30 8729 H 824.447 5.9858 -0.382428 0
M  V30 8730 H 826.126 6.42207 -0.786116 0
M  V30 8731 N 826.258 0.243083 1.55714 0
M  V30 8732 C 827.535 -0.432851 1.90751 0
M  V30 8733 C 827.915 -1.76153 1.16333 0
M  V30 8734 O 827.263 -2.26783 0.279565 0
M  V30 8735 C 827.473 -0.604685 3.43722 0
M  V30 8736 C 828.821 -0.90231 4.14902 0
M  V30 8737 O 829.845 -0.690689 3.49439 0
M  V30 8738 O 828.704 -1.3051 5.30688 0
M  V30 8739 H 825.798 -0.231835 0.79384 0
M  V30 8740 H 828.344 0.286867 1.67258 0
M  V30 8741 H 827.116 0.331655 3.89892 0
M  V30 8742 H 826.739 -1.37509 3.73065 0
M  V30 8743 N 827.736 -1.57571 -0.0300757 0
M  V30 8744 C 828.964 -1.93485 -0.732891 0
M  V30 8745 C 829.379 -0.842758 -1.68947 0
M  V30 8746 O 828.736 0.180904 -1.81601 0
M  V30 8747 C 828.787 -3.29328 -1.49082 0
M  V30 8748 O 828.508 -4.34341 -0.572639 0
M  V30 8749 C 830.009 -3.79517 -2.29088 0
M  V30 8750 H 827.229 -0.638588 -0.206026 0
M  V30 8751 H 829.773 -2.04496 0.0120966 0
M  V30 8752 H 827.928 -3.19716 -2.1877 0
M  V30 8753 H 828.342 -5.12748 -1.10406 0
M  V30 8754 H 829.816 -4.77081 -2.77665 0
M  V30 8755 H 830.293 -3.10659 -3.10464 0
M  V30 8756 H 830.899 -3.92208 -1.64477 0
M  V30 8757 N 829.214 0.302327 -1.54673 0
M  V30 8758 C 830.63 0.647911 -1.45857 0
M  V30 8759 C 830.83 1.90773 -0.64869 0
M  V30 8760 O 829.886 2.52018 -0.155865 0
M  V30 8761 C 831.199 0.802144 -2.89804 0
M  V30 8762 C 832.747 0.898114 -2.99838 0
M  V30 8763 C 833.222 1.08436 -4.44978 0
M  V30 8764 N 834.713 1.15059 -4.48682 0
M  V30 8765 C 835.448 1.31296 -5.58166 0
M  V30 8766 N 834.944 1.4444 -6.77576 0
M  V30 8767 N 836.737 1.34174 -5.45851 0
M  V30 8768 H 828.888 -0.525428 -2.05798 0
M  V30 8769 H 831.151 -0.173423 -0.932002 0
M  V30 8770 H 830.857 -0.0526531 -3.51661 0
M  V30 8771 H 830.731 1.69155 -3.37145 0
M  V30 8772 H 833.118 1.7434 -2.38096 0
M  V30 8773 H 833.199 -0.0152752 -2.55795 0
M  V30 8774 H 832.843 0.243843 -5.07314 0
M  V30 8775 H 832.773 2.01195 -4.8665 0
M  V30 8776 H 835.264 1.0626 -3.62653 0
M  V30 8777 H 835.577 1.56582 -7.56771 0
M  V30 8778 H 833.922 1.41499 -6.80443 0
M  V30 8779 H 837.113 1.23516 -4.5151 0
M  V30 8780 H 837.286 1.46485 -6.31226 0
M  V30 8781 N 830.692 1.47107 0.565454 0
M  V30 8782 C 831.64 1.59368 1.69424 0
M  V30 8783 C 832.634 0.461344 1.62997 0
M  V30 8784 O 833.84 0.638849 1.68282 0
M  V30 8785 H 830.215 0.501387 0.560459 0
M  V30 8786 H 832.186 2.54242 1.56217 0
M  V30 8787 C 830.935 1.61739 3.07792 0
M  V30 8788 H 830.258 2.48215 3.13416 0
M  V30 8789 H 831.698 1.7437 3.86486 0
M  V30 8790 C 830.157 0.349156 3.35086 0
M  V30 8791 O 830.687 -0.553287 3.97871 0
M  V30 8792 N 828.893 0.231723 2.89675 0
M  V30 8793 H 828.44 0.967021 2.3876 0
M  V30 8794 H 828.398 -0.615911 3.08308 0
M  V30 8795 N 832.17 -0.811516 1.35101 0
M  V30 8796 C 833.08 -1.95475 1.29718 0
M  V30 8797 C 834.096 -1.72813 0.202909 0
M  V30 8798 O 835.272 -1.96725 0.431414 0
M  V30 8799 C 832.337 -3.29975 1.06385 0
M  V30 8800 C 831.398 -3.65566 2.25077 0
M  V30 8801 C 830.631 -4.93648 2.02848 0
M  V30 8802 O 830.854 -5.617 0.992442 0
M  V30 8803 O 829.788 -5.27384 2.90087 0
M  V30 8804 H 833.614 -2.02961 2.25921 0
M  V30 8805 H 831.199 -0.948583 1.15422 0
M  V30 8806 H 833.081 -4.10506 0.951999 0
M  V30 8807 H 831.756 -3.2343 0.132294 0
M  V30 8808 H 830.663 -2.85432 2.41825 0
M  V30 8809 H 831.996 -3.7681 3.16662 0
M  V30 8810 N 833.648 -1.19017 -1.03309 0
M  V30 8811 C 834.578 -0.94772 -2.13402 0
M  V30 8812 C 835.559 0.117383 -1.69694 0
M  V30 8813 O 836.744 -0.0367733 -1.94165 0
M  V30 8814 C 833.874 -0.480977 -3.43953 0
M  V30 8815 C 832.828 -1.48743 -4.01322 0
M  V30 8816 C 832.154 -0.877924 -5.27443 0
M  V30 8817 C 833.454 -2.86642 -4.36616 0
M  V30 8818 H 835.148 -1.86846 -2.33942 0
M  V30 8819 H 832.694 -0.899781 -1.12427 0
M  V30 8820 H 834.647 -0.298677 -4.2034 0
M  V30 8821 H 833.371 0.475348 -3.23122 0
M  V30 8822 H 832.03 -1.65681 -3.27025 0
M  V30 8823 H 831.678 0.0858232 -5.02927 0
M  V30 8824 H 831.378 -1.54996 -5.66789 0
M  V30 8825 H 832.902 -0.706326 -6.06501 0
M  V30 8826 H 834.316 -2.73312 -5.03958 0
M  V30 8827 H 832.713 -3.50599 -4.87032 0
M  V30 8828 H 833.783 -3.39617 -3.46105 0
M  V30 8829 N 835.127 1.22348 -0.993418 0
M  V30 8830 C 836.037 2.27987 -0.553076 0
M  V30 8831 C 837.053 1.69378 0.398386 0
M  V30 8832 O 838.229 1.99648 0.26509 0
M  V30 8833 C 835.294 3.46475 0.124809 0
M  V30 8834 C 834.355 4.20399 -0.869682 0
M  V30 8835 C 833.588 5.33229 -0.224052 0
M  V30 8836 O 833.811 5.61885 0.981915 0
M  V30 8837 O 832.745 5.94685 -0.929174 0
M  V30 8838 H 836.571 2.67822 -1.43195 0
M  V30 8839 H 834.156 1.28525 -0.761694 0
M  V30 8840 H 836.038 4.18369 0.504496 0
M  V30 8841 H 834.713 3.08565 0.978243 0
M  V30 8842 H 833.62 3.50774 -1.30031 0
M  V30 8843 H 834.953 4.62191 -1.69233 0
M  V30 8844 N 836.605 0.766683 1.37694 0
M  V30 8845 C 837.83 0.338715 2.04615 0
M  V30 8846 C 838.255 -1.02918 1.57447 0
M  V30 8847 O 837.613 -1.65849 0.732386 0
M  V30 8848 C 837.661 0.385284 3.58536 0
M  V30 8849 O 836.765 -0.616081 4.07772 0
M  V30 8850 H 836.106 0.147527 0.647404 0
M  V30 8851 H 838.636 1.04146 1.7611 0
M  V30 8852 H 838.646 0.240782 4.07289 0
M  V30 8853 H 837.321 1.38325 3.92223 0
M  V30 8854 H 835.898 -0.435115 3.70353 0
M  V30 8855 N 838.083 -1.48885 0.516809 0
M  V30 8856 C 839.313 -2.06592 -0.018375 0
M  V30 8857 C 839.721 -1.37543 -1.29917 0
M  V30 8858 O 839.064 -0.452527 -1.78039 0
M  V30 8859 C 839.126 -3.58016 -0.326315 0
M  V30 8860 C 838.79 -4.48853 0.859072 0
M  V30 8861 C 839.787 -4.89422 1.75391 0
M  V30 8862 C 837.472 -4.90937 1.06235 0
M  V30 8863 C 839.466 -5.70831 2.83604 0
M  V30 8864 C 837.153 -5.72119 2.14763 0
M  V30 8865 C 838.151 -6.11972 3.03281 0
M  V30 8866 O 837.839 -6.91527 4.09934 0
M  V30 8867 H 837.571 -0.675559 0.0244023 0
M  V30 8868 H 840.125 -1.92442 0.718005 0
M  V30 8869 H 838.355 -3.70231 -1.1165 0
M  V30 8870 H 840.044 -3.97898 -0.801999 0
M  V30 8871 H 840.81 -4.57542 1.60875 0
M  V30 8872 H 836.689 -4.59409 0.382677 0
M  V30 8873 H 840.233 -6.01857 3.52724 0
M  V30 8874 H 836.13 -6.03412 2.29268 0
M  V30 8875 H 836.898 -7.0986 4.07482 0
M  V30 8876 N 839.561 -0.251338 -1.55583 0
M  V30 8877 C 840.524 0.63305 -2.20284 0
M  V30 8878 C 841.524 1.09941 -1.17344 0
M  V30 8879 O 842.714 1.00341 -1.42399 0
M  V30 8880 C 839.846 1.8706 -2.84993 0
M  V30 8881 H 841.039 0.0684846 -2.99822 0
M  V30 8882 H 838.592 -0.00181653 -1.563 0
M  V30 8883 H 839.327 2.47629 -2.09405 0
M  V30 8884 H 839.112 1.54436 -3.60405 0
M  V30 8885 H 840.602 2.50004 -3.34496 0
M  V30 8886 N 841.039 1.57585 0.0217189 0
M  V30 8887 C 842.269 1.9359 0.721572 0
M  V30 8888 C 842.677 0.850132 1.69025 0
M  V30 8889 O 842.02 -0.181539 1.82801 0
M  V30 8890 C 842.082 3.25445 1.52729 0
M  V30 8891 C 841.746 4.51251 0.722586 0
M  V30 8892 C 842.743 5.19896 0.0196598 0
M  V30 8893 C 840.428 4.97745 0.674959 0
M  V30 8894 C 842.422 6.33319 -0.720114 0
M  V30 8895 C 840.109 6.11062 -0.068555 0
M  V30 8896 C 841.107 6.78704 -0.764845 0
M  V30 8897 O 840.795 7.89852 -1.49627 0
M  V30 8898 H 840.527 0.643409 0.207366 0
M  V30 8899 H 843.081 2.05391 -0.0189346 0
M  V30 8900 H 841.311 3.0999 2.31178 0
M  V30 8901 H 843 3.46721 2.11044 0
M  V30 8902 H 843.766 4.84977 0.0474394 0
M  V30 8903 H 839.645 4.44934 1.20643 0
M  V30 8904 H 843.189 6.86051 -1.26413 0
M  V30 8905 H 839.086 6.45425 -0.0982318 0
M  V30 8906 H 839.854 8.06251 -1.41071 0
M  V30 8907 N 842.517 -0.29412 1.54831 0
M  V30 8908 C 843.742 -1.05156 1.78765 0
M  V30 8909 C 844.167 -1.79916 0.548809 0
M  V30 8910 O 843.525 -1.74243 -0.500909 0
M  V30 8911 C 843.573 -2.00242 2.99893 0
M  V30 8912 O 842.677 -3.08662 2.73499 0
M  V30 8913 H 842.018 -0.301737 0.591482 0
M  V30 8914 H 844.548 -0.329449 2.0193 0
M  V30 8915 H 844.558 -2.42583 3.28051 0
M  V30 8916 H 843.233 -1.45235 3.89717 0
M  V30 8917 H 841.81 -2.70786 2.56377 0
M  V30 8918 N 843.995 -1.47404 -0.557645 0
M  V30 8919 C 844.925 -1.62736 -1.67449 0
M  V30 8920 C 845.906 -0.476824 -1.6328 0
M  V30 8921 O 847.091 -0.706108 -1.80908 0
M  V30 8922 C 844.221 -1.641 -3.06086 0
M  V30 8923 C 843.175 -2.78377 -3.25101 0
M  V30 8924 C 842.501 -2.64812 -4.6452 0
M  V30 8925 C 843.801 -4.19971 -3.10518 0
M  V30 8926 H 845.495 -2.56232 -1.54873 0
M  V30 8927 H 843.041 -1.23312 -0.743649 0
M  V30 8928 H 844.994 -1.73417 -3.84063 0
M  V30 8929 H 843.718 -0.671652 -3.19619 0
M  V30 8930 H 842.377 -2.6857 -2.49531 0
M  V30 8931 H 842.025 -1.65906 -4.74852 0
M  V30 8932 H 841.725 -3.41477 -4.78191 0
M  V30 8933 H 843.249 -2.76057 -5.44633 0
M  V30 8934 H 844.663 -4.30757 -3.78313 0
M  V30 8935 H 843.06 -4.97419 -3.35699 0
M  V30 8936 H 844.13 -4.38369 -2.0727 0
M  V30 8937 N 845.473 0.80434 -1.35529 0
M  V30 8938 C 846.42 1.91629 -1.28635 0
M  V30 8939 C 847.39 1.65348 -0.157862 0
M  V30 8940 O 848.575 1.87711 -0.341934 0
M  V30 8941 C 845.715 3.28207 -1.0665 0
M  V30 8942 C 844.828 3.66659 -2.28441 0
M  V30 8943 C 843.963 4.92279 -1.99588 0
M  V30 8944 C 843.002 5.23365 -3.1742 0
M  V30 8945 N 842.139 6.40165 -2.88328 0
M  V30 8946 H 846.979 1.96858 -2.23721 0
M  V30 8947 H 844.516 0.962871 -1.11208 0
M  V30 8948 H 846.474 4.06945 -0.919343 0
M  V30 8949 H 845.104 3.22441 -0.152253 0
M  V30 8950 H 844.156 2.83164 -2.54013 0
M  V30 8951 H 845.468 3.8559 -3.1642 0
M  V30 8952 H 844.622 5.78847 -1.81715 0
M  V30 8953 H 843.361 4.75387 -1.08896 0
M  V30 8954 H 842.366 4.35285 -3.35867 0
M  V30 8955 H 843.591 5.42185 -4.08916 0
M  V30 8956 H 841.537 6.24694 -2.00233 0
M  V30 8957 H 841.454 6.59357 -3.69843 0
M  V30 8958 H 842.722 7.29755 -2.74002 0
M  V30 8959 N 846.951 1.19563 1.02676 0
M  V30 8960 C 847.899 0.931942 2.13114 0
M  V30 8961 C 848.893 -0.113007 1.69023 0
M  V30 8962 O 850.099 0.0364298 1.79963 0
M  V30 8963 H 846.474 0.283981 0.696318 0
M  V30 8964 H 848.445 1.86991 2.32545 0
M  V30 8965 C 847.194 0.489461 3.44238 0
M  V30 8966 H 846.517 1.28508 3.78584 0
M  V30 8967 H 847.957 0.34408 4.22602 0
M  V30 8968 C 846.416 -0.796761 3.27343 0
M  V30 8969 O 846.946 -1.85767 3.56165 0
M  V30 8970 N 845.152 -0.754824 2.80626 0
M  V30 8971 H 844.699 0.108778 2.5737 0
M  V30 8972 H 844.657 -1.6158 2.69702 0
M  V30 8973 N 848.429 -1.21819 0.999893 0
M  V30 8974 C 849.361 -2.23356 0.514256 0
M  V30 8975 C 850.374 -1.5795 -0.394413 0
M  V30 8976 O 851.563 -1.77427 -0.195428 0
M  V30 8977 C 848.663 -3.37797 -0.273207 0
M  V30 8978 C 847.836 -4.32791 0.633293 0
M  V30 8979 C 846.895 -5.26098 -0.103673 0
M  V30 8980 O 845.921 -5.66881 0.513269 0
M  V30 8981 N 847.123 -5.63764 -1.38383 0
M  V30 8982 H 849.888 -2.65653 1.3874 0
M  V30 8983 H 847.449 -1.3619 0.875431 0
M  V30 8984 H 849.441 -3.97209 -0.775053 0
M  V30 8985 H 848.011 -2.94527 -1.0475 0
M  V30 8986 H 847.231 -3.71595 1.31571 0
M  V30 8987 H 848.519 -4.93196 1.25039 0
M  V30 8988 H 847.917 -5.32614 -1.90627 0
M  V30 8989 H 846.474 -6.25562 -1.83073 0
M  V30 8990 N 849.908 -0.773975 -1.37286 0
M  V30 8991 C 851.157 -0.335977 -1.98882 0
M  V30 8992 C 851.47 1.09416 -1.62134 0
M  V30 8993 O 852.676 1.63366 -2.1685 0
M  V30 8994 C 851.132 -0.549756 -3.55676 0
M  V30 8995 C 850.74 -1.9903 -4.01361 0
M  V30 8996 C 852.484 -0.175493 -4.24137 0
M  V30 8997 C 850.391 -2.15156 -5.50874 0
M  V30 8998 H 849.321 -0.121877 -0.744085 0
M  V30 8999 H 851.972 -0.953419 -1.56787 0
M  V30 9000 H 850.354 0.137175 -3.95762 0
M  V30 9001 H 851.528 -2.71237 -3.72515 0
M  V30 9002 H 849.843 -2.32137 -3.4569 0
M  V30 9003 H 852.44 -0.274463 -5.33995 0
M  V30 9004 H 852.783 0.874524 -4.07011 0
M  V30 9005 H 853.316 -0.815058 -3.89361 0
M  V30 9006 H 850.055 -3.18485 -5.72929 0
M  V30 9007 H 849.575 -1.47435 -5.81397 0
M  V30 9008 H 851.254 -1.95124 -6.16876 0
M  V30 9009 N 851.386 1.48609 -0.524698 0
M  V30 9010 C 852.634 2.02097 0.0112991 0
M  V30 9011 C 852.955 1.40455 1.35268 0
M  V30 9012 O 852.225 0.56807 1.87483 0
M  V30 9013 H 850.805 0.746966 0.00716426 0
M  V30 9014 H 853.467 1.82378 -0.687329 0
M  V30 9015 H 852.563 3.11855 0.123531 0
M  V30 9016 N 852.864 0.259585 1.55447 0
M  V30 9017 C 854.141 -0.412595 1.91199 0
M  V30 9018 C 854.521 -1.74909 1.18194 0
M  V30 9019 O 853.869 -2.26474 0.303603 0
M  V30 9020 C 854.079 -0.568195 3.44344 0
M  V30 9021 C 855.427 -0.858253 4.15836 0
M  V30 9022 O 856.451 -0.653588 3.50152 0
M  V30 9023 O 855.31 -1.24874 5.32042 0
M  V30 9024 H 852.404 -0.223403 0.796254 0
M  V30 9025 H 854.95 0.30459 1.66944 0
M  V30 9026 H 853.722 0.372989 3.89518 0
M  V30 9027 H 853.345 -1.33544 3.74502 0
M  V30 9028 N 854.342 -1.57594 -0.0133615 0
M  V30 9029 C 855.289 -2.07574 -1.00905 0
M  V30 9030 C 856.259 -0.968231 -1.34961 0
M  V30 9031 O 857.444 -1.23981 -1.45028 0
M  V30 9032 C 854.584 -2.5728 -2.30002 0
M  V30 9033 C 853.697 -3.81881 -2.01967 0
M  V30 9034 C 852.832 -4.20139 -3.25049 0
M  V30 9035 C 851.871 -5.37614 -2.92639 0
M  V30 9036 N 851.008 -5.71229 -4.08218 0
M  V30 9037 H 855.848 -2.92382 -0.575899 0
M  V30 9038 H 853.385 -1.4455 -0.272722 0
M  V30 9039 H 855.343 -2.84171 -3.05454 0
M  V30 9040 H 853.973 -1.75365 -2.71011 0
M  V30 9041 H 853.025 -3.61979 -1.16942 0
M  V30 9042 H 854.337 -4.67441 -1.74069 0
M  V30 9043 H 853.491 -4.48242 -4.08857 0
M  V30 9044 H 852.23 -3.33262 -3.56073 0
M  V30 9045 H 851.235 -5.09248 -2.07235 0
M  V30 9046 H 852.46 -6.26157 -2.62876 0
M  V30 9047 H 850.406 -4.8731 -4.39164 0
M  V30 9048 H 850.323 -6.51333 -3.83799 0
M  V30 9049 H 851.591 -6.03917 -4.92854 0
M  V30 9050 N 855.82 0.285905 -1.54985 0
M  V30 9051 C 856.73 1.37534 -1.90057 0
M  V30 9052 C 857.746 1.54707 -0.796348 0
M  V30 9053 O 858.922 1.69082 -1.09423 0
M  V30 9054 C 855.987 2.7167 -2.15398 0
M  V30 9055 C 855.048 2.63354 -3.39033 0
M  V30 9056 C 854.281 3.91093 -3.63155 0
M  V30 9057 O 854.504 4.91169 -2.90015 0
M  V30 9058 O 853.438 3.92075 -4.56685 0
M  V30 9059 H 857.264 1.10791 -2.8277 0
M  V30 9060 H 854.849 0.483303 -1.41367 0
M  V30 9061 H 856.731 3.51006 -2.33179 0
M  V30 9062 H 855.406 2.98226 -1.25868 0
M  V30 9063 H 854.313 1.82438 -3.26599 0
M  V30 9064 H 855.646 2.41749 -4.2874 0
M  V30 9065 N 857.298 1.47698 0.54982 0
M  V30 9066 C 858.245 1.60739 1.65625 0
M  V30 9067 C 859.215 0.450129 1.59884 0
M  V30 9068 O 860.4 0.671123 1.78607 0
M  V30 9069 C 857.54 1.63457 3.03934 0
M  V30 9070 C 856.653 2.90152 3.20056 0
M  V30 9071 C 855.788 2.84157 4.48807 0
M  V30 9072 C 854.827 4.05644 4.58387 0
M  V30 9073 N 853.964 3.97843 5.78503 0
M  V30 9074 H 858.804 2.55234 1.53817 0
M  V30 9075 H 856.341 1.26593 0.749173 0
M  V30 9076 H 858.299 1.63015 3.84034 0
M  V30 9077 H 856.929 0.724689 3.1456 0
M  V30 9078 H 855.981 3.00428 2.33339 0
M  V30 9079 H 857.293 3.80097 3.22998 0
M  V30 9080 H 856.447 2.82006 5.37175 0
M  V30 9081 H 855.186 1.91908 4.48356 0
M  V30 9082 H 854.191 4.08092 3.6843 0
M  V30 9083 H 855.416 4.9903 4.60593 0
M  V30 9084 H 853.362 3.08401 5.78986 0
M  V30 9085 H 853.279 4.81473 5.82855 0
M  V30 9086 H 854.547 3.99719 6.69212 0
M  V30 9087 N 858.776 -0.797141 1.35954 0
M  V30 9088 C 859.706 -1.92387 1.32323 0
M  V30 9089 C 860.687 -1.68967 0.196007 0
M  V30 9090 O 861.872 -1.90193 0.39245 0
M  V30 9091 C 859.002 -3.29286 1.10398 0
M  V30 9092 C 857.956 -3.67212 2.19862 0
M  V30 9093 C 857.282 -5.02377 1.8309 0
M  V30 9094 C 858.582 -3.76602 3.61896 0
M  V30 9095 H 860.276 -1.95683 2.26602 0
M  V30 9096 H 857.822 -0.94007 1.09081 0
M  V30 9097 H 859.775 -4.07721 1.06495 0
M  V30 9098 H 858.499 -3.26358 0.125668 0
M  V30 9099 H 857.158 -2.91069 2.22878 0
M  V30 9100 H 856.806 -4.95961 0.838527 0
M  V30 9101 H 856.506 -5.28722 2.56372 0
M  V30 9102 H 858.03 -5.8324 1.80729 0
M  V30 9103 H 859.444 -4.45246 3.6115 0
M  V30 9104 H 857.841 -4.14425 4.34018 0
M  V30 9105 H 858.911 -2.77906 3.97361 0
M  V30 9106 N 860.254 -1.20106 -1.0204 0
M  V30 9107 C 861.502 -1.0069 -1.75231 0
M  V30 9108 C 861.823 0.462491 -1.89436 0
M  V30 9109 O 861.093 1.33455 -1.4341 0
M  V30 9110 H 859.673 -0.369576 -0.649171 0
M  V30 9111 H 862.335 -1.51149 -1.23044 0
M  V30 9112 H 861.431 -1.46205 -2.75736 0
M  V30 9113 N 861.732 1.21287 -1.00634 0
M  V30 9114 C 862.98 1.90013 -0.688438 0
M  V30 9115 C 863.301 1.78573 0.783365 0
M  V30 9116 O 862.571 1.1815 1.56261 0
M  V30 9117 H 861.151 0.703336 -0.251648 0
M  V30 9118 H 863.813 1.47346 -1.27574 0
M  V30 9119 H 862.909 2.96879 -0.962781 0
M  V30 9120 N 863.21 0.781244 1.36873 0
M  V30 9121 C 864.157 0.172146 2.30157 0
M  V30 9122 C 865.127 -0.679328 1.51573 0
M  V30 9123 O 866.312 -0.629713 1.80109 0
M  V30 9124 C 863.452 -0.693534 3.38059 0
M  V30 9125 C 862.565 0.175586 4.31643 0
M  V30 9126 C 861.7 -0.695695 5.26625 0
M  V30 9127 C 860.739 0.17538 6.11849 0
M  V30 9128 N 859.876 -0.654416 6.99043 0
M  V30 9129 H 864.716 0.973133 2.81663 0
M  V30 9130 H 862.253 0.491469 1.38647 0
M  V30 9131 H 864.211 -1.21035 3.99257 0
M  V30 9132 H 862.841 -1.46003 2.87894 0
M  V30 9133 H 861.893 0.810295 3.7167 0
M  V30 9134 H 863.205 0.847107 4.91554 0
M  V30 9135 H 862.359 -1.27863 5.93073 0
M  V30 9136 H 861.098 -1.40087 4.67148 0
M  V30 9137 H 860.103 0.77078 5.4437 0
M  V30 9138 H 861.328 0.87803 6.734 0
M  V30 9139 H 859.274 -1.34403 6.42084 0
M  V30 9140 H 859.191 -0.0403998 7.55989 0
M  V30 9141 H 860.459 -1.22144 7.69871 0
M  V30 9142 N 864.689 -1.48329 0.532571 0
M  V30 9143 C 865.619 -2.32485 -0.217511 0
M  V30 9144 C 866.6 -1.42255 -0.932598 0
M  V30 9145 O 867.785 -1.7114 -0.917873 0
M  V30 9146 C 864.915 -3.23509 -1.26329 0
M  V30 9147 C 863.869 -4.22784 -0.666191 0
M  V30 9148 C 863.195 -5.0296 -1.81482 0
M  V30 9149 C 864.495 -5.21031 0.363813 0
M  V30 9150 H 866.189 -2.95445 0.485014 0
M  V30 9151 H 863.735 -1.42075 0.234694 0
M  V30 9152 H 865.688 -3.81211 -1.79601 0
M  V30 9153 H 864.412 -2.58554 -1.99543 0
M  V30 9154 H 863.071 -3.66272 -0.15498 0
M  V30 9155 H 862.719 -4.34427 -2.5354 0
M  V30 9156 H 862.419 -5.70154 -1.4212 0
M  V30 9157 H 863.943 -5.63514 -2.35126 0
M  V30 9158 H 865.357 -5.73241 -0.0819079 0
M  V30 9159 H 863.754 -5.96292 0.674956 0
M  V30 9160 H 864.824 -4.6801 1.26865 0
M  V30 9161 N 866.167 -0.267825 -1.55308 0
M  V30 9162 C 867.392 0.357487 -2.04296 0
M  V30 9163 C 867.817 1.49222 -1.14518 0
M  V30 9164 O 867.175 1.80741 -0.142292 0
M  V30 9165 C 867.223 0.822899 -3.51085 0
M  V30 9166 O 866.327 1.93078 -3.6441 0
M  V30 9167 H 865.668 0.075025 -0.659748 0
M  V30 9168 H 868.198 -0.399996 -2.00652 0
M  V30 9169 H 868.208 1.12059 -3.92309 0
M  V30 9170 H 866.883 -0.0073562 -4.15899 0
M  V30 9171 H 865.46 1.63618 -3.35087 0
M  V30 9172 N 867.645 1.57599 0.00500368 0
M  V30 9173 C 868.87 1.95026 0.705663 0
M  V30 9174 C 869.295 0.869643 1.6679 0
M  V30 9175 O 868.653 -0.172659 1.80476 0
M  V30 9176 C 868.701 3.31545 1.4181 0
M  V30 9177 O 867.805 3.25495 2.53232 0
M  V30 9178 H 867.146 0.636808 0.188074 0
M  V30 9179 H 869.676 2.04547 -0.046696 0
M  V30 9180 H 869.686 3.66996 1.78265 0
M  V30 9181 H 868.361 4.09751 0.712543 0
M  V30 9182 H 866.938 3.01714 2.19142 0
M  V30 9183 N 869.123 -0.277682 1.55134 0
M  V30 9184 C 870.033 -1.36524 1.90783 0
M  V30 9185 C 871.049 -1.54283 0.804542 0
M  V30 9186 O 872.225 -1.68499 1.10318 0
M  V30 9187 C 869.29 -2.70524 2.16835 0
M  V30 9188 C 868.351 -2.61552 3.40424 0
M  V30 9189 C 867.584 -3.89162 3.65224 0
M  V30 9190 O 867.807 -4.89624 2.92616 0
M  V30 9191 O 866.741 -3.89647 4.58758 0
M  V30 9192 H 870.567 -1.0929 2.83354 0
M  V30 9193 H 868.152 -0.475799 1.41621 0
M  V30 9194 H 870.034 -3.49765 2.35038 0
M  V30 9195 H 868.709 -2.97555 1.27448 0
M  V30 9196 H 867.616 -1.80704 3.27562 0
M  V30 9197 H 868.949 -2.39472 4.30016 0
M  V30 9198 N 870.601 -1.47988 -0.541979 0
M  V30 9199 C 871.878 -1.45878 -1.30303 0
M  V30 9200 C 872.258 -0.163931 -2.10463 0
M  V30 9201 O 871.606 0.854479 -2.11922 0
M  V30 9202 C 871.816 -2.71359 -2.19466 0
M  V30 9203 C 873.164 -3.19199 -2.79995 0
M  V30 9204 O 874.188 -2.72193 -2.2976 0
M  V30 9205 O 873.047 -4.00961 -3.71339 0
M  V30 9206 H 870.141 -0.582043 -0.587498 0
M  V30 9207 H 872.687 -1.60207 -0.559623 0
M  V30 9208 H 871.459 -3.57122 -1.59936 0
M  V30 9209 H 871.082 -2.59692 -3.01075 0
M  V30 9210 N 872.079 0.78992 -1.36375 0
M  V30 9211 C 873.026 1.90254 -1.3066 0
M  V30 9212 C 873.996 1.65171 -0.17539 0
M  V30 9213 O 875.181 1.87338 -0.361824 0
M  V30 9214 C 872.321 3.27057 -1.10125 0
M  V30 9215 C 871.434 3.64215 -2.32317 0
M  V30 9216 C 870.569 4.90134 -2.04798 0
M  V30 9217 C 869.608 5.19969 -3.22953 0
M  V30 9218 N 868.745 6.37071 -2.95102 0
M  V30 9219 H 873.585 1.94474 -2.25796 0
M  V30 9220 H 871.122 0.951022 -1.12223 0
M  V30 9221 H 873.08 4.05947 -0.962453 0
M  V30 9222 H 871.71 3.22261 -0.186444 0
M  V30 9223 H 870.762 2.80454 -2.57002 0
M  V30 9224 H 872.074 3.82212 -3.20492 0
M  V30 9225 H 871.228 5.76888 -1.87845 0
M  V30 9226 H 869.967 4.74205 -1.13932 0
M  V30 9227 H 868.972 4.31699 -3.40465 0
M  V30 9228 H 870.197 5.37817 -4.14644 0
M  V30 9229 H 868.143 6.22535 -2.06848 0
M  V30 9230 H 868.06 6.55398 -3.76815 0
M  V30 9231 H 869.328 7.26808 -2.81727 0
M  V30 9232 N 873.557 1.20646 1.01402 0
M  V30 9233 C 874.467 0.973385 2.13453 0
M  V30 9234 C 875.483 -0.0715865 1.73853 0
M  V30 9235 O 876.659 0.116438 2.01063 0
M  V30 9236 C 873.724 0.531285 3.42605 0
M  V30 9237 C 872.785 1.64741 3.96433 0
M  V30 9238 C 872.018 1.22631 5.1942 0
M  V30 9239 O 872.241 0.0960891 5.70319 0
M  V30 9240 O 871.175 2.03474 5.66465 0
M  V30 9241 H 875.001 1.91164 2.35987 0
M  V30 9242 H 872.586 0.990553 1.11841 0
M  V30 9243 H 874.468 0.294095 4.20373 0
M  V30 9244 H 873.143 -0.378358 3.21481 0
M  V30 9245 H 872.05 1.93891 3.19933 0
M  V30 9246 H 873.383 2.53415 4.2195 0
M  V30 9247 N 875.035 -1.20752 1.01276 0
M  V30 9248 C 876.263 -1.94006 0.718976 0
M  V30 9249 C 876.678 -1.74544 -0.719711 0
M  V30 9250 O 876.035 -1.05697 -1.48776 0
M  V30 9251 C 876.086 -3.46208 1.04031 0
M  V30 9252 O 875.807 -3.65031 2.42248 0
M  V30 9253 C 877.308 -4.36614 0.767032 0
M  V30 9254 H 874.528 -0.616743 0.264327 0
M  V30 9255 H 877.072 -1.53352 1.3529 0
M  V30 9256 H 875.227 -3.84756 0.451852 0
M  V30 9257 H 875.641 -4.59054 2.53712 0
M  V30 9258 H 877.115 -5.42076 1.04198 0
M  V30 9259 H 877.592 -4.38182 -0.298851 0
M  V30 9260 H 878.198 -4.03723 1.33746 0
M  V30 9261 N 876.513 -0.788492 -1.36457 0
M  V30 9262 C 877.446 -0.132189 -2.27817 0
M  V30 9263 C 878.424 0.691166 -1.47179 0
M  V30 9264 O 879.608 0.662344 -1.7648 0
M  V30 9265 C 876.735 0.818386 -3.28664 0
M  V30 9266 C 875.781 0.0769392 -4.26431 0
M  V30 9267 S 876.614 -1.24666 -5.20786 0
M  V30 9268 C 877.77 -0.300063 -6.2518 0
M  V30 9269 H 878.003 -0.906824 -2.83132 0
M  V30 9270 H 875.536 -0.582666 -1.42984 0
M  V30 9271 H 877.494 1.36138 -3.87268 0
M  V30 9272 H 876.155 1.56626 -2.72263 0
M  V30 9273 H 875.348 0.79819 -4.97639 0
M  V30 9274 H 874.95 -0.395547 -3.71902 0
M  V30 9275 H 877.242 0.521434 -6.7549 0
M  V30 9276 H 878.185 -0.980808 -7.01274 0
M  V30 9277 H 878.593 0.0961898 -5.64418 0
M  V30 9278 N 877.991 1.48044 -0.54043 0
M  V30 9279 C 878.901 2.33565 0.220163 0
M  V30 9280 C 879.917 1.47146 0.928659 0
M  V30 9281 O 881.093 1.80107 0.901295 0
M  V30 9282 C 878.158 3.2349 1.2472 0
M  V30 9283 C 877.219 4.25789 0.547938 0
M  V30 9284 C 876.452 5.11417 1.52605 0
M  V30 9285 O 876.675 4.99204 2.75956 0
M  V30 9286 O 875.609 5.92498 1.05972 0
M  V30 9287 H 879.435 2.99868 -0.480898 0
M  V30 9288 H 877.02 1.46332 -0.301226 0
M  V30 9289 H 878.902 3.79084 1.84047 0
M  V30 9290 H 877.577 2.59835 1.93048 0
M  V30 9291 H 876.484 3.74001 -0.0860941 0
M  V30 9292 H 877.817 4.92111 -0.0935896 0
M  V30 9293 N 879.47 0.276058 1.55163 0
M  V30 9294 C 880.417 -0.611006 2.22565 0
M  V30 9295 C 881.387 -1.14902 1.19945 0
M  V30 9296 O 882.572 -1.19815 1.48489 0
M  V30 9297 C 879.712 -1.78885 2.95117 0
M  V30 9298 C 878.825 -1.2846 4.12458 0
M  V30 9299 C 877.96 -2.42432 4.72652 0
M  V30 9300 C 876.999 -1.89015 5.82185 0
M  V30 9301 N 876.136 -2.96463 6.36439 0
M  V30 9302 H 880.976 -0.0295849 2.97985 0
M  V30 9303 H 878.513 -0.00283607 1.471 0
M  V30 9304 H 880.471 -2.48121 3.35398 0
M  V30 9305 H 879.101 -2.34229 2.22119 0
M  V30 9306 H 878.153 -0.485312 3.77292 0
M  V30 9307 H 879.465 -0.853358 4.91446 0
M  V30 9308 H 878.619 -3.19659 5.15658 0
M  V30 9309 H 877.358 -2.88872 3.92943 0
M  V30 9310 H 876.363 -1.10267 5.38629 0
M  V30 9311 H 877.588 -1.43509 6.63763 0
M  V30 9312 H 875.534 -3.42283 5.59623 0
M  V30 9313 H 875.451 -2.57759 7.10701 0
M  V30 9314 H 876.719 -3.73663 6.84103 0
M  V30 9315 N 880.948 -1.576 0.00335426 0
M  V30 9316 C 881.911 -2.07576 -0.971838 0
M  V30 9317 C 882.911 -0.985796 -1.27038 0
M  V30 9318 O 884.101 -1.24833 -1.21501 0
M  V30 9319 C 881.233 -2.52003 -2.29581 0
M  V30 9320 H 882.426 -2.95008 -0.539481 0
M  V30 9321 H 879.979 -1.54381 -0.244186 0
M  V30 9322 H 880.714 -1.67825 -2.77498 0
M  V30 9323 H 880.499 -3.31609 -2.09231 0
M  V30 9324 H 881.989 -2.90983 -2.99531 0
M  V30 9325 N 882.426 0.269451 -1.5528 0
M  V30 9326 C 883.672 1.00206 -1.76314 0
M  V30 9327 C 884.005 1.85812 -0.564581 0
M  V30 9328 O 883.28 1.89509 0.437769 0
M  V30 9329 C 883.563 1.88163 -3.07029 0
M  V30 9330 C 883.416 1.05527 -4.37246 0
M  V30 9331 C 884.735 2.8681 -3.33808 0
M  V30 9332 H 881.854 0.36288 -0.641473 0
M  V30 9333 H 884.496 0.274188 -1.88011 0
M  V30 9334 H 882.646 2.50224 -2.97187 0
M  V30 9335 H 884.318 0.455094 -4.5905 0
M  V30 9336 H 882.561 0.358842 -4.32313 0
M  V30 9337 H 883.232 1.70397 -5.25042 0
M  V30 9338 H 885.708 2.34884 -3.43466 0
M  V30 9339 H 884.584 3.45492 -4.26528 0
M  V30 9340 H 884.845 3.62118 -2.5362 0
M  V30 9341 N 883.904 1.48273 0.534124 0
M  V30 9342 C 884.814 1.65162 1.66609 0
M  V30 9343 C 885.83 0.534177 1.65598 0
M  V30 9344 O 887.006 0.804715 1.84625 0
M  V30 9345 C 884.071 1.68354 3.03081 0
M  V30 9346 C 883.132 2.91696 3.1498 0
M  V30 9347 C 882.365 2.94725 4.44941 0
M  V30 9348 O 882.588 2.06285 5.31792 0
M  V30 9349 O 881.522 3.8685 4.61119 0
M  V30 9350 H 885.348 2.60991 1.55298 0
M  V30 9351 H 882.933 1.31626 0.706749 0
M  V30 9352 H 884.815 1.72998 3.84252 0
M  V30 9353 H 883.49 0.756978 3.14725 0
M  V30 9354 H 882.397 2.92586 2.33119 0
M  V30 9355 H 883.73 3.83722 3.0825 0
M  V30 9356 N 885.382 -0.782676 1.36792 0
M  V30 9357 C 886.292 -1.92679 1.33835 0
M  V30 9358 C 887.308 -1.72344 0.23952 0
M  V30 9359 O 888.484 -1.95766 0.473045 0
M  V30 9360 C 885.549 -3.27644 1.1336 0
M  V30 9361 C 884.61 -3.6071 2.32781 0
M  V30 9362 C 883.843 -4.89234 2.13273 0
M  V30 9363 O 884.066 -5.59468 1.11136 0
M  V30 9364 O 883 -5.21112 3.01208 0
M  V30 9365 H 886.826 -1.98124 2.30175 0
M  V30 9366 H 884.411 -0.923887 1.17408 0
M  V30 9367 H 886.293 -4.08394 1.03886 0
M  V30 9368 H 884.968 -3.23076 0.200868 0
M  V30 9369 H 883.875 -2.80238 2.47825 0
M  V30 9370 H 885.208 -3.70008 3.24584 0
M  V30 9371 N 886.86 -1.21182 -1.00761 0
M  V30 9372 C 887.807 -0.968741 -2.09485 0
M  V30 9373 C 888.777 0.104325 -1.65772 0
M  V30 9374 O 889.962 -0.0422587 -1.90753 0
M  V30 9375 C 887.102 -0.536686 -3.40901 0
M  V30 9376 C 886.215 -1.6789 -3.98041 0
M  V30 9377 C 885.35 -1.19627 -5.17555 0
M  V30 9378 C 884.389 -2.31099 -5.66798 0
M  V30 9379 N 883.526 -1.83988 -6.77564 0
M  V30 9380 H 888.366 -1.89952 -2.29613 0
M  V30 9381 H 885.903 -0.946688 -1.12589 0
M  V30 9382 H 887.861 -0.26745 -4.16342 0
M  V30 9383 H 886.491 0.357092 -3.20819 0
M  V30 9384 H 885.543 -2.06284 -3.19611 0
M  V30 9385 H 886.855 -2.51794 -4.30582 0
M  V30 9386 H 886.009 -0.883539 -6.00232 0
M  V30 9387 H 884.748 -0.327244 -4.86601 0
M  V30 9388 H 883.753 -2.63178 -4.82719 0
M  V30 9389 H 884.978 -3.18493 -5.99782 0
M  V30 9390 H 882.924 -0.994257 -6.48422 0
M  V30 9391 H 882.841 -2.61466 -7.09346 0
M  V30 9392 H 884.109 -1.55741 -7.63783 0
M  V30 9393 N 888.338 1.20213 -1.01915 0
M  V30 9394 C 889.587 1.88968 -0.705261 0
M  V30 9395 C 889.9 1.79869 0.768531 0
M  V30 9396 O 891.106 2.43783 1.19508 0
M  V30 9397 C 889.562 3.38911 -1.21109 0
M  V30 9398 C 889.17 3.5659 -2.71197 0
M  V30 9399 C 890.914 4.13204 -0.97275 0
M  V30 9400 C 888.821 5.00372 -3.15248 0
M  V30 9401 H 887.751 0.707715 -0.260107 0
M  V30 9402 H 890.402 1.35977 -1.23217 0
M  V30 9403 H 888.784 3.9124 -0.612152 0
M  V30 9404 H 889.958 3.14635 -3.36662 0
M  V30 9405 H 888.273 2.95671 -2.93202 0
M  V30 9406 H 890.87 5.19221 -1.27726 0
M  V30 9407 H 891.213 4.16201 0.09072 0
M  V30 9408 H 891.746 3.66983 -1.5352 0
M  V30 9409 H 888.485 5.02532 -4.20882 0
M  V30 9410 H 888.005 5.43127 -2.54505 0
M  V30 9411 H 889.684 5.68969 -3.08032 0
M  V30 9412 N 889.816 0.795718 1.36037 0
M  V30 9413 C 890.726 0.199784 2.33748 0
M  V30 9414 C 891.742 -0.651436 1.61345 0
M  V30 9415 O 892.918 -0.565743 1.93291 0
M  V30 9416 C 889.983 -0.650475 3.40543 0
M  V30 9417 C 889.044 0.219974 4.28736 0
M  V30 9418 C 888.277 -0.589798 5.30431 0
M  V30 9419 O 888.5 -1.82532 5.40406 0
M  V30 9420 O 887.434 0.0136187 6.01898 0
M  V30 9421 H 891.26 1.00782 2.8649 0
M  V30 9422 H 888.845 0.557293 1.38617 0
M  V30 9423 H 890.727 -1.13512 4.05824 0
M  V30 9424 H 889.402 -1.4363 2.9009 0
M  V30 9425 H 888.309 0.751516 3.66474 0
M  V30 9426 H 889.642 0.969468 4.82558 0
M  V30 9427 N 891.294 -1.47756 0.548274 0
M  V30 9428 C 892.54 -2.03379 0.0291238 0
M  V30 9429 C 892.895 -1.41603 -1.30255 0
M  V30 9430 O 892.188 -0.559102 -1.83261 0
M  V30 9431 C 892.382 -3.5716 -0.131069 0
M  V30 9432 C 892.211 -4.33846 1.18353 0
M  V30 9433 C 890.981 -4.74087 1.74841 0
M  V30 9434 C 893.179 -4.69535 2.09861 0
M  V30 9435 N 891.161 -5.35382 3.00398 0
M  V30 9436 C 892.532 -5.31039 3.19997 0
M  V30 9437 C 894.587 -4.51464 2.09964 0
M  V30 9438 C 893.29 -5.7638 4.30323 0
M  V30 9439 C 895.316 -4.97798 3.19297 0
M  V30 9440 C 894.678 -5.59343 4.28152 0
M  V30 9441 H 890.777 -0.780229 0.0526037 0
M  V30 9442 H 893.361 -1.80351 0.733593 0
M  V30 9443 H 891.532 -3.79974 -0.804647 0
M  V30 9444 H 893.264 -3.99422 -0.651476 0
M  V30 9445 H 890.019 -4.55764 1.2875 0
M  V30 9446 H 890.443 -5.7058 3.64372 0
M  V30 9447 H 895.085 -4.03246 1.27093 0
M  V30 9448 H 892.803 -6.23594 5.13961 0
M  V30 9449 H 896.389 -4.85593 3.20454 0
M  V30 9450 H 895.269 -5.94544 5.11358 0
M  V30 9451 N 892.772 -0.284283 -1.55015 0
M  V30 9452 C 893.702 0.592663 -2.25853 0
M  V30 9453 C 894.683 1.15151 -1.25197 0
M  V30 9454 O 895.868 1.18395 -1.53936 0
M  V30 9455 C 892.998 1.77254 -2.98661 0
M  V30 9456 C 891.952 1.34482 -4.06323 0
M  V30 9457 C 891.278 2.60853 -4.66754 0
M  V30 9458 C 892.578 0.488288 -5.20013 0
M  V30 9459 H 894.272 0.00187041 -2.994 0
M  V30 9460 H 891.818 -0.000540402 -1.44 0
M  V30 9461 H 893.771 2.39199 -3.46932 0
M  V30 9462 H 892.495 2.38931 -2.22664 0
M  V30 9463 H 891.154 0.748519 -3.58877 0
M  V30 9464 H 890.802 3.20808 -3.87416 0
M  V30 9465 H 890.502 2.32942 -5.39455 0
M  V30 9466 H 892.026 3.23631 -5.1778 0
M  V30 9467 H 893.44 1.01298 -5.6428 0
M  V30 9468 H 891.837 0.303669 -5.99331 0
M  V30 9469 H 892.907 -0.490727 -4.8241 0
M  V30 9470 N 894.251 1.57596 -0.0117121 0
M  V30 9471 C 895.161 2.12596 0.991964 0
M  V30 9472 C 896.177 1.07399 1.36899 0
M  V30 9473 O 897.353 1.39365 1.45394 0
M  V30 9474 C 894.418 2.62796 2.2614 0
M  V30 9475 C 893.479 3.8264 1.94642 0
M  V30 9476 C 892.712 4.30435 3.15533 0
M  V30 9477 O 892.935 3.77495 4.27614 0
M  V30 9478 O 891.869 5.22469 2.98847 0
M  V30 9479 H 895.695 2.98597 0.554371 0
M  V30 9480 H 893.28 1.47947 0.207839 0
M  V30 9481 H 895.162 2.9523 3.00695 0
M  V30 9482 H 893.837 1.79886 2.69114 0
M  V30 9483 H 892.744 3.5516 1.17526 0
M  V30 9484 H 894.077 4.66658 1.56496 0
M  V30 9485 N 895.729 -0.261212 1.5542 0
M  V30 9486 C 896.954 -1.01341 1.80955 0
M  V30 9487 C 897.379 -1.78711 0.586849 0
M  V30 9488 O 896.737 -1.75266 -0.463837 0
M  V30 9489 C 896.785 -1.93835 3.04073 0
M  V30 9490 O 895.889 -3.02791 2.79985 0
M  V30 9491 H 895.23 -0.289123 0.597749 0
M  V30 9492 H 897.76 -0.286543 2.02584 0
M  V30 9493 H 897.77 -2.3557 3.33123 0
M  V30 9494 H 896.445 -1.36936 3.9271 0
M  V30 9495 H 895.022 -2.65287 2.62063 0
M  V30 9496 N 897.207 -1.48554 -0.526253 0
M  V30 9497 C 898.157 -1.59753 -1.62674 0
M  V30 9498 C 899.141 -0.454452 -1.54349 0
M  V30 9499 O 900.333 -0.706091 -1.62306 0
M  V30 9500 C 897.462 -1.64388 -3.01383 0
M  V30 9501 C 896.548 -2.84188 -3.14798 0
M  V30 9502 N 896.939 -4.08564 -2.98176 0
M  V30 9503 C 895.237 -2.81599 -3.45859 0
M  V30 9504 C 895.938 -4.88961 -3.15106 0
M  V30 9505 N 894.914 -4.21848 -3.42849 0
M  V30 9506 H 898.716 -2.5366 -1.48438 0
M  V30 9507 H 896.23 -1.44977 -0.731801 0
M  V30 9508 H 898.227 -1.70505 -3.80439 0
M  V30 9509 H 896.887 -0.716006 -3.16707 0
M  V30 9510 H 897.898 -4.38943 -2.74862 0
M  V30 9511 H 894.575 -1.98083 -3.67518 0
M  V30 9512 H 895.965 -5.97683 -3.0696 0
M  V30 9513 N 898.685 0.775411 -1.37205 0
M  V30 9514 C 899.617 1.89761 -1.28544 0
M  V30 9515 C 900.63 1.61542 -0.201996 0
M  V30 9516 O 901.819 1.72528 -0.457848 0
M  V30 9517 C 898.919 3.24904 -0.963885 0
M  V30 9518 C 898.092 3.80796 -2.15205 0
M  V30 9519 C 897.151 4.94407 -1.80135 0
M  V30 9520 O 896.177 5.10185 -2.52388 0
M  V30 9521 N 897.379 5.75722 -0.743298 0
M  V30 9522 H 900.144 1.97708 -2.25237 0
M  V30 9523 H 897.705 0.954348 -1.30782 0
M  V30 9524 H 899.697 3.9842 -0.710182 0
M  V30 9525 H 898.267 3.12483 -0.085632 0
M  V30 9526 H 897.487 2.99101 -2.56773 0
M  V30 9527 H 898.775 4.1487 -2.94552 0
M  V30 9528 H 898.173 5.65518 -0.143655 0
M  V30 9529 H 896.73 6.4948 -0.549446 0
M  V30 9530 N 900.163 1.21714 1.00117 0
M  V30 9531 C 901.44 0.945391 1.71236 0
M  V30 9532 C 901.82 -0.541772 2.0403 0
M  V30 9533 O 901.168 -1.50763 1.71705 0
M  V30 9534 C 901.378 1.83444 2.96899 0
M  V30 9535 C 902.726 2.08558 3.69849 0
M  V30 9536 O 903.75 1.80824 3.06889 0
M  V30 9537 O 902.609 2.55485 4.83104 0
M  V30 9538 H 899.703 0.354834 0.747009 0
M  V30 9539 H 902.249 1.32661 1.05825 0
M  V30 9540 H 901.021 2.84075 2.69105 0
M  V30 9541 H 900.644 1.45428 3.70049 0
M  V30 9542 N 901.641 -1.19671 1.02551 0
M  V30 9543 C 902.604 -2.20987 0.608055 0
M  V30 9544 C 903.604 -1.5745 -0.326534 0
M  V30 9545 O 904.794 -1.73827 -0.114003 0
M  V30 9546 C 901.926 -3.4072 -0.11074 0
M  V30 9547 H 903.119 -2.59434 1.50446 0
M  V30 9548 H 900.672 -1.3329 0.816307 0
M  V30 9549 H 901.407 -3.07787 -1.02165 0
M  V30 9550 H 901.192 -3.88069 0.560772 0
M  V30 9551 H 902.682 -4.15776 -0.389848 0
M  V30 9552 N 903.119 -0.802921 -1.35613 0
M  V30 9553 C 904.396 -0.304993 -1.93208 0
M  V30 9554 C 904.776 1.20488 -1.73337 0
M  V30 9555 O 904.124 2.00268 -1.10022 0
M  V30 9556 C 904.334 -0.712383 -3.41652 0
M  V30 9557 C 905.682 -0.699785 -4.18794 0
M  V30 9558 O 906.706 -0.653698 -3.5015 0
M  V30 9559 O 905.565 -0.754842 -5.41262 0
M  V30 9560 H 902.659 -0.0789127 -0.823226 0
M  V30 9561 H 905.205 -0.886372 -1.44712 0
M  V30 9562 H 903.977 -1.75316 -3.49829 0
M  V30 9563 H 903.6 -0.105614 -3.9746 0
M  V30 9564 N 904.597 1.47463 -0.556102 0
M  V30 9565 C 905.846 2.01678 -0.029492 0
M  V30 9566 C 906.159 1.436 1.32809 0
M  V30 9567 O 907.365 1.89472 1.94455 0
M  V30 9568 C 905.821 3.599 -0.00223937 0
M  V30 9569 C 905.429 4.26969 -1.35651 0
M  V30 9570 C 907.173 4.2187 0.471822 0
M  V30 9571 C 905.08 5.77194 -1.28843 0
M  V30 9572 H 904.01 0.753965 -0.00725504 0
M  V30 9573 H 906.661 1.69467 -0.703789 0
M  V30 9574 H 905.043 3.89068 0.737682 0
M  V30 9575 H 906.217 4.09444 -2.11406 0
M  V30 9576 H 904.532 3.76983 -1.76842 0
M  V30 9577 H 907.129 5.31955 0.541139 0
M  V30 9578 H 907.472 3.88968 1.48356 0
M  V30 9579 H 908.005 3.97228 -0.213207 0
M  V30 9580 H 904.744 6.14713 -2.27613 0
M  V30 9581 H 904.264 5.9706 -0.572668 0
M  V30 9582 H 905.943 6.3938 -0.990031 0
M  V30 9583 N 906.075 0.2925 1.54862 0
M  V30 9584 C 906.985 -0.597036 2.26876 0
M  V30 9585 C 908.001 -1.15558 1.30086 0
M  V30 9586 O 909.177 -1.18217 1.63054 0
M  V30 9587 C 906.242 -1.75664 2.98903 0
M  V30 9588 C 905.303 -1.23303 4.11212 0
M  V30 9589 C 904.536 -2.33736 4.79795 0
M  V30 9590 O 904.759 -3.53459 4.47686 0
M  V30 9591 O 903.693 -2.00908 5.67379 0
M  V30 9592 H 907.519 -0.0131242 3.03697 0
M  V30 9593 H 905.104 0.0592642 1.49282 0
M  V30 9594 H 906.986 -2.43241 3.4411 0
M  V30 9595 H 905.661 -2.32731 2.24984 0
M  V30 9596 H 904.568 -0.523222 3.70423 0
M  V30 9597 H 905.901 -0.707887 4.87083 0
M  V30 9598 N 907.553 -1.57587 0.0200696 0
M  V30 9599 C 908.83 -1.82696 -0.698677 0
M  V30 9600 C 909.21 -0.902082 -1.90855 0
M  V30 9601 O 908.558 0.0444834 -2.28457 0
M  V30 9602 C 908.768 -3.31691 -1.08546 0
M  V30 9603 C 910.116 -3.97938 -1.4809 0
M  V30 9604 O 911.14 -3.36133 -1.17869 0
M  V30 9605 O 909.999 -5.06851 -2.04364 0
M  V30 9606 H 907.093 -0.752997 -0.341942 0
M  V30 9607 H 909.639 -1.69635 0.04706 0
M  V30 9608 H 908.411 -3.90659 -0.223956 0
M  V30 9609 H 908.034 -3.49825 -1.88965 0
M  V30 9610 N 909.032 0.252966 -1.55557 0
M  V30 9611 C 910.279 0.981852 -1.77104 0
M  V30 9612 C 910.607 1.85547 -0.583305 0
M  V30 9613 O 909.862 1.90836 0.43359 0
M  V30 9614 C 910.161 1.87785 -3.04091 0
M  V30 9615 C 909.827 1.16009 -4.35721 0
M  V30 9616 C 908.489 0.961697 -4.71492 0
M  V30 9617 C 910.841 0.650884 -5.1712 0
M  V30 9618 C 908.169 0.241704 -5.86202 0
M  V30 9619 C 910.521 -0.0556124 -6.32576 0
M  V30 9620 C 909.185 -0.265536 -6.66972 0
M  V30 9621 H 908.455 0.359285 -0.64807 0
M  V30 9622 H 911.102 0.252443 -1.89829 0
M  V30 9623 H 909.407 2.67412 -2.86353 0
M  V30 9624 H 911.104 2.44339 -3.17961 0
M  V30 9625 H 907.694 1.32465 -4.07616 0
M  V30 9626 H 911.878 0.791719 -4.89944 0
M  V30 9627 H 907.134 0.0685292 -6.11362 0
M  V30 9628 H 911.308 -0.457839 -6.94893 0
M  V30 9629 H 908.935 -0.8254 -7.55706 0
M  V30 9630 N 910.51 1.48831 0.518367 0
M  V30 9631 C 911.457 1.64216 1.62178 0
M  V30 9632 C 912.427 0.483942 1.58894 0
M  V30 9633 O 913.612 0.708857 1.77144 0
M  V30 9634 C 910.752 1.69867 3.00399 0
M  V30 9635 C 909.865 2.96875 3.1383 0
M  V30 9636 C 909 2.93613 4.42679 0
M  V30 9637 C 908.039 4.15276 4.4968 0
M  V30 9638 N 907.176 4.10024 5.69934 0
M  V30 9639 H 912.016 2.58439 1.48368 0
M  V30 9640 H 909.553 1.28154 0.722152 0
M  V30 9641 H 911.511 1.71124 3.8049 0
M  V30 9642 H 910.141 0.791249 3.12952 0
M  V30 9643 H 909.193 3.0531 2.26914 0
M  V30 9644 H 910.505 3.86863 3.14863 0
M  V30 9645 H 909.659 2.93337 5.31073 0
M  V30 9646 H 908.398 2.01375 4.44184 0
M  V30 9647 H 907.403 4.15816 3.59691 0
M  V30 9648 H 908.628 5.08687 4.49904 0
M  V30 9649 H 906.574 3.20613 5.72314 0
M  V30 9650 H 906.491 4.93728 5.72511 0
M  V30 9651 H 907.759 4.13824 6.60583 0
M  V30 9652 N 911.988 -0.768124 1.37614 0
M  V30 9653 C 912.951 -1.86314 1.3349 0
M  V30 9654 C 913.951 -1.59025 0.23823 0
M  V30 9655 O 915.141 -1.6704 0.494288 0
M  V30 9656 C 912.273 -3.23519 1.07462 0
M  V30 9657 H 913.466 -1.91382 2.30896 0
M  V30 9658 H 911.019 -0.968267 1.22696 0
M  V30 9659 H 911.754 -3.24127 0.106028 0
M  V30 9660 H 911.539 -3.44719 1.86846 0
M  V30 9661 H 913.029 -4.03597 1.07236 0
M  V30 9662 N 913.466 -1.22244 -0.994698 0
M  V30 9663 C 914.413 -0.990906 -2.08446 0
M  V30 9664 C 915.383 0.086737 -1.65873 0
M  V30 9665 O 916.568 -0.0624882 -1.90698 0
M  V30 9666 C 913.708 -0.572813 -3.40313 0
M  V30 9667 C 912.821 -1.72103 -3.96238 0
M  V30 9668 C 911.956 -1.2511 -5.16257 0
M  V30 9669 C 910.995 -2.37098 -5.64315 0
M  V30 9670 N 910.132 -1.91164 -6.75574 0
M  V30 9671 H 914.972 -1.92377 -2.27585 0
M  V30 9672 H 912.509 -0.958576 -1.11578 0
M  V30 9673 H 914.467 -0.311594 -4.16035 0
M  V30 9674 H 913.097 0.323044 -3.21179 0
M  V30 9675 H 912.149 -2.09662 -3.17405 0
M  V30 9676 H 913.461 -2.56347 -4.27888 0
M  V30 9677 H 912.615 -0.947152 -5.99261 0
M  V30 9678 H 911.354 -0.378836 -4.86226 0
M  V30 9679 H 910.359 -2.68283 -4.799 0
M  V30 9680 H 911.584 -3.24837 -5.96371 0
M  V30 9681 H 909.53 -1.06298 -6.47331 0
M  V30 9682 H 909.447 -2.68975 -7.06533 0
M  V30 9683 H 910.715 -1.63833 -7.62088 0
M  V30 9684 N 914.944 1.19125 -1.03184 0
M  V30 9685 C 915.891 2.2245 -0.6152 0
M  V30 9686 C 916.861 1.61869 0.372502 0
M  V30 9687 O 918.046 1.88901 0.268491 0
M  V30 9688 C 915.186 3.45091 0.0248027 0
M  V30 9689 C 914.299 4.20044 -1.0093 0
M  V30 9690 C 913.434 5.30119 -0.338744 0
M  V30 9691 C 912.473 5.96833 -1.35855 0
M  V30 9692 N 911.61 6.98464 -0.713594 0
M  V30 9693 H 916.45 2.57445 -1.50086 0
M  V30 9694 H 913.987 1.26485 -0.751005 0
M  V30 9695 H 915.945 4.15149 0.413131 0
M  V30 9696 H 914.575 3.10742 0.874028 0
M  V30 9697 H 913.627 3.48901 -1.51566 0
M  V30 9698 H 914.939 4.65796 -1.78425 0
M  V30 9699 H 914.093 6.0661 0.104269 0
M  V30 9700 H 912.832 4.85446 0.468382 0
M  V30 9701 H 911.837 5.1909 -1.81179 0
M  V30 9702 H 913.062 6.4359 -2.16722 0
M  V30 9703 H 911.008 6.55959 0.0733863 0
M  V30 9704 H 910.925 7.42422 -1.42638 0
M  V30 9705 H 912.193 7.78943 -0.294681 0
M  V30 9706 N 916.422 0.810101 1.35185 0
M  V30 9707 C 917.369 0.220927 2.2974 0
M  V30 9708 C 918.339 -0.647024 1.5298 0
M  V30 9709 O 919.524 -0.591367 1.81404 0
M  V30 9710 C 916.664 -0.62167 3.39454 0
M  V30 9711 C 915.777 0.267104 4.31173 0
M  V30 9712 C 914.912 -0.583833 5.27982 0
M  V30 9713 C 913.951 0.305123 6.11339 0
M  V30 9714 N 913.088 -0.505992 7.00274 0
M  V30 9715 H 917.928 1.03266 2.79536 0
M  V30 9716 H 915.465 0.520768 1.37573 0
M  V30 9717 H 917.423 -1.12539 4.01735 0
M  V30 9718 H 916.053 -1.39863 2.90926 0
M  V30 9719 H 915.105 0.88895 3.69867 0
M  V30 9720 H 916.417 0.951182 4.89647 0
M  V30 9721 H 915.571 -1.15254 5.95652 0
M  V30 9722 H 914.31 -1.30146 4.70014 0
M  V30 9723 H 913.315 0.886075 5.42613 0
M  V30 9724 H 914.54 1.02067 6.71386 0
M  V30 9725 H 912.486 -1.20753 6.4479 0
M  V30 9726 H 912.403 0.119966 7.55905 0
M  V30 9727 H 913.671 -1.05787 7.72288 0
M  V30 9728 N 917.9 -1.47166 0.563914 0
M  V30 9729 C 918.81 -2.33885 -0.182977 0
M  V30 9730 C 919.826 -1.48605 -0.905132 0
M  V30 9731 O 921.002 -1.81518 -0.872527 0
M  V30 9732 C 918.067 -3.25433 -1.19558 0
M  V30 9733 C 917.128 -4.26607 -0.480129 0
M  V30 9734 C 916.361 -5.1378 -1.44449 0
M  V30 9735 O 916.584 -5.03531 -2.67979 0
M  V30 9736 O 915.518 -5.94109 -0.965321 0
M  V30 9737 H 919.344 -2.99065 0.528544 0
M  V30 9738 H 916.929 -1.45834 0.324468 0
M  V30 9739 H 918.811 -3.81964 -1.77993 0
M  V30 9740 H 917.486 -2.62873 -1.8889 0
M  V30 9741 H 916.393 -3.73817 0.145583 0
M  V30 9742 H 917.726 -4.919 0.171868 0
M  V30 9743 N 919.378 -0.300708 -1.54705 0
M  V30 9744 C 920.308 0.568675 -2.26469 0
M  V30 9745 C 921.289 1.13817 -1.26411 0
M  V30 9746 O 922.474 1.16756 -1.55183 0
M  V30 9747 C 919.604 1.74077 -3.00524 0
M  V30 9748 C 918.558 1.30165 -4.07727 0
M  V30 9749 C 917.884 2.55888 -4.69495 0
M  V30 9750 C 919.184 0.433106 -5.20501 0
M  V30 9751 H 920.878 -0.0298851 -2.99385 0
M  V30 9752 H 918.424 -0.0158135 -1.43991 0
M  V30 9753 H 920.377 2.35506 -3.49449 0
M  V30 9754 H 919.101 2.36556 -2.25186 0
M  V30 9755 H 917.76 0.710414 -3.59651 0
M  V30 9756 H 917.408 3.16681 -3.90797 0
M  V30 9757 H 917.108 2.27207 -5.41895 0
M  V30 9758 H 918.632 3.18121 -5.21183 0
M  V30 9759 H 920.046 0.95307 -5.65322 0
M  V30 9760 H 918.443 0.240085 -5.9962 0
M  V30 9761 H 919.513 -0.541866 -4.81863 0
M  V30 9762 N 920.856 1.57574 -0.0284266 0
M  V30 9763 C 921.766 2.13637 0.96936 0
M  V30 9764 C 922.782 1.08845 1.35752 0
M  V30 9765 O 923.958 1.40899 1.43908 0
M  V30 9766 C 921.023 2.65179 2.2334 0
M  V30 9767 C 920.084 3.84683 1.90572 0
M  V30 9768 C 919.317 4.33758 3.1095 0
M  V30 9769 O 919.54 3.82009 4.23586 0
M  V30 9770 O 918.474 5.2561 2.93288 0
M  V30 9771 H 922.3 2.99169 0.52267 0
M  V30 9772 H 919.885 1.48159 0.192135 0
M  V30 9773 H 921.767 2.98402 2.97547 0
M  V30 9774 H 920.442 1.82731 2.67191 0
M  V30 9775 H 919.349 3.56386 1.13753 0
M  V30 9776 H 920.682 4.68292 1.51538 0
M  V30 9777 N 922.334 -0.244713 1.55689 0
M  V30 9778 C 923.244 -1.32447 1.93636 0
M  V30 9779 C 924.26 -1.52541 0.837086 0
M  V30 9780 O 925.436 -1.66121 1.13867 0
M  V30 9781 C 922.501 -2.65864 2.22525 0
M  V30 9782 C 921.562 -2.54273 3.45896 0
M  V30 9783 C 920.795 -3.81327 3.73397 0
M  V30 9784 O 921.018 -4.83307 3.02936 0
M  V30 9785 O 919.952 -3.79829 4.66919 0
M  V30 9786 H 923.778 -1.03255 2.85608 0
M  V30 9787 H 921.363 -0.445652 1.42598 0
M  V30 9788 H 923.245 -3.447 2.42404 0
M  V30 9789 H 921.92 -2.94784 1.33731 0
M  V30 9790 H 920.827 -1.73715 3.31321 0
M  V30 9791 H 922.16 -2.30297 4.34999 0
M  V30 9792 N 923.813 -1.49104 -0.510467 0
M  V30 9793 C 925.062 -1.57362 -1.26175 0
M  V30 9794 C 925.375 -0.261218 -1.93848 0
M  V30 9795 O 926.581 -0.222238 -2.70589 0
M  V30 9796 C 925.037 -2.77606 -2.29048 0
M  V30 9797 C 924.645 -4.15567 -1.67357 0
M  V30 9798 C 926.389 -2.95188 -3.05064 0
M  V30 9799 C 924.296 -5.27046 -2.68285 0
M  V30 9800 H 923.226 -0.585887 -0.474608 0
M  V30 9801 H 925.877 -1.75474 -0.536753 0
M  V30 9802 H 924.259 -2.52968 -3.04669 0
M  V30 9803 H 925.433 -4.50304 -0.977924 0
M  V30 9804 H 923.748 -4.03264 -1.03765 0
M  V30 9805 H 926.345 -3.75643 -3.80521 0
M  V30 9806 H 926.688 -2.05385 -3.62108 0
M  V30 9807 H 927.221 -3.19821 -2.36558 0
M  V30 9808 H 923.96 -6.18878 -2.16034 0
M  V30 9809 H 923.48 -4.96774 -3.36118 0
M  V30 9810 H 925.159 -5.55983 -3.30896 0
M  V30 9811 N 925.291 0.760815 -1.38019 0
M  V30 9812 C 926.537 1.52198 -1.34028 0
M  V30 9813 C 926.87 1.94067 0.0718309 0
M  V30 9814 O 926.145 1.64895 1.0315 0
M  V30 9815 C 926.428 2.77954 -2.2894 0
M  V30 9816 C 926.281 2.42269 -3.7898 0
M  V30 9817 C 927.6 3.79943 -2.22107 0
M  V30 9818 H 924.719 0.552131 -0.488181 0
M  V30 9819 H 927.361 0.871971 -1.6881 0
M  V30 9820 H 925.511 3.33419 -1.9941 0
M  V30 9821 H 927.183 1.92635 -4.19153 0
M  V30 9822 H 925.426 1.74822 -3.97014 0
M  V30 9823 H 926.097 3.32211 -4.4084 0
M  V30 9824 H 928.573 3.34 -2.4816 0
M  V30 9825 H 927.449 4.6564 -2.90639 0
M  V30 9826 H 927.71 4.25004 -1.21753 0
M  V30 9827 N 926.769 1.22769 0.988202 0
M  V30 9828 C 927.701 0.959757 2.08138 0
M  V30 9829 C 928.714 -0.0633787 1.62677 0
M  V30 9830 O 929.903 0.171203 1.77677 0
M  V30 9831 C 927.003 0.422724 3.36253 0
M  V30 9832 C 926.176 1.50419 4.10722 0
M  V30 9833 C 925.235 0.973407 5.17118 0
M  V30 9834 O 924.261 1.66066 5.44436 0
M  V30 9835 N 925.463 -0.202787 5.80146 0
M  V30 9836 H 928.228 1.9009 2.31702 0
M  V30 9837 H 925.789 1.13522 1.15431 0
M  V30 9838 H 927.781 0.0528514 4.04665 0
M  V30 9839 H 926.351 -0.423642 3.09716 0
M  V30 9840 H 925.571 2.04718 3.36874 0
M  V30 9841 H 926.859 2.23169 4.57245 0
M  V30 9842 H 926.257 -0.777856 5.60327 0
M  V30 9843 H 924.814 -0.513998 6.4977 0
M  V30 9844 N 928.247 -1.18576 1.03814 0
M  V30 9845 C 929.658 -1.70159 0.768299 0
M  V30 9846 C 930.009 -1.8286 -0.711106 0
M  V30 9847 O 929.134 -1.5063 -1.55369 0
M  V30 9848 C 929.729 -3.09062 1.38804 0
M  V30 9849 C 928.288 -3.57866 1.16656 0
M  V30 9850 C 927.435 -2.34484 1.48029 0
M  V30 9851 H 930.386 -1.03287 1.20488 0
M  V30 9852 H 930.407 -3.72211 0.7899 0
M  V30 9853 H 929.919 -2.99785 2.46476 0
M  V30 9854 H 928.02 -3.72442 0.108471 0
M  V30 9855 H 928.133 -4.41445 1.8618 0
M  V30 9856 H 926.497 -2.38273 0.899902 0
M  V30 9857 H 927.28 -2.27829 2.56805 0
M  V30 9858 N 929.725 -0.817259 -1.34754 0
M  V30 9859 C 930.974 -0.39908 -1.97713 0
M  V30 9860 C 931.287 1.04203 -1.65533 0
M  V30 9861 O 932.493 1.56384 -2.21937 0
M  V30 9862 C 930.949 -0.662634 -3.53747 0
M  V30 9863 C 930.557 -2.11699 -3.94826 0
M  V30 9864 C 932.301 -0.31034 -4.23364 0
M  V30 9865 C 930.208 -2.32573 -5.4375 0
M  V30 9866 H 929.138 -0.145488 -0.739831 0
M  V30 9867 H 931.789 -1.00282 -1.53674 0
M  V30 9868 H 930.171 0.0111972 -3.95998 0
M  V30 9869 H 931.345 -2.82951 -3.63697 0
M  V30 9870 H 929.66 -2.43017 -3.3813 0
M  V30 9871 H 932.257 -0.44421 -5.32852 0
M  V30 9872 H 932.6 0.744594 -4.09587 0
M  V30 9873 H 933.133 -0.938518 -3.8657 0
M  V30 9874 H 929.872 -3.36551 -5.62507 0
M  V30 9875 H 929.392 -1.65858 -5.76412 0
M  V30 9876 H 931.071 -2.14651 -6.10356 0
M  V30 9877 N 931.203 1.46865 -0.571711 0
M  V30 9878 C 932.452 2.01636 -0.050881 0
M  V30 9879 C 932.765 1.45001 1.31279 0
M  V30 9880 O 933.971 1.91523 1.92435 0
M  V30 9881 C 932.427 3.59877 -0.0404114 0
M  V30 9882 C 932.035 4.25506 -1.40172 0
M  V30 9883 C 933.779 4.22346 0.42705 0
M  V30 9884 C 931.686 5.75795 -1.34958 0
M  V30 9885 H 930.616 0.753846 -0.0152514 0
M  V30 9886 H 933.267 1.68711 -0.721723 0
M  V30 9887 H 931.649 3.89829 0.696374 0
M  V30 9888 H 932.823 4.07178 -2.15737 0
M  V30 9889 H 931.138 3.75086 -1.8083 0
M  V30 9890 H 933.735 5.32499 0.484688 0
M  V30 9891 H 934.078 3.9052 1.44222 0
M  V30 9892 H 934.611 3.9698 -0.255326 0
M  V30 9893 H 931.35 6.12265 -2.3412 0
M  V30 9894 H 930.87 5.96419 -0.635962 0
M  V30 9895 H 932.549 6.38294 -1.05779 0
M  V30 9896 N 932.681 0.308908 1.54543 0
M  V30 9897 C 933.906 -0.303196 2.05172 0
M  V30 9898 C 934.331 -1.46133 1.18434 0
M  V30 9899 O 933.689 -1.803 0.190162 0
M  V30 9900 C 933.737 -0.729526 3.53143 0
M  V30 9901 O 932.841 -1.83348 3.69401 0
M  V30 9902 H 932.182 -0.0575066 0.661505 0
M  V30 9903 H 934.712 0.453055 1.99521 0
M  V30 9904 H 934.722 -1.01619 3.95143 0
M  V30 9905 H 933.397 0.117622 4.15734 0
M  V30 9906 H 931.974 -1.54676 3.39308 0
M  V30 9907 N 934.159 -1.57557 0.0367827 0
M  V30 9908 C 935.106 -2.10679 -0.942499 0
M  V30 9909 C 936.076 -1.01068 -1.31812 0
M  V30 9910 O 937.261 -1.28533 -1.41011 0
M  V30 9911 C 934.401 -2.64467 -2.21701 0
M  V30 9912 C 933.514 -3.88114 -1.89715 0
M  V30 9913 C 932.649 -4.30268 -3.11518 0
M  V30 9914 C 931.688 -5.46652 -2.75387 0
M  V30 9915 N 930.825 -5.83927 -3.89838 0
M  V30 9916 H 935.665 -2.94066 -0.482588 0
M  V30 9917 H 933.202 -1.45344 -0.226597 0
M  V30 9918 H 935.16 -2.93745 -2.96259 0
M  V30 9919 H 933.79 -1.83898 -2.65295 0
M  V30 9920 H 932.842 -3.65516 -1.05366 0
M  V30 9921 H 934.154 -4.72743 -1.5911 0
M  V30 9922 H 933.308 -4.61023 -3.94389 0
M  V30 9923 H 932.047 -3.44421 -3.4529 0
M  V30 9924 H 931.052 -5.15583 -1.90929 0
M  V30 9925 H 932.277 -6.34204 -2.42822 0
M  V30 9926 H 930.223 -5.01035 -4.23438 0
M  V30 9927 H 930.14 -6.63214 -3.62883 0
M  V30 9928 H 931.408 -6.19291 -4.73391 0
M  V30 9929 N 935.637 0.236453 -1.55816 0
M  V30 9930 C 936.567 1.29639 -1.94206 0
M  V30 9931 C 937.548 1.49667 -0.808319 0
M  V30 9932 O 938.733 1.621 -1.06945 0
M  V30 9933 C 935.863 2.64914 -2.24584 0
M  V30 9934 C 934.817 2.59565 -3.40308 0
M  V30 9935 C 934.143 3.98732 -3.56254 0
M  V30 9936 C 935.443 2.15642 -4.75706 0
M  V30 9937 H 937.137 0.977552 -2.82992 0
M  V30 9938 H 934.683 0.468804 -1.36155 0
M  V30 9939 H 936.636 3.39209 -2.50031 0
M  V30 9940 H 935.36 2.98455 -1.32636 0
M  V30 9941 H 934.019 1.87728 -3.14887 0
M  V30 9942 H 933.667 4.29556 -2.61707 0
M  V30 9943 H 933.367 3.96039 -4.34082 0
M  V30 9944 H 934.891 4.74711 -3.84033 0
M  V30 9945 H 936.305 2.79673 -5.00456 0
M  V30 9946 H 934.702 2.24039 -5.56711 0
M  V30 9947 H 935.772 1.10831 -4.72064 0
M  V30 9948 N 937.115 1.49373 0.502552 0
M  V30 9949 C 938.345 1.62252 1.27898 0
M  V30 9950 C 938.753 0.292555 1.86924 0
M  V30 9951 O 938.096 -0.731823 1.68493 0
M  V30 9952 C 938.158 2.63153 2.4493 0
M  V30 9953 C 937.822 4.07541 2.06784 0
M  V30 9954 C 938.819 4.94392 1.60849 0
M  V30 9955 C 936.504 4.53263 2.16466 0
M  V30 9956 C 938.498 6.25003 1.25098 0
M  V30 9957 C 936.185 5.83888 1.80327 0
M  V30 9958 C 937.183 6.69582 1.34718 0
M  V30 9959 O 936.871 7.97773 0.990661 0
M  V30 9960 H 936.603 0.54918 0.394179 0
M  V30 9961 H 939.157 1.96132 0.610031 0
M  V30 9962 H 937.387 2.2445 3.14895 0
M  V30 9963 H 939.076 2.65578 3.06957 0
M  V30 9964 H 939.842 4.60296 1.52816 0
M  V30 9965 H 935.721 3.86731 2.50919 0
M  V30 9966 H 939.265 6.91844 0.894269 0
M  V30 9967 H 935.162 6.17513 1.8801 0
M  V30 9968 H 935.93 8.1077 1.12227 0
M  V30 9969 N 938.594 -0.753485 1.38421 0
M  V30 9970 C 939.842 -1.50962 1.34368 0
M  V30 9971 C 940.163 -1.94889 -0.0656895 0
M  V30 9972 O 939.433 -1.67652 -1.01339 0
M  V30 9973 H 938.013 -0.559967 0.494415 0
M  V30 9974 H 940.675 -0.895665 1.73101 0
M  V30 9975 H 939.771 -2.40048 1.99458 0
M  V30 9976 N 940.072 -1.23292 -0.981677 0
M  V30 9977 C 941.297 -1.09176 -1.76339 0
M  V30 9978 C 941.722 0.352726 -1.84763 0
M  V30 9979 O 941.08 1.25509 -1.30832 0
M  V30 9980 C 941.128 -1.72046 -3.16911 0
M  V30 9981 O 940.232 -0.98174 -4.00544 0
M  V30 9982 H 939.573 -0.382755 -0.542581 0
M  V30 9983 H 942.103 -1.63319 -1.23239 0
M  V30 9984 H 942.113 -1.77232 -3.67495 0
M  V30 9985 H 940.788 -2.77154 -3.10095 0
M  V30 9986 H 939.365 -1.00672 -3.59054 0
M  V30 9987 N 941.55 1.18024 -1.04442 0
M  V30 9988 C 942.513 2.19992 -0.643136 0
M  V30 9989 C 943.513 1.57949 0.301444 0
M  V30 9990 O 944.703 1.73986 0.0863341 0
M  V30 9991 C 941.835 3.40853 0.0565208 0
M  V30 9992 H 943.028 2.57008 -1.54554 0
M  V30 9993 H 940.581 1.31974 -0.837408 0
M  V30 9994 H 941.316 3.09373 0.972553 0
M  V30 9995 H 941.101 3.87128 -0.622439 0
M  V30 9996 H 942.591 4.16344 0.323652 0
M  V30 9997 N 943.028 0.824394 1.34319 0
M  V30 9998 C 944.276 0.41235 1.97849 0
M  V30 9999 C 944.597 -1.02841 1.65677 0
M  V30 10000 O 943.867 -1.71421 0.948245 0
M  V30 10001 H 942.447 0.149486 0.73189 0
M  V30 10002 H 945.109 1.05416 1.63931 0
M  V30 10003 H 944.205 0.532557 3.07523 0
M  V30 10004 N 944.506 -1.46559 0.579492 0
M  V30 10005 C 945.917 -1.8608 0.152052 0
M  V30 10006 C 946.268 -1.48346 -1.28405 0
M  V30 10007 O 945.393 -0.89685 -1.9694 0
M  V30 10008 C 945.988 -3.37729 0.269171 0
M  V30 10009 C 944.547 -3.76258 -0.103376 0
M  V30 10010 C 943.694 -2.70584 0.60659 0
M  V30 10011 H 946.645 -1.3776 0.787904 0
M  V30 10012 H 946.666 -3.77116 -0.506339 0
M  V30 10013 H 946.178 -3.65162 1.31448 0
M  V30 10014 H 944.279 -3.54443 -1.14895 0
M  V30 10015 H 944.392 -4.78335 0.270701 0
M  V30 10016 H 942.756 -2.54656 0.0471984 0
M  V30 10017 H 943.539 -3.00856 1.65349 0
M  V30 10018 N 945.984 -0.3171 -1.54377 0
M  V30 10019 C 947.395 0.172287 -1.85903 0
M  V30 10020 C 947.746 1.52141 -1.23885 0
M  V30 10021 O 946.871 2.0949 -0.542476 0
M  V30 10022 C 947.466 0.319392 -3.37291 0
M  V30 10023 C 946.025 0.752998 -3.68791 0
M  V30 10024 C 945.172 -0.129143 -2.76999 0
M  V30 10025 H 948.123 -0.537597 -1.49317 0
M  V30 10026 H 948.144 1.15137 -3.62662 0
M  V30 10027 H 947.656 -0.662671 -3.82401 0
M  V30 10028 H 945.757 1.74504 -3.2921 0
M  V30 10029 H 945.87 0.561228 -4.75801 0
M  V30 10030 H 944.234 0.394242 -2.5163 0
M  V30 10031 H 945.017 -1.10785 -3.24933 0
M  V30 10032 N 947.462 1.57535 -0.0451378 0
M  V30 10033 C 948.873 1.80116 0.491426 0
M  V30 10034 C 949.224 0.956846 1.71286 0
M  V30 10035 O 948.349 0.17173 2.15718 0
M  V30 10036 C 948.944 3.26674 0.898315 0
M  V30 10037 C 947.503 3.50194 1.37989 0
M  V30 10038 C 946.65 2.75054 0.352202 0
M  V30 10039 H 949.601 1.56368 -0.271065 0
M  V30 10040 H 949.622 3.37263 1.76164 0
M  V30 10041 H 949.134 3.88099 0.009141 0
M  V30 10042 H 947.235 2.94041 2.28846 0
M  V30 10043 H 947.348 4.58909 1.37622 0
M  V30 10044 H 945.712 2.4101 0.823784 0
M  V30 10045 H 946.495 3.39203 -0.528782 0
M  V30 10046 N 948.94 -0.228186 1.55939 0
M  V30 10047 C 950.168 -0.970618 1.8272 0
M  V30 10048 C 950.583 -1.78212 0.623385 0
M  V30 10049 O 949.94 -1.77879 -0.408063 0
M  V30 10050 C 949.991 -1.89352 3.07942 0
M  V30 10051 O 949.712 -1.11483 4.23678 0
M  V30 10052 C 951.213 -2.75039 3.47661 0
M  V30 10053 H 948.433 -0.284772 0.607574 0
M  V30 10054 H 950.977 -0.245419 2.03022 0
M  V30 10055 H 949.132 -2.57275 2.89635 0
M  V30 10056 H 949.546 -1.74073 4.94772 0
M  V30 10057 H 951.02 -3.35511 4.38334 0
M  V30 10058 H 951.497 -3.471 2.69106 0
M  V30 10059 H 952.103 -2.1254 3.68384 0
M  V30 10060 N 950.418 -1.49637 -0.494624 0
M  V30 10061 C 951.666 -1.5913 -1.24587 0
M  V30 10062 C 951.987 -0.282828 -1.92938 0
M  V30 10063 O 951.257 0.69825 -1.83034 0
M  V30 10064 H 949.837 -0.586329 -0.462847 0
M  V30 10065 H 952.499 -1.86296 -0.572696 0
M  V30 10066 H 951.595 -2.3906 -2.00641 0
M  V30 10067 N 951.896 0.746133 -1.38819 0
M  V30 10068 C 952.806 1.89063 -1.38897 0
M  V30 10069 C 953.822 1.71648 -0.28513 0
M  V30 10070 O 954.998 1.94443 -0.524783 0
M  V30 10071 C 952.063 3.24523 -1.22007 0
M  V30 10072 C 951.124 3.54411 -2.42263 0
M  V30 10073 C 950.357 4.83408 -2.26169 0
M  V30 10074 O 950.58 5.56325 -1.25931 0
M  V30 10075 O 949.514 5.12943 -3.14918 0
M  V30 10076 H 953.34 1.91951 -2.35347 0
M  V30 10077 H 950.925 0.892433 -1.19816 0
M  V30 10078 H 952.807 4.05496 -1.14677 0
M  V30 10079 H 951.482 3.2243 -0.286455 0
M  V30 10080 H 950.389 2.73569 -2.55168 0
M  V30 10081 H 951.722 3.61273 -3.3428 0
M  V30 10082 N 953.375 1.23811 0.975125 0
M  V30 10083 C 954.285 1.0408 2.10249 0
M  V30 10084 C 955.301 -0.0162404 1.73992 0
M  V30 10085 O 956.477 0.180346 2.00591 0
M  V30 10086 C 953.542 0.640013 3.40741 0
M  V30 10087 C 952.603 1.7727 3.90991 0
M  V30 10088 C 951.836 1.39094 5.15256 0
M  V30 10089 O 952.059 0.277483 5.69725 0
M  V30 10090 O 950.993 2.21392 5.59704 0
M  V30 10091 H 954.819 1.98575 2.29786 0
M  V30 10092 H 952.404 1.02563 1.08633 0
M  V30 10093 H 954.286 0.427684 4.19224 0
M  V30 10094 H 952.961 -0.27589 3.22522 0
M  V30 10095 H 951.868 2.03971 3.13602 0
M  V30 10096 H 953.201 2.66711 4.13674 0
M  V30 10097 N 954.853 -1.17469 1.05066 0
M  V30 10098 C 956.13 -1.83625 0.673872 0
M  V30 10099 C 956.51 -1.93412 -0.845871 0
M  V30 10100 O 955.858 -1.4677 -1.75131 0
M  V30 10101 C 956.068 -3.21352 1.36139 0
M  V30 10102 C 957.416 -3.97274 1.49863 0
M  V30 10103 O 958.44 -3.30827 1.3203 0
M  V30 10104 O 957.299 -5.16349 1.79013 0
M  V30 10105 H 954.393 -0.792297 0.237055 0
M  V30 10106 H 956.939 -1.24776 1.15017 0
M  V30 10107 H 955.711 -3.0919 2.39827 0
M  V30 10108 H 955.334 -3.87867 0.874364 0
M  V30 10109 N 956.331 -0.831506 -1.3388 0
M  V30 10110 C 957.559 -0.436925 -2.02234 0
M  V30 10111 C 957.974 0.959689 -1.6259 0
M  V30 10112 O 957.331 1.62248 -0.835576 0
M  V30 10113 C 957.382 -0.539429 -3.57453 0
M  V30 10114 O 957.103 -1.88101 -3.95664 0
M  V30 10115 C 958.604 -0.140852 -4.43076 0
M  V30 10116 H 955.824 -0.174302 -0.647966 0
M  V30 10117 H 958.368 -1.12204 -1.70969 0
M  V30 10118 H 956.523 0.0976959 -3.87277 0
M  V30 10119 H 956.937 -1.86131 -4.90363 0
M  V30 10120 H 958.411 -0.26364 -5.5137 0
M  V30 10121 H 958.888 0.916505 -4.29531 0
M  V30 10122 H 959.494 -0.752117 -4.18597 0
M  V30 10123 N 957.809 1.4625 -0.587256 0
M  V30 10124 C 958.772 2.28812 0.133238 0
M  V30 10125 C 959.772 1.38645 0.814513 0
M  V30 10126 O 960.962 1.60975 0.665774 0
M  V30 10127 C 958.094 3.19147 1.19824 0
M  V30 10128 H 959.287 2.93991 -0.592386 0
M  V30 10129 H 956.84 1.52435 -0.345416 0
M  V30 10130 H 957.575 2.58725 1.95529 0
M  V30 10131 H 957.36 3.85541 0.71418 0
M  V30 10132 H 958.85 3.81278 1.70344 0
M  V30 10133 N 959.287 0.325282 1.54207 0
M  V30 10134 C 960.197 -0.548778 2.28091 0
M  V30 10135 C 961.213 -1.12772 1.32508 0
M  V30 10136 O 962.389 -1.14732 1.65525 0
M  V30 10137 C 959.454 -1.69284 3.02562 0
M  V30 10138 C 958.515 -1.14553 4.13734 0
M  V30 10139 C 957.748 -2.23506 4.84645 0
M  V30 10140 O 957.971 -3.43884 4.55082 0
M  V30 10141 O 956.905 -1.88828 5.71513 0
M  V30 10142 H 960.731 0.0512974 3.03657 0
M  V30 10143 H 958.316 0.0909159 1.49123 0
M  V30 10144 H 960.198 -2.35887 3.49192 0
M  V30 10145 H 958.873 -2.27906 2.2987 0
M  V30 10146 H 957.78 -0.444532 3.71449 0
M  V30 10147 H 959.113 -0.60441 4.88475 0
M  V30 10148 N 960.765 -1.57509 0.0534917 0
M  V30 10149 C 961.712 -2.11667 -0.920101 0
M  V30 10150 C 962.682 -1.0246 -1.30733 0
M  V30 10151 O 963.867 -1.30021 -1.39639 0
M  V30 10152 C 961.007 -2.66803 -2.18883 0
M  V30 10153 C 960.12 -3.90104 -1.85588 0
M  V30 10154 C 959.255 -4.33547 -3.06937 0
M  V30 10155 C 958.294 -5.49542 -2.69573 0
M  V30 10156 N 957.431 -5.88029 -3.83623 0
M  V30 10157 H 962.271 -2.94562 -0.451371 0
M  V30 10158 H 959.808 -1.45576 -0.211168 0
M  V30 10159 H 961.766 -2.96871 -2.93127 0
M  V30 10160 H 960.396 -1.86702 -2.63329 0
M  V30 10161 H 959.448 -3.66613 -1.01484 0
M  V30 10162 H 960.76 -4.74404 -1.54087 0
M  V30 10163 H 959.914 -4.6518 -3.89477 0
M  V30 10164 H 958.653 -3.48064 -3.41618 0
M  V30 10165 H 957.658 -5.17579 -1.8545 0
M  V30 10166 H 958.883 -6.36743 -2.36082 0
M  V30 10167 H 956.829 -5.05498 -4.181 0
M  V30 10168 H 956.746 -6.67025 -3.55828 0
M  V30 10169 H 958.014 -6.24277 -4.66796 0
M  V30 10170 N 962.243 0.219913 -1.56058 0
M  V30 10171 C 963.52 0.968493 -1.6994 0
M  V30 10172 C 963.9 2.02358 -0.601219 0
M  V30 10173 O 963.248 2.25121 0.391534 0
M  V30 10174 C 963.458 1.57745 -3.11316 0
M  V30 10175 C 964.806 2.06908 -3.70775 0
M  V30 10176 O 965.83 1.67636 -3.14288 0
M  V30 10177 O 964.689 2.79096 -4.69859 0
M  V30 10178 H 961.783 0.452521 -0.692209 0
M  V30 10179 H 964.329 0.211566 -1.68376 0
M  V30 10180 H 963.101 0.815687 -3.82704 0
M  V30 10181 H 962.724 2.39987 -3.17005 0
M  V30 10182 N 963.721 1.49897 0.486681 0
M  V30 10183 C 964.631 1.70379 1.6127 0
M  V30 10184 C 965.647 0.58659 1.63814 0
M  V30 10185 O 966.823 0.863044 1.81971 0
M  V30 10186 C 963.888 1.77911 2.97571 0
M  V30 10187 C 962.949 3.01569 3.0554 0
M  V30 10188 C 962.182 3.08732 4.35339 0
M  V30 10189 O 962.405 2.23099 5.2496 0
M  V30 10190 O 961.339 4.01325 4.48578 0
M  V30 10191 H 965.165 2.65799 1.46916 0
M  V30 10192 H 962.75 1.33808 0.664516 0
M  V30 10193 H 964.632 1.85135 3.78554 0
M  V30 10194 H 963.307 0.856722 3.12157 0
M  V30 10195 H 962.214 2.99854 2.23693 0
M  V30 10196 H 963.547 3.93335 2.95886 0
M  V30 10197 N 965.199 -0.738761 1.39212 0
M  V30 10198 C 966.129 -1.86602 1.40364 0
M  V30 10199 C 967.11 -1.67984 0.267495 0
M  V30 10200 O 968.295 -1.88358 0.472765 0
M  V30 10201 C 965.425 -3.24308 1.24265 0
M  V30 10202 C 964.379 -3.57557 2.35239 0
M  V30 10203 C 963.705 -4.94159 2.04233 0
M  V30 10204 C 965.005 -3.60914 3.77543 0
M  V30 10205 H 966.699 -1.85896 2.34698 0
M  V30 10206 H 964.245 -0.892959 1.1297 0
M  V30 10207 H 966.198 -4.02838 1.23692 0
M  V30 10208 H 964.922 -3.25531 0.263974 0
M  V30 10209 H 963.581 -2.81354 2.35022 0
M  V30 10210 H 963.229 -4.91959 1.04813 0
M  V30 10211 H 962.929 -5.17373 2.78567 0
M  V30 10212 H 964.453 -5.7505 2.05303 0
M  V30 10213 H 965.867 -4.29528 3.79709 0
M  V30 10214 H 964.264 -3.95644 4.51205 0
M  V30 10215 H 965.334 -2.60803 4.08791 0
M  V30 10216 O 966.716 -1.35434 -0.879766 0
M  V30 10217 H 967.407 -1.20393 -1.51741 0
M  V30 END ATOM
M  V30 BEGIN BOND
M  V30 END BOND
M  V30 END CTAB
M  END
$$$$
