drugbank_target|Q03405 Urokinase plasminogen activator surface receptor (DB00009; DB00013; DB00031; DB05476; DB06245)
 OpenBabel12092119383D

  0  0  0     0  0            999 V3000
M  V30 BEGIN CTAB
M  V30 COUNTS 5036 5088 0 0 0
M  V30 BEGIN ATOM
M  V30 1 H -0.908 1.98254 -0.117106 0
M  V30 2 N 0 1.576 0 0
M  V30 3 C 0.933 2.03868 1.02534 0
M  V30 4 C 1.911 0.928543 1.3348 0
M  V30 5 O 3.095 1.19667 1.45644 0
M  V30 6 C 0.222 2.43627 2.35294 0
M  V30 7 C -0.732 3.65373 2.2001 0
M  V30 8 S 0.101 5.13292 1.52614 0
M  V30 9 C 1.257 5.56322 2.86805 0
M  V30 10 H 1.49 2.90518 0.631377 0
M  V30 11 H -0.977 1.52953 0.210867 0
M  V30 12 H 0.981 2.67203 3.11629 0
M  V30 13 H -0.358 1.57376 2.7183 0
M  V30 14 H -1.165 3.90944 3.18086 0
M  V30 15 H -1.563 3.418 1.51819 0
M  V30 16 H 0.729 5.58782 3.83104 0
M  V30 17 H 1.672 6.56266 2.65933 0
M  V30 18 H 2.08 4.83886 2.90714 0
M  V30 19 N 1.4781 -0.272755 1.55222 0
M  V30 20 C 2.7261 -1.00234 1.75492 0
M  V30 21 C 3.0471 -1.8681 0.5592 0
M  V30 22 O 2.3171 -1.91215 -0.425882 0
M  V30 23 H 0.8971 -0.373076 0.647166 0
M  V30 24 H 3.5591 -0.296926 1.92625 0
M  V30 25 H 2.6551 -1.63913 2.65592 0
M  V30 26 N 2.9562 -1.48159 -0.537278 0
M  V30 27 C 3.9062 -1.5854 -1.63857 0
M  V30 28 C 4.8902 -0.442969 -1.54682 0
M  V30 29 O 6.0822 -0.69401 -1.62827 0
M  V30 30 C 3.2112 -1.62144 -3.02596 0
M  V30 31 C 2.2972 -2.81841 -3.16901 0
M  V30 32 N 2.6882 -4.06337 -3.01204 0
M  V30 33 C 0.9862 -2.79021 -3.47942 0
M  V30 34 C 1.6872 -4.86606 -3.18731 0
M  V30 35 N 0.6632 -4.19288 -3.45974 0
M  V30 36 H 4.4652 -2.5255 -1.50319 0
M  V30 37 H 1.9792 -1.4443 -0.742555 0
M  V30 38 H 3.9762 -1.67674 -3.81695 0
M  V30 39 H 2.6362 -0.69245 -3.17231 0
M  V30 40 H 3.6472 -4.36888 -2.78117 0
M  V30 41 H 0.3242 -1.95347 -3.6898 0
M  V30 42 H 1.7142 -5.95385 -3.11394 0
M  V30 43 N 4.4343 0.785586 -1.36625 0
M  V30 44 C 5.8453 1.36101 -1.27803 0
M  V30 45 C 6.1963 1.96035 0.0804875 0
M  V30 46 O 5.3213 1.92834 0.982042 0
M  V30 47 C 5.9163 2.47442 -2.31426 0
M  V30 48 C 4.4753 3.00789 -2.26281 0
M  V30 49 C 3.6223 1.73896 -2.15999 0
M  V30 50 H 6.5733 0.586928 -1.47448 0
M  V30 51 H 6.5943 3.2656 -1.95291 0
M  V30 52 H 6.1063 2.03791 -3.30289 0
M  V30 53 H 4.2073 3.48851 -1.30896 0
M  V30 54 H 4.3203 3.57343 -3.19128 0
M  V30 55 H 2.6843 1.9628 -1.62316 0
M  V30 56 H 3.4673 1.32368 -3.16755 0
M  V30 57 N 5.9124 1.20967 1.01018 0
M  V30 58 C 7.3234 1.02319 1.56165 0
M  V30 59 C 7.6744 -0.418546 1.91684 0
M  V30 60 O 6.7994 -1.30096 1.72928 0
M  V30 61 C 7.3944 1.85109 2.8376 0
M  V30 62 C 5.9534 1.70809 3.35412 0
M  V30 63 C 5.1004 1.82643 2.08655 0
M  V30 64 H 8.0514 1.35065 0.833255 0
M  V30 65 H 8.0724 1.35827 3.55431 0
M  V30 66 H 7.5844 2.90035 2.57878 0
M  V30 67 H 5.6854 0.685464 3.66241 0
M  V30 68 H 5.7984 2.52467 4.07182 0
M  V30 69 H 4.1624 1.25896 2.21409 0
M  V30 70 H 4.9454 2.89066 1.85191 0
M  V30 71 N 7.3905 -1.2043 1.01659 0
M  V30 72 C 8.3205 -2.25466 0.607226 0
M  V30 73 C 9.3015 -1.65853 -0.377716 0
M  V30 74 O 10.4865 -1.92409 -0.263149 0
M  V30 75 C 7.6165 -3.47256 -0.0552949 0
M  V30 76 C 6.5705 -4.19462 0.850632 0
M  V30 77 C 5.8965 -5.34673 0.0538859 0
M  V30 78 C 7.1965 -4.75603 2.15868 0
M  V30 79 H 8.8905 -2.59962 1.48526 0
M  V30 80 H 6.4365 -1.2496 0.715605 0
M  V30 81 H 8.3895 -4.19917 -0.353233 0
M  V30 82 H 7.1135 -3.11924 -0.968045 0
M  V30 83 H 5.7725 -3.48667 1.13257 0
M  V30 84 H 5.4205 -4.95585 -0.860514 0
M  V30 85 H 5.1205 -5.83913 0.657192 0
M  V30 86 H 6.6445 -6.10138 -0.237598 0
M  V30 87 H 8.0585 -5.40083 1.92311 0
M  V30 88 H 6.4555 -5.3528 2.71284 0
M  V30 89 H 7.5255 -3.94346 2.82169 0
M  V30 90 N 8.8686 -0.792821 -1.36206 0
M  V30 91 C 9.7986 -0.207853 -2.32573 0
M  V30 92 C 10.7796 0.659055 -1.56813 0
M  V30 93 O 11.9646 0.592176 -1.84951 0
M  V30 94 C 9.0946 0.655449 -3.41059 0
M  V30 95 C 8.0486 -0.111842 -4.27854 0
M  V30 96 C 7.3746 0.872274 -5.27537 0
M  V30 97 C 8.6746 -1.30299 -5.05786 0
M  V30 98 H 10.3686 -1.01294 -2.81744 0
M  V30 99 H 7.9146 -0.48854 -1.3546 0
M  V30 100 H 9.8676 1.07464 -4.07467 0
M  V30 101 H 8.5916 1.49328 -2.90463 0
M  V30 102 H 7.2506 -0.512053 -3.63006 0
M  V30 103 H 6.8986 1.70523 -4.73214 0
M  V30 104 H 6.5986 0.363291 -5.86476 0
M  V30 105 H 8.1226 1.28996 -5.96818 0
M  V30 106 H 9.5366 -0.959379 -5.65216 0
M  V30 107 H 7.9336 -1.7455 -5.74154 0
M  V30 108 H 9.0036 -2.09663 -4.37229 0
M  V30 109 N 10.3467 1.47872 -0.545128 0
M  V30 110 C 11.7577 1.86384 -0.108581 0
M  V30 111 C 12.1087 1.45309 1.31832 0
M  V30 112 O 11.2337 0.850641 1.9898 0
M  V30 113 C 11.8287 3.38265 -0.190274 0
M  V30 114 C 10.3877 3.75914 0.191164 0
M  V30 115 C 9.5347 2.71926 -0.543273 0
M  V30 116 H 12.4857 1.39561 -0.755537 0
M  V30 117 H 12.5067 3.75831 0.594217 0
M  V30 118 H 12.0187 3.6813 -1.2289 0
M  V30 119 H 10.1197 3.51665 1.23136 0
M  V30 120 H 10.2327 4.78836 -0.158987 0
M  V30 121 H 8.5967 2.54697 0.0122495 0
M  V30 122 H 9.3797 3.04634 -1.58282 0
M  V30 123 N 11.8248 0.280983 1.55075 0
M  V30 124 C 12.7548 -0.597469 2.25727 0
M  V30 125 C 13.7358 -1.15417 1.24952 0
M  V30 126 O 14.9208 -1.18722 1.53684 0
M  V30 127 C 12.0508 -1.7789 2.98283 0
M  V30 128 C 11.0048 -1.35347 4.06036 0
M  V30 129 C 10.3308 -2.61846 4.66198 0
M  V30 130 C 11.6308 -0.499354 5.19907 0
M  V30 131 H 13.3248 -0.00824265 2.99399 0
M  V30 132 H 10.8708 -0.0025244 1.44 0
M  V30 133 H 12.8238 -2.39937 3.46422 0
M  V30 134 H 11.5478 -2.39405 2.22155 0
M  V30 135 H 10.2068 -0.756156 3.58717 0
M  V30 136 H 9.8548 -3.21632 3.86732 0
M  V30 137 H 9.5548 -2.3409 5.38958 0
M  V30 138 H 11.0788 -3.24732 5.1709 0
M  V30 139 H 12.4928 -1.02498 5.64063 0
M  V30 140 H 10.8898 -0.316424 5.99265 0
M  V30 141 H 11.9598 0.480459 4.82514 0
M  V30 142 N 13.3029 -1.57598 0.00835791 0
M  V30 143 C 14.2329 -2.1198 -0.979113 0
M  V30 144 C 15.2139 -1.03091 -1.35301 0
M  V30 145 O 16.3989 -1.30818 -1.43528 0
M  V30 146 C 13.5289 -2.62995 -2.26828 0
M  V30 147 C 12.4829 -3.76485 -2.03576 0
M  V30 148 C 11.8089 -4.13846 -3.38579 0
M  V30 149 C 13.1089 -5.0342 -1.39161 0
M  V30 150 H 14.8029 -2.94738 -0.526281 0
M  V30 151 H 12.3489 -1.41783 -0.251704 0
M  V30 152 H 14.3019 -2.99669 -2.96271 0
M  V30 153 H 13.0259 -1.7737 -2.7424 0
M  V30 154 H 11.6849 -3.40217 -1.36557 0
M  V30 155 H 11.3329 -3.25232 -3.83709 0
M  V30 156 H 11.0329 -4.90312 -3.23834 0
M  V30 157 H 12.5569 -4.53086 -4.09323 0
M  V30 158 H 13.9709 -5.37812 -1.98573 0
M  V30 159 H 12.3679 -5.84746 -1.34878 0
M  V30 160 H 13.4379 -4.83548 -0.361868 0
M  V30 161 N 14.781 0.264519 -1.55364 0
M  V30 162 C 15.711 1.33121 -1.91836 0
M  V30 163 C 16.692 1.51101 -0.781192 0
M  V30 164 O 17.877 1.64003 -1.04003 0
M  V30 165 C 15.007 2.68921 -2.19769 0
M  V30 166 C 13.961 2.65661 -3.35571 0
M  V30 167 C 13.287 4.05093 -3.49004 0
M  V30 168 C 14.587 2.24187 -4.71739 0
M  V30 169 H 16.281 1.02844 -2.81182 0
M  V30 170 H 13.827 0.493286 -1.35287 0
M  V30 171 H 15.78 3.43663 -2.43872 0
M  V30 172 H 14.504 3.00799 -1.27231 0
M  V30 173 H 13.163 1.93377 -3.1145 0
M  V30 174 H 12.811 4.34206 -2.53917 0
M  V30 175 H 12.511 4.03804 -4.26868 0
M  V30 176 H 14.035 4.81561 -3.75408 0
M  V30 177 H 15.449 2.88654 -4.9533 0
M  V30 178 H 13.846 2.34044 -5.52579 0
M  V30 179 H 14.916 1.19327 -4.69988 0
M  V30 180 N 16.2591 1.48442 0.529413 0
M  V30 181 C 17.1891 1.65902 1.64313 0
M  V30 182 C 18.1701 0.507897 1.6234 0
M  V30 183 O 19.3551 0.740503 1.79528 0
M  V30 184 C 16.4851 1.69911 3.02898 0
M  V30 185 C 15.4391 2.8453 3.19729 0
M  V30 186 C 14.7651 2.73629 4.59381 0
M  V30 187 C 16.0651 4.25821 3.02447 0
M  V30 188 H 17.7591 2.5914 1.49955 0
M  V30 189 H 15.3051 1.24709 0.719982 0
M  V30 190 H 17.2581 1.80715 3.80684 0
M  V30 191 H 15.9821 0.732524 3.18279 0
M  V30 192 H 14.6411 2.73283 2.44361 0
M  V30 193 H 14.2891 1.74938 4.71599 0
M  V30 194 H 13.9891 3.50541 4.71588 0
M  V30 195 H 15.5131 2.86401 5.39265 0
M  V30 196 H 16.9271 4.37898 3.70024 0
M  V30 197 H 15.3241 5.03735 3.26146 0
M  V30 198 H 16.3941 4.42244 1.98867 0
M  V30 199 N 17.7372 -0.778329 1.37039 0
M  V30 200 C 18.6672 -1.90546 1.34962 0
M  V30 201 C 19.6482 -1.68681 0.219274 0
M  V30 202 O 20.8332 -1.89634 0.418624 0
M  V30 203 C 17.9632 -3.27734 1.14925 0
M  V30 204 C 16.9172 -3.64147 2.24902 0
M  V30 205 C 16.2432 -4.99806 1.89996 0
M  V30 206 C 17.5432 -3.71579 3.67051 0
M  V30 207 H 19.2372 -1.92541 2.29277 0
M  V30 208 H 16.7832 -0.924948 1.10366 0
M  V30 209 H 18.7362 -4.06215 1.12104 0
M  V30 210 H 17.4602 -3.26154 0.170631 0
M  V30 211 H 16.1192 -2.8797 2.26868 0
M  V30 212 H 15.7672 -4.94759 0.906796 0
M  V30 213 H 15.4672 -5.25139 2.63634 0
M  V30 214 H 16.9912 -5.80694 1.88749 0
M  V30 215 H 18.4052 -4.40227 3.67251 0
M  V30 216 H 16.8022 -4.08405 4.39688 0
M  V30 217 H 17.8722 -2.72404 4.01154 0
M  V30 218 N 19.2153 -1.21501 -1.00376 0
M  V30 219 C 20.1653 -0.942843 -2.07592 0
M  V30 220 C 21.1493 0.102384 -1.60574 0
M  V30 221 O 22.3413 -0.10671 -1.76678 0
M  V30 222 C 19.4703 -0.510729 -3.3948 0
M  V30 223 C 18.5563 -1.59009 -3.93163 0
M  V30 224 N 18.9473 -2.81544 -4.20198 0
M  V30 225 C 17.2453 -1.45925 -4.21452 0
M  V30 226 C 17.9463 -3.51261 -4.63671 0
M  V30 227 N 16.9223 -2.78703 -4.66718 0
M  V30 228 H 20.7243 -1.87378 -2.26421 0
M  V30 229 H 18.2383 -1.11093 -1.18458 0
M  V30 230 H 20.2353 -0.297101 -4.1584 0
M  V30 231 H 18.8953 0.413436 -3.22057 0
M  V30 232 H 19.9063 -3.18075 -4.08716 0
M  V30 233 H 16.5833 -0.600467 -4.13159 0
M  V30 234 H 17.9733 -4.56183 -4.93302 0
M  V30 235 N 20.6934 1.19889 -1.02296 0
M  V30 236 C 21.9214 1.9339 -0.735399 0
M  V30 237 C 22.3364 1.75148 0.704887 0
M  V30 238 O 21.6934 1.06954 1.47875 0
M  V30 239 C 21.7444 3.45313 -1.06962 0
M  V30 240 O 21.4654 3.62964 -2.45334 0
M  V30 241 C 22.9664 4.35948 -0.804021 0
M  V30 242 H 20.1864 0.61448 -0.269546 0
M  V30 243 H 22.7304 1.522 -1.36585 0
M  V30 244 H 20.8854 3.84359 -0.484455 0
M  V30 245 H 21.2994 4.56886 -2.57595 0
M  V30 246 H 22.7734 5.41174 -1.0879 0
M  V30 247 H 23.2504 4.3842 0.261691 0
M  V30 248 H 23.8564 4.02574 -1.37164 0
M  V30 249 N 22.1715 0.800033 1.35784 0
M  V30 250 C 23.4115 0.382891 2.00782 0
M  V30 251 C 23.7755 -1.02891 1.62103 0
M  V30 252 O 24.9765 -1.54771 2.19771 0
M  V30 253 C 23.2475 0.553299 3.53091 0
M  V30 254 S 24.8065 0.225608 4.3822 0
M  V30 255 H 21.6245 0.145737 0.695904 0
M  V30 256 H 24.2265 1.04085 1.65489 0
M  V30 257 H 22.9305 1.58091 3.78729 0
M  V30 258 H 22.4615 -0.120214 3.93216 0
M  V30 259 H 24.4765 -0.969074 4.86645 0
M  V30 260 N 23.6496 -1.47581 0.552962 0
M  V30 261 C 24.8956 -2.02782 0.0273648 0
M  V30 262 C 25.2286 -1.42687 -1.31734 0
M  V30 263 O 24.5036 -0.580897 -1.85623 0
M  V30 264 C 24.7866 -3.60031 -0.0702371 0
M  V30 265 C 24.6396 -4.30566 1.30126 0
M  V30 266 C 25.9586 -4.33028 -0.785771 0
M  V30 267 H 23.0776 -0.736912 0.0114185 0
M  V30 268 H 25.7196 -1.76056 0.714432 0
M  V30 269 H 23.8696 -3.82932 -0.655382 0
M  V30 270 H 25.5416 -4.19018 1.92929 0
M  V30 271 H 23.7846 -3.91086 1.87709 0
M  V30 272 H 24.4556 -5.39114 1.18573 0
M  V30 273 H 26.9316 -4.15095 -0.288982 0
M  V30 274 H 25.8076 -5.42695 -0.823013 0
M  V30 275 H 26.0686 -4.01945 -1.841 0
M  V30 276 N 25.1277 -0.289203 -1.54924 0
M  V30 277 C 26.5387 0.205791 -1.85562 0
M  V30 278 C 26.8897 1.54351 -1.2112 0
M  V30 279 O 26.0147 2.10435 -0.504601 0
M  V30 280 C 26.6097 0.380177 -3.3666 0
M  V30 281 C 25.1687 0.819395 -3.67373 0
M  V30 282 C 24.3157 -0.079159 -2.77187 0
M  V30 283 H 27.2667 -0.510577 -1.50262 0
M  V30 284 H 27.2877 1.21659 -3.60526 0
M  V30 285 H 26.7997 -0.593589 -3.83534 0
M  V30 286 H 24.9007 1.80413 -3.26009 0
M  V30 287 H 25.0137 0.646957 -4.74712 0
M  V30 288 H 23.3777 0.439565 -2.50878 0
M  V30 289 H 24.1607 -1.04906 -3.26878 0
M  V30 290 N 26.6058 1.57591 -0.0167156 0
M  V30 291 C 27.5688 2.08393 0.954204 0
M  V30 292 C 28.5688 0.996531 1.26198 0
M  V30 293 O 29.7588 1.25858 1.20438 0
M  V30 294 C 26.8908 2.5394 2.27436 0
M  V30 295 H 28.0838 2.95455 0.514451 0
M  V30 296 H 25.6368 1.54582 0.231089 0
M  V30 297 H 26.3718 1.70171 2.76066 0
M  V30 298 H 26.1568 3.33371 2.06412 0
M  V30 299 H 27.6468 2.93512 2.97053 0
M  V30 300 N 28.0839 -0.256276 1.55502 0
M  V30 301 C 29.3089 -1.00766 1.81276 0
M  V30 302 C 29.7339 -1.78524 0.59252 0
M  V30 303 O 29.0919 -1.75413 -0.45827 0
M  V30 304 C 29.1399 -1.92869 3.04687 0
M  V30 305 O 28.2439 -3.019 2.80945 0
M  V30 306 H 27.5849 -0.287224 0.598664 0
M  V30 307 H 30.1149 -0.280109 2.02674 0
M  V30 308 H 30.1249 -2.34511 3.33869 0
M  V30 309 H 28.7999 -1.35689 3.93143 0
M  V30 310 H 27.3769 -2.64454 2.62904 0
M  V30 311 N 29.562 -1.4872 -0.521534 0
M  V30 312 C 30.808 -1.58378 -1.27624 0
M  V30 313 C 31.163 -0.258028 -1.90662 0
M  V30 314 O 30.456 0.739917 -1.76736 0
M  V30 315 C 30.65 -2.66497 -2.38148 0
M  V30 316 C 30.479 -4.09456 -1.85945 0
M  V30 317 C 29.249 -4.76495 -1.68168 0
M  V30 318 C 31.447 -4.95353 -1.3831 0
M  V30 319 N 29.429 -6.0384 -1.1068 0
M  V30 320 C 30.8 -6.13012 -0.928238 0
M  V30 321 C 32.855 -4.81512 -1.26692 0
M  V30 322 C 31.558 -7.18354 -0.368701 0
M  V30 323 C 33.584 -5.86984 -0.721368 0
M  V30 324 C 32.946 -7.03857 -0.276623 0
M  V30 325 H 29.045 -0.634045 -0.457724 0
M  V30 326 H 31.629 -1.85639 -0.587049 0
M  V30 327 H 29.8 -2.41043 -3.04553 0
M  V30 328 H 31.532 -2.65791 -3.05184 0
M  V30 329 H 28.287 -4.32962 -1.91939 0
M  V30 330 H 28.711 -6.71778 -0.839217 0
M  V30 331 H 33.353 -3.91487 -1.5968 0
M  V30 332 H 31.071 -8.08096 -0.0265122 0
M  V30 333 H 34.657 -5.78329 -0.634531 0
M  V30 334 H 33.537 -7.84077 0.138947 0
M  V30 335 N 31.0401 0.771051 -1.3745 0
M  V30 336 C 32.2881 1.52661 -1.32435 0
M  V30 337 C 32.6091 1.9479 0.0905024 0
M  V30 338 O 31.8791 1.66348 1.03466 0
M  V30 339 H 30.4591 0.566218 -0.487244 0
M  V30 340 H 33.1211 0.917636 -1.71946 0
M  V30 341 H 32.2171 2.42568 -1.96385 0
M  V30 342 N 32.5182 1.22032 0.997298 0
M  V30 343 C 33.4482 1.01065 2.10495 0
M  V30 344 C 34.4292 -0.0669542 1.69968 0
M  V30 345 O 35.6142 0.0943987 1.9397 0
M  V30 346 C 32.7442 0.582874 3.42374 0
M  V30 347 C 31.6982 1.60592 3.96729 0
M  V30 348 C 31.0242 1.03412 5.24605 0
M  V30 349 C 32.3242 2.99478 4.27914 0
M  V30 350 H 34.0182 1.93708 2.28292 0
M  V30 351 H 31.5642 0.932761 1.09707 0
M  V30 352 H 33.5172 0.423332 4.19268 0
M  V30 353 H 32.2412 -0.379213 3.24391 0
M  V30 354 H 30.9002 1.75316 3.21963 0
M  V30 355 H 30.5482 0.063518 5.0296 0
M  V30 356 H 30.2482 1.71754 5.61938 0
M  V30 357 H 31.7722 0.886066 6.04137 0
M  V30 358 H 33.1862 2.88153 4.95622 0
M  V30 359 H 31.5832 3.64903 4.76409 0
M  V30 360 H 32.6532 3.49742 3.3587 0
M  V30 361 N 33.9963 -1.19345 1.0293 0
M  V30 362 C 35.4123 -1.41069 0.746446 0
M  V30 363 C 35.6123 -1.90078 -0.668776 0
M  V30 364 O 34.6683 -2.0778 -1.4347 0
M  V30 365 C 35.9813 -2.42141 1.78292 0
M  V30 366 C 37.5293 -2.55887 1.80252 0
M  V30 367 C 38.0043 -3.60214 2.8286 0
M  V30 368 N 39.4953 -3.67711 2.81679 0
M  V30 369 C 40.2303 -4.48128 3.57727 0
M  V30 370 N 39.7263 -5.32248 4.43491 0
M  V30 371 N 41.5193 -4.42782 3.46267 0
M  V30 372 H 33.6703 -0.858536 1.94275 0
M  V30 373 H 35.9333 -0.439541 0.839945 0
M  V30 374 H 35.6393 -2.13155 2.79746 0
M  V30 375 H 35.5133 -3.41323 1.60557 0
M  V30 376 H 37.9003 -2.84196 0.794757 0
M  V30 377 H 37.9813 -1.56858 2.02062 0
M  V30 378 H 37.6253 -3.32647 3.83807 0
M  V30 379 H 37.5553 -4.58895 2.58307 0
M  V30 380 H 40.0463 -3.07634 2.19476 0
M  V30 381 H 40.3593 -5.90729 4.98256 0
M  V30 382 H 38.7043 -5.31707 4.47564 0
M  V30 383 H 41.8953 -3.76107 2.78677 0
M  V30 384 H 42.0683 -5.05215 4.05785 0
M  V30 385 N 35.4744 -0.807222 -1.35358 0
M  V30 386 C 36.7144 -0.393534 -2.00576 0
M  V30 387 C 37.0784 1.0203 -1.62647 0
M  V30 388 O 38.2794 1.53603 -2.20589 0
M  V30 389 C 36.5504 -0.572017 -3.52793 0
M  V30 390 S 38.1094 -0.248845 -4.38094 0
M  V30 391 H 34.9274 -0.149425 -0.695121 0
M  V30 392 H 37.5294 -1.04961 -1.64935 0
M  V30 393 H 36.2334 -1.60097 -3.77885 0
M  V30 394 H 35.7644 0.099359 -3.93275 0
M  V30 395 H 37.7794 0.943253 -4.87152 0
M  V30 396 N 36.9525 1.47285 -0.560781 0
M  V30 397 C 37.8855 2.27009 0.232821 0
M  V30 398 C 38.8635 1.34273 0.917039 0
M  V30 399 O 40.0475 1.63659 0.935315 0
M  V30 400 C 37.1745 3.11406 1.33206 0
M  V30 401 C 36.2205 4.19746 0.756019 0
M  V30 402 S 37.0535 5.34003 -0.400165 0
M  V30 403 C 38.2095 6.21964 0.700805 0
M  V30 404 H 38.4425 2.93971 -0.443683 0
M  V30 405 H 35.9755 1.50446 -0.347181 0
M  V30 406 H 37.9335 3.60601 1.96156 0
M  V30 407 H 36.5945 2.438 1.98041 0
M  V30 408 H 35.7875 4.78541 1.5816 0
M  V30 409 H 35.3895 3.73451 0.202619 0
M  V30 410 H 37.6815 6.58529 1.59202 0
M  V30 411 H 38.6245 7.07941 0.150126 0
M  V30 412 H 39.0325 5.5566 0.995083 0
M  V30 413 N 38.4306 0.297415 1.54768 0
M  V30 414 C 39.3626 -0.613881 2.20826 0
M  V30 415 C 40.3756 -1.10032 1.19987 0
M  V30 416 O 41.5646 -1.01839 1.46598 0
M  V30 417 C 38.6646 -1.852 2.83821 0
M  V30 418 C 37.8376 -1.50865 4.10559 0
M  V30 419 C 36.8966 -2.60154 4.57391 0
M  V30 420 O 35.9226 -2.25398 5.2267 0
M  V30 421 N 37.1246 -3.90629 4.29406 0
M  V30 422 H 39.8896 -0.048389 2.99661 0
M  V30 423 H 37.4506 0.11946 1.61459 0
M  V30 424 H 39.4426 -2.57652 3.12086 0
M  V30 425 H 38.0126 -2.32597 2.08847 0
M  V30 426 H 37.2326 -0.616925 3.89343 0
M  V30 427 H 38.5206 -1.25458 4.9309 0
M  V30 428 H 37.9186 -4.21677 3.77101 0
M  V30 429 H 36.4756 -4.59391 4.62388 0
M  V30 430 N 39.9087 -1.5758 0.0250728 0
M  V30 431 C 41.1487 -1.93497 -0.65865 0
M  V30 432 C 41.5127 -0.901409 -1.69525 0
M  V30 433 O 42.7137 -1.14664 -2.43116 0
M  V30 434 C 40.9847 -3.34352 -1.26267 0
M  V30 435 S 42.5437 -3.92191 -1.96803 0
M  V30 436 H 39.3617 -0.67709 -0.216958 0
M  V30 437 H 41.9637 -1.95303 0.0877692 0
M  V30 438 H 40.6677 -4.07395 -0.495741 0
M  V30 439 H 40.1987 -3.3598 -2.04648 0
M  V30 440 H 42.2137 -3.75298 -3.24601 0
M  V30 441 N 41.3868 0.248026 -1.55636 0
M  V30 442 C 42.3338 1.30707 -1.90222 0
M  V30 443 C 43.3038 1.47881 -0.756332 0
M  V30 444 O 44.4888 1.61883 -1.00988 0
M  V30 445 C 41.6288 2.65769 -2.20138 0
M  V30 446 C 40.7418 2.56612 -3.47526 0
M  V30 447 C 39.8768 3.8402 -3.67017 0
M  V30 448 C 38.9158 3.69476 -4.8801 0
M  V30 449 N 38.0528 4.88774 -5.04029 0
M  V30 450 H 42.8928 1.00512 -2.80538 0
M  V30 451 H 40.4298 0.485055 -1.38873 0
M  V30 452 H 42.3878 3.44386 -2.35487 0
M  V30 453 H 41.0178 2.94115 -1.33027 0
M  V30 454 H 40.0698 1.69571 -3.40514 0
M  V30 455 H 41.3818 2.41774 -4.36287 0
M  V30 456 H 40.5358 4.7108 -3.8232 0
M  V30 457 H 39.2748 4.01754 -2.76487 0
M  V30 458 H 38.2798 2.80799 -4.72686 0
M  V30 459 H 39.5048 3.53238 -5.8 0
M  V30 460 H 37.4508 5.0687 -4.16435 0
M  V30 461 H 37.3678 4.76562 -5.86877 0
M  V30 462 H 38.6358 5.77335 -5.23741 0
M  V30 463 N 42.8649 1.48995 0.513639 0
M  V30 464 C 44.0929 1.61531 1.29288 0
M  V30 465 C 44.5079 0.281801 1.86685 0
M  V30 466 O 43.8649 -0.731111 1.67215 0
M  V30 467 C 43.9159 2.67449 2.43215 0
M  V30 468 O 43.6369 3.95626 1.88179 0
M  V30 469 C 45.1379 2.90575 3.34785 0
M  V30 470 H 42.3579 0.544165 0.392588 0
M  V30 471 H 44.9019 1.9494 0.617956 0
M  V30 472 H 43.0569 2.36853 3.0656 0
M  V30 473 H 43.4709 4.53868 2.62876 0
M  V30 474 H 44.9449 3.68449 4.11035 0
M  V30 475 H 45.4219 2.00011 3.91015 0
M  V30 476 H 46.0279 3.22538 2.77218 0
M  V30 477 N 44.343 -0.763751 1.37857 0
M  V30 478 C 45.291 -1.89864 1.34367 0
M  V30 479 C 46.285 -1.67816 0.231143 0
M  V30 480 O 47.491 -1.75508 0.399617 0
M  V30 481 H 43.866 -0.624501 0.41893 0
M  V30 482 H 45.837 -1.89925 2.30155 0
M  V30 483 C 44.586 -3.27227 1.1755 0
M  V30 484 H 43.909 -3.44773 2.02414 0
M  V30 485 H 45.349 -4.06911 1.1916 0
M  V30 486 C 43.808 -3.36692 -0.118311 0
M  V30 487 O 44.338 -3.86374 -1.09902 0
M  V30 488 N 42.544 -2.90092 -0.171717 0
M  V30 489 H 42.091 -2.49853 0.627012 0
M  V30 490 H 42.049 -2.96806 -1.03699 0
M  V30 491 N 45.8211 -1.22559 -0.990812 0
M  V30 492 C 47.0691 -1.04933 -1.72724 0
M  V30 493 C 47.3901 0.416158 -1.90508 0
M  V30 494 O 46.6601 1.29918 -1.46622 0
M  V30 495 H 45.2401 -0.385296 -0.639965 0
M  V30 496 H 47.9021 -1.54105 -1.19322 0
M  V30 497 H 46.9981 -1.52886 -2.72089 0
M  V30 498 N 47.2992 1.18797 -1.03562 0
M  V30 499 C 48.5762 1.84469 -0.650434 0
M  V30 500 C 48.9562 1.92319 0.870433 0
M  V30 501 O 48.3042 1.44528 1.76986 0
M  V30 502 C 48.5142 3.2306 -1.32036 0
M  V30 503 C 49.8622 3.9915 -1.44792 0
M  V30 504 O 50.8862 3.32481 -1.27806 0
M  V30 505 O 49.7452 5.18587 -1.72423 0
M  V30 506 H 46.8392 0.795251 -0.226946 0
M  V30 507 H 49.3852 1.26231 -1.13419 0
M  V30 508 H 48.1572 3.1222 -2.3587 0
M  V30 509 H 47.7802 3.88949 -0.8249 0
M  V30 510 N 48.7773 0.814389 1.34928 0
M  V30 511 C 50.0173 0.404165 2.00364 0
M  V30 512 C 50.3813 -1.01166 1.63185 0
M  V30 513 O 51.5823 -1.52431 2.21401 0
M  V30 514 C 49.8533 0.590718 3.52484 0
M  V30 515 S 51.4123 0.272075 4.37956 0
M  V30 516 H 48.2303 0.15311 0.694319 0
M  V30 517 H 50.8323 1.05834 1.64376 0
M  V30 518 H 49.5363 1.62099 3.77031 0
M  V30 519 H 49.0673 -0.0785013 3.93322 0
M  V30 520 H 51.0823 -0.917405 4.87645 0
M  V30 521 N 50.2554 -1.46986 0.568584 0
M  V30 522 C 51.6714 -1.57946 0.229189 0
M  V30 523 C 51.8714 -1.56567 -1.26843 0
M  V30 524 O 50.9274 -1.47511 -2.04931 0
M  V30 525 C 52.2404 -2.87963 0.865909 0
M  V30 526 C 53.7884 -3.01568 0.838188 0
M  V30 527 C 54.2634 -4.34301 1.45419 0
M  V30 528 N 55.7544 -4.40965 1.41788 0
M  V30 529 C 56.4894 -5.42256 1.86403 0
M  V30 530 N 55.9854 -6.50297 2.38926 0
M  V30 531 N 57.7784 -5.3337 1.77405 0
M  V30 532 H 49.9294 -1.46126 1.54146 0
M  V30 533 H 52.1924 -0.696156 0.643484 0
M  V30 534 H 51.8984 -2.94742 1.91886 0
M  V30 535 H 51.7724 -3.75423 0.365687 0
M  V30 536 H 54.1594 -2.94379 -0.206106 0
M  V30 537 H 54.2404 -2.1562 1.37629 0
M  V30 538 H 53.8844 -4.42247 2.49761 0
M  V30 539 H 53.8144 -5.19 0.891435 0
M  V30 540 H 56.3054 -3.63484 1.03381 0
M  V30 541 H 56.6184 -7.23777 2.70863 0
M  V30 542 H 54.9634 -6.51155 2.42944 0
M  V30 543 H 58.1544 -4.47865 1.3614 0
M  V30 544 H 58.3274 -6.12169 2.12492 0
M  V30 545 N 51.7335 -0.305618 -1.54608 0
M  V30 546 C 52.9795 0.302746 -2.00528 0
M  V30 547 C 53.3125 1.53184 -1.19367 0
M  V30 548 O 52.5875 1.92598 -0.271321 0
M  V30 549 C 52.8705 0.654756 -3.54097 0
M  V30 550 C 52.7235 -0.583793 -4.45995 0
M  V30 551 C 54.0425 1.47947 -4.14487 0
M  V30 552 H 51.1615 0.108564 -0.72896 0
M  V30 553 H 53.8035 -0.418634 -1.85331 0
M  V30 554 H 51.9535 1.26935 -3.67178 0
M  V30 555 H 53.6255 -1.22224 -4.44814 0
M  V30 556 H 51.8685 -1.21615 -4.16404 0
M  V30 557 H 52.5395 -0.293287 -5.5122 0
M  V30 558 H 55.0155 0.96013 -4.04871 0
M  V30 559 H 53.8915 1.69454 -5.22088 0
M  V30 560 H 54.1525 2.47011 -3.66658 0
M  V30 561 N 53.2116 1.57565 -0.0334293 0
M  V30 562 C 54.1216 2.13943 0.962572 0
M  V30 563 C 55.1376 1.09276 1.35406 0
M  V30 564 O 56.3136 1.41355 1.4346 0
M  V30 565 C 53.3786 2.65887 2.22497 0
M  V30 566 C 52.4396 3.85286 1.8935 0
M  V30 567 C 51.6726 4.34743 3.09571 0
M  V30 568 O 51.8956 3.83352 4.22371 0
M  V30 569 O 50.8296 5.26538 2.91618 0
M  V30 570 H 54.6556 2.99333 0.513169 0
M  V30 571 H 52.2406 1.4822 0.18743 0
M  V30 572 H 54.1226 2.99346 2.96598 0
M  V30 573 H 52.7976 1.83578 2.6661 0
M  V30 574 H 51.7046 3.56746 1.1262 0
M  V30 575 H 53.0376 4.68771 1.5005 0
M  V30 576 N 54.6897 -0.239769 1.55765 0
M  V30 577 C 55.5997 -1.31831 1.94056 0
M  V30 578 C 56.6157 -1.52275 0.841925 0
M  V30 579 O 57.7917 -1.65759 1.14394 0
M  V30 580 C 54.8567 -2.65156 2.23368 0
M  V30 581 C 53.9177 -2.53173 3.46701 0
M  V30 582 C 53.1507 -3.8014 3.74606 0
M  V30 583 O 53.3737 -4.82343 3.04469 0
M  V30 584 O 52.3077 -3.78344 4.68123 0
M  V30 585 H 56.1337 -1.02347 2.85935 0
M  V30 586 H 53.7187 -0.441123 1.42739 0
M  V30 587 H 55.6007 -3.43929 2.43497 0
M  V30 588 H 54.2757 -2.94358 1.34666 0
M  V30 589 H 53.1827 -1.72662 3.31871 0
M  V30 590 H 54.5157 -2.28915 4.35728 0
M  V30 591 N 56.1678 -1.49265 -0.50573 0
M  V30 592 C 57.4078 -1.60128 -1.27038 0
M  V30 593 C 57.7718 -0.279557 -1.89954 0
M  V30 594 O 58.9728 -0.263329 -2.67507 0
M  V30 595 C 57.2438 -2.72507 -2.31246 0
M  V30 596 S 58.8028 -3.0329 -3.17113 0
M  V30 597 H 55.6208 -0.564863 -0.4318 0
M  V30 598 H 58.2228 -1.86902 -0.573397 0
M  V30 599 H 56.9268 -3.67068 -1.83546 0
M  V30 600 H 56.4578 -2.4771 -3.05619 0
M  V30 601 H 58.4728 -2.44448 -4.31809 0
M  V30 602 N 57.6459 0.756429 -1.3826 0
M  V30 603 C 58.6089 1.85176 -1.35065 0
M  V30 604 C 59.6089 1.58818 -0.251703 0
M  V30 605 O 60.7989 1.66615 -0.508433 0
M  V30 606 C 57.9309 3.22596 -1.10201 0
M  V30 607 H 59.1239 1.89417 -2.3251 0
M  V30 608 H 56.6769 0.95783 -1.23512 0
M  V30 609 H 57.4119 3.24025 -0.133504 0
M  V30 610 H 57.1969 3.43122 -1.89762 0
M  V30 611 H 58.6869 4.02673 -1.10654 0
M  V30 612 N 59.124 1.23083 0.984299 0
M  V30 613 C 60.054 1.03292 2.09411 0
M  V30 614 C 61.035 -0.048923 1.7003 0
M  V30 615 O 62.22 0.114967 1.93859 0
M  V30 616 C 59.35 0.619155 3.41736 0
M  V30 617 C 58.304 1.64791 3.95004 0
M  V30 618 C 57.63 1.0897 5.23478 0
M  V30 619 C 58.93 3.03999 4.24714 0
M  V30 620 H 60.624 1.96119 2.26225 0
M  V30 621 H 58.17 0.944344 1.08711 0
M  V30 622 H 60.123 0.467777 4.18796 0
M  V30 623 H 58.847 -0.344786 3.24775 0
M  V30 624 H 57.506 1.78721 3.20085 0
M  V30 625 H 57.154 0.11686 5.02864 0
M  V30 626 H 56.854 1.77704 5.60085 0
M  V30 627 H 58.378 0.950093 6.03163 0
M  V30 628 H 59.792 2.93393 4.92538 0
M  V30 629 H 58.189 3.69936 4.72512 0
M  V30 630 H 59.259 3.53285 3.32142 0
M  V30 631 N 60.6021 -1.18246 1.0419 0
M  V30 632 C 61.8501 -1.87886 0.744543 0
M  V30 633 C 62.1711 -1.8082 -0.730006 0
M  V30 634 O 61.4411 -1.22736 -1.52685 0
M  V30 635 H 60.0211 -0.695556 0.272417 0
M  V30 636 H 62.6831 -1.43494 1.31892 0
M  V30 637 H 61.7791 -2.9389 1.05049 0
M  V30 638 N 62.0802 -0.821533 -1.34494 0
M  V30 639 C 63.0122 -0.199946 -2.28326 0
M  V30 640 C 64.0252 0.609377 -1.50965 0
M  V30 641 O 65.2142 0.439285 -1.7301 0
M  V30 642 C 62.3142 0.738431 -3.30757 0
M  V30 643 C 61.4872 -0.0277632 -4.37391 0
M  V30 644 C 60.5462 0.831332 -5.19591 0
M  V30 645 O 59.5722 0.276822 -5.68526 0
M  V30 646 N 60.7742 2.15132 -5.39165 0
M  V30 647 H 63.5392 -1.00609 -2.82308 0
M  V30 648 H 61.1002 -0.678366 -1.47003 0
M  V30 649 H 63.0922 1.31773 -3.82646 0
M  V30 650 H 61.6622 1.44533 -2.7718 0
M  V30 651 H 60.8822 -0.788359 -3.86236 0
M  V30 652 H 62.1702 -0.555251 -5.05761 0
M  V30 653 H 61.5682 2.62559 -5.01078 0
M  V30 654 H 60.1252 2.6795 -5.94177 0
M  V30 655 N 63.5583 1.46682 -0.576371 0
M  V30 656 C 64.8353 1.95599 0.00703437 0
M  V30 657 C 65.2153 1.51904 1.46589 0
M  V30 658 O 64.5633 0.766755 2.15251 0
M  V30 659 C 64.7733 3.4864 -0.158404 0
M  V30 660 C 66.1213 4.24594 -0.0229439 0
M  V30 661 O 67.1453 3.56094 -0.0869173 0
M  V30 662 O 66.0043 5.46373 0.118015 0
M  V30 663 H 63.0983 0.825275 0.053384 0
M  V30 664 H 65.6443 1.56996 -0.644244 0
M  V30 665 H 64.4163 3.7331 -1.17282 0
M  V30 666 H 64.0393 3.94057 0.5296 0
M  V30 667 N 65.0364 0.313813 1.54444 0
M  V30 668 C 65.9664 -0.549454 2.26943 0
M  V30 669 C 66.9474 -1.12741 1.27372 0
M  V30 670 O 68.1324 -1.15436 1.56167 0
M  V30 671 C 65.2624 -1.71523 3.01989 0
M  V30 672 C 64.2164 -1.26703 4.08816 0
M  V30 673 C 63.5424 -2.51898 4.71647 0
M  V30 674 C 64.8424 -0.388962 5.2085 0
M  V30 675 H 66.5364 0.0552661 2.99349 0
M  V30 676 H 64.0824 0.0280207 1.43973 0
M  V30 677 H 66.0354 -2.32535 3.51433 0
M  V30 678 H 64.7594 -2.34639 2.27183 0
M  V30 679 H 63.4184 -0.679896 3.6024 0
M  V30 680 H 63.0664 -3.13356 3.93468 0
M  V30 681 H 62.7664 -2.22605 5.43802 0
M  V30 682 H 64.2904 -3.1369 5.23861 0
M  V30 683 H 65.7044 -0.905107 5.6611 0
M  V30 684 H 64.1014 -0.18924 5.99802 0
M  V30 685 H 65.1714 0.582699 4.81386 0
M  V30 686 N 66.5145 -1.57545 0.0417849 0
M  V30 687 C 67.7545 -1.94185 -0.63809 0
M  V30 688 C 68.1185 -0.919339 -1.68559 0
M  V30 689 O 69.3195 -1.17236 -2.41886 0
M  V30 690 C 67.5905 -3.35672 -1.22714 0
M  V30 691 S 69.1495 -3.94256 -1.92633 0
M  V30 692 H 65.9675 -0.679353 -0.209764 0
M  V30 693 H 68.5695 -1.95199 0.108479 0
M  V30 694 H 67.2735 -4.07898 -0.452503 0
M  V30 695 H 66.8045 -3.38132 -2.01073 0
M  V30 696 H 68.8195 -3.7872 -3.20602 0
M  V30 697 N 67.9926 0.231505 -1.5589 0
M  V30 698 C 69.4086 0.580748 -1.48659 0
M  V30 699 C 69.6086 1.87617 -0.73498 0
M  V30 700 O 68.6646 2.51046 -0.270586 0
M  V30 701 C 69.9776 0.669202 -2.93159 0
M  V30 702 C 71.5256 0.760499 -3.03621 0
M  V30 703 C 72.0006 0.880383 -4.49459 0
M  V30 704 N 73.4916 0.944861 -4.53461 0
M  V30 705 C 74.2266 1.05716 -5.63571 0
M  V30 706 N 73.7226 1.13403 -6.83456 0
M  V30 707 N 75.5156 1.09152 -5.514 0
M  V30 708 H 67.6666 -0.618695 -2.03189 0
M  V30 709 H 69.9296 -0.215728 -0.923128 0
M  V30 710 H 69.6356 -0.212904 -3.51055 0
M  V30 711 H 69.5096 1.5361 -3.44505 0
M  V30 712 H 71.8966 1.63305 -2.45796 0
M  V30 713 H 71.9776 -0.131864 -2.5546 0
M  V30 714 H 71.6216 0.0123284 -5.07899 0
M  V30 715 H 71.5516 1.78802 -4.95316 0
M  V30 716 H 74.0426 0.896176 -3.6712 0
M  V30 717 H 74.3556 1.21921 -7.63122 0
M  V30 718 H 72.7006 1.10333 -6.86186 0
M  V30 719 H 75.8916 1.02805 -4.56671 0
M  V30 720 H 76.0646 1.17558 -6.37247 0
M  V30 721 N 69.4707 1.49531 0.497807 0
M  V30 722 C 70.6987 1.62893 1.27567 0
M  V30 723 C 71.1137 0.301585 1.86376 0
M  V30 724 O 70.4707 -0.713335 1.67982 0
M  V30 725 C 70.5217 2.70013 2.40364 0
M  V30 726 O 70.2427 3.976 1.83972 0
M  V30 727 C 71.7437 2.94109 3.31685 0
M  V30 728 H 68.9637 0.548298 0.386794 0
M  V30 729 H 71.5077 1.95584 0.597245 0
M  V30 730 H 69.6627 2.40092 3.04031 0
M  V30 731 H 70.0767 4.56631 2.58047 0
M  V30 732 H 71.5507 3.72788 4.07104 0
M  V30 733 H 72.0277 2.04147 3.88871 0
M  V30 734 H 72.6337 3.2546 2.73781 0
M  V30 735 N 70.9488 -0.749086 1.3866 0
M  V30 736 C 72.1768 -1.53834 1.38358 0
M  V30 737 C 72.5918 -1.88783 -0.0255219 0
M  V30 738 O 71.9488 -1.53101 -0.993292 0
M  V30 739 C 71.9998 -2.83468 2.2434 0
M  V30 740 O 71.7208 -2.50008 3.5976 0
M  V30 741 C 73.2218 -3.7758 2.32267 0
M  V30 742 H 70.4418 -0.47585 0.473083 0
M  V30 743 H 72.9858 -0.926726 1.82297 0
M  V30 744 H 71.1408 -3.40995 1.83851 0
M  V30 745 H 71.5548 -3.33182 4.05081 0
M  V30 746 H 73.0288 -4.65478 2.96706 0
M  V30 747 H 73.5058 -4.18334 1.33765 0
M  V30 748 H 74.1118 -3.25976 2.73166 0
M  V30 749 N 72.4269 -1.23603 -0.977757 0
M  V30 750 C 73.6759 -1.06377 -1.71368 0
M  V30 751 C 73.9889 0.399062 -1.91486 0
M  V30 752 O 75.1949 0.691312 -2.62551 0
M  V30 753 C 73.6509 -1.85512 -3.08404 0
M  V30 754 C 73.2589 -3.36141 -2.96164 0
M  V30 755 C 75.0029 -1.76783 -3.85938 0
M  V30 756 C 72.9099 -4.07659 -4.28449 0
M  V30 757 H 71.8399 -0.394452 -0.642591 0
M  V30 758 H 74.4909 -1.47594 -1.09034 0
M  V30 759 H 72.8729 -1.37103 -3.71509 0
M  V30 760 H 74.0469 -3.92056 -2.42133 0
M  V30 761 H 72.3619 -3.45712 -2.32104 0
M  V30 762 H 74.9589 -2.27526 -4.83876 0
M  V30 763 H 75.3019 -0.731116 -4.0983 0
M  V30 764 H 75.8349 -2.22818 -3.2954 0
M  V30 765 H 72.5739 -5.11648 -4.09752 0
M  V30 766 H 72.0939 -3.5653 -4.82334 0
M  V30 767 H 73.7729 -4.141 -4.97122 0
M  V30 768 N 73.905 1.17692 -1.04816 0
M  V30 769 C 75.151 1.88137 -0.75711 0
M  V30 770 C 75.484 1.80604 0.713841 0
M  V30 771 O 74.759 1.21146 1.52164 0
M  V30 772 C 75.042 3.38318 -1.2334 0
M  V30 773 C 74.895 3.54622 -2.76701 0
M  V30 774 C 76.214 4.32214 -0.829415 0
M  V30 775 H 73.333 0.683163 -0.27651 0
M  V30 776 H 75.975 1.38424 -1.30149 0
M  V30 777 H 74.125 3.80787 -0.770286 0
M  V30 778 H 75.797 3.21194 -3.31107 0
M  V30 779 H 74.04 2.97026 -3.16161 0
M  V30 780 H 74.711 4.60028 -3.05088 0
M  V30 781 H 77.187 3.97565 -1.22805 0
M  V30 782 H 76.063 5.35838 -1.19033 0
M  V30 783 H 76.324 4.41294 0.266891 0
M  V30 784 N 75.3831 0.828654 1.34056 0
M  V30 785 C 76.7991 0.515135 1.51058 0
M  V30 786 C 76.9991 -0.959581 1.77184 0
M  V30 787 O 76.0551 -1.74382 1.82612 0
M  V30 788 C 77.3681 1.37963 2.67183 0
M  V30 789 C 78.9161 1.37735 2.81066 0
M  V30 790 C 79.3911 2.22645 4.00241 0
M  V30 791 N 80.8821 2.203 4.07458 0
M  V30 792 C 81.6171 2.82744 4.98842 0
M  V30 793 N 81.1131 3.54201 5.9541 0
M  V30 794 N 82.9061 2.72268 4.91759 0
M  V30 795 H 75.0571 1.78343 1.15358 0
M  V30 796 H 77.3201 0.760304 0.566252 0
M  V30 797 H 77.0261 2.42714 2.54525 0
M  V30 798 H 76.9001 1.0484 3.62338 0
M  V30 799 H 79.2871 0.337593 2.93163 0
M  V30 800 H 79.3681 1.74859 1.86703 0
M  V30 801 H 79.0121 3.26674 3.88905 0
M  V30 802 H 78.9421 1.82869 4.93829 0
M  V30 803 H 81.4331 1.68327 3.38341 0
M  V30 804 H 81.7461 3.9908 6.61782 0
M  V30 805 H 80.0911 3.58308 5.95517 0
M  V30 806 H 83.2821 2.16014 4.15278 0
M  V30 807 H 83.4551 3.21219 5.62781 0
M  V30 808 N 76.8612 -1.46375 0.584142 0
M  V30 809 C 77.7912 -2.33103 -0.136037 0
M  V30 810 C 78.7722 -1.45431 -0.882255 0
M  V30 811 O 79.9572 -1.74246 -0.857434 0
M  V30 812 C 77.0872 -3.27731 -1.14933 0
M  V30 813 C 76.0412 -4.24855 -0.517862 0
M  V30 814 C 75.3672 -5.09001 -1.63773 0
M  V30 815 C 76.6672 -5.19439 0.545886 0
M  V30 816 H 78.3612 -2.93568 0.588086 0
M  V30 817 H 75.9072 -1.41166 0.284259 0
M  V30 818 H 77.8602 -3.87261 -1.66153 0
M  V30 819 H 76.5842 -2.65377 -1.90375 0
M  V30 820 H 75.2432 -3.6659 -0.0267361 0
M  V30 821 H 74.8912 -4.43031 -2.38185 0
M  V30 822 H 74.5912 -5.74777 -1.22085 0
M  V30 823 H 76.1152 -5.71396 -2.15266 0
M  V30 824 H 77.5292 -5.73177 0.118704 0
M  V30 825 H 75.9262 -5.93566 0.88317 0
M  V30 826 H 76.9962 -4.63285 1.43162 0
M  V30 827 N 78.3393 -0.321999 -1.54275 0
M  V30 828 C 79.5853 0.274234 -2.01543 0
M  V30 829 C 79.9403 1.499 -1.20614 0
M  V30 830 O 79.2333 1.89546 -0.279804 0
M  V30 831 C 79.4273 0.661769 -3.5122 0
M  V30 832 C 79.2563 -0.523892 -4.46638 0
M  V30 833 C 78.0263 -1.02251 -4.94846 0
M  V30 834 C 80.2243 -1.37558 -4.95563 0
M  V30 835 N 78.2063 -2.17274 -5.74165 0
M  V30 836 C 79.5773 -2.37301 -5.7279 0
M  V30 837 C 81.6323 -1.40353 -4.77709 0
M  V30 838 C 80.3353 -3.3964 -6.34064 0
M  V30 839 C 82.3613 -2.41562 -5.39817 0
M  V30 840 C 81.7233 -3.40031 -6.16894 0
M  V30 841 H 77.8223 0.0642367 -0.779357 0
M  V30 842 H 80.4063 -0.456683 -1.89268 0
M  V30 843 H 78.5773 1.36182 -3.63743 0
M  V30 844 H 80.3093 1.23934 -3.85256 0
M  V30 845 H 77.0643 -0.594046 -4.6986 0
M  V30 846 H 77.4883 -2.75289 -6.18502 0
M  V30 847 H 82.1303 -0.655907 -4.17681 0
M  V30 848 H 79.8483 -4.15309 -6.93213 0
M  V30 849 H 83.4343 -2.44524 -5.2792 0
M  V30 850 H 82.3143 -4.17063 -6.64099 0
M  V30 851 N 79.8174 1.5752 -0.0501392 0
M  V30 852 C 80.7274 2.14952 0.939827 0
M  V30 853 C 81.7434 1.10706 1.34239 0
M  V30 854 O 82.9194 1.42869 1.41952 0
M  V30 855 C 79.9844 2.68232 2.19665 0
M  V30 856 C 79.0454 3.87272 1.85253 0
M  V30 857 C 78.2784 4.38002 3.04943 0
M  V30 858 O 78.5014 3.87811 4.18281 0
M  V30 859 O 77.4354 5.29602 2.86017 0
M  V30 860 H 81.2614 2.9986 0.481392 0
M  V30 861 H 78.8464 1.4841 0.171699 0
M  V30 862 H 80.7284 3.02475 2.93406 0
M  V30 863 H 79.4034 1.86395 2.64648 0
M  V30 864 H 78.3104 3.5792 1.0883 0
M  V30 865 H 79.6434 4.70336 1.4507 0
M  V30 866 N 81.2955 -0.223234 1.56011 0
M  V30 867 C 82.2055 -1.29766 1.95443 0
M  V30 868 C 83.2215 -1.51373 0.858028 0
M  V30 869 O 84.3975 -1.64536 1.16146 0
M  V30 870 C 81.4625 -2.62772 2.26167 0
M  V30 871 C 80.5235 -2.49482 3.49367 0
M  V30 872 C 79.7565 -3.76145 3.78616 0
M  V30 873 O 79.9795 -4.79087 3.09568 0
M  V30 874 O 78.9135 -3.73358 4.72109 0
M  V30 875 H 82.7395 -0.99309 2.87004 0
M  V30 876 H 80.3245 -0.425958 1.43199 0
M  V30 877 H 82.2065 -3.41327 2.47131 0
M  V30 878 H 80.8815 -2.92913 1.37781 0
M  V30 879 H 79.7885 -1.69133 3.33684 0
M  V30 880 H 81.1215 -2.2428 4.38131 0
M  V30 881 N 82.7736 -1.49793 -0.48987 0
M  V30 882 C 84.0216 -1.59525 -1.24081 0
M  V30 883 C 84.3426 -0.288953 -1.92847 0
M  V30 884 O 83.6126 0.692436 -1.83254 0
M  V30 885 H 82.1926 -0.587796 -0.460983 0
M  V30 886 H 84.8546 -1.86477 -0.566778 0
M  V30 887 H 83.9506 -2.39696 -1.99881 0
M  V30 888 N 84.2517 0.741722 -1.39055 0
M  V30 889 C 85.1617 1.88621 -1.39496 0
M  V30 890 C 86.1777 1.71557 -0.290578 0
M  V30 891 O 87.3537 1.94275 -0.530954 0
M  V30 892 C 84.4187 3.24134 -1.23037 0
M  V30 893 C 83.4797 3.5364 -2.43387 0
M  V30 894 C 82.7127 4.82687 -2.27703 0
M  V30 895 O 82.9357 5.55922 -1.27696 0
M  V30 896 O 81.8697 5.1194 -3.16545 0
M  V30 897 H 85.6957 1.91203 -2.35956 0
M  V30 898 H 83.2807 0.888625 -1.20099 0
M  V30 899 H 85.1627 4.0513 -1.15964 0
M  V30 900 H 83.8377 3.22337 -0.296691 0
M  V30 901 H 82.7447 2.72758 -2.56035 0
M  V30 902 H 84.0777 3.60209 -3.35425 0
M  V30 903 N 85.7298 1.2412 0.971189 0
M  V30 904 C 86.6398 1.04747 2.09917 0
M  V30 905 C 87.6558 -0.0107162 1.73997 0
M  V30 906 O 88.8318 0.186714 2.00533 0
M  V30 907 C 85.8968 0.650828 3.40537 0
M  V30 908 C 84.9578 1.7851 3.90426 0
M  V30 909 C 84.1908 1.40729 5.14812 0
M  V30 910 O 84.4138 0.29557 5.69634 0
M  V30 911 O 83.3478 2.23168 5.58999 0
M  V30 912 H 87.1738 1.99304 2.29154 0
M  V30 913 H 84.7588 1.02908 1.08307 0
M  V30 914 H 86.6408 0.440992 4.19086 0
M  V30 915 H 85.3158 -0.265649 3.22608 0
M  V30 916 H 84.2228 2.04966 3.12953 0
M  V30 917 H 85.5558 2.68023 4.12825 0
M  V30 918 N 87.2079 -1.17134 1.05439 0
M  V30 919 C 88.1379 -2.2342 0.678649 0
M  V30 920 C 89.1189 -1.66971 -0.32476 0
M  V30 921 O 90.3039 -1.93149 -0.201802 0
M  V30 922 C 87.4339 -3.47256 0.0552099 0
M  V30 923 C 86.3879 -4.16543 0.98365 0
M  V30 924 C 85.7139 -5.34231 0.223961 0
M  V30 925 C 87.0139 -4.68495 2.3089 0
M  V30 926 H 88.7079 -2.55105 1.56722 0
M  V30 927 H 86.2539 -1.2262 0.754998 0
M  V30 928 H 88.2069 -4.20828 -0.21946 0
M  V30 929 H 86.9309 -3.14846 -0.868319 0
M  V30 930 H 85.5899 -3.44887 1.24293 0
M  V30 931 H 85.2379 -4.98071 -0.702412 0
M  V30 932 H 84.9379 -5.81527 0.842627 0
M  V30 933 H 86.4619 -6.10585 -0.0433671 0
M  V30 934 H 87.8759 -5.33691 2.09396 0
M  V30 935 H 86.2729 -5.26379 2.88176 0
M  V30 936 H 87.3429 -3.85169 2.94572 0
M  V30 937 N 88.686 -0.835752 -1.33615 0
M  V30 938 C 89.596 -0.269088 -2.33052 0
M  V30 939 C 90.612 0.603251 -1.63208 0
M  V30 940 O 91.788 0.508112 -1.94885 0
M  V30 941 C 88.853 0.549091 -3.42324 0
M  V30 942 C 87.914 -0.347156 -4.27894 0
M  V30 943 C 87.147 0.43207 -5.31948 0
M  V30 944 O 87.37 1.66409 -5.45586 0
M  V30 945 O 86.304 -0.192298 -6.01593 0
M  V30 946 H 90.13 -1.09243 -2.83372 0
M  V30 947 H 87.715 -0.598198 -1.36901 0
M  V30 948 H 89.597 1.01414 -4.09015 0
M  V30 949 H 88.272 1.34955 -2.94226 0
M  V30 950 H 87.179 -0.859979 -3.64081 0
M  V30 951 H 88.512 -1.1123 -4.79467 0
M  V30 952 N 90.1641 1.46063 -0.591896 0
M  V30 953 C 91.0941 2.33172 0.123673 0
M  V30 954 C 92.0751 1.45897 0.87453 0
M  V30 955 O 93.2601 1.74698 0.848181 0
M  V30 956 C 90.3901 3.28336 1.13194 0
M  V30 957 C 89.3441 4.25124 0.495324 0
M  V30 958 C 88.6701 5.09863 1.61071 0
M  V30 959 C 89.9701 5.19143 -0.573425 0
M  V30 960 H 91.6641 2.93252 -0.603646 0
M  V30 961 H 89.2101 1.41014 -0.291741 0
M  V30 962 H 91.1631 3.88137 1.64097 0
M  V30 963 H 89.8871 2.66383 1.88965 0
M  V30 964 H 88.5461 3.66599 0.00729452 0
M  V30 965 H 88.1941 4.44288 2.35832 0
M  V30 966 H 87.8941 5.75417 1.19035 0
M  V30 967 H 89.4181 5.72529 2.12233 0
M  V30 968 H 90.8321 5.73106 -0.1491 0
M  V30 969 H 89.2291 5.93089 -0.914636 0
M  V30 970 H 90.2991 4.62519 -1.45617 0
M  V30 971 N 91.6422 0.330177 1.54103 0
M  V30 972 C 92.8882 -0.270806 2.00984 0
M  V30 973 C 93.2212 -1.51265 1.21789 0
M  V30 974 O 92.4962 -1.92142 0.301927 0
M  V30 975 C 92.7792 -0.598339 3.55094 0
M  V30 976 C 92.6322 0.654674 4.4501 0
M  V30 977 C 93.9512 -1.41334 4.16789 0
M  V30 978 H 91.0702 -0.0969531 0.730595 0
M  V30 979 H 93.7122 0.448066 1.84641 0
M  V30 980 H 91.8622 -1.21078 3.69151 0
M  V30 981 H 93.5342 1.29285 4.42813 0
M  V30 982 H 91.7772 1.28224 4.14416 0
M  V30 983 H 92.4482 0.380944 5.50684 0
M  V30 984 H 94.9242 -0.895597 4.06347 0
M  V30 985 H 93.8002 -1.61127 5.24718 0
M  V30 986 H 94.0612 -2.41146 3.70541 0
M  V30 987 N 93.1203 -1.57491 0.0584922 0
M  V30 988 C 94.0303 -2.15448 -0.928414 0
M  V30 989 C 95.0463 -1.11416 -1.3365 0
M  V30 990 O 96.2223 -1.4362 -1.41193 0
M  V30 991 C 93.2873 -2.69393 -2.18239 0
M  V30 992 C 92.3483 -3.88249 -1.83196 0
M  V30 993 C 91.5813 -4.39613 -3.02616 0
M  V30 994 O 91.8043 -3.90023 -4.16219 0
M  V30 995 O 90.7383 -5.31111 -2.83204 0
M  V30 996 H 94.5643 -3.00112 -0.465483 0
M  V30 997 H 92.1493 -1.48499 -0.163826 0
M  V30 998 H 94.0313 -3.04026 -2.91798 0
M  V30 999 H 92.7063 -1.87796 -2.63656 0
M  V30 1000 H 91.6133 -3.58492 -1.06931 0
M  V30 1001 H 92.9463 -4.71098 -1.42573 0
M  V30 1002 N 94.5984 0.214957 -1.56127 0
M  V30 1003 C 95.5454 1.26642 -1.92952 0
M  V30 1004 C 96.5154 1.46244 -0.78753 0
M  V30 1005 O 97.7004 1.59704 -1.04399 0
M  V30 1006 C 94.8404 2.6104 -2.25726 0
M  V30 1007 C 93.9534 2.49183 -3.52891 0
M  V30 1008 C 93.0884 3.76149 -3.7508 0
M  V30 1009 C 92.1274 3.59041 -4.95738 0
M  V30 1010 N 91.2644 4.77972 -5.14283 0
M  V30 1011 H 96.1044 0.945384 -2.82607 0
M  V30 1012 H 93.6414 0.455489 -1.3987 0
M  V30 1013 H 95.5994 3.39313 -2.42739 0
M  V30 1014 H 94.2294 2.91227 -1.39236 0
M  V30 1015 H 93.2814 1.6231 -3.44034 0
M  V30 1016 H 94.5934 2.32466 -4.41318 0
M  V30 1017 H 93.7474 4.62865 -3.92226 0
M  V30 1018 H 92.4864 3.95799 -2.84947 0
M  V30 1019 H 91.4914 2.7071 -4.78535 0
M  V30 1020 H 92.7164 3.40856 -5.87362 0
M  V30 1021 H 90.6624 4.97923 -4.27093 0
M  V30 1022 H 90.5794 4.64006 -5.96853 0
M  V30 1023 H 91.8474 5.66096 -5.35869 0
M  V30 1024 N 96.0765 1.50051 0.48192 0
M  V30 1025 C 97.3015 1.64508 1.26301 0
M  V30 1026 C 97.7265 0.323851 1.85291 0
M  V30 1027 O 97.0845 -0.710969 1.66778 0
M  V30 1028 C 97.1325 2.7305 2.35533 0
M  V30 1029 O 96.2365 2.3355 3.39895 0
M  V30 1030 H 95.5775 0.549978 0.372048 0
M  V30 1031 H 98.1075 1.9636 0.574786 0
M  V30 1032 H 98.1175 2.95799 2.8101 0
M  V30 1033 H 96.7925 3.68946 1.91967 0
M  V30 1034 H 95.3695 2.21205 3.00204 0
M  V30 1035 N 97.5546 -0.734337 1.39446 0
M  V30 1036 C 98.7946 -1.50655 1.38139 0
M  V30 1037 C 99.1586 -1.91986 -0.0228701 0
M  V30 1038 O 100.36 -2.68318 -0.160947 0
M  V30 1039 C 98.6306 -2.71251 2.32718 0
M  V30 1040 S 100.19 -3.60892 2.49605 0
M  V30 1041 H 97.0076 -0.515315 0.489869 0
M  V30 1042 H 99.6096 -0.860392 1.75549 0
M  V30 1043 H 98.3136 -2.39027 3.33608 0
M  V30 1044 H 97.8446 -3.40795 1.96526 0
M  V30 1045 H 99.8596 -4.64899 1.73446 0
M  V30 1046 N 99.0327 -1.24633 -0.964593 0
M  V30 1047 C 100.261 -1.11501 -1.74285 0
M  V30 1048 C 100.676 0.332165 -1.85855 0
M  V30 1049 O 100.033 1.22903 -1.34911 0
M  V30 1050 C 100.084 -1.75258 -3.16175 0
M  V30 1051 O 99.8047 -3.14318 -3.05182 0
M  V30 1052 C 101.306 -1.67776 -4.10324 0
M  V30 1053 H 98.5257 -0.389407 -0.546446 0
M  V30 1054 H 101.07 -1.64801 -1.21083 0
M  V30 1055 H 99.2247 -1.25954 -3.66353 0
M  V30 1056 H 99.6387 -3.4551 -3.94618 0
M  V30 1057 H 101.113 -2.17064 -5.0753 0
M  V30 1058 H 101.59 -0.639584 -4.34518 0
M  V30 1059 H 102.196 -2.16522 -3.66058 0
M  V30 1060 N 100.511 1.16574 -1.06058 0
M  V30 1061 C 101.461 2.18854 -0.63929 0
M  V30 1062 C 102.445 1.57505 0.328798 0
M  V30 1063 O 103.637 1.76408 0.144623 0
M  V30 1064 C 100.766 3.43291 -0.0247203 0
M  V30 1065 C 99.8518 4.11722 -1.01716 0
M  V30 1066 N 100.243 4.55841 -2.19186 0
M  V30 1067 C 98.5408 4.37872 -0.847569 0
M  V30 1068 C 99.2418 5.08751 -2.82042 0
M  V30 1069 N 98.2178 5.01489 -2.09784 0
M  V30 1070 H 102.02 2.5068 -1.53417 0
M  V30 1071 H 99.5338 1.32999 -0.931935 0
M  V30 1072 H 101.531 4.15856 0.294915 0
M  V30 1073 H 100.191 3.12954 0.865448 0
M  V30 1074 H 101.202 4.49649 -2.56975 0
M  V30 1075 H 97.8788 4.17499 -0.00918848 0
M  V30 1076 H 99.2688 5.52944 -3.81709 0
M  V30 1077 N 101.989 0.842826 1.3317 0
M  V30 1078 C 103.214 0.453129 2.02389 0
M  V30 1079 C 103.639 -0.939105 1.6298 0
M  V30 1080 O 102.997 -1.61472 0.8244 0
M  V30 1081 C 103.045 0.586094 3.55805 0
M  V30 1082 O 102.149 -0.386029 4.10589 0
M  V30 1083 H 101.49 0.183664 0.638094 0
M  V30 1084 H 104.02 1.13875 1.69981 0
M  V30 1085 H 104.03 0.469209 4.05293 0
M  V30 1086 H 102.705 1.6014 3.83833 0
M  V30 1087 H 101.282 -0.226371 3.72212 0
M  V30 1088 N 103.467 -1.45747 0.599634 0
M  V30 1089 C 104.377 -2.34262 -0.125888 0
M  V30 1090 C 105.393 -1.50768 -0.868625 0
M  V30 1091 O 106.569 -1.83592 -0.828003 0
M  V30 1092 C 103.634 -3.28252 -1.11587 0
M  V30 1093 C 102.695 -4.27651 -0.375956 0
M  V30 1094 C 101.928 -5.1715 -1.31877 0
M  V30 1095 O 102.151 -5.09916 -2.55621 0
M  V30 1096 O 101.085 -5.96286 -0.820157 0
M  V30 1097 H 104.911 -2.97688 0.601315 0
M  V30 1098 H 102.496 -1.44999 0.359934 0
M  V30 1099 H 104.378 -3.86191 -1.68626 0
M  V30 1100 H 103.053 -2.67401 -1.82424 0
M  V30 1101 H 101.96 -3.7335 0.236698 0
M  V30 1102 H 103.293 -4.91334 0.29177 0
M  V30 1103 N 104.945 -0.338344 -1.53925 0
M  V30 1104 C 105.892 0.520845 -2.24846 0
M  V30 1105 C 106.862 1.09976 -1.24477 0
M  V30 1106 O 108.047 1.13735 -1.53196 0
M  V30 1107 C 105.187 1.6685 -3.02084 0
M  V30 1108 C 104.3 1.11739 -4.17299 0
M  V30 1109 C 103.435 2.23193 -4.82036 0
M  V30 1110 C 102.474 1.65407 -5.89328 0
M  V30 1111 N 101.611 2.70582 -6.47866 0
M  V30 1112 H 106.451 -0.0904881 -2.97863 0
M  V30 1113 H 103.988 -0.0564282 -1.46992 0
M  V30 1114 H 105.946 2.34407 -3.45122 0
M  V30 1115 H 104.576 2.2509 -2.31375 0
M  V30 1116 H 103.628 0.332919 -3.7894 0
M  V30 1117 H 104.94 0.654677 -4.94485 0
M  V30 1118 H 104.094 2.98626 -5.28117 0
M  V30 1119 H 102.833 2.72807 -4.04262 0
M  V30 1120 H 101.838 0.884779 -5.42634 0
M  V30 1121 H 103.063 1.16652 -6.69006 0
M  V30 1122 H 101.009 3.1946 -5.72959 0
M  V30 1123 H 100.926 2.28917 -7.20509 0
M  V30 1124 H 102.194 3.45799 -6.98601 0
M  V30 1125 N 106.423 1.57458 -0.0668435 0
M  V30 1126 C 107.651 1.97624 0.612565 0
M  V30 1127 C 108.066 0.94502 1.63447 0
M  V30 1128 O 107.423 -0.0689276 1.8237 0
M  V30 1129 C 107.474 3.37869 1.28555 0
M  V30 1130 O 107.195 4.3704 0.304557 0
M  V30 1131 C 108.696 3.92882 2.05325 0
M  V30 1132 H 105.916 0.650045 0.166381 0
M  V30 1133 H 108.46 2.04035 -0.137782 0
M  V30 1134 H 106.615 3.3256 1.98702 0
M  V30 1135 H 107.029 5.18565 0.786779 0
M  V30 1136 H 108.503 4.93247 2.47812 0
M  V30 1137 H 108.98 3.29156 2.9078 0
M  V30 1138 H 109.586 4.01577 1.40056 0
M  V30 1139 N 107.901 -0.206675 1.56239 0
M  V30 1140 C 108.849 -1.27571 1.94495 0
M  V30 1141 C 109.843 -1.47737 0.828862 0
M  V30 1142 O 111.049 -1.48735 1.0138 0
M  V30 1143 H 107.424 -0.428029 0.6183 0
M  V30 1144 H 109.395 -0.925961 2.8367 0
M  V30 1145 C 108.144 -2.61568 2.29079 0
M  V30 1146 H 107.467 -2.46863 3.14482 0
M  V30 1147 H 108.907 -3.35144 2.5972 0
M  V30 1148 C 107.366 -3.17695 1.12123 0
M  V30 1149 O 107.896 -3.99801 0.390153 0
M  V30 1150 N 106.102 -2.76276 0.901097 0
M  V30 1151 H 105.649 -2.09613 1.49733 0
M  V30 1152 H 105.607 -3.1417 0.120319 0
M  V30 1153 N 109.379 -1.50304 -0.473955 0
M  V30 1154 C 110.795 -1.37667 -0.807466 0
M  V30 1155 C 110.995 -0.430555 -1.96846 0
M  V30 1156 O 110.051 0.127874 -2.52176 0
M  V30 1157 C 111.364 -2.78974 -1.12223 0
M  V30 1158 C 112.912 -2.87868 -1.22885 0
M  V30 1159 C 113.387 -4.30003 -1.57676 0
M  V30 1160 N 114.878 -4.3294 -1.64673 0
M  V30 1161 C 115.613 -5.3991 -1.93091 0
M  V30 1162 N 115.109 -6.57092 -2.1955 0
M  V30 1163 N 116.902 -5.27351 -1.94569 0
M  V30 1164 H 109.053 -2.10394 0.291212 0
M  V30 1165 H 111.316 -0.945575 0.0677609 0
M  V30 1166 H 111.022 -3.50031 -0.342229 0
M  V30 1167 H 110.896 -3.16038 -2.05913 0
M  V30 1168 H 113.283 -2.17032 -1.99953 0
M  V30 1169 H 113.364 -2.54352 -0.271814 0
M  V30 1170 H 113.008 -5.01375 -0.81149 0
M  V30 1171 H 112.938 -4.61004 -2.54525 0
M  V30 1172 H 115.429 -3.48441 -1.46277 0
M  V30 1173 H 115.742 -7.34425 -2.405 0
M  V30 1174 H 114.087 -6.60272 -2.16948 0
M  V30 1175 H 117.278 -4.34801 -1.73394 0
M  V30 1176 H 117.451 -6.10805 -2.16381 0
M  V30 1177 N 110.857 0.726932 -1.39834 0
M  V30 1178 C 112.085 1.51613 -1.40787 0
M  V30 1179 C 112.5 1.88799 -0.00451505 0
M  V30 1180 O 111.857 1.54662 0.968809 0
M  V30 1181 C 111.908 2.79863 -2.28821 0
M  V30 1182 O 111.629 2.44253 -3.63692 0
M  V30 1183 C 113.13 3.73837 -2.38245 0
M  V30 1184 H 110.35 0.468264 -0.480593 0
M  V30 1185 H 112.894 0.897607 -1.83748 0
M  V30 1186 H 111.049 3.38027 -1.89252 0
M  V30 1187 H 111.463 3.26695 -4.1033 0
M  V30 1188 H 112.937 4.60699 -3.04073 0
M  V30 1189 H 113.414 4.16153 -1.40403 0
M  V30 1190 H 114.02 3.21589 -2.78317 0
M  V30 1191 N 112.336 1.25143 0.95797 0
M  V30 1192 C 113.266 1.07711 2.07173 0
M  V30 1193 C 114.247 -0.0128462 1.70095 0
M  V30 1194 O 115.432 0.156061 1.93572 0
M  V30 1195 C 112.562 0.691503 3.40346 0
M  V30 1196 C 111.516 1.73132 3.9142 0
M  V30 1197 C 110.842 1.20049 5.21049 0
M  V30 1198 C 112.142 3.1294 4.1817 0
M  V30 1199 H 113.836 2.00873 2.22014 0
M  V30 1200 H 111.382 0.967191 1.06684 0
M  V30 1201 H 113.335 0.556505 4.17709 0
M  V30 1202 H 112.059 -0.275819 3.25433 0
M  V30 1203 H 110.718 1.8547 3.16222 0
M  V30 1204 H 110.366 0.223499 5.02503 0
M  V30 1205 H 110.066 1.89545 5.56189 0
M  V30 1206 H 111.59 1.07782 6.01012 0
M  V30 1207 H 113.004 3.03775 4.86203 0
M  V30 1208 H 111.401 3.79875 4.64559 0
M  V30 1209 H 112.471 3.6025 3.24573 0
M  V30 1210 N 113.814 -1.1601 1.06675 0
M  V30 1211 C 115.039 -1.91068 0.806706 0
M  V30 1212 C 115.464 -1.77112 -0.633485 0
M  V30 1213 O 114.822 -1.09908 -1.44187 0
M  V30 1214 C 114.87 -3.39655 1.21106 0
M  V30 1215 O 113.974 -4.10893 0.352189 0
M  V30 1216 H 113.315 -0.595125 0.294486 0
M  V30 1217 H 115.845 -1.46955 1.42356 0
M  V30 1218 H 115.855 -3.90434 1.18428 0
M  V30 1219 H 114.53 -3.49132 2.26008 0
M  V30 1220 H 113.107 -3.70285 0.440868 0
M  V30 1221 N 115.292 -0.849877 -1.32721 0
M  V30 1222 C 116.522 -0.46408 -2.0132 0
M  V30 1223 C 116.93 0.94246 -1.64056 0
M  V30 1224 O 116.273 1.6257 -0.855379 0
M  V30 1225 C 116.335 -0.517887 -3.5575 0
M  V30 1226 C 115.999 -1.88248 -4.16427 0
M  V30 1227 C 116.996 -2.84726 -4.35002 0
M  V30 1228 C 114.681 -2.17832 -4.52609 0
M  V30 1229 C 116.675 -4.08945 -4.8892 0
M  V30 1230 C 114.362 -3.42304 -5.06232 0
M  V30 1231 C 115.36 -4.37677 -5.24335 0
M  V30 1232 O 115.048 -5.59946 -5.76815 0
M  V30 1233 H 114.78 -0.181327 -0.651227 0
M  V30 1234 H 117.334 -1.14713 -1.70382 0
M  V30 1235 H 115.564 0.221997 -3.86062 0
M  V30 1236 H 117.253 -0.148366 -4.05629 0
M  V30 1237 H 118.019 -2.63174 -4.07388 0
M  V30 1238 H 113.898 -1.44385 -4.37806 0
M  V30 1239 H 117.442 -4.83396 -5.02966 0
M  V30 1240 H 113.339 -3.63709 -5.33278 0
M  V30 1241 H 114.107 -5.61838 -5.95214 0
M  V30 1242 N 116.77 1.45427 -0.607355 0
M  V30 1243 C 118.186 1.57283 -0.270985 0
M  V30 1244 C 118.386 1.59875 1.22647 0
M  V30 1245 O 117.442 1.52893 2.00948 0
M  V30 1246 C 118.755 2.85566 -0.941952 0
M  V30 1247 C 120.303 2.9924 -0.917849 0
M  V30 1248 C 120.778 4.30293 -1.56882 0
M  V30 1249 N 122.269 4.37051 -1.5343 0
M  V30 1250 C 123.004 5.37123 -2.00715 0
M  V30 1251 N 122.5 6.43734 -2.56084 0
M  V30 1252 N 124.293 5.28479 -1.91484 0
M  V30 1253 H 116.444 1.41988 -1.57966 0
M  V30 1254 H 118.707 0.67885 -0.661715 0
M  V30 1255 H 118.413 2.8955 -1.99633 0
M  V30 1256 H 118.287 3.74322 -0.465096 0
M  V30 1257 H 120.674 2.94822 0.127984 0
M  V30 1258 H 120.755 2.11895 -1.43297 0
M  V30 1259 H 120.399 4.35469 -2.61398 0
M  V30 1260 H 120.329 5.16454 -1.02873 0
M  V30 1261 H 122.82 3.60615 -1.12982 0
M  V30 1262 H 123.133 7.16341 -2.89958 0
M  V30 1263 H 121.478 6.44485 -2.60122 0
M  V30 1264 H 124.669 4.44098 -1.47967 0
M  V30 1265 H 124.842 6.0632 -2.28648 0
M  V30 1266 N 118.248 0.346503 1.53744 0
M  V30 1267 C 119.476 -0.25041 2.05379 0
M  V30 1268 C 119.891 -1.43979 1.22129 0
M  V30 1269 O 119.248 -1.80677 0.257321 0
M  V30 1270 C 119.299 -0.662575 3.55376 0
M  V30 1271 O 119.02 0.479515 4.35468 0
M  V30 1272 C 120.521 -1.31989 4.23195 0
M  V30 1273 H 117.741 -0.0478198 0.669294 0
M  V30 1274 H 120.285 0.499346 1.9831 0
M  V30 1275 H 118.44 -1.36227 3.62658 0
M  V30 1276 H 118.854 0.15037 5.24284 0
M  V30 1277 H 120.328 -1.55902 5.29527 0
M  V30 1278 H 120.805 -2.27436 3.75725 0
M  V30 1279 H 121.411 -0.662154 4.20114 0
M  V30 1280 N 119.726 -1.57421 0.075193 0
M  V30 1281 C 120.974 -1.93236 -0.591974 0
M  V30 1282 C 121.295 -0.956241 -1.69944 0
M  V30 1283 O 120.565 -0.00494792 -1.95899 0
M  V30 1284 H 119.145 -0.713355 -0.22166 0
M  V30 1285 H 121.807 -1.9444 0.133848 0
M  V30 1286 H 120.903 -2.95131 -1.01509 0
M  V30 1287 N 121.204 0.198386 -1.56346 0
M  V30 1288 C 122.134 1.24865 -1.9731 0
M  V30 1289 C 123.115 1.47651 -0.844576 0
M  V30 1290 O 124.3 1.59444 -1.10866 0
M  V30 1291 C 121.43 2.59358 -2.30977 0
M  V30 1292 C 120.384 2.5119 -3.46537 0
M  V30 1293 C 119.71 3.89926 -3.65871 0
M  V30 1294 C 121.01 2.03977 -4.80823 0
M  V30 1295 H 122.704 0.908252 -2.85291 0
M  V30 1296 H 120.25 0.435462 -1.37258 0
M  V30 1297 H 122.203 3.33011 -2.58228 0
M  V30 1298 H 120.927 2.95132 -1.39874 0
M  V30 1299 H 119.586 1.79993 -3.19371 0
M  V30 1300 H 119.234 4.23046 -2.72105 0
M  V30 1301 H 118.934 3.85336 -4.4361 0
M  V30 1302 H 120.458 4.65205 -3.95495 0
M  V30 1303 H 121.872 2.67386 -5.07127 0
M  V30 1304 H 120.269 2.10397 -5.62008 0
M  V30 1305 H 121.339 0.992861 -4.74626 0
M  V30 1306 N 122.682 1.50554 0.465978 0
M  V30 1307 C 123.629 1.6979 1.56333 0
M  V30 1308 C 124.599 0.539239 1.57103 0
M  V30 1309 O 125.784 0.770401 1.74555 0
M  V30 1310 C 122.924 1.80273 2.94271 0
M  V30 1311 C 122.037 3.07674 3.0325 0
M  V30 1312 C 121.172 3.08922 4.32135 0
M  V30 1313 C 120.211 4.30755 4.34875 0
M  V30 1314 N 119.348 4.29714 5.55239 0
M  V30 1315 H 124.188 2.63472 1.39235 0
M  V30 1316 H 121.725 1.30602 0.676873 0
M  V30 1317 H 123.683 1.84332 3.74269 0
M  V30 1318 H 122.313 0.900258 3.09992 0
M  V30 1319 H 121.365 3.13062 2.16094 0
M  V30 1320 H 122.677 3.97642 3.01135 0
M  V30 1321 H 121.831 3.11738 5.20485 0
M  V30 1322 H 120.57 2.16792 4.36866 0
M  V30 1323 H 119.575 4.28146 3.44922 0
M  V30 1324 H 120.8 5.24117 4.31831 0
M  V30 1325 H 118.746 3.4044 5.60746 0
M  V30 1326 H 118.663 5.13456 5.54886 0
M  V30 1327 H 119.931 4.36683 6.457 0
M  V30 1328 N 124.16 -0.719506 1.40217 0
M  V30 1329 C 125.409 -1.47486 1.37589 0
M  V30 1330 C 125.722 -1.9559 -0.0201568 0
M  V30 1331 O 126.928 -2.70973 -0.169049 0
M  V30 1332 C 125.384 -2.66575 2.41796 0
M  V30 1333 C 124.992 -2.25358 3.87192 0
M  V30 1334 C 126.736 -3.4433 2.48269 0
M  V30 1335 C 124.643 -3.41262 4.83005 0
M  V30 1336 H 123.573 -0.553901 0.511576 0
M  V30 1337 H 126.224 -0.783427 1.65936 0
M  V30 1338 H 124.606 -3.3787 2.06543 0
M  V30 1339 H 125.78 -1.61509 4.31569 0
M  V30 1340 H 124.095 -1.60657 3.84159 0
M  V30 1341 H 126.692 -4.30569 3.17041 0
M  V30 1342 H 127.035 -3.87872 1.51198 0
M  V30 1343 H 127.568 -2.80076 2.82493 0
M  V30 1344 H 124.307 -3.02755 5.81394 0
M  V30 1345 H 123.827 -4.0404 4.43297 0
M  V30 1346 H 125.506 -4.07383 5.02641 0
M  V30 1347 N 125.638 -1.25649 -0.95132 0
M  V30 1348 C 126.866 -1.13343 -1.73092 0
M  V30 1349 C 127.281 0.312434 -1.86197 0
M  V30 1350 O 126.638 1.21465 -1.36207 0
M  V30 1351 C 126.689 -1.78602 -3.14299 0
M  V30 1352 O 126.41 -3.17537 -3.01831 0
M  V30 1353 C 127.911 -1.72119 -4.08522 0
M  V30 1354 H 125.131 -0.395181 -0.542285 0
M  V30 1355 H 127.675 -1.66076 -1.19328 0
M  V30 1356 H 125.83 -1.29832 -3.64996 0
M  V30 1357 H 126.244 -3.49676 -3.90931 0
M  V30 1358 H 127.718 -2.22435 -5.052 0
M  V30 1359 H 128.195 -0.685635 -4.33815 0
M  V30 1360 H 128.801 -2.20393 -3.63741 0
M  V30 1361 N 127.117 1.15442 -1.07289 0
M  V30 1362 C 128.342 1.90638 -0.816828 0
M  V30 1363 C 128.767 1.77445 0.624083 0
M  V30 1364 O 128.125 1.10671 1.43602 0
M  V30 1365 C 128.173 3.39008 -1.22906 0
M  V30 1366 O 127.277 4.10701 -0.373975 0
M  V30 1367 H 126.618 0.593555 -0.297638 0
M  V30 1368 H 129.148 1.46198 -1.43134 0
M  V30 1369 H 129.158 3.89801 -1.20497 0
M  V30 1370 H 127.833 3.47929 -2.27856 0
M  V30 1371 H 126.41 3.70046 -0.460499 0
M  V30 1372 N 128.595 0.856903 1.32268 0
M  V30 1373 C 129.525 0.31858 2.31316 0
M  V30 1374 C 130.506 -0.583487 1.59779 0
M  V30 1375 O 131.691 -0.503259 1.87566 0
M  V30 1376 C 128.821 -0.491979 3.43798 0
M  V30 1377 C 127.775 0.315849 4.26833 0
M  V30 1378 C 127.101 -0.619586 5.31098 0
M  V30 1379 C 128.401 1.54282 4.98993 0
M  V30 1380 H 130.095 1.14621 2.76591 0
M  V30 1381 H 127.641 0.552613 1.32974 0
M  V30 1382 H 129.594 -0.879012 4.1213 0
M  V30 1383 H 128.318 -1.35299 2.97257 0
M  V30 1384 H 126.977 0.684664 3.6015 0
M  V30 1385 H 126.625 -1.47751 4.8081 0
M  V30 1386 H 126.325 -0.0830621 5.87541 0
M  V30 1387 H 127.849 -1.00375 6.02293 0
M  V30 1388 H 129.263 1.22796 5.59995 0
M  V30 1389 H 127.66 2.01745 5.65172 0
M  V30 1390 H 128.73 2.30285 4.26728 0
M  V30 1391 N 130.073 -1.45103 0.615059 0
M  V30 1392 C 131.301 -2.06553 0.11977 0
M  V30 1393 C 131.716 -1.45842 -1.19898 0
M  V30 1394 O 131.073 -0.575325 -1.73194 0
M  V30 1395 C 131.124 -3.61495 -0.018364 0
M  V30 1396 O 130.845 -4.19942 1.24822 0
M  V30 1397 C 132.346 -4.39947 -0.544237 0
M  V30 1398 H 129.566 -0.667096 0.0722739 0
M  V30 1399 H 132.11 -1.8623 0.84491 0
M  V30 1400 H 130.265 -3.81135 -0.693865 0
M  V30 1401 H 130.679 -5.13204 1.0827 0
M  V30 1402 H 132.153 -5.48838 -0.589953 0
M  V30 1403 H 132.63 -4.10255 -1.56805 0
M  V30 1404 H 133.236 -4.25188 0.0974703 0
M  V30 1405 N 131.551 -0.354651 -1.53558 0
M  V30 1406 C 132.461 0.50515 -2.29097 0
M  V30 1407 C 133.477 1.10223 -1.34636 0
M  V30 1408 O 134.653 1.11553 -1.67684 0
M  V30 1409 C 131.718 1.63479 -3.05738 0
M  V30 1410 C 130.779 1.06636 -4.15845 0
M  V30 1411 C 130.012 2.14217 -4.88822 0
M  V30 1412 O 130.235 3.35137 -4.61562 0
M  V30 1413 O 129.169 1.77887 -5.75013 0
M  V30 1414 H 132.995 -0.109237 -3.03503 0
M  V30 1415 H 130.58 -0.119357 -1.48922 0
M  V30 1416 H 132.462 2.2918 -3.5363 0
M  V30 1417 H 131.137 2.23478 -2.34178 0
M  V30 1418 H 130.044 0.373565 -3.7223 0
M  V30 1419 H 131.377 0.511081 -4.89539 0
M  V30 1420 N 133.029 1.57378 -0.0835403 0
M  V30 1421 C 134.275 1.94217 0.583733 0
M  V30 1422 C 134.608 0.964653 1.68547 0
M  V30 1423 O 133.883 -0.00422258 1.945 0
M  V30 1424 C 134.166 3.41253 1.14972 0
M  V30 1425 C 134.019 4.49768 0.0538277 0
M  V30 1426 C 135.338 3.89352 2.05166 0
M  V30 1427 H 132.457 0.706233 0.210724 0
M  V30 1428 H 135.099 1.89392 -0.1519 0
M  V30 1429 H 133.249 3.45496 1.77665 0
M  V30 1430 H 134.921 4.57641 -0.579851 0
M  V30 1431 H 133.164 4.29432 -0.614068 0
M  V30 1432 H 133.835 5.49817 0.490452 0
M  V30 1433 H 136.311 3.87189 1.52393 0
M  V30 1434 H 135.187 4.92822 2.41698 0
M  V30 1435 H 135.448 3.27973 2.96456 0
M  V30 1436 N 134.507 -0.190092 1.56449 0
M  V30 1437 C 135.753 -0.911052 1.81184 0
M  V30 1438 C 136.086 -1.82699 0.658396 0
M  V30 1439 O 135.361 -1.91491 -0.340775 0
M  V30 1440 C 135.644 -1.72297 3.16205 0
M  V30 1441 C 135.497 -0.831419 4.42049 0
M  V30 1442 C 136.816 -2.69454 3.47969 0
M  V30 1443 H 133.935 -0.32977 0.659106 0
M  V30 1444 H 136.577 -0.178169 1.89163 0
M  V30 1445 H 134.727 -2.34778 3.09534 0
M  V30 1446 H 136.399 -0.220929 4.60771 0
M  V30 1447 H 134.642 -0.138406 4.33579 0
M  V30 1448 H 135.313 -1.43461 5.33032 0
M  V30 1449 H 137.789 -2.17104 3.54972 0
M  V30 1450 H 136.665 -3.23342 4.43555 0
M  V30 1451 H 136.926 -3.48744 2.71717 0
M  V30 1452 N 135.985 -1.50799 -0.457987 0
M  V30 1453 C 137.225 -1.64088 -1.21879 0
M  V30 1454 C 137.589 -0.339848 -1.88968 0
M  V30 1455 O 138.79 -0.348301 -2.66534 0
M  V30 1456 C 137.061 -2.79726 -2.2246 0
M  V30 1457 S 138.62 -3.13225 -3.07303 0
M  V30 1458 H 135.438 -0.578314 -0.41361 0
M  V30 1459 H 138.04 -1.88632 -0.513645 0
M  V30 1460 H 136.744 -3.72722 -1.71775 0
M  V30 1461 H 136.275 -2.57308 -2.97584 0
M  V30 1462 H 138.29 -2.58062 -4.23814 0
M  V30 1463 N 137.463 0.71206 -1.40597 0
M  V30 1464 C 138.711 1.46907 -1.38791 0
M  V30 1465 C 139.032 1.94998 0.00780391 0
M  V30 1466 O 138.302 1.70587 0.963174 0
M  V30 1467 H 136.882 0.545043 -0.51082 0
M  V30 1468 H 139.544 0.843882 -1.75683 0
M  V30 1469 H 138.64 2.34021 -2.06496 0
M  V30 1470 N 138.941 1.26152 0.944643 0
M  V30 1471 C 139.871 1.09902 2.06019 0
M  V30 1472 C 140.852 0.00519538 1.70099 0
M  V30 1473 O 142.037 0.176583 1.93396 0
M  V30 1474 C 139.167 0.727562 3.39594 0
M  V30 1475 C 138.121 1.77274 3.89561 0
M  V30 1476 C 137.447 1.25569 5.19747 0
M  V30 1477 C 138.747 3.17357 4.14827 0
M  V30 1478 H 140.441 2.03217 2.19871 0
M  V30 1479 H 137.987 0.978452 1.05652 0
M  V30 1480 H 139.94 0.600777 4.17095 0
M  V30 1481 H 138.664 -0.241287 3.25707 0
M  V30 1482 H 137.323 1.88814 3.14237 0
M  V30 1483 H 136.971 0.276783 5.02238 0
M  V30 1484 H 136.671 1.95433 5.54148 0
M  V30 1485 H 138.195 1.1415 5.99835 0
M  V30 1486 H 139.609 3.08914 4.82954 0
M  V30 1487 H 138.006 3.84781 4.60504 0
M  V30 1488 H 139.076 3.63673 3.20734 0
M  V30 1489 N 140.419 -1.14872 1.07899 0
M  V30 1490 C 141.696 -1.81928 0.71845 0
M  V30 1491 C 142.076 -1.95417 -0.798455 0
M  V30 1492 O 141.424 -1.50997 -1.715 0
M  V30 1493 C 141.634 -3.17937 1.43935 0
M  V30 1494 C 142.982 -3.93501 1.59506 0
M  V30 1495 O 144.006 -3.27509 1.40058 0
M  V30 1496 O 142.865 -5.1183 1.91551 0
M  V30 1497 H 139.959 -0.78628 0.256305 0
M  V30 1498 H 142.505 -1.21934 1.18026 0
M  V30 1499 H 141.277 -3.0325 2.47295 0
M  V30 1500 H 140.9 -3.85619 0.968687 0
M  V30 1501 N 141.898 -0.863906 -1.31812 0
M  V30 1502 C 142.828 -0.330843 -2.31144 0
M  V30 1503 C 143.809 0.575005 -1.60087 0
M  V30 1504 O 144.994 0.493304 -1.8783 0
M  V30 1505 C 142.124 0.47374 -3.44054 0
M  V30 1506 C 141.078 -0.338481 -4.26659 0
M  V30 1507 C 140.404 0.591412 -5.31419 0
M  V30 1508 C 141.704 -1.56926 -4.98168 0
M  V30 1509 H 143.398 -1.16086 -2.75979 0
M  V30 1510 H 140.944 -0.559657 -1.32679 0
M  V30 1511 H 142.897 0.857143 -4.12591 0
M  V30 1512 H 141.621 1.33721 -2.9797 0
M  V30 1513 H 140.28 -0.703754 -3.59782 0
M  V30 1514 H 139.928 1.45199 -4.81587 0
M  V30 1515 H 139.628 0.0519022 -5.87577 0
M  V30 1516 H 141.152 0.97179 -6.02817 0
M  V30 1517 H 142.566 -1.25764 -5.59336 0
M  V30 1518 H 140.963 -2.04739 -5.64094 0
M  V30 1519 H 142.033 -2.32544 -4.25501 0
M  V30 1520 N 143.376 1.44774 -0.622745 0
M  V30 1521 C 144.616 2.04004 -0.127102 0
M  V30 1522 C 144.98 1.47862 1.22478 0
M  V30 1523 O 146.181 1.98541 1.81204 0
M  V30 1524 C 144.452 3.57247 -0.104429 0
M  V30 1525 S 146.011 4.37574 0.327814 0
M  V30 1526 H 142.829 0.708713 -0.0569776 0
M  V30 1527 H 145.431 1.77275 -0.824253 0
M  V30 1528 H 144.135 3.95616 -1.09159 0
M  V30 1529 H 143.666 3.88575 0.614236 0
M  V30 1530 H 145.681 4.70575 1.57395 0
M  V30 1531 N 144.854 0.36279 1.53368 0
M  V30 1532 C 145.802 -0.500155 2.27159 0
M  V30 1533 C 146.796 -1.08575 1.3003 0
M  V30 1534 O 148.002 -1.02927 1.47668 0
M  V30 1535 H 144.377 -0.180009 0.730138 0
M  V30 1536 H 146.348 0.14401 2.98052 0
M  V30 1537 C 145.097 -1.62937 3.07159 0
M  V30 1538 H 144.42 -1.18806 3.8174 0
M  V30 1539 H 145.86 -2.20795 3.61975 0
M  V30 1540 C 144.319 -2.57007 2.17829 0
M  V30 1541 O 144.849 -3.59752 1.78721 0
M  V30 1542 N 143.055 -2.26131 1.82518 0
M  V30 1543 H 142.602 -1.42616 2.14519 0
M  V30 1544 H 142.56 -2.89327 1.23034 0
M  V30 1545 N 146.332 -1.57332 0.0918853 0
M  V30 1546 C 147.264 -2.10869 -0.898168 0
M  V30 1547 C 148.277 -1.04521 -1.24817 0
M  V30 1548 O 149.466 -1.31977 -1.20184 0
M  V30 1549 C 146.566 -2.57083 -2.2082 0
M  V30 1550 C 145.739 -3.87229 -2.03402 0
M  V30 1551 C 144.798 -4.19324 -3.17889 0
M  V30 1552 O 143.824 -4.88598 -2.91994 0
M  V30 1553 N 145.026 -3.74471 -4.43567 0
M  V30 1554 H 147.791 -2.96439 -0.440943 0
M  V30 1555 H 145.352 -1.61631 -0.0933064 0
M  V30 1556 H 147.344 -2.75602 -2.96354 0
M  V30 1557 H 145.914 -1.76541 -2.57977 0
M  V30 1558 H 145.134 -3.7789 -1.12218 0
M  V30 1559 H 146.422 -4.72379 -1.89038 0
M  V30 1560 H 145.82 -3.18546 -4.67488 0
M  V30 1561 H 144.377 -3.98151 -5.16061 0
M  V30 1562 N 147.81 0.181792 -1.56548 0
M  V30 1563 C 149.058 0.89832 -1.81038 0
M  V30 1564 C 149.379 1.83232 -0.667164 0
M  V30 1565 O 148.649 1.93372 0.313673 0
M  V30 1566 H 147.229 0.33471 -0.667816 0
M  V30 1567 H 149.891 0.184116 -1.94028 0
M  V30 1568 H 148.987 1.4815 -2.74696 0
M  V30 1569 N 149.288 1.51039 0.449983 0
M  V30 1570 C 150.236 1.71995 1.5659 0
M  V30 1571 C 151.23 0.586029 1.5894 0
M  V30 1572 O 152.436 0.76709 1.62837 0
M  V30 1573 H 148.811 0.543233 0.520001 0
M  V30 1574 H 150.782 2.65562 1.36085 0
M  V30 1575 C 149.531 1.8506 2.9436 0
M  V30 1576 H 148.854 2.71712 2.93279 0
M  V30 1577 H 150.294 2.0374 3.71842 0
M  V30 1578 C 148.753 0.607277 3.31382 0
M  V30 1579 O 149.283 -0.243903 4.00959 0
M  V30 1580 N 147.489 0.455073 2.87015 0
M  V30 1581 H 147.036 1.14879 2.30566 0
M  V30 1582 H 146.994 -0.375611 3.12148 0
M  V30 1583 N 150.766 -0.704594 1.40972 0
M  V30 1584 C 151.991 -1.49858 1.43378 0
M  V30 1585 C 152.416 -1.88061 0.038184 0
M  V30 1586 O 151.774 -1.5402 -0.956425 0
M  V30 1587 C 151.822 -2.74333 2.34038 0
M  V30 1588 O 150.926 -3.7147 1.7912 0
M  V30 1589 H 150.267 -0.45139 0.486974 0
M  V30 1590 H 152.797 -0.866832 1.8533 0
M  V30 1591 H 152.807 -3.22741 2.49604 0
M  V30 1592 H 151.482 -2.45863 3.35446 0
M  V30 1593 H 150.059 -3.30363 1.72958 0
M  V30 1594 N 152.244 -1.26651 -0.937939 0
M  V30 1595 C 153.492 -1.12165 -1.68118 0
M  V30 1596 C 153.813 0.334983 -1.92101 0
M  V30 1597 O 153.083 1.23583 -1.52 0
M  V30 1598 H 151.663 -0.412093 -0.623048 0
M  V30 1599 H 154.325 -1.59027 -1.12678 0
M  V30 1600 H 153.421 -1.64289 -2.6536 0
M  V30 1601 N 153.722 1.14298 -1.08507 0
M  V30 1602 C 155.138 1.37347 -0.812901 0
M  V30 1603 C 155.338 1.93052 0.577325 0
M  V30 1604 O 154.394 2.14389 1.33393 0
M  V30 1605 C 155.707 2.33359 -1.89642 0
M  V30 1606 C 157.255 2.46996 -1.92255 0
M  V30 1607 C 157.73 3.46309 -2.99724 0
M  V30 1608 N 159.221 3.53853 -2.98902 0
M  V30 1609 C 159.956 4.3055 -3.787 0
M  V30 1610 N 159.452 5.10482 -4.6838 0
M  V30 1611 N 161.245 4.25757 -3.66998 0
M  V30 1612 H 153.396 0.764867 -1.9815 0
M  V30 1613 H 155.659 0.398966 -0.859959 0
M  V30 1614 H 155.365 1.99565 -2.89597 0
M  V30 1615 H 155.239 3.33274 -1.76659 0
M  V30 1616 H 157.626 2.80081 -0.929445 0
M  V30 1617 H 157.707 1.47039 -2.09316 0
M  V30 1618 H 157.351 3.13957 -3.99241 0
M  V30 1619 H 157.281 4.46049 -2.79907 0
M  V30 1620 H 159.772 2.96812 -2.33904 0
M  V30 1621 H 160.085 5.66284 -5.25873 0
M  V30 1622 H 158.43 5.09747 -4.72422 0
M  V30 1623 H 161.621 3.62383 -2.96304 0
M  V30 1624 H 161.794 4.85279 -4.29427 0
M  V30 1625 N 155.201 0.870884 1.31352 0
M  V30 1626 C 156.164 0.332243 2.26779 0
M  V30 1627 C 157.164 -0.517302 1.52252 0
M  V30 1628 O 158.354 -0.326477 1.71113 0
M  V30 1629 C 155.486 -0.528066 3.36785 0
M  V30 1630 H 156.679 1.17469 2.75937 0
M  V30 1631 H 154.232 0.64655 1.423 0
M  V30 1632 H 154.967 -1.39167 2.92922 0
M  V30 1633 H 154.752 0.0802582 3.92018 0
M  V30 1634 H 156.242 -0.897179 4.07849 0
M  V30 1635 N 156.679 -1.44442 0.630414 0
M  V30 1636 C 157.925 -2.02351 0.134816 0
M  V30 1637 C 158.258 -1.4947 -1.23986 0
M  V30 1638 O 157.533 -0.678475 -1.82283 0
M  V30 1639 C 157.816 -3.59898 0.120707 0
M  V30 1640 C 157.669 -4.23063 1.52767 0
M  V30 1641 C 158.988 -4.36585 -0.555127 0
M  V30 1642 H 156.107 -0.73527 0.0504646 0
M  V30 1643 H 158.749 -1.72022 0.806751 0
M  V30 1644 H 156.899 -3.85868 -0.451477 0
M  V30 1645 H 158.571 -4.08202 2.14869 0
M  V30 1646 H 156.814 -3.80586 2.08175 0
M  V30 1647 H 157.485 -5.32071 1.46984 0
M  V30 1648 H 159.961 -4.16044 -0.0685429 0
M  V30 1649 H 158.837 -5.46294 -0.534185 0
M  V30 1650 H 159.098 -4.11138 -1.62535 0
M  V30 1651 N 158.157 -0.370918 -1.53173 0
M  V30 1652 C 159.385 0.217704 -2.05751 0
M  V30 1653 C 159.8 1.42018 -1.24404 0
M  V30 1654 O 159.157 1.80245 -0.286033 0
M  V30 1655 C 159.208 0.605954 -3.56385 0
M  V30 1656 O 158.929 -0.548734 -4.3465 0
M  V30 1657 C 160.43 1.2524 -4.25241 0
M  V30 1658 H 157.65 0.0371659 -0.66997 0
M  V30 1659 H 160.194 -0.530832 -1.9749 0
M  V30 1660 H 158.349 1.3044 -3.6478 0
M  V30 1661 H 158.763 -0.23376 -5.23979 0
M  V30 1662 H 160.237 1.47458 -5.3194 0
M  V30 1663 H 160.714 2.2143 -3.79296 0
M  V30 1664 H 161.32 0.595233 -4.21114 0
M  V30 1665 N 159.635 1.57281 -0.100228 0
M  V30 1666 C 160.865 1.98591 0.569681 0
M  V30 1667 C 161.273 0.978315 1.61943 0
M  V30 1668 O 160.616 -0.0396108 1.83657 0
M  V30 1669 C 160.678 3.36282 1.271 0
M  V30 1670 C 160.342 4.55488 0.371409 0
M  V30 1671 C 161.339 5.18491 -0.382504 0
M  V30 1672 C 159.024 5.01474 0.287965 0
M  V30 1673 C 161.018 6.25852 -1.20779 0
M  V30 1674 C 158.705 6.08701 -0.540965 0
M  V30 1675 C 159.703 6.70755 -1.28749 0
M  V30 1676 O 159.391 7.75914 -2.10269 0
M  V30 1677 H 159.123 0.65752 0.156982 0
M  V30 1678 H 161.677 2.0463 -0.177734 0
M  V30 1679 H 159.907 3.26941 2.0651 0
M  V30 1680 H 161.596 3.62005 1.83595 0
M  V30 1681 H 162.362 4.83891 -0.3278 0
M  V30 1682 H 158.241 4.52932 0.858689 0
M  V30 1683 H 161.785 6.74218 -1.79096 0
M  V30 1684 H 157.682 6.42732 -0.597131 0
M  V30 1685 H 158.45 7.92925 -2.03007 0
M  V30 1686 N 161.113 -0.173488 1.56642 0
M  V30 1687 C 162.338 -0.910149 1.86363 0
M  V30 1688 C 162.763 -1.75132 0.686318 0
M  V30 1689 O 162.121 -1.77595 -0.364643 0
M  V30 1690 C 162.169 -1.76447 3.14482 0
M  V30 1691 O 161.273 -2.86584 2.96553 0
M  V30 1692 H 160.614 -0.255086 0.613047 0
M  V30 1693 H 163.144 -0.172283 2.03873 0
M  V30 1694 H 163.154 -2.16483 3.45831 0
M  V30 1695 H 161.829 -1.14658 3.99783 0
M  V30 1696 H 160.406 -2.50146 2.76553 0
M  V30 1697 N 162.591 -1.51276 -0.441967 0
M  V30 1698 C 164.007 -1.39349 -0.778083 0
M  V30 1699 C 164.207 -0.472212 -1.95889 0
M  V30 1700 O 163.263 0.0743551 -2.5239 0
M  V30 1701 C 164.576 -2.81292 -1.0628 0
M  V30 1702 C 166.124 -2.9041 -1.16751 0
M  V30 1703 C 166.599 -4.33251 -1.48519 0
M  V30 1704 N 168.09 -4.36336 -1.55453 0
M  V30 1705 C 168.825 -5.43885 -1.81596 0
M  V30 1706 N 168.321 -6.61601 -2.05562 0
M  V30 1707 N 170.114 -5.3136 -1.8334 0
M  V30 1708 H 162.265 -2.09729 0.335774 0
M  V30 1709 H 164.528 -0.943925 0.0878028 0
M  V30 1710 H 164.234 -3.50678 -0.267905 0
M  V30 1711 H 164.108 -3.20334 -1.99163 0
M  V30 1712 H 166.495 -2.21225 -1.95304 0
M  V30 1713 H 166.576 -2.54871 -0.217801 0
M  V30 1714 H 166.22 -5.02984 -0.704958 0
M  V30 1715 H 166.15 -4.66299 -2.44689 0
M  V30 1716 H 168.641 -3.51466 -1.38853 0
M  V30 1717 H 168.954 -7.39361 -2.24867 0
M  V30 1718 H 167.299 -6.64725 -2.02894 0
M  V30 1719 H 170.49 -4.38382 -1.64132 0
M  V30 1720 H 170.663 -6.15258 -2.03377 0
M  V30 1721 N 164.069 0.697108 -1.41344 0
M  V30 1722 C 165.294 1.49096 -1.44171 0
M  V30 1723 C 165.719 1.88038 -0.0481568 0
M  V30 1724 O 165.077 1.54525 0.948243 0
M  V30 1725 C 165.125 2.73088 -2.3549 0
M  V30 1726 O 164.229 3.70514 -1.81088 0
M  V30 1727 H 163.57 0.448801 -0.489361 0
M  V30 1728 H 166.1 0.856992 -1.85787 0
M  V30 1729 H 166.11 3.21413 -2.51312 0
M  V30 1730 H 164.785 2.44081 -3.36745 0
M  V30 1731 H 163.362 3.29441 -1.74708 0
M  V30 1732 N 165.547 1.27147 0.931209 0
M  V30 1733 C 166.963 1.04475 1.20653 0
M  V30 1734 C 167.163 -0.223885 2.00252 0
M  V30 1735 O 166.219 -0.930332 2.34736 0
M  V30 1736 C 167.532 2.28209 1.95809 0
M  V30 1737 C 169.08 2.33211 2.08762 0
M  V30 1738 C 169.555 3.56665 2.87323 0
M  V30 1739 N 171.046 3.57201 2.94892 0
M  V30 1740 C 171.781 4.49395 3.56134 0
M  V30 1741 N 171.277 5.51889 4.18796 0
M  V30 1742 N 173.07 4.37026 3.53504 0
M  V30 1743 H 165.221 2.08612 0.399333 0
M  V30 1744 H 167.484 0.917312 0.239253 0
M  V30 1745 H 167.19 3.20538 1.44736 0
M  V30 1746 H 167.064 2.33247 2.96438 0
M  V30 1747 H 169.451 1.41391 2.59023 0
M  V30 1748 H 169.532 2.32178 1.07364 0
M  V30 1749 H 169.176 4.4882 2.37746 0
M  V30 1750 H 169.106 3.54948 3.88998 0
M  V30 1751 H 171.597 2.83074 2.50354 0
M  V30 1752 H 171.91 6.18409 4.63454 0
M  V30 1753 H 170.255 5.55735 4.17353 0
M  V30 1754 H 173.446 3.56166 3.03749 0
M  V30 1755 H 173.619 5.09067 4.00942 0
M  V30 1756 N 167.025 -1.13721 1.09112 0
M  V30 1757 C 168.255 -1.88499 0.845671 0
M  V30 1758 C 168.663 -1.79218 -0.606432 0
M  V30 1759 O 168.006 -1.1544 -1.42896 0
M  V30 1760 C 168.068 -3.38954 1.19793 0
M  V30 1761 C 167.732 -3.72018 2.65428 0
M  V30 1762 C 168.729 -3.7153 3.63677 0
M  V30 1763 C 166.414 -4.01775 3.01467 0
M  V30 1764 C 168.408 -4.00336 4.95994 0
M  V30 1765 C 166.095 -4.30243 4.33975 0
M  V30 1766 C 167.093 -4.29508 5.31048 0
M  V30 1767 O 166.781 -4.5728 6.61173 0
M  V30 1768 H 166.513 -0.603702 0.304171 0
M  V30 1769 H 169.067 -1.44903 1.45576 0
M  V30 1770 H 167.297 -3.83039 0.530871 0
M  V30 1771 H 168.986 -3.95052 0.932146 0
M  V30 1772 H 169.752 -3.4862 3.37179 0
M  V30 1773 H 165.631 -4.01496 2.26544 0
M  V30 1774 H 169.175 -3.99678 5.71755 0
M  V30 1775 H 165.072 -4.52625 4.60219 0
M  V30 1776 H 165.84 -4.74964 6.66597 0
M  V30 1777 N 168.503 -0.877838 -1.30888 0
M  V30 1778 C 169.433 -0.35534 -2.3078 0
M  V30 1779 C 170.414 0.557994 -1.60687 0
M  V30 1780 O 171.599 0.473355 -1.88343 0
M  V30 1781 C 168.729 0.437221 -3.44537 0
M  V30 1782 C 167.683 -0.383715 -4.26276 0
M  V30 1783 C 167.009 0.535014 -5.32017 0
M  V30 1784 C 168.309 -1.62201 -4.96476 0
M  V30 1785 H 170.003 -1.19007 -2.74732 0
M  V30 1786 H 167.549 -0.573698 -1.32078 0
M  V30 1787 H 169.502 0.813334 -4.13477 0
M  V30 1788 H 168.226 1.30553 -2.99372 0
M  V30 1789 H 166.885 -0.741874 -3.59015 0
M  V30 1790 H 166.533 1.40083 -4.831 0
M  V30 1791 H 166.233 -0.0104211 -5.87599 0
M  V30 1792 H 167.757 0.907799 -6.03814 0
M  V30 1793 H 169.171 -1.31689 -5.5797 0
M  V30 1794 H 167.568 -2.10711 -5.61891 0
M  V30 1795 H 168.638 -2.37044 -4.23011 0
M  V30 1796 N 169.982 1.44106 -0.638065 0
M  V30 1797 C 170.892 2.34513 0.0637334 0
M  V30 1798 C 171.908 1.53018 0.828346 0
M  V30 1799 O 173.084 1.85723 0.779036 0
M  V30 1800 C 170.149 3.31095 1.02844 0
M  V30 1801 C 169.21 4.28497 0.26244 0
M  V30 1802 C 168.443 5.20465 1.1812 0
M  V30 1803 O 168.666 5.16514 2.42011 0
M  V30 1804 O 167.6 5.98251 0.661774 0
M  V30 1805 H 171.426 2.95989 -0.68003 0
M  V30 1806 H 169.011 1.43994 -0.398252 0
M  V30 1807 H 170.893 3.90526 1.58327 0
M  V30 1808 H 169.568 2.72144 1.7527 0
M  V30 1809 H 168.475 3.72592 -0.335602 0
M  V30 1810 H 169.808 4.90388 -0.421936 0
M  V30 1811 N 171.46 0.379036 1.52974 0
M  V30 1812 C 172.7 -0.206325 2.03356 0
M  V30 1813 C 173.064 -1.44892 1.25977 0
M  V30 1814 O 174.265 -2.11078 1.66432 0
M  V30 1815 C 172.536 -0.477887 3.54191 0
M  V30 1816 S 174.095 -1.035 4.26419 0
M  V30 1817 H 170.913 -0.0590259 0.708546 0
M  V30 1818 H 173.515 0.525013 1.88319 0
M  V30 1819 H 172.219 0.433745 4.08101 0
M  V30 1820 H 171.75 -1.23793 3.73415 0
M  V30 1821 H 173.765 -2.31821 4.38718 0
M  V30 1822 N 172.938 -1.57226 0.108567 0
M  V30 1823 C 174.187 -1.94008 -0.551703 0
M  V30 1824 C 174.5 -0.993442 -1.68494 0
M  V30 1825 O 175.706 -1.25551 -2.40726 0
M  V30 1826 C 174.162 -3.44763 -1.03279 0
M  V30 1827 C 173.77 -4.47943 0.0714193 0
M  V30 1828 C 175.514 -3.90483 -1.66503 0
M  V30 1829 C 173.421 -5.89865 -0.425779 0
M  V30 1830 H 172.351 -0.724206 -0.209863 0
M  V30 1831 H 175.002 -1.82547 0.186741 0
M  V30 1832 H 173.384 -3.51422 -1.82533 0
M  V30 1833 H 174.558 -4.52942 0.847365 0
M  V30 1834 H 172.873 -4.11913 0.609669 0
M  V30 1835 H 175.47 -4.93925 -2.04798 0
M  V30 1836 H 175.813 -3.29877 -2.53942 0
M  V30 1837 H 176.346 -3.86581 -0.938074 0
M  V30 1838 H 173.085 -6.54202 0.412316 0
M  V30 1839 H 172.605 -5.88309 -1.16843 0
M  V30 1840 H 174.284 -6.40844 -0.890397 0
M  V30 1841 N 174.416 0.165178 -1.56732 0
M  V30 1842 C 175.641 0.900253 -1.86843 0
M  V30 1843 C 176.066 1.74766 -0.695596 0
M  V30 1844 O 175.424 1.77786 0.35522 0
M  V30 1845 C 175.472 1.74777 -3.15413 0
M  V30 1846 O 174.576 2.85007 -2.98068 0
M  V30 1847 H 173.917 0.251832 -0.614391 0
M  V30 1848 H 176.447 0.161468 -2.03962 0
M  V30 1849 H 176.457 2.14646 -3.46974 0
M  V30 1850 H 175.132 1.12537 -4.00385 0
M  V30 1851 H 173.709 2.48676 -2.77875 0
M  V30 1852 N 175.894 1.51508 0.433938 0
M  V30 1853 C 177.134 1.66006 1.19253 0
M  V30 1854 C 177.498 0.369868 1.88404 0
M  V30 1855 O 178.699 0.39066 2.65946 0
M  V30 1856 C 176.97 2.83229 2.17981 0
M  V30 1857 S 178.529 3.18075 3.02281 0
M  V30 1858 H 175.347 0.584821 0.404358 0
M  V30 1859 H 177.949 1.89425 0.48357 0
M  V30 1860 H 176.653 3.75407 1.65824 0
M  V30 1861 H 176.184 2.6201 2.93453 0
M  V30 1862 H 178.199 2.64772 4.19655 0
M  V30 1863 N 177.372 -0.689602 1.41712 0
M  V30 1864 C 178.62 -1.4468 1.4111 0
M  V30 1865 C 178.941 -1.94986 0.0232196 0
M  V30 1866 O 178.211 -1.72097 -0.935913 0
M  V30 1867 H 176.791 -0.536847 0.519427 0
M  V30 1868 H 179.453 -0.815825 1.77004 0
M  V30 1869 H 178.549 -2.30706 2.10193 0
M  V30 1870 N 178.85 -1.27639 -0.924453 0
M  V30 1871 C 180.075 -1.17101 -1.71179 0
M  V30 1872 C 180.5 0.268134 -1.86179 0
M  V30 1873 O 179.858 1.19415 -1.36418 0
M  V30 1874 C 179.906 -1.86313 -3.08739 0
M  V30 1875 O 179.01 -1.16331 -3.95652 0
M  V30 1876 H 178.351 -0.407091 -0.524569 0
M  V30 1877 H 180.881 -1.68767 -1.15666 0
M  V30 1878 H 180.891 -1.938 -3.59034 0
M  V30 1879 H 179.566 -2.91001 -2.97138 0
M  V30 1880 H 178.143 -1.16935 -3.54091 0
M  V30 1881 N 180.328 1.1314 -1.09713 0
M  V30 1882 C 181.553 1.88862 -0.857081 0
M  V30 1883 C 181.978 1.78729 0.586304 0
M  V30 1884 O 181.336 1.13692 1.41222 0
M  V30 1885 C 181.384 3.36325 -1.30069 0
M  V30 1886 O 180.488 4.09815 -0.461007 0
M  V30 1887 H 179.829 0.587108 -0.310162 0
M  V30 1888 H 182.359 1.43129 -1.46203 0
M  V30 1889 H 182.369 3.87157 -1.28738 0
M  V30 1890 H 181.044 3.43017 -2.35185 0
M  V30 1891 H 179.621 3.68986 -0.538888 0
M  V30 1892 N 181.806 0.884767 1.30421 0
M  V30 1893 C 183.083 0.423185 1.90967 0
M  V30 1894 C 183.463 -1.09605 1.80416 0
M  V30 1895 O 182.811 -1.93126 1.22125 0
M  V30 1896 C 183.021 0.921056 3.36627 0
M  V30 1897 C 184.369 0.955903 4.137 0
M  V30 1898 O 185.393 0.867706 3.4547 0
M  V30 1899 O 184.252 1.08614 5.35598 0
M  V30 1900 H 181.346 0.129369 0.816819 0
M  V30 1901 H 183.892 0.973653 1.3899 0
M  V30 1902 H 182.664 1.96489 3.3839 0
M  V30 1903 H 182.287 0.349741 3.96059 0
M  V30 1904 N 183.284 -1.43765 0.645699 0
M  V30 1905 C 184.217 -2.2798 -0.100072 0
M  V30 1906 C 185.195 -1.39391 -0.837194 0
M  V30 1907 O 186.379 -1.68833 -0.838306 0
M  V30 1908 C 183.506 -3.18643 -1.14823 0
M  V30 1909 C 182.552 -4.2344 -0.510009 0
M  V30 1910 S 183.385 -5.30761 0.710824 0
M  V30 1911 C 184.541 -6.24992 -0.33699 0
M  V30 1912 H 184.774 -2.90884 0.614322 0
M  V30 1913 H 182.307 -1.48166 0.434304 0
M  V30 1914 H 184.265 -3.71424 -1.74799 0
M  V30 1915 H 182.926 -2.54932 -1.8349 0
M  V30 1916 H 182.119 -4.86948 -1.29991 0
M  V30 1917 H 181.721 -3.73997 0.0154577 0
M  V30 1918 H 184.013 -6.66691 -1.20537 0
M  V30 1919 H 184.956 -7.07612 0.262879 0
M  V30 1920 H 185.364 -5.60517 -0.669425 0
M  V30 1921 N 184.763 -0.387143 -1.52771 0
M  V30 1922 C 185.988 0.198407 -2.06449 0
M  V30 1923 C 186.413 1.39918 -1.25716 0
M  V30 1924 O 185.771 1.79099 -0.281657 0
M  V30 1925 C 185.819 0.548893 -3.56398 0
M  V30 1926 O 184.923 1.64315 -3.78252 0
M  V30 1927 H 184.264 0.0237731 -0.663574 0
M  V30 1928 H 186.794 -0.553989 -1.96957 0
M  V30 1929 H 186.804 0.813812 -3.99801 0
M  V30 1930 H 185.479 -0.329005 -4.14597 0
M  V30 1931 H 184.056 1.37211 -3.46738 0
M  V30 1932 N 186.241 1.57166 -0.116904 0
M  V30 1933 C 187.481 1.97008 0.544715 0
M  V30 1934 C 187.845 0.998713 1.63981 0
M  V30 1935 O 189.046 1.28644 2.36018 0
M  V30 1936 C 187.317 3.41145 1.06559 0
M  V30 1937 S 188.876 4.02998 1.73603 0
M  V30 1938 H 185.694 0.688587 0.177112 0
M  V30 1939 H 188.296 1.94459 -0.201487 0
M  V30 1940 H 187 4.09592 0.257374 0
M  V30 1941 H 186.531 3.4734 1.84712 0
M  V30 1942 H 188.546 3.93585 3.02168 0
M  V30 1943 N 187.719 -0.156864 1.56817 0
M  V30 1944 C 188.629 -1.2136 2.00771 0
M  V30 1945 C 189.645 -1.47598 0.921459 0
M  V30 1946 O 190.821 -1.59462 1.2302 0
M  V30 1947 C 187.886 -2.52943 2.37109 0
M  V30 1948 C 186.947 -2.34439 3.59634 0
M  V30 1949 C 186.18 -3.59748 3.94229 0
M  V30 1950 O 186.403 -4.65526 3.29609 0
M  V30 1951 O 185.337 -3.52998 4.8752 0
M  V30 1952 H 189.163 -0.870468 2.90958 0
M  V30 1953 H 186.748 -0.36484 1.44877 0
M  V30 1954 H 188.63 -3.30538 2.61386 0
M  V30 1955 H 187.305 -2.86806 1.5008 0
M  V30 1956 H 186.212 -1.54828 3.40557 0
M  V30 1957 H 187.545 -2.05496 4.4725 0
M  V30 1958 N 189.197 -1.51736 -0.425897 0
M  V30 1959 C 190.613 -1.40166 -0.76326 0
M  V30 1960 C 190.813 -0.492962 -1.95377 0
M  V30 1961 O 189.869 0.0475815 -2.52455 0
M  V30 1962 C 191.182 -2.82403 -1.03291 0
M  V30 1963 C 192.73 -2.91632 -1.13665 0
M  V30 1964 C 193.205 -4.34801 -1.43916 0
M  V30 1965 N 194.696 -4.3796 -1.50816 0
M  V30 1966 C 195.431 -5.4578 -1.75817 0
M  V30 1967 N 194.927 -6.63744 -1.98534 0
M  V30 1968 N 196.72 -5.33274 -1.77694 0
M  V30 1969 H 188.871 -2.09361 0.358 0
M  V30 1970 H 191.134 -0.942941 0.0978094 0
M  V30 1971 H 190.84 -3.50943 -0.230696 0
M  V30 1972 H 190.714 -3.22428 -1.95754 0
M  V30 1973 H 193.101 -2.23284 -1.92947 0
M  V30 1974 H 193.182 -2.55088 -0.190756 0
M  V30 1975 H 192.826 -5.03703 -0.65157 0
M  V30 1976 H 192.756 -4.68868 -2.39729 0
M  V30 1977 H 195.247 -3.52919 -1.35118 0
M  V30 1978 H 195.56 -7.41704 -2.17013 0
M  V30 1979 H 193.905 -6.66839 -1.95832 0
M  V30 1980 H 197.096 -4.40098 -1.59473 0
M  V30 1981 H 197.269 -6.1738 -1.9684 0
M  V30 1982 N 190.675 0.682077 -1.42076 0
M  V30 1983 C 191.923 1.4393 -1.41876 0
M  V30 1984 C 192.244 1.94971 -0.0335599 0
M  V30 1985 O 191.514 1.72591 0.926773 0
M  V30 1986 H 190.094 0.534085 -0.522267 0
M  V30 1987 H 192.756 0.806427 -1.77434 0
M  V30 1988 H 191.852 2.29588 -2.11414 0
M  V30 1989 N 192.153 1.28127 0.917671 0
M  V30 1990 C 193.569 1.05749 1.19538 0
M  V30 1991 C 193.769 -0.202633 2.00479 0
M  V30 1992 O 192.825 -0.905382 2.3571 0
M  V30 1993 C 194.138 2.30273 1.93378 0
M  V30 1994 C 195.686 2.35412 2.06277 0
M  V30 1995 C 196.161 3.59692 2.83524 0
M  V30 1996 N 197.652 3.60309 2.91087 0
M  V30 1997 C 198.387 4.53147 3.51348 0
M  V30 1998 N 197.883 5.563 4.12919 0
M  V30 1999 N 199.676 4.40751 3.48849 0
M  V30 2000 H 191.827 2.09024 0.377184 0
M  V30 2001 H 194.09 0.919798 0.22951 0
M  V30 2002 H 193.796 3.22055 1.41328 0
M  V30 2003 H 193.67 2.36378 2.93947 0
M  V30 2004 H 196.057 1.4413 2.57508 0
M  V30 2005 H 196.138 2.33304 1.04895 0
M  V30 2006 H 195.782 4.51316 2.32973 0
M  V30 2007 H 195.712 3.59054 3.85211 0
M  V30 2008 H 198.203 2.85714 2.47338 0
M  V30 2009 H 198.516 6.2329 4.56869 0
M  V30 2010 H 196.861 5.60131 4.11435 0
M  V30 2011 H 200.052 3.59367 2.99955 0
M  V30 2012 H 200.225 5.13291 3.9552 0
M  V30 2013 N 193.631 -1.12557 1.10312 0
M  V30 2014 C 194.581 -2.16331 0.720076 0
M  V30 2015 C 195.565 -1.58616 -0.270115 0
M  V30 2016 O 196.757 -1.76823 -0.0790507 0
M  V30 2017 C 193.886 -3.42963 0.152113 0
M  V30 2018 C 192.972 -4.07663 1.16927 0
M  V30 2019 N 193.363 -4.47392 2.35953 0
M  V30 2020 C 191.661 -4.34425 1.0095 0
M  V30 2021 C 192.362 -4.97932 3.0073 0
M  V30 2022 N 191.338 -4.93358 2.28252 0
M  V30 2023 H 195.14 -2.44813 1.62616 0
M  V30 2024 H 192.654 -1.29449 0.980654 0
M  V30 2025 H 194.651 -4.16664 -0.14037 0
M  V30 2026 H 193.311 -3.1595 -0.748701 0
M  V30 2027 H 194.322 -4.39802 2.73486 0
M  V30 2028 H 190.999 -4.17177 0.164134 0
M  V30 2029 H 192.389 -5.38397 4.01969 0
M  V30 2030 N 195.109 -0.891671 -1.2995 0
M  V30 2031 C 196.041 -0.320695 -2.26945 0
M  V30 2032 C 197.054 0.528497 -1.53983 0
M  V30 2033 O 198.243 0.346959 -1.75096 0
M  V30 2034 C 195.343 0.562066 -3.34207 0
M  V30 2035 C 194.516 -0.259576 -4.36629 0
M  V30 2036 C 193.575 0.554739 -5.23268 0
M  V30 2037 O 192.601 -0.0249311 -5.69195 0
M  V30 2038 N 193.803 1.8625 -5.4981 0
M  V30 2039 H 196.568 -1.15432 -2.76578 0
M  V30 2040 H 194.129 -0.755336 -1.432 0
M  V30 2041 H 196.121 1.11304 -3.89093 0
M  V30 2042 H 194.691 1.29637 -2.84452 0
M  V30 2043 H 193.911 -0.991986 -3.81514 0
M  V30 2044 H 195.199 -0.822564 -5.02107 0
M  V30 2045 H 194.597 2.35628 -5.14292 0
M  V30 2046 H 193.154 2.36078 -6.07545 0
M  V30 2047 N 196.587 1.43421 -0.653314 0
M  V30 2048 C 197.812 2.06678 -0.172846 0
M  V30 2049 C 198.237 1.48648 1.15262 0
M  V30 2050 O 197.595 0.596457 1.71208 0
M  V30 2051 C 197.643 3.60474 -0.0953184 0
M  V30 2052 O 196.747 4.01487 0.942442 0
M  V30 2053 H 196.088 0.657181 -0.0949155 0
M  V30 2054 H 198.618 1.83925 -0.896265 0
M  V30 2055 H 198.628 4.07905 0.0879728 0
M  V30 2056 H 197.303 4.02088 -1.06291 0
M  V30 2057 H 195.88 3.65646 0.731932 0
M  V30 2058 N 198.065 0.39524 1.52563 0
M  V30 2059 C 198.995 -0.428384 2.29537 0
M  V30 2060 C 199.976 -1.05831 1.33169 0
M  V30 2061 O 201.161 -1.06995 1.62067 0
M  V30 2062 C 198.291 -1.55274 3.10656 0
M  V30 2063 C 197.245 -1.04855 4.14957 0
M  V30 2064 C 196.571 -2.26543 4.84337 0
M  V30 2065 C 197.871 -0.112324 5.22179 0
M  V30 2066 H 199.565 0.213867 2.98635 0
M  V30 2067 H 197.111 0.104298 1.43622 0
M  V30 2068 H 199.064 -2.1358 3.63265 0
M  V30 2069 H 197.788 -2.22266 2.39302 0
M  V30 2070 H 196.447 -0.487985 3.63338 0
M  V30 2071 H 196.095 -2.92059 4.09525 0
M  V30 2072 H 195.795 -1.93466 5.54837 0
M  V30 2073 H 197.319 -2.85481 5.39753 0
M  V30 2074 H 198.733 -0.603752 5.70112 0
M  V30 2075 H 197.13 0.128968 5.99961 0
M  V30 2076 H 198.2 0.837052 4.77621 0
M  V30 2077 N 199.544 -1.57102 0.125237 0
M  V30 2078 C 200.476 -2.12726 -0.853237 0
M  V30 2079 C 201.489 -1.07145 -1.22571 0
M  V30 2080 O 202.678 -1.34497 -1.17358 0
M  V30 2081 C 199.778 -2.61709 -2.15317 0
M  V30 2082 C 198.951 -3.91456 -1.95143 0
M  V30 2083 C 198.01 -4.25973 -3.08923 0
M  V30 2084 O 197.036 -4.94682 -2.81564 0
M  V30 2085 N 198.238 -3.83795 -4.35524 0
M  V30 2086 H 201.003 -2.97307 -0.377964 0
M  V30 2087 H 198.564 -1.61792 -0.0590011 0
M  V30 2088 H 200.556 -2.81826 -2.90441 0
M  V30 2089 H 199.126 -1.81974 -2.54174 0
M  V30 2090 H 198.346 -3.80185 -1.04177 0
M  V30 2091 H 199.634 -4.76283 -1.78976 0
M  V30 2092 H 199.032 -3.2839 -4.60626 0
M  V30 2093 H 197.589 -4.09008 -5.07499 0
M  V30 2094 N 201.022 0.148545 -1.56898 0
M  V30 2095 C 202.262 0.86765 -1.85071 0
M  V30 2096 C 202.626 1.78417 -0.709317 0
M  V30 2097 O 203.827 2.54261 -0.872049 0
M  V30 2098 C 202.098 1.62306 -3.1842 0
M  V30 2099 S 203.657 2.3878 -3.68143 0
M  V30 2100 H 200.475 0.290174 -0.649092 0
M  V30 2101 H 203.077 0.127755 -1.95082 0
M  V30 2102 H 201.781 0.941192 -3.99462 0
M  V30 2103 H 201.312 2.4039 -3.1141 0
M  V30 2104 H 203.327 3.63942 -3.37285 0
M  V30 2105 N 202.5 1.5196 0.417844 0
M  V30 2106 C 203.916 1.40569 0.755816 0
M  V30 2107 C 204.116 0.503316 1.95113 0
M  V30 2108 O 203.172 -0.0341925 2.52477 0
M  V30 2109 C 204.485 2.82947 1.01791 0
M  V30 2110 C 206.033 2.92231 1.12116 0
M  V30 2111 C 206.508 4.35559 1.41608 0
M  V30 2112 N 207.999 4.38753 1.48491 0
M  V30 2113 C 208.734 5.46705 1.7292 0
M  V30 2114 N 208.23 6.64788 1.95011 0
M  V30 2115 N 210.023 5.34209 1.74863 0
M  V30 2116 H 202.174 2.09168 -0.369098 0
M  V30 2117 H 204.437 0.942409 -0.102809 0
M  V30 2118 H 204.143 3.5106 0.212081 0
M  V30 2119 H 204.017 3.23462 1.94042 0
M  V30 2120 H 206.404 2.24304 1.9176 0
M  V30 2121 H 206.485 2.55185 0.177225 0
M  V30 2122 H 206.129 5.04042 0.624848 0
M  V30 2123 H 206.059 4.70133 2.37239 0
M  V30 2124 H 208.55 3.5363 1.33244 0
M  V30 2125 H 208.863 7.42845 2.13076 0
M  V30 2126 H 207.208 6.67869 1.92293 0
M  V30 2127 H 210.399 4.40937 1.57137 0
M  V30 2128 H 210.572 6.18415 1.93563 0
M  V30 2129 N 203.978 -0.674533 1.42435 0
M  V30 2130 C 205.203 -1.46784 1.46524 0
M  V30 2131 C 205.628 -1.87938 0.078066 0
M  V30 2132 O 204.986 -1.56014 -0.92354 0
M  V30 2133 C 205.034 -2.69307 2.39805 0
M  V30 2134 O 204.138 -3.67587 1.86959 0
M  V30 2135 H 203.479 -0.440959 0.496439 0
M  V30 2136 H 206.009 -0.827326 1.87127 0
M  V30 2137 H 206.019 -3.17374 2.56393 0
M  V30 2138 H 204.694 -2.38692 3.40586 0
M  V30 2139 H 203.271 -3.2662 1.79927 0
M  V30 2140 N 205.456 -1.28612 -0.910864 0
M  V30 2141 C 206.867 -1.14406 -1.47541 0
M  V30 2142 C 207.218 0.264901 -1.94403 0
M  V30 2143 O 206.343 1.15942 -1.82719 0
M  V30 2144 C 206.938 -2.07073 -2.68153 0
M  V30 2145 C 205.497 -1.96923 -3.20778 0
M  V30 2146 C 204.644 -1.98646 -1.93481 0
M  V30 2147 H 207.595 -1.41259 -0.723291 0
M  V30 2148 H 207.616 -1.63642 -3.43514 0
M  V30 2149 H 207.128 -3.09611 -2.34015 0
M  V30 2150 H 205.229 -0.97433 -3.59635 0
M  V30 2151 H 205.342 -2.84026 -3.85832 0
M  V30 2152 H 203.706 -1.43093 -2.10705 0
M  V30 2153 H 204.489 -3.02868 -1.61634 0
M  V30 2154 N 206.934 1.1197 -1.10907 0
M  V30 2155 C 207.844 2.21433 -0.774896 0
M  V30 2156 C 208.86 1.72478 0.229657 0
M  V30 2157 O 210.036 2.01288 0.0672008 0
M  V30 2158 C 207.101 3.4602 -0.216986 0
M  V30 2159 C 206.162 4.09791 -1.27944 0
M  V30 2160 C 205.395 5.28431 -0.748055 0
M  V30 2161 O 205.618 5.68823 0.423833 0
M  V30 2162 O 204.552 5.82644 -1.51027 0
M  V30 2163 H 208.378 2.5242 -1.68873 0
M  V30 2164 H 205.963 1.20399 -0.884555 0
M  V30 2165 H 207.845 4.21304 0.090059 0
M  V30 2166 H 206.52 3.16698 0.669633 0
M  V30 2167 H 205.427 3.36265 -1.63941 0
M  V30 2168 H 206.76 4.4328 -2.13925 0
M  V30 2169 N 208.412 0.89855 1.29475 0
M  V30 2170 C 209.322 0.379974 2.31502 0
M  V30 2171 C 210.338 -0.524695 1.659 0
M  V30 2172 O 211.514 -0.414551 1.97087 0
M  V30 2173 C 208.579 -0.385138 3.44554 0
M  V30 2174 C 207.64 0.550914 4.2575 0
M  V30 2175 C 206.873 -0.177778 5.33404 0
M  V30 2176 O 207.096 -1.40189 5.52904 0
M  V30 2177 O 206.03 0.479106 5.9999 0
M  V30 2178 H 209.856 1.22639 2.77837 0
M  V30 2179 H 207.441 0.662834 1.33891 0
M  V30 2180 H 209.323 -0.817841 4.13388 0
M  V30 2181 H 207.998 -1.20763 3.0033 0
M  V30 2182 H 206.905 1.03271 3.59564 0
M  V30 2183 H 208.238 1.33979 4.73614 0
M  V30 2184 N 209.89 -1.43072 0.660911 0
M  V30 2185 C 210.822 -2.29108 -0.0647641 0
M  V30 2186 C 211.835 -1.42928 -0.779448 0
M  V30 2187 O 213.024 -1.66788 -0.635921 0
M  V30 2188 C 210.124 -3.20032 -1.11503 0
M  V30 2189 C 209.297 -4.34792 -0.476955 0
M  V30 2190 C 208.356 -5.06534 -1.42513 0
M  V30 2191 O 207.382 -5.61538 -0.930771 0
M  V30 2192 N 208.584 -5.1075 -2.75889 0
M  V30 2193 H 211.349 -2.92029 0.673731 0
M  V30 2194 H 208.91 -1.53846 0.50427 0
M  V30 2195 H 210.902 -3.64892 -1.75032 0
M  V30 2196 H 209.472 -2.58658 -1.75541 0
M  V30 2197 H 208.692 -3.92752 0.337572 0
M  V30 2198 H 209.98 -5.0879 -0.0318525 0
M  V30 2199 H 209.378 -4.67447 -3.18606 0
M  V30 2200 H 207.935 -5.59302 -3.347 0
M  V30 2201 N 211.368 -0.403325 -1.52352 0
M  V30 2202 C 212.608 0.173946 -2.03659 0
M  V30 2203 C 212.972 1.42869 -1.28267 0
M  V30 2204 O 214.173 2.08403 -1.69769 0
M  V30 2205 C 212.444 0.421478 -3.54906 0
M  V30 2206 S 214.003 0.967027 -4.28012 0
M  V30 2207 H 210.821 0.0477461 -0.709395 0
M  V30 2208 H 213.423 -0.554906 -1.87459 0
M  V30 2209 H 212.127 -0.498616 -4.0736 0
M  V30 2210 H 211.658 1.17837 -3.75337 0
M  V30 2211 H 213.673 2.24812 -4.4235 0
M  V30 2212 N 212.846 1.57033 -0.133567 0
M  V30 2213 C 213.776 2.1909 0.807567 0
M  V30 2214 C 214.757 1.13517 1.26681 0
M  V30 2215 O 215.942 1.41809 1.32679 0
M  V30 2216 C 213.072 2.80188 2.05212 0
M  V30 2217 C 212.026 3.91471 1.73015 0
M  V30 2218 C 211.352 4.39443 3.04622 0
M  V30 2219 C 212.652 5.12886 0.987168 0
M  V30 2220 H 214.346 2.97988 0.290403 0
M  V30 2221 H 211.892 1.43335 0.138239 0
M  V30 2222 H 213.845 3.22264 2.71521 0
M  V30 2223 H 212.569 1.98601 2.59278 0
M  V30 2224 H 211.228 3.49993 1.0909 0
M  V30 2225 H 210.876 3.54695 3.56651 0
M  V30 2226 H 210.576 5.14495 2.83847 0
M  V30 2227 H 212.1 4.8418 3.72024 0
M  V30 2228 H 213.514 5.51891 1.55208 0
M  V30 2229 H 211.911 5.93615 0.87985 0
M  V30 2230 H 212.981 4.84894 -0.0235286 0
M  V30 2231 N 214.325 -0.140222 1.56975 0
M  V30 2232 C 215.602 -0.880769 1.74648 0
M  V30 2233 C 215.982 -1.99036 0.703404 0
M  V30 2234 O 215.33 -2.26821 -0.27648 0
M  V30 2235 C 215.54 -1.417 3.18939 0
M  V30 2236 C 216.888 -1.87774 3.80823 0
M  V30 2237 O 217.912 -1.51427 3.2241 0
M  V30 2238 O 216.771 -2.54827 4.83452 0
M  V30 2239 H 213.865 -0.416713 0.714338 0
M  V30 2240 H 216.411 -0.125618 1.69234 0
M  V30 2241 H 215.183 -0.619902 3.86359 0
M  V30 2242 H 214.806 -2.23546 3.28805 0
M  V30 2243 N 215.803 -1.52179 -0.40978 0
M  V30 2244 C 217.049 -1.66453 -1.15851 0
M  V30 2245 C 217.382 -0.392972 -1.90182 0
M  V30 2246 O 216.657 0.608579 -1.84734 0
M  V30 2247 C 216.94 -2.88612 -2.15349 0
M  V30 2248 C 216.793 -4.25815 -1.44918 0
M  V30 2249 C 218.112 -3.06294 -3.16026 0
M  V30 2250 H 215.231 -0.60575 -0.419805 0
M  V30 2251 H 217.873 -1.84732 -0.444314 0
M  V30 2252 H 216.023 -2.73158 -2.76255 0
M  V30 2253 H 217.695 -4.52995 -0.871365 0
M  V30 2254 H 215.938 -4.27247 -0.751159 0
M  V30 2255 H 216.609 -5.07337 -2.17516 0
M  V30 2256 H 219.085 -3.20641 -2.65195 0
M  V30 2257 H 217.961 -3.93283 -3.8291 0
M  V30 2258 H 218.222 -2.19579 -3.83715 0
M  V30 2259 N 217.281 0.66697 -1.42791 0
M  V30 2260 C 218.527 1.4291 -1.43891 0
M  V30 2261 C 218.86 1.94114 -0.0578972 0
M  V30 2262 O 218.135 1.71414 0.91911 0
M  V30 2263 C 218.418 2.62049 -2.46987 0
M  V30 2264 C 218.271 2.16426 -3.94309 0
M  V30 2265 C 219.59 3.64266 -2.46978 0
M  V30 2266 H 216.709 0.518306 -0.523954 0
M  V30 2267 H 219.351 0.757321 -1.74255 0
M  V30 2268 H 217.501 3.19361 -2.21225 0
M  V30 2269 H 219.173 1.64221 -4.31079 0
M  V30 2270 H 217.416 1.47925 -4.078 0
M  V30 2271 H 218.087 3.02038 -4.62036 0
M  V30 2272 H 220.563 3.16686 -2.69906 0
M  V30 2273 H 219.439 4.45196 -3.21079 0
M  V30 2274 H 219.7 4.15927 -1.49857 0
M  V30 2275 N 218.759 1.29093 0.90403 0
M  V30 2276 C 219.987 1.19689 1.68766 0
M  V30 2277 C 220.402 -0.243113 1.87228 0
M  V30 2278 O 219.759 -1.16326 1.40621 0
M  V30 2279 C 219.81 1.90144 3.07453 0
M  V30 2280 O 219.531 3.2852 2.89838 0
M  V30 2281 C 221.032 1.87162 4.01852 0
M  V30 2282 H 218.252 0.415035 0.527244 0
M  V30 2283 H 220.796 1.7039 1.13082 0
M  V30 2284 H 218.951 1.43289 3.59926 0
M  V30 2285 H 219.365 3.63944 3.77684 0
M  V30 2286 H 220.839 2.41032 4.96596 0
M  V30 2287 H 221.316 0.84617 4.30972 0
M  V30 2288 H 221.922 2.33741 3.5531 0
M  V30 2289 N 220.237 -1.11381 1.11499 0
M  V30 2290 C 221.187 -2.15555 0.74298 0
M  V30 2291 C 222.171 -1.58894 -0.253276 0
M  V30 2292 O 223.363 -1.76897 -0.0602918 0
M  V30 2293 C 220.492 -3.42782 0.188481 0
M  V30 2294 C 219.578 -4.064 1.21244 0
M  V30 2295 N 219.969 -4.44864 2.40685 0
M  V30 2296 C 218.267 -4.3333 1.05552 0
M  V30 2297 C 218.968 -4.94715 3.05994 0
M  V30 2298 N 217.944 -4.90909 2.33472 0
M  V30 2299 H 221.746 -2.43074 1.65203 0
M  V30 2300 H 219.26 -1.28401 0.994329 0
M  V30 2301 H 221.257 -4.16789 -0.0961693 0
M  V30 2302 H 219.917 -3.16727 -0.715149 0
M  V30 2303 H 220.928 -4.36876 2.78136 0
M  V30 2304 H 217.605 -4.1698 0.208372 0
M  V30 2305 H 218.995 -5.34103 4.07656 0
M  V30 2306 N 221.715 -0.905404 -1.28997 0
M  V30 2307 C 222.961 -0.544465 -1.95977 0
M  V30 2308 C 223.316 0.90041 -1.70031 0
M  V30 2309 O 222.609 1.63064 -1.00601 0
M  V30 2310 C 222.803 -0.779906 -3.48787 0
M  V30 2311 C 222.632 -2.24612 -3.89589 0
M  V30 2312 C 221.402 -2.89464 -4.14172 0
M  V30 2313 C 223.6 -3.22182 -4.00878 0
M  V30 2314 N 221.582 -4.26469 -4.41585 0
M  V30 2315 C 222.953 -4.44323 -4.32409 0
M  V30 2316 C 225.008 -3.17694 -3.83373 0
M  V30 2317 C 223.711 -5.62546 -4.48258 0
M  V30 2318 C 225.737 -4.35208 -4.00435 0
M  V30 2319 C 225.099 -5.56121 -4.3233 0
M  V30 2320 H 221.198 -0.248948 -0.741316 0
M  V30 2321 H 223.782 -1.1674 -1.5582 0
M  V30 2322 H 221.953 -0.186308 -3.87953 0
M  V30 2323 H 223.685 -0.383833 -4.02876 0
M  V30 2324 H 220.44 -2.40232 -4.08149 0
M  V30 2325 H 220.864 -4.97283 -4.5939 0
M  V30 2326 H 225.506 -2.25297 -3.57773 0
M  V30 2327 H 223.224 -6.55429 -4.72692 0
M  V30 2328 H 226.81 -4.33228 -3.88336 0
M  V30 2329 H 225.69 -6.45537 -4.45255 0
M  V30 2330 N 223.193 1.4272 -0.668489 0
M  V30 2331 C 224.442 2.00846 -0.185389 0
M  V30 2332 C 224.755 1.53442 1.21305 0
M  V30 2333 O 225.961 2.03944 1.79218 0
M  V30 2334 C 224.417 3.58805 -0.280591 0
M  V30 2335 C 224.025 4.15198 -1.68268 0
M  V30 2336 C 225.769 4.24255 0.14412 0
M  V30 2337 C 223.676 5.655 -1.73099 0
M  V30 2338 H 222.606 0.751145 -0.0655475 0
M  V30 2339 H 225.257 1.63516 -0.832752 0
M  V30 2340 H 223.639 3.93608 0.434553 0
M  V30 2341 H 224.813 3.91866 -2.42441 0
M  V30 2342 H 223.128 3.62176 -2.05469 0
M  V30 2343 H 225.725 5.34547 0.128086 0
M  V30 2344 H 226.068 3.99277 1.17827 0
M  V30 2345 H 226.601 3.94389 -0.519798 0
M  V30 2346 H 223.34 5.95268 -2.74475 0
M  V30 2347 H 222.86 5.90842 -1.03274 0
M  V30 2348 H 224.539 6.29808 -1.48158 0
M  V30 2349 N 224.671 0.411399 1.52136 0
M  V30 2350 C 225.603 -0.448386 2.24771 0
M  V30 2351 C 226.616 -1.00828 1.27818 0
M  V30 2352 O 227.805 -0.906841 1.53749 0
M  V30 2353 C 224.905 -1.63636 2.96777 0
M  V30 2354 C 224.078 -1.19995 4.20618 0
M  V30 2355 C 223.137 -2.25509 4.75428 0
M  V30 2356 O 222.163 -1.86007 5.3795 0
M  V30 2357 N 223.365 -3.577 4.57199 0
M  V30 2358 H 226.13 0.174025 2.99194 0
M  V30 2359 H 223.691 0.238897 1.60128 0
M  V30 2360 H 225.683 -2.33793 3.30338 0
M  V30 2361 H 224.253 -2.16465 2.25526 0
M  V30 2362 H 223.473 -0.326421 3.92846 0
M  V30 2363 H 224.761 -0.885365 5.01038 0
M  V30 2364 H 224.159 -3.92543 4.07341 0
M  V30 2365 H 222.716 -4.23827 4.95191 0
M  V30 2366 N 226.149 -1.5696 0.141893 0
M  V30 2367 C 227.059 -2.20066 -0.812905 0
M  V30 2368 C 228.075 -1.18344 -1.27557 0
M  V30 2369 O 229.251 -1.50902 -1.33381 0
M  V30 2370 C 226.316 -2.80583 -2.03652 0
M  V30 2371 C 225.377 -3.97414 -1.62359 0
M  V30 2372 C 224.61 -4.55036 -2.78887 0
M  V30 2373 O 224.833 -4.11538 -3.94959 0
M  V30 2374 O 223.767 -5.45376 -2.54653 0
M  V30 2375 H 227.593 -3.02157 -0.305746 0
M  V30 2376 H 225.178 -1.49159 -0.0848799 0
M  V30 2377 H 227.06 -3.19067 -2.75272 0
M  V30 2378 H 225.735 -2.01508 -2.5333 0
M  V30 2379 H 224.642 -3.63656 -0.877775 0
M  V30 2380 H 225.975 -4.77994 -1.17401 0
M  V30 2381 N 227.627 0.131896 -1.57047 0
M  V30 2382 C 228.875 0.840269 -1.83804 0
M  V30 2383 C 229.196 1.81017 -0.72512 0
M  V30 2384 O 228.466 1.94272 0.251995 0
M  V30 2385 H 227.046 0.313294 -0.678127 0
M  V30 2386 H 229.708 0.122294 -1.94516 0
M  V30 2387 H 228.804 1.39335 -2.79271 0
M  V30 2388 N 229.106 1.52395 0.401703 0
M  V30 2389 C 230.016 1.7917 1.51444 0
M  V30 2390 C 231.032 0.677691 1.6026 0
M  V30 2391 O 232.208 0.963909 1.76835 0
M  V30 2392 C 229.273 1.94347 2.87107 0
M  V30 2393 C 228.334 3.18257 2.88116 0
M  V30 2394 C 227.567 3.32701 4.17308 0
M  V30 2395 O 227.79 2.52238 5.11598 0
M  V30 2396 O 226.724 4.25891 4.25324 0
M  V30 2397 H 230.55 2.73633 1.31752 0
M  V30 2398 H 228.135 1.3733 0.588296 0
M  V30 2399 H 230.017 2.06109 3.67555 0
M  V30 2400 H 228.692 1.03073 3.06851 0
M  V30 2401 H 227.599 3.11947 2.06494 0
M  V30 2402 H 228.932 4.09336 2.73322 0
M  V30 2403 N 230.584 -0.659388 1.43143 0
M  V30 2404 C 231.494 -1.80167 1.50256 0
M  V30 2405 C 232.51 -1.69571 0.390106 0
M  V30 2406 O 233.686 -1.90849 0.643319 0
M  V30 2407 C 230.751 -3.16409 1.41725 0
M  V30 2408 C 229.812 -3.38848 2.63591 0
M  V30 2409 C 229.045 -4.68591 2.55458 0
M  V30 2410 O 229.268 -5.47532 1.59891 0
M  V30 2411 O 228.202 -4.92614 3.45854 0
M  V30 2412 H 232.028 -1.77121 2.46702 0
M  V30 2413 H 229.613 -0.817092 1.25076 0
M  V30 2414 H 231.495 -3.9768 1.39387 0
M  V30 2415 H 230.17 -3.20059 0.484118 0
M  V30 2416 H 229.077 -2.57366 2.71502 0
M  V30 2417 H 230.41 -3.4004 3.55856 0
M  V30 2418 N 232.062 -1.29571 -0.897171 0
M  V30 2419 C 233.31 -1.17456 -1.64464 0
M  V30 2420 C 233.631 0.273698 -1.9307 0
M  V30 2421 O 232.901 1.18684 -1.55855 0
M  V30 2422 H 231.481 -0.431706 -0.609622 0
M  V30 2423 H 234.143 -1.62531 -1.07562 0
M  V30 2424 H 233.239 -1.72648 -2.59998 0
M  V30 2425 N 233.54 1.10788 -1.12088 0
M  V30 2426 C 234.956 1.34691 -0.856186 0
M  V30 2427 C 235.156 1.94791 0.515615 0
M  V30 2428 O 234.212 2.18524 1.26505 0
M  V30 2429 C 235.525 2.27208 -1.9697 0
M  V30 2430 C 237.073 2.40755 -2.00016 0
M  V30 2431 C 237.548 3.36598 -3.1059 0
M  V30 2432 N 239.039 3.44164 -3.10008 0
M  V30 2433 C 239.774 4.18284 -3.92206 0
M  V30 2434 N 239.27 4.95322 -4.84384 0
M  V30 2435 N 241.063 4.13865 -3.80357 0
M  V30 2436 H 233.214 0.70144 -2.00483 0
M  V30 2437 H 235.477 0.371405 -0.872217 0
M  V30 2438 H 235.183 1.90251 -2.958 0
M  V30 2439 H 235.057 3.27485 -1.87172 0
M  V30 2440 H 237.444 2.76982 -1.01808 0
M  V30 2441 H 237.525 1.40305 -2.13888 0
M  V30 2442 H 237.169 3.01096 -4.09028 0
M  V30 2443 H 237.099 4.36918 -2.93956 0
M  V30 2444 H 239.59 2.8922 -2.43228 0
M  V30 2445 H 239.903 5.49267 -5.43623 0
M  V30 2446 H 238.248 4.94459 -4.884 0
M  V30 2447 H 241.439 3.52773 -3.07683 0
M  V30 2448 H 241.612 4.71372 -4.44649 0
M  V30 2449 N 235.018 0.912232 1.28515 0
M  V30 2450 C 236.429 0.591352 1.77087 0
M  V30 2451 C 236.78 -0.8933 1.74684 0
M  V30 2452 O 235.905 -1.69876 1.34056 0
M  V30 2453 C 236.5 1.06668 3.2157 0
M  V30 2454 C 235.059 0.79675 3.67871 0
M  V30 2455 C 234.206 1.23427 2.48316 0
M  V30 2456 H 237.157 1.09365 1.15 0
M  V30 2457 H 237.178 0.407455 3.78312 0
M  V30 2458 H 236.69 2.14726 3.23287 0
M  V30 2459 H 234.791 -0.270679 3.71616 0
M  V30 2460 H 234.904 1.40343 4.58084 0
M  V30 2461 H 233.268 0.653036 2.46186 0
M  V30 2462 H 234.051 2.32316 2.52753 0
M  V30 2463 N 236.496 -1.42363 0.676048 0
M  V30 2464 C 237.443 -2.308 -0.00150904 0
M  V30 2465 C 238.413 -1.46032 -0.791444 0
M  V30 2466 O 239.598 -1.74861 -0.76344 0
M  V30 2467 C 236.738 -3.31883 -0.945919 0
M  V30 2468 C 235.851 -4.31741 -0.149675 0
M  V30 2469 C 234.986 -5.19898 -1.08995 0
M  V30 2470 C 234.025 -6.11434 -0.285465 0
M  V30 2471 N 233.162 -6.92138 -1.17851 0
M  V30 2472 H 238.002 -2.88187 0.758455 0
M  V30 2473 H 235.539 -1.41952 0.38576 0
M  V30 2474 H 237.497 -3.89019 -1.50731 0
M  V30 2475 H 236.127 -2.76093 -1.6725 0
M  V30 2476 H 235.179 -3.76713 0.528359 0
M  V30 2477 H 236.491 -4.96534 0.474866 0
M  V30 2478 H 235.645 -5.81772 -1.72123 0
M  V30 2479 H 234.384 -4.55284 -1.74837 0
M  V30 2480 H 233.389 -5.48627 0.359018 0
M  V30 2481 H 234.614 -6.78097 0.368883 0
M  V30 2482 H 232.56 -6.30152 -1.82332 0
M  V30 2483 H 232.477 -7.53542 -0.609082 0
M  V30 2484 H 233.745 -7.58499 -1.79722 0
M  V30 2485 N 237.974 -0.419461 -1.51915 0
M  V30 2486 C 239.251 0.211999 -1.94448 0
M  V30 2487 C 239.631 1.61703 -1.35703 0
M  V30 2488 O 238.979 2.22102 -0.536931 0
M  V30 2489 C 239.189 0.207872 -3.4838 0
M  V30 2490 C 240.537 0.422192 -4.22496 0
M  V30 2491 O 241.561 0.286778 -3.55044 0
M  V30 2492 O 240.42 0.690009 -5.42126 0
M  V30 2493 H 237.514 0.139586 -0.815135 0
M  V30 2494 H 240.06 -0.476151 -1.62883 0
M  V30 2495 H 238.832 -0.775102 -3.83546 0
M  V30 2496 H 238.455 0.939688 -3.86336 0
M  V30 2497 N 239.452 1.56882 -0.150215 0
M  V30 2498 C 240.729 1.87844 0.545327 0
M  V30 2499 C 241.109 1.0567 1.82749 0
M  V30 2500 O 240.457 0.144442 2.28043 0
M  V30 2501 C 240.667 3.39526 0.80767 0
M  V30 2502 C 242.015 4.08814 1.14703 0
M  V30 2503 O 243.039 3.44723 0.896917 0
M  V30 2504 O 241.898 5.22004 1.61784 0
M  V30 2505 H 238.992 0.778677 0.278553 0
M  V30 2506 H 241.538 1.68666 -0.187068 0
M  V30 2507 H 240.31 3.91173 -0.0996096 0
M  V30 2508 H 239.933 3.64243 1.59413 0
M  V30 2509 N 240.93 -0.123565 1.57115 0
M  V30 2510 C 242.346 -0.476961 1.52306 0
M  V30 2511 C 242.546 -1.82109 0.86248 0
M  V30 2512 O 241.602 -2.48586 0.442884 0
M  V30 2513 C 242.915 -0.465661 2.97073 0
M  V30 2514 C 244.463 -0.549534 3.08138 0
M  V30 2515 C 244.938 -0.568669 4.54456 0
M  V30 2516 N 246.429 -0.630237 4.58892 0
M  V30 2517 C 247.164 -0.666415 5.69514 0
M  V30 2518 N 246.66 -0.660514 6.89644 0
M  V30 2519 N 248.453 -0.709077 5.5761 0
M  V30 2520 H 240.604 0.757198 1.98445 0
M  V30 2521 H 242.867 0.278808 0.906074 0
M  V30 2522 H 242.573 0.454232 3.48754 0
M  V30 2523 H 242.447 -1.29513 3.54269 0
M  V30 2524 H 244.834 -1.45985 2.56461 0
M  V30 2525 H 244.915 0.307532 2.53945 0
M  V30 2526 H 244.559 0.337581 5.06777 0
M  V30 2527 H 244.489 -1.44256 5.06456 0
M  V30 2528 H 246.98 -0.641146 3.72421 0
M  V30 2529 H 247.293 -0.690616 7.69708 0
M  V30 2530 H 245.638 -0.628012 6.92157 0
M  V30 2531 H 248.829 -0.711019 4.62668 0
M  V30 2532 H 249.002 -0.733804 6.43832 0
M  V30 2533 N 242.408 -1.52605 -0.393616 0
M  V30 2534 C 243.358 -1.73436 -1.48 0
M  V30 2535 C 244.342 -0.588386 -1.49756 0
M  V30 2536 O 245.534 -0.846047 -1.5547 0
M  V30 2537 C 242.663 -1.90247 -2.85764 0
M  V30 2538 C 241.749 -3.10763 -2.88595 0
M  V30 2539 N 242.14 -4.33196 -2.61103 0
M  V30 2540 C 240.438 -3.10914 -3.19763 0
M  V30 2541 C 241.139 -5.1477 -2.70899 0
M  V30 2542 N 240.115 -4.50356 -3.04435 0
M  V30 2543 H 243.917 -2.65727 -1.25563 0
M  V30 2544 H 241.431 -1.5085 -0.601513 0
M  V30 2545 H 243.428 -2.03291 -3.63976 0
M  V30 2546 H 242.088 -0.991663 -3.09186 0
M  V30 2547 H 243.099 -4.61408 -2.35209 0
M  V30 2548 H 239.776 -2.29626 -3.4868 0
M  V30 2549 H 241.166 -6.22355 -2.53227 0
M  V30 2550 N 243.887 0.651787 -1.4349 0
M  V30 2551 C 244.817 1.77621 -1.51569 0
M  V30 2552 C 245.798 1.66022 -0.370253 0
M  V30 2553 O 246.983 1.85095 -0.587658 0
M  V30 2554 C 244.113 3.16056 -1.43966 0
M  V30 2555 C 243.067 3.4242 -2.56774 0
M  V30 2556 C 242.393 4.8067 -2.34223 0
M  V30 2557 C 243.693 3.37023 -3.99015 0
M  V30 2558 H 245.387 1.71117 -2.45681 0
M  V30 2559 H 242.933 0.821825 -1.18246 0
M  V30 2560 H 244.886 3.94472 -1.48221 0
M  V30 2561 H 243.61 3.23293 -0.463586 0
M  V30 2562 H 242.269 2.66375 -2.51873 0
M  V30 2563 H 241.917 4.84585 -1.34856 0
M  V30 2564 H 241.617 4.9927 -3.09844 0
M  V30 2565 H 243.141 5.61342 -2.40265 0
M  V30 2566 H 244.555 4.05374 -4.05395 0
M  V30 2567 H 242.952 3.67159 -4.74673 0
M  V30 2568 H 244.022 2.3518 -4.2405 0
M  V30 2569 N 245.365 1.30045 0.890287 0
M  V30 2570 C 246.781 1.08261 1.17268 0
M  V30 2571 C 246.981 -0.160063 2.00863 0
M  V30 2572 O 246.037 -0.855181 2.37577 0
M  V30 2573 C 247.35 2.34323 1.8845 0
M  V30 2574 C 248.898 2.39735 2.01237 0
M  V30 2575 C 249.373 3.65625 2.7583 0
M  V30 2576 N 250.864 3.66402 2.83379 0
M  V30 2577 C 251.599 4.60498 3.41657 0
M  V30 2578 N 251.095 5.64933 4.01026 0
M  V30 2579 N 252.888 4.48051 3.39421 0
M  V30 2580 H 245.039 2.09777 0.332762 0
M  V30 2581 H 247.302 0.92446 0.209948 0
M  V30 2582 H 247.008 3.2498 1.34465 0
M  V30 2583 H 246.882 2.4256 2.88867 0
M  V30 2584 H 249.269 1.4956 2.54393 0
M  V30 2585 H 249.35 2.35476 0.999232 0
M  V30 2586 H 248.994 4.56156 2.23347 0
M  V30 2587 H 248.924 3.67144 3.77509 0
M  V30 2588 H 251.415 2.90896 2.41222 0
M  V30 2589 H 251.728 6.32841 4.43545 0
M  V30 2590 H 250.073 5.68732 3.99461 0
M  V30 2591 H 253.264 3.65649 2.92264 0
M  V30 2592 H 253.437 5.21565 3.84544 0
M  V30 2593 N 246.843 -1.10192 1.12674 0
M  V30 2594 C 248.091 -1.81845 0.881861 0
M  V30 2595 C 248.412 -1.85737 -0.593867 0
M  V30 2596 O 247.682 -1.33724 -1.4316 0
M  V30 2597 H 246.262 -0.673432 0.323261 0
M  V30 2598 H 248.924 -1.33316 1.42172 0
M  V30 2599 H 248.02 -2.85288 1.2656 0
M  V30 2600 N 248.321 -0.919034 -1.28029 0
M  V30 2601 C 249.561 -0.562107 -1.96519 0
M  V30 2602 C 249.925 0.878784 -1.70708 0
M  V30 2603 O 251.126 1.34355 -2.32813 0
M  V30 2604 C 249.397 -0.868953 -3.46676 0
M  V30 2605 S 250.956 -0.619237 -4.34409 0
M  V30 2606 H 247.774 -0.2078 -0.679956 0
M  V30 2607 H 250.376 -1.18562 -1.55446 0
M  V30 2608 H 249.08 -1.91547 -3.62957 0
M  V30 2609 H 248.611 -0.234301 -3.92702 0
M  V30 2610 H 250.626 0.526995 -4.93394 0
M  V30 2611 N 249.799 1.42003 -0.683588 0
M  V30 2612 C 251.047 2.01015 -0.209101 0
M  V30 2613 C 251.368 1.54365 1.19149 0
M  V30 2614 O 250.638 0.769083 1.80172 0
M  V30 2615 H 249.218 0.743294 -0.074315 0
M  V30 2616 H 251.88 1.73798 -0.882066 0
M  V30 2617 H 250.976 3.11343 -0.2172 0
M  V30 2618 N 251.277 0.427512 1.51691 0
M  V30 2619 C 252.507 -0.140986 2.06118 0
M  V30 2620 C 252.915 -1.37854 1.29588 0
M  V30 2621 O 252.258 -1.80411 0.346036 0
M  V30 2622 C 252.32 -0.538276 3.55447 0
M  V30 2623 C 251.984 0.591095 4.53161 0
M  V30 2624 C 252.981 1.46027 4.98971 0
M  V30 2625 C 250.666 0.769028 4.96378 0
M  V30 2626 C 252.66 2.49216 5.8666 0
M  V30 2627 C 250.347 1.80421 5.83859 0
M  V30 2628 C 251.345 2.66417 6.28897 0
M  V30 2629 O 251.033 3.68159 7.14643 0
M  V30 2630 H 250.765 -0.0157455 0.675817 0
M  V30 2631 H 253.319 0.602495 1.96365 0
M  V30 2632 H 251.549 -1.33432 3.6295 0
M  V30 2633 H 253.238 -1.0368 3.92435 0
M  V30 2634 H 254.004 1.33429 4.66285 0
M  V30 2635 H 249.883 0.109273 4.6087 0
M  V30 2636 H 253.427 3.16372 6.21735 0
M  V30 2637 H 249.324 1.93042 6.15959 0
M  V30 2638 H 250.092 3.64622 7.32798 0
M  V30 2639 N 252.755 -1.56801 0.158532 0
M  V30 2640 C 253.685 -2.20347 -0.772609 0
M  V30 2641 C 254.666 -1.15518 -1.24859 0
M  V30 2642 O 255.851 -1.43902 -1.30406 0
M  V30 2643 C 252.981 -2.83417 -2.00729 0
M  V30 2644 C 251.935 -3.94174 -1.66765 0
M  V30 2645 C 251.261 -4.44233 -2.97592 0
M  V30 2646 C 252.561 -5.14392 -0.905447 0
M  V30 2647 H 254.255 -2.98413 -0.242959 0
M  V30 2648 H 251.801 -1.43537 -0.115419 0
M  V30 2649 H 253.754 -3.26543 -2.6636 0
M  V30 2650 H 252.478 -2.02701 -2.56086 0
M  V30 2651 H 251.137 -3.51684 -1.03508 0
M  V30 2652 H 250.785 -3.60325 -3.50963 0
M  V30 2653 H 250.485 -5.18945 -2.75626 0
M  V30 2654 H 252.009 -4.90037 -3.64274 0
M  V30 2655 H 253.423 -5.5429 -1.46408 0
M  V30 2656 H 251.82 -5.9494 -0.7853 0
M  V30 2657 H 252.89 -4.84795 0.100668 0
M  V30 2658 N 254.233 0.115231 -1.57178 0
M  V30 2659 C 255.644 0.67197 -1.74188 0
M  V30 2660 C 255.995 1.80125 -0.777777 0
M  V30 2661 O 255.12 2.16346 0.0484376 0
M  V30 2662 C 255.715 1.22573 -3.1585 0
M  V30 2663 C 254.274 1.72872 -3.34353 0
M  V30 2664 C 253.421 0.629972 -2.70049 0
M  V30 2665 H 256.372 -0.110712 -1.58313 0
M  V30 2666 H 256.393 2.09535 -3.17609 0
M  V30 2667 H 255.905 0.403598 -3.85996 0
M  V30 2668 H 254.006 2.5755 -2.69256 0
M  V30 2669 H 254.119 1.83557 -4.42542 0
M  V30 2670 H 252.483 1.0645 -2.31388 0
M  V30 2671 H 253.266 -0.181241 -3.42821 0
M  V30 2672 N 255.711 1.52812 0.385517 0
M  V30 2673 C 256.959 1.67694 1.12797 0
M  V30 2674 C 257.28 0.421115 1.90399 0
M  V30 2675 O 256.55 -0.564551 1.87589 0
M  V30 2676 H 255.13 0.618155 0.419396 0
M  V30 2677 H 257.792 1.89938 0.436972 0
M  V30 2678 H 256.888 2.52896 1.82894 0
M  V30 2679 N 257.189 -0.644168 1.43834 0
M  V30 2680 C 258.429 -1.41565 1.47441 0
M  V30 2681 C 258.793 -1.91743 0.0992723 0
M  V30 2682 O 259.994 -2.68798 0.0100192 0
M  V30 2683 C 258.265 -2.55902 2.49498 0
M  V30 2684 S 259.824 -3.44287 2.72051 0
M  V30 2685 H 256.642 -0.483118 0.521649 0
M  V30 2686 H 259.244 -0.747008 1.80666 0
M  V30 2687 H 257.948 -2.17327 3.48134 0
M  V30 2688 H 257.479 -3.27607 2.17801 0
M  V30 2689 H 259.494 -4.52927 2.0266 0
M  V30 2690 N 258.668 -1.30515 -0.883378 0
M  V30 2691 C 260.079 -1.17509 -1.45081 0
M  V30 2692 C 260.43 0.223605 -1.94922 0
M  V30 2693 O 259.555 1.12041 -1.85137 0
M  V30 2694 C 260.15 -2.12715 -2.63701 0
M  V30 2695 C 258.709 -2.03682 -3.16529 0
M  V30 2696 C 257.856 -2.02706 -1.89224 0
M  V30 2697 H 260.807 -1.42762 -0.693165 0
M  V30 2698 H 260.828 -1.70891 -3.39965 0
M  V30 2699 H 260.34 -3.14505 -2.27395 0
M  V30 2700 H 258.441 -1.05039 -3.57488 0
M  V30 2701 H 258.554 -2.92146 -3.7972 0
M  V30 2702 H 256.918 -1.4753 -2.07622 0
M  V30 2703 H 257.701 -3.06229 -1.55174 0
M  V30 2704 N 260.146 1.09593 -1.13257 0
M  V30 2705 C 261.394 1.81375 -0.891492 0
M  V30 2706 C 261.715 1.86049 0.584009 0
M  V30 2707 O 260.985 1.34481 1.42449 0
M  V30 2708 H 259.565 0.671708 -0.326828 0
M  V30 2709 H 262.227 1.3256 -1.42877 0
M  V30 2710 H 261.323 2.84612 -1.28071 0
M  V30 2711 N 261.624 0.925811 1.2754 0
M  V30 2712 C 262.849 0.580924 1.99098 0
M  V30 2713 C 263.274 -0.833555 1.68622 0
M  V30 2714 O 262.632 -1.55903 0.925422 0
M  V30 2715 C 262.68 0.811186 3.51358 0
M  V30 2716 O 261.784 -0.124129 4.12213 0
M  V30 2717 H 261.125 0.223873 0.625122 0
M  V30 2718 H 263.655 1.24455 1.62395 0
M  V30 2719 H 263.665 0.72601 4.01489 0
M  V30 2720 H 262.34 1.84227 3.72872 0
M  V30 2721 H 260.917 0.0108006 3.72898 0
M  V30 2722 N 263.102 -1.41638 0.69111 0
M  V30 2723 C 264.05 -2.32597 0.0115199 0
M  V30 2724 C 265.044 -1.5072 -0.773296 0
M  V30 2725 O 266.25 -1.66685 -0.67942 0
M  V30 2726 H 262.625 -0.751849 -0.0150746 0
M  V30 2727 H 264.596 -2.87593 0.795791 0
M  V30 2728 C 263.345 -3.35467 -0.914172 0
M  V30 2729 H 262.668 -3.9852 -0.319687 0
M  V30 2730 H 264.108 -4.01662 -1.35808 0
M  V30 2731 C 262.567 -2.69004 -2.02826 0
M  V30 2732 O 263.097 -2.53444 -3.11655 0
M  V30 2733 N 261.303 -2.2777 -1.80469 0
M  V30 2734 H 260.85 -2.40626 -0.919615 0
M  V30 2735 H 260.808 -1.83635 -2.55197 0
M  V30 2736 N 264.58 -0.43555 -1.51462 0
M  V30 2737 C 265.828 0.131254 -2.01673 0
M  V30 2738 C 266.149 1.43368 -1.32177 0
M  V30 2739 O 265.419 1.90524 -0.455769 0
M  V30 2740 H 263.999 0.0514954 -0.745223 0
M  V30 2741 H 266.661 -0.577847 -1.86137 0
M  V30 2742 H 265.757 0.308446 -3.10572 0
M  V30 2743 N 266.058 1.56714 -0.166846 0
M  V30 2744 C 267.305 1.96747 0.479252 0
M  V30 2745 C 267.633 1.05263 1.63554 0
M  V30 2746 O 266.888 0.0858098 1.95512 0
M  V30 2747 C 267.187 3.42889 1.00806 0
M  V30 2748 C 266.853 4.50889 -0.0318574 0
M  V30 2749 C 265.515 4.8015 -0.317675 0
M  V30 2750 C 267.867 5.15949 -0.737956 0
M  V30 2751 C 265.195 5.71772 -1.31506 0
M  V30 2752 C 267.547 6.08647 -1.72429 0
M  V30 2753 C 266.211 6.36277 -2.0176 0
M  V30 2754 H 265.481 0.719949 0.175371 0
M  V30 2755 H 268.128 1.89756 -0.257864 0
M  V30 2756 H 266.433 3.4681 1.82291 0
M  V30 2757 H 268.13 3.71203 1.51689 0
M  V30 2758 H 264.72 4.28128 0.201088 0
M  V30 2759 H 268.904 4.93458 -0.530351 0
M  V30 2760 H 264.16 5.91465 -1.54853 0
M  V30 2761 H 268.334 6.58129 -2.27682 0
M  V30 2762 H 265.961 7.07075 -2.79194 0
M  V30 2763 N 267.536 -0.106894 1.57237 0
M  V30 2764 C 268.486 -1.1366 1.9765 0
M  V30 2765 C 269.47 -1.36416 0.853203 0
M  V30 2766 O 270.662 -1.37305 1.11697 0
M  V30 2767 C 267.791 -2.46 2.39455 0
M  V30 2768 C 266.877 -2.26668 3.58445 0
M  V30 2769 N 267.268 -1.77176 4.73754 0
M  V30 2770 C 265.566 -2.57279 3.64312 0
M  V30 2771 C 266.267 -1.71836 5.5574 0
M  V30 2772 N 265.243 -2.16623 4.98573 0
M  V30 2773 H 269.045 -0.74669 2.84256 0
M  V30 2774 H 266.559 -0.314483 1.59326 0
M  V30 2775 H 268.556 -3.2049 2.6663 0
M  V30 2776 H 267.216 -2.85738 1.54219 0
M  V30 2777 H 268.227 -1.46545 4.96734 0
M  V30 2778 H 264.904 -3.00622 2.89711 0
M  V30 2779 H 266.294 -1.34723 6.58255 0
M  V30 2780 N 269.014 -1.53014 -0.377408 0
M  V30 2781 C 269.962 -1.7927 -1.48206 0
M  V30 2782 C 270.956 -0.661195 -1.55963 0
M  V30 2783 O 272.162 -0.843908 -1.58991 0
M  V30 2784 H 268.537 -0.567425 -0.493491 0
M  V30 2785 H 270.508 -2.71753 -1.2326 0
M  V30 2786 C 269.257 -1.98894 -2.85196 0
M  V30 2787 H 268.58 -2.85395 -2.79981 0
M  V30 2788 H 270.02 -2.21249 -3.61698 0
M  V30 2789 C 268.479 -0.764691 -3.28107 0
M  V30 2790 O 269.009 0.0523226 -4.01666 0
M  V30 2791 N 267.215 -0.591493 -2.84517 0
M  V30 2792 H 266.762 -1.25749 -2.24822 0
M  V30 2793 H 266.72 0.226253 -3.13585 0
M  V30 2794 N 270.492 0.636531 -1.44174 0
M  V30 2795 C 271.44 1.76995 -1.50915 0
M  V30 2796 C 272.434 1.65053 -0.381295 0
M  V30 2797 O 273.64 1.71197 -0.55601 0
M  V30 2798 H 270.015 0.584247 -0.473455 0
M  V30 2799 H 271.986 1.68432 -2.4632 0
M  V30 2800 C 270.735 3.15314 -1.46534 0
M  V30 2801 H 270.058 3.25149 -2.32633 0
M  V30 2802 H 271.498 3.9453 -1.55312 0
M  V30 2803 C 269.957 3.3639 -0.185305 0
M  V30 2804 O 270.487 3.94699 0.746688 0
M  V30 2805 N 268.693 2.9046 -0.0901606 0
M  V30 2806 H 268.24 2.43193 -0.849416 0
M  V30 2807 H 268.198 3.04937 0.765553 0
M  V30 2808 N 271.97 1.30982 0.876444 0
M  V30 2809 C 273.247 1.10942 1.61094 0
M  V30 2810 C 273.627 -0.338223 2.08373 0
M  V30 2811 O 272.975 -1.33122 1.85717 0
M  V30 2812 C 273.185 2.11789 2.77392 0
M  V30 2813 C 274.533 2.43965 3.47514 0
M  V30 2814 O 275.557 2.10166 2.87591 0
M  V30 2815 O 274.416 3.01817 4.55597 0
M  V30 2816 H 271.51 0.42667 0.708436 0
M  V30 2817 H 274.056 1.42438 0.922474 0
M  V30 2818 H 272.828 3.09194 2.39823 0
M  V30 2819 H 272.451 1.81161 3.5393 0
M  V30 2820 N 273.449 -1.08991 1.13837 0
M  V30 2821 C 274.677 -1.85011 0.926202 0
M  V30 2822 C 275.092 -1.8135 -0.525127 0
M  V30 2823 O 274.449 -1.21287 -1.36366 0
M  V30 2824 C 274.5 -3.32802 1.41155 0
M  V30 2825 O 274.221 -3.36444 2.80601 0
M  V30 2826 C 275.722 -4.25649 1.23847 0
M  V30 2827 H 272.942 -0.584249 0.32999 0
M  V30 2828 H 275.486 -1.37688 1.51202 0
M  V30 2829 H 273.641 -3.77536 0.868631 0
M  V30 2830 H 274.055 -4.28657 3.02248 0
M  V30 2831 H 275.529 -5.27485 1.62675 0
M  V30 2832 H 276.006 -4.38828 0.18065 0
M  V30 2833 H 276.612 -3.86735 1.76964 0
M  V30 2834 N 274.927 -0.932562 -1.27047 0
M  V30 2835 C 276.174 -0.575559 -1.94148 0
M  V30 2836 C 276.502 0.883984 -1.73251 0
M  V30 2837 O 275.757 1.64655 -1.0577 0
M  V30 2838 C 276.056 -0.853713 -3.47054 0
M  V30 2839 C 275.722 -2.29577 -3.88079 0
M  V30 2840 C 274.384 -2.68999 -3.9899 0
M  V30 2841 C 276.736 -3.23331 -4.08787 0
M  V30 2842 C 274.064 -4.01289 -4.28 0
M  V30 2843 C 276.416 -4.55207 -4.39282 0
M  V30 2844 C 275.08 -4.94457 -4.48407 0
M  V30 2845 H 274.35 -0.210612 -0.710439 0
M  V30 2846 H 276.997 -1.17744 -1.51025 0
M  V30 2847 H 275.302 -0.169204 -3.91434 0
M  V30 2848 H 276.999 -0.55639 -3.97121 0
M  V30 2849 H 273.589 -1.97994 -3.80127 0
M  V30 2850 H 277.773 -2.94074 -3.99793 0
M  V30 2851 H 273.029 -4.31374 -4.33275 0
M  V30 2852 H 277.203 -5.27852 -4.54252 0
M  V30 2853 H 274.83 -5.96994 -4.7064 0
M  V30 2854 N 276.405 1.4127 -0.698611 0
M  V30 2855 C 277.355 2.27997 -0.0119836 0
M  V30 2856 C 278.339 1.42363 0.749765 0
M  V30 2857 O 279.531 1.65607 0.624758 0
M  V30 2858 C 276.66 3.30702 0.921458 0
M  V30 2859 C 275.746 4.23814 0.155796 0
M  V30 2860 N 276.137 4.98572 -0.852015 0
M  V30 2861 C 274.435 4.44284 0.390836 0
M  V30 2862 C 275.136 5.66744 -1.3106 0
M  V30 2863 N 274.112 5.39867 -0.635944 0
M  V30 2864 H 277.914 2.83232 -0.784649 0
M  V30 2865 H 275.428 1.53518 -0.529711 0
M  V30 2866 H 277.425 3.91661 1.42854 0
M  V30 2867 H 276.085 2.77028 1.69369 0
M  V30 2868 H 277.096 5.03024 -1.23235 0
M  V30 2869 H 273.773 4.01614 1.14071 0
M  V30 2870 H 275.163 6.36672 -2.14707 0
M  V30 2871 N 277.883 0.443576 1.51229 0
M  V30 2872 C 279.13 -0.120796 2.02139 0
M  V30 2873 C 279.458 -1.42166 1.32736 0
M  V30 2874 O 278.713 -1.90849 0.43301 0
M  V30 2875 C 279.012 -0.380579 3.55368 0
M  V30 2876 C 278.678 0.83523 4.43097 0
M  V30 2877 C 277.34 1.16864 4.66794 0
M  V30 2878 C 279.692 1.64601 4.94526 0
M  V30 2879 C 277.02 2.31339 5.39165 0
M  V30 2880 C 279.372 2.78181 5.68153 0
M  V30 2881 C 278.036 3.11969 5.90112 0
M  V30 2882 H 277.306 -0.0442023 0.73968 0
M  V30 2883 H 279.953 0.592046 1.82118 0
M  V30 2884 H 278.258 -1.17538 3.73754 0
M  V30 2885 H 279.955 -0.830777 3.923 0
M  V30 2886 H 276.545 0.565437 4.24854 0
M  V30 2887 H 280.729 1.40163 4.76097 0
M  V30 2888 H 275.985 2.57823 5.5438 0
M  V30 2889 H 280.159 3.41371 6.06992 0
M  V30 2890 H 277.786 4.00784 6.45969 0
M  V30 2891 N 279.361 -1.56624 0.175154 0
M  V30 2892 C 280.291 -2.21155 -0.749195 0
M  V30 2893 C 281.272 -1.16836 -1.23626 0
M  V30 2894 O 282.457 -1.45277 -1.28873 0
M  V30 2895 C 279.587 -2.8553 -1.97711 0
M  V30 2896 C 278.541 -3.95921 -1.62575 0
M  V30 2897 C 277.867 -4.47365 -2.92864 0
M  V30 2898 C 279.167 -5.15323 -0.850838 0
M  V30 2899 H 280.861 -2.98653 -0.211295 0
M  V30 2900 H 278.407 -1.43651 -0.100188 0
M  V30 2901 H 280.36 -3.2935 -2.62881 0
M  V30 2902 H 279.084 -2.05406 -2.53921 0
M  V30 2903 H 277.743 -3.52762 -0.997719 0
M  V30 2904 H 277.391 -3.64027 -3.47122 0
M  V30 2905 H 277.091 -5.21839 -2.70106 0
M  V30 2906 H 278.615 -4.93873 -3.59056 0
M  V30 2907 H 280.029 -5.55812 -1.40521 0
M  V30 2908 H 278.426 -5.95739 -0.722154 0
M  V30 2909 H 279.496 -4.84661 0.152082 0
M  V30 2910 N 280.839 0.0985539 -1.57292 0
M  V30 2911 C 281.786 1.11981 -2.01814 0
M  V30 2912 C 282.756 1.39999 -0.89384 0
M  V30 2913 O 283.941 1.5152 -1.15958 0
M  V30 2914 C 281.081 2.43577 -2.44467 0
M  V30 2915 C 280.194 2.2232 -3.70402 0
M  V30 2916 C 279.329 3.4729 -4.01949 0
M  V30 2917 C 278.368 3.2128 -5.21005 0
M  V30 2918 N 277.505 4.38507 -5.48321 0
M  V30 2919 H 282.345 0.733149 -2.88841 0
M  V30 2920 H 279.882 0.350482 -1.42864 0
M  V30 2921 H 281.84 3.20373 -2.6724 0
M  V30 2922 H 280.47 2.80097 -1.60455 0
M  V30 2923 H 279.522 1.36343 -3.55126 0
M  V30 2924 H 280.834 1.99089 -4.57345 0
M  V30 2925 H 279.988 4.32495 -4.25479 0
M  V30 2926 H 278.727 3.73572 -3.13521 0
M  V30 2927 H 277.732 2.34468 -4.97298 0
M  V30 2928 H 278.957 2.96348 -6.11028 0
M  V30 2929 H 276.903 4.64871 -4.62851 0
M  V30 2930 H 276.82 4.18455 -6.29628 0
M  V30 2931 H 278.088 5.24787 -5.76385 0
M  V30 2932 N 282.317 1.53212 0.369288 0
M  V30 2933 C 283.557 1.70915 1.12105 0
M  V30 2934 C 283.921 0.449444 1.86665 0
M  V30 2935 O 285.122 0.503105 2.6405 0
M  V30 2936 C 283.393 2.9222 2.05772 0
M  V30 2937 S 284.952 3.30609 2.88519 0
M  V30 2938 H 281.77 0.601445 0.379189 0
M  V30 2939 H 284.372 1.91306 0.402794 0
M  V30 2940 H 283.076 3.82103 1.49752 0
M  V30 2941 H 282.607 2.7422 2.82076 0
M  V30 2942 H 284.622 2.82333 4.08047 0
M  V30 2943 N 283.795 -0.628877 1.44509 0
M  V30 2944 C 285.035 -1.39993 1.48934 0
M  V30 2945 C 285.399 -1.91627 0.119604 0
M  V30 2946 O 286.6 -2.68772 0.0385283 0
M  V30 2947 C 284.871 -2.53241 2.52198 0
M  V30 2948 S 286.43 -3.41383 2.75687 0
M  V30 2949 H 283.248 -0.477558 0.526744 0
M  V30 2950 H 285.85 -0.727804 1.81448 0
M  V30 2951 H 284.554 -2.13622 3.50419 0
M  V30 2952 H 284.085 -3.25278 2.21264 0
M  V30 2953 H 286.1 -4.50752 2.07453 0
M  V30 2954 N 285.273 -1.31445 -0.869486 0
M  V30 2955 C 286.221 -1.19067 -1.99814 0
M  V30 2956 C 287.215 -0.0988569 -1.69111 0
M  V30 2957 O 288.421 -0.260781 -1.78101 0
M  V30 2958 H 284.796 -0.368677 -0.655425 0
M  V30 2959 H 286.767 -2.14555 -2.07385 0
M  V30 2960 C 285.516 -0.915323 -3.35436 0
M  V30 2961 H 284.839 -1.74759 -3.59582 0
M  V30 2962 H 286.279 -0.868895 -4.15001 0
M  V30 2963 C 284.738 0.381928 -3.34728 0
M  V30 2964 O 285.268 1.39857 -3.76567 0
M  V30 2965 N 283.474 0.398633 -2.87853 0
M  V30 2966 H 283.021 -0.429186 -2.54 0
M  V30 2967 H 282.979 1.26651 -2.87762 0
M  V30 2968 N 286.751 1.08385 -1.14413 0
M  V30 2969 C 287.979 1.84517 -0.936001 0
M  V30 2970 C 288.394 1.81626 0.515503 0
M  V30 2971 O 287.751 1.22008 1.35721 0
M  V30 2972 C 287.802 3.32049 -1.42918 0
M  V30 2973 O 287.523 3.34951 -2.82381 0
M  V30 2974 C 289.024 4.24986 -1.26103 0
M  V30 2975 H 286.244 0.582491 -0.333084 0
M  V30 2976 H 288.788 1.36885 -1.5193 0
M  V30 2977 H 286.943 3.7707 -0.888641 0
M  V30 2978 H 287.357 4.27048 -3.04517 0
M  V30 2979 H 288.831 5.26615 -1.6547 0
M  V30 2980 H 289.308 4.38726 -0.20392 0
M  V30 2981 H 289.914 3.85791 -1.79012 0
M  V30 2982 N 288.23 0.939286 1.26551 0
M  V30 2983 C 289.458 0.602536 1.97932 0
M  V30 2984 C 289.873 -0.82206 1.69964 0
M  V30 2985 O 289.23 -1.54789 0.966784 0
M  V30 2986 C 289.281 0.832946 3.51773 0
M  V30 2987 O 289.002 2.20151 3.78768 0
M  V30 2988 C 290.503 0.506483 4.40397 0
M  V30 2989 H 287.723 0.227248 0.631347 0
M  V30 2990 H 290.267 1.25948 1.61113 0
M  V30 2991 H 288.422 0.222644 3.8676 0
M  V30 2992 H 288.836 2.26013 4.73306 0
M  V30 2993 H 290.31 0.718333 5.47306 0
M  V30 2994 H 290.787 -0.558451 4.35635 0
M  V30 2995 H 291.393 1.09543 4.10951 0
M  V30 2996 N 289.708 -1.40897 0.706093 0
M  V30 2997 C 290.655 -2.30751 0.0474474 0
M  V30 2998 C 291.625 -1.47678 -0.76029 0
M  V30 2999 O 292.81 -1.76441 -0.726177 0
M  V30 3000 C 289.95 -3.33815 -0.875309 0
M  V30 3001 C 289.063 -4.31961 -0.0580623 0
M  V30 3002 C 288.198 -5.22093 -0.979425 0
M  V30 3003 C 287.237 -6.11902 -0.155706 0
M  V30 3004 N 286.374 -6.94482 -1.03144 0
M  V30 3005 H 291.214 -2.86513 0.819413 0
M  V30 3006 H 288.751 -1.41102 0.415783 0
M  V30 3007 H 290.709 -3.92129 -1.42446 0
M  V30 3008 H 289.339 -2.79579 -1.61356 0
M  V30 3009 H 288.391 -3.75507 0.608147 0
M  V30 3010 H 289.703 -4.95415 0.580082 0
M  V30 3011 H 288.857 -5.85292 -1.59744 0
M  V30 3012 H 287.596 -4.5889 -1.65141 0
M  V30 3013 H 286.601 -5.47742 0.475309 0
M  V30 3014 H 287.826 -6.77162 0.512635 0
M  V30 3015 H 285.772 -6.33877 -1.68924 0
M  V30 3016 H 285.689 -7.54665 -0.449108 0
M  V30 3017 H 286.957 -7.6214 -1.63593 0
M  V30 3018 N 291.186 -0.45159 -1.50991 0
M  V30 3019 C 292.426 0.109066 -2.04109 0
M  V30 3020 C 292.79 1.38716 -1.32747 0
M  V30 3021 O 293.991 2.02896 -1.76314 0
M  V30 3022 C 292.262 0.308354 -3.56067 0
M  V30 3023 S 293.821 0.830369 -4.30872 0
M  V30 3024 H 290.639 0.0251531 -0.710555 0
M  V30 3025 H 293.241 -0.614264 -1.85599 0
M  V30 3026 H 291.945 -0.627962 -4.05567 0
M  V30 3027 H 291.476 1.05836 -3.78896 0
M  V30 3028 H 293.491 2.10626 -4.49279 0
M  V30 3029 N 292.664 1.56529 -0.183458 0
M  V30 3030 C 293.612 2.19873 0.758845 0
M  V30 3031 C 294.606 1.16638 1.22849 0
M  V30 3032 O 295.812 1.3481 1.19274 0
M  V30 3033 H 292.187 0.7045 0.263029 0
M  V30 3034 H 294.158 2.97724 0.200755 0
M  V30 3035 C 292.907 2.86314 1.9728 0
M  V30 3036 H 292.23 3.65487 1.62047 0
M  V30 3037 H 293.67 3.3409 2.61075 0
M  V30 3038 C 292.129 1.86729 2.80418 0
M  V30 3039 O 292.659 1.36031 3.77966 0
M  V30 3040 N 290.865 1.55216 2.45675 0
M  V30 3041 H 290.412 1.96636 1.66409 0
M  V30 3042 H 290.37 0.888388 3.01588 0
M  V30 3043 N 294.142 -0.090211 1.57342 0
M  V30 3044 C 295.052 -1.12735 2.05738 0
M  V30 3045 C 296.068 -1.43557 0.983231 0
M  V30 3046 O 297.244 -1.54101 1.29672 0
M  V30 3047 C 294.309 -2.42659 2.47624 0
M  V30 3048 C 293.37 -2.18975 3.69254 0
M  V30 3049 C 292.603 -3.42704 4.09133 0
M  V30 3050 O 292.826 -4.51127 3.49057 0
M  V30 3051 O 291.76 -3.32003 5.02053 0
M  V30 3052 H 295.586 -0.746279 2.94388 0
M  V30 3053 H 293.171 -0.303064 1.46294 0
M  V30 3054 H 295.053 -3.19155 2.7517 0
M  V30 3055 H 293.728 -2.80182 1.62109 0
M  V30 3056 H 292.635 -1.40244 3.46818 0
M  V30 3057 H 293.968 -1.86342 4.55563 0
M  V30 3058 N 295.62 -1.53406 -0.361157 0
M  V30 3059 C 296.868 -1.69467 -1.10115 0
M  V30 3060 C 297.189 -0.451352 -1.89705 0
M  V30 3061 O 296.459 0.534636 -1.88463 0
M  V30 3062 H 295.039 -0.624749 -0.409508 0
M  V30 3063 H 297.701 -1.90609 -0.406699 0
M  V30 3064 H 296.797 -2.55774 -1.78847 0
M  V30 3065 N 297.098 0.621204 -1.44841 0
M  V30 3066 C 298.509 1.20298 -1.42777 0
M  V30 3067 C 298.86 1.95639 -0.148259 0
M  V30 3068 O 297.985 2.02955 0.750892 0
M  V30 3069 C 298.58 2.1882 -2.58657 0
M  V30 3070 C 297.139 2.72403 -2.59756 0
M  V30 3071 C 296.286 1.4757 -2.34773 0
M  V30 3072 H 299.237 0.411297 -1.53278 0
M  V30 3073 H 299.258 3.01607 -2.31977 0
M  V30 3074 H 298.77 1.63957 -3.51766 0
M  V30 3075 H 296.871 3.31242 -1.70615 0
M  V30 3076 H 296.984 3.17765 -3.58556 0
M  V30 3077 H 295.348 1.76051 -1.8406 0
M  V30 3078 H 296.131 0.945954 -3.3001 0
M  V30 3079 N 298.576 1.31904 0.862503 0
M  V30 3080 C 299.825 1.21373 1.61094 0
M  V30 3081 C 300.138 -0.22504 1.94301 0
M  V30 3082 O 301.344 -0.452121 2.67709 0
M  V30 3083 C 299.8 2.12525 2.9045 0
M  V30 3084 C 299.408 3.61441 2.64697 0
M  V30 3085 C 301.152 2.10813 3.68454 0
M  V30 3086 C 299.059 4.44578 3.90006 0
M  V30 3087 H 297.989 0.450705 0.604468 0
M  V30 3088 H 300.64 1.56811 0.953027 0
M  V30 3089 H 299.022 1.69994 3.57656 0
M  V30 3090 H 300.196 4.12264 2.05851 0
M  V30 3091 H 298.511 3.65205 2.00036 0
M  V30 3092 H 301.108 2.70167 4.61426 0
M  V30 3093 H 301.451 1.09713 4.01583 0
M  V30 3094 H 301.984 2.51583 3.08141 0
M  V30 3095 H 298.723 5.46461 3.62023 0
M  V30 3096 H 298.243 3.98508 4.48276 0
M  V30 3097 H 299.922 4.57176 4.5782 0
M  V30 3098 N 300.054 -1.07777 1.14986 0
M  V30 3099 C 300.984 -2.16865 0.865557 0
M  V30 3100 C 301.965 -1.69123 -0.182083 0
M  V30 3101 O 303.15 -1.94164 -0.0373815 0
M  V30 3102 C 300.28 -3.45539 0.349313 0
M  V30 3103 C 299.234 -4.06708 1.33313 0
M  V30 3104 C 298.56 -5.30411 0.675918 0
M  V30 3105 C 299.86 -4.47241 2.69764 0
M  V30 3106 H 301.554 -2.40905 1.77778 0
M  V30 3107 H 299.1 -1.15781 0.856203 0
M  V30 3108 H 301.053 -4.21174 0.137983 0
M  V30 3109 H 299.777 -3.21072 -0.598362 0
M  V30 3110 H 298.436 -3.33112 1.53075 0
M  V30 3111 H 298.084 -5.02232 -0.277767 0
M  V30 3112 H 297.784 -5.72293 1.33244 0
M  V30 3113 H 299.308 -6.08755 0.474262 0
M  V30 3114 H 300.722 -5.14025 2.53873 0
M  V30 3115 H 299.119 -5.00062 3.3175 0
M  V30 3116 H 300.189 -3.58818 3.26156 0
M  V30 3117 N 301.532 -0.945985 -1.26051 0
M  V30 3118 C 302.442 -0.465633 -2.29933 0
M  V30 3119 C 303.458 0.462761 -1.67733 0
M  V30 3120 O 304.634 0.341118 -1.9849 0
M  V30 3121 C 301.699 0.256994 -3.45746 0
M  V30 3122 C 300.76 -0.708549 -4.23412 0
M  V30 3123 C 299.993 -0.0203135 -5.33696 0
M  V30 3124 O 300.216 1.19571 -5.57726 0
M  V30 3125 O 299.15 -0.701459 -5.97799 0
M  V30 3126 H 302.976 -1.32866 -2.73094 0
M  V30 3127 H 300.561 -0.712071 -1.31339 0
M  V30 3128 H 302.443 0.663852 -4.16138 0
M  V30 3129 H 301.118 1.09533 -3.04605 0
M  V30 3130 H 300.025 -1.16545 -3.55483 0
M  V30 3131 H 301.358 -1.51465 -4.68315 0
M  V30 3132 N 303.011 1.40521 -0.713556 0
M  V30 3133 C 303.941 2.33381 -0.0743864 0
M  V30 3134 C 304.922 1.52784 0.747735 0
M  V30 3135 O 306.107 1.81258 0.697071 0
M  V30 3136 C 303.237 3.36748 0.849598 0
M  V30 3137 C 302.191 4.27793 0.133247 0
M  V30 3138 C 301.517 5.21679 1.17281 0
M  V30 3139 C 302.817 5.12415 -1.01134 0
M  V30 3140 H 304.511 2.87081 -0.850007 0
M  V30 3141 H 302.057 1.38034 -0.410201 0
M  V30 3142 H 304.01 4.00648 1.30612 0
M  V30 3143 H 302.734 2.81439 1.65709 0
M  V30 3144 H 301.393 3.65342 -0.303426 0
M  V30 3145 H 301.041 4.62677 1.9733 0
M  V30 3146 H 300.741 5.83435 0.698397 0
M  V30 3147 H 302.265 5.88456 1.62947 0
M  V30 3148 H 303.679 5.69781 -0.634274 0
M  V30 3149 H 302.076 5.83203 -1.41399 0
M  V30 3150 H 303.146 4.48514 -1.84292 0
M  V30 3151 N 304.489 0.459591 1.5075 0
M  V30 3152 C 305.399 -0.34613 2.32033 0
M  V30 3153 C 306.415 -1.00686 1.41909 0
M  V30 3154 O 307.591 -0.997361 1.7497 0
M  V30 3155 C 304.656 -1.42029 3.16273 0
M  V30 3156 C 303.717 -0.777362 4.22203 0
M  V30 3157 C 302.95 -1.80034 5.02418 0
M  V30 3158 O 303.173 -3.02544 4.83553 0
M  V30 3159 O 302.107 -1.37853 5.85901 0
M  V30 3160 H 305.933 0.318054 3.0203 0
M  V30 3161 H 303.518 0.221663 1.47746 0
M  V30 3162 H 305.4 -2.04275 3.68578 0
M  V30 3163 H 304.075 -2.06815 2.49016 0
M  V30 3164 H 302.982 -0.116256 3.73919 0
M  V30 3165 H 304.315 -0.172634 4.91897 0
M  V30 3166 N 305.967 -1.56429 0.191757 0
M  V30 3167 C 306.915 -2.20273 -0.747174 0
M  V30 3168 C 307.909 -1.17288 -1.22229 0
M  V30 3169 O 309.115 -1.35441 -1.18557 0
M  V30 3170 H 305.49 -0.705885 -0.259289 0
M  V30 3171 H 307.461 -2.97826 -0.184963 0
M  V30 3172 C 306.21 -2.87356 -1.95759 0
M  V30 3173 H 305.533 -3.66341 -1.60106 0
M  V30 3174 H 306.973 -3.3547 -2.59299 0
M  V30 3175 C 305.432 -1.88213 -2.79423 0
M  V30 3176 O 305.962 -1.38033 -3.7724 0
M  V30 3177 N 304.168 -1.56516 -2.44849 0
M  V30 3178 H 303.715 -1.97516 -1.65364 0
M  V30 3179 H 303.673 -0.904369 -3.01112 0
M  V30 3180 N 307.445 0.0818655 -1.57387 0
M  V30 3181 C 308.375 1.09885 -2.06028 0
M  V30 3182 C 309.356 1.4098 -0.951774 0
M  V30 3183 O 310.541 1.50781 -1.22387 0
M  V30 3184 C 307.671 2.4151 -2.4958 0
M  V30 3185 C 306.625 2.24792 -3.64215 0
M  V30 3186 C 305.951 3.61712 -3.93787 0
M  V30 3187 C 307.251 1.67749 -4.94629 0
M  V30 3188 H 308.945 0.694128 -2.91243 0
M  V30 3189 H 306.491 0.332448 -1.4011 0
M  V30 3190 H 308.444 3.12939 -2.82219 0
M  V30 3191 H 307.168 2.83943 -1.61381 0
M  V30 3192 H 305.827 1.55807 -3.31843 0
M  V30 3193 H 305.475 4.01697 -3.02735 0
M  V30 3194 H 305.175 3.51368 -4.70971 0
M  V30 3195 H 306.699 4.34587 -4.28913 0
M  V30 3196 H 308.113 2.29032 -5.25564 0
M  V30 3197 H 306.51 1.68128 -5.76067 0
M  V30 3198 H 307.58 0.638059 -4.80684 0
M  V30 3199 N 308.923 1.53595 0.353017 0
M  V30 3200 C 310.334 1.61937 0.929153 0
M  V30 3201 C 310.685 0.494686 1.89861 0
M  V30 3202 O 309.81 -0.377017 2.1309 0
M  V30 3203 C 310.405 2.93526 1.69199 0
M  V30 3204 C 308.964 3.04161 2.21727 0
M  V30 3205 C 308.111 2.57322 1.03348 0
M  V30 3206 H 311.062 1.58155 0.131431 0
M  V30 3207 H 311.083 2.82034 2.55416 0
M  V30 3208 H 310.595 3.75362 0.986144 0
M  V30 3209 H 308.696 2.26938 2.95516 0
M  V30 3210 H 308.809 4.09465 2.48748 0
M  V30 3211 H 307.173 2.12499 1.40414 0
M  V30 3212 H 307.956 3.41588 0.342428 0
M  V30 3213 N 310.401 -0.613514 1.45168 0
M  V30 3214 C 311.333 -1.73825 1.4939 0
M  V30 3215 C 312.346 -1.58175 0.385304 0
M  V30 3216 O 313.535 -1.66165 0.652036 0
M  V30 3217 C 310.635 -3.11758 1.32891 0
M  V30 3218 C 309.808 -3.53704 2.57317 0
M  V30 3219 C 308.867 -4.70579 2.35462 0
M  V30 3220 O 307.893 -4.77996 3.09044 0
M  V30 3221 N 309.095 -5.63454 1.39644 0
M  V30 3222 H 311.86 -1.70669 2.46358 0
M  V30 3223 H 309.421 -0.79862 1.40832 0
M  V30 3224 H 311.413 -3.87692 1.1609 0
M  V30 3225 H 309.983 -3.09456 0.442218 0
M  V30 3226 H 309.203 -2.67794 2.89275 0
M  V30 3227 H 310.491 -3.78486 3.40038 0
M  V30 3228 H 309.889 -5.6017 0.789062 0
M  V30 3229 H 308.446 -6.38944 1.28816 0
M  V30 3230 N 311.879 -1.3236 -0.855495 0
M  V30 3231 C 312.827 -1.2118 -1.9854 0
M  V30 3232 C 313.821 -0.116788 -1.68997 0
M  V30 3233 O 315.027 -0.279657 -1.77814 0
M  V30 3234 H 311.402 -0.375608 -0.651477 0
M  V30 3235 H 313.373 -2.16743 -2.05098 0
M  V30 3236 C 312.122 -0.950849 -3.34446 0
M  V30 3237 H 311.445 -1.78563 -3.57708 0
M  V30 3238 H 312.885 -0.912863 -4.14057 0
M  V30 3239 C 311.344 0.346404 -3.35114 0
M  V30 3240 O 311.874 1.35855 -3.7803 0
M  V30 3241 N 310.08 0.36808 -2.88259 0
M  V30 3242 H 309.627 -0.456102 -2.5353 0
M  V30 3243 H 309.585 1.23591 -2.89089 0
M  V30 3244 N 313.357 1.07166 -1.15556 0
M  V30 3245 C 314.605 1.79443 -0.929764 0
M  V30 3246 C 314.926 1.87246 0.544414 0
M  V30 3247 O 314.196 1.37473 1.39564 0
M  V30 3248 H 312.776 0.664625 -0.341003 0
M  V30 3249 H 315.438 1.29499 -1.45657 0
M  V30 3250 H 314.534 2.81832 -1.34079 0
M  V30 3251 N 314.835 0.952656 1.25548 0
M  V30 3252 C 316.251 0.656769 1.4546 0
M  V30 3253 C 316.451 -0.78633 1.85524 0
M  V30 3254 O 315.507 -1.56183 1.98402 0
M  V30 3255 C 316.82 1.62801 2.52817 0
M  V30 3256 C 318.368 1.63897 2.66659 0
M  V30 3257 C 318.843 2.5978 3.77198 0
M  V30 3258 N 320.334 2.58133 3.84606 0
M  V30 3259 C 321.069 3.29003 4.69621 0
M  V30 3260 N 320.565 4.09339 5.58939 0
M  V30 3261 N 322.358 3.179 4.63569 0
M  V30 3262 H 314.509 1.88526 0.978344 0
M  V30 3263 H 316.772 0.810815 0.491206 0
M  V30 3264 H 316.478 2.65869 2.30232 0
M  V30 3265 H 316.352 1.38898 3.50695 0
M  V30 3266 H 318.739 0.615481 2.8861 0
M  V30 3267 H 318.82 1.91858 1.69187 0
M  V30 3268 H 318.464 3.62254 3.55997 0
M  V30 3269 H 318.394 2.29105 4.7415 0
M  V30 3270 H 320.885 1.99809 3.20757 0
M  V30 3271 H 321.198 4.6034 6.20731 0
M  V30 3272 H 319.543 4.13438 5.58654 0
M  V30 3273 H 322.734 2.54612 3.92798 0
M  V30 3274 H 322.907 3.73398 5.29602 0
M  V30 3275 N 316.313 -1.40141 0.720998 0
M  V30 3276 C 317.245 -2.29177 0.0324669 0
M  V30 3277 C 318.258 -1.46105 -0.718126 0
M  V30 3278 O 319.447 -1.69335 -0.564608 0
M  V30 3279 C 316.547 -3.24473 -0.978292 0
M  V30 3280 C 315.72 -4.36423 -0.292115 0
M  V30 3281 C 314.779 -5.12122 -1.20901 0
M  V30 3282 O 313.805 -5.64981 -0.691766 0
M  V30 3283 N 315.007 -5.21992 -2.53978 0
M  V30 3284 H 317.772 -2.88909 0.796984 0
M  V30 3285 H 315.333 -1.51569 0.569068 0
M  V30 3286 H 317.325 -3.71987 -1.59398 0
M  V30 3287 H 315.895 -2.65871 -1.64413 0
M  V30 3288 H 315.115 -3.90967 0.503847 0
M  V30 3289 H 316.403 -5.08467 0.183971 0
M  V30 3290 H 315.801 -4.8054 -2.98493 0
M  V30 3291 H 314.358 -5.72995 -3.10677 0
M  V30 3292 N 317.792 -0.46758 -1.50504 0
M  V30 3293 C 319.032 0.0874114 -2.04213 0
M  V30 3294 C 319.396 1.37301 -1.34211 0
M  V30 3295 O 320.597 2.01015 -1.78456 0
M  V30 3296 C 318.868 0.270571 -3.56374 0
M  V30 3297 S 320.427 0.784623 -4.31728 0
M  V30 3298 H 317.245 0.0176153 -0.710782 0
M  V30 3299 H 319.847 -0.633915 -1.84937 0
M  V30 3300 H 318.551 -0.670942 -4.04878 0
M  V30 3301 H 318.082 1.01811 -3.79997 0
M  V30 3302 H 320.097 2.05849 -4.51487 0
M  V30 3303 N 319.27 1.56325 -0.20005 0
M  V30 3304 C 320.5 2.01811 0.442232 0
M  V30 3305 C 320.908 1.07932 1.55394 0
M  V30 3306 O 320.251 0.0772685 1.83537 0
M  V30 3307 C 320.313 3.43685 1.05457 0
M  V30 3308 C 319.977 4.56928 0.0809833 0
M  V30 3309 C 320.974 5.15009 -0.711471 0
M  V30 3310 C 318.659 5.0229 -0.0315364 0
M  V30 3311 C 320.653 6.16904 -1.60336 0
M  V30 3312 C 318.34 6.04028 -0.926981 0
M  V30 3313 C 319.338 6.6121 -1.71146 0
M  V30 3314 O 319.026 7.60971 -2.59189 0
M  V30 3315 H 318.758 0.666173 0.114848 0
M  V30 3316 H 321.312 2.03085 -0.307511 0
M  V30 3317 H 319.542 3.39413 1.85299 0
M  V30 3318 H 321.231 3.72948 1.60201 0
M  V30 3319 H 321.997 4.80827 -0.634873 0
M  V30 3320 H 317.876 4.57476 0.568902 0
M  V30 3321 H 321.42 6.61464 -2.21611 0
M  V30 3322 H 317.317 6.37634 -1.00468 0
M  V30 3323 H 318.085 7.7841 -2.53023 0
M  V30 3324 N 320.748 -0.0735177 1.57428 0
M  V30 3325 C 321.973 -0.789787 1.91774 0
M  V30 3326 C 322.398 -1.70413 0.796306 0
M  V30 3327 O 321.756 -1.79555 -0.250961 0
M  V30 3328 C 321.804 -1.5609 3.25067 0
M  V30 3329 O 320.908 -2.67144 3.14178 0
M  V30 3330 H 320.249 -0.215582 0.628029 0
M  V30 3331 H 322.779 -0.0422781 2.04556 0
M  V30 3332 H 322.789 -1.94052 3.58898 0
M  V30 3333 H 321.464 -0.890015 4.06265 0
M  V30 3334 H 320.041 -2.32052 2.91901 0
M  V30 3335 N 322.226 -1.5378 -0.344866 0
M  V30 3336 C 323.466 -1.72677 -1.09371 0
M  V30 3337 C 323.83 -0.479084 -1.85927 0
M  V30 3338 O 325.031 -0.54505 -2.63216 0
M  V30 3339 C 323.302 -2.95457 -2.01097 0
M  V30 3340 S 324.861 -3.35158 -2.83222 0
M  V30 3341 H 321.679 -0.607402 -0.369573 0
M  V30 3342 H 324.281 -1.91922 -0.372307 0
M  V30 3343 H 322.985 -3.84437 -1.43655 0
M  V30 3344 H 322.516 -2.78673 -2.77678 0
M  V30 3345 H 324.531 -2.88789 -4.03504 0
M  V30 3346 N 323.704 0.605807 -1.45491 0
M  V30 3347 C 324.651 1.7164 -1.54299 0
M  V30 3348 C 325.621 1.61486 -0.388761 0
M  V30 3349 O 326.806 1.81039 -0.602445 0
M  V30 3350 C 323.946 3.09953 -1.51734 0
M  V30 3351 C 323.059 3.309 -2.77721 0
M  V30 3352 C 322.194 4.59329 -2.66816 0
M  V30 3353 C 321.233 4.7354 -3.87848 0
M  V30 3354 N 320.37 5.9327 -3.75467 0
M  V30 3355 H 325.21 1.63449 -2.49176 0
M  V30 3356 H 322.747 0.796957 -1.23641 0
M  V30 3357 H 324.705 3.89977 -1.48235 0
M  V30 3358 H 323.335 3.17098 -0.604068 0
M  V30 3359 H 322.387 2.44639 -2.913 0
M  V30 3360 H 323.699 3.37274 -3.67488 0
M  V30 3361 H 322.853 5.4755 -2.61292 0
M  V30 3362 H 321.592 4.55355 -1.74651 0
M  V30 3363 H 320.597 3.83741 -3.93729 0
M  V30 3364 H 321.822 4.79309 -4.81082 0
M  V30 3365 H 319.768 5.90338 -2.86072 0
M  V30 3366 H 319.685 6.00811 -4.5887 0
M  V30 3367 H 320.953 6.83984 -3.73879 0
M  V30 3368 N 325.182 1.32811 0.848464 0
M  V30 3369 C 326.43 1.23479 1.59991 0
M  V30 3370 C 326.751 -0.201853 1.93952 0
M  V30 3371 O 326.021 -1.12818 1.60153 0
M  V30 3372 H 324.601 0.454034 0.593179 0
M  V30 3373 H 327.263 1.66412 1.01455 0
M  V30 3374 H 326.359 1.82178 2.53412 0
M  V30 3375 N 326.66 -1.06551 1.16123 0
M  V30 3376 C 327.608 -2.16063 0.861371 0
M  V30 3377 C 328.602 -1.6856 -0.168517 0
M  V30 3378 O 329.808 -1.79986 -0.0227579 0
M  V30 3379 H 326.183 -0.705278 0.260934 0
M  V30 3380 H 328.154 -2.38567 1.79244 0
M  V30 3381 C 326.903 -3.45661 0.376018 0
M  V30 3382 H 326.226 -3.82604 1.15992 0
M  V30 3383 H 327.666 -4.23504 0.204951 0
M  V30 3384 C 326.125 -3.24546 -0.903954 0
M  V30 3385 O 326.655 -3.49865 -1.97377 0
M  V30 3386 N 324.861 -2.77992 -0.846679 0
M  V30 3387 H 324.408 -2.57589 0.0241017 0
M  V30 3388 H 324.366 -2.64244 -1.70359 0
M  V30 3389 N 328.138 -0.959301 -1.25041 0
M  V30 3390 C 329.363 -0.633507 -1.97488 0
M  V30 3391 C 329.788 0.788555 -1.70773 0
M  V30 3392 O 329.146 1.53394 -0.966431 0
M  V30 3393 C 329.194 -0.904057 -3.49083 0
M  V30 3394 O 328.298 0.0147939 -4.12397 0
M  V30 3395 H 327.639 -0.240368 -0.618966 0
M  V30 3396 H 330.169 -1.28717 -1.59038 0
M  V30 3397 H 330.179 -0.832203 -3.99423 0
M  V30 3398 H 328.854 -1.94048 -3.67856 0
M  V30 3399 H 327.431 -0.109664 -3.72739 0
M  V30 3400 N 329.616 1.39756 -0.72842 0
M  V30 3401 C 330.844 2.04948 -0.283528 0
M  V30 3402 C 331.259 1.54908 1.0793 0
M  V30 3403 O 330.616 0.711135 1.68075 0
M  V30 3404 C 330.667 3.60498 -0.268957 0
M  V30 3405 O 330.388 4.08695 -1.57798 0
M  V30 3406 C 331.889 4.4288 0.192912 0
M  V30 3407 H 329.109 0.659243 -0.125056 0
M  V30 3408 H 331.653 1.78927 -0.990226 0
M  V30 3409 H 329.808 3.85444 0.388801 0
M  V30 3410 H 330.222 5.02977 -1.48709 0
M  V30 3411 H 331.696 5.51791 0.151952 0
M  V30 3412 H 332.173 4.21418 1.23708 0
M  V30 3413 H 332.779 4.23069 -0.435039 0
M  V30 3414 N 331.094 0.475555 1.50254 0
M  V30 3415 C 332.044 -0.335025 2.25525 0
M  V30 3416 C 333.028 -0.957625 1.29299 0
M  V30 3417 O 334.22 -0.869436 1.54175 0
M  V30 3418 C 331.349 -1.41385 3.12834 0
M  V30 3419 C 330.435 -0.798762 4.1651 0
M  V30 3420 N 330.826 0.0835815 5.05731 0
M  V30 3421 C 329.124 -1.06221 4.33166 0
M  V30 3422 C 329.825 0.433113 5.80085 0
M  V30 3423 N 328.801 -0.1928 5.43258 0
M  V30 3424 H 332.603 0.344612 2.91873 0
M  V30 3425 H 330.117 0.289986 1.5979 0
M  V30 3426 H 332.114 -2.00777 3.65368 0
M  V30 3427 H 330.774 -2.09543 2.48036 0
M  V30 3428 H 331.785 0.452715 5.15918 0
M  V30 3429 H 328.462 -1.73844 3.79585 0
M  V30 3430 H 329.852 1.15346 6.61925 0
M  V30 3431 N 332.573 -1.56217 0.208337 0
M  V30 3432 C 333.821 -1.97558 -0.426076 0
M  V30 3433 C 334.142 -1.09683 -1.61229 0
M  V30 3434 O 333.412 -0.170956 -1.95153 0
M  V30 3435 H 331.992 -0.729575 -0.160405 0
M  V30 3436 H 334.654 -1.92606 0.298155 0
M  V30 3437 H 333.75 -3.02672 -0.761312 0
M  V30 3438 N 334.051 0.0651679 -1.57465 0
M  V30 3439 C 335.291 0.768329 -1.8941 0
M  V30 3440 C 335.655 1.74406 -0.802894 0
M  V30 3441 O 336.856 2.49281 -1.0056 0
M  V30 3442 C 335.127 1.45199 -3.26576 0
M  V30 3443 S 336.686 2.1893 -3.80283 0
M  V30 3444 H 333.504 0.255359 -0.663561 0
M  V30 3445 H 336.106 0.024167 -1.95485 0
M  V30 3446 H 334.81 0.728123 -4.03889 0
M  V30 3447 H 334.341 2.23545 -3.23715 0
M  V30 3448 H 336.356 3.45551 -3.56102 0
M  V30 3449 N 335.529 1.53961 0.336706 0
M  V30 3450 C 336.754 1.75797 1.10046 0
M  V30 3451 C 337.179 0.498985 1.81361 0
M  V30 3452 O 336.537 -0.548769 1.72795 0
M  V30 3453 C 336.585 2.94257 2.08436 0
M  V30 3454 O 335.689 2.64883 3.16087 0
M  V30 3455 H 335.03 0.582936 0.317934 0
M  V30 3456 H 337.56 2.00945 0.38501 0
M  V30 3457 H 337.57 3.21237 2.51537 0
M  V30 3458 H 336.245 3.85564 1.55927 0
M  V30 3459 H 334.822 2.48812 2.77753 0
M  V30 3460 N 337.007 -0.598083 1.45811 0
M  V30 3461 C 338.232 -1.3881 1.54099 0
M  V30 3462 C 338.657 -1.8726 0.177578 0
M  V30 3463 O 338.015 -1.6069 -0.839541 0
M  V30 3464 C 338.063 -2.56217 2.53743 0
M  V30 3465 O 337.167 -3.5716 2.06182 0
M  V30 3466 H 336.508 -0.414024 0.519115 0
M  V30 3467 H 339.038 -0.726971 1.91249 0
M  V30 3468 H 339.048 -3.03337 2.72856 0
M  V30 3469 H 337.723 -2.20303 3.5276 0
M  V30 3470 H 336.3 -3.16624 1.96987 0
M  V30 3471 N 338.485 -1.33259 -0.841409 0
M  V30 3472 C 339.395 -1.25332 -1.98316 0
M  V30 3473 C 340.411 -0.164364 -1.73222 0
M  V30 3474 O 341.587 -0.387486 -1.97637 0
M  V30 3475 C 338.652 -0.990078 -3.32262 0
M  V30 3476 C 337.713 -2.16879 -3.70489 0
M  V30 3477 C 336.946 -1.91801 -4.98044 0
M  V30 3478 O 337.169 -0.867075 -5.63771 0
M  V30 3479 O 336.103 -2.78267 -5.33714 0
M  V30 3480 H 339.929 -2.21344 -2.07944 0
M  V30 3481 H 337.514 -1.1328 -0.974058 0
M  V30 3482 H 339.396 -0.860321 -4.12524 0
M  V30 3483 H 338.071 -0.0602155 -3.23644 0
M  V30 3484 H 336.978 -2.35407 -2.90748 0
M  V30 3485 H 338.311 -3.0819 -3.8377 0
M  V30 3486 N 339.963 1.05934 -1.16686 0
M  V30 3487 C 340.873 2.17014 -0.891183 0
M  V30 3488 C 341.889 1.73453 0.137907 0
M  V30 3489 O 343.065 2.01361 -0.039592 0
M  V30 3490 C 340.13 3.44384 -0.400099 0
M  V30 3491 C 339.191 4.02433 -1.49486 0
M  V30 3492 C 338.424 5.23723 -1.02711 0
M  V30 3493 O 338.647 5.7027 0.121716 0
M  V30 3494 O 337.581 5.7382 -1.81699 0
M  V30 3495 H 341.407 2.43113 -1.82015 0
M  V30 3496 H 338.992 1.15541 -0.947132 0
M  V30 3497 H 340.874 4.21189 -0.133392 0
M  V30 3498 H 339.549 3.19802 0.500817 0
M  V30 3499 H 338.456 3.27102 -1.81535 0
M  V30 3500 H 339.789 4.31317 -2.37121 0
M  V30 3501 N 341.441 0.965919 1.2453 0
M  V30 3502 C 342.669 0.644385 1.96609 0
M  V30 3503 C 343.084 -0.785823 1.71669 0
M  V30 3504 O 342.441 -1.52703 0.999399 0
M  V30 3505 C 342.492 0.907375 3.49927 0
M  V30 3506 O 342.213 2.28136 3.74013 0
M  V30 3507 C 343.714 0.599784 4.39224 0
M  V30 3508 H 340.934 0.240588 0.626385 0
M  V30 3509 H 343.478 1.29337 1.58405 0
M  V30 3510 H 341.633 0.304631 3.862 0
M  V30 3511 H 342.047 2.36002 4.68405 0
M  V30 3512 H 343.521 0.834263 5.45659 0
M  V30 3513 H 343.998 -0.465921 4.36722 0
M  V30 3514 H 344.604 1.18235 4.08535 0
M  V30 3515 N 342.919 -1.39368 0.735821 0
M  V30 3516 C 344.166 -2.00497 0.284123 0
M  V30 3517 C 344.494 -1.58387 -1.12889 0
M  V30 3518 O 343.749 -0.804359 -1.78406 0
M  V30 3519 C 344.048 -3.5583 0.334651 0
M  V30 3520 C 343.714 -4.17593 1.7008 0
M  V30 3521 C 342.376 -4.34176 2.07472 0
M  V30 3522 C 344.728 -4.51848 2.59775 0
M  V30 3523 C 342.056 -4.82304 3.34065 0
M  V30 3524 C 344.408 -5.01384 3.85741 0
M  V30 3525 C 343.072 -5.16175 4.23225 0
M  V30 3526 H 342.342 -0.73367 0.103968 0
M  V30 3527 H 344.989 -1.66683 0.942825 0
M  V30 3528 H 343.294 -3.89674 -0.407625 0
M  V30 3529 H 344.991 -4.00986 -0.0329927 0
M  V30 3530 H 341.581 -4.05087 1.40008 0
M  V30 3531 H 345.765 -4.38653 2.32157 0
M  V30 3532 H 341.021 -4.91941 3.63049 0
M  V30 3533 H 345.195 -5.26863 4.55399 0
M  V30 3534 H 342.822 -5.5323 5.21384 0
M  V30 3535 N 344.397 -0.483516 -1.5 0
M  V30 3536 C 345.327 0.293829 -2.31644 0
M  V30 3537 C 346.308 0.978864 -1.39112 0
M  V30 3538 O 347.493 0.973644 -1.68029 0
M  V30 3539 C 344.623 1.36897 -3.19181 0
M  V30 3540 C 343.577 0.804833 -4.20365 0
M  V30 3541 C 342.903 1.9792 -4.96721 0
M  V30 3542 C 344.203 -0.192313 -5.21946 0
M  V30 3543 H 345.897 -0.387616 -2.9688 0
M  V30 3544 H 343.443 -0.187856 -1.42769 0
M  V30 3545 H 345.396 1.92037 -3.751 0
M  V30 3546 H 344.12 2.07936 -2.51853 0
M  V30 3547 H 342.779 0.275319 -3.65565 0
M  V30 3548 H 342.427 2.67686 -4.25856 0
M  V30 3549 H 342.127 1.60789 -5.65173 0
M  V30 3550 H 343.651 2.53526 -5.55479 0
M  V30 3551 H 345.065 0.270333 -5.72662 0
M  V30 3552 H 343.462 -0.478543 -5.98189 0
M  V30 3553 H 344.532 -1.11409 -4.71928 0
M  V30 3554 N 345.875 1.56104 -0.216619 0
M  V30 3555 C 347.124 1.97348 0.416744 0
M  V30 3556 C 347.437 1.10715 1.6125 0
M  V30 3557 O 348.643 1.41836 2.31506 0
M  V30 3558 C 347.099 3.51059 0.792835 0
M  V30 3559 C 346.707 4.46387 -0.379828 0
M  V30 3560 C 348.451 4.01026 1.39208 0
M  V30 3561 C 346.358 5.91397 0.0184223 0
M  V30 3562 H 345.288 0.736942 0.159475 0
M  V30 3563 H 347.939 1.80827 -0.31205 0
M  V30 3564 H 346.321 3.63162 1.57891 0
M  V30 3565 H 347.495 4.46029 -1.15737 0
M  V30 3566 H 345.81 4.06734 -0.891979 0
M  V30 3567 H 348.407 5.0686 1.70286 0
M  V30 3568 H 348.75 3.46587 2.30614 0
M  V30 3569 H 349.283 3.92125 0.669537 0
M  V30 3570 H 346.022 6.49807 -0.862002 0
M  V30 3571 H 345.542 5.94961 0.760384 0
M  V30 3572 H 347.221 6.45455 0.446818 0
M  V30 3573 N 347.353 -0.0568162 1.57498 0
M  V30 3574 C 348.63 -0.786954 1.79071 0
M  V30 3575 C 349.01 -1.95028 0.80792 0
M  V30 3576 O 348.358 -2.27968 -0.155858 0
M  V30 3577 C 348.568 -1.24594 3.26002 0
M  V30 3578 C 349.916 -1.67323 3.90241 0
M  V30 3579 O 350.94 -1.34124 3.29984 0
M  V30 3580 O 349.799 -2.28842 4.9628 0
M  V30 3581 H 346.893 -0.378262 0.735423 0
M  V30 3582 H 349.439 -0.035734 1.69662 0
M  V30 3583 H 348.211 -0.41423 3.89101 0
M  V30 3584 H 347.834 -2.05803 3.40192 0
M  V30 3585 N 348.832 -1.54138 -0.328536 0
M  V30 3586 C 350.072 -1.73827 -1.07534 0
M  V30 3587 C 350.436 -0.498777 -1.85408 0
M  V30 3588 O 351.637 -0.572937 -2.62623 0
M  V30 3589 C 349.908 -2.97573 -1.97952 0
M  V30 3590 S 351.467 -3.38143 -2.79652 0
M  V30 3591 H 348.285 -0.611287 -0.36311 0
M  V30 3592 H 350.887 -1.92306 -0.351931 0
M  V30 3593 H 349.591 -3.85939 -1.39569 0
M  V30 3594 H 349.122 -2.81603 -2.74706 0
M  V30 3595 H 351.137 -2.93052 -4.00418 0
M  V30 3596 N 350.31 0.590341 -1.46126 0
M  V30 3597 C 351.726 0.912917 -1.30912 0
M  V30 3598 C 351.926 1.99616 -0.274893 0
M  V30 3599 O 350.982 2.50397 0.325197 0
M  V30 3600 C 352.295 1.3375 -2.69317 0
M  V30 3601 C 353.843 1.45077 -2.77348 0
M  V30 3602 C 354.318 1.90904 -4.16317 0
M  V30 3603 N 355.809 1.9811 -4.18696 0
M  V30 3604 C 356.544 2.34828 -5.23109 0
M  V30 3605 N 356.04 2.70393 -6.37856 0
M  V30 3606 N 357.833 2.35317 -5.10473 0
M  V30 3607 H 349.984 -0.125358 -2.1203 0
M  V30 3608 H 352.247 0.00658481 -0.947977 0
M  V30 3609 H 351.953 0.615614 -3.4627 0
M  V30 3610 H 351.827 2.30058 -2.9892 0
M  V30 3611 H 354.214 2.16353 -2.00687 0
M  V30 3612 H 354.295 0.4704 -2.51438 0
M  V30 3613 H 353.939 1.20209 -4.9347 0
M  V30 3614 H 353.869 2.89886 -4.39629 0
M  V30 3615 H 356.36 1.73146 -3.359 0
M  V30 3616 H 356.673 2.97341 -7.13308 0
M  V30 3617 H 355.018 2.68048 -6.41229 0
M  V30 3618 H 358.209 2.0695 -4.19868 0
M  V30 3619 H 358.382 2.63605 -5.9196 0
M  V30 3620 N 351.788 1.33704 0.83433 0
M  V30 3621 C 353.036 1.25169 1.58673 0
M  V30 3622 C 353.357 -0.18127 1.94156 0
M  V30 3623 O 352.627 -1.11113 1.6134 0
M  V30 3624 H 351.207 0.4603 0.58833 0
M  V30 3625 H 353.869 1.67478 0.996847 0
M  V30 3626 H 352.965 1.84856 2.51465 0
M  V30 3627 N 353.266 -1.05314 1.17247 0
M  V30 3628 C 354.677 -1.59753 0.96623 0
M  V30 3629 C 355.028 -1.9005 -0.487378 0
M  V30 3630 O 354.153 -1.68126 -1.36245 0
M  V30 3631 C 354.748 -2.90249 1.74759 0
M  V30 3632 C 353.307 -3.41352 1.58606 0
M  V30 3633 C 352.454 -2.15103 1.75002 0
M  V30 3634 H 355.405 -0.881406 1.31973 0
M  V30 3635 H 355.426 -3.60097 1.22925 0
M  V30 3636 H 354.938 -2.68166 2.8055 0
M  V30 3637 H 353.039 -3.68474 0.552985 0
M  V30 3638 H 353.152 -4.16019 2.37624 0
M  V30 3639 H 351.516 -2.25804 1.17833 0
M  V30 3640 H 352.299 -1.95491 2.82202 0
M  V30 3641 N 354.744 -0.972509 -1.24016 0
M  V30 3642 C 355.677 -0.45117 -2.23696 0
M  V30 3643 C 356.655 0.477378 -1.55434 0
M  V30 3644 O 357.839 0.407647 -1.84039 0
M  V30 3645 C 354.966 0.34818 -3.36906 0
M  V30 3646 C 354.012 -0.523355 -4.23277 0
M  V30 3647 S 354.845 -1.96647 -4.98087 0
M  V30 3648 C 356.001 -1.17604 -6.14752 0
M  V30 3649 H 356.234 -1.29588 -2.67571 0
M  V30 3650 H 353.767 -0.777903 -1.33372 0
M  V30 3651 H 355.725 0.803387 -4.02562 0
M  V30 3652 H 354.386 1.16792 -2.91579 0
M  V30 3653 H 353.579 0.0906181 -5.03919 0
M  V30 3654 H 353.181 -0.914485 -3.62647 0
M  V30 3655 H 355.473 -0.433434 -6.76112 0
M  V30 3656 H 356.416 -1.95701 -6.8052 0
M  V30 3657 H 356.824 -0.698295 -5.60164 0
M  V30 3658 N 356.222 1.38976 -0.743202 0
M  V30 3659 C 357.17 2.32394 -0.0978389 0
M  V30 3660 C 358.164 1.53486 0.716824 0
M  V30 3661 O 359.37 1.69092 0.617088 0
M  V30 3662 H 355.745 0.75189 -0.0128402 0
M  V30 3663 H 357.716 2.84441 -0.901981 0
M  V30 3664 C 356.465 3.38629 0.789036 0
M  V30 3665 H 355.788 3.99432 0.171559 0
M  V30 3666 H 357.228 4.06426 1.20807 0
M  V30 3667 C 355.687 2.76347 1.92702 0
M  V30 3668 O 356.217 2.64836 3.02034 0
M  V30 3669 N 354.423 2.34311 1.71891 0
M  V30 3670 H 353.97 2.43873 0.829675 0
M  V30 3671 H 353.928 1.9298 2.48205 0
M  V30 3672 N 357.7 0.491464 1.49741 0
M  V30 3673 C 358.632 -0.328609 2.26832 0
M  V30 3674 C 359.645 -0.939113 1.32983 0
M  V30 3675 O 360.834 -0.824067 1.58339 0
M  V30 3676 C 357.934 -1.47675 3.05033 0
M  V30 3677 C 357.107 -0.975305 4.26388 0
M  V30 3678 C 356.166 -1.99991 4.86714 0
M  V30 3679 O 355.192 -1.57229 5.47054 0
M  V30 3680 N 356.394 -3.32962 4.75517 0
M  V30 3681 H 359.159 0.332377 2.97851 0
M  V30 3682 H 356.72 0.323441 1.58636 0
M  V30 3683 H 358.712 -2.15954 3.42266 0
M  V30 3684 H 357.282 -2.04206 2.36683 0
M  V30 3685 H 356.502 -0.117723 3.94024 0
M  V30 3686 H 357.79 -0.618531 5.05026 0
M  V30 3687 H 357.188 -3.70399 4.27576 0
M  V30 3688 H 355.745 -3.96982 5.16961 0
M  V30 3689 N 359.178 -1.55987 0.224894 0
M  V30 3690 C 360.418 -2.00293 -0.407706 0
M  V30 3691 C 360.782 -1.1093 -1.56711 0
M  V30 3692 O 361.983 -1.44597 -2.26595 0
M  V30 3693 C 360.254 -3.47675 -0.82805 0
M  V30 3694 S 361.813 -4.14 -1.45429 0
M  V30 3695 H 358.631 -0.699152 -0.129256 0
M  V30 3696 H 361.233 -1.92609 0.334967 0
M  V30 3697 H 359.937 -4.10392 0.0253964 0
M  V30 3698 H 359.468 -3.59239 -1.60345 0
M  V30 3699 H 361.483 -4.13465 -2.74337 0
M  V30 3700 N 360.656 0.0484629 -1.57525 0
M  V30 3701 C 361.586 1.0549 -2.08313 0
M  V30 3702 C 362.567 1.38929 -0.981463 0
M  V30 3703 O 363.752 1.48151 -1.25558 0
M  V30 3704 C 360.882 2.36162 -2.54646 0
M  V30 3705 C 359.836 2.17016 -3.68901 0
M  V30 3706 C 359.162 3.53278 -4.01371 0
M  V30 3707 C 360.462 1.57219 -4.98076 0
M  V30 3708 H 362.156 0.632195 -2.92649 0
M  V30 3709 H 359.702 0.302654 -1.40784 0
M  V30 3710 H 361.655 3.06882 -2.88793 0
M  V30 3711 H 360.379 2.80456 -1.67368 0
M  V30 3712 H 359.038 1.48733 -3.35073 0
M  V30 3713 H 358.686 3.95185 -3.11188 0
M  V30 3714 H 358.386 3.41299 -4.78318 0
M  V30 3715 H 359.91 4.25391 -4.38035 0
M  V30 3716 H 361.324 2.17832 -5.30304 0
M  V30 3717 H 359.721 1.55871 -5.79503 0
M  V30 3718 H 360.791 0.535956 -4.81929 0
M  V30 3719 N 362.134 1.5431 0.320358 0
M  V30 3720 C 363.38 1.72924 1.05949 0
M  V30 3721 C 363.713 0.503185 1.87568 0
M  V30 3722 O 362.988 -0.499839 1.87968 0
M  V30 3723 C 363.271 3.00676 1.98156 0
M  V30 3724 C 363.124 4.3354 1.19845 0
M  V30 3725 C 364.443 3.24198 2.9763 0
M  V30 3726 H 361.562 0.629195 0.383774 0
M  V30 3727 H 364.204 1.87008 0.335854 0
M  V30 3728 H 362.354 2.888 2.59859 0
M  V30 3729 H 364.026 4.57305 0.605773 0
M  V30 3730 H 362.269 4.309 0.500784 0
M  V30 3731 H 362.94 5.19156 1.87567 0
M  V30 3732 H 365.416 3.35557 2.4605 0
M  V30 3733 H 364.292 4.14938 3.59329 0
M  V30 3734 H 364.553 2.41577 3.7026 0
M  V30 3735 N 363.613 -0.582584 1.46437 0
M  V30 3736 C 364.576 -1.67366 1.56592 0
M  V30 3737 C 365.576 -1.54575 0.443072 0
M  V30 3738 O 366.766 -1.59191 0.707381 0
M  V30 3739 C 363.898 -3.06791 1.48634 0
M  V30 3740 H 365.091 -1.5972 2.5383 0
M  V30 3741 H 362.644 -0.800432 1.34249 0
M  V30 3742 H 363.379 -3.19993 0.526763 0
M  V30 3743 H 363.164 -3.17484 2.30101 0
M  V30 3744 H 364.654 -3.86218 1.58826 0
M  V30 3745 N 365.091 -1.34144 -0.827227 0
M  V30 3746 C 366.319 -1.29325 -1.61501 0
M  V30 3747 C 366.734 0.13354 -1.88327 0
M  V30 3748 O 366.091 1.0793 -1.47164 0
M  V30 3749 C 366.142 -2.07746 -2.95844 0
M  V30 3750 O 365.863 -3.4486 -2.70191 0
M  V30 3751 C 367.364 -2.10273 -3.90256 0
M  V30 3752 H 364.584 -0.445069 -0.50215 0
M  V30 3753 H 367.128 -1.76693 -1.02955 0
M  V30 3754 H 365.283 -1.6403 -3.5096 0
M  V30 3755 H 365.697 -3.85345 -3.55822 0
M  V30 3756 H 367.171 -2.69575 -4.81698 0
M  V30 3757 H 367.648 -1.096 -4.25305 0
M  V30 3758 H 368.254 -2.54059 -3.41078 0
M  V30 3759 N 366.569 1.04691 -1.17803 0
M  V30 3760 C 367.817 1.7743 -0.967617 0
M  V30 3761 C 368.138 1.88359 0.504574 0
M  V30 3762 O 367.408 1.40402 1.36617 0
M  V30 3763 H 365.988 0.657242 -0.355024 0
M  V30 3764 H 368.65 1.2638 -1.48371 0
M  V30 3765 H 367.746 2.78924 -1.40027 0
M  V30 3766 N 368.047 0.979072 1.23499 0
M  V30 3767 C 369.275 0.665202 1.95915 0
M  V30 3768 C 369.69 -0.767571 1.72493 0
M  V30 3769 O 369.047 -1.51635 1.01554 0
M  V30 3770 C 369.098 0.944438 3.48945 0
M  V30 3771 O 368.819 2.3209 3.71572 0
M  V30 3772 C 370.32 0.646336 4.38563 0
M  V30 3773 H 367.54 0.247218 0.623798 0
M  V30 3774 H 370.084 1.31009 1.57025 0
M  V30 3775 H 368.239 0.345575 3.85856 0
M  V30 3776 H 368.653 2.40957 4.65876 0
M  V30 3777 H 370.127 0.892091 5.44744 0
M  V30 3778 H 370.604 -0.419575 4.37191 0
M  V30 3779 H 371.21 1.22562 4.07258 0
M  V30 3780 N 369.525 -1.3858 0.750561 0
M  V30 3781 C 370.475 -2.27795 0.0965949 0
M  V30 3782 C 371.459 -1.45048 -0.696411 0
M  V30 3783 O 372.651 -1.67812 -0.562863 0
M  V30 3784 C 369.78 -3.33894 -0.798085 0
M  V30 3785 C 368.866 -4.241 0.0016067 0
M  V30 3786 N 369.257 -4.95067 1.03647 0
M  V30 3787 C 367.555 -4.45429 -0.225674 0
M  V30 3788 C 368.256 -5.61489 1.52004 0
M  V30 3789 N 367.232 -5.37135 0.835874 0
M  V30 3790 H 371.034 -2.80125 0.889228 0
M  V30 3791 H 368.548 -1.51446 0.586323 0
M  V30 3792 H 370.545 -3.96693 -1.28219 0
M  V30 3793 H 369.205 -2.83123 -1.5897 0
M  V30 3794 H 370.216 -4.98104 1.41819 0
M  V30 3795 H 366.893 -4.05571 -0.990872 0
M  V30 3796 H 368.283 -6.28264 2.38188 0
M  V30 3797 N 371.003 -0.499398 -1.49478 0
M  V30 3798 C 371.913 0.284489 -2.32869 0
M  V30 3799 C 372.929 0.968885 -1.44529 0
M  V30 3800 O 374.105 0.95062 -1.77553 0
M  V30 3801 C 371.17 1.33594 -3.19928 0
M  V30 3802 C 370.231 0.665149 -4.24116 0
M  V30 3803 C 369.464 1.6665 -5.07014 0
M  V30 3804 O 369.687 2.89618 -4.91404 0
M  V30 3805 O 368.621 1.22271 -5.8935 0
M  V30 3806 H 372.447 -0.39802 -3.01081 0
M  V30 3807 H 370.032 -0.260758 -1.47107 0
M  V30 3808 H 371.914 1.94431 -3.73864 0
M  V30 3809 H 370.589 2.0014 -2.54412 0
M  V30 3810 H 369.496 0.0170769 -3.74096 0
M  V30 3811 H 370.829 0.0421555 -4.92182 0
M  V30 3812 N 372.481 1.55866 -0.233164 0
M  V30 3813 C 373.892 1.847 0.272554 0
M  V30 3814 C 374.243 1.15477 1.58617 0
M  V30 3815 O 373.368 0.42841 2.12117 0
M  V30 3816 C 373.963 3.35071 0.501299 0
M  V30 3817 C 372.522 3.6418 0.951304 0
M  V30 3818 C 371.669 2.77292 0.0208209 0
M  V30 3819 H 374.62 1.52005 -0.456074 0
M  V30 3820 H 374.641 3.55906 1.34577 0
M  V30 3821 H 374.153 3.85424 -0.454936 0
M  V30 3822 H 372.254 3.19293 1.92049 0
M  V30 3823 H 372.367 4.72071 0.817675 0
M  V30 3824 H 370.731 2.49131 0.529723 0
M  V30 3825 H 371.514 3.30448 -0.93054 0
M  V30 3826 N 373.959 -0.0401083 1.57549 0
M  V30 3827 C 374.906 -1.04413 2.05831 0
M  V30 3828 C 375.876 -1.36585 0.945184 0
M  V30 3829 O 377.061 -1.47112 1.21502 0
M  V30 3830 C 374.201 -2.34336 2.53339 0
M  V30 3831 C 373.314 -2.08419 3.78398 0
M  V30 3832 C 372.449 -3.32133 4.14561 0
M  V30 3833 C 371.488 -3.01721 5.3257 0
M  V30 3834 N 370.625 -4.17855 5.64218 0
M  V30 3835 H 375.465 -0.625442 2.91363 0
M  V30 3836 H 373.002 -0.297218 1.44066 0
M  V30 3837 H 374.96 -3.10234 2.78946 0
M  V30 3838 H 373.59 -2.73948 1.7074 0
M  V30 3839 H 372.642 -1.23069 3.59942 0
M  V30 3840 H 373.954 -1.81978 4.64419 0
M  V30 3841 H 373.108 -4.16406 4.41238 0
M  V30 3842 H 371.847 -3.61678 3.2717 0
M  V30 3843 H 370.852 -2.15849 5.05657 0
M  V30 3844 H 372.077 -2.73466 6.21605 0
M  V30 3845 H 370.023 -4.47372 4.79786 0
M  V30 3846 H 369.94 -3.94798 6.44725 0
M  V30 3847 H 371.208 -5.03033 5.95465 0
M  V30 3848 N 375.437 -1.54477 -0.31217 0
M  V30 3849 C 376.385 -1.85395 -1.40469 0
M  V30 3850 C 377.379 -0.726749 -1.53019 0
M  V30 3851 O 378.585 -0.910582 -1.55269 0
M  V30 3852 H 374.96 -0.587845 -0.46898 0
M  V30 3853 H 376.931 -2.76736 -1.11623 0
M  V30 3854 C 375.68 -2.10811 -2.76503 0
M  V30 3855 H 375.003 -2.97014 -2.67625 0
M  V30 3856 H 376.443 -2.3639 -3.51988 0
M  V30 3857 C 374.902 -0.903165 -3.24568 0
M  V30 3858 O 375.432 -0.118085 -4.01526 0
M  V30 3859 N 373.638 -0.711634 -2.81752 0
M  V30 3860 H 373.185 -1.35171 -2.19286 0
M  V30 3861 H 373.143 0.0930473 -3.14262 0
M  V30 3862 N 376.915 0.57481 -1.46744 0
M  V30 3863 C 377.847 1.69804 -1.53946 0
M  V30 3864 C 378.86 1.57098 -0.427106 0
M  V30 3865 O 380.049 1.64378 -0.695863 0
M  V30 3866 C 377.149 3.08125 -1.4111 0
M  V30 3867 C 376.322 3.46757 -2.66605 0
M  V30 3868 C 375.381 4.6417 -2.47855 0
M  V30 3869 O 374.407 4.69634 -3.21609 0
M  V30 3870 N 375.609 5.59553 -1.54534 0
M  V30 3871 H 378.374 1.64077 -2.50796 0
M  V30 3872 H 375.935 0.761 -1.429 0
M  V30 3873 H 377.927 3.84478 -1.26328 0
M  V30 3874 H 376.497 3.08175 -0.524109 0
M  V30 3875 H 375.717 2.6003 -2.96274 0
M  V30 3876 H 377.005 3.69337 -3.49954 0
M  V30 3877 H 376.403 5.57881 -0.937304 0
M  V30 3878 H 374.96 6.35304 -1.45711 0
M  V30 3879 N 378.394 1.34581 0.820102 0
M  V30 3880 C 379.619 1.30333 1.61332 0
M  V30 3881 C 380.044 -0.119339 1.87721 0
M  V30 3882 O 379.402 -1.08197 1.45475 0
M  V30 3883 C 379.45 2.10258 2.92957 0
M  V30 3884 O 378.554 1.47404 3.85157 0
M  V30 3885 H 377.895 0.447488 0.490561 0
M  V30 3886 H 380.425 1.77425 1.01889 0
M  V30 3887 H 380.435 2.21718 3.42498 0
M  V30 3888 H 379.11 3.13693 2.73074 0
M  V30 3889 H 377.687 1.44703 3.43679 0
M  V30 3890 N 379.872 -1.04064 1.18357 0
M  V30 3891 C 381.102 -1.80654 1.00238 0
M  V30 3892 C 381.51 -1.83713 -0.452362 0
M  V30 3893 O 380.853 -1.27135 -1.32599 0
M  V30 3894 C 380.915 -3.27582 1.48088 0
M  V30 3895 C 380.579 -3.48184 2.96002 0
M  V30 3896 C 381.576 -3.39372 3.93856 0
M  V30 3897 C 379.261 -3.7478 3.34433 0
M  V30 3898 C 381.255 -3.5686 5.28138 0
M  V30 3899 C 378.942 -3.91915 4.68877 0
M  V30 3900 C 379.94 -3.82956 5.65539 0
M  V30 3901 O 379.628 -3.996 6.97549 0
M  V30 3902 H 379.36 -0.575751 0.354241 0
M  V30 3903 H 381.914 -1.32044 1.57333 0
M  V30 3904 H 380.144 -3.77161 0.853588 0
M  V30 3905 H 381.833 -3.8573 1.2636 0
M  V30 3906 H 382.599 -3.18789 3.65511 0
M  V30 3907 H 378.478 -3.80852 2.59756 0
M  V30 3908 H 382.022 -3.49783 6.03571 0
M  V30 3909 H 377.919 -4.11992 4.96923 0
M  V30 3910 H 378.687 -4.1676 7.04452 0
M  V30 3911 N 381.35 -0.985608 -1.22978 0
M  V30 3912 C 382.283 -0.47487 -2.23204 0
M  V30 3913 C 383.261 0.460865 -1.55932 0
M  V30 3914 O 384.445 0.388105 -1.84461 0
M  V30 3915 C 381.572 0.312427 -3.37256 0
M  V30 3916 C 380.618 -0.568219 -4.22698 0
M  V30 3917 S 381.451 -2.01919 -4.95973 0
M  V30 3918 C 382.607 -1.24118 -6.1347 0
M  V30 3919 H 382.84 -1.32419 -2.66181 0
M  V30 3920 H 380.373 -0.792005 -1.32539 0
M  V30 3921 H 382.331 0.760645 -4.03391 0
M  V30 3922 H 380.992 1.13693 -2.92801 0
M  V30 3923 H 380.185 0.0371657 -5.03986 0
M  V30 3924 H 379.787 -0.952897 -3.61657 0
M  V30 3925 H 382.079 -0.505121 -6.75614 0
M  V30 3926 H 383.022 -2.02907 -6.78406 0
M  V30 3927 H 383.43 -0.757669 -5.59392 0
M  V30 3928 N 382.828 1.3818 -0.7579 0
M  V30 3929 C 384.074 2.00316 -0.316453 0
M  V30 3930 C 384.407 1.60026 1.10025 0
M  V30 3931 O 383.682 0.839835 1.75434 0
M  V30 3932 C 383.965 3.57349 -0.444245 0
M  V30 3933 C 383.818 4.07591 -1.90236 0
M  V30 3934 C 385.137 4.3981 0.1598 0
M  V30 3935 H 382.256 0.727741 -0.116459 0
M  V30 3936 H 384.898 1.6406 -0.958352 0
M  V30 3937 H 383.048 3.88365 0.102233 0
M  V30 3938 H 384.72 3.87199 -2.50748 0
M  V30 3939 H 382.963 3.60297 -2.41595 0
M  V30 3940 H 383.634 5.16677 -1.94291 0
M  V30 3941 H 386.11 4.14971 -0.306314 0
M  V30 3942 H 384.986 5.48885 0.0401675 0
M  V30 3943 H 385.247 4.24102 1.24859 0
M  V30 3944 N 384.306 0.507319 1.49211 0
M  V30 3945 C 385.722 0.163682 1.58758 0
M  V30 3946 C 385.922 -1.33208 1.51188 0
M  V30 3947 O 384.978 -2.10855 1.38911 0
M  V30 3948 C 386.291 0.746095 2.91297 0
M  V30 3949 C 387.839 0.712773 3.04776 0
M  V30 3950 C 388.314 1.27336 4.39943 0
M  V30 3951 N 389.805 1.23433 4.46451 0
M  V30 3952 C 390.54 1.63821 5.495 0
M  V30 3953 N 390.036 2.11832 6.5962 0
M  V30 3954 N 391.829 1.55198 5.4025 0
M  V30 3955 H 383.98 1.47972 1.52375 0
M  V30 3956 H 386.243 0.614147 0.722168 0
M  V30 3957 H 385.949 1.79534 3.02424 0
M  V30 3958 H 385.823 0.210137 3.76614 0
M  V30 3959 H 388.21 -0.327656 2.93275 0
M  V30 3960 H 388.291 1.28595 2.21127 0
M  V30 3961 H 387.935 2.3126 4.52196 0
M  V30 3962 H 387.865 0.676066 5.22242 0
M  V30 3963 H 390.356 0.882627 3.67448 0
M  V30 3964 H 390.669 2.40703 7.34358 0
M  V30 3965 H 389.014 2.1581 6.60644 0
M  V30 3966 H 392.205 1.17505 4.53112 0
M  V30 3967 H 392.378 1.86997 6.20432 0
M  V30 3968 N 385.784 -1.5574 0.241426 0
M  V30 3969 C 387.032 -1.98417 -0.384075 0
M  V30 3970 C 387.353 -1.13078 -1.58866 0
M  V30 3971 O 386.623 -0.212312 -1.94746 0
M  V30 3972 H 385.203 -0.732813 -0.144894 0
M  V30 3973 H 387.865 -1.9193 0.338943 0
M  V30 3974 H 386.961 -3.04219 -0.696939 0
M  V30 3975 N 387.262 0.0317525 -1.57568 0
M  V30 3976 C 388.502 0.727979 -1.90997 0
M  V30 3977 C 388.866 1.72664 -0.839708 0
M  V30 3978 O 390.067 2.47092 -1.05825 0
M  V30 3979 C 388.338 1.38239 -3.29583 0
M  V30 3980 S 389.897 2.10814 -3.84841 0
M  V30 3981 H 386.715 0.241226 -0.668828 0
M  V30 3982 H 389.317 -0.0173037 -1.95492 0
M  V30 3983 H 388.021 0.642288 -4.05343 0
M  V30 3984 H 387.552 2.16628 -3.28384 0
M  V30 3985 H 389.567 3.3792 -3.63352 0
M  V30 3986 N 388.74 1.54641 0.303973 0
M  V30 3987 C 389.703 1.84646 1.35789 0
M  V30 3988 C 390.703 0.7192 1.4382 0
M  V30 3989 O 391.893 0.987491 1.43507 0
M  V30 3990 C 389.025 2.02407 2.74307 0
M  V30 3991 H 390.218 2.78829 1.10429 0
M  V30 3992 H 387.771 1.46658 0.540487 0
M  V30 3993 H 388.506 1.10502 3.04893 0
M  V30 3994 H 388.291 2.84453 2.69868 0
M  V30 3995 H 389.781 2.27002 3.50514 0
M  V30 3996 N 390.218 -0.567019 1.47046 0
M  V30 3997 C 391.446 -1.35027 1.56765 0
M  V30 3998 C 391.861 -1.8758 0.214316 0
M  V30 3999 O 391.218 -1.64471 -0.790919 0
M  V30 4000 C 391.269 -2.52698 2.58507 0
M  V30 4001 O 390.99 -2.0232 3.88585 0
M  V30 4002 C 392.491 -3.45043 2.78316 0
M  V30 4003 H 389.711 -0.41195 0.529658 0
M  V30 4004 H 392.255 -0.687832 1.92585 0
M  V30 4005 H 390.41 -3.149 2.25648 0
M  V30 4006 H 390.824 -2.79068 4.44096 0
M  V30 4007 H 392.298 -4.2405 3.53391 0
M  V30 4008 H 392.775 -3.97971 1.85784 0
M  V30 4009 H 393.381 -2.88665 3.12334 0
M  V30 4010 N 391.696 -1.35014 -0.812953 0
M  V30 4011 C 392.659 -1.27292 -1.90602 0
M  V30 4012 C 393.659 -0.185817 -1.59723 0
M  V30 4013 O 394.849 -0.439102 -1.68575 0
M  V30 4014 C 391.981 -0.967676 -3.26877 0
M  V30 4015 H 393.174 -2.24479 -1.9887 0
M  V30 4016 H 390.727 -1.19446 -1.00808 0
M  V30 4017 H 391.462 0.0005954 -3.243 0
M  V30 4018 H 391.247 -1.75412 -3.50675 0
M  V30 4019 H 392.737 -0.939085 -4.06904 0
M  V30 4020 N 393.175 1.03435 -1.18907 0
M  V30 4021 C 394.4 1.80919 -1.01406 0
M  V30 4022 C 394.825 1.83055 0.432721 0
M  V30 4023 O 394.183 1.25252 1.31079 0
M  V30 4024 C 394.231 3.24091 -1.58105 0
M  V30 4025 O 393.335 4.04434 -0.806669 0
M  V30 4026 H 392.676 0.558709 -0.358803 0
M  V30 4027 H 395.206 1.30223 -1.57807 0
M  V30 4028 H 395.216 3.74853 -1.61087 0
M  V30 4029 H 393.891 3.21851 -2.6341 0
M  V30 4030 H 392.468 3.63091 -0.849666 0
M  V30 4031 N 394.653 0.992116 1.22453 0
M  V30 4032 C 395.586 0.486701 2.22949 0
M  V30 4033 C 396.564 -0.45259 1.56174 0
M  V30 4034 O 397.748 -0.378317 1.84665 0
M  V30 4035 C 394.875 -0.294537 3.37417 0
M  V30 4036 C 393.921 0.590628 4.22391 0
M  V30 4037 S 394.754 2.04546 4.94895 0
M  V30 4038 C 395.91 1.27369 6.12803 0
M  V30 4039 H 396.143 1.33828 2.65475 0
M  V30 4040 H 393.676 0.799023 1.32117 0
M  V30 4041 H 395.634 -0.739241 4.03789 0
M  V30 4042 H 394.295 -1.12139 2.934 0
M  V30 4043 H 393.488 -0.0104375 5.03999 0
M  V30 4044 H 393.09 0.972064 3.61147 0
M  V30 4045 H 395.382 0.540943 6.75337 0
M  V30 4046 H 396.325 2.06502 6.7732 0
M  V30 4047 H 396.733 0.787324 5.58983 0
M  V30 4048 N 396.131 -1.37776 0.765217 0
M  V30 4049 C 397.371 -2.01691 0.331669 0
M  V30 4050 C 397.735 -1.59432 -1.06983 0
M  V30 4051 O 398.936 -2.15761 -1.60314 0
M  V30 4052 C 397.207 -3.54385 0.463261 0
M  V30 4053 S 398.766 -4.38652 0.114011 0
M  V30 4054 H 395.584 -0.699387 0.127979 0
M  V30 4055 H 398.186 -1.68084 0.998396 0
M  V30 4056 H 396.89 -3.82629 1.48401 0
M  V30 4057 H 396.421 -3.92783 -0.220246 0
M  V30 4058 H 398.436 -4.84021 -1.09261 0
M  V30 4059 N 397.609 -0.515225 -1.4894 0
M  V30 4060 C 398.541 0.292481 -2.27326 0
M  V30 4061 C 399.554 0.917838 -1.3446 0
M  V30 4062 O 400.743 0.798772 -1.5963 0
M  V30 4063 C 397.843 1.42803 -3.07344 0
M  V30 4064 C 397.016 0.907347 -4.27885 0
M  V30 4065 C 396.075 1.92222 -4.89834 0
M  V30 4066 O 395.101 1.48506 -5.49486 0
M  V30 4067 N 396.303 3.25355 -4.80754 0
M  V30 4068 H 399.068 -0.379721 -2.97285 0
M  V30 4069 H 396.629 -0.348638 -1.58102 0
M  V30 4070 H 398.621 2.10481 -3.45658 0
M  V30 4071 H 397.191 2.00414 -2.39902 0
M  V30 4072 H 396.411 0.0550218 -3.94162 0
M  V30 4073 H 397.699 0.538108 -5.05946 0
M  V30 4074 H 397.097 3.6355 -4.33414 0
M  V30 4075 H 395.654 3.88707 -5.23211 0
M  V30 4076 N 399.087 1.5561 -0.249682 0
M  V30 4077 C 400.037 2.18157 0.662673 0
M  V30 4078 C 401.021 1.1383 1.13717 0
M  V30 4079 O 402.213 1.39731 1.08648 0
M  V30 4080 C 399.342 2.88672 1.85805 0
M  V30 4081 C 398.428 4.00258 1.40193 0
M  V30 4082 N 398.819 5.01473 0.660213 0
M  V30 4083 C 397.117 4.12864 1.68698 0
M  V30 4084 C 397.818 5.80155 0.423695 0
M  V30 4085 N 396.794 5.34533 0.988721 0
M  V30 4086 H 400.596 2.93769 0.0878688 0
M  V30 4087 H 398.11 1.62316 -0.0521183 0
M  V30 4088 H 400.107 3.31912 2.5227 0
M  V30 4089 H 398.767 2.14564 2.43705 0
M  V30 4090 H 399.778 5.16971 0.310047 0
M  V30 4091 H 396.455 3.4993 2.27717 0
M  V30 4092 H 397.845 6.71688 -0.168616 0
M  V30 4093 N 400.565 -0.0233959 1.57583 0
M  V30 4094 C 401.528 -1.00693 2.05897 0
M  V30 4095 C 402.528 -1.28693 0.964092 0
M  V30 4096 O 403.718 -1.23602 1.22753 0
M  V30 4097 C 400.85 -2.33825 2.4807 0
M  V30 4098 H 402.043 -0.589476 2.9405 0
M  V30 4099 H 399.596 -0.270354 1.53944 0
M  V30 4100 H 400.331 -2.80307 1.6309 0
M  V30 4101 H 400.116 -2.1483 3.2801 0
M  V30 4102 H 401.606 -3.04426 2.85857 0
M  V30 4103 N 402.043 -1.548 -0.295768 0
M  V30 4104 C 402.993 -1.82497 -1.3667 0
M  V30 4105 C 403.977 -0.682434 -1.45711 0
M  V30 4106 O 405.169 -0.943207 -1.49775 0
M  V30 4107 C 402.298 -2.08036 -2.73086 0
M  V30 4108 C 401.384 -3.28488 -2.68247 0
M  V30 4109 N 401.775 -4.48924 -2.33025 0
M  V30 4110 C 400.073 -3.3062 -2.99343 0
M  V30 4111 C 400.774 -5.30956 -2.37613 0
M  V30 4112 N 399.75 -4.68805 -2.75178 0
M  V30 4113 H 403.552 -2.73175 -1.0841 0
M  V30 4114 H 401.066 -1.5437 -0.504361 0
M  V30 4115 H 403.063 -2.26027 -3.5031 0
M  V30 4116 H 401.723 -1.18629 -3.02254 0
M  V30 4117 H 402.734 -4.75432 -2.05389 0
M  V30 4118 H 399.411 -2.51336 -3.33371 0
M  V30 4119 H 400.801 -6.37199 -2.13135 0
M  V30 4120 N 403.521 0.559213 -1.47345 0
M  V30 4121 C 404.451 1.67622 -1.62558 0
M  V30 4122 C 405.432 1.63331 -0.475087 0
M  V30 4123 O 406.617 1.80983 -0.704182 0
M  V30 4124 C 403.747 3.0626 -1.63774 0
M  V30 4125 C 402.701 3.25397 -2.7803 0
M  V30 4126 C 402.027 4.64801 -2.64318 0
M  V30 4127 C 403.327 3.10965 -4.19641 0
M  V30 4128 H 405.021 1.55146 -2.56067 0
M  V30 4129 H 402.567 0.744961 -1.23233 0
M  V30 4130 H 404.52 3.84247 -1.73008 0
M  V30 4131 H 403.244 3.1969 -0.66825 0
M  V30 4132 H 401.903 2.49817 -2.68304 0
M  V30 4133 H 401.551 4.75028 -1.65401 0
M  V30 4134 H 401.251 4.78555 -3.40968 0
M  V30 4135 H 402.775 5.44926 -2.75478 0
M  V30 4136 H 404.189 3.78772 -4.30354 0
M  V30 4137 H 402.586 3.36229 -4.97062 0
M  V30 4138 H 403.656 2.07736 -4.38148 0
M  V30 4139 N 404.999 1.35443 0.805782 0
M  V30 4140 C 406.247 1.28507 1.55982 0
M  V30 4141 C 406.568 -0.140046 1.94496 0
M  V30 4142 O 405.838 -1.07666 1.63661 0
M  V30 4143 H 404.418 0.472676 0.578434 0
M  V30 4144 H 407.08 1.69555 0.961098 0
M  V30 4145 H 406.176 1.90148 2.47488 0
M  V30 4146 N 406.477 -1.02803 1.19454 0
M  V30 4147 C 407.754 -1.73299 0.907013 0
M  V30 4148 C 408.134 -2.02772 -0.587086 0
M  V30 4149 O 407.482 -1.68304 -1.54551 0
M  V30 4150 C 407.692 -3.00912 1.76785 0
M  V30 4151 C 409.04 -3.74403 2.00268 0
M  V30 4152 O 410.064 -3.10841 1.73943 0
M  V30 4153 O 408.923 -4.88675 2.4466 0
M  V30 4154 H 406.017 -0.754727 0.338106 0
M  V30 4155 H 408.563 -1.08754 1.30271 0
M  V30 4156 H 407.335 -2.75366 2.7801 0
M  V30 4157 H 406.958 -3.73197 1.37149 0
M  V30 4158 N 407.956 -0.998596 -1.21925 0
M  V30 4159 C 408.919 -0.558679 -2.22287 0
M  V30 4160 C 409.919 0.361525 -1.56683 0
M  V30 4161 O 411.109 0.152695 -1.73529 0
M  V30 4162 C 408.241 0.18661 -3.40389 0
M  V30 4163 H 409.434 -1.4463 -2.62721 0
M  V30 4164 H 406.987 -0.786413 -1.35075 0
M  V30 4165 H 407.722 1.08996 -3.05435 0
M  V30 4166 H 407.507 -0.474188 -3.89222 0
M  V30 4167 H 408.997 0.482367 -4.14805 0
M  V30 4168 N 409.434 1.37368 -0.772513 0
M  V30 4169 C 410.681 1.99673 -0.337182 0
M  V30 4170 C 411.009 1.61324 1.0865 0
M  V30 4171 O 410.264 0.851377 1.7621 0
M  V30 4172 C 410.563 3.54817 -0.428876 0
M  V30 4173 C 410.229 4.12936 -1.81092 0
M  V30 4174 C 408.891 4.28523 -2.1891 0
M  V30 4175 C 411.243 4.44801 -2.71664 0
M  V30 4176 C 408.571 4.73277 -3.46735 0
M  V30 4177 C 410.923 4.90981 -3.98899 0
M  V30 4178 C 409.587 5.04773 -4.36761 0
M  V30 4179 H 408.857 0.730656 -0.123384 0
M  V30 4180 H 411.504 1.64124 -0.986686 0
M  V30 4181 H 409.809 3.90618 0.304167 0
M  V30 4182 H 411.506 4.00933 -0.0733334 0
M  V30 4183 H 408.096 4.01233 -1.50699 0
M  V30 4184 H 412.28 4.32344 -2.43706 0
M  V30 4185 H 407.536 4.82142 -3.75964 0
M  V30 4186 H 411.71 5.14603 -4.69208 0
M  V30 4187 H 409.337 5.39211 -5.35868 0
M  V30 4188 N 410.912 0.523116 1.48665 0
M  V30 4189 C 412.137 -0.0117284 2.07397 0
M  V30 4190 C 412.562 -1.28031 1.37803 0
M  V30 4191 O 411.92 -1.75836 0.441762 0
M  V30 4192 C 411.968 -0.225786 3.59892 0
M  V30 4193 O 411.072 -1.29592 3.91509 0
M  V30 4194 H 410.413 0.0360673 0.66302 0
M  V30 4195 H 412.943 0.729066 1.9117 0
M  V30 4196 H 412.953 -0.450552 4.05505 0
M  V30 4197 H 411.628 0.700944 4.09951 0
M  V30 4198 H 410.205 -1.05436 3.57684 0
M  V30 4199 N 412.39 -1.55475 0.257931 0
M  V30 4200 C 413.323 -2.179 -0.677862 0
M  V30 4201 C 414.301 -1.13448 -1.16483 0
M  V30 4202 O 415.485 -1.41889 -1.24095 0
M  V30 4203 C 412.612 -2.78851 -1.92249 0
M  V30 4204 C 411.658 -3.96454 -1.57246 0
M  V30 4205 S 412.491 -5.31349 -0.665501 0
M  V30 4206 C 413.647 -5.9576 -1.91889 0
M  V30 4207 H 413.88 -2.96934 -0.147396 0
M  V30 4208 H 411.413 -1.54342 0.0423023 0
M  V30 4209 H 413.371 -3.14602 -2.63697 0
M  V30 4210 H 412.032 -1.99742 -2.42409 0
M  V30 4211 H 411.225 -4.37731 -2.49814 0
M  V30 4212 H 410.827 -3.62038 -0.938325 0
M  V30 4213 H 413.119 -6.13947 -2.86487 0
M  V30 4214 H 414.062 -6.9094 -1.54942 0
M  V30 4215 H 414.47 -5.2494 -2.076 0
M  V30 4216 N 413.868 0.0150385 -1.57593 0
M  V30 4217 C 414.816 1.02958 -2.08572 0
M  V30 4218 C 415.81 1.36554 -1.00246 0
M  V30 4219 O 417.016 1.35295 -1.18724 0
M  V30 4220 H 413.391 0.349619 -0.665786 0
M  V30 4221 H 415.362 0.573932 -2.92829 0
M  V30 4222 C 414.111 2.31752 -2.59203 0
M  V30 4223 H 413.434 2.06765 -3.42182 0
M  V30 4224 H 414.874 3.01053 -2.98568 0
M  V30 4225 C 413.333 3.01692 -1.49945 0
M  V30 4226 O 413.863 3.92083 -0.873704 0
M  V30 4227 N 412.069 2.6326 -1.23056 0
M  V30 4228 H 411.616 1.89838 -1.74125 0
M  V30 4229 H 411.574 3.10372 -0.501685 0
M  V30 4230 N 415.346 1.54954 0.287554 0
M  V30 4231 C 416.296 1.8322 1.357 0
M  V30 4232 C 417.28 0.690152 1.45347 0
M  V30 4233 O 418.472 0.951137 1.49273 0
M  V30 4234 C 415.601 2.09481 2.71979 0
M  V30 4235 C 414.687 3.29906 2.66502 0
M  V30 4236 N 415.078 4.50154 2.30641 0
M  V30 4237 C 413.376 3.32203 2.97585 0
M  V30 4238 C 414.077 5.32209 2.34794 0
M  V30 4239 N 413.053 4.70258 2.72688 0
M  V30 4240 H 416.855 2.73746 1.0696 0
M  V30 4241 H 414.369 1.54635 0.496167 0
M  V30 4242 H 416.366 2.27882 3.49107 0
M  V30 4243 H 415.026 1.2023 3.0162 0
M  V30 4244 H 416.037 4.76515 2.02865 0
M  V30 4245 H 412.714 2.53101 3.32034 0
M  V30 4246 H 414.104 6.38321 2.09753 0
M  V30 4247 N 416.824 -0.551391 1.4764 0
M  V30 4248 C 418.073 -1.30467 1.53822 0
M  V30 4249 C 418.386 -1.94495 0.207661 0
M  V30 4250 O 419.592 -2.71099 0.147533 0
M  V30 4251 C 418.048 -2.36616 2.71184 0
M  V30 4252 C 417.656 -1.78754 4.10793 0
M  V30 4253 C 419.4 -3.13088 2.86663 0
M  V30 4254 C 417.307 -2.82717 5.19447 0
M  V30 4255 H 416.237 -0.490584 0.572576 0
M  V30 4256 H 418.888 -0.58494 1.73927 0
M  V30 4257 H 417.27 -3.11529 2.4447 0
M  V30 4258 H 418.444 -1.10173 4.47435 0
M  V30 4259 H 416.759 -1.14846 4.00249 0
M  V30 4260 H 419.356 -3.90736 3.65007 0
M  V30 4261 H 419.699 -3.67635 1.95321 0
M  V30 4262 H 420.232 -2.45288 3.13175 0
M  V30 4263 H 416.971 -2.33018 6.12685 0
M  V30 4264 H 416.491 -3.4969 4.87316 0
M  V30 4265 H 418.17 -3.46102 5.46646 0
M  V30 4266 N 418.302 -1.35869 -0.798587 0
M  V30 4267 C 419.579 -1.20145 -1.54352 0
M  V30 4268 C 419.959 0.216161 -2.0999 0
M  V30 4269 O 419.307 1.22068 -1.93162 0
M  V30 4270 C 419.517 -2.27602 -2.64572 0
M  V30 4271 C 420.865 -2.63811 -3.32699 0
M  V30 4272 O 421.889 -2.26576 -2.74849 0
M  V30 4273 O 420.748 -3.27866 -4.37226 0
M  V30 4274 H 417.842 -0.467248 -0.682355 0
M  V30 4275 H 420.388 -1.47574 -0.837859 0
M  V30 4276 H 419.16 -3.2265 -2.21388 0
M  V30 4277 H 418.783 -2.01488 -3.42766 0
M  V30 4278 N 419.78 1.02168 -1.19998 0
M  V30 4279 C 421.026 1.75945 -1.00852 0
M  V30 4280 C 421.359 1.88702 0.458828 0
M  V30 4281 O 420.634 1.40911 1.34069 0
M  V30 4282 C 420.917 3.18154 -1.68671 0
M  V30 4283 C 420.77 3.13224 -3.22817 0
M  V30 4284 C 422.089 4.16711 -1.41561 0
M  V30 4285 H 419.208 0.638673 -0.367785 0
M  V30 4286 H 421.85 1.19222 -1.4794 0
M  V30 4287 H 420 3.66586 -1.28636 0
M  V30 4288 H 421.672 2.72635 -3.72112 0
M  V30 4289 H 419.915 2.50751 -3.53986 0
M  V30 4290 H 420.586 4.13728 -3.65422 0
M  V30 4291 H 423.062 3.76913 -1.76284 0
M  V30 4292 H 421.938 5.14391 -1.91553 0
M  V30 4293 H 422.199 4.40774 -0.342193 0
M  V30 4294 N 421.258 1.00505 1.21394 0
M  V30 4295 C 422.483 0.706367 1.95001 0
M  V30 4296 C 422.908 -0.72463 1.73582 0
M  V30 4297 O 422.266 -1.49702 1.0227 0
M  V30 4298 C 422.314 1.03299 3.45487 0
M  V30 4299 O 421.418 0.138275 4.12168 0
M  V30 4300 H 420.759 0.263175 0.609619 0
M  V30 4301 H 423.289 1.34531 1.54151 0
M  V30 4302 H 423.299 0.979872 3.96059 0
M  V30 4303 H 421.974 2.07567 3.60401 0
M  V30 4304 H 420.551 0.247928 3.72075 0
M  V30 4305 N 422.737 -1.36956 0.779787 0
M  V30 4306 C 423.977 -2.01328 0.353043 0
M  V30 4307 C 424.341 -1.60558 -1.05286 0
M  V30 4308 O 425.542 -2.1745 -1.58016 0
M  V30 4309 C 423.813 -3.53874 0.500822 0
M  V30 4310 S 425.372 -4.38506 0.16053 0
M  V30 4311 H 422.19 -0.69799 0.13539 0
M  V30 4312 H 424.792 -1.67016 1.01617 0
M  V30 4313 H 423.496 -3.81034 1.52451 0
M  V30 4314 H 423.027 -3.92994 -0.178574 0
M  V30 4315 H 425.042 -4.85153 -1.04121 0
M  V30 4316 N 424.215 -0.530993 -1.48385 0
M  V30 4317 C 425.455 0.000718982 -2.044 0
M  V30 4318 C 425.819 1.31485 -1.39913 0
M  V30 4319 O 427.02 1.93265 -1.86821 0
M  V30 4320 C 425.291 0.119177 -3.57201 0
M  V30 4321 S 426.85 0.600806 -4.34667 0
M  V30 4322 H 423.668 -0.0125473 -0.710889 0
M  V30 4323 H 426.27 -0.711783 -1.82082 0
M  V30 4324 H 424.974 -0.842061 -4.01668 0
M  V30 4325 H 424.505 0.856026 -3.83974 0
M  V30 4326 H 426.52 1.86514 -4.59812 0
M  V30 4327 N 425.693 1.55336 -0.266172 0
M  V30 4328 C 426.921 2.03801 0.356756 0
M  V30 4329 C 427.336 1.14485 1.50129 0
M  V30 4330 O 426.693 0.163121 1.8177 0
M  V30 4331 C 426.744 3.51455 0.846281 0
M  V30 4332 O 426.465 4.37371 -0.252663 0
M  V30 4333 C 427.966 4.15767 1.53794 0
M  V30 4334 H 425.186 0.665906 0.0825218 0
M  V30 4335 H 427.73 2.00636 -0.39566 0
M  V30 4336 H 425.885 3.55092 1.54881 0
M  V30 4337 H 426.299 5.24358 0.122173 0
M  V30 4338 H 427.773 5.20714 1.83198 0
M  V30 4339 H 428.25 3.63404 2.46646 0
M  V30 4340 H 428.856 4.16107 0.879488 0
M  V30 4341 N 427.171 -0.0066808 1.57599 0
M  V30 4342 C 428.118 -1.00024 2.08 0
M  V30 4343 C 429.088 -1.34549 0.973943 0
M  V30 4344 O 430.273 -1.44502 1.24595 0
M  V30 4345 C 427.413 -2.2891 2.58252 0
M  V30 4346 C 426.526 -2.00346 3.82734 0
M  V30 4347 C 425.661 -3.23265 4.21513 0
M  V30 4348 C 424.7 -2.90357 5.3885 0
M  V30 4349 N 423.837 -4.05793 5.72954 0
M  V30 4350 H 428.677 -0.563499 2.92624 0
M  V30 4351 H 426.214 -0.266592 1.44664 0
M  V30 4352 H 428.172 -3.04247 2.85464 0
M  V30 4353 H 426.802 -2.70265 1.76512 0
M  V30 4354 H 425.854 -1.15406 3.62471 0
M  V30 4355 H 427.166 -1.72086 4.68175 0
M  V30 4356 H 426.32 -4.06953 4.49971 0
M  V30 4357 H 425.059 -3.54657 3.34768 0
M  V30 4358 H 424.064 -2.05075 5.10122 0
M  V30 4359 H 425.289 -2.60219 6.27266 0
M  V30 4360 H 423.235 -4.37094 4.89167 0
M  V30 4361 H 423.152 -3.81034 6.52954 0
M  V30 4362 H 424.42 -4.90289 6.06001 0
M  V30 4363 N 428.649 -1.55105 -0.279332 0
M  V30 4364 C 429.874 -1.7976 -1.03446 0
M  V30 4365 C 430.299 -0.565952 -1.79384 0
M  V30 4366 O 429.657 0.484259 -1.74713 0
M  V30 4367 C 429.705 -3.0179 -1.97371 0
M  V30 4368 O 428.809 -2.76432 -3.06038 0
M  V30 4369 H 428.15 -0.594334 -0.29608 0
M  V30 4370 H 430.68 -2.02235 -0.310165 0
M  V30 4371 H 430.69 -3.30351 -2.39441 0
M  V30 4372 H 429.365 -3.91085 -1.4151 0
M  V30 4373 H 427.942 -2.58949 -2.68328 0
M  V30 4374 N 430.127 0.543554 -1.4793 0
M  V30 4375 C 431.375 1.29752 -1.54948 0
M  V30 4376 C 431.696 1.93764 -0.219242 0
M  V30 4377 O 430.966 1.80639 0.75805 0
M  V30 4378 H 429.546 0.481874 -0.570795 0
M  V30 4379 H 432.208 0.633636 -1.84312 0
M  V30 4380 H 431.304 2.08392 -2.32334 0
M  V30 4381 N 431.605 1.3629 0.791371 0
M  V30 4382 C 432.845 1.31792 1.56238 0
M  V30 4383 C 433.209 -0.102237 1.91728 0
M  V30 4384 O 434.41 -0.271759 2.67423 0
M  V30 4385 C 432.681 2.21303 2.80642 0
M  V30 4386 S 434.24 2.34468 3.70904 0
M  V30 4387 H 431.058 0.468141 0.535131 0
M  V30 4388 H 433.66 1.71841 0.932246 0
M  V30 4389 H 432.364 3.23439 2.52617 0
M  V30 4390 H 431.895 1.82266 3.4863 0
M  V30 4391 H 433.91 1.54074 4.71673 0
M  V30 4392 N 433.083 -1.0153 1.20538 0
M  V30 4393 C 434.031 -2.12215 0.952235 0
M  V30 4394 C 435.025 -1.69123 -0.0968735 0
M  V30 4395 O 436.231 -1.7992 0.0536006 0
M  V30 4396 H 432.606 -0.693576 0.290613 0
M  V30 4397 H 434.577 -2.3075 1.89201 0
M  V30 4398 C 433.326 -3.43755 0.522287 0
M  V30 4399 H 432.649 -3.7734 1.32115 0
M  V30 4400 H 434.089 -4.22254 0.384389 0
M  V30 4401 C 432.548 -3.28088 -0.765489 0
M  V30 4402 O 433.078 -3.57921 -1.8236 0
M  V30 4403 N 431.284 -2.81333 -0.728011 0
M  V30 4404 H 430.831 -2.57255 0.133332 0
M  V30 4405 H 430.789 -2.71232 -1.58999 0
M  V30 4406 N 434.561 -1.01147 -1.20859 0
M  V30 4407 C 435.511 -0.548247 -2.2131 0
M  V30 4408 C 436.495 0.393646 -1.5601 0
M  V30 4409 O 437.687 0.217445 -1.75659 0
M  V30 4410 C 434.816 0.117252 -3.431 0
M  V30 4411 C 433.902 -0.846043 -4.15575 0
M  V30 4412 N 434.293 -2.00149 -4.64515 0
M  V30 4413 C 432.591 -0.665783 -4.41003 0
M  V30 4414 C 433.292 -2.60764 -5.19978 0
M  V30 4415 N 432.268 -1.88868 -5.09735 0
M  V30 4416 H 436.07 -1.42921 -2.56809 0
M  V30 4417 H 433.584 -0.876142 -1.36739 0
M  V30 4418 H 435.581 0.46662 -4.1428 0
M  V30 4419 H 434.241 0.994115 -3.09107 0
M  V30 4420 H 435.252 -2.38162 -4.5989 0
M  V30 4421 H 431.929 0.163456 -4.1718 0
M  V30 4422 H 433.319 -3.58519 -5.68255 0
M  V30 4423 N 436.039 1.36541 -0.78704 0
M  V30 4424 C 437.45 1.81873 -0.421807 0
M  V30 4425 C 437.801 1.65487 1.05397 0
M  V30 4426 O 436.926 1.17448 1.81755 0
M  V30 4427 C 437.521 3.30192 -0.758841 0
M  V30 4428 C 436.08 3.73743 -0.446468 0
M  V30 4429 C 435.227 2.58844 -0.994728 0
M  V30 4430 H 438.178 1.24796 -0.98039 0
M  V30 4431 H 438.199 3.80468 -0.0490648 0
M  V30 4432 H 437.711 3.42087 -1.83299 0
M  V30 4433 H 435.812 3.6741 0.619739 0
M  V30 4434 H 435.925 4.69272 -0.965415 0
M  V30 4435 H 434.289 2.51245 -0.418087 0
M  V30 4436 H 435.072 2.73525 -2.07458 0
M  V30 4437 N 437.518 0.538854 1.48102 0
M  V30 4438 C 438.795 -0.0568108 1.95517 0
M  V30 4439 C 439.175 -1.50408 1.48124 0
M  V30 4440 O 438.523 -2.17133 0.711727 0
M  V30 4441 C 438.733 0.0696262 3.48931 0
M  V30 4442 C 440.081 -0.0851202 4.24515 0
M  V30 4443 O 441.105 -0.0037347 3.562 0
M  V30 4444 O 439.964 -0.257025 5.45895 0
M  V30 4445 H 437.058 -0.0743695 0.823649 0
M  V30 4446 H 439.604 0.604081 1.58584 0
M  V30 4447 H 438.376 1.07744 3.76174 0
M  V30 4448 H 437.999 -0.629714 3.92582 0
M  V30 4449 N 438.996 -1.55193 0.274407 0
M  V30 4450 C 439.926 -2.25471 -0.607032 0
M  V30 4451 C 440.907 -1.24461 -1.15946 0
M  V30 4452 O 442.092 -1.53179 -1.19373 0
M  V30 4453 C 439.222 -2.97526 -1.79153 0
M  V30 4454 C 438.176 -4.05459 -1.37067 0
M  V30 4455 C 437.502 -4.65084 -2.6382 0
M  V30 4456 C 438.802 -5.19691 -0.521389 0
M  V30 4457 H 440.496 -2.99393 -0.0209343 0
M  V30 4458 H 438.042 -1.43997 -0.00862866 0
M  V30 4459 H 439.995 -3.45402 -2.41404 0
M  V30 4460 H 438.719 -2.21138 -2.40344 0
M  V30 4461 H 437.378 -3.58393 -0.771355 0
M  V30 4462 H 437.026 -3.85365 -3.23268 0
M  V30 4463 H 436.726 -5.37961 -2.36372 0
M  V30 4464 H 438.25 -5.15708 -3.26921 0
M  V30 4465 H 439.664 -5.63623 -1.04889 0
M  V30 4466 H 438.061 -5.99126 -0.341825 0
M  V30 4467 H 439.131 -4.82713 0.46 0
M  V30 4468 N 440.474 -0.00167713 -1.576 0
M  V30 4469 C 441.751 0.719951 -1.81868 0
M  V30 4470 C 442.131 1.91895 -0.879747 0
M  V30 4471 O 441.479 2.28389 0.0711423 0
M  V30 4472 C 441.689 1.12409 -3.30402 0
M  V30 4473 C 443.037 1.52724 -3.96182 0
M  V30 4474 O 444.061 1.21784 -3.34734 0
M  V30 4475 O 442.92 2.10265 -5.04431 0
M  V30 4476 H 440.014 0.350707 -0.748955 0
M  V30 4477 H 442.56 -0.0272597 -1.69678 0
M  V30 4478 H 441.332 0.269532 -3.90371 0
M  V30 4479 H 440.955 1.93035 -3.47596 0
M  V30 4480 N 441.952 1.55251 0.271103 0
M  V30 4481 C 443.198 1.76207 1.00394 0
M  V30 4482 C 443.531 0.562604 1.85872 0
M  V30 4483 O 442.806 -0.439785 1.89463 0
M  V30 4484 C 443.089 3.06828 1.8849 0
M  V30 4485 C 442.942 4.37134 1.05992 0
M  V30 4486 C 444.261 3.33503 2.87165 0
M  V30 4487 H 441.38 0.641086 0.363562 0
M  V30 4488 H 444.022 1.87982 0.276189 0
M  V30 4489 H 442.172 2.96921 2.5054 0
M  V30 4490 H 443.844 4.59001 0.459978 0
M  V30 4491 H 442.087 4.32275 0.363443 0
M  V30 4492 H 442.758 5.2486 1.70955 0
M  V30 4493 H 445.234 3.43215 2.3525 0
M  V30 4494 H 444.11 4.2616 3.45946 0
M  V30 4495 H 444.371 2.53235 3.62387 0
M  V30 4496 N 443.43 -0.535701 1.48216 0
M  V30 4497 C 444.362 -1.65662 1.58394 0
M  V30 4498 C 445.375 -1.5591 0.468607 0
M  V30 4499 O 446.564 -1.62475 0.7392 0
M  V30 4500 C 443.664 -3.04276 1.4923 0
M  V30 4501 C 442.837 -3.39567 2.75705 0
M  V30 4502 C 441.896 -4.57436 2.60075 0
M  V30 4503 O 440.922 -4.60942 3.33948 0
M  V30 4504 N 442.124 -5.55259 1.69315 0
M  V30 4505 H 444.889 -1.5737 2.55058 0
M  V30 4506 H 442.45 -0.722845 1.44867 0
M  V30 4507 H 444.442 -3.80994 1.36477 0
M  V30 4508 H 443.012 -3.06677 0.605632 0
M  V30 4509 H 442.232 -2.52083 3.03064 0
M  V30 4510 H 443.52 -3.59929 3.59623 0
M  V30 4511 H 442.918 -5.552 1.08489 0
M  V30 4512 H 441.475 -6.31218 1.62504 0
M  V30 4513 N 444.908 -1.36708 -0.784132 0
M  V30 4514 C 446.138 -1.34203 -1.57077 0
M  V30 4515 C 446.546 0.0774945 -1.89041 0
M  V30 4516 O 445.889 1.04628 -1.50992 0
M  V30 4517 C 445.951 -2.10351 -2.91535 0
M  V30 4518 C 445.615 -3.59405 -2.82272 0
M  V30 4519 C 446.612 -4.53545 -2.54151 0
M  V30 4520 C 444.297 -4.02362 -3.00683 0
M  V30 4521 C 446.291 -5.8862 -2.44551 0
M  V30 4522 C 443.978 -5.37526 -2.90704 0
M  V30 4523 C 444.976 -6.30468 -2.62677 0
M  V30 4524 O 444.664 -7.63149 -2.52702 0
M  V30 4525 H 444.396 -0.461791 -0.493685 0
M  V30 4526 H 446.95 -1.80475 -0.980712 0
M  V30 4527 H 445.18 -1.5875 -3.52612 0
M  V30 4528 H 446.869 -2.00636 -3.52845 0
M  V30 4529 H 447.635 -4.21669 -2.39625 0
M  V30 4530 H 443.514 -3.30389 -3.21503 0
M  V30 4531 H 447.058 -6.61133 -2.22596 0
M  V30 4532 H 442.955 -5.69008 -3.04795 0
M  V30 4533 H 443.723 -7.73331 -2.68144 0
M  V30 4534 N 446.386 1.0089 -1.21074 0
M  V30 4535 C 447.802 1.2695 -0.967257 0
M  V30 4536 C 448.002 1.9846 0.348673 0
M  V30 4537 O 447.058 2.28459 1.0753 0
M  V30 4538 C 448.371 2.09697 -2.15517 0
M  V30 4539 C 449.919 2.22937 -2.197 0
M  V30 4540 C 450.394 3.09064 -3.37999 0
M  V30 4541 N 451.885 3.16653 -3.38061 0
M  V30 4542 C 452.62 3.8354 -4.26245 0
M  V30 4543 N 452.116 4.52488 -5.2462 0
M  V30 4544 N 453.909 3.80141 -4.14064 0
M  V30 4545 H 446.06 0.529005 -2.05707 0
M  V30 4546 H 448.323 0.296148 -0.900556 0
M  V30 4547 H 448.029 1.64497 -3.10859 0
M  V30 4548 H 447.903 3.10444 -2.14253 0
M  V30 4549 H 450.29 2.67357 -1.24916 0
M  V30 4550 H 450.371 1.21673 -2.2501 0
M  V30 4551 H 450.015 2.65347 -4.33074 0
M  V30 4552 H 449.945 4.10433 -3.29928 0
M  V30 4553 H 452.436 2.67566 -2.66865 0
M  V30 4554 H 452.749 5.01219 -5.88217 0
M  V30 4555 H 451.094 4.51288 -5.28549 0
M  V30 4556 H 454.285 3.25427 -3.36474 0
M  V30 4557 H 454.458 4.31992 -4.82998 0
M  V30 4558 N 447.864 1.01787 1.20321 0
M  V30 4559 C 449.089 0.727009 1.9424 0
M  V30 4560 C 449.514 -0.706179 1.74341 0
M  V30 4561 O 448.872 -1.48609 1.03852 0
M  V30 4562 C 448.92 1.06958 3.44372 0
M  V30 4563 O 448.024 0.181983 4.11998 0
M  V30 4564 H 447.365 0.269626 0.606793 0
M  V30 4565 H 449.895 1.36158 1.52716 0
M  V30 4566 H 449.905 1.02182 3.94997 0
M  V30 4567 H 448.58 2.11378 3.58179 0
M  V30 4568 H 447.157 0.287378 3.71791 0
M  V30 4569 N 449.342 -1.36122 0.79427 0
M  V30 4570 C 450.59 -1.98718 0.368177 0
M  V30 4571 C 450.911 -1.63345 -1.06506 0
M  V30 4572 O 450.181 -0.909825 -1.73491 0
M  V30 4573 H 448.761 -0.735038 0.133146 0
M  V30 4574 H 451.423 -1.66239 1.01739 0
M  V30 4575 H 450.519 -3.08633 0.463923 0
M  V30 4576 N 450.82 -0.546701 -1.47814 0
M  V30 4577 C 451.783 0.196287 -2.28358 0
M  V30 4578 C 452.783 0.852437 -1.36346 0
M  V30 4579 O 453.973 0.709913 -1.59078 0
M  V30 4580 C 451.105 1.28579 -3.15722 0
M  V30 4581 H 452.298 -0.511086 -2.95513 0
M  V30 4582 H 449.851 -0.303248 -1.5333 0
M  V30 4583 H 450.586 2.0259 -2.53235 0
M  V30 4584 H 450.371 0.820229 -3.83425 0
M  V30 4585 H 451.861 1.80793 -3.76435 0
M  V30 4586 N 452.299 1.55045 -0.282633 0
M  V30 4587 C 453.262 2.21515 0.588539 0
M  V30 4588 C 454.262 1.19535 1.07554 0
M  V30 4589 O 455.452 1.44391 0.974514 0
M  V30 4590 C 452.584 2.88704 1.8128 0
M  V30 4591 H 453.777 2.99899 0.00806397 0
M  V30 4592 H 451.33 1.56265 -0.0333067 0
M  V30 4593 H 452.065 2.14352 2.43359 0
M  V30 4594 H 451.85 3.63443 1.47144 0
M  V30 4595 H 453.34 3.39465 2.43214 0
M  V30 4596 N 453.777 0.010035 1.57597 0
M  V30 4597 C 455.188 -0.531426 1.78977 0
M  V30 4598 C 455.539 -1.73375 0.918454 0
M  V30 4599 O 454.664 -2.16047 0.123635 0
M  V30 4600 C 455.259 -0.97086 3.24592 0
M  V30 4601 C 453.818 -1.45756 3.47033 0
M  V30 4602 C 452.965 -0.413384 2.74201 0
M  V30 4603 H 455.916 0.236166 1.56933 0
M  V30 4604 H 455.937 -1.83633 3.33255 0
M  V30 4605 H 455.449 -0.0955893 3.87982 0
M  V30 4606 H 453.55 -2.35339 2.88871 0
M  V30 4607 H 453.663 -1.4781 4.55729 0
M  V30 4608 H 452.027 -0.877266 2.39115 0
M  V30 4609 H 452.81 0.453092 3.40297 0
M  V30 4610 N 455.255 -1.55392 -0.262866 0
M  V30 4611 C 456.187 -1.85392 -1.34768 0
M  V30 4612 C 457.2 -0.739069 -1.45057 0
M  V30 4613 O 458.389 -1.01703 -1.46693 0
M  V30 4614 C 455.489 -2.01088 -2.72795 0
M  V30 4615 C 454.662 -3.31828 -2.84972 0
M  V30 4616 C 453.721 -3.37464 -4.03738 0
M  V30 4617 O 452.747 -4.10778 -3.94018 0
M  V30 4618 N 453.949 -2.65599 -5.16176 0
M  V30 4619 H 456.714 -2.79029 -1.09375 0
M  V30 4620 H 454.275 -1.55434 -0.452981 0
M  V30 4621 H 456.267 -2.02217 -3.50557 0
M  V30 4622 H 454.837 -1.1427 -2.90966 0
M  V30 4623 H 454.057 -3.43152 -1.94012 0
M  V30 4624 H 455.345 -4.18032 -2.90045 0
M  V30 4625 H 454.743 -2.05736 -5.26962 0
M  V30 4626 H 453.3 -2.72439 -5.92132 0
M  V30 4627 N 456.733 0.527833 -1.48498 0
M  V30 4628 C 458.144 1.10975 -1.50138 0
M  V30 4629 C 458.495 1.943 -0.272378 0
M  V30 4630 O 457.62 2.07319 0.620301 0
M  V30 4631 C 458.215 2.01927 -2.72049 0
M  V30 4632 C 456.774 2.55332 -2.76554 0
M  V30 4633 C 455.921 1.32341 -2.43683 0
M  V30 4634 H 458.872 0.312986 -1.55583 0
M  V30 4635 H 458.893 2.86244 -2.50689 0
M  V30 4636 H 458.405 1.41254 -3.61481 0
M  V30 4637 H 456.506 3.19721 -1.91336 0
M  V30 4638 H 456.619 2.94319 -3.78038 0
M  V30 4639 H 454.983 1.63989 -1.94884 0
M  V30 4640 H 455.766 0.734165 -3.35358 0
M  V30 4641 N 458.211 1.37122 0.776871 0
M  V30 4642 C 459.459 1.31787 1.53221 0
M  V30 4643 C 459.78 -0.0987589 1.9475 0
M  V30 4644 O 459.05 -1.0417 1.65908 0
M  V30 4645 H 457.63 0.484839 0.568278 0
M  V30 4646 H 460.292 1.71556 0.924917 0
M  V30 4647 H 459.388 1.95355 2.43398 0
M  V30 4648 N 459.689 -1.00246 1.21608 0
M  V30 4649 C 461.1 -1.55511 1.03312 0
M  V30 4650 C 461.451 -1.91946 -0.406332 0
M  V30 4651 O 460.576 -1.73753 -1.28992 0
M  V30 4652 C 461.171 -2.82576 1.86913 0
M  V30 4653 C 459.73 -3.34318 1.72941 0
M  V30 4654 C 458.877 -2.07487 1.83968 0
M  V30 4655 H 461.828 -0.824638 1.35593 0
M  V30 4656 H 461.849 -3.54559 1.38087 0
M  V30 4657 H 461.361 -2.56026 2.91672 0
M  V30 4658 H 459.462 -3.65797 0.70877 0
M  V30 4659 H 459.575 -4.05566 2.55055 0
M  V30 4660 H 457.939 -2.20603 1.27304 0
M  V30 4661 H 458.722 -1.83346 2.9024 0
M  V30 4662 N 461.167 -1.02423 -1.1978 0
M  V30 4663 C 462.13 -0.605703 -2.21052 0
M  V30 4664 C 463.13 0.328209 -1.57415 0
M  V30 4665 O 464.32 0.115853 -1.73814 0
M  V30 4666 C 461.452 0.114366 -3.40708 0
M  V30 4667 H 462.645 -1.5017 -2.59594 0
M  V30 4668 H 460.198 -0.814888 -1.33376 0
M  V30 4669 H 460.933 1.02492 -3.07678 0
M  V30 4670 H 460.718 -0.556641 -3.88129 0
M  V30 4671 H 462.208 0.394272 -4.15735 0
M  V30 4672 N 462.645 1.35699 -0.801477 0
M  V30 4673 C 463.595 2.2728 -0.181073 0
M  V30 4674 C 464.579 1.47533 0.642098 0
M  V30 4675 O 465.771 1.69785 0.500193 0
M  V30 4676 C 462.9 3.36626 0.673612 0
M  V30 4677 C 461.986 4.23802 -0.159008 0
M  V30 4678 N 462.377 4.90879 -1.2195 0
M  V30 4679 C 460.675 4.45959 0.0602005 0
M  V30 4680 C 461.376 5.5546 -1.72738 0
M  V30 4681 N 460.352 5.33663 -1.03465 0
M  V30 4682 H 464.154 2.76632 -0.992582 0
M  V30 4683 H 461.668 1.49166 -0.642127 0
M  V30 4684 H 463.665 4.01179 1.13408 0
M  V30 4685 H 462.325 2.88828 1.48353 0
M  V30 4686 H 463.336 4.92497 -1.60209 0
M  V30 4687 H 460.013 4.08969 0.839664 0
M  V30 4688 H 461.403 6.18991 -2.61342 0
M  V30 4689 N 464.123 0.554532 1.47522 0
M  V30 4690 C 465.053 -0.182974 2.32782 0
M  V30 4691 C 466.034 -0.911377 1.43624 0
M  V30 4692 O 467.219 -0.892366 1.72483 0
M  V30 4693 C 464.349 -1.21513 3.25349 0
M  V30 4694 C 463.303 -0.603355 4.23726 0
M  V30 4695 C 462.629 -1.73995 5.05598 0
M  V30 4696 C 463.929 0.441121 5.20434 0
M  V30 4697 H 465.623 0.52882 2.94693 0
M  V30 4698 H 463.169 0.255759 1.41711 0
M  V30 4699 H 465.122 -1.73922 3.83835 0
M  V30 4700 H 463.846 -1.95683 2.61487 0
M  V30 4701 H 462.505 -0.10059 3.66462 0
M  V30 4702 H 462.153 -2.47063 4.38143 0
M  V30 4703 H 461.853 -1.3364 5.72201 0
M  V30 4704 H 463.377 -2.26735 5.66942 0
M  V30 4705 H 464.791 0.00319931 5.733 0
M  V30 4706 H 463.188 0.763402 5.95224 0
M  V30 4707 H 464.258 1.33799 4.66075 0
M  V30 4708 N 465.601 -1.54893 0.290851 0
M  V30 4709 C 466.826 -2.04804 -0.32712 0
M  V30 4710 C 467.251 -1.16721 -1.47506 0
M  V30 4711 O 466.609 -0.169107 -1.8051 0
M  V30 4712 C 466.657 -3.52268 -0.770689 0
M  V30 4713 O 465.761 -3.67236 -1.87647 0
M  V30 4714 H 465.102 -0.660789 -0.0652227 0
M  V30 4715 H 467.632 -2.00036 0.429739 0
M  V30 4716 H 467.642 -3.9393 -1.06223 0
M  V30 4717 H 466.317 -4.15843 0.069096 0
M  V30 4718 H 464.894 -3.37479 -1.58626 0
M  V30 4719 N 467.08 -0.0183926 -1.57589 0
M  V30 4720 C 468.01 0.965596 -2.12599 0
M  V30 4721 C 468.991 1.34641 -1.0395 0
M  V30 4722 O 470.176 1.42693 -1.31729 0
M  V30 4723 C 467.306 2.25149 -2.64434 0
M  V30 4724 C 466.26 2.01175 -3.77773 0
M  V30 4725 C 465.586 3.35937 -4.15994 0
M  V30 4726 C 466.886 1.35953 -5.04296 0
M  V30 4727 H 468.58 0.507504 -2.95067 0
M  V30 4728 H 466.126 0.242671 -1.41941 0
M  V30 4729 H 468.079 2.94357 -3.01549 0
M  V30 4730 H 466.803 2.73105 -1.79112 0
M  V30 4731 H 465.462 1.34388 -3.4108 0
M  V30 4732 H 465.11 3.81631 -3.27669 0
M  V30 4733 H 464.81 3.20705 -4.92364 0
M  V30 4734 H 466.334 4.0643 -4.55683 0
M  V30 4735 H 467.748 1.95144 -5.39065 0
M  V30 4736 H 466.145 1.31152 -5.85593 0
M  V30 4737 H 467.215 0.331071 -4.83768 0
M  V30 4738 N 468.558 1.5553 0.254621 0
M  V30 4739 C 469.786 1.81046 1.00149 0
M  V30 4740 C 470.201 0.593047 1.79244 0
M  V30 4741 O 469.558 -0.438196 1.77161 0
M  V30 4742 C 469.609 3.04684 1.94551 0
M  V30 4743 O 469.33 4.21725 1.18658 0
M  V30 4744 C 470.831 3.42943 2.80901 0
M  V30 4745 H 468.051 0.602653 0.295044 0
M  V30 4746 H 470.595 2.02576 0.279842 0
M  V30 4747 H 468.75 2.85226 2.62154 0
M  V30 4748 H 469.164 4.91746 1.82445 0
M  V30 4749 H 470.638 4.32576 3.42902 0
M  V30 4750 H 471.115 2.63176 3.51617 0
M  V30 4751 H 471.721 3.64724 2.18762 0
M  V30 4752 N 470.036 -0.519951 1.48776 0
M  V30 4753 C 471.285 -1.27175 1.56555 0
M  V30 4754 C 471.598 -1.9401 0.248869 0
M  V30 4755 O 472.804 -2.70725 0.205004 0
M  V30 4756 C 471.26 -2.30811 2.76142 0
M  V30 4757 C 470.868 -1.7 4.14493 0
M  V30 4758 C 472.612 -3.06937 2.9324 0
M  V30 4759 C 470.519 -2.71635 5.25327 0
M  V30 4760 H 469.449 -0.478329 0.582853 0
M  V30 4761 H 472.1 -0.547916 1.75129 0
M  V30 4762 H 470.482 -3.06274 2.51023 0
M  V30 4763 H 471.656 -1.00658 4.49672 0
M  V30 4764 H 469.971 -1.06331 4.02595 0
M  V30 4765 H 472.568 -3.82905 3.73213 0
M  V30 4766 H 472.911 -3.63409 2.03075 0
M  V30 4767 H 473.444 -2.38589 3.18308 0
M  V30 4768 H 470.183 -2.1997 6.1749 0
M  V30 4769 H 469.703 -3.39275 4.94624 0
M  V30 4770 H 471.382 -3.34429 5.53865 0
M  V30 4771 N 471.514 -1.37532 -0.769588 0
M  V30 4772 C 472.742 -1.36059 -1.55871 0
M  V30 4773 C 473.157 0.053544 -1.88724 0
M  V30 4774 O 472.514 1.01591 -1.5161 0
M  V30 4775 C 472.565 -2.20107 -2.86767 0
M  V30 4776 O 472.286 -3.56009 -2.55321 0
M  V30 4777 C 473.787 -2.26636 -3.80987 0
M  V30 4778 H 471.007 -0.465967 -0.482821 0
M  V30 4779 H 473.551 -1.80901 -0.953686 0
M  V30 4780 H 471.706 -1.78768 -3.43687 0
M  V30 4781 H 472.12 -4.0009 -3.39158 0
M  V30 4782 H 473.594 -2.89763 -4.69831 0
M  V30 4783 H 474.071 -1.2754 -4.20274 0
M  V30 4784 H 474.677 -2.68296 -3.29996 0
M  V30 4785 N 472.992 0.995999 -1.22138 0
M  V30 4786 C 473.922 2.10387 -1.01289 0
M  V30 4787 C 474.903 1.69975 0.0651454 0
M  V30 4788 O 476.088 1.9396 -0.0964628 0
M  V30 4789 C 473.218 3.42312 -0.586517 0
M  V30 4790 C 472.172 3.96558 -1.61014 0
M  V30 4791 C 471.498 5.24494 -1.0397 0
M  V30 4792 C 472.798 4.27595 -2.99933 0
M  V30 4793 H 474.492 2.28086 -1.93951 0
M  V30 4794 H 472.038 1.09607 -0.933928 0
M  V30 4795 H 473.991 4.19223 -0.427793 0
M  V30 4796 H 472.715 3.24431 0.375761 0
M  V30 4797 H 471.374 3.21776 -1.75658 0
M  V30 4798 H 471.022 5.02953 -0.0688703 0
M  V30 4799 H 470.722 5.61755 -1.72352 0
M  V30 4800 H 472.246 6.04042 -0.892494 0
M  V30 4801 H 473.66 4.95315 -2.8868 0
M  V30 4802 H 472.057 4.76021 -3.6541 0
M  V30 4803 H 473.127 3.35498 -3.50099 0
M  V30 4804 N 474.47 1.03057 1.19235 0
M  V30 4805 C 475.4 0.633497 2.24742 0
M  V30 4806 C 476.381 -0.358335 1.66283 0
M  V30 4807 O 477.566 -0.240676 1.92703 0
M  V30 4808 C 474.696 -0.0147648 3.47297 0
M  V30 4809 C 473.65 0.899527 4.18441 0
M  V30 4810 C 472.976 0.116281 5.34574 0
M  V30 4811 C 474.276 2.21404 4.73051 0
M  V30 4812 H 475.97 1.5155 2.58211 0
M  V30 4813 H 473.516 0.73014 1.24117 0
M  V30 4814 H 475.469 -0.304202 4.20301 0
M  V30 4815 H 474.193 -0.931577 3.13032 0
M  V30 4816 H 472.852 1.17319 3.47321 0
M  V30 4817 H 472.5 -0.802619 4.96555 0
M  V30 4818 H 472.2 0.725293 5.83107 0
M  V30 4819 H 473.724 -0.166376 6.10373 0
M  V30 4820 H 475.138 1.98601 5.37802 0
M  V30 4821 H 473.535 2.77512 5.32078 0
M  V30 4822 H 474.605 2.86752 3.91026 0
M  V30 4823 N 475.948 -1.35272 0.808662 0
M  V30 4824 C 476.881 -2.27595 0.165994 0
M  V30 4825 C 477.859 -1.48189 -0.669241 0
M  V30 4826 O 479.043 -1.77444 -0.636073 0
M  V30 4827 C 476.17 -3.29843 -0.769505 0
M  V30 4828 C 475.216 -4.26498 -0.0136267 0
M  V30 4829 S 476.049 -5.18878 1.32384 0
M  V30 4830 C 477.205 -6.24666 0.392838 0
M  V30 4831 H 477.438 -2.81755 0.948756 0
M  V30 4832 H 474.971 -1.42103 0.603828 0
M  V30 4833 H 476.929 -3.89247 -1.30374 0
M  V30 4834 H 475.59 -2.74558 -1.52567 0
M  V30 4835 H 474.783 -4.98769 -0.724227 0
M  V30 4836 H 474.385 -3.71274 0.450713 0
M  V30 4837 H 476.677 -6.7619 -0.4211 0
M  V30 4838 H 477.62 -6.99741 1.0848 0
M  V30 4839 H 478.028 -5.64499 -0.0123908 0
M  V30 4840 N 477.426 -0.562348 -1.47226 0
M  V30 4841 C 478.654 -0.0452275 -2.06851 0
M  V30 4842 C 479.069 1.25078 -1.41424 0
M  V30 4843 O 478.426 1.75156 -0.512513 0
M  V30 4844 C 478.477 0.148674 -3.61194 0
M  V30 4845 O 478.198 -1.09602 -4.24169 0
M  V30 4846 C 479.699 0.702488 -4.37699 0
M  V30 4847 H 476.919 -0.0481775 -0.669268 0
M  V30 4848 H 479.463 -0.777223 -1.89155 0
M  V30 4849 H 477.618 0.830817 -3.78386 0
M  V30 4850 H 478.032 -0.896982 -5.16773 0
M  V30 4851 H 479.506 0.78743 -5.46355 0
M  V30 4852 H 479.983 1.71493 -4.04335 0
M  V30 4853 H 480.589 0.0558772 -4.25263 0
M  V30 4854 N 478.904 1.54736 -0.299062 0
M  V30 4855 C 479.867 2.22127 0.565012 0
M  V30 4856 C 480.867 1.20669 1.06281 0
M  V30 4857 O 482.057 1.45417 0.959145 0
M  V30 4858 C 479.189 2.90611 1.78208 0
M  V30 4859 H 480.382 2.99891 -0.0237448 0
M  V30 4860 H 477.935 1.5622 -0.0498788 0
M  V30 4861 H 478.67 2.16921 2.41072 0
M  V30 4862 H 478.455 3.64984 1.43281 0
M  V30 4863 H 479.945 3.42026 2.396 0
M  V30 4864 N 480.382 0.0267497 1.57577 0
M  V30 4865 C 481.798 -0.32962 1.56159 0
M  V30 4866 C 481.998 -1.73059 1.03213 0
M  V30 4867 O 481.054 -2.43233 0.677804 0
M  V30 4868 C 482.367 -0.18039 3.00158 0
M  V30 4869 C 483.915 -0.253334 3.11973 0
M  V30 4870 C 484.39 -0.132921 4.57807 0
M  V30 4871 N 485.881 -0.189979 4.6281 0
M  V30 4872 C 486.616 -0.120554 5.73273 0
M  V30 4873 N 486.112 -0.000180315 6.928 0
M  V30 4874 N 487.905 -0.174369 5.61829 0
M  V30 4875 H 480.056 0.942896 1.90324 0
M  V30 4876 H 482.319 0.3639 0.875375 0
M  V30 4877 H 482.025 0.784576 3.42837 0
M  V30 4878 H 481.899 -0.951565 3.65 0
M  V30 4879 H 484.286 -1.20876 2.69208 0
M  V30 4880 H 484.367 0.548177 2.49857 0
M  V30 4881 H 484.011 0.819073 5.01252 0
M  V30 4882 H 483.941 -0.953264 5.179 0
M  V30 4883 H 486.432 -0.283257 3.76837 0
M  V30 4884 H 486.745 0.0461666 7.72786 0
M  V30 4885 H 485.09 0.034569 6.94991 0
M  V30 4886 H 488.281 -0.266794 4.67339 0
M  V30 4887 H 488.454 -0.116802 6.47895 0
M  V30 4888 N 481.861 -1.55662 -0.24637 0
M  V30 4889 C 482.791 -1.93377 -1.30873 0
M  V30 4890 C 483.772 -0.798773 -1.50179 0
M  V30 4891 O 484.957 -1.0591 -1.62778 0
M  V30 4892 C 482.087 -2.22893 -2.66338 0
M  V30 4893 C 481.041 -3.38649 -2.61727 0
M  V30 4894 C 480.367 -3.53708 -4.00992 0
M  V30 4895 C 481.667 -4.74323 -2.18666 0
M  V30 4896 H 483.361 -2.82363 -0.995552 0
M  V30 4897 H 480.907 -1.35854 -0.477464 0
M  V30 4898 H 482.86 -2.47866 -3.40794 0
M  V30 4899 H 481.584 -1.30733 -2.99293 0
M  V30 4900 H 480.243 -3.13685 -1.89729 0
M  V30 4901 H 479.891 -2.58967 -4.31214 0
M  V30 4902 H 479.591 -4.31551 -3.98795 0
M  V30 4903 H 481.115 -3.81003 -4.77147 0
M  V30 4904 H 482.529 -4.98665 -2.82854 0
M  V30 4905 H 480.926 -5.55273 -2.27579 0
M  V30 4906 H 481.996 -4.71349 -1.13834 0
M  V30 4907 N 483.339 0.512053 -1.4905 0
M  V30 4908 C 484.585 1.26613 -1.59187 0
M  V30 4909 C 484.94 1.90494 -0.270163 0
M  V30 4910 O 484.233 1.77204 0.728648 0
M  V30 4911 C 484.427 2.36446 -2.68008 0
M  V30 4912 C 484.256 1.83334 -4.10632 0
M  V30 4913 C 483.026 1.65131 -4.77556 0
M  V30 4914 C 485.224 1.35153 -4.96224 0
M  V30 4915 N 483.206 1.06833 -6.04533 0
M  V30 4916 C 484.577 0.889186 -6.13591 0
M  V30 4917 C 486.632 1.23623 -4.82309 0
M  V30 4918 C 485.335 0.322953 -7.18575 0
M  V30 4919 C 487.361 0.683978 -5.87431 0
M  V30 4920 C 486.723 0.2318 -7.04018 0
M  V30 4921 H 482.822 0.453678 -0.636946 0
M  V30 4922 H 485.406 0.575217 -1.86009 0
M  V30 4923 H 483.577 3.03012 -2.42978 0
M  V30 4924 H 485.309 3.03485 -2.67729 0
M  V30 4925 H 482.064 1.89178 -4.34176 0
M  V30 4926 H 482.488 0.796425 -6.72299 0
M  V30 4927 H 487.13 1.57184 -3.92496 0
M  V30 4928 H 484.848 -0.024943 -8.08096 0
M  V30 4929 H 488.434 0.597694 -5.78722 0
M  V30 4930 H 487.314 -0.188869 -7.83973 0
M  V30 4931 N 484.817 1.37938 0.762283 0
M  V30 4932 C 486.065 1.33404 1.51815 0
M  V30 4933 C 486.386 -0.0780975 1.94844 0
M  V30 4934 O 485.656 -1.02405 1.67003 0
M  V30 4935 H 484.236 0.490839 0.563104 0
M  V30 4936 H 486.898 1.72527 0.906669 0
M  V30 4937 H 485.994 1.97926 2.41313 0
M  V30 4938 N 486.295 -0.989507 1.22664 0
M  V30 4939 C 487.543 -1.72612 1.05117 0
M  V30 4940 C 487.864 -1.90552 -0.414131 0
M  V30 4941 O 487.134 -1.4676 -1.29762 0
M  V30 4942 H 485.714 -0.639555 0.385977 0
M  V30 4943 H 488.376 -1.19158 1.54232 0
M  V30 4944 H 487.472 -2.71926 1.53175 0
M  V30 4945 N 487.773 -1.03688 -1.18687 0
M  V30 4946 C 489.001 -0.757918 -1.92518 0
M  V30 4947 C 489.416 0.684398 -1.75959 0
M  V30 4948 O 488.773 1.46617 -1.08673 0
M  V30 4949 C 488.824 -1.10985 -3.44042 0
M  V30 4950 O 488.545 -2.49554 -3.60076 0
M  V30 4951 C 490.046 -0.854844 -4.3498 0
M  V30 4952 H 487.266 -0.276699 -0.611293 0
M  V30 4953 H 489.81 -1.38352 -1.50595 0
M  V30 4954 H 487.965 -0.529279 -3.83767 0
M  V30 4955 H 488.379 -2.6291 -4.53849 0
M  V30 4956 H 489.853 -1.15098 -5.39867 0
M  V30 4957 H 490.33 0.210507 -4.38695 0
M  V30 4958 H 490.936 -1.41853 -4.00946 0
M  V30 4959 N 489.251 1.34841 -0.815825 0
M  V30 4960 C 490.181 2.32187 -0.247298 0
M  V30 4961 C 491.162 1.5791 0.632344 0
M  V30 4962 O 492.347 1.8593 0.560698 0
M  V30 4963 C 489.477 3.42122 0.597466 0
M  V30 4964 C 488.431 4.27602 -0.184446 0
M  V30 4965 C 487.757 5.28942 0.782609 0
M  V30 4966 C 489.057 5.03502 -1.38865 0
M  V30 4967 H 490.751 2.79985 -1.06061 0
M  V30 4968 H 488.297 1.34611 -0.511461 0
M  V30 4969 H 490.25 4.09232 1.00533 0
M  V30 4970 H 488.974 2.92956 1.44376 0
M  V30 4971 H 487.633 3.62085 -0.573592 0
M  V30 4972 H 487.281 4.7604 1.62466 0
M  V30 4973 H 486.981 5.87008 0.263695 0
M  V30 4974 H 488.505 5.98922 1.18848 0
M  V30 4975 H 489.919 5.63506 -1.05518 0
M  V30 4976 H 488.316 5.71108 -1.8427 0
M  V30 4977 H 489.386 4.33608 -2.17054 0
M  V30 4978 N 490.729 0.570148 1.46925 0
M  V30 4979 C 491.659 -0.158274 2.32963 0
M  V30 4980 C 492.64 -0.896093 1.44583 0
M  V30 4981 O 493.825 -0.874022 1.7342 0
M  V30 4982 C 490.955 -1.18055 3.26619 0
M  V30 4983 C 489.909 -0.558379 4.24342 0
M  V30 4984 C 489.235 -1.68623 5.07415 0
M  V30 4985 C 490.535 0.496295 5.19937 0
M  V30 4986 H 492.229 0.560046 2.94115 0
M  V30 4987 H 489.775 0.270775 1.41431 0
M  V30 4988 H 491.728 -1.69841 3.85658 0
M  V30 4989 H 490.452 -1.92899 2.63548 0
M  V30 4990 H 489.111 -0.0617157 3.66548 0
M  V30 4991 H 488.759 -2.42402 4.40738 0
M  V30 4992 H 488.459 -1.27564 5.73586 0
M  V30 4993 H 489.983 -2.20709 5.69315 0
M  V30 4994 H 491.397 0.0640052 5.73264 0
M  V30 4995 H 489.794 0.82649 5.94381 0
M  V30 4996 H 490.864 1.38735 4.6463 0
M  V30 4997 N 492.207 -1.54576 0.307264 0
M  V30 4998 C 493.453 -2.01272 -0.293453 0
M  V30 4999 C 493.808 -1.19178 -1.51044 0
M  V30 5000 O 493.101 -0.261704 -1.89804 0
M  V30 5001 C 493.295 -3.50572 -0.695253 0
M  V30 5002 C 493.124 -4.47118 0.481249 0
M  V30 5003 C 491.894 -4.958 0.97524 0
M  V30 5004 C 494.092 -4.96853 1.32823 0
M  V30 5005 N 492.074 -5.76212 2.11785 0
M  V30 5006 C 493.445 -5.75028 2.31824 0
M  V30 5007 C 495.5 -4.79026 1.35788 0
M  V30 5008 C 494.203 -6.37276 3.33574 0
M  V30 5009 C 496.229 -5.42097 2.364 0
M  V30 5010 C 495.591 -6.2011 3.34129 0
M  V30 5011 H 491.69 -0.778709 -0.0716705 0
M  V30 5012 H 494.274 -1.89695 0.438602 0
M  V30 5013 H 492.445 -3.62427 -1.39647 0
M  V30 5014 H 494.177 -3.84056 -1.27604 0
M  V30 5015 H 490.932 -4.70405 0.549184 0
M  V30 5016 H 491.356 -6.21101 2.69375 0
M  V30 5017 H 495.998 -4.18288 0.616021 0
M  V30 5018 H 493.716 -6.97144 4.08676 0
M  V30 5019 H 497.302 -5.30229 2.39475 0
M  V30 5020 H 496.182 -6.68049 4.10707 0
M  V30 5021 N 493.685 -0.035106 -1.57561 0
M  V30 5022 C 494.913 0.652258 -1.9635 0
M  V30 5023 C 495.328 1.65317 -0.911897 0
M  V30 5024 O 494.685 1.82194 0.105657 0
M  V30 5025 C 494.736 1.35337 -3.35211 0
M  V30 5026 O 494.457 0.392548 -4.36338 0
M  V30 5027 C 495.958 2.13199 -3.88666 0
M  V30 5028 H 493.178 0.179444 -0.646561 0
M  V30 5029 H 495.722 -0.0966459 -2.04271 0
M  V30 5030 H 493.877 2.05362 -3.28489 0
M  V30 5031 H 494.291 0.891097 -5.16875 0
M  V30 5032 H 495.765 2.577 -4.88154 0
M  V30 5033 H 496.242 2.97353 -3.23231 0
M  V30 5034 H 496.848 1.48118 -3.98674 0
M  V30 5035 O 495.202 1.61149 0.106394 0
M  V30 5036 H 495.893 1.7916 0.736293 0
M  V30 END ATOM
M  V30 BEGIN BOND
M  V30 END BOND
M  V30 END CTAB
M  END
$$$$
