drugbank_target|P11411 Glucose-6-phosphate 1-dehydrogenase (DB02338; DB03461; DB04122)
 OpenBabel12092119543D

  0  0  0     0  0            999 V3000
M  V30 BEGIN CTAB
M  V30 COUNTS 7566 7651 0 0 0
M  V30 BEGIN ATOM
M  V30 1 H -0.908 1.98254 -0.117106 0
M  V30 2 N 0 1.576 0 0
M  V30 3 C 0.933 2.03868 1.02534 0
M  V30 4 C 1.911 0.928543 1.3348 0
M  V30 5 O 3.095 1.19667 1.45644 0
M  V30 6 C 0.222 2.43627 2.35294 0
M  V30 7 C -0.732 3.65373 2.2001 0
M  V30 8 S 0.101 5.13292 1.52614 0
M  V30 9 C 1.257 5.56322 2.86805 0
M  V30 10 H 1.49 2.90518 0.631377 0
M  V30 11 H -0.977 1.52953 0.210867 0
M  V30 12 H 0.981 2.67203 3.11629 0
M  V30 13 H -0.358 1.57376 2.7183 0
M  V30 14 H -1.165 3.90944 3.18086 0
M  V30 15 H -1.563 3.418 1.51819 0
M  V30 16 H 0.729 5.58782 3.83104 0
M  V30 17 H 1.672 6.56266 2.65933 0
M  V30 18 H 2.08 4.83886 2.90714 0
M  V30 19 N 1.4781 -0.272755 1.55222 0
M  V30 20 C 2.7241 -1.00581 1.761 0
M  V30 21 C 3.0571 -1.85932 0.560625 0
M  V30 22 O 2.3321 -1.89416 -0.441801 0
M  V30 23 C 2.6151 -1.88816 3.06628 0
M  V30 24 C 2.4681 -1.06457 4.37021 0
M  V30 25 C 3.7871 -2.8752 3.33197 0
M  V30 26 H 0.9061 -0.364244 0.640699 0
M  V30 27 H 3.5481 -0.278189 1.87952 0
M  V30 28 H 1.6981 -2.50856 2.96654 0
M  V30 29 H 3.3701 -0.464863 4.58952 0
M  V30 30 H 1.6131 -0.368043 4.32236 0
M  V30 31 H 2.2841 -1.71514 5.24678 0
M  V30 32 H 4.7601 -2.35615 3.42965 0
M  V30 33 H 3.6361 -3.46399 4.25792 0
M  V30 34 H 3.8971 -3.62657 2.52849 0
M  V30 35 N 2.9562 -1.48159 -0.537278 0
M  V30 36 C 4.1812 -1.59707 -1.32319 0
M  V30 37 C 4.6062 -0.254859 -1.86365 0
M  V30 38 O 3.9642 0.772378 -1.64024 0
M  V30 39 C 4.0122 -2.6412 -2.45505 0
M  V30 40 O 3.1162 -2.20774 -3.48328 0
M  V30 41 H 2.4572 -0.535791 -0.392204 0
M  V30 42 H 4.9872 -1.94092 -0.647268 0
M  V30 43 H 4.9972 -2.85166 -2.91795 0
M  V30 44 H 3.6722 -3.61567 -2.05528 0
M  V30 45 H 2.2492 -2.09911 -3.08207 0
M  V30 46 N 4.4343 0.785586 -1.36625 0
M  V30 47 C 5.3443 1.92964 -1.33425 0
M  V30 48 C 6.3603 1.72394 -0.235851 0
M  V30 49 O 7.5363 1.95866 -0.468878 0
M  V30 50 C 4.6013 3.27884 -1.12662 0
M  V30 51 C 3.6623 3.61204 -2.32013 0
M  V30 52 C 2.8953 4.89687 -2.12231 0
M  V30 53 O 3.1183 5.59704 -1.09945 0
M  V30 54 O 2.0523 5.21752 -3.00098 0
M  V30 55 H 5.8783 1.98613 -2.29753 0
M  V30 56 H 3.4633 0.926384 -1.17211 0
M  V30 57 H 5.3453 4.08614 -1.03016 0
M  V30 58 H 4.0203 3.23118 -0.193991 0
M  V30 59 H 2.9273 2.80765 -2.47228 0
M  V30 60 H 4.2603 3.70698 -3.23796 0
M  V30 61 N 5.9124 1.20967 1.01018 0
M  V30 62 C 7.1614 1.01796 1.74128 0
M  V30 63 C 7.4744 -0.449691 1.90361 0
M  V30 64 O 8.6804 -0.76068 2.60626 0
M  V30 65 C 7.1364 1.7727 3.13215 0
M  V30 66 C 6.7444 3.28171 3.04972 0
M  V30 67 C 8.4884 1.66489 3.90489 0
M  V30 68 C 6.3954 3.96156 4.39107 0
M  V30 69 H 5.3254 0.377276 0.652824 0
M  V30 70 H 7.9764 1.44651 1.12909 0
M  V30 71 H 6.3584 1.27205 3.75013 0
M  V30 72 H 7.5324 3.85499 2.52443 0
M  V30 73 H 5.8474 3.39437 2.41188 0
M  V30 74 H 8.4444 2.14617 4.89738 0
M  V30 75 H 8.7874 0.6222 4.11624 0
M  V30 76 H 9.3204 2.14003 3.35332 0
M  V30 77 H 6.0594 5.00604 4.23174 0
M  V30 78 H 5.5794 3.43617 4.91617 0
M  V30 79 H 7.2584 4.00774 5.07926 0
M  V30 80 N 7.3905 -1.2043 1.01659 0
M  V30 81 C 8.3375 -2.23215 0.586822 0
M  V30 82 C 9.3075 -1.61382 -0.393085 0
M  V30 83 O 10.4925 -1.88544 -0.292525 0
M  V30 84 C 7.6325 -3.45032 -0.0687464 0
M  V30 85 C 6.7455 -4.21296 0.955724 0
M  V30 86 C 5.8805 -5.30507 0.271208 0
M  V30 87 C 4.9195 -5.98515 1.28244 0
M  V30 88 N 4.0565 -6.99316 0.62459 0
M  V30 89 H 8.8965 -2.59336 1.46796 0
M  V30 90 H 6.4335 -1.27431 0.734836 0
M  V30 91 H 8.3915 -4.1459 -0.465965 0
M  V30 92 H 7.0215 -3.09604 -0.913529 0
M  V30 93 H 6.0735 -3.50803 1.4711 0
M  V30 94 H 7.3855 -4.6803 1.72479 0
M  V30 95 H 6.5395 -6.06428 -0.18151 0
M  V30 96 H 5.2785 -4.8481 -0.530163 0
M  V30 97 H 4.2835 -5.21355 1.74554 0
M  V30 98 H 5.5085 -6.46298 2.08509 0
M  V30 99 H 3.4545 -6.55812 -0.156914 0
M  V30 100 H 3.3715 -7.44178 1.33172 0
M  V30 101 H 4.6395 -7.79255 0.195462 0
M  V30 102 N 8.8686 -0.792821 -1.36206 0
M  V30 103 C 10.0966 -0.378825 -2.03402 0
M  V30 104 C 10.5116 1.00586 -1.59774 0
M  V30 105 O 9.8686 1.64574 -0.788764 0
M  V30 106 C 9.9196 -0.43683 -3.58851 0
M  V30 107 O 9.6406 -1.76691 -4.00889 0
M  V30 108 C 11.1416 -0.0138943 -4.43298 0
M  V30 109 H 8.3616 -0.155673 -0.652692 0
M  V30 110 H 10.9056 -1.07261 -1.74113 0
M  V30 111 H 9.0606 0.208575 -3.86838 0
M  V30 112 H 9.4746 -1.72011 -4.95492 0
M  V30 113 H 10.9486 -0.105615 -5.51899 0
M  V30 114 H 11.4256 1.03915 -4.2673 0
M  V30 115 H 12.0316 -0.63192 -4.20579 0
M  V30 116 N 10.3467 1.47872 -0.545128 0
M  V30 117 C 11.2767 2.32661 0.197793 0
M  V30 118 C 12.2577 1.43041 0.920504 0
M  V30 119 O 13.4427 1.71912 0.90333 0
M  V30 120 C 10.5727 3.24569 1.23582 0
M  V30 121 C 9.5267 4.23333 0.630323 0
M  V30 122 C 8.8527 5.0448 1.77211 0
M  V30 123 C 10.1527 5.20704 -0.407974 0
M  V30 124 H 11.8467 2.95024 -0.510045 0
M  V30 125 H 9.3927 1.4187 -0.246731 0
M  V30 126 H 11.3457 3.8272 1.76362 0
M  V30 127 H 10.0697 2.60236 1.97344 0
M  V30 128 H 8.7287 3.6639 0.123922 0
M  V30 129 H 8.3767 4.36561 2.49847 0
M  V30 130 H 8.0767 5.71339 1.37281 0
M  V30 131 H 9.6007 5.65487 2.3034 0
M  V30 132 H 11.0147 5.7329 0.033305 0
M  V30 133 H 9.4117 5.95699 -0.725486 0
M  V30 134 H 10.4817 4.66917 -1.30828 0
M  V30 135 N 11.8248 0.280983 1.55075 0
M  V30 136 C 13.0708 -0.33461 2.00021 0
M  V30 137 C 13.4038 -1.55063 1.16915 0
M  V30 138 O 12.6788 -1.93006 0.240646 0
M  V30 139 C 12.9618 -0.711007 3.53011 0
M  V30 140 C 12.8148 0.512766 4.46868 0
M  V30 141 C 14.1338 -1.54522 4.12081 0
M  V30 142 H 11.2528 -0.120147 0.727141 0
M  V30 143 H 13.8948 0.389097 1.85973 0
M  V30 144 H 12.0448 -1.32761 3.65112 0
M  V30 145 H 13.7168 1.15131 4.46702 0
M  V30 146 H 11.9598 1.14975 4.18286 0
M  V30 147 H 12.6308 0.205556 5.51617 0
M  V30 148 H 15.1068 -1.02442 4.03293 0
M  V30 149 H 13.9828 -1.77739 5.19327 0
M  V30 150 H 14.2438 -2.52813 3.62682 0
M  V30 151 N 13.3029 -1.57598 0.00835791 0
M  V30 152 C 14.5309 -1.95214 -0.68549 0
M  V30 153 C 14.9459 -0.883706 -1.66841 0
M  V30 154 O 14.3029 0.136565 -1.81988 0
M  V30 155 C 14.3539 -3.32865 -1.41007 0
M  V30 156 O 14.0749 -4.35609 -0.466552 0
M  V30 157 C 15.5759 -3.84991 -2.19765 0
M  V30 158 H 12.7959 -0.643422 -0.190392 0
M  V30 159 H 15.3399 -2.04406 0.0619607 0
M  V30 160 H 13.4949 -3.24956 -2.10908 0
M  V30 161 H 13.9089 -5.15288 -0.978699 0
M  V30 162 H 15.3829 -4.8371 -2.65948 0
M  V30 163 H 15.8599 -3.18137 -3.02796 0
M  V30 164 H 16.4659 -3.96103 -1.54864 0
M  V30 165 N 14.781 0.264519 -1.55364 0
M  V30 166 C 16.028 0.994986 -1.7637 0
M  V30 167 C 16.356 1.85976 -0.5695 0
M  V30 168 O 15.611 1.90509 0.44776 0
M  V30 169 C 15.91 1.9004 -3.02687 0
M  V30 170 C 15.576 1.19243 -4.34847 0
M  V30 171 C 14.238 0.996709 -4.70764 0
M  V30 172 C 16.59 0.689296 -5.16622 0
M  V30 173 C 13.918 0.285261 -5.86006 0
M  V30 174 C 16.27 -0.00860079 -6.32599 0
M  V30 175 C 14.934 -0.215963 -6.67151 0
M  V30 176 H 14.204 0.364091 -0.645383 0
M  V30 177 H 16.851 0.266543 -1.89636 0
M  V30 178 H 15.156 2.69533 -2.84357 0
M  V30 179 H 16.853 2.46695 -3.16137 0
M  V30 180 H 13.443 1.3549 -4.06621 0
M  V30 181 H 17.627 0.828108 -4.89342 0
M  V30 182 H 12.883 0.113961 -6.11294 0
M  V30 183 H 17.057 -0.406186 -6.95214 0
M  V30 184 H 14.684 -0.769217 -7.56298 0
M  V30 185 N 16.2591 1.48442 0.529413 0
M  V30 186 C 17.5061 1.56488 1.28521 0
M  V30 187 C 17.8341 0.239042 1.93025 0
M  V30 188 O 17.0891 -0.770713 1.79885 0
M  V30 189 C 17.3881 2.6523 2.39558 0
M  V30 190 C 17.0541 4.07648 1.92702 0
M  V30 191 C 15.7161 4.46411 1.79641 0
M  V30 192 C 18.0681 4.96896 1.573 0
M  V30 193 C 15.3961 5.72226 1.29514 0
M  V30 194 C 17.7481 6.23202 1.08636 0
M  V30 195 C 16.4121 6.60821 0.941919 0
M  V30 196 H 15.6821 0.572631 0.470292 0
M  V30 197 H 18.3291 1.82161 0.59072 0
M  V30 198 H 16.6341 2.33419 3.14679 0
M  V30 199 H 18.3311 2.68671 2.97686 0
M  V30 200 H 14.9211 3.77036 2.03819 0
M  V30 201 H 19.1051 4.67626 1.66251 0
M  V30 202 H 14.3611 6.00097 1.17019 0
M  V30 203 H 18.5351 6.91753 0.803136 0
M  V30 204 H 16.1621 7.58198 0.5513 0
M  V30 205 N 17.7372 -0.778329 1.37039 0
M  V30 206 C 18.9852 -1.53361 1.31623 0
M  V30 207 C 19.3062 -1.94739 -0.100831 0
M  V30 208 O 18.5762 -1.65797 -1.04347 0
M  V30 209 H 17.1562 -0.568794 0.484234 0
M  V30 210 H 19.8182 -0.926742 1.71457 0
M  V30 211 H 18.9142 -2.43606 1.95096 0
M  V30 212 N 19.2153 -1.21501 -1.00376 0
M  V30 213 C 20.4633 -1.03095 -1.73827 0
M  V30 214 C 20.7843 0.436341 -1.90055 0
M  V30 215 O 20.0543 1.31466 -1.45236 0
M  V30 216 H 18.6343 -0.378487 -0.644016 0
M  V30 217 H 21.2963 -1.52831 -1.20949 0
M  V30 218 H 20.3923 -1.49991 -2.73695 0
M  V30 219 N 20.6934 1.19889 -1.02296 0
M  V30 220 C 21.9214 1.9339 -0.735399 0
M  V30 221 C 22.3364 1.75148 0.704887 0
M  V30 222 O 21.6934 1.06954 1.47875 0
M  V30 223 C 21.7444 3.45313 -1.06962 0
M  V30 224 O 21.4654 3.62964 -2.45334 0
M  V30 225 C 22.9664 4.35948 -0.804021 0
M  V30 226 H 20.1864 0.61448 -0.269546 0
M  V30 227 H 22.7304 1.522 -1.36585 0
M  V30 228 H 20.8854 3.84359 -0.484455 0
M  V30 229 H 21.2994 4.56886 -2.57595 0
M  V30 230 H 22.7734 5.41174 -1.0879 0
M  V30 231 H 23.2504 4.3842 0.261691 0
M  V30 232 H 23.8564 4.02574 -1.37164 0
M  V30 233 N 22.1715 0.800033 1.35784 0
M  V30 234 C 23.4195 0.376597 1.9856 0
M  V30 235 C 23.7405 -1.05812 1.63795 0
M  V30 236 O 23.0105 -1.73103 0.917171 0
M  V30 237 H 21.5905 0.136261 0.734467 0
M  V30 238 H 24.2525 1.02442 1.65806 0
M  V30 239 H 23.3485 0.477002 3.08433 0
M  V30 240 N 23.6496 -1.47581 0.552962 0
M  V30 241 C 24.9266 -1.95563 -0.0381515 0
M  V30 242 C 25.3066 -1.49552 -1.48988 0
M  V30 243 O 24.6546 -0.732414 -2.16444 0
M  V30 244 C 24.8646 -3.48848 0.102919 0
M  V30 245 C 26.2126 -4.24577 -0.0446082 0
M  V30 246 O 27.2366 -3.56187 0.0302548 0
M  V30 247 O 26.0956 -5.46116 -0.204923 0
M  V30 248 H 23.1896 -0.824321 -0.0665067 0
M  V30 249 H 25.7356 -1.58001 0.619186 0
M  V30 250 H 24.5076 -3.75129 1.11328 0
M  V30 251 H 24.1306 -3.93165 -0.592224 0
M  V30 252 N 25.1277 -0.289203 -1.54924 0
M  V30 253 C 26.0577 0.58549 -2.2604 0
M  V30 254 C 27.0387 1.14753 -1.25562 0
M  V30 255 O 28.2237 1.17906 -1.54311 0
M  V30 256 C 25.3537 1.76305 -2.99222 0
M  V30 257 C 24.3077 1.33191 -4.06748 0
M  V30 258 C 23.6337 2.5937 -4.6758 0
M  V30 259 C 24.9337 0.471775 -5.20165 0
M  V30 260 H 26.6277 -0.00763532 -2.99399 0
M  V30 261 H 24.1737 -0.00511229 -1.43999 0
M  V30 262 H 26.1267 2.38097 -3.47689 0
M  V30 263 H 24.8507 2.38223 -2.23422 0
M  V30 264 H 23.5097 0.737121 -3.59113 0
M  V30 265 H 23.1577 3.19576 -3.88433 0
M  V30 266 H 22.8577 2.31228 -5.40192 0
M  V30 267 H 24.3817 3.21985 -5.18804 0
M  V30 268 H 25.7957 0.995056 -5.64599 0
M  V30 269 H 24.1927 0.284639 -5.99425 0
M  V30 270 H 25.2627 -0.506041 -4.82252 0
M  V30 271 N 26.6058 1.57591 -0.0167156 0
M  V30 272 C 27.5688 2.08393 0.954204 0
M  V30 273 C 28.5688 0.996531 1.26198 0
M  V30 274 O 29.7588 1.25858 1.20438 0
M  V30 275 C 26.8908 2.5394 2.27436 0
M  V30 276 H 28.0838 2.95455 0.514451 0
M  V30 277 H 25.6368 1.54582 0.231089 0
M  V30 278 H 26.3718 1.70171 2.76066 0
M  V30 279 H 26.1568 3.33371 2.06412 0
M  V30 280 H 27.6468 2.93512 2.97053 0
M  V30 281 N 28.0839 -0.256276 1.55502 0
M  V30 282 C 29.0309 -1.31714 1.89526 0
M  V30 283 C 30.0009 -1.4828 0.748479 0
M  V30 284 O 31.1859 -1.62416 1.00128 0
M  V30 285 C 28.3259 -2.66933 2.18725 0
M  V30 286 C 27.4389 -2.58452 3.4616 0
M  V30 287 C 26.5739 -3.85961 3.64976 0
M  V30 288 C 25.6129 -3.72059 4.86044 0
M  V30 289 N 24.7499 -4.9144 5.01429 0
M  V30 290 H 29.5899 -1.01998 2.80001 0
M  V30 291 H 27.1269 -0.492413 1.38613 0
M  V30 292 H 29.0849 -3.4563 2.33657 0
M  V30 293 H 27.7149 -2.94816 1.31466 0
M  V30 294 H 26.7669 -1.71374 3.3961 0
M  V30 295 H 28.0789 -2.44085 4.34999 0
M  V30 296 H 27.2329 -4.73101 3.79816 0
M  V30 297 H 25.9719 -4.03215 2.74353 0
M  V30 298 H 24.9769 -2.83302 4.7119 0
M  V30 299 H 26.2019 -3.56309 5.78118 0
M  V30 300 H 24.1479 -5.09072 4.13741 0
M  V30 301 H 24.0649 -4.79668 5.84341 0
M  V30 302 H 25.3329 -5.80104 5.20672 0
M  V30 303 N 29.562 -1.4872 -0.521534 0
M  V30 304 C 30.978 -1.35028 -0.850855 0
M  V30 305 C 31.178 -0.367712 -1.98116 0
M  V30 306 O 30.234 0.208037 -2.51642 0
M  V30 307 C 31.547 -2.75263 -1.21041 0
M  V30 308 C 33.095 -2.83813 -1.31981 0
M  V30 309 C 33.57 -4.24769 -1.71276 0
M  V30 310 N 35.061 -4.27482 -1.78363 0
M  V30 311 C 35.796 -5.33494 -2.1017 0
M  V30 312 N 35.292 -6.49775 -2.40343 0
M  V30 313 N 37.085 -5.20894 -2.11248 0
M  V30 314 H 29.236 -2.11214 0.22413 0
M  V30 315 H 31.499 -0.947252 0.0376439 0
M  V30 316 H 31.205 -3.48765 -0.453415 0
M  V30 317 H 31.079 -3.09327 -2.15863 0
M  V30 318 H 33.466 -2.10561 -2.06756 0
M  V30 319 H 33.547 -2.53358 -0.352596 0
M  V30 320 H 33.191 -4.9854 -0.970588 0
M  V30 321 H 33.121 -4.52673 -2.69062 0
M  V30 322 H 35.612 -3.43611 -1.57288 0
M  V30 323 H 35.925 -7.26402 -2.63743 0
M  V30 324 H 34.27 -6.53035 -2.37844 0
M  V30 325 H 37.461 -4.29065 -1.87139 0
M  V30 326 H 37.634 -6.03612 -2.35704 0
M  V30 327 N 31.0401 0.771051 -1.3745 0
M  V30 328 C 31.9871 1.88435 -1.3327 0
M  V30 329 C 32.9571 1.64914 -0.198136 0
M  V30 330 O 34.1421 1.86821 -0.387606 0
M  V30 331 C 31.2821 3.25509 -1.14622 0
M  V30 332 C 30.3951 3.60979 -2.37314 0
M  V30 333 C 29.5301 4.87265 -2.11533 0
M  V30 334 C 28.5691 5.15469 -3.30088 0
M  V30 335 N 27.7061 6.32944 -3.03853 0
M  V30 336 H 32.5461 1.91344 -2.28455 0
M  V30 337 H 30.0831 0.935466 -1.13523 0
M  V30 338 H 32.0411 4.04582 -1.01831 0
M  V30 339 H 30.6711 3.21974 -0.230837 0
M  V30 340 H 29.7231 2.76885 -2.60842 0
M  V30 341 H 31.0351 3.77759 -3.25729 0
M  V30 342 H 30.1891 5.74244 -1.95777 0
M  V30 343 H 28.9281 4.7259 -1.20457 0
M  V30 344 H 27.9331 4.26966 -3.46382 0
M  V30 345 H 29.1581 5.32052 -4.22016 0
M  V30 346 H 27.1041 6.19625 -2.15407 0
M  V30 347 H 27.0211 6.50143 -3.85812 0
M  V30 348 H 28.2891 7.22857 -2.91716 0
M  V30 349 N 32.5182 1.22032 0.997298 0
M  V30 350 C 33.4482 1.01065 2.10495 0
M  V30 351 C 34.4292 -0.0669542 1.69968 0
M  V30 352 O 35.6142 0.0943987 1.9397 0
M  V30 353 C 32.7442 0.582874 3.42374 0
M  V30 354 C 31.6982 1.60592 3.96729 0
M  V30 355 C 31.0242 1.03412 5.24605 0
M  V30 356 C 32.3242 2.99478 4.27914 0
M  V30 357 H 34.0182 1.93708 2.28292 0
M  V30 358 H 31.5642 0.932761 1.09707 0
M  V30 359 H 33.5172 0.423332 4.19268 0
M  V30 360 H 32.2412 -0.379213 3.24391 0
M  V30 361 H 30.9002 1.75316 3.21963 0
M  V30 362 H 30.5482 0.063518 5.0296 0
M  V30 363 H 30.2482 1.71754 5.61938 0
M  V30 364 H 31.7722 0.886066 6.04137 0
M  V30 365 H 33.1862 2.88153 4.95622 0
M  V30 366 H 31.5832 3.64903 4.76409 0
M  V30 367 H 32.6532 3.49742 3.3587 0
M  V30 368 N 33.9963 -1.19345 1.0293 0
M  V30 369 C 35.2263 -1.92717 0.744563 0
M  V30 370 C 35.6343 -1.75751 -0.700579 0
M  V30 371 O 34.9773 -1.07703 -1.48815 0
M  V30 372 C 35.0393 -3.44828 1.01657 0
M  V30 373 C 34.7033 -3.85564 2.45335 0
M  V30 374 C 35.7003 -3.90286 3.43472 0
M  V30 375 C 33.3853 -4.1719 2.79746 0
M  V30 376 C 35.3793 -4.26065 4.74075 0
M  V30 377 C 33.0663 -4.52642 4.10559 0
M  V30 378 C 34.0643 -4.57054 5.07534 0
M  V30 379 O 33.7523 -4.91685 6.36004 0
M  V30 380 H 33.4843 -0.618977 0.271742 0
M  V30 381 H 36.0383 -1.52415 1.37691 0
M  V30 382 H 34.2683 -3.85314 0.327084 0
M  V30 383 H 35.9573 -3.99437 0.721427 0
M  V30 384 H 36.7233 -3.66002 3.18225 0
M  V30 385 H 32.6023 -4.1294 2.04943 0
M  V30 386 H 36.1463 -4.29423 5.49765 0
M  V30 387 H 32.0433 -4.76383 4.35579 0
M  V30 388 H 32.8113 -5.09631 6.40483 0
M  V30 389 N 35.4744 -0.807222 -1.35358 0
M  V30 390 C 36.8854 -0.44876 -1.81226 0
M  V30 391 C 37.2364 1.02929 -1.67033 0
M  V30 392 O 36.3614 1.79991 -1.20133 0
M  V30 393 C 36.9564 -0.807774 -3.2903 0
M  V30 394 C 35.5154 -0.501901 -3.73039 0
M  V30 395 C 34.6624 -1.03304 -2.57339 0
M  V30 396 H 37.6134 -0.998808 -1.23327 0
M  V30 397 H 37.6344 -0.10554 -3.80354 0
M  V30 398 H 37.1464 -1.88357 -3.39328 0
M  V30 399 H 35.2474 0.565128 -3.68289 0
M  V30 400 H 35.3604 -1.03497 -4.67787 0
M  V30 401 H 33.7244 -0.455339 -2.50597 0
M  V30 402 H 34.5074 -2.11496 -2.70415 0
M  V30 403 N 36.9525 1.47285 -0.560781 0
M  V30 404 C 38.1775 2.07359 -0.0410566 0
M  V30 405 C 38.6025 1.41017 1.24483 0
M  V30 406 O 37.9605 0.486368 1.74654 0
M  V30 407 C 38.0085 3.6035 0.134123 0
M  V30 408 O 37.1125 3.94681 1.19587 0
M  V30 409 H 36.4535 0.661887 -0.0529291 0
M  V30 410 H 38.9835 1.89252 -0.777482 0
M  V30 411 H 38.9935 4.0652 0.347207 0
M  V30 412 H 37.6685 4.08034 -0.805047 0
M  V30 413 H 36.2455 3.60251 0.962987 0
M  V30 414 N 38.4306 0.297415 1.54768 0
M  V30 415 C 39.6766 -0.313376 2.00364 0
M  V30 416 C 40.0096 -1.53815 1.18553 0
M  V30 417 O 39.2846 -1.92739 0.261103 0
M  V30 418 C 39.5676 -0.673525 3.53745 0
M  V30 419 C 39.4206 0.560133 4.46299 0
M  V30 420 C 40.7396 -1.50143 4.13697 0
M  V30 421 H 37.8586 -0.112428 0.728374 0
M  V30 422 H 40.5006 0.4088 1.8555 0
M  V30 423 H 38.6506 -1.28881 3.665 0
M  V30 424 H 40.3226 1.19863 4.45455 0
M  V30 425 H 38.5656 1.19405 4.17043 0
M  V30 426 H 39.2366 0.26405 5.51368 0
M  V30 427 H 41.7126 -0.981588 4.04356 0
M  V30 428 H 40.5886 -1.72221 5.21182 0
M  V30 429 H 40.8496 -2.48952 3.65343 0
M  V30 430 N 39.9087 -1.5758 0.0250728 0
M  V30 431 C 41.1557 -1.91633 -0.654444 0
M  V30 432 C 41.4837 -0.901103 -1.72367 0
M  V30 433 O 40.7387 0.0905647 -1.9549 0
M  V30 434 C 41.0377 -3.32421 -1.31268 0
M  V30 435 C 40.7037 -4.49344 -0.374223 0
M  V30 436 C 39.3657 -4.8106 -0.115911 0
M  V30 437 C 41.7177 -5.20498 0.270432 0
M  V30 438 C 39.0457 -5.8129 0.79493 0
M  V30 439 C 41.3977 -6.21699 1.1693 0
M  V30 440 C 40.0617 -6.51859 1.43655 0
M  V30 441 H 39.3317 -0.701236 -0.239478 0
M  V30 442 H 41.9787 -1.91307 0.0859734 0
M  V30 443 H 40.2837 -3.28989 -2.12775 0
M  V30 444 H 41.9807 -3.56038 -1.84494 0
M  V30 445 H 38.5707 -4.24579 -0.58573 0
M  V30 446 H 42.7547 -4.96229 0.0839194 0
M  V30 447 H 38.0107 -6.03005 1.00973 0
M  V30 448 H 42.1847 -6.75955 1.67504 0
M  V30 449 H 39.8117 -7.2934 2.144 0
M  V30 450 N 41.3868 0.248026 -1.55636 0
M  V30 451 C 42.3348 1.32683 -1.91045 0
M  V30 452 C 43.3288 1.49883 -0.789401 0
M  V30 453 O 44.5348 1.51371 -0.974007 0
M  V30 454 H 40.9098 0.444272 -0.606734 0
M  V30 455 H 42.8808 1.00085 -2.81115 0
M  V30 456 C 41.6298 2.6755 -2.22064 0
M  V30 457 H 40.9528 2.55114 -3.07826 0
M  V30 458 H 42.3928 3.41912 -2.50743 0
M  V30 459 C 40.8518 3.20556 -1.0366 0
M  V30 460 O 41.3818 4.00695 -0.284016 0
M  V30 461 N 39.5878 2.78568 -0.82753 0
M  V30 462 H 39.1348 2.1351 -1.44123 0
M  V30 463 H 39.0928 3.14378 -0.0369803 0
M  V30 464 N 42.8649 1.48995 0.513639 0
M  V30 465 C 43.7949 1.67636 1.62544 0
M  V30 466 C 44.7759 0.525087 1.61793 0
M  V30 467 O 45.9609 0.759502 1.78732 0
M  V30 468 C 43.0909 1.73114 3.01079 0
M  V30 469 C 42.0449 2.87905 3.16693 0
M  V30 470 C 41.3709 2.78486 4.56453 0
M  V30 471 C 42.6709 4.29005 2.97913 0
M  V30 472 H 44.3649 2.60716 1.47198 0
M  V30 473 H 41.9109 1.25465 0.706714 0
M  V30 474 H 43.8639 1.84742 3.78746 0
M  V30 475 H 42.5879 0.766241 3.17484 0
M  V30 476 H 41.2469 2.75859 2.41448 0
M  V30 477 H 40.8949 1.7993 4.69717 0
M  V30 478 H 40.5949 3.55523 4.67843 0
M  V30 479 H 42.1189 2.92104 5.36197 0
M  V30 480 H 43.5329 4.41798 3.65359 0
M  V30 481 H 41.9299 5.07166 3.20785 0
M  V30 482 H 42.9999 4.44329 1.94165 0
M  V30 483 N 44.343 -0.763751 1.37857 0
M  V30 484 C 45.573 -1.55067 1.3652 0
M  V30 485 C 45.981 -1.89135 -0.0494227 0
M  V30 486 O 45.324 -1.52529 -1.02375 0
M  V30 487 C 45.386 -2.8838 2.14656 0
M  V30 488 C 45.05 -2.76905 3.63555 0
M  V30 489 C 46.047 -2.4739 4.57268 0
M  V30 490 C 43.732 -2.94676 4.06781 0
M  V30 491 C 45.726 -2.35786 5.92186 0
M  V30 492 C 43.413 -2.82692 5.41782 0
M  V30 493 C 44.411 -2.53289 6.34298 0
M  V30 494 O 44.099 -2.41345 7.66817 0
M  V30 495 H 43.831 -0.486776 0.469069 0
M  V30 496 H 46.385 -0.953812 1.81911 0
M  V30 497 H 44.615 -3.50217 1.63967 0
M  V30 498 H 46.304 -3.49828 2.05852 0
M  V30 499 H 47.07 -2.33339 4.2518 0
M  V30 500 H 42.949 -3.16563 3.35126 0
M  V30 501 H 46.493 -2.12757 6.64365 0
M  V30 502 H 42.39 -2.96314 5.7347 0
M  V30 503 H 43.158 -2.56634 7.77226 0
M  V30 504 N 45.8211 -1.22559 -0.990812 0
M  V30 505 C 46.7681 -0.997519 -2.0813 0
M  V30 506 C 47.7381 0.0814702 -1.659 0
M  V30 507 O 48.9231 -0.0685424 -1.90677 0
M  V30 508 C 46.0631 -0.583615 -3.40129 0
M  V30 509 C 45.1761 -1.7336 -3.9569 0
M  V30 510 C 44.3111 -1.26748 -5.15857 0
M  V30 511 C 43.3501 -2.38888 -5.63559 0
M  V30 512 N 42.4871 -1.93308 -6.74964 0
M  V30 513 H 47.3271 -1.93099 -2.26973 0
M  V30 514 H 44.8641 -0.962114 -1.11273 0
M  V30 515 H 46.8221 -0.324801 -4.15934 0
M  V30 516 H 45.4521 0.312845 -3.2128 0
M  V30 517 H 44.5041 -2.10669 -3.16738 0
M  V30 518 H 45.8161 -2.57704 -4.27071 0
M  V30 519 H 44.9701 -0.966173 -5.98957 0
M  V30 520 H 43.7091 -0.394272 -4.86104 0
M  V30 521 H 42.7141 -2.69805 -4.79046 0
M  V30 522 H 43.9391 -3.26728 -5.95336 0
M  V30 523 H 41.8851 -1.08352 -6.4699 0
M  V30 524 H 41.8021 -2.71217 -7.05675 0
M  V30 525 H 43.0701 -1.66252 -7.61564 0
M  V30 526 N 47.2992 1.18797 -1.03562 0
M  V30 527 C 48.2462 2.22253 -0.622259 0
M  V30 528 C 49.2162 1.61987 0.36736 0
M  V30 529 O 50.4012 1.88986 0.262492 0
M  V30 530 C 47.5412 3.45097 0.0138462 0
M  V30 531 C 46.6542 4.19722 -1.02263 0
M  V30 532 C 45.7892 5.30009 -0.355573 0
M  V30 533 C 44.8282 5.96399 -1.37749 0
M  V30 534 N 43.9652 6.98234 -0.735766 0
M  V30 535 H 48.8052 2.56968 -1.50903 0
M  V30 536 H 46.3422 1.26245 -0.755017 0
M  V30 537 H 48.3002 4.15279 0.399948 0
M  V30 538 H 46.9302 3.11018 0.864158 0
M  V30 539 H 45.9822 3.48418 -1.52673 0
M  V30 540 H 47.2942 4.65227 -1.79903 0
M  V30 541 H 46.4482 6.0664 0.0850095 0
M  V30 542 H 45.1872 4.85592 0.452967 0
M  V30 543 H 44.1922 5.18512 -1.82826 0
M  V30 544 H 45.4172 6.42899 -2.18764 0
M  V30 545 H 43.3632 6.55979 0.0525597 0
M  V30 546 H 43.2802 7.41965 -1.44995 0
M  V30 547 H 44.5482 7.78845 -0.31941 0
M  V30 548 N 48.7773 0.814389 1.34928 0
M  V30 549 C 50.0253 0.397636 1.9815 0
M  V30 550 C 50.3463 -1.04069 1.64908 0
M  V30 551 O 49.6163 -1.72121 0.93548 0
M  V30 552 H 48.1963 0.144043 0.732981 0
M  V30 553 H 50.8583 1.04195 1.6471 0
M  V30 554 H 49.9543 0.509688 3.0791 0
M  V30 555 N 50.2554 -1.46986 0.568584 0
M  V30 556 C 51.4854 -2.0653 0.0539173 0
M  V30 557 C 51.8934 -1.42004 -1.25026 0
M  V30 558 O 51.2364 -0.514541 -1.76347 0
M  V30 559 C 51.2984 -3.58938 -0.200854 0
M  V30 560 C 50.9624 -4.45572 1.01559 0
M  V30 561 C 51.9594 -4.82986 1.92407 0
M  V30 562 C 49.6444 -4.8692 1.23346 0
M  V30 563 C 51.6384 -5.60559 3.03402 0
M  V30 564 C 49.3254 -5.64255 2.34649 0
M  V30 565 C 50.3234 -6.00986 3.24507 0
M  V30 566 O 50.0114 -6.76761 4.33878 0
M  V30 567 H 49.7434 -0.674292 0.0480234 0
M  V30 568 H 52.2974 -1.89812 0.784896 0
M  V30 569 H 50.5274 -3.73911 -0.986279 0
M  V30 570 H 52.2164 -4.0046 -0.662294 0
M  V30 571 H 52.9824 -4.51633 1.76785 0
M  V30 572 H 48.8614 -4.57789 0.543178 0
M  V30 573 H 52.4054 -5.89147 3.73565 0
M  V30 574 H 48.3024 -5.95021 2.5024 0
M  V30 575 H 49.0704 -6.95168 4.32068 0
M  V30 576 N 51.7335 -0.305618 -1.54608 0
M  V30 577 C 52.6635 0.561482 -2.26649 0
M  V30 578 C 53.6445 1.13415 -1.26772 0
M  V30 579 O 54.8295 1.16262 -1.55553 0
M  V30 580 C 51.9595 1.73122 -3.01075 0
M  V30 581 C 50.9135 1.2887 -4.08138 0
M  V30 582 C 50.2395 2.54396 -4.70305 0
M  V30 583 C 51.5395 0.416578 -5.20636 0
M  V30 584 H 53.2335 -0.0393902 -2.99374 0
M  V30 585 H 50.7795 -0.020385 -1.43986 0
M  V30 586 H 52.7325 2.34396 -3.50195 0
M  V30 587 H 51.4565 2.3584 -2.25936 0
M  V30 588 H 50.1155 0.698991 -3.59875 0
M  V30 589 H 49.7635 3.15439 -3.918 0
M  V30 590 H 49.4635 2.25486 -5.42614 0
M  V30 591 H 50.9875 3.16464 -5.2219 0
M  V30 592 H 52.4015 0.935116 -5.65622 0
M  V30 593 H 50.7985 0.221046 -5.99693 0
M  V30 594 H 51.8685 -0.557162 -4.81688 0
M  V30 595 N 53.2116 1.57565 -0.0334293 0
M  V30 596 C 54.1436 2.0739 0.975811 0
M  V30 597 C 55.1566 0.998166 1.2861 0
M  V30 598 O 56.3456 1.27426 1.25 0
M  V30 599 C 53.4456 2.4871 2.30209 0
M  V30 600 C 52.6186 3.79413 2.17634 0
M  V30 601 C 51.6776 4.07237 3.33233 0
M  V30 602 O 50.7036 4.77425 3.09927 0
M  V30 603 N 51.9056 3.5775 4.5716 0
M  V30 604 H 54.6706 2.94598 0.55066 0
M  V30 605 H 52.2316 1.61173 0.15323 0
M  V30 606 H 54.2236 2.64413 3.06378 0
M  V30 607 H 52.7936 1.66845 2.64351 0
M  V30 608 H 52.0136 3.73465 1.26165 0
M  V30 609 H 53.3016 4.65038 2.0644 0
M  V30 610 H 52.6996 3.00976 4.78989 0
M  V30 611 H 51.2566 3.78724 5.30482 0
M  V30 612 N 54.6897 -0.239769 1.55765 0
M  V30 613 C 55.6367 -1.29696 1.90913 0
M  V30 614 C 56.6067 -1.47478 0.764164 0
M  V30 615 O 57.7917 -1.61345 1.01845 0
M  V30 616 C 54.9317 -2.64598 2.21544 0
M  V30 617 C 54.0447 -2.54765 3.48882 0
M  V30 618 C 53.1797 -3.82069 3.69049 0
M  V30 619 C 52.2187 -3.66883 4.89963 0
M  V30 620 N 51.3557 -4.86094 5.06614 0
M  V30 621 H 56.1957 -0.990224 2.81067 0
M  V30 622 H 53.7327 -0.477684 1.39128 0
M  V30 623 H 55.6907 -3.43132 2.3731 0
M  V30 624 H 54.3207 -2.93405 1.34585 0
M  V30 625 H 53.3727 -1.67763 3.41409 0
M  V30 626 H 54.6847 -2.39457 4.37563 0
M  V30 627 H 53.8387 -4.69046 3.84812 0
M  V30 628 H 52.5777 -4.00282 2.78614 0
M  V30 629 H 51.5827 -2.78289 4.74168 0
M  V30 630 H 52.8077 -3.50157 5.81865 0
M  V30 631 H 50.7537 -5.04655 4.19117 0
M  V30 632 H 50.6707 -4.73443 5.89396 0
M  V30 633 H 51.9387 -5.74549 5.26795 0
M  V30 634 N 56.1678 -1.49265 -0.50573 0
M  V30 635 C 57.1178 -1.6198 -1.60457 0
M  V30 636 C 58.1018 -0.47568 -1.53708 0
M  V30 637 O 59.2938 -0.728392 -1.61318 0
M  V30 638 C 56.4228 -1.68526 -2.99089 0
M  V30 639 C 55.5088 -2.885 -3.10852 0
M  V30 640 N 55.8998 -4.12635 -2.92517 0
M  V30 641 C 54.1978 -2.86338 -3.41945 0
M  V30 642 C 54.8988 -4.93258 -3.08337 0
M  V30 643 N 53.8748 -4.26533 -3.37003 0
M  V30 644 H 57.6768 -2.55681 -1.44928 0
M  V30 645 H 55.1908 -1.45972 -0.711752 0
M  V30 646 H 57.1878 -1.75732 -3.78053 0
M  V30 647 H 55.8478 -0.759584 -3.1569 0
M  V30 648 H 56.8588 -4.42689 -2.68787 0
M  V30 649 H 53.5358 -2.03129 -3.64753 0
M  V30 650 H 54.9258 -6.01856 -2.98695 0
M  V30 651 N 57.6459 0.756429 -1.3826 0
M  V30 652 C 58.8929 1.51547 -1.34312 0
M  V30 653 C 59.2209 1.94382 0.0677144 0
M  V30 654 O 58.4759 1.65514 1.04421 0
M  V30 655 C 58.7749 2.78313 -2.24224 0
M  V30 656 C 58.4409 2.54455 -3.72241 0
M  V30 657 C 57.1029 2.47657 -4.12576 0
M  V30 658 C 59.4549 2.3354 -4.65949 0
M  V30 659 C 56.7829 2.17956 -5.44713 0
M  V30 660 C 59.1349 2.05359 -5.9834 0
M  V30 661 C 57.7989 1.97016 -6.37762 0
M  V30 662 H 57.0689 0.55455 -0.491482 0
M  V30 663 H 59.7159 0.870039 -1.70595 0
M  V30 664 H 58.0209 3.47492 -1.80987 0
M  V30 665 H 59.7179 3.36259 -2.18474 0
M  V30 666 H 56.3079 2.60616 -3.40261 0
M  V30 667 H 60.4919 2.37772 -4.35635 0
M  V30 668 H 55.7479 2.10003 -5.74203 0
M  V30 669 H 59.9219 1.88179 -6.70494 0
M  V30 670 H 57.5489 1.73766 -7.40074 0
M  V30 671 N 59.124 1.23083 0.984299 0
M  V30 672 C 60.087 1.00979 2.05757 0
M  V30 673 C 61.087 -0.0269573 1.60777 0
M  V30 674 O 62.277 0.212403 1.729 0
M  V30 675 C 59.409 0.527072 3.36801 0
M  V30 676 H 60.602 1.9622 2.26799 0
M  V30 677 H 58.155 1.05072 1.15714 0
M  V30 678 H 58.89 -0.429294 3.21446 0
M  V30 679 H 58.675 1.27515 3.70786 0
M  V30 680 H 60.165 0.392942 4.15747 0
M  V30 681 N 60.6021 -1.18246 1.0419 0
M  V30 682 C 61.8511 -1.87588 0.741194 0
M  V30 683 C 62.1641 -1.81303 -0.734066 0
M  V30 684 O 63.3701 -2.46019 -1.14834 0
M  V30 685 C 61.8261 -3.36538 1.27555 0
M  V30 686 C 61.4341 -3.51349 2.77953 0
M  V30 687 C 63.1781 -4.11273 1.05143 0
M  V30 688 C 61.0851 -4.94265 3.2474 0
M  V30 689 H 60.0151 -0.702622 0.273565 0
M  V30 690 H 62.6661 -1.33601 1.25789 0
M  V30 691 H 61.0481 -3.9 0.686703 0
M  V30 692 H 62.2221 -3.08153 3.42605 0
M  V30 693 H 60.5371 -2.90022 2.98791 0
M  V30 694 H 63.1341 -5.16689 1.37611 0
M  V30 695 H 63.4771 -4.16298 -0.0112774 0
M  V30 696 H 64.0101 -3.63987 1.60495 0
M  V30 697 H 60.7491 -4.94408 4.30396 0
M  V30 698 H 60.2691 -5.38172 2.64823 0
M  V30 699 H 61.9481 -5.62987 3.18834 0
M  V30 700 N 62.0802 -0.821533 -1.34494 0
M  V30 701 C 63.3262 -0.409552 -1.98622 0
M  V30 702 C 63.6592 1.0244 -1.64984 0
M  V30 703 O 62.9342 1.71325 -0.920758 0
M  V30 704 C 63.2172 -0.610458 -3.54888 0
M  V30 705 C 63.0702 -2.09043 -3.98273 0
M  V30 706 C 64.3892 -0.0455379 -4.40076 0
M  V30 707 H 61.5082 -0.15028 -0.721516 0
M  V30 708 H 64.1502 -1.03384 -1.59411 0
M  V30 709 H 62.3002 -0.079044 -3.8842 0
M  V30 710 H 63.9722 -2.68537 -3.75081 0
M  V30 711 H 62.2152 -2.58139 -3.48635 0
M  V30 712 H 62.8862 -2.18182 -5.07051 0
M  V30 713 H 65.3622 -0.499557 -4.1309 0
M  V30 714 H 64.2382 -0.215922 -5.48475 0
M  V30 715 H 64.4992 1.04939 -4.29465 0
M  V30 716 N 63.5583 1.46682 -0.576371 0
M  V30 717 C 64.8063 2.02013 -0.0594163 0
M  V30 718 C 65.1273 1.45101 1.30271 0
M  V30 719 O 64.3973 0.633317 1.8538 0
M  V30 720 H 62.9773 0.746759 -0.0189745 0
M  V30 721 H 65.6393 1.79862 -0.750717 0
M  V30 722 H 64.7353 3.12097 0.014345 0
M  V30 723 N 65.0364 0.313813 1.54444 0
M  V30 724 C 66.2644 -0.293918 2.04802 0
M  V30 725 C 66.6794 -1.46537 1.19047 0
M  V30 726 O 66.0364 -1.81182 0.218939 0
M  V30 727 C 66.0874 -0.737806 3.53891 0
M  V30 728 O 65.8084 0.387038 4.36387 0
M  V30 729 C 67.3094 -1.40936 4.203 0
M  V30 730 H 64.5294 -0.0620057 0.668129 0
M  V30 731 H 67.0734 0.457169 1.99324 0
M  V30 732 H 65.2284 -1.43889 3.59687 0
M  V30 733 H 65.6424 0.0391274 5.24485 0
M  V30 734 H 67.1164 -1.67099 5.26101 0
M  V30 735 H 67.5934 -2.35355 3.70816 0
M  V30 736 H 68.1994 -0.751117 4.18615 0
M  V30 737 N 66.5145 -1.57545 0.0417849 0
M  V30 738 C 67.4775 -2.09885 -0.92093 0
M  V30 739 C 68.4775 -1.01648 -1.24596 0
M  V30 740 O 69.6675 -1.27759 -1.1842 0
M  V30 741 C 66.7995 -2.57527 -2.23367 0
M  V30 742 H 67.9925 -2.96236 -0.467382 0
M  V30 743 H 65.5455 -1.5493 -0.206467 0
M  V30 744 H 66.2805 -1.74542 -2.73323 0
M  V30 745 H 66.0655 -3.36613 -2.01083 0
M  V30 746 H 67.5555 -2.98201 -2.92346 0
M  V30 747 N 67.9926 0.231505 -1.5589 0
M  V30 748 C 69.4086 0.580748 -1.48659 0
M  V30 749 C 69.6086 1.87617 -0.73498 0
M  V30 750 O 68.6646 2.51046 -0.270586 0
M  V30 751 C 69.9776 0.669202 -2.93159 0
M  V30 752 C 71.5256 0.760499 -3.03621 0
M  V30 753 C 72.0006 0.880383 -4.49459 0
M  V30 754 N 73.4916 0.944861 -4.53461 0
M  V30 755 C 74.2266 1.05716 -5.63571 0
M  V30 756 N 73.7226 1.13403 -6.83456 0
M  V30 757 N 75.5156 1.09152 -5.514 0
M  V30 758 H 67.6666 -0.618695 -2.03189 0
M  V30 759 H 69.9296 -0.215728 -0.923128 0
M  V30 760 H 69.6356 -0.212904 -3.51055 0
M  V30 761 H 69.5096 1.5361 -3.44505 0
M  V30 762 H 71.8966 1.63305 -2.45796 0
M  V30 763 H 71.9776 -0.131864 -2.5546 0
M  V30 764 H 71.6216 0.0123284 -5.07899 0
M  V30 765 H 71.5516 1.78802 -4.95316 0
M  V30 766 H 74.0426 0.896176 -3.6712 0
M  V30 767 H 74.3556 1.21921 -7.63122 0
M  V30 768 H 72.7006 1.10333 -6.86186 0
M  V30 769 H 75.8916 1.02805 -4.56671 0
M  V30 770 H 76.0646 1.17558 -6.37247 0
M  V30 771 N 69.4707 1.49531 0.497807 0
M  V30 772 C 70.4027 1.62559 1.61578 0
M  V30 773 C 71.4157 0.508134 1.54667 0
M  V30 774 O 72.6047 0.780309 1.60541 0
M  V30 775 C 69.7047 1.56925 3.00379 0
M  V30 776 C 68.8777 2.84257 3.3244 0
M  V30 777 C 67.9367 2.71632 4.50669 0
M  V30 778 O 66.9627 3.4557 4.52294 0
M  V30 779 N 68.1647 1.83391 5.5077 0
M  V30 780 H 70.9297 2.58981 1.50828 0
M  V30 781 H 68.4907 1.4666 0.685743 0
M  V30 782 H 70.4827 1.46129 3.77397 0
M  V30 783 H 69.0527 0.683483 3.05037 0
M  V30 784 H 68.2727 3.09381 2.44289 0
M  V30 785 H 69.5607 3.68666 3.5066 0
M  V30 786 H 68.9587 1.22583 5.52259 0
M  V30 787 H 67.5157 1.78515 6.26878 0
M  V30 788 N 70.9488 -0.749086 1.3866 0
M  V30 789 C 71.9118 -1.84457 1.36045 0
M  V30 790 C 72.9118 -1.58682 0.260122 0
M  V30 791 O 74.1018 -1.66343 0.517261 0
M  V30 792 C 71.2338 -3.22008 1.11911 0
M  V30 793 H 72.4268 -1.88182 2.33512 0
M  V30 794 H 69.9798 -0.951266 1.24019 0
M  V30 795 H 70.7148 -3.2395 0.150686 0
M  V30 796 H 70.4998 -3.42111 1.91579 0
M  V30 797 H 71.9898 -4.0208 1.12788 0
M  V30 798 N 72.4269 -1.23603 -0.977757 0
M  V30 799 C 73.3569 -1.04401 -2.0886 0
M  V30 800 C 74.3379 0.0399052 -1.70053 0
M  V30 801 O 75.5229 -0.125246 -1.93796 0
M  V30 802 C 72.6529 -0.637269 -3.41403 0
M  V30 803 C 71.6069 -1.66883 -3.94124 0
M  V30 804 C 70.9329 -1.11745 -5.22893 0
M  V30 805 C 72.2329 -3.06247 -4.23096 0
M  V30 806 H 73.9269 -1.97316 -2.25182 0
M  V30 807 H 71.4729 -0.950096 -1.08209 0
M  V30 808 H 73.4259 -0.48998 -4.18542 0
M  V30 809 H 72.1499 0.327557 -3.24953 0
M  V30 810 H 70.8089 -1.80416 -3.19133 0
M  V30 811 H 70.4569 -0.143527 -5.02795 0
M  V30 812 H 70.1569 -1.80672 -5.59134 0
M  V30 813 H 71.6809 -0.982067 -6.02651 0
M  V30 814 H 73.0949 -2.96001 -4.90975 0
M  V30 815 H 71.4919 -3.72436 -4.70544 0
M  V30 816 H 72.5619 -3.55041 -3.30263 0
M  V30 817 N 73.905 1.17692 -1.04816 0
M  V30 818 C 74.853 2.23632 -0.63966 0
M  V30 819 C 75.847 1.6601 0.337219 0
M  V30 820 O 77.053 1.78844 0.203693 0
M  V30 821 H 73.428 0.727949 -0.188665 0
M  V30 822 H 75.399 2.55387 -1.54337 0
M  V30 823 C 74.148 3.4769 -0.0264051 0
M  V30 824 H 73.471 3.92331 -0.769164 0
M  V30 825 H 74.911 4.23418 0.222098 0
M  V30 826 C 73.37 3.13807 1.22584 0
M  V30 827 O 73.9 3.28236 2.31569 0
M  V30 828 N 72.106 2.68065 1.12202 0
M  V30 829 H 71.653 2.56525 0.235133 0
M  V30 830 H 71.611 2.45767 1.96076 0
M  V30 831 N 75.3831 0.828654 1.34056 0
M  V30 832 C 76.6601 0.341809 1.9259 0
M  V30 833 C 77.0401 -1.17158 1.75605 0
M  V30 834 O 76.3881 -1.98132 1.13824 0
M  V30 835 C 76.5981 0.777453 3.4023 0
M  V30 836 C 77.9461 0.779579 4.17382 0
M  V30 837 O 78.9701 0.7204 3.48839 0
M  V30 838 O 77.8291 0.857996 5.39723 0
M  V30 839 H 74.9231 0.0946085 0.821571 0
M  V30 840 H 77.4691 0.913827 1.42994 0
M  V30 841 H 76.2411 1.8196 3.46419 0
M  V30 842 H 75.8641 0.181444 3.97186 0
M  V30 843 N 76.8612 -1.46375 0.584142 0
M  V30 844 C 78.1382 -1.956 0.0033388 0
M  V30 845 C 78.5182 -1.52679 -1.45782 0
M  V30 846 O 77.8662 -0.77816 -2.14842 0
M  V30 847 C 78.0762 -3.48551 0.176891 0
M  V30 848 C 79.4242 -4.24576 0.0454609 0
M  V30 849 O 80.4482 -3.56043 0.105801 0
M  V30 850 O 79.3072 -5.46427 -0.0890376 0
M  V30 851 H 76.4012 -0.825547 -0.0490066 0
M  V30 852 H 78.9472 -1.56652 0.65256 0
M  V30 853 H 77.7192 -3.72683 1.1926 0
M  V30 854 H 77.3422 -3.94332 -0.508695 0
M  V30 855 N 78.3393 -0.321999 -1.54275 0
M  V30 856 C 79.2493 0.553631 -2.27974 0
M  V30 857 C 80.2653 1.13054 -1.32268 0
M  V30 858 O 81.4413 1.15084 -1.6528 0
M  V30 859 C 78.5063 1.69927 -3.02201 0
M  V30 860 C 77.5673 1.15433 -4.1349 0
M  V30 861 C 76.8003 2.24537 -4.84168 0
M  V30 862 O 77.0233 3.44852 -4.5435 0
M  V30 863 O 75.9573 1.90044 -5.7111 0
M  V30 864 H 79.7833 -0.0448345 -3.03667 0
M  V30 865 H 77.3683 -0.0877418 -1.49142 0
M  V30 866 H 79.2503 2.3663 -3.48689 0
M  V30 867 H 77.9253 2.28395 -2.29385 0
M  V30 868 H 76.8323 0.452436 -3.71354 0
M  V30 869 H 78.1653 0.614805 -4.88345 0
M  V30 870 N 79.8174 1.5752 -0.0501392 0
M  V30 871 C 81.0644 1.9265 0.623874 0
M  V30 872 C 81.3924 0.928411 1.70912 0
M  V30 873 O 80.6474 -0.0594525 1.9561 0
M  V30 874 C 80.9464 3.34467 1.25963 0
M  V30 875 C 80.6124 4.49883 0.302689 0
M  V30 876 C 79.2744 4.81184 0.0393636 0
M  V30 877 C 81.6264 5.20002 -0.353205 0
M  V30 878 C 78.9544 5.79951 -0.887308 0
M  V30 879 C 81.3064 6.1976 -1.26806 0
M  V30 880 C 79.9704 6.49491 -1.54007 0
M  V30 881 H 79.2404 0.704957 0.228292 0
M  V30 882 H 81.8874 1.91146 -0.116398 0
M  V30 883 H 80.1924 3.32333 2.07514 0
M  V30 884 H 81.8894 3.58928 1.78806 0
M  V30 885 H 78.4794 4.25457 0.518109 0
M  V30 886 H 82.6634 4.96033 -0.162854 0
M  V30 887 H 77.9194 6.01322 -1.10553 0
M  V30 888 H 82.0934 6.73205 -1.78236 0
M  V30 889 H 79.7204 7.25837 -2.25976 0
M  V30 890 N 81.2955 -0.223234 1.56011 0
M  V30 891 C 82.2425 -1.27664 1.92277 0
M  V30 892 C 83.2125 -1.46659 0.779763 0
M  V30 893 O 84.3975 -1.60256 1.03551 0
M  V30 894 C 81.5375 -2.62234 2.24338 0
M  V30 895 C 80.6505 -2.51051 3.51564 0
M  V30 896 C 79.7855 -3.78133 3.7308 0
M  V30 897 C 78.8245 -3.61665 4.93827 0
M  V30 898 N 77.9615 -4.80693 5.11741 0
M  V30 899 H 82.8015 -0.960358 2.82101 0
M  V30 900 H 80.3385 -0.462901 1.39627 0
M  V30 901 H 82.2965 -3.40596 2.40936 0
M  V30 902 H 80.9265 -2.91961 1.3769 0
M  V30 903 H 79.9785 -1.64132 3.43169 0
M  V30 904 H 81.2905 -2.34803 4.40079 0
M  V30 905 H 80.4445 -4.64938 3.89766 0
M  V30 906 H 79.1835 -3.97304 2.82844 0
M  V30 907 H 78.1885 -2.73244 4.77093 0
M  V30 908 H 79.4135 -3.43966 5.85546 0
M  V30 909 H 77.3595 -5.00181 4.24446 0
M  V30 910 H 77.2765 -4.67165 5.94384 0
M  V30 911 H 78.5445 -5.6893 5.3286 0
M  V30 912 N 82.7736 -1.49793 -0.48987 0
M  V30 913 C 83.7056 -1.63413 -1.60713 0
M  V30 914 C 84.7186 -0.516329 -1.54395 0
M  V30 915 O 85.9076 -0.788812 -1.60125 0
M  V30 916 C 83.0076 -1.58516 -2.99543 0
M  V30 917 C 82.1806 -2.86016 -3.30928 0
M  V30 918 C 81.2396 -2.74018 -4.49222 0
M  V30 919 O 80.2656 -3.47964 -4.50455 0
M  V30 920 N 81.4676 -1.86309 -5.4979 0
M  V30 921 H 84.2326 -2.59777 -1.49452 0
M  V30 922 H 81.7936 -1.47022 -0.677955 0
M  V30 923 H 83.7856 -1.48128 -3.76617 0
M  V30 924 H 82.3556 -0.69965 -3.0467 0
M  V30 925 H 81.5756 -3.10672 -2.42645 0
M  V30 926 H 82.8636 -3.70521 -3.487 0
M  V30 927 H 82.2616 -1.2551 -5.51601 0
M  V30 928 H 80.8186 -1.81837 -6.25922 0
M  V30 929 N 84.2517 0.741722 -1.39055 0
M  V30 930 C 85.1817 1.869 -1.39966 0
M  V30 931 C 86.1627 1.6804 -0.26392 0
M  V30 932 O 87.3477 1.88458 -0.468755 0
M  V30 933 C 84.4777 3.24572 -1.23574 0
M  V30 934 C 83.4317 3.58056 -2.34477 0
M  V30 935 C 82.7577 4.94593 -2.0318 0
M  V30 936 C 84.0577 3.61716 -3.76774 0
M  V30 937 H 85.7517 1.86395 -2.34302 0
M  V30 938 H 83.2977 0.895361 -1.1278 0
M  V30 939 H 85.2507 4.031 -1.22834 0
M  V30 940 H 83.9747 3.25587 -0.257045 0
M  V30 941 H 82.6337 2.81854 -2.34423 0
M  V30 942 H 82.2817 4.92181 -1.03765 0
M  V30 943 H 81.9817 5.17964 -2.77465 0
M  V30 944 H 83.5057 5.75486 -2.04079 0
M  V30 945 H 84.9197 4.30335 -3.78794 0
M  V30 946 H 83.3167 3.96603 -4.50362 0
M  V30 947 H 84.3867 2.61672 -4.08235 0
M  V30 948 N 85.7298 1.2412 0.971189 0
M  V30 949 C 86.9758 1.08041 1.71625 0
M  V30 950 C 87.3088 -0.380407 1.90438 0
M  V30 951 O 86.5838 -1.28127 1.46334 0
M  V30 952 C 86.8668 1.81682 3.10908 0
M  V30 953 C 86.7198 3.35493 2.99608 0
M  V30 954 C 88.0388 1.58671 4.10501 0
M  V30 955 H 85.1578 0.39388 0.622919 0
M  V30 956 H 87.7998 1.52743 1.13003 0
M  V30 957 H 85.9498 1.43684 3.60953 0
M  V30 958 H 87.6218 3.83068 2.57015 0
M  V30 959 H 85.8648 3.64052 2.35899 0
M  V30 960 H 86.5358 3.82217 3.98264 0
M  V30 961 H 89.0118 1.91719 3.69301 0
M  V30 962 H 87.8878 2.1266 5.06031 0
M  V30 963 H 88.1488 0.524161 4.38982 0
M  V30 964 N 87.2079 -1.17134 1.05439 0
M  V30 965 C 88.6239 -1.39454 0.776201 0
M  V30 966 C 88.8239 -1.91454 -0.628307 0
M  V30 967 O 87.8799 -2.10777 -1.39031 0
M  V30 968 C 89.1929 -2.38305 1.83388 0
M  V30 969 C 90.7409 -2.52006 1.85639 0
M  V30 970 C 91.2159 -3.54133 2.90437 0
M  V30 971 N 92.7069 -3.61653 2.89415 0
M  V30 972 C 93.4419 -4.4044 3.67152 0
M  V30 973 N 92.9379 -5.22721 4.54681 0
M  V30 974 N 94.7309 -4.35337 3.55581 0
M  V30 975 H 86.8819 -0.817134 1.96053 0
M  V30 976 H 89.1449 -0.421626 0.849079 0
M  V30 977 H 88.8509 -2.07173 2.84204 0
M  V30 978 H 88.7249 -3.37841 1.67761 0
M  V30 979 H 91.1119 -2.82447 0.85486 0
M  V30 980 H 91.1929 -1.52537 2.05344 0
M  V30 981 H 90.8369 -3.24431 3.90777 0
M  V30 982 H 90.7669 -4.53313 2.67983 0
M  V30 983 H 93.2579 -3.02909 2.25952 0
M  V30 984 H 93.5709 -5.80027 5.10674 0
M  V30 985 H 91.9159 -5.22093 4.58741 0
M  V30 986 H 95.1069 -3.70112 2.86592 0
M  V30 987 H 95.2799 -4.96494 4.1641 0
M  V30 988 N 88.686 -0.835752 -1.33615 0
M  V30 989 C 89.963 -0.352017 -1.92406 0
M  V30 990 C 90.343 1.16225 -1.76224 0
M  V30 991 O 89.691 1.97526 -1.14873 0
M  V30 992 C 89.901 -0.795485 -3.39813 0
M  V30 993 C 91.249 -0.801703 -4.16963 0
M  V30 994 O 92.273 -0.738889 -3.48452 0
M  V30 995 O 91.132 -0.886607 -5.3926 0
M  V30 996 H 88.226 -0.0989641 -0.821057 0
M  V30 997 H 90.772 -0.921397 -1.42507 0
M  V30 998 H 89.544 -1.83795 -3.45449 0
M  V30 999 H 89.167 -0.202505 -3.97084 0
M  V30 1000 N 90.1641 1.46063 -0.591896 0
M  V30 1001 C 91.3891 2.07226 -0.0850314 0
M  V30 1002 C 91.8141 1.43625 1.21463 0
M  V30 1003 O 91.1721 0.523305 1.73583 0
M  V30 1004 C 91.2201 3.60554 0.0576567 0
M  V30 1005 O 90.3241 3.97128 1.11188 0
M  V30 1006 H 89.6651 0.660615 -0.0669568 0
M  V30 1007 H 92.1951 1.8756 -0.81745 0
M  V30 1008 H 92.2051 4.07165 0.2609 0
M  V30 1009 H 90.8801 4.06235 -0.891416 0
M  V30 1010 H 89.4571 3.62213 0.886356 0
M  V30 1011 N 91.6422 0.330177 1.54103 0
M  V30 1012 C 92.8912 -0.271336 1.99867 0
M  V30 1013 C 93.2042 -1.52723 1.22209 0
M  V30 1014 O 94.4102 -2.20515 1.58383 0
M  V30 1015 C 92.8662 -0.534032 3.55916 0
M  V30 1016 C 92.4742 0.705193 4.42415 0
M  V30 1017 C 94.2182 -1.09514 4.1013 0
M  V30 1018 C 92.1252 0.414035 5.89949 0
M  V30 1019 H 91.0552 -0.105166 0.74663 0
M  V30 1020 H 93.7062 0.443429 1.78062 0
M  V30 1021 H 92.0882 -1.30915 3.73734 0
M  V30 1022 H 93.2622 1.4804 4.36372 0
M  V30 1023 H 91.5772 1.18698 3.99124 0
M  V30 1024 H 94.1742 -1.3277 5.17954 0
M  V30 1025 H 94.5172 -2.04656 3.62521 0
M  V30 1026 H 95.0502 -0.381038 3.95971 0
M  V30 1027 H 91.7892 1.33481 6.41766 0
M  V30 1028 H 91.3092 -0.323336 5.98928 0
M  V30 1029 H 92.9882 0.0263105 6.46995 0
M  V30 1030 N 93.1203 -1.57491 0.0584922 0
M  V30 1031 C 94.0673 -2.11958 -0.913376 0
M  V30 1032 C 95.0373 -1.02875 -1.30407 0
M  V30 1033 O 96.2223 -1.30464 -1.39226 0
M  V30 1034 C 93.3623 -2.67497 -2.18035 0
M  V30 1035 C 92.4753 -3.90691 -1.84349 0
M  V30 1036 C 91.6103 -4.3452 -3.05559 0
M  V30 1037 C 90.6493 -5.50395 -2.67827 0
M  V30 1038 N 89.7863 -5.89244 -3.81754 0
M  V30 1039 H 94.6263 -2.94704 -0.442017 0
M  V30 1040 H 92.1633 -1.45643 -0.206545 0
M  V30 1041 H 94.1213 -2.978 -2.92183 0
M  V30 1042 H 92.7513 -1.87537 -2.62735 0
M  V30 1043 H 91.8033 -3.66934 -1.00319 0
M  V30 1044 H 93.1153 -4.7489 -1.5258 0
M  V30 1045 H 92.2693 -4.66414 -3.87998 0
M  V30 1046 H 91.0083 -3.49147 -3.40511 0
M  V30 1047 H 90.0133 -5.18165 -1.83806 0
M  V30 1048 H 91.2383 -6.3749 -2.34059 0
M  V30 1049 H 89.1843 -5.06823 -4.16493 0
M  V30 1050 H 89.1013 -6.68151 -3.53708 0
M  V30 1051 H 90.3693 -6.25756 -4.64811 0
M  V30 1052 N 94.5984 0.214957 -1.56127 0
M  V30 1053 C 95.8754 0.963093 -1.70247 0
M  V30 1054 C 96.2554 2.02166 -0.60764 0
M  V30 1055 O 95.6034 2.25244 0.384385 0
M  V30 1056 C 95.8134 1.56756 -3.11815 0
M  V30 1057 C 97.1614 2.0573 -3.7143 0
M  V30 1058 O 98.1854 1.66637 -3.14818 0
M  V30 1059 O 97.0444 2.77603 -4.70743 0
M  V30 1060 H 94.1384 0.450321 -0.693643 0
M  V30 1061 H 96.6844 0.206219 -1.68442 0
M  V30 1062 H 95.4564 0.803533 -3.82961 0
M  V30 1063 H 95.0794 2.3898 -3.17765 0
M  V30 1064 N 96.0765 1.50051 0.48192 0
M  V30 1065 C 97.3235 1.60498 1.23477 0
M  V30 1066 C 97.6515 0.300331 1.92167 0
M  V30 1067 O 96.9065 -0.713094 1.82246 0
M  V30 1068 C 97.2055 2.72717 2.30998 0
M  V30 1069 C 96.8715 4.13572 1.79636 0
M  V30 1070 C 95.5335 4.519 1.65348 0
M  V30 1071 C 97.8855 5.01649 1.41412 0
M  V30 1072 C 95.2135 5.76057 1.11244 0
M  V30 1073 C 97.5655 6.26343 0.887538 0
M  V30 1074 C 96.2295 6.63483 0.731207 0
M  V30 1075 H 95.4995 0.587303 0.451836 0
M  V30 1076 H 98.1465 1.83948 0.532468 0
M  V30 1077 H 96.4515 2.43312 3.07094 0
M  V30 1078 H 98.1485 2.78006 2.88988 0
M  V30 1079 H 94.7385 3.83329 1.91721 0
M  V30 1080 H 98.9225 4.72679 1.51289 0
M  V30 1081 H 94.1785 6.03516 0.978686 0
M  V30 1082 H 98.3525 6.93958 0.582654 0
M  V30 1083 H 95.9795 7.59568 0.309806 0
M  V30 1084 N 97.5546 -0.734337 1.39446 0
M  V30 1085 C 98.7826 -1.52358 1.39981 0
M  V30 1086 C 99.1976 -1.88799 -0.0054975 0
M  V30 1087 O 98.5546 -1.54146 -0.976998 0
M  V30 1088 C 98.6056 -2.81072 2.27333 0
M  V30 1089 O 98.3266 -2.46178 3.62392 0
M  V30 1090 C 99.8276 -3.75096 2.36259 0
M  V30 1091 H 97.0476 -0.470806 0.478103 0
M  V30 1092 H 99.5916 -0.907339 1.83269 0
M  V30 1093 H 97.7466 -3.39026 1.87457 0
M  V30 1094 H 98.1606 -3.28866 4.08592 0
M  V30 1095 H 99.6346 -4.62305 3.01626 0
M  V30 1096 H 100.112 -4.16892 1.38194 0
M  V30 1097 H 100.718 -3.23061 2.76608 0
M  V30 1098 N 99.0327 -1.24633 -0.964593 0
M  V30 1099 C 100.31 -0.995809 -1.68354 0
M  V30 1100 C 100.69 0.480964 -2.05548 0
M  V30 1101 O 100.038 1.45599 -1.76105 0
M  V30 1102 C 100.248 -1.92177 -2.91323 0
M  V30 1103 C 101.596 -2.19446 -3.63495 0
M  V30 1104 O 102.62 -1.89855 -3.01386 0
M  V30 1105 O 101.479 -2.69714 -4.75307 0
M  V30 1106 H 98.5727 -0.376854 -0.736146 0
M  V30 1107 H 101.119 -1.35745 -1.0184 0
M  V30 1108 H 99.8907 -2.91938 -2.60553 0
M  V30 1109 H 99.5137 -1.56349 -3.65569 0
M  V30 1110 N 100.511 1.16574 -1.06058 0
M  V30 1111 C 101.788 1.83048 -0.689416 0
M  V30 1112 C 102.168 1.94122 0.829443 0
M  V30 1113 O 101.516 1.48249 1.7388 0
M  V30 1114 C 101.726 3.20186 -1.38859 0
M  V30 1115 C 103.074 3.95989 -1.53226 0
M  V30 1116 O 104.098 3.29696 -1.3483 0
M  V30 1117 O 102.957 5.14813 -1.83384 0
M  V30 1118 H 100.051 0.790258 -0.243764 0
M  V30 1119 H 102.597 1.23797 -1.16071 0
M  V30 1120 H 101.369 3.07146 -2.4244 0
M  V30 1121 H 100.992 3.87112 -0.907216 0
M  V30 1122 N 101.989 0.842826 1.3317 0
M  V30 1123 C 102.921 0.236245 2.27979 0
M  V30 1124 C 103.934 -0.585282 1.51915 0
M  V30 1125 O 105.123 -0.411705 1.73687 0
M  V30 1126 C 102.223 -0.685717 3.3189 0
M  V30 1127 C 101.396 0.0973448 4.37292 0
M  V30 1128 C 100.455 -0.748565 5.20848 0
M  V30 1129 O 99.4809 -0.186339 5.68895 0
M  V30 1130 N 100.683 -2.06527 5.42519 0
M  V30 1131 H 103.448 1.05088 2.80672 0
M  V30 1132 H 101.009 0.701667 1.45905 0
M  V30 1133 H 103.001 -1.25669 3.84694 0
M  V30 1134 H 101.571 -1.40105 2.79445 0
M  V30 1135 H 100.791 0.849706 3.84933 0
M  V30 1136 H 102.079 0.635643 5.04814 0
M  V30 1137 H 101.477 -2.54554 5.05192 0
M  V30 1138 H 100.034 -2.58464 5.98364 0
M  V30 1139 N 103.467 -1.45747 0.599634 0
M  V30 1140 C 104.43 -2.28917 -0.113835 0
M  V30 1141 C 105.43 -1.3933 -0.802729 0
M  V30 1142 O 106.62 -1.61534 -0.652103 0
M  V30 1143 C 103.752 -3.20152 -1.17114 0
M  V30 1144 H 104.945 -2.93478 0.617289 0
M  V30 1145 H 102.498 -1.52137 0.358327 0
M  V30 1146 H 103.233 -2.60374 -1.93329 0
M  V30 1147 H 103.018 -3.86133 -0.681468 0
M  V30 1148 H 104.508 -3.82708 -1.67105 0
M  V30 1149 N 104.945 -0.338344 -1.53925 0
M  V30 1150 C 105.877 0.555117 -2.22376 0
M  V30 1151 C 106.89 1.06812 -1.22862 0
M  V30 1152 O 108.079 0.979163 -1.49247 0
M  V30 1153 C 105.179 1.77609 -2.88631 0
M  V30 1154 C 104.352 1.39927 -4.14414 0
M  V30 1155 C 103.411 2.47936 -4.64127 0
M  V30 1156 O 102.437 2.11461 -5.28463 0
M  V30 1157 N 103.639 3.79107 -4.39612 0
M  V30 1158 H 106.404 -0.0310778 -2.99684 0
M  V30 1159 H 103.965 -0.162226 -1.61085 0
M  V30 1160 H 105.957 2.49287 -3.18807 0
M  V30 1161 H 104.527 2.26978 -2.14941 0
M  V30 1162 H 103.747 0.513481 -3.90841 0
M  V30 1163 H 105.035 1.12341 -4.96243 0
M  V30 1164 H 104.433 4.11531 -3.88148 0
M  V30 1165 H 102.99 4.4697 -4.74406 0
M  V30 1166 N 106.423 1.57458 -0.0668435 0
M  V30 1167 C 107.386 2.11323 0.887422 0
M  V30 1168 C 108.386 1.03618 1.22964 0
M  V30 1169 O 109.576 1.29626 1.16373 0
M  V30 1170 C 106.708 2.61048 2.19242 0
M  V30 1171 H 107.901 2.96942 0.420194 0
M  V30 1172 H 105.454 1.55239 0.181793 0
M  V30 1173 H 106.189 1.78868 2.70512 0
M  V30 1174 H 105.974 3.39769 1.95702 0
M  V30 1175 H 107.464 3.02814 2.87565 0
M  V30 1176 N 107.901 -0.206675 1.56239 0
M  V30 1177 C 108.811 -1.27686 1.96808 0
M  V30 1178 C 109.827 -1.50455 0.874035 0
M  V30 1179 O 111.003 -1.63295 1.17884 0
M  V30 1180 C 108.068 -2.60358 2.28942 0
M  V30 1181 C 107.129 -2.45762 3.51994 0
M  V30 1182 C 106.362 -3.72108 3.82585 0
M  V30 1183 O 106.585 -4.75776 3.14631 0
M  V30 1184 O 105.519 -3.6833 4.76043 0
M  V30 1185 H 109.345 -0.962593 2.88041 0
M  V30 1186 H 106.93 -0.410746 1.43643 0
M  V30 1187 H 108.812 -3.38687 2.50737 0
M  V30 1188 H 107.487 -2.91435 1.4088 0
M  V30 1189 H 106.394 -1.65584 3.35459 0
M  V30 1190 H 107.727 -2.19621 4.40486 0
M  V30 1191 N 109.379 -1.50304 -0.473955 0
M  V30 1192 C 110.342 -1.6841 -1.55469 0
M  V30 1193 C 111.342 -0.554905 -1.50922 0
M  V30 1194 O 112.532 -0.821882 -1.53593 0
M  V30 1195 C 109.664 -1.70667 -2.95102 0
M  V30 1196 H 110.857 -2.64828 -1.40733 0
M  V30 1197 H 108.41 -1.39742 -0.700132 0
M  V30 1198 H 109.145 -0.75932 -3.15285 0
M  V30 1199 H 108.93 -2.52698 -2.9981 0
M  V30 1200 H 110.42 -1.8664 -3.73571 0
M  V30 1201 N 110.857 0.726932 -1.39834 0
M  V30 1202 C 112.104 1.48664 -1.37496 0
M  V30 1203 C 112.432 1.94482 0.0264678 0
M  V30 1204 O 111.687 1.67692 1.00886 0
M  V30 1205 C 111.986 2.73495 -2.30077 0
M  V30 1206 C 111.652 2.46502 -3.77555 0
M  V30 1207 C 110.314 2.3885 -4.17737 0
M  V30 1208 C 112.666 2.23604 -4.70798 0
M  V30 1209 C 109.994 2.06352 -5.49214 0
M  V30 1210 C 112.346 1.92622 -6.02561 0
M  V30 1211 C 111.01 1.83444 -6.41798 0
M  V30 1212 H 110.28 0.544001 -0.503135 0
M  V30 1213 H 112.927 0.833657 -1.72402 0
M  V30 1214 H 111.232 3.43575 -1.88317 0
M  V30 1215 H 112.929 3.31549 -2.25558 0
M  V30 1216 H 109.519 2.5334 -3.45712 0
M  V30 1217 H 113.703 2.28479 -4.40581 0
M  V30 1218 H 108.959 1.97776 -5.78528 0
M  V30 1219 H 113.133 1.73914 -6.74334 0
M  V30 1220 H 110.76 1.58029 -7.43593 0
M  V30 1221 N 112.336 1.25143 0.95797 0
M  V30 1222 C 113.585 1.0909 1.69654 0
M  V30 1223 C 113.898 -0.368548 1.92097 0
M  V30 1224 O 115.104 -0.649455 2.63618 0
M  V30 1225 C 113.56 1.90395 3.05414 0
M  V30 1226 C 113.168 3.4081 2.90779 0
M  V30 1227 C 114.912 1.82901 3.83076 0
M  V30 1228 C 112.819 4.14423 4.21909 0
M  V30 1229 H 111.749 0.404625 0.636235 0
M  V30 1230 H 114.4 1.4931 1.06672 0
M  V30 1231 H 112.782 1.42996 3.69281 0
M  V30 1232 H 113.956 3.95859 2.35865 0
M  V30 1233 H 112.271 3.49361 2.26575 0
M  V30 1234 H 114.868 2.35196 4.80195 0
M  V30 1235 H 115.211 0.796224 4.08615 0
M  V30 1236 H 115.744 2.28033 3.25954 0
M  V30 1237 H 112.483 5.18102 4.01561 0
M  V30 1238 H 112.003 3.64159 4.76601 0
M  V30 1239 H 113.682 4.21956 4.90471 0
M  V30 1240 N 113.814 -1.1601 1.06675 0
M  V30 1241 C 114.724 -2.24156 0.692179 0
M  V30 1242 C 115.74 -1.71507 -0.293513 0
M  V30 1243 O 116.916 -2.009 -0.141861 0
M  V30 1244 C 113.981 -3.46587 0.0884131 0
M  V30 1245 C 113.042 -4.14257 1.12646 0
M  V30 1246 C 112.275 -5.30844 0.551416 0
M  V30 1247 O 112.498 -5.66858 -0.634656 0
M  V30 1248 O 111.432 -5.87848 1.29298 0
M  V30 1249 H 115.258 -2.58513 1.59388 0
M  V30 1250 H 112.843 -1.23599 0.83926 0
M  V30 1251 H 114.725 -4.20679 -0.246361 0
M  V30 1252 H 113.4 -3.13994 -0.786712 0
M  V30 1253 H 112.307 -3.42118 1.51348 0
M  V30 1254 H 113.64 -4.50914 1.97325 0
M  V30 1255 N 115.292 -0.849877 -1.32721 0
M  V30 1256 C 116.242 -0.262892 -2.26479 0
M  V30 1257 C 117.226 0.588493 -1.49752 0
M  V30 1258 O 118.418 0.438659 -1.71478 0
M  V30 1259 C 115.547 0.551818 -3.38836 0
M  V30 1260 C 114.633 -0.311689 -4.22953 0
M  V30 1261 N 115.024 -1.39567 -4.86163 0
M  V30 1262 C 113.322 -0.100611 -4.45887 0
M  V30 1263 C 114.023 -1.92651 -5.48872 0
M  V30 1264 N 112.999 -1.22637 -5.29586 0
M  V30 1265 H 116.801 -1.09166 -2.72873 0
M  V30 1266 H 114.315 -0.695486 -1.46754 0
M  V30 1267 H 116.312 0.988713 -4.05006 0
M  V30 1268 H 114.972 1.37844 -2.93988 0
M  V30 1269 H 115.983 -1.77859 -4.86402 0
M  V30 1270 H 112.66 0.691681 -4.11731 0
M  V30 1271 H 114.05 -2.83487 -6.09167 0
M  V30 1272 N 116.77 1.45427 -0.607355 0
M  V30 1273 C 118.017 2.02241 -0.102455 0
M  V30 1274 C 118.345 1.4758 1.26691 0
M  V30 1275 O 117.6 0.640468 1.84923 0
M  V30 1276 C 117.899 3.57398 -0.0129263 0
M  V30 1277 C 117.565 4.3121 -1.31792 0
M  V30 1278 C 116.227 4.51092 -1.67539 0
M  V30 1279 C 118.579 4.73401 -2.18039 0
M  V30 1280 C 115.907 5.10422 -2.89285 0
M  V30 1281 C 118.259 5.34078 -3.39034 0
M  V30 1282 C 116.923 5.52184 -3.75033 0
M  V30 1283 H 116.193 0.740051 -0.037491 0
M  V30 1284 H 118.84 1.74494 -0.788926 0
M  V30 1285 H 117.145 3.84421 0.756806 0
M  V30 1286 H 118.842 3.99061 0.393881 0
M  V30 1287 H 115.432 4.16047 -1.02968 0
M  V30 1288 H 119.616 4.57774 -1.91721 0
M  V30 1289 H 114.872 5.22629 -3.17283 0
M  V30 1290 H 119.046 5.65724 -4.06115 0
M  V30 1291 H 116.673 5.97925 -4.69457 0
M  V30 1292 N 118.248 0.346503 1.53744 0
M  V30 1293 C 119.473 -0.253074 2.0585 0
M  V30 1294 C 119.898 -1.43202 1.21962 0
M  V30 1295 O 119.256 -1.79783 0.234073 0
M  V30 1296 C 119.304 -0.643193 3.54817 0
M  V30 1297 O 118.408 -1.74286 3.73762 0
M  V30 1298 H 117.749 -0.0413583 0.662711 0
M  V30 1299 H 120.279 0.501574 1.98357 0
M  V30 1300 H 120.289 -0.919526 3.97503 0
M  V30 1301 H 118.964 0.218966 4.15323 0
M  V30 1302 H 117.541 -1.46356 3.42979 0
M  V30 1303 N 119.726 -1.57421 0.075193 0
M  V30 1304 C 120.956 -1.97659 -0.601203 0
M  V30 1305 C 121.364 -0.952427 -1.63479 0
M  V30 1306 O 120.707 0.0688241 -1.83571 0
M  V30 1307 C 120.769 -3.34218 -1.32434 0
M  V30 1308 C 120.433 -4.5484 -0.443826 0
M  V30 1309 C 121.43 -5.19034 0.299969 0
M  V30 1310 C 119.115 -5.00952 -0.367709 0
M  V30 1311 C 121.109 -6.27695 1.10807 0
M  V30 1312 C 118.796 -6.09484 0.444058 0
M  V30 1313 C 119.794 -6.72719 1.18061 0
M  V30 1314 O 119.482 -7.79161 1.97898 0
M  V30 1315 H 119.214 -0.65494 -0.167422 0
M  V30 1316 H 121.768 -2.04886 0.145157 0
M  V30 1317 H 119.998 -3.23615 -2.11685 0
M  V30 1318 H 121.687 -3.59038 -1.89331 0
M  V30 1319 H 122.453 -4.84351 0.250776 0
M  V30 1320 H 118.332 -4.51509 -0.930638 0
M  V30 1321 H 121.876 -6.76982 1.68347 0
M  V30 1322 H 117.773 -6.43601 0.494803 0
M  V30 1323 H 118.541 -7.96055 1.90367 0
M  V30 1324 N 121.204 0.198386 -1.56346 0
M  V30 1325 C 122.62 0.549085 -1.49857 0
M  V30 1326 C 122.82 1.86016 -0.774611 0
M  V30 1327 O 121.876 2.50416 -0.323776 0
M  V30 1328 C 123.189 0.606868 -2.94512 0
M  V30 1329 C 124.737 0.695925 -3.05165 0
M  V30 1330 C 125.212 0.784848 -4.51225 0
M  V30 1331 N 126.703 0.848463 -4.55363 0
M  V30 1332 C 127.438 0.937378 -5.65686 0
M  V30 1333 N 126.934 0.9888 -6.85707 0
M  V30 1334 N 128.727 0.974312 -5.53592 0
M  V30 1335 H 120.878 -0.661655 -2.01831 0
M  V30 1336 H 123.141 -0.235261 -0.918344 0
M  V30 1337 H 122.847 -0.28732 -3.50524 0
M  V30 1338 H 122.721 1.46268 -3.47686 0
M  V30 1339 H 125.108 1.58055 -2.49204 0
M  V30 1340 H 125.189 -0.186022 -2.55123 0
M  V30 1341 H 124.833 -0.0954072 -5.0781 0
M  V30 1342 H 124.763 1.68255 -4.98997 0
M  V30 1343 H 127.254 0.818103 -3.68938 0
M  V30 1344 H 127.567 1.05707 -7.65536 0
M  V30 1345 H 125.912 0.957534 -6.88372 0
M  V30 1346 H 129.103 0.930954 -4.58749 0
M  V30 1347 H 129.276 1.04015 -6.39597 0
M  V30 1348 N 122.682 1.50554 0.465978 0
M  V30 1349 C 123.645 1.69233 1.54574 0
M  V30 1350 C 124.645 0.562901 1.50626 0
M  V30 1351 O 125.835 0.830016 1.53155 0
M  V30 1352 C 122.967 1.7223 2.94193 0
M  V30 1353 H 124.16 2.65571 1.39327 0
M  V30 1354 H 121.713 1.40111 0.692711 0
M  V30 1355 H 122.448 0.77603 3.14878 0
M  V30 1356 H 122.233 2.54285 2.98466 0
M  V30 1357 H 123.723 1.88618 3.72576 0
M  V30 1358 N 124.16 -0.719506 1.40217 0
M  V30 1359 C 125.11 -1.8251 1.36653 0
M  V30 1360 C 126.094 -1.59028 0.244732 0
M  V30 1361 O 127.286 -1.70268 0.483524 0
M  V30 1362 C 124.415 -3.20599 1.22763 0
M  V30 1363 C 123.501 -3.49858 2.39708 0
M  V30 1364 N 123.892 -3.49957 3.6519 0
M  V30 1365 C 122.19 -3.80297 2.33002 0
M  V30 1366 C 122.891 -3.77449 4.42614 0
M  V30 1367 N 121.867 -3.96002 3.72402 0
M  V30 1368 H 125.669 -1.80914 2.31619 0
M  V30 1369 H 123.183 -0.918455 1.33933 0
M  V30 1370 H 125.18 -3.99766 1.18292 0
M  V30 1371 H 123.84 -3.23424 0.287614 0
M  V30 1372 H 124.851 -3.309 3.98404 0
M  V30 1373 H 121.528 -3.90635 1.47346 0
M  V30 1374 H 122.918 -3.83863 5.51451 0
M  V30 1375 N 125.638 -1.25649 -0.95132 0
M  V30 1376 C 126.915 -1.01361 -1.67288 0
M  V30 1377 C 127.295 0.459135 -2.06046 0
M  V30 1378 O 126.643 1.43723 -1.7764 0
M  V30 1379 C 126.853 -1.95256 -2.89268 0
M  V30 1380 C 128.201 -2.23289 -3.61147 0
M  V30 1381 O 129.225 -1.93041 -2.99355 0
M  V30 1382 O 128.084 -2.74741 -4.72419 0
M  V30 1383 H 125.178 -0.38464 -0.732107 0
M  V30 1384 H 127.724 -1.36817 -1.00395 0
M  V30 1385 H 126.496 -2.94685 -2.57442 0
M  V30 1386 H 126.119 -1.60218 -3.6389 0
M  V30 1387 N 127.117 1.15442 -1.07289 0
M  V30 1388 C 128.363 1.86489 -0.796846 0
M  V30 1389 C 128.696 1.82078 0.675371 0
M  V30 1390 O 127.971 1.24346 1.4956 0
M  V30 1391 C 128.254 3.35626 -1.30489 0
M  V30 1392 C 128.107 3.48673 -2.84161 0
M  V30 1393 C 129.426 4.30357 -0.920907 0
M  V30 1394 H 126.545 0.677144 -0.290939 0
M  V30 1395 H 129.187 1.35633 -1.33056 0
M  V30 1396 H 127.337 3.79068 -0.850883 0
M  V30 1397 H 129.009 3.14099 -3.37846 0
M  V30 1398 H 127.252 2.90253 -3.22391 0
M  V30 1399 H 127.923 4.53453 -3.14777 0
M  V30 1400 H 130.399 3.94871 -1.3121 0
M  V30 1401 H 129.275 5.33193 -1.30372 0
M  V30 1402 H 129.536 4.4176 0.173226 0
M  V30 1403 N 128.595 0.856903 1.32268 0
M  V30 1404 C 129.823 0.475439 2.01363 0
M  V30 1405 C 130.238 -0.928486 1.64392 0
M  V30 1406 O 129.595 -1.60624 0.866387 0
M  V30 1407 C 129.646 0.607545 3.56358 0
M  V30 1408 O 129.367 1.95617 3.92002 0
M  V30 1409 C 130.868 0.225382 4.42727 0
M  V30 1410 H 128.088 0.186636 0.644521 0
M  V30 1411 H 130.632 1.15446 1.68797 0
M  V30 1412 H 128.787 -0.0237719 3.87393 0
M  V30 1413 H 129.201 1.95455 4.86721 0
M  V30 1414 H 130.675 0.368813 5.50767 0
M  V30 1415 H 131.152 -0.834369 4.31202 0
M  V30 1416 H 131.758 0.831864 4.17085 0
M  V30 1417 N 130.073 -1.45103 0.615059 0
M  V30 1418 C 131.35 -1.95549 0.0448276 0
M  V30 1419 C 131.73 -1.55737 -1.4251 0
M  V30 1420 O 131.078 -0.823556 -2.13143 0
M  V30 1421 C 131.288 -3.48098 0.250785 0
M  V30 1422 C 132.636 -4.24384 0.135509 0
M  V30 1423 O 133.66 -3.55738 0.181299 0
M  V30 1424 O 132.519 -5.46493 0.0268878 0
M  V30 1425 H 129.613 -0.8264 -0.0314845 0
M  V30 1426 H 132.159 -1.55232 0.685642 0
M  V30 1427 H 130.931 -3.7007 1.27139 0
M  V30 1428 H 130.554 -3.95323 -0.424937 0
M  V30 1429 N 131.551 -0.354651 -1.53558 0
M  V30 1430 C 132.514 0.484566 -2.24019 0
M  V30 1431 C 133.514 1.01861 -1.24422 0
M  V30 1432 O 134.704 0.906097 -1.4878 0
M  V30 1433 C 131.836 1.67615 -2.96847 0
M  V30 1434 H 133.029 -0.131843 -2.9961 0
M  V30 1435 H 130.582 -0.106165 -1.55939 0
M  V30 1436 H 131.317 2.33095 -2.25471 0
M  V30 1437 H 131.102 1.30029 -3.69912 0
M  V30 1438 H 132.592 2.27114 -3.50441 0
M  V30 1439 N 133.029 1.57378 -0.0835403 0
M  V30 1440 C 133.992 2.12252 0.864959 0
M  V30 1441 C 134.992 1.04916 1.21858 0
M  V30 1442 O 136.182 1.30853 1.14991 0
M  V30 1443 C 133.314 2.63358 2.16461 0
M  V30 1444 H 134.507 2.97371 0.388676 0
M  V30 1445 H 132.06 1.55423 0.165317 0
M  V30 1446 H 132.795 1.81727 2.686 0
M  V30 1447 H 132.58 3.41826 1.92087 0
M  V30 1448 H 134.07 3.05847 2.84337 0
M  V30 1449 N 134.507 -0.190092 1.56449 0
M  V30 1450 C 135.732 -0.929864 1.85387 0
M  V30 1451 C 136.157 -1.7585 0.667704 0
M  V30 1452 O 135.515 -1.77198 -0.383459 0
M  V30 1453 C 135.563 -1.79773 3.12593 0
M  V30 1454 O 134.667 -2.89713 2.93496 0
M  V30 1455 H 134.008 -0.261574 0.610307 0
M  V30 1456 H 136.538 -0.193896 2.03679 0
M  V30 1457 H 136.548 -2.20139 3.43515 0
M  V30 1458 H 135.223 -1.18892 3.98544 0
M  V30 1459 H 133.8 -2.53065 2.73884 0
M  V30 1460 N 135.985 -1.50799 -0.457987 0
M  V30 1461 C 137.215 -1.65977 -1.23025 0
M  V30 1462 C 137.623 -0.347918 -1.85974 0
M  V30 1463 O 136.966 0.68148 -1.70592 0
M  V30 1464 C 137.028 -2.70309 -2.3701 0
M  V30 1465 C 136.692 -4.135 -1.94594 0
M  V30 1466 C 137.689 -4.98949 -1.46101 0
M  V30 1467 C 135.374 -4.5949 -2.02915 0
M  V30 1468 C 137.368 -6.28442 -1.06489 0
M  V30 1469 C 135.055 -5.88984 -1.62914 0
M  V30 1470 C 136.053 -6.73286 -1.1478 0
M  V30 1471 O 135.741 -8.00362 -0.75339 0
M  V30 1472 H 135.473 -0.56064 -0.377702 0
M  V30 1473 H 138.027 -1.97857 -0.551537 0
M  V30 1474 H 136.257 -2.337 -3.08093 0
M  V30 1475 H 137.946 -2.74574 -2.98938 0
M  V30 1476 H 138.712 -4.6463 -1.39084 0
M  V30 1477 H 134.591 -3.94009 -2.39328 0
M  V30 1478 H 138.135 -6.94194 -0.688488 0
M  V30 1479 H 134.032 -6.22822 -1.69595 0
M  V30 1480 H 134.8 -8.13744 -0.88108 0
M  V30 1481 N 137.463 0.71206 -1.40597 0
M  V30 1482 C 138.426 1.80785 -1.40888 0
M  V30 1483 C 139.426 1.57937 -0.302103 0
M  V30 1484 O 140.616 1.64913 -0.561182 0
M  V30 1485 C 137.748 3.18927 -1.20409 0
M  V30 1486 H 138.941 1.81924 -2.38419 0
M  V30 1487 H 136.494 0.91805 -1.26497 0
M  V30 1488 H 137.229 3.23436 -0.236522 0
M  V30 1489 H 137.014 3.36911 -2.00582 0
M  V30 1490 H 138.504 3.98949 -1.23408 0
M  V30 1491 N 138.941 1.26152 0.944643 0
M  V30 1492 C 140.187 1.11657 1.69294 0
M  V30 1493 C 140.52 -0.339926 1.91202 0
M  V30 1494 O 139.795 -1.24994 1.49019 0
M  V30 1495 C 140.078 1.88236 3.06984 0
M  V30 1496 C 139.931 3.41772 2.92424 0
M  V30 1497 C 141.25 1.67343 4.07043 0
M  V30 1498 H 138.369 0.407004 0.614424 0
M  V30 1499 H 141.011 1.55106 1.09737 0
M  V30 1500 H 139.161 1.51308 3.57824 0
M  V30 1501 H 140.833 3.88433 2.48832 0
M  V30 1502 H 139.076 3.68974 2.28124 0
M  V30 1503 H 139.747 3.90579 3.90067 0
M  V30 1504 H 142.223 1.99509 3.65151 0
M  V30 1505 H 141.099 2.23346 5.01406 0
M  V30 1506 H 141.36 0.617158 4.37771 0
M  V30 1507 N 140.419 -1.14872 1.07899 0
M  V30 1508 C 141.349 -2.2193 0.725887 0
M  V30 1509 C 142.33 -1.67622 -0.28927 0
M  V30 1510 O 143.515 -1.93533 -0.160787 0
M  V30 1511 C 140.645 -3.47061 0.128856 0
M  V30 1512 C 139.599 -4.14363 1.07178 0
M  V30 1513 C 138.925 -5.33636 0.337229 0
M  V30 1514 C 140.225 -4.63492 2.40775 0
M  V30 1515 H 141.919 -2.51724 1.62097 0
M  V30 1516 H 139.465 -1.20991 0.780838 0
M  V30 1517 H 141.418 -4.21199 -0.130147 0
M  V30 1518 H 140.142 -3.16617 -0.80134 0
M  V30 1519 H 138.801 -3.42173 1.3158 0
M  V30 1520 H 138.449 -4.99449 -0.596606 0
M  V30 1521 H 138.149 -5.79609 0.965788 0
M  V30 1522 H 139.673 -6.10539 0.0861567 0
M  V30 1523 H 141.087 -5.2913 2.20669 0
M  V30 1524 H 139.484 -5.20148 2.99276 0
M  V30 1525 H 140.554 -3.78834 3.02676 0
M  V30 1526 N 141.898 -0.863906 -1.31812 0
M  V30 1527 C 142.845 -0.313303 -2.28664 0
M  V30 1528 C 143.815 0.584868 -1.55462 0
M  V30 1529 O 145 0.517805 -1.83639 0
M  V30 1530 C 142.14 0.48441 -3.41683 0
M  V30 1531 C 141.253 -0.440594 -4.29747 0
M  V30 1532 C 140.388 0.370652 -5.29905 0
M  V30 1533 C 139.427 -0.551164 -6.09613 0
M  V30 1534 N 138.564 0.223462 -7.01744 0
M  V30 1535 H 143.404 -1.14444 -2.75148 0
M  V30 1536 H 140.941 -0.575769 -1.35364 0
M  V30 1537 H 142.899 0.962627 -4.05943 0
M  V30 1538 H 141.529 1.28029 -2.96325 0
M  V30 1539 H 140.581 -1.03724 -3.65986 0
M  V30 1540 H 141.893 -1.14767 -4.85417 0
M  V30 1541 H 141.047 0.911638 -5.99812 0
M  V30 1542 H 139.786 1.11105 -4.74876 0
M  V30 1543 H 138.791 -1.10396 -5.38603 0
M  V30 1544 H 140.016 -1.29032 -6.66729 0
M  V30 1545 H 137.962 0.946787 -6.49132 0
M  V30 1546 H 137.879 -0.424399 -7.54808 0
M  V30 1547 H 139.147 0.745876 -7.75923 0
M  V30 1548 N 143.376 1.44774 -0.622745 0
M  V30 1549 C 144.286 2.34433 0.0886031 0
M  V30 1550 C 145.302 1.52131 0.844529 0
M  V30 1551 O 146.478 1.84886 0.798691 0
M  V30 1552 C 143.543 3.29986 1.0635 0
M  V30 1553 C 142.604 4.28195 0.307873 0
M  V30 1554 C 141.837 5.19183 1.23633 0
M  V30 1555 O 142.06 5.13918 2.47476 0
M  V30 1556 O 140.994 5.97515 0.725189 0
M  V30 1557 H 144.82 2.96693 -0.648599 0
M  V30 1558 H 142.405 1.44408 -0.382957 0
M  V30 1559 H 144.287 3.88825 1.6246 0
M  V30 1560 H 142.962 2.70269 1.78146 0
M  V30 1561 H 141.869 3.72927 -0.296064 0
M  V30 1562 H 143.202 4.90808 -0.3699 0
M  V30 1563 N 144.854 0.36279 1.53368 0
M  V30 1564 C 145.817 -0.472679 2.24273 0
M  V30 1565 C 146.817 -1.012 1.24961 0
M  V30 1566 O 148.007 -0.898194 1.49259 0
M  V30 1567 C 145.139 -1.66039 2.97731 0
M  V30 1568 H 146.332 0.14773 2.99536 0
M  V30 1569 H 143.885 0.114434 1.55881 0
M  V30 1570 H 144.62 -2.31896 2.26704 0
M  V30 1571 H 144.405 -1.28066 3.70596 0
M  V30 1572 H 145.895 -2.25252 3.51641 0
M  V30 1573 N 146.332 -1.57332 0.0918853 0
M  V30 1574 C 147.581 -1.93412 -0.572249 0
M  V30 1575 C 147.894 -0.975515 -1.69538 0
M  V30 1576 O 149.1 -1.22991 -2.42045 0
M  V30 1577 C 147.556 -3.43648 -1.0693 0
M  V30 1578 C 147.164 -4.47994 0.0239049 0
M  V30 1579 C 148.908 -3.88695 -1.70635 0
M  V30 1580 C 146.815 -5.89381 -0.488319 0
M  V30 1581 H 145.745 -0.721939 -0.217532 0
M  V30 1582 H 148.396 -1.82735 0.167369 0
M  V30 1583 H 146.778 -3.49466 -1.8625 0
M  V30 1584 H 147.952 -4.53815 0.799277 0
M  V30 1585 H 146.267 -4.12536 0.565946 0
M  V30 1586 H 148.864 -4.91725 -2.10025 0
M  V30 1587 H 149.207 -3.27166 -2.57426 0
M  V30 1588 H 149.74 -3.85564 -0.979023 0
M  V30 1589 H 146.479 -6.54602 0.342906 0
M  V30 1590 H 145.999 -5.87037 -1.23077 0
M  V30 1591 H 147.678 -6.39863 -0.958317 0
M  V30 1592 N 147.81 0.181792 -1.56548 0
M  V30 1593 C 148.72 1.24538 -1.98815 0
M  V30 1594 C 149.736 1.49045 -0.897861 0
M  V30 1595 O 150.912 1.61399 -1.20467 0
M  V30 1596 C 147.977 2.56683 -2.33055 0
M  V30 1597 C 147.038 2.40131 -3.55859 0
M  V30 1598 C 146.271 3.65975 -3.88456 0
M  V30 1599 O 146.494 4.70711 -3.22161 0
M  V30 1600 O 145.428 3.6071 -4.81842 0
M  V30 1601 H 149.254 0.916647 -2.89536 0
M  V30 1602 H 146.839 0.387842 -1.44278 0
M  V30 1603 H 148.721 3.34655 -2.56094 0
M  V30 1604 H 147.396 2.89157 -1.45498 0
M  V30 1605 H 146.303 1.60226 -3.38051 0
M  V30 1606 H 147.636 2.12585 -4.43924 0
M  V30 1607 N 149.288 1.51039 0.449983 0
M  V30 1608 C 150.198 1.74261 1.57067 0
M  V30 1609 C 151.214 0.626363 1.62335 0
M  V30 1610 O 152.39 0.907162 1.79812 0
M  V30 1611 C 149.455 1.85114 2.93144 0
M  V30 1612 C 148.516 3.0893 2.98095 0
M  V30 1613 C 147.749 3.19256 4.27681 0
M  V30 1614 O 147.972 2.35835 5.19363 0
M  V30 1615 O 146.906 4.12144 4.38658 0
M  V30 1616 H 150.732 2.69303 1.40391 0
M  V30 1617 H 148.317 1.35389 0.631688 0
M  V30 1618 H 150.199 1.94311 3.73926 0
M  V30 1619 H 148.874 0.932588 3.09975 0
M  V30 1620 H 147.781 3.0522 2.16314 0
M  V30 1621 H 149.114 4.00433 2.86206 0
M  V30 1622 N 150.766 -0.704594 1.40972 0
M  V30 1623 C 151.729 -1.80035 1.41845 0
M  V30 1624 C 152.729 -1.57774 0.310474 0
M  V30 1625 O 153.919 -1.64613 0.56992 0
M  V30 1626 C 151.051 -3.18284 1.22098 0
M  V30 1627 H 152.244 -1.80658 2.3938 0
M  V30 1628 H 149.797 -0.911329 1.26982 0
M  V30 1629 H 150.532 -3.23306 0.253672 0
M  V30 1630 H 150.317 -3.35843 2.02366 0
M  V30 1631 H 151.807 -3.98289 1.25522 0
M  V30 1632 N 152.244 -1.26651 -0.937939 0
M  V30 1633 C 153.207 -1.08546 -2.01867 0
M  V30 1634 C 154.207 -0.0327327 -1.60767 0
M  V30 1635 O 155.397 -0.276427 -1.71993 0
M  V30 1636 C 152.529 -0.651711 -3.34613 0
M  V30 1637 H 153.722 -2.04502 -2.1936 0
M  V30 1638 H 151.275 -1.09294 -1.11734 0
M  V30 1639 H 152.01 0.309696 -3.22818 0
M  V30 1640 H 151.795 -1.41189 -3.65798 0
M  V30 1641 H 153.285 -0.546973 -4.14002 0
M  V30 1642 N 153.722 1.14298 -1.08507 0
M  V30 1643 C 154.999 1.81544 -0.728088 0
M  V30 1644 C 155.379 1.95838 0.78808 0
M  V30 1645 O 154.727 1.51904 1.70697 0
M  V30 1646 C 154.937 3.17169 -1.45619 0
M  V30 1647 C 156.285 3.9265 -1.61591 0
M  V30 1648 O 157.309 3.26762 -1.41793 0
M  V30 1649 O 156.168 5.10807 -1.94263 0
M  V30 1650 H 153.262 0.78491 -0.260471 0
M  V30 1651 H 155.808 1.21307 -1.18671 0
M  V30 1652 H 154.58 3.01934 -2.489 0
M  V30 1653 H 154.203 3.851 -0.989124 0
M  V30 1654 N 155.201 0.870884 1.31352 0
M  V30 1655 C 156.148 0.325425 2.28494 0
M  V30 1656 C 157.118 -0.576615 1.5577 0
M  V30 1657 O 158.303 -0.508059 1.83911 0
M  V30 1658 C 155.443 -0.466283 3.41935 0
M  V30 1659 C 154.556 0.463378 4.29508 0
M  V30 1660 C 153.691 -0.342544 5.30094 0
M  V30 1661 C 152.73 0.583486 6.09313 0
M  V30 1662 N 151.867 -0.186244 7.01853 0
M  V30 1663 H 156.707 1.15901 2.74538 0
M  V30 1664 H 154.244 0.58294 1.35056 0
M  V30 1665 H 156.202 -0.941085 4.06447 0
M  V30 1666 H 154.832 -1.26456 2.97 0
M  V30 1667 H 153.884 1.05663 3.65431 0
M  V30 1668 H 155.196 1.1734 4.84802 0
M  V30 1669 H 154.35 -0.879816 6.00287 0
M  V30 1670 H 153.089 -1.08585 4.75458 0
M  V30 1671 H 152.094 1.13251 5.3801 0
M  V30 1672 H 153.319 1.32566 6.66035 0
M  V30 1673 H 151.265 -0.912348 6.49625 0
M  V30 1674 H 151.182 0.464422 7.54572 0
M  V30 1675 H 152.45 -0.704716 7.76308 0
M  V30 1676 N 156.679 -1.44442 0.630414 0
M  V30 1677 C 157.926 -2.02052 0.134617 0
M  V30 1678 C 158.254 -1.49576 -1.24327 0
M  V30 1679 O 157.509 -0.669806 -1.83881 0
M  V30 1680 C 157.808 -3.57332 0.0697835 0
M  V30 1681 C 157.474 -4.29058 1.38635 0
M  V30 1682 C 156.136 -4.4837 1.74694 0
M  V30 1683 C 158.488 -4.69872 2.25543 0
M  V30 1684 C 155.816 -5.05756 2.97369 0
M  V30 1685 C 158.168 -5.28616 3.47487 0
M  V30 1686 C 156.832 -5.46147 3.8377 0
M  V30 1687 H 156.102 -0.739361 0.0492598 0
M  V30 1688 H 158.749 -1.73217 0.816586 0
M  V30 1689 H 157.054 -3.85577 -0.695553 0
M  V30 1690 H 158.751 -3.99637 -0.330344 0
M  V30 1691 H 155.341 -4.14357 1.09574 0
M  V30 1692 H 159.525 -4.54666 1.98979 0
M  V30 1693 H 154.781 -5.17515 3.25558 0
M  V30 1694 H 158.955 -5.59192 4.15063 0
M  V30 1695 H 156.582 -5.9038 4.7891 0
M  V30 1696 N 158.157 -0.370918 -1.53173 0
M  V30 1697 C 159.434 0.273754 -1.93675 0
M  V30 1698 C 159.814 1.65938 -1.3049 0
M  V30 1699 O 159.162 2.23698 -0.465999 0
M  V30 1700 C 159.372 0.318602 -3.47543 0
M  V30 1701 C 160.72 0.556392 -4.20939 0
M  V30 1702 O 161.744 0.399587 -3.53952 0
M  V30 1703 O 160.603 0.862133 -5.39657 0
M  V30 1704 H 157.697 0.165448 -0.810281 0
M  V30 1705 H 160.243 -0.42409 -1.64315 0
M  V30 1706 H 159.015 -0.652687 -3.85818 0
M  V30 1707 H 158.638 1.06212 -3.83151 0
M  V30 1708 N 159.635 1.57281 -0.100228 0
M  V30 1709 C 160.884 1.93713 0.561984 0
M  V30 1710 C 161.197 0.984492 1.69018 0
M  V30 1711 O 162.403 1.24273 2.41389 0
M  V30 1712 C 160.859 3.4421 1.05106 0
M  V30 1713 C 160.467 4.47975 -0.0476628 0
M  V30 1714 C 162.211 3.89595 1.68571 0
M  V30 1715 C 160.118 5.89631 0.457055 0
M  V30 1716 H 159.048 0.723082 0.2137 0
M  V30 1717 H 161.699 1.82644 -0.177057 0
M  V30 1718 H 160.081 3.50449 1.84395 0
M  V30 1719 H 161.255 4.53385 -0.823333 0
M  V30 1720 H 159.57 4.1223 -0.587816 0
M  V30 1721 H 162.167 4.92832 2.07414 0
M  V30 1722 H 162.51 3.28526 2.55688 0
M  V30 1723 H 163.043 3.86078 0.958562 0
M  V30 1724 H 159.782 6.54411 -0.377616 0
M  V30 1725 H 159.302 5.87681 1.19962 0
M  V30 1726 H 160.981 6.40363 0.92437 0
M  V30 1727 N 161.113 -0.173488 1.56642 0
M  V30 1728 C 162.39 -0.917617 1.7274 0
M  V30 1729 C 162.77 -2.00484 0.661027 0
M  V30 1730 O 162.118 -2.26184 -0.32453 0
M  V30 1731 C 162.328 -1.48433 3.15862 0
M  V30 1732 C 163.676 -1.95809 3.76754 0
M  V30 1733 O 164.7 -1.58231 3.19126 0
M  V30 1734 O 163.559 -2.65024 4.77938 0
M  V30 1735 H 160.653 -0.431772 0.705338 0
M  V30 1736 H 163.199 -0.161487 1.6893 0
M  V30 1737 H 161.971 -0.701715 3.84957 0
M  V30 1738 H 161.594 -2.30471 3.23989 0
M  V30 1739 N 162.591 -1.51276 -0.441967 0
M  V30 1740 C 163.839 -1.63392 -1.18943 0
M  V30 1741 C 164.16 -0.350159 -1.9183 0
M  V30 1742 O 163.43 0.633784 -1.85364 0
M  V30 1743 H 162.01 -0.602164 -0.442049 0
M  V30 1744 H 164.672 -1.88186 -0.507165 0
M  V30 1745 H 163.768 -2.45934 -1.92154 0
M  V30 1746 N 164.069 0.697108 -1.41344 0
M  V30 1747 C 165.017 1.83237 -1.43272 0
M  V30 1748 C 166.011 1.66522 -0.310947 0
M  V30 1749 O 167.217 1.73402 -0.482899 0
M  V30 1750 H 163.592 0.603802 -0.448249 0
M  V30 1751 H 165.563 1.78727 -2.38954 0
M  V30 1752 C 164.312 3.21245 -1.33029 0
M  V30 1753 H 163.635 3.34723 -2.18633 0
M  V30 1754 H 165.075 4.00763 -1.38439 0
M  V30 1755 C 163.534 3.36873 -0.0424635 0
M  V30 1756 O 164.064 3.91177 0.913421 0
M  V30 1757 N 162.27 2.90581 0.0331145 0
M  V30 1758 H 161.817 2.46577 -0.745506 0
M  V30 1759 H 161.775 3.01416 0.894199 0
M  V30 1760 N 165.547 1.27147 0.931209 0
M  V30 1761 C 166.963 1.04475 1.20653 0
M  V30 1762 C 167.163 -0.223885 2.00252 0
M  V30 1763 O 166.219 -0.930332 2.34736 0
M  V30 1764 C 167.532 2.28209 1.95809 0
M  V30 1765 C 169.08 2.33211 2.08762 0
M  V30 1766 C 169.555 3.56665 2.87323 0
M  V30 1767 N 171.046 3.57201 2.94892 0
M  V30 1768 C 171.781 4.49395 3.56134 0
M  V30 1769 N 171.277 5.51889 4.18796 0
M  V30 1770 N 173.07 4.37026 3.53504 0
M  V30 1771 H 165.221 2.08612 0.399333 0
M  V30 1772 H 167.484 0.917312 0.239253 0
M  V30 1773 H 167.19 3.20538 1.44736 0
M  V30 1774 H 167.064 2.33247 2.96438 0
M  V30 1775 H 169.451 1.41391 2.59023 0
M  V30 1776 H 169.532 2.32178 1.07364 0
M  V30 1777 H 169.176 4.4882 2.37746 0
M  V30 1778 H 169.106 3.54948 3.88998 0
M  V30 1779 H 171.597 2.83074 2.50354 0
M  V30 1780 H 171.91 6.18409 4.63454 0
M  V30 1781 H 170.255 5.55735 4.17353 0
M  V30 1782 H 173.446 3.56166 3.03749 0
M  V30 1783 H 173.619 5.09067 4.00942 0
M  V30 1784 N 167.025 -1.13721 1.09112 0
M  V30 1785 C 168.274 -1.84275 0.82009 0
M  V30 1786 C 168.587 -1.84253 -0.656509 0
M  V30 1787 O 169.793 -2.50668 -1.04296 0
M  V30 1788 C 168.249 -3.30825 1.41714 0
M  V30 1789 C 167.857 -3.39244 2.92605 0
M  V30 1790 C 169.601 -4.06443 1.22492 0
M  V30 1791 C 167.508 -4.80047 3.45411 0
M  V30 1792 H 166.438 -0.690387 0.30312 0
M  V30 1793 H 169.089 -1.28146 1.31343 0
M  V30 1794 H 167.471 -3.86737 0.851498 0
M  V30 1795 H 168.645 -2.93344 3.55367 0
M  V30 1796 H 166.96 -2.77088 3.10823 0
M  V30 1797 H 169.557 -5.10387 1.59402 0
M  V30 1798 H 169.9 -4.15972 0.165299 0
M  V30 1799 H 170.433 -3.56852 1.75788 0
M  V30 1800 H 167.172 -4.75709 4.50978 0
M  V30 1801 H 166.692 -5.26455 2.87411 0
M  V30 1802 H 168.371 -5.48957 3.42425 0
M  V30 1803 N 168.503 -0.877838 -1.30888 0
M  V30 1804 C 169.75 -0.492696 -1.96415 0
M  V30 1805 C 170.078 0.956671 -1.69346 0
M  V30 1806 O 169.333 1.68993 -0.986913 0
M  V30 1807 C 169.632 -0.705748 -3.50363 0
M  V30 1808 C 169.298 -2.1291 -3.97467 0
M  V30 1809 C 167.96 -2.51834 -4.1004 0
M  V30 1810 C 170.312 -3.05702 -4.22132 0
M  V30 1811 C 167.64 -3.82775 -4.44635 0
M  V30 1812 C 169.992 -4.36166 -4.58194 0
M  V30 1813 C 168.656 -4.74993 -4.68975 0
M  V30 1814 H 167.926 -0.18029 -0.718733 0
M  V30 1815 H 170.573 -1.11233 -1.55883 0
M  V30 1816 H 168.878 -0.00303058 -3.918 0
M  V30 1817 H 170.575 -0.387456 -3.99124 0
M  V30 1818 H 167.165 -1.81694 -3.88182 0
M  V30 1819 H 171.349 -2.76853 -4.11906 0
M  V30 1820 H 166.605 -4.12609 -4.51181 0
M  V30 1821 H 170.779 -5.08111 -4.76231 0
M  V30 1822 H 168.406 -5.76495 -4.95537 0
M  V30 1823 N 169.982 1.44106 -0.638065 0
M  V30 1824 C 171.212 2.06037 -0.152394 0
M  V30 1825 C 171.62 1.47808 1.18108 0
M  V30 1826 O 170.963 0.598092 1.73691 0
M  V30 1827 C 171.025 3.59488 0.0293714 0
M  V30 1828 C 170.689 4.4022 -1.22702 0
M  V30 1829 C 171.686 4.73256 -2.15232 0
M  V30 1830 C 169.371 4.8048 -1.46437 0
M  V30 1831 C 171.365 5.45444 -3.29802 0
M  V30 1832 C 169.052 5.52417 -2.61303 0
M  V30 1833 C 170.05 5.84819 -3.52811 0
M  V30 1834 O 169.738 6.55289 -4.65673 0
M  V30 1835 H 169.47 0.671233 -0.0801401 0
M  V30 1836 H 172.024 1.85851 -0.874563 0
M  V30 1837 H 170.254 3.78191 0.806758 0
M  V30 1838 H 171.943 4.03164 0.470475 0
M  V30 1839 H 172.709 4.42684 -1.98131 0
M  V30 1840 H 168.588 4.54676 -0.760977 0
M  V30 1841 H 172.132 5.70653 -4.01249 0
M  V30 1842 H 168.029 5.82404 -2.78344 0
M  V30 1843 H 168.797 6.73762 -4.64744 0
M  V30 1844 N 171.46 0.379036 1.52974 0
M  V30 1845 C 172.393 -0.504932 2.22544 0
M  V30 1846 C 173.371 -1.0723 1.22231 0
M  V30 1847 O 174.555 -1.12589 1.51182 0
M  V30 1848 C 171.682 -1.69794 2.93066 0
M  V30 1849 C 170.728 -1.25678 4.07563 0
M  V30 1850 S 171.561 -0.246852 5.34931 0
M  V30 1851 C 172.717 -1.44588 6.08971 0
M  V30 1852 H 172.95 0.0858666 2.97176 0
M  V30 1853 H 170.483 0.163183 1.53535 0
M  V30 1854 H 172.441 -2.38219 3.34308 0
M  V30 1855 H 171.102 -2.26002 2.18133 0
M  V30 1856 H 170.295 -2.14725 4.5597 0
M  V30 1857 H 169.897 -0.651584 3.6828 0
M  V30 1858 H 172.189 -2.37469 6.34519 0
M  V30 1859 H 173.132 -1.00292 7.00962 0
M  V30 1860 H 173.54 -1.65804 5.39601 0
M  V30 1861 N 172.938 -1.57226 0.108567 0
M  V30 1862 C 174.163 -1.99604 -0.563303 0
M  V30 1863 C 174.588 -0.987563 -1.6009 0
M  V30 1864 O 173.946 0.0421687 -1.81251 0
M  V30 1865 C 173.994 -3.40902 -1.17552 0
M  V30 1866 O 173.098 -3.42896 -2.2912 0
M  V30 1867 H 172.439 -0.648704 -0.1417 0
M  V30 1868 H 174.969 -2.03679 0.193961 0
M  V30 1869 H 174.979 -3.78886 -1.51357 0
M  V30 1870 H 173.654 -4.1382 -0.415445 0
M  V30 1871 H 172.231 -3.1672 -1.96832 0
M  V30 1872 N 174.416 0.165178 -1.56732 0
M  V30 1873 C 175.662 0.882112 -1.82611 0
M  V30 1874 C 175.995 1.81628 -0.687378 0
M  V30 1875 O 175.27 1.92009 0.310267 0
M  V30 1876 C 175.553 1.67245 -3.18906 0
M  V30 1877 C 175.406 0.760987 -4.43316 0
M  V30 1878 C 176.725 2.63884 -3.52212 0
M  V30 1879 H 173.844 0.319242 -0.664269 0
M  V30 1880 H 176.486 0.148052 -1.89422 0
M  V30 1881 H 174.636 2.29824 -3.1323 0
M  V30 1882 H 176.308 0.147596 -4.61064 0
M  V30 1883 H 174.551 0.0694102 -4.33744 0
M  V30 1884 H 175.222 1.34962 -5.35247 0
M  V30 1885 H 177.698 2.11429 -3.58381 0
M  V30 1886 H 176.574 3.16245 -4.48643 0
M  V30 1887 H 176.835 3.44377 -2.77231 0
M  V30 1888 N 175.894 1.51508 0.433938 0
M  V30 1889 C 176.857 1.72473 1.50949 0
M  V30 1890 C 177.857 0.594725 1.49398 0
M  V30 1891 O 179.047 0.862315 1.5136 0
M  V30 1892 C 176.179 1.78431 2.90474 0
M  V30 1893 H 177.372 2.68467 1.33662 0
M  V30 1894 H 174.925 1.41549 0.662836 0
M  V30 1895 H 175.66 0.842645 3.13161 0
M  V30 1896 H 175.445 2.60558 2.93005 0
M  V30 1897 H 176.935 1.96479 3.68491 0
M  V30 1898 N 177.372 -0.689602 1.41712 0
M  V30 1899 C 178.783 -1.26973 1.36875 0
M  V30 1900 C 179.134 -1.96124 0.054748 0
M  V30 1901 O 178.259 -1.99141 -0.84687 0
M  V30 1902 C 178.854 -2.30912 2.47922 0
M  V30 1903 C 177.413 -2.84486 2.46464 0
M  V30 1904 C 176.56 -1.58603 2.27465 0
M  V30 1905 H 179.511 -0.48396 1.51141 0
M  V30 1906 H 179.532 -3.12331 2.17323 0
M  V30 1907 H 179.044 -1.80554 3.43543 0
M  V30 1908 H 177.145 -3.39005 1.54617 0
M  V30 1909 H 177.258 -3.34511 3.42986 0
M  V30 1910 H 175.622 -1.84632 1.75451 0
M  V30 1911 H 176.405 -1.10233 3.25121 0
M  V30 1912 N 178.85 -1.27639 -0.924453 0
M  V30 1913 C 180.266 -1.05113 -1.20097 0
M  V30 1914 C 180.466 0.213262 -2.00368 0
M  V30 1915 O 179.522 0.91787 -2.35226 0
M  V30 1916 C 180.835 -2.29244 -1.94596 0
M  V30 1917 C 182.383 -2.34315 -2.07522 0
M  V30 1918 C 182.858 -3.58183 -2.85427 0
M  V30 1919 N 184.349 -3.5876 -2.92994 0
M  V30 1920 C 185.084 -4.51277 -3.53746 0
M  V30 1921 N 184.58 -5.54102 -4.15863 0
M  V30 1922 N 186.373 -4.38894 -3.51181 0
M  V30 1923 H 178.524 -2.08821 -0.388264 0
M  V30 1924 H 180.787 -0.918568 -0.234385 0
M  V30 1925 H 180.493 -3.21301 -1.43034 0
M  V30 1926 H 180.367 -2.34816 -2.95197 0
M  V30 1927 H 182.754 -1.42762 -2.58269 0
M  V30 1928 H 182.835 -2.32744 -1.06131 0
M  V30 1929 H 182.479 -4.50074 -2.35363 0
M  V30 1930 H 182.409 -3.57006 -3.8711 0
M  V30 1931 H 184.9 -2.84398 -2.4885 0
M  V30 1932 H 185.213 -6.20859 -4.60168 0
M  V30 1933 H 183.558 -5.57941 -4.144 0
M  V30 1934 H 186.749 -3.57772 -3.01856 0
M  V30 1935 H 186.922 -5.11186 -3.98237 0
M  V30 1936 N 180.328 1.1314 -1.09713 0
M  V30 1937 C 181.575 1.84484 -0.834987 0
M  V30 1938 C 181.903 1.83689 0.639418 0
M  V30 1939 O 181.158 1.2724 1.4869 0
M  V30 1940 C 181.457 3.32167 -1.3191 0
M  V30 1941 C 181.123 3.53139 -2.80363 0
M  V30 1942 C 179.785 3.58571 -3.20905 0
M  V30 1943 C 182.137 3.60866 -3.76065 0
M  V30 1944 C 179.465 3.69267 -4.55916 0
M  V30 1945 C 181.817 3.73089 -5.10869 0
M  V30 1946 C 180.481 3.76775 -5.50996 0
M  V30 1947 H 179.751 0.675073 -0.305544 0
M  V30 1948 H 182.398 1.33554 -1.37243 0
M  V30 1949 H 180.703 3.85469 -0.701517 0
M  V30 1950 H 182.4 3.85821 -1.09284 0
M  V30 1951 H 178.99 3.49569 -2.47991 0
M  V30 1952 H 183.174 3.55946 -3.45855 0
M  V30 1953 H 178.43 3.70388 -4.86438 0
M  V30 1954 H 182.604 3.78011 -5.84877 0
M  V30 1955 H 180.231 3.84815 -6.55608 0
M  V30 1956 N 181.806 0.884767 1.30421 0
M  V30 1957 C 183.053 0.503105 1.96151 0
M  V30 1958 C 183.381 -0.947676 1.69851 0
M  V30 1959 O 182.636 -1.68467 0.995861 0
M  V30 1960 C 182.935 0.724318 3.49983 0
M  V30 1961 C 182.601 2.15015 3.96332 0
M  V30 1962 C 181.263 2.54005 4.08699 0
M  V30 1963 C 183.615 3.07936 4.20505 0
M  V30 1964 C 180.943 3.85128 4.42599 0
M  V30 1965 C 183.295 4.3859 4.55874 0
M  V30 1966 C 181.959 4.77474 4.66449 0
M  V30 1967 H 181.229 0.184099 0.717766 0
M  V30 1968 H 183.876 1.12058 1.55291 0
M  V30 1969 H 182.181 0.0238086 3.91793 0
M  V30 1970 H 183.878 0.408617 3.98913 0
M  V30 1971 H 180.468 1.8375 3.87213 0
M  V30 1972 H 184.652 2.79033 4.10431 0
M  V30 1973 H 179.908 4.14996 4.48986 0
M  V30 1974 H 184.082 5.10629 4.7353 0
M  V30 1975 H 181.709 5.79115 4.92473 0
M  V30 1976 N 183.284 -1.43765 0.645699 0
M  V30 1977 C 184.532 -2.01499 0.155731 0
M  V30 1978 C 184.853 -1.51151 -1.232 0
M  V30 1979 O 184.123 -0.721044 -1.82148 0
M  V30 1980 H 182.703 -0.745003 0.0545817 0
M  V30 1981 H 185.365 -1.76075 0.835677 0
M  V30 1982 H 184.461 -3.1181 0.134577 0
M  V30 1983 N 184.763 -0.387143 -1.52771 0
M  V30 1984 C 185.991 0.195869 -2.05971 0
M  V30 1985 C 186.406 1.40691 -1.25903 0
M  V30 1986 O 185.763 1.79931 -0.305134 0
M  V30 1987 C 185.814 0.56812 -3.57008 0
M  V30 1988 O 185.535 -0.594803 -4.34043 0
M  V30 1989 C 187.036 1.20723 -4.26545 0
M  V30 1990 H 184.256 0.0300578 -0.670326 0
M  V30 1991 H 186.8 -0.551749 -1.96916 0
M  V30 1992 H 184.955 1.26564 -3.66143 0
M  V30 1993 H 185.369 -0.289322 -5.23701 0
M  V30 1994 H 186.843 1.41807 -5.33474 0
M  V30 1995 H 187.32 2.17395 -3.81623 0
M  V30 1996 H 187.926 0.550535 -4.21722 0
M  V30 1997 N 186.241 1.57166 -0.116904 0
M  V30 1998 C 187.49 1.94298 0.541407 0
M  V30 1999 C 187.803 1.00236 1.67964 0
M  V30 2000 O 189.009 1.26826 2.40057 0
M  V30 2001 C 187.465 3.45306 1.01449 0
M  V30 2002 C 187.073 4.47899 -0.0951738 0
M  V30 2003 C 188.817 3.91361 1.6443 0
M  V30 2004 C 186.724 5.90083 0.394491 0
M  V30 2005 H 185.654 0.725308 0.206019 0
M  V30 2006 H 188.305 1.82446 -0.196419 0
M  V30 2007 H 186.687 3.52385 1.80667 0
M  V30 2008 H 187.861 4.52486 -0.871374 0
M  V30 2009 H 186.176 4.11583 -0.631505 0
M  V30 2010 H 188.773 4.95004 2.02176 0
M  V30 2011 H 189.116 3.3122 2.52189 0
M  V30 2012 H 189.649 3.87073 0.917559 0
M  V30 2013 H 186.388 6.53974 -0.447004 0
M  V30 2014 H 185.908 5.88921 1.13722 0
M  V30 2015 H 187.587 6.41307 0.856399 0
M  V30 2016 N 187.719 -0.156864 1.56817 0
M  V30 2017 C 188.682 -1.17781 1.96622 0
M  V30 2018 C 189.682 -1.36401 0.851555 0
M  V30 2019 O 190.872 -1.33561 1.11836 0
M  V30 2020 C 188.004 -2.54008 2.27361 0
M  V30 2021 H 189.197 -0.836564 2.87996 0
M  V30 2022 H 186.75 -0.39985 1.51099 0
M  V30 2023 H 187.485 -2.9312 1.38748 0
M  V30 2024 H 187.27 -2.41856 3.08623 0
M  V30 2025 H 188.76 -3.27558 2.59029 0
M  V30 2026 N 189.197 -1.51736 -0.425897 0
M  V30 2027 C 190.144 -1.73875 -1.51776 0
M  V30 2028 C 191.114 -0.580702 -1.55618 0
M  V30 2029 O 192.299 -0.81641 -1.72451 0
M  V30 2030 C 189.439 -1.88012 -2.89388 0
M  V30 2031 C 188.552 -3.15606 -2.94986 0
M  V30 2032 C 187.687 -3.20271 -4.23793 0
M  V30 2033 C 186.726 -4.42134 -4.23302 0
M  V30 2034 N 185.863 -4.44284 -5.43651 0
M  V30 2035 H 190.703 -2.67071 -1.32201 0
M  V30 2036 H 188.24 -1.32351 -0.642008 0
M  V30 2037 H 190.198 -1.9419 -3.69251 0
M  V30 2038 H 188.828 -0.98213 -3.07496 0
M  V30 2039 H 187.88 -3.18681 -2.07717 0
M  V30 2040 H 189.192 -4.05486 -2.90486 0
M  V30 2041 H 188.346 -3.25428 -5.12036 0
M  V30 2042 H 187.085 -2.28299 -4.30965 0
M  V30 2043 H 186.09 -4.3714 -3.3345 0
M  V30 2044 H 187.315 -5.35382 -4.17783 0
M  V30 2045 H 185.261 -3.55188 -5.51523 0
M  V30 2046 H 185.178 -5.27988 -5.41078 0
M  V30 2047 H 186.446 -4.53649 -6.33895 0
M  V30 2048 N 190.675 0.682077 -1.42076 0
M  V30 2049 C 191.905 1.46844 -1.45329 0
M  V30 2050 C 192.313 1.89102 -0.0609328 0
M  V30 2051 O 191.656 1.58238 0.933082 0
M  V30 2052 C 191.718 2.75375 -2.31104 0
M  V30 2053 C 191.382 2.55238 -3.79081 0
M  V30 2054 C 192.379 2.20309 -4.70914 0
M  V30 2055 C 190.064 2.70459 -4.2327 0
M  V30 2056 C 192.058 2.00859 -6.04925 0
M  V30 2057 C 189.745 2.50624 -5.57343 0
M  V30 2058 C 190.743 2.15876 -6.47986 0
M  V30 2059 O 190.431 1.96227 -7.79583 0
M  V30 2060 H 190.163 0.4586 -0.496651 0
M  V30 2061 H 192.717 0.846131 -1.87162 0
M  V30 2062 H 190.947 3.40061 -1.84107 0
M  V30 2063 H 192.636 3.37231 -2.25898 0
M  V30 2064 H 193.402 2.08153 -4.38061 0
M  V30 2065 H 189.281 2.96485 -3.53012 0
M  V30 2066 H 192.825 1.7366 -6.75639 0
M  V30 2067 H 188.722 2.62375 -5.89771 0
M  V30 2068 H 189.49 2.10883 -7.90867 0
M  V30 2069 N 192.153 1.28127 0.917671 0
M  V30 2070 C 193.083 1.14248 2.03641 0
M  V30 2071 C 194.064 0.0412748 1.7005 0
M  V30 2072 O 195.249 0.217566 1.92977 0
M  V30 2073 C 192.379 0.799431 3.37974 0
M  V30 2074 C 191.333 1.85497 3.85713 0
M  V30 2075 C 190.659 1.36565 5.16966 0
M  V30 2076 C 191.959 3.26085 4.08002 0
M  V30 2077 H 193.653 2.07835 2.15511 0
M  V30 2078 H 191.199 1.00064 1.03553 0
M  V30 2079 H 193.152 0.689114 4.15727 0
M  V30 2080 H 191.876 -0.172145 3.26146 0
M  V30 2081 H 190.535 1.95437 3.10161 0
M  V30 2082 H 190.183 0.383253 5.01538 0
M  V30 2083 H 189.883 2.07143 5.49878 0
M  V30 2084 H 191.407 1.26848 5.97279 0
M  V30 2085 H 192.821 3.19089 4.76293 0
M  V30 2086 H 191.218 3.94462 4.52238 0
M  V30 2087 H 192.288 3.70394 3.12948 0
M  V30 2088 N 193.631 -1.12557 1.10312 0
M  V30 2089 C 194.578 -2.18247 0.750781 0
M  V30 2090 C 195.548 -1.63853 -0.272293 0
M  V30 2091 O 196.733 -1.90195 -0.151862 0
M  V30 2092 C 193.873 -3.44591 0.187379 0
M  V30 2093 C 192.986 -4.13046 1.2656 0
M  V30 2094 C 192.121 -5.27034 0.663978 0
M  V30 2095 C 191.16 -5.87353 1.72287 0
M  V30 2096 N 190.297 -6.92757 1.1416 0
M  V30 2097 H 195.137 -2.47732 1.65628 0
M  V30 2098 H 192.674 -1.21629 0.827337 0
M  V30 2099 H 194.632 -4.16904 -0.157148 0
M  V30 2100 H 193.262 -3.15527 -0.681355 0
M  V30 2101 H 192.314 -3.38924 1.72727 0
M  V30 2102 H 193.626 -4.53947 2.06721 0
M  V30 2103 H 192.78 -6.06104 0.268824 0
M  V30 2104 H 191.519 -4.87407 -0.169082 0
M  V30 2105 H 190.524 -5.06971 2.12746 0
M  V30 2106 H 191.749 -6.29051 2.55875 0
M  V30 2107 H 189.695 -6.5517 0.329984 0
M  V30 2108 H 189.612 -7.3225 1.88007 0
M  V30 2109 H 190.88 -7.75658 0.772956 0
M  V30 2110 N 195.109 -0.891671 -1.2995 0
M  V30 2111 C 196.334 -0.527932 -2.00568 0
M  V30 2112 C 196.759 0.877969 -1.66353 0
M  V30 2113 O 196.117 1.58301 -0.883762 0
M  V30 2114 C 196.165 -0.717745 -3.53385 0
M  V30 2115 O 195.269 0.233376 -4.11739 0
M  V30 2116 H 194.61 -0.20722 -0.630837 0
M  V30 2117 H 197.14 -1.20105 -1.65638 0
M  V30 2118 H 197.15 -0.619307 -4.03272 0
M  V30 2119 H 195.825 -1.74276 -3.77625 0
M  V30 2120 H 194.402 0.0880706 -3.72796 0
M  V30 2121 N 196.587 1.43421 -0.653314 0
M  V30 2122 C 197.497 2.34568 0.0388565 0
M  V30 2123 C 198.513 1.53888 0.81207 0
M  V30 2124 O 199.689 1.86539 0.759294 0
M  V30 2125 C 196.754 3.32167 0.993269 0
M  V30 2126 C 195.815 4.28751 0.216977 0
M  V30 2127 C 195.048 5.21688 1.12593 0
M  V30 2128 O 195.271 5.19052 2.36519 0
M  V30 2129 O 194.205 5.98919 0.598284 0
M  V30 2130 H 198.031 2.95251 -0.711386 0
M  V30 2131 H 195.616 1.43564 -0.413502 0
M  V30 2132 H 197.498 3.92183 1.54176 0
M  V30 2133 H 196.173 2.73987 1.72374 0
M  V30 2134 H 195.08 3.72215 -0.375101 0
M  V30 2135 H 196.413 4.89913 -0.473924 0
M  V30 2136 N 198.065 0.39524 1.52563 0
M  V30 2137 C 199.313 -0.184678 2.01254 0
M  V30 2138 C 199.634 -1.46822 1.28329 0
M  V30 2139 O 198.904 -1.91666 0.405094 0
M  V30 2140 H 197.484 -0.0712355 0.743596 0
M  V30 2141 H 200.146 0.528293 1.87603 0
M  V30 2142 H 199.242 -0.390681 3.09645 0
M  V30 2143 N 199.544 -1.57102 0.125237 0
M  V30 2144 C 200.474 -2.18659 -0.819174 0
M  V30 2145 C 201.455 -1.12843 -1.27281 0
M  V30 2146 O 202.64 -1.41104 -1.33429 0
M  V30 2147 C 199.77 -2.79096 -2.06695 0
M  V30 2148 C 198.724 -3.90548 -1.75088 0
M  V30 2149 C 198.05 -4.37821 -3.06948 0
M  V30 2150 C 199.35 -5.12356 -1.01435 0
M  V30 2151 H 201.044 -2.9783 -0.306202 0
M  V30 2152 H 198.59 -1.4326 -0.145839 0
M  V30 2153 H 200.543 -3.2082 -2.73226 0
M  V30 2154 H 199.267 -1.97223 -2.60328 0
M  V30 2155 H 197.926 -3.49409 -1.10944 0
M  V30 2156 H 197.574 -3.52799 -3.58527 0
M  V30 2157 H 197.274 -5.12982 -2.86571 0
M  V30 2158 H 198.798 -4.822 -3.74587 0
M  V30 2159 H 200.212 -5.5106 -1.58132 0
M  V30 2160 H 198.609 -5.9314 -0.911319 0
M  V30 2161 H 199.679 -4.849 -0.00218681 0
M  V30 2162 N 201.022 0.148545 -1.56898 0
M  V30 2163 C 201.952 1.18524 -2.01182 0
M  V30 2164 C 202.933 1.4489 -0.891123 0
M  V30 2165 O 204.118 1.55836 -1.15882 0
M  V30 2166 C 201.248 2.51879 -2.39112 0
M  V30 2167 C 200.202 2.40038 -3.54353 0
M  V30 2168 C 199.528 3.78089 -3.78091 0
M  V30 2169 C 200.828 1.88577 -4.87069 0
M  V30 2170 H 202.522 0.817029 -2.88036 0
M  V30 2171 H 200.068 0.391575 -1.38574 0
M  V30 2172 H 202.021 3.24627 -2.68692 0
M  V30 2173 H 200.745 2.90532 -1.49193 0
M  V30 2174 H 199.404 1.69742 -3.24936 0
M  V30 2175 H 199.052 4.14175 -2.85426 0
M  V30 2176 H 198.752 3.71028 -4.55645 0
M  V30 2177 H 200.276 4.52387 -4.10095 0
M  V30 2178 H 201.69 2.51117 -5.15377 0
M  V30 2179 H 200.087 1.9241 -5.68417 0
M  V30 2180 H 201.157 0.84136 -4.77545 0
M  V30 2181 N 202.5 1.5196 0.417844 0
M  V30 2182 C 203.463 1.74065 1.49111 0
M  V30 2183 C 204.463 0.610537 1.48758 0
M  V30 2184 O 205.653 0.87832 1.50437 0
M  V30 2185 C 202.785 1.81502 2.88565 0
M  V30 2186 H 203.978 2.69869 1.30807 0
M  V30 2187 H 201.531 1.42244 0.647785 0
M  V30 2188 H 202.266 0.875813 3.1225 0
M  V30 2189 H 202.051 2.63651 2.90225 0
M  V30 2190 H 203.541 2.00376 3.66387 0
M  V30 2191 N 203.978 -0.674533 1.42435 0
M  V30 2192 C 205.255 -1.4305 1.33402 0
M  V30 2193 C 205.635 -2.11081 -0.0284674 0
M  V30 2194 O 204.983 -2.03257 -1.04397 0
M  V30 2195 C 205.193 -2.43272 2.50239 0
M  V30 2196 C 206.541 -3.07907 2.92367 0
M  V30 2197 O 207.565 -2.53599 2.50132 0
M  V30 2198 O 206.424 -4.0632 3.65467 0
M  V30 2199 H 203.518 -0.638076 0.526106 0
M  V30 2200 H 206.064 -0.703235 1.54443 0
M  V30 2201 H 204.836 -1.91803 3.41068 0
M  V30 2202 H 204.459 -3.23479 2.31186 0
M  V30 2203 N 205.456 -1.28612 -0.910864 0
M  V30 2204 C 206.684 -1.18792 -1.69399 0
M  V30 2205 C 207.099 0.253039 -1.87097 0
M  V30 2206 O 206.456 1.17071 -1.40003 0
M  V30 2207 C 206.507 -1.88511 -3.08457 0
M  V30 2208 O 206.228 -3.26979 -2.91576 0
M  V30 2209 C 207.729 -1.85029 -4.02839 0
M  V30 2210 H 204.949 -0.412233 -0.529438 0
M  V30 2211 H 207.493 -1.69788 -1.13984 0
M  V30 2212 H 205.648 -1.41379 -3.60681 0
M  V30 2213 H 206.062 -3.61936 -3.79608 0
M  V30 2214 H 207.536 -2.38395 -4.97867 0
M  V30 2215 H 208.013 -0.823303 -4.31414 0
M  V30 2216 H 208.619 -2.31853 -3.56545 0
M  V30 2217 N 206.934 1.1197 -1.10907 0
M  V30 2218 C 208.182 1.83225 -0.852819 0
M  V30 2219 C 208.503 1.84769 0.623341 0
M  V30 2220 O 207.773 1.3143 1.45269 0
M  V30 2221 H 206.353 0.67849 -0.312507 0
M  V30 2222 H 209.015 1.3556 -1.40033 0
M  V30 2223 H 208.111 2.87265 -1.22005 0
M  V30 2224 N 208.412 0.89855 1.29475 0
M  V30 2225 C 209.642 0.538479 1.99459 0
M  V30 2226 C 210.05 -0.880922 1.67441 0
M  V30 2227 O 209.393 -1.59283 0.915127 0
M  V30 2228 C 209.455 0.649564 3.53583 0
M  V30 2229 C 209.119 2.03573 4.09154 0
M  V30 2230 C 210.116 3.00675 4.24135 0
M  V30 2231 C 207.801 2.3448 4.44212 0
M  V30 2232 C 209.795 4.26809 4.73405 0
M  V30 2233 C 207.482 3.60857 4.93179 0
M  V30 2234 C 208.48 4.56836 5.0773 0
M  V30 2235 O 208.168 5.80969 5.55635 0
M  V30 2236 H 207.9 0.205372 0.644048 0
M  V30 2237 H 210.454 1.20958 1.66007 0
M  V30 2238 H 208.684 -0.0785592 3.8662 0
M  V30 2239 H 210.373 0.29881 4.04799 0
M  V30 2240 H 211.139 2.78112 3.97339 0
M  V30 2241 H 207.018 1.60534 4.32145 0
M  V30 2242 H 210.562 5.0173 4.84678 0
M  V30 2243 H 206.459 3.83251 5.19412 0
M  V30 2244 H 207.227 5.83542 5.73952 0
M  V30 2245 N 209.89 -1.43072 0.660911 0
M  V30 2246 C 210.838 -2.32569 -0.0378199 0
M  V30 2247 C 211.832 -1.49046 -0.805092 0
M  V30 2248 O 213.038 -1.65206 -0.714624 0
M  V30 2249 H 209.413 -0.75136 -0.031019 0
M  V30 2250 H 211.384 -2.89216 0.734609 0
M  V30 2251 C 210.133 -3.33453 -0.985124 0
M  V30 2252 H 209.456 -3.97752 -0.404147 0
M  V30 2253 H 210.896 -3.98691 -1.44297 0
M  V30 2254 C 209.355 -2.64642 -2.08486 0
M  V30 2255 O 209.885 -2.46776 -3.16961 0
M  V30 2256 N 208.091 -2.23891 -1.8526 0
M  V30 2257 H 207.638 -2.38621 -0.970449 0
M  V30 2258 H 207.596 -1.78181 -2.59034 0
M  V30 2259 N 211.368 -0.403325 -1.52352 0
M  V30 2260 C 212.784 -0.0539281 -1.59509 0
M  V30 2261 C 212.984 1.43307 -1.41652 0
M  V30 2262 O 212.04 2.19924 -1.24056 0
M  V30 2263 C 213.353 -0.543654 -2.95745 0
M  V30 2264 C 214.901 -0.501125 -3.08962 0
M  V30 2265 C 215.376 -0.967267 -4.47669 0
M  V30 2266 N 216.867 -0.923849 -4.53893 0
M  V30 2267 C 217.602 -1.25578 -5.5948 0
M  V30 2268 N 217.098 -1.65889 -6.72646 0
M  V30 2269 N 218.891 -1.17613 -5.49658 0
M  V30 2270 H 211.042 -1.37123 -1.62206 0
M  V30 2271 H 213.305 -0.56294 -0.76276 0
M  V30 2272 H 213.011 -1.58275 -3.14073 0
M  V30 2273 H 212.885 0.0498042 -3.77167 0
M  V30 2274 H 215.272 0.528909 -2.90321 0
M  V30 2275 H 215.353 -1.13056 -2.2946 0
M  V30 2276 H 214.997 -1.9956 -4.67053 0
M  V30 2277 H 214.927 -0.314698 -5.25659 0
M  V30 2278 H 217.418 -0.627403 -3.72655 0
M  V30 2279 H 217.731 -1.89543 -7.49195 0
M  V30 2280 H 216.076 -1.69787 -6.73942 0
M  V30 2281 H 219.267 -0.860115 -4.6013 0
M  V30 2282 H 219.44 -1.43812 -6.3184 0
M  V30 2283 N 212.846 1.57033 -0.133567 0
M  V30 2284 C 213.776 2.1909 0.807567 0
M  V30 2285 C 214.757 1.13517 1.26681 0
M  V30 2286 O 215.942 1.41809 1.32679 0
M  V30 2287 C 213.072 2.80188 2.05212 0
M  V30 2288 C 212.026 3.91471 1.73015 0
M  V30 2289 C 211.352 4.39443 3.04622 0
M  V30 2290 C 212.652 5.12886 0.987168 0
M  V30 2291 H 214.346 2.97988 0.290403 0
M  V30 2292 H 211.892 1.43335 0.138239 0
M  V30 2293 H 213.845 3.22264 2.71521 0
M  V30 2294 H 212.569 1.98601 2.59278 0
M  V30 2295 H 211.228 3.49993 1.0909 0
M  V30 2296 H 210.876 3.54695 3.56651 0
M  V30 2297 H 210.576 5.14495 2.83847 0
M  V30 2298 H 212.1 4.8418 3.72024 0
M  V30 2299 H 213.514 5.51891 1.55208 0
M  V30 2300 H 211.911 5.93615 0.87985 0
M  V30 2301 H 212.981 4.84894 -0.0235286 0
M  V30 2302 N 214.325 -0.140222 1.56975 0
M  V30 2303 C 215.258 -1.20266 1.93936 0
M  V30 2304 C 216.236 -1.41212 0.806099 0
M  V30 2305 O 217.42 -1.55713 1.06234 0
M  V30 2306 C 214.547 -2.56037 2.21726 0
M  V30 2307 C 213.593 -2.51646 3.44349 0
M  V30 2308 S 214.426 -1.97678 4.97678 0
M  V30 2309 C 215.582 -3.35165 5.28597 0
M  V30 2310 H 215.815 -0.887358 2.83749 0
M  V30 2311 H 213.348 -0.346119 1.50471 0
M  V30 2312 H 215.306 -3.34167 2.38416 0
M  V30 2313 H 213.967 -2.84755 1.32566 0
M  V30 2314 H 213.16 -3.51608 3.61092 0
M  V30 2315 H 212.762 -1.81628 3.26936 0
M  V30 2316 H 215.054 -4.31302 5.2248 0
M  V30 2317 H 215.997 -3.23269 6.30002 0
M  V30 2318 H 216.405 -3.32614 4.56101 0
M  V30 2319 N 215.803 -1.52179 -0.40978 0
M  V30 2320 C 217.052 -1.65434 -1.15388 0
M  V30 2321 C 217.365 -0.390056 -1.91671 0
M  V30 2322 O 218.571 -0.402399 -2.68501 0
M  V30 2323 C 217.027 -2.92279 -2.10003 0
M  V30 2324 C 216.635 -4.25813 -1.39239 0
M  V30 2325 C 218.379 -3.14897 -2.84675 0
M  V30 2326 C 216.286 -5.43782 -2.32498 0
M  V30 2327 H 215.216 -0.616267 -0.434432 0
M  V30 2328 H 217.867 -1.78666 -0.418401 0
M  V30 2329 H 216.249 -2.72744 -2.871 0
M  V30 2330 H 217.423 -4.55828 -0.675099 0
M  V30 2331 H 215.738 -4.09292 -0.766097 0
M  V30 2332 H 218.335 -4.0021 -3.54593 0
M  V30 2333 H 218.678 -2.29103 -3.47588 0
M  V30 2334 H 219.211 -3.34901 -2.14677 0
M  V30 2335 H 215.95 -6.3192 -1.74233 0
M  V30 2336 H 215.47 -5.18106 -3.02201 0
M  V30 2337 H 217.149 -5.76834 -2.93038 0
M  V30 2338 N 217.281 0.66697 -1.42791 0
M  V30 2339 C 218.191 1.80962 -1.49299 0
M  V30 2340 C 219.207 1.69775 -0.381108 0
M  V30 2341 O 220.383 1.91188 -0.633188 0
M  V30 2342 C 217.448 3.17156 -1.40045 0
M  V30 2343 C 216.509 3.40242 -2.6179 0
M  V30 2344 C 215.742 4.69939 -2.52969 0
M  V30 2345 O 215.965 5.48372 -1.56985 0
M  V30 2346 O 214.899 4.94441 -3.43237 0
M  V30 2347 H 218.725 1.78427 -2.45759 0
M  V30 2348 H 216.31 0.823713 -1.24641 0
M  V30 2349 H 218.192 3.98413 -1.37276 0
M  V30 2350 H 216.867 3.20312 -0.467138 0
M  V30 2351 H 215.774 2.58802 -2.70134 0
M  V30 2352 H 217.107 3.41923 -3.54047 0
M  V30 2353 N 218.759 1.29093 0.90403 0
M  V30 2354 C 219.706 1.13853 2.00764 0
M  V30 2355 C 220.676 0.0330084 1.66067 0
M  V30 2356 O 221.861 0.199733 1.89752 0
M  V30 2357 C 219.001 0.816537 3.35301 0
M  V30 2358 C 218.114 2.00206 3.82807 0
M  V30 2359 C 217.249 1.61983 5.059 0
M  V30 2360 C 216.288 2.77143 5.45764 0
M  V30 2361 N 215.425 2.39346 6.60044 0
M  V30 2362 H 220.265 2.08276 2.13132 0
M  V30 2363 H 217.802 1.03648 1.04381 0
M  V30 2364 H 219.76 0.610557 4.12708 0
M  V30 2365 H 218.39 -0.090779 3.22672 0
M  V30 2366 H 217.442 2.31988 3.01473 0
M  V30 2367 H 218.754 2.86512 4.08304 0
M  V30 2368 H 217.908 1.37649 5.90879 0
M  V30 2369 H 216.647 0.728202 4.82233 0
M  V30 2370 H 215.652 3.02165 4.59322 0
M  V30 2371 H 216.877 3.66964 5.71414 0
M  V30 2372 H 214.823 1.52665 6.37989 0
M  V30 2373 H 214.74 3.19185 6.85315 0
M  V30 2374 H 216.008 2.1832 7.48303 0
M  V30 2375 N 220.237 -1.11381 1.11499 0
M  V30 2376 C 221.648 -1.6465 0.880191 0
M  V30 2377 C 221.999 -1.87199 -0.587434 0
M  V30 2378 O 221.124 -1.60667 -1.44966 0
M  V30 2379 C 221.719 -2.99105 1.59128 0
M  V30 2380 C 220.278 -3.49279 1.40289 0
M  V30 2381 C 219.425 -2.24077 1.63354 0
M  V30 2382 H 222.376 -0.950123 1.27116 0
M  V30 2383 H 222.397 -3.66107 1.03664 0
M  V30 2384 H 221.909 -2.82661 2.65941 0
M  V30 2385 H 220.01 -3.70887 0.356888 0
M  V30 2386 H 220.123 -4.2803 2.15238 0
M  V30 2387 H 218.487 -2.31733 1.05698 0
M  V30 2388 H 219.27 -2.10175 2.71443 0
M  V30 2389 N 221.715 -0.905404 -1.28997 0
M  V30 2390 C 222.962 -0.534248 -1.95325 0
M  V30 2391 C 223.29 0.920535 -1.71337 0
M  V30 2392 O 222.545 1.66861 -1.02254 0
M  V30 2393 C 222.844 -0.779906 -3.48787 0
M  V30 2394 C 222.51 -2.21293 -3.92861 0
M  V30 2395 C 221.172 -2.60475 -4.04606 0
M  V30 2396 C 223.524 -3.14587 -4.15553 0
M  V30 2397 C 220.852 -3.9212 -4.36416 0
M  V30 2398 C 223.204 -4.45787 -4.48839 0
M  V30 2399 C 221.868 -4.84834 -4.58794 0
M  V30 2400 H 221.138 -0.195495 -0.714747 0
M  V30 2401 H 223.785 -1.14514 -1.53488 0
M  V30 2402 H 222.09 -0.0861365 -3.91705 0
M  V30 2403 H 223.787 -0.472029 -3.98212 0
M  V30 2404 H 220.377 -1.89887 -3.84241 0
M  V30 2405 H 224.561 -2.85528 -4.0594 0
M  V30 2406 H 219.817 -4.22086 -4.42327 0
M  V30 2407 H 223.991 -5.18098 -4.65346 0
M  V30 2408 H 221.618 -5.86877 -4.83197 0
M  V30 2409 N 223.193 1.4272 -0.668489 0
M  V30 2410 C 224.441 2.01226 -0.187769 0
M  V30 2411 C 224.762 1.53092 1.2078 0
M  V30 2412 O 224.032 0.74993 1.80977 0
M  V30 2413 H 222.612 0.744041 -0.0664272 0
M  V30 2414 H 225.274 1.74723 -0.863583 0
M  V30 2415 H 224.37 3.11556 -0.184166 0
M  V30 2416 N 224.671 0.411399 1.52136 0
M  V30 2417 C 225.899 -0.163076 2.06256 0
M  V30 2418 C 226.314 -1.3867 1.28125 0
M  V30 2419 O 225.671 -1.79423 0.333721 0
M  V30 2420 C 225.722 -0.511252 3.57867 0
M  V30 2421 O 225.443 0.66378 4.33042 0
M  V30 2422 C 226.944 -1.13921 4.28412 0
M  V30 2423 H 224.164 -0.0193897 0.67072 0
M  V30 2424 H 226.708 0.583007 1.96013 0
M  V30 2425 H 224.863 -1.20723 3.6811 0
M  V30 2426 H 225.277 0.372601 5.23175 0
M  V30 2427 H 226.751 -1.33302 5.35663 0
M  V30 2428 H 227.228 -2.11296 3.85033 0
M  V30 2429 H 227.834 -0.483373 4.22544 0
M  V30 2430 N 226.149 -1.5696 0.141893 0
M  V30 2431 C 227.374 -2.00754 -0.520838 0
M  V30 2432 C 227.799 -1.0213 -1.57959 0
M  V30 2433 O 227.157 0.00371324 -1.813 0
M  V30 2434 C 227.205 -3.43318 -1.10294 0
M  V30 2435 O 226.309 -3.47679 -2.21795 0
M  V30 2436 H 225.65 -0.651564 -0.127908 0
M  V30 2437 H 228.18 -2.03221 0.23712 0
M  V30 2438 H 228.19 -3.82012 -1.43287 0
M  V30 2439 H 226.865 -4.14608 -0.327574 0
M  V30 2440 H 225.442 -3.20824 -1.9007 0
M  V30 2441 N 227.627 0.131896 -1.57047 0
M  V30 2442 C 228.857 0.855219 -1.88068 0
M  V30 2443 C 229.265 1.74557 -0.729817 0
M  V30 2444 O 228.608 1.81083 0.308962 0
M  V30 2445 C 228.67 1.75119 -3.13964 0
M  V30 2446 C 228.334 1.03646 -4.45091 0
M  V30 2447 C 229.331 0.383276 -5.18485 0
M  V30 2448 C 227.016 1.02148 -4.91804 0
M  V30 2449 C 229.01 -0.275347 -6.36805 0
M  V30 2450 C 226.697 0.359047 -6.10044 0
M  V30 2451 C 227.695 -0.288222 -6.82392 0
M  V30 2452 O 227.383 -0.94011 -7.98384 0
M  V30 2453 H 227.115 0.251864 -0.627328 0
M  V30 2454 H 229.669 0.124782 -2.05021 0
M  V30 2455 H 227.899 2.52295 -2.9306 0
M  V30 2456 H 229.588 2.3478 -3.31109 0
M  V30 2457 H 230.354 0.386562 -4.83457 0
M  V30 2458 H 226.233 1.5147 -4.35405 0
M  V30 2459 H 229.777 -0.781148 -6.93213 0
M  V30 2460 H 225.674 0.35348 -6.44531 0
M  V30 2461 H 226.442 -0.84329 -8.14144 0
M  V30 2462 N 229.106 1.52395 0.401703 0
M  V30 2463 C 230.383 1.57387 1.16141 0
M  V30 2464 C 230.763 0.359359 2.08019 0
M  V30 2465 O 230.111 -0.65326 2.18963 0
M  V30 2466 C 230.321 2.90631 1.93221 0
M  V30 2467 C 231.669 3.43904 2.49028 0
M  V30 2468 O 232.693 2.92421 2.03393 0
M  V30 2469 O 231.552 4.33823 3.32356 0
M  V30 2470 H 228.646 0.634262 0.530698 0
M  V30 2471 H 231.192 1.64725 0.407883 0
M  V30 2472 H 229.964 3.70473 1.25958 0
M  V30 2473 H 229.587 2.8662 2.75563 0
M  V30 2474 N 230.584 -0.659388 1.43143 0
M  V30 2475 C 231.812 -1.44723 1.47861 0
M  V30 2476 C 232.227 -1.88563 0.0945886 0
M  V30 2477 O 231.584 -1.59108 -0.893915 0
M  V30 2478 C 231.635 -2.68627 2.41913 0
M  V30 2479 O 231.356 -2.26623 3.74932 0
M  V30 2480 C 232.857 -3.62045 2.55809 0
M  V30 2481 H 230.077 -0.444801 0.502387 0
M  V30 2482 H 232.621 -0.808916 1.87821 0
M  V30 2483 H 230.776 -3.28613 2.05164 0
M  V30 2484 H 231.19 -3.06745 4.2545 0
M  V30 2485 H 232.664 -4.45666 3.25708 0
M  V30 2486 H 233.141 -4.08981 1.60099 0
M  V30 2487 H 233.747 -3.07944 2.93344 0
M  V30 2488 N 232.062 -1.29571 -0.897171 0
M  V30 2489 C 233.025 -1.14913 -1.98312 0
M  V30 2490 C 234.025 -0.0838629 -1.60581 0
M  V30 2491 O 235.215 -0.331006 -1.71026 0
M  V30 2492 C 232.347 -0.757835 -3.3237 0
M  V30 2493 H 233.54 -2.11377 -2.12743 0
M  V30 2494 H 231.093 -1.12793 -1.08201 0
M  V30 2495 H 231.828 0.206837 -3.2364 0
M  V30 2496 H 231.613 -1.52755 -3.61121 0
M  V30 2497 H 233.103 -0.678408 -4.12053 0
M  V30 2498 N 233.54 1.10788 -1.12088 0
M  V30 2499 C 234.503 2.15207 -0.788577 0
M  V30 2500 C 235.503 1.59609 0.195317 0
M  V30 2501 O 236.693 1.74174 -0.0300193 0
M  V30 2502 C 233.825 3.4047 -0.171174 0
M  V30 2503 H 235.018 2.46116 -1.71368 0
M  V30 2504 H 232.571 1.26089 -0.923652 0
M  V30 2505 H 233.306 3.15176 0.763832 0
M  V30 2506 H 233.091 3.82109 -0.879514 0
M  V30 2507 H 234.581 4.17576 0.04496 0
M  V30 2508 N 235.018 0.912232 1.28515 0
M  V30 2509 C 235.928 0.404506 2.31086 0
M  V30 2510 C 236.944 -0.50707 1.66448 0
M  V30 2511 O 238.12 -0.393624 1.97516 0
M  V30 2512 C 235.185 -0.348572 3.44943 0
M  V30 2513 C 234.246 0.59604 4.25142 0
M  V30 2514 C 233.479 -0.121194 5.33562 0
M  V30 2515 O 233.702 -1.34317 5.5436 0
M  V30 2516 O 232.636 0.542716 5.99448 0
M  V30 2517 H 236.462 1.25579 2.76521 0
M  V30 2518 H 234.047 0.676998 1.33181 0
M  V30 2519 H 235.929 -0.77395 4.14232 0
M  V30 2520 H 234.604 -1.17571 3.01594 0
M  V30 2521 H 233.511 1.07079 3.58448 0
M  V30 2522 H 234.844 1.38995 4.72167 0
M  V30 2523 N 236.496 -1.42363 0.676048 0
M  V30 2524 C 237.426 -2.33497 0.0124832 0
M  V30 2525 C 238.407 -1.50748 -0.787981 0
M  V30 2526 O 239.592 -1.79346 -0.744884 0
M  V30 2527 C 236.722 -3.34377 -0.938582 0
M  V30 2528 C 235.676 -4.27289 -0.246622 0
M  V30 2529 C 235.002 -5.18386 -1.31071 0
M  V30 2530 C 236.302 -5.14916 0.875125 0
M  V30 2531 H 237.996 -2.89233 0.773593 0
M  V30 2532 H 235.542 -1.39073 0.37346 0
M  V30 2533 H 237.495 -3.97044 -1.41188 0
M  V30 2534 H 236.219 -2.76947 -1.73113 0
M  V30 2535 H 234.878 -3.66018 0.206456 0
M  V30 2536 H 234.526 -4.57282 -2.09528 0
M  V30 2537 H 234.226 -5.81378 -0.852839 0
M  V30 2538 H 235.75 -5.83929 -1.78492 0
M  V30 2539 H 237.164 -5.71262 0.482983 0
M  V30 2540 H 235.561 -5.86747 1.25887 0
M  V30 2541 H 236.631 -4.53242 1.72335 0
M  V30 2542 N 237.974 -0.419461 -1.51915 0
M  V30 2543 C 238.906 0.43646 -2.25006 0
M  V30 2544 C 239.919 1.00149 -1.28351 0
M  V30 2545 O 241.108 0.898674 -1.54227 0
M  V30 2546 C 238.208 1.6206 -2.9764 0
M  V30 2547 C 237.381 1.17763 -4.21249 0
M  V30 2548 C 236.44 2.22985 -4.76617 0
M  V30 2549 O 235.466 1.83151 -5.38929 0
M  V30 2550 N 236.668 3.55271 -4.59089 0
M  V30 2551 H 239.433 -0.18989 -2.99098 0
M  V30 2552 H 236.994 -0.247386 -1.59999 0
M  V30 2553 H 238.986 2.32038 -3.31573 0
M  V30 2554 H 237.556 2.15266 -2.2667 0
M  V30 2555 H 236.776 0.305582 -3.93014 0
M  V30 2556 H 238.064 0.858781 -5.015 0
M  V30 2557 H 237.462 3.90377 -4.09417 0
M  V30 2558 H 236.019 4.21195 -4.97432 0
M  V30 2559 N 239.452 1.56882 -0.150215 0
M  V30 2560 C 240.4 2.18214 0.805313 0
M  V30 2561 C 241.394 1.14006 1.25296 0
M  V30 2562 O 242.6 1.3225 1.22107 0
M  V30 2563 H 238.975 0.698762 0.277913 0
M  V30 2564 H 240.946 2.97231 0.263862 0
M  V30 2565 C 239.695 2.82065 2.03309 0
M  V30 2566 H 239.018 3.61968 1.69763 0
M  V30 2567 H 240.458 3.28477 2.68103 0
M  V30 2568 C 238.917 1.80739 2.84315 0
M  V30 2569 O 239.447 1.27983 3.80767 0
M  V30 2570 N 237.653 1.4997 2.48913 0
M  V30 2571 H 237.2 1.93062 1.70542 0
M  V30 2572 H 237.158 0.824217 3.03404 0
M  V30 2573 N 240.93 -0.123565 1.57115 0
M  V30 2574 C 242.207 -0.862196 1.75572 0
M  V30 2575 C 242.587 -1.98279 0.724475 0
M  V30 2576 O 241.935 -2.27102 -0.252407 0
M  V30 2577 C 242.145 -1.38309 3.20424 0
M  V30 2578 C 243.493 -1.83724 3.82793 0
M  V30 2579 O 244.517 -1.47999 3.23998 0
M  V30 2580 O 243.376 -2.49685 4.86127 0
M  V30 2581 H 240.47 -0.409113 0.718718 0
M  V30 2582 H 243.016 -0.107661 1.69358 0
M  V30 2583 H 241.788 -0.578889 3.86994 0
M  V30 2584 H 241.411 -2.20046 3.31158 0
M  V30 2585 N 242.408 -1.52605 -0.393616 0
M  V30 2586 C 243.338 -1.80022 -1.48709 0
M  V30 2587 C 244.319 -0.651995 -1.57108 0
M  V30 2588 O 245.504 -0.89913 -1.72132 0
M  V30 2589 C 242.634 -1.96492 -2.86371 0
M  V30 2590 C 241.588 -3.12161 -2.92813 0
M  V30 2591 C 240.914 -3.13877 -4.3288 0
M  V30 2592 C 242.214 -4.51322 -2.6288 0
M  V30 2593 H 243.908 -2.71589 -1.26015 0
M  V30 2594 H 241.454 -1.30684 -0.604778 0
M  V30 2595 H 243.407 -2.14255 -3.62867 0
M  V30 2596 H 242.131 -1.01611 -3.10391 0
M  V30 2597 H 240.79 -2.94173 -2.18764 0
M  V30 2598 H 240.438 -2.16687 -4.53933 0
M  V30 2599 H 240.138 -3.91576 -4.38112 0
M  V30 2600 H 241.662 -3.33789 -5.1129 0
M  V30 2601 H 243.076 -4.69435 -3.29096 0
M  V30 2602 H 241.473 -5.31053 -2.79468 0
M  V30 2603 H 242.543 -4.58353 -1.58242 0
M  V30 2604 N 243.887 0.651787 -1.4349 0
M  V30 2605 C 244.797 1.79368 -1.5121 0
M  V30 2606 C 245.813 1.69361 -0.399093 0
M  V30 2607 O 246.989 1.90505 -0.653431 0
M  V30 2608 C 244.054 3.15653 -1.43401 0
M  V30 2609 C 243.115 3.37446 -2.65384 0
M  V30 2610 C 242.348 4.67229 -2.57939 0
M  V30 2611 O 242.571 5.46676 -1.62792 0
M  V30 2612 O 241.505 4.90773 -3.48462 0
M  V30 2613 H 245.331 1.7581 -2.47638 0
M  V30 2614 H 242.916 0.810447 -1.25507 0
M  V30 2615 H 244.798 3.96935 -1.41494 0
M  V30 2616 H 243.473 3.19798 -0.501085 0
M  V30 2617 H 242.38 2.55923 -2.72863 0
M  V30 2618 H 243.713 3.38148 -3.57654 0
M  V30 2619 N 245.365 1.30045 0.890287 0
M  V30 2620 C 246.313 1.15873 2.01683 0
M  V30 2621 C 247.307 0.0719403 1.69247 0
M  V30 2622 O 248.513 0.232414 1.78493 0
M  V30 2623 H 244.888 0.358203 0.661207 0
M  V30 2624 H 246.859 2.11229 2.10772 0
M  V30 2625 C 245.608 0.861842 3.36849 0
M  V30 2626 H 244.931 1.69016 3.62317 0
M  V30 2627 H 246.371 0.802762 4.16331 0
M  V30 2628 C 244.83 -0.435132 3.34078 0
M  V30 2629 O 245.36 -1.4583 3.74295 0
M  V30 2630 N 243.566 -0.444377 2.87182 0
M  V30 2631 H 243.113 0.388723 2.5465 0
M  V30 2632 H 243.071 -1.31213 2.85711 0
M  V30 2633 N 246.843 -1.10192 1.12674 0
M  V30 2634 C 247.806 -2.14786 0.799979 0
M  V30 2635 C 248.806 -1.59711 -0.18685 0
M  V30 2636 O 249.996 -1.74156 0.0392558 0
M  V30 2637 C 247.128 -3.40374 0.189228 0
M  V30 2638 H 248.321 -2.45203 1.72671 0
M  V30 2639 H 245.874 -1.25597 0.930326 0
M  V30 2640 H 246.609 -3.15577 -0.747107 0
M  V30 2641 H 246.394 -3.81637 0.899766 0
M  V30 2642 H 247.884 -4.17594 -0.0228143 0
M  V30 2643 N 248.321 -0.919034 -1.28029 0
M  V30 2644 C 249.568 -0.554934 -1.94748 0
M  V30 2645 C 249.896 0.90231 -1.72304 0
M  V30 2646 O 249.151 1.65767 -1.04018 0
M  V30 2647 C 249.45 -0.816855 -3.4794 0
M  V30 2648 C 249.116 -2.25448 -3.90492 0
M  V30 2649 C 247.778 -2.64752 -4.01821 0
M  V30 2650 C 250.13 -3.18977 -4.12193 0
M  V30 2651 C 247.458 -3.96727 -4.32232 0
M  V30 2652 C 249.81 -4.50523 -4.44086 0
M  V30 2653 C 248.474 -4.89673 -4.53626 0
M  V30 2654 H 247.744 -0.203065 -0.712633 0
M  V30 2655 H 250.391 -1.16136 -1.52265 0
M  V30 2656 H 248.696 -0.127677 -3.91592 0
M  V30 2657 H 250.393 -0.514238 -3.97689 0
M  V30 2658 H 246.983 -1.93952 -3.82205 0
M  V30 2659 H 251.167 -2.89817 -4.02889 0
M  V30 2660 H 246.423 -4.26754 -4.37825 0
M  V30 2661 H 250.597 -5.23005 -4.59825 0
M  V30 2662 H 248.224 -5.91969 -4.76946 0
M  V30 2663 N 249.799 1.42003 -0.683588 0
M  V30 2664 C 251.076 1.95112 -0.138075 0
M  V30 2665 C 251.456 1.62359 1.34918 0
M  V30 2666 O 250.804 0.924311 2.08971 0
M  V30 2667 C 251.014 3.46505 -0.416581 0
M  V30 2668 C 252.362 4.23254 -0.337834 0
M  V30 2669 O 253.386 3.54468 -0.35082 0
M  V30 2670 O 252.245 5.45743 -0.287596 0
M  V30 2671 H 249.339 0.826961 -0.00797996 0
M  V30 2672 H 251.885 1.51784 -0.758924 0
M  V30 2673 H 250.657 3.63582 -1.4465 0
M  V30 2674 H 250.28 3.969 0.235839 0
M  V30 2675 N 251.277 0.427512 1.51691 0
M  V30 2676 C 252.554 -0.201684 1.94557 0
M  V30 2677 C 252.934 -1.60981 1.36559 0
M  V30 2678 O 252.282 -2.21814 0.548702 0
M  V30 2679 C 252.492 -0.189394 3.48486 0
M  V30 2680 C 253.84 -0.39978 4.22714 0
M  V30 2681 O 254.864 -0.267945 3.55191 0
M  V30 2682 O 253.723 -0.661249 5.42485 0
M  V30 2683 H 250.817 -0.135261 0.815864 0
M  V30 2684 H 253.363 0.484782 1.62628 0
M  V30 2685 H 252.135 0.795431 3.8313 0
M  V30 2686 H 251.758 -0.919187 3.86829 0
M  V30 2687 N 252.755 -1.56801 0.158532 0
M  V30 2688 C 253.703 -2.18638 -0.793729 0
M  V30 2689 C 254.697 -1.14669 -1.24689 0
M  V30 2690 O 255.903 -1.32895 -1.21403 0
M  V30 2691 H 252.278 -0.700226 -0.274204 0
M  V30 2692 H 254.249 -2.97367 -0.248095 0
M  V30 2693 C 252.998 -2.83139 -2.0181 0
M  V30 2694 H 252.321 -3.62863 -1.67841 0
M  V30 2695 H 253.761 -3.29894 -2.66357 0
M  V30 2696 C 252.22 -1.82244 -2.83353 0
M  V30 2697 O 252.75 -1.3 -3.80083 0
M  V30 2698 N 250.956 -1.51288 -2.48114 0
M  V30 2699 H 250.503 -1.93964 -1.69516 0
M  V30 2700 H 250.461 -0.840296 -3.02963 0
M  V30 2701 N 254.233 0.115231 -1.57178 0
M  V30 2702 C 255.165 1.16694 -1.97269 0
M  V30 2703 C 256.178 1.37445 -0.872502 0
M  V30 2704 O 257.367 1.36454 -1.15077 0
M  V30 2705 C 254.467 2.52627 -2.25905 0
M  V30 2706 C 253.64 2.52427 -3.57211 0
M  V30 2707 C 252.699 3.70134 -3.74016 0
M  V30 2708 O 251.725 3.53546 -4.46087 0
M  V30 2709 N 252.927 4.88844 -3.13068 0
M  V30 2710 H 255.692 0.82588 -2.88096 0
M  V30 2711 H 253.253 0.304461 -1.59011 0
M  V30 2712 H 255.245 3.29937 -2.34359 0
M  V30 2713 H 253.815 2.789 -1.41186 0
M  V30 2714 H 253.035 1.60805 -3.5991 0
M  V30 2715 H 254.323 2.49353 -4.43509 0
M  V30 2716 H 253.721 5.05225 -2.54489 0
M  V30 2717 H 252.278 5.63817 -3.27037 0
M  V30 2718 N 255.711 1.52812 0.385517 0
M  V30 2719 C 256.641 1.80808 1.47752 0
M  V30 2720 C 257.622 0.660318 1.5676 0
M  V30 2721 O 258.807 0.908246 1.71652 0
M  V30 2722 C 255.937 1.98008 2.85324 0
M  V30 2723 C 254.891 3.13709 2.91154 0
M  V30 2724 C 254.217 3.16169 4.31209 0
M  V30 2725 C 255.517 4.52709 2.60483 0
M  V30 2726 H 257.211 2.72253 1.24573 0
M  V30 2727 H 254.757 1.31003 0.597839 0
M  V30 2728 H 256.71 2.16176 3.61726 0
M  V30 2729 H 255.434 1.03255 3.09848 0
M  V30 2730 H 254.093 2.95329 2.17201 0
M  V30 2731 H 253.741 2.19092 4.52778 0
M  V30 2732 H 253.441 3.93894 4.36029 0
M  V30 2733 H 254.965 3.36496 5.09512 0
M  V30 2734 H 256.379 4.71173 3.26602 0
M  V30 2735 H 254.776 5.32528 2.76648 0
M  V30 2736 H 255.846 4.59186 1.55809 0
M  V30 2737 N 257.189 -0.644168 1.43834 0
M  V30 2738 C 258.436 -1.40395 1.4593 0
M  V30 2739 C 258.764 -1.94305 0.0869658 0
M  V30 2740 O 258.019 -1.73288 -0.909378 0
M  V30 2741 C 258.318 -2.59615 2.45631 0
M  V30 2742 C 257.984 -2.2407 3.91284 0
M  V30 2743 C 256.646 -2.14089 4.30952 0
M  V30 2744 C 258.998 -1.95775 4.83034 0
M  V30 2745 C 256.326 -1.73981 5.6031 0
M  V30 2746 C 258.678 -1.57163 6.12766 0
M  V30 2747 C 257.342 -1.45713 6.51402 0
M  V30 2748 H 256.612 -0.513741 0.533995 0
M  V30 2749 H 259.259 -0.731724 1.76969 0
M  V30 2750 H 257.564 -3.32011 2.08028 0
M  V30 2751 H 259.261 -3.17834 2.44504 0
M  V30 2752 H 255.851 -2.32753 3.59895 0
M  V30 2753 H 260.035 -2.02403 4.53152 0
M  V30 2754 H 255.291 -1.63709 5.89075 0
M  V30 2755 H 259.465 -1.34303 6.83327 0
M  V30 2756 H 257.092 -1.14406 7.51542 0
M  V30 2757 N 258.668 -1.30515 -0.883378 0
M  V30 2758 C 260.084 -1.08881 -1.16692 0
M  V30 2759 C 260.284 0.149409 -2.00945 0
M  V30 2760 O 259.34 0.84257 -2.38027 0
M  V30 2761 C 260.653 -2.35319 -1.87204 0
M  V30 2762 C 262.201 -2.40799 -1.99962 0
M  V30 2763 C 262.676 -3.67083 -2.73887 0
M  V30 2764 N 264.167 -3.679 -2.81432 0
M  V30 2765 C 264.902 -4.62303 -3.3921 0
M  V30 2766 N 264.398 -5.67052 -3.98025 0
M  V30 2767 N 266.191 -4.49845 -3.3704 0
M  V30 2768 H 258.342 -2.09951 -0.321633 0
M  V30 2769 H 260.605 -0.92556 -0.205043 0
M  V30 2770 H 260.311 -3.25689 -1.3274 0
M  V30 2771 H 260.185 -2.44089 -2.87577 0
M  V30 2772 H 262.572 -1.50907 -2.53597 0
M  V30 2773 H 262.653 -2.36003 -0.98673 0
M  V30 2774 H 262.297 -4.57334 -2.20925 0
M  V30 2775 H 262.227 -3.69141 -3.75556 0
M  V30 2776 H 264.718 -2.92171 -2.39676 0
M  V30 2777 H 265.031 -6.35184 -4.40183 0
M  V30 2778 H 263.376 -5.70842 -3.96439 0
M  V30 2779 H 266.567 -3.67194 -2.90321 0
M  V30 2780 H 266.74 -5.23597 -3.81772 0
M  V30 2781 N 260.146 1.09593 -1.13257 0
M  V30 2782 C 261.395 1.81105 -0.887917 0
M  V30 2783 C 261.708 1.86563 0.587672 0
M  V30 2784 O 262.914 2.54367 0.949204 0
M  V30 2785 C 261.37 3.25338 -1.53895 0
M  V30 2786 C 260.978 3.28151 -3.04994 0
M  V30 2787 C 262.722 4.01617 -1.37492 0
M  V30 2788 C 260.629 4.66897 -3.6299 0
M  V30 2789 H 259.559 0.678661 -0.328534 0
M  V30 2790 H 262.21 1.23183 -1.36008 0
M  V30 2791 H 260.592 3.8331 -0.994446 0
M  V30 2792 H 261.766 2.79953 -3.66009 0
M  V30 2793 H 260.081 2.65361 -3.20893 0
M  V30 2794 H 262.678 5.04119 -1.78235 0
M  V30 2795 H 263.021 4.15072 -0.31957 0
M  V30 2796 H 263.554 3.50082 -1.88912 0
M  V30 2797 H 260.293 4.58643 -4.68323 0
M  V30 2798 H 259.813 5.15426 -3.06752 0
M  V30 2799 H 261.492 5.3587 -3.62563 0
M  V30 2800 N 261.624 0.925811 1.2754 0
M  V30 2801 C 262.901 0.483726 1.89524 0
M  V30 2802 C 263.281 -1.03809 1.83812 0
M  V30 2803 O 262.629 -1.89143 1.28207 0
M  V30 2804 C 262.839 1.02769 3.33526 0
M  V30 2805 C 264.187 1.08703 4.10449 0
M  V30 2806 O 265.211 0.977175 3.42534 0
M  V30 2807 O 264.07 1.25599 5.31871 0
M  V30 2808 H 261.164 0.15529 0.812289 0
M  V30 2809 H 263.71 1.01738 1.35822 0
M  V30 2810 H 262.482 2.07155 3.31967 0
M  V30 2811 H 262.105 0.475567 3.94746 0
M  V30 2812 N 263.102 -1.41638 0.69111 0
M  V30 2813 C 264.052 -2.28 -0.000107832 0
M  V30 2814 C 265.036 -1.41964 -0.757304 0
M  V30 2815 O 266.228 -1.65274 -0.633532 0
M  V30 2816 C 263.357 -3.30209 -0.938983 0
M  V30 2817 C 262.443 -4.23725 -0.17827 0
M  V30 2818 N 262.834 -4.99017 0.825563 0
M  V30 2819 C 261.132 -4.44071 -0.414392 0
M  V30 2820 C 261.833 -5.67431 1.28052 0
M  V30 2821 N 260.809 -5.40197 0.607304 0
M  V30 2822 H 264.611 -2.83644 0.769617 0
M  V30 2823 H 262.125 -1.53797 0.521562 0
M  V30 2824 H 264.122 -3.90898 -1.44929 0
M  V30 2825 H 262.782 -2.76126 -1.70836 0
M  V30 2826 H 263.793 -5.03671 1.20566 0
M  V30 2827 H 260.47 -4.01004 -1.162 0
M  V30 2828 H 261.86 -6.37801 2.11327 0
M  V30 2829 N 264.58 -0.43555 -1.51462 0
M  V30 2830 C 265.81 0.130053 -2.0619 0
M  V30 2831 C 266.218 1.37164 -1.30317 0
M  V30 2832 O 265.561 1.80225 -0.355598 0
M  V30 2833 C 265.623 0.519418 -3.55728 0
M  V30 2834 C 265.287 -0.615119 -4.52841 0
M  V30 2835 C 266.284 -1.48671 -4.9819 0
M  V30 2836 C 263.969 -0.795341 -4.95963 0
M  V30 2837 C 265.963 -2.52324 -5.8533 0
M  V30 2838 C 263.65 -1.83514 -5.82894 0
M  V30 2839 C 264.648 -2.69748 -6.27475 0
M  V30 2840 O 264.336 -3.71944 -7.1268 0
M  V30 2841 H 264.068 0.0121612 -0.675891 0
M  V30 2842 H 266.622 -0.6129 -1.96043 0
M  V30 2843 H 264.852 1.31505 -3.63653 0
M  V30 2844 H 266.541 1.01597 -3.92979 0
M  V30 2845 H 267.307 -1.359 -4.65571 0
M  V30 2846 H 263.186 -0.133713 -4.60806 0
M  V30 2847 H 266.73 -3.19665 -6.20048 0
M  V30 2848 H 262.627 -1.96306 -6.14926 0
M  V30 2849 H 263.395 -3.68503 -7.30854 0
M  V30 2850 N 266.058 1.56714 -0.166846 0
M  V30 2851 C 266.988 2.20754 0.760913 0
M  V30 2852 C 267.969 1.16178 1.24244 0
M  V30 2853 O 269.154 1.44592 1.29641 0
M  V30 2854 C 266.284 2.84478 1.99223 0
M  V30 2855 C 265.238 3.95053 1.64672 0
M  V30 2856 C 264.564 4.45805 2.95232 0
M  V30 2857 C 265.864 5.14865 0.878155 0
M  V30 2858 H 267.558 2.98537 0.22713 0
M  V30 2859 H 265.104 1.43596 0.107805 0
M  V30 2860 H 267.057 3.27951 2.64624 0
M  V30 2861 H 265.781 2.04056 2.55007 0
M  V30 2862 H 264.44 3.52228 1.01641 0
M  V30 2863 H 264.088 3.62181 3.49047 0
M  V30 2864 H 263.788 5.204 2.7287 0
M  V30 2865 H 265.312 4.91962 3.6167 0
M  V30 2866 H 266.726 5.55059 1.43466 0
M  V30 2867 H 265.123 5.95348 0.753738 0
M  V30 2868 H 266.193 4.84735 -0.126377 0
M  V30 2869 N 267.536 -0.106894 1.57237 0
M  V30 2870 C 268.784 -0.810921 1.85117 0
M  V30 2871 C 269.105 -1.7984 0.753827 0
M  V30 2872 O 268.375 -1.94649 -0.221056 0
M  V30 2873 H 266.955 -0.302466 0.683025 0
M  V30 2874 H 269.617 -0.0913324 1.94686 0
M  V30 2875 H 268.713 -1.34875 2.81452 0
M  V30 2876 N 269.014 -1.53014 -0.377408 0
M  V30 2877 C 269.961 -1.78616 -1.46168 0
M  V30 2878 C 270.931 -0.629917 -1.53692 0
M  V30 2879 O 272.116 -0.870861 -1.69766 0
M  V30 2880 C 269.256 -1.97123 -2.8326 0
M  V30 2881 C 268.369 -3.24831 -2.84796 0
M  V30 2882 C 267.504 -3.33591 -4.13389 0
M  V30 2883 C 266.543 -4.55377 -4.09021 0
M  V30 2884 N 265.68 -4.61355 -5.29241 0
M  V30 2885 H 270.52 -2.71142 -1.23637 0
M  V30 2886 H 268.057 -1.34326 -0.599577 0
M  V30 2887 H 270.015 -2.05839 -3.62886 0
M  V30 2888 H 268.645 -1.07946 -3.04216 0
M  V30 2889 H 267.697 -3.25128 -1.97474 0
M  V30 2890 H 269.009 -4.14523 -2.77439 0
M  V30 2891 H 268.163 -3.41554 -5.01424 0
M  V30 2892 H 266.902 -2.41894 -4.23484 0
M  V30 2893 H 265.907 -4.47527 -3.19373 0
M  V30 2894 H 267.132 -5.48402 -4.00539 0
M  V30 2895 H 265.078 -3.72554 -5.39944 0
M  V30 2896 H 264.995 -5.44935 -5.24006 0
M  V30 2897 H 266.263 -4.73586 -6.19141 0
M  V30 2898 N 270.492 0.636531 -1.44174 0
M  V30 2899 C 271.402 1.77754 -1.53103 0
M  V30 2900 C 272.418 1.68928 -0.417034 0
M  V30 2901 O 273.594 1.89801 -0.6736 0
M  V30 2902 C 270.659 3.14115 -1.46741 0
M  V30 2903 C 269.72 3.34612 -2.68948 0
M  V30 2904 C 268.953 4.64467 -2.6288 0
M  V30 2905 O 269.176 5.44919 -1.68581 0
M  V30 2906 O 268.11 4.87049 -3.53648 0
M  V30 2907 H 271.936 1.73174 -2.49489 0
M  V30 2908 H 269.521 0.79709 -1.2636 0
M  V30 2909 H 271.403 3.95412 -1.45696 0
M  V30 2910 H 270.078 3.19249 -0.534975 0
M  V30 2911 H 268.985 2.53014 -2.75562 0
M  V30 2912 H 270.318 3.34336 -3.61221 0
M  V30 2913 N 271.97 1.30982 0.876444 0
M  V30 2914 C 272.903 1.12414 1.98591 0
M  V30 2915 C 273.881 0.0294078 1.62573 0
M  V30 2916 O 275.065 0.184598 1.87594 0
M  V30 2917 C 272.192 0.716276 3.3104 0
M  V30 2918 C 271.238 1.81311 3.86042 0
M  V30 2919 S 272.071 3.41727 4.1229 0
M  V30 2920 C 273.227 3.02863 5.47745 0
M  V30 2921 H 273.46 2.06338 2.14037 0
M  V30 2922 H 270.993 1.15393 1.02586 0
M  V30 2923 H 272.951 0.487697 4.07593 0
M  V30 2924 H 271.612 -0.203749 3.13438 0
M  V30 2925 H 270.805 1.48021 4.81774 0
M  V30 2926 H 270.407 1.99641 3.16259 0
M  V30 2927 H 272.699 2.51353 6.29148 0
M  V30 2928 H 273.642 3.97533 5.8598 0
M  V30 2929 H 274.05 2.40487 5.10711 0
M  V30 2930 N 273.449 -1.08991 1.13837 0
M  V30 2931 C 274.695 -1.81526 0.90422 0
M  V30 2932 C 275.028 -1.85706 -0.568066 0
M  V30 2933 O 274.303 -1.32855 -1.42056 0
M  V30 2934 C 274.586 -3.27447 1.49835 0
M  V30 2935 C 274.439 -3.31512 3.04006 0
M  V30 2936 C 275.758 -4.24256 1.17025 0
M  V30 2937 H 272.877 -0.659029 0.329923 0
M  V30 2938 H 275.519 -1.27644 1.40737 0
M  V30 2939 H 273.669 -3.73462 1.07044 0
M  V30 2940 H 275.341 -2.93867 3.55584 0
M  V30 2941 H 273.584 -2.70963 3.38765 0
M  V30 2942 H 274.255 -4.34329 3.40679 0
M  V30 2943 H 276.731 -3.86549 1.54009 0
M  V30 2944 H 275.607 -5.24684 1.61237 0
M  V30 2945 H 275.868 -4.42019 0.0846274 0
M  V30 2946 N 274.927 -0.932562 -1.27047 0
M  V30 2947 C 275.859 -0.392734 -2.2581 0
M  V30 2948 C 276.872 0.479241 -1.55586 0
M  V30 2949 O 278.061 0.291078 -1.76111 0
M  V30 2950 C 275.161 0.455456 -3.35826 0
M  V30 2951 C 274.334 -0.398355 -4.35582 0
M  V30 2952 C 273.393 0.387985 -5.24768 0
M  V30 2953 O 272.419 -0.206003 -5.68827 0
M  V30 2954 N 273.621 1.68664 -5.55457 0
M  V30 2955 H 276.386 -1.24173 -2.72766 0
M  V30 2956 H 273.947 -0.800511 -1.40725 0
M  V30 2957 H 275.939 0.988692 -3.92437 0
M  V30 2958 H 274.509 1.20522 -2.88432 0
M  V30 2959 H 273.729 -1.11286 -3.78165 0
M  V30 2960 H 275.017 -0.981889 -4.99236 0
M  V30 2961 H 274.415 2.19147 -5.21528 0
M  V30 2962 H 272.972 2.1663 -6.14748 0
M  V30 2963 N 276.405 1.4127 -0.698611 0
M  V30 2964 C 277.353 2.32588 -0.023855 0
M  V30 2965 C 278.347 1.51128 0.765292 0
M  V30 2966 O 279.553 1.67043 0.670571 0
M  V30 2967 H 275.928 0.751918 0.0110871 0
M  V30 2968 H 277.899 2.87167 -0.811031 0
M  V30 2969 C 276.648 3.35947 0.896369 0
M  V30 2970 H 275.971 3.98684 0.298548 0
M  V30 2971 H 277.411 4.02376 1.33676 0
M  V30 2972 C 275.87 2.70076 2.01396 0
M  V30 2973 O 276.4 2.55093 3.10307 0
M  V30 2974 N 274.606 2.28724 1.79259 0
M  V30 2975 H 274.153 2.4111 0.906841 0
M  V30 2976 H 274.111 1.84986 2.54219 0
M  V30 2977 N 277.883 0.443576 1.51229 0
M  V30 2978 C 279.132 -0.122332 2.01329 0
M  V30 2979 C 279.445 -1.43237 1.33201 0
M  V30 2980 O 280.651 -2.0816 1.74304 0
M  V30 2981 C 279.107 -0.268551 3.58897 0
M  V30 2982 C 278.715 1.03142 4.35965 0
M  V30 2983 C 280.459 -0.787894 4.17124 0
M  V30 2984 C 278.366 0.850504 5.85252 0
M  V30 2985 H 277.296 -0.0494929 0.752374 0
M  V30 2986 H 279.947 0.574289 1.74282 0
M  V30 2987 H 278.329 -1.02832 3.82415 0
M  V30 2988 H 279.503 1.80001 4.24189 0
M  V30 2989 H 277.818 1.47977 3.89219 0
M  V30 2990 H 280.415 -0.939841 5.26375 0
M  V30 2991 H 280.758 -1.77201 3.76703 0
M  V30 2992 H 281.291 -0.0862669 3.97706 0
M  V30 2993 H 278.03 1.80718 6.30096 0
M  V30 2994 H 277.55 0.121825 5.99676 0
M  V30 2995 H 279.229 0.506163 6.45017 0
M  V30 2996 N 279.361 -1.56624 0.175154 0
M  V30 2997 C 280.324 -2.16934 -0.739738 0
M  V30 2998 C 281.324 -1.11842 -1.15533 0
M  V30 2999 O 282.514 -1.37335 -1.07167 0
M  V30 3000 C 279.646 -2.75531 -2.00738 0
M  V30 3001 H 280.839 -2.99131 -0.214639 0
M  V30 3002 H 278.392 -1.56123 -0.0744197 0
M  V30 3003 H 279.127 -1.97078 -2.57548 0
M  V30 3004 H 278.912 -3.52444 -1.71831 0
M  V30 3005 H 280.402 -3.21904 -2.66021 0
M  V30 3006 N 280.839 0.0985539 -1.57292 0
M  V30 3007 C 281.802 1.10402 -2.00858 0
M  V30 3008 C 282.802 1.33146 -0.901593 0
M  V30 3009 O 283.992 1.29318 -1.16716 0
M  V30 3010 C 281.124 2.45394 -2.36632 0
M  V30 3011 H 282.317 0.729099 -2.90902 0
M  V30 3012 H 279.87 0.343495 -1.52479 0
M  V30 3013 H 280.605 2.87769 -1.49531 0
M  V30 3014 H 280.39 2.30235 -3.17387 0
M  V30 3015 H 281.88 3.17718 -2.71007 0
M  V30 3016 N 282.317 1.53212 0.369288 0
M  V30 3017 C 283.247 1.82365 1.45826 0
M  V30 3018 C 284.228 0.676907 1.56051 0
M  V30 3019 O 285.413 0.926401 1.70679 0
M  V30 3020 C 282.543 2.01023 2.83208 0
M  V30 3021 C 281.497 3.1678 2.8781 0
M  V30 3022 C 280.823 3.20724 4.27832 0
M  V30 3023 C 282.123 4.55447 2.55667 0
M  V30 3024 H 283.817 2.73559 1.21678 0
M  V30 3025 H 281.363 1.3163 0.583911 0
M  V30 3026 H 283.316 2.20001 3.59413 0
M  V30 3027 H 282.04 1.06536 3.08736 0
M  V30 3028 H 280.699 2.97616 2.14056 0
M  V30 3029 H 280.347 2.23882 4.50429 0
M  V30 3030 H 280.047 3.98496 4.31827 0
M  V30 3031 H 281.571 3.41881 5.05915 0
M  V30 3032 H 282.985 4.74611 3.21586 0
M  V30 3033 H 281.382 5.35432 2.70984 0
M  V30 3034 H 282.452 4.60812 1.5093 0
M  V30 3035 N 283.795 -0.628877 1.44509 0
M  V30 3036 C 285.211 -0.947305 1.28446 0
M  V30 3037 C 285.411 -2.00275 0.221872 0
M  V30 3038 O 284.467 -2.49447 -0.391471 0
M  V30 3039 C 285.78 -1.40843 2.65676 0
M  V30 3040 C 287.328 -1.52379 2.73404 0
M  V30 3041 C 287.803 -2.01875 4.11109 0
M  V30 3042 N 289.294 -2.09142 4.13296 0
M  V30 3043 C 290.029 -2.48615 5.16699 0
M  V30 3044 N 289.525 -2.87209 6.30462 0
M  V30 3045 N 291.318 -2.48768 5.04054 0
M  V30 3046 H 283.469 0.0690977 2.12288 0
M  V30 3047 H 285.732 -0.0317164 0.947469 0
M  V30 3048 H 285.438 -0.707206 3.44516 0
M  V30 3049 H 285.312 -2.37902 2.92716 0
M  V30 3050 H 287.699 -2.21598 1.9488 0
M  V30 3051 H 287.78 -0.536898 2.50102 0
M  V30 3052 H 287.424 -1.3325 4.90109 0
M  V30 3053 H 287.354 -3.0144 4.31789 0
M  V30 3054 H 289.845 -1.81991 3.31191 0
M  V30 3055 H 290.158 -3.16149 7.05174 0
M  V30 3056 H 288.503 -2.84955 6.33897 0
M  V30 3057 H 291.694 -2.18009 4.14234 0
M  V30 3058 H 291.867 -2.79207 5.84763 0
M  V30 3059 N 285.273 -1.31445 -0.869486 0
M  V30 3060 C 286.52 -1.21158 -1.62256 0
M  V30 3061 C 286.848 0.230155 -1.93133 0
M  V30 3062 O 286.103 1.17906 -1.56194 0
M  V30 3063 C 286.402 -2.00145 -2.96102 0
M  V30 3064 C 286.068 -3.4964 -2.84715 0
M  V30 3065 C 284.73 -3.90403 -2.81317 0
M  V30 3066 C 287.082 -4.44769 -2.71716 0
M  V30 3067 C 284.41 -5.24561 -2.62778 0
M  V30 3068 C 286.762 -5.79054 -2.54714 0
M  V30 3069 C 285.426 -6.19037 -2.49699 0
M  V30 3070 H 284.696 -0.443348 -0.593737 0
M  V30 3071 H 287.343 -1.62715 -1.00976 0
M  V30 3072 H 285.648 -1.5127 -3.6142 0
M  V30 3073 H 287.345 -1.89566 -3.53363 0
M  V30 3074 H 283.935 -3.17256 -2.88178 0
M  V30 3075 H 288.119 -4.14208 -2.73397 0
M  V30 3076 H 283.375 -5.54613 -2.57321 0
M  V30 3077 H 287.549 -6.52393 -2.43632 0
M  V30 3078 H 285.176 -7.22935 -2.35093 0
M  V30 3079 N 286.751 1.08385 -1.14413 0
M  V30 3080 C 287.999 1.80419 -0.910679 0
M  V30 3081 C 288.32 1.86658 0.564243 0
M  V30 3082 O 287.59 1.35985 1.41014 0
M  V30 3083 H 286.17 0.668204 -0.333934 0
M  V30 3084 H 288.832 1.31037 -1.44275 0
M  V30 3085 H 287.928 2.83238 -1.31082 0
M  V30 3086 N 288.23 0.939286 1.26551 0
M  V30 3087 C 289.178 0.43815 2.28436 0
M  V30 3088 C 290.172 -0.483587 1.62351 0
M  V30 3089 O 291.378 -0.362009 1.76322 0
M  V30 3090 H 287.753 0.123149 0.741848 0
M  V30 3091 H 289.724 1.31002 2.68106 0
M  V30 3092 C 288.473 -0.283052 3.46546 0
M  V30 3093 H 287.796 0.417043 3.97619 0
M  V30 3094 H 289.236 -0.597948 4.19763 0
M  V30 3095 C 287.695 -1.50018 3.01656 0
M  V30 3096 O 288.225 -2.59855 3.0633 0
M  V30 3097 N 286.431 -1.35608 2.57019 0
M  V30 3098 H 285.978 -0.46244 2.53415 0
M  V30 3099 H 285.936 -2.17165 2.27347 0
M  V30 3100 N 289.708 -1.40897 0.706093 0
M  V30 3101 C 291.119 -1.84023 0.315052 0
M  V30 3102 C 291.47 -1.5906 -1.14866 0
M  V30 3103 O 290.595 -1.06651 -1.88293 0
M  V30 3104 C 291.19 -3.34055 0.565038 0
M  V30 3105 C 289.749 -3.7571 0.227806 0
M  V30 3106 C 288.896 -2.64204 0.842122 0
M  V30 3107 H 291.847 -1.303 0.905963 0
M  V30 3108 H 291.868 -3.80107 -0.172843 0
M  V30 3109 H 291.38 -3.52192 1.63042 0
M  V30 3110 H 289.481 -3.63172 -0.832895 0
M  V30 3111 H 289.594 -4.74103 0.690174 0
M  V30 3112 H 287.958 -2.53255 0.270893 0
M  V30 3113 H 288.741 -2.85155 1.91158 0
M  V30 3114 N 291.186 -0.45159 -1.50991 0
M  V30 3115 C 292.435 0.111653 -2.01391 0
M  V30 3116 C 292.748 1.42529 -1.33959 0
M  V30 3117 O 293.954 2.07232 -1.75405 0
M  V30 3118 C 292.41 0.249514 -3.59034 0
M  V30 3119 C 292.018 -1.05453 -4.35412 0
M  V30 3120 C 293.762 0.765762 -4.17536 0
M  V30 3121 C 291.669 -0.881529 -5.84793 0
M  V30 3122 H 290.599 0.0455022 -0.752626 0
M  V30 3123 H 293.25 -0.583524 -1.73975 0
M  V30 3124 H 291.632 1.00803 -3.82955 0
M  V30 3125 H 292.806 -1.82248 -4.23229 0
M  V30 3126 H 291.121 -1.50039 -3.88429 0
M  V30 3127 H 293.718 0.911913 -5.26866 0
M  V30 3128 H 294.061 1.75201 -3.77638 0
M  V30 3129 H 294.594 0.0651744 -3.97747 0
M  V30 3130 H 291.333 -1.84057 -6.29129 0
M  V30 3131 H 290.853 -0.153625 -5.99603 0
M  V30 3132 H 292.532 -0.540363 -6.4474 0
M  V30 3133 N 292.664 1.56529 -0.183458 0
M  V30 3134 C 293.911 1.97244 0.458357 0
M  V30 3135 C 294.239 1.06992 1.62428 0
M  V30 3136 O 293.494 0.106542 1.9541 0
M  V30 3137 C 293.793 3.43939 0.971637 0
M  V30 3138 C 293.459 4.5083 -0.0796784 0
M  V30 3139 C 292.121 4.79786 -0.368584 0
M  V30 3140 C 294.473 5.15138 -0.792638 0
M  V30 3141 C 291.801 5.70345 -1.37563 0
M  V30 3142 C 294.153 6.06784 -1.78875 0
M  V30 3143 C 292.817 6.34102 -2.08497 0
M  V30 3144 H 292.087 0.721768 0.167725 0
M  V30 3145 H 294.734 1.89472 -0.277976 0
M  V30 3146 H 293.039 3.48724 1.78602 0
M  V30 3147 H 294.736 3.72791 1.47744 0
M  V30 3148 H 291.326 4.28317 0.155668 0
M  V30 3149 H 295.51 4.92868 -0.582659 0
M  V30 3150 H 290.766 5.89789 -1.61118 0
M  V30 3151 H 294.94 6.55677 -2.3465 0
M  V30 3152 H 292.567 7.04074 -2.86678 0
M  V30 3153 N 294.142 -0.090211 1.57342 0
M  V30 3154 C 295.419 -0.824761 1.77361 0
M  V30 3155 C 295.799 -1.96698 0.76637 0
M  V30 3156 O 295.147 -2.27586 -0.204179 0
M  V30 3157 C 295.357 -1.31481 3.23286 0
M  V30 3158 C 296.705 -1.75563 3.86604 0
M  V30 3159 O 297.729 -1.41093 3.27065 0
M  V30 3160 O 296.588 -2.39317 4.91314 0
M  V30 3161 H 293.682 -0.393776 0.727234 0
M  V30 3162 H 296.228 -0.0717138 1.69548 0
M  V30 3163 H 295 -0.496671 3.88135 0
M  V30 3164 H 294.623 -2.12973 3.35751 0
M  V30 3165 N 295.62 -1.53406 -0.361157 0
M  V30 3166 C 296.583 -1.79479 -1.42548 0
M  V30 3167 C 297.583 -0.665327 -1.4639 0
M  V30 3168 O 298.773 -0.933549 -1.47073 0
M  V30 3169 C 295.905 -1.92087 -2.8163 0
M  V30 3170 H 297.098 -2.74538 -1.20701 0
M  V30 3171 H 294.651 -1.4455 -0.594546 0
M  V30 3172 H 295.386 -0.991099 -3.08784 0
M  V30 3173 H 295.171 -2.74241 -2.80239 0
M  V30 3174 H 296.661 -2.13836 -3.58697 0
M  V30 3175 N 297.098 0.621204 -1.44841 0
M  V30 3176 C 298.061 1.71459 -1.521 0
M  V30 3177 C 299.061 1.55696 -0.401933 0
M  V30 3178 O 300.251 1.61011 -0.664925 0
M  V30 3179 C 297.383 3.10624 -1.40447 0
M  V30 3180 H 298.576 1.66394 -2.49506 0
M  V30 3181 H 296.129 0.835745 -1.3208 0
M  V30 3182 H 296.864 3.21277 -0.441737 0
M  V30 3183 H 296.649 3.23473 -2.21602 0
M  V30 3184 H 298.139 3.90293 -1.4853 0
M  V30 3185 N 298.576 1.31904 0.862503 0
M  V30 3186 C 299.822 1.23207 1.61838 0
M  V30 3187 C 300.177 -0.206062 1.91293 0
M  V30 3188 O 299.47 -1.14162 1.53875 0
M  V30 3189 C 299.664 2.01713 2.95037 0
M  V30 3190 C 299.493 3.53014 2.78588 0
M  V30 3191 C 298.263 4.22359 2.77382 0
M  V30 3192 C 300.461 4.47819 2.52909 0
M  V30 3193 N 298.443 5.59766 2.52062 0
M  V30 3194 C 299.814 5.72947 2.36922 0
M  V30 3195 C 301.869 4.37162 2.38314 0
M  V30 3196 C 300.572 6.88623 2.07823 0
M  V30 3197 C 302.598 5.5263 2.10604 0
M  V30 3198 C 301.96 6.76752 1.95411 0
M  V30 3199 H 298.059 0.505984 0.596242 0
M  V30 3200 H 300.643 1.66179 1.01452 0
M  V30 3201 H 298.814 1.61098 3.53415 0
M  V30 3202 H 300.546 1.84975 3.59953 0
M  V30 3203 H 297.301 3.74401 2.90036 0
M  V30 3204 H 297.725 6.32135 2.42352 0
M  V30 3205 H 302.367 3.41857 2.48784 0
M  V30 3206 H 300.085 7.83948 1.9609 0
M  V30 3207 H 303.671 5.46307 2.00101 0
M  V30 3208 H 302.551 7.6459 1.74274 0
M  V30 3209 N 300.054 -1.07777 1.14986 0
M  V30 3210 C 301.002 -2.16964 0.838406 0
M  V30 3211 C 301.996 -1.68372 -0.186386 0
M  V30 3212 O 303.202 -1.79951 -0.0418465 0
M  V30 3213 H 299.577 -0.708006 0.253439 0
M  V30 3214 H 301.548 -2.40454 1.76704 0
M  V30 3215 C 300.297 -3.4604 0.339335 0
M  V30 3216 H 299.62 -3.83813 1.11927 0
M  V30 3217 H 301.06 -4.23698 0.160021 0
M  V30 3218 C 299.519 -3.23569 -0.938325 0
M  V30 3219 O 300.049 -3.47752 -2.01077 0
M  V30 3220 N 298.255 -2.77079 -0.876117 0
M  V30 3221 H 297.802 -2.576 -0.00322037 0
M  V30 3222 H 297.76 -2.62422 -1.73153 0
M  V30 3223 N 301.532 -0.945985 -1.26051 0
M  V30 3224 C 302.479 -0.45809 -2.26208 0
M  V30 3225 C 303.449 0.484816 -1.58867 0
M  V30 3226 O 304.634 0.399969 -1.86561 0
M  V30 3227 C 301.774 0.266131 -3.44072 0
M  V30 3228 C 300.887 -0.713005 -4.26075 0
M  V30 3229 C 300.022 0.0329013 -5.3119 0
M  V30 3230 C 299.061 -0.93774 -6.04874 0
M  V30 3231 N 298.198 -0.223274 -7.01745 0
M  V30 3232 H 303.038 -1.3171 -2.67313 0
M  V30 3233 H 300.575 -0.66069 -1.31428 0
M  V30 3234 H 302.533 0.702514 -4.11243 0
M  V30 3235 H 301.163 1.08925 -3.03867 0
M  V30 3236 H 300.215 -1.26789 -3.58648 0
M  V30 3237 H 301.527 -1.45406 -4.77136 0
M  V30 3238 H 300.681 0.528335 -6.04395 0
M  V30 3239 H 299.42 0.806801 -4.8098 0
M  V30 3240 H 298.425 -1.44425 -5.30492 0
M  V30 3241 H 299.65 -1.71172 -6.57173 0
M  V30 3242 H 297.596 0.532046 -6.53839 0
M  V30 3243 H 297.513 -0.90357 -7.50581 0
M  V30 3244 H 298.781 0.250907 -7.79096 0
M  V30 3245 N 303.011 1.40521 -0.713556 0
M  V30 3246 C 304.288 1.94775 -0.17943 0
M  V30 3247 C 304.668 1.65184 1.31444 0
M  V30 3248 O 304.016 0.968429 2.06963 0
M  V30 3249 C 304.226 3.45543 -0.489986 0
M  V30 3250 C 305.574 4.22442 -0.427536 0
M  V30 3251 O 306.598 3.53644 -0.425929 0
M  V30 3252 O 305.457 5.4501 -0.403292 0
M  V30 3253 H 302.551 0.826606 -0.0255192 0
M  V30 3254 H 305.097 1.5014 -0.790949 0
M  V30 3255 H 303.869 3.60432 -1.5233 0
M  V30 3256 H 303.492 3.97311 0.151598 0
M  V30 3257 N 304.489 0.459591 1.5075 0
M  V30 3258 C 305.719 -0.0972338 2.06371 0
M  V30 3259 C 306.127 -1.35074 1.32483 0
M  V30 3260 O 305.47 -1.79637 0.384226 0
M  V30 3261 C 305.532 -0.462759 3.56509 0
M  V30 3262 C 305.196 0.687084 4.51805 0
M  V30 3263 C 306.193 1.56578 4.95761 0
M  V30 3264 C 303.878 0.874144 4.94635 0
M  V30 3265 C 305.872 2.61604 5.81242 0
M  V30 3266 C 303.559 1.92765 5.79901 0
M  V30 3267 C 304.557 2.79697 6.23104 0
M  V30 3268 O 304.245 3.83235 7.06673 0
M  V30 3269 H 303.977 -0.00140687 0.675999 0
M  V30 3270 H 306.531 0.644011 1.95043 0
M  V30 3271 H 304.761 -1.25703 3.65699 0
M  V30 3272 H 306.45 -0.953323 3.94546 0
M  V30 3273 H 307.216 1.4329 4.6335 0
M  V30 3274 H 303.095 0.207006 4.60535 0
M  V30 3275 H 306.639 3.29489 6.14884 0
M  V30 3276 H 302.536 2.06064 6.11725 0
M  V30 3277 H 303.304 3.80084 7.24899 0
M  V30 3278 N 305.967 -1.56429 0.191757 0
M  V30 3279 C 307.216 -1.9666 -0.448088 0
M  V30 3280 C 307.529 -1.08136 -1.62991 0
M  V30 3281 O 308.735 -1.38135 -2.33733 0
M  V30 3282 C 307.191 -3.49753 -0.848585 0
M  V30 3283 C 306.799 -4.46935 0.308764 0
M  V30 3284 C 308.543 -3.9876 -1.4557 0
M  V30 3285 C 306.45 -5.91293 -0.112506 0
M  V30 3286 H 305.38 -0.734312 -0.171179 0
M  V30 3287 H 308.031 -1.81301 0.283242 0
M  V30 3288 H 306.413 -3.60604 -1.63649 0
M  V30 3289 H 307.587 -4.47813 1.08627 0
M  V30 3290 H 305.902 -4.08102 0.827158 0
M  V30 3291 H 308.499 -5.04086 -1.78328 0
M  V30 3292 H 308.842 -3.42875 -2.36099 0
M  V30 3293 H 309.375 -3.9101 -0.731836 0
M  V30 3294 H 306.114 -6.51097 0.758514 0
M  V30 3295 H 305.634 -5.93676 -0.854941 0
M  V30 3296 H 307.313 -6.44663 -0.549448 0
M  V30 3297 N 307.445 0.0818655 -1.57387 0
M  V30 3298 C 308.392 1.09834 -2.0299 0
M  V30 3299 C 309.362 1.39043 -0.908639 0
M  V30 3300 O 310.547 1.50282 -1.17559 0
M  V30 3301 C 307.687 2.40971 -2.47037 0
M  V30 3302 C 306.8 2.18379 -3.7274 0
M  V30 3303 C 305.935 3.43008 -4.0561 0
M  V30 3304 C 304.974 3.15736 -5.24383 0
M  V30 3305 N 304.111 4.32667 -5.52941 0
M  V30 3306 H 308.951 0.702472 -2.89602 0
M  V30 3307 H 306.488 0.33531 -1.43227 0
M  V30 3308 H 308.446 3.1752 -2.70623 0
M  V30 3309 H 307.076 2.78379 -1.63417 0
M  V30 3310 H 306.128 1.32569 -3.56552 0
M  V30 3311 H 307.44 1.94227 -4.59431 0
M  V30 3312 H 306.594 4.27958 -4.30043 0
M  V30 3313 H 305.333 3.70225 -3.17466 0
M  V30 3314 H 304.338 2.2918 -4.99757 0
M  V30 3315 H 305.563 2.8985 -6.14136 0
M  V30 3316 H 303.509 4.59935 -4.67756 0
M  V30 3317 H 303.426 4.11753 -6.34031 0
M  V30 3318 H 304.694 5.18644 -5.81918 0
M  V30 3319 N 308.923 1.53595 0.353017 0
M  V30 3320 C 309.871 1.81605 1.45335 0
M  V30 3321 C 310.865 0.685923 1.54892 0
M  V30 3322 O 312.071 0.869095 1.57628 0
M  V30 3323 H 308.446 0.575204 0.484401 0
M  V30 3324 H 310.417 2.73679 1.18921 0
M  V30 3325 C 309.166 2.03406 2.81995 0
M  V30 3326 H 308.489 2.89814 2.75405 0
M  V30 3327 H 309.929 2.26975 3.58132 0
M  V30 3328 C 308.388 0.816794 3.26849 0
M  V30 3329 O 308.918 0.0115856 4.01698 0
M  V30 3330 N 307.124 0.636682 2.8354 0
M  V30 3331 H 306.671 1.2931 2.22793 0
M  V30 3332 H 306.629 -0.176336 3.13905 0
M  V30 3333 N 310.401 -0.613514 1.45168 0
M  V30 3334 C 311.647 -1.37471 1.49096 0
M  V30 3335 C 311.98 -1.93765 0.129901 0
M  V30 3336 O 311.255 -1.74707 -0.854858 0
M  V30 3337 C 311.538 -2.52701 2.56542 0
M  V30 3338 C 311.391 -2.01643 4.0207 0
M  V30 3339 C 312.71 -3.54849 2.60327 0
M  V30 3340 H 309.829 -0.498502 0.54283 0
M  V30 3341 H 312.471 -0.692125 1.76945 0
M  V30 3342 H 310.621 -3.10931 2.32926 0
M  V30 3343 H 312.293 -1.48108 4.36877 0
M  V30 3344 H 310.536 -1.32688 4.13009 0
M  V30 3345 H 311.207 -2.84681 4.72928 0
M  V30 3346 H 313.683 -3.0645 2.81474 0
M  V30 3347 H 312.559 -4.32973 3.37381 0
M  V30 3348 H 312.82 -4.10079 1.6519 0
M  V30 3349 N 311.879 -1.3236 -0.855495 0
M  V30 3350 C 312.811 -1.17052 -1.97057 0
M  V30 3351 C 313.824 -0.10574 -1.62456 0
M  V30 3352 O 315.013 -0.354619 -1.74942 0
M  V30 3353 C 312.113 -0.769305 -3.30053 0
M  V30 3354 C 311.286 -1.9222 -3.929 0
M  V30 3355 C 310.345 -1.50466 -5.04228 0
M  V30 3356 O 309.371 -2.21655 -5.24269 0
M  V30 3357 N 310.573 -0.400209 -5.79119 0
M  V30 3358 H 313.338 -2.13103 -2.1073 0
M  V30 3359 H 310.899 -1.24885 -1.0303 0
M  V30 3360 H 312.891 -0.472407 -4.01933 0
M  V30 3361 H 311.461 0.100025 -3.1244 0
M  V30 3362 H 310.681 -2.38563 -3.13817 0
M  V30 3363 H 311.969 -2.69403 -4.31624 0
M  V30 3364 H 311.367 0.192319 -5.65373 0
M  V30 3365 H 309.924 -0.162912 -6.51596 0
M  V30 3366 N 313.357 1.07166 -1.15556 0
M  V30 3367 C 314.603 1.80065 -0.932984 0
M  V30 3368 C 314.936 1.86586 0.53845 0
M  V30 3369 O 314.211 1.35098 1.39924 0
M  V30 3370 C 314.494 3.25022 -1.55025 0
M  V30 3371 C 314.347 3.26634 -3.09242 0
M  V30 3372 C 315.666 4.22341 -1.2376 0
M  V30 3373 H 312.785 0.653697 -0.340366 0
M  V30 3374 H 315.427 1.25389 -1.4275 0
M  V30 3375 H 313.577 3.71712 -1.12972 0
M  V30 3376 H 315.249 2.88173 -3.60214 0
M  V30 3377 H 313.492 2.65539 -3.43033 0
M  V30 3378 H 314.163 4.28854 -3.47546 0
M  V30 3379 H 316.639 3.8405 -1.60139 0
M  V30 3380 H 315.515 5.22053 -1.69564 0
M  V30 3381 H 315.776 4.41828 -0.154938 0
M  V30 3382 N 314.835 0.952656 1.25548 0
M  V30 3383 C 316.063 0.623496 1.97282 0
M  V30 3384 C 316.478 -0.803987 1.70826 0
M  V30 3385 O 315.835 -1.53755 0.983147 0
M  V30 3386 C 315.886 0.870209 3.5087 0
M  V30 3387 O 315.607 2.24156 3.76412 0
M  V30 3388 C 317.108 0.553164 4.39835 0
M  V30 3389 H 314.328 0.233931 0.628902 0
M  V30 3390 H 316.872 1.27649 1.59768 0
M  V30 3391 H 315.027 0.263652 3.86502 0
M  V30 3392 H 315.441 2.31021 4.70882 0
M  V30 3393 H 316.915 0.776342 5.46513 0
M  V30 3394 H 317.392 -0.512215 4.36203 0
M  V30 3395 H 317.998 1.13896 4.09766 0
M  V30 3396 N 316.313 -1.40141 0.720998 0
M  V30 3397 C 317.243 -2.33339 0.0867621 0
M  V30 3398 C 318.224 -1.53178 -0.739622 0
M  V30 3399 O 319.409 -1.81625 -0.687449 0
M  V30 3400 C 316.539 -3.37194 -0.831728 0
M  V30 3401 C 315.493 -4.27857 -0.110558 0
M  V30 3402 C 314.819 -5.22294 -1.14513 0
M  V30 3403 C 316.119 -5.11872 1.0385 0
M  V30 3404 H 317.813 -2.86626 0.865219 0
M  V30 3405 H 315.359 -1.37814 0.417516 0
M  V30 3406 H 317.312 -4.01335 -1.28485 0
M  V30 3407 H 316.036 -2.82314 -1.64214 0
M  V30 3408 H 314.695 -3.65176 0.322797 0
M  V30 3409 H 314.343 -4.63717 -1.94874 0
M  V30 3410 H 314.043 -5.83797 -0.667446 0
M  V30 3411 H 315.567 -5.89312 -1.59824 0
M  V30 3412 H 316.981 -5.69436 0.664482 0
M  V30 3413 H 315.378 -5.82445 1.4449 0
M  V30 3414 H 316.448 -4.4753 1.86668 0
M  V30 3415 N 317.792 -0.46758 -1.50504 0
M  V30 3416 C 319.017 0.0886943 -2.0721 0
M  V30 3417 C 319.442 1.33057 -1.32956 0
M  V30 3418 O 318.8 1.77354 -0.376197 0
M  V30 3419 C 318.848 0.359202 -3.58806 0
M  V30 3420 O 317.952 1.44034 -3.8643 0
M  V30 3421 H 317.293 -0.0114349 -0.663902 0
M  V30 3422 H 319.823 -0.657613 -1.93744 0
M  V30 3423 H 319.833 0.600742 -4.03553 0
M  V30 3424 H 318.508 -0.548311 -4.1227 0
M  V30 3425 H 317.085 1.18638 -3.53524 0
M  V30 3426 N 319.27 1.56325 -0.20005 0
M  V30 3427 C 320.18 2.22931 0.730668 0
M  V30 3428 C 321.196 1.22997 1.23076 0
M  V30 3429 O 322.372 1.55748 1.27689 0
M  V30 3430 C 319.437 2.87948 1.93098 0
M  V30 3431 C 318.498 4.03166 1.47497 0
M  V30 3432 C 317.731 4.65073 2.61807 0
M  V30 3433 O 317.954 4.25913 3.79413 0
M  V30 3434 O 316.888 5.54452 2.34237 0
M  V30 3435 H 320.714 3.03084 0.193391 0
M  V30 3436 H 318.299 1.49371 0.0294621 0
M  V30 3437 H 320.181 3.29063 2.6324 0
M  V30 3438 H 318.856 2.10771 2.45677 0
M  V30 3439 H 317.763 3.66664 0.742201 0
M  V30 3440 H 319.096 4.82022 0.995796 0
M  V30 3441 N 320.748 -0.0735177 1.57428 0
M  V30 3442 C 321.994 -0.774145 1.87443 0
M  V30 3443 C 322.327 -1.77311 0.792103 0
M  V30 3444 O 321.602 -1.93492 -0.197793 0
M  V30 3445 C 321.885 -1.48367 3.28115 0
M  V30 3446 C 321.738 -0.501227 4.46999 0
M  V30 3447 C 323.057 -2.429 3.66998 0
M  V30 3448 H 320.176 -0.279971 0.681752 0
M  V30 3449 H 322.818 -0.0373616 1.89963 0
M  V30 3450 H 320.968 -2.11171 3.26097 0
M  V30 3451 H 322.64 0.121468 4.6114 0
M  V30 3452 H 320.883 0.183593 4.33411 0
M  V30 3453 H 321.554 -1.03526 5.42205 0
M  V30 3454 H 324.03 -1.90175 3.70098 0
M  V30 3455 H 322.906 -2.89549 4.66318 0
M  V30 3456 H 323.167 -3.27628 2.96837 0
M  V30 3457 N 322.226 -1.5378 -0.344866 0
M  V30 3458 C 323.156 -1.84662 -1.42906 0
M  V30 3459 C 324.137 -0.701648 -1.54955 0
M  V30 3460 O 325.322 -0.953438 -1.69184 0
M  V30 3461 C 322.452 -2.05503 -2.79974 0
M  V30 3462 C 321.406 -3.21318 -2.82734 0
M  V30 3463 C 320.732 -3.2749 -4.22675 0
M  V30 3464 C 322.032 -4.59456 -2.48389 0
M  V30 3465 H 323.726 -2.75461 -1.17311 0
M  V30 3466 H 321.272 -1.32542 -0.562896 0
M  V30 3467 H 323.225 -2.25691 -3.55867 0
M  V30 3468 H 321.949 -1.11434 -3.07002 0
M  V30 3469 H 320.608 -3.00984 -2.09294 0
M  V30 3470 H 320.256 -2.31019 -4.4681 0
M  V30 3471 H 319.956 -4.05316 -4.25433 0
M  V30 3472 H 321.48 -3.49887 -5.00412 0
M  V30 3473 H 322.894 -4.79667 -3.13995 0
M  V30 3474 H 321.291 -5.39675 -2.62432 0
M  V30 3475 H 322.361 -4.63155 -1.4358 0
M  V30 3476 N 323.704 0.605807 -1.45491 0
M  V30 3477 C 324.952 1.36207 -1.49305 0
M  V30 3478 C 325.273 1.94519 -0.136863 0
M  V30 3479 O 324.543 1.77261 0.833983 0
M  V30 3480 H 323.123 0.50565 -0.549843 0
M  V30 3481 H 325.785 0.711239 -1.81459 0
M  V30 3482 H 324.881 2.18058 -2.23287 0
M  V30 3483 N 325.182 1.32811 0.848464 0
M  V30 3484 C 326.428 1.23907 1.60546 0
M  V30 3485 C 326.761 -0.197161 1.93197 0
M  V30 3486 O 326.036 -1.13596 1.5788 0
M  V30 3487 C 326.319 2.10489 2.92175 0
M  V30 3488 C 326.172 3.62522 2.66266 0
M  V30 3489 C 327.491 1.97075 3.93509 0
M  V30 3490 H 324.61 0.451459 0.58254 0
M  V30 3491 H 327.252 1.62818 0.979296 0
M  V30 3492 H 325.402 1.77434 3.45614 0
M  V30 3493 H 327.074 4.05821 2.19334 0
M  V30 3494 H 325.317 3.84879 2.00126 0
M  V30 3495 H 325.988 4.18437 3.6002 0
M  V30 3496 H 328.464 2.26045 3.49346 0
M  V30 3497 H 327.34 2.59923 4.83457 0
M  V30 3498 H 327.601 0.940186 4.31987 0
M  V30 3499 N 326.66 -1.06551 1.16123 0
M  V30 3500 C 327.57 -2.17484 0.879662 0
M  V30 3501 C 328.586 -1.73377 -0.147104 0
M  V30 3502 O 329.762 -2.01379 0.0289128 0
M  V30 3503 C 326.827 -3.44591 0.381829 0
M  V30 3504 C 325.888 -4.0322 1.4735 0
M  V30 3505 C 325.121 -5.24261 0.999324 0
M  V30 3506 O 325.344 -5.70198 -0.151957 0
M  V30 3507 O 324.278 -5.74775 1.78653 0
M  V30 3508 H 328.104 -2.44075 1.80724 0
M  V30 3509 H 325.689 -1.16042 0.940992 0
M  V30 3510 H 327.571 -4.21254 0.111053 0
M  V30 3511 H 326.246 -3.19532 -0.51777 0
M  V30 3512 H 325.153 -3.2806 1.79798 0
M  V30 3513 H 326.486 -4.32568 2.34831 0
M  V30 3514 N 328.138 -0.959301 -1.25041 0
M  V30 3515 C 329.048 -0.489994 -2.29426 0
M  V30 3516 C 330.064 0.444944 -1.68215 0
M  V30 3517 O 331.24 0.320046 -1.98841 0
M  V30 3518 C 328.305 0.220309 -3.45999 0
M  V30 3519 C 327.366 -0.753418 -4.22637 0
M  V30 3520 C 326.599 -0.076918 -5.33645 0
M  V30 3521 O 326.822 1.13649 -5.58963 0
M  V30 3522 O 325.756 -0.764824 -5.97021 0
M  V30 3523 H 329.582 -1.35755 -2.71669 0
M  V30 3524 H 327.167 -0.725961 -1.30576 0
M  V30 3525 H 329.049 0.619677 -4.16819 0
M  V30 3526 H 327.724 1.06296 -3.0575 0
M  V30 3527 H 326.631 -1.20308 -3.54227 0
M  V30 3528 H 327.964 -1.56423 -4.66683 0
M  V30 3529 N 329.616 1.39756 -0.72842 0
M  V30 3530 C 331.032 1.5442 -0.403308 0
M  V30 3531 C 331.232 1.69694 1.08656 0
M  V30 3532 O 330.288 1.69373 1.87267 0
M  V30 3533 C 331.601 2.76555 -1.18058 0
M  V30 3534 C 333.149 2.90384 -1.16815 0
M  V30 3535 C 333.624 4.15449 -1.92785 0
M  V30 3536 N 335.115 4.22475 -1.89918 0
M  V30 3537 C 335.85 5.1818 -2.45514 0
M  V30 3538 N 335.346 6.19714 -3.09719 0
M  V30 3539 N 337.139 5.1035 -2.35584 0
M  V30 3540 H 329.29 1.28089 -1.69431 0
M  V30 3541 H 331.553 0.620327 -0.716867 0
M  V30 3542 H 331.259 2.7159 -2.23455 0
M  V30 3543 H 331.133 3.69033 -0.780662 0
M  V30 3544 H 333.52 2.94846 -0.12234 0
M  V30 3545 H 333.601 1.98988 -1.6074 0
M  V30 3546 H 333.245 4.11749 -2.97364 0
M  V30 3547 H 333.175 5.05877 -1.46272 0
M  V30 3548 H 335.666 3.49743 -1.43138 0
M  V30 3549 H 335.979 6.8919 -3.49625 0
M  V30 3550 H 334.324 6.20121 -3.13807 0
M  V30 3551 H 337.515 4.2996 -1.85072 0
M  V30 3552 H 337.688 5.84761 -2.79211 0
M  V30 3553 N 331.094 0.475555 1.50254 0
M  V30 3554 C 332.057 -0.305016 2.27161 0
M  V30 3555 C 333.057 -0.916519 1.32123 0
M  V30 3556 O 334.247 -0.785003 1.5551 0
M  V30 3557 C 331.379 -1.43496 3.09227 0
M  V30 3558 H 332.572 0.369511 2.97615 0
M  V30 3559 H 330.125 0.229747 1.54602 0
M  V30 3560 H 330.86 -2.14441 2.43281 0
M  V30 3561 H 330.645 -1.00223 3.79075 0
M  V30 3562 H 332.135 -1.98548 3.67381 0
M  V30 3563 N 332.573 -1.56217 0.208337 0
M  V30 3564 C 333.821 -1.97558 -0.426076 0
M  V30 3565 C 334.142 -1.09683 -1.61229 0
M  V30 3566 O 333.412 -0.170956 -1.95153 0
M  V30 3567 H 331.992 -0.729575 -0.160405 0
M  V30 3568 H 334.654 -1.92606 0.298155 0
M  V30 3569 H 333.75 -3.02672 -0.761312 0
M  V30 3570 N 334.051 0.0651679 -1.57465 0
M  V30 3571 C 335.281 0.774683 -1.91526 0
M  V30 3572 C 335.689 1.71305 -0.803196 0
M  V30 3573 O 335.032 1.82231 0.231881 0
M  V30 3574 C 335.094 1.61645 -3.21109 0
M  V30 3575 C 334.758 0.846753 -4.49087 0
M  V30 3576 C 335.755 0.163024 -5.19644 0
M  V30 3577 C 333.44 0.811966 -4.95694 0
M  V30 3578 C 335.434 -0.54519 -6.35064 0
M  V30 3579 C 333.121 0.0999836 -6.11018 0
M  V30 3580 C 334.119 -0.577388 -6.80555 0
M  V30 3581 O 333.807 -1.27789 -7.93678 0
M  V30 3582 H 333.539 0.225031 -0.637446 0
M  V30 3583 H 336.093 0.0377134 -2.05365 0
M  V30 3584 H 334.323 2.39638 -3.03497 0
M  V30 3585 H 336.012 2.20525 -3.40769 0
M  V30 3586 H 336.778 0.181163 -4.84662 0
M  V30 3587 H 332.657 1.32867 -4.41438 0
M  V30 3588 H 336.201 -1.07446 -6.89276 0
M  V30 3589 H 332.098 0.0797945 -6.45451 0
M  V30 3590 H 332.866 -1.18784 -8.09835 0
M  V30 3591 N 335.529 1.53961 0.336706 0
M  V30 3592 C 336.759 1.75229 1.09446 0
M  V30 3593 C 337.167 0.494602 1.82621 0
M  V30 3594 O 336.51 -0.543764 1.75468 0
M  V30 3595 C 336.572 2.88288 2.1478 0
M  V30 3596 C 336.236 4.27656 1.6112 0
M  V30 3597 C 337.233 5.08981 1.0599 0
M  V30 3598 C 334.918 4.74161 1.6576 0
M  V30 3599 C 336.912 6.34916 0.562129 0
M  V30 3600 C 334.599 6.00067 1.15595 0
M  V30 3601 C 335.597 6.80278 0.609147 0
M  V30 3602 O 335.285 8.03818 0.114999 0
M  V30 3603 H 335.017 0.588881 0.331956 0
M  V30 3604 H 337.571 2.01614 0.392566 0
M  V30 3605 H 335.801 2.57443 2.88548 0
M  V30 3606 H 337.49 2.97461 2.76174 0
M  V30 3607 H 338.256 4.74213 1.01722 0
M  V30 3608 H 334.135 4.11781 2.07261 0
M  V30 3609 H 337.679 6.9747 0.134668 0
M  V30 3610 H 333.576 6.3433 1.19566 0
M  V30 3611 H 334.344 8.18172 0.231651 0
M  V30 3612 N 337.007 -0.598083 1.45811 0
M  V30 3613 C 338.284 -1.35777 1.40797 0
M  V30 3614 C 338.664 -2.10935 0.083462 0
M  V30 3615 O 338.012 -2.08505 -0.934763 0
M  V30 3616 C 338.222 -2.29666 2.62783 0
M  V30 3617 C 339.57 -2.91977 3.08277 0
M  V30 3618 O 340.594 -2.39984 2.63223 0
M  V30 3619 O 339.453 -3.86376 3.86491 0
M  V30 3620 H 336.547 -0.609291 0.55919 0
M  V30 3621 H 339.093 -0.620379 1.57954 0
M  V30 3622 H 337.865 -1.73454 3.50756 0
M  V30 3623 H 337.488 -3.1077 2.48008 0
M  V30 3624 N 338.485 -1.33259 -0.841409 0
M  V30 3625 C 339.713 -1.27605 -1.62864 0
M  V30 3626 C 340.128 0.153507 -1.88175 0
M  V30 3627 O 339.485 1.09485 -1.46011 0
M  V30 3628 C 339.536 -2.04596 -2.98031 0
M  V30 3629 O 339.257 -3.41975 -2.73834 0
M  V30 3630 C 340.758 -2.06122 -3.92465 0
M  V30 3631 H 337.978 -0.439718 -0.506842 0
M  V30 3632 H 340.522 -1.75591 -1.04824 0
M  V30 3633 H 338.677 -1.60299 -3.5268 0
M  V30 3634 H 339.091 -3.81549 -3.59889 0
M  V30 3635 H 340.565 -2.64451 -4.84531 0
M  V30 3636 H 341.042 -1.05083 -4.26444 0
M  V30 3637 H 341.648 -2.50427 -3.43753 0
M  V30 3638 N 339.963 1.05934 -1.16686 0
M  V30 3639 C 340.926 2.11669 -0.879144 0
M  V30 3640 C 341.926 1.60294 0.127445 0
M  V30 3641 O 343.116 1.7389 -0.103865 0
M  V30 3642 C 340.248 3.39438 -0.315425 0
M  V30 3643 H 341.441 2.38626 -1.81653 0
M  V30 3644 H 338.994 1.22058 -0.976299 0
M  V30 3645 H 339.729 3.18132 0.629468 0
M  V30 3646 H 339.514 3.78034 -1.04079 0
M  V30 3647 H 341.004 4.17391 -0.132189 0
M  V30 3648 N 341.441 0.965919 1.2453 0
M  V30 3649 C 342.689 0.625593 1.92174 0
M  V30 3650 C 343.01 -0.841652 1.75901 0
M  V30 3651 O 342.28 -1.60061 1.12948 0
M  V30 3652 H 340.86 0.228388 0.71123 0
M  V30 3653 H 343.522 1.2266 1.51461 0
M  V30 3654 H 342.618 0.864653 2.99884 0
M  V30 3655 N 342.919 -1.39368 0.735821 0
M  V30 3656 C 343.882 -2.2896 0.104874 0
M  V30 3657 C 344.882 -1.46347 -0.666274 0
M  V30 3658 O 346.072 -1.67014 -0.49517 0
M  V30 3659 C 343.204 -3.29857 -0.860656 0
M  V30 3660 H 344.397 -2.86259 0.894205 0
M  V30 3661 H 341.95 -1.48029 0.501704 0
M  V30 3662 H 342.685 -2.77615 -1.67631 0
M  V30 3663 H 342.47 -3.9087 -0.310327 0
M  V30 3664 H 343.96 -3.96893 -1.29867 0
M  V30 3665 N 344.397 -0.483516 -1.5 0
M  V30 3666 C 345.327 0.293829 -2.31644 0
M  V30 3667 C 346.308 0.978864 -1.39112 0
M  V30 3668 O 347.493 0.973644 -1.68029 0
M  V30 3669 C 344.623 1.36897 -3.19181 0
M  V30 3670 C 343.577 0.804833 -4.20365 0
M  V30 3671 C 342.903 1.9792 -4.96721 0
M  V30 3672 C 344.203 -0.192313 -5.21946 0
M  V30 3673 H 345.897 -0.387616 -2.9688 0
M  V30 3674 H 343.443 -0.187856 -1.42769 0
M  V30 3675 H 345.396 1.92037 -3.751 0
M  V30 3676 H 344.12 2.07936 -2.51853 0
M  V30 3677 H 342.779 0.275319 -3.65565 0
M  V30 3678 H 342.427 2.67686 -4.25856 0
M  V30 3679 H 342.127 1.60789 -5.65173 0
M  V30 3680 H 343.651 2.53526 -5.55479 0
M  V30 3681 H 345.065 0.270333 -5.72662 0
M  V30 3682 H 343.462 -0.478543 -5.98189 0
M  V30 3683 H 344.532 -1.11409 -4.71928 0
M  V30 3684 N 345.875 1.56104 -0.216619 0
M  V30 3685 C 346.805 2.23063 0.690296 0
M  V30 3686 C 347.786 1.20072 1.20485 0
M  V30 3687 O 348.971 1.48643 1.24976 0
M  V30 3688 C 346.101 2.90672 1.90072 0
M  V30 3689 C 345.055 4.00092 1.5202 0
M  V30 3690 C 344.381 4.54972 2.80899 0
M  V30 3691 C 345.681 5.17398 0.71391 0
M  V30 3692 H 347.375 2.99109 0.132038 0
M  V30 3693 H 344.921 1.43866 0.0620664 0
M  V30 3694 H 346.874 3.36204 2.54057 0
M  V30 3695 H 345.598 2.12066 2.48386 0
M  V30 3696 H 344.257 3.55283 0.903839 0
M  V30 3697 H 343.905 3.73102 3.37348 0
M  V30 3698 H 343.605 5.28817 2.56176 0
M  V30 3699 H 345.129 5.0322 3.45836 0
M  V30 3700 H 346.543 5.59342 1.25735 0
M  V30 3701 H 344.94 5.97444 0.563951 0
M  V30 3702 H 346.01 4.84088 -0.280527 0
M  V30 3703 N 347.353 -0.0568162 1.57498 0
M  V30 3704 C 348.63 -0.786954 1.79071 0
M  V30 3705 C 349.01 -1.95028 0.80792 0
M  V30 3706 O 348.358 -2.27968 -0.155858 0
M  V30 3707 C 348.568 -1.24594 3.26002 0
M  V30 3708 C 349.916 -1.67323 3.90241 0
M  V30 3709 O 350.94 -1.34124 3.29984 0
M  V30 3710 O 349.799 -2.28842 4.9628 0
M  V30 3711 H 346.893 -0.378262 0.735423 0
M  V30 3712 H 349.439 -0.035734 1.69662 0
M  V30 3713 H 348.211 -0.41423 3.89101 0
M  V30 3714 H 347.834 -2.05803 3.40192 0
M  V30 3715 N 348.832 -1.54138 -0.328536 0
M  V30 3716 C 349.765 -1.78014 -1.4278 0
M  V30 3717 C 350.743 -0.629889 -1.49904 0
M  V30 3718 O 351.927 -0.866763 -1.6739 0
M  V30 3719 C 349.054 -1.89225 -2.80912 0
M  V30 3720 C 348.1 -3.11483 -2.91343 0
M  V30 3721 S 348.933 -4.70201 -2.56263 0
M  V30 3722 C 350.089 -4.84312 -3.96476 0
M  V30 3723 H 350.322 -2.70974 -1.22313 0
M  V30 3724 H 347.855 -1.45197 -0.525084 0
M  V30 3725 H 349.813 -1.9637 -3.60485 0
M  V30 3726 H 348.474 -0.972518 -2.98665 0
M  V30 3727 H 347.667 -3.16046 -3.92595 0
M  V30 3728 H 347.269 -3.02642 -2.19736 0
M  V30 3729 H 349.561 -4.66643 -4.91173 0
M  V30 3730 H 350.504 -5.86411 -3.96898 0
M  V30 3731 H 350.912 -4.12652 -3.85199 0
M  V30 3732 N 350.31 0.590341 -1.46126 0
M  V30 3733 C 351.559 1.34499 -1.50309 0
M  V30 3734 C 351.872 1.94977 -0.156021 0
M  V30 3735 O 353.078 2.71395 -0.0756037 0
M  V30 3736 C 351.534 2.43723 -2.64815 0
M  V30 3737 C 351.142 1.89582 -4.0591 0
M  V30 3738 C 352.886 3.20579 -2.78262 0
M  V30 3739 C 350.793 2.9639 -5.11769 0
M  V30 3740 H 349.723 0.505593 -0.559368 0
M  V30 3741 H 352.374 0.630848 -1.72315 0
M  V30 3742 H 350.756 3.17902 -2.36124 0
M  V30 3743 H 351.93 1.21997 -4.44357 0
M  V30 3744 H 350.245 1.25418 -3.97063 0
M  V30 3745 H 352.842 4.00276 -3.54519 0
M  V30 3746 H 353.185 3.72684 -1.85505 0
M  V30 3747 H 353.718 2.53505 -3.06562 0
M  V30 3748 H 350.457 2.49181 -6.06291 0
M  V30 3749 H 349.977 3.62487 -4.77873 0
M  V30 3750 H 351.656 3.60474 -5.37278 0
M  V30 3751 N 351.788 1.33704 0.83433 0
M  V30 3752 C 352.72 1.20172 1.9517 0
M  V30 3753 C 353.733 0.131572 1.62267 0
M  V30 3754 O 354.922 0.382406 1.74356 0
M  V30 3755 C 352.022 0.821716 3.28787 0
M  V30 3756 C 351.195 1.98446 3.89792 0
M  V30 3757 C 350.254 1.58469 5.01771 0
M  V30 3758 O 349.28 2.29968 5.20676 0
M  V30 3759 N 350.482 0.492291 5.78409 0
M  V30 3760 H 353.247 2.16429 2.07313 0
M  V30 3761 H 350.808 1.26509 1.0103 0
M  V30 3762 H 352.8 0.536291 4.01131 0
M  V30 3763 H 351.37 -0.0503058 3.1256 0
M  V30 3764 H 350.59 2.43526 3.09982 0
M  V30 3765 H 351.878 2.76236 4.27283 0
M  V30 3766 H 351.276 -0.102349 5.65607 0
M  V30 3767 H 349.833 0.266555 6.51255 0
M  V30 3768 N 353.266 -1.05314 1.17247 0
M  V30 3769 C 354.214 -2.15137 0.884238 0
M  V30 3770 C 355.208 -1.68729 -0.15063 0
M  V30 3771 O 356.414 -1.8 -0.00366673 0
M  V30 3772 H 352.789 -0.702471 0.2684 0
M  V30 3773 H 354.76 -2.36652 1.81764 0
M  V30 3774 C 353.509 -3.45243 0.412659 0
M  V30 3775 H 352.832 -3.81352 1.20043 0
M  V30 3776 H 354.272 -4.23263 0.249858 0
M  V30 3777 C 352.731 -3.25487 -0.86948 0
M  V30 3778 O 353.261 -3.51938 -1.93655 0
M  V30 3779 N 351.467 -2.78875 -0.817147 0
M  V30 3780 H 351.014 -2.57549 0.0514211 0
M  V30 3781 H 350.972 -2.66036 -1.67547 0
M  V30 3782 N 354.744 -0.972509 -1.24016 0
M  V30 3783 C 355.694 -0.477561 -2.22942 0
M  V30 3784 C 356.678 0.44308 -1.54679 0
M  V30 3785 O 357.87 0.273219 -1.74879 0
M  V30 3786 C 354.999 0.226348 -3.42553 0
M  V30 3787 C 354.085 -0.713403 -4.18057 0
M  V30 3788 N 354.476 -1.8527 -4.70647 0
M  V30 3789 C 352.774 -0.525145 -4.42898 0
M  V30 3790 C 353.475 -2.44089 -5.28011 0
M  V30 3791 N 352.451 -1.72556 -5.15486 0
M  V30 3792 H 356.253 -1.34678 -2.61226 0
M  V30 3793 H 353.767 -0.832196 -1.39457 0
M  V30 3794 H 355.764 0.598184 -4.12586 0
M  V30 3795 H 354.424 1.09195 -3.05788 0
M  V30 3796 H 355.435 -2.2341 -4.67235 0
M  V30 3797 H 352.112 0.296096 -4.16449 0
M  V30 3798 H 353.502 -3.40259 -5.79374 0
M  V30 3799 N 356.222 1.38976 -0.743202 0
M  V30 3800 C 357.45 2.04636 -0.30525 0
M  V30 3801 C 357.865 1.56044 1.06281 0
M  V30 3802 O 357.222 0.728921 1.67311 0
M  V30 3803 C 357.273 3.60193 -0.307177 0
M  V30 3804 O 356.994 4.06998 -1.62124 0
M  V30 3805 C 358.495 4.4306 0.145928 0
M  V30 3806 H 355.715 0.65788 -0.132041 0
M  V30 3807 H 358.259 1.77866 -1.00915 0
M  V30 3808 H 356.414 3.85835 0.347898 0
M  V30 3809 H 356.828 5.01371 -1.54036 0
M  V30 3810 H 358.302 5.51921 0.0934183 0
M  V30 3811 H 358.779 4.22706 1.19231 0
M  V30 3812 H 359.385 4.22584 -0.479886 0
M  V30 3813 N 357.7 0.491464 1.49741 0
M  V30 3814 C 358.633 -0.338464 2.25676 0
M  V30 3815 C 359.611 -0.978676 1.29849 0
M  V30 3816 O 360.795 -1.01064 1.59117 0
M  V30 3817 C 357.922 -1.47588 3.04853 0
M  V30 3818 C 356.968 -0.951 4.15762 0
M  V30 3819 S 357.801 0.150626 5.35288 0
M  V30 3820 C 358.957 -0.990178 6.18018 0
M  V30 3821 H 359.19 0.306068 2.9572 0
M  V30 3822 H 356.723 0.276622 1.51902 0
M  V30 3823 H 358.681 -2.12764 3.51058 0
M  V30 3824 H 357.342 -2.09199 2.34296 0
M  V30 3825 H 356.535 -1.80311 4.70642 0
M  V30 3826 H 356.137 -0.376607 3.72099 0
M  V30 3827 H 358.429 -1.89748 6.50386 0
M  V30 3828 H 359.372 -0.480205 7.0647 0
M  V30 3829 H 359.78 -1.25321 5.50413 0
M  V30 3830 N 359.178 -1.55987 0.224894 0
M  V30 3831 C 360.11 -2.17722 -0.716224 0
M  V30 3832 C 361.123 -1.14723 -1.15509 0
M  V30 3833 O 362.312 -1.41688 -1.08567 0
M  V30 3834 C 359.412 -2.74873 -1.98238 0
M  V30 3835 C 358.585 -4.03074 -1.69853 0
M  V30 3836 C 357.644 -4.44757 -2.81208 0
M  V30 3837 O 356.67 -5.11587 -2.49534 0
M  V30 3838 N 357.872 -4.10716 -4.10235 0
M  V30 3839 H 360.637 -2.99109 -0.188123 0
M  V30 3840 H 358.198 -1.6184 0.0440123 0
M  V30 3841 H 360.19 -2.99727 -2.7193 0
M  V30 3842 H 358.76 -1.9777 -2.42086 0
M  V30 3843 H 357.98 -3.86041 -0.797875 0
M  V30 3844 H 359.268 -4.86701 -1.48324 0
M  V30 3845 H 358.666 -3.57019 -4.38809 0
M  V30 3846 H 357.223 -4.40455 -4.80461 0
M  V30 3847 N 360.656 0.0484629 -1.57525 0
M  V30 3848 C 361.905 0.742065 -1.87553 0
M  V30 3849 C 362.218 1.77545 -0.820802 0
M  V30 3850 O 363.424 2.52027 -1.00967 0
M  V30 3851 C 361.88 1.37081 -3.32771 0
M  V30 3852 C 361.488 0.374786 -4.4643 0
M  V30 3853 C 363.232 2.04542 -3.71972 0
M  V30 3854 C 361.139 1.01077 -5.82698 0
M  V30 3855 H 360.069 0.280903 -0.699721 0
M  V30 3856 H 362.72 -0.00411877 -1.835 0
M  V30 3857 H 361.102 2.16605 -3.31509 0
M  V30 3858 H 362.276 -0.392331 -4.59127 0
M  V30 3859 H 360.591 -0.196653 -4.15935 0
M  V30 3860 H 363.188 2.52943 -4.71088 0
M  V30 3861 H 363.531 2.85515 -3.02964 0
M  V30 3862 H 364.064 1.31819 -3.75325 0
M  V30 3863 H 360.803 0.240878 -6.55057 0
M  V30 3864 H 360.323 1.74819 -5.73758 0
M  V30 3865 H 362.002 1.52383 -6.28799 0
M  V30 3866 N 362.134 1.5431 0.320358 0
M  V30 3867 C 363.38 1.72924 1.05949 0
M  V30 3868 C 363.713 0.503185 1.87568 0
M  V30 3869 O 362.988 -0.499839 1.87968 0
M  V30 3870 C 363.271 3.00676 1.98156 0
M  V30 3871 C 363.124 4.3354 1.19845 0
M  V30 3872 C 364.443 3.24198 2.9763 0
M  V30 3873 H 361.562 0.629195 0.383774 0
M  V30 3874 H 364.204 1.87008 0.335854 0
M  V30 3875 H 362.354 2.888 2.59859 0
M  V30 3876 H 364.026 4.57305 0.605773 0
M  V30 3877 H 362.269 4.309 0.500784 0
M  V30 3878 H 362.94 5.19156 1.87567 0
M  V30 3879 H 365.416 3.35557 2.4605 0
M  V30 3880 H 364.292 4.14938 3.59329 0
M  V30 3881 H 364.553 2.41577 3.7026 0
M  V30 3882 N 363.613 -0.582584 1.46437 0
M  V30 3883 C 364.861 -1.33814 1.51453 0
M  V30 3884 C 365.182 -1.94277 0.167792 0
M  V30 3885 O 364.452 -1.78566 -0.805677 0
M  V30 3886 H 363.032 -0.496838 0.557818 0
M  V30 3887 H 365.694 -0.682281 1.82568 0
M  V30 3888 H 364.79 -2.14479 2.26728 0
M  V30 3889 N 365.091 -1.34144 -0.827227 0
M  V30 3890 C 366.337 -1.27455 -1.58515 0
M  V30 3891 C 366.692 0.155271 -1.91772 0
M  V30 3892 O 365.985 1.10042 -1.56848 0
M  V30 3893 C 366.179 -2.09464 -2.89585 0
M  V30 3894 C 366.008 -3.60276 -2.69131 0
M  V30 3895 C 364.778 -4.29565 -2.66087 0
M  V30 3896 C 366.976 -4.54367 -2.40947 0
M  V30 3897 N 364.958 -5.66252 -2.37132 0
M  V30 3898 C 366.329 -5.79027 -2.21648 0
M  V30 3899 C 368.384 -4.43327 -2.26639 0
M  V30 3900 C 367.087 -6.93891 -1.89492 0
M  V30 3901 C 369.113 -5.58019 -1.95878 0
M  V30 3902 C 368.475 -6.81695 -1.774 0
M  V30 3903 H 364.574 -0.521614 -0.582617 0
M  V30 3904 H 367.158 -1.68811 -0.970105 0
M  V30 3905 H 365.329 -1.70411 -3.49019 0
M  V30 3906 H 367.061 -1.94453 -3.54923 0
M  V30 3907 H 363.816 -3.81959 -2.80008 0
M  V30 3908 H 364.24 -6.38338 -2.25507 0
M  V30 3909 H 368.882 -3.48333 -2.39633 0
M  V30 3910 H 366.6 -7.88871 -1.75236 0
M  V30 3911 H 370.186 -5.5142 -1.85546 0
M  V30 3912 H 369.066 -7.68942 -1.53941 0
M  V30 3913 N 366.569 1.04691 -1.17803 0
M  V30 3914 C 367.499 2.14494 -0.92275 0
M  V30 3915 C 368.48 1.69546 0.137179 0
M  V30 3916 O 369.665 1.94195 -0.0141108 0
M  V30 3917 C 366.795 3.44491 -0.440803 0
M  V30 3918 C 365.749 4.03031 -1.4405 0
M  V30 3919 C 365.075 5.28432 -0.81631 0
M  V30 3920 C 366.375 4.39932 -2.81527 0
M  V30 3921 H 368.069 2.36107 -1.84103 0
M  V30 3922 H 365.615 1.1347 -0.886599 0
M  V30 3923 H 367.568 4.2066 -0.249602 0
M  V30 3924 H 366.292 3.22546 0.513025 0
M  V30 3925 H 364.951 3.28937 -1.61853 0
M  V30 3926 H 364.599 5.02792 0.144511 0
M  V30 3927 H 364.299 5.68559 -1.48371 0
M  V30 3928 H 365.823 6.07284 -0.635496 0
M  V30 3929 H 367.237 5.07113 -2.67412 0
M  V30 3930 H 365.634 4.9109 -3.44892 0
M  V30 3931 H 366.704 3.50045 -3.35554 0
M  V30 3932 N 368.047 0.979072 1.23499 0
M  V30 3933 C 369.01 0.523244 2.23147 0
M  V30 3934 C 370.01 -0.386406 1.56088 0
M  V30 3935 O 371.2 -0.180283 1.73265 0
M  V30 3936 C 368.332 -0.240739 3.40049 0
M  V30 3937 H 369.525 1.40432 2.64989 0
M  V30 3938 H 367.078 0.764824 1.36309 0
M  V30 3939 H 367.813 -1.13841 3.03662 0
M  V30 3940 H 367.598 0.412207 3.89927 0
M  V30 3941 H 369.088 -0.548297 4.13985 0
M  V30 3942 N 369.525 -1.3858 0.750561 0
M  V30 3943 C 370.458 -2.28095 0.0693139 0
M  V30 3944 C 371.436 -1.45217 -0.731491 0
M  V30 3945 O 372.62 -1.74587 -0.71076 0
M  V30 3946 C 369.747 -3.26282 -0.90871 0
M  V30 3947 C 368.793 -4.26056 -0.194507 0
M  V30 3948 S 369.626 -5.24026 1.10257 0
M  V30 3949 C 370.782 -6.2577 0.127542 0
M  V30 3950 H 371.015 -2.85526 0.8284 0
M  V30 3951 H 368.548 -1.44536 0.543014 0
M  V30 3952 H 370.506 -3.83367 -1.46766 0
M  V30 3953 H 369.167 -2.6784 -1.64075 0
M  V30 3954 H 368.36 -4.95249 -0.93512 0
M  V30 3955 H 367.962 -3.72852 0.292837 0
M  V30 3956 H 370.254 -6.73796 -0.707516 0
M  V30 3957 H 371.197 -7.03712 0.787044 0
M  V30 3958 H 371.605 -5.63938 -0.251803 0
M  V30 3959 N 371.003 -0.499398 -1.49478 0
M  V30 3960 C 371.913 0.284489 -2.32869 0
M  V30 3961 C 372.929 0.968885 -1.44529 0
M  V30 3962 O 374.105 0.95062 -1.77553 0
M  V30 3963 C 371.17 1.33594 -3.19928 0
M  V30 3964 C 370.231 0.665149 -4.24116 0
M  V30 3965 C 369.464 1.6665 -5.07014 0
M  V30 3966 O 369.687 2.89618 -4.91404 0
M  V30 3967 O 368.621 1.22271 -5.8935 0
M  V30 3968 H 372.447 -0.39802 -3.01081 0
M  V30 3969 H 370.032 -0.260758 -1.47107 0
M  V30 3970 H 371.914 1.94431 -3.73864 0
M  V30 3971 H 370.589 2.0014 -2.54412 0
M  V30 3972 H 369.496 0.0170769 -3.74096 0
M  V30 3973 H 370.829 0.0421555 -4.92182 0
M  V30 3974 N 372.481 1.55866 -0.233164 0
M  V30 3975 C 373.428 2.20796 0.67215 0
M  V30 3976 C 374.398 1.16731 1.18166 0
M  V30 3977 O 375.583 1.45129 1.23864 0
M  V30 3978 C 372.723 2.90072 1.86955 0
M  V30 3979 C 371.836 4.08759 1.39786 0
M  V30 3980 C 370.971 4.65787 2.55374 0
M  V30 3981 C 370.01 5.76752 2.04998 0
M  V30 3982 N 369.147 6.28021 3.13901 0
M  V30 3983 H 373.987 2.9779 0.111749 0
M  V30 3984 H 371.524 1.47036 0.0434007 0
M  V30 3985 H 373.482 3.28428 2.57276 0
M  V30 3986 H 372.112 2.15575 2.40265 0
M  V30 3987 H 371.164 3.7581 0.589173 0
M  V30 3988 H 372.476 4.88906 0.98856 0
M  V30 3989 H 371.63 5.06646 3.33758 0
M  V30 3990 H 370.369 3.84828 2.99598 0
M  V30 3991 H 369.374 5.35383 1.25079 0
M  V30 3992 H 370.599 6.59553 1.61759 0
M  V30 3993 H 368.545 5.49971 3.57586 0
M  V30 3994 H 368.462 7.03323 2.7726 0
M  V30 3995 H 369.73 6.73538 3.92386 0
M  V30 3996 N 373.959 -0.0401083 1.57549 0
M  V30 3997 C 375.37 -0.588097 1.77196 0
M  V30 3998 C 375.721 -1.76209 0.862832 0
M  V30 3999 O 374.846 -2.16331 0.0548389 0
M  V30 4000 C 375.441 -1.07363 3.21339 0
M  V30 4001 C 374 -1.56723 3.42221 0
M  V30 4002 C 373.147 -0.50041 2.72747 0
M  V30 4003 H 376.098 0.186119 1.57605 0
M  V30 4004 H 376.119 -1.94143 3.27244 0
M  V30 4005 H 375.631 -0.218975 3.87482 0
M  V30 4006 H 373.732 -2.4441 2.81237 0
M  V30 4007 H 373.845 -1.62234 4.50796 0
M  V30 4008 H 372.209 -0.952894 2.36203 0
M  V30 4009 H 372.992 0.344599 3.41566 0
M  V30 4010 N 375.437 -1.54477 -0.31217 0
M  V30 4011 C 376.347 -1.87695 -1.4074 0
M  V30 4012 C 377.363 -0.769975 -1.56036 0
M  V30 4013 O 378.539 -1.06537 -1.70915 0
M  V30 4014 C 375.604 -2.10755 -2.75287 0
M  V30 4015 C 374.665 -3.34514 -2.69071 0
M  V30 4016 C 373.898 -3.56465 -3.97201 0
M  V30 4017 O 374.121 -2.81637 -4.96021 0
M  V30 4018 O 373.055 -4.49964 -3.9977 0
M  V30 4019 H 376.881 -2.80849 -1.15574 0
M  V30 4020 H 374.466 -1.40526 -0.507228 0
M  V30 4021 H 376.348 -2.27188 -3.54913 0
M  V30 4022 H 375.023 -1.20788 -3.0032 0
M  V30 4023 H 373.93 -3.23456 -1.87955 0
M  V30 4024 H 375.263 -4.24575 -2.48992 0
M  V30 4025 N 376.915 0.57481 -1.46744 0
M  V30 4026 C 378.14 1.36341 -1.56288 0
M  V30 4027 C 378.565 1.86954 -0.207347 0
M  V30 4028 O 377.923 1.62006 0.813871 0
M  V30 4029 C 377.971 2.52147 -2.57787 0
M  V30 4030 O 377.075 3.53834 -2.11838 0
M  V30 4031 H 376.416 0.405713 -0.525636 0
M  V30 4032 H 378.946 0.696453 -1.92382 0
M  V30 4033 H 378.956 2.98958 -2.77648 0
M  V30 4034 H 377.631 2.14663 -3.5622 0
M  V30 4035 H 376.208 3.1345 -2.01999 0
M  V30 4036 N 378.394 1.34581 0.820102 0
M  V30 4037 C 379.641 1.27096 1.57648 0
M  V30 4038 C 379.969 -0.158317 1.93855 0
M  V30 4039 O 379.224 -1.12028 1.60463 0
M  V30 4040 C 379.523 2.10997 2.8847 0
M  V30 4041 C 379.189 3.59966 2.71543 0
M  V30 4042 C 377.851 4.00575 2.66634 0
M  V30 4043 C 380.203 4.54548 2.55021 0
M  V30 4044 C 377.531 5.33953 2.43128 0
M  V30 4045 C 379.883 5.88109 2.33047 0
M  V30 4046 C 378.547 6.27878 2.26552 0
M  V30 4047 H 377.817 0.465078 0.576874 0
M  V30 4048 H 380.464 1.6635 0.948671 0
M  V30 4049 H 378.769 1.6458 3.55557 0
M  V30 4050 H 380.466 2.0255 3.46084 0
M  V30 4051 H 377.056 3.27733 2.76205 0
M  V30 4052 H 381.24 4.24069 2.57835 0
M  V30 4053 H 376.496 5.63781 2.3656 0
M  V30 4054 H 380.67 6.60985 2.19251 0
M  V30 4055 H 378.297 7.31162 2.081 0
M  V30 4056 N 379.872 -1.04064 1.18357 0
M  V30 4057 C 381.1 -1.80916 1.00384 0
M  V30 4058 C 381.515 -1.83414 -0.447738 0
M  V30 4059 O 380.872 -1.26962 -1.31099 0
M  V30 4060 C 380.923 -3.26516 1.55144 0
M  V30 4061 O 380.644 -3.2424 2.94618 0
M  V30 4062 C 382.145 -4.20013 1.41789 0
M  V30 4063 H 379.365 -0.569728 0.354474 0
M  V30 4064 H 381.909 -1.31151 1.56906 0
M  V30 4065 H 380.064 -3.73512 1.02798 0
M  V30 4066 H 380.478 -4.15452 3.20156 0
M  V30 4067 H 381.952 -5.20111 1.84901 0
M  V30 4068 H 382.429 -4.37667 0.36661 0
M  V30 4069 H 383.035 -3.78881 1.93207 0
M  V30 4070 N 381.35 -0.985608 -1.22978 0
M  V30 4071 C 382.627 -0.573599 -1.87001 0
M  V30 4072 C 383.007 0.949213 -1.88555 0
M  V30 4073 O 382.355 1.82811 -1.37086 0
M  V30 4074 C 382.565 -1.18564 -3.28243 0
M  V30 4075 C 383.913 -1.28163 -4.04796 0
M  V30 4076 O 384.937 -1.13949 -3.37482 0
M  V30 4077 O 383.796 -1.50832 -5.25273 0
M  V30 4078 H 380.89 -0.193868 -0.803955 0
M  V30 4079 H 383.436 -1.08102 -1.30813 0
M  V30 4080 H 382.208 -2.22758 -3.21706 0
M  V30 4081 H 381.831 -0.663363 -3.92027 0
M  V30 4082 N 382.828 1.3818 -0.7579 0
M  V30 4083 C 383.775 2.30416 -0.133057 0
M  V30 4084 C 384.745 1.50398 0.704957 0
M  V30 4085 O 385.93 1.79014 0.660192 0
M  V30 4086 C 383.07 3.36834 0.750813 0
M  V30 4087 C 382.183 4.31879 -0.102297 0
M  V30 4088 C 381.318 5.25368 0.784979 0
M  V30 4089 C 380.357 6.12058 -0.0715046 0
M  V30 4090 N 379.494 6.97832 0.772972 0
M  V30 4091 H 384.334 2.83274 -0.925186 0
M  V30 4092 H 381.871 1.39461 -0.467866 0
M  V30 4093 H 383.829 3.97145 1.27794 0
M  V30 4094 H 382.459 2.85374 1.50868 0
M  V30 4095 H 381.511 3.72991 -0.747095 0
M  V30 4096 H 382.823 4.92921 -0.763552 0
M  V30 4097 H 381.977 5.90818 1.37911 0
M  V30 4098 H 380.716 4.64703 1.47996 0
M  V30 4099 H 379.721 5.456 -0.678272 0
M  V30 4100 H 380.946 6.74793 -0.763606 0
M  V30 4101 H 378.892 6.3971 1.45282 0
M  V30 4102 H 378.809 7.55812 0.168709 0
M  V30 4103 H 380.077 7.67687 1.35194 0
M  V30 4104 N 384.306 0.507319 1.49211 0
M  V30 4105 C 385.583 -0.0982702 1.95353 0
M  V30 4106 C 385.963 -1.53516 1.449 0
M  V30 4107 O 385.311 -2.18594 0.66551 0
M  V30 4108 C 385.521 -0.00440283 3.49 0
M  V30 4109 C 386.869 -0.175147 4.24239 0
M  V30 4110 O 387.893 -0.0792891 3.56112 0
M  V30 4111 O 386.752 -0.37276 5.45227 0
M  V30 4112 H 383.846 -0.0918236 0.821887 0
M  V30 4113 H 386.392 0.570307 1.5983 0
M  V30 4114 H 385.164 0.997402 3.78375 0
M  V30 4115 H 384.787 -0.712845 3.91158 0
M  V30 4116 N 385.784 -1.5574 0.241426 0
M  V30 4117 C 387.033 -1.97986 -0.385295 0
M  V30 4118 C 387.346 -1.13267 -1.59468 0
M  V30 4119 O 388.552 -1.45501 -2.2922 0
M  V30 4120 C 387.008 -3.52275 -0.736884 0
M  V30 4121 C 386.616 -4.45726 0.450796 0
M  V30 4122 C 388.36 -4.03189 -1.3281 0
M  V30 4123 C 386.267 -5.91352 0.0756662 0
M  V30 4124 H 385.197 -0.739386 -0.147731 0
M  V30 4125 H 387.848 -1.80308 0.340779 0
M  V30 4126 H 386.23 -3.65628 -1.52094 0
M  V30 4127 H 387.404 -4.44131 1.22819 0
M  V30 4128 H 385.719 -4.05264 0.956573 0
M  V30 4129 H 388.316 -5.09505 -1.62201 0
M  V30 4130 H 388.659 -3.50212 -2.25071 0
M  V30 4131 H 389.192 -3.93141 -0.607069 0
M  V30 4132 H 385.931 -6.48354 0.965272 0
M  V30 4133 H 385.451 -5.96095 -0.665635 0
M  V30 4134 H 387.13 -6.46084 -0.344075 0
M  V30 4135 N 387.262 0.0317525 -1.57568 0
M  V30 4136 C 388.678 0.38735 -1.54828 0
M  V30 4137 C 388.878 1.7677 -0.967187 0
M  V30 4138 O 387.934 2.45581 -0.587063 0
M  V30 4139 C 389.247 0.291667 -2.99282 0
M  V30 4140 C 390.795 0.368946 -3.10818 0
M  V30 4141 C 391.27 0.302741 -4.56998 0
M  V30 4142 N 392.761 0.361617 -4.61786 0
M  V30 4143 C 393.496 0.333238 -5.72431 0
M  V30 4144 N 392.992 0.257308 -6.92322 0
M  V30 4145 N 394.785 0.382769 -5.60795 0
M  V30 4146 H 386.936 -0.871609 -1.93692 0
M  V30 4147 H 389.199 -0.331161 -0.888277 0
M  V30 4148 H 388.905 -0.656794 -3.45513 0
M  V30 4149 H 388.779 1.08638 -3.61217 0
M  V30 4150 H 391.166 1.30784 -2.64536 0
M  V30 4151 H 391.247 -0.455066 -2.5172 0
M  V30 4152 H 390.891 -0.632473 -5.03947 0
M  V30 4153 H 390.821 1.14482 -5.14005 0
M  V30 4154 H 393.312 0.422923 -3.75526 0
M  V30 4155 H 393.625 0.24068 -7.72425 0
M  V30 4156 H 391.97 0.223396 -6.94641 0
M  V30 4157 H 395.161 0.44006 -4.66027 0
M  V30 4158 H 395.334 0.357184 -6.47015 0
M  V30 4159 N 388.74 1.54641 0.303973 0
M  V30 4160 C 389.703 1.84646 1.35789 0
M  V30 4161 C 390.703 0.7192 1.4382 0
M  V30 4162 O 391.893 0.987491 1.43507 0
M  V30 4163 C 389.025 2.02407 2.74307 0
M  V30 4164 H 390.218 2.78829 1.10429 0
M  V30 4165 H 387.771 1.46658 0.540487 0
M  V30 4166 H 388.506 1.10502 3.04893 0
M  V30 4167 H 388.291 2.84453 2.69868 0
M  V30 4168 H 389.781 2.27002 3.50514 0
M  V30 4169 N 390.218 -0.567019 1.47046 0
M  V30 4170 C 391.181 -1.65696 1.58359 0
M  V30 4171 C 392.181 -1.54097 0.459441 0
M  V30 4172 O 393.371 -1.58432 0.724225 0
M  V30 4173 C 390.503 -3.05197 1.51879 0
M  V30 4174 H 391.696 -1.57019 2.5551 0
M  V30 4175 H 389.249 -0.786148 1.3509 0
M  V30 4176 H 389.984 -3.19417 0.560673 0
M  V30 4177 H 389.769 -3.15025 2.33455 0
M  V30 4178 H 391.259 -3.84511 1.62913 0
M  V30 4179 N 391.696 -1.35014 -0.812953 0
M  V30 4180 C 392.643 -1.27412 -1.92444 0
M  V30 4181 C 393.613 -0.14733 -1.65445 0
M  V30 4182 O 394.798 -0.329974 -1.87925 0
M  V30 4183 C 391.938 -1.04558 -3.28879 0
M  V30 4184 C 391.051 -2.26101 -3.68106 0
M  V30 4185 C 390.186 -1.96449 -4.9354 0
M  V30 4186 C 389.225 -3.14081 -5.25376 0
M  V30 4187 N 388.362 -2.84246 -6.41988 0
M  V30 4188 H 393.202 -2.22463 -1.98278 0
M  V30 4189 H 390.739 -1.10593 -0.969933 0
M  V30 4190 H 392.697 -0.893413 -4.07522 0
M  V30 4191 H 391.327 -0.131719 -3.22531 0
M  V30 4192 H 390.379 -2.52204 -2.84775 0
M  V30 4193 H 391.691 -3.13959 -3.87597 0
M  V30 4194 H 390.845 -1.78026 -5.79993 0
M  V30 4195 H 389.584 -1.05867 -4.76071 0
M  V30 4196 H 388.589 -3.33089 -4.37415 0
M  V30 4197 H 389.814 -4.05455 -5.44778 0
M  V30 4198 H 387.76 -1.96252 -6.25956 0
M  V30 4199 H 387.677 -3.65637 -6.61699 0
M  V30 4200 H 388.945 -2.6935 -7.31485 0
M  V30 4201 N 393.175 1.03435 -1.18907 0
M  V30 4202 C 394.123 2.13703 -0.918353 0
M  V30 4203 C 395.117 1.68947 0.123767 0
M  V30 4204 O 396.323 1.79983 -0.0249701 0
M  V30 4205 H 392.698 0.698112 -0.279542 0
M  V30 4206 H 394.669 2.33731 -1.85506 0
M  V30 4207 C 393.418 3.44542 -0.467532 0
M  V30 4208 H 392.741 3.79394 -1.26095 0
M  V30 4209 H 394.181 4.22812 -0.317164 0
M  V30 4210 C 392.64 3.26829 0.817588 0
M  V30 4211 O 393.17 3.54975 1.88031 0
M  V30 4212 N 391.376 2.80139 0.772677 0
M  V30 4213 H 390.923 2.57434 -0.0923883 0
M  V30 4214 H 390.881 2.68668 1.63294 0
M  V30 4215 N 394.653 0.992116 1.22453 0
M  V30 4216 C 395.616 0.546883 2.2258 0
M  V30 4217 C 396.616 -0.369829 1.56489 0
M  V30 4218 O 397.806 -0.161896 1.73446 0
M  V30 4219 C 394.938 -0.204659 3.40285 0
M  V30 4220 H 396.131 1.43234 2.63484 0
M  V30 4221 H 393.684 0.779239 1.3549 0
M  V30 4222 H 394.419 -1.10614 3.04853 0
M  V30 4223 H 394.204 0.45354 3.89468 0
M  V30 4224 H 395.694 -0.504358 4.14543 0
M  V30 4225 N 396.131 -1.37776 0.765217 0
M  V30 4226 C 397.094 -2.28686 0.153416 0
M  V30 4227 C 398.094 -1.47727 -0.635081 0
M  V30 4228 O 399.284 -1.68027 -0.459632 0
M  V30 4229 C 396.416 -3.31608 -0.790495 0
M  V30 4230 H 397.609 -2.84297 0.954723 0
M  V30 4231 H 395.162 -1.46932 0.53299 0
M  V30 4232 H 395.897 -2.81109 -1.61705 0
M  V30 4233 H 395.682 -3.9144 -0.227348 0
M  V30 4234 H 397.172 -3.99559 -1.21419 0
M  V30 4235 N 397.609 -0.515225 -1.4894 0
M  V30 4236 C 398.856 0.024215 -2.02486 0
M  V30 4237 C 399.184 1.35671 -1.39368 0
M  V30 4238 O 398.439 1.88566 -0.523574 0
M  V30 4239 C 398.738 0.210595 -3.56779 0
M  V30 4240 C 398.404 -1.04569 -4.38607 0
M  V30 4241 C 397.066 -1.39002 -4.60686 0
M  V30 4242 C 399.418 -1.88008 -4.86109 0
M  V30 4243 C 396.746 -2.568 -5.27514 0
M  V30 4244 C 399.098 -3.04972 -5.54234 0
M  V30 4245 C 397.762 -3.39768 -5.74555 0
M  V30 4246 H 397.032 0.00886088 -0.740947 0
M  V30 4247 H 399.679 -0.678263 -1.79086 0
M  V30 4248 H 397.984 0.99572 -3.78936 0
M  V30 4249 H 399.681 0.642659 -3.95817 0
M  V30 4250 H 396.271 -0.767497 -4.21672 0
M  V30 4251 H 400.455 -1.62719 -4.68867 0
M  V30 4252 H 395.711 -2.8398 -5.41447 0
M  V30 4253 H 399.885 -3.69943 -5.90013 0
M  V30 4254 H 397.512 -4.31148 -6.26112 0
M  V30 4255 N 399.087 1.5561 -0.249682 0
M  V30 4256 C 400.035 2.22894 0.664906 0
M  V30 4257 C 401.029 1.21743 1.17792 0
M  V30 4258 O 402.235 1.39748 1.13449 0
M  V30 4259 H 398.61 0.715022 0.232912 0
M  V30 4260 H 400.581 2.98307 0.0742998 0
M  V30 4261 C 399.33 2.94424 1.84959 0
M  V30 4262 H 398.653 3.72031 1.46399 0
M  V30 4263 H 400.093 3.44862 2.4667 0
M  V30 4264 C 398.552 1.98454 2.72245 0
M  V30 4265 O 399.082 1.51939 3.71857 0
M  V30 4266 N 397.288 1.65496 2.38871 0
M  V30 4267 H 396.835 2.03517 1.57919 0
M  V30 4268 H 396.793 1.0155 2.97548 0
M  V30 4269 N 400.565 -0.0233959 1.57583 0
M  V30 4270 C 401.528 -1.00693 2.05897 0
M  V30 4271 C 402.528 -1.28693 0.964092 0
M  V30 4272 O 403.718 -1.23602 1.22753 0
M  V30 4273 C 400.85 -2.33825 2.4807 0
M  V30 4274 H 402.043 -0.589476 2.9405 0
M  V30 4275 H 399.596 -0.270354 1.53944 0
M  V30 4276 H 400.331 -2.80307 1.6309 0
M  V30 4277 H 400.116 -2.1483 3.2801 0
M  V30 4278 H 401.606 -3.04426 2.85857 0
M  V30 4279 N 402.043 -1.548 -0.295768 0
M  V30 4280 C 402.973 -1.89115 -1.36959 0
M  V30 4281 C 403.954 -0.75059 -1.52644 0
M  V30 4282 O 405.139 -1.00678 -1.66065 0
M  V30 4283 C 402.269 -2.14307 -2.73295 0
M  V30 4284 C 401.223 -3.30151 -2.72368 0
M  V30 4285 C 400.549 -3.40772 -4.12042 0
M  V30 4286 C 401.849 -4.67126 -2.33646 0
M  V30 4287 H 403.543 -2.79053 -1.08488 0
M  V30 4288 H 401.089 -1.34266 -0.520443 0
M  V30 4289 H 403.042 -2.36898 -3.48507 0
M  V30 4290 H 401.766 -1.21145 -3.03301 0
M  V30 4291 H 400.425 -3.0749 -1.99613 0
M  V30 4292 H 400.073 -2.45117 -4.39234 0
M  V30 4293 H 399.773 -4.18645 -4.12322 0
M  V30 4294 H 401.297 -3.6563 -4.89027 0
M  V30 4295 H 402.711 -4.89414 -2.98575 0
M  V30 4296 H 401.108 -5.47751 -2.45129 0
M  V30 4297 H 402.178 -4.67489 -1.28772 0
M  V30 4298 N 403.521 0.559213 -1.47345 0
M  V30 4299 C 404.468 1.66645 -1.59682 0
M  V30 4300 C 405.438 1.60168 -0.43994 0
M  V30 4301 O 406.623 1.79031 -0.659736 0
M  V30 4302 C 403.763 3.04969 -1.61518 0
M  V30 4303 C 402.876 3.21897 -2.88108 0
M  V30 4304 C 402.011 4.50608 -2.81294 0
M  V30 4305 C 401.05 4.60961 -4.02717 0
M  V30 4306 N 400.187 5.81024 -3.94151 0
M  V30 4307 H 405.027 1.55439 -2.54249 0
M  V30 4308 H 402.564 0.757219 -1.26113 0
M  V30 4309 H 404.522 3.85064 -1.60566 0
M  V30 4310 H 403.152 3.15015 -0.704645 0
M  V30 4311 H 402.204 2.35248 -2.98936 0
M  V30 4312 H 403.516 3.25412 -3.78032 0
M  V30 4313 H 402.67 5.3896 -2.7858 0
M  V30 4314 H 401.409 4.49568 -1.89049 0
M  V30 4315 H 400.414 3.71021 -4.05738 0
M  V30 4316 H 401.639 4.63761 -4.96087 0
M  V30 4317 H 399.585 5.80938 -3.04708 0
M  V30 4318 H 399.502 5.85909 -4.77752 0
M  V30 4319 H 400.77 6.71744 -3.9545 0
M  V30 4320 N 404.999 1.35443 0.805782 0
M  V30 4321 C 406.248 1.28097 1.55801 0
M  V30 4322 C 406.561 -0.142428 1.95081 0
M  V30 4323 O 407.767 -0.33817 2.69386 0
M  V30 4324 C 406.223 2.24653 2.81174 0
M  V30 4325 C 405.831 3.72342 2.49129 0
M  V30 4326 C 407.575 2.2625 3.59181 0
M  V30 4327 C 405.482 4.60719 3.70799 0
M  V30 4328 H 404.412 0.475937 0.584808 0
M  V30 4329 H 407.063 1.60712 0.885661 0
M  V30 4330 H 405.445 1.85011 3.50124 0
M  V30 4331 H 406.619 4.20624 1.88181 0
M  V30 4332 H 404.934 3.73361 1.84366 0
M  V30 4333 H 407.531 2.89495 4.49552 0
M  V30 4334 H 407.874 1.26647 3.96568 0
M  V30 4335 H 408.407 2.64426 2.97193 0
M  V30 4336 H 405.146 5.61324 3.3852 0
M  V30 4337 H 404.666 4.17163 4.3097 0
M  V30 4338 H 406.345 4.76182 4.38018 0
M  V30 4339 N 406.477 -1.02803 1.19454 0
M  V30 4340 C 407.707 -1.79581 1.02149 0
M  V30 4341 C 408.115 -1.84182 -0.432851 0
M  V30 4342 O 407.458 -1.28534 -1.31243 0
M  V30 4343 C 407.52 -3.25993 1.51554 0
M  V30 4344 C 407.184 -3.45025 2.99678 0
M  V30 4345 C 408.181 -3.35175 3.97434 0
M  V30 4346 C 405.866 -3.71212 3.38389 0
M  V30 4347 C 407.86 -3.51238 5.31893 0
M  V30 4348 C 405.547 -3.8692 4.73008 0
M  V30 4349 C 406.545 -3.76936 5.69569 0
M  V30 4350 O 406.233 -3.92179 7.01748 0
M  V30 4351 H 405.965 -0.571962 0.360327 0
M  V30 4352 H 408.519 -1.30367 1.58725 0
M  V30 4353 H 406.749 -3.76235 0.893543 0
M  V30 4354 H 408.438 -3.84368 1.30444 0
M  V30 4355 H 409.204 -3.14895 3.68872 0
M  V30 4356 H 405.083 -3.78075 2.6378 0
M  V30 4357 H 408.627 -3.43362 6.07247 0
M  V30 4358 H 404.524 -4.06699 5.01265 0
M  V30 4359 H 405.292 -4.09265 7.08833 0
M  V30 4360 N 407.956 -0.998596 -1.21925 0
M  V30 4361 C 409.233 -0.593401 -1.86382 0
M  V30 4362 C 409.613 0.92916 -1.89552 0
M  V30 4363 O 408.961 1.81347 -1.39017 0
M  V30 4364 C 409.171 -1.22039 -3.26967 0
M  V30 4365 C 410.519 -1.32449 -4.03413 0
M  V30 4366 O 411.543 -1.17522 -3.36254 0
M  V30 4367 O 410.402 -1.56395 -5.23644 0
M  V30 4368 H 407.496 -0.202385 -0.801854 0
M  V30 4369 H 410.042 -1.09484 -1.29659 0
M  V30 4370 H 408.814 -2.26158 -3.19325 0
M  V30 4371 H 408.437 -0.704906 -3.91301 0
M  V30 4372 N 409.434 1.37368 -0.772513 0
M  V30 4373 C 410.344 2.34053 -0.160081 0
M  V30 4374 C 411.36 1.60216 0.678728 0
M  V30 4375 O 412.536 1.92303 0.59847 0
M  V30 4376 C 409.601 3.3939 0.708182 0
M  V30 4377 C 408.662 4.29048 -0.147172 0
M  V30 4378 C 407.895 5.29354 0.679744 0
M  V30 4379 O 408.118 5.3723 1.91678 0
M  V30 4380 O 407.052 6.01835 0.0885444 0
M  V30 4381 H 410.878 2.88159 -0.959053 0
M  V30 4382 H 408.463 1.39543 -0.533685 0
M  V30 4383 H 410.345 4.03839 1.20384 0
M  V30 4384 H 409.02 2.8761 1.48533 0
M  V30 4385 H 407.927 3.67697 -0.689205 0
M  V30 4386 H 409.26 4.84134 -0.887423 0
M  V30 4387 N 410.912 0.523116 1.48665 0
M  V30 4388 C 411.875 -0.232592 2.28017 0
M  V30 4389 C 412.875 -0.874021 1.34972 0
M  V30 4390 O 414.065 -0.735132 1.57929 0
M  V30 4391 C 411.197 -1.33586 3.13636 0
M  V30 4392 H 412.39 0.464008 2.96289 0
M  V30 4393 H 409.943 0.278816 1.53793 0
M  V30 4394 H 410.678 -2.06593 2.4998 0
M  V30 4395 H 410.463 -0.881125 3.82071 0
M  V30 4396 H 411.953 -1.86759 3.73511 0
M  V30 4397 N 412.39 -1.55475 0.257931 0
M  V30 4398 C 413.3 -2.2549 -0.647425 0
M  V30 4399 C 414.316 -1.2748 -1.18427 0
M  V30 4400 O 415.492 -1.6038 -1.2182 0
M  V30 4401 C 412.557 -2.94916 -1.82278 0
M  V30 4402 C 411.618 -4.08363 -1.32432 0
M  V30 4403 C 410.851 -4.74469 -2.44366 0
M  V30 4404 O 411.074 -4.39701 -3.63344 0
M  V30 4405 O 410.008 -5.62763 -2.13497 0
M  V30 4406 H 413.834 -3.03593 -0.0807707 0
M  V30 4407 H 411.419 -1.49377 0.0259962 0
M  V30 4408 H 413.301 -3.38606 -2.50846 0
M  V30 4409 H 411.976 -2.19744 -2.37685 0
M  V30 4410 H 410.883 -3.69166 -0.605605 0
M  V30 4411 H 412.216 -4.85385 -0.816211 0
M  V30 4412 N 413.868 0.0150385 -1.57593 0
M  V30 4413 C 415.114 0.704043 -1.90187 0
M  V30 4414 C 415.447 1.74249 -0.857366 0
M  V30 4415 O 414.722 1.94092 0.125843 0
M  V30 4416 C 415.005 1.36087 -3.33395 0
M  V30 4417 C 414.858 0.334981 -4.48551 0
M  V30 4418 C 416.177 2.29112 -3.7576 0
M  V30 4419 H 413.296 0.254475 -0.691673 0
M  V30 4420 H 415.938 -0.0331678 -1.89971 0
M  V30 4421 H 414.088 1.98922 -3.3371 0
M  V30 4422 H 415.76 -0.292534 -4.60372 0
M  V30 4423 H 414.003 -0.344325 -4.32431 0
M  V30 4424 H 414.674 0.833316 -5.45674 0
M  V30 4425 H 417.15 1.76308 -3.76902 0
M  V30 4426 H 416.026 2.72043 -4.76743 0
M  V30 4427 H 416.287 3.16385 -3.08793 0
M  V30 4428 N 415.346 1.54954 0.287554 0
M  V30 4429 C 416.294 1.87606 1.37502 0
M  V30 4430 C 417.288 0.751001 1.51843 0
M  V30 4431 O 418.494 0.935169 1.53801 0
M  V30 4432 H 414.869 0.595231 0.459569 0
M  V30 4433 H 416.84 2.78477 1.07206 0
M  V30 4434 C 415.589 2.15183 2.73115 0
M  V30 4435 H 414.912 3.01234 2.62866 0
M  V30 4436 H 416.352 2.4196 3.48183 0
M  V30 4437 C 414.811 0.954686 3.2309 0
M  V30 4438 O 415.341 0.181949 4.01288 0
M  V30 4439 N 413.547 0.756368 2.80584 0
M  V30 4440 H 413.094 1.38643 2.17108 0
M  V30 4441 H 413.052 -0.0430391 3.14371 0
M  V30 4442 N 416.824 -0.551391 1.4764 0
M  V30 4443 C 417.771 -1.65796 1.60563 0
M  V30 4444 C 418.741 -1.59932 0.448428 0
M  V30 4445 O 419.926 -1.78679 0.669222 0
M  V30 4446 C 417.066 -3.04108 1.63133 0
M  V30 4447 C 416.179 -3.20365 2.89811 0
M  V30 4448 C 415.314 -4.49109 2.8368 0
M  V30 4449 C 414.353 -4.58819 4.05156 0
M  V30 4450 N 413.49 -5.78926 3.97227 0
M  V30 4451 H 418.33 -1.54088 2.5507 0
M  V30 4452 H 415.867 -0.75052 1.26513 0
M  V30 4453 H 417.825 -3.84207 1.62606 0
M  V30 4454 H 416.455 -3.14637 0.721341 0
M  V30 4455 H 415.507 -2.33659 3.00179 0
M  V30 4456 H 416.819 -3.23402 3.79753 0
M  V30 4457 H 415.973 -5.37475 2.81434 0
M  V30 4458 H 414.712 -4.4856 1.91431 0
M  V30 4459 H 413.717 -3.68864 4.077 0
M  V30 4460 H 414.942 -4.61124 4.98539 0
M  V30 4461 H 412.888 -5.79314 3.07785 0
M  V30 4462 H 412.805 -5.83367 4.80853 0
M  V30 4463 H 414.073 -6.69637 3.99007 0
M  V30 4464 N 418.302 -1.35869 -0.798587 0
M  V30 4465 C 419.532 -1.32529 -1.58491 0
M  V30 4466 C 419.94 0.0975405 -1.88948 0
M  V30 4467 O 419.283 1.06224 -1.49874 0
M  V30 4468 C 419.345 -2.07247 -2.9375 0
M  V30 4469 C 419.009 -3.56391 -2.86068 0
M  V30 4470 C 420.006 -4.50824 -2.58947 0
M  V30 4471 C 417.691 -3.9915 -3.04933 0
M  V30 4472 C 419.685 -5.85993 -2.5078 0
M  V30 4473 C 417.372 -5.34413 -2.96389 0
M  V30 4474 C 418.37 -6.27646 -2.69349 0
M  V30 4475 O 418.058 -7.60426 -2.60782 0
M  V30 4476 H 417.79 -0.456529 -0.498556 0
M  V30 4477 H 420.344 -1.79425 -0.999799 0
M  V30 4478 H 418.574 -1.55001 -3.54276 0
M  V30 4479 H 420.263 -1.96883 -3.54954 0
M  V30 4480 H 421.029 -4.19104 -2.44084 0
M  V30 4481 H 416.908 -3.26961 -3.24989 0
M  V30 4482 H 420.452 -6.58735 -2.29595 0
M  V30 4483 H 416.349 -5.65743 -3.10813 0
M  V30 4484 H 417.117 -7.70444 -2.76331 0
M  V30 4485 N 419.78 1.02168 -1.19998 0
M  V30 4486 C 421.027 1.75685 -1.00702 0
M  V30 4487 C 421.355 1.88947 0.461426 0
M  V30 4488 O 420.61 1.40832 1.35885 0
M  V30 4489 C 420.909 3.18081 -1.62969 0
M  V30 4490 C 420.575 3.24809 -3.12746 0
M  V30 4491 C 419.237 3.26352 -3.53621 0
M  V30 4492 C 421.589 3.23379 -4.08749 0
M  V30 4493 C 418.917 3.2413 -4.89036 0
M  V30 4494 C 421.269 3.22698 -5.44104 0
M  V30 4495 C 419.933 3.22542 -5.84399 0
M  V30 4496 H 419.203 0.642877 -0.368496 0
M  V30 4497 H 421.85 1.19865 -1.49348 0
M  V30 4498 H 420.155 3.77027 -1.06573 0
M  V30 4499 H 421.852 3.73648 -1.45561 0
M  V30 4500 H 418.442 3.2434 -2.80181 0
M  V30 4501 H 422.626 3.21361 -3.78207 0
M  V30 4502 H 417.882 3.22338 -5.19527 0
M  V30 4503 H 422.056 3.20543 -6.18244 0
M  V30 4504 H 419.683 3.20575 -6.89301 0
M  V30 4505 N 421.258 1.00505 1.21394 0
M  V30 4506 C 422.504 0.688793 1.90745 0
M  V30 4507 C 422.837 -0.778486 1.77914 0
M  V30 4508 O 422.112 -1.56433 1.15581 0
M  V30 4509 C 422.395 1.11063 3.42545 0
M  V30 4510 C 422.248 2.63737 3.64367 0
M  V30 4511 C 423.567 0.673059 4.34923 0
M  V30 4512 H 420.686 0.251702 0.692687 0
M  V30 4513 H 423.328 1.25074 1.43026 0
M  V30 4514 H 421.478 0.632508 3.83317 0
M  V30 4515 H 423.15 3.19313 3.32922 0
M  V30 4516 H 421.393 3.05248 3.08231 0
M  V30 4517 H 422.064 2.88305 4.70727 0
M  V30 4518 H 424.54 1.08392 4.01734 0
M  V30 4519 H 423.416 0.996383 5.39781 0
M  V30 4520 H 423.677 -0.425808 4.40045 0
M  V30 4521 N 422.737 -1.36956 0.779787 0
M  V30 4522 C 424.153 -1.52817 0.460342 0
M  V30 4523 C 424.353 -1.7361 -1.02283 0
M  V30 4524 O 423.409 -1.76207 -1.80852 0
M  V30 4525 C 424.722 -2.71983 1.28241 0
M  V30 4526 C 426.27 -2.85849 1.27512 0
M  V30 4527 C 426.745 -4.08008 2.08072 0
M  V30 4528 N 428.236 -4.15135 2.05467 0
M  V30 4529 C 428.971 -5.08711 2.64577 0
M  V30 4530 N 428.467 -6.07792 3.32506 0
M  V30 4531 N 430.26 -5.01254 2.54363 0
M  V30 4532 H 422.411 -1.21713 1.74068 0
M  V30 4533 H 424.674 -0.593294 0.739396 0
M  V30 4534 H 424.38 -2.63109 2.33381 0
M  V30 4535 H 424.254 -3.65882 0.917088 0
M  V30 4536 H 426.641 -2.94189 0.231686 0
M  V30 4537 H 426.722 -1.92886 1.68014 0
M  V30 4538 H 426.366 -4.00429 3.12441 0
M  V30 4539 H 426.296 -5.001 1.64947 0
M  V30 4540 H 428.787 -3.44189 1.5602 0
M  V30 4541 H 429.1 -6.75739 3.74963 0
M  V30 4542 H 427.445 -6.08047 3.36606 0
M  V30 4543 H 430.636 -4.22795 2.00902 0
M  V30 4544 H 430.809 -5.73995 3.00722 0
M  V30 4545 N 424.215 -0.530993 -1.48385 0
M  V30 4546 C 425.178 0.220497 -2.28137 0
M  V30 4547 C 426.178 0.866851 -1.35434 0
M  V30 4548 O 427.368 0.726746 -1.58316 0
M  V30 4549 C 424.5 1.31921 -3.1434 0
M  V30 4550 H 425.693 -0.479714 -2.96038 0
M  V30 4551 H 423.246 -0.286968 -1.53643 0
M  V30 4552 H 423.981 2.05264 -2.51072 0
M  V30 4553 H 423.766 0.86085 -3.82533 0
M  V30 4554 H 425.256 1.84776 -3.74497 0
M  V30 4555 N 425.693 1.55336 -0.266172 0
M  V30 4556 C 426.625 2.19544 0.658247 0
M  V30 4557 C 427.638 1.17746 1.12427 0
M  V30 4558 O 428.827 1.44517 1.04772 0
M  V30 4559 C 425.927 2.80032 1.9088 0
M  V30 4560 C 425.1 4.07436 1.59106 0
M  V30 4561 C 424.159 4.52056 2.69317 0
M  V30 4562 O 423.185 5.18023 2.35883 0
M  V30 4563 N 424.387 4.21448 3.99201 0
M  V30 4564 H 427.152 2.99503 0.108754 0
M  V30 4565 H 424.713 1.61667 -0.0869059 0
M  V30 4566 H 426.705 3.06831 2.63888 0
M  V30 4567 H 425.275 2.04119 2.36758 0
M  V30 4568 H 424.495 3.88021 0.695243 0
M  V30 4569 H 425.783 4.90462 1.35367 0
M  V30 4570 H 425.181 3.68528 4.29189 0
M  V30 4571 H 423.738 4.53039 4.68614 0
M  V30 4572 N 427.171 -0.0066808 1.57599 0
M  V30 4573 C 428.401 -0.703066 1.94269 0
M  V30 4574 C 428.809 -1.68206 0.866222 0
M  V30 4575 O 428.152 -1.82966 -0.164087 0
M  V30 4576 C 428.214 -1.49616 3.26887 0
M  V30 4577 C 427.878 -0.679494 4.5192 0
M  V30 4578 C 428.875 0.0299508 5.19891 0
M  V30 4579 C 426.56 -0.627433 4.98366 0
M  V30 4580 C 428.554 0.780514 6.32603 0
M  V30 4581 C 426.241 0.126861 6.10968 0
M  V30 4582 C 427.239 0.829574 6.77943 0
M  V30 4583 O 426.927 1.57157 7.88389 0
M  V30 4584 H 426.659 -0.201217 0.645359 0
M  V30 4585 H 429.213 0.0385326 2.05364 0
M  V30 4586 H 427.443 -2.28209 3.12182 0
M  V30 4587 H 429.132 -2.07726 3.48719 0
M  V30 4588 H 429.898 -0.00115963 4.85 0
M  V30 4589 H 425.777 -1.16392 4.46065 0
M  V30 4590 H 429.321 1.32954 6.84813 0
M  V30 4591 H 425.218 0.159815 6.45302 0
M  V30 4592 H 425.986 1.48758 8.04868 0
M  V30 4593 N 428.649 -1.55105 -0.279332 0
M  V30 4594 C 429.897 -1.75066 -1.00977 0
M  V30 4595 C 430.218 -0.551276 -1.87045 0
M  V30 4596 O 429.488 0.433984 -1.91032 0
M  V30 4597 H 428.068 -0.645578 -0.375816 0
M  V30 4598 H 430.73 -1.92497 -0.305089 0
M  V30 4599 H 429.826 -2.64894 -1.65038 0
M  V30 4600 N 430.127 0.543554 -1.4793 0
M  V30 4601 C 431.09 1.63156 -1.60975 0
M  V30 4602 C 432.09 1.53346 -0.483899 0
M  V30 4603 O 433.28 1.5726 -0.749339 0
M  V30 4604 C 430.412 3.02743 -1.56716 0
M  V30 4605 H 431.605 1.52934 -2.57975 0
M  V30 4606 H 429.158 0.764557 -1.36324 0
M  V30 4607 H 429.893 3.18484 -0.611418 0
M  V30 4608 H 429.678 3.11272 -2.38438 0
M  V30 4609 H 431.168 3.81871 -1.6901 0
M  V30 4610 N 431.605 1.3629 0.791371 0
M  V30 4611 C 432.853 1.30154 1.5461 0
M  V30 4612 C 433.174 -0.119409 1.94634 0
M  V30 4613 O 432.444 -1.05924 1.64794 0
M  V30 4614 H 431.024 0.478784 0.573389 0
M  V30 4615 H 433.686 1.70565 0.94306 0
M  V30 4616 H 432.782 1.92762 2.45457 0
M  V30 4617 N 433.083 -1.0153 1.20538 0
M  V30 4618 C 434.36 -1.72327 0.925343 0
M  V30 4619 C 434.74 -2.03383 -0.565547 0
M  V30 4620 O 434.088 -1.69934 -1.52757 0
M  V30 4621 C 434.298 -2.9902 1.79967 0
M  V30 4622 C 435.646 -3.72258 2.04228 0
M  V30 4623 O 436.67 -3.08979 1.77231 0
M  V30 4624 O 435.529 -4.86053 2.4983 0
M  V30 4625 H 432.623 -0.751099 0.346092 0
M  V30 4626 H 435.169 -1.07366 1.31417 0
M  V30 4627 H 433.941 -2.72402 2.80915 0
M  V30 4628 H 433.564 -3.71721 1.41099 0
M  V30 4629 N 434.561 -1.01147 -1.20859 0
M  V30 4630 C 435.786 -0.716698 -1.94623 0
M  V30 4631 C 436.211 0.715415 -1.73964 0
M  V30 4632 O 435.569 1.49157 -1.03062 0
M  V30 4633 C 435.617 -1.0513 -3.44935 0
M  V30 4634 O 434.721 -0.160131 -4.12089 0
M  V30 4635 H 434.062 -0.266404 -0.608214 0
M  V30 4636 H 436.592 -1.35346 -1.53436 0
M  V30 4637 H 436.602 -1.00086 -3.95533 0
M  V30 4638 H 435.277 -2.09475 -3.59295 0
M  V30 4639 H 433.854 -0.267657 -3.71938 0
M  V30 4640 N 436.039 1.36541 -0.78704 0
M  V30 4641 C 437.002 2.28413 -0.189778 0
M  V30 4642 C 438.002 1.48719 0.611499 0
M  V30 4643 O 439.192 1.68737 0.432842 0
M  V30 4644 C 436.324 3.32824 0.737638 0
M  V30 4645 H 437.517 2.82743 -0.999831 0
M  V30 4646 H 435.07 1.46065 -0.556298 0
M  V30 4647 H 435.805 2.83646 1.57212 0
M  V30 4648 H 435.59 3.91752 0.165044 0
M  V30 4649 H 437.08 4.0144 1.15047 0
M  V30 4650 N 437.518 0.538854 1.48102 0
M  V30 4651 C 438.795 -0.0568108 1.95517 0
M  V30 4652 C 439.175 -1.50408 1.48124 0
M  V30 4653 O 438.523 -2.17133 0.711727 0
M  V30 4654 C 438.733 0.0696262 3.48931 0
M  V30 4655 C 440.081 -0.0851202 4.24515 0
M  V30 4656 O 441.105 -0.0037347 3.562 0
M  V30 4657 O 439.964 -0.257025 5.45895 0
M  V30 4658 H 437.058 -0.0743695 0.823649 0
M  V30 4659 H 439.604 0.604081 1.58584 0
M  V30 4660 H 438.376 1.07744 3.76174 0
M  V30 4661 H 437.999 -0.629714 3.92582 0
M  V30 4662 N 438.996 -1.55193 0.274407 0
M  V30 4663 C 440.243 -1.99581 -0.342579 0
M  V30 4664 C 440.571 -1.1628 -1.55914 0
M  V30 4665 O 439.826 -0.22029 -1.94456 0
M  V30 4666 C 440.125 -3.49019 -0.769458 0
M  V30 4667 C 439.791 -4.49598 0.342389 0
M  V30 4668 C 438.453 -4.76821 0.647686 0
M  V30 4669 C 440.805 -5.0964 1.09163 0
M  V30 4670 C 438.133 -5.61354 1.70581 0
M  V30 4671 C 440.485 -5.95323 2.13948 0
M  V30 4672 C 439.149 -6.20867 2.45113 0
M  V30 4673 H 438.419 -0.730319 -0.125358 0
M  V30 4674 H 441.066 -1.87529 0.387971 0
M  V30 4675 H 439.371 -3.58544 -1.57967 0
M  V30 4676 H 441.068 -3.8077 -1.25757 0
M  V30 4677 H 437.658 -4.28496 0.094318 0
M  V30 4678 H 441.842 -4.88632 0.869024 0
M  V30 4679 H 437.098 -5.79392 1.9523 0
M  V30 4680 H 441.272 -6.40881 2.72478 0
M  V30 4681 H 438.899 -6.86162 3.27239 0
M  V30 4682 N 440.474 -0.00167713 -1.576 0
M  V30 4683 C 441.421 0.989195 -2.08527 0
M  V30 4684 C 442.391 1.34031 -0.981065 0
M  V30 4685 O 443.576 1.43839 -1.2536 0
M  V30 4686 C 440.716 2.27537 -2.59463 0
M  V30 4687 C 439.829 1.98314 -3.83791 0
M  V30 4688 C 438.964 3.21025 -4.23222 0
M  V30 4689 C 438.003 2.87495 -5.40382 0
M  V30 4690 N 437.14 4.02749 -5.75098 0
M  V30 4691 H 441.98 0.547973 -2.92919 0
M  V30 4692 H 439.517 0.258917 -1.44803 0
M  V30 4693 H 441.475 3.02729 -2.87073 0
M  V30 4694 H 440.105 2.69325 -1.77943 0
M  V30 4695 H 439.157 1.13482 -3.63078 0
M  V30 4696 H 440.469 1.69601 -4.69081 0
M  V30 4697 H 439.623 4.04561 -4.52123 0
M  V30 4698 H 438.362 3.52877 -3.36644 0
M  V30 4699 H 437.367 2.02367 -5.11202 0
M  V30 4700 H 438.592 2.56889 -6.28637 0
M  V30 4701 H 436.538 4.34494 -4.91478 0
M  V30 4702 H 436.455 3.77566 -6.54966 0
M  V30 4703 H 437.723 4.87068 -6.08592 0
M  V30 4704 N 441.952 1.55251 0.271103 0
M  V30 4705 C 443.363 1.66635 0.842007 0
M  V30 4706 C 443.714 0.594631 1.86972 0
M  V30 4707 O 442.839 -0.263532 2.14789 0
M  V30 4708 C 443.434 3.02082 1.53401 0
M  V30 4709 C 441.993 3.15487 2.05293 0
M  V30 4710 C 441.14 2.62438 0.895631 0
M  V30 4711 H 444.091 1.58629 0.0474117 0
M  V30 4712 H 444.112 2.95176 2.40107 0
M  V30 4713 H 443.624 3.80062 0.785786 0
M  V30 4714 H 441.725 2.42284 2.83071 0
M  V30 4715 H 441.838 4.22075 2.26693 0
M  V30 4716 H 440.202 2.19644 1.28953 0
M  V30 4717 H 440.985 3.42923 0.160878 0
M  V30 4718 N 443.43 -0.535701 1.48216 0
M  V30 4719 C 444.66 -1.3148 1.59363 0
M  V30 4720 C 445.068 -1.8753 0.250844 0
M  V30 4721 O 444.411 -1.66821 -0.769174 0
M  V30 4722 C 444.473 -2.50731 2.57632 0
M  V30 4723 C 444.137 -2.15811 4.02833 0
M  V30 4724 C 445.134 -1.71822 4.90686 0
M  V30 4725 C 442.819 -2.26509 4.48329 0
M  V30 4726 C 444.813 -1.3899 6.22062 0
M  V30 4727 C 442.5 -1.93289 5.79726 0
M  V30 4728 C 443.498 -1.49599 6.66415 0
M  V30 4729 O 443.186 -1.16812 7.95368 0
M  V30 4730 H 442.918 -0.406315 0.540263 0
M  V30 4731 H 445.472 -0.653569 1.94725 0
M  V30 4732 H 443.702 -3.19817 2.1738 0
M  V30 4733 H 445.391 -3.12797 2.58675 0
M  V30 4734 H 446.157 -1.63031 4.56778 0
M  V30 4735 H 442.036 -2.59471 3.81045 0
M  V30 4736 H 445.58 -1.04816 6.89681 0
M  V30 4737 H 441.477 -2.01718 6.13172 0
M  V30 4738 H 442.245 -1.30259 8.08069 0
M  V30 4739 N 444.908 -1.36708 -0.784132 0
M  V30 4740 C 445.838 -1.34153 -1.91116 0
M  V30 4741 C 446.819 -0.212121 -1.68772 0
M  V30 4742 O 448.004 -0.410581 -1.8981 0
M  V30 4743 C 445.134 -1.13535 -3.28218 0
M  V30 4744 C 444.088 -2.23356 -3.65097 0
M  V30 4745 C 443.414 -1.87875 -5.00607 0
M  V30 4746 C 444.714 -3.65473 -3.73131 0
M  V30 4747 H 446.408 -2.28459 -1.93512 0
M  V30 4748 H 443.954 -1.09973 -0.929618 0
M  V30 4749 H 445.907 -1.10381 -4.06687 0
M  V30 4750 H 444.631 -0.156804 -3.26223 0
M  V30 4751 H 443.29 -2.25645 -2.88929 0
M  V30 4752 H 442.938 -0.885814 -4.95139 0
M  V30 4753 H 442.638 -2.61406 -5.26252 0
M  V30 4754 H 444.162 -1.86286 -5.81489 0
M  V30 4755 H 445.576 -3.65382 -4.41779 0
M  V30 4756 H 443.973 -4.37953 -4.10265 0
M  V30 4757 H 445.043 -3.99995 -2.74102 0
M  V30 4758 N 446.386 1.0089 -1.21074 0
M  V30 4759 C 447.296 2.13039 -0.982425 0
M  V30 4760 C 448.312 1.73881 0.0642161 0
M  V30 4761 O 449.488 2.01012 -0.12496 0
M  V30 4762 C 446.553 3.42377 -0.545803 0
M  V30 4763 C 445.614 3.95731 -1.6642 0
M  V30 4764 C 444.847 5.18896 -1.24832 0
M  V30 4765 O 445.07 5.70273 -0.120265 0
M  V30 4766 O 444.004 5.65597 -2.05873 0
M  V30 4767 H 447.83 2.35175 -1.92163 0
M  V30 4768 H 445.415 1.1142 -0.995285 0
M  V30 4769 H 447.297 4.20244 -0.311912 0
M  V30 4770 H 445.972 3.21639 0.364727 0
M  V30 4771 H 444.879 3.19108 -1.95246 0
M  V30 4772 H 446.212 4.20872 -2.55201 0
M  V30 4773 N 447.864 1.01787 1.20321 0
M  V30 4774 C 448.774 0.598898 2.26827 0
M  V30 4775 C 449.79 -0.36418 1.70146 0
M  V30 4776 O 450.966 -0.224812 2.00141 0
M  V30 4777 C 448.031 -0.0549769 3.46656 0
M  V30 4778 C 447.092 0.954205 4.18561 0
M  V30 4779 C 446.325 0.331439 5.3267 0
M  V30 4780 O 446.548 -0.86851 5.63749 0
M  V30 4781 O 445.482 1.0488 5.92692 0
M  V30 4782 H 449.308 1.48562 2.64883 0
M  V30 4783 H 446.893 0.787434 1.26964 0
M  V30 4784 H 448.775 -0.420102 4.19301 0
M  V30 4785 H 447.45 -0.915876 3.10473 0
M  V30 4786 H 446.357 1.37072 3.48083 0
M  V30 4787 H 447.69 1.78511 4.58688 0
M  V30 4788 N 449.342 -1.36122 0.79427 0
M  V30 4789 C 450.272 -2.32551 0.210328 0
M  V30 4790 C 451.253 -1.56884 -0.657386 0
M  V30 4791 O 452.438 -1.85014 -0.590207 0
M  V30 4792 C 449.568 -3.41128 -0.651819 0
M  V30 4793 C 448.522 -4.27842 0.116395 0
M  V30 4794 C 447.848 -5.2763 -0.86666 0
M  V30 4795 C 449.148 -5.05647 1.30837 0
M  V30 4796 H 450.842 -2.81636 1.01594 0
M  V30 4797 H 448.388 -1.35407 0.489981 0
M  V30 4798 H 450.341 -4.07581 -1.07031 0
M  V30 4799 H 449.065 -2.90622 -1.49019 0
M  V30 4800 H 447.724 -3.62952 0.515915 0
M  V30 4801 H 447.372 -4.73395 -1.70019 0
M  V30 4802 H 447.072 -5.86514 -0.35705 0
M  V30 4803 H 448.596 -5.96955 -1.28361 0
M  V30 4804 H 450.01 -5.65113 0.965393 0
M  V30 4805 H 448.407 -5.73967 1.75161 0
M  V30 4806 H 449.477 -4.37006 2.10128 0
M  V30 4807 N 450.82 -0.546701 -1.47814 0
M  V30 4808 C 452.097 0.0464413 -1.95545 0
M  V30 4809 C 452.477 1.4962 -1.48919 0
M  V30 4810 O 451.825 2.16752 -0.723232 0
M  V30 4811 C 452.035 -0.0881298 -3.48889 0
M  V30 4812 C 453.383 0.0626059 -4.24554 0
M  V30 4813 O 454.407 -0.0151555 -3.56197 0
M  V30 4814 O 453.266 0.228071 -5.46024 0
M  V30 4815 H 450.36 0.0700004 -0.824032 0
M  V30 4816 H 452.906 -0.612482 -1.58262 0
M  V30 4817 H 451.678 -1.09737 -3.75597 0
M  V30 4818 H 451.301 0.608886 -3.9291 0
M  V30 4819 N 452.299 1.55045 -0.282633 0
M  V30 4820 C 453.545 2.00056 0.332481 0
M  V30 4821 C 453.878 1.1708 1.54939 0
M  V30 4822 O 453.153 0.2427 1.9298 0
M  V30 4823 C 453.436 3.53086 0.70725 0
M  V30 4824 C 453.289 4.46813 -0.517521 0
M  V30 4825 C 454.608 4.12245 1.54084 0
M  V30 4826 H 451.727 0.727268 0.119373 0
M  V30 4827 H 454.369 1.85932 -0.391076 0
M  V30 4828 H 452.519 3.65253 1.32372 0
M  V30 4829 H 454.191 4.46579 -1.15607 0
M  V30 4830 H 452.434 4.18163 -1.1542 0
M  V30 4831 H 453.105 5.51595 -0.211426 0
M  V30 4832 H 455.581 4.03401 1.02013 0
M  V30 4833 H 454.457 5.19515 1.77186 0
M  V30 4834 H 454.718 3.62951 2.52427 0
M  V30 4835 N 453.777 0.010035 1.57597 0
M  V30 4836 C 455.188 -0.531426 1.78977 0
M  V30 4837 C 455.539 -1.73375 0.918454 0
M  V30 4838 O 454.664 -2.16047 0.123635 0
M  V30 4839 C 455.259 -0.97086 3.24592 0
M  V30 4840 C 453.818 -1.45756 3.47033 0
M  V30 4841 C 452.965 -0.413384 2.74201 0
M  V30 4842 H 455.916 0.236166 1.56933 0
M  V30 4843 H 455.937 -1.83633 3.33255 0
M  V30 4844 H 455.449 -0.0955893 3.87982 0
M  V30 4845 H 453.55 -2.35339 2.88871 0
M  V30 4846 H 453.663 -1.4781 4.55729 0
M  V30 4847 H 452.027 -0.877266 2.39115 0
M  V30 4848 H 452.81 0.453092 3.40297 0
M  V30 4849 N 455.255 -1.55392 -0.262866 0
M  V30 4850 C 456.218 -1.88181 -1.30846 0
M  V30 4851 C 457.218 -0.757079 -1.41862 0
M  V30 4852 O 458.408 -1.02519 -1.40838 0
M  V30 4853 C 455.54 -2.09609 -2.68844 0
M  V30 4854 H 456.733 -2.81659 -1.02997 0
M  V30 4855 H 454.286 -1.48039 -0.501414 0
M  V30 4856 H 455.021 -1.18547 -3.01856 0
M  V30 4857 H 454.806 -2.91508 -2.62231 0
M  V30 4858 H 456.296 -2.36215 -3.44372 0
M  V30 4859 N 456.733 0.527833 -1.48498 0
M  V30 4860 C 458.01 1.28905 -1.47115 0
M  V30 4861 C 458.39 2.10297 -0.184007 0
M  V30 4862 O 457.738 2.12728 0.834218 0
M  V30 4863 C 457.948 2.16866 -2.73441 0
M  V30 4864 C 459.296 2.76936 -3.21857 0
M  V30 4865 O 460.32 2.27152 -2.74373 0
M  V30 4866 O 459.179 3.67496 -4.04486 0
M  V30 4867 H 456.273 0.581918 -0.587623 0
M  V30 4868 H 458.819 0.544311 -1.60734 0
M  V30 4869 H 457.591 1.56521 -3.58632 0
M  V30 4870 H 457.214 2.98583 -2.62553 0
M  V30 4871 N 458.211 1.37122 0.776871 0
M  V30 4872 C 459.436 1.354 1.57104 0
M  V30 4873 C 459.861 -0.0595562 1.88006 0
M  V30 4874 O 459.219 -1.03514 1.48844 0
M  V30 4875 C 459.267 2.19472 2.8612 0
M  V30 4876 O 458.371 1.59582 3.80273 0
M  V30 4877 H 457.712 0.462869 0.476076 0
M  V30 4878 H 460.242 1.80577 0.961932 0
M  V30 4879 H 460.252 2.32502 3.35271 0
M  V30 4880 H 458.927 3.22222 2.62956 0
M  V30 4881 H 457.504 1.55564 3.38902 0
M  V30 4882 N 459.689 -1.00246 1.21608 0
M  V30 4883 C 460.636 -2.09073 0.977613 0
M  V30 4884 C 461.606 -1.65815 -0.097297 0
M  V30 4885 O 462.791 -1.90734 0.0503445 0
M  V30 4886 C 459.931 -3.40671 0.551133 0
M  V30 4887 C 459.044 -3.97326 1.69576 0
M  V30 4888 C 458.179 -5.17043 1.2182 0
M  V30 4889 C 457.218 -5.65813 2.335 0
M  V30 4890 N 456.355 -6.76778 1.86859 0
M  V30 4891 H 461.195 -2.28806 1.90924 0
M  V30 4892 H 458.732 -1.12186 0.951452 0
M  V30 4893 H 460.69 -4.16225 0.285097 0
M  V30 4894 H 459.32 -3.20967 -0.343489 0
M  V30 4895 H 458.372 -3.18734 2.07637 0
M  V30 4896 H 459.684 -4.29511 2.53617 0
M  V30 4897 H 458.838 -5.99852 0.908975 0
M  V30 4898 H 457.577 -4.86458 0.347869 0
M  V30 4899 H 456.582 -4.81599 2.65222 0
M  V30 4900 H 457.807 -5.98427 3.21033 0
M  V30 4901 H 455.753 -6.47994 1.02174 0
M  V30 4902 H 455.67 -7.08231 2.64471 0
M  V30 4903 H 456.938 -7.63116 1.58978 0
M  V30 4904 N 461.167 -1.02423 -1.1978 0
M  V30 4905 C 462.115 -0.594474 -2.24875 0
M  V30 4906 C 463.109 0.370598 -1.65296 0
M  V30 4907 O 464.315 0.239684 -1.78397 0
M  V30 4908 H 460.69 -0.173961 -0.731602 0
M  V30 4909 H 462.661 -1.4916 -2.58445 0
M  V30 4910 C 461.41 0.0436512 -3.47673 0
M  V30 4911 H 460.733 -0.689963 -3.93801 0
M  V30 4912 H 462.173 0.307362 -4.22884 0
M  V30 4913 C 460.632 1.28881 -3.11274 0
M  V30 4914 O 461.162 2.38135 -3.23503 0
M  V30 4915 N 459.368 1.1758 -2.6575 0
M  V30 4916 H 458.915 0.286769 -2.55999 0
M  V30 4917 H 458.873 2.00988 -2.41767 0
M  V30 4918 N 462.645 1.35699 -0.801477 0
M  V30 4919 C 463.593 2.3177 -0.196317 0
M  V30 4920 C 464.587 1.56388 0.651081 0
M  V30 4921 O 465.793 1.71557 0.544815 0
M  V30 4922 H 462.168 0.750669 -0.0447189 0
M  V30 4923 H 464.139 2.8036 -1.02181 0
M  V30 4924 C 462.888 3.41671 0.644702 0
M  V30 4925 H 462.211 3.998 0.0019921 0
M  V30 4926 H 463.651 4.11184 1.0346 0
M  V30 4927 C 462.11 2.84271 1.80808 0
M  V30 4928 O 462.64 2.77408 2.9053 0
M  V30 4929 N 460.846 2.41391 1.61799 0
M  V30 4930 H 460.393 2.47173 0.725493 0
M  V30 4931 H 460.351 2.03334 2.39797 0
M  V30 4932 N 464.123 0.554532 1.47522 0
M  V30 4933 C 465.351 0.034257 2.06872 0
M  V30 4934 C 465.766 -1.25826 1.40759 0
M  V30 4935 O 465.123 -1.75425 0.503217 0
M  V30 4936 C 465.174 -0.167827 3.6111 0
M  V30 4937 O 464.895 1.07351 4.24744 0
M  V30 4938 C 466.396 -0.72569 4.3732 0
M  V30 4939 H 463.616 0.0446275 0.669514 0
M  V30 4940 H 466.16 0.767181 1.89564 0
M  V30 4941 H 464.315 -0.850872 3.7794 0
M  V30 4942 H 464.729 0.869563 5.17242 0
M  V30 4943 H 466.203 -0.816394 5.45929 0
M  V30 4944 H 466.68 -1.73635 4.0342 0
M  V30 4945 H 467.286 -0.0784292 4.25228 0
M  V30 4946 N 465.601 -1.54893 0.290851 0
M  V30 4947 C 466.848 -1.99933 -0.321391 0
M  V30 4948 C 467.176 -1.17927 -1.54672 0
M  V30 4949 O 466.431 -0.240902 -1.94212 0
M  V30 4950 C 466.73 -3.49815 -0.732397 0
M  V30 4951 C 466.396 -4.4921 0.390056 0
M  V30 4952 C 465.058 -4.76107 0.698223 0
M  V30 4953 C 467.41 -5.08453 1.14562 0
M  V30 4954 C 464.738 -5.59514 1.76526 0
M  V30 4955 C 467.09 -5.9302 2.2025 0
M  V30 4956 C 465.754 -6.18232 2.51684 0
M  V30 4957 H 465.024 -0.731608 -0.117605 0
M  V30 4958 H 467.671 -1.87107 0.407839 0
M  V30 4959 H 465.976 -3.60199 -1.54155 0
M  V30 4960 H 467.673 -3.82083 -1.21712 0
M  V30 4961 H 464.263 -4.28372 0.13976 0
M  V30 4962 H 468.447 -4.87683 0.920801 0
M  V30 4963 H 463.703 -5.77289 2.01364 0
M  V30 4964 H 467.877 -6.37955 2.7926 0
M  V30 4965 H 465.504 -6.82653 3.34499 0
M  V30 4966 N 467.08 -0.0183926 -1.57589 0
M  V30 4967 C 468.329 0.66185 -1.90532 0
M  V30 4968 C 468.642 1.73904 -0.895366 0
M  V30 4969 O 469.848 2.47518 -1.11566 0
M  V30 4970 C 468.304 1.22844 -3.38286 0
M  V30 4971 C 467.912 0.185103 -4.47617 0
M  V30 4972 C 469.656 1.88581 -3.80312 0
M  V30 4973 C 467.563 0.762723 -5.86461 0
M  V30 4974 H 466.493 0.250972 -0.711006 0
M  V30 4975 H 469.144 -0.0819435 -1.83317 0
M  V30 4976 H 467.526 2.0235 -3.40398 0
M  V30 4977 H 468.7 -0.58671 -4.5705 0
M  V30 4978 H 467.015 -0.372889 -4.14727 0
M  V30 4979 H 469.612 2.32735 -4.81392 0
M  V30 4980 H 469.955 2.72408 -3.14801 0
M  V30 4981 H 470.488 1.15782 -3.80578 0
M  V30 4982 H 467.227 -0.0371713 -6.55489 0
M  V30 4983 H 466.747 1.50327 -5.80656 0
M  V30 4984 H 468.426 1.25576 -6.34697 0
M  V30 4985 N 468.558 1.5553 0.254621 0
M  V30 4986 C 469.521 1.88872 1.29846 0
M  V30 4987 C 470.521 0.764591 1.41459 0
M  V30 4988 O 471.711 1.03265 1.40293 0
M  V30 4989 C 468.843 2.11032 2.67728 0
M  V30 4990 H 470.036 2.82201 1.01502 0
M  V30 4991 H 467.589 1.48303 0.493556 0
M  V30 4992 H 468.324 1.20146 3.01223 0
M  V30 4993 H 468.109 2.92895 2.60682 0
M  V30 4994 H 469.599 2.38038 3.43115 0
M  V30 4995 N 470.036 -0.519951 1.48776 0
M  V30 4996 C 471.284 -1.2727 1.56993 0
M  V30 4997 C 471.605 -1.9339 0.25004 0
M  V30 4998 O 470.875 -1.81822 -0.729216 0
M  V30 4999 H 469.455 -0.472732 0.578389 0
M  V30 5000 H 472.117 -0.604234 1.85297 0
M  V30 5001 H 471.213 -2.04669 2.3562 0
M  V30 5002 N 471.514 -1.37532 -0.769588 0
M  V30 5003 C 472.424 -1.35668 -1.91393 0
M  V30 5004 C 473.44 -0.255954 -1.72107 0
M  V30 5005 O 474.616 -0.491704 -1.95305 0
M  V30 5006 C 471.681 -1.16481 -3.26547 0
M  V30 5007 C 470.742 -2.36212 -3.58472 0
M  V30 5008 C 469.975 -2.17932 -4.87177 0
M  V30 5009 O 470.198 -1.1647 -5.58382 0
M  V30 5010 O 469.132 -3.06167 -5.18214 0
M  V30 5011 H 472.958 -2.32055 -1.95918 0
M  V30 5012 H 470.543 -1.18284 -0.912641 0
M  V30 5013 H 472.425 -1.07778 -4.07384 0
M  V30 5014 H 471.1 -0.231687 -3.2287 0
M  V30 5015 H 470.007 -2.50488 -2.77861 0
M  V30 5016 H 471.34 -3.281 -3.66894 0
M  V30 5017 N 472.992 0.995999 -1.22138 0
M  V30 5018 C 473.922 2.10387 -1.01289 0
M  V30 5019 C 474.903 1.69975 0.0651454 0
M  V30 5020 O 476.088 1.9396 -0.0964628 0
M  V30 5021 C 473.218 3.42312 -0.586517 0
M  V30 5022 C 472.172 3.96558 -1.61014 0
M  V30 5023 C 471.498 5.24494 -1.0397 0
M  V30 5024 C 472.798 4.27595 -2.99933 0
M  V30 5025 H 474.492 2.28086 -1.93951 0
M  V30 5026 H 472.038 1.09607 -0.933928 0
M  V30 5027 H 473.991 4.19223 -0.427793 0
M  V30 5028 H 472.715 3.24431 0.375761 0
M  V30 5029 H 471.374 3.21776 -1.75658 0
M  V30 5030 H 471.022 5.02953 -0.0688703 0
M  V30 5031 H 470.722 5.61755 -1.72352 0
M  V30 5032 H 472.246 6.04042 -0.892494 0
M  V30 5033 H 473.66 4.95315 -2.8868 0
M  V30 5034 H 472.057 4.76021 -3.6541 0
M  V30 5035 H 473.127 3.35498 -3.50099 0
M  V30 5036 N 474.47 1.03057 1.19235 0
M  V30 5037 C 475.402 0.570932 2.21975 0
M  V30 5038 C 476.415 -0.354088 1.58903 0
M  V30 5039 O 477.604 -0.150211 1.77867 0
M  V30 5040 C 474.704 -0.187152 3.38383 0
M  V30 5041 C 473.877 0.743231 4.31039 0
M  V30 5042 C 472.936 0.0302493 5.26191 0
M  V30 5043 O 471.962 0.657371 5.65391 0
M  V30 5044 N 473.164 -1.23991 5.67104 0
M  V30 5045 H 475.929 1.45456 2.62036 0
M  V30 5046 H 473.49 0.909807 1.33918 0
M  V30 5047 H 475.482 -0.673715 3.99053 0
M  V30 5048 H 474.052 -0.972205 2.97098 0
M  V30 5049 H 473.272 1.40985 3.68126 0
M  V30 5050 H 474.56 1.3755 4.89854 0
M  V30 5051 H 473.958 -1.77011 5.37293 0
M  V30 5052 H 472.515 -1.67093 6.30018 0
M  V30 5053 N 475.948 -1.35272 0.808662 0
M  V30 5054 C 477.195 -1.98709 0.390003 0
M  V30 5055 C 477.523 -1.64148 -1.04335 0
M  V30 5056 O 476.778 -0.897797 -1.73891 0
M  V30 5057 C 477.077 -3.53556 0.522798 0
M  V30 5058 C 476.743 -4.0799 1.91977 0
M  V30 5059 C 475.405 -4.22568 2.30195 0
M  V30 5060 C 477.757 -4.37442 2.83361 0
M  V30 5061 C 475.085 -4.63918 3.59162 0
M  V30 5062 C 477.437 -4.80232 4.11776 0
M  V30 5063 C 476.101 -4.93016 4.49991 0
M  V30 5064 H 475.371 -0.727127 0.142712 0
M  V30 5065 H 478.018 -1.6145 1.02985 0
M  V30 5066 H 476.323 -3.91287 -0.200494 0
M  V30 5067 H 478.02 -4.00598 0.179608 0
M  V30 5068 H 474.61 -3.97096 1.61284 0
M  V30 5069 H 478.794 -4.25731 2.55083 0
M  V30 5070 H 474.05 -4.72005 3.88615 0
M  V30 5071 H 478.224 -5.01982 4.82687 0
M  V30 5072 H 475.851 -5.24814 5.49976 0
M  V30 5073 N 477.426 -0.562348 -1.47226 0
M  V30 5074 C 478.703 0.0256985 -1.95583 0
M  V30 5075 C 479.083 1.48032 -1.50498 0
M  V30 5076 O 478.431 2.15973 -0.746181 0
M  V30 5077 C 478.641 -0.125129 -3.48776 0
M  V30 5078 C 479.989 0.0175728 -4.24596 0
M  V30 5079 O 481.013 -0.0529341 -3.56161 0
M  V30 5080 O 479.872 0.170145 -5.46235 0
M  V30 5081 H 476.966 0.0612565 -0.824728 0
M  V30 5082 H 479.512 -0.629233 -1.57603 0
M  V30 5083 H 478.284 -1.13715 -3.74412 0
M  V30 5084 H 477.907 0.567178 -3.93534 0
M  V30 5085 N 478.904 1.54736 -0.299062 0
M  V30 5086 C 479.834 2.26409 0.571085 0
M  V30 5087 C 480.815 1.2629 1.13951 0
M  V30 5088 O 482 1.55059 1.16921 0
M  V30 5089 C 479.13 3.00338 1.74396 0
M  V30 5090 C 478.084 4.07588 1.30599 0
M  V30 5091 C 477.41 4.69222 2.56387 0
M  V30 5092 C 478.71 5.20455 0.438645 0
M  V30 5093 H 480.404 2.99388 -0.0266991 0
M  V30 5094 H 477.95 1.43993 -0.0142812 0
M  V30 5095 H 479.903 3.49198 2.35878 0
M  V30 5096 H 478.627 2.24934 2.36796 0
M  V30 5097 H 477.286 3.59575 0.71424 0
M  V30 5098 H 476.934 3.9046 3.17097 0
M  V30 5099 H 476.634 5.41653 2.27784 0
M  V30 5100 H 478.158 5.20844 3.18675 0
M  V30 5101 H 479.572 5.65221 0.959085 0
M  V30 5102 H 477.969 5.99594 0.246466 0
M  V30 5103 H 479.039 4.8192 -0.536738 0
M  V30 5104 N 480.382 0.0267497 1.57577 0
M  V30 5105 C 481.793 -0.512413 1.79531 0
M  V30 5106 C 482.144 -1.72391 0.936791 0
M  V30 5107 O 481.269 -2.15903 0.146543 0
M  V30 5108 C 481.864 -0.936378 3.25603 0
M  V30 5109 C 480.423 -1.42067 3.4856 0
M  V30 5110 C 479.57 -0.384278 2.74624 0
M  V30 5111 H 482.521 0.252797 1.56674 0
M  V30 5112 H 482.542 -1.80088 3.35184 0
M  V30 5113 H 482.054 -0.0544332 3.88062 0
M  V30 5114 H 480.155 -2.32262 2.9135 0
M  V30 5115 H 480.268 -1.42968 4.57271 0
M  V30 5116 H 478.632 -0.851855 2.40032 0
M  V30 5117 H 479.415 0.489159 3.39797 0
M  V30 5118 N 481.861 -1.55662 -0.24637 0
M  V30 5119 C 483.277 -1.48098 -0.594907 0
M  V30 5120 C 483.477 -0.717044 -1.8831 0
M  V30 5121 O 482.533 -0.246618 -2.51293 0
M  V30 5122 C 483.846 -2.92507 -0.697146 0
M  V30 5123 C 485.394 -3.02881 -0.789436 0
M  V30 5124 C 485.869 -4.48598 -0.923232 0
M  V30 5125 N 487.36 -4.52538 -0.988088 0
M  V30 5126 C 488.095 -5.62536 -1.11089 0
M  V30 5127 N 487.591 -6.82342 -1.19919 0
M  V30 5128 N 489.384 -5.50334 -1.14408 0
M  V30 5129 H 481.535 -2.0377 0.599278 0
M  V30 5130 H 483.798 -0.925145 0.20691 0
M  V30 5131 H 483.504 -3.51242 0.179396 0
M  V30 5132 H 483.378 -3.43024 -1.5689 0
M  V30 5133 H 485.765 -2.44226 -1.65643 0
M  V30 5134 H 485.846 -2.55574 0.107482 0
M  V30 5135 H 485.49 -5.07864 -0.0607927 0
M  V30 5136 H 485.42 -4.93587 -1.8352 0
M  V30 5137 H 487.911 -3.66248 -0.931167 0
M  V30 5138 H 488.224 -7.61924 -1.29197 0
M  V30 5139 H 486.569 -6.85102 -1.16876 0
M  V30 5140 H 489.76 -4.5567 -1.07158 0
M  V30 5141 H 489.933 -6.36096 -1.23634 0
M  V30 5142 N 483.339 0.512053 -1.4905 0
M  V30 5143 C 484.585 1.26613 -1.59187 0
M  V30 5144 C 484.94 1.90494 -0.270163 0
M  V30 5145 O 484.233 1.77204 0.728648 0
M  V30 5146 C 484.427 2.36446 -2.68008 0
M  V30 5147 C 484.256 1.83334 -4.10632 0
M  V30 5148 C 483.026 1.65131 -4.77556 0
M  V30 5149 C 485.224 1.35153 -4.96224 0
M  V30 5150 N 483.206 1.06833 -6.04533 0
M  V30 5151 C 484.577 0.889186 -6.13591 0
M  V30 5152 C 486.632 1.23623 -4.82309 0
M  V30 5153 C 485.335 0.322953 -7.18575 0
M  V30 5154 C 487.361 0.683978 -5.87431 0
M  V30 5155 C 486.723 0.2318 -7.04018 0
M  V30 5156 H 482.822 0.453678 -0.636946 0
M  V30 5157 H 485.406 0.575217 -1.86009 0
M  V30 5158 H 483.577 3.03012 -2.42978 0
M  V30 5159 H 485.309 3.03485 -2.67729 0
M  V30 5160 H 482.064 1.89178 -4.34176 0
M  V30 5161 H 482.488 0.796425 -6.72299 0
M  V30 5162 H 487.13 1.57184 -3.92496 0
M  V30 5163 H 484.848 -0.024943 -8.08096 0
M  V30 5164 H 488.434 0.597694 -5.78722 0
M  V30 5165 H 487.314 -0.188869 -7.83973 0
M  V30 5166 N 484.817 1.37938 0.762283 0
M  V30 5167 C 485.727 1.36681 1.90671 0
M  V30 5168 C 486.743 0.265078 1.71969 0
M  V30 5169 O 487.919 0.502055 1.95042 0
M  V30 5170 C 484.984 1.18211 3.25925 0
M  V30 5171 C 484.045 2.3811 3.57214 0
M  V30 5172 C 483.278 2.20512 4.86014 0
M  V30 5173 O 483.501 1.19429 5.57757 0
M  V30 5174 O 482.435 3.08911 5.16583 0
M  V30 5175 H 486.261 2.33091 1.94685 0
M  V30 5176 H 483.846 1.18767 0.906356 0
M  V30 5177 H 485.728 1.09937 4.06807 0
M  V30 5178 H 484.403 0.248807 3.22742 0
M  V30 5179 H 483.31 2.51958 2.76529 0
M  V30 5180 H 484.643 3.30041 3.65149 0
M  V30 5181 N 486.295 -0.989507 1.22664 0
M  V30 5182 C 487.543 -1.72612 1.05117 0
M  V30 5183 C 487.864 -1.90552 -0.414131 0
M  V30 5184 O 487.134 -1.4676 -1.29762 0
M  V30 5185 H 485.714 -0.639555 0.385977 0
M  V30 5186 H 488.376 -1.19158 1.54232 0
M  V30 5187 H 487.472 -2.71926 1.53175 0
M  V30 5188 N 487.773 -1.03688 -1.18687 0
M  V30 5189 C 489.019 -0.739123 -1.88851 0
M  V30 5190 C 489.352 0.731042 -1.79915 0
M  V30 5191 O 488.627 1.53313 -1.19688 0
M  V30 5192 C 488.91 -1.20106 -3.3948 0
M  V30 5193 C 488.763 -2.73304 -3.57246 0
M  V30 5194 C 490.082 -0.788134 -4.32986 0
M  V30 5195 H 487.201 -0.269978 -0.68577 0
M  V30 5196 H 489.843 -1.28822 -1.3966 0
M  V30 5197 H 487.993 -0.733915 -3.81505 0
M  V30 5198 H 489.665 -3.28027 -3.24339 0
M  V30 5199 H 487.908 -3.13313 -3.00029 0
M  V30 5200 H 488.579 -3.00684 -4.62918 0
M  V30 5201 H 491.055 -1.19005 -3.98719 0
M  V30 5202 H 489.931 -1.13915 -5.36949 0
M  V30 5203 H 490.192 0.308988 -4.41019 0
M  V30 5204 N 489.251 1.34841 -0.815825 0
M  V30 5205 C 490.662 1.80937 -0.46029 0
M  V30 5206 C 491.013 1.67685 1.01863 0
M  V30 5207 O 490.138 1.21277 1.79223 0
M  V30 5208 C 490.733 3.28509 -0.828708 0
M  V30 5209 C 489.292 3.72712 -0.525644 0
M  V30 5210 C 488.439 2.56676 -1.04941 0
M  V30 5211 H 491.39 1.22688 -1.00664 0
M  V30 5212 H 491.411 3.80279 -0.129757 0
M  V30 5213 H 490.923 3.38122 -1.90513 0
M  V30 5214 H 489.024 3.68642 0.541666 0
M  V30 5215 H 489.137 4.67119 -1.06474 0
M  V30 5216 H 487.501 2.50302 -0.471286 0
M  V30 5217 H 488.284 2.69063 -2.13214 0
M  V30 5218 N 490.729 0.570148 1.46925 0
M  V30 5219 C 491.976 0.0509529 2.02436 0
M  V30 5220 C 492.304 -1.30405 1.44308 0
M  V30 5221 O 491.559 -1.86493 0.593198 0
M  V30 5222 C 491.858 -0.0780336 3.57315 0
M  V30 5223 C 491.524 1.20775 4.34424 0
M  V30 5224 C 490.186 1.56004 4.5521 0
M  V30 5225 C 492.538 2.0592 4.78797 0
M  V30 5226 C 489.866 2.76201 5.17619 0
M  V30 5227 C 492.218 3.25332 5.42533 0
M  V30 5228 C 490.882 3.60859 5.61549 0
M  V30 5229 H 490.152 0.018645 0.740765 0
M  V30 5230 H 492.799 0.744262 1.76445 0
M  V30 5231 H 491.104 -0.854394 3.82371 0
M  V30 5232 H 492.801 -0.495312 3.97929 0
M  V30 5233 H 489.391 0.923469 4.18533 0
M  V30 5234 H 493.575 1.80008 4.62505 0
M  V30 5235 H 488.831 3.0388 5.30535 0
M  V30 5236 H 493.005 3.91586 5.75876 0
M  V30 5237 H 490.632 4.54088 6.09678 0
M  V30 5238 N 492.207 -1.54576 0.307264 0
M  V30 5239 C 493.437 -2.04378 -0.302158 0
M  V30 5240 C 493.845 -1.18381 -1.47589 0
M  V30 5241 O 493.188 -0.20352 -1.82569 0
M  V30 5242 C 493.25 -3.50133 -0.815305 0
M  V30 5243 C 492.914 -4.56401 0.233977 0
M  V30 5244 C 493.911 -5.08884 1.06456 0
M  V30 5245 C 491.596 -5.0088 0.377478 0
M  V30 5246 C 493.59 -6.04394 2.02452 0
M  V30 5247 C 491.277 -5.96208 1.34088 0
M  V30 5248 C 492.275 -6.47849 2.16288 0
M  V30 5249 O 491.963 -7.41308 3.10994 0
M  V30 5250 H 491.695 -0.672502 -0.0686839 0
M  V30 5251 H 494.249 -2.00484 0.446682 0
M  V30 5252 H 492.479 -3.51371 -1.61478 0
M  V30 5253 H 494.168 -3.83098 -1.34129 0
M  V30 5254 H 494.934 -4.75311 0.964596 0
M  V30 5255 H 490.813 -4.60309 -0.252405 0
M  V30 5256 H 494.357 -6.44626 2.66652 0
M  V30 5257 H 490.254 -6.29198 1.44154 0
M  V30 5258 H 491.022 -7.5913 3.06045 0
M  V30 5259 N 493.685 -0.035106 -1.57561 0
M  V30 5260 C 494.931 0.64318 -1.92331 0
M  V30 5261 C 495.264 1.71434 -0.912368 0
M  V30 5262 O 494.539 1.94395 0.0640303 0
M  V30 5263 C 494.822 1.25411 -3.37556 0
M  V30 5264 C 494.675 0.192109 -4.4939 0
M  V30 5265 C 495.994 2.17041 -3.82859 0
M  V30 5266 H 493.113 0.232341 -0.699419 0
M  V30 5267 H 495.755 -0.0935889 -1.89769 0
M  V30 5268 H 493.905 1.88205 -3.39869 0
M  V30 5269 H 495.577 -0.438849 -4.59208 0
M  V30 5270 H 493.82 -0.481725 -4.31117 0
M  V30 5271 H 494.491 0.659292 -5.48049 0
M  V30 5272 H 496.967 1.64228 -3.8232 0
M  V30 5273 H 495.843 2.56738 -4.85157 0
M  V30 5274 H 496.104 3.06401 -3.18702 0
M  V30 5275 N 495.163 1.55791 0.238111 0
M  V30 5276 C 496.579 1.48411 0.587045 0
M  V30 5277 C 496.779 0.72702 1.87927 0
M  V30 5278 O 495.835 0.259942 2.51158 0
M  V30 5279 C 497.148 2.92873 0.681623 0
M  V30 5280 C 498.696 3.03295 0.773363 0
M  V30 5281 C 499.171 4.49082 0.899428 0
M  V30 5282 N 500.662 4.53056 0.964075 0
M  V30 5283 C 501.397 5.63117 1.08104 0
M  V30 5284 N 500.893 6.82969 1.16299 0
M  V30 5285 N 502.686 5.50933 1.11488 0
M  V30 5286 H 494.837 2.0345 -0.610076 0
M  V30 5287 H 497.1 0.924034 -0.211813 0
M  V30 5288 H 496.806 3.51142 -0.19802 0
M  V30 5289 H 496.68 3.43851 1.55069 0
M  V30 5290 H 499.067 2.45101 1.64346 0
M  V30 5291 H 499.148 2.55513 -0.121034 0
M  V30 5292 H 498.792 5.07889 0.0338586 0
M  V30 5293 H 498.722 4.94553 1.809 0
M  V30 5294 H 501.213 3.66737 0.91173 0
M  V30 5295 H 501.526 7.62598 1.25155 0
M  V30 5296 H 499.871 6.85712 1.13241 0
M  V30 5297 H 503.062 4.56231 1.0474 0
M  V30 5298 H 503.235 6.36743 1.20259 0
M  V30 5299 N 496.642 -0.504142 1.49319 0
M  V30 5300 C 497.867 -1.28729 1.62615 0
M  V30 5301 C 498.292 -1.85752 0.296309 0
M  V30 5302 O 497.65 -1.65704 -0.735649 0
M  V30 5303 C 497.698 -2.39561 2.69524 0
M  V30 5304 O 496.802 -3.43324 2.28478 0
M  V30 5305 H 496.143 -0.380172 0.544395 0
M  V30 5306 H 498.673 -0.603872 1.95485 0
M  V30 5307 H 498.683 -2.8537 2.91595 0
M  V30 5308 H 497.358 -1.97423 3.66056 0
M  V30 5309 H 495.935 -3.03455 2.16725 0
M  V30 5310 N 498.12 -1.38341 -0.754957 0
M  V30 5311 C 499.368 -1.34208 -1.51105 0
M  V30 5312 C 499.689 0.0677634 -1.94882 0
M  V30 5313 O 498.959 1.01517 -1.67544 0
M  V30 5314 H 497.539 -0.493819 -0.560493 0
M  V30 5315 H 500.201 -1.73005 -0.897507 0
M  V30 5316 H 499.297 -1.99203 -2.4026 0
M  V30 5317 N 499.598 0.982988 -1.23187 0
M  V30 5318 C 500.545 2.07491 -1.01075 0
M  V30 5319 C 501.515 1.65949 0.070905 0
M  V30 5320 O 502.7 1.90629 -0.0806822 0
M  V30 5321 C 499.84 3.39751 -0.605261 0
M  V30 5322 C 498.953 3.94578 -1.75876 0
M  V30 5323 C 498.088 5.15039 -1.3003 0
M  V30 5324 C 497.127 5.62027 -2.42472 0
M  V30 5325 N 496.264 6.73719 -1.97602 0
M  V30 5326 H 501.104 2.25739 -1.9454 0
M  V30 5327 H 498.641 1.10659 -0.969179 0
M  V30 5328 H 500.599 4.15719 -0.351279 0
M  V30 5329 H 499.229 3.21473 0.292382 0
M  V30 5330 H 498.281 3.1539 -2.12681 0
M  V30 5331 H 499.593 4.25422 -2.60418 0
M  V30 5332 H 498.747 5.9833 -1.00429 0
M  V30 5333 H 497.486 4.85843 -0.425216 0
M  V30 5334 H 496.491 4.77318 -2.7285 0
M  V30 5335 H 497.716 5.93244 -3.30512 0
M  V30 5336 H 495.662 6.46287 -1.1247 0
M  V30 5337 H 495.579 7.03934 -2.75705 0
M  V30 5338 H 496.847 7.6049 -1.71098 0
M  V30 5339 N 501.076 1.04316 1.18135 0
M  V30 5340 C 502.492 0.762858 1.40188 0
M  V30 5341 C 502.692 -0.646547 1.90846 0
M  V30 5342 O 501.748 -1.41036 2.0944 0
M  V30 5343 C 503.061 1.81106 2.40044 0
M  V30 5344 C 504.609 1.83226 2.53766 0
M  V30 5345 C 505.084 2.87044 3.56889 0
M  V30 5346 N 506.575 2.85951 3.64398 0
M  V30 5347 C 507.31 3.62932 4.43923 0
M  V30 5348 N 506.806 4.49672 5.27036 0
M  V30 5349 N 508.599 3.51411 4.38711 0
M  V30 5350 H 500.75 1.95264 0.835805 0
M  V30 5351 H 503.013 0.845017 0.429709 0
M  V30 5352 H 502.719 2.82214 2.09876 0
M  V30 5353 H 502.593 1.64529 3.39426 0
M  V30 5354 H 504.98 0.827869 2.8325 0
M  V30 5355 H 505.061 2.03879 1.54489 0
M  V30 5356 H 504.705 3.87663 3.28145 0
M  V30 5357 H 504.635 2.63645 4.5585 0
M  V30 5358 H 507.126 2.23051 3.05052 0
M  V30 5359 H 507.439 5.05116 5.84874 0
M  V30 5360 H 505.784 4.53738 5.26447 0
M  V30 5361 H 508.975 2.83047 3.72829 0
M  V30 5362 H 509.148 4.11654 5.00445 0
M  V30 5363 N 502.554 -1.34406 0.822964 0
M  V30 5364 C 503.484 -2.32052 0.259608 0
M  V30 5365 C 504.465 -1.58243 -0.623961 0
M  V30 5366 O 505.65 -1.86224 -0.55083 0
M  V30 5367 C 502.78 -3.42434 -0.579314 0
M  V30 5368 C 501.734 -4.27499 0.20712 0
M  V30 5369 C 501.06 -5.29349 -0.754547 0
M  V30 5370 C 502.36 -5.02758 1.41533 0
M  V30 5371 H 504.054 -2.79418 1.07545 0
M  V30 5372 H 501.6 -1.34338 0.518593 0
M  V30 5373 H 503.553 -4.0976 -0.983612 0
M  V30 5374 H 502.277 -2.93717 -1.4282 0
M  V30 5375 H 500.936 -3.61776 0.592787 0
M  V30 5376 H 500.584 -4.76895 -1.59939 0
M  V30 5377 H 500.284 -5.8714 -0.232561 0
M  V30 5378 H 501.808 -5.99544 -1.1567 0
M  V30 5379 H 503.222 -5.62938 1.08504 0
M  V30 5380 H 501.619 -5.70123 1.87296 0
M  V30 5381 H 502.689 -4.32451 2.1935 0
M  V30 5382 N 504.032 -0.577932 -1.46621 0
M  V30 5383 C 504.995 0.147805 -2.28723 0
M  V30 5384 C 505.995 0.823325 -1.38123 0
M  V30 5385 O 507.185 0.676011 -1.60548 0
M  V30 5386 C 504.317 1.21853 -3.18378 0
M  V30 5387 H 505.51 -0.573654 -2.94362 0
M  V30 5388 H 503.063 -0.335703 -1.52652 0
M  V30 5389 H 503.798 1.97173 -2.57475 0
M  V30 5390 H 503.583 0.738714 -3.85078 0
M  V30 5391 H 505.073 1.72768 -3.80186 0
M  V30 5392 N 505.51 1.54411 -0.315457 0
M  V30 5393 C 506.473 2.22713 0.54142 0
M  V30 5394 C 507.473 1.2179 1.04995 0
M  V30 5395 O 508.663 1.46426 0.943667 0
M  V30 5396 C 505.795 2.92485 1.75116 0
M  V30 5397 H 506.988 2.99849 -0.0555508 0
M  V30 5398 H 504.541 1.56159 -0.0664453 0
M  V30 5399 H 505.276 2.19466 2.38758 0
M  V30 5400 H 505.061 3.66483 1.39401 0
M  V30 5401 H 506.551 3.44548 2.35959 0
M  V30 5402 N 506.988 0.0434614 1.5754 0
M  V30 5403 C 507.935 -0.93356 2.11077 0
M  V30 5404 C 508.905 -1.31383 1.01626 0
M  V30 5405 O 510.09 -1.40465 1.29129 0
M  V30 5406 C 507.23 -2.20578 2.65404 0
M  V30 5407 C 506.343 -1.88068 3.88914 0
M  V30 5408 C 505.478 -3.09691 4.31584 0
M  V30 5409 C 504.517 -2.73067 5.47815 0
M  V30 5410 N 503.654 -3.87359 5.85574 0
M  V30 5411 H 508.494 -0.470118 2.94268 0
M  V30 5412 H 506.031 -0.220434 1.45439 0
M  V30 5413 H 507.989 -2.95011 2.94999 0
M  V30 5414 H 506.619 -2.64513 1.85021 0
M  V30 5415 H 505.671 -1.03816 3.6596 0
M  V30 5416 H 506.983 -1.57104 4.73413 0
M  V30 5417 H 506.137 -3.92431 4.62691 0
M  V30 5418 H 504.876 -3.43827 3.45882 0
M  V30 5419 H 503.881 -1.88742 5.16388 0
M  V30 5420 H 505.106 -2.40131 6.35227 0
M  V30 5421 H 503.052 -4.21311 5.02825 0
M  V30 5422 H 502.969 -3.60068 6.64746 0
M  V30 5423 H 504.237 -4.70761 6.21292 0
M  V30 5424 N 508.466 -1.55915 -0.229846 0
M  V30 5425 C 509.398 -1.88209 -1.30805 0
M  V30 5426 C 510.411 -0.769672 -1.43457 0
M  V30 5427 O 511.6 -1.04792 -1.44502 0
M  V30 5428 C 508.7 -2.06829 -2.68468 0
M  V30 5429 C 507.873 -3.37798 -2.77869 0
M  V30 5430 C 506.932 -3.45952 -3.96489 0
M  V30 5431 O 505.958 -4.19043 -3.85216 0
M  V30 5432 N 507.16 -2.76488 -5.10426 0
M  V30 5433 H 509.925 -2.81286 -1.03431 0
M  V30 5434 H 507.486 -1.5636 -0.41991 0
M  V30 5435 H 509.478 -2.09608 -3.46189 0
M  V30 5436 H 508.048 -1.20416 -2.88477 0
M  V30 5437 H 507.268 -3.4719 -1.86689 0
M  V30 5438 H 508.556 -4.24091 -2.81113 0
M  V30 5439 H 507.954 -2.16868 -5.2248 0
M  V30 5440 H 506.511 -2.84938 -5.8622 0
M  V30 5441 N 509.944 0.496216 -1.49584 0
M  V30 5442 C 511.172 1.27394 -1.63029 0
M  V30 5443 C 511.587 1.86344 -0.303569 0
M  V30 5444 O 510.944 1.68057 0.711547 0
M  V30 5445 C 510.995 2.40077 -2.70269 0
M  V30 5446 O 510.716 1.83549 -3.97796 0
M  V30 5447 C 512.217 3.31372 -2.94462 0
M  V30 5448 H 509.437 0.386211 -0.54871 0
M  V30 5449 H 511.981 0.595163 -1.95648 0
M  V30 5450 H 510.136 3.03775 -2.40415 0
M  V30 5451 H 510.55 2.57561 -4.56905 0
M  V30 5452 H 512.024 4.06707 -3.73221 0
M  V30 5453 H 512.501 3.88654 -2.0456 0
M  V30 5454 H 513.107 2.73435 -3.25751 0
M  V30 5455 N 511.423 1.38739 0.74761 0
M  V30 5456 C 512.839 1.20067 1.05148 0
M  V30 5457 C 513.039 0.0534835 2.01429 0
M  V30 5458 O 512.095 -0.59886 2.45296 0
M  V30 5459 C 513.408 2.52957 1.62584 0
M  V30 5460 C 514.956 2.59692 1.74726 0
M  V30 5461 C 515.431 3.92772 2.35573 0
M  V30 5462 N 516.922 3.94343 2.42997 0
M  V30 5463 C 517.657 4.9408 2.90985 0
M  V30 5464 N 517.153 6.04214 3.38965 0
M  V30 5465 N 518.946 4.81466 2.9008 0
M  V30 5466 H 511.097 2.12121 0.108808 0
M  V30 5467 H 513.36 0.941491 0.110899 0
M  V30 5468 H 513.066 3.37389 0.993051 0
M  V30 5469 H 512.94 2.71779 2.61565 0
M  V30 5470 H 515.327 1.75651 2.3713 0
M  V30 5471 H 515.408 2.44731 0.744326 0
M  V30 5472 H 515.052 4.77238 1.738 0
M  V30 5473 H 514.982 4.05046 3.36519 0
M  V30 5474 H 517.473 3.14799 2.0907 0
M  V30 5475 H 517.786 6.76241 3.74056 0
M  V30 5476 H 516.131 6.07825 3.37007 0
M  V30 5477 H 519.322 3.94535 2.51912 0
M  V30 5478 H 519.495 5.59344 3.27166 0
M  V30 5479 N 512.901 -0.976442 1.23707 0
M  V30 5480 C 514.147 -1.72081 1.07312 0
M  V30 5481 C 514.48 -1.90275 -0.388476 0
M  V30 5482 O 513.755 -1.4579 -1.28746 0
M  V30 5483 C 514.038 -3.11675 1.80363 0
M  V30 5484 C 513.891 -3.01027 3.3422 0
M  V30 5485 C 515.21 -4.1117 1.5693 0
M  V30 5486 H 512.329 -0.624583 0.391236 0
M  V30 5487 H 514.971 -1.13649 1.52263 0
M  V30 5488 H 513.121 -3.61559 1.42153 0
M  V30 5489 H 514.793 -2.58637 3.81975 0
M  V30 5490 H 513.036 -2.3744 3.63049 0
M  V30 5491 H 513.707 -3.9988 3.80525 0
M  V30 5492 H 516.183 -3.7011 1.90151 0
M  V30 5493 H 515.059 -5.06928 2.10513 0
M  V30 5494 H 515.32 -4.392 0.505548 0
M  V30 5495 N 514.379 -1.04941 -1.1758 0
M  V30 5496 C 515.656 -0.671918 -1.83697 0
M  V30 5497 C 516.036 0.847929 -1.93322 0
M  V30 5498 O 515.384 1.75287 -1.46583 0
M  V30 5499 C 515.594 -1.35797 -3.21497 0
M  V30 5500 C 516.942 -1.4944 -3.97433 0
M  V30 5501 O 517.966 -1.31678 -3.30967 0
M  V30 5502 O 516.825 -1.78463 -5.1654 0
M  V30 5503 H 513.919 -0.236212 -0.792548 0
M  V30 5504 H 516.465 -1.14884 -1.24899 0
M  V30 5505 H 515.237 -2.39498 -3.09446 0
M  V30 5506 H 514.86 -0.870236 -3.8796 0
M  V30 5507 N 515.857 1.33968 -0.830081 0
M  V30 5508 C 517.106 1.97323 -0.417928 0
M  V30 5509 C 517.419 1.6652 1.02618 0
M  V30 5510 O 518.625 2.2342 1.54259 0
M  V30 5511 C 517.081 3.53099 -0.696359 0
M  V30 5512 C 516.689 3.92788 -2.15457 0
M  V30 5513 C 518.433 4.23049 -0.350724 0
M  V30 5514 C 516.34 5.41506 -2.37751 0
M  V30 5515 H 515.27 0.738409 -0.152541 0
M  V30 5516 H 517.921 1.52711 -1.01744 0
M  V30 5517 H 516.303 3.95991 -0.0265904 0
M  V30 5518 H 517.477 3.6098 -2.86408 0
M  V30 5519 H 515.792 3.35795 -2.46232 0
M  V30 5520 H 518.389 5.32403 -0.495036 0
M  V30 5521 H 518.732 4.10279 0.705476 0
M  V30 5522 H 519.265 3.85657 -0.975362 0
M  V30 5523 H 516.004 5.5927 -3.41903 0
M  V30 5524 H 515.524 5.74804 -1.7135 0
M  V30 5525 H 517.203 6.0828 -2.20465 0
M  V30 5526 N 517.335 0.585699 1.46312 0
M  V30 5527 C 518.581 0.0725284 2.0267 0
M  V30 5528 C 518.914 -1.28523 1.45586 0
M  V30 5529 O 518.189 -1.84283 0.622101 0
M  V30 5530 C 518.472 0.0099788 3.60099 0
M  V30 5531 C 518.325 1.39685 4.27561 0
M  V30 5532 C 519.644 -0.689117 4.34671 0
M  V30 5533 H 516.763 0.0278307 0.736474 0
M  V30 5534 H 519.405 0.753472 1.74421 0
M  V30 5535 H 517.555 -0.56992 3.84297 0
M  V30 5536 H 519.227 2.02215 4.14617 0
M  V30 5537 H 517.47 1.96374 3.86807 0
M  V30 5538 H 518.141 1.30553 5.36339 0
M  V30 5539 H 520.617 -0.196446 4.15636 0
M  V30 5540 H 519.493 -0.701921 5.44393 0
M  V30 5541 H 519.754 -1.75101 4.05946 0
M  V30 5542 N 518.813 -1.54241 0.323641 0
M  V30 5543 C 520.06 -2.0057 -0.27891 0
M  V30 5544 C 520.388 -1.21181 -1.52136 0
M  V30 5545 O 519.643 -0.282043 -1.93657 0
M  V30 5546 C 519.942 -3.5129 -0.658031 0
M  V30 5547 C 519.608 -4.48281 0.485252 0
M  V30 5548 C 518.27 -4.74519 0.799055 0
M  V30 5549 C 520.622 -5.05909 1.25322 0
M  V30 5550 C 517.95 -5.55643 1.88354 0
M  V30 5551 C 520.302 -5.88215 2.32779 0
M  V30 5552 C 518.966 -6.12755 2.64741 0
M  V30 5553 H 518.236 -0.733938 -0.10206 0
M  V30 5554 H 520.883 -1.862 0.447435 0
M  V30 5555 H 519.188 -3.63388 -1.4648 0
M  V30 5556 H 520.885 -3.84578 -1.1358 0
M  V30 5557 H 517.475 -4.27979 0.230593 0
M  V30 5558 H 521.659 -4.8562 1.02404 0
M  V30 5559 H 516.915 -5.72888 2.13564 0
M  V30 5560 H 521.089 -6.31888 2.92729 0
M  V30 5561 H 518.716 -6.75404 3.48904 0
M  V30 5562 N 520.291 -0.0518155 -1.57515 0
M  V30 5563 C 521.238 0.922352 -2.11569 0
M  V30 5564 C 522.208 1.30842 -1.02321 0
M  V30 5565 O 523.393 1.39778 -1.29872 0
M  V30 5566 C 520.533 2.19167 -2.6657 0
M  V30 5567 C 519.646 1.86003 -3.89906 0
M  V30 5568 C 518.781 3.07398 -4.33221 0
M  V30 5569 C 517.82 2.70158 -5.49255 0
M  V30 5570 N 516.957 3.84248 -5.8762 0
M  V30 5571 H 521.797 0.454506 -2.94514 0
M  V30 5572 H 519.334 0.212718 -1.45554 0
M  V30 5573 H 521.292 2.93443 -2.96559 0
M  V30 5574 H 519.922 2.63528 -1.86421 0
M  V30 5575 H 518.974 1.01874 -3.66505 0
M  V30 5576 H 520.286 1.54592 -4.74239 0
M  V30 5577 H 519.44 3.89972 -4.64765 0
M  V30 5578 H 518.179 3.41988 -3.477 0
M  V30 5579 H 517.184 1.86001 -5.17382 0
M  V30 5580 H 518.409 2.36759 -6.36492 0
M  V30 5581 H 516.355 4.18638 -5.05053 0
M  V30 5582 H 516.272 3.56538 -6.66646 0
M  V30 5583 H 517.54 4.6746 -6.2378 0
M  V30 5584 N 521.769 1.56035 0.221574 0
M  V30 5585 C 522.732 1.91584 1.2581 0
M  V30 5586 C 523.732 0.794425 1.39805 0
M  V30 5587 O 524.922 1.06217 1.38071 0
M  V30 5588 C 522.054 2.16663 2.63192 0
M  V30 5589 H 523.247 2.8429 0.954935 0
M  V30 5590 H 520.8 1.49316 0.461988 0
M  V30 5591 H 521.535 1.26508 2.98607 0
M  V30 5592 H 521.32 2.98358 2.5441 0
M  V30 5593 H 522.81 2.45262 3.37988 0
M  V30 5594 N 523.247 -0.488276 1.49845 0
M  V30 5595 C 524.495 -1.23911 1.59657 0
M  V30 5596 C 524.816 -1.92816 0.291005 0
M  V30 5597 O 524.086 -1.83328 -0.690485 0
M  V30 5598 H 522.666 -0.460357 0.588286 0
M  V30 5599 H 525.328 -0.564794 1.86537 0
M  V30 5600 H 524.424 -1.99625 2.39909 0
M  V30 5601 N 524.725 -1.39134 -0.740242 0
M  V30 5602 C 525.953 -1.39334 -1.5295 0
M  V30 5603 C 526.368 0.0135008 -1.88795 0
M  V30 5604 O 525.725 0.983524 -1.5373 0
M  V30 5605 C 525.776 -2.2614 -2.82034 0
M  V30 5606 O 525.497 -3.61345 -2.47712 0
M  V30 5607 C 526.998 -2.34666 -3.76094 0
M  V30 5608 H 524.218 -0.476103 -0.472828 0
M  V30 5609 H 526.762 -1.82883 -0.9151 0
M  V30 5610 H 524.917 -1.86018 -3.39818 0
M  V30 5611 H 525.331 -4.07194 -3.30595 0
M  V30 5612 H 526.805 -2.99663 -4.63579 0
M  V30 5613 H 527.282 -1.36426 -4.17474 0
M  V30 5614 H 527.888 -2.75236 -3.2423 0
M  V30 5615 N 526.204 0.969867 -1.24223 0
M  V30 5616 C 527.451 1.71256 -1.08063 0
M  V30 5617 C 527.779 1.90734 0.380872 0
M  V30 5618 O 527.034 1.46469 1.29789 0
M  V30 5619 C 527.333 3.10883 -1.76314 0
M  V30 5620 C 526.999 3.11252 -3.26241 0
M  V30 5621 C 525.661 3.1106 -3.67144 0
M  V30 5622 C 528.013 3.05751 -4.22097 0
M  V30 5623 C 525.341 3.03097 -5.02344 0
M  V30 5624 C 527.693 2.9933 -5.57301 0
M  V30 5625 C 526.357 2.97466 -5.97554 0
M  V30 5626 H 525.627 0.62667 -0.395431 0
M  V30 5627 H 528.274 1.13422 -1.54297 0
M  V30 5628 H 526.579 3.72168 -1.22468 0
M  V30 5629 H 528.276 3.67138 -1.61277 0
M  V30 5630 H 524.866 3.12165 -2.93685 0
M  V30 5631 H 529.05 3.05031 -3.91497 0
M  V30 5632 H 524.306 3.00013 -5.32731 0
M  V30 5633 H 528.48 2.94033 -6.31283 0
M  V30 5634 H 526.107 2.91051 -7.02277 0
M  V30 5635 N 527.682 1.05563 1.17022 0
M  V30 5636 C 528.63 0.653887 2.2322 0
M  V30 5637 C 529.624 -0.326642 1.66221 0
M  V30 5638 O 530.83 -0.192301 1.7897 0
M  V30 5639 H 527.205 0.193297 0.726733 0
M  V30 5640 H 529.176 1.5596 2.54399 0
M  V30 5641 C 527.925 0.0485434 3.47666 0
M  V30 5642 H 527.248 0.79413 3.91834 0
M  V30 5643 H 528.688 -0.195133 4.23551 0
M  V30 5644 C 527.147 -1.20583 3.14581 0
M  V30 5645 O 527.677 -2.29475 3.29703 0
M  V30 5646 N 525.883 -1.10493 2.68774 0
M  V30 5647 H 525.43 -0.218795 2.56669 0
M  V30 5648 H 525.388 -1.94507 2.47011 0
M  V30 5649 N 529.16 -1.33526 0.837174 0
M  V30 5650 C 530.407 -1.97837 0.432064 0
M  V30 5651 C 530.735 -1.66324 -1.00829 0
M  V30 5652 O 529.99 -0.93448 -1.71948 0
M  V30 5653 C 530.289 -3.52367 0.597675 0
M  V30 5654 C 529.955 -4.03826 2.00587 0
M  V30 5655 C 528.617 -4.1759 2.39106 0
M  V30 5656 C 530.969 -4.31333 2.92576 0
M  V30 5657 C 528.297 -4.56195 3.68921 0
M  V30 5658 C 530.649 -4.7139 4.2187 0
M  V30 5659 C 529.313 -4.8336 4.60347 0
M  V30 5660 H 528.583 -0.723937 0.158104 0
M  V30 5661 H 531.23 -1.5923 1.06387 0
M  V30 5662 H 529.535 -3.91624 -0.117452 0
M  V30 5663 H 531.232 -4.00126 0.26454 0
M  V30 5664 H 527.822 -3.93586 1.69671 0
M  V30 5665 H 532.006 -4.20224 2.64056 0
M  V30 5666 H 527.262 -4.63655 3.9854 0
M  V30 5667 H 531.436 -4.91631 4.93226 0
M  V30 5668 H 529.063 -5.1303 5.60985 0
M  V30 5669 N 530.638 -0.59345 -1.46 0
M  V30 5670 C 531.886 -0.082988 -2.0193 0
M  V30 5671 C 532.207 1.28569 -1.46612 0
M  V30 5672 O 531.477 1.84629 -0.654909 0
M  V30 5673 H 530.057 -0.0276882 -0.746487 0
M  V30 5674 H 532.719 -0.771657 -1.78973 0
M  V30 5675 H 531.815 -0.022079 -3.12092 0
M  V30 5676 N 532.116 1.54067 -0.331816 0
M  V30 5677 C 533.341 2.05599 0.272705 0
M  V30 5678 C 533.766 1.2059 1.44359 0
M  V30 5679 O 533.124 0.216907 1.79998 0
M  V30 5680 C 533.172 3.54188 0.677021 0
M  V30 5681 O 532.276 3.72082 1.77844 0
M  V30 5682 H 531.617 0.662286 0.0476801 0
M  V30 5683 H 534.147 1.98826 -0.482624 0
M  V30 5684 H 534.157 3.96608 0.957415 0
M  V30 5685 H 532.832 4.15513 -0.179325 0
M  V30 5686 H 531.409 3.41566 1.49622 0
M  V30 5687 N 533.594 0.0601682 1.57485 0
M  V30 5688 C 534.504 -0.926121 2.15546 0
M  V30 5689 C 535.52 -1.33532 1.11558 0
M  V30 5690 O 536.696 -1.4104 1.4377 0
M  V30 5691 C 533.761 -2.17952 2.69625 0
M  V30 5692 C 532.822 -1.82783 3.88444 0
M  V30 5693 C 532.055 -3.02148 4.39935 0
M  V30 5694 O 532.278 -4.15803 3.90466 0
M  V30 5695 O 531.212 -2.82639 5.31412 0
M  V30 5696 H 535.038 -0.462289 3.00161 0
M  V30 5697 H 532.623 -0.162246 1.48516 0
M  V30 5698 H 534.505 -2.91474 3.04337 0
M  V30 5699 H 533.18 -2.63456 1.88077 0
M  V30 5700 H 532.087 -1.06549 3.58606 0
M  V30 5701 H 533.42 -1.42072 4.7125 0
M  V30 5702 N 535.072 -1.5615 -0.213296 0
M  V30 5703 C 536.004 -1.89586 -1.28802 0
M  V30 5704 C 537.017 -0.784844 -1.42633 0
M  V30 5705 O 538.206 -1.06319 -1.43383 0
M  V30 5706 C 535.306 -2.09665 -2.66259 0
M  V30 5707 C 534.479 -3.40726 -2.7427 0
M  V30 5708 C 533.538 -3.50137 -3.92798 0
M  V30 5709 O 532.564 -4.23105 -3.8075 0
M  V30 5710 N 533.766 -2.81886 -5.07465 0
M  V30 5711 H 536.531 -2.82368 -1.00442 0
M  V30 5712 H 534.092 -1.56796 -0.403302 0
M  V30 5713 H 536.084 -2.13268 -3.43946 0
M  V30 5714 H 534.654 -1.23469 -2.87183 0
M  V30 5715 H 533.874 -3.4915 -1.82997 0
M  V30 5716 H 535.162 -4.27048 -2.76599 0
M  V30 5717 H 534.56 -2.22397 -5.2015 0
M  V30 5718 H 533.117 -2.91139 -5.83165 0
M  V30 5719 N 536.55 0.480323 -1.50102 0
M  V30 5720 C 537.46 1.60547 -1.71061 0
M  V30 5721 C 538.476 1.63564 -0.593529 0
M  V30 5722 O 539.652 1.81604 -0.870751 0
M  V30 5723 C 536.717 2.96814 -1.79171 0
M  V30 5724 C 535.778 3.04259 -3.02861 0
M  V30 5725 C 535.011 4.34027 -3.10574 0
M  V30 5726 O 535.234 5.24009 -2.25323 0
M  V30 5727 O 534.168 4.46873 -4.03223 0
M  V30 5728 H 537.994 1.45788 -2.6642 0
M  V30 5729 H 535.579 0.658838 -1.34088 0
M  V30 5730 H 537.461 3.77765 -1.86738 0
M  V30 5731 H 536.136 3.11791 -0.869947 0
M  V30 5732 H 535.043 2.22419 -3.008 0
M  V30 5733 H 536.376 2.94216 -3.94586 0
M  V30 5734 N 538.028 1.39524 0.732853 0
M  V30 5735 C 538.991 1.38189 1.82857 0
M  V30 5736 C 539.991 0.278624 1.58368 0
M  V30 5737 O 541.181 0.536639 1.65728 0
M  V30 5738 C 538.313 1.15661 3.2068 0
M  V30 5739 H 539.506 2.35692 1.85444 0
M  V30 5740 H 537.059 1.2512 0.936728 0
M  V30 5741 H 537.794 0.188482 3.23752 0
M  V30 5742 H 537.579 1.95559 3.39852 0
M  V30 5743 H 539.069 1.17472 4.00737 0
M  V30 5744 N 539.506 -0.963266 1.24736 0
M  V30 5745 C 540.438 -2.06162 1.0015 0
M  V30 5746 C 541.451 -1.62771 -0.0305905 0
M  V30 5747 O 542.64 -1.77296 0.206966 0
M  V30 5748 C 539.74 -3.35333 0.490385 0
M  V30 5749 C 538.913 -4.07609 1.58663 0
M  V30 5750 C 537.972 -5.15052 1.0774 0
M  V30 5751 O 536.998 -5.4098 1.77002 0
M  V30 5752 N 538.2 -5.80436 -0.0858605 0
M  V30 5753 H 540.965 -2.27825 1.94719 0
M  V30 5754 H 538.526 -1.13121 1.15825 0
M  V30 5755 H 540.518 -4.04477 0.134371 0
M  V30 5756 H 539.088 -3.10507 -0.361155 0
M  V30 5757 H 538.308 -3.32681 2.11463 0
M  V30 5758 H 539.596 -4.52656 2.32336 0
M  V30 5759 H 538.994 -5.6178 -0.664806 0
M  V30 5760 H 537.551 -6.50674 -0.382981 0
M  V30 5761 N 540.985 -1.06182 -1.16461 0
M  V30 5762 C 541.895 -0.682671 -2.24448 0
M  V30 5763 C 542.911 0.30078 -1.71381 0
M  V30 5764 O 544.087 0.150376 -2.00838 0
M  V30 5765 C 541.152 -0.0737202 -3.46622 0
M  V30 5766 C 540.213 -1.10889 -4.14731 0
M  V30 5767 C 539.446 -0.528908 -5.31073 0
M  V30 5768 O 539.669 0.65868 -5.66584 0
M  V30 5769 O 538.603 -1.26805 -5.88391 0
M  V30 5770 H 542.429 -1.58291 -2.59187 0
M  V30 5771 H 540.014 -0.834013 -1.23954 0
M  V30 5772 H 541.896 0.264192 -4.20571 0
M  V30 5773 H 540.571 0.800015 -3.13658 0
M  V30 5774 H 539.478 -1.49896 -3.42756 0
M  V30 5775 H 540.811 -1.95412 -4.51747 0
M  V30 5776 N 542.463 1.3308 -0.844243 0
M  V30 5777 C 543.426 2.27403 -0.286485 0
M  V30 5778 C 544.426 1.51179 0.547872 0
M  V30 5779 O 545.616 1.70421 0.360886 0
M  V30 5780 C 542.748 3.35653 0.595813 0
M  V30 5781 H 543.941 2.78248 -1.11885 0
M  V30 5782 H 541.494 1.43574 -0.617749 0
M  V30 5783 H 542.229 2.90058 1.4504 0
M  V30 5784 H 542.014 3.921 -0.00125994 0
M  V30 5785 H 543.504 4.05958 0.979168 0
M  V30 5786 N 543.941 0.601185 1.45683 0
M  V30 5787 C 545.187 0.0940202 2.02582 0
M  V30 5788 C 545.52 -1.26972 1.46941 0
M  V30 5789 O 544.795 -1.83613 0.641612 0
M  V30 5790 C 545.078 0.0481715 3.60068 0
M  V30 5791 C 544.931 1.44212 4.26055 0
M  V30 5792 C 546.25 -0.642975 4.35378 0
M  V30 5793 H 543.369 0.0356404 0.736138 0
M  V30 5794 H 546.011 0.771929 1.73612 0
M  V30 5795 H 544.161 -0.529128 3.8488 0
M  V30 5796 H 545.833 2.06601 4.12449 0
M  V30 5797 H 544.076 2.00465 3.84703 0
M  V30 5798 H 544.747 1.36234 5.34925 0
M  V30 5799 H 547.223 -0.152351 4.15821 0
M  V30 5800 H 546.099 -0.644141 5.45107 0
M  V30 5801 H 546.36 -1.70785 4.0778 0
M  V30 5802 N 545.419 -1.53889 0.339982 0
M  V30 5803 C 546.349 -2.27843 -0.510856 0
M  V30 5804 C 547.33 -1.29267 -1.10563 0
M  V30 5805 O 548.515 -1.58104 -1.12768 0
M  V30 5806 C 545.645 -3.04857 -1.66372 0
M  V30 5807 C 544.599 -4.10907 -1.19746 0
M  V30 5808 C 543.925 -4.75855 -2.43857 0
M  V30 5809 C 545.225 -5.21435 -0.300501 0
M  V30 5810 H 546.919 -2.99212 0.106067 0
M  V30 5811 H 544.465 -1.43904 0.0524533 0
M  V30 5812 H 546.418 -3.5533 -2.26537 0
M  V30 5813 H 545.142 -2.31133 -2.30749 0
M  V30 5814 H 543.801 -3.61342 -0.618654 0
M  V30 5815 H 543.449 -3.9873 -3.06633 0
M  V30 5816 H 543.149 -5.47502 -2.13343 0
M  V30 5817 H 544.673 -5.2911 -3.04754 0
M  V30 5818 H 546.087 -5.67565 -0.80889 0
M  V30 5819 H 544.484 -6.00036 -0.0874076 0
M  V30 5820 H 545.554 -4.80328 0.664321 0
M  V30 5821 N 546.897 -0.0685191 -1.57451 0
M  V30 5822 C 548.122 0.613919 -1.98106 0
M  V30 5823 C 548.547 1.62551 -0.946501 0
M  V30 5824 O 547.905 1.81085 0.0882824 0
M  V30 5825 C 547.953 1.26189 -3.378 0
M  V30 5826 O 547.057 2.37773 -3.36954 0
M  V30 5827 H 546.398 0.158163 -0.644888 0
M  V30 5828 H 548.928 -0.142063 -2.04106 0
M  V30 5829 H 548.938 1.60951 -3.74912 0
M  V30 5830 H 547.613 0.520625 -4.12629 0
M  V30 5831 H 546.19 2.04829 -3.11608 0
M  V30 5832 N 548.375 1.56261 0.205012 0
M  V30 5833 C 549.624 1.79236 0.925058 0
M  V30 5834 C 549.937 0.640011 1.84833 0
M  V30 5835 O 551.143 0.753809 2.60826 0
M  V30 5836 C 549.599 3.17475 1.69522 0
M  V30 5837 C 549.207 4.40482 0.817269 0
M  V30 5838 C 550.951 3.49766 2.4055 0
M  V30 5839 C 548.858 5.69744 1.58573 0
M  V30 5840 H 547.788 0.668287 0.349153 0
M  V30 5841 H 550.439 1.82629 0.178544 0
M  V30 5842 H 548.821 3.08304 2.48526 0
M  V30 5843 H 549.995 4.60752 0.0665988 0
M  V30 5844 H 548.31 4.15827 0.218316 0
M  V30 5845 H 550.907 4.43573 2.98575 0
M  V30 5846 H 551.25 2.73041 3.14252 0
M  V30 5847 H 551.783 3.60341 1.68522 0
M  V30 5848 H 548.522 6.49407 0.891679 0
M  V30 5849 H 548.042 5.53509 2.31059 0
M  V30 5850 H 549.721 6.1051 2.14212 0
M  V30 5851 N 549.853 -0.472356 1.50355 0
M  V30 5852 C 551.102 -1.2213 1.60522 0
M  V30 5853 C 551.415 -1.9312 0.310466 0
M  V30 5854 O 552.621 -2.69936 0.291029 0
M  V30 5855 C 551.077 -2.21909 2.83345 0
M  V30 5856 C 550.685 -1.56727 4.19691 0
M  V30 5857 C 552.429 -2.97453 3.02856 0
M  V30 5858 C 550.336 -2.54785 5.33703 0
M  V30 5859 H 549.266 -0.459543 0.597776 0
M  V30 5860 H 551.917 -0.491922 1.76783 0
M  V30 5861 H 550.299 -2.98133 2.60639 0
M  V30 5862 H 551.473 -0.863007 4.52646 0
M  V30 5863 H 549.788 -0.934685 4.05774 0
M  V30 5864 H 552.385 -3.70838 3.85205 0
M  V30 5865 H 552.728 -3.56764 2.14534 0
M  V30 5866 H 553.261 -2.28342 3.25737 0
M  V30 5867 H 550 -2.00214 6.24175 0
M  V30 5868 H 549.52 -3.23367 5.05167 0
M  V30 5869 H 551.199 -3.16639 5.64224 0
M  V30 5870 N 551.331 -1.39911 -0.725443 0
M  V30 5871 C 552.58 -1.36963 -1.48068 0
M  V30 5872 C 552.893 0.0284478 -1.95579 0
M  V30 5873 O 554.099 0.180535 -2.70899 0
M  V30 5874 C 552.555 -2.40664 -2.67598 0
M  V30 5875 C 552.163 -3.86234 -2.26997 0
M  V30 5876 C 553.907 -2.46807 -3.45379 0
M  V30 5877 C 551.814 -4.81554 -3.43307 0
M  V30 5878 H 550.744 -0.509223 -0.556065 0
M  V30 5879 H 553.395 -1.65602 -0.790454 0
M  V30 5880 H 551.777 -2.05109 -3.38742 0
M  V30 5881 H 552.951 -4.3088 -1.63337 0
M  V30 5882 H 551.266 -3.83475 -1.62284 0
M  V30 5883 H 553.863 -3.15213 -4.31909 0
M  V30 5884 H 554.206 -1.49552 -3.8851 0
M  V30 5885 H 554.739 -2.81303 -2.81271 0
M  V30 5886 H 551.478 -5.80106 -3.05217 0
M  V30 5887 H 550.998 -4.4158 -4.05915 0
M  V30 5888 H 552.677 -5.0091 -4.0951 0
M  V30 5889 N 552.809 0.956637 -1.25245 0
M  V30 5890 C 554.086 1.67716 -1.00651 0
M  V30 5891 C 554.466 2.0585 0.467866 0
M  V30 5892 O 553.814 1.77029 1.44475 0
M  V30 5893 C 554.024 2.90093 -1.94028 0
M  V30 5894 C 555.372 3.6209 -2.21756 0
M  V30 5895 O 556.396 3.00171 -1.9177 0
M  V30 5896 O 555.255 4.7358 -2.72735 0
M  V30 5897 H 552.349 0.733731 -0.381533 0
M  V30 5898 H 554.895 1.00974 -1.3639 0
M  V30 5899 H 553.667 2.58689 -2.93591 0
M  V30 5900 H 553.29 3.64566 -1.58674 0
M  V30 5901 N 554.287 1.06798 1.15896 0
M  V30 5902 C 555.698 0.811355 1.68149 0
M  V30 5903 C 556.049 -0.664339 1.8461 0
M  V30 5904 O 555.174 -1.51485 1.54535 0
M  V30 5905 C 555.769 1.46624 3.05429 0
M  V30 5906 C 554.328 1.25726 3.54781 0
M  V30 5907 C 553.475 1.53949 2.3064 0
M  V30 5908 H 556.426 1.23078 1.00187 0
M  V30 5909 H 556.447 0.88437 3.7008 0
M  V30 5910 H 555.959 2.54025 2.93416 0
M  V30 5911 H 554.06 0.20322 3.72045 0
M  V30 5912 H 554.173 1.97354 4.36564 0
M  V30 5913 H 552.537 0.96025 2.35905 0
M  V30 5914 H 553.32 2.6252 2.2122 0
M  V30 5915 N 555.766 -1.3263 0.851289 0
M  V30 5916 C 556.713 -2.28952 0.291469 0
M  V30 5917 C 557.683 -1.54897 -0.599676 0
M  V30 5918 O 558.868 -1.83137 -0.535305 0
M  V30 5919 C 556.008 -3.41206 -0.516992 0
M  V30 5920 C 555.121 -4.30148 0.399566 0
M  V30 5921 C 554.256 -5.29527 -0.4212 0
M  V30 5922 C 553.295 -6.10112 0.492969 0
M  V30 5923 N 552.432 -7.01499 -0.290414 0
M  V30 5924 H 557.272 -2.76228 1.11813 0
M  V30 5925 H 554.809 -1.35907 0.562826 0
M  V30 5926 H 556.767 -4.05005 -1.00132 0
M  V30 5927 H 555.397 -2.9509 -1.30851 0
M  V30 5928 H 554.449 -3.66959 1.00227 0
M  V30 5929 H 555.761 -4.8649 1.1013 0
M  V30 5930 H 554.915 -5.98914 -0.968832 0
M  V30 5931 H 553.654 -4.73794 -1.15632 0
M  V30 5932 H 552.659 -5.39632 1.05251 0
M  V30 5933 H 553.884 -6.6793 1.22664 0
M  V30 5934 H 551.83 -6.48199 -1.00868 0
M  V30 5935 H 551.747 -7.55178 0.352354 0
M  V30 5936 H 553.015 -7.75176 -0.819882 0
M  V30 5937 N 557.244 -0.608902 -1.45362 0
M  V30 5938 C 558.492 -0.104401 -2.0183 0
M  V30 5939 C 558.813 1.27007 -1.47967 0
M  V30 5940 O 558.083 1.83924 -0.674455 0
M  V30 5941 H 556.663 -0.0356042 -0.746151 0
M  V30 5942 H 559.325 -0.790596 -1.78145 0
M  V30 5943 H 558.421 -0.0551793 -3.12051 0
M  V30 5944 N 558.722 1.53707 -0.348139 0
M  V30 5945 C 559.685 2.23812 0.494058 0
M  V30 5946 C 560.685 1.23989 1.02388 0
M  V30 5947 O 561.875 1.48395 0.912396 0
M  V30 5948 C 559.007 2.96133 1.68872 0
M  V30 5949 H 560.2 2.99663 -0.119141 0
M  V30 5950 H 557.753 1.55983 -0.0995539 0
M  V30 5951 H 558.488 2.24481 2.34049 0
M  V30 5952 H 558.273 3.69357 1.31596 0
M  V30 5953 H 559.763 3.49475 2.28597 0
M  V30 5954 N 560.2 0.0768682 1.57412 0
M  V30 5955 C 561.449 -0.590679 1.92857 0
M  V30 5956 C 561.762 -1.70461 0.959293 0
M  V30 5957 O 562.968 -2.43207 1.20675 0
M  V30 5958 C 561.424 -1.10204 3.42612 0
M  V30 5959 C 561.032 -0.0188447 4.47996 0
M  V30 5960 C 562.776 -1.74336 3.87049 0
M  V30 5961 C 560.683 -0.544536 5.88888 0
M  V30 5962 H 559.613 -0.224411 0.71983 0
M  V30 5963 H 562.264 0.149924 1.82887 0
M  V30 5964 H 560.646 -1.89577 3.47673 0
M  V30 5965 H 561.82 0.755936 4.54557 0
M  V30 5966 H 560.135 0.526555 4.13057 0
M  V30 5967 H 562.732 -2.14708 4.89699 0
M  V30 5968 H 563.075 -2.60537 3.24694 0
M  V30 5969 H 563.608 -1.01577 3.84613 0
M  V30 5970 H 560.347 0.280426 6.549 0
M  V30 5971 H 559.867 -1.28673 5.85836 0
M  V30 5972 H 561.546 -1.01933 6.3892 0
M  V30 5973 N 561.678 -1.56367 -0.196722 0
M  V30 5974 C 562.588 -1.97617 -1.2643 0
M  V30 5975 C 563.604 -0.883598 -1.49895 0
M  V30 5976 O 564.78 -1.18921 -1.62541 0
M  V30 5977 C 561.845 -2.30595 -2.58895 0
M  V30 5978 C 560.906 -3.53551 -2.43516 0
M  V30 5979 C 560.139 -3.84946 -3.69665 0
M  V30 5980 O 560.362 -3.17655 -4.73763 0
M  V30 5981 O 559.296 -4.78379 -3.65291 0
M  V30 5982 H 563.122 -2.88648 -0.944233 0
M  V30 5983 H 560.707 -1.43901 -0.401592 0
M  V30 5984 H 562.589 -2.52889 -3.37083 0
M  V30 5985 H 561.264 -1.42732 -2.90533 0
M  V30 5986 H 560.171 -3.36507 -1.63445 0
M  V30 5987 H 561.504 -4.41875 -2.16812 0
M  V30 5988 N 563.156 0.464375 -1.50603 0
M  V30 5989 C 564.086 1.56944 -1.72889 0
M  V30 5990 C 565.067 1.59979 -0.577997 0
M  V30 5991 O 566.252 1.76138 -0.817855 0
M  V30 5992 C 563.382 2.95225 -1.8292 0
M  V30 5993 C 562.336 3.07056 -2.98162 0
M  V30 5994 C 561.662 4.47051 -2.93343 0
M  V30 5995 C 562.962 2.83648 -4.38567 0
M  V30 5996 H 564.656 1.38547 -2.65415 0
M  V30 5997 H 562.202 0.665082 -1.27721 0
M  V30 5998 H 564.155 3.72467 -1.97095 0
M  V30 5999 H 562.879 3.14793 -0.870209 0
M  V30 6000 H 561.538 2.32248 -2.83648 0
M  V30 6001 H 561.186 4.63547 -1.95276 0
M  V30 6002 H 560.886 4.55902 -3.70712 0
M  V30 6003 H 562.41 5.26304 -3.09575 0
M  V30 6004 H 563.824 3.50636 -4.53572 0
M  V30 6005 H 562.221 3.03937 -5.17438 0
M  V30 6006 H 563.291 1.79451 -4.50472 0
M  V30 6007 N 564.634 1.40294 0.718013 0
M  V30 6008 C 565.581 1.40367 1.8321 0
M  V30 6009 C 566.551 0.260952 1.64037 0
M  V30 6010 O 567.736 0.458648 1.85205 0
M  V30 6011 C 564.876 1.26965 3.20895 0
M  V30 6012 C 563.989 2.50922 3.51656 0
M  V30 6013 C 563.124 2.29981 4.78834 0
M  V30 6014 C 562.163 3.49527 5.02491 0
M  V30 6015 N 561.3 3.27796 6.20882 0
M  V30 6016 H 566.14 2.35593 1.82482 0
M  V30 6017 H 563.677 1.17012 0.891444 0
M  V30 6018 H 565.635 1.17202 4.00399 0
M  V30 6019 H 564.265 0.353591 3.20858 0
M  V30 6020 H 563.317 2.71223 2.66725 0
M  V30 6021 H 564.629 3.39913 3.65048 0
M  V30 6022 H 563.783 2.17558 5.66351 0
M  V30 6023 H 562.522 1.38411 4.67647 0
M  V30 6024 H 561.527 3.6243 4.1343 0
M  V30 6025 H 562.752 4.42021 5.15553 0
M  V30 6026 H 560.698 2.38906 6.1095 0
M  V30 6027 H 560.615 4.10351 6.34939 0
M  V30 6028 H 561.883 3.19101 7.11193 0
M  V30 6029 N 566.112 -0.949982 1.2575 0
M  V30 6030 C 567.042 -2.06483 1.09028 0
M  V30 6031 C 568.023 -1.701 -0.00201532 0
M  V30 6032 O 569.208 -1.93469 0.168383 0
M  V30 6033 C 566.338 -3.39899 0.71316 0
M  V30 6034 C 565.292 -3.90309 1.75621 0
M  V30 6035 C 564.618 -5.20274 1.23365 0
M  V30 6036 C 565.918 -4.16169 3.15596 0
M  V30 6037 H 567.612 -2.20731 2.02283 0
M  V30 6038 H 565.158 -1.06066 0.973964 0
M  V30 6039 H 567.111 -4.17346 0.58309 0
M  V30 6040 H 565.835 -3.25602 -0.255091 0
M  V30 6041 H 564.494 -3.15035 1.8748 0
M  V30 6042 H 564.142 -5.02351 0.255491 0
M  V30 6043 H 563.842 -5.54971 1.93082 0
M  V30 6044 H 565.366 -6.00314 1.11607 0
M  V30 6045 H 566.78 -4.84259 3.06864 0
M  V30 6046 H 565.177 -4.62131 3.82825 0
M  V30 6047 H 566.247 -3.22273 3.6231 0
M  V30 6048 N 567.59 -1.07411 -1.15328 0
M  V30 6049 C 568.538 -0.689316 -2.22151 0
M  V30 6050 C 569.532 0.300156 -1.6672 0
M  V30 6051 O 570.738 0.163804 -1.79253 0
M  V30 6052 H 567.113 -0.204834 -0.723566 0
M  V30 6053 H 569.084 -1.59988 -2.51886 0
M  V30 6054 C 567.833 -0.103848 -3.47545 0
M  V30 6055 H 567.156 -0.856367 -3.90521 0
M  V30 6056 H 568.596 0.127725 -4.23808 0
M  V30 6057 C 567.055 1.15563 -3.1646 0
M  V30 6058 O 567.585 2.242 -3.33312 0
M  V30 6059 N 565.791 1.06203 -2.70498 0
M  V30 6060 H 565.338 0.177933 -2.56985 0
M  V30 6061 H 565.296 1.90553 -2.50074 0
M  V30 6062 N 569.068 1.32177 -0.85831 0
M  V30 6063 C 570.031 2.27086 -0.310588 0
M  V30 6064 C 571.031 1.51751 0.531806 0
M  V30 6065 O 572.221 1.70794 0.34279 0
M  V30 6066 C 569.353 3.36266 0.560179 0
M  V30 6067 H 570.546 2.77045 -1.1483 0
M  V30 6068 H 568.099 1.42911 -0.632942 0
M  V30 6069 H 568.834 2.9158 1.41956 0
M  V30 6070 H 568.619 3.92077 -0.0428473 0
M  V30 6071 H 570.109 4.06974 0.936056 0
M  V30 6072 N 570.547 0.616602 1.45037 0
M  V30 6073 C 571.494 -0.0969439 2.30596 0
M  V30 6074 C 572.464 -0.851151 1.42635 0
M  V30 6075 O 573.649 -0.835092 1.71554 0
M  V30 6076 C 570.789 -1.08234 3.27688 0
M  V30 6077 C 569.902 -0.328072 4.30752 0
M  V30 6078 C 569.037 -1.30399 5.14946 0
M  V30 6079 C 568.076 -0.538049 6.09731 0
M  V30 6080 N 567.213 -1.46371 6.86673 0
M  V30 6081 H 572.053 0.63864 2.91076 0
M  V30 6082 H 569.59 0.326733 1.43425 0
M  V30 6083 H 571.548 -1.66688 3.82454 0
M  V30 6084 H 570.178 -1.78523 2.68941 0
M  V30 6085 H 569.23 0.372136 3.78575 0
M  V30 6086 H 570.542 0.269142 4.98073 0
M  V30 6087 H 569.696 -1.96032 5.74157 0
M  V30 6088 H 568.435 -1.93514 4.47665 0
M  V30 6089 H 567.44 0.131852 5.49642 0
M  V30 6090 H 568.665 0.0881732 6.79043 0
M  V30 6091 H 566.611 -2.08233 6.22073 0
M  V30 6092 H 566.528 -0.920152 7.50379 0
M  V30 6093 H 567.796 -2.10932 7.50418 0
M  V30 6094 N 572.025 -1.5352 0.356285 0
M  V30 6095 C 573.25 -2.06007 -0.239961 0
M  V30 6096 C 573.675 -1.22872 -1.42422 0
M  V30 6097 O 573.033 -0.245516 -1.7963 0
M  V30 6098 C 573.081 -3.5522 -0.620587 0
M  V30 6099 O 572.185 -3.74864 -1.71902 0
M  V30 6100 H 571.526 -0.662961 -0.0371377 0
M  V30 6101 H 574.056 -1.98033 0.514194 0
M  V30 6102 H 574.066 -3.98081 -0.894197 0
M  V30 6103 H 572.741 -4.15175 0.245407 0
M  V30 6104 H 571.318 -3.43904 -1.44169 0
M  V30 6105 N 573.503 -0.0852151 -1.57369 0
M  V30 6106 C 574.749 0.581666 -1.94279 0
M  V30 6107 C 575.082 1.68444 -0.966446 0
M  V30 6108 O 574.357 1.945 0.00215277 0
M  V30 6109 C 574.64 1.14609 -3.41375 0
M  V30 6110 C 574.493 0.0490414 -4.49773 0
M  V30 6111 C 575.812 2.04751 -3.8957 0
M  V30 6112 H 572.931 0.209972 -0.706456 0
M  V30 6113 H 575.573 -0.153915 -1.89376 0
M  V30 6114 H 573.723 1.77297 -3.45685 0
M  V30 6115 H 575.395 -0.584721 -4.57579 0
M  V30 6116 H 573.638 -0.618638 -4.29366 0
M  V30 6117 H 574.309 0.484601 -5.49869 0
M  V30 6118 H 576.785 1.51981 -3.87351 0
M  V30 6119 H 575.661 2.41173 -4.93079 0
M  V30 6120 H 575.922 2.96107 -3.28288 0
M  V30 6121 N 574.981 1.5647 0.188427 0
M  V30 6122 C 575.891 1.98285 1.2538 0
M  V30 6123 C 576.907 0.891535 1.49424 0
M  V30 6124 O 578.083 1.19782 1.61908 0
M  V30 6125 C 575.148 2.31965 2.57669 0
M  V30 6126 C 574.209 3.54838 2.41638 0
M  V30 6127 C 573.442 3.86901 3.67618 0
M  V30 6128 O 573.665 3.20163 4.72072 0
M  V30 6129 O 572.599 4.80309 3.62749 0
M  V30 6130 H 576.425 2.89145 0.928912 0
M  V30 6131 H 574.01 1.44112 0.393955 0
M  V30 6132 H 575.892 2.54673 3.35737 0
M  V30 6133 H 574.567 1.44271 2.89771 0
M  V30 6134 H 573.474 3.37369 1.61658 0
M  V30 6135 H 574.807 4.43019 2.14465 0
M  V30 6136 N 576.459 -0.456382 1.50847 0
M  V30 6137 C 577.736 -1.21739 1.53098 0
M  V30 6138 C 578.116 -2.09179 0.284132 0
M  V30 6139 O 577.464 -2.16466 -0.731773 0
M  V30 6140 C 577.674 -2.03573 2.83477 0
M  V30 6141 C 579.022 -2.61264 3.34703 0
M  V30 6142 O 580.046 -2.13802 2.84898 0
M  V30 6143 O 578.905 -3.47779 4.21559 0
M  V30 6144 H 575.999 -0.553219 0.614718 0
M  V30 6145 H 578.545 -0.467003 1.63148 0
M  V30 6146 H 577.317 -1.39232 3.65691 0
M  V30 6147 H 576.94 -2.85716 2.76499 0
M  V30 6148 N 577.937 -1.40673 -0.710563 0
M  V30 6149 C 578.9 -1.4108 -1.80635 0
M  V30 6150 C 579.9 -0.303783 -1.57904 0
M  V30 6151 O 581.09 -0.562937 -1.64853 0
M  V30 6152 C 578.222 -1.20748 -3.18799 0
M  V30 6153 H 579.415 -2.38612 -1.81671 0
M  V30 6154 H 576.968 -1.26595 -0.916704 0
M  V30 6155 H 577.703 -0.239964 -3.23411 0
M  V30 6156 H 577.488 -2.00941 -3.36698 0
M  V30 6157 H 578.978 -1.23833 -3.98817 0
M  V30 6158 N 579.415 0.9433 -1.26252 0
M  V30 6159 C 580.662 1.68925 -1.11672 0
M  V30 6160 C 580.99 1.91499 0.340329 0
M  V30 6161 O 580.245 1.49189 1.26653 0
M  V30 6162 C 580.544 3.07073 -1.82868 0
M  V30 6163 C 580.21 3.04262 -3.32769 0
M  V30 6164 C 578.872 3.03203 -3.7366 0
M  V30 6165 C 581.224 2.96729 -4.28487 0
M  V30 6166 C 578.552 2.92373 -5.0866 0
M  V30 6167 C 580.904 2.87442 -5.63525 0
M  V30 6168 C 579.568 2.84724 -6.03729 0
M  V30 6169 H 578.838 0.618141 -0.408635 0
M  V30 6170 H 581.485 1.10124 -1.56668 0
M  V30 6171 H 579.79 3.69486 -1.30335 0
M  V30 6172 H 581.487 3.63635 -1.69029 0
M  V30 6173 H 578.077 3.05865 -3.00241 0
M  V30 6174 H 582.261 2.96658 -3.97879 0
M  V30 6175 H 577.517 2.88645 -5.38975 0
M  V30 6176 H 581.691 2.80576 -6.37377 0
M  V30 6177 H 579.318 2.76089 -7.08293 0
M  V30 6178 N 580.893 1.08022 1.14757 0
M  V30 6179 C 581.841 0.701088 2.21783 0
M  V30 6180 C 582.835 -0.291311 1.66876 0
M  V30 6181 O 584.041 -0.154296 1.79337 0
M  V30 6182 H 580.416 0.208668 0.722469 0
M  V30 6183 H 582.387 1.61321 2.51034 0
M  V30 6184 C 581.136 0.122278 3.47485 0
M  V30 6185 H 580.459 0.877065 3.90061 0
M  V30 6186 H 581.899 -0.105248 4.23869 0
M  V30 6187 C 580.358 -1.13883 3.17068 0
M  V30 6188 O 580.888 -2.22429 3.34497 0
M  V30 6189 N 579.094 -1.04767 2.71058 0
M  V30 6190 H 578.641 -0.164302 2.57075 0
M  V30 6191 H 578.599 -1.89224 2.51081 0
M  V30 6192 N 582.371 -1.3172 0.865308 0
M  V30 6193 C 583.599 -2.01057 0.488251 0
M  V30 6194 C 584.014 -1.64979 -0.918 0
M  V30 6195 O 583.371 -0.876597 -1.60069 0
M  V30 6196 C 583.422 -3.55964 0.630224 0
M  V30 6197 O 583.143 -3.90749 1.98109 0
M  V30 6198 C 584.644 -4.42574 0.253567 0
M  V30 6199 H 581.864 -0.64332 0.190736 0
M  V30 6200 H 584.408 -1.68058 1.16519 0
M  V30 6201 H 582.563 -3.874 0.000895422 0
M  V30 6202 H 582.977 -4.85467 1.9855 0
M  V30 6203 H 584.451 -5.50521 0.403875 0
M  V30 6204 H 584.928 -4.31724 -0.806895 0
M  V30 6205 H 585.534 -4.16547 0.858404 0
M  V30 6206 N 583.85 -0.624285 -1.44708 0
M  V30 6207 C 585.266 -0.289322 -1.56956 0
M  V30 6208 C 585.466 1.20773 -1.61295 0
M  V30 6209 O 584.522 1.9915 -1.55227 0
M  V30 6210 C 585.835 -0.975215 -2.84447 0
M  V30 6211 C 587.383 -0.952709 -2.98148 0
M  V30 6212 C 587.858 -1.61893 -4.28433 0
M  V30 6213 N 589.349 -1.5852 -4.35231 0
M  V30 6214 C 590.084 -2.06969 -5.34744 0
M  V30 6215 N 589.58 -2.63579 -6.40701 0
M  V30 6216 N 591.373 -1.97638 -5.26209 0
M  V30 6217 H 583.524 -1.59612 -1.40135 0
M  V30 6218 H 585.787 -0.669592 -0.671081 0
M  V30 6219 H 585.493 -2.02999 -2.87201 0
M  V30 6220 H 585.367 -0.508749 -3.73753 0
M  V30 6221 H 587.754 0.093568 -2.94952 0
M  V30 6222 H 587.835 -1.4576 -2.10209 0
M  V30 6223 H 587.479 -2.66463 -4.32389 0
M  V30 6224 H 587.409 -1.08893 -5.15218 0
M  V30 6225 H 589.899 -1.17183 -3.59272 0
M  V30 6226 H 590.213 -2.98298 -7.12908 0
M  V30 6227 H 588.558 -2.67626 -6.41406 0
M  V30 6228 H 591.749 -1.5314 -4.42341 0
M  V30 6229 H 591.922 -2.35708 -6.03611 0
M  V30 6230 N 585.328 1.53329 -0.364422 0
M  V30 6231 C 586.556 2.05657 0.226424 0
M  V30 6232 C 586.971 1.23801 1.42544 0
M  V30 6233 O 586.328 0.27839 1.80364 0
M  V30 6234 C 586.379 3.56125 0.621056 0
M  V30 6235 O 586.1 4.34879 -0.530304 0
M  V30 6236 C 587.601 4.24706 1.27041 0
M  V30 6237 H 584.821 0.669806 0.0400056 0
M  V30 6238 H 587.365 1.97714 -0.522456 0
M  V30 6239 H 585.52 3.64223 1.31985 0
M  V30 6240 H 585.934 5.24073 -0.211546 0
M  V30 6241 H 587.408 5.3131 1.49711 0
M  V30 6242 H 587.885 3.78354 2.23036 0
M  V30 6243 H 588.491 4.20858 0.613079 0
M  V30 6244 N 586.806 0.0935595 1.57322 0
M  V30 6245 C 588.055 -0.570191 1.93473 0
M  V30 6246 C 588.368 -1.69434 0.977318 0
M  V30 6247 O 589.574 -2.41914 1.23248 0
M  V30 6248 C 588.03 -1.06564 3.43762 0
M  V30 6249 C 587.638 0.0286723 4.47991 0
M  V30 6250 C 589.382 -1.70221 3.88877 0
M  V30 6251 C 587.289 -0.482046 5.89432 0
M  V30 6252 H 586.219 -0.216764 0.72217 0
M  V30 6253 H 588.87 0.169313 1.82717 0
M  V30 6254 H 587.252 -1.85878 3.49664 0
M  V30 6255 H 588.426 0.804106 4.5373 0
M  V30 6256 H 586.741 0.570336 4.12476 0
M  V30 6257 H 589.338 -2.09502 4.91948 0
M  V30 6258 H 589.681 -2.57078 3.27439 0
M  V30 6259 H 590.214 -0.974919 3.85668 0
M  V30 6260 H 586.953 0.349871 6.54566 0
M  V30 6261 H 586.473 -1.22452 5.87167 0
M  V30 6262 H 588.152 -0.951508 6.39965 0
M  V30 6263 N 588.284 -1.56567 -0.180126 0
M  V30 6264 C 589.561 -1.7235 -0.924931 0
M  V30 6265 C 589.941 -0.652523 -2.00762 0
M  V30 6266 O 589.289 0.334115 -2.26044 0
M  V30 6267 C 589.499 -3.1523 -1.49771 0
M  V30 6268 C 590.847 -3.75921 -1.97405 0
M  V30 6269 O 591.871 -3.18452 -1.59583 0
M  V30 6270 O 590.73 -4.7681 -2.67048 0
M  V30 6271 H 587.824 -0.703502 -0.434758 0
M  V30 6272 H 590.37 -1.6886 -0.168647 0
M  V30 6273 H 589.142 -3.84656 -0.718027 0
M  V30 6274 H 588.765 -3.23009 -2.31842 0
M  V30 6275 N 589.762 0.448376 -1.51087 0
M  V30 6276 C 590.692 1.55102 -1.74544 0
M  V30 6277 C 591.673 1.59357 -0.594932 0
M  V30 6278 O 592.858 1.75261 -0.836491 0
M  V30 6279 C 589.988 2.93268 -1.86041 0
M  V30 6280 C 588.942 3.03877 -3.01402 0
M  V30 6281 C 588.268 4.43914 -2.98068 0
M  V30 6282 C 589.568 2.7898 -4.41551 0
M  V30 6283 H 591.262 1.35724 -2.66869 0
M  V30 6284 H 588.808 0.651498 -1.28419 0
M  V30 6285 H 590.761 3.70356 -2.01034 0
M  V30 6286 H 589.485 3.13853 -0.903548 0
M  V30 6287 H 588.144 2.29227 -2.86096 0
M  V30 6288 H 587.792 4.6145 -2.00182 0
M  V30 6289 H 587.492 4.51944 -3.75527 0
M  V30 6290 H 589.016 5.22991 -3.1514 0
M  V30 6291 H 590.43 3.45805 -4.57265 0
M  V30 6292 H 588.827 2.98431 -5.20633 0
M  V30 6293 H 589.897 1.74663 -4.5235 0
M  V30 6294 N 591.24 1.41047 0.703093 0
M  V30 6295 C 592.488 1.39723 1.4602 0
M  V30 6296 C 592.809 0.00461257 1.94999 0
M  V30 6297 O 592.079 -0.952292 1.71196 0
M  V30 6298 H 590.659 0.514281 0.541779 0
M  V30 6299 H 593.321 1.76217 0.832678 0
M  V30 6300 H 592.417 2.07982 2.32701 0
M  V30 6301 N 592.718 -0.936591 1.26751 0
M  V30 6302 C 593.964 -1.68625 1.13741 0
M  V30 6303 C 594.319 -1.898 -0.315221 0
M  V30 6304 O 593.612 -1.47088 -1.22783 0
M  V30 6305 C 593.806 -3.06099 1.84494 0
M  V30 6306 C 593.635 -2.98338 3.36488 0
M  V30 6307 C 592.405 -3.01104 4.05789 0
M  V30 6308 C 594.603 -2.78128 4.32608 0
M  V30 6309 N 592.585 -2.8369 5.4442 0
M  V30 6310 C 593.956 -2.69329 5.58446 0
M  V30 6311 C 596.011 -2.62946 4.22804 0
M  V30 6312 C 594.714 -2.46899 6.75598 0
M  V30 6313 C 596.74 -2.41892 5.39669 0
M  V30 6314 C 596.102 -2.33829 6.64457 0
M  V30 6315 H 592.201 -0.624227 0.471025 0
M  V30 6316 H 594.785 -1.10798 1.601 0
M  V30 6317 H 592.956 -3.62057 1.40604 0
M  V30 6318 H 594.688 -3.69951 1.64067 0
M  V30 6319 H 591.443 -3.10992 3.57185 0
M  V30 6320 H 591.867 -2.78138 6.17226 0
M  V30 6321 H 596.509 -2.67944 3.27056 0
M  V30 6322 H 594.227 -2.40642 7.71438 0
M  V30 6323 H 597.813 -2.31043 5.33957 0
M  V30 6324 H 596.693 -2.17754 7.53361 0
M  V30 6325 N 594.196 -1.08629 -1.14182 0
M  V30 6326 C 595.424 -0.838889 -1.8913 0
M  V30 6327 C 595.839 0.609153 -1.78703 0
M  V30 6328 O 595.196 1.41876 -1.14794 0
M  V30 6329 C 595.247 -1.25477 -3.39025 0
M  V30 6330 O 594.968 -2.64601 -3.49167 0
M  V30 6331 C 596.469 -1.03856 -4.30963 0
M  V30 6332 H 593.689 -0.302377 -0.599007 0
M  V30 6333 H 596.233 -1.44615 -1.44592 0
M  V30 6334 H 594.388 -0.691571 -3.81177 0
M  V30 6335 H 594.802 -2.81922 -4.42289 0
M  V30 6336 H 596.276 -1.37892 -5.345 0
M  V30 6337 H 596.753 0.0242522 -4.39193 0
M  V30 6338 H 597.359 -1.58731 -3.94569 0
M  V30 6339 N 595.674 1.31259 -0.872281 0
M  V30 6340 C 596.92 1.96913 -0.485083 0
M  V30 6341 C 597.253 1.68774 0.960667 0
M  V30 6342 O 596.528 0.985495 1.67685 0
M  V30 6343 C 596.811 3.52299 -0.745502 0
M  V30 6344 C 596.664 3.90002 -2.24095 0
M  V30 6345 C 597.983 4.39582 -0.213516 0
M  V30 6346 H 595.102 0.715252 -0.177716 0
M  V30 6347 H 597.744 1.55347 -1.09395 0
M  V30 6348 H 595.894 3.87835 -0.227276 0
M  V30 6349 H 597.566 3.64555 -2.82661 0
M  V30 6350 H 595.809 3.38526 -2.71261 0
M  V30 6351 H 596.48 4.98352 -2.37381 0
M  V30 6352 H 598.956 4.10882 -0.656902 0
M  V30 6353 H 597.832 5.47251 -0.42516 0
M  V30 6354 H 598.093 4.33158 0.884666 0
M  V30 6355 N 597.152 0.631951 1.44375 0
M  V30 6356 C 598.377 0.142146 2.06912 0
M  V30 6357 C 598.802 -1.17456 1.4692 0
M  V30 6358 O 598.16 -1.72074 0.570975 0
M  V30 6359 C 598.208 0.0417952 3.60576 0
M  V30 6360 O 597.312 -1.00194 4.00044 0
M  V30 6361 H 596.653 0.0851491 0.658518 0
M  V30 6362 H 599.183 0.868863 1.85235 0
M  V30 6363 H 599.193 -0.148517 4.0773 0
M  V30 6364 H 597.868 1.0031 4.03622 0
M  V30 6365 H 596.445 -0.786131 3.64519 0
M  V30 6366 N 598.631 -1.53133 0.372548 0
M  V30 6367 C 599.908 -1.93704 -0.271693 0
M  V30 6368 C 600.288 -1.30667 -1.65799 0
M  V30 6369 O 599.636 -0.46838 -2.23648 0
M  V30 6370 C 599.846 -3.47576 -0.314903 0
M  V30 6371 C 601.194 -4.20998 -0.551912 0
M  V30 6372 O 602.218 -3.53994 -0.39582 0
M  V30 6373 O 601.077 -5.39748 -0.85639 0
M  V30 6374 H 598.171 -0.810457 -0.164586 0
M  V30 6375 H 600.717 -1.6427 0.425838 0
M  V30 6376 H 599.489 -3.85749 0.656792 0
M  V30 6377 H 599.112 -3.83264 -1.05804 0
M  V30 6378 N 600.109 -0.101901 -1.5727 0
M  V30 6379 C 601.019 0.868647 -2.17926 0
M  V30 6380 C 602.035 1.30527 -1.1506 0
M  V30 6381 O 603.211 1.37178 -1.47459 0
M  V30 6382 C 600.276 2.10727 -2.75309 0
M  V30 6383 C 599.337 1.7242 -3.93154 0
M  V30 6384 C 598.57 2.90377 -4.47791 0
M  V30 6385 O 598.793 4.05305 -4.01353 0
M  V30 6386 O 597.727 2.6845 -5.38719 0
M  V30 6387 H 601.553 0.382544 -3.01281 0
M  V30 6388 H 599.138 0.122812 -1.48894 0
M  V30 6389 H 601.02 2.83303 -3.11958 0
M  V30 6390 H 599.695 2.58376 -1.94996 0
M  V30 6391 H 598.602 0.970039 -3.61305 0
M  V30 6392 H 599.935 1.29528 -4.74851 0
M  V30 6393 N 601.587 1.56661 0.17182 0
M  V30 6394 C 602.864 1.72838 0.915778 0
M  V30 6395 C 603.244 0.66316 2.00413 0
M  V30 6396 O 602.592 -0.322123 2.26218 0
M  V30 6397 C 602.802 3.16019 1.48097 0
M  V30 6398 C 604.15 3.76962 1.95408 0
M  V30 6399 O 605.174 3.19294 1.57892 0
M  V30 6400 O 604.033 4.78219 2.64516 0
M  V30 6401 H 601.127 0.705797 0.431021 0
M  V30 6402 H 603.673 1.68947 0.159689 0
M  V30 6403 H 602.445 3.85031 0.697618 0
M  V30 6404 H 602.068 3.24234 2.30126 0
M  V30 6405 N 603.065 -0.440357 1.51323 0
M  V30 6406 C 604.012 -1.53429 1.72419 0
M  V30 6407 C 604.982 -1.56165 0.565826 0
M  V30 6408 O 606.167 -1.73222 0.799917 0
M  V30 6409 C 603.307 -2.91169 1.85242 0
M  V30 6410 C 602.42 -2.97985 3.12777 0
M  V30 6411 C 601.555 -4.26829 3.16212 0
M  V30 6412 C 600.594 -4.27501 4.38074 0
M  V30 6413 N 599.731 -5.47866 4.39076 0
M  V30 6414 H 604.571 -1.34743 2.65797 0
M  V30 6415 H 602.108 -0.654608 1.31732 0
M  V30 6416 H 604.066 -3.71087 1.90658 0
M  V30 6417 H 602.696 -3.0842 0.952744 0
M  V30 6418 H 601.748 -2.10749 3.16685 0
M  V30 6419 H 603.06 -2.94342 4.02696 0
M  V30 6420 H 602.214 -5.15118 3.20527 0
M  V30 6421 H 600.953 -4.33124 2.24176 0
M  V30 6422 H 599.958 -3.37606 4.33938 0
M  V30 6423 H 601.183 -4.22873 5.31371 0
M  V30 6424 H 599.129 -5.54887 3.49909 0
M  V30 6425 H 599.046 -5.46091 5.22801 0
M  V30 6426 H 600.314 -6.38195 4.4758 0
M  V30 6427 N 604.543 -1.41418 -0.695603 0
M  V30 6428 C 605.49 -1.43264 -1.80954 0
M  V30 6429 C 606.46 -0.287016 -1.63601 0
M  V30 6430 O 607.645 -0.488054 -1.84452 0
M  V30 6431 C 604.785 -1.32054 -3.18835 0
M  V30 6432 C 603.898 -2.56485 -3.4762 0
M  V30 6433 C 603.033 -2.3757 -4.75115 0
M  V30 6434 C 602.072 -3.57477 -4.96867 0
M  V30 6435 N 601.209 -3.37632 -6.15588 0
M  V30 6436 H 606.049 -2.38467 -1.78711 0
M  V30 6437 H 603.586 -1.18415 -0.872715 0
M  V30 6438 H 605.544 -1.23558 -3.98484 0
M  V30 6439 H 604.174 -0.404592 -3.20254 0
M  V30 6440 H 603.226 -2.75432 -2.62376 0
M  V30 6441 H 604.538 -3.45678 -3.59594 0
M  V30 6442 H 603.692 -2.2654 -5.62818 0
M  V30 6443 H 602.431 -1.45834 -4.65386 0
M  V30 6444 H 601.436 -3.68961 -4.07612 0
M  V30 6445 H 602.661 -4.50167 -5.08455 0
M  V30 6446 H 600.607 -2.48596 -6.07072 0
M  V30 6447 H 600.524 -4.20401 -6.2833 0
M  V30 6448 H 601.792 -3.30375 -7.06026 0
M  V30 6449 N 606.021 0.929856 -1.27246 0
M  V30 6450 C 606.969 2.05151 -1.09616 0
M  V30 6451 C 607.963 1.69388 -0.0198617 0
M  V30 6452 O 609.169 1.79124 -0.177417 0
M  V30 6453 H 605.544 0.671909 -0.337701 0
M  V30 6454 H 607.515 2.17168 -2.04648 0
M  V30 6455 C 606.264 3.3934 -0.757851 0
M  V30 6456 H 605.587 3.67343 -1.57795 0
M  V30 6457 H 607.027 4.18603 -0.674358 0
M  V30 6458 C 605.486 3.32582 0.537658 0
M  V30 6459 O 606.016 3.69633 1.57271 0
M  V30 6460 N 604.222 2.8568 0.532478 0
M  V30 6461 H 603.769 2.55725 -0.310233 0
M  V30 6462 H 603.727 2.81541 1.39936 0
M  V30 6463 N 607.499 1.09233 1.13605 0
M  V30 6464 C 608.727 0.848908 1.88683 0
M  V30 6465 C 609.142 -0.599667 1.79024 0
M  V30 6466 O 608.499 -1.41265 1.15544 0
M  V30 6467 C 608.55 1.27273 3.38355 0
M  V30 6468 O 608.271 2.66449 3.47759 0
M  V30 6469 C 609.772 1.0614 4.30406 0
M  V30 6470 H 606.992 0.305549 0.597395 0
M  V30 6471 H 609.536 1.4538 1.43823 0
M  V30 6472 H 607.691 0.711776 3.80805 0
M  V30 6473 H 608.105 2.84264 4.40788 0
M  V30 6474 H 609.579 1.40725 5.33761 0
M  V30 6475 H 610.056 -0.000960332 4.392 0
M  V30 6476 H 610.662 1.60821 3.93722 0
M  V30 6477 N 608.977 -1.30795 0.87923 0
M  V30 6478 C 610.388 -1.78535 0.546093 0
M  V30 6479 C 610.739 -1.72354 -0.937467 0
M  V30 6480 O 609.864 -1.2969 -1.73233 0
M  V30 6481 C 610.459 -3.24181 0.9845 0
M  V30 6482 C 609.018 -3.69779 0.702871 0
M  V30 6483 C 608.165 -2.51377 1.17068 0
M  V30 6484 H 611.116 -1.17746 1.06403 0
M  V30 6485 H 611.137 -3.79227 0.311045 0
M  V30 6486 H 610.649 -3.28647 2.06429 0
M  V30 6487 H 608.75 -3.70806 -0.365166 0
M  V30 6488 H 608.863 -4.61507 1.28639 0
M  V30 6489 H 607.227 -2.47768 0.590172 0
M  V30 6490 H 608.01 -2.58584 2.25808 0
M  V30 6491 N 610.455 -0.639598 -1.44038 0
M  V30 6492 C 611.365 0.0612377 -2.3452 0
M  V30 6493 C 612.381 0.826717 -1.53106 0
M  V30 6494 O 613.557 0.777059 -1.85806 0
M  V30 6495 C 610.622 1.02492 -3.31204 0
M  V30 6496 C 609.683 0.25788 -4.28525 0
M  V30 6497 C 608.916 1.17566 -5.2059 0
M  V30 6498 O 609.139 2.41461 -5.16771 0
M  V30 6499 O 608.073 0.655407 -5.98321 0
M  V30 6500 H 611.899 -0.68318 -2.95916 0
M  V30 6501 H 609.484 -0.399784 -1.43952 0
M  V30 6502 H 611.366 1.57911 -3.90694 0
M  V30 6503 H 610.041 1.7498 -2.7233 0
M  V30 6504 H 608.948 -0.339566 -3.72556 0
M  V30 6505 H 610.281 -0.427154 -4.90343 0
M  V30 6506 N 611.933 1.52934 -0.380664 0
M  V30 6507 C 613.344 1.86457 0.0952684 0
M  V30 6508 C 613.695 1.3007 1.46889 0
M  V30 6509 O 612.82 0.628636 2.07068 0
M  V30 6510 C 613.415 3.38323 0.179648 0
M  V30 6511 C 611.974 3.71589 0.599858 0
M  V30 6512 C 611.121 2.76228 -0.243572 0
M  V30 6513 H 614.072 1.46966 -0.59888 0
M  V30 6514 H 614.093 3.67113 1.00042 0
M  V30 6515 H 613.605 3.79333 -0.820228 0
M  V30 6516 H 611.706 3.36144 1.60742 0
M  V30 6517 H 611.819 4.77715 0.364003 0
M  V30 6518 H 610.183 2.53045 0.289855 0
M  V30 6519 H 610.966 3.20074 -1.24127 0
M  V30 6520 N 613.412 0.11024 1.57214 0
M  V30 6521 C 614.642 -0.557025 1.98949 0
M  V30 6522 C 615.05 -1.61317 0.988606 0
M  V30 6523 O 614.393 -1.83679 -0.0279159 0
M  V30 6524 C 614.455 -1.24956 3.37085 0
M  V30 6525 C 614.119 -0.342398 4.55716 0
M  V30 6526 C 615.116 0.415511 5.18237 0
M  V30 6527 C 612.801 -0.256029 5.01647 0
M  V30 6528 C 614.795 1.24761 6.25071 0
M  V30 6529 C 612.482 0.579713 6.08344 0
M  V30 6530 C 613.48 1.33017 6.69922 0
M  V30 6531 O 613.168 2.15205 7.74559 0
M  V30 6532 H 612.9 -0.152792 0.658506 0
M  V30 6533 H 615.454 0.19076 2.04512 0
M  V30 6534 H 613.684 -2.04424 3.2825 0
M  V30 6535 H 615.373 -1.81286 3.63167 0
M  V30 6536 H 616.139 0.358605 4.83672 0
M  V30 6537 H 612.018 -0.829831 4.5347 0
M  V30 6538 H 615.562 1.83386 6.73064 0
M  V30 6539 H 611.459 0.638044 6.42339 0
M  V30 6540 H 612.227 2.08052 7.91617 0
M  V30 6541 N 614.89 -1.56749 -0.16351 0
M  V30 6542 C 615.8 -2.00255 -1.2221 0
M  V30 6543 C 616.816 -0.915194 -1.47987 0
M  V30 6544 O 617.992 -1.22342 -1.59982 0
M  V30 6545 C 615.057 -2.36035 -2.53946 0
M  V30 6546 C 614.118 -3.58637 -2.35962 0
M  V30 6547 C 613.351 -3.92701 -3.61416 0
M  V30 6548 O 613.574 -3.27632 -4.66919 0
M  V30 6549 O 612.508 -4.86019 -3.55062 0
M  V30 6550 H 616.334 -2.90586 -0.882794 0
M  V30 6551 H 613.919 -1.44721 -0.370978 0
M  V30 6552 H 615.801 -2.59982 -3.31643 0
M  V30 6553 H 614.476 -1.48863 -2.8744 0
M  V30 6554 H 613.383 -3.39898 -1.5627 0
M  V30 6555 H 614.716 -4.46374 -2.0739 0
M  V30 6556 N 616.368 0.432326 -1.51554 0
M  V30 6557 C 617.784 0.769195 -1.39841 0
M  V30 6558 C 617.984 1.95584 -0.484675 0
M  V30 6559 O 617.04 2.52433 0.0582829 0
M  V30 6560 C 618.353 1.04487 -2.81963 0
M  V30 6561 C 619.901 1.149 -2.91148 0
M  V30 6562 C 620.376 1.45758 -4.34187 0
M  V30 6563 N 621.867 1.52671 -4.37317 0
M  V30 6564 C 622.602 1.78129 -5.4503 0
M  V30 6565 N 622.098 2.01345 -6.62897 0
M  V30 6566 N 623.891 1.79953 -5.32516 0
M  V30 6567 H 616.042 -0.349122 -2.09511 0
M  V30 6568 H 618.305 -0.0938113 -0.943347 0
M  V30 6569 H 618.011 0.24557 -3.50842 0
M  V30 6570 H 617.885 1.97119 -3.21596 0
M  V30 6571 H 620.272 1.93891 -2.22464 0
M  V30 6572 H 620.353 0.201568 -2.55005 0
M  V30 6573 H 619.997 0.672917 -5.03423 0
M  V30 6574 H 619.927 2.41715 -4.67848 0
M  V30 6575 H 622.418 1.36612 -3.52343 0
M  V30 6576 H 622.731 2.20155 -7.40778 0
M  V30 6577 H 621.076 1.98657 -6.66003 0
M  V30 6578 H 624.267 1.61337 -4.39418 0
M  V30 6579 H 624.44 1.99455 -6.1654 0
M  V30 6580 N 617.846 1.41785 0.688094 0
M  V30 6581 C 618.779 1.38643 1.81255 0
M  V30 6582 C 619.757 0.252583 1.60626 0
M  V30 6583 O 620.941 0.440691 1.83276 0
M  V30 6584 C 618.068 1.16449 3.18053 0
M  V30 6585 C 617.114 2.32651 3.57457 0
M  V30 6586 S 617.947 3.95152 3.61407 0
M  V30 6587 C 619.103 3.75275 5.00919 0
M  V30 6588 H 619.336 2.33799 1.83644 0
M  V30 6589 H 616.869 1.28398 0.857513 0
M  V30 6590 H 618.827 1.0433 3.97021 0
M  V30 6591 H 617.488 0.229002 3.13264 0
M  V30 6592 H 616.681 2.12835 4.56856 0
M  V30 6593 H 616.283 2.41215 2.85817 0
M  V30 6594 H 618.575 3.35443 5.88629 0
M  V30 6595 H 619.518 4.74302 5.25778 0
M  V30 6596 H 619.926 3.08401 4.7281 0
M  V30 6597 N 619.324 -0.923095 1.27737 0
M  V30 6598 C 620.573 -1.66581 1.13727 0
M  V30 6599 C 620.886 -1.9304 -0.315433 0
M  V30 6600 O 622.092 -2.65309 -0.57651 0
M  V30 6601 C 620.548 -3.00047 1.98745 0
M  V30 6602 C 620.156 -2.8127 3.48699 0
M  V30 6603 C 621.9 -3.77887 1.93395 0
M  V30 6604 C 619.807 -4.1032 4.25901 0
M  V30 6605 H 618.737 -0.624834 0.422017 0
M  V30 6606 H 621.388 -1.02514 1.52194 0
M  V30 6607 H 619.77 -3.65197 1.53125 0
M  V30 6608 H 620.944 -2.24859 4.02213 0
M  V30 6609 H 619.259 -2.16854 3.55476 0
M  V30 6610 H 621.856 -4.73526 2.48348 0
M  V30 6611 H 622.199 -4.06264 0.908605 0
M  V30 6612 H 622.732 -3.19541 2.36935 0
M  V30 6613 H 619.471 -3.8712 5.28978 0
M  V30 6614 H 618.991 -4.66377 3.77163 0
M  V30 6615 H 620.67 -4.78648 4.35321 0
M  V30 6616 N 620.802 -1.09834 -1.13024 0
M  V30 6617 C 621.752 -0.710899 -2.16634 0
M  V30 6618 C 622.736 0.276836 -1.58501 0
M  V30 6619 O 623.928 0.0865457 -1.76788 0
M  V30 6620 C 621.057 -0.137574 -3.43024 0
M  V30 6621 C 620.143 -1.15198 -4.08155 0
M  V30 6622 N 620.534 -2.34054 -4.48388 0
M  V30 6623 C 618.832 -0.991074 -4.34849 0
M  V30 6624 C 619.533 -2.98616 -4.99203 0
M  V30 6625 N 618.509 -2.26159 -4.94321 0
M  V30 6626 H 622.311 -1.61576 -2.455 0
M  V30 6627 H 619.825 -0.975158 -1.29863 0
M  V30 6628 H 621.822 0.158031 -4.166 0
M  V30 6629 H 620.482 0.762088 -3.1563 0
M  V30 6630 H 621.493 -2.7162 -4.40957 0
M  V30 6631 H 618.17 -0.146448 -4.17243 0
M  V30 6632 H 619.56 -3.99683 -5.40096 0
M  V30 6633 N 622.28 1.30327 -0.886154 0
M  V30 6634 C 623.557 1.90922 -0.425217 0
M  V30 6635 C 623.937 1.80533 1.09413 0
M  V30 6636 O 623.285 1.2233 1.92996 0
M  V30 6637 C 623.495 3.36529 -0.924638 0
M  V30 6638 C 624.843 4.13598 -0.960305 0
M  V30 6639 O 625.867 3.45377 -0.871382 0
M  V30 6640 O 624.726 5.35482 -1.09184 0
M  V30 6641 H 621.82 0.81668 -0.130238 0
M  V30 6642 H 624.366 1.38886 -0.975132 0
M  V30 6643 H 623.138 3.38181 -1.96849 0
M  V30 6644 H 622.761 3.96021 -0.353955 0
M  V30 6645 N 623.758 0.647228 1.43697 0
M  V30 6646 C 624.986 0.16575 2.06235 0
M  V30 6647 C 625.401 -1.1662 1.48476 0
M  V30 6648 O 624.758 -1.7187 0.613762 0
M  V30 6649 C 624.809 0.0621651 3.61447 0
M  V30 6650 O 624.53 1.34146 4.17057 0
M  V30 6651 C 626.031 -0.446102 4.4105 0
M  V30 6652 H 623.251 0.0871158 0.665321 0
M  V30 6653 H 625.795 0.886183 1.84301 0
M  V30 6654 H 623.95 -0.608794 3.82587 0
M  V30 6655 H 624.364 1.19675 5.10664 0
M  V30 6656 H 625.838 -0.46755 5.50016 0
M  V30 6657 H 626.315 -1.47627 4.13646 0
M  V30 6658 H 626.921 0.192159 4.24866 0
M  V30 6659 N 625.236 -1.5273 0.388769 0
M  V30 6660 C 626.169 -2.22861 -0.490752 0
M  V30 6661 C 627.147 -1.22912 -1.06449 0
M  V30 6662 O 628.331 -1.51896 -1.11624 0
M  V30 6663 C 625.458 -2.94141 -1.67925 0
M  V30 6664 C 624.504 -4.08355 -1.23081 0
M  V30 6665 S 625.337 -5.35077 -0.212786 0
M  V30 6666 C 626.493 -6.09879 -1.40708 0
M  V30 6667 H 626.726 -2.97115 0.104787 0
M  V30 6668 H 624.259 -1.53428 0.172956 0
M  V30 6669 H 626.217 -3.35818 -2.36085 0
M  V30 6670 H 624.878 -2.19568 -2.24608 0
M  V30 6671 H 624.071 -4.57328 -2.11818 0
M  V30 6672 H 623.673 -3.68688 -0.628121 0
M  V30 6673 H 625.965 -6.36018 -2.33424 0
M  V30 6674 H 626.908 -7.01586 -0.958271 0
M  V30 6675 H 627.316 -5.40646 -1.62364 0
M  V30 6676 N 626.714 -0.118576 -1.57153 0
M  V30 6677 C 627.662 0.849114 -2.16547 0
M  V30 6678 C 628.656 1.27567 -1.11458 0
M  V30 6679 O 629.862 1.24746 -1.29763 0
M  V30 6680 H 626.237 0.291935 -0.693021 0
M  V30 6681 H 628.208 0.323693 -2.96639 0
M  V30 6682 C 626.957 2.08951 -2.77912 0
M  V30 6683 H 626.28 1.77021 -3.58474 0
M  V30 6684 H 627.72 2.74666 -3.23008 0
M  V30 6685 C 626.179 2.87899 -1.74974 0
M  V30 6686 O 626.709 3.83268 -1.20285 0
M  V30 6687 N 624.915 2.51884 -1.44924 0
M  V30 6688 H 624.462 1.74397 -1.89587 0
M  V30 6689 H 624.42 3.05003 -0.762921 0
M  V30 6690 N 628.193 1.56834 0.155195 0
M  V30 6691 C 629.441 1.82536 0.867462 0
M  V30 6692 C 629.762 0.698168 1.82073 0
M  V30 6693 O 629.032 -0.280807 1.93877 0
M  V30 6694 H 627.612 0.673401 0.323327 0
M  V30 6695 H 630.274 1.94313 0.151156 0
M  V30 6696 H 629.37 2.77171 1.43466 0
M  V30 6697 N 629.671 -0.424282 1.51781 0
M  V30 6698 C 630.948 -1.18464 1.55646 0
M  V30 6699 C 631.328 -2.08529 0.328438 0
M  V30 6700 O 630.676 -2.17969 -0.685693 0
M  V30 6701 C 630.886 -1.97514 2.87731 0
M  V30 6702 C 632.234 -2.54106 3.40169 0
M  V30 6703 O 633.258 -2.07711 2.89369 0
M  V30 6704 O 632.117 -3.38759 4.28841 0
M  V30 6705 H 629.211 -0.540055 0.626314 0
M  V30 6706 H 631.757 -0.432291 1.64102 0
M  V30 6707 H 630.529 -1.31444 3.68562 0
M  V30 6708 H 630.152 -2.79787 2.82498 0
M  V30 6709 N 631.149 -1.42148 -0.680565 0
M  V30 6710 C 632.397 -1.42029 -1.43779 0
M  V30 6711 C 632.718 -0.0356347 -1.94967 0
M  V30 6712 O 631.988 0.924936 -1.7269 0
M  V30 6713 H 630.568 -0.522835 -0.533529 0
M  V30 6714 H 633.23 -1.7752 -0.804538 0
M  V30 6715 H 632.326 -2.11658 -2.29363 0
M  V30 6716 N 632.627 0.916307 -1.28225 0
M  V30 6717 C 633.852 1.7043 -1.18188 0
M  V30 6718 C 634.277 1.86346 0.256274 0
M  V30 6719 O 633.635 1.37175 1.18544 0
M  V30 6720 C 633.683 3.07546 -1.88275 0
M  V30 6721 O 632.787 3.94904 -1.18848 0
M  V30 6722 H 632.128 0.521967 -0.410423 0
M  V30 6723 H 634.658 1.14589 -1.69501 0
M  V30 6724 H 634.668 3.57793 -1.96082 0
M  V30 6725 H 633.343 2.95279 -2.92887 0
M  V30 6726 H 631.92 3.53339 -1.19187 0
M  V30 6727 N 634.105 1.10431 1.1244 0
M  V30 6728 C 635.053 0.747974 2.20246 0
M  V30 6729 C 636.047 -0.255848 1.67457 0
M  V30 6730 O 637.253 -0.116221 1.79624 0
M  V30 6731 H 633.628 0.223946 0.71788 0
M  V30 6732 H 635.599 1.6661 2.47556 0
M  V30 6733 C 634.348 0.195957 3.47147 0
M  V30 6734 H 633.671 0.959606 3.88113 0
M  V30 6735 H 635.111 -0.0153154 4.23997 0
M  V30 6736 C 633.57 -1.07132 3.19413 0
M  V30 6737 O 634.1 -2.15284 3.3914 0
M  V30 6738 N 632.306 -0.98994 2.73219 0
M  V30 6739 H 631.853 -0.109736 2.57366 0
M  V30 6740 H 631.811 -1.83856 2.55038 0
M  V30 6741 N 635.583 -1.29855 0.893053 0
M  V30 6742 C 636.83 -1.95826 0.515585 0
M  V30 6743 C 637.158 -1.70451 -0.936842 0
M  V30 6744 O 636.413 -1.00657 -1.67829 0
M  V30 6745 C 636.712 -3.49515 0.746588 0
M  V30 6746 C 636.378 -3.94955 2.17535 0
M  V30 6747 C 635.04 -4.07073 2.56603 0
M  V30 6748 C 637.392 -4.18536 3.10607 0
M  V30 6749 C 634.72 -4.40138 3.87938 0
M  V30 6750 C 637.072 -4.53073 4.41484 0
M  V30 6751 C 635.736 -4.634 4.80434 0
M  V30 6752 H 635.006 -0.71658 0.188666 0
M  V30 6753 H 637.653 -1.54574 1.13045 0
M  V30 6754 H 635.958 -3.9177 0.0487551 0
M  V30 6755 H 637.655 -3.98644 0.434009 0
M  V30 6756 H 634.245 -3.86035 1.86212 0
M  V30 6757 H 638.429 -4.08646 2.81641 0
M  V30 6758 H 633.685 -4.46335 4.17846 0
M  V30 6759 H 637.859 -4.70269 5.13634 0
M  V30 6760 H 635.486 -4.88775 5.82239 0
M  V30 6761 N 637.061 -0.65484 -1.43351 0
M  V30 6762 C 638.024 0.0263562 -2.29185 0
M  V30 6763 C 639.024 0.748951 -1.42293 0
M  V30 6764 O 640.214 0.589957 -1.63906 0
M  V30 6765 C 637.346 1.04806 -3.2439 0
M  V30 6766 H 638.539 -0.728883 -2.90908 0
M  V30 6767 H 636.092 -0.416149 -1.50658 0
M  V30 6768 H 636.827 1.83247 -2.67565 0
M  V30 6769 H 636.612 0.533554 -3.88453 0
M  V30 6770 H 638.102 1.52372 -3.88809 0
M  V30 6771 N 638.539 1.52521 -0.396863 0
M  V30 6772 C 639.816 1.94112 0.240842 0
M  V30 6773 C 640.196 1.33288 1.637 0
M  V30 6774 O 639.544 0.503901 2.22875 0
M  V30 6775 C 639.754 3.48033 0.259567 0
M  V30 6776 C 641.102 4.21822 0.484866 0
M  V30 6777 O 642.126 3.54579 0.339453 0
M  V30 6778 O 640.985 5.41042 0.770412 0
M  V30 6779 H 638.079 0.812973 0.151671 0
M  V30 6780 H 640.625 1.63572 -0.451918 0
M  V30 6781 H 639.397 3.84655 -0.718078 0
M  V30 6782 H 639.02 3.84899 0.996937 0
M  V30 6783 N 640.017 0.126909 1.57088 0
M  V30 6784 C 641.263 -0.523662 1.96543 0
M  V30 6785 C 641.618 -1.63783 1.0096 0
M  V30 6786 O 640.911 -1.91556 0.0410175 0
M  V30 6787 C 641.105 -1.095 3.40212 0
M  V30 6788 C 640.934 -0.037715 4.49684 0
M  V30 6789 C 639.704 0.396823 5.03739 0
M  V30 6790 C 641.902 0.746245 5.08857 0
M  V30 6791 N 639.884 1.43905 5.96795 0
M  V30 6792 C 641.255 1.63947 5.97931 0
M  V30 6793 C 643.31 0.796259 4.91492 0
M  V30 6794 C 642.013 2.57837 6.715 0
M  V30 6795 C 644.039 1.7229 5.65747 0
M  V30 6796 C 643.401 2.60369 6.54513 0
M  V30 6797 H 639.5 -0.161016 0.765244 0
M  V30 6798 H 642.084 0.21686 1.93489 0
M  V30 6799 H 640.255 -1.80521 3.43899 0
M  V30 6800 H 641.987 -1.71054 3.66773 0
M  V30 6801 H 638.742 0.00290406 4.736 0
M  V30 6802 H 639.166 1.95932 6.48027 0
M  V30 6803 H 643.808 0.129412 4.22602 0
M  V30 6804 H 641.526 3.25532 7.39631 0
M  V30 6805 H 645.112 1.76715 5.54313 0
M  V30 6806 H 643.992 3.30906 7.10965 0
M  V30 6807 N 641.495 -1.56914 -0.146875 0
M  V30 6808 C 642.443 -1.99224 -1.20053 0
M  V30 6809 C 643.437 -0.884661 -1.44465 0
M  V30 6810 O 644.643 -1.06984 -1.44756 0
M  V30 6811 H 641.018 -0.634191 -0.404112 0
M  V30 6812 H 642.989 -2.86998 -0.816987 0
M  V30 6813 C 641.738 -2.38899 -2.52632 0
M  V30 6814 H 641.061 -3.23677 -2.34677 0
M  V30 6815 H 642.501 -2.72326 -3.24984 0
M  V30 6816 C 640.96 -1.2417 -3.13183 0
M  V30 6817 O 641.49 -0.542503 -3.9802 0
M  V30 6818 N 639.696 -1.00592 -2.72635 0
M  V30 6819 H 639.243 -1.57627 -2.03744 0
M  V30 6820 H 639.201 -0.240174 -3.13481 0
M  V30 6821 N 642.974 0.416227 -1.52004 0
M  V30 6822 C 644.222 1.16153 -1.65387 0
M  V30 6823 C 644.543 1.91208 -0.382669 0
M  V30 6824 O 643.813 1.86413 0.602231 0
M  V30 6825 H 642.393 0.431765 -0.60958 0
M  V30 6826 H 645.055 0.475151 -1.89019 0
M  V30 6827 H 644.151 1.87952 -2.4916 0
M  V30 6828 N 644.452 1.42507 0.673017 0
M  V30 6829 C 645.698 1.43284 1.43519 0
M  V30 6830 C 646.031 0.049668 1.94136 0
M  V30 6831 O 645.306 -0.926369 1.71022 0
M  V30 6832 C 645.589 2.45874 2.63093 0
M  V30 6833 C 645.442 3.93388 2.18096 0
M  V30 6834 C 646.761 2.45431 3.6531 0
M  V30 6835 H 643.88 0.521752 0.520522 0
M  V30 6836 H 646.522 1.73932 0.764701 0
M  V30 6837 H 644.672 2.19869 3.20296 0
M  V30 6838 H 646.344 4.30379 1.66046 0
M  V30 6839 H 644.587 4.07169 1.49652 0
M  V30 6840 H 645.258 4.60752 3.03993 0
M  V30 6841 H 647.734 2.68561 3.17827 0
M  V30 6842 H 646.61 3.19189 4.46553 0
M  V30 6843 H 646.871 1.48092 4.16559 0
M  V30 6844 N 645.93 -0.909495 1.28709 0
M  V30 6845 C 647.155 -1.69801 1.1909 0
M  V30 6846 C 647.58 -1.86479 -0.246388 0
M  V30 6847 O 646.938 -1.37802 -1.17815 0
M  V30 6848 C 646.986 -3.06543 1.89904 0
M  V30 6849 O 646.09 -3.94268 1.2094 0
M  V30 6850 H 645.431 -0.519783 0.413185 0
M  V30 6851 H 647.961 -1.13689 1.70106 0
M  V30 6852 H 647.971 -3.56748 1.97977 0
M  V30 6853 H 646.646 -2.93722 2.94449 0
M  V30 6854 H 645.223 -3.52702 1.2106 0
M  V30 6855 N 647.408 -1.11026 -1.11852 0
M  V30 6856 C 648.657 -0.851249 -1.82857 0
M  V30 6857 C 648.97 0.62514 -1.85341 0
M  V30 6858 O 650.176 1.00026 -2.52403 0
M  V30 6859 C 648.632 -1.47309 -3.28372 0
M  V30 6860 C 648.24 -2.9832 -3.34229 0
M  V30 6861 C 649.984 -1.29373 -4.04306 0
M  V30 6862 C 647.891 -3.53509 -4.74115 0
M  V30 6863 H 646.821 -0.314794 -0.685143 0
M  V30 6864 H 649.472 -1.33499 -1.25898 0
M  V30 6865 H 647.854 -0.917017 -3.85236 0
M  V30 6866 H 649.028 -3.60295 -2.87271 0
M  V30 6867 H 647.343 -3.15482 -2.71772 0
M  V30 6868 H 649.94 -1.68042 -5.07608 0
M  V30 6869 H 650.283 -0.235879 -4.15631 0
M  V30 6870 H 650.816 -1.8182 -3.53817 0
M  V30 6871 H 647.555 -4.58987 -4.67986 0
M  V30 6872 H 647.075 -2.96305 -5.21501 0
M  V30 6873 H 648.754 -3.51693 -5.43066 0
M  V30 6874 N 648.886 1.2938 -0.899927 0
M  V30 6875 C 649.849 2.25983 -0.382677 0
M  V30 6876 C 650.849 1.53366 0.483259 0
M  V30 6877 O 652.039 1.71798 0.28828 0
M  V30 6878 C 649.171 3.37878 0.452915 0
M  V30 6879 H 650.364 2.73252 -1.23586 0
M  V30 6880 H 647.917 1.40825 -0.678088 0
M  V30 6881 H 648.652 2.95949 1.32608 0
M  V30 6882 H 648.437 3.91742 -0.167562 0
M  V30 6883 H 649.927 4.09746 0.806107 0
M  V30 6884 N 650.364 0.662433 1.43002 0
M  V30 6885 C 651.61 0.188492 2.02525 0
M  V30 6886 C 651.965 -1.18752 1.51379 0
M  V30 6887 O 651.258 -1.78313 0.701065 0
M  V30 6888 C 651.452 0.149363 3.57088 0
M  V30 6889 C 651.281 1.52004 4.23231 0
M  V30 6890 C 650.051 2.11473 4.5892 0
M  V30 6891 C 652.249 2.46028 4.51635 0
M  V30 6892 N 650.231 3.4145 5.10181 0
M  V30 6893 C 651.602 3.60647 5.04315 0
M  V30 6894 C 653.657 2.44715 4.33612 0
M  V30 6895 C 652.36 4.74189 5.40867 0
M  V30 6896 C 654.386 3.57344 4.71232 0
M  V30 6897 C 653.748 4.70689 5.24053 0
M  V30 6898 H 649.847 0.113615 0.773703 0
M  V30 6899 H 652.431 0.872738 1.74044 0
M  V30 6900 H 650.602 -0.504255 3.85113 0
M  V30 6901 H 652.334 -0.336307 4.033 0
M  V30 6902 H 649.089 1.64087 4.44266 0
M  V30 6903 H 649.513 4.07987 5.40255 0
M  V30 6904 H 654.155 1.58318 3.9204 0
M  V30 6905 H 651.873 5.61271 5.81378 0
M  V30 6906 H 655.459 3.5754 4.58973 0
M  V30 6907 H 654.339 5.56398 5.52621 0
M  V30 6908 N 651.842 -1.52309 0.404946 0
M  V30 6909 C 652.789 -2.26898 -0.422597 0
M  V30 6910 C 653.759 -1.2914 -1.04461 0
M  V30 6911 O 654.944 -1.57996 -1.06967 0
M  V30 6912 C 652.084 -3.09053 -1.53559 0
M  V30 6913 C 651.197 -4.21762 -0.934908 0
M  V30 6914 C 650.332 -4.91283 -2.02025 0
M  V30 6915 C 649.371 -5.95962 -1.39628 0
M  V30 6916 N 648.508 -6.59017 -2.42159 0
M  V30 6917 H 653.348 -2.97188 0.219903 0
M  V30 6918 H 650.885 -1.46607 0.120282 0
M  V30 6919 H 652.843 -3.54987 -2.19181 0
M  V30 6920 H 651.473 -2.40942 -2.14818 0
M  V30 6921 H 650.525 -3.80029 -0.167854 0
M  V30 6922 H 651.837 -4.96864 -0.439073 0
M  V30 6923 H 650.991 -5.40601 -2.75383 0
M  V30 6924 H 649.73 -4.15741 -2.54973 0
M  V30 6925 H 648.735 -5.45968 -0.648023 0
M  V30 6926 H 649.96 -6.73445 -0.874553 0
M  V30 6927 H 647.906 -5.86306 -2.94247 0
M  V30 6928 H 647.823 -7.2978 -1.97376 0
M  V30 6929 H 649.091 -7.12974 -3.15099 0
M  V30 6930 N 653.32 -0.135238 -1.57019 0
M  V30 6931 C 654.567 0.518794 -1.95742 0
M  V30 6932 C 654.895 1.65642 -1.01947 0
M  V30 6933 O 654.15 1.95645 -0.0464016 0
M  V30 6934 C 654.449 1.07694 -3.40788 0
M  V30 6935 C 654.115 0.058992 -4.50861 0
M  V30 6936 C 652.777 -0.220872 -4.80693 0
M  V30 6937 C 655.129 -0.633856 -5.17331 0
M  V30 6938 C 652.457 -1.19959 -5.74305 0
M  V30 6939 C 654.809 -1.60131 -6.11997 0
M  V30 6940 C 653.473 -1.889 -6.40213 0
M  V30 6941 H 652.743 0.18984 -0.716269 0
M  V30 6942 H 655.39 -0.219581 -1.90237 0
M  V30 6943 H 653.695 1.89241 -3.43067 0
M  V30 6944 H 655.392 1.59137 -3.68071 0
M  V30 6945 H 651.982 0.287304 -4.27636 0
M  V30 6946 H 656.166 -0.430823 -4.94427 0
M  V30 6947 H 651.422 -1.42905 -5.94465 0
M  V30 6948 H 655.596 -2.14376 -6.62583 0
M  V30 6949 H 653.223 -2.64891 -7.12556 0
M  V30 6950 N 654.798 1.5699 0.138552 0
M  V30 6951 C 656.044 1.84081 0.85099 0
M  V30 6952 C 656.377 0.718107 1.80435 0
M  V30 6953 O 655.652 -0.277633 1.92508 0
M  V30 6954 C 655.935 3.21699 1.61808 0
M  V30 6955 C 655.788 4.44544 0.685633 0
M  V30 6956 C 657.107 3.5664 2.57868 0
M  V30 6957 H 654.226 0.669592 0.307922 0
M  V30 6958 H 656.868 1.89646 0.11588 0
M  V30 6959 H 655.018 3.17086 2.24474 0
M  V30 6960 H 656.69 4.61248 0.0693179 0
M  V30 6961 H 654.933 4.338 -0.00421993 0
M  V30 6962 H 655.604 5.3746 1.25858 0
M  V30 6963 H 658.08 3.61918 2.05316 0
M  V30 6964 H 656.956 4.53946 3.08584 0
M  V30 6965 H 657.217 2.83036 3.39622 0
M  V30 6966 N 656.276 -0.40816 1.52223 0
M  V30 6967 C 657.553 -1.16807 1.56893 0
M  V30 6968 C 657.933 -2.08169 0.350537 0
M  V30 6969 O 657.281 -2.18684 -0.662536 0
M  V30 6970 C 657.491 -1.94451 2.8981 0
M  V30 6971 C 658.839 -2.50484 3.42845 0
M  V30 6972 O 659.863 -2.0463 2.91556 0
M  V30 6973 O 658.722 -3.34192 4.3241 0
M  V30 6974 H 655.816 -0.533382 0.632007 0
M  V30 6975 H 658.362 -0.414862 1.64551 0
M  V30 6976 H 657.134 -1.27527 3.69936 0
M  V30 6977 H 656.757 -2.76775 2.85449 0
M  V30 6978 N 657.755 -1.42862 -0.66545 0
M  V30 6979 C 658.718 -1.46756 -1.76055 0
M  V30 6980 C 659.718 -0.353866 -1.56858 0
M  V30 6981 O 660.908 -0.615099 -1.62979 0
M  V30 6982 C 658.04 -1.30829 -3.14796 0
M  V30 6983 H 659.233 -2.44271 -1.73987 0
M  V30 6984 H 656.786 -1.29447 -0.875965 0
M  V30 6985 H 657.521 -0.342733 -3.22484 0
M  V30 6986 H 657.306 -2.11551 -3.30134 0
M  V30 6987 H 658.796 -1.36458 -3.94676 0
M  V30 6988 N 659.233 0.902656 -1.29189 0
M  V30 6989 C 660.482 1.6475 -1.16362 0
M  V30 6990 C 660.795 1.93517 0.284682 0
M  V30 6991 O 662.001 2.66192 0.534229 0
M  V30 6992 C 660.457 2.96848 -2.03493 0
M  V30 6993 C 660.065 2.75687 -3.5313 0
M  V30 6994 C 661.809 3.74762 -1.99383 0
M  V30 6995 C 659.716 4.03492 -4.32375 0
M  V30 6996 H 658.646 0.618041 -0.431904 0
M  V30 6997 H 661.297 1.0008 -1.53806 0
M  V30 6998 H 659.679 3.62715 -1.58916 0
M  V30 6999 H 660.853 2.18431 -4.05739 0
M  V30 7000 H 659.168 2.11171 -3.58881 0
M  V30 7001 H 661.765 4.69515 -2.5585 0
M  V30 7002 H 662.108 4.04767 -0.973123 0
M  V30 7003 H 662.641 3.15732 -2.41988 0
M  V30 7004 H 659.38 3.78656 -5.3507 0
M  V30 7005 H 658.9 4.60318 -3.84535 0
M  V30 7006 H 660.579 4.71662 -4.42881 0
M  V30 7007 N 660.711 1.11618 1.11262 0
M  V30 7008 C 661.936 0.889013 1.8738 0
M  V30 7009 C 662.361 -0.555884 1.79698 0
M  V30 7010 O 661.719 -1.39272 1.16073 0
M  V30 7011 C 661.767 1.35759 3.34069 0
M  V30 7012 O 660.871 0.530499 4.08974 0
M  V30 7013 H 660.212 0.320082 0.581759 0
M  V30 7014 H 662.742 1.48611 1.40627 0
M  V30 7015 H 662.752 1.35291 3.84916 0
M  V30 7016 H 661.427 2.40973 3.38976 0
M  V30 7017 H 660.004 0.601439 3.68018 0
M  V30 7018 N 662.189 -1.289 0.906776 0
M  V30 7019 C 663.152 -2.25777 0.394656 0
M  V30 7020 C 664.152 -1.53621 -0.475119 0
M  V30 7021 O 665.342 -1.71949 -0.279165 0
M  V30 7022 C 662.474 -3.38113 -0.43499 0
M  V30 7023 H 663.667 -2.72592 1.25033 0
M  V30 7024 H 661.22 -1.40463 0.685547 0
M  V30 7025 H 661.955 -2.96648 -1.31036 0
M  V30 7026 H 661.74 -3.91647 0.188334 0
M  V30 7027 H 663.23 -4.10168 -0.784365 0
M  V30 7028 N 663.667 -0.670007 -1.42649 0
M  V30 7029 C 664.913 -0.190568 -2.01903 0
M  V30 7030 C 665.246 1.19817 -1.52832 0
M  V30 7031 O 664.521 1.80342 -0.728485 0
M  V30 7032 C 664.804 -0.21991 -3.59428 0
M  V30 7033 C 664.657 -1.64376 -4.18689 0
M  V30 7034 C 665.976 0.434519 -4.3795 0
M  V30 7035 H 663.095 -0.0707219 -0.733599 0
M  V30 7036 H 665.737 -0.853883 -1.69732 0
M  V30 7037 H 663.887 0.344894 -3.86966 0
M  V30 7038 H 665.559 -2.26044 -4.02122 0
M  V30 7039 H 663.802 -2.18591 -3.747 0
M  V30 7040 H 664.473 -1.61601 -5.27815 0
M  V30 7041 H 666.949 -0.0462156 -4.16074 0
M  V30 7042 H 665.825 0.38333 -5.4756 0
M  V30 7043 H 666.086 1.51135 -4.15464 0
M  V30 7044 N 665.145 1.52092 -0.413018 0
M  V30 7045 C 666.375 2.05974 0.160648 0
M  V30 7046 C 666.783 1.28267 1.39084 0
M  V30 7047 O 666.126 0.328805 1.80733 0
M  V30 7048 C 666.188 3.54918 0.572169 0
M  V30 7049 C 665.852 4.53705 -0.547826 0
M  V30 7050 C 666.849 5.00342 -1.41259 0
M  V30 7051 C 664.534 4.97089 -0.721627 0
M  V30 7052 C 666.528 5.89011 -2.43607 0
M  V30 7053 C 664.215 5.85554 -1.74841 0
M  V30 7054 C 665.213 6.3141 -2.60403 0
M  V30 7055 O 664.901 7.18123 -3.61323 0
M  V30 7056 H 664.633 0.675636 0.0221936 0
M  V30 7057 H 667.187 1.96931 -0.58373 0
M  V30 7058 H 665.417 3.61661 1.36889 0
M  V30 7059 H 667.106 3.91428 1.0742 0
M  V30 7060 H 667.872 4.67537 -1.28974 0
M  V30 7061 H 663.751 4.60954 -0.0652911 0
M  V30 7062 H 667.295 6.24725 -3.10425 0
M  V30 7063 H 663.192 6.17773 -1.87156 0
M  V30 7064 H 663.96 7.36244 -3.57613 0
M  V30 7065 N 666.623 0.143563 1.56945 0
M  V30 7066 C 667.851 -0.515447 2.00377 0
M  V30 7067 C 668.266 -1.58643 1.02361 0
M  V30 7068 O 667.623 -1.82489 0.0201039 0
M  V30 7069 C 667.674 -1.11923 3.43737 0
M  V30 7070 O 667.395 -0.0910318 4.38005 0
M  V30 7071 C 668.896 -1.85918 4.02429 0
M  V30 7072 H 666.116 -0.134478 0.657386 0
M  V30 7073 H 668.66 0.237135 2.0312 0
M  V30 7074 H 666.815 -1.82245 3.41856 0
M  V30 7075 H 667.229 -0.532916 5.21786 0
M  V30 7076 H 668.703 -2.2346 5.04747 0
M  V30 7077 H 669.18 -2.7438 3.42947 0
M  V30 7078 H 669.786 -1.20303 4.07931 0
M  V30 7079 N 668.101 -1.57061 -0.130224 0
M  V30 7080 C 669.064 -1.98593 -1.14426 0
M  V30 7081 C 670.064 -0.874584 -1.34936 0
M  V30 7082 O 671.254 -1.14086 -1.31643 0
M  V30 7083 C 668.386 -2.31639 -2.50112 0
M  V30 7084 H 669.579 -2.89374 -0.787561 0
M  V30 7085 H 667.132 -1.51756 -0.374146 0
M  V30 7086 H 667.867 -1.43703 -2.90723 0
M  V30 7087 H 667.652 -3.12684 -2.36583 0
M  V30 7088 H 669.142 -2.64551 -3.23114 0
M  V30 7089 N 669.579 0.400081 -1.52437 0
M  V30 7090 C 670.856 1.15973 -1.57511 0
M  V30 7091 C 671.236 2.0798 -0.361572 0
M  V30 7092 O 670.584 2.19032 0.650929 0
M  V30 7093 C 670.794 1.92912 -2.90837 0
M  V30 7094 C 672.142 2.48662 -3.44169 0
M  V30 7095 O 673.166 2.03081 -2.92637 0
M  V30 7096 O 672.025 3.31894 -4.34176 0
M  V30 7097 H 669.119 0.530023 -0.634827 0
M  V30 7098 H 671.665 0.40613 -1.64769 0
M  V30 7099 H 670.437 1.25564 -3.70607 0
M  V30 7100 H 670.06 2.75257 -2.86913 0
M  V30 7101 N 671.057 1.43213 0.657864 0
M  V30 7102 C 672.004 1.48011 1.77092 0
M  V30 7103 C 672.974 0.330291 1.62783 0
M  V30 7104 O 674.159 0.536787 1.83094 0
M  V30 7105 C 671.299 1.40461 3.15222 0
M  V30 7106 C 670.412 2.65612 3.40697 0
M  V30 7107 C 669.547 2.50083 4.68649 0
M  V30 7108 C 668.586 3.70525 4.87214 0
M  V30 7109 N 667.723 3.53835 6.0642 0
M  V30 7110 H 672.563 2.43121 1.72326 0
M  V30 7111 H 670.1 1.20687 0.841013 0
M  V30 7112 H 672.058 1.34079 3.95068 0
M  V30 7113 H 670.688 0.489359 3.19069 0
M  V30 7114 H 669.74 2.82292 2.54982 0
M  V30 7115 H 671.052 3.5509 3.50303 0
M  V30 7116 H 670.206 2.41383 5.56614 0
M  V30 7117 H 668.945 1.58121 4.61356 0
M  V30 7118 H 667.95 3.79639 3.97686 0
M  V30 7119 H 669.175 4.63489 4.96341 0
M  V30 7120 H 667.121 2.64604 6.00267 0
M  V30 7121 H 667.038 4.36912 6.16963 0
M  V30 7122 H 668.306 3.48978 6.97019 0
M  V30 7123 N 672.536 -0.895792 1.29666 0
M  V30 7124 C 673.499 -1.98189 1.15124 0
M  V30 7125 C 674.499 -1.60572 0.0855717 0
M  V30 7126 O 675.689 -1.70991 0.332826 0
M  V30 7127 C 672.821 -3.32289 0.761372 0
M  V30 7128 H 674.014 -2.12518 2.11603 0
M  V30 7129 H 671.567 -1.0808 1.12908 0
M  V30 7130 H 672.302 -3.23662 -0.203393 0
M  V30 7131 H 672.087 -3.60958 1.53139 0
M  V30 7132 H 673.577 -4.1198 0.682792 0
M  V30 7133 N 674.014 -1.12206 -1.10668 0
M  V30 7134 C 675.425 -0.890657 -1.64086 0
M  V30 7135 C 675.776 0.575502 -1.8757 0
M  V30 7136 O 674.901 1.4394 -1.61587 0
M  V30 7137 C 675.496 -1.61029 -2.98085 0
M  V30 7138 C 674.055 -1.4251 -3.48379 0
M  V30 7139 C 673.202 -1.64778 -2.23033 0
M  V30 7140 H 676.153 -1.27718 -0.94201 0
M  V30 7141 H 676.174 -1.05993 -3.65439 0
M  V30 7142 H 675.686 -2.67735 -2.80962 0
M  V30 7143 H 673.787 -0.380497 -3.70652 0
M  V30 7144 H 673.9 -2.17959 -4.26651 0
M  V30 7145 H 672.264 -1.07171 -2.31055 0
M  V30 7146 H 673.047 -2.72776 -2.08443 0
M  V30 7147 N 675.492 1.28418 -0.913599 0
M  V30 7148 C 676.422 2.29713 -0.418847 0
M  V30 7149 C 677.403 1.62165 0.513469 0
M  V30 7150 O 678.588 1.89576 0.421235 0
M  V30 7151 C 675.718 3.45612 0.342042 0
M  V30 7152 C 674.672 4.25056 -0.501123 0
M  V30 7153 C 673.998 5.3329 0.388097 0
M  V30 7154 C 675.298 4.91814 -1.75831 0
M  V30 7155 H 676.992 2.71346 -1.26538 0
M  V30 7156 H 674.538 1.30446 -0.609903 0
M  V30 7157 H 676.491 4.15562 0.699 0
M  V30 7158 H 675.215 3.02858 1.22248 0
M  V30 7159 H 673.874 3.56833 -0.840598 0
M  V30 7160 H 673.522 4.8678 1.26707 0
M  V30 7161 H 673.222 5.87347 -0.172459 0
M  V30 7162 H 674.746 6.06088 0.74094 0
M  V30 7163 H 676.16 5.54126 -1.47026 0
M  V30 7164 H 674.557 5.55866 -2.26126 0
M  V30 7165 H 675.627 4.16313 -2.4862 0
M  V30 7166 N 676.97 0.677563 1.42291 0
M  V30 7167 C 677.88 0.000962654 2.346 0
M  V30 7168 C 678.896 -0.785833 1.55244 0
M  V30 7169 O 680.072 -0.727523 1.87801 0
M  V30 7170 C 677.137 -0.936746 3.33805 0
M  V30 7171 C 676.198 -0.144173 4.29058 0
M  V30 7172 C 675.431 -1.03722 5.23524 0
M  V30 7173 O 675.654 -2.27675 5.22992 0
M  V30 7174 O 674.588 -0.496542 5.99848 0
M  V30 7175 H 678.414 0.761397 2.94001 0
M  V30 7176 H 675.999 0.43781 1.42841 0
M  V30 7177 H 677.881 -1.47497 3.94744 0
M  V30 7178 H 676.556 -1.67698 2.76874 0
M  V30 7179 H 675.463 0.438224 3.71524 0
M  V30 7180 H 676.796 0.55701 4.89038 0
M  V30 7181 N 678.448 -1.51871 0.421078 0
M  V30 7182 C 679.676 -2.06356 -0.14994 0
M  V30 7183 C 680.091 -1.29006 -1.37851 0
M  V30 7184 O 679.448 -0.345139 -1.79207 0
M  V30 7185 C 679.499 -3.58185 -0.488454 0
M  V30 7186 O 679.22 -4.32611 0.691341 0
M  V30 7187 C 680.721 -4.29129 -1.11191 0
M  V30 7188 H 677.941 -0.67083 -0.0151186 0
M  V30 7189 H 680.485 -1.95638 0.595476 0
M  V30 7190 H 678.64 -3.68871 -1.18376 0
M  V30 7191 H 679.054 -5.22927 0.405906 0
M  V30 7192 H 680.528 -5.36501 -1.29889 0
M  V30 7193 H 681.005 -3.86371 -2.0884 0
M  V30 7194 H 681.611 -4.22843 -0.456458 0
M  V30 7195 N 679.926 -0.151884 -1.56866 0
M  V30 7196 C 681.156 0.504081 -2.00356 0
M  V30 7197 C 681.564 1.58639 -1.03103 0
M  V30 7198 O 680.907 1.83688 -0.0207931 0
M  V30 7199 C 680.969 1.15975 -3.40279 0
M  V30 7200 C 680.633 0.221453 -4.56463 0
M  V30 7201 C 681.63 -0.552766 -5.16953 0
M  V30 7202 C 679.315 0.122936 -5.0215 0
M  V30 7203 C 681.309 -1.4129 -6.21543 0
M  V30 7204 C 678.996 -0.740801 -6.06593 0
M  V30 7205 C 679.994 -1.50732 -6.6616 0
M  V30 7206 O 679.682 -2.35666 -7.68581 0
M  V30 7207 H 679.414 0.135279 -0.662326 0
M  V30 7208 H 681.968 -0.244916 -2.03935 0
M  V30 7209 H 680.198 1.95649 -3.33554 0
M  V30 7210 H 681.887 1.71594 -3.67846 0
M  V30 7211 H 682.653 -0.486716 -4.82552 0
M  V30 7212 H 678.532 0.70931 -4.5551 0
M  V30 7213 H 682.076 -2.01166 -6.67966 0
M  V30 7214 H 677.973 -0.808125 -6.40421 0
M  V30 7215 H 678.741 -2.28967 -7.85822 0
M  V30 7216 N 681.404 1.57128 0.121893 0
M  V30 7217 C 682.351 2.0013 1.14964 0
M  V30 7218 C 683.321 0.872959 1.4131 0
M  V30 7219 O 684.506 1.13696 1.53225 0
M  V30 7220 C 681.646 2.40824 2.4718 0
M  V30 7221 C 680.759 3.67061 2.27794 0
M  V30 7222 C 679.894 3.96749 3.53219 0
M  V30 7223 C 678.933 5.16178 3.28978 0
M  V30 7224 N 678.07 5.41751 4.46599 0
M  V30 7225 H 682.91 2.8772 0.775947 0
M  V30 7226 H 680.447 1.42328 0.371652 0
M  V30 7227 H 682.405 2.62454 3.24305 0
M  V30 7228 H 681.035 1.56279 2.82448 0
M  V30 7229 H 680.087 3.53063 1.416 0
M  V30 7230 H 681.399 4.5434 2.05857 0
M  V30 7231 H 680.553 4.19012 4.38764 0
M  V30 7232 H 679.292 3.07941 3.78185 0
M  V30 7233 H 678.297 4.93762 2.41824 0
M  V30 7234 H 679.522 6.06561 3.05386 0
M  V30 7235 H 677.468 4.55899 4.71691 0
M  V30 7236 H 677.385 6.23347 4.27756 0
M  V30 7237 H 678.653 5.68531 5.33285 0
M  V30 7238 N 682.882 -0.391992 1.52647 0
M  V30 7239 C 684.107 -1.16312 1.71716 0
M  V30 7240 C 684.532 -1.83042 0.433279 0
M  V30 7241 O 683.89 -1.70705 -0.610707 0
M  V30 7242 C 683.938 -2.18908 2.86551 0
M  V30 7243 O 683.042 -3.2543 2.53316 0
M  V30 7244 H 682.383 -0.338743 0.571095 0
M  V30 7245 H 684.913 -0.457202 1.99426 0
M  V30 7246 H 684.923 -2.62954 3.1196 0
M  V30 7247 H 683.598 -1.69726 3.79692 0
M  V30 7248 H 682.175 -2.86543 2.38637 0
M  V30 7249 N 684.36 -1.4356 -0.65026 0
M  V30 7250 C 685.608 -1.45046 -1.40734 0
M  V30 7251 C 685.929 -0.0769822 -1.94848 0
M  V30 7252 O 685.199 0.888098 -1.74613 0
M  V30 7253 H 683.779 -0.534034 -0.522318 0
M  V30 7254 H 686.441 -1.79186 -0.766703 0
M  V30 7255 H 685.537 -2.16476 -2.24822 0
M  V30 7256 N 685.838 0.888903 -1.30139 0
M  V30 7257 C 687.063 1.67884 -1.21777 0
M  V30 7258 C 687.488 1.86848 0.216689 0
M  V30 7259 O 686.846 1.39659 1.15608 0
M  V30 7260 C 686.894 3.03483 -1.94757 0
M  V30 7261 O 685.998 3.92294 -1.27198 0
M  V30 7262 H 685.339 0.513144 -0.421402 0
M  V30 7263 H 687.869 1.10968 -1.71893 0
M  V30 7264 H 687.879 3.53553 -2.03627 0
M  V30 7265 H 686.554 2.89 -2.99085 0
M  V30 7266 H 685.131 3.50732 -1.26655 0
M  V30 7267 N 687.317 1.12792 1.10072 0
M  V30 7268 C 688.25 0.742921 2.15768 0
M  V30 7269 C 689.228 -0.267714 1.60381 0
M  V30 7270 O 690.412 -0.160782 1.87813 0
M  V30 7271 C 687.539 0.100244 3.38552 0
M  V30 7272 C 686.585 1.07831 4.12644 0
M  V30 7273 S 687.418 2.60765 4.6772 0
M  V30 7274 C 688.574 1.97838 5.9381 0
M  V30 7275 H 688.807 1.63822 2.48092 0
M  V30 7276 H 686.34 0.947385 1.21918 0
M  V30 7277 H 688.298 -0.264175 4.09649 0
M  V30 7278 H 686.959 -0.772223 3.04459 0
M  V30 7279 H 686.152 0.576325 5.00694 0
M  V30 7280 H 685.754 1.38586 3.47376 0
M  V30 7281 H 688.046 1.32341 6.64449 0
M  V30 7282 H 688.989 2.83943 6.48677 0
M  V30 7283 H 689.397 1.43267 5.46017 0
M  V30 7284 N 688.795 -1.27931 0.920396 0
M  V30 7285 C 690.043 -1.94304 0.555906 0
M  V30 7286 C 690.364 -1.72753 -0.904519 0
M  V30 7287 O 689.634 -1.07104 -1.64029 0
M  V30 7288 H 688.214 -0.719001 0.202599 0
M  V30 7289 H 690.876 -1.55785 1.1712 0
M  V30 7290 H 689.972 -3.02806 0.755981 0
M  V30 7291 N 690.273 -0.685099 -1.4193 0
M  V30 7292 C 691.684 -0.287699 -1.8447 0
M  V30 7293 C 692.035 1.17215 -1.57338 0
M  V30 7294 O 691.16 1.89856 -1.03845 0
M  V30 7295 C 691.755 -0.515385 -3.34857 0
M  V30 7296 C 690.314 -0.172006 -3.76007 0
M  V30 7297 C 689.461 -0.802808 -2.65425 0
M  V30 7298 H 692.412 -0.88652 -1.3163 0
M  V30 7299 H 692.433 0.229251 -3.79809 0
M  V30 7300 H 691.945 -1.57796 -3.54573 0
M  V30 7301 H 690.046 0.886716 -3.61895 0
M  V30 7302 H 690.159 -0.619717 -4.75075 0
M  V30 7303 H 688.523 -0.233267 -2.5363 0
M  V30 7304 H 689.306 -1.86904 -2.87961 0
M  V30 7305 N 691.751 1.51645 -0.429126 0
M  V30 7306 C 692.661 2.31288 0.392809 0
M  V30 7307 C 693.677 1.39852 1.03525 0
M  V30 7308 O 694.853 1.72926 1.03241 0
M  V30 7309 C 691.918 3.13347 1.48372 0
M  V30 7310 C 690.979 4.20551 0.862268 0
M  V30 7311 C 690.212 4.98688 1.9012 0
M  V30 7312 O 690.435 4.77359 3.12225 0
M  V30 7313 O 689.369 5.83005 1.4963 0
M  V30 7314 H 693.195 3.02609 -0.257138 0
M  V30 7315 H 690.78 1.48163 -0.191851 0
M  V30 7316 H 692.662 3.64387 2.1166 0
M  V30 7317 H 691.337 2.44799 2.1179 0
M  V30 7318 H 690.244 3.73609 0.191568 0
M  V30 7319 H 691.577 4.91449 0.271704 0
M  V30 7320 N 693.229 0.160201 1.56784 0
M  V30 7321 C 694.192 -0.760405 2.16219 0
M  V30 7322 C 695.192 -1.16595 1.10735 0
M  V30 7323 O 696.382 -1.08472 1.36306 0
M  V30 7324 C 693.514 -2.03358 2.73603 0
M  V30 7325 H 694.707 -0.243173 2.98912 0
M  V30 7326 H 692.26 -0.0893139 1.56045 0
M  V30 7327 H 692.995 -2.59416 1.94612 0
M  V30 7328 H 692.78 -1.75186 3.50788 0
M  V30 7329 H 694.27 -2.69081 3.19351 0
M  V30 7330 N 694.707 -1.5719 -0.113559 0
M  V30 7331 C 695.932 -1.89702 -0.838336 0
M  V30 7332 C 696.357 -0.752679 -1.72384 0
M  V30 7333 O 695.715 0.296575 -1.78858 0
M  V30 7334 C 695.763 -3.20989 -1.64312 0
M  V30 7335 O 694.867 -3.07278 -2.75053 0
M  V30 7336 H 694.208 -0.622339 -0.231496 0
M  V30 7337 H 696.738 -2.04382 -0.0943228 0
M  V30 7338 H 696.748 -3.53843 -2.03123 0
M  V30 7339 H 695.423 -4.03869 -0.993119 0
M  V30 7340 H 694 -2.85901 -2.39406 0
M  V30 7341 N 696.185 0.383891 -1.52853 0
M  V30 7342 C 697.462 1.14296 -1.58732 0
M  V30 7343 C 697.842 2.07585 -0.383611 0
M  V30 7344 O 697.19 2.1971 0.627661 0
M  V30 7345 C 697.4 1.89816 -2.92867 0
M  V30 7346 C 698.748 2.44998 -3.46787 0
M  V30 7347 O 699.772 1.99966 -2.94774 0
M  V30 7348 O 698.631 3.2727 -4.37672 0
M  V30 7349 H 695.725 0.52326 -0.640413 0
M  V30 7350 H 698.271 0.388631 -1.6519 0
M  V30 7351 H 697.043 1.21626 -3.71918 0
M  V30 7352 H 696.666 2.72199 -2.89816 0
M  V30 7353 N 697.663 1.43903 0.642637 0
M  V30 7354 C 698.61 1.49881 1.75512 0
M  V30 7355 C 699.58 0.347538 1.62423 0
M  V30 7356 O 700.765 0.556177 1.82514 0
M  V30 7357 C 697.905 1.43797 3.13714 0
M  V30 7358 C 697.018 2.6921 3.37861 0
M  V30 7359 C 696.153 2.5504 4.6597 0
M  V30 7360 C 695.192 3.75671 4.83257 0
M  V30 7361 N 694.329 3.60247 6.02633 0
M  V30 7362 H 699.169 2.44935 1.69737 0
M  V30 7363 H 696.706 1.21572 0.828165 0
M  V30 7364 H 698.664 1.38262 3.93624 0
M  V30 7365 H 697.294 0.523173 3.18532 0
M  V30 7366 H 696.346 2.8498 2.51973 0
M  V30 7367 H 697.658 3.58786 3.46517 0
M  V30 7368 H 696.812 2.47273 5.54023 0
M  V30 7369 H 695.551 1.63006 4.59653 0
M  V30 7370 H 694.556 3.83836 3.93637 0
M  V30 7371 H 695.781 4.68728 4.91397 0
M  V30 7372 H 693.727 2.70955 5.97427 0
M  V30 7373 H 693.644 4.43431 6.12295 0
M  V30 7374 H 694.912 3.56351 6.93278 0
M  V30 7375 N 699.141 -0.881989 1.30609 0
M  V30 7376 C 700.071 -2.00413 1.1982 0
M  V30 7377 C 701.052 -1.69871 0.0881538 0
M  V30 7378 O 702.237 -1.92304 0.2707 0
M  V30 7379 C 699.367 -3.35641 0.89233 0
M  V30 7380 C 698.321 -3.80451 1.96064 0
M  V30 7381 C 697.647 -5.13003 1.5077 0
M  V30 7382 C 698.947 -3.98855 3.37213 0
M  V30 7383 H 700.641 -2.09698 2.13699 0
M  V30 7384 H 698.187 -1.00754 1.02882 0
M  V30 7385 H 700.14 -4.13669 0.803497 0
M  V30 7386 H 698.864 -3.26497 -0.0821381 0
M  V30 7387 H 697.523 -3.04654 2.03916 0
M  V30 7388 H 697.171 -5.0029 0.521417 0
M  V30 7389 H 696.871 -5.43956 2.22229 0
M  V30 7390 H 698.395 -5.93554 1.43271 0
M  V30 7391 H 699.809 -4.67312 3.32103 0
M  V30 7392 H 698.206 -4.41188 4.06784 0
M  V30 7393 H 699.276 -3.02614 3.78883 0
M  V30 7394 N 700.619 -1.13374 -1.09472 0
M  V30 7395 C 701.549 -0.833268 -2.18126 0
M  V30 7396 C 702.53 0.207169 -1.68834 0
M  V30 7397 O 703.715 0.0662012 -1.94087 0
M  V30 7398 C 700.845 -0.297979 -3.46019 0
M  V30 7399 C 699.799 -1.27261 -4.08642 0
M  V30 7400 C 699.125 -0.597104 -5.31356 0
M  V30 7401 C 700.425 -2.63095 -4.51197 0
M  V30 7402 H 702.119 -1.74182 -2.43518 0
M  V30 7403 H 699.665 -0.838921 -1.17039 0
M  V30 7404 H 701.618 -0.0754444 -4.21332 0
M  V30 7405 H 700.342 0.645959 -3.20148 0
M  V30 7406 H 699.001 -1.48113 -3.35348 0
M  V30 7407 H 698.649 0.352293 -5.01765 0
M  V30 7408 H 698.349 -1.24734 -5.74208 0
M  V30 7409 H 699.873 -0.38384 -6.09392 0
M  V30 7410 H 701.287 -2.46214 -5.17737 0
M  V30 7411 H 699.684 -3.2429 -5.04932 0
M  V30 7412 H 700.754 -3.20793 -3.6362 0
M  V30 7413 N 702.098 1.27442 -0.927168 0
M  V30 7414 C 703.061 2.2512 -0.430525 0
M  V30 7415 C 704.061 1.54357 0.450619 0
M  V30 7416 O 705.251 1.72371 0.251774 0
M  V30 7417 C 702.383 3.38763 0.381144 0
M  V30 7418 H 703.576 2.70569 -1.29354 0
M  V30 7419 H 701.129 1.39355 -0.707806 0
M  V30 7420 H 701.864 2.98695 1.263 0
M  V30 7421 H 701.649 3.91298 -0.250618 0
M  V30 7422 H 703.139 4.11364 0.719012 0
M  V30 7423 N 703.576 0.692616 1.41565 0
M  V30 7424 C 704.539 0.0344174 2.29174 0
M  V30 7425 C 705.539 -0.710961 1.44229 0
M  V30 7426 O 706.729 -0.546293 1.65412 0
M  V30 7427 C 703.861 -0.961682 3.27054 0
M  V30 7428 H 705.054 0.805755 2.88873 0
M  V30 7429 H 702.607 0.455947 1.49502 0
M  V30 7430 H 703.342 -1.76089 2.72329 0
M  V30 7431 H 703.127 -0.430375 3.89731 0
M  V30 7432 H 704.617 -1.4201 3.92712 0
M  V30 7433 N 705.054 -1.51416 0.437162 0
M  V30 7434 C 706.002 -2.29328 -0.388765 0
M  V30 7435 C 706.996 -1.35171 -1.02104 0
M  V30 7436 O 708.202 -1.52513 -0.956024 0
M  V30 7437 H 704.577 -0.738048 -0.144183 0
M  V30 7438 H 706.548 -2.96995 0.289212 0
M  V30 7439 C 705.297 -3.14741 -1.47761 0
M  V30 7440 H 704.62 -3.8708 -1.00045 0
M  V30 7441 H 706.06 -3.72313 -2.02877 0
M  V30 7442 C 704.519 -2.30105 -2.46076 0
M  V30 7443 O 705.049 -1.96055 -3.50607 0
M  V30 7444 N 703.255 -1.93331 -2.1696 0
M  V30 7445 H 702.802 -2.2122 -1.31983 0
M  V30 7446 H 702.76 -1.36999 -2.82982 0
M  V30 7447 N 706.532 -0.168513 -1.56696 0
M  V30 7448 C 707.78 0.476216 -1.96409 0
M  V30 7449 C 708.101 1.63968 -1.05544 0
M  V30 7450 O 707.371 1.95525 -0.121235 0
M  V30 7451 H 705.951 0.178921 -0.725256 0
M  V30 7452 H 708.613 -0.249042 -1.93302 0
M  V30 7453 H 707.709 0.838094 -3.00637 0
M  V30 7454 N 708.01 1.57248 0.105221 0
M  V30 7455 C 709.287 1.76566 0.841647 0
M  V30 7456 C 709.667 0.747566 1.9742 0
M  V30 7457 O 709.015 -0.225886 2.27381 0
M  V30 7458 C 709.225 3.22016 1.3456 0
M  V30 7459 C 710.573 3.84911 1.79244 0
M  V30 7460 O 711.597 3.25703 1.44207 0
M  V30 7461 O 710.456 4.89008 2.43995 0
M  V30 7462 H 707.55 0.723443 0.400698 0
M  V30 7463 H 710.096 1.69472 0.0878893 0
M  V30 7464 H 708.868 3.87644 0.533685 0
M  V30 7465 H 708.491 3.33703 2.16167 0
M  V30 7466 N 709.488 -0.375779 1.53054 0
M  V30 7467 C 710.451 -1.44254 1.7811 0
M  V30 7468 C 711.451 -1.47018 0.651328 0
M  V30 7469 O 712.641 -1.47957 0.919472 0
M  V30 7470 C 709.773 -2.8345 1.89391 0
M  V30 7471 H 710.966 -1.23316 2.73374 0
M  V30 7472 H 708.519 -0.608312 1.43977 0
M  V30 7473 H 709.254 -3.09716 0.961589 0
M  V30 7474 H 709.039 -2.82844 2.71555 0
M  V30 7475 H 710.529 -3.60722 2.10404 0
M  V30 7476 N 710.966 -1.44241 -0.634997 0
M  V30 7477 C 712.212 -1.48033 -1.39492 0
M  V30 7478 C 712.567 -0.109791 -1.92086 0
M  V30 7479 O 711.86 0.874394 -1.70484 0
M  V30 7480 C 712.054 -2.47279 -2.58046 0
M  V30 7481 C 711.883 -3.93848 -2.17057 0
M  V30 7482 C 710.653 -4.62061 -2.04518 0
M  V30 7483 C 712.851 -4.83172 -1.76208 0
M  V30 7484 N 710.833 -5.93471 -1.57051 0
M  V30 7485 C 712.204 -6.03996 -1.39958 0
M  V30 7486 C 714.259 -4.70271 -1.63554 0
M  V30 7487 C 712.962 -7.13351 -0.923196 0
M  V30 7488 C 714.988 -5.79646 -1.1732 0
M  V30 7489 C 714.35 -6.99609 -0.820181 0
M  V30 7490 H 710.449 -0.596743 -0.505392 0
M  V30 7491 H 713.033 -1.80542 -0.72887 0
M  V30 7492 H 711.204 -2.16766 -3.22284 0
M  V30 7493 H 712.936 -2.41391 -3.24827 0
M  V30 7494 H 709.691 -4.1682 -2.24851 0
M  V30 7495 H 710.115 -6.63275 -1.35628 0
M  V30 7496 H 714.757 -3.77964 -1.8948 0
M  V30 7497 H 712.475 -8.0547 -0.651441 0
M  V30 7498 H 716.061 -5.71689 -1.07993 0
M  V30 7499 H 714.941 -7.82803 -0.467901 0
M  V30 7500 N 712.444 0.87505 -1.31075 0
M  V30 7501 C 713.69 1.63009 -1.20647 0
M  V30 7502 C 714.023 1.9276 0.236045 0
M  V30 7503 O 713.298 1.55559 1.16754 0
M  V30 7504 C 713.581 2.96357 -2.0456 0
M  V30 7505 C 713.434 2.73516 -3.57084 0
M  V30 7506 C 714.753 3.974 -1.89107 0
M  V30 7507 H 711.872 0.591518 -0.439631 0
M  V30 7508 H 714.514 1.0119 -1.60812 0
M  V30 7509 H 712.664 3.49119 -1.70435 0
M  V30 7510 H 714.336 2.27465 -4.01319 0
M  V30 7511 H 712.579 2.0784 -3.80769 0
M  V30 7512 H 713.25 3.68377 -4.11099 0
M  V30 7513 H 715.726 3.5383 -2.18961 0
M  V30 7514 H 714.602 4.88596 -2.5013 0
M  V30 7515 H 714.863 4.33794 -0.85296 0
M  V30 7516 N 713.922 1.13953 1.08869 0
M  V30 7517 C 715.169 0.90481 1.81161 0
M  V30 7518 C 715.497 -0.568824 1.85996 0
M  V30 7519 O 714.752 -1.43723 1.32823 0
M  V30 7520 C 715.051 1.44495 3.26888 0
M  V30 7521 C 714.717 2.93641 3.42178 0
M  V30 7522 C 713.379 3.34361 3.46059 0
M  V30 7523 C 715.731 3.89568 3.46246 0
M  V30 7524 C 713.059 4.69681 3.51592 0
M  V30 7525 C 715.411 5.2474 3.53314 0
M  V30 7526 C 714.075 5.64979 3.55465 0
M  V30 7527 H 713.345 0.331094 0.662916 0
M  V30 7528 H 715.992 1.42242 1.28217 0
M  V30 7529 H 714.297 0.848169 3.82509 0
M  V30 7530 H 715.994 1.23934 3.81368 0
M  V30 7531 H 712.584 2.61156 3.39846 0
M  V30 7532 H 716.768 3.59192 3.42483 0
M  V30 7533 H 712.024 5.00224 3.51547 0
M  V30 7534 H 716.198 5.98882 3.55406 0
M  V30 7535 H 713.825 6.69821 3.59505 0
M  V30 7536 N 715.4 -1.26948 0.933913 0
M  V30 7537 C 716.347 -2.26635 0.436484 0
M  V30 7538 C 717.317 -1.58397 -0.499953 0
M  V30 7539 O 718.502 -1.86171 -0.417753 0
M  V30 7540 C 715.642 -3.43803 -0.298951 0
M  V30 7541 C 714.755 -4.26736 0.672316 0
M  V30 7542 C 713.89 -5.31134 -0.0835872 0
M  V30 7543 C 712.929 -6.05742 0.879979 0
M  V30 7544 N 712.066 -7.01926 0.156301 0
M  V30 7545 H 716.906 -2.68558 1.29154 0
M  V30 7546 H 714.443 -1.32052 0.648118 0
M  V30 7547 H 716.401 -4.10554 -0.741723 0
M  V30 7548 H 715.031 -3.02814 -1.1182 0
M  V30 7549 H 714.083 -3.59842 1.23361 0
M  V30 7550 H 715.395 -4.78502 1.40846 0
M  V30 7551 H 714.549 -6.03863 -0.585984 0
M  V30 7552 H 713.288 -4.80188 -0.852661 0
M  V30 7553 H 712.293 -5.31846 1.39357 0
M  V30 7554 H 713.518 -6.58777 1.64894 0
M  V30 7555 H 711.464 -6.53301 -0.594413 0
M  V30 7556 H 711.381 -7.51409 0.831906 0
M  V30 7557 H 712.649 -7.78821 -0.325239 0
M  V30 7558 N 716.879 -0.700114 -1.41195 0
M  V30 7559 C 718.127 -0.232546 -2.00758 0
M  V30 7560 C 718.448 1.1734 -1.55745 0
M  V30 7561 O 717.718 1.79262 -0.790058 0
M  V30 7562 H 716.298 -0.0829845 -0.742376 0
M  V30 7563 H 718.96 -0.902289 -1.72756 0
M  V30 7564 H 718.056 -0.253521 -3.11069 0
M  V30 7565 O 718.396 1.50447 -0.587194 0
M  V30 7566 H 719.087 1.93476 -0.0931656 0
M  V30 END ATOM
M  V30 BEGIN BOND
M  V30 END BOND
M  V30 END CTAB
M  END
$$$$
