drugbank_target|A0A0T9AZ62 ABC transporter ATP-binding protein (DB05154)
 OpenBabel12092121203D

  0  0  0     0  0            999 V3000
M  V30 BEGIN CTAB
M  V30 COUNTS 6431 6470 0 0 0
M  V30 BEGIN ATOM
M  V30 1 H -0.908 1.98254 -0.117106 0
M  V30 2 N 0 1.576 0 0
M  V30 3 C 0.933 2.03868 1.02534 0
M  V30 4 C 1.911 0.928543 1.3348 0
M  V30 5 O 3.095 1.19667 1.45644 0
M  V30 6 C 0.222 2.43627 2.35294 0
M  V30 7 C -0.732 3.65373 2.2001 0
M  V30 8 S 0.101 5.13292 1.52614 0
M  V30 9 C 1.257 5.56322 2.86805 0
M  V30 10 H 1.49 2.90518 0.631377 0
M  V30 11 H -0.977 1.52953 0.210867 0
M  V30 12 H 0.981 2.67203 3.11629 0
M  V30 13 H -0.358 1.57376 2.7183 0
M  V30 14 H -1.165 3.90944 3.18086 0
M  V30 15 H -1.563 3.418 1.51819 0
M  V30 16 H 0.729 5.58782 3.83104 0
M  V30 17 H 1.672 6.56266 2.65933 0
M  V30 18 H 2.08 4.83886 2.90714 0
M  V30 19 N 1.4781 -0.272755 1.55222 0
M  V30 20 C 2.4081 -1.34136 1.91127 0
M  V30 21 C 3.3891 -1.51513 0.773168 0
M  V30 22 O 4.5741 -1.64552 1.03132 0
M  V30 23 C 1.7041 -2.70083 2.1834 0
M  V30 24 C 0.6581 -2.67437 3.34158 0
M  V30 25 C -0.0159 -4.06938 3.46851 0
M  V30 26 C 1.2841 -2.26686 4.70543 0
M  V30 27 H 2.9781 -1.04333 2.80633 0
M  V30 28 H 0.5241 -0.500454 1.35024 0
M  V30 29 H 2.4771 -3.44952 2.42046 0
M  V30 30 H 1.2011 -3.01469 1.25634 0
M  V30 31 H -0.1399 -1.95026 3.1042 0
M  V30 32 H -0.4919 -4.35547 2.51611 0
M  V30 33 H -0.7919 -4.06062 4.2472 0
M  V30 34 H 0.7321 -4.83545 3.72849 0
M  V30 35 H 2.1461 -2.91277 4.93792 0
M  V30 36 H 0.5431 -2.36971 5.5133 0
M  V30 37 H 1.6131 -1.21818 4.69349 0
M  V30 38 N 2.9562 -1.48159 -0.537278 0
M  V30 39 C 4.2022 -1.56035 -1.29541 0
M  V30 40 C 4.5352 -0.230377 -1.92829 0
M  V30 41 O 3.8102 0.762952 -1.78911 0
M  V30 42 C 4.0932 -2.69323 -2.39034 0
M  V30 43 C 3.9462 -4.12002 -1.80485 0
M  V30 44 C 5.2652 -2.78408 -3.40847 0
M  V30 45 H 2.3842 -0.567992 -0.469632 0
M  V30 46 H 5.0262 -1.80302 -0.599277 0
M  V30 47 H 3.1762 -2.48763 -2.98412 0
M  V30 48 H 4.8482 -4.43981 -1.25215 0
M  V30 49 H 3.0912 -4.19344 -1.11055 0
M  V30 50 H 3.7622 -4.87077 -2.59731 0
M  V30 51 H 6.2382 -2.97012 -2.91416 0
M  V30 52 H 5.1142 -3.59416 -4.14863 0
M  V30 53 H 5.3752 -1.86269 -4.00944 0
M  V30 54 N 4.4343 0.785586 -1.36625 0
M  V30 55 C 5.8503 1.08419 -1.17122 0
M  V30 56 C 6.0503 2.015 0.00208491 0
M  V30 57 O 5.1063 2.43551 0.666278 0
M  V30 58 C 6.4193 1.69498 -2.48377 0
M  V30 59 C 7.9673 1.81821 -2.54775 0
M  V30 60 C 8.4423 2.46315 -3.86126 0
M  V30 61 N 9.9333 2.53779 -3.87492 0
M  V30 62 C 10.6683 3.045 -4.85868 0
M  V30 63 N 10.1643 3.55499 -5.94637 0
M  V30 64 N 11.9573 3.03247 -4.73284 0
M  V30 65 H 4.1083 0.167264 -2.1174 0
M  V30 66 H 6.3713 0.13682 -0.938075 0
M  V30 67 H 6.0773 1.08571 -3.34522 0
M  V30 68 H 5.9513 2.6896 -2.64462 0
M  V30 69 H 8.3383 2.41884 -1.69045 0
M  V30 70 H 8.4193 0.811532 -2.42586 0
M  V30 71 H 8.0633 1.86895 -4.72263 0
M  V30 72 H 7.9933 3.47561 -3.95612 0
M  V30 73 H 10.4843 2.17672 -3.08913 0
M  V30 74 H 10.7973 3.92562 -6.65669 0
M  V30 75 H 9.1423 3.5364 -5.98301 0
M  V30 76 H 12.3333 2.62696 -3.87438 0
M  V30 77 H 12.5063 3.42467 -5.50109 0
M  V30 78 N 5.9124 1.20967 1.01018 0
M  V30 79 C 6.8754 0.965918 2.07853 0
M  V30 80 C 7.8754 -0.0610545 1.60684 0
M  V30 81 O 9.0654 0.175681 1.73312 0
M  V30 82 C 6.1974 0.455513 3.37843 0
M  V30 83 H 7.3904 1.91365 2.3091 0
M  V30 84 H 4.9434 1.02594 1.17916 0
M  V30 85 H 5.6784 -0.497381 3.20463 0
M  V30 86 H 5.4634 1.19622 3.73407 0
M  V30 87 H 6.9534 0.304667 4.16487 0
M  V30 88 N 7.3905 -1.2043 1.01659 0
M  V30 89 C 8.3205 -2.25466 0.607226 0
M  V30 90 C 9.3015 -1.65853 -0.377716 0
M  V30 91 O 10.4865 -1.92409 -0.263149 0
M  V30 92 C 7.6165 -3.47256 -0.0552949 0
M  V30 93 C 6.5705 -4.19462 0.850632 0
M  V30 94 C 5.8965 -5.34673 0.0538859 0
M  V30 95 C 7.1965 -4.75603 2.15868 0
M  V30 96 H 8.8905 -2.59962 1.48526 0
M  V30 97 H 6.4365 -1.2496 0.715605 0
M  V30 98 H 8.3895 -4.19917 -0.353233 0
M  V30 99 H 7.1135 -3.11924 -0.968045 0
M  V30 100 H 5.7725 -3.48667 1.13257 0
M  V30 101 H 5.4205 -4.95585 -0.860514 0
M  V30 102 H 5.1205 -5.83913 0.657192 0
M  V30 103 H 6.6445 -6.10138 -0.237598 0
M  V30 104 H 8.0585 -5.40083 1.92311 0
M  V30 105 H 6.4555 -5.3528 2.71284 0
M  V30 106 H 7.5255 -3.94346 2.82169 0
M  V30 107 N 8.8686 -0.792821 -1.36206 0
M  V30 108 C 10.1146 -0.36733 -1.99446 0
M  V30 109 C 10.4476 1.05917 -1.62774 0
M  V30 110 O 9.7226 1.7324 -0.88421 0
M  V30 111 C 10.0056 -0.535044 -3.56103 0
M  V30 112 C 9.8586 -2.00548 -4.02617 0
M  V30 113 C 11.1776 0.0478191 -4.40074 0
M  V30 114 H 8.2966 -0.134941 -0.724541 0
M  V30 115 H 10.9386 -0.999794 -1.61568 0
M  V30 116 H 9.0886 0.00336329 -3.885 0
M  V30 117 H 10.7606 -2.60521 -3.80692 0
M  V30 118 H 9.0036 -2.50686 -3.54032 0
M  V30 119 H 9.6746 -2.07377 -5.11565 0
M  V30 120 H 12.1506 -0.411822 -4.14057 0
M  V30 121 H 11.0266 -0.0995336 -5.4881 0
M  V30 122 H 11.2876 1.14025 -4.27142 0
M  V30 123 N 10.3467 1.47872 -0.545128 0
M  V30 124 C 11.7577 1.86384 -0.108581 0
M  V30 125 C 12.1087 1.45309 1.31832 0
M  V30 126 O 11.2337 0.850641 1.9898 0
M  V30 127 C 11.8287 3.38265 -0.190274 0
M  V30 128 C 10.3877 3.75914 0.191164 0
M  V30 129 C 9.5347 2.71926 -0.543273 0
M  V30 130 H 12.4857 1.39561 -0.755537 0
M  V30 131 H 12.5067 3.75831 0.594217 0
M  V30 132 H 12.0187 3.6813 -1.2289 0
M  V30 133 H 10.1197 3.51665 1.23136 0
M  V30 134 H 10.2327 4.78836 -0.158987 0
M  V30 135 H 8.5967 2.54697 0.0122495 0
M  V30 136 H 9.3797 3.04634 -1.58282 0
M  V30 137 N 11.8248 0.280983 1.55075 0
M  V30 138 C 13.0738 -0.334784 1.98902 0
M  V30 139 C 13.3868 -1.56534 1.17288 0
M  V30 140 O 14.5928 -2.25443 1.51287 0
M  V30 141 C 13.0488 -0.646994 3.54037 0
M  V30 142 C 12.6568 0.564085 4.44435 0
M  V30 143 C 14.4008 -1.22506 4.06439 0
M  V30 144 C 12.3078 0.226137 5.90967 0
M  V30 145 H 11.2378 -0.128866 0.742906 0
M  V30 146 H 13.8888 0.386556 1.79382 0
M  V30 147 H 12.2708 -1.42739 3.6938 0
M  V30 148 H 13.4448 1.34082 4.40861 0
M  V30 149 H 11.7598 1.0594 4.02698 0
M  V30 150 H 14.3568 -1.49182 5.13468 0
M  V30 151 H 14.6998 -2.16085 3.55827 0
M  V30 152 H 15.2328 -0.50682 3.94558 0
M  V30 153 H 11.9718 1.12996 6.45687 0
M  V30 154 H 11.4918 -0.513717 5.97596 0
M  V30 155 H 13.1708 -0.179539 6.46751 0
M  V30 156 N 13.3029 -1.57598 0.00835791 0
M  V30 157 C 14.2659 -2.07884 -0.965242 0
M  V30 158 C 15.2659 -0.989825 -1.26725 0
M  V30 159 O 16.4559 -1.25218 -1.21104 0
M  V30 160 C 13.5879 -2.52731 -2.28779 0
M  V30 161 H 14.7809 -2.95178 -0.530112 0
M  V30 162 H 12.3339 -1.54458 -0.239283 0
M  V30 163 H 13.0689 -1.68705 -2.76964 0
M  V30 164 H 12.8539 -3.32272 -2.08177 0
M  V30 165 H 14.3439 -2.91933 -2.98605 0
M  V30 166 N 14.781 0.264519 -1.55364 0
M  V30 167 C 16.027 0.99646 -1.76631 0
M  V30 168 C 16.36 1.85632 -0.570478 0
M  V30 169 O 15.635 1.89647 0.43175 0
M  V30 170 C 15.918 1.87187 -3.07625 0
M  V30 171 C 15.771 1.04138 -4.37579 0
M  V30 172 C 17.09 2.85749 -3.34717 0
M  V30 173 H 14.209 0.360841 -0.642622 0
M  V30 174 H 16.851 0.268218 -1.88097 0
M  V30 175 H 15.001 2.49279 -2.9798 0
M  V30 176 H 16.673 0.440517 -4.59192 0
M  V30 177 H 14.916 0.345115 -4.32425 0
M  V30 178 H 15.587 1.68729 -5.2558 0
M  V30 179 H 18.063 2.33793 -3.4421 0
M  V30 180 H 16.939 3.44136 -4.27623 0
M  V30 181 H 17.2 3.61311 -2.54768 0
M  V30 182 N 16.2591 1.48442 0.529413 0
M  V30 183 C 17.2221 1.62524 1.61612 0
M  V30 184 C 18.2221 0.498509 1.52877 0
M  V30 185 O 19.4121 0.76431 1.56537 0
M  V30 186 C 16.5441 1.59597 3.01233 0
M  V30 187 H 17.7371 2.59423 1.50465 0
M  V30 188 H 15.2901 1.37047 0.751514 0
M  V30 189 H 16.0251 0.641781 3.17886 0
M  V30 190 H 15.8101 2.41397 3.08982 0
M  V30 191 H 17.3001 1.72646 3.80241 0
M  V30 192 N 17.7372 -0.778329 1.37039 0
M  V30 193 C 18.7002 -1.87301 1.32102 0
M  V30 194 C 19.7002 -1.59198 0.226405 0
M  V30 195 O 20.8902 -1.67403 0.481861 0
M  V30 196 C 18.0222 -3.24309 1.05055 0
M  V30 197 H 19.2152 -1.93093 2.29467 0
M  V30 198 H 16.7682 -0.977358 1.21973 0
M  V30 199 H 17.5032 -3.24196 0.0819373 0
M  V30 200 H 17.2882 -3.46098 1.84279 0
M  V30 201 H 18.7782 -4.04382 1.04234 0
M  V30 202 N 19.2153 -1.21501 -1.00376 0
M  V30 203 C 20.4613 -1.03452 -1.74429 0
M  V30 204 C 20.7943 0.430764 -1.89362 0
M  V30 205 O 20.0693 1.31962 -1.42886 0
M  V30 206 C 20.3523 -1.73375 -3.15615 0
M  V30 207 C 20.2053 -3.27431 -3.08397 0
M  V30 208 C 21.5243 -1.47732 -4.14564 0
M  V30 209 H 18.6433 -0.377226 -0.633143 0
M  V30 210 H 21.2853 -1.49693 -1.17013 0
M  V30 211 H 19.4353 -1.34064 -3.64636 0
M  V30 212 H 21.1073 -3.76119 -2.67081 0
M  V30 213 H 19.3503 -3.5767 -2.45468 0
M  V30 214 H 20.0213 -3.71524 -4.08258 0
M  V30 215 H 22.4973 -1.8186 -3.74254 0
M  V30 216 H 21.3733 -1.99169 -5.11491 0
M  V30 217 H 21.6343 -0.407589 -4.40217 0
M  V30 218 N 20.6934 1.19889 -1.02296 0
M  V30 219 C 21.6234 2.25141 -0.619174 0
M  V30 220 C 22.6044 1.66051 0.368915 0
M  V30 221 O 23.7894 1.92546 0.252941 0
M  V30 222 C 20.9194 3.4728 0.0368783 0
M  V30 223 C 19.8734 4.19005 -0.872865 0
M  V30 224 C 19.1994 5.34637 -0.0822402 0
M  V30 225 C 20.4994 4.74452 -2.18387 0
M  V30 226 H 22.1934 2.59171 -1.49903 0
M  V30 227 H 19.7394 1.24579 -0.722222 0
M  V30 228 H 21.6924 4.20098 0.330958 0
M  V30 229 H 20.4164 3.12433 0.95149 0
M  V30 230 H 19.0754 3.48061 -1.15105 0
M  V30 231 H 18.7234 4.96034 0.83422 0
M  V30 232 H 18.4234 5.83557 -0.688149 0
M  V30 233 H 19.9474 6.10255 0.205238 0
M  V30 234 H 21.3614 5.39055 -1.95172 0
M  V30 235 H 19.7584 5.33834 -2.74119 0
M  V30 236 H 20.8284 3.92844 -2.84257 0
M  V30 237 N 22.1715 0.800033 1.35784 0
M  V30 238 C 23.1345 0.211565 2.28221 0
M  V30 239 C 24.1345 -0.59728 1.49296 0
M  V30 240 O 25.3245 -0.416721 1.69142 0
M  V30 241 C 22.4565 -0.705846 3.33513 0
M  V30 242 H 23.6495 1.02677 2.81776 0
M  V30 243 H 21.2025 0.570211 1.45528 0
M  V30 244 H 21.9375 -1.54498 2.85133 0
M  V30 245 H 21.7225 -0.127655 3.91892 0
M  V30 246 H 23.2125 -1.11211 4.02519 0
M  V30 247 N 23.6496 -1.47581 0.552962 0
M  V30 248 C 24.8956 -2.02782 0.0273648 0
M  V30 249 C 25.2286 -1.42687 -1.31734 0
M  V30 250 O 24.5036 -0.580897 -1.85623 0
M  V30 251 C 24.7866 -3.60031 -0.0702371 0
M  V30 252 C 24.6396 -4.30566 1.30126 0
M  V30 253 C 25.9586 -4.33028 -0.785771 0
M  V30 254 H 23.0776 -0.736912 0.0114185 0
M  V30 255 H 25.7196 -1.76056 0.714432 0
M  V30 256 H 23.8696 -3.82932 -0.655382 0
M  V30 257 H 25.5416 -4.19018 1.92929 0
M  V30 258 H 23.7846 -3.91086 1.87709 0
M  V30 259 H 24.4556 -5.39114 1.18573 0
M  V30 260 H 26.9316 -4.15095 -0.288982 0
M  V30 261 H 25.8076 -5.42695 -0.823013 0
M  V30 262 H 26.0686 -4.01945 -1.841 0
M  V30 263 N 25.1277 -0.289203 -1.54924 0
M  V30 264 C 26.0907 0.579144 -2.21762 0
M  V30 265 C 27.0907 1.07047 -1.1999 0
M  V30 266 O 28.2807 0.968384 -1.44803 0
M  V30 267 C 25.4127 1.80055 -2.8947 0
M  V30 268 H 26.6057 -0.00464908 -2.999 0
M  V30 269 H 24.1587 -0.0399306 -1.56249 0
M  V30 270 H 24.8937 2.42449 -2.15381 0
M  V30 271 H 24.6787 1.45602 -3.64064 0
M  V30 272 H 26.1687 2.41773 -3.40493 0
M  V30 273 N 26.6058 1.57591 -0.0167156 0
M  V30 274 C 27.5688 2.08393 0.954204 0
M  V30 275 C 28.5688 0.996531 1.26198 0
M  V30 276 O 29.7588 1.25858 1.20438 0
M  V30 277 C 26.8908 2.5394 2.27436 0
M  V30 278 H 28.0838 2.95455 0.514451 0
M  V30 279 H 25.6368 1.54582 0.231089 0
M  V30 280 H 26.3718 1.70171 2.76066 0
M  V30 281 H 26.1568 3.33371 2.06412 0
M  V30 282 H 27.6468 2.93512 2.97053 0
M  V30 283 N 28.0839 -0.256276 1.55502 0
M  V30 284 C 29.3119 -1.00342 1.8094 0
M  V30 285 C 29.7269 -1.79307 0.59114 0
M  V30 286 O 29.0839 -1.77114 -0.440081 0
M  V30 287 C 29.1349 -1.94875 3.04476 0
M  V30 288 O 28.8559 -1.19107 4.21598 0
M  V30 289 C 30.3569 -2.81266 3.42644 0
M  V30 290 H 27.5769 -0.295685 0.602338 0
M  V30 291 H 30.1209 -0.281998 2.02546 0
M  V30 292 H 28.2759 -2.62457 2.84947 0
M  V30 293 H 28.6899 -1.82969 4.91551 0
M  V30 294 H 30.1639 -3.43362 4.32211 0
M  V30 295 H 30.6409 -3.51897 2.62802 0
M  V30 296 H 31.2469 -2.1915 3.64491 0
M  V30 297 N 29.562 -1.4872 -0.521534 0
M  V30 298 C 30.525 -1.63379 -1.60748 0
M  V30 299 C 31.525 -0.50661 -1.52611 0
M  V30 300 O 32.715 -0.772601 -1.5613 0
M  V30 301 C 29.847 -1.61192 -3.00383 0
M  V30 302 H 31.04 -2.60217 -1.49087 0
M  V30 303 H 28.593 -1.37444 -0.744235 0
M  V30 304 H 29.328 -0.65863 -3.17541 0
M  V30 305 H 29.113 -2.43032 -3.07698 0
M  V30 306 H 30.603 -1.7466 -3.7932 0
M  V30 307 N 31.0401 0.771051 -1.3745 0
M  V30 308 C 32.2861 1.5319 -1.32894 0
M  V30 309 C 32.6191 1.94008 0.0862511 0
M  V30 310 O 31.8941 1.64124 1.04373 0
M  V30 311 C 32.1771 2.79648 -2.26868 0
M  V30 312 C 32.0301 2.45079 -3.77169 0
M  V30 313 C 33.3491 3.81583 -2.19277 0
M  V30 314 H 30.4681 0.555744 -0.484064 0
M  V30 315 H 33.1101 0.884492 -1.68157 0
M  V30 316 H 31.2601 3.34891 -1.96926 0
M  V30 317 H 32.9321 1.95745 -4.1771 0
M  V30 318 H 31.1751 1.77767 -3.95704 0
M  V30 319 H 31.8461 3.35478 -4.38359 0
M  V30 320 H 34.3221 3.35835 -2.45671 0
M  V30 321 H 33.1981 4.67787 -2.87171 0
M  V30 322 H 33.4591 4.25897 -1.18592 0
M  V30 323 N 32.5182 1.22032 0.997298 0
M  V30 324 C 33.7642 1.04376 1.73878 0
M  V30 325 C 34.0972 -0.420716 1.89588 0
M  V30 326 O 33.3722 -1.31202 1.43583 0
M  V30 327 C 33.6552 1.75047 3.14691 0
M  V30 328 C 33.5082 3.29062 3.06656 0
M  V30 329 C 34.8272 1.49928 4.13775 0
M  V30 330 H 31.9462 0.380578 0.631133 0
M  V30 331 H 34.5882 1.50312 1.16217 0
M  V30 332 H 32.7382 1.35996 3.63919 0
M  V30 333 H 34.4102 3.7753 2.65083 0
M  V30 334 H 32.6532 3.58967 2.43568 0
M  V30 335 H 33.3242 3.73683 4.06282 0
M  V30 336 H 35.8002 1.83842 3.73285 0
M  V30 337 H 34.6762 2.01878 5.10428 0
M  V30 338 H 34.9372 0.430929 4.39995 0
M  V30 339 N 33.9963 -1.19345 1.0293 0
M  V30 340 C 34.9593 -2.20793 0.615069 0
M  V30 341 C 35.9593 -1.57553 -0.321533 0
M  V30 342 O 37.1493 -1.73862 -0.108483 0
M  V30 343 C 34.2813 -3.40754 -0.0999222 0
M  V30 344 H 35.4743 -2.58955 1.51269 0
M  V30 345 H 33.0273 -1.3303 0.820534 0
M  V30 346 H 33.7623 -3.0811 -1.01187 0
M  V30 347 H 33.5473 -3.87889 0.57309 0
M  V30 348 H 35.0373 -4.15898 -0.376645 0
M  V30 349 N 35.4744 -0.807222 -1.35358 0
M  V30 350 C 36.4374 -0.223665 -2.28106 0
M  V30 351 C 37.4374 0.589354 -1.4961 0
M  V30 352 O 38.6274 0.407745 -1.69361 0
M  V30 353 C 35.7594 0.688149 -3.33882 0
M  V30 354 H 36.9524 -1.04169 -2.81227 0
M  V30 355 H 34.5054 -0.577921 -1.45223 0
M  V30 356 H 35.2404 1.52984 -2.85948 0
M  V30 357 H 35.0254 0.10687 -3.91954 0
M  V30 358 H 36.5154 1.09075 -4.03104 0
M  V30 359 N 36.9525 1.47285 -0.560781 0
M  V30 360 C 38.1985 2.02764 -0.0381184 0
M  V30 361 C 38.5315 1.43384 1.30976 0
M  V30 362 O 37.8065 0.590733 1.85312 0
M  V30 363 C 38.0895 3.60064 0.0511427 0
M  V30 364 C 37.9425 4.2987 -1.32408 0
M  V30 365 C 39.2615 4.33439 0.762795 0
M  V30 366 H 36.3805 0.736841 -0.0153264 0
M  V30 367 H 39.0225 1.75675 -0.723759 0
M  V30 368 H 37.1725 3.83274 0.635065 0
M  V30 369 H 38.8445 4.17989 -1.95148 0
M  V30 370 H 37.0875 3.90085 -1.8978 0
M  V30 371 H 37.7585 5.38478 -1.21431 0
M  V30 372 H 40.2345 4.15243 0.266965 0
M  V30 373 H 39.1105 5.43124 0.794221 0
M  V30 374 H 39.3715 4.02915 1.81966 0
M  V30 375 N 38.4306 0.297415 1.54768 0
M  V30 376 C 39.6556 -0.318435 2.04941 0
M  V30 377 C 40.0806 -1.4701 1.17345 0
M  V30 378 O 39.4386 -1.80436 0.176758 0
M  V30 379 C 39.4866 -0.755749 3.52592 0
M  V30 380 O 38.5906 -1.86088 3.68028 0
M  V30 381 H 37.9316 -0.062421 0.661059 0
M  V30 382 H 40.4616 0.438215 1.99852 0
M  V30 383 H 40.4716 -1.04552 3.94376 0
M  V30 384 H 39.1466 0.0867233 4.1581 0
M  V30 385 H 37.7236 -1.57193 3.38149 0
M  V30 386 N 39.9087 -1.5758 0.0250728 0
M  V30 387 C 41.1547 -1.91917 -0.655413 0
M  V30 388 C 41.4877 -0.901433 -1.72011 0
M  V30 389 O 40.7627 0.0764069 -1.9435 0
M  V30 390 C 41.0457 -3.36751 -1.27558 0
M  V30 391 C 40.8987 -4.49258 -0.220719 0
M  V30 392 C 42.2177 -3.81469 -2.19475 0
M  V30 393 H 39.3367 -0.697925 -0.23679 0
M  V30 394 H 41.9787 -1.89825 0.0815036 0
M  V30 395 H 40.1287 -3.38664 -1.90365 0
M  V30 396 H 41.8007 -4.59478 0.409601 0
M  V30 397 H 40.0437 -4.31415 0.454264 0
M  V30 398 H 40.7147 -5.47618 -0.694175 0
M  V30 399 H 43.1907 -3.81266 -1.66659 0
M  V30 400 H 42.0667 -4.83512 -2.59822 0
M  V30 401 H 42.3277 -3.16744 -3.08424 0
M  V30 402 N 41.3868 0.248026 -1.55636 0
M  V30 403 C 42.7978 0.817177 -1.67866 0
M  V30 404 C 43.1488 1.86069 -0.622322 0
M  V30 405 O 42.2738 2.15157 0.231618 0
M  V30 406 C 42.8688 1.489 -3.04326 0
M  V30 407 C 41.4278 2.00587 -3.185 0
M  V30 408 C 40.5748 0.856573 -2.63739 0
M  V30 409 H 43.5258 0.0238579 -1.58682 0
M  V30 410 H 43.5468 2.35698 -2.98708 0
M  V30 411 H 43.0588 0.729279 -3.81186 0
M  V30 412 H 41.1598 2.79443 -2.4646 0
M  V30 413 H 41.2728 2.20402 -4.25393 0
M  V30 414 H 39.6368 1.25678 -2.21534 0
M  V30 415 H 40.4198 0.109953 -3.43124 0
M  V30 416 N 42.8649 1.48995 0.513639 0
M  V30 417 C 43.8279 1.64229 1.59879 0
M  V30 418 C 44.8279 0.514696 1.5234 0
M  V30 419 O 46.0179 0.78087 1.55718 0
M  V30 420 C 43.1499 1.62783 2.99524 0
M  V30 421 H 44.3429 2.61004 1.47705 0
M  V30 422 H 41.8959 1.37837 0.736936 0
M  V30 423 H 42.6309 0.675461 3.17188 0
M  V30 424 H 42.4159 2.4466 3.06404 0
M  V30 425 H 43.9059 1.76669 3.78388 0
M  V30 426 N 44.343 -0.763751 1.37857 0
M  V30 427 C 45.306 -1.85889 1.34081 0
M  V30 428 C 46.306 -1.58949 0.243277 0
M  V30 429 O 47.496 -1.66882 0.499589 0
M  V30 430 C 44.628 -3.23176 1.08489 0
M  V30 431 H 45.821 -1.90648 2.31502 0
M  V30 432 H 43.374 -0.964367 1.23003 0
M  V30 433 H 44.109 -3.24091 0.116318 0
M  V30 434 H 43.894 -3.44124 1.8794 0
M  V30 435 H 45.384 -4.03254 1.08517 0
M  V30 436 N 45.8211 -1.22559 -0.990812 0
M  V30 437 C 47.0671 -1.05297 -1.73322 0
M  V30 438 C 47.4001 0.410655 -1.89808 0
M  V30 439 O 46.6751 1.30439 -1.44277 0
M  V30 440 C 46.9581 -1.76713 -3.13759 0
M  V30 441 C 46.8111 -3.30684 -3.04907 0
M  V30 442 C 48.1301 -1.52121 -4.12974 0
M  V30 443 H 45.2491 -0.38392 -0.629106 0
M  V30 444 H 47.8911 -1.50926 -1.15418 0
M  V30 445 H 46.0411 -1.37924 -3.63193 0
M  V30 446 H 47.7131 -3.7893 -2.63077 0
M  V30 447 H 45.9561 -3.60253 -2.41661 0
M  V30 448 H 46.6271 -3.75833 -4.04294 0
M  V30 449 H 49.1031 -1.85819 -3.72304 0
M  V30 450 H 47.9791 -2.04582 -5.0935 0
M  V30 451 H 48.2401 -0.454257 -4.3976 0
M  V30 452 N 47.2992 1.18797 -1.03562 0
M  V30 453 C 48.5452 1.8893 -0.737113 0
M  V30 454 C 48.8782 1.79837 0.732956 0
M  V30 455 O 48.1532 1.19525 1.5344 0
M  V30 456 C 48.4362 3.39607 -1.19745 0
M  V30 457 C 48.2892 3.57537 -2.72924 0
M  V30 458 C 49.6082 4.33069 -0.783526 0
M  V30 459 H 46.7272 0.686057 -0.269249 0
M  V30 460 H 49.3692 1.39797 -1.28673 0
M  V30 461 H 47.5192 3.81583 -0.729855 0
M  V30 462 H 49.1912 3.24688 -3.27682 0
M  V30 463 H 47.4342 3.00363 -3.12993 0
M  V30 464 H 48.1052 4.63238 -3.00191 0
M  V30 465 H 50.5812 3.98846 -1.18581 0
M  V30 466 H 49.4572 5.3707 -1.13343 0
M  V30 467 H 49.7182 4.40986 0.313681 0
M  V30 468 N 48.7773 0.814389 1.34928 0
M  V30 469 C 49.7073 0.244827 2.32213 0
M  V30 470 C 50.6883 -0.634024 1.57842 0
M  V30 471 O 51.8733 -0.562676 1.8587 0
M  V30 472 C 49.0033 -0.601106 3.42058 0
M  V30 473 C 47.9573 0.179896 4.27622 0
M  V30 474 C 47.2833 -0.788237 5.28858 0
M  V30 475 C 48.5833 1.38329 5.03649 0
M  V30 476 H 50.2773 1.05763 2.80097 0
M  V30 477 H 47.8233 0.510029 1.34665 0
M  V30 478 H 49.7763 -1.00968 4.09125 0
M  V30 479 H 48.5003 -1.44688 2.92802 0
M  V30 480 H 47.1593 0.569739 3.62146 0
M  V30 481 H 46.8073 -1.62973 4.75866 0
M  V30 482 H 46.5073 -0.269942 5.8698 0
M  V30 483 H 48.0313 -1.19485 5.98795 0
M  V30 484 H 49.4453 1.04918 5.63618 0
M  V30 485 H 47.8423 1.83662 5.71304 0
M  V30 486 H 48.9123 2.16592 4.33839 0
M  V30 487 N 50.2554 -1.46986 0.568584 0
M  V30 488 C 51.2184 -2.28624 -0.162366 0
M  V30 489 C 52.2184 -1.37596 -0.832103 0
M  V30 490 O 53.4084 -1.60115 -0.68622 0
M  V30 491 C 50.5404 -3.17596 -1.23878 0
M  V30 492 H 51.7334 -2.94722 0.554899 0
M  V30 493 H 49.2864 -1.52863 0.325976 0
M  V30 494 H 50.0214 -2.56214 -1.98808 0
M  V30 495 H 49.8064 -3.846 -0.763219 0
M  V30 496 H 51.2964 -3.79078 -1.75185 0
M  V30 497 N 51.7335 -0.305618 -1.54608 0
M  V30 498 C 52.9795 0.302746 -2.00528 0
M  V30 499 C 53.3125 1.53184 -1.19367 0
M  V30 500 O 52.5875 1.92598 -0.271321 0
M  V30 501 C 52.8705 0.654756 -3.54097 0
M  V30 502 C 52.7235 -0.583793 -4.45995 0
M  V30 503 C 54.0425 1.47947 -4.14487 0
M  V30 504 H 51.1615 0.108564 -0.72896 0
M  V30 505 H 53.8035 -0.418634 -1.85331 0
M  V30 506 H 51.9535 1.26935 -3.67178 0
M  V30 507 H 53.6255 -1.22224 -4.44814 0
M  V30 508 H 51.8685 -1.21615 -4.16404 0
M  V30 509 H 52.5395 -0.293287 -5.5122 0
M  V30 510 H 55.0155 0.96013 -4.04871 0
M  V30 511 H 53.8915 1.69454 -5.22088 0
M  V30 512 H 54.1525 2.47011 -3.66658 0
M  V30 513 N 53.2116 1.57565 -0.0334293 0
M  V30 514 C 54.4516 1.93844 0.648379 0
M  V30 515 C 54.8156 0.910387 1.69044 0
M  V30 516 O 56.0166 1.15952 2.42505 0
M  V30 517 C 54.2876 3.35017 1.24492 0
M  V30 518 S 55.8466 3.93229 1.94721 0
M  V30 519 H 52.6646 0.678231 0.213364 0
M  V30 520 H 55.2666 1.95254 -0.0981253 0
M  V30 521 H 53.9706 4.07652 0.474128 0
M  V30 522 H 53.5016 3.37061 2.02864 0
M  V30 523 H 55.5166 3.77014 3.22606 0
M  V30 524 N 54.6897 -0.239769 1.55765 0
M  V30 525 C 55.6197 -1.30052 1.9393 0
M  V30 526 C 56.6007 -1.49839 0.805132 0
M  V30 527 O 57.7857 -1.62328 1.06599 0
M  V30 528 C 54.9157 -2.65391 2.2402 0
M  V30 529 C 53.8697 -2.60289 3.39755 0
M  V30 530 C 53.1957 -3.99489 3.55405 0
M  V30 531 C 54.4957 -2.16654 4.75246 0
M  V30 532 H 56.1897 -0.983573 2.82783 0
M  V30 533 H 53.7357 -0.471701 1.36055 0
M  V30 534 H 55.6887 -3.3974 2.49308 0
M  V30 535 H 54.4127 -2.98736 1.32 0
M  V30 536 H 53.0717 -1.88398 3.14487 0
M  V30 537 H 52.7197 -4.30112 2.60793 0
M  V30 538 H 52.4197 -3.96962 4.33238 0
M  V30 539 H 53.9437 -4.75528 3.83022 0
M  V30 540 H 55.3577 -2.80737 4.99859 0
M  V30 541 H 53.7547 -2.25223 5.56232 0
M  V30 542 H 54.8247 -1.11835 4.71827 0
M  V30 543 N 56.1678 -1.49265 -0.50573 0
M  V30 544 C 57.0978 -1.68495 -1.61653 0
M  V30 545 C 58.0788 -0.53366 -1.61512 0
M  V30 546 O 59.2638 -0.76897 -1.78327 0
M  V30 547 C 56.3938 -1.74709 -3.00157 0
M  V30 548 C 55.3478 -2.89581 -3.15162 0
M  V30 549 C 54.6738 -2.80903 -4.5497 0
M  V30 550 C 55.9738 -4.30578 -2.95634 0
M  V30 551 H 57.6678 -2.61493 -1.45814 0
M  V30 552 H 55.2138 -1.25838 -0.70005 0
M  V30 553 H 57.1668 -1.86748 -3.77761 0
M  V30 554 H 55.8908 -0.783067 -3.17074 0
M  V30 555 H 54.5498 -2.77136 -2.39982 0
M  V30 556 H 54.1978 -1.82419 -4.68756 0
M  V30 557 H 53.8978 -3.57999 -4.65951 0
M  V30 558 H 55.4218 -2.94944 -5.34641 0
M  V30 559 H 56.8358 -4.4373 -3.63011 0
M  V30 560 H 55.2328 -5.0886 -3.18091 0
M  V30 561 H 56.3028 -4.45352 -1.91806 0
M  V30 562 N 57.6459 0.756429 -1.3826 0
M  V30 563 C 58.8919 1.51772 -1.34511 0
M  V30 564 C 59.2249 1.94089 0.0656691 0
M  V30 565 O 58.4999 1.65221 1.02626 0
M  V30 566 C 58.7829 2.77226 -2.29821 0
M  V30 567 C 58.6359 2.41065 -3.79747 0
M  V30 568 C 59.9549 3.79236 -2.23312 0
M  V30 569 H 57.0739 0.550578 -0.489931 0
M  V30 570 H 59.7159 0.866607 -1.69086 0
M  V30 571 H 57.8659 3.32784 -2.00467 0
M  V30 572 H 59.5379 1.91303 -4.19763 0
M  V30 573 H 57.7809 1.7356 -3.97567 0
M  V30 574 H 58.4519 3.3081 -4.41892 0
M  V30 575 H 60.9279 3.3321 -2.49219 0
M  V30 576 H 59.8039 4.64714 -2.92116 0
M  V30 577 H 60.0649 4.24615 -1.23102 0
M  V30 578 N 59.124 1.23083 0.984299 0
M  V30 579 C 60.087 1.00979 2.05757 0
M  V30 580 C 61.087 -0.0269573 1.60777 0
M  V30 581 O 62.277 0.212403 1.729 0
M  V30 582 C 59.409 0.527072 3.36801 0
M  V30 583 H 60.602 1.9622 2.26799 0
M  V30 584 H 58.155 1.05072 1.15714 0
M  V30 585 H 58.89 -0.429294 3.21446 0
M  V30 586 H 58.675 1.27515 3.70786 0
M  V30 587 H 60.165 0.392942 4.15747 0
M  V30 588 N 60.6021 -1.18246 1.0419 0
M  V30 589 C 61.8501 -1.87886 0.744543 0
M  V30 590 C 62.1711 -1.8082 -0.730006 0
M  V30 591 O 61.4411 -1.22736 -1.52685 0
M  V30 592 H 60.0211 -0.695556 0.272417 0
M  V30 593 H 62.6831 -1.43494 1.31892 0
M  V30 594 H 61.7791 -2.9389 1.05049 0
M  V30 595 N 62.0802 -0.821533 -1.34494 0
M  V30 596 C 63.3262 -0.409552 -1.98622 0
M  V30 597 C 63.6592 1.0244 -1.64984 0
M  V30 598 O 62.9342 1.71325 -0.920758 0
M  V30 599 C 63.2172 -0.610458 -3.54888 0
M  V30 600 C 63.0702 -2.09043 -3.98273 0
M  V30 601 C 64.3892 -0.0455379 -4.40076 0
M  V30 602 H 61.5082 -0.15028 -0.721516 0
M  V30 603 H 64.1502 -1.03384 -1.59411 0
M  V30 604 H 62.3002 -0.079044 -3.8842 0
M  V30 605 H 63.9722 -2.68537 -3.75081 0
M  V30 606 H 62.2152 -2.58139 -3.48635 0
M  V30 607 H 62.8862 -2.18182 -5.07051 0
M  V30 608 H 65.3622 -0.499557 -4.1309 0
M  V30 609 H 64.2382 -0.215922 -5.48475 0
M  V30 610 H 64.4992 1.04939 -4.29465 0
M  V30 611 N 63.5583 1.46682 -0.576371 0
M  V30 612 C 64.8043 2.02712 -0.0596221 0
M  V30 613 C 65.1373 1.44765 1.29448 0
M  V30 614 O 64.4123 0.610355 1.84675 0
M  V30 615 C 64.6953 3.60098 0.0129503 0
M  V30 616 C 64.5483 4.28441 -1.3696 0
M  V30 617 C 65.8673 4.34224 0.71678 0
M  V30 618 H 62.9863 0.736637 -0.0231407 0
M  V30 619 H 65.6283 1.74898 -0.742351 0
M  V30 620 H 63.7783 3.83926 0.594378 0
M  V30 621 H 65.4503 4.15896 -1.9957 0
M  V30 622 H 63.6933 3.8805 -1.93907 0
M  V30 623 H 64.3643 5.3716 -1.27135 0
M  V30 624 H 66.8403 4.15503 0.222908 0
M  V30 625 H 65.7163 5.43936 0.73657 0
M  V30 626 H 65.9773 4.04823 1.77682 0
M  V30 627 N 65.0364 0.313813 1.54444 0
M  V30 628 C 65.9994 -0.54379 2.22656 0
M  V30 629 C 66.9994 -1.05124 1.21678 0
M  V30 630 O 68.1894 -0.945225 1.46325 0
M  V30 631 C 65.3214 -1.75427 2.92298 0
M  V30 632 H 66.5144 0.0523599 2.99854 0
M  V30 633 H 64.0674 0.0647834 1.56166 0
M  V30 634 H 64.8024 -2.38991 2.19211 0
M  V30 635 H 64.5874 -1.39791 3.66334 0
M  V30 636 H 66.0774 -2.36325 3.44297 0
M  V30 637 N 66.5145 -1.57545 0.0417849 0
M  V30 638 C 67.9255 -1.80011 -0.495259 0
M  V30 639 C 68.2765 -0.953199 -1.71489 0
M  V30 640 O 67.4015 -0.167138 -2.15754 0
M  V30 641 C 67.9965 -3.26482 -0.905265 0
M  V30 642 C 66.5555 -3.499 -1.38734 0
M  V30 643 C 65.7025 -2.74979 -0.358056 0
M  V30 644 H 68.6535 -1.56425 0.267736 0
M  V30 645 H 68.6745 -3.36887 -1.76882 0
M  V30 646 H 68.1865 -3.88096 -0.017401 0
M  V30 647 H 66.2875 -2.93553 -2.29471 0
M  V30 648 H 66.4005 -4.58615 -1.38598 0
M  V30 649 H 64.7645 -2.40834 -0.828912 0
M  V30 650 H 65.5475 -3.39315 0.521561 0
M  V30 651 N 67.9926 0.231505 -1.5589 0
M  V30 652 C 69.2386 0.954429 -1.79617 0
M  V30 653 C 69.5936 1.82367 -0.613199 0
M  V30 654 O 68.8866 1.87524 0.393094 0
M  V30 655 C 69.0806 1.83577 -3.0665 0
M  V30 656 C 68.9096 1.05334 -4.3719 0
M  V30 657 C 67.6796 0.75225 -4.99669 0
M  V30 658 C 69.8776 0.423444 -5.12554 0
M  V30 659 N 67.8596 -0.052627 -6.13877 0
M  V30 660 C 69.2306 -0.245287 -6.19515 0
M  V30 661 C 71.2856 0.335466 -4.96769 0
M  V30 662 C 69.9886 -0.993566 -7.12405 0
M  V30 663 C 72.0146 -0.399321 -5.9005 0
M  V30 664 C 71.3766 -1.05663 -6.9643 0
M  V30 665 H 67.4756 0.329846 -0.709031 0
M  V30 666 H 70.0596 0.226172 -1.93382 0
M  V30 667 H 68.2306 2.53592 -2.94186 0
M  V30 668 H 69.9626 2.49541 -3.18608 0
M  V30 669 H 66.7176 1.06783 -4.61405 0
M  V30 670 H 67.1416 -0.443609 -6.75545 0
M  V30 671 H 71.7836 0.829311 -4.14587 0
M  V30 672 H 69.5016 -1.49896 -7.94076 0
M  V30 673 H 73.0876 -0.468265 -5.79913 0
M  V30 674 H 71.9676 -1.61612 -7.67366 0
M  V30 675 N 69.4707 1.49531 0.497807 0
M  V30 676 C 70.4007 1.6935 1.60757 0
M  V30 677 C 71.3817 0.542218 1.61227 0
M  V30 678 O 72.5667 0.778417 1.77917 0
M  V30 679 C 69.6967 1.76298 2.99226 0
M  V30 680 C 68.6507 2.91248 3.13622 0
M  V30 681 C 67.9767 2.83312 4.53474 0
M  V30 682 C 69.2767 4.3214 2.93346 0
M  V30 683 H 70.9707 2.62263 1.44425 0
M  V30 684 H 68.5167 1.26208 0.693367 0
M  V30 685 H 70.4697 1.88749 3.76765 0
M  V30 686 H 69.1937 0.799871 3.16654 0
M  V30 687 H 67.8527 2.78404 2.38509 0
M  V30 688 H 67.5007 1.84902 4.67782 0
M  V30 689 H 67.2007 3.60465 4.64046 0
M  V30 690 H 68.7247 2.97775 5.33069 0
M  V30 691 H 70.1387 4.45649 3.60652 0
M  V30 692 H 68.5357 5.1054 3.15387 0
M  V30 693 H 69.6057 4.46363 1.89441 0
M  V30 694 N 70.9488 -0.749086 1.3866 0
M  V30 695 C 71.9118 -1.84457 1.36045 0
M  V30 696 C 72.9118 -1.58682 0.260122 0
M  V30 697 O 74.1018 -1.66343 0.517261 0
M  V30 698 C 71.2338 -3.22008 1.11911 0
M  V30 699 H 72.4268 -1.88182 2.33512 0
M  V30 700 H 69.9798 -0.951266 1.24019 0
M  V30 701 H 70.7148 -3.2395 0.150686 0
M  V30 702 H 70.4998 -3.42111 1.91579 0
M  V30 703 H 71.9898 -4.0208 1.12788 0
M  V30 704 N 72.4269 -1.23603 -0.977757 0
M  V30 705 C 73.6749 -1.06759 -1.71601 0
M  V30 706 C 73.9959 0.395929 -1.90938 0
M  V30 707 O 73.2659 1.28356 -1.47992 0
M  V30 708 H 71.8459 -0.392062 -0.635843 0
M  V30 709 H 74.5079 -1.55362 -1.1768 0
M  V30 710 H 73.6039 -1.55763 -2.70452 0
M  V30 711 N 73.905 1.17692 -1.04816 0
M  V30 712 C 75.321 1.39863 -0.768794 0
M  V30 713 C 75.521 1.91118 0.638451 0
M  V30 714 O 74.577 2.10036 1.40146 0
M  V30 715 C 75.89 2.39274 -1.82122 0
M  V30 716 C 77.438 2.52987 -1.843 0
M  V30 717 C 77.913 3.55669 -2.88555 0
M  V30 718 N 79.404 3.63183 -2.87493 0
M  V30 719 C 80.139 4.42381 -3.64811 0
M  V30 720 N 79.635 5.25125 -4.51903 0
M  V30 721 N 81.428 4.37217 -3.53267 0
M  V30 722 H 73.579 0.82752 -1.95617 0
M  V30 723 H 75.842 0.426123 -0.846831 0
M  V30 724 H 75.548 2.08678 -2.83102 0
M  V30 725 H 75.422 3.38725 -1.65967 0
M  V30 726 H 77.809 2.82896 -0.839869 0
M  V30 727 H 77.89 1.53623 -2.04532 0
M  V30 728 H 77.534 3.26499 -3.89051 0
M  V30 729 H 77.464 4.54728 -2.65575 0
M  V30 730 H 79.955 3.04103 -2.24343 0
M  V30 731 H 80.268 5.82728 -5.07591 0
M  V30 732 H 78.613 5.24519 -4.55966 0
M  V30 733 H 81.804 3.71626 -2.84625 0
M  V30 734 H 81.977 4.98696 -4.13771 0
M  V30 735 N 75.3831 0.828654 1.34056 0
M  V30 736 C 76.6111 0.43262 2.02326 0
M  V30 737 C 77.0261 -0.963147 1.62385 0
M  V30 738 O 76.3831 -1.62425 0.832121 0
M  V30 739 C 76.4341 0.53182 3.57567 0
M  V30 740 O 76.1551 1.87258 3.96063 0
M  V30 741 C 77.6561 0.131422 4.43105 0
M  V30 742 H 74.8761 0.172923 0.648335 0
M  V30 743 H 77.4201 1.1184 1.71208 0
M  V30 744 H 75.5751 -0.105938 3.87255 0
M  V30 745 H 75.9891 1.85087 4.90758 0
M  V30 746 H 77.4631 0.251904 5.51425 0
M  V30 747 H 77.9401 -0.925645 4.29335 0
M  V30 748 H 78.5461 0.743207 4.18756 0
M  V30 749 N 76.8612 -1.46375 0.584142 0
M  V30 750 C 77.8242 -2.28784 -0.138108 0
M  V30 751 C 78.8242 -1.38471 -0.817462 0
M  V30 752 O 80.0142 -1.60833 -0.669199 0
M  V30 753 C 77.1462 -3.18892 -1.20503 0
M  V30 754 H 78.3392 -2.94117 0.586127 0
M  V30 755 H 75.8922 -1.52509 0.342171 0
M  V30 756 H 76.6272 -2.58309 -1.96079 0
M  V30 757 H 76.4122 -3.85388 -0.722384 0
M  V30 758 H 77.9022 -3.80914 -1.71155 0
M  V30 759 N 78.3393 -0.321999 -1.54275 0
M  V30 760 C 79.3023 0.531975 -2.22941 0
M  V30 761 C 80.3023 1.04478 -1.22234 0
M  V30 762 O 81.4923 0.937452 -1.46825 0
M  V30 763 C 78.6243 1.73874 -2.93224 0
M  V30 764 H 79.8173 -0.0682612 -2.99822 0
M  V30 765 H 77.3703 -0.0730644 -1.56129 0
M  V30 766 H 78.1053 2.37825 -2.20476 0
M  V30 767 H 77.8903 1.37847 -3.6707 0
M  V30 768 H 79.3803 2.34496 -3.45545 0
M  V30 769 N 79.8174 1.5752 -0.0501392 0
M  V30 770 C 80.7804 2.1037 0.909786 0
M  V30 771 C 81.7804 1.02308 1.24056 0
M  V30 772 O 82.9704 1.28385 1.17741 0
M  V30 773 C 80.1024 2.58708 2.21998 0
M  V30 774 H 81.2954 2.96479 0.451665 0
M  V30 775 H 78.8484 1.55038 0.198248 0
M  V30 776 H 79.5834 1.75989 2.72394 0
M  V30 777 H 79.3684 3.37675 1.99295 0
M  V30 778 H 80.8584 2.99747 2.9076 0
M  V30 779 N 81.2955 -0.223234 1.56011 0
M  V30 780 C 82.2275 -1.30006 1.88762 0
M  V30 781 C 83.2405 -1.43129 0.775746 0
M  V30 782 O 84.4295 -1.44057 1.05403 0
M  V30 783 C 81.5295 -2.67589 2.07965 0
M  V30 784 C 80.7025 -2.76434 3.38973 0
M  V30 785 C 79.7615 -3.95019 3.47629 0
M  V30 786 O 78.7875 -3.83436 4.20672 0
M  V30 787 N 79.9895 -5.09249 2.78649 0
M  V30 788 H 82.7545 -1.02238 2.81722 0
M  V30 789 H 80.3155 -0.413278 1.56536 0
M  V30 790 H 82.3075 -3.45297 2.11073 0
M  V30 791 H 80.8775 -2.87964 1.21638 0
M  V30 792 H 80.0975 -1.85216 3.47978 0
M  V30 793 H 81.3855 -2.79313 4.25278 0
M  V30 794 H 80.7835 -5.21556 2.19081 0
M  V30 795 H 79.3405 -5.85007 2.8742 0
M  V30 796 N 82.7736 -1.49793 -0.48987 0
M  V30 797 C 83.6836 -1.70036 -1.61632 0
M  V30 798 C 84.6996 -0.583102 -1.63939 0
M  V30 799 O 85.8756 -0.859169 -1.82154 0
M  V30 800 C 82.9406 -1.77277 -2.97949 0
M  V30 801 C 82.0016 -3.00918 -3.06181 0
M  V30 802 C 81.2346 -3.07804 -4.35996 0
M  V30 803 O 81.4576 -2.21982 -5.25433 0
M  V30 804 O 80.3916 -4.00369 -4.49431 0
M  V30 805 H 84.2176 -2.65486 -1.47482 0
M  V30 806 H 81.8026 -1.33666 -0.667362 0
M  V30 807 H 83.6846 -1.84329 -3.78947 0
M  V30 808 H 82.3596 -0.850076 -3.12339 0
M  V30 809 H 81.2666 -2.99377 -2.2433 0
M  V30 810 H 82.5996 -3.92704 -2.96723 0
M  V30 811 N 84.2517 0.741722 -1.39055 0
M  V30 812 C 85.2147 1.83733 -1.37021 0
M  V30 813 C 86.2147 1.58542 -0.268534 0
M  V30 814 O 87.4047 1.66067 -0.526076 0
M  V30 815 C 84.5367 3.2141 -1.13617 0
M  V30 816 H 85.7297 1.86941 -2.34506 0
M  V30 817 H 83.2827 0.944676 -1.24521 0
M  V30 818 H 84.0177 3.23865 -0.167863 0
M  V30 819 H 83.8027 3.4109 -1.93391 0
M  V30 820 H 85.2927 4.01477 -1.14918 0
M  V30 821 N 85.7298 1.2412 0.971189 0
M  V30 822 C 86.9788 1.07284 1.70801 0
M  V30 823 C 87.2918 -0.388902 1.91695 0
M  V30 824 O 88.4978 -0.677379 2.62914 0
M  V30 825 C 86.9538 1.87145 3.07416 0
M  V30 826 C 86.5618 3.37707 2.94377 0
M  V30 827 C 88.3058 1.78828 3.84995 0
M  V30 828 C 86.2128 4.09925 4.26281 0
M  V30 829 H 85.1428 0.397854 0.64049 0
M  V30 830 H 87.7938 1.4817 1.0825 0
M  V30 831 H 86.1758 1.39071 3.70777 0
M  V30 832 H 87.3498 3.93335 2.4005 0
M  V30 833 H 85.6648 3.46938 2.30267 0
M  V30 834 H 88.2618 2.30089 4.82662 0
M  V30 835 H 88.6048 0.75284 4.09436 0
M  V30 836 H 89.1378 2.24563 3.28354 0
M  V30 837 H 85.8768 5.13813 4.07033 0
M  V30 838 H 85.3968 3.59083 4.80437 0
M  V30 839 H 87.0758 4.1673 4.94919 0
M  V30 840 N 87.2079 -1.17134 1.05439 0
M  V30 841 C 88.1709 -2.19439 0.661764 0
M  V30 842 C 89.1709 -1.58199 -0.288042 0
M  V30 843 O 90.3609 -1.74053 -0.0715803 0
M  V30 844 C 87.4929 -3.40889 -0.0276209 0
M  V30 845 H 88.6859 -2.55688 1.56728 0
M  V30 846 H 86.2389 -1.31259 0.848567 0
M  V30 847 H 86.9739 -3.10187 -0.94629 0
M  V30 848 H 86.7589 -3.86586 0.655238 0
M  V30 849 H 88.2489 -4.16603 -0.288342 0
M  V30 850 N 88.686 -0.835752 -1.33615 0
M  V30 851 C 90.102 -0.523139 -1.50783 0
M  V30 852 C 90.302 0.950171 -1.77691 0
M  V30 853 O 89.358 1.73411 -1.83534 0
M  V30 854 C 90.671 -1.39378 -2.66448 0
M  V30 855 C 92.219 -1.39223 -2.80332 0
M  V30 856 C 92.694 -2.24765 -3.99055 0
M  V30 857 N 94.185 -2.22458 -4.06284 0
M  V30 858 C 94.92 -2.85386 -4.97336 0
M  V30 859 N 94.416 -3.57354 -5.93523 0
M  V30 860 N 96.209 -2.74872 -4.90308 0
M  V30 861 H 88.36 -1.78952 -1.14411 0
M  V30 862 H 90.623 -0.763297 -0.562212 0
M  V30 863 H 90.329 -2.44061 -2.53234 0
M  V30 864 H 90.203 -1.0676 -3.61776 0
M  V30 865 H 92.59 -0.353136 -2.92979 0
M  V30 866 H 92.671 -1.75846 -1.85773 0
M  V30 867 H 92.315 -3.28732 -3.87167 0
M  V30 868 H 92.245 -1.85485 -4.92852 0
M  V30 869 H 94.736 -1.70119 -3.37443 0
M  V30 870 H 95.049 -4.02584 -6.59656 0
M  V30 871 H 93.394 -3.61461 -5.93608 0
M  V30 872 H 96.585 -2.18213 -4.14126 0
M  V30 873 H 96.758 -3.24199 -5.61069 0
M  V30 874 N 90.1641 1.46063 -0.591896 0
M  V30 875 C 91.0961 2.28539 0.174001 0
M  V30 876 C 92.1091 1.39047 0.846753 0
M  V30 877 O 93.2981 1.63564 0.714774 0
M  V30 878 C 90.3981 3.14347 1.26645 0
M  V30 879 C 89.5711 4.32021 0.683856 0
M  V30 880 C 88.6301 4.99157 1.66518 0
M  V30 881 O 87.6561 5.56458 1.19763 0
M  V30 882 N 88.8581 4.97005 2.99943 0
M  V30 883 H 91.6231 2.94911 -0.533633 0
M  V30 884 H 89.1841 1.56077 -0.430294 0
M  V30 885 H 91.1761 3.56125 1.92242 0
M  V30 886 H 89.7461 2.49988 1.87682 0
M  V30 887 H 88.9661 3.93915 -0.1498 0
M  V30 888 H 90.2541 5.08059 0.274567 0
M  V30 889 H 89.6521 4.51714 3.40545 0
M  V30 890 H 88.2091 5.42696 3.61004 0
M  V30 891 N 91.6422 0.330177 1.54103 0
M  V30 892 C 92.5922 -0.548456 2.21305 0
M  V30 893 C 93.5762 -1.07651 1.19583 0
M  V30 894 O 94.7682 -1.01243 1.45186 0
M  V30 895 C 91.8972 -1.70559 2.97934 0
M  V30 896 C 90.9832 -1.19212 4.07 0
M  V30 897 N 91.3742 -0.398831 5.04225 0
M  V30 898 C 89.6722 -1.47024 4.2107 0
M  V30 899 C 90.3732 -0.121761 5.81573 0
M  V30 900 N 89.3492 -0.709722 5.38947 0
M  V30 901 H 93.1512 0.0648483 2.93828 0
M  V30 902 H 90.6652 0.136363 1.61826 0
M  V30 903 H 92.6622 -2.34688 3.44568 0
M  V30 904 H 91.3222 -2.32231 2.26934 0
M  V30 905 H 92.3332 -0.0410869 5.17884 0
M  V30 906 H 89.0102 -2.09232 3.61287 0
M  V30 907 H 90.4002 0.517298 6.69906 0
M  V30 908 N 93.1203 -1.57491 0.0584922 0
M  V30 909 C 94.5363 -1.56792 -0.298091 0
M  V30 910 C 94.7363 -1.06679 -1.70944 0
M  V30 911 O 93.7923 -0.726672 -2.41818 0
M  V30 912 C 95.1053 -3.00461 -0.119879 0
M  V30 913 C 96.6533 -3.1242 -0.190428 0
M  V30 914 C 97.1283 -4.57982 -0.0406567 0
M  V30 915 N 98.6193 -4.63099 -0.0966958 0
M  V30 916 C 99.3543 -5.734 -0.00502943 0
M  V30 917 N 98.8503 -6.9266 0.139402 0
M  V30 918 N 100.643 -5.62067 -0.0611391 0
M  V30 919 H 92.7943 -1.88386 0.98105 0
M  V30 920 H 95.0573 -0.867865 0.381463 0
M  V30 921 H 94.7633 -3.41187 0.85349 0
M  V30 922 H 94.6373 -3.66843 -0.877833 0
M  V30 923 H 97.0243 -2.71589 -1.15427 0
M  V30 924 H 97.1053 -2.48702 0.598405 0
M  V30 925 H 96.7493 -4.995 0.919897 0
M  V30 926 H 96.6793 -5.19715 -0.848727 0
M  V30 927 H 99.1703 -3.77331 -0.207277 0
M  V30 928 H 99.4833 -7.72536 0.201855 0
M  V30 929 H 97.8283 -6.94781 0.174586 0
M  V30 930 H 101.019 -4.67782 -0.172583 0
M  V30 931 H 101.192 -6.47999 0.0137562 0
M  V30 932 N 94.5984 0.214957 -1.56127 0
M  V30 933 C 95.8464 0.936518 -1.79091 0
M  V30 934 C 96.1674 1.84606 -0.628148 0
M  V30 935 O 95.4374 1.92664 0.35462 0
M  V30 936 H 94.0174 0.3488 -0.660566 0
M  V30 937 H 96.6794 0.22523 -1.93594 0
M  V30 938 H 95.7754 1.53943 -2.71492 0
M  V30 939 N 96.0765 1.50051 0.48192 0
M  V30 940 C 97.0095 1.62749 1.59963 0
M  V30 941 C 97.9875 0.475903 1.5548 0
M  V30 942 O 99.1715 0.693986 1.7526 0
M  V30 943 C 96.2985 1.60008 2.98522 0
M  V30 944 C 95.3445 2.80596 3.21198 0
M  V30 945 S 96.1775 4.42038 3.02262 0
M  V30 946 C 97.3335 4.41973 4.43182 0
M  V30 947 H 97.5665 2.57296 1.4895 0
M  V30 948 H 95.0995 1.39179 0.668477 0
M  V30 949 H 97.0575 1.59112 3.78409 0
M  V30 950 H 95.7185 0.667153 3.06933 0
M  V30 951 H 94.9115 2.74952 4.22395 0
M  V30 952 H 94.5135 2.79003 2.49065 0
M  V30 953 H 96.8055 4.14868 5.35622 0
M  V30 954 H 97.7485 5.43512 4.53873 0
M  V30 955 H 98.1565 3.71812 4.24755 0
M  V30 956 N 97.5546 -0.734337 1.39446 0
M  V30 957 C 98.9706 -1.03997 1.21065 0
M  V30 958 C 99.1706 -2.01369 0.0727019 0
M  V30 959 O 98.2266 -2.45856 -0.575426 0
M  V30 960 C 99.5396 -1.60163 2.54496 0
M  V30 961 C 101.088 -1.7224 2.61347 0
M  V30 962 C 101.563 -2.31814 3.95002 0
M  V30 963 N 103.054 -2.39223 3.96644 0
M  V30 964 C 103.789 -2.86258 4.96834 0
M  V30 965 N 103.285 -3.33184 6.07421 0
M  V30 966 N 105.078 -2.85473 4.84213 0
M  V30 967 H 97.2286 -0.0885624 2.12215 0
M  V30 968 H 99.4916 -0.10191 0.942506 0
M  V30 969 H 99.1976 -0.960811 3.38321 0
M  V30 970 H 99.0716 -2.5896 2.74262 0
M  V30 971 H 101.459 -2.35443 1.77906 0
M  V30 972 H 101.54 -0.720939 2.4543 0
M  V30 973 H 101.184 -1.69238 4.78875 0
M  V30 974 H 101.114 -3.32638 4.08239 0
M  V30 975 H 103.605 -2.06057 3.16779 0
M  V30 976 H 103.918 -3.67586 6.7978 0
M  V30 977 H 102.263 -3.31191 6.11013 0
M  V30 978 H 105.454 -2.48136 3.96921 0
M  V30 979 H 105.627 -3.21814 5.62441 0
M  V30 980 N 99.0327 -1.24633 -0.964593 0
M  V30 981 C 100.31 -0.995809 -1.68354 0
M  V30 982 C 100.69 0.480964 -2.05548 0
M  V30 983 O 100.038 1.45599 -1.76105 0
M  V30 984 C 100.248 -1.92177 -2.91323 0
M  V30 985 C 101.596 -2.19446 -3.63495 0
M  V30 986 O 102.62 -1.89855 -3.01386 0
M  V30 987 O 101.479 -2.69714 -4.75307 0
M  V30 988 H 98.5727 -0.376854 -0.736146 0
M  V30 989 H 101.119 -1.35745 -1.0184 0
M  V30 990 H 99.8907 -2.91938 -2.60553 0
M  V30 991 H 99.5137 -1.56349 -3.65569 0
M  V30 992 N 100.511 1.16574 -1.06058 0
M  V30 993 C 101.739 1.90952 -0.796552 0
M  V30 994 C 102.154 1.77302 0.648808 0
M  V30 995 O 101.511 1.11605 1.44397 0
M  V30 996 C 101.562 3.41736 -1.17894 0
M  V30 997 O 101.283 3.54975 -2.56758 0
M  V30 998 C 102.784 4.33169 -0.942308 0
M  V30 999 H 100.004 0.605594 -0.288959 0
M  V30 1000 H 102.548 1.47777 -1.41358 0
M  V30 1001 H 100.703 3.82623 -0.606491 0
M  V30 1002 H 101.117 4.4846 -2.72 0
M  V30 1003 H 102.591 5.37439 -1.25952 0
M  V30 1004 H 103.068 4.3903 0.122078 0
M  V30 1005 H 103.674 3.98007 -1.49902 0
M  V30 1006 N 101.989 0.842826 1.3317 0
M  V30 1007 C 103.214 0.453129 2.02389 0
M  V30 1008 C 103.639 -0.939105 1.6298 0
M  V30 1009 O 102.997 -1.61472 0.8244 0
M  V30 1010 C 103.045 0.586094 3.55805 0
M  V30 1011 O 102.149 -0.386029 4.10589 0
M  V30 1012 H 101.49 0.183664 0.638094 0
M  V30 1013 H 104.02 1.13875 1.69981 0
M  V30 1014 H 104.03 0.469209 4.05293 0
M  V30 1015 H 102.705 1.6014 3.83833 0
M  V30 1016 H 101.282 -0.226371 3.72212 0
M  V30 1017 N 103.467 -1.45747 0.599634 0
M  V30 1018 C 104.43 -2.28917 -0.113835 0
M  V30 1019 C 105.43 -1.3933 -0.802729 0
M  V30 1020 O 106.62 -1.61534 -0.652103 0
M  V30 1021 C 103.752 -3.20152 -1.17114 0
M  V30 1022 H 104.945 -2.93478 0.617289 0
M  V30 1023 H 102.498 -1.52137 0.358327 0
M  V30 1024 H 103.233 -2.60374 -1.93329 0
M  V30 1025 H 103.018 -3.86133 -0.681468 0
M  V30 1026 H 104.508 -3.82708 -1.67105 0
M  V30 1027 N 104.945 -0.338344 -1.53925 0
M  V30 1028 C 105.878 0.563758 -2.21127 0
M  V30 1029 C 106.856 1.10433 -1.19345 0
M  V30 1030 O 108.04 1.16557 -1.48144 0
M  V30 1031 C 105.167 1.77505 -2.88461 0
M  V30 1032 C 104.213 1.3644 -4.04087 0
M  V30 1033 S 105.046 0.388593 -5.34088 0
M  V30 1034 C 106.202 1.60683 -6.04923 0
M  V30 1035 H 106.435 -0.00704546 -2.97299 0
M  V30 1036 H 103.968 -0.122418 -1.53914 0
M  V30 1037 H 105.926 2.46999 -3.27875 0
M  V30 1038 H 104.587 2.31706 -2.12064 0
M  V30 1039 H 103.78 2.26739 -4.50117 0
M  V30 1040 H 103.382 0.748998 -3.66423 0
M  V30 1041 H 105.674 2.54209 -6.28 0
M  V30 1042 H 106.617 1.18842 -6.98056 0
M  V30 1043 H 107.025 1.80052 -5.35015 0
M  V30 1044 N 106.423 1.57458 -0.0668435 0
M  V30 1045 C 107.672 1.92477 0.602947 0
M  V30 1046 C 107.985 0.948419 1.71068 0
M  V30 1047 O 109.191 1.19124 2.43971 0
M  V30 1048 C 107.647 3.41903 1.12383 0
M  V30 1049 C 107.255 4.47975 0.04737 0
M  V30 1050 C 108.999 3.85931 1.76797 0
M  V30 1051 C 106.906 5.88529 0.582022 0
M  V30 1052 H 105.836 0.718387 0.22899 0
M  V30 1053 H 108.487 1.82978 -0.138276 0
M  V30 1054 H 106.869 3.46459 1.91787 0
M  V30 1055 H 108.043 4.55029 -0.726978 0
M  V30 1056 H 106.358 4.13384 -0.500243 0
M  V30 1057 H 108.955 4.88322 2.17821 0
M  V30 1058 H 109.298 3.23029 2.62599 0
M  V30 1059 H 109.831 3.83958 1.04024 0
M  V30 1060 H 106.57 6.55065 -0.238721 0
M  V30 1061 H 106.09 5.85004 1.324 0
M  V30 1062 H 107.769 6.38258 1.05999 0
M  V30 1063 N 107.901 -0.206675 1.56239 0
M  V30 1064 C 108.864 -1.23976 1.92776 0
M  V30 1065 C 109.864 -1.39041 0.807729 0
M  V30 1066 O 111.054 -1.37051 1.0753 0
M  V30 1067 C 108.186 -2.61112 2.19165 0
M  V30 1068 H 109.379 -0.927764 2.85189 0
M  V30 1069 H 106.932 -0.447718 1.4975 0
M  V30 1070 H 107.667 -2.97386 1.29352 0
M  V30 1071 H 107.452 -2.51552 3.00772 0
M  V30 1072 H 108.942 -3.35633 2.48476 0
M  V30 1073 N 109.379 -1.50304 -0.473955 0
M  V30 1074 C 110.309 -1.71886 -1.58042 0
M  V30 1075 C 111.29 -0.567799 -1.60344 0
M  V30 1076 O 112.475 -0.806623 -1.76656 0
M  V30 1077 C 109.605 -1.81036 -2.96384 0
M  V30 1078 C 108.559 -2.962 -3.08949 0
M  V30 1079 C 107.885 -2.9049 -4.48909 0
M  V30 1080 C 109.185 -4.36752 -2.86434 0
M  V30 1081 H 110.879 -2.64527 -1.40234 0
M  V30 1082 H 108.425 -1.27295 -0.673201 0
M  V30 1083 H 110.378 -1.94719 -3.73714 0
M  V30 1084 H 109.102 -0.850147 -3.15341 0
M  V30 1085 H 107.761 -2.82164 -2.3405 0
M  V30 1086 H 107.409 -1.92321 -4.64781 0
M  V30 1087 H 107.109 -3.67802 -4.58253 0
M  V30 1088 H 108.633 -3.06218 -5.28264 0
M  V30 1089 H 110.047 -4.5133 -3.53517 0
M  V30 1090 H 108.444 -5.15493 -3.07225 0
M  V30 1091 H 109.514 -4.49321 -1.82316 0
M  V30 1092 N 110.857 0.726932 -1.39834 0
M  V30 1093 C 111.767 1.87131 -1.41489 0
M  V30 1094 C 112.783 1.71239 -0.308757 0
M  V30 1095 O 113.959 1.93701 -0.551529 0
M  V30 1096 C 111.024 3.22811 -1.26468 0
M  V30 1097 C 110.085 3.51039 -2.47124 0
M  V30 1098 C 109.318 4.80245 -2.3281 0
M  V30 1099 O 109.541 5.54537 -1.33585 0
M  V30 1100 O 108.475 5.08554 -3.21957 0
M  V30 1101 H 112.301 1.8869 -2.3797 0
M  V30 1102 H 109.886 0.875837 -1.21035 0
M  V30 1103 H 111.768 4.03877 -1.20255 0
M  V30 1104 H 110.443 3.22005 -0.330862 0
M  V30 1105 H 109.35 2.70027 -2.58914 0
M  V30 1106 H 110.683 3.56632 -3.39227 0
M  V30 1107 N 112.336 1.25143 0.95797 0
M  V30 1108 C 113.286 1.01924 2.0395 0
M  V30 1109 C 114.27 -0.0427175 1.60843 0
M  V30 1110 O 115.462 0.17221 1.7616 0
M  V30 1111 C 112.591 0.636373 3.3735 0
M  V30 1112 C 111.677 1.73492 3.8699 0
M  V30 1113 N 112.068 2.96945 4.0946 0
M  V30 1114 C 110.366 1.61467 4.15746 0
M  V30 1115 C 111.067 3.68228 4.50315 0
M  V30 1116 N 110.043 2.95833 4.56053 0
M  V30 1117 H 113.845 1.95653 2.19311 0
M  V30 1118 H 111.359 1.15413 1.14253 0
M  V30 1119 H 113.356 0.451233 4.14451 0
M  V30 1120 H 112.016 -0.293621 3.2337 0
M  V30 1121 H 113.027 3.33025 3.96629 0
M  V30 1122 H 109.704 0.753394 4.10646 0
M  V30 1123 H 111.094 4.74178 4.76031 0
M  V30 1124 N 113.814 -1.1601 1.06675 0
M  V30 1125 C 114.777 -2.18724 0.685001 0
M  V30 1126 C 115.777 -1.58496 -0.271246 0
M  V30 1127 O 116.967 -1.74119 -0.0531156 0
M  V30 1128 C 114.099 -3.40899 0.00853648 0
M  V30 1129 H 115.292 -2.54011 1.59431 0
M  V30 1130 H 112.845 -1.30352 0.862441 0
M  V30 1131 H 113.58 -3.11173 -0.913337 0
M  V30 1132 H 113.365 -3.8587 0.696204 0
M  V30 1133 H 114.855 -4.16886 -0.24414 0
M  V30 1134 N 115.292 -0.849877 -1.32721 0
M  V30 1135 C 116.703 -0.506188 -1.79707 0
M  V30 1136 C 117.054 0.975627 -1.70223 0
M  V30 1137 O 116.179 1.76078 -1.25799 0
M  V30 1138 C 116.774 -0.912044 -3.26293 0
M  V30 1139 C 115.333 -0.620326 -3.71253 0
M  V30 1140 C 114.48 -1.11439 -2.53922 0
M  V30 1141 H 117.431 -1.03754 -1.20087 0
M  V30 1142 H 117.452 -0.226493 -3.79825 0
M  V30 1143 H 116.964 -1.99057 -3.33164 0
M  V30 1144 H 115.065 0.447674 -3.69901 0
M  V30 1145 H 115.178 -1.18327 -4.64258 0
M  V30 1146 H 113.542 -0.534834 -2.49021 0
M  V30 1147 H 114.325 -2.19992 -2.6355 0
M  V30 1148 N 116.77 1.45427 -0.607355 0
M  V30 1149 C 117.68 2.34325 0.113463 0
M  V30 1150 C 118.696 1.51226 0.860617 0
M  V30 1151 O 119.872 1.84029 0.818255 0
M  V30 1152 C 116.937 3.28839 1.09844 0
M  V30 1153 C 115.998 4.27844 0.353271 0
M  V30 1154 C 115.231 5.17842 1.29133 0
M  V30 1155 O 115.454 5.11264 2.52913 0
M  V30 1156 O 114.388 5.96713 0.788523 0
M  V30 1157 H 118.214 2.97364 -0.617094 0
M  V30 1158 H 115.799 1.44807 -0.367619 0
M  V30 1159 H 117.681 3.8708 1.66575 0
M  V30 1160 H 116.356 2.68365 1.81003 0
M  V30 1161 H 115.263 3.7322 -0.256494 0
M  V30 1162 H 116.596 4.91173 -0.317822 0
M  V30 1163 N 118.248 0.346503 1.53744 0
M  V30 1164 C 119.178 -0.501193 2.28058 0
M  V30 1165 C 120.159 -1.10014 1.29734 0
M  V30 1166 O 121.344 -1.12097 1.58581 0
M  V30 1167 C 118.474 -1.65078 3.05559 0
M  V30 1168 C 117.428 -1.18003 4.11411 0
M  V30 1169 C 116.754 -2.41837 4.76884 0
M  V30 1170 C 118.054 -0.278394 5.21558 0
M  V30 1171 H 119.748 0.11875 2.99164 0
M  V30 1172 H 117.294 0.0585531 1.43881 0
M  V30 1173 H 119.247 -2.25028 3.56287 0
M  V30 1174 H 117.971 -2.29767 2.32109 0
M  V30 1175 H 116.63 -0.603331 3.61601 0
M  V30 1176 H 116.278 -3.0494 4.00026 0
M  V30 1177 H 115.978 -2.1102 5.48402 0
M  V30 1178 H 117.502 -3.02508 5.30397 0
M  V30 1179 H 118.916 -0.784823 5.67903 0
M  V30 1180 H 117.313 -0.0619707 6.00068 0
M  V30 1181 H 118.383 0.684677 4.80042 0
M  V30 1182 N 119.726 -1.57421 0.075193 0
M  V30 1183 C 121.142 -1.57099 -0.281444 0
M  V30 1184 C 121.342 -1.08486 -1.69803 0
M  V30 1185 O 120.398 -0.752279 -2.41033 0
M  V30 1186 C 121.711 -3.00571 -0.0880041 0
M  V30 1187 C 123.259 -3.12605 -0.157281 0
M  V30 1188 C 123.734 -4.57999 0.0079207 0
M  V30 1189 N 125.225 -4.63176 -0.0475725 0
M  V30 1190 C 125.96 -5.73373 0.0557876 0
M  V30 1191 N 125.456 -6.92473 0.21286 0
M  V30 1192 N 127.249 -5.621 -0.00152098 0
M  V30 1193 H 119.4 -1.87335 1.00098 0
M  V30 1194 H 121.663 -0.86377 0.390646 0
M  V30 1195 H 121.369 -3.40262 0.889629 0
M  V30 1196 H 121.243 -3.67754 -0.838875 0
M  V30 1197 H 123.63 -2.72798 -1.1254 0
M  V30 1198 H 123.711 -2.48053 0.62475 0
M  V30 1199 H 123.355 -4.98496 0.972824 0
M  V30 1200 H 123.285 -5.20586 -0.793556 0
M  V30 1201 H 125.776 -3.7753 -0.167244 0
M  V30 1202 H 126.089 -7.72279 0.283781 0
M  V30 1203 H 124.434 -6.94556 0.248267 0
M  V30 1204 H 127.625 -4.67938 -0.122958 0
M  V30 1205 H 127.798 -6.47948 0.0824844 0
M  V30 1206 N 121.204 0.198386 -1.56346 0
M  V30 1207 C 122.45 0.920648 -1.80698 0
M  V30 1208 C 122.783 1.83045 -0.648697 0
M  V30 1209 O 122.058 1.91308 0.350925 0
M  V30 1210 C 122.341 1.73971 -3.15287 0
M  V30 1211 C 122.194 0.85485 -4.41602 0
M  V30 1212 C 123.513 2.71296 -3.46535 0
M  V30 1213 H 120.632 0.333261 -0.657348 0
M  V30 1214 H 123.274 0.188198 -1.89066 0
M  V30 1215 H 121.424 2.36416 -3.08285 0
M  V30 1216 H 123.096 0.245362 -4.60647 0
M  V30 1217 H 121.339 0.161398 -4.335 0
M  V30 1218 H 122.01 1.46286 -5.32264 0
M  V30 1219 H 124.486 2.18983 -3.53816 0
M  V30 1220 H 123.362 3.2569 -4.41834 0
M  V30 1221 H 123.623 3.5018 -2.69864 0
M  V30 1222 N 122.682 1.50554 0.465978 0
M  V30 1223 C 123.645 1.69233 1.54574 0
M  V30 1224 C 124.645 0.562901 1.50626 0
M  V30 1225 O 125.835 0.830016 1.53155 0
M  V30 1226 C 122.967 1.7223 2.94193 0
M  V30 1227 H 124.16 2.65571 1.39327 0
M  V30 1228 H 121.713 1.40111 0.692711 0
M  V30 1229 H 122.448 0.77603 3.14878 0
M  V30 1230 H 122.233 2.54285 2.98466 0
M  V30 1231 H 123.723 1.88618 3.72576 0
M  V30 1232 N 124.16 -0.719506 1.40217 0
M  V30 1233 C 125.408 -1.47641 1.3801 0
M  V30 1234 C 125.729 -1.94992 -0.018145 0
M  V30 1235 O 124.999 -1.70073 -0.972207 0
M  V30 1236 H 123.579 -0.547744 0.507923 0
M  V30 1237 H 126.241 -0.853187 1.75233 0
M  V30 1238 H 125.337 -2.35112 2.05253 0
M  V30 1239 N 125.638 -1.25649 -0.95132 0
M  V30 1240 C 126.601 -1.06399 -2.03007 0
M  V30 1241 C 127.601 -0.0156794 -1.60792 0
M  V30 1242 O 128.791 -0.25817 -1.72276 0
M  V30 1243 C 125.923 -0.616184 -3.35285 0
M  V30 1244 H 127.116 -2.02164 -2.21517 0
M  V30 1245 H 124.669 -1.08103 -1.12887 0
M  V30 1246 H 125.404 0.343917 -3.22471 0
M  V30 1247 H 125.189 -1.37301 -3.67275 0
M  V30 1248 H 126.679 -0.503032 -4.14559 0
M  V30 1249 N 127.117 1.15442 -1.07289 0
M  V30 1250 C 128.047 2.22312 -0.714107 0
M  V30 1251 C 129.028 1.67467 0.298155 0
M  V30 1252 O 130.213 1.93445 0.171048 0
M  V30 1253 C 127.343 3.47124 -0.110448 0
M  V30 1254 C 126.297 4.14926 -1.04979 0
M  V30 1255 C 125.623 5.33807 -0.308924 0
M  V30 1256 C 126.923 4.64762 -2.38314 0
M  V30 1257 H 128.617 2.5258 -1.6076 0
M  V30 1258 H 126.163 1.21404 -0.77441 0
M  V30 1259 H 128.116 4.21124 0.152482 0
M  V30 1260 H 126.84 3.16187 0.81812 0
M  V30 1261 H 125.499 3.42866 -1.29764 0
M  V30 1262 H 125.147 4.99126 0.623084 0
M  V30 1263 H 124.847 5.80113 -0.935036 0
M  V30 1264 H 126.371 6.10576 -0.0537771 0
M  V30 1265 H 127.785 5.30292 -2.1786 0
M  V30 1266 H 126.182 5.21728 -2.96514 0
M  V30 1267 H 127.252 3.80434 -3.00663 0
M  V30 1268 N 128.595 0.856903 1.32268 0
M  V30 1269 C 130.011 0.547061 1.49931 0
M  V30 1270 C 130.211 -0.921781 1.7918 0
M  V30 1271 O 129.267 -1.70469 1.8627 0
M  V30 1272 C 130.58 1.43599 2.64196 0
M  V30 1273 C 132.128 1.43665 2.78081 0
M  V30 1274 C 132.603 2.31085 3.95428 0
M  V30 1275 N 134.094 2.28893 4.02694 0
M  V30 1276 C 134.829 2.93262 4.92732 0
M  V30 1277 N 134.325 3.66751 5.87763 0
M  V30 1278 N 136.118 2.82638 4.85873 0
M  V30 1279 H 128.269 1.8075 1.11549 0
M  V30 1280 H 130.532 0.772144 0.549997 0
M  V30 1281 H 130.238 2.48058 2.49319 0
M  V30 1282 H 130.112 1.12502 3.60032 0
M  V30 1283 H 132.499 0.399701 2.92381 0
M  V30 1284 H 132.58 1.7878 1.82952 0
M  V30 1285 H 132.224 3.34849 3.81888 0
M  V30 1286 H 132.154 1.93302 4.89839 0
M  V30 1287 H 134.645 1.75466 3.34694 0
M  V30 1288 H 134.958 4.13027 6.53168 0
M  V30 1289 H 133.303 3.70859 5.87783 0
M  V30 1290 H 136.494 2.24774 4.10602 0
M  V30 1291 H 136.667 3.33084 5.55841 0
M  V30 1292 N 130.073 -1.45103 0.615059 0
M  V30 1293 C 131.021 -2.32331 -0.111791 0
M  V30 1294 C 132.015 -1.46409 -0.852102 0
M  V30 1295 O 133.221 -1.62849 -0.766821 0
M  V30 1296 H 129.596 -0.749993 -0.0549072 0
M  V30 1297 H 131.567 -2.91407 0.642225 0
M  V30 1298 C 130.316 -3.3015 -1.09071 0
M  V30 1299 H 129.639 -3.96265 -0.530485 0
M  V30 1300 H 131.079 -3.93898 -1.56908 0
M  V30 1301 C 129.538 -2.57875 -2.168 0
M  V30 1302 O 130.068 -2.36567 -3.24652 0
M  V30 1303 N 128.274 -2.17884 -1.92289 0
M  V30 1304 H 127.821 -2.35413 -1.04587 0
M  V30 1305 H 127.779 -1.6985 -2.64572 0
M  V30 1306 N 131.551 -0.354651 -1.53558 0
M  V30 1307 C 132.797 0.238797 -2.01389 0
M  V30 1308 C 133.13 1.49309 -1.2418 0
M  V30 1309 O 132.405 1.91638 -0.332457 0
M  V30 1310 C 132.688 0.541771 -3.56001 0
M  V30 1311 C 132.541 -0.725388 -4.43912 0
M  V30 1312 C 133.86 1.34685 -4.18984 0
M  V30 1313 H 130.979 0.0853177 -0.732045 0
M  V30 1314 H 133.621 -0.477384 -1.83905 0
M  V30 1315 H 131.771 1.15189 -3.71031 0
M  V30 1316 H 133.443 -1.36313 -4.407 0
M  V30 1317 H 131.686 -1.34801 -4.12324 0
M  V30 1318 H 132.357 -0.468505 -5.50008 0
M  V30 1319 H 134.833 0.830837 -4.07721 0
M  V30 1320 H 133.709 1.52759 -5.27215 0
M  V30 1321 H 133.97 2.35221 -3.74331 0
M  V30 1322 N 133.029 1.57378 -0.0835403 0
M  V30 1323 C 134.278 1.93106 0.582498 0
M  V30 1324 C 134.591 0.96651 1.70053 0
M  V30 1325 O 135.797 1.21705 2.42693 0
M  V30 1326 C 134.253 3.43076 1.08751 0
M  V30 1327 C 133.861 4.48 -0.000146404 0
M  V30 1328 C 135.605 3.87785 1.72694 0
M  V30 1329 C 133.512 5.89113 0.519568 0
M  V30 1330 H 132.442 0.720775 0.221358 0
M  V30 1331 H 135.093 1.82821 -0.157675 0
M  V30 1332 H 133.475 3.48474 1.88101 0
M  V30 1333 H 134.649 4.54233 -0.775199 0
M  V30 1334 H 132.964 4.1283 -0.54406 0
M  V30 1335 H 135.561 4.90604 2.1263 0
M  V30 1336 H 135.904 3.25796 2.59158 0
M  V30 1337 H 136.437 3.8504 0.999457 0
M  V30 1338 H 133.176 6.54775 -0.308186 0
M  V30 1339 H 132.696 5.86376 1.26188 0
M  V30 1340 H 134.375 6.39346 0.992237 0
M  V30 1341 N 134.507 -0.190092 1.56449 0
M  V30 1342 C 135.47 -1.21925 1.9408 0
M  V30 1343 C 136.47 -1.38176 0.822431 0
M  V30 1344 O 137.66 -1.35903 1.08977 0
M  V30 1345 C 134.792 -2.58773 2.21922 0
M  V30 1346 H 135.985 -0.897464 2.86157 0
M  V30 1347 H 133.538 -0.43181 1.50217 0
M  V30 1348 H 134.273 -2.95998 1.32499 0
M  V30 1349 H 134.058 -2.48348 3.03424 0
M  V30 1350 H 135.548 -3.32978 2.52022 0
M  V30 1351 N 135.985 -1.50799 -0.457987 0
M  V30 1352 C 137.262 -1.52968 -1.21902 0
M  V30 1353 C 137.642 -0.281906 -2.09209 0
M  V30 1354 O 136.99 0.734076 -2.16388 0
M  V30 1355 C 137.2 -2.8326 -2.03875 0
M  V30 1356 C 138.548 -3.34425 -2.6162 0
M  V30 1357 O 139.572 -2.8467 -2.14106 0
M  V30 1358 O 138.431 -4.21188 -3.48228 0
M  V30 1359 H 135.525 -0.614129 -0.553873 0
M  V30 1360 H 138.071 -1.63098 -0.468739 0
M  V30 1361 H 136.843 -3.65543 -1.39621 0
M  V30 1362 H 136.466 -2.76195 -2.8601 0
M  V30 1363 N 137.463 0.71206 -1.40597 0
M  V30 1364 C 138.688 1.50617 -1.42581 0
M  V30 1365 C 139.113 1.88079 -0.0282102 0
M  V30 1366 O 138.471 1.53511 0.964579 0
M  V30 1367 C 138.519 2.7557 -2.3258 0
M  V30 1368 O 137.623 3.72414 -1.77148 0
M  V30 1369 H 136.964 0.453966 -0.484573 0
M  V30 1370 H 139.494 0.876649 -1.84868 0
M  V30 1371 H 139.504 3.2406 -2.47889 0
M  V30 1372 H 138.179 2.47639 -3.34138 0
M  V30 1373 H 136.756 3.31276 -1.71204 0
M  V30 1374 N 138.941 1.26152 0.944643 0
M  V30 1375 C 139.873 1.03199 2.04652 0
M  V30 1376 C 140.886 -0.00642356 1.62799 0
M  V30 1377 O 142.075 0.233263 1.76969 0
M  V30 1378 C 139.175 0.540111 3.34568 0
M  V30 1379 C 138.348 1.64697 4.05208 0
M  V30 1380 C 137.407 1.15374 5.13396 0
M  V30 1381 O 136.433 1.85013 5.38293 0
M  V30 1382 N 137.635 0.00031529 5.805 0
M  V30 1383 H 140.4 1.9808 2.2491 0
M  V30 1384 H 137.961 1.17491 1.11389 0
M  V30 1385 H 139.953 0.194401 4.04233 0
M  V30 1386 H 138.523 -0.315021 3.11009 0
M  V30 1387 H 137.743 2.16379 3.29506 0
M  V30 1388 H 139.031 2.3903 4.49157 0
M  V30 1389 H 138.429 -0.581336 5.62705 0
M  V30 1390 H 136.986 -0.286346 6.51171 0
M  V30 1391 N 140.419 -1.14872 1.07899 0
M  V30 1392 C 141.835 -1.37776 0.805606 0
M  V30 1393 C 142.035 -1.92743 -0.587555 0
M  V30 1394 O 141.091 -2.13678 -1.34528 0
M  V30 1395 C 142.404 -2.34361 1.88402 0
M  V30 1396 C 143.952 -2.48012 1.90942 0
M  V30 1397 C 144.427 -3.47893 2.97883 0
M  V30 1398 N 145.918 -3.55433 2.97021 0
M  V30 1399 C 146.653 -4.32553 3.76412 0
M  V30 1400 N 146.149 -5.12959 4.65666 0
M  V30 1401 N 147.942 -4.27697 3.64735 0
M  V30 1402 H 140.093 -0.775365 1.97742 0
M  V30 1403 H 142.356 -0.403521 0.857831 0
M  V30 1404 H 142.062 -2.01098 2.88535 0
M  V30 1405 H 141.936 -3.34206 1.74889 0
M  V30 1406 H 144.323 -2.8057 0.914579 0
M  V30 1407 H 144.404 -1.48147 2.08534 0
M  V30 1408 H 144.048 -3.16069 3.97571 0
M  V30 1409 H 143.978 -4.47527 2.77538 0
M  V30 1410 H 146.469 -2.98048 2.32326 0
M  V30 1411 H 146.782 -5.69065 5.22862 0
M  V30 1412 H 145.127 -5.12245 4.69712 0
M  V30 1413 H 148.318 -3.63949 2.94378 0
M  V30 1414 H 148.491 -4.8755 4.26848 0
M  V30 1415 N 141.898 -0.863906 -1.31812 0
M  V30 1416 C 143.314 -0.555004 -1.49639 0
M  V30 1417 C 143.514 0.912266 -1.79666 0
M  V30 1418 O 142.57 1.69479 -1.87171 0
M  V30 1419 C 143.883 -1.44998 -2.63431 0
M  V30 1420 C 145.431 -1.45138 -2.77316 0
M  V30 1421 C 145.906 -2.33179 -3.94197 0
M  V30 1422 N 147.397 -2.31025 -4.01474 0
M  V30 1423 C 148.132 -2.95871 -4.9117 0
M  V30 1424 N 147.628 -3.69863 -5.8581 0
M  V30 1425 N 149.421 -2.85211 -4.84367 0
M  V30 1426 H 141.572 -1.81339 -1.10589 0
M  V30 1427 H 143.835 -0.77505 -0.545895 0
M  V30 1428 H 143.541 -2.49377 -2.48 0
M  V30 1429 H 143.415 -1.14409 -3.59431 0
M  V30 1430 H 145.802 -0.415201 -2.92164 0
M  V30 1431 H 145.883 -1.79747 -1.82001 0
M  V30 1432 H 145.527 -3.3687 -3.80107 0
M  V30 1433 H 145.457 -1.95897 -4.88807 0
M  V30 1434 H 147.948 -1.77238 -3.33759 0
M  V30 1435 H 148.261 -4.16486 -6.50968 0
M  V30 1436 H 146.606 -3.73971 -5.85808 0
M  V30 1437 H 149.797 -2.26948 -4.09405 0
M  V30 1438 H 149.97 -3.36027 -5.54066 0
M  V30 1439 N 143.376 1.44774 -0.622745 0
M  V30 1440 C 144.308 2.28856 0.125485 0
M  V30 1441 C 145.321 1.40811 0.817069 0
M  V30 1442 O 146.51 1.65044 0.679918 0
M  V30 1443 C 143.61 3.16963 1.19949 0
M  V30 1444 C 142.783 4.33374 0.592064 0
M  V30 1445 C 141.842 5.02577 1.55893 0
M  V30 1446 O 140.868 5.58873 1.07933 0
M  V30 1447 N 142.07 5.03256 2.89334 0
M  V30 1448 H 144.835 2.93713 -0.596068 0
M  V30 1449 H 142.396 1.55129 -0.463303 0
M  V30 1450 H 144.388 3.60123 1.84644 0
M  V30 1451 H 142.958 2.53913 1.82337 0
M  V30 1452 H 142.178 3.93509 -0.233322 0
M  V30 1453 H 143.466 5.08527 0.166738 0
M  V30 1454 H 142.864 4.58836 3.30887 0
M  V30 1455 H 141.421 5.50232 3.49412 0
M  V30 1456 N 144.854 0.36279 1.53368 0
M  V30 1457 C 145.804 -0.501391 2.22419 0
M  V30 1458 C 146.788 -1.0509 1.2184 0
M  V30 1459 O 147.98 -0.981404 1.47301 0
M  V30 1460 C 145.109 -1.64201 3.01484 0
M  V30 1461 C 144.195 -1.10552 4.09438 0
M  V30 1462 N 144.586 -0.291788 5.04958 0
M  V30 1463 C 142.884 -1.3806 4.24094 0
M  V30 1464 C 143.585 0.00162655 5.817 0
M  V30 1465 N 142.561 -0.595244 5.40331 0
M  V30 1466 H 146.363 0.127159 2.93625 0
M  V30 1467 H 143.877 0.170658 1.61501 0
M  V30 1468 H 145.874 -2.27326 3.49469 0
M  V30 1469 H 144.534 -2.27365 2.31809 0
M  V30 1470 H 145.545 0.0687731 5.17854 0
M  V30 1471 H 142.222 -2.01522 3.65644 0
M  V30 1472 H 143.612 0.659278 6.68658 0
M  V30 1473 N 146.332 -1.57332 0.0918853 0
M  V30 1474 C 147.295 -2.12708 -0.85369 0
M  V30 1475 C 148.295 -1.05561 -1.213 0
M  V30 1476 O 149.485 -1.31461 -1.14296 0
M  V30 1477 C 146.617 -2.64503 -2.15061 0
M  V30 1478 H 147.81 -2.97573 -0.3729 0
M  V30 1479 H 145.363 -1.55509 -0.157072 0
M  V30 1480 H 146.098 -1.83149 -2.67632 0
M  V30 1481 H 145.883 -3.4284 -1.90272 0
M  V30 1482 H 147.373 -3.07351 -2.82711 0
M  V30 1483 N 147.81 0.181792 -1.56548 0
M  V30 1484 C 149.056 0.896803 -1.82562 0
M  V30 1485 C 149.411 1.80324 -0.670908 0
M  V30 1486 O 148.704 1.8868 0.333235 0
M  V30 1487 C 148.898 1.73728 -3.12335 0
M  V30 1488 C 148.727 0.913714 -4.4032 0
M  V30 1489 C 147.497 0.592903 -5.01809 0
M  V30 1490 C 149.695 0.260164 -5.13642 0
M  V30 1491 N 147.677 -0.247901 -6.13399 0
M  V30 1492 C 149.048 -0.442256 -6.18421 0
M  V30 1493 C 151.103 0.177253 -4.97584 0
M  V30 1494 C 149.806 -1.21971 -7.08883 0
M  V30 1495 C 151.832 -0.586839 -5.88481 0
M  V30 1496 C 151.194 -1.27766 -6.92716 0
M  V30 1497 H 147.293 0.307122 -0.719166 0
M  V30 1498 H 149.877 0.164535 -1.94004 0
M  V30 1499 H 148.048 2.44105 -3.02105 0
M  V30 1500 H 149.78 2.39279 -3.26386 0
M  V30 1501 H 146.535 0.920502 -4.64568 0
M  V30 1502 H 146.959 -0.658304 -6.73792 0
M  V30 1503 H 151.601 0.696993 -4.17015 0
M  V30 1504 H 149.319 -1.75083 -7.88905 0
M  V30 1505 H 152.905 -0.652522 -5.78129 0
M  V30 1506 H 151.785 -1.85943 -7.61836 0
M  V30 1507 N 149.288 1.51039 0.449983 0
M  V30 1508 C 150.251 1.70863 1.5277 0
M  V30 1509 C 151.251 0.578846 1.5002 0
M  V30 1510 O 152.441 0.846213 1.52266 0
M  V30 1511 C 149.573 1.75341 2.9235 0
M  V30 1512 H 150.766 2.67034 1.36502 0
M  V30 1513 H 148.319 1.40838 0.677812 0
M  V30 1514 H 149.054 0.809383 3.14037 0
M  V30 1515 H 148.839 2.57436 2.95752 0
M  V30 1516 H 150.329 1.92559 3.70555 0
M  V30 1517 N 150.766 -0.704594 1.40972 0
M  V30 1518 C 152.043 -1.45847 1.30338 0
M  V30 1519 C 152.423 -2.10973 -0.0732344 0
M  V30 1520 O 151.771 -2.00997 -1.08685 0
M  V30 1521 C 151.981 -2.48525 2.45023 0
M  V30 1522 C 153.329 -3.1404 2.8577 0
M  V30 1523 O 154.353 -2.58848 2.44696 0
M  V30 1524 O 153.212 -4.13981 3.56766 0
M  V30 1525 H 150.306 -0.649092 0.512454 0
M  V30 1526 H 152.852 -0.735836 1.52917 0
M  V30 1527 H 151.624 -1.98994 3.36923 0
M  V30 1528 H 151.247 -3.2831 2.24272 0
M  V30 1529 N 152.244 -1.26651 -0.937939 0
M  V30 1530 C 153.207 -1.08546 -2.01867 0
M  V30 1531 C 154.207 -0.0327327 -1.60767 0
M  V30 1532 O 155.397 -0.276427 -1.71993 0
M  V30 1533 C 152.529 -0.651711 -3.34613 0
M  V30 1534 H 153.722 -2.04502 -2.1936 0
M  V30 1535 H 151.275 -1.09294 -1.11734 0
M  V30 1536 H 152.01 0.309696 -3.22818 0
M  V30 1537 H 151.795 -1.41189 -3.65798 0
M  V30 1538 H 153.285 -0.546973 -4.14002 0
M  V30 1539 N 153.722 1.14298 -1.08507 0
M  V30 1540 C 154.652 2.21542 -0.737646 0
M  V30 1541 C 155.633 1.67773 0.280377 0
M  V30 1542 O 156.818 1.93616 0.150521 0
M  V30 1543 C 153.948 3.46988 -0.147259 0
M  V30 1544 C 152.902 4.13789 -1.09374 0
M  V30 1545 C 152.228 5.33449 -0.365524 0
M  V30 1546 C 153.528 4.62208 -2.4323 0
M  V30 1547 H 155.222 2.5086 -1.6343 0
M  V30 1548 H 152.768 1.20576 -0.787243 0
M  V30 1549 H 154.721 4.21262 0.107808 0
M  V30 1550 H 153.445 3.17037 0.784538 0
M  V30 1551 H 152.104 3.4147 -1.33393 0
M  V30 1552 H 151.752 4.99759 0.57011 0
M  V30 1553 H 151.452 5.79088 -0.996512 0
M  V30 1554 H 152.976 6.10485 -0.118534 0
M  V30 1555 H 154.39 5.27952 -2.23472 0
M  V30 1556 H 152.787 5.18553 -3.02031 0
M  V30 1557 H 153.857 3.77224 -3.04681 0
M  V30 1558 N 155.201 0.870884 1.31352 0
M  V30 1559 C 156.478 0.402907 1.91405 0
M  V30 1560 C 156.858 -1.11512 1.79244 0
M  V30 1561 O 156.206 -1.94411 1.2007 0
M  V30 1562 C 156.416 0.885301 3.37585 0
M  V30 1563 C 157.764 0.911971 4.14691 0
M  V30 1564 O 158.788 0.831016 3.46371 0
M  V30 1565 O 157.647 1.02927 5.3672 0
M  V30 1566 H 154.741 0.120698 0.818145 0
M  V30 1567 H 157.287 0.958857 1.40014 0
M  V30 1568 H 156.059 1.92889 3.40455 0
M  V30 1569 H 155.682 0.307714 3.96407 0
M  V30 1570 N 156.679 -1.44442 0.630414 0
M  V30 1571 C 157.642 -2.29107 -0.0652523 0
M  V30 1572 C 158.642 -1.41002 -0.772995 0
M  V30 1573 O 159.832 -1.62881 -0.617692 0
M  V30 1574 C 156.964 -3.22564 -1.10296 0
M  V30 1575 H 158.157 -2.92103 0.679401 0
M  V30 1576 H 155.71 -1.51343 0.390517 0
M  V30 1577 H 156.445 -2.64416 -1.87762 0
M  V30 1578 H 156.23 -3.87491 -0.59941 0
M  V30 1579 H 157.72 -3.86167 -1.5895 0
M  V30 1580 N 158.157 -0.370918 -1.53173 0
M  V30 1581 C 159.12 0.460778 -2.24521 0
M  V30 1582 C 160.12 1.00536 -1.25496 0
M  V30 1583 O 161.31 0.890266 -1.49733 0
M  V30 1584 C 158.442 1.64457 -2.98608 0
M  V30 1585 H 159.635 -0.163613 -2.99453 0
M  V30 1586 H 157.188 -0.122699 -1.55818 0
M  V30 1587 H 157.923 2.30691 -2.2793 0
M  V30 1588 H 157.708 1.26099 -3.7127 0
M  V30 1589 H 159.198 2.23384 -3.5283 0
M  V30 1590 N 159.635 1.57281 -0.100228 0
M  V30 1591 C 160.598 2.13158 0.842398 0
M  V30 1592 C 161.598 1.06202 1.20738 0
M  V30 1593 O 162.788 1.32066 1.13597 0
M  V30 1594 C 159.92 2.65639 2.13655 0
M  V30 1595 H 161.113 2.97766 0.357114 0
M  V30 1596 H 158.666 1.5559 0.148823 0
M  V30 1597 H 159.401 1.84566 2.66657 0
M  V30 1598 H 159.186 3.43844 1.88451 0
M  V30 1599 H 160.676 3.08846 2.81077 0
M  V30 1600 N 161.113 -0.173488 1.56642 0
M  V30 1601 C 162.529 -0.525174 1.50712 0
M  V30 1602 C 162.729 -1.8476 0.804107 0
M  V30 1603 O 161.785 -2.49869 0.363574 0
M  V30 1604 C 163.098 -0.559937 2.95441 0
M  V30 1605 C 164.646 -0.647288 3.06234 0
M  V30 1606 C 165.121 -0.712963 4.52417 0
M  V30 1607 N 166.612 -0.775911 4.56655 0
M  V30 1608 C 167.347 -0.847264 5.67106 0
M  V30 1609 N 166.843 -0.879585 6.87194 0
M  V30 1610 N 168.636 -0.886117 5.55071 0
M  V30 1611 H 160.787 0.693681 2.00753 0
M  V30 1612 H 163.05 0.249841 0.914485 0
M  V30 1613 H 162.756 0.343049 3.50023 0
M  V30 1614 H 162.63 -1.40718 3.49969 0
M  V30 1615 H 165.017 -1.5407 2.51687 0
M  V30 1616 H 165.098 0.226586 2.54794 0
M  V30 1617 H 164.742 0.176183 5.07594 0
M  V30 1618 H 164.672 -1.60295 5.0161 0
M  V30 1619 H 167.163 -0.759304 3.70193 0
M  V30 1620 H 167.476 -0.935144 7.67121 0
M  V30 1621 H 165.821 -0.847898 6.89808 0
M  V30 1622 H 169.012 -0.857853 4.60172 0
M  V30 1623 H 169.185 -0.938263 6.41171 0
M  V30 1624 N 162.591 -1.51276 -0.441967 0
M  V30 1625 C 163.819 -1.67516 -1.21434 0
M  V30 1626 C 164.234 -0.37055 -1.85128 0
M  V30 1627 O 163.591 0.650498 -1.70513 0
M  V30 1628 C 163.642 -2.78748 -2.30177 0
M  V30 1629 O 163.363 -4.04154 -1.69089 0
M  V30 1630 C 164.864 -3.06217 -3.20541 0
M  V30 1631 H 162.084 -0.562276 -0.366178 0
M  V30 1632 H 164.628 -1.97666 -0.524244 0
M  V30 1633 H 162.783 -2.5121 -2.94911 0
M  V30 1634 H 163.197 -4.65894 -2.40922 0
M  V30 1635 H 164.671 -3.8764 -3.92987 0
M  V30 1636 H 165.148 -2.18439 -3.81026 0
M  V30 1637 H 165.754 -3.35397 -2.61513 0
M  V30 1638 N 164.069 0.697108 -1.41344 0
M  V30 1639 C 165.317 1.45426 -1.40341 0
M  V30 1640 C 165.638 1.94996 -0.0128787 0
M  V30 1641 O 164.908 1.71599 0.945027 0
M  V30 1642 H 163.488 0.539594 -0.516573 0
M  V30 1643 H 166.15 0.825201 -1.76569 0
M  V30 1644 H 165.246 2.31817 -2.08967 0
M  V30 1645 N 165.547 1.27147 0.931209 0
M  V30 1646 C 166.51 1.09615 2.01289 0
M  V30 1647 C 167.51 0.0412581 1.60747 0
M  V30 1648 O 168.7 0.285545 1.71844 0
M  V30 1649 C 165.832 0.669447 3.34262 0
M  V30 1650 H 167.025 2.05662 2.18273 0
M  V30 1651 H 164.578 1.09885 1.11153 0
M  V30 1652 H 165.313 -0.292572 3.22978 0
M  V30 1653 H 165.098 1.43127 3.65044 0
M  V30 1654 H 166.588 0.568921 4.13706 0
M  V30 1655 N 167.025 -1.13721 1.09112 0
M  V30 1656 C 168.274 -1.84275 0.82009 0
M  V30 1657 C 168.587 -1.84253 -0.656509 0
M  V30 1658 O 169.793 -2.50668 -1.04296 0
M  V30 1659 C 168.249 -3.30825 1.41714 0
M  V30 1660 C 167.857 -3.39244 2.92605 0
M  V30 1661 C 169.601 -4.06443 1.22492 0
M  V30 1662 C 167.508 -4.80047 3.45411 0
M  V30 1663 H 166.438 -0.690387 0.30312 0
M  V30 1664 H 169.089 -1.28146 1.31343 0
M  V30 1665 H 167.471 -3.86737 0.851498 0
M  V30 1666 H 168.645 -2.93344 3.55367 0
M  V30 1667 H 166.96 -2.77088 3.10823 0
M  V30 1668 H 169.557 -5.10387 1.59402 0
M  V30 1669 H 169.9 -4.15972 0.165299 0
M  V30 1670 H 170.433 -3.56852 1.75788 0
M  V30 1671 H 167.172 -4.75709 4.50978 0
M  V30 1672 H 166.692 -5.26455 2.87411 0
M  V30 1673 H 168.371 -5.48957 3.42425 0
M  V30 1674 N 168.503 -0.877838 -1.30888 0
M  V30 1675 C 169.466 -0.344265 -2.266 0
M  V30 1676 C 170.466 0.50922 -1.52524 0
M  V30 1677 O 171.656 0.317398 -1.71284 0
M  V30 1678 C 168.788 0.510198 -3.37061 0
M  V30 1679 H 169.981 -1.1893 -2.7531 0
M  V30 1680 H 167.534 -0.654088 -1.41956 0
M  V30 1681 H 168.269 1.37612 -2.93655 0
M  V30 1682 H 168.054 -0.101047 -3.9197 0
M  V30 1683 H 169.544 0.875537 -4.08319 0
M  V30 1684 N 169.982 1.44106 -0.638065 0
M  V30 1685 C 170.892 2.34513 0.0637334 0
M  V30 1686 C 171.908 1.53018 0.828346 0
M  V30 1687 O 173.084 1.85723 0.779036 0
M  V30 1688 C 170.149 3.31095 1.02844 0
M  V30 1689 C 169.21 4.28497 0.26244 0
M  V30 1690 C 168.443 5.20465 1.1812 0
M  V30 1691 O 168.666 5.16514 2.42011 0
M  V30 1692 O 167.6 5.98251 0.661774 0
M  V30 1693 H 171.426 2.95989 -0.68003 0
M  V30 1694 H 169.011 1.43994 -0.398252 0
M  V30 1695 H 170.893 3.90526 1.58327 0
M  V30 1696 H 169.568 2.72144 1.7527 0
M  V30 1697 H 168.475 3.72592 -0.335602 0
M  V30 1698 H 169.808 4.90388 -0.421936 0
M  V30 1699 N 171.46 0.379036 1.52974 0
M  V30 1700 C 172.423 -0.448865 2.24762 0
M  V30 1701 C 173.423 -0.998689 1.26027 0
M  V30 1702 O 174.613 -0.882313 1.50203 0
M  V30 1703 C 171.745 -1.62872 2.99476 0
M  V30 1704 H 172.938 0.179491 2.99362 0
M  V30 1705 H 170.491 0.13096 1.5575 0
M  V30 1706 H 171.226 -2.29479 2.29151 0
M  V30 1707 H 171.011 -1.24128 3.71934 0
M  V30 1708 H 172.501 -2.2151 3.5401 0
M  V30 1709 N 172.938 -1.57226 0.108567 0
M  V30 1710 C 173.871 -2.10447 -0.882464 0
M  V30 1711 C 174.849 -1.01829 -1.26766 0
M  V30 1712 O 176.033 -1.29415 -1.37054 0
M  V30 1713 C 173.16 -2.59258 -2.17952 0
M  V30 1714 C 172.206 -3.79662 -1.94318 0
M  V30 1715 S 173.039 -5.22586 -1.16892 0
M  V30 1716 C 174.195 -5.74758 -2.47799 0
M  V30 1717 H 174.428 -2.94178 -0.429745 0
M  V30 1718 H 171.961 -1.54043 -0.105 0
M  V30 1719 H 173.919 -2.88036 -2.92482 0
M  V30 1720 H 172.58 -1.75728 -2.60343 0
M  V30 1721 H 171.773 -4.11928 -2.90399 0
M  V30 1722 H 171.375 -3.51446 -1.27913 0
M  V30 1723 H 173.667 -5.83846 -3.43701 0
M  V30 1724 H 174.61 -6.73027 -2.20093 0
M  V30 1725 H 175.018 -5.02763 -2.56689 0
M  V30 1726 N 174.416 0.165178 -1.56732 0
M  V30 1727 C 175.827 0.727046 -1.71962 0
M  V30 1728 C 176.178 1.82508 -0.720078 0
M  V30 1729 O 175.303 2.16082 0.117242 0
M  V30 1730 C 175.898 1.32559 -3.11791 0
M  V30 1731 C 174.457 1.83422 -3.28684 0
M  V30 1732 C 173.604 0.715567 -2.67908 0
M  V30 1733 H 176.555 -0.0602896 -1.58585 0
M  V30 1734 H 176.576 2.19533 -3.10782 0
M  V30 1735 H 176.088 0.526195 -3.84516 0
M  V30 1736 H 174.189 2.65986 -2.60926 0
M  V30 1737 H 174.302 1.97543 -4.36478 0
M  V30 1738 H 172.666 1.13758 -2.27884 0
M  V30 1739 H 173.449 -0.0720836 -3.43224 0
M  V30 1740 N 175.894 1.51508 0.433938 0
M  V30 1741 C 177.122 1.68157 1.20543 0
M  V30 1742 C 177.537 0.380362 1.84929 0
M  V30 1743 O 176.894 -0.641446 1.70856 0
M  V30 1744 C 176.945 2.79965 2.28696 0
M  V30 1745 O 176.666 4.05045 1.66943 0
M  V30 1746 C 178.167 3.07912 3.18912 0
M  V30 1747 H 175.387 0.56421 0.363191 0
M  V30 1748 H 177.931 1.97941 0.513754 0
M  V30 1749 H 176.086 2.5277 2.93574 0
M  V30 1750 H 176.5 4.67165 2.38448 0
M  V30 1751 H 177.974 3.89719 3.90926 0
M  V30 1752 H 178.451 2.20456 3.79863 0
M  V30 1753 H 179.057 3.36779 2.59731 0
M  V30 1754 N 177.372 -0.689602 1.41712 0
M  V30 1755 C 178.335 -1.78521 1.43746 0
M  V30 1756 C 179.335 -1.57436 0.327191 0
M  V30 1757 O 180.525 -1.64 0.587348 0
M  V30 1758 C 177.657 -3.16971 1.25467 0
M  V30 1759 H 178.85 -1.78108 2.41283 0
M  V30 1760 H 176.403 -0.89781 1.27942 0
M  V30 1761 H 177.138 -3.23019 0.287948 0
M  V30 1762 H 176.923 -3.33678 2.05917 0
M  V30 1763 H 178.413 -3.96935 1.2974 0
M  V30 1764 N 178.85 -1.27639 -0.924453 0
M  V30 1765 C 179.813 -1.10681 -2.00705 0
M  V30 1766 C 180.813 -0.0497823 -1.60723 0
M  V30 1767 O 182.003 -0.294654 -1.7169 0
M  V30 1768 C 179.135 -0.687164 -3.33902 0
M  V30 1769 H 180.328 -2.06817 -2.17179 0
M  V30 1770 H 177.881 -1.10473 -1.10569 0
M  V30 1771 H 178.616 0.275439 -3.23128 0
M  V30 1772 H 178.401 -1.45061 -3.6428 0
M  V30 1773 H 179.891 -0.590853 -4.13399 0
M  V30 1774 N 180.328 1.1314 -1.09713 0
M  V30 1775 C 181.577 1.83838 -0.829851 0
M  V30 1776 C 181.89 1.84599 0.646728 0
M  V30 1777 O 183.096 2.51218 1.02965 0
M  V30 1778 C 181.552 3.30069 -1.43466 0
M  V30 1779 C 181.16 3.37688 -2.94399 0
M  V30 1780 C 182.904 4.05788 -1.24645 0
M  V30 1781 C 180.811 4.78209 -3.47952 0
M  V30 1782 H 179.741 0.68877 -0.306777 0
M  V30 1783 H 182.392 1.27448 -1.3202 0
M  V30 1784 H 180.774 3.8628 -0.871996 0
M  V30 1785 H 181.948 2.91456 -3.56918 0
M  V30 1786 H 180.263 2.75436 -3.12289 0
M  V30 1787 H 182.86 5.09535 -1.62107 0
M  V30 1788 H 183.203 4.15878 -0.187357 0
M  V30 1789 H 183.736 3.55915 -1.77678 0
M  V30 1790 H 180.475 4.73311 -4.53495 0
M  V30 1791 H 179.995 5.24924 -2.90198 0
M  V30 1792 H 181.674 5.47133 -3.45332 0
M  V30 1793 N 181.806 0.884767 1.30421 0
M  V30 1794 C 183.054 0.502112 1.95763 0
M  V30 1795 C 183.375 -0.951815 1.70192 0
M  V30 1796 O 182.645 -1.6692 1.0254 0
M  V30 1797 H 181.225 0.182694 0.724315 0
M  V30 1798 H 183.887 1.1278 1.58955 0
M  V30 1799 H 182.983 0.672188 3.04775 0
M  V30 1800 N 183.284 -1.43765 0.645699 0
M  V30 1801 C 184.247 -2.29163 -0.0409488 0
M  V30 1802 C 185.247 -1.41813 -0.757996 0
M  V30 1803 O 186.437 -1.63527 -0.600382 0
M  V30 1804 C 183.569 -3.23716 -1.06869 0
M  V30 1805 H 184.762 -2.91366 0.710345 0
M  V30 1806 H 182.315 -1.5092 0.406547 0
M  V30 1807 H 183.05 -2.66393 -1.84947 0
M  V30 1808 H 182.835 -3.88105 -0.558277 0
M  V30 1809 H 184.325 -3.87831 -1.54845 0
M  V30 1810 N 184.763 -0.387143 -1.52771 0
M  V30 1811 C 185.988 0.198407 -2.06449 0
M  V30 1812 C 186.413 1.39918 -1.25716 0
M  V30 1813 O 185.771 1.79099 -0.281657 0
M  V30 1814 C 185.819 0.548893 -3.56398 0
M  V30 1815 O 184.923 1.64315 -3.78252 0
M  V30 1816 H 184.264 0.0237731 -0.663574 0
M  V30 1817 H 186.794 -0.553989 -1.96957 0
M  V30 1818 H 186.804 0.813812 -3.99801 0
M  V30 1819 H 185.479 -0.329005 -4.14597 0
M  V30 1820 H 184.056 1.37211 -3.46738 0
M  V30 1821 N 186.241 1.57166 -0.116904 0
M  V30 1822 C 187.171 2.18222 0.830759 0
M  V30 1823 C 188.152 1.12167 1.27877 0
M  V30 1824 O 189.337 1.40394 1.34176 0
M  V30 1825 C 186.467 2.77996 2.08172 0
M  V30 1826 C 185.421 3.89614 1.77157 0
M  V30 1827 C 184.747 4.36187 3.09265 0
M  V30 1828 C 186.047 5.1181 1.04151 0
M  V30 1829 H 187.741 2.97664 0.321992 0
M  V30 1830 H 185.287 1.4318 0.153434 0
M  V30 1831 H 187.24 3.19366 2.74924 0
M  V30 1832 H 185.964 1.9584 2.6137 0
M  V30 1833 H 184.623 3.48816 1.12796 0
M  V30 1834 H 184.271 3.50893 3.60393 0
M  V30 1835 H 183.971 5.11455 2.89288 0
M  V30 1836 H 185.495 4.80207 3.77139 0
M  V30 1837 H 186.909 5.50214 1.61052 0
M  V30 1838 H 185.306 5.92648 0.942762 0
M  V30 1839 H 186.376 4.84892 0.0279022 0
M  V30 1840 N 187.719 -0.156864 1.56817 0
M  V30 1841 C 188.649 -1.19589 2.00551 0
M  V30 1842 C 189.63 -1.4536 0.883426 0
M  V30 1843 O 190.815 -1.56449 1.15054 0
M  V30 1844 C 187.945 -2.53143 2.37773 0
M  V30 1845 C 186.899 -2.41913 3.53075 0
M  V30 1846 C 186.225 -3.80088 3.76081 0
M  V30 1847 C 187.525 -1.91157 4.86062 0
M  V30 1848 H 189.219 -0.832293 2.87599 0
M  V30 1849 H 186.765 -0.398918 1.38364 0
M  V30 1850 H 188.718 -3.26047 2.66967 0
M  V30 1851 H 187.442 -2.91319 1.4765 0
M  V30 1852 H 186.101 -1.71462 3.24031 0
M  V30 1853 H 185.749 -4.15683 2.83225 0
M  V30 1854 H 185.449 -3.73439 4.53671 0
M  V30 1855 H 186.973 -4.54556 4.0769 0
M  V30 1856 H 188.387 -2.53846 5.14038 0
M  V30 1857 H 186.784 -1.95422 5.67389 0
M  V30 1858 H 187.854 -0.866673 4.77092 0
M  V30 1859 N 189.197 -1.51736 -0.425897 0
M  V30 1860 C 190.445 -1.64644 -1.17204 0
M  V30 1861 C 190.766 -0.370486 -1.91448 0
M  V30 1862 O 190.036 0.614088 -1.86026 0
M  V30 1863 H 188.616 -0.606819 -0.435638 0
M  V30 1864 H 191.278 -1.88713 -0.487177 0
M  V30 1865 H 190.374 -2.47958 -1.89534 0
M  V30 1866 N 190.675 0.682077 -1.42076 0
M  V30 1867 C 191.638 1.77756 -1.44691 0
M  V30 1868 C 192.638 1.5726 -0.335535 0
M  V30 1869 O 193.828 1.63686 -0.596037 0
M  V30 1870 C 190.96 3.16301 -1.27146 0
M  V30 1871 H 192.153 1.76826 -2.42224 0
M  V30 1872 H 189.706 0.891012 -1.28416 0
M  V30 1873 H 190.441 3.22862 -0.305075 0
M  V30 1874 H 190.226 3.32581 -2.07683 0
M  V30 1875 H 191.716 3.96241 -1.31843 0
M  V30 1876 N 192.153 1.28127 0.917671 0
M  V30 1877 C 193.399 1.15223 1.66888 0
M  V30 1878 C 193.732 -0.299293 1.9188 0
M  V30 1879 O 193.007 -1.21805 1.51637 0
M  V30 1880 C 193.29 1.94706 3.02922 0
M  V30 1881 C 193.143 3.47898 2.85109 0
M  V30 1882 C 194.462 1.75939 4.03402 0
M  V30 1883 H 191.581 0.419946 0.605652 0
M  V30 1884 H 194.223 1.57398 1.06423 0
M  V30 1885 H 192.373 1.58864 3.54534 0
M  V30 1886 H 194.045 3.93624 2.40537 0
M  V30 1887 H 192.288 3.7373 2.20246 0
M  V30 1888 H 192.959 3.98765 3.81694 0
M  V30 1889 H 195.435 2.07209 3.60837 0
M  V30 1890 H 194.311 2.33931 4.96556 0
M  V30 1891 H 194.572 0.709877 4.36364 0
M  V30 1892 N 193.631 -1.12557 1.10312 0
M  V30 1893 C 194.877 -1.84311 0.846011 0
M  V30 1894 C 195.21 -1.83805 -0.626859 0
M  V30 1895 O 194.485 -1.28268 -1.46211 0
M  V30 1896 C 194.768 -3.32048 1.39341 0
M  V30 1897 C 194.621 -3.41016 2.93305 0
M  V30 1898 C 195.94 -4.27764 1.03468 0
M  V30 1899 H 193.059 -0.669192 0.30879 0
M  V30 1900 H 195.701 -1.32057 1.36605 0
M  V30 1901 H 193.851 -3.76678 0.951087 0
M  V30 1902 H 195.523 -3.05031 3.46055 0
M  V30 1903 H 193.766 -2.81603 3.29973 0
M  V30 1904 H 194.437 -4.44948 3.26689 0
M  V30 1905 H 196.913 -3.91253 1.41633 0
M  V30 1906 H 195.789 -5.29549 1.44463 0
M  V30 1907 H 196.05 -4.42064 -0.0560404 0
M  V30 1908 N 195.109 -0.891671 -1.2995 0
M  V30 1909 C 196.072 -0.36828 -2.26222 0
M  V30 1910 C 197.072 0.493014 -1.53056 0
M  V30 1911 O 198.262 0.299213 -1.71611 0
M  V30 1912 C 195.394 0.47442 -3.37583 0
M  V30 1913 H 196.587 -1.21844 -2.74033 0
M  V30 1914 H 194.14 -0.669107 -1.41254 0
M  V30 1915 H 194.875 1.34489 -2.95099 0
M  V30 1916 H 194.66 -0.142615 -3.91841 0
M  V30 1917 H 196.15 0.83218 -4.09224 0
M  V30 1918 N 196.587 1.43421 -0.653314 0
M  V30 1919 C 197.835 2.01414 -0.166415 0
M  V30 1920 C 198.156 1.51803 1.22397 0
M  V30 1921 O 197.426 0.730693 1.81763 0
M  V30 1922 H 196.006 0.744703 -0.0585319 0
M  V30 1923 H 198.668 1.75629 -0.845003 0
M  V30 1924 H 197.764 3.11734 -0.151111 0
M  V30 1925 N 198.065 0.39524 1.52563 0
M  V30 1926 C 199.314 -0.186321 2.00838 0
M  V30 1927 C 199.627 -1.47402 1.28577 0
M  V30 1928 O 200.833 -2.13599 1.67593 0
M  V30 1929 C 199.289 -0.382595 3.57861 0
M  V30 1930 C 198.897 0.892202 4.39026 0
M  V30 1931 C 200.641 -0.9202 4.14406 0
M  V30 1932 C 198.548 0.66388 5.87662 0
M  V30 1933 H 197.478 -0.0734041 0.750418 0
M  V30 1934 H 200.129 0.518552 1.76021 0
M  V30 1935 H 198.511 -1.14946 3.7895 0
M  V30 1936 H 199.685 1.66414 4.29701 0
M  V30 1937 H 198 1.35519 3.9373 0
M  V30 1938 H 200.597 -1.10683 5.23119 0
M  V30 1939 H 200.94 -1.89096 3.70875 0
M  V30 1940 H 201.473 -0.212751 3.97231 0
M  V30 1941 H 198.212 1.6058 6.35527 0
M  V30 1942 H 197.732 -0.0690193 5.9976 0
M  V30 1943 H 199.411 0.300699 6.46301 0
M  V30 1944 N 199.544 -1.57102 0.125237 0
M  V30 1945 C 200.792 -1.95021 -0.530198 0
M  V30 1946 C 201.113 -1.00982 -1.66816 0
M  V30 1947 O 200.383 -0.0672693 -1.95784 0
M  V30 1948 H 198.963 -0.720046 -0.198853 0
M  V30 1949 H 201.625 -1.93916 0.19564 0
M  V30 1950 H 200.721 -2.98211 -0.920681 0
M  V30 1951 N 201.022 0.148545 -1.56898 0
M  V30 1952 C 201.955 1.21293 -1.93296 0
M  V30 1953 C 202.933 1.41637 -0.798599 0
M  V30 1954 O 204.117 1.56275 -1.05406 0
M  V30 1955 C 201.244 2.5721 -2.20365 0
M  V30 1956 C 200.29 2.53469 -3.4301 0
M  V30 1957 S 201.123 2.00315 -4.96623 0
M  V30 1958 C 202.279 3.37964 -5.26812 0
M  V30 1959 H 202.512 0.902393 -2.83274 0
M  V30 1960 H 200.045 0.354094 -1.50285 0
M  V30 1961 H 202.003 3.35427 -2.36641 0
M  V30 1962 H 200.664 2.85454 -1.31054 0
M  V30 1963 H 199.857 3.53518 -3.59223 0
M  V30 1964 H 199.459 1.83359 -3.25968 0
M  V30 1965 H 201.751 4.34066 -5.20185 0
M  V30 1966 H 202.694 3.26606 -6.28279 0
M  V30 1967 H 203.102 3.35028 -4.54331 0
M  V30 1968 N 202.5 1.5196 0.417844 0
M  V30 1969 C 203.463 1.74065 1.49111 0
M  V30 1970 C 204.463 0.610537 1.48758 0
M  V30 1971 O 205.653 0.87832 1.50437 0
M  V30 1972 C 202.785 1.81502 2.88565 0
M  V30 1973 H 203.978 2.69869 1.30807 0
M  V30 1974 H 201.531 1.42244 0.647785 0
M  V30 1975 H 202.266 0.875813 3.1225 0
M  V30 1976 H 202.051 2.63651 2.90225 0
M  V30 1977 H 203.541 2.00376 3.66387 0
M  V30 1978 N 203.978 -0.674533 1.42435 0
M  V30 1979 C 205.389 -1.25514 1.38214 0
M  V30 1980 C 205.74 -1.96055 0.0755464 0
M  V30 1981 O 204.865 -2.00028 -0.8257 0
M  V30 1982 C 205.46 -2.28269 2.50357 0
M  V30 1983 C 204.019 -2.81856 2.49467 0
M  V30 1984 C 203.166 -1.56182 2.29134 0
M  V30 1985 H 206.117 -0.467902 1.51646 0
M  V30 1986 H 206.138 -3.10009 2.20624 0
M  V30 1987 H 205.65 -1.769 3.45439 0
M  V30 1988 H 203.751 -3.37346 1.58204 0
M  V30 1989 H 203.864 -3.30854 3.46515 0
M  V30 1990 H 202.228 -1.82761 1.774 0
M  V30 1991 H 203.011 -1.06778 3.26272 0
M  V30 1992 N 205.456 -1.28612 -0.910864 0
M  V30 1993 C 206.684 -1.18792 -1.69399 0
M  V30 1994 C 207.099 0.253039 -1.87097 0
M  V30 1995 O 206.456 1.17071 -1.40003 0
M  V30 1996 C 206.507 -1.88511 -3.08457 0
M  V30 1997 O 206.228 -3.26979 -2.91576 0
M  V30 1998 C 207.729 -1.85029 -4.02839 0
M  V30 1999 H 204.949 -0.412233 -0.529438 0
M  V30 2000 H 207.493 -1.69788 -1.13984 0
M  V30 2001 H 205.648 -1.41379 -3.60681 0
M  V30 2002 H 206.062 -3.61936 -3.79608 0
M  V30 2003 H 207.536 -2.38395 -4.97867 0
M  V30 2004 H 208.013 -0.823303 -4.31414 0
M  V30 2005 H 208.619 -2.31853 -3.56545 0
M  V30 2006 N 206.934 1.1197 -1.10907 0
M  V30 2007 C 208.18 1.8386 -0.855773 0
M  V30 2008 C 208.513 1.84134 0.617103 0
M  V30 2009 O 207.788 1.29041 1.45529 0
M  V30 2010 C 208.071 3.31305 -1.411 0
M  V30 2011 C 207.924 3.39456 -2.9511 0
M  V30 2012 C 209.243 4.2721 -1.05736 0
M  V30 2013 H 206.362 0.667545 -0.312334 0
M  V30 2014 H 209.004 1.31331 -1.37303 0
M  V30 2015 H 207.154 3.76169 -0.97105 0
M  V30 2016 H 208.826 3.03191 -3.47668 0
M  V30 2017 H 207.069 2.79849 -3.31462 0
M  V30 2018 H 207.74 4.43209 -3.29044 0
M  V30 2019 H 210.216 3.90497 -1.43706 0
M  V30 2020 H 209.092 5.28775 -1.47269 0
M  V30 2021 H 209.353 4.42088 0.0325958 0
M  V30 2022 N 208.412 0.89855 1.29475 0
M  V30 2023 C 209.375 0.380272 2.26023 0
M  V30 2024 C 210.375 -0.484891 1.53315 0
M  V30 2025 O 211.565 -0.290108 1.71767 0
M  V30 2026 C 208.697 -0.45651 3.3783 0
M  V30 2027 H 209.89 1.23295 2.73383 0
M  V30 2028 H 207.443 0.676589 1.40897 0
M  V30 2029 H 208.178 -1.32922 2.95808 0
M  V30 2030 H 207.963 0.163393 3.91759 0
M  V30 2031 H 209.453 -0.810466 4.0966 0
M  V30 2032 N 209.89 -1.43072 0.660911 0
M  V30 2033 C 211.301 -1.84932 0.256348 0
M  V30 2034 C 211.652 -1.55325 -1.19868 0
M  V30 2035 O 210.777 -1.00607 -1.91591 0
M  V30 2036 C 211.372 -3.35684 0.458475 0
M  V30 2037 C 209.931 -3.76245 0.108161 0
M  V30 2038 C 209.078 -2.66749 0.757641 0
M  V30 2039 H 212.029 -1.33116 0.864051 0
M  V30 2040 H 212.05 -3.79365 -0.293683 0
M  V30 2041 H 211.562 -3.572 1.51755 0
M  V30 2042 H 209.663 -3.60338 -0.948014 0
M  V30 2043 H 209.776 -4.76058 0.538992 0
M  V30 2044 H 208.14 -2.53989 0.190185 0
M  V30 2045 H 208.923 -2.91092 1.81989 0
M  V30 2046 N 211.368 -0.403325 -1.52352 0
M  V30 2047 C 212.596 0.174012 -2.06167 0
M  V30 2048 C 213.011 1.39347 -1.27388 0
M  V30 2049 O 212.368 1.79597 -0.324201 0
M  V30 2050 C 212.419 0.530223 -3.5759 0
M  V30 2051 O 212.14 -0.640806 -4.33388 0
M  V30 2052 C 213.641 1.16192 -4.27802 0
M  V30 2053 H 210.861 0.0229464 -0.670608 0
M  V30 2054 H 213.405 -0.572604 -1.9632 0
M  V30 2055 H 211.56 1.22673 -3.67464 0
M  V30 2056 H 211.974 -0.344851 -5.23365 0
M  V30 2057 H 213.448 1.36141 -5.34948 0
M  V30 2058 H 213.925 2.13335 -3.83907 0
M  V30 2059 H 214.531 0.505775 -4.22282 0
M  V30 2060 N 212.846 1.57033 -0.133567 0
M  V30 2061 C 214.074 2.00044 0.528195 0
M  V30 2062 C 214.489 1.01349 1.59291 0
M  V30 2063 O 213.846 0.00848369 1.82498 0
M  V30 2064 C 213.897 3.43018 1.1411 0
M  V30 2065 O 213.618 4.37939 0.11892 0
M  V30 2066 C 215.119 4.01237 1.88477 0
M  V30 2067 H 212.339 0.656517 0.138661 0
M  V30 2068 H 214.883 2.03267 -0.224196 0
M  V30 2069 H 213.038 3.40688 1.84418 0
M  V30 2070 H 213.452 5.21436 0.56613 0
M  V30 2071 H 214.926 5.03314 2.26669 0
M  V30 2072 H 215.403 3.41193 2.76558 0
M  V30 2073 H 216.009 4.07156 1.22898 0
M  V30 2074 N 214.325 -0.140222 1.56975 0
M  V30 2075 C 215.255 -1.17456 2.01808 0
M  V30 2076 C 216.236 -1.44415 0.898794 0
M  V30 2077 O 217.421 -1.5522 1.16707 0
M  V30 2078 C 214.551 -2.50607 2.40444 0
M  V30 2079 C 213.505 -2.38155 3.55621 0
M  V30 2080 C 212.831 -3.76078 3.80091 0
M  V30 2081 C 214.131 -1.85991 4.88062 0
M  V30 2082 H 215.825 -0.801743 2.88466 0
M  V30 2083 H 213.371 -0.38422 1.38779 0
M  V30 2084 H 215.324 -3.23197 2.7041 0
M  V30 2085 H 214.048 -2.89737 1.50732 0
M  V30 2086 H 212.707 -1.68016 3.25832 0
M  V30 2087 H 212.355 -4.12656 2.87618 0
M  V30 2088 H 212.055 -3.68606 4.57606 0
M  V30 2089 H 213.579 -4.50206 4.12488 0
M  V30 2090 H 214.993 -2.4838 5.16701 0
M  V30 2091 H 213.39 -1.89393 5.6943 0
M  V30 2092 H 214.46 -0.816023 4.77984 0
M  V30 2093 N 215.803 -1.52179 -0.40978 0
M  V30 2094 C 216.766 -1.74853 -1.48186 0
M  V30 2095 C 217.766 -0.618417 -1.48433 0
M  V30 2096 O 218.956 -0.886286 -1.49969 0
M  V30 2097 C 216.088 -1.8303 -2.87598 0
M  V30 2098 H 217.281 -2.70559 -1.29374 0
M  V30 2099 H 214.834 -1.42586 -0.640233 0
M  V30 2100 H 215.569 -0.89236 -3.11781 0
M  V30 2101 H 215.354 -2.65187 -2.88822 0
M  V30 2102 H 216.844 -2.02316 -3.65319 0
M  V30 2103 N 217.281 0.66697 -1.42791 0
M  V30 2104 C 218.53 1.42278 -1.42968 0
M  V30 2105 C 218.843 1.9553 -0.0524489 0
M  V30 2106 O 220.049 2.71414 0.068363 0
M  V30 2107 C 218.505 2.57418 -2.51524 0
M  V30 2108 C 218.113 2.10832 -3.9529 0
M  V30 2109 C 219.857 3.34878 -2.60877 0
M  V30 2110 C 217.764 3.23101 -4.95338 0
M  V30 2111 H 216.694 0.534533 -0.531781 0
M  V30 2112 H 219.345 0.721302 -1.68729 0
M  V30 2113 H 217.727 3.29971 -2.18941 0
M  V30 2114 H 218.901 1.4538 -4.37266 0
M  V30 2115 H 217.216 1.46289 -3.89857 0
M  V30 2116 H 219.813 4.18505 -3.32802 0
M  V30 2117 H 220.156 3.81993 -1.6549 0
M  V30 2118 H 220.689 2.69398 -2.92693 0
M  V30 2119 H 217.428 2.80969 -5.9223 0
M  V30 2120 H 216.948 3.87309 -4.57987 0
M  V30 2121 H 218.627 3.88447 -5.17415 0
M  V30 2122 N 218.759 1.29093 0.90403 0
M  V30 2123 C 219.689 1.16401 2.02418 0
M  V30 2124 C 220.67 0.0593085 1.69997 0
M  V30 2125 O 221.855 0.238021 1.92736 0
M  V30 2126 C 218.985 0.835233 3.37107 0
M  V30 2127 C 217.939 1.89578 3.83724 0
M  V30 2128 C 217.265 1.42041 5.15489 0
M  V30 2129 C 218.565 3.30394 4.04521 0
M  V30 2130 H 220.259 2.10109 2.13295 0
M  V30 2131 H 217.805 1.01157 1.02486 0
M  V30 2132 H 219.758 0.733169 4.14973 0
M  V30 2133 H 218.482 -0.137543 3.2631 0
M  V30 2134 H 217.141 1.98715 3.08071 0
M  V30 2135 H 216.789 0.436426 5.01103 0
M  V30 2136 H 216.489 2.12964 5.4765 0
M  V30 2137 H 218.013 1.33176 5.959 0
M  V30 2138 H 219.427 3.24123 4.72882 0
M  V30 2139 H 217.824 3.99237 4.48029 0
M  V30 2140 H 218.894 3.73692 3.09002 0
M  V30 2141 N 220.237 -1.11381 1.11499 0
M  V30 2142 C 221.17 -2.16621 0.71769 0
M  V30 2143 C 222.148 -1.60058 -0.286413 0
M  V30 2144 O 223.332 -1.87613 -0.182689 0
M  V30 2145 C 220.459 -3.38646 0.0607265 0
M  V30 2146 C 219.505 -4.13874 1.03008 0
M  V30 2147 S 220.338 -4.70731 2.55289 0
M  V30 2148 C 221.494 -5.96079 1.90895 0
M  V30 2149 H 221.727 -2.49987 1.60915 0
M  V30 2150 H 219.26 -1.23015 0.933092 0
M  V30 2151 H 221.218 -4.09313 -0.311965 0
M  V30 2152 H 219.879 -3.03537 -0.807702 0
M  V30 2153 H 219.072 -5.01333 0.517853 0
M  V30 2154 H 218.674 -3.4897 1.34522 0
M  V30 2155 H 220.966 -6.65948 1.24577 0
M  V30 2156 H 221.909 -6.51946 2.76354 0
M  V30 2157 H 222.317 -5.47652 1.36885 0
M  V30 2158 N 221.715 -0.905404 -1.28997 0
M  V30 2159 C 222.645 -0.404212 -2.29975 0
M  V30 2160 C 223.626 0.523784 -1.61835 0
M  V30 2161 O 224.811 0.433298 -1.89304 0
M  V30 2162 C 221.941 0.364042 -3.45387 0
M  V30 2163 C 220.895 -0.474048 -4.25367 0
M  V30 2164 C 220.221 0.422045 -5.33032 0
M  V30 2165 C 221.521 -1.72696 -4.92923 0
M  V30 2166 H 223.215 -1.24807 -2.72146 0
M  V30 2167 H 220.761 -0.601585 -1.30832 0
M  V30 2168 H 222.714 0.725447 -4.15109 0
M  V30 2169 H 221.438 1.24174 -3.02074 0
M  V30 2170 H 220.097 -0.81786 -3.57361 0
M  V30 2171 H 219.745 1.29804 -4.85963 0
M  V30 2172 H 219.445 -0.135057 -5.87445 0
M  V30 2173 H 220.969 0.779517 -6.05604 0
M  V30 2174 H 222.383 -1.43495 -5.55051 0
M  V30 2175 H 220.78 -2.22582 -5.57295 0
M  V30 2176 H 221.85 -2.45964 -4.17887 0
M  V30 2177 N 223.193 1.4272 -0.668489 0
M  V30 2178 C 224.123 2.335 -0.000100175 0
M  V30 2179 C 225.104 1.50328 0.795964 0
M  V30 2180 O 226.289 1.78949 0.754385 0
M  V30 2181 C 223.419 3.33874 0.956302 0
M  V30 2182 C 222.373 4.27152 0.269278 0
M  V30 2183 C 221.699 5.17684 1.33818 0
M  V30 2184 C 222.999 5.15373 -0.847805 0
M  V30 2185 H 224.693 2.89639 -0.758244 0
M  V30 2186 H 222.239 1.39269 -0.366079 0
M  V30 2187 H 224.192 3.9629 1.43292 0
M  V30 2188 H 222.916 2.76025 1.74579 0
M  V30 2189 H 221.575 3.66123 -0.187042 0
M  V30 2190 H 221.223 4.56165 2.1195 0
M  V30 2191 H 220.923 5.80918 0.883659 0
M  V30 2192 H 222.447 5.82974 1.81586 0
M  V30 2193 H 223.861 5.7151 -0.452681 0
M  V30 2194 H 222.258 5.87407 -1.22773 0
M  V30 2195 H 223.328 4.5415 -1.69929 0
M  V30 2196 N 224.671 0.411399 1.52136 0
M  V30 2197 C 226.082 -0.0576826 1.86611 0
M  V30 2198 C 226.433 -1.44238 1.33003 0
M  V30 2199 O 225.558 -2.05759 0.670228 0
M  V30 2200 C 226.153 -0.111448 3.38617 0
M  V30 2201 C 224.712 -0.52487 3.72723 0
M  V30 2202 C 223.859 0.299176 2.75681 0
M  V30 2203 H 226.81 0.628368 1.4573 0
M  V30 2204 H 226.831 -0.926252 3.69054 0
M  V30 2205 H 226.343 0.896488 3.77604 0
M  V30 2206 H 224.444 -1.53936 3.39315 0
M  V30 2207 H 224.557 -0.267681 4.78352 0
M  V30 2208 H 222.921 -0.238814 2.53578 0
M  V30 2209 H 223.704 1.3055 3.17508 0
M  V30 2210 N 226.149 -1.5696 0.141893 0
M  V30 2211 C 227.079 -2.19516 -0.795936 0
M  V30 2212 C 228.06 -1.14187 -1.26077 0
M  V30 2213 O 229.245 -1.42511 -1.31925 0
M  V30 2214 C 226.375 -2.81272 -2.03723 0
M  V30 2215 C 225.329 -3.92384 -1.70936 0
M  V30 2216 C 224.655 -4.41052 -3.02287 0
M  V30 2217 C 225.955 -5.13403 -0.959954 0
M  V30 2218 H 227.649 -2.98138 -0.274596 0
M  V30 2219 H 225.195 -1.43406 -0.130636 0
M  V30 2220 H 227.148 -3.237 -2.69808 0
M  V30 2221 H 225.872 -1.99973 -2.58221 0
M  V30 2222 H 224.531 -3.50566 -1.07232 0
M  V30 2223 H 224.179 -3.56582 -3.54765 0
M  V30 2224 H 223.879 -5.15993 -2.81114 0
M  V30 2225 H 225.403 -4.86146 -3.69451 0
M  V30 2226 H 226.817 -5.52706 -1.52279 0
M  V30 2227 H 225.214 -5.94073 -0.848357 0
M  V30 2228 H 226.284 -4.84875 0.0492434 0
M  V30 2229 N 227.627 0.131896 -1.57047 0
M  V30 2230 C 228.852 0.860418 -1.8871 0
M  V30 2231 C 229.277 1.73251 -0.73251 0
M  V30 2232 O 228.635 1.785 0.317429 0
M  V30 2233 C 228.683 1.68047 -3.19049 0
M  V30 2234 O 227.787 2.7862 -3.04047 0
M  V30 2235 H 227.128 0.238743 -0.619595 0
M  V30 2236 H 229.658 0.118169 -2.04258 0
M  V30 2237 H 229.668 2.07238 -3.51449 0
M  V30 2238 H 228.343 1.04018 -4.02682 0
M  V30 2239 H 226.92 2.42726 -2.83088 0
M  V30 2240 N 229.106 1.52395 0.401703 0
M  V30 2241 C 230.069 1.75636 1.47257 0
M  V30 2242 C 231.069 0.62628 1.48103 0
M  V30 2243 O 232.259 0.894227 1.49497 0
M  V30 2244 C 229.391 1.84553 2.86624 0
M  V30 2245 H 230.584 2.71241 1.27938 0
M  V30 2246 H 228.137 1.42923 0.632662 0
M  V30 2247 H 228.872 0.908882 3.11303 0
M  V30 2248 H 228.657 2.66715 2.87412 0
M  V30 2249 H 230.147 2.04251 3.64241 0
M  V30 2250 N 230.584 -0.659388 1.43143 0
M  V30 2251 C 231.831 -1.41935 1.44433 0
M  V30 2252 C 232.159 -1.94387 0.0663522 0
M  V30 2253 O 231.414 -1.72314 -0.927706 0
M  V30 2254 C 231.713 -2.62206 2.42864 0
M  V30 2255 C 231.379 -2.28208 3.88886 0
M  V30 2256 C 230.041 -2.18647 4.28657 0
M  V30 2257 C 232.393 -2.00887 4.8093 0
M  V30 2258 C 229.721 -1.79914 5.58433 0
M  V30 2259 C 232.073 -1.63653 6.11065 0
M  V30 2260 C 230.737 -1.52614 6.49819 0
M  V30 2261 H 230.007 -0.519376 0.528517 0
M  V30 2262 H 232.654 -0.750453 1.76183 0
M  V30 2263 H 230.959 -3.34199 2.04495 0
M  V30 2264 H 232.656 -3.2041 2.41119 0
M  V30 2265 H 229.246 -2.36557 3.57406 0
M  V30 2266 H 233.43 -2.07198 4.5098 0
M  V30 2267 H 228.686 -1.69948 5.87305 0
M  V30 2268 H 232.86 -1.41543 6.81864 0
M  V30 2269 H 230.487 -1.22371 7.50286 0
M  V30 2270 N 232.062 -1.29571 -0.897171 0
M  V30 2271 C 232.972 -1.16808 -2.03453 0
M  V30 2272 C 233.988 -0.0907471 -1.73763 0
M  V30 2273 O 235.164 -0.303312 -1.99103 0
M  V30 2274 C 232.229 -0.848264 -3.36163 0
M  V30 2275 C 231.29 -2.0097 -3.79354 0
M  V30 2276 C 230.523 -1.70505 -5.05731 0
M  V30 2277 O 230.746 -0.62718 -5.66941 0
M  V30 2278 O 229.68 -2.5538 -5.45036 0
M  V30 2279 H 233.506 -2.12325 -2.17144 0
M  V30 2280 H 231.091 -1.09047 -1.02123 0
M  V30 2281 H 232.973 -0.684581 -4.15802 0
M  V30 2282 H 231.648 0.0771071 -3.23608 0
M  V30 2283 H 230.555 -2.22863 -3.00471 0
M  V30 2284 H 231.888 -2.91636 -3.96496 0
M  V30 2285 N 233.54 1.10788 -1.12088 0
M  V30 2286 C 234.503 2.15207 -0.788577 0
M  V30 2287 C 235.503 1.59609 0.195317 0
M  V30 2288 O 236.693 1.74174 -0.0300193 0
M  V30 2289 C 233.825 3.4047 -0.171174 0
M  V30 2290 H 235.018 2.46116 -1.71368 0
M  V30 2291 H 232.571 1.26089 -0.923652 0
M  V30 2292 H 233.306 3.15176 0.763832 0
M  V30 2293 H 233.091 3.82109 -0.879514 0
M  V30 2294 H 234.581 4.17576 0.04496 0
M  V30 2295 N 235.018 0.912232 1.28515 0
M  V30 2296 C 236.246 0.560416 1.99166 0
M  V30 2297 C 236.661 -0.857927 1.68182 0
M  V30 2298 O 236.018 -1.56805 0.933733 0
M  V30 2299 C 236.069 0.758142 3.53461 0
M  V30 2300 O 235.79 2.12067 3.83352 0
M  V30 2301 C 237.291 0.412954 4.41372 0
M  V30 2302 H 234.511 0.213805 0.636026 0
M  V30 2303 H 237.055 1.22502 1.63749 0
M  V30 2304 H 235.21 0.140556 3.87145 0
M  V30 2305 H 235.624 2.15923 4.77993 0
M  V30 2306 H 237.098 0.60208 5.48707 0
M  V30 2307 H 237.575 -0.65073 4.34353 0
M  V30 2308 H 238.181 1.00802 4.13182 0
M  V30 2309 N 236.496 -1.42363 0.676048 0
M  V30 2310 C 237.742 -2.0182 0.199125 0
M  V30 2311 C 238.075 -1.53339 -1.19168 0
M  V30 2312 O 237.35 -0.736124 -1.80032 0
M  V30 2313 C 237.633 -3.59331 0.235144 0
M  V30 2314 C 237.486 -4.17989 1.66149 0
M  V30 2315 C 238.805 -4.3813 -0.41595 0
M  V30 2316 H 235.924 -0.733293 0.0738311 0
M  V30 2317 H 238.566 -1.69368 0.86107 0
M  V30 2318 H 236.716 -3.87109 -0.328487 0
M  V30 2319 H 238.388 -4.0116 2.27747 0
M  V30 2320 H 236.631 -3.7377 2.20178 0
M  V30 2321 H 237.302 -5.27126 1.63837 0
M  V30 2322 H 239.778 -4.16051 0.0638529 0
M  V30 2323 H 238.654 -5.47717 -0.360115 0
M  V30 2324 H 238.915 -4.16101 -1.49373 0
M  V30 2325 N 237.974 -0.419461 -1.51915 0
M  V30 2326 C 238.937 0.389116 -2.25873 0
M  V30 2327 C 239.937 0.964924 -1.28631 0
M  V30 2328 O 241.127 0.842179 -1.52489 0
M  V30 2329 C 238.259 1.54874 -3.03689 0
M  V30 2330 H 239.452 -0.258799 -2.98781 0
M  V30 2331 H 237.005 -0.172209 -1.55348 0
M  V30 2332 H 237.74 2.23323 -2.35154 0
M  V30 2333 H 237.525 1.14223 -3.75094 0
M  V30 2334 H 239.015 2.12046 -3.59759 0
M  V30 2335 N 239.452 1.56882 -0.150215 0
M  V30 2336 C 240.382 2.19935 0.784284 0
M  V30 2337 C 241.363 1.14854 1.25469 0
M  V30 2338 O 242.548 1.43209 1.31168 0
M  V30 2339 C 239.678 2.82349 2.02229 0
M  V30 2340 C 238.632 3.93285 1.68853 0
M  V30 2341 C 237.958 4.42649 2.99944 0
M  V30 2342 C 239.258 5.13904 0.932714 0
M  V30 2343 H 240.952 2.9828 0.258781 0
M  V30 2344 H 238.498 1.43473 0.123029 0
M  V30 2345 H 240.451 3.25126 2.68088 0
M  V30 2346 H 239.175 2.0134 2.57157 0
M  V30 2347 H 237.834 3.5113 1.05371 0
M  V30 2348 H 237.482 3.58458 3.52869 0
M  V30 2349 H 237.182 5.17476 2.78374 0
M  V30 2350 H 238.706 4.88099 3.66868 0
M  V30 2351 H 240.12 5.53506 1.49345 0
M  V30 2352 H 238.517 5.94515 0.81684 0
M  V30 2353 H 239.587 4.84842 -0.0749568 0
M  V30 2354 N 240.93 -0.123565 1.57115 0
M  V30 2355 C 242.341 -0.681198 1.73829 0
M  V30 2356 C 242.692 -1.80535 0.768214 0
M  V30 2357 O 241.817 -2.16317 -0.0599103 0
M  V30 2358 C 242.412 -1.24246 3.15196 0
M  V30 2359 C 240.971 -1.74643 3.33432 0
M  V30 2360 C 240.118 -0.644284 2.69711 0
M  V30 2361 H 243.069 0.102315 1.5837 0
M  V30 2362 H 243.09 -2.11216 3.16493 0
M  V30 2363 H 242.602 -0.424062 3.85776 0
M  V30 2364 H 240.703 -2.58974 2.67886 0
M  V30 2365 H 240.816 -1.85902 4.41562 0
M  V30 2366 H 239.18 -1.07676 2.3082 0
M  V30 2367 H 239.963 0.163058 3.42913 0
M  V30 2368 N 242.408 -1.52605 -0.393616 0
M  V30 2369 C 243.371 -1.76415 -1.46323 0
M  V30 2370 C 244.371 -0.634126 -1.47768 0
M  V30 2371 O 245.561 -0.902142 -1.4902 0
M  V30 2372 C 242.693 -1.8607 -2.85641 0
M  V30 2373 H 243.886 -2.71916 -1.26498 0
M  V30 2374 H 241.439 -1.43257 -0.625073 0
M  V30 2375 H 242.174 -0.925378 -3.10817 0
M  V30 2376 H 241.959 -2.68235 -2.85993 0
M  V30 2377 H 243.449 -2.06179 -3.63153 0
M  V30 2378 N 243.887 0.651787 -1.4349 0
M  V30 2379 C 244.85 1.74647 -1.48429 0
M  V30 2380 C 245.85 1.56513 -0.368817 0
M  V30 2381 O 247.04 1.62385 -0.630623 0
M  V30 2382 C 244.172 3.13533 -1.33827 0
M  V30 2383 H 245.365 1.71649 -2.4592 0
M  V30 2384 H 242.918 0.863573 -1.30277 0
M  V30 2385 H 243.653 3.22142 -0.37349 0
M  V30 2386 H 243.438 3.28101 -2.14691 0
M  V30 2387 H 244.928 3.93356 -1.40218 0
M  V30 2388 N 245.365 1.30045 0.890287 0
M  V30 2389 C 246.328 1.15963 1.977 0
M  V30 2390 C 247.328 0.0923777 1.60534 0
M  V30 2391 O 248.518 0.340071 1.70848 0
M  V30 2392 C 245.65 0.775451 3.31963 0
M  V30 2393 H 246.843 2.12502 2.11619 0
M  V30 2394 H 244.396 1.13366 1.07601 0
M  V30 2395 H 245.131 -0.189671 3.23745 0
M  V30 2396 H 244.916 1.54668 3.60306 0
M  V30 2397 H 246.406 0.700251 4.11687 0
M  V30 2398 N 246.843 -1.10192 1.12674 0
M  V30 2399 C 248.089 -1.82475 0.884915 0
M  V30 2400 C 248.422 -1.85093 -0.58773 0
M  V30 2401 O 247.697 -1.3134 -1.43457 0
M  V30 2402 C 247.98 -3.29018 1.46353 0
M  V30 2403 C 247.833 -3.34718 3.00473 0
M  V30 2404 C 249.152 -4.25473 1.12519 0
M  V30 2405 H 246.271 -0.662492 0.322915 0
M  V30 2406 H 248.913 -1.2913 1.39375 0
M  V30 2407 H 247.063 -3.74576 1.03077 0
M  V30 2408 H 248.735 -2.97622 3.52447 0
M  V30 2409 H 246.978 -2.74541 3.35872 0
M  V30 2410 H 247.649 -4.37918 3.36053 0
M  V30 2411 H 250.125 -3.88161 1.499 0
M  V30 2412 H 249.001 -5.26365 1.55663 0
M  V30 2413 H 249.262 -4.42084 0.0377407 0
M  V30 2414 N 248.321 -0.919034 -1.28029 0
M  V30 2415 C 249.253 -0.368762 -2.26214 0
M  V30 2416 C 250.266 0.495716 -1.55069 0
M  V30 2417 O 251.455 0.30974 -1.75792 0
M  V30 2418 C 248.555 0.491049 -3.35324 0
M  V30 2419 C 247.728 -0.352133 -4.3598 0
M  V30 2420 C 246.787 0.443622 -5.24327 0
M  V30 2421 O 245.813 -0.14566 -5.69014 0
M  V30 2422 N 247.015 1.74545 -5.53637 0
M  V30 2423 H 249.78 -1.21273 -2.74068 0
M  V30 2424 H 247.341 -0.785541 -1.41566 0
M  V30 2425 H 249.333 1.03026 -3.91366 0
M  V30 2426 H 247.903 1.23574 -2.87138 0
M  V30 2427 H 247.123 -1.07269 -3.79324 0
M  V30 2428 H 248.411 -0.928883 -5.00249 0
M  V30 2429 H 247.809 2.24666 -5.19174 0
M  V30 2430 H 246.366 2.23138 -6.12416 0
M  V30 2431 N 249.799 1.42003 -0.683588 0
M  V30 2432 C 250.729 2.33487 -0.024866 0
M  V30 2433 C 251.71 1.51163 0.779975 0
M  V30 2434 O 252.895 1.79739 0.735362 0
M  V30 2435 C 250.025 3.3487 0.920836 0
M  V30 2436 C 248.979 4.27414 0.223958 0
M  V30 2437 C 248.305 5.19074 1.2832 0
M  V30 2438 C 249.605 5.14445 -0.90242 0
M  V30 2439 H 251.299 2.88819 -0.788921 0
M  V30 2440 H 248.845 1.38873 -0.38083 0
M  V30 2441 H 250.798 3.97787 1.39081 0
M  V30 2442 H 249.522 2.77861 1.71642 0
M  V30 2443 H 248.181 3.65904 -0.225864 0
M  V30 2444 H 247.829 4.58387 2.071 0
M  V30 2445 H 247.529 5.81822 0.821995 0
M  V30 2446 H 249.053 5.84867 1.75392 0
M  V30 2447 H 250.467 5.70998 -0.513272 0
M  V30 2448 H 248.864 5.86072 -1.28997 0
M  V30 2449 H 249.934 4.52322 -1.74737 0
M  V30 2450 N 251.277 0.427512 1.51691 0
M  V30 2451 C 252.505 -0.141191 2.06418 0
M  V30 2452 C 252.92 -1.37303 1.29589 0
M  V30 2453 O 252.277 -1.79059 0.352732 0
M  V30 2454 C 252.328 -0.473266 3.58389 0
M  V30 2455 O 252.049 0.709673 4.32314 0
M  V30 2456 C 253.55 -1.09371 4.29596 0
M  V30 2457 H 250.77 -0.0122747 0.670888 0
M  V30 2458 H 253.314 0.603764 1.95384 0
M  V30 2459 H 251.469 -1.16812 3.69369 0
M  V30 2460 H 251.883 0.42807 5.2275 0
M  V30 2461 H 253.357 -1.27613 5.37046 0
M  V30 2462 H 253.834 -2.072 3.87253 0
M  V30 2463 H 254.44 -0.43853 4.23033 0
M  V30 2464 N 252.755 -1.56801 0.158532 0
M  V30 2465 C 254.171 -1.5837 -0.197774 0
M  V30 2466 C 254.371 -1.17334 -1.63814 0
M  V30 2467 O 253.427 -0.878988 -2.36707 0
M  V30 2468 C 254.74 -3.00615 0.0714459 0
M  V30 2469 C 256.288 -3.12999 0.00864533 0
M  V30 2470 C 256.763 -4.57313 0.250685 0
M  V30 2471 N 258.254 -4.62777 0.198014 0
M  V30 2472 C 258.989 -5.72271 0.359642 0
M  V30 2473 N 258.485 -6.90371 0.579625 0
M  V30 2474 N 260.278 -5.61318 0.296438 0
M  V30 2475 H 252.429 -1.81765 1.09887 0
M  V30 2476 H 254.692 -0.841849 0.435884 0
M  V30 2477 H 254.398 -3.35068 1.06874 0
M  V30 2478 H 254.272 -3.71683 -0.642757 0
M  V30 2479 H 256.659 -2.7838 -0.979217 0
M  V30 2480 H 256.74 -2.44393 0.755359 0
M  V30 2481 H 256.384 -4.92639 1.2357 0
M  V30 2482 H 256.314 -5.24061 -0.516489 0
M  V30 2483 H 258.805 -3.77885 0.0331115 0
M  V30 2484 H 259.118 -7.69689 0.69275 0
M  V30 2485 H 257.463 -6.92264 0.616087 0
M  V30 2486 H 260.654 -4.67932 0.125258 0
M  V30 2487 H 260.827 -6.46599 0.425831 0
M  V30 2488 N 254.233 0.115231 -1.57178 0
M  V30 2489 C 255.458 0.840354 -1.89612 0
M  V30 2490 C 255.883 1.72464 -0.750845 0
M  V30 2491 O 255.241 1.78826 0.298478 0
M  V30 2492 C 255.289 1.64654 -3.20814 0
M  V30 2493 O 254.393 2.7538 -3.06985 0
M  V30 2494 H 253.734 0.232158 -0.622092 0
M  V30 2495 H 256.264 0.0964977 -2.04372 0
M  V30 2496 H 256.274 2.03499 -3.53627 0
M  V30 2497 H 254.949 0.997416 -4.03763 0
M  V30 2498 H 253.526 2.3971 -2.85646 0
M  V30 2499 N 255.711 1.52812 0.385517 0
M  V30 2500 C 257.127 1.4214 0.725829 0
M  V30 2501 C 257.327 0.544589 1.94001 0
M  V30 2502 O 256.383 0.0193693 2.52493 0
M  V30 2503 C 257.696 2.85042 0.957668 0
M  V30 2504 C 259.244 2.94543 1.05892 0
M  V30 2505 C 259.719 4.38464 1.32337 0
M  V30 2506 N 261.21 4.41804 1.39151 0
M  V30 2507 C 261.945 5.5025 1.61285 0
M  V30 2508 N 261.441 6.68775 1.80866 0
M  V30 2509 N 263.234 5.37798 1.63492 0
M  V30 2510 H 255.385 2.08338 -0.413383 0
M  V30 2511 H 257.648 0.940016 -0.122775 0
M  V30 2512 H 257.354 3.51431 0.137568 0
M  V30 2513 H 257.228 3.27505 1.87137 0
M  V30 2514 H 259.615 2.28321 1.86959 0
M  V30 2515 H 259.696 2.55504 0.123057 0
M  V30 2516 H 259.34 5.05254 0.517793 0
M  V30 2517 H 259.27 4.75059 2.27214 0
M  V30 2518 H 261.761 3.56377 1.25713 0
M  V30 2519 H 262.074 7.47197 1.97271 0
M  V30 2520 H 260.419 6.71797 1.78083 0
M  V30 2521 H 263.61 4.44171 1.47749 0
M  V30 2522 H 263.783 6.22382 1.80402 0
M  V30 2523 N 257.189 -0.644168 1.43834 0
M  V30 2524 C 258.438 -1.39985 1.45214 0
M  V30 2525 C 258.751 -1.95421 0.0835494 0
M  V30 2526 O 259.957 -2.71488 -0.0251748 0
M  V30 2527 C 258.413 -2.53384 2.55587 0
M  V30 2528 C 258.021 -2.04517 3.98594 0
M  V30 2529 C 259.765 -3.30685 2.66172 0
M  V30 2530 C 257.672 -3.1518 5.00416 0
M  V30 2531 H 256.602 -0.526005 0.540218 0
M  V30 2532 H 259.253 -0.694367 1.69855 0
M  V30 2533 H 257.635 -3.26446 2.24163 0
M  V30 2534 H 258.809 -1.38405 4.39523 0
M  V30 2535 H 257.124 -1.40068 3.92135 0
M  V30 2536 H 259.721 -4.13158 3.39418 0
M  V30 2537 H 260.064 -3.79312 1.71546 0
M  V30 2538 H 260.597 -2.64708 2.96942 0
M  V30 2539 H 257.336 -2.71511 5.96625 0
M  V30 2540 H 256.856 -3.79974 4.64091 0
M  V30 2541 H 258.535 -3.80166 5.23529 0
M  V30 2542 N 258.668 -1.30515 -0.883378 0
M  V30 2543 C 259.631 -1.1701 -1.97082 0
M  V30 2544 C 260.631 -0.10089 -1.60483 0
M  V30 2545 O 261.821 -0.349127 -1.70666 0
M  V30 2546 C 258.953 -0.793045 -3.31547 0
M  V30 2547 H 260.146 -2.13622 -2.10489 0
M  V30 2548 H 257.699 -1.13935 -1.06998 0
M  V30 2549 H 258.434 0.172499 -3.23841 0
M  V30 2550 H 258.219 -1.56576 -3.5948 0
M  V30 2551 H 259.709 -0.722073 -4.1131 0
M  V30 2552 N 260.146 1.09593 -1.13257 0
M  V30 2553 C 261.109 2.14359 -0.811358 0
M  V30 2554 C 262.109 1.59808 0.178377 0
M  V30 2555 O 263.299 1.74132 -0.0484911 0
M  V30 2556 C 260.431 3.40269 -0.207276 0
M  V30 2557 H 261.624 2.44284 -1.73969 0
M  V30 2558 H 259.177 1.25102 -0.936973 0
M  V30 2559 H 259.912 3.15969 0.73036 0
M  V30 2560 H 259.697 3.81154 -0.919992 0
M  V30 2561 H 261.187 4.176 0.000667944 0
M  V30 2562 N 261.624 0.925811 1.2754 0
M  V30 2563 C 262.587 0.428129 2.25166 0
M  V30 2564 C 263.587 -0.452261 1.54309 0
M  V30 2565 O 264.777 -0.253608 1.72344 0
M  V30 2566 C 261.909 -0.384749 3.38722 0
M  V30 2567 H 263.102 1.29066 2.70706 0
M  V30 2568 H 260.655 0.706323 1.3943 0
M  V30 2569 H 261.39 -1.26618 2.98561 0
M  V30 2570 H 261.175 0.246454 3.91325 0
M  V30 2571 H 262.665 -0.723389 4.11287 0
M  V30 2572 N 263.102 -1.41638 0.69111 0
M  V30 2573 C 264.518 -1.55435 0.362224 0
M  V30 2574 C 264.718 -1.66754 -1.13117 0
M  V30 2575 O 263.774 -1.64348 -1.91692 0
M  V30 2576 C 265.087 -2.79588 1.10684 0
M  V30 2577 C 266.635 -2.9338 1.09075 0
M  V30 2578 C 267.11 -4.20414 1.81703 0
M  V30 2579 N 268.601 -4.27362 1.7865 0
M  V30 2580 C 269.336 -5.24507 2.31689 0
M  V30 2581 N 268.832 -6.27708 2.93179 0
M  V30 2582 N 270.625 -5.16416 2.2197 0
M  V30 2583 H 262.776 -1.32536 1.65976 0
M  V30 2584 H 265.039 -0.639115 0.700168 0
M  V30 2585 H 264.745 -2.77419 2.16175 0
M  V30 2586 H 264.619 -3.70973 0.682545 0
M  V30 2587 H 267.006 -2.95067 0.0441238 0
M  V30 2588 H 267.087 -2.0318 1.55407 0
M  V30 2589 H 266.731 -4.19488 2.86343 0
M  V30 2590 H 266.661 -5.09578 1.32808 0
M  V30 2591 H 269.152 -3.53415 1.33815 0
M  V30 2592 H 269.465 -6.98217 3.31229 0
M  V30 2593 H 267.81 -6.28223 2.97255 0
M  V30 2594 H 271.001 -4.34716 1.73607 0
M  V30 2595 H 271.174 -5.91958 2.63609 0
M  V30 2596 N 264.58 -0.43555 -1.51462 0
M  V30 2597 C 265.51 0.367376 -2.30592 0
M  V30 2598 C 266.491 1.02263 -1.35928 0
M  V30 2599 O 267.676 1.02661 -1.64847 0
M  V30 2600 C 264.806 1.46983 -3.14664 0
M  V30 2601 C 263.76 0.938161 -4.17591 0
M  V30 2602 C 263.086 2.13622 -4.90173 0
M  V30 2603 C 264.386 -0.0261621 -5.22293 0
M  V30 2604 H 266.08 -0.292969 -2.97963 0
M  V30 2605 H 263.626 -0.14234 -1.43295 0
M  V30 2606 H 265.579 2.03873 -3.688 0
M  V30 2607 H 264.303 2.15843 -2.4511 0
M  V30 2608 H 262.962 0.391481 -3.64504 0
M  V30 2609 H 262.61 2.81098 -4.17124 0
M  V30 2610 H 262.31 1.78688 -5.59772 0
M  V30 2611 H 263.834 2.7107 -5.47132 0
M  V30 2612 H 265.248 0.452384 -5.71512 0
M  V30 2613 H 263.645 -0.287992 -5.99409 0
M  V30 2614 H 264.715 -0.963391 -4.75233 0
M  V30 2615 N 266.058 1.56714 -0.166846 0
M  V30 2616 C 266.988 2.20754 0.760913 0
M  V30 2617 C 267.969 1.16178 1.24244 0
M  V30 2618 O 269.154 1.44592 1.29641 0
M  V30 2619 C 266.284 2.84478 1.99223 0
M  V30 2620 C 265.238 3.95053 1.64672 0
M  V30 2621 C 264.564 4.45805 2.95232 0
M  V30 2622 C 265.864 5.14865 0.878155 0
M  V30 2623 H 267.558 2.98537 0.22713 0
M  V30 2624 H 265.104 1.43596 0.107805 0
M  V30 2625 H 267.057 3.27951 2.64624 0
M  V30 2626 H 265.781 2.04056 2.55007 0
M  V30 2627 H 264.44 3.52228 1.01641 0
M  V30 2628 H 264.088 3.62181 3.49047 0
M  V30 2629 H 263.788 5.204 2.7287 0
M  V30 2630 H 265.312 4.91962 3.6167 0
M  V30 2631 H 266.726 5.55059 1.43466 0
M  V30 2632 H 265.123 5.95348 0.753738 0
M  V30 2633 H 266.193 4.84735 -0.126377 0
M  V30 2634 N 267.536 -0.106894 1.57237 0
M  V30 2635 C 268.813 -0.843526 1.76477 0
M  V30 2636 C 269.193 -1.97499 0.745464 0
M  V30 2637 O 268.541 -2.27357 -0.228306 0
M  V30 2638 C 268.751 -1.34903 3.21873 0
M  V30 2639 C 270.099 -1.79654 3.8472 0
M  V30 2640 O 271.123 -1.44554 3.2555 0
M  V30 2641 O 269.982 -2.44515 4.88748 0
M  V30 2642 H 267.076 -0.401468 0.723016 0
M  V30 2643 H 269.622 -0.0896927 1.69463 0
M  V30 2644 H 268.394 -0.53781 3.87586 0
M  V30 2645 H 268.017 -2.16522 3.33473 0
M  V30 2646 N 269.014 -1.53014 -0.377408 0
M  V30 2647 C 269.944 -1.81589 -1.46791 0
M  V30 2648 C 270.925 -0.668622 -1.56408 0
M  V30 2649 O 272.11 -0.917337 -1.71168 0
M  V30 2650 C 269.24 -1.99519 -2.8427 0
M  V30 2651 C 268.194 -3.15249 -2.89486 0
M  V30 2652 C 267.52 -3.18451 -4.29527 0
M  V30 2653 C 268.82 -4.54084 -2.58079 0
M  V30 2654 H 270.514 -2.7291 -1.23127 0
M  V30 2655 H 268.06 -1.31319 -0.590883 0
M  V30 2656 H 270.013 -2.18092 -3.60575 0
M  V30 2657 H 268.737 -1.04897 -3.09296 0
M  V30 2658 H 267.396 -2.96477 -2.15631 0
M  V30 2659 H 267.044 -2.2149 -4.5161 0
M  V30 2660 H 266.744 -3.962 -4.33934 0
M  V30 2661 H 268.268 -3.39193 -5.07721 0
M  V30 2662 H 269.682 -4.72899 -3.24098 0
M  V30 2663 H 268.079 -5.33987 -2.7382 0
M  V30 2664 H 269.149 -4.60006 -1.53372 0
M  V30 2665 N 270.492 0.636531 -1.44174 0
M  V30 2666 C 271.72 1.42353 -1.50144 0
M  V30 2667 C 272.135 1.88389 -0.124575 0
M  V30 2668 O 271.492 1.6051 0.868489 0
M  V30 2669 C 271.543 2.64744 -2.46156 0
M  V30 2670 O 271.264 2.20629 -3.7849 0
M  V30 2671 C 272.765 3.57929 -2.61537 0
M  V30 2672 H 269.985 0.436752 -0.5094 0
M  V30 2673 H 272.529 0.778933 -1.89084 0
M  V30 2674 H 270.684 3.25307 -2.10366 0
M  V30 2675 H 271.098 2.99938 -4.30276 0
M  V30 2676 H 272.572 4.40428 -3.32757 0
M  V30 2677 H 273.049 4.06382 -1.66585 0
M  V30 2678 H 273.655 3.03238 -2.98206 0
M  V30 2679 N 271.97 1.30982 0.876444 0
M  V30 2680 C 273.218 1.20058 1.62575 0
M  V30 2681 C 273.539 -0.242947 1.93481 0
M  V30 2682 O 272.809 -1.1619 1.57724 0
M  V30 2683 H 271.389 0.44135 0.602677 0
M  V30 2684 H 274.051 1.64222 1.04962 0
M  V30 2685 H 273.147 1.76762 2.57219 0
M  V30 2686 N 273.449 -1.08991 1.13837 0
M  V30 2687 C 274.674 -1.85551 0.926585 0
M  V30 2688 C 275.099 -1.80782 -0.519566 0
M  V30 2689 O 274.457 -1.18855 -1.36906 0
M  V30 2690 C 274.505 -3.31266 1.42462 0
M  V30 2691 O 273.609 -4.07822 0.612789 0
M  V30 2692 H 272.95 -0.575192 0.331738 0
M  V30 2693 H 275.48 -1.37604 1.51414 0
M  V30 2694 H 275.49 -3.82112 1.43019 0
M  V30 2695 H 274.165 -3.34052 2.47754 0
M  V30 2696 H 272.742 -3.66731 0.675463 0
M  V30 2697 N 274.927 -0.932562 -1.27047 0
M  V30 2698 C 275.875 -0.42603 -2.28665 0
M  V30 2699 C 276.869 0.49219 -1.62092 0
M  V30 2700 O 278.075 0.371355 -1.76128 0
M  V30 2701 H 274.45 -0.119213 -0.742491 0
M  V30 2702 H 276.421 -1.29579 -2.68797 0
M  V30 2703 C 275.17 0.301426 -3.46391 0
M  V30 2704 H 274.493 -0.39595 -3.97834 0
M  V30 2705 H 275.933 0.6202 -4.1944 0
M  V30 2706 C 274.392 1.51616 -3.00856 0
M  V30 2707 O 274.922 2.61476 -3.04948 0
M  V30 2708 N 273.128 1.36969 -2.56296 0
M  V30 2709 H 272.675 0.475873 -2.53166 0
M  V30 2710 H 272.633 2.18368 -2.26192 0
M  V30 2711 N 276.405 1.4127 -0.698611 0
M  V30 2712 C 277.821 1.55241 -0.370462 0
M  V30 2713 C 278.021 1.67351 1.12231 0
M  V30 2714 O 277.077 1.65363 1.90818 0
M  V30 2715 C 278.39 2.78997 -1.12165 0
M  V30 2716 C 279.938 2.92797 -1.1063 0
M  V30 2717 C 280.413 4.19445 -1.8393 0
M  V30 2718 N 281.904 4.26409 -1.80914 0
M  V30 2719 C 282.639 5.23271 -2.34467 0
M  V30 2720 N 282.135 6.26145 -2.96504 0
M  V30 2721 N 283.928 5.15232 -2.24706 0
M  V30 2722 H 276.079 1.31654 -1.66676 0
M  V30 2723 H 278.342 0.635393 -0.703548 0
M  V30 2724 H 278.048 2.76268 -2.17644 0
M  V30 2725 H 277.922 3.70606 -0.702209 0
M  V30 2726 H 280.309 2.95039 -0.0597713 0
M  V30 2727 H 280.39 2.02353 -1.56483 0
M  V30 2728 H 280.034 4.17964 -2.88563 0
M  V30 2729 H 279.964 5.08866 -1.35509 0
M  V30 2730 H 282.455 3.527 -1.35687 0
M  V30 2731 H 282.768 6.96451 -3.34927 0
M  V30 2732 H 281.113 6.26638 -3.00583 0
M  V30 2733 H 284.304 4.33789 -1.7591 0
M  V30 2734 H 284.477 5.90552 -2.66745 0
M  V30 2735 N 277.883 0.443576 1.51229 0
M  V30 2736 C 279.129 -0.120975 2.02439 0
M  V30 2737 C 279.462 -1.41815 1.32674 0
M  V30 2738 O 278.737 -1.89373 0.443622 0
M  V30 2739 C 279.02 -0.333291 3.58554 0
M  V30 2740 C 278.873 0.982968 4.38928 0
M  V30 2741 C 280.192 -1.10028 4.26124 0
M  V30 2742 H 277.311 -0.0424923 0.735774 0
M  V30 2743 H 279.953 0.583794 1.80809 0
M  V30 2744 H 278.103 -0.933614 3.77115 0
M  V30 2745 H 279.775 1.61775 4.32003 0
M  V30 2746 H 278.018 1.58611 4.03763 0
M  V30 2747 H 278.689 0.788379 5.46341 0
M  V30 2748 H 281.165 -0.591711 4.11871 0
M  V30 2749 H 280.041 -1.21761 5.35225 0
M  V30 2750 H 280.302 -2.12996 3.87408 0
M  V30 2751 N 279.361 -1.56624 0.175154 0
M  V30 2752 C 280.777 -1.58571 -0.180966 0
M  V30 2753 C 280.977 -1.19065 -1.6256 0
M  V30 2754 O 280.033 -0.904044 -2.35761 0
M  V30 2755 C 281.346 -3.00522 0.103326 0
M  V30 2756 C 282.894 -3.12972 0.0418426 0
M  V30 2757 C 283.369 -4.57022 0.299175 0
M  V30 2758 N 284.86 -4.62541 0.247086 0
M  V30 2759 C 285.595 -5.71857 0.420318 0
M  V30 2760 N 285.091 -6.89717 0.652816 0
M  V30 2761 N 286.884 -5.60972 0.355957 0
M  V30 2762 H 279.035 -1.80589 1.11809 0
M  V30 2763 H 281.298 -0.837178 0.444788 0
M  V30 2764 H 281.004 -3.33916 1.10422 0
M  V30 2765 H 280.878 -3.72344 -0.603299 0
M  V30 2766 H 283.265 -2.79403 -0.949636 0
M  V30 2767 H 283.346 -2.43578 0.781238 0
M  V30 2768 H 282.99 -4.913 1.28788 0
M  V30 2769 H 282.92 -5.24579 -0.460876 0
M  V30 2770 H 285.411 -3.77829 0.0731895 0
M  V30 2771 H 285.724 -7.68911 0.774347 0
M  V30 2772 H 284.069 -6.91572 0.689476 0
M  V30 2773 H 287.26 -4.67773 0.174882 0
M  V30 2774 H 287.433 -6.46111 0.494388 0
M  V30 2775 N 280.839 0.0985539 -1.57292 0
M  V30 2776 C 281.749 1.13824 -2.05137 0
M  V30 2777 C 282.765 1.44076 -0.975604 0
M  V30 2778 O 283.941 1.54786 -1.28853 0
M  V30 2779 C 281.006 2.43969 -2.46333 0
M  V30 2780 C 280.067 2.2093 -3.68087 0
M  V30 2781 C 279.3 3.44869 -4.0731 0
M  V30 2782 O 279.523 4.52972 -3.46659 0
M  V30 2783 O 278.457 3.34661 -5.00285 0
M  V30 2784 H 282.283 0.761881 -2.93988 0
M  V30 2785 H 279.868 0.310818 -1.46131 0
M  V30 2786 H 281.75 3.20609 -2.73473 0
M  V30 2787 H 280.425 2.81038 -1.60621 0
M  V30 2788 H 279.332 1.42081 -3.46069 0
M  V30 2789 H 280.665 1.88755 -4.54568 0
M  V30 2790 N 282.317 1.53212 0.369288 0
M  V30 2791 C 283.545 1.73119 1.13303 0
M  V30 2792 C 283.96 0.458455 1.83149 0
M  V30 2793 O 283.317 -0.568403 1.73423 0
M  V30 2794 C 283.368 2.89413 2.16616 0
M  V30 2795 O 283.089 4.11761 1.49614 0
M  V30 2796 C 284.59 3.21161 3.05566 0
M  V30 2797 H 281.81 0.579107 0.338934 0
M  V30 2798 H 284.354 1.99942 0.429338 0
M  V30 2799 H 282.509 2.64994 2.82589 0
M  V30 2800 H 282.923 4.76858 2.18419 0
M  V30 2801 H 284.397 4.05949 3.74045 0
M  V30 2802 H 284.874 2.36369 3.70171 0
M  V30 2803 H 285.48 3.47492 2.45213 0
M  V30 2804 N 283.795 -0.628877 1.44509 0
M  V30 2805 C 284.705 -1.7694 1.54044 0
M  V30 2806 C 285.721 -1.68705 0.425987 0
M  V30 2807 O 286.897 -1.89442 0.683656 0
M  V30 2808 C 283.962 -3.13332 1.48405 0
M  V30 2809 C 283.023 -3.33181 2.70719 0
M  V30 2810 C 282.256 -4.63067 2.6534 0
M  V30 2811 O 282.479 -5.44017 1.71469 0
M  V30 2812 O 281.413 -4.85167 3.56226 0
M  V30 2813 H 285.239 -1.71848 2.50403 0
M  V30 2814 H 282.824 -0.790378 1.26781 0
M  V30 2815 H 284.706 -3.94634 1.47791 0
M  V30 2816 H 283.381 -3.1896 0.551898 0
M  V30 2817 H 282.288 -2.51549 2.769 0
M  V30 2818 H 283.621 -3.32416 3.62988 0
M  V30 2819 N 285.273 -1.31445 -0.869486 0
M  V30 2820 C 286.498 -1.24256 -1.66058 0
M  V30 2821 C 286.923 0.188928 -1.87149 0
M  V30 2822 O 286.281 1.13522 -1.4136 0
M  V30 2823 C 286.329 -1.9924 -3.00559 0
M  V30 2824 O 285.433 -1.33007 -3.90362 0
M  V30 2825 H 284.774 -0.428973 -0.506831 0
M  V30 2826 H 287.304 -1.73521 -1.08404 0
M  V30 2827 H 287.314 -2.08854 -3.50491 0
M  V30 2828 H 285.989 -3.03342 -2.84528 0
M  V30 2829 H 284.566 -1.31848 -3.48813 0
M  V30 2830 N 286.751 1.08385 -1.14413 0
M  V30 2831 C 287.979 1.84517 -0.936001 0
M  V30 2832 C 288.394 1.81626 0.515503 0
M  V30 2833 O 287.751 1.22008 1.35721 0
M  V30 2834 C 287.802 3.32049 -1.42918 0
M  V30 2835 O 287.523 3.34951 -2.82381 0
M  V30 2836 C 289.024 4.24986 -1.26103 0
M  V30 2837 H 286.244 0.582491 -0.333084 0
M  V30 2838 H 288.788 1.36885 -1.5193 0
M  V30 2839 H 286.943 3.7707 -0.888641 0
M  V30 2840 H 287.357 4.27048 -3.04517 0
M  V30 2841 H 288.831 5.26615 -1.6547 0
M  V30 2842 H 289.308 4.38726 -0.20392 0
M  V30 2843 H 289.914 3.85791 -1.79012 0
M  V30 2844 N 288.23 0.939286 1.26551 0
M  V30 2845 C 289.476 0.586715 1.94128 0
M  V30 2846 C 289.809 -0.8717 1.73537 0
M  V30 2847 O 289.084 -1.62339 1.07127 0
M  V30 2848 C 289.367 0.927497 3.4795 0
M  V30 2849 C 289.22 2.44052 3.77834 0
M  V30 2850 C 290.539 0.441569 4.37879 0
M  V30 2851 H 287.658 0.21463 0.705055 0
M  V30 2852 H 290.3 1.17316 1.49455 0
M  V30 2853 H 288.45 0.428431 3.8613 0
M  V30 2854 H 290.122 3.01216 3.4938 0
M  V30 2855 H 288.365 2.8848 3.23978 0
M  V30 2856 H 289.036 2.62947 4.85348 0
M  V30 2857 H 291.512 0.869448 4.06915 0
M  V30 2858 H 290.388 0.708856 5.44304 0
M  V30 2859 H 290.649 -0.658467 4.37169 0
M  V30 2860 N 289.708 -1.40897 0.706093 0
M  V30 2861 C 290.933 -2.05895 0.249435 0
M  V30 2862 C 291.358 -1.52823 -1.09666 0
M  V30 2863 O 290.716 -0.659589 -1.68876 0
M  V30 2864 C 290.764 -3.59872 0.22904 0
M  V30 2865 O 289.868 -4.04708 -0.792784 0
M  V30 2866 H 289.209 -0.653206 0.119241 0
M  V30 2867 H 291.739 -1.80471 0.96391 0
M  V30 2868 H 291.749 -4.07951 0.0634791 0
M  V30 2869 H 290.424 -3.97866 1.21141 0
M  V30 2870 H 289.001 -3.68111 -0.59572 0
M  V30 2871 N 291.186 -0.45159 -1.50991 0
M  V30 2872 C 292.149 0.341117 -2.26647 0
M  V30 2873 C 293.149 0.937422 -1.30649 0
M  V30 2874 O 294.339 0.809644 -1.54241 0
M  V30 2875 C 291.471 1.48398 -3.06905 0
M  V30 2876 H 292.664 -0.322117 -2.98165 0
M  V30 2877 H 290.217 -0.205122 -1.54948 0
M  V30 2878 H 290.952 2.18284 -2.39838 0
M  V30 2879 H 290.737 1.06241 -3.77432 0
M  V30 2880 H 292.227 2.04367 -3.64176 0
M  V30 2881 N 292.664 1.56529 -0.183458 0
M  V30 2882 C 294.08 1.58664 0.172554 0
M  V30 2883 C 294.28 1.19925 1.61926 0
M  V30 2884 O 293.336 0.916534 2.35278 0
M  V30 2885 C 294.649 3.00463 -0.119262 0
M  V30 2886 C 296.197 3.12945 -0.0584396 0
M  V30 2887 C 296.672 4.56857 -0.323408 0
M  V30 2888 N 298.163 4.62403 -0.271612 0
M  V30 2889 C 298.898 5.71626 -0.450639 0
M  V30 2890 N 298.394 6.89362 -0.689384 0
M  V30 2891 N 300.187 5.60775 -0.385701 0
M  V30 2892 H 292.338 1.79994 -1.12765 0
M  V30 2893 H 294.601 0.834808 -0.449222 0
M  V30 2894 H 294.307 3.33326 -1.12192 0
M  V30 2895 H 294.181 3.72659 0.583544 0
M  V30 2896 H 296.568 2.79902 0.934805 0
M  V30 2897 H 296.649 2.4316 -0.794144 0
M  V30 2898 H 296.293 4.9061 -1.31392 0
M  V30 2899 H 296.223 5.24816 0.43305 0
M  V30 2900 H 298.714 3.77785 -0.0932256 0
M  V30 2901 H 299.027 7.68489 -0.815113 0
M  V30 2902 H 297.372 6.91196 -0.726142 0
M  V30 2903 H 300.563 4.67674 -0.199687 0
M  V30 2904 H 300.736 6.4584 -0.528646 0
M  V30 2905 N 294.142 -0.090211 1.57342 0
M  V30 2906 C 295.072 -1.10976 2.05443 0
M  V30 2907 C 296.053 -1.41482 0.944284 0
M  V30 2908 O 297.238 -1.51428 1.21586 0
M  V30 2909 C 294.368 -2.42831 2.48295 0
M  V30 2910 C 293.322 -2.26721 3.63018 0
M  V30 2911 C 292.648 -3.63796 3.91863 0
M  V30 2912 C 293.948 -1.7037 4.93732 0
M  V30 2913 H 295.642 -0.709564 2.9087 0
M  V30 2914 H 293.188 -0.339874 1.39932 0
M  V30 2915 H 295.141 -3.14431 2.80555 0
M  V30 2916 H 293.865 -2.84795 1.59873 0
M  V30 2917 H 292.524 -1.57565 3.31012 0
M  V30 2918 H 292.172 -4.03297 3.00601 0
M  V30 2919 H 291.872 -3.53861 4.69101 0
M  V30 2920 H 293.396 -4.36855 4.26603 0
M  V30 2921 H 294.81 -2.31816 5.24342 0
M  V30 2922 H 293.207 -1.71181 5.75167 0
M  V30 2923 H 294.277 -0.663542 4.80339 0
M  V30 2924 N 295.62 -1.53406 -0.361157 0
M  V30 2925 C 297.031 -1.61442 -0.937728 0
M  V30 2926 C 297.382 -0.48461 -1.90121 0
M  V30 2927 O 296.507 0.388312 -2.12888 0
M  V30 2928 C 297.102 -2.92624 -1.70753 0
M  V30 2929 C 295.661 -3.02981 -2.23337 0
M  V30 2930 C 294.808 -2.5677 -1.04712 0
M  V30 2931 H 297.759 -1.58083 -0.139816 0
M  V30 2932 H 297.78 -2.80675 -2.56908 0
M  V30 2933 H 297.292 -3.74834 -1.00604 0
M  V30 2934 H 295.393 -2.25368 -2.96715 0
M  V30 2935 H 295.506 -4.0814 -2.50916 0
M  V30 2936 H 293.87 -2.11752 -1.41539 0
M  V30 2937 H 294.653 -3.41402 -0.360539 0
M  V30 2938 N 297.098 0.621204 -1.44841 0
M  V30 2939 C 298.344 1.3826 -1.48365 0
M  V30 2940 C 298.677 1.93831 -0.119624 0
M  V30 2941 O 297.952 1.74251 0.864111 0
M  V30 2942 C 298.235 2.54058 -2.55199 0
M  V30 2943 C 298.088 2.03772 -4.00995 0
M  V30 2944 C 299.407 3.56225 -2.58442 0
M  V30 2945 H 296.526 0.501374 -0.540179 0
M  V30 2946 H 299.168 0.7015 -1.76576 0
M  V30 2947 H 297.318 3.12162 -2.31274 0
M  V30 2948 H 298.99 1.50423 -4.36086 0
M  V30 2949 H 297.233 1.34876 -4.12299 0
M  V30 2950 H 297.904 2.87185 -4.71411 0
M  V30 2951 H 300.38 3.07939 -2.79844 0
M  V30 2952 H 299.256 4.34756 -3.3508 0
M  V30 2953 H 299.517 4.10949 -1.63013 0
M  V30 2954 N 298.576 1.31904 0.862503 0
M  V30 2955 C 299.824 1.21776 1.61292 0
M  V30 2956 C 300.145 -0.222413 1.93727 0
M  V30 2957 O 299.415 -1.1451 1.58947 0
M  V30 2958 H 297.995 0.447717 0.597962 0
M  V30 2959 H 300.657 1.65326 1.03215 0
M  V30 2960 H 299.753 1.7948 2.5533 0
M  V30 2961 N 300.054 -1.07777 1.14986 0
M  V30 2962 C 301.282 -1.84018 0.945773 0
M  V30 2963 C 301.697 -1.81897 -0.505863 0
M  V30 2964 O 301.054 -1.22726 -1.35072 0
M  V30 2965 C 301.105 -3.31287 1.44677 0
M  V30 2966 O 300.826 -3.33449 2.84154 0
M  V30 2967 C 302.327 -4.24311 1.28355 0
M  V30 2968 H 299.547 -0.580716 0.336169 0
M  V30 2969 H 302.091 -1.36077 1.52654 0
M  V30 2970 H 300.246 -3.76594 0.908625 0
M  V30 2971 H 300.66 -4.25427 3.06777 0
M  V30 2972 H 302.134 -5.2573 1.68261 0
M  V30 2973 H 302.611 -4.38612 0.227184 0
M  V30 2974 H 303.217 -3.84836 1.81056 0
M  V30 2975 N 301.532 -0.945985 -1.26051 0
M  V30 2976 C 302.78 -0.594941 -1.93145 0
M  V30 2977 C 303.101 0.86953 -1.7454 0
M  V30 2978 O 302.371 1.61838 -1.10387 0
M  V30 2979 H 300.951 -0.217044 -0.714773 0
M  V30 2980 H 303.613 -1.20235 -1.53393 0
M  V30 2981 H 302.709 -0.816835 -3.01221 0
M  V30 2982 N 303.011 1.40521 -0.713556 0
M  V30 2983 C 304.257 2.01221 -0.252564 0
M  V30 2984 C 304.59 1.56444 1.1506 0
M  V30 2985 O 303.865 0.783597 1.78017 0
M  V30 2986 C 304.148 3.58582 -0.330332 0
M  V30 2987 C 304.001 4.13437 -1.77173 0
M  V30 2988 C 305.32 4.39079 0.299641 0
M  V30 2989 H 302.439 0.731077 -0.0932471 0
M  V30 2990 H 305.081 1.67026 -0.905673 0
M  V30 2991 H 303.231 3.87844 0.225737 0
M  V30 2992 H 304.903 3.9498 -2.38303 0
M  V30 2993 H 303.146 3.67801 -2.3001 0
M  V30 2994 H 303.817 5.22597 -1.77755 0
M  V30 2995 H 306.293 4.15735 -0.174139 0
M  V30 2996 H 305.169 5.4848 0.214771 0
M  V30 2997 H 305.43 4.19915 1.38288 0
M  V30 2998 N 304.489 0.459591 1.5075 0
M  V30 2999 C 305.419 -0.330644 2.31147 0
M  V30 3000 C 306.4 -1.00087 1.37538 0
M  V30 3001 O 307.585 -1.00025 1.66459 0
M  V30 3002 C 304.715 -1.41958 3.16962 0
M  V30 3003 C 303.669 -0.871608 4.19031 0
M  V30 3004 C 302.995 -2.05797 4.9351 0
M  V30 3005 C 304.295 0.109251 5.22186 0
M  V30 3006 H 305.989 0.340336 2.97459 0
M  V30 3007 H 303.535 0.165119 1.4305 0
M  V30 3008 H 305.488 -1.9798 3.71997 0
M  V30 3009 H 304.212 -2.11917 2.48513 0
M  V30 3010 H 302.871 -0.333442 3.6508 0
M  V30 3011 H 302.519 -2.74427 4.21544 0
M  V30 3012 H 302.219 -1.6976 5.62544 0
M  V30 3013 H 303.743 -2.62331 5.51375 0
M  V30 3014 H 305.157 -0.361405 5.7216 0
M  V30 3015 H 303.554 0.383316 5.98875 0
M  V30 3016 H 304.624 1.03887 4.73641 0
M  V30 3017 N 305.967 -1.56429 0.191757 0
M  V30 3018 C 306.93 -2.17707 -0.716688 0
M  V30 3019 C 307.93 -1.13061 -1.14341 0
M  V30 3020 O 309.12 -1.38464 -1.05704 0
M  V30 3021 C 306.252 -2.77644 -1.97804 0
M  V30 3022 H 307.445 -2.99342 -0.1829 0
M  V30 3023 H 304.998 -1.56193 -0.0578566 0
M  V30 3024 H 305.733 -1.99799 -2.55443 0
M  V30 3025 H 305.518 -3.54246 -1.68083 0
M  V30 3026 H 307.008 -3.24708 -2.62592 0
M  V30 3027 N 307.445 0.0818655 -1.57387 0
M  V30 3028 C 308.408 1.08265 -2.02018 0
M  V30 3029 C 309.408 1.32183 -0.915664 0
M  V30 3030 O 310.598 1.28073 -1.18081 0
M  V30 3031 C 307.73 2.42871 -2.39221 0
M  V30 3032 H 308.923 0.698204 -2.91659 0
M  V30 3033 H 306.476 0.327303 -1.52835 0
M  V30 3034 H 307.211 2.86167 -1.52575 0
M  V30 3035 H 306.996 2.26855 -3.19811 0
M  V30 3036 H 308.486 3.14826 -2.74362 0
M  V30 3037 N 308.923 1.53595 0.353017 0
M  V30 3038 C 310.2 1.61002 1.11075 0
M  V30 3039 C 310.58 0.425356 2.0677 0
M  V30 3040 O 309.928 -0.583267 2.2093 0
M  V30 3041 C 310.138 2.96631 1.83877 0
M  V30 3042 C 311.486 3.51653 2.37961 0
M  V30 3043 O 312.51 2.98743 1.93987 0
M  V30 3044 O 311.369 4.44177 3.18386 0
M  V30 3045 H 308.463 0.650825 0.510251 0
M  V30 3046 H 311.009 1.6594 0.35527 0
M  V30 3047 H 309.781 3.74293 1.14108 0
M  V30 3048 H 309.404 2.95242 2.66304 0
M  V30 3049 N 310.401 -0.613514 1.45168 0
M  V30 3050 C 311.647 -1.37471 1.49096 0
M  V30 3051 C 311.98 -1.93765 0.129901 0
M  V30 3052 O 311.255 -1.74707 -0.854858 0
M  V30 3053 C 311.538 -2.52701 2.56542 0
M  V30 3054 C 311.391 -2.01643 4.0207 0
M  V30 3055 C 312.71 -3.54849 2.60327 0
M  V30 3056 H 309.829 -0.498502 0.54283 0
M  V30 3057 H 312.471 -0.692125 1.76945 0
M  V30 3058 H 310.621 -3.10931 2.32926 0
M  V30 3059 H 312.293 -1.48108 4.36877 0
M  V30 3060 H 310.536 -1.32688 4.13009 0
M  V30 3061 H 311.207 -2.84681 4.72928 0
M  V30 3062 H 313.683 -3.0645 2.81474 0
M  V30 3063 H 312.559 -4.32973 3.37381 0
M  V30 3064 H 312.82 -4.10079 1.6519 0
M  V30 3065 N 311.879 -1.3236 -0.855495 0
M  V30 3066 C 313.119 -1.24187 -1.62348 0
M  V30 3067 C 313.483 0.193597 -1.91021 0
M  V30 3068 O 314.684 0.39904 -2.65822 0
M  V30 3069 C 312.955 -2.07661 -2.90881 0
M  V30 3070 S 314.514 -2.16505 -3.81669 0
M  V30 3071 H 311.332 -0.442076 -0.556857 0
M  V30 3072 H 313.934 -1.67198 -1.01317 0
M  V30 3073 H 312.638 -3.11018 -2.67761 0
M  V30 3074 H 312.169 -1.65425 -3.56929 0
M  V30 3075 H 314.184 -1.31394 -4.78487 0
M  V30 3076 N 313.357 1.07166 -1.15556 0
M  V30 3077 C 314.597 1.81391 -0.94216 0
M  V30 3078 C 314.961 1.84788 0.521272 0
M  V30 3079 O 316.162 2.54904 0.85307 0
M  V30 3080 C 314.433 3.22431 -1.54185 0
M  V30 3081 S 315.992 4.13379 -1.47183 0
M  V30 3082 H 312.81 0.624963 -0.339031 0
M  V30 3083 H 315.412 1.28725 -1.4714 0
M  V30 3084 H 314.116 3.17548 -2.59984 0
M  V30 3085 H 313.647 3.80172 -1.01156 0
M  V30 3086 H 315.662 4.94007 -0.466004 0
M  V30 3087 N 314.835 0.952656 1.25548 0
M  V30 3088 C 316.083 0.605176 1.92826 0
M  V30 3089 C 316.404 -0.860261 1.74999 0
M  V30 3090 O 315.674 -1.6125 1.11244 0
M  V30 3091 H 314.254 0.220832 0.713612 0
M  V30 3092 H 316.916 1.21047 1.52754 0
M  V30 3093 H 316.012 0.832798 3.00784 0
M  V30 3094 N 316.313 -1.40141 0.720998 0
M  V30 3095 C 317.263 -2.27949 0.0482544 0
M  V30 3096 C 318.247 -1.43538 -0.727021 0
M  V30 3097 O 319.439 -1.6658 -0.598332 0
M  V30 3098 C 316.568 -3.32126 -0.868729 0
M  V30 3099 C 315.654 -4.24008 -0.0883515 0
M  V30 3100 N 316.045 -4.97154 0.931226 0
M  V30 3101 C 314.343 -4.4485 -0.320105 0
M  V30 3102 C 315.044 -5.64587 1.4006 0
M  V30 3103 N 314.02 -5.38787 0.721752 0
M  V30 3104 H 317.822 -2.81948 0.829609 0
M  V30 3105 H 315.336 -1.52656 0.554067 0
M  V30 3106 H 317.333 -3.93884 -1.36605 0
M  V30 3107 H 315.993 -2.79687 -1.6494 0
M  V30 3108 H 317.004 -5.01 1.31222 0
M  V30 3109 H 313.681 -4.03378 -1.07668 0
M  V30 3110 H 315.071 -6.33175 2.24808 0
M  V30 3111 N 317.792 -0.46758 -1.50504 0
M  V30 3112 C 318.724 0.364655 -2.26281 0
M  V30 3113 C 319.737 0.960151 -1.31472 0
M  V30 3114 O 320.926 0.849153 -1.57008 0
M  V30 3115 C 318.026 1.52509 -3.02645 0
M  V30 3116 C 317.199 1.04302 -4.24782 0
M  V30 3117 C 316.258 2.07709 -4.8347 0
M  V30 3118 O 315.284 1.65913 -5.44483 0
M  V30 3119 N 316.486 3.40485 -4.70159 0
M  V30 3120 H 319.251 -0.28495 -2.98342 0
M  V30 3121 H 316.812 -0.298163 -1.59131 0
M  V30 3122 H 318.804 2.21371 -3.38787 0
M  V30 3123 H 317.374 2.07945 -2.33404 0
M  V30 3124 H 316.594 0.180393 -3.93787 0
M  V30 3125 H 317.882 0.698798 -5.03978 0
M  V30 3126 H 317.28 3.77155 -4.21629 0
M  V30 3127 H 315.837 4.05156 -5.1058 0
M  V30 3128 N 319.27 1.56325 -0.20005 0
M  V30 3129 C 320.18 2.22931 0.730668 0
M  V30 3130 C 321.196 1.22997 1.23076 0
M  V30 3131 O 322.372 1.55748 1.27689 0
M  V30 3132 C 319.437 2.87948 1.93098 0
M  V30 3133 C 318.498 4.03166 1.47497 0
M  V30 3134 C 317.731 4.65073 2.61807 0
M  V30 3135 O 317.954 4.25913 3.79413 0
M  V30 3136 O 316.888 5.54452 2.34237 0
M  V30 3137 H 320.714 3.03084 0.193391 0
M  V30 3138 H 318.299 1.49371 0.0294621 0
M  V30 3139 H 320.181 3.29063 2.6324 0
M  V30 3140 H 318.856 2.10771 2.45677 0
M  V30 3141 H 317.763 3.66664 0.742201 0
M  V30 3142 H 319.096 4.82022 0.995796 0
M  V30 3143 N 320.748 -0.0735177 1.57428 0
M  V30 3144 C 321.711 -1.07192 2.02589 0
M  V30 3145 C 322.711 -1.31695 0.922661 0
M  V30 3146 O 323.901 -1.27445 1.18758 0
M  V30 3147 C 321.033 -2.41599 2.40506 0
M  V30 3148 H 322.226 -0.682727 2.92025 0
M  V30 3149 H 319.779 -0.319193 1.53006 0
M  V30 3150 H 320.514 -2.85354 1.5409 0
M  V30 3151 H 320.299 -2.25156 3.21009 0
M  V30 3152 H 321.789 -3.13367 2.76027 0
M  V30 3153 N 322.226 -1.5378 -0.344866 0
M  V30 3154 C 323.158 -1.77988 -1.44406 0
M  V30 3155 C 324.171 -0.661138 -1.48771 0
M  V30 3156 O 325.36 -0.937842 -1.51877 0
M  V30 3157 C 322.46 -1.86345 -2.8307 0
M  V30 3158 C 321.633 -3.16256 -3.0216 0
M  V30 3159 C 320.692 -3.15588 -4.21059 0
M  V30 3160 O 319.718 -3.89314 -4.15239 0
M  V30 3161 N 320.92 -2.37864 -5.29529 0
M  V30 3162 H 323.685 -2.72839 -1.24012 0
M  V30 3163 H 321.246 -1.52814 -0.534737 0
M  V30 3164 H 323.238 -1.83351 -3.60783 0
M  V30 3165 H 321.808 -0.986858 -2.96614 0
M  V30 3166 H 321.028 -3.32385 -2.11929 0
M  V30 3167 H 322.316 -4.0207 -3.11797 0
M  V30 3168 H 321.714 -1.77514 -5.37127 0
M  V30 3169 H 320.271 -2.40668 -6.05741 0
M  V30 3170 N 323.704 0.605807 -1.45491 0
M  V30 3171 C 324.929 1.39625 -1.53361 0
M  V30 3172 C 325.354 1.87351 -0.167645 0
M  V30 3173 O 324.712 1.60243 0.848051 0
M  V30 3174 C 324.76 2.57559 -2.5238 0
M  V30 3175 O 323.864 3.58248 -2.04285 0
M  V30 3176 H 323.205 0.416771 -0.516912 0
M  V30 3177 H 325.735 0.737103 -1.90861 0
M  V30 3178 H 325.745 3.0478 -2.71244 0
M  V30 3179 H 324.42 2.22171 -3.51586 0
M  V30 3180 H 322.997 3.17664 -1.95305 0
M  V30 3181 N 325.182 1.32811 0.848464 0
M  V30 3182 C 326.431 1.23075 1.59798 0
M  V30 3183 C 326.744 -0.204419 1.94529 0
M  V30 3184 O 327.95 -0.423701 2.68173 0
M  V30 3185 C 326.406 2.15594 2.88179 0
M  V30 3186 C 326.014 3.64228 2.60849 0
M  V30 3187 C 327.758 2.14709 3.66197 0
M  V30 3188 C 325.665 4.48689 3.85269 0
M  V30 3189 H 324.595 0.457091 0.599653 0
M  V30 3190 H 327.246 1.57813 0.936342 0
M  V30 3191 H 325.628 1.73778 3.55833 0
M  V30 3192 H 326.802 4.14424 2.01467 0
M  V30 3193 H 325.117 3.67306 1.96151 0
M  V30 3194 H 327.714 2.75046 4.58534 0
M  V30 3195 H 328.057 1.13966 4.00397 0
M  V30 3196 H 328.59 2.54837 3.05455 0
M  V30 3197 H 325.329 5.5027 3.56207 0
M  V30 3198 H 324.849 4.03241 4.44024 0
M  V30 3199 H 326.528 4.62006 4.52946 0
M  V30 3200 N 326.66 -1.06551 1.16123 0
M  V30 3201 C 328.076 -1.3142 0.905585 0
M  V30 3202 C 328.276 -1.96571 -0.442964 0
M  V30 3203 O 327.332 -2.23068 -1.18308 0
M  V30 3204 C 328.645 -2.19741 2.05267 0
M  V30 3205 C 330.193 -2.33165 2.08813 0
M  V30 3206 C 330.668 -3.24838 3.22868 0
M  V30 3207 N 332.159 -3.32421 3.22568 0
M  V30 3208 C 332.894 -4.0344 4.0746 0
M  V30 3209 N 332.39 -4.77003 5.02434 0
M  V30 3210 N 334.183 -3.99464 3.95456 0
M  V30 3211 H 326.334 -0.626548 2.02949 0
M  V30 3212 H 328.597 -0.338777 0.8854 0
M  V30 3213 H 328.303 -1.79142 3.02657 0
M  V30 3214 H 328.177 -3.20313 1.99198 0
M  V30 3215 H 330.564 -2.73013 1.12018 0
M  V30 3216 H 330.645 -1.3227 2.18948 0
M  V30 3217 H 330.289 -2.85708 4.19921 0
M  V30 3218 H 330.219 -4.25707 3.0997 0
M  V30 3219 H 332.71 -2.79994 2.53795 0
M  V30 3220 H 333.023 -5.28712 5.63634 0
M  V30 3221 H 331.368 -4.75992 5.06415 0
M  V30 3222 H 334.559 -3.4111 3.20564 0
M  V30 3223 H 334.732 -4.54544 4.61837 0
M  V30 3224 N 328.138 -0.959301 -1.25041 0
M  V30 3225 C 329.384 -0.617525 -1.9317 0
M  V30 3226 C 329.717 0.843981 -1.74902 0
M  V30 3227 O 328.992 1.60615 -1.09696 0
M  V30 3228 C 329.275 -0.982736 -3.46431 0
M  V30 3229 C 329.128 -2.50032 -3.73904 0
M  V30 3230 C 330.447 -0.511176 -4.37121 0
M  V30 3231 H 327.566 -0.22582 -0.701552 0
M  V30 3232 H 330.208 -1.19679 -1.4757 0
M  V30 3233 H 328.358 -0.489806 -3.854 0
M  V30 3234 H 330.03 -3.06737 -3.44544 0
M  V30 3235 H 328.273 -2.93598 -3.19348 0
M  V30 3236 H 328.944 -2.70635 -4.81103 0
M  V30 3237 H 331.42 -0.934075 -4.0548 0
M  V30 3238 H 330.296 -0.795361 -5.43107 0
M  V30 3239 H 330.557 0.588834 -4.38161 0
M  V30 3240 N 329.616 1.39756 -0.72842 0
M  V30 3241 C 330.844 2.04948 -0.283528 0
M  V30 3242 C 331.259 1.54908 1.0793 0
M  V30 3243 O 330.616 0.711135 1.68075 0
M  V30 3244 C 330.667 3.60498 -0.268957 0
M  V30 3245 O 330.388 4.08695 -1.57798 0
M  V30 3246 C 331.889 4.4288 0.192912 0
M  V30 3247 H 329.109 0.659243 -0.125056 0
M  V30 3248 H 331.653 1.78927 -0.990226 0
M  V30 3249 H 329.808 3.85444 0.388801 0
M  V30 3250 H 330.222 5.02977 -1.48709 0
M  V30 3251 H 331.696 5.51791 0.151952 0
M  V30 3252 H 332.173 4.21418 1.23708 0
M  V30 3253 H 332.779 4.23069 -0.435039 0
M  V30 3254 N 331.094 0.475555 1.50254 0
M  V30 3255 C 332.343 -0.0795996 2.01543 0
M  V30 3256 C 332.656 -1.4038 1.36209 0
M  V30 3257 O 333.862 -2.04415 1.7868 0
M  V30 3258 C 332.318 -0.192363 3.59386 0
M  V30 3259 C 331.926 1.12367 4.33679 0
M  V30 3260 C 333.67 -0.699238 4.18701 0
M  V30 3261 C 331.577 0.974453 5.83317 0
M  V30 3262 H 330.507 -0.0335228 0.753254 0
M  V30 3263 H 333.158 0.611128 1.73025 0
M  V30 3264 H 331.54 -0.946974 3.84511 0
M  V30 3265 H 332.714 1.88958 4.20276 0
M  V30 3266 H 331.029 1.562 3.85993 0
M  V30 3267 H 333.626 -0.827978 5.28251 0
M  V30 3268 H 333.969 -1.69171 3.80377 0
M  V30 3269 H 334.502 -0.00188807 3.978 0
M  V30 3270 H 331.241 1.94042 6.26121 0
M  V30 3271 H 330.761 0.248998 5.99283 0
M  V30 3272 H 332.44 0.642867 6.43798 0
M  V30 3273 N 332.573 -1.56217 0.208337 0
M  V30 3274 C 333.85 -1.89739 -0.475234 0
M  V30 3275 C 334.23 -1.1238 -1.78701 0
M  V30 3276 O 333.578 -0.228979 -2.2735 0
M  V30 3277 C 333.788 -3.42289 -0.681101 0
M  V30 3278 C 335.136 -4.12789 -0.994507 0
M  V30 3279 O 336.16 -3.47814 -0.768357 0
M  V30 3280 O 335.019 -5.27649 -1.42299 0
M  V30 3281 H 332.113 -0.788478 -0.249461 0
M  V30 3282 H 334.659 -1.67855 0.249538 0
M  V30 3283 H 333.431 -3.90534 0.244722 0
M  V30 3284 H 333.054 -3.69909 -1.45785 0
M  V30 3285 N 334.051 0.0651679 -1.57465 0
M  V30 3286 C 334.981 1.07693 -2.07182 0
M  V30 3287 C 335.962 1.39962 -0.966673 0
M  V30 3288 O 337.147 1.49475 -1.2398 0
M  V30 3289 C 334.277 2.3885 -2.52127 0
M  V30 3290 C 333.231 2.20917 -3.66579 0
M  V30 3291 C 332.557 3.57515 -3.97601 0
M  V30 3292 C 333.857 1.62493 -4.9638 0
M  V30 3293 H 335.551 0.663199 -2.91962 0
M  V30 3294 H 333.097 0.317569 -1.40455 0
M  V30 3295 H 335.05 3.09928 -2.85522 0
M  V30 3296 H 333.774 2.82215 -1.64384 0
M  V30 3297 H 332.433 1.52279 -3.33477 0
M  V30 3298 H 332.081 3.98463 -3.06979 0
M  V30 3299 H 331.781 3.46353 -4.74672 0
M  V30 3300 H 333.305 4.30013 -4.33499 0
M  V30 3301 H 334.719 2.23445 -5.27963 0
M  V30 3302 H 333.116 1.62009 -5.77818 0
M  V30 3303 H 334.186 0.587041 -4.81333 0
M  V30 3304 N 335.529 1.53961 0.336706 0
M  V30 3305 C 336.94 1.62914 0.911925 0
M  V30 3306 C 337.291 0.514795 1.89326 0
M  V30 3307 O 336.416 -0.354395 2.13478 0
M  V30 3308 C 337.011 2.95304 1.66076 0
M  V30 3309 C 335.57 3.06496 2.18489 0
M  V30 3310 C 334.717 2.58403 1.00613 0
M  V30 3311 H 337.668 1.58285 0.114649 0
M  V30 3312 H 337.689 2.84727 2.5241 0
M  V30 3313 H 337.201 3.76387 0.946276 0
M  V30 3314 H 335.302 2.3006 2.93092 0
M  V30 3315 H 335.415 4.1208 2.44391 0
M  V30 3316 H 333.779 2.13977 1.38152 0
M  V30 3317 H 334.562 3.41932 0.306179 0
M  V30 3318 N 337.007 -0.598083 1.45811 0
M  V30 3319 C 338.418 -1.18011 1.44673 0
M  V30 3320 C 338.769 -1.95378 0.179364 0
M  V30 3321 O 337.894 -2.04124 -0.718509 0
M  V30 3322 C 338.489 -2.14677 2.62105 0
M  V30 3323 C 337.048 -2.68236 2.64057 0
M  V30 3324 C 336.195 -1.43816 2.37091 0
M  V30 3325 H 339.146 -0.38686 1.53913 0
M  V30 3326 H 339.167 -2.97878 2.36746 0
M  V30 3327 H 338.679 -1.5834 3.5433 0
M  V30 3328 H 336.78 -3.28486 1.75864 0
M  V30 3329 H 336.893 -3.12021 3.63566 0
M  V30 3330 H 335.257 -1.731 1.86838 0
M  V30 3331 H 336.04 -0.893333 3.31473 0
M  V30 3332 N 338.485 -1.33259 -0.841409 0
M  V30 3333 C 339.733 -1.24326 -1.59334 0
M  V30 3334 C 340.054 0.191564 -1.94057 0
M  V30 3335 O 339.324 1.11967 -1.60749 0
M  V30 3336 H 337.904 -0.457174 -0.590763 0
M  V30 3337 H 340.566 -1.66947 -1.00571 0
M  V30 3338 H 339.662 -1.8352 -2.52442 0
M  V30 3339 N 339.963 1.05934 -1.16686 0
M  V30 3340 C 340.926 2.11669 -0.879144 0
M  V30 3341 C 341.926 1.60294 0.127445 0
M  V30 3342 O 343.116 1.7389 -0.103865 0
M  V30 3343 C 340.248 3.39438 -0.315425 0
M  V30 3344 H 341.441 2.38626 -1.81653 0
M  V30 3345 H 338.994 1.22058 -0.976299 0
M  V30 3346 H 339.729 3.18132 0.629468 0
M  V30 3347 H 339.514 3.78034 -1.04079 0
M  V30 3348 H 341.004 4.17391 -0.132189 0
M  V30 3349 N 341.441 0.965919 1.2453 0
M  V30 3350 C 342.857 0.67216 1.44756 0
M  V30 3351 C 343.057 -0.766609 1.86347 0
M  V30 3352 O 342.113 -1.5407 2.00047 0
M  V30 3353 C 343.426 1.65473 2.51076 0
M  V30 3354 C 344.974 1.66716 2.64905 0
M  V30 3355 C 345.449 2.63766 3.74421 0
M  V30 3356 N 346.94 2.62198 3.81846 0
M  V30 3357 C 347.675 3.33966 4.66106 0
M  V30 3358 N 347.171 4.15245 5.54566 0
M  V30 3359 N 348.964 3.22799 4.60171 0
M  V30 3360 H 341.115 1.89553 0.958293 0
M  V30 3361 H 343.378 0.815979 0.482579 0
M  V30 3362 H 343.084 2.68296 2.27399 0
M  V30 3363 H 342.958 1.4261 3.49202 0
M  V30 3364 H 345.345 0.646057 2.87941 0
M  V30 3365 H 345.426 1.93642 1.67142 0
M  V30 3366 H 345.07 3.6601 3.52135 0
M  V30 3367 H 345 2.34121 4.71694 0
M  V30 3368 H 347.491 2.032 3.18619 0
M  V30 3369 H 347.804 4.66898 6.15814 0
M  V30 3370 H 346.149 4.1934 5.54237 0
M  V30 3371 H 349.34 2.58764 3.90075 0
M  V30 3372 H 349.513 3.78994 5.25612 0
M  V30 3373 N 342.919 -1.39368 0.735821 0
M  V30 3374 C 343.849 -2.33234 0.111506 0
M  V30 3375 C 344.83 -1.53954 -0.723334 0
M  V30 3376 O 346.015 -1.82344 -0.668147 0
M  V30 3377 C 343.145 -3.38057 -0.795917 0
M  V30 3378 C 342.099 -4.2795 -0.065172 0
M  V30 3379 C 341.425 -5.23479 -1.08967 0
M  V30 3380 C 342.725 -5.10741 1.09273 0
M  V30 3381 H 344.419 -2.85692 0.895571 0
M  V30 3382 H 341.965 -1.37364 0.432109 0
M  V30 3383 H 343.918 -4.02675 -1.24221 0
M  V30 3384 H 342.642 -2.8404 -1.61211 0
M  V30 3385 H 341.301 -3.64813 0.361511 0
M  V30 3386 H 340.949 -4.65758 -1.89944 0
M  V30 3387 H 340.649 -5.84472 -0.605489 0
M  V30 3388 H 342.173 -5.90974 -1.53565 0
M  V30 3389 H 343.587 -5.68699 0.724841 0
M  V30 3390 H 341.984 -5.8088 1.50659 0
M  V30 3391 H 343.054 -4.45525 1.91404 0
M  V30 3392 N 344.397 -0.483516 -1.5 0
M  V30 3393 C 345.36 0.292965 -2.2732 0
M  V30 3394 C 346.36 0.909499 -1.32608 0
M  V30 3395 O 347.55 0.776745 -1.55924 0
M  V30 3396 C 344.682 1.41854 -3.09984 0
M  V30 3397 H 345.875 -0.385289 -2.97415 0
M  V30 3398 H 343.428 -0.237942 -1.54478 0
M  V30 3399 H 344.163 2.13148 -2.44414 0
M  V30 3400 H 343.948 0.982114 -3.79601 0
M  V30 3401 H 345.438 1.96597 -3.68429 0
M  V30 3402 N 345.875 1.56104 -0.216619 0
M  V30 3403 C 347.121 1.98466 0.417033 0
M  V30 3404 C 347.454 1.10403 1.59765 0
M  V30 3405 O 346.729 0.160632 1.93836 0
M  V30 3406 C 347.012 3.49769 0.85637 0
M  V30 3407 C 346.865 4.48606 -0.327546 0
M  V30 3408 C 348.184 4.05339 1.7143 0
M  V30 3409 H 345.303 0.721551 0.150112 0
M  V30 3410 H 347.945 1.87423 -0.311864 0
M  V30 3411 H 346.095 3.5931 1.47745 0
M  V30 3412 H 347.767 4.5108 -0.965618 0
M  V30 3413 H 346.01 4.22682 -0.975805 0
M  V30 3414 H 346.681 5.51995 0.0227149 0
M  V30 3415 H 349.157 3.98712 1.19031 0
M  V30 3416 H 348.033 5.11533 1.99061 0
M  V30 3417 H 348.294 3.51918 2.67593 0
M  V30 3418 N 347.353 -0.0568162 1.57498 0
M  V30 3419 C 348.581 -0.765626 1.92213 0
M  V30 3420 C 348.996 -1.70353 0.813961 0
M  V30 3421 O 348.353 -1.81268 -0.211701 0
M  V30 3422 C 348.404 -1.5465 3.2675 0
M  V30 3423 O 348.125 -0.646278 4.33307 0
M  V30 3424 C 349.626 -2.35497 3.75574 0
M  V30 3425 H 346.846 -0.216835 0.634999 0
M  V30 3426 H 349.39 -0.0226146 2.04487 0
M  V30 3427 H 347.545 -2.24165 3.15957 0
M  V30 3428 H 347.959 -1.19093 5.108 0
M  V30 3429 H 349.433 -2.85722 4.72299 0
M  V30 3430 H 349.91 -3.15692 3.05344 0
M  V30 3431 H 350.516 -1.7111 3.8936 0
M  V30 3432 N 348.832 -1.54138 -0.328536 0
M  V30 3433 C 350.08 -1.71765 -1.06496 0
M  V30 3434 C 350.401 -0.49149 -1.88704 0
M  V30 3435 O 349.671 0.494539 -1.89555 0
M  V30 3436 H 348.251 -0.633295 -0.396164 0
M  V30 3437 H 350.913 -1.91429 -0.366176 0
M  V30 3438 H 350.009 -2.5951 -1.73381 0
M  V30 3439 N 350.31 0.590341 -1.46126 0
M  V30 3440 C 351.273 1.68194 -1.55703 0
M  V30 3441 C 352.273 1.54808 -0.434868 0
M  V30 3442 O 353.463 1.59564 -0.698928 0
M  V30 3443 C 350.595 3.07575 -1.47005 0
M  V30 3444 H 351.788 1.61064 -2.52979 0
M  V30 3445 H 349.341 0.807541 -1.33823 0
M  V30 3446 H 350.076 3.20268 -0.509785 0
M  V30 3447 H 349.861 3.187 -2.28414 0
M  V30 3448 H 351.351 3.87055 -1.56776 0
M  V30 3449 N 351.788 1.33704 0.83433 0
M  V30 3450 C 353.013 1.28615 1.62705 0
M  V30 3451 C 353.438 -0.139242 1.87584 0
M  V30 3452 O 352.796 -1.09734 1.4432 0
M  V30 3453 C 352.844 2.07139 2.95171 0
M  V30 3454 O 351.948 1.4331 3.86699 0
M  V30 3455 H 351.289 0.44226 0.49528 0
M  V30 3456 H 353.819 1.76335 1.03766 0
M  V30 3457 H 353.829 2.18073 3.44831 0
M  V30 3458 H 352.504 3.10779 2.76386 0
M  V30 3459 H 351.081 1.4105 3.45195 0
M  V30 3460 N 353.266 -1.05314 1.17247 0
M  V30 3461 C 354.514 -1.77941 0.958194 0
M  V30 3462 C 354.835 -1.88089 -0.514556 0
M  V30 3463 O 354.105 -1.39676 -1.37359 0
M  V30 3464 H 352.685 -0.659116 0.351533 0
M  V30 3465 H 355.347 -1.27166 1.47699 0
M  V30 3466 H 354.443 -2.79663 1.38546 0
M  V30 3467 N 354.744 -0.972509 -1.24016 0
M  V30 3468 C 355.707 -0.511403 -2.23422 0
M  V30 3469 C 356.707 0.394679 -1.55881 0
M  V30 3470 O 357.897 0.189469 -1.73167 0
M  V30 3471 C 355.029 0.258769 -3.39916 0
M  V30 3472 H 356.222 -1.39024 -2.6573 0
M  V30 3473 H 353.775 -0.757585 -1.36713 0
M  V30 3474 H 354.51 1.1545 -3.03054 0
M  V30 3475 H 354.295 -0.391522 -3.9014 0
M  V30 3476 H 355.785 0.570244 -4.13688 0
M  V30 3477 N 356.222 1.38976 -0.743202 0
M  V30 3478 C 357.47 1.99948 -0.29417 0
M  V30 3479 C 357.791 1.59279 1.12495 0
M  V30 3480 O 357.061 0.844808 1.76748 0
M  V30 3481 H 355.641 0.739473 -0.105774 0
M  V30 3482 H 358.303 1.699 -0.954986 0
M  V30 3483 H 357.399 3.10142 -0.349056 0
M  V30 3484 N 357.7 0.491464 1.49741 0
M  V30 3485 C 358.647 -0.292027 2.28945 0
M  V30 3486 C 359.617 -0.968973 1.34908 0
M  V30 3487 O 360.802 -0.97748 1.6386 0
M  V30 3488 C 357.942 -1.35617 3.17336 0
M  V30 3489 C 357.055 -0.691957 4.26422 0
M  V30 3490 C 356.19 -1.73572 5.02042 0
M  V30 3491 C 355.229 -1.05286 6.02977 0
M  V30 3492 N 354.366 -2.0404 6.71798 0
M  V30 3493 H 359.206 0.389654 2.95442 0
M  V30 3494 H 356.743 0.204003 1.45679 0
M  V30 3495 H 358.701 -1.98502 3.66951 0
M  V30 3496 H 357.331 -2.00674 2.52844 0
M  V30 3497 H 356.383 0.0499523 3.80367 0
M  V30 3498 H 357.695 -0.153946 4.98562 0
M  V30 3499 H 356.849 -2.43987 5.55478 0
M  V30 3500 H 355.588 -2.30757 4.29654 0
M  V30 3501 H 354.593 -0.334446 5.48782 0
M  V30 3502 H 355.818 -0.487636 6.77347 0
M  V30 3503 H 353.764 -2.60205 6.02187 0
M  V30 3504 H 353.681 -1.55279 7.39881 0
M  V30 3505 H 354.949 -2.73772 7.29842 0
M  V30 3506 N 359.178 -1.55987 0.224894 0
M  V30 3507 C 360.406 -2.02784 -0.410665 0
M  V30 3508 C 360.821 -1.10464 -1.53112 0
M  V30 3509 O 360.178 -0.114871 -1.82138 0
M  V30 3510 C 360.229 -3.49087 -0.939165 0
M  V30 3511 O 359.95 -4.37887 0.136614 0
M  V30 3512 C 361.451 -4.11543 -1.64763 0
M  V30 3513 H 358.671 -0.663484 -0.100148 0
M  V30 3514 H 361.215 -2.01614 0.342326 0
M  V30 3515 H 359.37 -3.50861 -1.64242 0
M  V30 3516 H 359.784 -5.23849 -0.261155 0
M  V30 3517 H 361.258 -5.15673 -1.96939 0
M  V30 3518 H 361.735 -3.56736 -2.56195 0
M  V30 3519 H 362.341 -4.13629 -0.989503 0
M  V30 3520 N 360.656 0.0484629 -1.57525 0
M  V30 3521 C 361.884 0.755421 -1.92616 0
M  V30 3522 C 362.299 1.69919 -0.822984 0
M  V30 3523 O 361.656 1.81378 0.202085 0
M  V30 3524 C 361.707 1.52915 -3.27566 0
M  V30 3525 O 361.428 0.62329 -4.33644 0
M  V30 3526 C 362.929 2.33502 -3.76818 0
M  V30 3527 H 360.149 0.213465 -0.63614 0
M  V30 3528 H 362.693 0.0117698 -2.04497 0
M  V30 3529 H 360.848 2.22486 -3.17142 0
M  V30 3530 H 361.262 1.16383 -5.11425 0
M  V30 3531 H 362.736 2.83214 -4.73808 0
M  V30 3532 H 363.213 3.14068 -3.07014 0
M  V30 3533 H 363.819 1.69043 -3.90262 0
M  V30 3534 N 362.134 1.5431 0.320358 0
M  V30 3535 C 363.064 1.86912 1.3995 0
M  V30 3536 C 364.045 0.726211 1.53819 0
M  V30 3537 O 365.23 0.980233 1.67646 0
M  V30 3538 C 362.36 2.09932 2.7667 0
M  V30 3539 C 361.314 3.25776 2.77586 0
M  V30 3540 C 360.64 3.34173 4.17412 0
M  V30 3541 C 361.94 4.6335 2.41048 0
M  V30 3542 H 363.634 2.77292 1.12914 0
M  V30 3543 H 361.18 1.33421 0.541738 0
M  V30 3544 H 363.133 2.31324 3.52232 0
M  V30 3545 H 361.857 1.16304 3.0519 0
M  V30 3546 H 360.516 3.04276 2.04479 0
M  V30 3547 H 360.164 2.38098 4.43078 0
M  V30 3548 H 359.864 4.12033 4.18931 0
M  V30 3549 H 361.388 3.57803 4.94782 0
M  V30 3550 H 362.802 4.84602 3.06324 0
M  V30 3551 H 361.199 5.43782 2.53813 0
M  V30 3552 H 362.269 4.65381 1.36193 0
M  V30 3553 N 363.613 -0.582584 1.46437 0
M  V30 3554 C 364.543 -1.70187 1.59871 0
M  V30 3555 C 365.524 -1.64066 0.449042 0
M  V30 3556 O 366.709 -1.82081 0.6753 0
M  V30 3557 C 363.839 -3.08827 1.58881 0
M  V30 3558 C 362.793 -3.29779 2.72819 0
M  V30 3559 C 362.119 -4.68947 2.5689 0
M  V30 3560 C 363.419 -3.17601 4.1464 0
M  V30 3561 H 365.113 -1.592 2.53566 0
M  V30 3562 H 362.659 -0.764472 1.22032 0
M  V30 3563 H 364.612 -3.86951 1.66873 0
M  V30 3564 H 363.336 -3.20713 0.617306 0
M  V30 3565 H 361.995 -2.54054 2.64296 0
M  V30 3566 H 361.643 -4.77599 1.57823 0
M  V30 3567 H 361.343 -4.83919 3.33312 0
M  V30 3568 H 362.867 -5.4924 2.66773 0
M  V30 3569 H 364.281 -3.8557 4.24274 0
M  V30 3570 H 362.678 -3.44094 4.9165 0
M  V30 3571 H 363.748 -2.14681 4.34788 0
M  V30 3572 N 365.091 -1.34144 -0.827227 0
M  V30 3573 C 366.024 -1.19707 -1.94282 0
M  V30 3574 C 367.002 -0.0897256 -1.62352 0
M  V30 3575 O 368.186 -0.254095 -1.8678 0
M  V30 3576 C 365.313 -0.838646 -3.28153 0
M  V30 3577 C 364.359 -1.95514 -3.79047 0
M  V30 3578 S 365.192 -3.56793 -3.99323 0
M  V30 3579 C 366.348 -3.22983 -5.36127 0
M  V30 3580 H 366.581 -2.1414 -2.06231 0
M  V30 3581 H 364.114 -1.19121 -0.982321 0
M  V30 3582 H 366.072 -0.638637 -4.05502 0
M  V30 3583 H 364.733 0.0872776 -3.13979 0
M  V30 3584 H 363.926 -1.658 -4.75948 0
M  V30 3585 H 363.528 -2.11241 -3.08631 0
M  V30 3586 H 365.82 -2.74531 -6.19386 0
M  V30 3587 H 366.763 -4.19008 -5.70822 0
M  V30 3588 H 367.171 -2.59276 -5.01434 0
M  V30 3589 N 366.569 1.04691 -1.17803 0
M  V30 3590 C 367.797 1.81446 -0.99423 0
M  V30 3591 C 368.212 1.83174 0.457459 0
M  V30 3592 O 367.569 1.26265 1.31771 0
M  V30 3593 C 367.62 3.27334 -1.5341 0
M  V30 3594 O 367.341 3.25798 -2.92895 0
M  V30 3595 C 368.842 4.20759 -1.39559 0
M  V30 3596 H 366.062 0.571599 -0.351447 0
M  V30 3597 H 368.606 1.31982 -1.56208 0
M  V30 3598 H 366.761 3.74052 -1.00815 0
M  V30 3599 H 367.175 4.17144 -3.17949 0
M  V30 3600 H 368.649 5.21084 -1.82141 0
M  V30 3601 H 369.126 4.37856 -0.343394 0
M  V30 3602 H 369.732 3.79901 -1.91195 0
M  V30 3603 N 368.047 0.979072 1.23499 0
M  V30 3604 C 368.977 0.537606 2.27227 0
M  V30 3605 C 369.958 -0.428539 1.64613 0
M  V30 3606 O 371.143 -0.322191 1.91509 0
M  V30 3607 C 368.273 -0.162052 3.46922 0
M  V30 3608 C 367.227 0.721242 4.21879 0
M  V30 3609 C 366.553 -0.110555 5.34586 0
M  V30 3610 C 367.853 2.01141 4.82016 0
M  V30 3611 H 369.547 1.40462 2.64406 0
M  V30 3612 H 367.093 0.67684 1.27102 0
M  V30 3613 H 369.046 -0.482192 4.18632 0
M  V30 3614 H 367.77 -1.06351 3.08799 0
M  V30 3615 H 366.429 1.02482 3.51984 0
M  V30 3616 H 366.077 -1.0125 4.92704 0
M  V30 3617 H 365.777 0.477325 5.85658 0
M  V30 3618 H 367.301 -0.425107 6.09118 0
M  V30 3619 H 368.715 1.75612 5.45741 0
M  V30 3620 H 367.112 2.54695 5.43369 0
M  V30 3621 H 368.182 2.69909 4.02836 0
M  V30 3622 N 369.525 -1.3858 0.750561 0
M  V30 3623 C 370.488 -2.28836 0.129152 0
M  V30 3624 C 371.488 -1.47045 -0.650714 0
M  V30 3625 O 372.678 -1.6753 -0.477428 0
M  V30 3626 C 369.81 -3.30751 -0.825622 0
M  V30 3627 H 371.003 -2.85294 0.924516 0
M  V30 3628 H 368.556 -1.47489 0.517376 0
M  V30 3629 H 369.291 -2.79378 -1.64677 0
M  V30 3630 H 369.076 -3.91177 -0.268852 0
M  V30 3631 H 370.566 -3.98249 -1.2565 0
M  V30 3632 N 371.003 -0.499398 -1.49478 0
M  V30 3633 C 372.251 0.0455996 -2.02049 0
M  V30 3634 C 372.572 1.37633 -1.38138 0
M  V30 3635 O 371.842 1.8842 -0.536166 0
M  V30 3636 H 370.422 0.0198416 -0.746736 0
M  V30 3637 H 373.084 -0.656274 -1.83519 0
M  V30 3638 H 372.18 0.176445 -3.11601 0
M  V30 3639 N 372.481 1.55866 -0.233164 0
M  V30 3640 C 373.411 2.23783 0.666599 0
M  V30 3641 C 374.392 1.21343 1.19205 0
M  V30 3642 O 375.577 1.4996 1.23392 0
M  V30 3643 C 372.707 2.92671 1.86978 0
M  V30 3644 C 371.661 4.01682 1.47768 0
M  V30 3645 C 370.987 4.57926 2.76058 0
M  V30 3646 C 372.287 5.18126 0.658993 0
M  V30 3647 H 373.981 2.99232 0.100306 0
M  V30 3648 H 371.527 1.43924 0.046804 0
M  V30 3649 H 373.48 3.3888 2.50476 0
M  V30 3650 H 372.204 2.14688 2.46123 0
M  V30 3651 H 370.863 3.56222 0.866106 0
M  V30 3652 H 370.511 3.76659 3.33372 0
M  V30 3653 H 370.211 5.31505 2.50552 0
M  V30 3654 H 371.735 5.06859 3.40479 0
M  V30 3655 H 373.149 5.60644 1.19795 0
M  V30 3656 H 371.546 5.98009 0.500552 0
M  V30 3657 H 372.616 4.83763 -0.331856 0
M  V30 3658 N 373.959 -0.0401083 1.57549 0
M  V30 3659 C 374.889 -1.04384 2.08869 0
M  V30 3660 C 375.87 -1.38407 0.988817 0
M  V30 3661 O 377.055 -1.47483 1.26342 0
M  V30 3662 C 374.185 -2.34808 2.55895 0
M  V30 3663 C 373.139 -2.15057 3.70047 0
M  V30 3664 C 372.465 -3.51145 4.03239 0
M  V30 3665 C 373.765 -1.54576 4.98902 0
M  V30 3666 H 375.459 -0.616666 2.92981 0
M  V30 3667 H 373.005 -0.295184 1.40942 0
M  V30 3668 H 374.958 -3.05346 2.90417 0
M  V30 3669 H 373.682 -2.79565 1.68853 0
M  V30 3670 H 372.341 -1.46954 3.35857 0
M  V30 3671 H 371.989 -3.93529 3.13279 0
M  V30 3672 H 371.689 -3.38758 4.80122 0
M  V30 3673 H 373.213 -4.23062 4.40285 0
M  V30 3674 H 374.627 -2.15017 5.31451 0
M  V30 3675 H 373.024 -1.52796 5.80322 0
M  V30 3676 H 374.094 -0.51039 4.82206 0
M  V30 3677 N 375.437 -1.54477 -0.31217 0
M  V30 3678 C 376.848 -1.64344 -0.885891 0
M  V30 3679 C 377.199 -0.54485 -1.88483 0
M  V30 3680 O 376.324 0.320387 -2.14015 0
M  V30 3681 C 376.919 -2.97908 -1.61357 0
M  V30 3682 C 375.478 -3.09933 -2.13585 0
M  V30 3683 C 374.625 -2.59971 -0.964897 0
M  V30 3684 H 377.576 -1.58448 -0.0894528 0
M  V30 3685 H 377.597 -2.88706 -2.47848 0
M  V30 3686 H 377.109 -3.77845 -0.886277 0
M  V30 3687 H 375.21 -2.34694 -2.89395 0
M  V30 3688 H 375.323 -4.15916 -2.37804 0
M  V30 3689 H 373.687 -2.16147 -1.34731 0
M  V30 3690 H 374.47 -3.42376 -0.251742 0
M  V30 3691 N 376.915 0.57481 -1.46744 0
M  V30 3692 C 378.326 1.15695 -1.46532 0
M  V30 3693 C 378.677 1.95068 -0.210425 0
M  V30 3694 O 377.802 2.05241 0.685944 0
M  V30 3695 C 378.397 2.1048 -2.65487 0
M  V30 3696 C 376.956 2.64002 -2.68291 0
M  V30 3697 C 376.103 1.40026 -2.39349 0
M  V30 3698 H 379.054 0.362325 -1.54509 0
M  V30 3699 H 379.075 2.94074 -2.41455 0
M  V30 3700 H 378.587 1.52683 -3.56805 0
M  V30 3701 H 376.688 3.25646 -1.81067 0
M  V30 3702 H 376.801 3.06197 -3.68483 0
M  V30 3703 H 375.165 1.70106 -1.89568 0
M  V30 3704 H 375.948 0.840485 -3.32852 0
M  V30 3705 N 378.394 1.34581 0.820102 0
M  V30 3706 C 379.64 1.27285 1.57881 0
M  V30 3707 C 379.973 -0.156137 1.93571 0
M  V30 3708 O 379.248 -1.10222 1.60254 0
M  V30 3709 C 379.531 2.16639 2.87645 0
M  V30 3710 C 379.384 3.68088 2.58517 0
M  V30 3711 C 380.703 2.05378 3.8924 0
M  V30 3712 H 377.822 0.463714 0.572833 0
M  V30 3713 H 380.464 1.64859 0.944539 0
M  V30 3714 H 378.614 1.84725 3.41773 0
M  V30 3715 H 380.286 4.10382 2.10676 0
M  V30 3716 H 378.529 3.89038 1.91917 0
M  V30 3717 H 379.2 4.2598 3.51063 0
M  V30 3718 H 381.676 2.33404 3.44473 0
M  V30 3719 H 380.552 2.7012 4.77835 0
M  V30 3720 H 380.813 1.0316 4.29896 0
M  V30 3721 N 379.872 -1.04064 1.18357 0
M  V30 3722 C 380.822 -2.10393 0.878561 0
M  V30 3723 C 381.806 -1.60183 -0.151713 0
M  V30 3724 O 382.998 -1.76923 0.0523303 0
M  V30 3725 C 380.127 -3.4089 0.406096 0
M  V30 3726 C 379.213 -3.97866 1.46844 0
M  V30 3727 N 379.604 -4.28657 2.68489 0
M  V30 3728 C 377.902 -4.2574 1.32896 0
M  V30 3729 C 378.603 -4.74253 3.36836 0
M  V30 3730 N 377.579 -4.75068 2.64219 0
M  V30 3731 H 381.381 -2.32076 1.80327 0
M  V30 3732 H 378.895 -1.21818 1.07397 0
M  V30 3733 H 380.892 -4.16557 0.169088 0
M  V30 3734 H 379.552 -3.20633 -0.512275 0
M  V30 3735 H 380.563 -4.18304 3.05356 0
M  V30 3736 H 377.24 -4.1481 0.473134 0
M  V30 3737 H 378.63 -5.07096 4.40798 0
M  V30 3738 N 381.35 -0.985608 -1.22978 0
M  V30 3739 C 382.598 -0.656087 -1.91154 0
M  V30 3740 C 382.919 0.813561 -1.77218 0
M  V30 3741 O 382.189 1.58244 -1.1548 0
M  V30 3742 H 380.769 -0.239674 -0.707506 0
M  V30 3743 H 383.431 -1.25054 -1.49491 0
M  V30 3744 H 382.527 -0.912253 -2.9847 0
M  V30 3745 N 382.828 1.3818 -0.7579 0
M  V30 3746 C 384.244 1.5353 -0.435972 0
M  V30 3747 C 384.444 1.71961 1.05032 0
M  V30 3748 O 383.5 1.73307 1.83633 0
M  V30 3749 C 384.813 2.73989 -1.23898 0
M  V30 3750 C 386.361 2.87841 -1.22949 0
M  V30 3751 C 386.836 4.11266 -2.01554 0
M  V30 3752 N 388.327 4.18352 -1.98837 0
M  V30 3753 C 389.062 5.12856 -2.5645 0
M  V30 3754 N 388.558 6.13005 -3.22794 0
M  V30 3755 N 390.351 5.05238 -2.46356 0
M  V30 3756 H 382.502 1.24467 -1.7211 0
M  V30 3757 H 384.765 0.604982 -0.729864 0
M  V30 3758 H 384.471 2.66789 -2.29165 0
M  V30 3759 H 384.345 3.67294 -0.858764 0
M  V30 3760 H 386.732 2.9452 -0.184854 0
M  V30 3761 H 386.813 1.95534 -1.64924 0
M  V30 3762 H 386.457 4.05349 -3.06031 0
M  V30 3763 H 386.387 5.02661 -1.5697 0
M  V30 3764 H 388.878 3.46628 -1.50524 0
M  V30 3765 H 389.191 6.81619 -3.64165 0
M  V30 3766 H 387.536 6.13325 -3.2689 0
M  V30 3767 H 390.727 4.25938 -1.9415 0
M  V30 3768 H 390.9 5.78707 -2.91552 0
M  V30 3769 N 384.306 0.507319 1.49211 0
M  V30 3770 C 385.552 -0.0350047 2.0277 0
M  V30 3771 C 385.885 -1.3606 1.38569 0
M  V30 3772 O 385.16 -1.87321 0.523542 0
M  V30 3773 C 385.443 -0.180916 3.59645 0
M  V30 3774 C 385.296 1.16825 4.34364 0
M  V30 3775 C 386.615 -0.918558 4.30407 0
M  V30 3776 H 383.734 -0.0112473 0.736914 0
M  V30 3777 H 386.376 0.659956 1.7817 0
M  V30 3778 H 384.526 -0.772826 3.80736 0
M  V30 3779 H 386.198 1.79952 4.24753 0
M  V30 3780 H 384.441 1.75594 3.96673 0
M  V30 3781 H 385.112 1.01939 5.42506 0
M  V30 3782 H 387.588 -0.41649 4.1401 0
M  V30 3783 H 386.464 -0.989505 5.39907 0
M  V30 3784 H 386.725 -1.96373 3.96093 0
M  V30 3785 N 385.784 -1.5574 0.241426 0
M  V30 3786 C 386.714 -2.24133 -0.654722 0
M  V30 3787 C 387.695 -1.21974 -1.1856 0
M  V30 3788 O 388.88 -1.50612 -1.22595 0
M  V30 3789 C 386.01 -2.93659 -1.85423 0
M  V30 3790 C 384.964 -4.0246 -1.45636 0
M  V30 3791 C 384.29 -4.59383 -2.73626 0
M  V30 3792 C 385.59 -5.18468 -0.631506 0
M  V30 3793 H 387.284 -2.99281 -0.0844353 0
M  V30 3794 H 384.83 -1.43947 -0.0391707 0
M  V30 3795 H 386.783 -3.40203 -2.48676 0
M  V30 3796 H 385.507 -2.15991 -2.44981 0
M  V30 3797 H 384.166 -3.56676 -0.847202 0
M  V30 3798 H 383.814 -3.78422 -3.3137 0
M  V30 3799 H 383.514 -5.32826 -2.4773 0
M  V30 3800 H 385.038 -5.08658 -3.37786 0
M  V30 3801 H 386.452 -5.61272 -1.1682 0
M  V30 3802 H 384.849 -5.98266 -0.468831 0
M  V30 3803 H 385.919 -4.8358 0.357506 0
M  V30 3804 N 387.262 0.0317525 -1.57568 0
M  V30 3805 C 388.192 1.03274 -2.0942 0
M  V30 3806 C 389.173 1.3788 -0.996143 0
M  V30 3807 O 390.358 1.46811 -1.27122 0
M  V30 3808 C 387.488 2.33448 -2.57137 0
M  V30 3809 C 386.442 2.13091 -3.71182 0
M  V30 3810 C 385.768 3.49001 -4.05095 0
M  V30 3811 C 387.068 1.51928 -4.99715 0
M  V30 3812 H 388.762 0.60112 -2.93303 0
M  V30 3813 H 386.308 0.287705 -1.41097 0
M  V30 3814 H 388.261 3.03802 -2.92032 0
M  V30 3815 H 386.985 2.78665 -1.70333 0
M  V30 3816 H 385.644 1.45171 -3.36632 0
M  V30 3817 H 385.292 3.91862 -3.15362 0
M  V30 3818 H 384.992 3.36207 -4.81911 0
M  V30 3819 H 386.516 4.20721 -4.42522 0
M  V30 3820 H 387.93 2.12196 -5.32584 0
M  V30 3821 H 386.327 1.49716 -5.81124 0
M  V30 3822 H 387.397 0.484811 -4.8247 0
M  V30 3823 N 388.74 1.54641 0.303973 0
M  V30 3824 C 390.017 1.64455 1.05896 0
M  V30 3825 C 390.397 0.490923 2.05312 0
M  V30 3826 O 389.745 -0.512685 2.22674 0
M  V30 3827 C 389.955 3.02331 1.74347 0
M  V30 3828 C 391.303 3.59045 2.26653 0
M  V30 3829 O 392.327 3.04764 1.84384 0
M  V30 3830 O 391.186 4.54081 3.04093 0
M  V30 3831 H 388.28 0.666729 0.489287 0
M  V30 3832 H 390.826 1.66986 0.302298 0
M  V30 3833 H 389.598 3.77734 1.02142 0
M  V30 3834 H 389.221 3.03565 2.56777 0
M  V30 3835 N 390.218 -0.567019 1.47046 0
M  V30 3836 C 391.466 -1.322 1.52864 0
M  V30 3837 C 391.787 -1.94088 0.188388 0
M  V30 3838 O 391.057 -1.7941 -0.786693 0
M  V30 3839 H 389.637 -0.490894 0.563056 0
M  V30 3840 H 392.299 -0.662879 1.83281 0
M  V30 3841 H 391.395 -2.12062 2.2899 0
M  V30 3842 N 391.696 -1.35014 -0.812953 0
M  V30 3843 C 392.924 -1.31031 -1.6012 0
M  V30 3844 C 393.339 0.113558 -1.88458 0
M  V30 3845 O 392.696 1.06363 -1.48301 0
M  V30 3846 C 392.747 -2.10872 -2.93624 0
M  V30 3847 O 392.468 -3.47706 -2.66518 0
M  V30 3848 C 393.969 -2.14401 -3.88004 0
M  V30 3849 H 391.189 -0.45037 -0.497401 0
M  V30 3850 H 393.733 -1.77775 -1.01076 0
M  V30 3851 H 391.888 -1.67744 -3.492 0
M  V30 3852 H 392.302 -3.89097 -3.51715 0
M  V30 3853 H 393.776 -2.74669 -4.78812 0
M  V30 3854 H 394.253 -1.14105 -4.24119 0
M  V30 3855 H 394.859 -2.57662 -3.38364 0
M  V30 3856 N 393.175 1.03435 -1.18907 0
M  V30 3857 C 394.123 2.13703 -0.918353 0
M  V30 3858 C 395.117 1.68947 0.123767 0
M  V30 3859 O 396.323 1.79983 -0.0249701 0
M  V30 3860 H 392.698 0.698112 -0.279542 0
M  V30 3861 H 394.669 2.33731 -1.85506 0
M  V30 3862 C 393.418 3.44542 -0.467532 0
M  V30 3863 H 392.741 3.79394 -1.26095 0
M  V30 3864 H 394.181 4.22812 -0.317164 0
M  V30 3865 C 392.64 3.26829 0.817588 0
M  V30 3866 O 393.17 3.54975 1.88031 0
M  V30 3867 N 391.376 2.80139 0.772677 0
M  V30 3868 H 390.923 2.57434 -0.0923883 0
M  V30 3869 H 390.881 2.68668 1.63294 0
M  V30 3870 N 394.653 0.992116 1.22453 0
M  V30 3871 C 395.583 0.561677 2.26644 0
M  V30 3872 C 396.564 -0.411055 1.65059 0
M  V30 3873 O 397.749 -0.301861 1.9184 0
M  V30 3874 C 394.879 -0.125247 3.47074 0
M  V30 3875 C 393.833 0.765948 4.21091 0
M  V30 3876 C 393.159 -0.0538484 5.34673 0
M  V30 3877 C 394.459 2.06242 4.79856 0
M  V30 3878 H 396.153 1.43259 2.62902 0
M  V30 3879 H 393.699 0.690283 1.26377 0
M  V30 3880 H 395.652 -0.437764 4.1912 0
M  V30 3881 H 394.376 -1.03069 3.0991 0
M  V30 3882 H 393.035 1.0621 3.50878 0
M  V30 3883 H 392.683 -0.960188 4.9375 0
M  V30 3884 H 392.383 0.539415 5.85119 0
M  V30 3885 H 393.907 -0.360477 6.09535 0
M  V30 3886 H 395.321 1.8139 5.43848 0
M  V30 3887 H 393.718 2.60444 5.40638 0
M  V30 3888 H 394.788 2.74167 3.99951 0
M  V30 3889 N 396.131 -1.37776 0.765217 0
M  V30 3890 C 397.356 -2.04651 0.336537 0
M  V30 3891 C 397.781 -1.57337 -1.03086 0
M  V30 3892 O 397.139 -0.730621 -1.65927 0
M  V30 3893 C 397.187 -3.58577 0.381468 0
M  V30 3894 O 396.291 -4.07706 -0.62042 0
M  V30 3895 H 395.632 -0.64756 0.146838 0
M  V30 3896 H 398.162 -1.76221 1.03959 0
M  V30 3897 H 398.172 -4.07314 0.236448 0
M  V30 3898 H 396.847 -3.9237 1.37907 0
M  V30 3899 H 395.424 -3.70306 -0.439056 0
M  V30 3900 N 397.609 -0.515225 -1.4894 0
M  V30 3901 C 398.886 0.0879088 -1.95402 0
M  V30 3902 C 399.266 1.52745 -1.45712 0
M  V30 3903 O 398.614 2.18238 -0.677093 0
M  V30 3904 C 398.824 -0.0141055 -3.48997 0
M  V30 3905 C 400.172 0.152646 -4.24326 0
M  V30 3906 O 401.196 0.0604025 -3.56149 0
M  V30 3907 O 400.055 0.34384 -5.45417 0
M  V30 3908 H 397.149 0.0874636 -0.822362 0
M  V30 3909 H 399.695 -0.578775 -1.59525 0
M  V30 3910 H 398.467 -1.01745 -3.77841 0
M  V30 3911 H 398.09 0.692091 -3.9153 0
M  V30 3912 N 399.087 1.5561 -0.249682 0
M  V30 3913 C 400.334 1.99011 0.374287 0
M  V30 3914 C 400.662 1.13785 1.57744 0
M  V30 3915 O 399.917 0.189326 1.94782 0
M  V30 3916 C 400.216 3.4775 0.824887 0
M  V30 3917 C 399.882 4.50086 -0.270819 0
M  V30 3918 C 398.544 4.77791 -0.571746 0
M  V30 3919 C 400.896 5.11312 -1.01041 0
M  V30 3920 C 398.224 5.63997 -1.61629 0
M  V30 3921 C 400.576 5.98651 -2.0445 0
M  V30 3922 C 399.24 6.24688 -2.35204 0
M  V30 3923 H 398.51 0.728233 0.136961 0
M  V30 3924 H 401.157 1.88122 -0.358087 0
M  V30 3925 H 399.462 3.55985 1.63651 0
M  V30 3926 H 401.159 3.78721 1.31799 0
M  V30 3927 H 397.749 4.28592 -0.026136 0
M  V30 3928 H 401.933 4.89953 -0.791177 0
M  V30 3929 H 397.189 5.82425 -1.85988 0
M  V30 3930 H 401.363 6.45135 -2.62248 0
M  V30 3931 H 398.99 6.91281 -3.16282 0
M  V30 3932 N 400.565 -0.0233959 1.57583 0
M  V30 3933 C 401.842 -0.748794 1.807 0
M  V30 3934 C 402.222 -1.9327 0.849106 0
M  V30 3935 O 401.57 -2.28247 -0.107468 0
M  V30 3936 C 401.78 -1.17651 3.28571 0
M  V30 3937 C 403.128 -1.59008 3.93702 0
M  V30 3938 O 404.152 -1.27094 3.32755 0
M  V30 3939 O 403.011 -2.18264 5.01022 0
M  V30 3940 H 400.105 -0.362578 0.743281 0
M  V30 3941 H 402.651 0.000261958 1.697 0
M  V30 3942 H 401.423 -0.331603 3.89892 0
M  V30 3943 H 401.046 -1.98541 3.44481 0
M  V30 3944 N 402.043 -1.548 -0.295768 0
M  V30 3945 C 402.953 -1.89177 -1.38742 0
M  V30 3946 C 403.969 -0.786481 -1.55211 0
M  V30 3947 O 405.145 -1.08344 -1.69775 0
M  V30 3948 C 402.21 -2.13663 -2.73036 0
M  V30 3949 C 401.271 -3.37349 -2.65508 0
M  V30 3950 C 400.504 -3.60658 -3.93398 0
M  V30 3951 O 400.727 -2.86882 -4.93006 0
M  V30 3952 O 399.661 -4.54179 -3.94975 0
M  V30 3953 H 403.487 -2.82059 -1.12589 0
M  V30 3954 H 401.072 -1.41056 -0.492295 0
M  V30 3955 H 402.954 -2.3094 -3.52484 0
M  V30 3956 H 401.629 -1.23967 -2.99022 0
M  V30 3957 H 400.536 -3.25431 -1.84514 0
M  V30 3958 H 401.869 -4.27192 -2.44474 0
M  V30 3959 N 403.521 0.559213 -1.47345 0
M  V30 3960 C 404.798 1.31997 -1.44348 0
M  V30 3961 C 405.178 2.1064 -0.139358 0
M  V30 3962 O 404.526 2.1091 0.879153 0
M  V30 3963 C 404.736 2.22618 -2.68779 0
M  V30 3964 C 406.084 2.83701 -3.1591 0
M  V30 3965 O 407.108 2.32921 -2.69493 0
M  V30 3966 O 405.967 3.75993 -3.966 0
M  V30 3967 H 403.061 0.594251 -0.575147 0
M  V30 3968 H 405.607 0.578282 -1.59543 0
M  V30 3969 H 404.379 1.64093 -3.55231 0
M  V30 3970 H 404.002 3.04085 -2.5616 0
M  V30 3971 N 404.999 1.35443 0.805782 0
M  V30 3972 C 405.909 1.30546 1.94923 0
M  V30 3973 C 406.925 0.210233 1.72725 0
M  V30 3974 O 408.101 0.43975 1.9654 0
M  V30 3975 C 405.166 1.07782 3.29521 0
M  V30 3976 C 404.227 2.26625 3.64609 0
M  V30 3977 C 403.46 2.04938 4.92784 0
M  V30 3978 O 403.683 1.01624 5.61274 0
M  V30 3979 O 402.617 2.9232 5.26149 0
M  V30 3980 H 406.443 2.26779 2.02002 0
M  V30 3981 H 404.028 1.15823 0.943682 0
M  V30 3982 H 405.91 0.969392 4.10098 0
M  V30 3983 H 404.585 0.146003 3.23371 0
M  V30 3984 H 403.492 2.43033 2.84404 0
M  V30 3985 H 404.825 3.18257 3.75464 0
M  V30 3986 N 406.477 -1.02803 1.19454 0
M  V30 3987 C 407.407 -2.12999 0.956758 0
M  V30 3988 C 408.388 -1.69743 -0.110188 0
M  V30 3989 O 409.573 -1.94148 0.0450038 0
M  V30 3990 C 406.703 -3.43746 0.495553 0
M  V30 3991 C 405.657 -4.00688 1.50443 0
M  V30 3992 C 404.983 -5.27067 0.900275 0
M  V30 3993 C 406.283 -4.35397 2.8849 0
M  V30 3994 H 407.977 -2.33148 1.87836 0
M  V30 3995 H 405.523 -1.12045 0.904539 0
M  V30 3996 H 407.476 -4.2021 0.316493 0
M  V30 3997 H 406.2 -3.23321 -0.461646 0
M  V30 3998 H 404.859 -3.2632 1.67065 0
M  V30 3999 H 404.507 -5.02959 -0.064503 0
M  V30 4000 H 404.207 -5.66127 1.57397 0
M  V30 4001 H 405.731 -6.06196 0.73203 0
M  V30 4002 H 407.145 -5.02795 2.75446 0
M  V30 4003 H 405.542 -4.85541 3.52661 0
M  V30 4004 H 406.612 -3.44662 3.41081 0
M  V30 4005 N 407.956 -0.998596 -1.21925 0
M  V30 4006 C 409.372 -0.710303 -1.42923 0
M  V30 4007 C 409.572 0.716933 -1.88314 0
M  V30 4008 O 408.628 1.48712 -2.04062 0
M  V30 4009 C 409.941 -1.72072 -2.466 0
M  V30 4010 C 411.489 -1.73681 -2.60392 0
M  V30 4011 C 411.964 -2.73601 -3.67296 0
M  V30 4012 N 413.455 -2.7223 -3.7476 0
M  V30 4013 C 414.19 -3.46206 -4.57087 0
M  V30 4014 N 413.686 -4.29802 -5.43362 0
M  V30 4015 N 415.479 -3.34886 -4.51451 0
M  V30 4016 H 407.63 -1.92028 -0.9077 0
M  V30 4017 H 409.893 -0.828487 -0.460775 0
M  V30 4018 H 409.599 -2.74231 -2.20206 0
M  V30 4019 H 409.473 -1.51818 -3.45299 0
M  V30 4020 H 411.86 -0.722173 -2.86127 0
M  V30 4021 H 411.941 -1.98005 -1.61949 0
M  V30 4022 H 411.585 -3.75217 -3.42307 0
M  V30 4023 H 411.515 -2.46545 -4.65321 0
M  V30 4024 H 414.006 -2.11576 -3.1312 0
M  V30 4025 H 414.319 -4.83061 -6.03218 0
M  V30 4026 H 412.664 -4.33887 -5.42925 0
M  V30 4027 H 415.855 -2.69015 -3.83078 0
M  V30 4028 H 416.028 -3.92796 -5.15379 0
M  V30 4029 N 409.434 1.37368 -0.772513 0
M  V30 4030 C 410.659 2.0447 -0.347386 0
M  V30 4031 C 411.084 1.57882 1.0225 0
M  V30 4032 O 410.442 0.73941 1.65537 0
M  V30 4033 C 410.49 3.58369 -0.400479 0
M  V30 4034 O 409.594 4.0803 0.598789 0
M  V30 4035 H 408.935 0.646773 -0.15027 0
M  V30 4036 H 411.465 1.75667 -1.04892 0
M  V30 4037 H 411.475 4.07183 -0.258045 0
M  V30 4038 H 410.15 3.91633 -1.39986 0
M  V30 4039 H 408.727 3.70534 0.419411 0
M  V30 4040 N 410.912 0.523116 1.48665 0
M  V30 4041 C 411.875 -0.232592 2.28017 0
M  V30 4042 C 412.875 -0.874021 1.34972 0
M  V30 4043 O 414.065 -0.735132 1.57929 0
M  V30 4044 C 411.197 -1.33586 3.13636 0
M  V30 4045 H 412.39 0.464008 2.96289 0
M  V30 4046 H 409.943 0.278816 1.53793 0
M  V30 4047 H 410.678 -2.06593 2.4998 0
M  V30 4048 H 410.463 -0.881125 3.82071 0
M  V30 4049 H 411.953 -1.86759 3.73511 0
M  V30 4050 N 412.39 -1.55475 0.257931 0
M  V30 4051 C 413.636 -1.99502 -0.364266 0
M  V30 4052 C 413.969 -1.146 -1.56782 0
M  V30 4053 O 413.244 -0.211968 -1.93342 0
M  V30 4054 C 413.527 -3.51917 -0.763333 0
M  V30 4055 C 413.38 -4.4758 0.446371 0
M  V30 4056 C 414.699 -4.09742 -1.60623 0
M  V30 4057 H 411.818 -0.725277 -0.130929 0
M  V30 4058 H 414.46 -1.8653 0.361446 0
M  V30 4059 H 412.61 -3.63101 -1.38166 0
M  V30 4060 H 414.282 -4.48362 1.08487 0
M  V30 4061 H 412.525 -4.19947 1.08753 0
M  V30 4062 H 413.196 -5.51862 0.123645 0
M  V30 4063 H 415.672 -4.01727 -1.08418 0
M  V30 4064 H 414.548 -5.16631 -1.85429 0
M  V30 4065 H 414.809 -3.58889 -2.58169 0
M  V30 4066 N 413.868 0.0150385 -1.57593 0
M  V30 4067 C 415.093 0.718067 -1.94573 0
M  V30 4068 C 415.518 1.6734 -0.859005 0
M  V30 4069 O 414.876 1.80362 0.184147 0
M  V30 4070 C 414.924 1.43918 -3.30636 0
M  V30 4071 O 414.028 2.55299 -3.23876 0
M  V30 4072 H 413.369 0.192125 -0.635597 0
M  V30 4073 H 415.899 -0.0336708 -2.04572 0
M  V30 4074 H 415.909 1.80598 -3.65853 0
M  V30 4075 H 414.584 0.738619 -4.09289 0
M  V30 4076 H 413.161 2.21058 -3.00312 0
M  V30 4077 N 415.346 1.54954 0.287554 0
M  V30 4078 C 416.593 1.74873 1.02106 0
M  V30 4079 C 416.921 0.541829 1.86801 0
M  V30 4080 O 416.176 -0.475992 1.89823 0
M  V30 4081 C 416.475 2.99833 1.94512 0
M  V30 4082 C 416.141 4.33029 1.25686 0
M  V30 4083 C 414.803 4.69233 1.06649 0
M  V30 4084 C 417.155 5.15542 0.765913 0
M  V30 4085 C 414.483 5.85518 0.372222 0
M  V30 4086 C 416.835 6.32542 0.0853101 0
M  V30 4087 C 415.499 6.67398 -0.1169 0
M  V30 4088 H 414.769 0.639906 0.373632 0
M  V30 4089 H 417.416 1.89219 0.294665 0
M  V30 4090 H 415.721 2.80325 2.73725 0
M  V30 4091 H 417.418 3.1244 2.51361 0
M  V30 4092 H 414.008 4.04564 1.41512 0
M  V30 4093 H 418.192 4.88059 0.90066 0
M  V30 4094 H 413.448 6.11057 0.204695 0
M  V30 4095 H 417.622 6.95741 -0.302936 0
M  V30 4096 H 415.249 7.57357 -0.656859 0
M  V30 4097 N 416.824 -0.551391 1.4764 0
M  V30 4098 C 418.071 -1.3083 1.54563 0
M  V30 4099 C 418.399 -1.93359 0.210361 0
M  V30 4100 O 417.654 -1.78721 -0.797332 0
M  V30 4101 C 417.953 -2.43469 2.61644 0
M  V30 4102 C 417.619 -1.98732 4.04742 0
M  V30 4103 C 416.281 -1.86248 4.43695 0
M  V30 4104 C 418.633 -1.64659 4.94507 0
M  V30 4105 C 415.961 -1.37995 5.70241 0
M  V30 4106 C 418.313 -1.17875 6.21521 0
M  V30 4107 C 416.977 -1.03992 6.5935 0
M  V30 4108 H 416.247 -0.478741 0.565587 0
M  V30 4109 H 418.894 -0.617697 1.81264 0
M  V30 4110 H 417.199 -3.18109 2.28722 0
M  V30 4111 H 418.896 -3.01642 2.64222 0
M  V30 4112 H 415.486 -2.09393 3.73968 0
M  V30 4113 H 419.67 -1.73174 4.65107 0
M  V30 4114 H 414.926 -1.25915 5.98294 0
M  V30 4115 H 419.1 -0.905739 6.90485 0
M  V30 4116 H 416.727 -0.663794 7.57296 0
M  V30 4117 N 418.302 -1.35869 -0.798587 0
M  V30 4118 C 419.265 -1.29307 -1.89242 0
M  V30 4119 C 420.265 -0.202747 -1.59517 0
M  V30 4120 O 421.455 -0.456957 -1.681 0
M  V30 4121 C 418.587 -1.00229 -3.25833 0
M  V30 4122 H 419.78 -2.26576 -1.96478 0
M  V30 4123 H 417.333 -1.20509 -0.995358 0
M  V30 4124 H 418.068 -0.033801 -3.24282 0
M  V30 4125 H 417.853 -1.79121 -3.48795 0
M  V30 4126 H 419.343 -0.98219 -4.05885 0
M  V30 4127 N 419.78 1.02168 -1.19998 0
M  V30 4128 C 420.69 2.14069 -0.959774 0
M  V30 4129 C 421.706 1.73804 0.082655 0
M  V30 4130 O 422.882 2.01133 -0.103633 0
M  V30 4131 C 419.947 3.42936 -0.509459 0
M  V30 4132 C 419.008 3.97474 -1.62213 0
M  V30 4133 C 418.241 5.2019 -1.19321 0
M  V30 4134 O 418.464 5.70369 -0.0597726 0
M  V30 4135 O 417.398 5.67749 -1.99863 0
M  V30 4136 H 421.224 2.37199 -1.89658 0
M  V30 4137 H 418.809 1.12469 -0.983411 0
M  V30 4138 H 420.691 4.20551 -0.267322 0
M  V30 4139 H 419.366 3.21234 0.398821 0
M  V30 4140 H 418.273 3.21161 -1.9185 0
M  V30 4141 H 419.606 4.23555 -2.50723 0
M  V30 4142 N 421.258 1.00505 1.21394 0
M  V30 4143 C 422.535 0.603277 1.86064 0
M  V30 4144 C 422.915 -0.919095 1.90042 0
M  V30 4145 O 422.263 -1.80607 1.39977 0
M  V30 4146 C 422.473 1.23772 3.26315 0
M  V30 4147 C 423.821 1.34586 4.02705 0
M  V30 4148 O 424.845 1.19304 3.35626 0
M  V30 4149 O 423.704 1.59169 5.22807 0
M  V30 4150 H 420.798 0.206634 0.800769 0
M  V30 4151 H 423.344 1.1017 1.29076 0
M  V30 4152 H 422.116 2.27848 3.18121 0
M  V30 4153 H 421.739 0.725648 3.90922 0
M  V30 4154 N 422.737 -1.36956 0.779787 0
M  V30 4155 C 423.7 -2.2851 0.177662 0
M  V30 4156 C 424.7 -1.48393 -0.619377 0
M  V30 4157 O 425.89 -1.68505 -0.441785 0
M  V30 4158 C 423.022 -3.32428 -0.755279 0
M  V30 4159 H 424.215 -2.83269 0.984823 0
M  V30 4160 H 421.768 -1.46358 0.548544 0
M  V30 4161 H 422.503 -2.82808 -1.58714 0
M  V30 4162 H 422.288 -3.91659 -0.185817 0
M  V30 4163 H 423.778 -4.00824 -1.17174 0
M  V30 4164 N 424.215 -0.530993 -1.48385 0
M  V30 4165 C 425.165 0.251092 -2.26613 0
M  V30 4166 C 426.149 0.908977 -1.32765 0
M  V30 4167 O 427.341 0.811616 -1.57295 0
M  V30 4168 C 424.47 1.29677 -3.17866 0
M  V30 4169 C 423.556 0.643627 -4.19188 0
M  V30 4170 N 423.947 -0.271223 -5.05072 0
M  V30 4171 C 422.245 0.900711 -4.3681 0
M  V30 4172 C 422.946 -0.648109 -5.78078 0
M  V30 4173 N 421.922 -0.00895987 -5.43599 0
M  V30 4174 H 425.724 -0.452702 -2.90393 0
M  V30 4175 H 423.238 -0.349091 -1.58604 0
M  V30 4176 H 425.235 1.87079 -3.72568 0
M  V30 4177 H 423.895 2.00193 -2.55642 0
M  V30 4178 H 424.906 -0.643883 -5.13882 0
M  V30 4179 H 421.583 1.59636 -3.85775 0
M  V30 4180 H 422.973 -1.39833 -6.57188 0
M  V30 4181 N 425.693 1.55336 -0.266172 0
M  V30 4182 C 426.942 1.98574 0.353749 0
M  V30 4183 C 427.255 1.15789 1.57646 0
M  V30 4184 O 428.461 1.49129 2.26876 0
M  V30 4185 C 426.917 3.53403 0.680747 0
M  V30 4186 C 426.525 4.44953 -0.52165 0
M  V30 4187 C 428.269 4.05251 1.26379 0
M  V30 4188 C 426.176 5.91156 -0.169736 0
M  V30 4189 H 425.106 0.741643 0.135949 0
M  V30 4190 H 427.757 1.79743 -0.369421 0
M  V30 4191 H 426.139 3.68001 1.46257 0
M  V30 4192 H 427.313 4.42121 -1.29869 0
M  V30 4193 H 425.628 4.03691 -1.02093 0
M  V30 4194 H 428.225 5.12021 1.54074 0
M  V30 4195 H 428.568 3.53749 2.19471 0
M  V30 4196 H 429.101 3.94057 0.544447 0
M  V30 4197 H 425.84 6.46736 -1.0683 0
M  V30 4198 H 425.36 5.97079 0.570717 0
M  V30 4199 H 427.039 6.4655 0.241245 0
M  V30 4200 N 427.171 -0.0066808 1.57599 0
M  V30 4201 C 428.418 -0.69292 1.90276 0
M  V30 4202 C 428.746 -1.74148 0.866192 0
M  V30 4203 O 428.001 -1.95268 -0.129933 0
M  V30 4204 C 428.3 -1.37939 3.29708 0
M  V30 4205 C 427.966 -0.464679 4.48499 0
M  V30 4206 C 426.628 -0.212809 4.80729 0
M  V30 4207 C 428.98 0.16551 5.20937 0
M  V30 4208 C 426.308 0.677653 5.82773 0
M  V30 4209 C 428.66 1.04381 6.23929 0
M  V30 4210 C 427.324 1.30492 6.54621 0
M  V30 4211 H 426.594 -0.253558 0.696268 0
M  V30 4212 H 429.241 0.0474123 1.91441 0
M  V30 4213 H 427.546 -2.1936 3.24636 0
M  V30 4214 H 429.243 -1.9163 3.52249 0
M  V30 4215 H 425.833 -0.671153 4.23313 0
M  V30 4216 H 430.017 -0.0160756 4.96297 0
M  V30 4217 H 425.273 0.88803 6.04917 0
M  V30 4218 H 429.447 1.53851 6.79193 0
M  V30 4219 H 427.074 1.99662 7.33512 0
M  V30 4220 N 428.649 -1.55105 -0.279332 0
M  V30 4221 C 429.612 -1.86783 -1.32834 0
M  V30 4222 C 430.612 -0.74199 -1.42657 0
M  V30 4223 O 431.802 -1.0102 -1.41918 0
M  V30 4224 C 428.934 -2.06746 -2.71052 0
M  V30 4225 H 430.127 -2.8055 -1.05979 0
M  V30 4226 H 427.68 -1.47499 -0.517087 0
M  V30 4227 H 428.415 -1.15339 -3.03097 0
M  V30 4228 H 428.2 -2.88711 -2.65309 0
M  V30 4229 H 429.69 -2.32549 -3.46858 0
M  V30 4230 N 430.127 0.543554 -1.4793 0
M  V30 4231 C 431.355 1.32516 -1.58894 0
M  V30 4232 C 431.77 1.87215 -0.244131 0
M  V30 4233 O 431.127 1.65709 0.764652 0
M  V30 4234 C 431.178 2.48554 -2.62494 0
M  V30 4235 O 430.899 1.96112 -3.91755 0
M  V30 4236 C 432.4 3.40572 -2.8377 0
M  V30 4237 H 429.62 0.403472 -0.536145 0
M  V30 4238 H 432.164 0.657106 -1.93655 0
M  V30 4239 H 430.319 3.1127 -2.30629 0
M  V30 4240 H 430.733 2.71967 -4.4848 0
M  V30 4241 H 432.207 4.18375 -3.60093 0
M  V30 4242 H 432.684 3.94965 -1.92092 0
M  V30 4243 H 433.29 2.8366 -3.16887 0
M  V30 4244 N 431.605 1.3629 0.791371 0
M  V30 4245 C 432.833 1.33562 1.58016 0
M  V30 4246 C 433.248 -0.0835616 1.88615 0
M  V30 4247 O 432.605 -1.0399 1.49974 0
M  V30 4248 C 432.656 2.15517 2.90232 0
M  V30 4249 O 432.377 3.51902 2.60953 0
M  V30 4250 C 433.878 2.20546 3.84544 0
M  V30 4251 H 431.098 0.458226 0.490173 0
M  V30 4252 H 433.642 1.79361 0.982345 0
M  V30 4253 H 431.797 1.73278 3.46487 0
M  V30 4254 H 432.211 3.94644 3.4548 0
M  V30 4255 H 433.685 2.82252 4.74382 0
M  V30 4256 H 434.162 1.20838 4.2225 0
M  V30 4257 H 434.768 2.63013 3.34222 0
M  V30 4258 N 433.083 -1.0153 1.20538 0
M  V30 4259 C 434.329 -1.75408 1.01783 0
M  V30 4260 C 434.662 -1.88943 -0.448814 0
M  V30 4261 O 433.937 -1.4162 -1.33319 0
M  V30 4262 C 434.22 -3.17255 1.70356 0
M  V30 4263 C 434.073 -3.11508 3.24473 0
M  V30 4264 C 435.392 -4.15955 1.43769 0
M  V30 4265 H 432.511 -0.636713 0.371167 0
M  V30 4266 H 435.153 -1.18436 1.4857 0
M  V30 4267 H 433.303 -3.65898 1.30578 0
M  V30 4268 H 434.975 -2.70658 3.73553 0
M  V30 4269 H 433.218 -2.4887 3.55311 0
M  V30 4270 H 433.889 -4.11784 3.67611 0
M  V30 4271 H 436.365 -3.75973 1.7828 0
M  V30 4272 H 435.241 -5.13368 1.94279 0
M  V30 4273 H 435.502 -4.40586 0.365564 0
M  V30 4274 N 434.561 -1.01147 -1.20859 0
M  V30 4275 C 435.977 -0.725422 -1.42161 0
M  V30 4276 C 436.177 0.696919 -1.89064 0
M  V30 4277 O 435.233 1.46539 -2.05627 0
M  V30 4278 C 436.546 -1.74678 -2.44761 0
M  V30 4279 C 438.094 -1.76433 -2.58535 0
M  V30 4280 C 438.569 -2.77481 -3.64374 0
M  V30 4281 N 440.06 -2.76189 -3.71852 0
M  V30 4282 C 440.795 -3.51035 -4.53389 0
M  V30 4283 N 440.291 -4.35541 -5.38773 0
M  V30 4284 N 442.084 -3.39655 -4.47873 0
M  V30 4285 H 434.235 -1.92979 -0.887282 0
M  V30 4286 H 436.498 -0.833327 -0.451962 0
M  V30 4287 H 436.204 -2.76551 -2.17285 0
M  V30 4288 H 436.078 -1.55472 -3.43669 0
M  V30 4289 H 438.465 -0.75248 -2.85345 0
M  V30 4290 H 438.546 -1.99712 -1.5984 0
M  V30 4291 H 438.19 -3.78827 -3.38308 0
M  V30 4292 H 438.12 -2.51466 -4.6268 0
M  V30 4293 H 440.611 -2.14885 -3.10858 0
M  V30 4294 H 440.924 -4.89432 -5.98061 0
M  V30 4295 H 439.269 -4.39621 -5.38292 0
M  V30 4296 H 442.46 -2.73063 -3.80203 0
M  V30 4297 H 442.633 -3.9824 -5.11184 0
M  V30 4298 N 436.039 1.36541 -0.78704 0
M  V30 4299 C 437.316 1.9355 -0.282424 0
M  V30 4300 C 437.696 1.71919 1.22503 0
M  V30 4301 O 437.044 1.07677 2.01539 0
M  V30 4302 C 437.254 3.4246 -0.672462 0
M  V30 4303 C 438.602 4.19582 -0.650863 0
M  V30 4304 O 439.626 3.50889 -0.612789 0
M  V30 4305 O 438.485 5.42106 -0.691623 0
M  V30 4306 H 435.579 0.824091 -0.0693 0
M  V30 4307 H 438.125 1.45736 -0.869423 0
M  V30 4308 H 436.897 3.51851 -1.71221 0
M  V30 4309 H 436.52 3.97556 -0.0592211 0
M  V30 4310 N 437.518 0.538854 1.48102 0
M  V30 4311 C 438.466 -0.232325 2.31437 0
M  V30 4312 C 439.46 -0.927004 1.41785 0
M  V30 4313 O 440.666 -0.850378 1.58646 0
M  V30 4314 H 437.041 -0.0937916 0.746128 0
M  V30 4315 H 439.012 0.489986 2.9435 0
M  V30 4316 C 437.761 -1.26074 3.24038 0
M  V30 4317 H 437.084 -0.735609 3.92974 0
M  V30 4318 H 438.524 -1.77157 3.85216 0
M  V30 4319 C 436.983 -2.29902 2.46265 0
M  V30 4320 O 437.513 -3.36502 2.19384 0
M  V30 4321 N 435.719 -2.03348 2.07601 0
M  V30 4322 H 435.266 -1.16675 2.29662 0
M  V30 4323 H 435.224 -2.73038 1.55877 0
M  V30 4324 N 438.996 -1.55193 0.274407 0
M  V30 4325 C 439.926 -2.25471 -0.607032 0
M  V30 4326 C 440.907 -1.24461 -1.15946 0
M  V30 4327 O 442.092 -1.53179 -1.19373 0
M  V30 4328 C 439.222 -2.97526 -1.79153 0
M  V30 4329 C 438.176 -4.05459 -1.37067 0
M  V30 4330 C 437.502 -4.65084 -2.6382 0
M  V30 4331 C 438.802 -5.19691 -0.521389 0
M  V30 4332 H 440.496 -2.99393 -0.0209343 0
M  V30 4333 H 438.042 -1.43997 -0.00862866 0
M  V30 4334 H 439.995 -3.45402 -2.41404 0
M  V30 4335 H 438.719 -2.21138 -2.40344 0
M  V30 4336 H 437.378 -3.58393 -0.771355 0
M  V30 4337 H 437.026 -3.85365 -3.23268 0
M  V30 4338 H 436.726 -5.37961 -2.36372 0
M  V30 4339 H 438.25 -5.15708 -3.26921 0
M  V30 4340 H 439.664 -5.63623 -1.04889 0
M  V30 4341 H 438.061 -5.99126 -0.341825 0
M  V30 4342 H 439.131 -4.82713 0.46 0
M  V30 4343 N 440.474 -0.00167713 -1.576 0
M  V30 4344 C 441.404 0.988091 -2.11563 0
M  V30 4345 C 442.385 1.35736 -1.02517 0
M  V30 4346 O 443.57 1.44082 -1.30208 0
M  V30 4347 C 440.7 2.27941 -2.62031 0
M  V30 4348 C 439.654 2.0517 -3.75619 0
M  V30 4349 C 438.98 3.4033 -4.12407 0
M  V30 4350 C 440.28 1.41294 -5.02825 0
M  V30 4351 H 441.974 0.538771 -2.94513 0
M  V30 4352 H 439.52 0.257712 -1.41675 0
M  V30 4353 H 441.473 2.97539 -2.9841 0
M  V30 4354 H 440.197 2.74989 -1.76205 0
M  V30 4355 H 438.856 1.37998 -3.39635 0
M  V30 4356 H 438.504 3.85085 -3.23603 0
M  V30 4357 H 438.204 3.25909 -4.88935 0
M  V30 4358 H 439.728 4.1124 -4.51347 0
M  V30 4359 H 441.142 2.00851 -5.36965 0
M  V30 4360 H 439.539 1.37356 -5.84169 0
M  V30 4361 H 440.609 0.382362 -4.8339 0
M  V30 4362 N 441.952 1.55251 0.271103 0
M  V30 4363 C 443.18 1.79974 1.02064 0
M  V30 4364 C 443.595 0.574003 1.79863 0
M  V30 4365 O 442.952 -0.456962 1.76686 0
M  V30 4366 C 443.003 3.02603 1.97772 0
M  V30 4367 O 442.724 4.20443 1.23124 0
M  V30 4368 C 444.225 3.39944 2.84522 0
M  V30 4369 H 441.445 0.599489 0.301419 0
M  V30 4370 H 443.989 2.02268 0.301313 0
M  V30 4371 H 442.144 2.8243 2.65165 0
M  V30 4372 H 442.558 4.89783 1.87651 0
M  V30 4373 H 444.032 4.28915 3.47471 0
M  V30 4374 H 444.509 2.59432 3.54389 0
M  V30 4375 H 445.115 3.62383 2.22618 0
M  V30 4376 N 443.43 -0.535701 1.48216 0
M  V30 4377 C 444.393 -1.623 1.61838 0
M  V30 4378 C 445.393 -1.53087 0.492024 0
M  V30 4379 O 446.583 -1.5686 0.757668 0
M  V30 4380 C 443.715 -3.01907 1.58319 0
M  V30 4381 H 444.908 -1.51564 2.58783 0
M  V30 4382 H 442.461 -0.757317 1.36727 0
M  V30 4383 H 443.196 -3.18155 0.628299 0
M  V30 4384 H 442.981 -3.10003 2.40085 0
M  V30 4385 H 444.471 -3.80969 1.71033 0
M  V30 4386 N 444.908 -1.36708 -0.784132 0
M  V30 4387 C 446.324 -1.17237 -1.08294 0
M  V30 4388 C 446.524 -5.93947e-05 -2.015 0
M  V30 4389 O 445.58 0.663686 -2.43622 0
M  V30 4390 C 446.893 -2.48557 -1.69233 0
M  V30 4391 C 448.441 -2.54968 -1.8155 0
M  V30 4392 C 448.916 -3.86388 -2.45904 0
M  V30 4393 N 450.407 -3.87762 -2.53367 0
M  V30 4394 C 451.142 -4.86191 -3.03983 0
M  V30 4395 N 450.638 -5.95015 -3.54866 0
M  V30 4396 N 452.431 -4.73606 -3.02743 0
M  V30 4397 H 444.582 -2.11758 -0.16501 0
M  V30 4398 H 446.845 -0.93822 -0.135822 0
M  V30 4399 H 446.551 -3.34638 -1.08215 0
M  V30 4400 H 446.425 -2.64748 -2.68679 0
M  V30 4401 H 448.812 -1.69302 -2.41704 0
M  V30 4402 H 448.893 -2.42672 -0.80895 0
M  V30 4403 H 448.537 -4.72462 -1.86392 0
M  V30 4404 H 448.467 -3.95982 -3.4714 0
M  V30 4405 H 450.958 -3.09145 -2.17343 0
M  V30 4406 H 451.271 -6.66086 -3.91854 0
M  V30 4407 H 449.616 -5.98676 -3.53003 0
M  V30 4408 H 452.807 -3.87717 -2.62284 0
M  V30 4409 H 452.98 -5.50473 -3.41881 0
M  V30 4410 N 446.386 1.0089 -1.21074 0
M  V30 4411 C 447.634 1.74262 -1.02358 0
M  V30 4412 C 447.955 1.89869 0.444393 0
M  V30 4413 O 447.225 1.44677 1.32081 0
M  V30 4414 H 445.805 0.645615 -0.375754 0
M  V30 4415 H 448.467 1.21596 -1.52317 0
M  V30 4416 H 447.563 2.74328 -1.4883 0
M  V30 4417 N 447.864 1.01787 1.20321 0
M  V30 4418 C 449.141 0.622978 1.85414 0
M  V30 4419 C 449.521 -0.898887 1.91006 0
M  V30 4420 O 448.869 -1.79112 1.41884 0
M  V30 4421 C 449.079 1.27226 3.24984 0
M  V30 4422 C 450.427 1.3885 4.01255 0
M  V30 4423 O 451.451 1.22857 3.34342 0
M  V30 4424 O 450.31 1.64705 5.2109 0
M  V30 4425 H 447.404 0.215116 0.798533 0
M  V30 4426 H 449.95 1.11533 1.27901 0
M  V30 4427 H 448.722 2.31209 3.15687 0
M  V30 4428 H 448.345 0.767069 3.90131 0
M  V30 4429 N 449.342 -1.36122 0.79427 0
M  V30 4430 C 450.582 -2.00942 0.374376 0
M  V30 4431 C 450.946 -1.61666 -1.03577 0
M  V30 4432 O 452.147 -2.19113 -1.55701 0
M  V30 4433 C 450.418 -3.53323 0.538327 0
M  V30 4434 S 451.977 -4.38311 0.20703 0
M  V30 4435 H 448.795 -0.696515 0.142785 0
M  V30 4436 H 451.397 -1.65929 1.03382 0
M  V30 4437 H 450.101 -3.79395 1.56484 0
M  V30 4438 H 449.632 -3.93162 -0.136882 0
M  V30 4439 H 451.647 -4.8623 -0.989695 0
M  V30 4440 N 450.82 -0.546701 -1.47814 0
M  V30 4441 C 452.231 -0.110564 -1.86372 0
M  V30 4442 C 452.582 1.31678 -1.45449 0
M  V30 4443 O 451.707 1.98889 -0.852758 0
M  V30 4444 C 452.302 -0.193873 -3.38245 0
M  V30 4445 C 450.861 0.187164 -3.75934 0
M  V30 4446 C 450.008 -0.546166 -2.71868 0
M  V30 4447 H 452.959 -0.757022 -1.39481 0
M  V30 4448 H 452.98 0.590218 -3.75895 0
M  V30 4449 H 452.492 -1.23282 -3.67999 0
M  V30 4450 H 450.593 1.22762 -3.51796 0
M  V30 4451 H 450.706 -0.164083 -4.78819 0
M  V30 4452 H 449.07 0.00953904 -2.54698 0
M  V30 4453 H 449.853 -1.58606 -3.04465 0
M  V30 4454 N 452.299 1.55045 -0.282633 0
M  V30 4455 C 453.576 1.9179 0.384166 0
M  V30 4456 C 453.956 1.20778 1.73136 0
M  V30 4457 O 453.304 0.33719 2.25998 0
M  V30 4458 C 453.514 3.45149 0.517014 0
M  V30 4459 C 454.862 4.17064 0.796427 0
M  V30 4460 O 455.886 3.51084 0.601535 0
M  V30 4461 O 454.745 5.33837 1.16962 0
M  V30 4462 H 451.839 0.799483 0.211558 0
M  V30 4463 H 454.385 1.66474 -0.32934 0
M  V30 4464 H 453.157 3.88922 -0.430772 0
M  V30 4465 H 452.78 3.76443 1.2797 0
M  V30 4466 N 453.777 0.010035 1.57597 0
M  V30 4467 C 455.054 -0.710296 1.82248 0
M  V30 4468 C 455.434 -1.91426 0.889911 0
M  V30 4469 O 454.782 -2.28424 -0.0590292 0
M  V30 4470 C 454.992 -1.10655 3.30993 0
M  V30 4471 C 456.34 -1.50621 3.96987 0
M  V30 4472 O 457.364 -1.20007 3.35375 0
M  V30 4473 O 456.223 -2.07587 5.05539 0
M  V30 4474 H 453.317 -0.34673 0.750804 0
M  V30 4475 H 455.863 0.0362578 1.69661 0
M  V30 4476 H 454.635 -0.248826 3.90508 0
M  V30 4477 H 454.258 -1.91189 3.48615 0
M  V30 4478 N 455.255 -1.55392 -0.262866 0
M  V30 4479 C 456.165 -1.92077 -1.34698 0
M  V30 4480 C 457.181 -0.819227 -1.53508 0
M  V30 4481 O 458.357 -1.11921 -1.67439 0
M  V30 4482 C 455.422 -2.19407 -2.68443 0
M  V30 4483 C 454.483 -3.42905 -2.58292 0
M  V30 4484 C 453.716 -3.68921 -3.85659 0
M  V30 4485 O 453.939 -2.97275 -4.8681 0
M  V30 4486 O 452.873 -4.62455 -3.85252 0
M  V30 4487 H 456.699 -2.84384 -1.06581 0
M  V30 4488 H 454.284 -1.42069 -0.462264 0
M  V30 4489 H 456.166 -2.38365 -3.47506 0
M  V30 4490 H 454.841 -1.30282 -2.96325 0
M  V30 4491 H 453.748 -3.29272 -1.7757 0
M  V30 4492 H 455.081 -4.32282 -2.35358 0
M  V30 4493 N 456.733 0.527833 -1.48498 0
M  V30 4494 C 457.663 1.64136 -1.66077 0
M  V30 4495 C 458.644 1.62286 -0.509625 0
M  V30 4496 O 459.829 1.79449 -0.742413 0
M  V30 4497 C 456.959 3.02717 -1.70234 0
M  V30 4498 C 455.913 3.19426 -2.8487 0
M  V30 4499 C 455.239 4.5909 -2.74118 0
M  V30 4500 C 456.539 3.01993 -4.26142 0
M  V30 4501 H 458.233 1.4968 -2.593 0
M  V30 4502 H 455.779 0.718654 -1.24785 0
M  V30 4503 H 457.732 3.80491 -1.8112 0
M  V30 4504 H 456.456 3.18201 -0.735911 0
M  V30 4505 H 455.115 2.4407 -2.73542 0
M  V30 4506 H 454.763 4.71413 -1.7544 0
M  V30 4507 H 454.463 4.71214 -3.51042 0
M  V30 4508 H 455.987 5.3896 -2.86974 0
M  V30 4509 H 457.401 3.69558 -4.38292 0
M  V30 4510 H 455.798 3.2561 -5.04082 0
M  V30 4511 H 456.868 1.98396 -4.42456 0
M  V30 4512 N 458.211 1.37122 0.776871 0
M  V30 4513 C 459.46 1.31373 1.53049 0
M  V30 4514 C 459.773 -0.101016 1.95339 0
M  V30 4515 O 460.979 -0.280953 2.70042 0
M  V30 4516 C 459.435 2.30567 2.76346 0
M  V30 4517 C 459.043 3.77543 2.41175 0
M  V30 4518 C 460.787 2.33818 3.54301 0
M  V30 4519 C 458.694 4.68481 3.60943 0
M  V30 4520 H 457.624 0.488234 0.574581 0
M  V30 4521 H 460.275 1.62554 0.851372 0
M  V30 4522 H 458.657 1.92396 3.46121 0
M  V30 4523 H 459.831 4.24521 1.79216 0
M  V30 4524 H 458.146 3.77187 1.76405 0
M  V30 4525 H 460.743 2.98965 4.4331 0
M  V30 4526 H 461.086 1.3503 3.93793 0
M  V30 4527 H 461.619 2.7067 2.91518 0
M  V30 4528 H 458.358 5.68378 3.26537 0
M  V30 4529 H 457.878 4.2621 4.22025 0
M  V30 4530 H 459.557 4.85366 4.27819 0
M  V30 4531 N 459.689 -1.00246 1.21608 0
M  V30 4532 C 460.599 -2.12515 0.993709 0
M  V30 4533 C 461.615 -1.73913 -0.0549939 0
M  V30 4534 O 462.791 -2.00943 0.135619 0
M  V30 4535 C 459.856 -3.42083 0.563953 0
M  V30 4536 C 458.917 -3.94843 1.68516 0
M  V30 4537 C 458.15 -5.18226 1.27582 0
M  V30 4538 O 458.373 -5.70201 0.150506 0
M  V30 4539 O 457.307 -5.64497 2.0887 0
M  V30 4540 H 461.133 -2.34152 1.93407 0
M  V30 4541 H 458.718 -1.10891 1.00118 0
M  V30 4542 H 460.6 -4.20073 0.334194 0
M  V30 4543 H 459.275 -3.21828 -0.347665 0
M  V30 4544 H 458.182 -3.18068 1.96935 0
M  V30 4545 H 459.515 -4.19512 2.5743 0
M  V30 4546 N 461.167 -1.02423 -1.1978 0
M  V30 4547 C 462.13 -0.605703 -2.21052 0
M  V30 4548 C 463.13 0.328209 -1.57415 0
M  V30 4549 O 464.32 0.115853 -1.73814 0
M  V30 4550 C 461.452 0.114366 -3.40708 0
M  V30 4551 H 462.645 -1.5017 -2.59594 0
M  V30 4552 H 460.198 -0.814888 -1.33376 0
M  V30 4553 H 460.933 1.02492 -3.07678 0
M  V30 4554 H 460.718 -0.556641 -3.88129 0
M  V30 4555 H 462.208 0.394272 -4.15735 0
M  V30 4556 N 462.645 1.35699 -0.801477 0
M  V30 4557 C 463.575 2.32436 -0.222658 0
M  V30 4558 C 464.556 1.5723 0.649057 0
M  V30 4559 O 465.741 1.85324 0.580387 0
M  V30 4560 C 462.871 3.41469 0.633719 0
M  V30 4561 C 461.825 4.27774 -0.139083 0
M  V30 4562 C 461.151 5.28082 0.838666 0
M  V30 4563 C 462.451 5.04946 -1.33517 0
M  V30 4564 H 464.145 2.81094 -1.03086 0
M  V30 4565 H 461.691 1.35146 -0.497155 0
M  V30 4566 H 463.644 4.08143 1.04868 0
M  V30 4567 H 462.368 2.91408 1.47475 0
M  V30 4568 H 461.027 3.62673 -0.535156 0
M  V30 4569 H 460.675 4.7429 1.67506 0
M  V30 4570 H 460.375 5.86695 0.32594 0
M  V30 4571 H 461.899 5.97628 1.25194 0
M  V30 4572 H 463.313 5.64593 -0.995349 0
M  V30 4573 H 461.71 5.7303 -1.78202 0
M  V30 4574 H 462.78 4.35886 -2.12442 0
M  V30 4575 N 464.123 0.554532 1.47522 0
M  V30 4576 C 465.4 -0.0360704 1.95567 0
M  V30 4577 C 465.78 -1.48828 1.49711 0
M  V30 4578 O 465.128 -2.16366 0.734717 0
M  V30 4579 C 465.338 0.106631 3.48837 0
M  V30 4580 C 466.686 -0.0400899 4.24581 0
M  V30 4581 O 467.71 0.0340453 3.56184 0
M  V30 4582 O 466.569 -0.199111 5.46137 0
M  V30 4583 H 463.663 -0.0656294 0.824392 0
M  V30 4584 H 466.209 0.620867 1.57935 0
M  V30 4585 H 464.981 1.11727 3.7501 0
M  V30 4586 H 464.604 -0.58804 3.93227 0
M  V30 4587 N 465.601 -1.54893 0.290851 0
M  V30 4588 C 467.017 -1.59476 -0.0628432 0
M  V30 4589 C 467.217 -1.30795 -1.5328 0
M  V30 4590 O 466.273 -1.07644 -2.28406 0
M  V30 4591 C 467.586 -2.98928 0.325962 0
M  V30 4592 C 469.134 -3.11799 0.273882 0
M  V30 4593 C 469.609 -4.53544 0.637359 0
M  V30 4594 N 471.1 -4.59433 0.589507 0
M  V30 4595 C 471.835 -5.67164 0.84335 0
M  V30 4596 N 471.331 -6.82975 1.16263 0
M  V30 4597 N 473.124 -5.56786 0.771091 0
M  V30 4598 H 465.275 -1.71798 1.24896 0
M  V30 4599 H 467.538 -0.801879 0.505663 0
M  V30 4600 H 467.244 -3.24805 1.34887 0
M  V30 4601 H 467.118 -3.75793 -0.325441 0
M  V30 4602 H 469.505 -2.85677 -0.739765 0
M  V30 4603 H 469.586 -2.37112 0.959766 0
M  V30 4604 H 469.23 -4.80394 1.64877 0
M  V30 4605 H 469.16 -5.26553 -0.0704866 0
M  V30 4606 H 471.651 -3.76245 0.353252 0
M  V30 4607 H 471.964 -7.61048 1.34257 0
M  V30 4608 H 470.309 -6.84552 1.20057 0
M  V30 4609 H 473.5 -4.65187 0.521383 0
M  V30 4610 H 473.673 -6.40664 0.972295 0
M  V30 4611 N 467.08 -0.0183926 -1.57589 0
M  V30 4612 C 468.326 0.663543 -1.91638 0
M  V30 4613 C 468.659 1.72392 -0.894134 0
M  V30 4614 O 467.934 1.94316 0.0846449 0
M  V30 4615 C 468.217 1.28984 -3.36207 0
M  V30 4616 C 468.07 0.239761 -4.49161 0
M  V30 4617 C 469.389 2.2109 -3.80536 0
M  V30 4618 H 466.508 0.239746 -0.696915 0
M  V30 4619 H 469.15 -0.073456 -1.89858 0
M  V30 4620 H 467.3 1.91799 -3.37854 0
M  V30 4621 H 468.972 -0.390119 -4.59647 0
M  V30 4622 H 467.215 -0.435972 -4.31604 0
M  V30 4623 H 467.886 0.717383 -5.47319 0
M  V30 4624 H 470.362 1.68273 -3.80557 0
M  V30 4625 H 469.238 2.61869 -4.82406 0
M  V30 4626 H 469.499 3.09764 -3.15434 0
M  V30 4627 N 468.558 1.5553 0.254621 0
M  V30 4628 C 469.806 1.7665 0.981793 0
M  V30 4629 C 470.127 0.580963 1.86145 0
M  V30 4630 O 469.397 -0.403537 1.91699 0
M  V30 4631 H 467.977 0.651475 0.365498 0
M  V30 4632 H 470.639 1.92958 0.274426 0
M  V30 4633 H 469.735 2.67486 1.60802 0
M  V30 4634 N 470.036 -0.519951 1.48776 0
M  V30 4635 C 470.966 -1.63253 1.66945 0
M  V30 4636 C 471.947 -1.62014 0.518224 0
M  V30 4637 O 473.132 -1.79053 0.751919 0
M  V30 4638 C 470.262 -3.0181 1.71836 0
M  V30 4639 C 469.216 -3.17911 2.8656 0
M  V30 4640 C 468.542 -4.5763 2.76548 0
M  V30 4641 C 469.842 -2.99729 4.27738 0
M  V30 4642 H 471.536 -1.48302 2.6009 0
M  V30 4643 H 469.082 -0.712026 1.25165 0
M  V30 4644 H 471.035 -3.79525 1.83135 0
M  V30 4645 H 469.759 -3.17806 0.752775 0
M  V30 4646 H 468.418 -2.42616 2.74833 0
M  V30 4647 H 468.066 -4.70476 1.77937 0
M  V30 4648 H 467.766 -4.69346 3.53536 0
M  V30 4649 H 469.29 -5.37431 2.89828 0
M  V30 4650 H 470.704 -3.67228 4.40246 0
M  V30 4651 H 469.101 -3.22932 5.05801 0
M  V30 4652 H 470.171 -1.96047 4.43502 0
M  V30 4653 N 471.514 -1.37532 -0.769588 0
M  V30 4654 C 472.754 -1.34261 -1.54122 0
M  V30 4655 C 473.118 0.0717222 -1.91866 0
M  V30 4656 O 474.319 0.22918 -2.67821 0
M  V30 4657 C 472.59 -2.2574 -2.77086 0
M  V30 4658 S 474.149 -2.40339 -3.67127 0
M  V30 4659 H 470.967 -0.476595 -0.527615 0
M  V30 4660 H 473.569 -1.73303 -0.90479 0
M  V30 4661 H 472.273 -3.27417 -2.4744 0
M  V30 4662 H 471.804 -1.87789 -3.45686 0
M  V30 4663 H 473.819 -1.61558 -4.69163 0
M  V30 4664 N 472.992 0.995999 -1.22138 0
M  V30 4665 C 474.24 1.73167 -1.042 0
M  V30 4666 C 474.561 1.90329 0.42423 0
M  V30 4667 O 473.831 1.4607 1.30539 0
M  V30 4668 H 472.411 0.641593 -0.38258 0
M  V30 4669 H 475.073 1.19974 -1.53598 0
M  V30 4670 H 474.169 2.72734 -1.51731 0
M  V30 4671 N 474.47 1.03057 1.19235 0
M  V30 4672 C 475.716 0.738841 1.89506 0
M  V30 4673 C 476.071 -0.724807 1.78225 0
M  V30 4674 O 475.364 -1.52118 1.16494 0
M  V30 4675 C 475.558 1.1268 3.39172 0
M  V30 4676 C 475.387 2.62662 3.65019 0
M  V30 4677 C 474.157 3.29658 3.82954 0
M  V30 4678 C 476.355 3.60873 3.66436 0
M  V30 4679 N 474.337 4.68726 3.96446 0
M  V30 4680 C 475.708 4.85566 3.8552 0
M  V30 4681 C 477.763 3.54647 3.49471 0
M  V30 4682 C 476.466 6.04783 3.89397 0
M  V30 4683 C 478.492 4.73281 3.54625 0
M  V30 4684 C 477.854 5.96789 3.74196 0
M  V30 4685 H 473.953 0.322256 0.712513 0
M  V30 4686 H 476.537 1.31822 1.43287 0
M  V30 4687 H 474.708 0.575612 3.84111 0
M  V30 4688 H 476.44 0.787145 3.96971 0
M  V30 4689 H 473.195 2.8007 3.81913 0
M  V30 4690 H 473.619 5.40971 4.07037 0
M  V30 4691 H 478.261 2.60143 3.33295 0
M  V30 4692 H 475.979 6.99654 4.04364 0
M  V30 4693 H 479.565 4.70094 3.42787 0
M  V30 4694 H 478.445 6.87051 3.78061 0
M  V30 4695 N 475.948 -1.35272 0.808662 0
M  V30 4696 C 476.878 -2.32315 0.234981 0
M  V30 4697 C 477.859 -1.57572 -0.64071 0
M  V30 4698 O 479.044 -1.8563 -0.570551 0
M  V30 4699 C 476.174 -3.41801 -0.615601 0
M  V30 4700 C 475.128 -4.27694 0.161767 0
M  V30 4701 C 474.454 -5.28519 -0.810649 0
M  V30 4702 C 475.754 -5.04231 1.36193 0
M  V30 4703 H 477.448 -2.80543 1.04575 0
M  V30 4704 H 474.994 -1.3488 0.504315 0
M  V30 4705 H 476.947 -4.08693 -1.02702 0
M  V30 4706 H 475.671 -2.92186 -1.45928 0
M  V30 4707 H 474.33 -3.62384 0.554382 0
M  V30 4708 H 473.978 -4.75171 -1.64988 0
M  V30 4709 H 473.678 -5.8686 -0.294822 0
M  V30 4710 H 475.202 -5.98283 -1.22023 0
M  V30 4711 H 476.616 -5.64058 1.02528 0
M  V30 4712 H 475.013 -5.72077 1.81239 0
M  V30 4713 H 476.083 -4.34753 2.14751 0
M  V30 4714 N 477.426 -0.562348 -1.47226 0
M  V30 4715 C 478.389 0.172056 -2.28553 0
M  V30 4716 C 479.389 0.837928 -1.37242 0
M  V30 4717 O 480.579 0.693001 -1.59822 0
M  V30 4718 C 477.711 1.25223 -3.17068 0
M  V30 4719 H 478.904 -0.542401 -2.94954 0
M  V30 4720 H 476.457 -0.319493 -1.53 0
M  V30 4721 H 477.192 1.99892 -2.55369 0
M  V30 4722 H 476.977 0.779515 -3.84273 0
M  V30 4723 H 478.467 1.76791 -3.78332 0
M  V30 4724 N 478.904 1.54736 -0.299062 0
M  V30 4725 C 480.152 1.99706 0.31017 0
M  V30 4726 C 480.473 1.18896 1.54559 0
M  V30 4727 O 479.743 0.284445 1.93824 0
M  V30 4728 H 478.323 0.737686 0.117596 0
M  V30 4729 H 480.985 1.9054 -0.409943 0
M  V30 4730 H 480.081 3.06596 0.58355 0
M  V30 4731 N 480.382 0.0267497 1.57577 0
M  V30 4732 C 481.312 -0.954308 2.13108 0
M  V30 4733 C 482.293 -1.34088 1.04663 0
M  V30 4734 O 483.478 -1.41992 1.32484 0
M  V30 4735 C 480.608 -2.23744 2.65624 0
M  V30 4736 C 479.562 -1.99168 3.78835 0
M  V30 4737 C 478.888 -3.33726 4.17769 0
M  V30 4738 C 480.188 -1.33277 5.0501 0
M  V30 4739 H 481.882 -0.491848 2.95332 0
M  V30 4740 H 479.428 -0.23514 1.42067 0
M  V30 4741 H 481.381 -2.92754 3.03106 0
M  V30 4742 H 480.105 -2.72151 1.80558 0
M  V30 4743 H 478.764 -1.32577 3.41788 0
M  V30 4744 H 478.412 -3.79888 3.29688 0
M  V30 4745 H 478.112 -3.18089 4.94058 0
M  V30 4746 H 479.636 -4.04008 4.57832 0
M  V30 4747 H 481.05 -1.92283 5.40093 0
M  V30 4748 H 479.447 -1.28045 5.8628 0
M  V30 4749 H 480.517 -0.305411 4.83937 0
M  V30 4750 N 481.861 -1.55662 -0.24637 0
M  V30 4751 C 483.272 -1.67953 -0.81539 0
M  V30 4752 C 483.623 -0.624302 -1.86002 0
M  V30 4753 O 482.748 0.229328 -2.15181 0
M  V30 4754 C 483.343 -3.04484 -1.48576 0
M  V30 4755 C 481.902 -3.18713 -2.00248 0
M  V30 4756 C 481.049 -2.6383 -0.853766 0
M  V30 4757 H 484 -1.58685 -0.0221692 0
M  V30 4758 H 484.021 -2.98959 -2.3538 0
M  V30 4759 H 483.533 -3.81264 -0.725222 0
M  V30 4760 H 481.634 -2.46757 -2.79181 0
M  V30 4761 H 481.747 -4.25628 -2.1995 0
M  V30 4762 H 480.111 -2.21667 -1.25442 0
M  V30 4763 H 480.894 -3.43135 -0.106302 0
M  V30 4764 N 483.339 0.512053 -1.4905 0
M  V30 4765 C 484.249 1.64139 -1.67617 0
M  V30 4766 C 485.265 1.64786 -0.558701 0
M  V30 4767 O 486.441 1.8341 -0.832034 0
M  V30 4768 C 483.506 3.00548 -1.72835 0
M  V30 4769 C 482.567 3.10615 -2.96339 0
M  V30 4770 C 481.8 4.40517 -3.01298 0
M  V30 4771 O 482.023 5.28671 -2.14157 0
M  V30 4772 O 480.957 4.55325 -3.93653 0
M  V30 4773 H 484.783 1.51407 -2.63267 0
M  V30 4774 H 482.368 0.687131 -1.32661 0
M  V30 4775 H 484.25 3.81641 -1.78683 0
M  V30 4776 H 482.925 3.13566 -0.803616 0
M  V30 4777 H 481.832 2.2875 -2.96014 0
M  V30 4778 H 483.165 3.0252 -3.88256 0
M  V30 4779 N 484.817 1.37938 0.762283 0
M  V30 4780 C 486.065 1.33404 1.51815 0
M  V30 4781 C 486.386 -0.0780975 1.94844 0
M  V30 4782 O 485.656 -1.02405 1.67003 0
M  V30 4783 H 484.236 0.490839 0.563104 0
M  V30 4784 H 486.898 1.72527 0.906669 0
M  V30 4785 H 485.994 1.97926 2.41313 0
M  V30 4786 N 486.295 -0.989507 1.22664 0
M  V30 4787 C 487.225 -2.09847 1.02404 0
M  V30 4788 C 488.206 -1.70007 -0.0561303 0
M  V30 4789 O 489.391 -1.93906 0.106748 0
M  V30 4790 C 486.521 -3.41996 0.604663 0
M  V30 4791 C 485.475 -3.95699 1.63115 0
M  V30 4792 C 484.801 -5.23936 1.0675 0
M  V30 4793 C 486.101 -4.25999 3.02196 0
M  V30 4794 H 487.795 -2.27054 1.95158 0
M  V30 4795 H 485.341 -1.09111 0.939727 0
M  V30 4796 H 487.294 -4.1899 0.45002 0
M  V30 4797 H 486.018 -3.24626 -0.35855 0
M  V30 4798 H 484.677 -3.2084 1.77362 0
M  V30 4799 H 484.325 -5.02909 0.0955422 0
M  V30 4800 H 484.025 -5.60833 1.75328 0
M  V30 4801 H 485.549 -6.0356 0.924516 0
M  V30 4802 H 486.963 -4.93777 2.91303 0
M  V30 4803 H 485.36 -4.74076 3.67929 0
M  V30 4804 H 486.43 -3.33636 3.51873 0
M  V30 4805 N 487.773 -1.03688 -1.18687 0
M  V30 4806 C 488.998 -0.757819 -1.93059 0
M  V30 4807 C 489.423 0.678353 -1.75442 0
M  V30 4808 O 488.781 1.46938 -1.06203 0
M  V30 4809 C 488.829 -1.12423 -3.42627 0
M  V30 4810 O 487.933 -0.247505 -4.11657 0
M  V30 4811 H 487.274 -0.279245 -0.602427 0
M  V30 4812 H 489.804 -1.3857 -1.5053 0
M  V30 4813 H 489.814 -1.08454 -3.93322 0
M  V30 4814 H 488.489 -2.17049 -3.54771 0
M  V30 4815 H 487.066 -0.34649 -3.71287 0
M  V30 4816 N 489.251 1.34841 -0.815825 0
M  V30 4817 C 490.479 2.0273 -0.413294 0
M  V30 4818 C 490.894 1.61459 0.978599 0
M  V30 4819 O 490.251 0.816584 1.63212 0
M  V30 4820 C 490.302 3.58058 -0.497676 0
M  V30 4821 O 490.023 3.97832 -1.8347 0
M  V30 4822 C 491.524 4.4321 -0.0891339 0
M  V30 4823 H 488.744 0.649956 -0.166728 0
M  V30 4824 H 491.288 1.72267 -1.10201 0
M  V30 4825 H 489.443 3.87136 0.142886 0
M  V30 4826 H 489.857 4.92501 -1.80396 0
M  V30 4827 H 491.331 5.5164 -0.199274 0
M  V30 4828 H 491.808 4.28432 0.966571 0
M  V30 4829 H 492.414 4.19446 -0.703214 0
M  V30 4830 N 490.729 0.570148 1.46925 0
M  V30 4831 C 491.975 0.0510284 2.02736 0
M  V30 4832 C 492.308 -1.3006 1.44215 0
M  V30 4833 O 491.583 -1.84932 0.602521 0
M  V30 4834 C 491.866 -0.028215 3.60089 0
M  V30 4835 C 491.719 1.35142 4.29018 0
M  V30 4836 C 493.038 -0.735181 4.33916 0
M  V30 4837 H 490.157 0.0200178 0.736728 0
M  V30 4838 H 492.799 0.73493 1.75211 0
M  V30 4839 H 490.949 -0.610648 3.83671 0
M  V30 4840 H 492.621 1.97806 4.16738 0
M  V30 4841 H 490.864 1.9226 3.88868 0
M  V30 4842 H 491.535 1.24857 5.37694 0
M  V30 4843 H 494.011 -0.240519 4.15404 0
M  V30 4844 H 492.887 -0.759622 5.43618 0
M  V30 4845 H 493.148 -1.79397 4.04066 0
M  V30 4846 N 492.207 -1.54576 0.307264 0
M  V30 4847 C 493.137 -2.26708 -0.55907 0
M  V30 4848 C 494.118 -1.26893 -1.1328 0
M  V30 4849 O 495.303 -1.55677 -1.16097 0
M  V30 4850 C 492.433 -3.01259 -1.72801 0
M  V30 4851 C 491.387 -4.08275 -1.28435 0
M  V30 4852 C 490.713 -4.70575 -2.53895 0
M  V30 4853 C 492.013 -5.2068 -0.411038 0
M  V30 4854 H 493.707 -2.9937 0.042576 0
M  V30 4855 H 491.253 -1.43983 0.0219173 0
M  V30 4856 H 493.206 -3.50444 -2.34023 0
M  V30 4857 H 491.93 -2.26187 -2.356 0
M  V30 4858 H 490.589 -3.59949 -0.695161 0
M  V30 4859 H 490.237 -3.92136 -3.15021 0
M  V30 4860 H 489.937 -5.42854 -2.24908 0
M  V30 4861 H 491.461 -5.22527 -3.15908 0
M  V30 4862 H 492.875 -5.65721 -0.929097 0
M  V30 4863 H 491.272 -5.99716 -0.214664 0
M  V30 4864 H 492.342 -4.81629 0.562287 0
M  V30 4865 N 493.685 -0.035106 -1.57561 0
M  V30 4866 C 494.934 0.641604 -1.91223 0
M  V30 4867 C 495.247 1.72944 -0.913761 0
M  V30 4868 O 496.453 2.46321 -1.14185 0
M  V30 4869 C 494.909 1.19249 -3.3957 0
M  V30 4870 C 494.517 0.137616 -4.47789 0
M  V30 4871 C 496.261 1.84537 -3.82291 0
M  V30 4872 C 494.168 0.700478 -5.87237 0
M  V30 4873 H 493.098 0.243417 -0.713627 0
M  V30 4874 H 495.749 -0.101382 -1.8322 0
M  V30 4875 H 494.131 1.98728 -3.42525 0
M  V30 4876 H 495.305 -0.635153 -4.56402 0
M  V30 4877 H 493.62 -0.416855 -4.14308 0
M  V30 4878 H 496.217 2.27616 -4.83834 0
M  V30 4879 H 496.56 2.69054 -3.17672 0
M  V30 4880 H 497.093 1.11739 -3.81784 0
M  V30 4881 H 493.832 -0.106693 -6.55413 0
M  V30 4882 H 493.352 1.4416 -5.82218 0
M  V30 4883 H 495.031 1.18837 -6.35993 0
M  V30 4884 N 495.163 1.55791 0.238111 0
M  V30 4885 C 496.411 1.77681 0.963001 0
M  V30 4886 C 496.732 0.600674 1.85518 0
M  V30 4887 O 496.002 -0.383182 1.92116 0
M  V30 4888 H 494.582 0.655315 0.358568 0
M  V30 4889 H 497.244 1.93239 0.253945 0
M  V30 4890 H 496.34 2.69177 1.57956 0
M  V30 4891 N 496.642 -0.504142 1.49319 0
M  V30 4892 C 497.89 -1.25598 1.58334 0
M  V30 4893 C 498.211 -1.93114 0.270538 0
M  V30 4894 O 497.481 -1.82585 -0.709891 0
M  V30 4895 H 496.061 -0.466571 0.58337 0
M  V30 4896 H 498.723 -0.584547 1.85928 0
M  V30 4897 H 497.819 -2.02159 2.37778 0
M  V30 4898 N 498.12 -1.38341 -0.754957 0
M  V30 4899 C 499.083 -1.35262 -1.85032 0
M  V30 4900 C 500.083 -0.253393 -1.58791 0
M  V30 4901 O 501.273 -0.510205 -1.66561 0
M  V30 4902 C 498.405 -1.10544 -3.22479 0
M  V30 4903 H 499.598 -2.32712 -1.8917 0
M  V30 4904 H 497.151 -1.23614 -0.956515 0
M  V30 4905 H 497.886 -0.136952 -3.24011 0
M  V30 4906 H 497.671 -1.90127 -3.4292 0
M  V30 4907 H 499.161 -1.11082 -4.02555 0
M  V30 4908 N 499.598 0.982988 -1.23187 0
M  V30 4909 C 500.53 2.07729 -0.968572 0
M  V30 4910 C 501.543 1.62702 0.0564821 0
M  V30 4911 O 502.732 1.77603 -0.178733 0
M  V30 4912 C 499.832 3.36071 -0.436974 0
M  V30 4913 C 499.005 4.10081 -1.52159 0
M  V30 4914 C 498.064 5.16701 -0.99532 0
M  V30 4915 O 497.09 5.43727 -1.68373 0
M  V30 4916 N 498.292 5.80226 0.178192 0
M  V30 4917 H 501.057 2.30894 -1.9107 0
M  V30 4918 H 498.618 1.14949 -1.1401 0
M  V30 4919 H 500.61 4.04639 -0.0700051 0
M  V30 4920 H 499.18 3.09893 0.410509 0
M  V30 4921 H 498.4 3.36004 -2.06144 0
M  V30 4922 H 499.688 4.56295 -2.25105 0
M  V30 4923 H 499.086 5.60651 0.754096 0
M  V30 4924 H 497.643 6.49982 0.486449 0
M  V30 4925 N 501.076 1.04316 1.18135 0
M  V30 4926 C 502.039 0.640794 2.2006 0
M  V30 4927 C 503.039 -0.303124 1.57917 0
M  V30 4928 O 504.229 -0.0881855 1.73977 0
M  V30 4929 C 501.361 -0.060148 3.40847 0
M  V30 4930 H 502.554 1.54281 2.57172 0
M  V30 4931 H 500.107 0.836004 1.32063 0
M  V30 4932 H 500.842 -0.975845 3.0927 0
M  V30 4933 H 500.627 0.618319 3.87194 0
M  V30 4934 H 502.117 -0.328082 4.16309 0
M  V30 4935 N 502.554 -1.34406 0.822964 0
M  V30 4936 C 503.8 -1.98578 0.411666 0
M  V30 4937 C 504.133 -1.65093 -1.02264 0
M  V30 4938 O 503.408 -0.92258 -1.71227 0
M  V30 4939 C 503.691 -3.54823 0.614235 0
M  V30 4940 C 503.544 -3.9805 2.09466 0
M  V30 4941 C 504.863 -4.40071 0.050221 0
M  V30 4942 H 501.982 -0.721355 0.151047 0
M  V30 4943 H 504.624 -1.59301 1.03554 0
M  V30 4944 H 502.774 -3.88411 0.0831774 0
M  V30 4945 H 504.446 -3.74795 2.68936 0
M  V30 4946 H 502.689 -3.4836 2.5851 0
M  V30 4947 H 503.36 -5.06819 2.18721 0
M  V30 4948 H 505.836 -4.13037 0.503953 0
M  V30 4949 H 504.712 -5.48452 0.221759 0
M  V30 4950 H 504.973 -4.29576 -1.04482 0
M  V30 4951 N 504.032 -0.577932 -1.46621 0
M  V30 4952 C 505.257 -0.0652536 -2.07297 0
M  V30 4953 C 505.682 1.22828 -1.4246 0
M  V30 4954 O 505.04 1.74075 -0.506718 0
M  V30 4955 C 505.088 0.0920589 -3.60482 0
M  V30 4956 O 504.192 1.14972 -3.96049 0
M  V30 4957 H 503.533 -0.06065 -0.661224 0
M  V30 4958 H 506.063 -0.799515 -1.88332 0
M  V30 4959 H 506.073 0.299741 -4.06897 0
M  V30 4960 H 504.748 -0.852612 -4.07067 0
M  V30 4961 H 503.325 0.920879 -3.61351 0
M  V30 4962 N 505.51 1.54411 -0.315457 0
M  V30 4963 C 506.473 2.22713 0.54142 0
M  V30 4964 C 507.473 1.2179 1.04995 0
M  V30 4965 O 508.663 1.46426 0.943667 0
M  V30 4966 C 505.795 2.92485 1.75116 0
M  V30 4967 H 506.988 2.99849 -0.0555508 0
M  V30 4968 H 504.541 1.56159 -0.0664453 0
M  V30 4969 H 505.276 2.19466 2.38758 0
M  V30 4970 H 505.061 3.66483 1.39401 0
M  V30 4971 H 506.551 3.44548 2.35959 0
M  V30 4972 N 506.988 0.0434614 1.5754 0
M  V30 4973 C 508.236 -0.630786 1.92004 0
M  V30 4974 C 508.557 -1.71836 0.921807 0
M  V30 4975 O 507.827 -1.9587 -0.034522 0
M  V30 4976 H 506.407 -0.235988 0.708745 0
M  V30 4977 H 509.069 0.0946462 1.9467 0
M  V30 4978 H 508.165 -1.07434 2.93026 0
M  V30 4979 N 508.466 -1.55915 -0.229846 0
M  V30 4980 C 509.398 -1.88209 -1.30805 0
M  V30 4981 C 510.411 -0.769672 -1.43457 0
M  V30 4982 O 511.6 -1.04792 -1.44502 0
M  V30 4983 C 508.7 -2.06829 -2.68468 0
M  V30 4984 C 507.873 -3.37798 -2.77869 0
M  V30 4985 C 506.932 -3.45952 -3.96489 0
M  V30 4986 O 505.958 -4.19043 -3.85216 0
M  V30 4987 N 507.16 -2.76488 -5.10426 0
M  V30 4988 H 509.925 -2.81286 -1.03431 0
M  V30 4989 H 507.486 -1.5636 -0.41991 0
M  V30 4990 H 509.478 -2.09608 -3.46189 0
M  V30 4991 H 508.048 -1.20416 -2.88477 0
M  V30 4992 H 507.268 -3.4719 -1.86689 0
M  V30 4993 H 508.556 -4.24091 -2.81113 0
M  V30 4994 H 507.954 -2.16868 -5.2248 0
M  V30 4995 H 506.511 -2.84938 -5.8622 0
M  V30 4996 N 509.944 0.496216 -1.49584 0
M  V30 4997 C 511.36 0.827814 -1.36453 0
M  V30 4998 C 511.56 1.97464 -0.401285 0
M  V30 4999 O 510.616 2.51958 0.165296 0
M  V30 5000 C 511.929 1.16352 -2.77277 0
M  V30 5001 C 513.477 1.27145 -2.86013 0
M  V30 5002 C 513.952 1.64042 -4.27615 0
M  V30 5003 N 515.443 1.71082 -4.30448 0
M  V30 5004 C 516.178 2.01085 -5.36984 0
M  V30 5005 N 515.674 2.2928 -6.5376 0
M  V30 5006 N 517.467 2.02376 -5.24405 0
M  V30 5007 H 509.618 -0.259947 -2.10803 0
M  V30 5008 H 511.881 -0.0537163 -0.946477 0
M  V30 5009 H 511.587 0.394153 -3.49484 0
M  V30 5010 H 511.461 2.10582 -3.12946 0
M  V30 5011 H 513.848 2.03152 -2.1404 0
M  V30 5012 H 513.929 0.309542 -2.5392 0
M  V30 5013 H 513.573 0.88583 -5.00115 0
M  V30 5014 H 513.503 2.6134 -4.57175 0
M  V30 5015 H 515.994 1.51434 -3.46232 0
M  V30 5016 H 516.307 2.51376 -7.30774 0
M  V30 5017 H 514.652 2.26726 -6.56978 0
M  V30 5018 H 517.843 1.79829 -4.32179 0
M  V30 5019 H 518.016 2.25425 -6.07526 0
M  V30 5020 N 511.423 1.38739 0.74761 0
M  V30 5021 C 512.839 1.20067 1.05148 0
M  V30 5022 C 513.039 0.0534835 2.01429 0
M  V30 5023 O 512.095 -0.59886 2.45296 0
M  V30 5024 C 513.408 2.52957 1.62584 0
M  V30 5025 C 514.956 2.59692 1.74726 0
M  V30 5026 C 515.431 3.92772 2.35573 0
M  V30 5027 N 516.922 3.94343 2.42997 0
M  V30 5028 C 517.657 4.9408 2.90985 0
M  V30 5029 N 517.153 6.04214 3.38965 0
M  V30 5030 N 518.946 4.81466 2.9008 0
M  V30 5031 H 511.097 2.12121 0.108808 0
M  V30 5032 H 513.36 0.941491 0.110899 0
M  V30 5033 H 513.066 3.37389 0.993051 0
M  V30 5034 H 512.94 2.71779 2.61565 0
M  V30 5035 H 515.327 1.75651 2.3713 0
M  V30 5036 H 515.408 2.44731 0.744326 0
M  V30 5037 H 515.052 4.77238 1.738 0
M  V30 5038 H 514.982 4.05046 3.36519 0
M  V30 5039 H 517.473 3.14799 2.0907 0
M  V30 5040 H 517.786 6.76241 3.74056 0
M  V30 5041 H 516.131 6.07825 3.37007 0
M  V30 5042 H 519.322 3.94535 2.51912 0
M  V30 5043 H 519.495 5.59344 3.27166 0
M  V30 5044 N 512.901 -0.976442 1.23707 0
M  V30 5045 C 514.317 -1.24341 1.00058 0
M  V30 5046 C 514.517 -1.99315 -0.295932 0
M  V30 5047 O 513.573 -2.3123 -1.01435 0
M  V30 5048 C 514.886 -2.03909 2.21001 0
M  V30 5049 C 516.434 -2.17034 2.25534 0
M  V30 5050 C 516.909 -2.99994 3.46075 0
M  V30 5051 N 518.4 -3.07578 3.46338 0
M  V30 5052 C 519.135 -3.72104 4.36264 0
M  V30 5053 N 518.631 -4.3842 5.36432 0
M  V30 5054 N 520.424 -3.69029 4.23998 0
M  V30 5055 H 512.575 -0.47428 2.07037 0
M  V30 5056 H 514.838 -0.272167 0.908091 0
M  V30 5057 H 514.544 -1.56198 3.15111 0
M  V30 5058 H 514.418 -3.04654 2.22409 0
M  V30 5059 H 516.805 -2.63951 1.31961 0
M  V30 5060 H 516.886 -1.15664 2.28156 0
M  V30 5061 H 516.53 -2.53772 4.39957 0
M  V30 5062 H 516.46 -4.01541 3.40694 0
M  V30 5063 H 518.951 -2.60397 2.73865 0
M  V30 5064 H 519.264 -4.85447 6.013 0
M  V30 5065 H 517.609 -4.37116 5.40328 0
M  V30 5066 H 520.8 -3.16392 3.44984 0
M  V30 5067 H 520.973 -4.19034 4.94282 0
M  V30 5068 N 514.379 -1.04941 -1.1758 0
M  V30 5069 C 515.309 -0.669172 -2.23706 0
M  V30 5070 C 516.29 0.331835 -1.66832 0
M  V30 5071 O 517.475 0.209988 -1.93061 0
M  V30 5072 C 514.605 -0.0404889 -3.47276 0
M  V30 5073 C 513.559 -0.965983 -4.16957 0
M  V30 5074 C 512.885 -0.201312 -5.34321 0
M  V30 5075 C 514.185 -2.28902 -4.69469 0
M  V30 5076 H 515.879 -1.55639 -2.55767 0
M  V30 5077 H 513.425 -0.749793 -1.22939 0
M  V30 5078 H 515.378 0.237298 -4.20731 0
M  V30 5079 H 514.102 0.881658 -3.14475 0
M  V30 5080 H 512.761 -1.22829 -3.45411 0
M  V30 5081 H 512.409 0.723519 -4.97769 0
M  V30 5082 H 512.109 -0.817968 -5.81879 0
M  V30 5083 H 513.633 0.0692499 -6.10561 0
M  V30 5084 H 515.047 -2.07132 -5.34574 0
M  V30 5085 H 513.444 -2.85942 -5.27596 0
M  V30 5086 H 514.514 -2.92937 -3.86414 0
M  V30 5087 N 515.857 1.33968 -0.830081 0
M  V30 5088 C 516.787 2.31911 -0.271911 0
M  V30 5089 C 517.768 1.58571 0.61556 0
M  V30 5090 O 518.953 1.86514 0.540946 0
M  V30 5091 C 516.083 3.42737 0.561146 0
M  V30 5092 C 515.037 4.27383 -0.229789 0
M  V30 5093 C 514.363 5.29742 0.726463 0
M  V30 5094 C 515.663 5.02 -1.44197 0
M  V30 5095 H 517.357 2.78844 -1.09025 0
M  V30 5096 H 514.903 1.34061 -0.52571 0
M  V30 5097 H 516.856 4.10276 0.961867 0
M  V30 5098 H 515.58 2.94471 1.41261 0
M  V30 5099 H 514.239 3.61456 -0.611964 0
M  V30 5100 H 513.887 4.77736 1.57408 0
M  V30 5101 H 513.587 5.87255 0.20142 0
M  V30 5102 H 515.111 6.00149 1.12489 0
M  V30 5103 H 516.525 5.62355 -1.11488 0
M  V30 5104 H 514.922 5.69122 -1.90317 0
M  V30 5105 H 515.992 4.31281 -2.2164 0
M  V30 5106 N 517.335 0.585699 1.46312 0
M  V30 5107 C 518.265 -0.133556 2.33118 0
M  V30 5108 C 519.246 -0.880707 1.45525 0
M  V30 5109 O 520.431 -0.855579 1.74337 0
M  V30 5110 C 517.561 -1.14585 3.27853 0
M  V30 5111 C 516.515 -0.513341 4.2491 0
M  V30 5112 C 515.841 -1.63231 5.09175 0
M  V30 5113 C 517.141 0.551413 5.19381 0
M  V30 5114 H 518.835 0.59121 2.93505 0
M  V30 5115 H 516.381 0.285761 1.41136 0
M  V30 5116 H 518.334 -1.65741 3.87438 0
M  V30 5117 H 517.058 -1.90093 2.65579 0
M  V30 5118 H 515.717 -0.0228349 3.66593 0
M  V30 5119 H 515.365 -2.37713 4.43285 0
M  V30 5120 H 515.065 -1.21473 5.74907 0
M  V30 5121 H 516.589 -2.14658 5.71624 0
M  V30 5122 H 518.003 0.124804 5.73164 0
M  V30 5123 H 516.4 0.889486 5.93471 0
M  V30 5124 H 517.47 1.43655 4.63132 0
M  V30 5125 N 518.813 -1.54241 0.323641 0
M  V30 5126 C 519.776 -2.22997 -0.529602 0
M  V30 5127 C 520.776 -1.22345 -1.04347 0
M  V30 5128 O 521.966 -1.46924 -0.935889 0
M  V30 5129 C 519.098 -2.93409 -1.73562 0
M  V30 5130 H 520.291 -2.99815 0.0714518 0
M  V30 5131 H 517.844 -1.56121 0.0747258 0
M  V30 5132 H 518.579 -2.20729 -2.37591 0
M  V30 5133 H 518.364 -3.67217 -1.37456 0
M  V30 5134 H 519.854 -3.45794 -2.34128 0
M  V30 5135 N 520.291 -0.0518155 -1.57515 0
M  V30 5136 C 521.707 0.304735 -1.56664 0
M  V30 5137 C 521.907 1.71395 -1.05953 0
M  V30 5138 O 520.963 2.42123 -0.716414 0
M  V30 5139 C 522.276 0.132614 -3.00407 0
M  V30 5140 C 523.824 0.20367 -3.12337 0
M  V30 5141 C 524.299 0.0600706 -4.57961 0
M  V30 5142 N 525.79 0.116326 -4.63054 0
M  V30 5143 C 526.525 0.0293363 -5.73392 0
M  V30 5144 N 526.021 -0.110038 -6.92713 0
M  V30 5145 N 527.814 0.0849651 -5.62036 0
M  V30 5146 H 519.965 -0.973056 -1.888 0
M  V30 5147 H 522.228 -0.377781 -0.869474 0
M  V30 5148 H 521.934 -0.839019 -3.41546 0
M  V30 5149 H 521.808 0.893376 -3.66468 0
M  V30 5150 H 524.195 1.16578 -2.71097 0
M  V30 5151 H 524.276 -0.587857 -2.48954 0
M  V30 5152 H 523.92 -0.898715 -4.99886 0
M  V30 5153 H 523.85 0.87075 -5.19351 0
M  V30 5154 H 526.341 0.22327 -3.7724 0
M  V30 5155 H 526.654 -0.169104 -7.72615 0
M  V30 5156 H 524.999 -0.145132 -6.94848 0
M  V30 5157 H 528.19 0.192411 -4.67704 0
M  V30 5158 H 528.363 0.0137131 -6.47999 0
M  V30 5159 N 521.769 1.56035 0.221574 0
M  V30 5160 C 522.732 1.91584 1.2581 0
M  V30 5161 C 523.732 0.794425 1.39805 0
M  V30 5162 O 524.922 1.06217 1.38071 0
M  V30 5163 C 522.054 2.16663 2.63192 0
M  V30 5164 H 523.247 2.8429 0.954935 0
M  V30 5165 H 520.8 1.49316 0.461988 0
M  V30 5166 H 521.535 1.26508 2.98607 0
M  V30 5167 H 521.32 2.98358 2.5441 0
M  V30 5168 H 522.81 2.45262 3.37988 0
M  V30 5169 N 523.247 -0.488276 1.49845 0
M  V30 5170 C 524.493 -1.24341 1.6021 0
M  V30 5171 C 524.826 -1.91967 0.293651 0
M  V30 5172 O 524.101 -1.81323 -0.703718 0
M  V30 5173 C 524.384 -2.3005 2.77036 0
M  V30 5174 C 524.237 -1.66842 4.17713 0
M  V30 5175 C 525.556 -3.31509 2.89464 0
M  V30 5176 H 522.675 -0.450704 0.583125 0
M  V30 5177 H 525.317 -0.539673 1.82174 0
M  V30 5178 H 523.467 -2.90071 2.58439 0
M  V30 5179 H 525.139 -1.1055 4.47858 0
M  V30 5180 H 523.382 -0.972079 4.22768 0
M  V30 5181 H 524.053 -2.43576 4.95353 0
M  V30 5182 H 526.529 -2.81493 3.06433 0
M  V30 5183 H 525.405 -4.02822 3.72861 0
M  V30 5184 H 525.666 -3.94603 1.99351 0
M  V30 5185 N 524.725 -1.39134 -0.740242 0
M  V30 5186 C 525.655 -1.40165 -1.86751 0
M  V30 5187 C 526.636 -0.265708 -1.68012 0
M  V30 5188 O 527.821 -0.47076 -1.88408 0
M  V30 5189 C 524.951 -1.2392 -3.2444 0
M  V30 5190 C 523.905 -2.34858 -3.57807 0
M  V30 5191 C 523.231 -2.03707 -4.94376 0
M  V30 5192 C 524.531 -3.77159 -3.61315 0
M  V30 5193 H 526.225 -2.345 -1.86145 0
M  V30 5194 H 523.771 -1.12875 -0.89416 0
M  V30 5195 H 525.724 -1.23263 -4.02969 0
M  V30 5196 H 524.448 -0.26051 -3.25559 0
M  V30 5197 H 523.107 -2.34723 -2.81604 0
M  V30 5198 H 522.755 -1.04289 -4.9207 0
M  V30 5199 H 522.455 -2.78016 -5.17669 0
M  V30 5200 H 523.979 -2.04691 -5.75268 0
M  V30 5201 H 525.393 -3.79252 -4.29931 0
M  V30 5202 H 523.79 -4.50784 -3.96124 0
M  V30 5203 H 524.86 -4.08513 -2.61238 0
M  V30 5204 N 526.204 0.969867 -1.24223 0
M  V30 5205 C 527.429 1.75289 -1.10853 0
M  V30 5206 C 527.854 1.85091 0.335079 0
M  V30 5207 O 527.212 1.32024 1.24255 0
M  V30 5208 C 527.26 3.15255 -1.75062 0
M  V30 5209 O 526.364 3.99589 -1.01992 0
M  V30 5210 H 525.705 0.538904 -0.387915 0
M  V30 5211 H 528.235 1.21675 -1.64488 0
M  V30 5212 H 528.245 3.65787 -1.80731 0
M  V30 5213 H 526.92 3.07436 -2.801 0
M  V30 5214 H 525.497 3.58077 -1.04094 0
M  V30 5215 N 527.682 1.05563 1.17022 0
M  V30 5216 C 529.093 0.793475 1.69 0
M  V30 5217 C 529.444 -0.683882 1.83895 0
M  V30 5218 O 528.569 -1.53116 1.5292 0
M  V30 5219 C 529.164 1.43376 3.06967 0
M  V30 5220 C 527.723 1.21956 3.56095 0
M  V30 5221 C 526.87 1.51494 2.3226 0
M  V30 5222 H 529.821 1.22008 1.01487 0
M  V30 5223 H 529.842 0.845068 3.70997 0
M  V30 5224 H 529.354 2.50899 2.96093 0
M  V30 5225 H 527.455 0.163749 3.7224 0
M  V30 5226 H 527.568 1.92713 4.38633 0
M  V30 5227 H 525.932 0.935175 2.3691 0
M  V30 5228 H 526.715 2.60159 2.23992 0
M  V30 5229 N 529.16 -1.33526 0.837174 0
M  V30 5230 C 530.123 -2.27551 0.274421 0
M  V30 5231 C 531.123 -1.50886 -0.555881 0
M  V30 5232 O 532.313 -1.70227 -0.369918 0
M  V30 5233 C 529.445 -3.35332 -0.613605 0
M  V30 5234 H 530.638 -2.78837 1.10408 0
M  V30 5235 H 528.191 -1.439 0.610126 0
M  V30 5236 H 528.926 -2.89285 -1.46577 0
M  V30 5237 H 528.711 -3.92095 -0.0195341 0
M  V30 5238 H 530.201 -4.05433 -1.00068 0
M  V30 5239 N 530.638 -0.59345 -1.46 0
M  V30 5240 C 532.054 -0.255965 -1.57534 0
M  V30 5241 C 532.254 1.24167 -1.58697 0
M  V30 5242 O 531.31 2.02398 -1.50968 0
M  V30 5243 C 532.623 -0.91466 -2.86451 0
M  V30 5244 C 534.171 -0.889253 -3.00102 0
M  V30 5245 C 534.646 -1.52769 -4.3177 0
M  V30 5246 N 536.137 -1.49253 -4.38495 0
M  V30 5247 C 536.872 -1.9558 -5.39014 0
M  V30 5248 N 536.368 -2.49929 -6.46148 0
M  V30 5249 N 538.161 -1.86432 -5.30282 0
M  V30 5250 H 530.312 -1.56604 -1.43489 0
M  V30 5251 H 532.575 -0.655207 -0.685133 0
M  V30 5252 H 532.281 -1.96861 -2.91442 0
M  V30 5253 H 532.155 -0.429356 -3.74748 0
M  V30 5254 H 534.542 0.156111 -2.94687 0
M  V30 5255 H 534.623 -1.41268 -2.13253 0
M  V30 5256 H 534.267 -2.57231 -4.37944 0
M  V30 5257 H 534.197 -0.979398 -5.17412 0
M  V30 5258 H 536.688 -1.09536 -3.61677 0
M  V30 5259 H 537.001 -2.83109 -7.19075 0
M  V30 5260 H 535.346 -2.53961 -6.46938 0
M  V30 5261 H 538.537 -1.43722 -4.4549 0
M  V30 5262 H 538.71 -2.22852 -6.08474 0
M  V30 5263 N 532.116 1.54067 -0.331816 0
M  V30 5264 C 533.365 1.99895 0.269209 0
M  V30 5265 C 533.678 1.22371 1.52593 0
M  V30 5266 O 534.884 1.58618 2.20347 0
M  V30 5267 C 533.34 3.55972 0.530244 0
M  V30 5268 C 532.948 4.4234 -0.709901 0
M  V30 5269 C 534.692 4.10247 1.09077 0
M  V30 5270 C 532.599 5.89905 -0.420312 0
M  V30 5271 H 531.529 0.746741 0.104371 0
M  V30 5272 H 534.18 1.78014 -0.445324 0
M  V30 5273 H 532.562 3.73873 1.30518 0
M  V30 5274 H 533.736 4.36215 -1.48504 0
M  V30 5275 H 532.051 3.98997 -1.19123 0
M  V30 5276 H 534.648 5.18095 1.32219 0
M  V30 5277 H 534.991 3.62739 2.0427 0
M  V30 5278 H 535.524 3.96011 0.376824 0
M  V30 5279 H 532.263 6.41623 -1.34164 0
M  V30 5280 H 531.783 5.98962 0.316962 0
M  V30 5281 H 533.462 6.46991 -0.0331956 0
M  V30 5282 N 533.594 0.0601682 1.57485 0
M  V30 5283 C 534.84 -0.612501 1.93329 0
M  V30 5284 C 535.173 -1.6996 0.939526 0
M  V30 5285 O 534.448 -1.94472 -0.0330957 0
M  V30 5286 C 534.731 -1.20025 3.39508 0
M  V30 5287 C 534.584 -0.12059 4.49638 0
M  V30 5288 C 535.903 -2.10923 3.86264 0
M  V30 5289 H 533.022 -0.221185 0.703027 0
M  V30 5290 H 535.664 0.123768 1.89596 0
M  V30 5291 H 533.814 -1.82774 3.42821 0
M  V30 5292 H 535.486 0.51185 4.58452 0
M  V30 5293 H 533.729 0.550251 4.30296 0
M  V30 5294 H 534.4 -0.572019 5.49028 0
M  V30 5295 H 536.876 -1.58124 3.84884 0
M  V30 5296 H 535.752 -2.48987 4.8918 0
M  V30 5297 H 536.013 -3.01292 3.23536 0
M  V30 5298 N 535.072 -1.5615 -0.213296 0
M  V30 5299 C 536.002 -1.96109 -1.26742 0
M  V30 5300 C 536.983 -0.830448 -1.48451 0
M  V30 5301 O 538.168 -1.09339 -1.60495 0
M  V30 5302 C 535.298 -2.28492 -2.61551 0
M  V30 5303 C 534.252 -3.44124 -2.54485 0
M  V30 5304 C 533.578 -3.62134 -3.93399 0
M  V30 5305 C 534.878 -4.78855 -2.08556 0
M  V30 5306 H 536.572 -2.84412 -0.935434 0
M  V30 5307 H 534.118 -1.36836 -0.44854 0
M  V30 5308 H 536.071 -2.55039 -3.3546 0
M  V30 5309 H 534.795 -1.37052 -2.96453 0
M  V30 5310 H 533.454 -3.17639 -1.83033 0
M  V30 5311 H 533.102 -2.68055 -4.25623 0
M  V30 5312 H 532.802 -4.39913 -3.89551 0
M  V30 5313 H 534.326 -3.91038 -4.68958 0
M  V30 5314 H 535.74 -5.04552 -2.72213 0
M  V30 5315 H 534.137 -5.59975 -2.1575 0
M  V30 5316 H 535.207 -4.73657 -1.03811 0
M  V30 5317 N 536.55 0.480323 -1.50102 0
M  V30 5318 C 537.48 1.58769 -1.71215 0
M  V30 5319 C 538.461 1.60583 -0.560997 0
M  V30 5320 O 539.646 1.76996 -0.799127 0
M  V30 5321 C 536.776 2.97148 -1.79778 0
M  V30 5322 C 535.73 3.10201 -2.94888 0
M  V30 5323 C 535.056 4.50137 -2.88584 0
M  V30 5324 C 536.356 2.88283 -4.35534 0
M  V30 5325 H 538.05 1.41354 -2.6393 0
M  V30 5326 H 535.596 0.678591 -1.27008 0
M  V30 5327 H 537.549 3.74536 -1.93133 0
M  V30 5328 H 536.273 3.15699 -0.836772 0
M  V30 5329 H 534.932 2.35244 -2.81169 0
M  V30 5330 H 534.58 4.65593 -1.90349 0
M  V30 5331 H 534.28 4.59808 -3.65856 0
M  V30 5332 H 535.804 5.29558 -3.03976 0
M  V30 5333 H 537.218 3.55427 -4.49827 0
M  V30 5334 H 535.615 3.09408 -5.14186 0
M  V30 5335 H 536.685 1.84219 -4.48544 0
M  V30 5336 N 538.028 1.39524 0.732853 0
M  V30 5337 C 539.305 1.27373 1.48444 0
M  V30 5338 C 539.685 -0.115725 2.10783 0
M  V30 5339 O 539.033 -1.12713 1.98766 0
M  V30 5340 C 539.243 2.39966 2.53412 0
M  V30 5341 C 540.591 2.79384 3.19733 0
M  V30 5342 O 541.615 2.39431 2.63725 0
M  V30 5343 O 540.474 3.48353 4.21085 0
M  V30 5344 H 537.568 0.499272 0.659285 0
M  V30 5345 H 540.114 1.51403 0.766496 0
M  V30 5346 H 538.886 3.32845 2.05742 0
M  V30 5347 H 538.509 2.17612 3.32762 0
M  V30 5348 N 539.506 -0.963266 1.24736 0
M  V30 5349 C 540.416 -2.09246 1.06082 0
M  V30 5350 C 541.432 -1.74 0.000363101 0
M  V30 5351 O 542.608 -2.0041 0.199479 0
M  V30 5352 C 539.673 -3.40115 0.672498 0
M  V30 5353 C 538.734 -3.89282 1.80993 0
M  V30 5354 C 537.967 -5.13905 1.44004 0
M  V30 5355 O 538.19 -5.69434 0.331835 0
M  V30 5356 O 537.124 -5.57566 2.26723 0
M  V30 5357 H 540.95 -2.27881 2.00759 0
M  V30 5358 H 538.535 -1.07649 1.03595 0
M  V30 5359 H 540.417 -4.18797 0.467668 0
M  V30 5360 H 539.092 -3.22771 -0.245102 0
M  V30 5361 H 537.999 -3.11642 2.06955 0
M  V30 5362 H 539.332 -4.1111 2.70646 0
M  V30 5363 N 540.985 -1.06182 -1.16461 0
M  V30 5364 C 542.396 -0.802426 -1.68576 0
M  V30 5365 C 542.747 0.67412 -1.84255 0
M  V30 5366 O 541.872 1.52303 -1.5373 0
M  V30 5367 C 542.467 -1.45002 -3.06202 0
M  V30 5368 C 541.026 -1.23843 -3.55443 0
M  V30 5369 C 540.173 -1.52724 -2.31454 0
M  V30 5370 H 543.124 -1.22545 -1.00839 0
M  V30 5371 H 543.145 -0.864731 -3.70544 0
M  V30 5372 H 542.657 -2.52466 -2.94759 0
M  V30 5373 H 540.758 -0.183487 -3.72148 0
M  V30 5374 H 540.871 -1.95036 -4.37604 0
M  V30 5375 H 539.235 -0.947726 -2.36411 0
M  V30 5376 H 540.018 -2.61343 -2.22609 0
M  V30 5377 N 542.463 1.3308 -0.844243 0
M  V30 5378 C 543.709 1.97898 -0.443206 0
M  V30 5379 C 544.042 1.66699 0.99625 0
M  V30 5380 O 543.317 0.949704 1.69738 0
M  V30 5381 C 543.6 3.53801 -0.670606 0
M  V30 5382 C 543.453 3.94667 -2.15772 0
M  V30 5383 C 544.772 4.39936 -0.120226 0
M  V30 5384 H 541.891 0.718861 -0.162504 0
M  V30 5385 H 544.533 1.57633 -1.06075 0
M  V30 5386 H 542.683 3.88229 -0.14496 0
M  V30 5387 H 544.355 3.70469 -2.74865 0
M  V30 5388 H 542.598 3.44203 -2.6402 0
M  V30 5389 H 543.269 5.03275 -2.26757 0
M  V30 5390 H 545.745 4.12183 -0.5696 0
M  V30 5391 H 544.621 5.4803 -0.308984 0
M  V30 5392 H 544.882 4.31184 0.976347 0
M  V30 5393 N 543.941 0.601185 1.45683 0
M  V30 5394 C 544.851 -0.123395 2.34275 0
M  V30 5395 C 545.867 -0.86702 1.5086 0
M  V30 5396 O 547.043 -0.826049 1.8368 0
M  V30 5397 C 544.108 -1.11237 3.2837 0
M  V30 5398 C 543.169 -0.371405 4.2769 0
M  V30 5399 C 542.402 -1.31327 5.1729 0
M  V30 5400 O 542.625 -2.55078 5.10188 0
M  V30 5401 O 541.559 -0.813811 5.96373 0
M  V30 5402 H 545.385 0.604483 2.97623 0
M  V30 5403 H 542.97 0.361477 1.44961 0
M  V30 5404 H 544.852 -1.68214 3.8637 0
M  V30 5405 H 543.527 -1.82139 2.67595 0
M  V30 5406 H 542.434 0.24067 3.73325 0
M  V30 5407 H 543.767 0.296998 4.91303 0
M  V30 5408 N 545.419 -1.53889 0.339982 0
M  V30 5409 C 546.369 -2.2165 -0.534354 0
M  V30 5410 C 547.353 -1.20266 -1.06887 0
M  V30 5411 O 548.545 -1.45827 -1.00316 0
M  V30 5412 C 545.674 -2.99014 -1.68659 0
M  V30 5413 C 544.76 -4.07751 -1.16618 0
M  V30 5414 N 545.151 -5.04469 -0.366717 0
M  V30 5415 C 543.449 -4.21998 -1.4434 0
M  V30 5416 C 544.15 -5.81638 -0.0847275 0
M  V30 5417 N 543.126 -5.39388 -0.675391 0
M  V30 5418 H 546.928 -2.93781 0.0835562 0
M  V30 5419 H 544.442 -1.61736 0.146665 0
M  V30 5420 H 546.439 -3.46056 -2.32489 0
M  V30 5421 H 545.099 -2.28408 -2.30781 0
M  V30 5422 H 546.11 -5.17899 -0.00811038 0
M  V30 5423 H 542.787 -3.62612 -2.06928 0
M  V30 5424 H 544.177 -6.69563 0.559943 0
M  V30 5425 N 546.897 -0.0685191 -1.57451 0
M  V30 5426 C 547.827 0.89747 -2.15564 0
M  V30 5427 C 548.808 1.31266 -1.08181 0
M  V30 5428 O 549.993 1.38429 -1.36202 0
M  V30 5429 C 547.123 2.16623 -2.71463 0
M  V30 5430 C 546.077 1.89054 -3.83982 0
M  V30 5431 C 545.403 3.22532 -4.26471 0
M  V30 5432 C 546.703 1.1984 -5.08366 0
M  V30 5433 H 548.397 0.413373 -2.96533 0
M  V30 5434 H 545.943 0.197391 -1.42641 0
M  V30 5435 H 547.896 2.84614 -3.10761 0
M  V30 5436 H 546.62 2.67269 -1.8771 0
M  V30 5437 H 545.279 1.23469 -3.45183 0
M  V30 5438 H 544.927 3.71013 -3.39644 0
M  V30 5439 H 544.627 3.04879 -5.02317 0
M  V30 5440 H 546.151 3.91727 -4.68383 0
M  V30 5441 H 547.565 1.77896 -5.45001 0
M  V30 5442 H 545.962 1.12456 -5.89469 0
M  V30 5443 H 547.032 0.176996 -4.84577 0
M  V30 5444 N 548.375 1.56261 0.205012 0
M  V30 5445 C 549.652 1.70856 0.952233 0
M  V30 5446 C 550.032 0.620501 2.01775 0
M  V30 5447 O 549.38 -0.370035 2.25484 0
M  V30 5448 C 549.59 3.12807 1.54767 0
M  V30 5449 C 550.938 3.72733 2.0336 0
M  V30 5450 O 551.962 3.15873 1.64629 0
M  V30 5451 O 550.821 4.72501 2.746 0
M  V30 5452 H 547.915 0.696496 0.445895 0
M  V30 5453 H 550.461 1.6857 0.195489 0
M  V30 5454 H 549.233 3.83465 0.779132 0
M  V30 5455 H 548.856 3.1928 2.36951 0
M  V30 5456 N 549.853 -0.472356 1.50355 0
M  V30 5457 C 550.816 -1.5529 1.68576 0
M  V30 5458 C 551.816 -1.50863 0.556511 0
M  V30 5459 O 553.006 -1.53505 0.823516 0
M  V30 5460 C 550.138 -2.94921 1.70981 0
M  V30 5461 H 551.331 -1.40451 2.64978 0
M  V30 5462 H 548.884 -0.698645 1.39816 0
M  V30 5463 H 549.619 -3.15204 0.762675 0
M  V30 5464 H 549.404 -2.99541 2.53017 0
M  V30 5465 H 550.894 -3.73372 1.87037 0
M  V30 5466 N 551.331 -1.39911 -0.725443 0
M  V30 5467 C 552.294 -1.39156 -1.82121 0
M  V30 5468 C 553.294 -0.287018 -1.58218 0
M  V30 5469 O 554.484 -0.545421 -1.65441 0
M  V30 5470 C 551.616 -1.1736 -3.20062 0
M  V30 5471 H 552.809 -2.36672 -1.84191 0
M  V30 5472 H 550.362 -1.25615 -0.930079 0
M  V30 5473 H 551.097 -0.205648 -3.23647 0
M  V30 5474 H 550.882 -1.97358 -3.3881 0
M  V30 5475 H 552.372 -1.19596 -4.00108 0
M  V30 5476 N 552.809 0.956637 -1.25245 0
M  V30 5477 C 553.757 2.0743 -1.0524 0
M  V30 5478 C 554.751 1.69392 0.0160725 0
M  V30 5479 O 555.957 1.7946 -0.139382 0
M  V30 5480 H 552.332 0.678921 -0.323373 0
M  V30 5481 H 554.303 2.2146 -1.99995 0
M  V30 5482 C 553.052 3.40872 -0.685702 0
M  V30 5483 H 552.375 3.70607 -1.49968 0
M  V30 5484 H 553.815 4.19939 -0.585415 0
M  V30 5485 C 552.274 3.31367 0.608082 0
M  V30 5486 O 552.804 3.66214 1.65076 0
M  V30 5487 N 551.01 2.84486 0.592955 0
M  V30 5488 H 550.557 2.56326 -0.25592 0
M  V30 5489 H 550.515 2.78509 1.45877 0
M  V30 5490 N 554.287 1.06798 1.15896 0
M  V30 5491 C 555.25 0.687328 2.18651 0
M  V30 5492 C 556.25 -0.269559 1.58524 0
M  V30 5493 O 557.44 -0.0512627 1.74125 0
M  V30 5494 C 554.572 0.0121642 3.40898 0
M  V30 5495 H 555.765 1.59701 2.53842 0
M  V30 5496 H 553.318 0.863828 1.3026 0
M  V30 5497 H 554.053 -0.910025 3.1127 0
M  V30 5498 H 553.838 0.700309 3.85795 0
M  V30 5499 H 555.328 -0.239703 4.16911 0
M  V30 5500 N 555.766 -1.3263 0.851289 0
M  V30 5501 C 557.043 -1.91982 0.374448 0
M  V30 5502 C 557.423 -1.77568 -1.14161 0
M  V30 5503 O 556.771 -1.1717 -1.96172 0
M  V30 5504 C 556.981 -3.38862 0.835088 0
M  V30 5505 C 558.329 -4.15999 0.850309 0
M  V30 5506 O 559.353 -3.47566 0.779505 0
M  V30 5507 O 558.212 -5.38189 0.949481 0
M  V30 5508 H 555.306 -0.819846 0.10854 0
M  V30 5509 H 557.852 -1.41422 0.937966 0
M  V30 5510 H 556.624 -3.43281 1.87814 0
M  V30 5511 H 556.247 -3.96821 0.248833 0
M  V30 5512 N 557.244 -0.608902 -1.45362 0
M  V30 5513 C 558.174 0.0964526 -2.33301 0
M  V30 5514 C 559.155 0.857444 -1.46908 0
M  V30 5515 O 560.34 0.827735 -1.75676 0
M  V30 5516 C 557.47 1.09354 -3.29635 0
M  V30 5517 C 556.424 0.445676 -4.25673 0
M  V30 5518 C 555.75 1.5511 -5.11708 0
M  V30 5519 C 557.05 -0.633972 -5.18438 0
M  V30 5520 H 558.744 -0.637829 -2.92527 0
M  V30 5521 H 556.29 -0.308178 -1.40664 0
M  V30 5522 H 558.243 1.59556 -3.90025 0
M  V30 5523 H 556.967 1.85843 -2.6857 0
M  V30 5524 H 555.626 -0.0354897 -3.66583 0
M  V30 5525 H 555.274 2.30631 -4.4701 0
M  V30 5526 H 554.974 1.12311 -5.76767 0
M  V30 5527 H 556.498 2.05537 -5.74967 0
M  V30 5528 H 557.912 -0.215974 -5.72893 0
M  V30 5529 H 556.309 -0.983789 -5.91981 0
M  V30 5530 H 557.379 -1.51005 -4.60788 0
M  V30 5531 N 558.722 1.53707 -0.348139 0
M  V30 5532 C 559.652 2.28111 0.498766 0
M  V30 5533 C 560.633 1.29851 1.09876 0
M  V30 5534 O 561.818 1.587 1.11928 0
M  V30 5535 C 558.948 3.05735 1.64753 0
M  V30 5536 C 557.902 4.11537 1.17565 0
M  V30 5537 C 557.228 4.77142 2.4133 0
M  V30 5538 C 558.528 5.21587 0.272844 0
M  V30 5539 H 560.222 2.99152 -0.121934 0
M  V30 5540 H 557.768 1.43875 -0.0600842 0
M  V30 5541 H 559.721 3.56526 2.24649 0
M  V30 5542 H 558.445 2.32354 2.2952 0
M  V30 5543 H 557.104 3.61665 0.599483 0
M  V30 5544 H 556.752 4.0035 3.04514 0
M  V30 5545 H 556.452 5.48626 2.10436 0
M  V30 5546 H 557.976 5.30719 3.01943 0
M  V30 5547 H 559.39 5.67986 0.778779 0
M  V30 5548 H 557.787 6.00074 0.0555849 0
M  V30 5549 H 558.857 4.79969 -0.689785 0
M  V30 5550 N 560.2 0.0768682 1.57412 0
M  V30 5551 C 561.616 -0.279772 1.57129 0
M  V30 5552 C 561.816 -1.69688 1.08666 0
M  V30 5553 O 560.872 -2.40953 0.754843 0
M  V30 5554 C 562.185 -0.0848055 3.0058 0
M  V30 5555 C 563.733 -0.153954 3.12621 0
M  V30 5556 C 564.208 0.0127946 4.57998 0
M  V30 5557 N 565.699 -0.0426435 4.6318 0
M  V30 5558 C 566.434 0.0618892 5.73367 0
M  V30 5559 N 565.93 0.220229 6.9245 0
M  V30 5560 N 567.723 0.00446072 5.621 0
M  V30 5561 H 559.874 1.00297 1.87228 0
M  V30 5562 H 562.137 0.391565 0.863354 0
M  V30 5563 H 561.843 0.89325 3.40168 0
M  V30 5564 H 561.717 -0.834961 3.67843 0
M  V30 5565 H 564.104 -1.1225 2.72917 0
M  V30 5566 H 564.185 0.627389 2.47987 0
M  V30 5567 H 563.829 0.978128 4.98392 0
M  V30 5568 H 563.759 -0.788016 5.20671 0
M  V30 5569 H 566.25 -0.163226 3.77547 0
M  V30 5570 H 566.563 0.291999 7.72248 0
M  V30 5571 H 564.908 0.255658 6.9453 0
M  V30 5572 H 568.099 -0.117979 4.67951 0
M  V30 5573 H 568.272 0.0893796 6.47938 0
M  V30 5574 N 561.678 -1.56367 -0.196722 0
M  V30 5575 C 562.955 -1.71359 -0.943159 0
M  V30 5576 C 563.335 -0.631192 -2.01443 0
M  V30 5577 O 562.683 0.358071 -2.25677 0
M  V30 5578 C 562.893 -3.13623 -1.53106 0
M  V30 5579 C 564.241 -3.73806 -2.01381 0
M  V30 5580 O 565.265 -3.16742 -1.62951 0
M  V30 5581 O 564.124 -4.73951 -2.7209 0
M  V30 5582 H 561.218 -0.698851 -0.442195 0
M  V30 5583 H 563.764 -1.68672 -0.186547 0
M  V30 5584 H 562.536 -3.83873 -0.758785 0
M  V30 5585 H 562.159 -3.20532 -2.35255 0
M  V30 5586 N 563.156 0.464375 -1.50603 0
M  V30 5587 C 564.086 1.56944 -1.72889 0
M  V30 5588 C 565.067 1.59979 -0.577997 0
M  V30 5589 O 566.252 1.76138 -0.817855 0
M  V30 5590 C 563.382 2.95225 -1.8292 0
M  V30 5591 C 562.336 3.07056 -2.98162 0
M  V30 5592 C 561.662 4.47051 -2.93343 0
M  V30 5593 C 562.962 2.83648 -4.38567 0
M  V30 5594 H 564.656 1.38547 -2.65415 0
M  V30 5595 H 562.202 0.665082 -1.27721 0
M  V30 5596 H 564.155 3.72467 -1.97095 0
M  V30 5597 H 562.879 3.14793 -0.870209 0
M  V30 5598 H 561.538 2.32248 -2.83648 0
M  V30 5599 H 561.186 4.63547 -1.95276 0
M  V30 5600 H 560.886 4.55902 -3.70712 0
M  V30 5601 H 562.41 5.26304 -3.09575 0
M  V30 5602 H 563.824 3.50636 -4.53572 0
M  V30 5603 H 562.221 3.03937 -5.17438 0
M  V30 5604 H 563.291 1.79451 -4.50472 0
M  V30 5605 N 564.634 1.40294 0.718013 0
M  V30 5606 C 565.564 1.43118 1.84498 0
M  V30 5607 C 566.545 0.292403 1.67568 0
M  V30 5608 O 567.73 0.500675 1.87635 0
M  V30 5609 C 564.86 1.29065 3.22427 0
M  V30 5610 C 563.814 2.40521 3.54025 0
M  V30 5611 C 563.14 2.11546 4.91073 0
M  V30 5612 C 564.44 3.82859 3.55269 0
M  V30 5613 H 566.134 2.37432 1.82391 0
M  V30 5614 H 563.68 1.14283 0.87609 0
M  V30 5615 H 565.633 1.29658 4.00957 0
M  V30 5616 H 564.357 0.312271 3.25104 0
M  V30 5617 H 563.016 2.39173 2.77834 0
M  V30 5618 H 562.664 1.12104 4.90348 0
M  V30 5619 H 562.364 2.86216 5.1318 0
M  V30 5620 H 563.888 2.13817 5.71939 0
M  V30 5621 H 565.302 3.86044 4.23843 0
M  V30 5622 H 563.699 4.57029 3.88902 0
M  V30 5623 H 564.769 4.12617 2.54706 0
M  V30 5624 N 566.112 -0.949982 1.2575 0
M  V30 5625 C 567.075 -2.02894 1.06615 0
M  V30 5626 C 568.075 -1.60791 0.0173905 0
M  V30 5627 O 569.265 -1.72249 0.260003 0
M  V30 5628 C 566.397 -3.35219 0.619751 0
M  V30 5629 H 567.59 -2.21302 2.02399 0
M  V30 5630 H 565.143 -1.12772 1.08223 0
M  V30 5631 H 565.878 -3.22508 -0.340486 0
M  V30 5632 H 565.663 -3.67129 1.37692 0
M  V30 5633 H 567.153 -4.14505 0.507443 0
M  V30 5634 N 567.59 -1.07411 -1.15328 0
M  V30 5635 C 569.001 -0.820261 -1.67716 0
M  V30 5636 C 569.352 0.654539 -1.8496 0
M  V30 5637 O 568.477 1.50664 -1.55337 0
M  V30 5638 C 569.072 -1.48242 -3.04647 0
M  V30 5639 C 567.631 -1.27606 -3.5411 0
M  V30 5640 C 566.778 -1.5517 -2.29821 0
M  V30 5641 H 569.729 -1.23608 -0.995332 0
M  V30 5642 H 569.75 -0.903984 -3.69606 0
M  V30 5643 H 569.262 -2.55578 -2.92064 0
M  V30 5644 H 567.363 -0.222948 -3.71932 0
M  V30 5645 H 567.476 -1.99667 -4.35511 0
M  V30 5646 H 565.84 -0.972747 -2.35393 0
M  V30 5647 H 566.623 -2.63689 -2.19824 0
M  V30 5648 N 569.068 1.32177 -0.85831 0
M  V30 5649 C 570.016 2.30729 -0.294442 0
M  V30 5650 C 571.01 1.59009 0.584165 0
M  V30 5651 O 572.216 1.73713 0.471562 0
M  V30 5652 H 568.591 0.748097 -0.0765171 0
M  V30 5653 H 570.562 2.75774 -1.1398 0
M  V30 5654 C 569.311 3.44098 0.499208 0
M  V30 5655 H 568.634 3.99449 -0.167579 0
M  V30 5656 H 570.074 4.15202 0.859273 0
M  V30 5657 C 568.533 2.91684 1.68588 0
M  V30 5658 O 569.063 2.89481 2.78503 0
M  V30 5659 N 567.269 2.48036 1.51415 0
M  V30 5660 H 566.816 2.50027 0.620006 0
M  V30 5661 H 566.774 2.13322 2.30957 0
M  V30 5662 N 570.547 0.616602 1.45037 0
M  V30 5663 C 571.772 0.120192 2.07051 0
M  V30 5664 C 572.197 -1.19008 1.45666 0
M  V30 5665 O 571.555 -1.7267 0.552692 0
M  V30 5666 C 571.603 0.00354901 3.606 0
M  V30 5667 O 570.707 -1.04431 3.98958 0
M  V30 5668 H 570.048 0.0781599 0.659384 0
M  V30 5669 H 572.578 0.849167 1.86146 0
M  V30 5670 H 572.588 -0.191754 4.07549 0
M  V30 5671 H 571.263 0.960239 4.04663 0
M  V30 5672 H 569.84 -0.824749 3.63665 0
M  V30 5673 N 572.025 -1.5352 0.356285 0
M  V30 5674 C 573.273 -2.00719 -0.235837 0
M  V30 5675 C 573.594 -1.24551 -1.5004 0
M  V30 5676 O 572.864 -0.356185 -1.92635 0
M  V30 5677 H 571.444 -0.741542 -0.0901366 0
M  V30 5678 H 574.106 -1.88887 0.480378 0
M  V30 5679 H 573.202 -3.08551 -0.469357 0
M  V30 5680 N 573.503 -0.0852151 -1.57369 0
M  V30 5681 C 574.752 0.580443 -1.93168 0
M  V30 5682 C 575.065 1.6995 -0.968319 0
M  V30 5683 O 576.271 2.42564 -1.21963 0
M  V30 5684 C 574.727 1.08386 -3.43192 0
M  V30 5685 C 574.335 -0.00491388 -4.48 0
M  V30 5686 C 576.079 1.72281 -3.87968 0
M  V30 5687 C 573.986 0.513299 -5.89168 0
M  V30 5688 H 572.916 0.22059 -0.72101 0
M  V30 5689 H 575.567 -0.159621 -1.82804 0
M  V30 5690 H 573.949 1.8773 -3.48674 0
M  V30 5691 H 575.123 -0.780032 -4.5415 0
M  V30 5692 H 573.438 -0.548453 -4.12772 0
M  V30 5693 H 576.035 2.12108 -4.9083 0
M  V30 5694 H 576.378 2.58811 -3.26071 0
M  V30 5695 H 576.911 0.995359 -3.85146 0
M  V30 5696 H 573.65 -0.315153 -6.54742 0
M  V30 5697 H 573.17 1.25564 -5.8651 0
M  V30 5698 H 574.849 0.985433 -6.39451 0
M  V30 5699 N 574.981 1.5647 0.188427 0
M  V30 5700 C 575.914 1.90146 1.26173 0
M  V30 5701 C 576.892 0.762294 1.43624 0
M  V30 5702 O 578.076 1.01395 1.58907 0
M  V30 5703 C 575.203 2.13748 2.62735 0
M  V30 5704 C 574.249 3.36448 2.62116 0
M  V30 5705 S 575.082 4.91364 2.12889 0
M  V30 5706 C 576.238 5.18041 3.51261 0
M  V30 5707 H 576.471 2.80886 0.974192 0
M  V30 5708 H 574.004 1.49335 0.392226 0
M  V30 5709 H 575.962 2.28028 3.41341 0
M  V30 5710 H 574.623 1.23747 2.88696 0
M  V30 5711 H 573.816 3.50109 3.62546 0
M  V30 5712 H 573.418 3.21196 1.91596 0
M  V30 5713 H 575.71 5.0897 4.47164 0
M  V30 5714 H 576.653 6.19764 3.42489 0
M  V30 5715 H 577.061 4.45657 3.46482 0
M  V30 5716 N 576.459 -0.456382 1.50847 0
M  V30 5717 C 577.684 -1.2349 1.66628 0
M  V30 5718 C 578.109 -1.84715 0.355254 0
M  V30 5719 O 577.467 -1.67961 -0.682559 0
M  V30 5720 C 577.515 -2.30865 2.77009 0
M  V30 5721 O 576.619 -3.35882 2.39285 0
M  V30 5722 H 575.96 -0.36266 0.556214 0
M  V30 5723 H 578.49 -0.541374 1.97308 0
M  V30 5724 H 578.5 -2.75949 3.00526 0
M  V30 5725 H 577.175 -1.85677 3.72152 0
M  V30 5726 H 575.752 -2.96406 2.26269 0
M  V30 5727 N 577.937 -1.40673 -0.710563 0
M  V30 5728 C 578.9 -1.4108 -1.80635 0
M  V30 5729 C 579.9 -0.303783 -1.57904 0
M  V30 5730 O 581.09 -0.562937 -1.64853 0
M  V30 5731 C 578.222 -1.20748 -3.18799 0
M  V30 5732 H 579.415 -2.38612 -1.81671 0
M  V30 5733 H 576.968 -1.26595 -0.916704 0
M  V30 5734 H 577.703 -0.239964 -3.23411 0
M  V30 5735 H 577.488 -2.00941 -3.36698 0
M  V30 5736 H 578.978 -1.23833 -3.98817 0
M  V30 5737 N 579.415 0.9433 -1.26252 0
M  V30 5738 C 580.348 2.04162 -1.01946 0
M  V30 5739 C 581.326 1.62507 0.0550808 0
M  V30 5740 O 582.51 1.883 -0.0869025 0
M  V30 5741 C 579.637 3.34313 -0.54335 0
M  V30 5742 C 578.683 3.94939 -1.61013 0
M  V30 5743 S 579.516 4.29484 -3.19849 0
M  V30 5744 C 580.672 5.62738 -2.74001 0
M  V30 5745 H 580.905 2.24466 -1.94942 0
M  V30 5746 H 578.438 1.08441 -1.09909 0
M  V30 5747 H 580.396 4.09576 -0.275315 0
M  V30 5748 H 579.057 3.11957 0.36629 0
M  V30 5749 H 578.25 4.88812 -1.22795 0
M  V30 5750 H 577.852 3.26202 -1.82943 0
M  V30 5751 H 580.144 6.41356 -2.18333 0
M  V30 5752 H 581.087 6.05839 -3.66558 0
M  V30 5753 H 581.495 5.22514 -2.13634 0
M  V30 5754 N 580.893 1.08022 1.14757 0
M  V30 5755 C 582.309 0.807072 1.3769 0
M  V30 5756 C 582.509 -0.585504 1.92806 0
M  V30 5757 O 581.565 -1.34301 2.13821 0
M  V30 5758 C 582.878 1.88651 2.34161 0
M  V30 5759 C 584.426 1.91206 2.47809 0
M  V30 5760 C 584.901 2.98253 3.47576 0
M  V30 5761 N 586.392 2.974 3.55117 0
M  V30 5762 C 587.127 3.76872 4.32152 0
M  V30 5763 N 586.623 4.66212 5.12463 0
M  V30 5764 N 588.416 3.6519 4.27309 0
M  V30 5765 H 580.567 1.97824 0.77326 0
M  V30 5766 H 582.83 0.85826 0.402608 0
M  V30 5767 H 582.536 2.88749 2.00791 0
M  V30 5768 H 582.41 1.75244 3.3402 0
M  V30 5769 H 584.797 0.917564 2.80472 0
M  V30 5770 H 584.878 2.08691 1.47925 0
M  V30 5771 H 584.522 3.97907 3.15646 0
M  V30 5772 H 584.452 2.78014 4.47231 0
M  V30 5773 H 586.943 2.32643 2.97801 0
M  V30 5774 H 587.256 5.23468 5.68508 0
M  V30 5775 H 585.601 4.70257 5.11745 0
M  V30 5776 H 588.792 2.94765 3.63636 0
M  V30 5777 H 588.965 4.27366 4.87095 0
M  V30 5778 N 582.371 -1.3172 0.865308 0
M  V30 5779 C 583.599 -2.01057 0.488251 0
M  V30 5780 C 584.014 -1.64979 -0.918 0
M  V30 5781 O 583.371 -0.876597 -1.60069 0
M  V30 5782 C 583.422 -3.55964 0.630224 0
M  V30 5783 O 583.143 -3.90749 1.98109 0
M  V30 5784 C 584.644 -4.42574 0.253567 0
M  V30 5785 H 581.864 -0.64332 0.190736 0
M  V30 5786 H 584.408 -1.68058 1.16519 0
M  V30 5787 H 582.563 -3.874 0.000895422 0
M  V30 5788 H 582.977 -4.85467 1.9855 0
M  V30 5789 H 584.451 -5.50521 0.403875 0
M  V30 5790 H 584.928 -4.31724 -0.806895 0
M  V30 5791 H 585.534 -4.16547 0.858404 0
M  V30 5792 N 583.85 -0.624285 -1.44708 0
M  V30 5793 C 585.096 -0.126237 -2.02407 0
M  V30 5794 C 585.428 1.24618 -1.48943 0
M  V30 5795 O 584.704 1.82569 -0.670742 0
M  V30 5796 C 584.986 -0.105449 -3.59946 0
M  V30 5797 C 584.84 -1.50972 -4.23707 0
M  V30 5798 C 586.159 0.573629 -4.36346 0
M  V30 5799 H 583.278 -0.0473472 -0.735478 0
M  V30 5800 H 585.92 -0.799452 -1.72362 0
M  V30 5801 H 584.07 0.46783 -3.85673 0
M  V30 5802 H 585.742 -2.13136 -4.0911 0
M  V30 5803 H 583.985 -2.0656 -3.81465 0
M  V30 5804 H 584.656 -1.44727 -5.32689 0
M  V30 5805 H 587.132 0.0861787 -4.16011 0
M  V30 5806 H 586.008 0.557338 -5.46063 0
M  V30 5807 H 586.269 1.64276 -4.10446 0
M  V30 5808 N 585.328 1.53329 -0.364422 0
M  V30 5809 C 586.574 2.01537 0.225969 0
M  V30 5810 C 586.907 1.25128 1.48515 0
M  V30 5811 O 586.182 0.344653 1.91422 0
M  V30 5812 C 586.465 3.56339 0.519092 0
M  V30 5813 C 586.318 4.43441 -0.753639 0
M  V30 5814 C 587.637 4.19833 1.32015 0
M  V30 5815 H 584.756 0.732573 0.0806548 0
M  V30 5816 H 587.398 1.83597 -0.489084 0
M  V30 5817 H 585.548 3.71756 1.12825 0
M  V30 5818 H 587.22 4.39823 -1.39116 0
M  V30 5819 H 585.463 4.11457 -1.37424 0
M  V30 5820 H 586.134 5.49699 -0.503517 0
M  V30 5821 H 588.61 4.08242 0.804859 0
M  V30 5822 H 587.486 5.28177 1.49399 0
M  V30 5823 H 587.747 3.75821 2.32832 0
M  V30 5824 N 586.806 0.0935595 1.57322 0
M  V30 5825 C 588.052 -0.571355 1.94585 0
M  V30 5826 C 588.385 -1.67929 0.975366 0
M  V30 5827 O 587.66 -1.94498 0.00816206 0
M  V30 5828 C 587.943 -1.12797 3.41978 0
M  V30 5829 C 587.796 -0.0251881 4.49793 0
M  V30 5830 C 589.115 -2.02682 3.90651 0
M  V30 5831 H 586.234 -0.206223 0.70756 0
M  V30 5832 H 588.876 0.163956 1.89291 0
M  V30 5833 H 587.026 -1.75461 3.4662 0
M  V30 5834 H 588.698 0.608979 4.57263 0
M  V30 5835 H 586.941 0.641399 4.29032 0
M  V30 5836 H 587.612 -0.455433 5.50118 0
M  V30 5837 H 590.088 -1.49925 3.88152 0
M  V30 5838 H 588.964 -2.38555 4.94351 0
M  V30 5839 H 589.225 -2.94362 3.29854 0
M  V30 5840 N 588.284 -1.56567 -0.180126 0
M  V30 5841 C 589.247 -1.94852 -1.20686 0
M  V30 5842 C 590.247 -0.831212 -1.3765 0
M  V30 5843 O 591.437 -1.09841 -1.35206 0
M  V30 5844 C 588.569 -2.23565 -2.57355 0
M  V30 5845 H 589.762 -2.86722 -0.879225 0
M  V30 5846 H 587.315 -1.50489 -0.422237 0
M  V30 5847 H 588.05 -1.34381 -2.95148 0
M  V30 5848 H 587.835 -3.04999 -2.46411 0
M  V30 5849 H 589.325 -2.54137 -3.31367 0
M  V30 5850 N 589.762 0.448376 -1.51087 0
M  V30 5851 C 590.99 1.22143 -1.66999 0
M  V30 5852 C 591.405 1.85283 -0.362699 0
M  V30 5853 O 590.762 1.70236 0.65772 0
M  V30 5854 C 590.813 2.31357 -2.7777 0
M  V30 5855 O 590.534 1.70801 -4.03434 0
M  V30 5856 C 592.035 3.21836 -3.04855 0
M  V30 5857 H 589.255 0.368558 -0.560719 0
M  V30 5858 H 591.799 0.532618 -1.97442 0
M  V30 5859 H 589.954 2.95973 -2.49958 0
M  V30 5860 H 590.368 2.42895 -4.64868 0
M  V30 5861 H 591.842 3.94627 -3.85971 0
M  V30 5862 H 592.319 3.81949 -2.16821 0
M  V30 5863 H 592.925 2.62933 -3.34285 0
M  V30 5864 N 591.24 1.41047 0.703093 0
M  V30 5865 C 592.19 1.38774 1.80903 0
M  V30 5866 C 593.174 0.263275 1.58731 0
M  V30 5867 O 594.366 0.503362 1.69692 0
M  V30 5868 C 591.495 1.26497 3.19145 0
M  V30 5869 C 590.581 2.43775 3.47037 0
M  V30 5870 N 590.972 3.69249 3.45672 0
M  V30 5871 C 589.27 2.37425 3.77552 0
M  V30 5872 C 589.971 4.46989 3.72258 0
M  V30 5873 N 588.947 3.76998 3.91629 0
M  V30 5874 H 592.749 2.33714 1.78199 0
M  V30 5875 H 590.263 1.34996 0.902762 0
M  V30 5876 H 592.26 1.2295 3.98358 0
M  V30 5877 H 590.92 0.32534 3.23066 0
M  V30 5878 H 591.931 4.02239 3.26228 0
M  V30 5879 H 588.608 1.51895 3.88888 0
M  V30 5880 H 589.998 5.55894 3.77402 0
M  V30 5881 N 592.718 -0.936591 1.26751 0
M  V30 5882 C 593.668 -2.0219 1.05371 0
M  V30 5883 C 594.652 -1.60893 -0.0154112 0
M  V30 5884 O 595.844 -1.75843 0.202085 0
M  V30 5885 C 592.973 -3.36222 0.693541 0
M  V30 5886 C 592.059 -3.8399 1.80035 0
M  V30 5887 N 592.45 -4.0436 3.03852 0
M  V30 5888 C 590.748 -4.12945 1.685 0
M  V30 5889 C 591.449 -4.44 3.75818 0
M  V30 5890 N 590.425 -4.50966 3.03531 0
M  V30 5891 H 594.227 -2.15958 1.99347 0
M  V30 5892 H 591.741 -1.12277 1.17335 0
M  V30 5893 H 593.738 -4.13625 0.521513 0
M  V30 5894 H 592.398 -3.23821 -0.238693 0
M  V30 5895 H 593.409 -3.9092 3.39709 0
M  V30 5896 H 590.086 -4.09308 0.822986 0
M  V30 5897 H 591.476 -4.67914 4.82189 0
M  V30 5898 N 594.196 -1.08629 -1.14182 0
M  V30 5899 C 595.126 -0.740003 -2.21464 0
M  V30 5900 C 596.107 0.278591 -1.67803 0
M  V30 5901 O 597.292 0.148461 -1.93632 0
M  V30 5902 C 594.422 -0.150952 -3.46972 0
M  V30 5903 C 593.376 -1.09815 -4.13672 0
M  V30 5904 C 592.702 -0.3712 -5.3341 0
M  V30 5905 C 594.002 -2.43722 -4.61949 0
M  V30 5906 H 595.696 -1.63697 -2.50686 0
M  V30 5907 H 593.242 -0.788526 -1.20492 0
M  V30 5908 H 595.195 0.103325 -4.21273 0
M  V30 5909 H 593.919 0.781164 -3.1712 0
M  V30 5910 H 592.578 -1.33756 -3.41328 0
M  V30 5911 H 592.226 0.564792 -4.99819 0
M  V30 5912 H 591.926 -1.00267 -5.78982 0
M  V30 5913 H 593.45 -0.12503 -6.10472 0
M  V30 5914 H 594.864 -2.24034 -5.27714 0
M  V30 5915 H 593.261 -3.02582 -5.18232 0
M  V30 5916 H 594.331 -3.05082 -3.76899 0
M  V30 5917 N 595.674 1.31259 -0.872281 0
M  V30 5918 C 597.085 1.78822 -0.536617 0
M  V30 5919 C 597.436 1.71855 0.946594 0
M  V30 5920 O 596.561 1.28769 1.73918 0
M  V30 5921 C 597.156 3.24698 -0.967294 0
M  V30 5922 C 595.715 3.70147 -0.683251 0
M  V30 5923 C 594.862 2.51994 -1.15733 0
M  V30 5924 H 597.813 1.18308 -1.05777 0
M  V30 5925 H 597.834 3.79386 -0.290929 0
M  V30 5926 H 597.346 3.29737 -2.04683 0
M  V30 5927 H 595.447 3.70607 0.384825 0
M  V30 5928 H 595.56 4.62183 -1.2619 0
M  V30 5929 H 593.924 2.48078 -0.577024 0
M  V30 5930 H 594.707 2.59778 -2.24434 0
M  V30 5931 N 597.152 0.631951 1.44375 0
M  V30 5932 C 598.1 -0.0846693 2.32446 0
M  V30 5933 C 599.094 -0.834957 1.47393 0
M  V30 5934 O 600.3 -0.747764 1.63733 0
M  V30 5935 H 596.675 -0.0461508 0.750583 0
M  V30 5936 H 598.646 0.67619 2.90638 0
M  V30 5937 C 597.395 -1.05211 3.314 0
M  V30 5938 H 596.718 -0.484203 3.96857 0
M  V30 5939 H 598.158 -1.523 3.95703 0
M  V30 5940 C 596.617 -2.13776 2.60387 0
M  V30 5941 O 597.147 -3.21869 2.4034 0
M  V30 5942 N 595.353 -1.89733 2.20113 0
M  V30 5943 H 594.9 -1.01833 2.36618 0
M  V30 5944 H 594.858 -2.62572 1.72926 0
M  V30 5945 N 598.631 -1.53133 0.372548 0
M  V30 5946 C 599.908 -1.93704 -0.271693 0
M  V30 5947 C 600.288 -1.30667 -1.65799 0
M  V30 5948 O 599.636 -0.46838 -2.23648 0
M  V30 5949 C 599.846 -3.47576 -0.314903 0
M  V30 5950 C 601.194 -4.20998 -0.551912 0
M  V30 5951 O 602.218 -3.53994 -0.39582 0
M  V30 5952 O 601.077 -5.39748 -0.85639 0
M  V30 5953 H 598.171 -0.810457 -0.164586 0
M  V30 5954 H 600.717 -1.6427 0.425838 0
M  V30 5955 H 599.489 -3.85749 0.656792 0
M  V30 5956 H 599.112 -3.83264 -1.05804 0
M  V30 5957 N 600.109 -0.101901 -1.5727 0
M  V30 5958 C 601.358 0.559922 -1.93772 0
M  V30 5959 C 601.671 1.68913 -0.98629 0
M  V30 5960 O 602.877 2.41256 -1.24529 0
M  V30 5961 C 601.333 1.04739 -3.44322 0
M  V30 5962 C 600.941 -0.05243 -4.47969 0
M  V30 5963 C 602.685 1.68157 -3.89774 0
M  V30 5964 C 600.592 0.450781 -5.8968 0
M  V30 5965 H 599.522 0.212931 -0.723309 0
M  V30 5966 H 602.173 -0.179001 -1.82625 0
M  V30 5967 H 600.555 1.84021 -3.50645 0
M  V30 5968 H 601.729 -0.828157 -4.53297 0
M  V30 5969 H 600.044 -0.592202 -4.12167 0
M  V30 5970 H 602.641 2.0689 -4.93052 0
M  V30 5971 H 602.984 2.55338 -3.28798 0
M  V30 5972 H 603.517 0.954453 -3.8618 0
M  V30 5973 H 600.256 -0.38458 -6.54371 0
M  V30 5974 H 599.776 1.19336 -5.87809 0
M  V30 5975 H 601.455 0.917555 -6.40461 0
M  V30 5976 N 601.587 1.56661 0.17182 0
M  V30 5977 C 602.519 1.92934 1.2373 0
M  V30 5978 C 603.532 0.822385 1.40502 0
M  V30 5979 O 604.721 1.10083 1.40514 0
M  V30 5980 C 601.821 2.16651 2.60607 0
M  V30 5981 C 600.994 3.47878 2.6514 0
M  V30 5982 C 600.053 3.60429 3.83377 0
M  V30 5983 O 599.079 4.33051 3.69398 0
M  V30 5984 N 600.281 2.95241 4.99813 0
M  V30 5985 H 603.046 2.84931 0.929205 0
M  V30 5986 H 600.607 1.5781 0.361588 0
M  V30 5987 H 602.599 2.22312 3.38171 0
M  V30 5988 H 601.169 1.3104 2.83809 0
M  V30 5989 H 600.389 3.53879 1.73675 0
M  V30 5990 H 601.677 4.34232 2.6518 0
M  V30 5991 H 601.075 2.3611 5.14071 0
M  V30 5992 H 599.632 3.06499 5.75241 0
M  V30 5993 N 603.065 -0.440357 1.51323 0
M  V30 5994 C 604.305 -1.19956 1.65499 0
M  V30 5995 C 604.669 -1.88559 0.361878 0
M  V30 5996 O 605.87 -2.66109 0.379383 0
M  V30 5997 C 604.141 -2.1918 2.82303 0
M  V30 5998 S 605.7 -3.03627 3.1679 0
M  V30 5999 H 602.518 -0.406833 0.583102 0
M  V30 6000 H 605.12 -0.491596 1.89218 0
M  V30 6001 H 603.824 -1.67414 3.74701 0
M  V30 6002 H 603.355 -2.94561 2.60763 0
M  V30 6003 H 605.37 -4.20773 2.62991 0
M  V30 6004 N 604.543 -1.41418 -0.695603 0
M  V30 6005 C 605.506 -1.42988 -1.79129 0
M  V30 6006 C 606.506 -0.320514 -1.57573 0
M  V30 6007 O 607.696 -0.58039 -1.64247 0
M  V30 6008 C 604.828 -1.24122 -3.175 0
M  V30 6009 H 606.021 -2.40526 -1.7913 0
M  V30 6010 H 603.574 -1.2756 -0.903225 0
M  V30 6011 H 604.309 -0.274253 -3.23138 0
M  V30 6012 H 604.094 -2.045 -3.34547 0
M  V30 6013 H 605.584 -1.28056 -3.97481 0
M  V30 6014 N 606.021 0.929856 -1.27246 0
M  V30 6015 C 606.931 2.0636 -1.11592 0
M  V30 6016 C 607.947 1.73938 -0.046496 0
M  V30 6017 O 609.123 1.9981 -0.252544 0
M  V30 6018 C 606.188 3.38213 -0.762437 0
M  V30 6019 C 605.249 3.84346 -1.9125 0
M  V30 6020 C 604.482 5.09906 -1.57579 0
M  V30 6021 O 604.705 5.68354 -0.482694 0
M  V30 6022 O 603.639 5.51359 -2.41426 0
M  V30 6023 H 607.465 2.22478 -2.0673 0
M  V30 6024 H 605.05 1.04865 -1.06413 0
M  V30 6025 H 606.932 4.1741 -0.57854 0
M  V30 6026 H 605.607 3.23307 0.159439 0
M  V30 6027 H 604.514 3.06045 -2.15144 0
M  V30 6028 H 605.847 4.0379 -2.81451 0
M  V30 6029 N 607.499 1.09233 1.13605 0
M  V30 6030 C 608.429 0.751738 2.21068 0
M  V30 6031 C 609.41 -0.269688 1.67948 0
M  V30 6032 O 610.595 -0.13819 1.93708 0
M  V30 6033 C 607.725 0.16935 3.46887 0
M  V30 6034 C 606.679 1.12007 4.13084 0
M  V30 6035 C 606.005 0.399483 5.33206 0
M  V30 6036 C 607.305 2.46168 4.6065 0
M  V30 6037 H 608.999 1.65024 2.49815 0
M  V30 6038 H 606.545 0.794905 1.20072 0
M  V30 6039 H 608.498 -0.0809824 4.21322 0
M  V30 6040 H 607.222 -0.764335 3.1753 0
M  V30 6041 H 605.881 1.35564 3.40614 0
M  V30 6042 H 605.529 -0.538277 5.00112 0
M  V30 6043 H 605.229 1.03337 5.78442 0
M  V30 6044 H 606.753 0.157403 6.10397 0
M  V30 6045 H 608.167 2.26829 5.26518 0
M  V30 6046 H 606.564 3.05326 5.1662 0
M  V30 6047 H 607.634 3.07076 3.75276 0
M  V30 6048 N 608.977 -1.30795 0.87923 0
M  V30 6049 C 610.202 -2.01063 0.508769 0
M  V30 6050 C 610.627 -1.65508 -0.893803 0
M  V30 6051 O 609.985 -0.868616 -1.59138 0
M  V30 6052 C 610.033 -3.54054 0.683991 0
M  V30 6053 O 609.137 -4.11498 -0.272654 0
M  V30 6054 H 608.478 -0.632786 0.201191 0
M  V30 6055 H 611.008 -1.66776 1.18519 0
M  V30 6056 H 611.018 -4.03845 0.580798 0
M  V30 6057 H 609.693 -3.79271 1.70665 0
M  V30 6058 H 608.27 -3.72695 -0.12364 0
M  V30 6059 N 610.455 -0.639598 -1.44038 0
M  V30 6060 C 611.704 -0.144885 -2.01179 0
M  V30 6061 C 612.017 1.24372 -1.50967 0
M  V30 6062 O 613.223 1.83291 -2.00292 0
M  V30 6063 C 611.679 -0.208244 -3.59297 0
M  V30 6064 C 611.287 -1.59869 -4.18504 0
M  V30 6065 C 613.031 0.229568 -4.23879 0
M  V30 6066 C 610.938 -1.61671 -5.68873 0
M  V30 6067 H 609.868 -0.0504005 -0.752314 0
M  V30 6068 H 612.519 -0.799639 -1.65161 0
M  V30 6069 H 610.901 0.513767 -3.92653 0
M  V30 6070 H 612.075 -2.34496 -3.96671 0
M  V30 6071 H 610.39 -1.98131 -3.66242 0
M  V30 6072 H 612.987 0.235758 -5.3418 0
M  V30 6073 H 613.33 1.25848 -3.96822 0
M  V30 6074 H 613.863 -0.440233 -3.95357 0
M  V30 6075 H 610.602 -2.62427 -6.00677 0
M  V30 6076 H 610.122 -0.913489 -5.92803 0
M  V30 6077 H 611.801 -1.35439 -6.32665 0
M  V30 6078 N 611.933 1.52934 -0.380664 0
M  V30 6079 C 612.896 2.24809 0.446473 0
M  V30 6080 C 613.896 1.26133 0.997347 0
M  V30 6081 O 615.086 1.50297 0.880714 0
M  V30 6082 C 612.218 2.99649 1.62553 0
M  V30 6083 H 613.411 2.99343 -0.182677 0
M  V30 6084 H 610.964 1.55736 -0.132618 0
M  V30 6085 H 611.699 2.29395 2.29235 0
M  V30 6086 H 611.484 3.72066 1.23732 0
M  V30 6087 H 612.974 3.54246 2.21133 0
M  V30 6088 N 613.412 0.11024 1.57214 0
M  V30 6089 C 614.64 -0.557834 1.99238 0
M  V30 6090 C 615.055 -1.60778 0.989734 0
M  V30 6091 O 614.412 -1.82491 -0.0186092 0
M  V30 6092 C 614.463 -1.19189 3.41286 0
M  V30 6093 O 614.184 -0.183919 4.37714 0
M  V30 6094 C 615.685 -1.94413 3.98395 0
M  V30 6095 H 612.905 -0.148392 0.654386 0
M  V30 6096 H 615.449 0.193996 2.03578 0
M  V30 6097 H 613.604 -1.89456 3.37913 0
M  V30 6098 H 614.018 -0.643475 5.20538 0
M  V30 6099 H 615.492 -2.34116 4.99894 0
M  V30 6100 H 615.969 -2.81592 3.3705 0
M  V30 6101 H 616.575 -1.28928 4.05287 0
M  V30 6102 N 614.89 -1.56749 -0.16351 0
M  V30 6103 C 616.167 -1.73321 -0.906599 0
M  V30 6104 C 616.547 -0.673779 -2.00059 0
M  V30 6105 O 615.895 0.310121 -2.26386 0
M  V30 6106 C 616.105 -3.168 -1.46419 0
M  V30 6107 C 617.453 -3.77993 -1.93407 0
M  V30 6108 O 618.477 -3.20127 -1.56196 0
M  V30 6109 O 617.336 -4.79615 -2.61976 0
M  V30 6110 H 614.43 -0.708073 -0.427272 0
M  V30 6111 H 616.976 -1.69029 -0.150727 0
M  V30 6112 H 615.748 -3.85396 -0.677189 0
M  V30 6113 H 615.371 -3.2545 -2.28403 0
M  V30 6114 N 616.368 0.432326 -1.51554 0
M  V30 6115 C 617.3 1.54357 -1.6943 0
M  V30 6116 C 618.313 1.52311 -0.574897 0
M  V30 6117 O 619.502 1.56997 -0.849369 0
M  V30 6118 C 616.602 2.93273 -1.69836 0
M  V30 6119 C 615.775 3.19768 -2.98442 0
M  V30 6120 C 614.834 4.38433 -2.90969 0
M  V30 6121 O 613.86 4.36842 -3.64908 0
M  V30 6122 N 615.062 5.42276 -2.07163 0
M  V30 6123 H 617.827 1.39426 -2.65293 0
M  V30 6124 H 615.388 0.621331 -1.49503 0
M  V30 6125 H 617.38 3.70687 -1.62399 0
M  V30 6126 H 615.95 3.01777 -0.815456 0
M  V30 6127 H 615.17 2.30607 -3.19709 0
M  V30 6128 H 616.458 3.343 -3.83563 0
M  V30 6129 H 615.856 5.46407 -1.46477 0
M  V30 6130 H 614.413 6.18524 -2.05601 0
M  V30 6131 N 617.846 1.41785 0.688094 0
M  V30 6132 C 619.262 1.24419 0.999608 0
M  V30 6133 C 619.462 0.138868 2.01021 0
M  V30 6134 O 618.518 -0.494283 2.47615 0
M  V30 6135 C 619.831 2.59625 1.51709 0
M  V30 6136 C 621.379 2.66869 1.63554 0
M  V30 6137 C 621.854 4.0241 2.18702 0
M  V30 6138 N 623.345 4.04295 2.26053 0
M  V30 6139 C 624.08 5.05977 2.69768 0
M  V30 6140 N 623.576 6.18047 3.13033 0
M  V30 6141 N 625.369 4.93336 2.69398 0
M  V30 6142 H 617.52 2.12392 0.0187427 0
M  V30 6143 H 619.783 0.945347 0.0708673 0
M  V30 6144 H 619.489 3.41297 0.849059 0
M  V30 6145 H 619.363 2.82628 2.49803 0
M  V30 6146 H 621.75 1.8555 2.29467 0
M  V30 6147 H 621.831 2.47668 0.639857 0
M  V30 6148 H 621.475 4.8418 1.53402 0
M  V30 6149 H 621.405 4.18955 3.19037 0
M  V30 6150 H 623.896 3.23383 1.9553 0
M  V30 6151 H 624.209 6.91498 3.45038 0
M  V30 6152 H 622.554 6.21572 3.10923 0
M  V30 6153 H 625.745 4.04865 2.34952 0
M  V30 6154 H 625.918 5.72717 3.03148 0
M  V30 6155 N 619.324 -0.923095 1.27737 0
M  V30 6156 C 620.564 -1.6858 1.15586 0
M  V30 6157 C 620.928 -1.89758 -0.292562 0
M  V30 6158 O 622.129 -2.6339 -0.536583 0
M  V30 6159 C 620.4 -3.01275 1.92271 0
M  V30 6160 S 621.959 -3.924 1.96387 0
M  V30 6161 H 618.777 -0.579069 0.412554 0
M  V30 6162 H 621.379 -1.09866 1.61709 0
M  V30 6163 H 620.083 -2.83556 2.96689 0
M  V30 6164 H 619.614 -3.6504 1.46661 0
M  V30 6165 H 621.629 -4.84667 1.06361 0
M  V30 6166 N 620.802 -1.09834 -1.13024 0
M  V30 6167 C 622.218 -0.828875 -1.36388 0
M  V30 6168 C 622.418 0.554756 -1.93713 0
M  V30 6169 O 621.474 1.30882 -2.15931 0
M  V30 6170 C 622.787 -1.92352 -2.3113 0
M  V30 6171 C 624.335 -1.95124 -2.44735 0
M  V30 6172 C 624.81 -3.03745 -3.42787 0
M  V30 6173 N 626.301 -3.03012 -3.5034 0
M  V30 6174 C 627.036 -3.83699 -4.26101 0
M  V30 6175 N 626.532 -4.74306 -5.04981 0
M  V30 6176 N 628.325 -3.71942 -4.21445 0
M  V30 6177 H 620.476 -1.99029 -0.74169 0
M  V30 6178 H 622.739 -0.864557 -0.388903 0
M  V30 6179 H 622.445 -2.91906 -1.96172 0
M  V30 6180 H 622.319 -1.80536 -3.3119 0
M  V30 6181 H 624.706 -0.962069 -2.78977 0
M  V30 6182 H 624.787 -2.11018 -1.44586 0
M  V30 6183 H 624.431 -4.02878 -3.09276 0
M  V30 6184 H 624.361 -2.85094 -4.42752 0
M  V30 6185 H 626.852 -2.37352 -2.94062 0
M  V30 6186 H 627.165 -5.32446 -5.60108 0
M  V30 6187 H 625.51 -4.78339 -5.04199 0
M  V30 6188 H 628.701 -3.00513 -3.589 0
M  V30 6189 H 628.874 -4.35062 -4.80235 0
M  V30 6190 N 622.28 1.30327 -0.886154 0
M  V30 6191 C 623.696 1.48676 -0.580323 0
M  V30 6192 C 623.896 1.81189 0.881639 0
M  V30 6193 O 622.952 1.90021 1.66278 0
M  V30 6194 C 624.265 2.60932 -1.49449 0
M  V30 6195 C 625.813 2.74812 -1.49824 0
M  V30 6196 C 626.288 3.90183 -2.39836 0
M  V30 6197 N 627.779 3.97495 -2.37806 0
M  V30 6198 C 628.514 4.86078 -3.04165 0
M  V30 6199 N 628.01 5.79448 -3.79753 0
M  V30 6200 N 629.803 4.79456 -2.93391 0
M  V30 6201 H 621.954 1.07495 -1.8319 0
M  V30 6202 H 624.217 0.532661 -0.784204 0
M  V30 6203 H 623.923 2.43731 -2.5355 0
M  V30 6204 H 623.797 3.57437 -1.20494 0
M  V30 6205 H 626.184 2.91418 -0.464731 0
M  V30 6206 H 626.265 1.78924 -1.82811 0
M  V30 6207 H 625.909 3.74334 -3.43273 0
M  V30 6208 H 625.839 4.85411 -2.04166 0
M  V30 6209 H 628.33 3.30703 -1.82877 0
M  V30 6210 H 628.643 6.43805 -4.27475 0
M  V30 6211 H 626.988 5.79376 -3.8386 0
M  V30 6212 H 630.179 4.05494 -2.33864 0
M  V30 6213 H 630.352 5.48283 -3.45383 0
M  V30 6214 N 623.758 0.647228 1.43697 0
M  V30 6215 C 625.174 0.314256 1.56476 0
M  V30 6216 C 625.374 -1.18191 1.63196 0
M  V30 6217 O 624.43 -1.96655 1.58376 0
M  V30 6218 C 625.743 1.02034 2.82859 0
M  V30 6219 C 627.291 1.00002 2.96595 0
M  V30 6220 C 627.766 1.68689 4.25803 0
M  V30 6221 N 629.257 1.65424 4.32654 0
M  V30 6222 C 629.992 2.1545 5.31384 0
M  V30 6223 N 629.488 2.73738 6.36427 0
M  V30 6224 N 631.281 2.05985 5.22998 0
M  V30 6225 H 623.432 1.61821 1.37578 0
M  V30 6226 H 625.695 0.680184 0.660344 0
M  V30 6227 H 625.401 2.07542 2.83935 0
M  V30 6228 H 625.275 0.568146 3.72897 0
M  V30 6229 H 627.662 -0.0466319 2.95063 0
M  V30 6230 H 627.743 1.49086 2.07863 0
M  V30 6231 H 627.387 2.73308 4.28095 0
M  V30 6232 H 627.317 1.17076 5.13421 0
M  V30 6233 H 629.808 1.22884 3.57363 0
M  V30 6234 H 630.121 3.09602 7.08072 0
M  V30 6235 H 628.466 2.77796 6.37067 0
M  V30 6236 H 631.657 1.60157 4.39849 0
M  V30 6237 H 631.83 2.45281 5.99784 0
M  V30 6238 N 625.236 -1.5273 0.388769 0
M  V30 6239 C 626.484 -2.01174 -0.193208 0
M  V30 6240 C 626.805 -1.27705 -1.47365 0
M  V30 6241 O 626.075 -0.396966 -1.91836 0
M  V30 6242 H 624.655 -0.743287 -0.0743871 0
M  V30 6243 H 627.317 -1.87826 0.520336 0
M  V30 6244 H 626.413 -3.09477 -0.403803 0
M  V30 6245 N 626.714 -0.118576 -1.57153 0
M  V30 6246 C 627.942 0.54726 -1.99531 0
M  V30 6247 C 628.357 1.60251 -0.998246 0
M  V30 6248 O 627.714 1.82498 0.00893106 0
M  V30 6249 C 627.765 1.17378 -3.41913 0
M  V30 6250 O 627.486 0.160703 -4.37805 0
M  V30 6251 C 628.987 1.92297 -3.9942 0
M  V30 6252 H 626.207 0.144919 -0.655164 0
M  V30 6253 H 628.751 -0.20479 -2.03472 0
M  V30 6254 H 626.906 1.87661 -3.38913 0
M  V30 6255 H 627.32 0.61586 -5.20872 0
M  V30 6256 H 628.794 2.31462 -5.01128 0
M  V30 6257 H 629.271 2.79801 -3.38538 0
M  V30 6258 H 629.877 1.26777 -4.05965 0
M  V30 6259 N 628.193 1.56834 0.155195 0
M  V30 6260 C 629.141 1.98584 1.21107 0
M  V30 6261 C 630.135 0.876987 1.44932 0
M  V30 6262 O 631.341 1.06215 1.45322 0
M  V30 6263 H 627.716 0.632039 0.407469 0
M  V30 6264 H 629.687 2.86561 0.832195 0
M  V30 6265 C 628.436 2.37555 2.53895 0
M  V30 6266 H 627.759 3.22428 2.3639 0
M  V30 6267 H 629.199 2.70598 3.26424 0
M  V30 6268 C 627.658 1.22507 3.13837 0
M  V30 6269 O 628.188 0.521388 3.98302 0
M  V30 6270 N 626.394 0.991444 2.73164 0
M  V30 6271 H 625.941 1.56544 2.04577 0
M  V30 6272 H 625.899 0.223546 3.13604 0
M  V30 6273 N 629.671 -0.424282 1.51781 0
M  V30 6274 C 630.896 -1.19928 1.6921 0
M  V30 6275 C 631.321 -1.8392 0.394355 0
M  V30 6276 O 630.679 -1.69371 -0.646778 0
M  V30 6277 C 630.727 -2.24937 2.81843 0
M  V30 6278 O 629.831 -3.3073 2.46356 0
M  V30 6279 H 629.172 -0.35078 0.563781 0
M  V30 6280 H 631.702 -0.499401 1.98412 0
M  V30 6281 H 631.712 -2.69512 3.06312 0
M  V30 6282 H 630.387 -1.77742 3.76006 0
M  V30 6283 H 628.964 -2.9154 2.32505 0
M  V30 6284 N 631.149 -1.42148 -0.680565 0
M  V30 6285 C 632.374 -1.45901 -1.47403 0
M  V30 6286 C 632.799 -0.0700985 -1.87969 0
M  V30 6287 O 632.157 0.930145 -1.55621 0
M  V30 6288 C 632.205 -2.38661 -2.70321 0
M  V30 6289 O 631.309 -1.85399 -3.68376 0
M  V30 6290 H 630.65 -0.494565 -0.443059 0
M  V30 6291 H 633.18 -1.86774 -0.835251 0
M  V30 6292 H 633.19 -2.55046 -3.18458 0
M  V30 6293 H 631.865 -3.39571 -2.40134 0
M  V30 6294 H 630.442 -1.78541 -3.2738 0
M  V30 6295 N 632.627 0.916307 -1.28225 0
M  V30 6296 C 633.904 1.64429 -1.05936 0
M  V30 6297 C 634.284 2.07234 0.402139 0
M  V30 6298 O 633.632 1.81535 1.3877 0
M  V30 6299 C 633.842 2.83773 -2.03159 0
M  V30 6300 C 635.19 3.54852 -2.33164 0
M  V30 6301 O 636.214 2.93918 -2.01223 0
M  V30 6302 O 635.073 4.64663 -2.87664 0
M  V30 6303 H 632.167 0.721221 -0.404683 0
M  V30 6304 H 634.713 0.965838 -1.39534 0
M  V30 6305 H 633.485 2.49217 -3.01673 0
M  V30 6306 H 633.108 3.59333 -1.70192 0
M  V30 6307 N 634.105 1.10431 1.1244 0
M  V30 6308 C 635.053 0.747974 2.20246 0
M  V30 6309 C 636.047 -0.255848 1.67457 0
M  V30 6310 O 637.253 -0.116221 1.79624 0
M  V30 6311 H 633.628 0.223946 0.71788 0
M  V30 6312 H 635.599 1.6661 2.47556 0
M  V30 6313 C 634.348 0.195957 3.47147 0
M  V30 6314 H 633.671 0.959606 3.88113 0
M  V30 6315 H 635.111 -0.0153154 4.23997 0
M  V30 6316 C 633.57 -1.07132 3.19413 0
M  V30 6317 O 634.1 -2.15284 3.3914 0
M  V30 6318 N 632.306 -0.98994 2.73219 0
M  V30 6319 H 631.853 -0.109736 2.57366 0
M  V30 6320 H 631.811 -1.83856 2.55038 0
M  V30 6321 N 635.583 -1.29855 0.893053 0
M  V30 6322 C 636.531 -2.29867 0.355512 0
M  V30 6323 C 637.525 -1.60502 -0.541801 0
M  V30 6324 O 638.731 -1.74902 -0.425339 0
M  V30 6325 H 635.106 -0.745805 0.0963247 0
M  V30 6326 H 637.077 -2.72655 1.21252 0
M  V30 6327 C 635.826 -3.453 -0.407801 0
M  V30 6328 H 635.149 -3.98864 0.273426 0
M  V30 6329 H 636.589 -4.17334 -0.748887 0
M  V30 6330 C 635.048 -2.96051 -1.60795 0
M  V30 6331 O 635.578 -2.96763 -2.7073 0
M  V30 6332 N 633.784 -2.51963 -1.44786 0
M  V30 6333 H 633.331 -2.51583 -0.553498 0
M  V30 6334 H 633.289 -2.1937 -2.2522 0
M  V30 6335 N 637.061 -0.65484 -1.43351 0
M  V30 6336 C 638.289 -0.176685 -2.06144 0
M  V30 6337 C 638.704 1.15831 -1.49093 0
M  V30 6338 O 638.061 1.71542 -0.622868 0
M  V30 6339 C 638.112 -0.0813326 -3.61408 0
M  V30 6340 O 637.833 -1.36355 -4.1634 0
M  V30 6341 C 639.334 0.422706 -4.4128 0
M  V30 6342 H 636.554 -0.0906429 -0.66485 0
M  V30 6343 H 639.098 -0.895945 -1.83829 0
M  V30 6344 H 637.253 0.588496 -3.82904 0
M  V30 6345 H 637.667 -1.22381 -5.10023 0
M  V30 6346 H 639.141 0.438375 -5.50257 0
M  V30 6347 H 639.618 1.45432 -4.14423 0
M  V30 6348 H 640.224 -0.214687 -4.24758 0
M  V30 6349 N 638.539 1.52521 -0.396863 0
M  V30 6350 C 639.487 2.28217 0.44943 0
M  V30 6351 C 640.481 1.32416 1.05652 0
M  V30 6352 O 641.687 1.49925 0.996124 0
M  V30 6353 H 638.062 0.733966 0.1637 0
M  V30 6354 H 640.033 2.97658 -0.210367 0
M  V30 6355 C 638.782 3.10713 1.56054 0
M  V30 6356 H 638.105 3.84291 1.10273 0
M  V30 6357 H 639.545 3.66803 2.12677 0
M  V30 6358 C 638.004 2.23499 2.52091 0
M  V30 6359 O 638.534 1.8669 3.55682 0
M  V30 6360 N 636.74 1.8751 2.2201 0
M  V30 6361 H 636.287 2.17643 1.37802 0
M  V30 6362 H 636.245 1.29448 2.86514 0
M  V30 6363 N 640.017 0.126909 1.57088 0
M  V30 6364 C 640.98 -0.806097 2.14557 0
M  V30 6365 C 641.98 -1.18918 1.08236 0
M  V30 6366 O 643.17 -1.11339 1.33975 0
M  V30 6367 C 640.302 -2.09116 2.69227 0
M  V30 6368 H 641.495 -0.306522 2.98329 0
M  V30 6369 H 639.048 -0.122393 1.5582 0
M  V30 6370 H 639.783 -2.63486 1.89065 0
M  V30 6371 H 639.568 -1.82588 3.46993 0
M  V30 6372 H 641.058 -2.75794 3.13572 0
M  V30 6373 N 641.495 -1.56914 -0.146875 0
M  V30 6374 C 642.72 -1.87881 -0.878386 0
M  V30 6375 C 643.145 -0.715945 -1.73942 0
M  V30 6376 O 642.503 0.334447 -1.78189 0
M  V30 6377 C 642.551 -3.17431 -1.71084 0
M  V30 6378 O 641.655 -3.01374 -2.81509 0
M  V30 6379 H 640.996 -0.617289 -0.244644 0
M  V30 6380 H 643.526 -2.04136 -0.137654 0
M  V30 6381 H 643.536 -3.49455 -2.10582 0
M  V30 6382 H 642.211 -4.01671 -1.07856 0
M  V30 6383 H 640.788 -2.80758 -2.45416 0
M  V30 6384 N 642.974 0.416227 -1.52004 0
M  V30 6385 C 643.937 1.48926 -1.74223 0
M  V30 6386 C 644.937 1.48693 -0.612119 0
M  V30 6387 O 646.127 1.50343 -0.879921 0
M  V30 6388 C 643.259 2.88372 -1.81809 0
M  V30 6389 H 644.452 1.3052 -2.70008 0
M  V30 6390 H 642.005 0.646271 -1.42313 0
M  V30 6391 H 642.74 3.12157 -0.879135 0
M  V30 6392 H 642.525 2.89944 -2.6396 0
M  V30 6393 H 644.015 3.66173 -2.00766 0
M  V30 6394 N 644.452 1.42507 0.673017 0
M  V30 6395 C 645.399 1.46124 1.78651 0
M  V30 6396 C 646.369 0.313007 1.63124 0
M  V30 6397 O 647.554 0.517337 1.83653 0
M  V30 6398 C 644.694 1.3711 3.16694 0
M  V30 6399 C 643.807 2.61983 3.43495 0
M  V30 6400 C 642.942 2.45098 4.71275 0
M  V30 6401 C 641.981 3.65336 4.91117 0
M  V30 6402 N 641.118 3.47383 6.10139 0
M  V30 6403 H 645.958 2.4128 1.74895 0
M  V30 6404 H 643.495 1.19788 0.853766 0
M  V30 6405 H 645.453 1.29881 3.96468 0
M  V30 6406 H 644.083 0.45549 3.1957 0
M  V30 6407 H 643.135 2.79571 2.57961 0
M  V30 6408 H 644.447 3.51355 3.5405 0
M  V30 6409 H 643.601 2.35466 5.59143 0
M  V30 6410 H 642.34 1.53219 4.63007 0
M  V30 6411 H 641.345 3.754 4.0169 0
M  V30 6412 H 642.57 4.58199 5.01229 0
M  V30 6413 H 640.516 2.58222 6.0304 0
M  V30 6414 H 640.433 4.30344 6.21563 0
M  V30 6415 H 641.701 3.41565 7.00681 0
M  V30 6416 N 645.93 -0.909495 1.28709 0
M  V30 6417 C 647.158 -1.69272 1.18973 0
M  V30 6418 C 647.573 -1.87123 -0.251048 0
M  V30 6419 O 646.93 -1.40127 -1.16922 0
M  V30 6420 C 646.981 -3.08257 1.88839 0
M  V30 6421 O 646.702 -2.91228 3.27289 0
M  V30 6422 C 648.203 -4.02642 1.85457 0
M  V30 6423 H 645.423 -0.528999 0.412797 0
M  V30 6424 H 647.967 -1.13803 1.69909 0
M  V30 6425 H 646.122 -3.6053 1.41762 0
M  V30 6426 H 646.536 -3.79223 3.6234 0
M  V30 6427 H 648.01 -4.97613 2.38925 0
M  V30 6428 H 648.487 -4.31327 0.827893 0
M  V30 6429 H 649.093 -3.56298 2.32233 0
M  V30 6430 O 647.447 -1.23171 -1.04456 0
M  V30 6431 H 648.138 -1.00158 -1.65795 0
M  V30 END ATOM
M  V30 BEGIN BOND
M  V30 END BOND
M  V30 END CTAB
M  END
$$$$
