drugbank_target|Q99623 Prohibitin-2 (DB06774; DB15495; DB15496)
 OpenBabel12092121063D

  0  0  0     0  0            999 V3000
M  V30 BEGIN CTAB
M  V30 COUNTS 4779 4810 0 0 0
M  V30 BEGIN ATOM
M  V30 1 H -0.908 1.98254 -0.117106 0
M  V30 2 N 0 1.576 0 0
M  V30 3 C 0.933 2.03868 1.02534 0
M  V30 4 C 1.911 0.928543 1.3348 0
M  V30 5 O 3.095 1.19667 1.45644 0
M  V30 6 C 0.222 2.43627 2.35294 0
M  V30 7 C -0.732 3.65373 2.2001 0
M  V30 8 S 0.101 5.13292 1.52614 0
M  V30 9 C 1.257 5.56322 2.86805 0
M  V30 10 H 1.49 2.90518 0.631377 0
M  V30 11 H -0.977 1.52953 0.210867 0
M  V30 12 H 0.981 2.67203 3.11629 0
M  V30 13 H -0.358 1.57376 2.7183 0
M  V30 14 H -1.165 3.90944 3.18086 0
M  V30 15 H -1.563 3.418 1.51819 0
M  V30 16 H 0.729 5.58782 3.83104 0
M  V30 17 H 1.672 6.56266 2.65933 0
M  V30 18 H 2.08 4.83886 2.90714 0
M  V30 19 N 1.4781 -0.272755 1.55222 0
M  V30 20 C 2.4411 -1.32041 1.87344 0
M  V30 21 C 3.4411 -1.42342 0.74803 0
M  V30 22 O 4.6311 -1.41488 1.0162 0
M  V30 23 C 1.7631 -2.70173 2.07893 0
M  V30 24 H 2.9561 -1.04789 2.80997 0
M  V30 25 H 0.5091 -0.51083 1.47717 0
M  V30 26 H 1.2441 -3.02605 1.16622 0
M  V30 27 H 1.0291 -2.64082 2.89833 0
M  V30 28 H 2.5191 -3.45869 2.34017 0
M  V30 29 N 2.9562 -1.48159 -0.537278 0
M  V30 30 C 3.8882 -1.58218 -1.65831 0
M  V30 31 C 4.9012 -0.466948 -1.5596 0
M  V30 32 O 6.0902 -0.73747 -1.62553 0
M  V30 33 C 3.1902 -1.48906 -3.04434 0
M  V30 34 C 2.3632 -2.75343 -3.3986 0
M  V30 35 C 1.4222 -2.59588 -4.57712 0
M  V30 36 O 0.4482 -3.33457 -4.61297 0
M  V30 37 N 1.6502 -1.68724 -5.55439 0
M  V30 38 H 4.4152 -2.54891 -1.57641 0
M  V30 39 H 1.9762 -1.4479 -0.724386 0
M  V30 40 H 3.9682 -1.36072 -3.81139 0
M  V30 41 H 2.5382 -0.602368 -3.06741 0
M  V30 42 H 1.7582 -3.02795 -2.52406 0
M  V30 43 H 3.0462 -3.5924 -3.60311 0
M  V30 44 H 2.4442 -1.07898 -5.55315 0
M  V30 45 H 1.0012 -1.61832 -6.3139 0
M  V30 46 N 4.4343 0.785586 -1.36625 0
M  V30 47 C 5.3823 1.91978 -1.31329 0
M  V30 48 C 6.3763 1.68162 -0.204416 0
M  V30 49 O 7.5823 1.76122 -0.371645 0
M  V30 50 H 3.9573 0.631087 -0.408942 0
M  V30 51 H 5.9283 1.93562 -2.27104 0
M  V30 52 C 4.6773 3.29055 -1.12329 0
M  V30 53 H 4.0003 3.4795 -1.96903 0
M  V30 54 H 5.4403 4.08756 -1.12671 0
M  V30 55 C 3.8993 3.36461 0.171861 0
M  V30 56 O 4.4293 3.84576 1.16035 0
M  V30 57 N 2.6353 2.89782 0.217846 0
M  V30 58 H 2.1823 2.50819 -0.587183 0
M  V30 59 H 2.1403 2.95119 1.08408 0
M  V30 60 N 5.9124 1.20967 1.01018 0
M  V30 61 C 6.8424 0.988272 2.11555 0
M  V30 62 C 7.8234 -0.0849778 1.69888 0
M  V30 63 O 9.0084 0.0738202 1.9406 0
M  V30 64 C 6.1384 0.546528 3.42973 0
M  V30 65 C 5.0924 1.56375 3.9841 0
M  V30 66 C 4.4184 0.97842 5.25672 0
M  V30 67 C 5.7184 2.94922 4.31066 0
M  V30 68 H 7.4124 1.91276 2.30334 0
M  V30 69 H 4.9584 0.921073 1.1069 0
M  V30 70 H 6.9114 0.378839 4.19694 0
M  V30 71 H 5.6354 -0.413598 3.23971 0
M  V30 72 H 4.2944 1.71891 3.23804 0
M  V30 73 H 3.9424 0.0101688 5.02999 0
M  V30 74 H 3.6424 1.65784 5.63728 0
M  V30 75 H 5.1664 0.821939 6.05043 0
M  V30 76 H 6.5804 2.8288 4.9865 0
M  V30 77 H 4.9774 3.5983 4.80253 0
M  V30 78 H 6.0474 3.4616 3.39561 0
M  V30 79 N 7.3905 -1.2043 1.01659 0
M  V30 80 C 8.3375 -2.23215 0.586822 0
M  V30 81 C 9.3075 -1.61382 -0.393085 0
M  V30 82 O 10.4925 -1.88544 -0.292525 0
M  V30 83 C 7.6325 -3.45032 -0.0687464 0
M  V30 84 C 6.7455 -4.21296 0.955724 0
M  V30 85 C 5.8805 -5.30507 0.271208 0
M  V30 86 C 4.9195 -5.98515 1.28244 0
M  V30 87 N 4.0565 -6.99316 0.62459 0
M  V30 88 H 8.8965 -2.59336 1.46796 0
M  V30 89 H 6.4335 -1.27431 0.734836 0
M  V30 90 H 8.3915 -4.1459 -0.465965 0
M  V30 91 H 7.0215 -3.09604 -0.913529 0
M  V30 92 H 6.0735 -3.50803 1.4711 0
M  V30 93 H 7.3855 -4.6803 1.72479 0
M  V30 94 H 6.5395 -6.06428 -0.18151 0
M  V30 95 H 5.2785 -4.8481 -0.530163 0
M  V30 96 H 4.2835 -5.21355 1.74554 0
M  V30 97 H 5.5085 -6.46298 2.08509 0
M  V30 98 H 3.4545 -6.55812 -0.156914 0
M  V30 99 H 3.3715 -7.44178 1.33172 0
M  V30 100 H 4.6395 -7.79255 0.195462 0
M  V30 101 N 8.8686 -0.792821 -1.36206 0
M  V30 102 C 10.1456 -0.290627 -1.93429 0
M  V30 103 C 10.5256 1.21773 -1.72437 0
M  V30 104 O 9.8736 2.0108 -1.08531 0
M  V30 105 C 10.0836 -0.686973 -3.42172 0
M  V30 106 C 11.4316 -0.668643 -4.19302 0
M  V30 107 O 12.4556 -0.627658 -3.50626 0
M  V30 108 O 11.3146 -0.714597 -5.41808 0
M  V30 109 H 8.4086 -0.0727927 -0.82379 0
M  V30 110 H 10.9546 -0.875593 -1.45367 0
M  V30 111 H 9.7266 -1.72711 -3.51122 0
M  V30 112 H 9.3496 -0.0760733 -3.97527 0
M  V30 113 N 10.3467 1.47872 -0.545128 0
M  V30 114 C 11.2767 2.32661 0.197793 0
M  V30 115 C 12.2577 1.43041 0.920504 0
M  V30 116 O 13.4427 1.71912 0.90333 0
M  V30 117 C 10.5727 3.24569 1.23582 0
M  V30 118 C 9.5267 4.23333 0.630323 0
M  V30 119 C 8.8527 5.0448 1.77211 0
M  V30 120 C 10.1527 5.20704 -0.407974 0
M  V30 121 H 11.8467 2.95024 -0.510045 0
M  V30 122 H 9.3927 1.4187 -0.246731 0
M  V30 123 H 11.3457 3.8272 1.76362 0
M  V30 124 H 10.0697 2.60236 1.97344 0
M  V30 125 H 8.7287 3.6639 0.123922 0
M  V30 126 H 8.3767 4.36561 2.49847 0
M  V30 127 H 8.0767 5.71339 1.37281 0
M  V30 128 H 9.6007 5.65487 2.3034 0
M  V30 129 H 11.0147 5.7329 0.033305 0
M  V30 130 H 9.4117 5.95699 -0.725486 0
M  V30 131 H 10.4817 4.66917 -1.30828 0
M  V30 132 N 11.8248 0.280983 1.55075 0
M  V30 133 C 12.7878 -0.590896 2.21452 0
M  V30 134 C 13.7878 -1.07682 1.19421 0
M  V30 135 O 14.9778 -0.97605 1.44288 0
M  V30 136 C 12.1098 -1.81587 2.88511 0
M  V30 137 H 13.3028 -0.0112554 2.99898 0
M  V30 138 H 10.8558 0.0316438 1.56268 0
M  V30 139 H 11.5908 -2.43587 2.14093 0
M  V30 140 H 11.3758 -1.4753 3.63287 0
M  V30 141 H 12.8658 -2.43575 3.39206 0
M  V30 142 N 13.3029 -1.57598 0.00835791 0
M  V30 143 C 14.5509 -1.90551 -0.6734 0
M  V30 144 C 14.8719 -0.883301 -1.73847 0
M  V30 145 O 14.1419 0.0781442 -1.95744 0
M  V30 146 H 12.7219 -0.703312 -0.251717 0
M  V30 147 H 15.3839 -1.94833 0.0512592 0
M  V30 148 H 14.4799 -2.9056 -1.13935 0
M  V30 149 N 14.781 0.264519 -1.55364 0
M  V30 150 C 16.197 0.61215 -1.47394 0
M  V30 151 C 16.397 1.89134 -0.695018 0
M  V30 152 O 15.453 2.51563 -0.217275 0
M  V30 153 C 16.766 0.731235 -2.91674 0
M  V30 154 C 18.314 0.82473 -3.01939 0
M  V30 155 C 18.789 0.975522 -4.4749 0
M  V30 156 N 20.28 1.04083 -4.51354 0
M  V30 157 C 21.015 1.17646 -5.61201 0
M  V30 158 N 20.511 1.27874 -6.80896 0
M  V30 159 N 22.304 1.20823 -5.48961 0
M  V30 160 H 14.455 -0.575456 -2.04456 0
M  V30 161 H 16.718 -0.196099 -0.927496 0
M  V30 162 H 16.424 -0.138392 -3.51428 0
M  V30 163 H 16.298 1.60883 -3.41169 0
M  V30 164 H 18.685 1.68482 -2.42276 0
M  V30 165 H 18.766 -0.0776479 -2.55682 0
M  V30 166 H 18.41 0.120058 -5.07758 0
M  V30 167 H 18.34 1.89268 -4.91412 0
M  V30 168 H 20.831 0.973846 -3.65136 0
M  V30 169 H 21.144 1.38081 -7.60364 0
M  V30 170 H 19.489 1.24863 -6.83692 0
M  V30 171 H 22.68 1.12469 -4.54388 0
M  V30 172 H 22.853 1.31049 -6.3461 0
M  V30 173 N 16.2591 1.48442 0.529413 0
M  V30 174 C 17.1891 1.65902 1.64313 0
M  V30 175 C 18.1701 0.507897 1.6234 0
M  V30 176 O 19.3551 0.740503 1.79528 0
M  V30 177 C 16.4851 1.69911 3.02898 0
M  V30 178 C 15.4391 2.8453 3.19729 0
M  V30 179 C 14.7651 2.73629 4.59381 0
M  V30 180 C 16.0651 4.25821 3.02447 0
M  V30 181 H 17.7591 2.5914 1.49955 0
M  V30 182 H 15.3051 1.24709 0.719982 0
M  V30 183 H 17.2581 1.80715 3.80684 0
M  V30 184 H 15.9821 0.732524 3.18279 0
M  V30 185 H 14.6411 2.73283 2.44361 0
M  V30 186 H 14.2891 1.74938 4.71599 0
M  V30 187 H 13.9891 3.50541 4.71588 0
M  V30 188 H 15.5131 2.86401 5.39265 0
M  V30 189 H 16.9271 4.37898 3.70024 0
M  V30 190 H 15.3241 5.03735 3.26146 0
M  V30 191 H 16.3941 4.42244 1.98867 0
M  V30 192 N 17.7372 -0.778329 1.37039 0
M  V30 193 C 19.1482 -1.35421 1.28523 0
M  V30 194 C 19.4992 -1.96075 -0.0700901 0
M  V30 195 O 18.6242 -1.93352 -0.971801 0
M  V30 196 C 19.2192 -2.46211 2.32735 0
M  V30 197 C 17.7782 -2.99585 2.27873 0
M  V30 198 C 16.9252 -1.72748 2.16918 0
M  V30 199 H 19.8762 -0.5791 1.47757 0
M  V30 200 H 19.8972 -3.2552 1.9702 0
M  V30 201 H 19.4092 -2.02036 3.31365 0
M  V30 202 H 17.5102 -3.48152 1.32745 0
M  V30 203 H 17.6232 -3.55646 3.21018 0
M  V30 204 H 15.9872 -1.95416 1.63354 0
M  V30 205 H 16.7702 -1.30686 3.17452 0
M  V30 206 N 19.2153 -1.21501 -1.00376 0
M  V30 207 C 20.1783 -0.976927 -2.07337 0
M  V30 208 C 21.1783 0.0525322 -1.60714 0
M  V30 209 O 22.3683 -0.184869 -1.73216 0
M  V30 210 C 19.5003 -0.473423 -3.37597 0
M  V30 211 H 20.6933 -1.92587 -2.29892 0
M  V30 212 H 18.2463 -1.03217 -1.17371 0
M  V30 213 H 18.9813 0.480379 -3.20722 0
M  V30 214 H 18.7663 -1.216 -3.72768 0
M  V30 215 H 20.2563 -0.32675 -4.1632 0
M  V30 216 N 20.6934 1.19889 -1.02296 0
M  V30 217 C 21.9414 1.89046 -0.714558 0
M  V30 218 C 22.2624 1.79636 0.758681 0
M  V30 219 O 21.5324 1.20292 1.54618 0
M  V30 220 H 20.1124 0.699802 -0.261317 0
M  V30 221 H 22.7744 1.45574 -1.29592 0
M  V30 222 H 21.8704 2.95524 -1.0036 0
M  V30 223 N 22.1715 0.800033 1.35784 0
M  V30 224 C 23.5825 0.439142 1.81462 0
M  V30 225 C 23.9335 -1.03813 1.66485 0
M  V30 226 O 23.0585 -1.80626 1.19177 0
M  V30 227 C 23.6535 0.790314 3.29453 0
M  V30 228 C 22.2125 0.482111 3.733 0
M  V30 229 C 21.3595 1.01938 2.57883 0
M  V30 230 H 24.3105 0.992254 1.23855 0
M  V30 231 H 24.3315 0.0853677 3.80404 0
M  V30 232 H 23.8435 1.86554 3.40322 0
M  V30 233 H 21.9445 -0.584652 3.67984 0
M  V30 234 H 22.0575 1.01015 4.6833 0
M  V30 235 H 20.4215 0.442043 2.50835 0
M  V30 236 H 21.2045 2.10059 2.71533 0
M  V30 237 N 23.6496 -1.47581 0.552962 0
M  V30 238 C 25.0656 -1.5818 0.212424 0
M  V30 239 C 25.2656 -1.55213 -1.28496 0
M  V30 240 O 24.3216 -1.45329 -2.06484 0
M  V30 241 C 25.6346 -2.88865 0.835318 0
M  V30 242 C 27.1826 -3.0244 0.806156 0
M  V30 243 C 27.6576 -4.35819 1.40804 0
M  V30 244 N 29.1486 -4.42444 1.37103 0
M  V30 245 C 29.8836 -5.44202 1.80641 0
M  V30 246 N 29.3796 -6.52795 2.32015 0
M  V30 247 N 31.1726 -5.35222 1.71738 0
M  V30 248 H 23.3236 -1.47753 1.52587 0
M  V30 249 H 25.5866 -0.702941 0.636064 0
M  V30 250 H 25.2926 -2.9676 1.88749 0
M  V30 251 H 25.1666 -3.7579 0.325848 0
M  V30 252 H 27.5536 -2.94144 -0.237317 0
M  V30 253 H 27.6346 -2.17068 1.35334 0
M  V30 254 H 27.2786 -4.44871 2.45056 0
M  V30 255 H 27.2086 -5.19916 0.836338 0
M  V30 256 H 29.6996 -3.6456 0.995202 0
M  V30 257 H 30.0126 -7.26609 2.63171 0
M  V30 258 H 28.3576 -6.53696 2.36023 0
M  V30 259 H 31.5486 -4.49284 1.31382 0
M  V30 260 H 31.7216 -6.14389 2.05987 0
M  V30 261 N 25.1277 -0.289203 -1.54924 0
M  V30 262 C 26.3757 0.322879 -1.99504 0
M  V30 263 C 26.6967 1.55313 -1.1791 0
M  V30 264 O 25.9667 1.94001 -0.272097 0
M  V30 265 H 24.5467 0.122291 -0.736922 0
M  V30 266 H 27.2087 -0.397802 -1.90797 0
M  V30 267 H 26.3047 0.603061 -3.06218 0
M  V30 268 N 26.6058 1.57591 -0.0167156 0
M  V30 269 C 27.5388 2.04944 1.00366 0
M  V30 270 C 28.5168 0.942648 1.32487 0
M  V30 271 O 29.7008 1.21205 1.44367 0
M  V30 272 C 26.8278 2.46109 2.32697 0
M  V30 273 C 25.8738 3.67686 2.16123 0
M  V30 274 S 26.7068 5.14882 1.47161 0
M  V30 275 C 27.8628 5.59332 2.80888 0
M  V30 276 H 28.0958 2.91172 0.600528 0
M  V30 277 H 25.6288 1.53168 0.194632 0
M  V30 278 H 27.5868 2.70493 3.08778 0
M  V30 279 H 26.2478 1.6025 2.70146 0
M  V30 280 H 25.4408 3.94296 3.13922 0
M  V30 281 H 25.0428 3.43391 1.48185 0
M  V30 282 H 27.3348 5.62814 3.77156 0
M  V30 283 H 28.2778 6.5905 2.58958 0
M  V30 284 H 28.6858 4.86942 2.85565 0
M  V30 285 N 28.0839 -0.256276 1.55502 0
M  V30 286 C 29.3319 -0.983672 1.76545 0
M  V30 287 C 29.6529 -1.86206 0.578982 0
M  V30 288 O 28.9229 -1.91656 -0.405577 0
M  V30 289 H 27.5029 -0.366191 0.651086 0
M  V30 290 H 30.1649 -0.276479 1.92929 0
M  V30 291 H 29.2609 -1.61087 2.67315 0
M  V30 292 N 29.562 -1.4872 -0.521534 0
M  V30 293 C 30.79 -1.60843 -1.30142 0
M  V30 294 C 31.205 -0.271897 -1.86832 0
M  V30 295 O 30.562 0.739969 -1.66825 0
M  V30 296 C 30.613 -2.66155 -2.4463 0
M  V30 297 O 30.334 -3.94623 -1.90275 0
M  V30 298 C 31.835 -2.88795 -3.36322 0
M  V30 299 H 29.055 -0.542075 -0.395468 0
M  V30 300 H 31.599 -1.94609 -0.628285 0
M  V30 301 H 29.754 -2.35224 -3.07812 0
M  V30 302 H 30.168 -4.52468 -2.65279 0
M  V30 303 H 31.642 -3.66264 -4.12983 0
M  V30 304 H 32.119 -1.97934 -3.9207 0
M  V30 305 H 32.725 -3.21063 -2.78924 0
M  V30 306 N 31.0401 0.771051 -1.3745 0
M  V30 307 C 32.0031 1.86598 -1.33093 0
M  V30 308 C 33.0031 1.59076 -0.234845 0
M  V30 309 O 34.1931 1.67145 -0.490732 0
M  V30 310 C 31.3251 3.23747 -1.06773 0
M  V30 311 H 32.5181 1.91873 -2.30488 0
M  V30 312 H 30.0711 0.970876 -1.2249 0
M  V30 313 H 30.8061 3.24148 -0.099129 0
M  V30 314 H 30.5911 3.45115 -1.86112 0
M  V30 315 H 32.0811 4.03824 -1.06377 0
M  V30 316 N 32.5182 1.22032 0.997298 0
M  V30 317 C 33.4482 1.01065 2.10495 0
M  V30 318 C 34.4292 -0.0669542 1.69968 0
M  V30 319 O 35.6142 0.0943987 1.9397 0
M  V30 320 C 32.7442 0.582874 3.42374 0
M  V30 321 C 31.6982 1.60592 3.96729 0
M  V30 322 C 31.0242 1.03412 5.24605 0
M  V30 323 C 32.3242 2.99478 4.27914 0
M  V30 324 H 34.0182 1.93708 2.28292 0
M  V30 325 H 31.5642 0.932761 1.09707 0
M  V30 326 H 33.5172 0.423332 4.19268 0
M  V30 327 H 32.2412 -0.379213 3.24391 0
M  V30 328 H 30.9002 1.75316 3.21963 0
M  V30 329 H 30.5482 0.063518 5.0296 0
M  V30 330 H 30.2482 1.71754 5.61938 0
M  V30 331 H 31.7722 0.886066 6.04137 0
M  V30 332 H 33.1862 2.88153 4.95622 0
M  V30 333 H 31.5832 3.64903 4.76409 0
M  V30 334 H 32.6532 3.49742 3.3587 0
M  V30 335 N 33.9963 -1.19345 1.0293 0
M  V30 336 C 34.9433 -2.2258 0.610464 0
M  V30 337 C 35.9133 -1.6179 -0.375946 0
M  V30 338 O 37.0983 -1.88844 -0.272511 0
M  V30 339 C 34.2383 -3.45085 -0.0321473 0
M  V30 340 C 33.3513 -4.20258 1.00035 0
M  V30 341 C 32.4863 -5.3019 0.32746 0
M  V30 342 C 31.5253 -5.97121 1.34584 0
M  V30 343 N 30.6623 -6.98615 0.698726 0
M  V30 344 H 35.5023 -2.57764 1.49538 0
M  V30 345 H 33.0393 -1.26644 0.748311 0
M  V30 346 H 34.9973 -4.15061 -0.421966 0
M  V30 347 H 33.6273 -3.10555 -0.88064 0
M  V30 348 H 32.6793 -3.49223 1.50823 0
M  V30 349 H 33.9913 -4.66175 1.77433 0
M  V30 350 H 33.1453 -6.06587 -0.11718 0
M  V30 351 H 31.8843 -4.85345 -0.478713 0
M  V30 352 H 30.8893 -5.19474 1.80074 0
M  V30 353 H 32.1143 -6.4405 2.15352 0
M  V30 354 H 30.0603 -6.55942 -0.0873471 0
M  V30 355 H 29.9773 -7.42724 1.41058 0
M  V30 356 H 31.2453 -7.79004 0.278102 0
M  V30 357 N 35.4744 -0.807222 -1.35358 0
M  V30 358 C 36.4044 -0.232509 -2.3234 0
M  V30 359 C 37.3854 0.642386 -1.57504 0
M  V30 360 O 38.5704 0.572526 -1.85569 0
M  V30 361 C 35.7004 0.619238 -3.41735 0
M  V30 362 C 34.6544 -0.157215 -4.27711 0
M  V30 363 C 33.9804 0.816273 -5.28433 0
M  V30 364 C 35.2804 -1.35656 -5.04376 0
M  V30 365 H 36.9744 -1.04276 -2.80654 0
M  V30 366 H 34.5204 -0.50288 -1.34934 0
M  V30 367 H 36.4734 1.03137 -4.08584 0
M  V30 368 H 35.1974 1.46239 -2.92031 0
M  V30 369 H 33.8564 -0.550525 -3.62443 0
M  V30 370 H 33.5044 1.65494 -4.74996 0
M  V30 371 H 33.2044 0.301067 -5.86828 0
M  V30 372 H 34.7284 1.22659 -5.98153 0
M  V30 373 H 36.1424 -1.01927 -5.64166 0
M  V30 374 H 34.5394 -1.8063 -5.7227 0
M  V30 375 H 35.6094 -2.14288 -4.34981 0
M  V30 376 N 36.9525 1.47285 -0.560781 0
M  V30 377 C 37.8825 2.32857 0.173105 0
M  V30 378 C 38.8635 1.44009 0.905281 0
M  V30 379 O 40.0485 1.7286 0.885046 0
M  V30 380 C 37.1785 3.25861 1.20133 0
M  V30 381 C 36.1325 4.23978 0.585388 0
M  V30 382 C 35.4585 5.06332 1.7185 0
M  V30 383 C 36.7585 5.20242 -0.463178 0
M  V30 384 H 38.4525 2.94466 -0.541307 0
M  V30 385 H 35.9985 1.41601 -0.261764 0
M  V30 386 H 37.9515 3.84569 1.72293 0
M  V30 387 H 36.6755 2.62315 1.94573 0
M  V30 388 H 35.3345 3.66501 0.085054 0
M  V30 389 H 34.9825 4.39186 2.45203 0
M  V30 390 H 34.6825 5.72762 1.31213 0
M  V30 391 H 36.2065 5.67899 2.24329 0
M  V30 392 H 37.6205 5.73293 -0.027502 0
M  V30 393 H 36.0175 5.94896 -0.788627 0
M  V30 394 H 37.0875 4.65504 -1.35773 0
M  V30 395 N 38.4306 0.297415 1.54768 0
M  V30 396 C 39.3606 -0.573494 2.26348 0
M  V30 397 C 40.3416 -1.14085 1.26169 0
M  V30 398 O 41.5266 -1.17086 1.54934 0
M  V30 399 C 38.6566 -1.74716 3.00153 0
M  V30 400 C 37.6106 -1.31032 4.07449 0
M  V30 401 C 36.9366 -2.56887 4.68949 0
M  V30 402 C 38.2366 -0.444183 5.20408 0
M  V30 403 H 39.9306 0.0235131 2.99391 0
M  V30 404 H 37.4766 0.0127488 1.43994 0
M  V30 405 H 39.4296 -2.3625 3.48947 0
M  V30 406 H 38.1536 -2.37035 2.24682 0
M  V30 407 H 36.8126 -0.718066 3.59499 0
M  V30 408 H 36.4606 -3.17512 3.90122 0
M  V30 409 H 36.1606 -2.2836 5.41411 0
M  V30 410 H 37.6846 -3.19229 5.20505 0
M  V30 411 H 39.0986 -0.9651 5.65118 0
M  V30 412 H 37.4956 -0.252846 5.99567 0
M  V30 413 H 38.5656 0.531609 4.81977 0
M  V30 414 N 39.9087 -1.5758 0.0250728 0
M  V30 415 C 41.1567 -1.91255 -0.653151 0
M  V30 416 C 41.4777 -0.901691 -1.729 0
M  V30 417 O 40.7477 0.0573785 -1.95816 0
M  V30 418 H 39.3277 -0.705942 -0.244243 0
M  V30 419 H 41.9897 -1.94767 0.0719209 0
M  V30 420 H 41.0857 -2.91752 -1.10847 0
M  V30 421 N 41.3868 0.248026 -1.55636 0
M  V30 422 C 42.3498 1.29044 -1.89421 0
M  V30 423 C 43.3498 1.41134 -0.770581 0
M  V30 424 O 44.5398 1.39854 -1.03858 0
M  V30 425 C 41.6718 2.66831 -2.12165 0
M  V30 426 H 42.8648 1.00305 -2.82629 0
M  V30 427 H 40.4178 0.487265 -1.48511 0
M  V30 428 H 41.1528 3.00711 -1.21422 0
M  V30 429 H 40.9378 2.59438 -2.93997 0
M  V30 430 H 42.4278 3.42103 -2.3949 0
M  V30 431 N 42.8649 1.48995 0.513639 0
M  V30 432 C 44.1129 1.57531 1.26604 0
M  V30 433 C 44.4339 0.258236 1.93283 0
M  V30 434 O 43.7039 -0.721502 1.8213 0
M  V30 435 H 42.2839 0.580387 0.470276 0
M  V30 436 H 44.9459 1.85552 0.596373 0
M  V30 437 H 44.0419 2.36486 2.03669 0
M  V30 438 N 44.343 -0.763751 1.37857 0
M  V30 439 C 45.306 -1.85889 1.34081 0
M  V30 440 C 46.306 -1.58949 0.243277 0
M  V30 441 O 47.496 -1.66882 0.499589 0
M  V30 442 C 44.628 -3.23176 1.08489 0
M  V30 443 H 45.821 -1.90648 2.31502 0
M  V30 444 H 43.374 -0.964367 1.23003 0
M  V30 445 H 44.109 -3.24091 0.116318 0
M  V30 446 H 43.894 -3.44124 1.8794 0
M  V30 447 H 45.384 -4.03254 1.08517 0
M  V30 448 N 45.8211 -1.22559 -0.990812 0
M  V30 449 C 47.0671 -1.05297 -1.73322 0
M  V30 450 C 47.4001 0.410655 -1.89808 0
M  V30 451 O 46.6751 1.30439 -1.44277 0
M  V30 452 C 46.9581 -1.76713 -3.13759 0
M  V30 453 C 46.8111 -3.30684 -3.04907 0
M  V30 454 C 48.1301 -1.52121 -4.12974 0
M  V30 455 H 45.2491 -0.38392 -0.629106 0
M  V30 456 H 47.8911 -1.50926 -1.15418 0
M  V30 457 H 46.0411 -1.37924 -3.63193 0
M  V30 458 H 47.7131 -3.7893 -2.63077 0
M  V30 459 H 45.9561 -3.60253 -2.41661 0
M  V30 460 H 46.6271 -3.75833 -4.04294 0
M  V30 461 H 49.1031 -1.85819 -3.72304 0
M  V30 462 H 47.9791 -2.04582 -5.0935 0
M  V30 463 H 48.2401 -0.454257 -4.3976 0
M  V30 464 N 47.2992 1.18797 -1.03562 0
M  V30 465 C 48.2622 2.20464 -0.626769 0
M  V30 466 C 49.2622 1.57721 0.313173 0
M  V30 467 O 50.4522 1.73917 0.0992615 0
M  V30 468 C 47.5842 3.40802 0.0818498 0
M  V30 469 H 48.7772 2.58149 -1.5264 0
M  V30 470 H 46.3302 1.32593 -0.827578 0
M  V30 471 H 47.0652 3.08642 0.995518 0
M  V30 472 H 46.8502 3.8758 -0.593652 0
M  V30 473 H 48.3402 4.16092 0.354584 0
M  V30 474 N 48.7773 0.814389 1.34928 0
M  V30 475 C 50.0073 0.41054 2.0248 0
M  V30 476 C 50.4153 -0.985625 1.61499 0
M  V30 477 O 49.7583 -1.64781 0.811976 0
M  V30 478 C 49.8203 0.423384 3.56998 0
M  V30 479 C 49.4843 1.77141 4.21272 0
M  V30 480 C 50.4813 2.73093 4.42398 0
M  V30 481 C 48.1663 2.05755 4.58225 0
M  V30 482 C 50.1603 3.95838 4.9959 0
M  V30 483 C 47.8473 3.28762 5.1513 0
M  V30 484 C 48.8453 4.23621 5.35755 0
M  V30 485 O 48.5333 5.44456 5.91458 0
M  V30 486 H 48.2653 0.163997 0.655806 0
M  V30 487 H 50.8193 1.10155 1.73364 0
M  V30 488 H 49.0493 -0.324276 3.85338 0
M  V30 489 H 50.7383 0.0407683 4.0588 0
M  V30 490 H 51.5043 2.5228 4.14222 0
M  V30 491 H 47.3833 1.32727 4.4148 0
M  V30 492 H 50.9273 4.69891 5.15605 0
M  V30 493 H 46.8243 3.49443 5.42734 0
M  V30 494 H 47.5923 5.4586 6.09901 0
M  V30 495 N 50.2554 -1.46986 0.568584 0
M  V30 496 C 51.5034 -2.02041 0.0487022 0
M  V30 497 C 51.8244 -1.44408 -1.31039 0
M  V30 498 O 51.0944 -0.623477 -1.85714 0
M  V30 499 H 49.6744 -0.746849 0.015014 0
M  V30 500 H 52.3364 -1.80257 0.741168 0
M  V30 501 H 51.4324 -3.12085 -0.0308961 0
M  V30 502 N 51.7335 -0.305618 -1.54608 0
M  V30 503 C 52.9795 0.302746 -2.00528 0
M  V30 504 C 53.3125 1.53184 -1.19367 0
M  V30 505 O 52.5875 1.92598 -0.271321 0
M  V30 506 C 52.8705 0.654756 -3.54097 0
M  V30 507 C 52.7235 -0.583793 -4.45995 0
M  V30 508 C 54.0425 1.47947 -4.14487 0
M  V30 509 H 51.1615 0.108564 -0.72896 0
M  V30 510 H 53.8035 -0.418634 -1.85331 0
M  V30 511 H 51.9535 1.26935 -3.67178 0
M  V30 512 H 53.6255 -1.22224 -4.44814 0
M  V30 513 H 51.8685 -1.21615 -4.16404 0
M  V30 514 H 52.5395 -0.293287 -5.5122 0
M  V30 515 H 55.0155 0.96013 -4.04871 0
M  V30 516 H 53.8915 1.69454 -5.22088 0
M  V30 517 H 54.1525 2.47011 -3.66658 0
M  V30 518 N 53.2116 1.57565 -0.0334293 0
M  V30 519 C 54.6276 1.56297 0.322997 0
M  V30 520 C 54.8276 1.03945 1.7262 0
M  V30 521 O 53.8836 0.688109 2.42943 0
M  V30 522 C 55.1966 3.00232 0.167664 0
M  V30 523 C 56.7446 3.12078 0.240107 0
M  V30 524 C 57.2196 4.57859 0.113513 0
M  V30 525 N 58.7106 4.62887 0.170359 0
M  V30 526 C 59.4456 5.73319 0.0962517 0
M  V30 527 N 58.9416 6.92794 -0.0291881 0
M  V30 528 N 60.7346 5.61898 0.150551 0
M  V30 529 H 52.8856 1.89923 -0.950956 0
M  V30 530 H 55.1486 0.873824 -0.367608 0
M  V30 531 H 54.8546 3.42501 -0.799102 0
M  V30 532 H 54.7286 3.654 0.936083 0
M  V30 533 H 57.1156 2.69718 1.19733 0
M  V30 534 H 57.1966 2.49623 -0.558763 0
M  V30 535 H 56.8406 5.009 -0.840314 0
M  V30 536 H 56.7706 5.18299 0.931302 0
M  V30 537 H 59.2616 3.76954 0.26728 0
M  V30 538 H 59.5746 7.7276 -0.0789252 0
M  V30 539 H 57.9196 6.94971 -0.0640299 0
M  V30 540 H 61.1106 4.67448 0.246981 0
M  V30 541 H 61.2836 6.47938 0.0893365 0
M  V30 542 N 54.6897 -0.239769 1.55765 0
M  V30 543 C 55.5997 -1.31831 1.94056 0
M  V30 544 C 56.6157 -1.52275 0.841925 0
M  V30 545 O 57.7917 -1.65759 1.14394 0
M  V30 546 C 54.8567 -2.65156 2.23368 0
M  V30 547 C 53.9177 -2.53173 3.46701 0
M  V30 548 C 53.1507 -3.8014 3.74606 0
M  V30 549 O 53.3737 -4.82343 3.04469 0
M  V30 550 O 52.3077 -3.78344 4.68123 0
M  V30 551 H 56.1337 -1.02347 2.85935 0
M  V30 552 H 53.7187 -0.441123 1.42739 0
M  V30 553 H 55.6007 -3.43929 2.43497 0
M  V30 554 H 54.2757 -2.94358 1.34666 0
M  V30 555 H 53.1827 -1.72662 3.31871 0
M  V30 556 H 54.5157 -2.28915 4.35728 0
M  V30 557 N 56.1678 -1.49265 -0.50573 0
M  V30 558 C 57.3928 -1.62478 -1.28902 0
M  V30 559 C 57.8178 -0.294332 -1.85783 0
M  V30 560 O 57.1758 0.737412 -1.65626 0
M  V30 561 C 57.2238 -2.69268 -2.39848 0
M  V30 562 O 56.3278 -2.28113 -3.43567 0
M  V30 563 H 55.6688 -0.54399 -0.380751 0
M  V30 564 H 58.1988 -1.95421 -0.605952 0
M  V30 565 H 58.2088 -2.91291 -2.85681 0
M  V30 566 H 56.8838 -3.65846 -1.97812 0
M  V30 567 H 55.4608 -2.16401 -3.03685 0
M  V30 568 N 57.6459 0.756429 -1.3826 0
M  V30 569 C 58.8919 1.51772 -1.34511 0
M  V30 570 C 59.2249 1.94089 0.0656691 0
M  V30 571 O 58.4999 1.65221 1.02626 0
M  V30 572 C 58.7829 2.77226 -2.29821 0
M  V30 573 C 58.6359 2.41065 -3.79747 0
M  V30 574 C 59.9549 3.79236 -2.23312 0
M  V30 575 H 57.0739 0.550578 -0.489931 0
M  V30 576 H 59.7159 0.866607 -1.69086 0
M  V30 577 H 57.8659 3.32784 -2.00467 0
M  V30 578 H 59.5379 1.91303 -4.19763 0
M  V30 579 H 57.7809 1.7356 -3.97567 0
M  V30 580 H 58.4519 3.3081 -4.41892 0
M  V30 581 H 60.9279 3.3321 -2.49219 0
M  V30 582 H 59.8039 4.64714 -2.92116 0
M  V30 583 H 60.0649 4.24615 -1.23102 0
M  V30 584 N 59.124 1.23083 0.984299 0
M  V30 585 C 60.371 1.06057 1.72505 0
M  V30 586 C 60.699 -0.403105 1.90277 0
M  V30 587 O 59.954 -1.3149 1.44944 0
M  V30 588 C 60.253 1.72673 3.1292 0
M  V30 589 C 59.919 3.22586 3.15038 0
M  V30 590 C 58.581 3.63489 3.15324 0
M  V30 591 C 60.933 4.185 3.10657 0
M  V30 592 C 58.261 4.98772 3.08939 0
M  V30 593 C 60.613 5.53769 3.05814 0
M  V30 594 C 59.277 5.94041 3.04419 0
M  V30 595 H 58.547 0.388091 0.631242 0
M  V30 596 H 61.194 1.52963 1.15215 0
M  V30 597 H 59.499 1.18116 3.73572 0
M  V30 598 H 61.196 1.56982 3.68996 0
M  V30 599 H 57.786 2.90022 3.15571 0
M  V30 600 H 61.97 3.87911 3.09579 0
M  V30 601 H 57.226 5.29193 3.0621 0
M  V30 602 H 61.4 6.27808 3.0138 0
M  V30 603 H 59.027 6.98833 2.99227 0
M  V30 604 N 60.6021 -1.18246 1.0419 0
M  V30 605 C 61.8301 -1.92195 0.766072 0
M  V30 606 C 62.2451 -1.76247 -0.676933 0
M  V30 607 O 61.6021 -1.09293 -1.46155 0
M  V30 608 C 61.6531 -3.43568 1.12442 0
M  V30 609 O 61.3741 -3.59015 2.51078 0
M  V30 610 C 62.8751 -4.34613 0.873275 0
M  V30 611 H 60.0951 -0.610114 0.279288 0
M  V30 612 H 62.6391 -1.50007 1.38989 0
M  V30 613 H 60.7941 -3.8354 0.545542 0
M  V30 614 H 61.2081 -4.5273 2.64831 0
M  V30 615 H 62.6821 -5.39374 1.17385 0
M  V30 616 H 63.1591 -4.38781 -0.191909 0
M  V30 617 H 63.7651 -4.00341 1.43551 0
M  V30 618 N 62.0802 -0.821533 -1.34494 0
M  V30 619 C 63.3262 -0.409552 -1.98622 0
M  V30 620 C 63.6592 1.0244 -1.64984 0
M  V30 621 O 62.9342 1.71325 -0.920758 0
M  V30 622 C 63.2172 -0.610458 -3.54888 0
M  V30 623 C 63.0702 -2.09043 -3.98273 0
M  V30 624 C 64.3892 -0.0455379 -4.40076 0
M  V30 625 H 61.5082 -0.15028 -0.721516 0
M  V30 626 H 64.1502 -1.03384 -1.59411 0
M  V30 627 H 62.3002 -0.079044 -3.8842 0
M  V30 628 H 63.9722 -2.68537 -3.75081 0
M  V30 629 H 62.2152 -2.58139 -3.48635 0
M  V30 630 H 62.8862 -2.18182 -5.07051 0
M  V30 631 H 65.3622 -0.499557 -4.1309 0
M  V30 632 H 64.2382 -0.215922 -5.48475 0
M  V30 633 H 64.4992 1.04939 -4.29465 0
M  V30 634 N 63.5583 1.46682 -0.576371 0
M  V30 635 C 64.4683 2.34032 0.163141 0
M  V30 636 C 65.4843 1.49367 0.892501 0
M  V30 637 O 66.6603 1.82252 0.857106 0
M  V30 638 C 63.7253 3.26435 1.16795 0
M  V30 639 C 62.7863 4.26998 0.443944 0
M  V30 640 C 62.0193 5.14986 1.40088 0
M  V30 641 O 62.2423 5.05785 2.637 0
M  V30 642 O 61.1763 5.94906 0.914917 0
M  V30 643 H 65.0023 2.98607 -0.55388 0
M  V30 644 H 62.5873 1.45554 -0.336821 0
M  V30 645 H 64.4693 3.83459 1.74748 0
M  V30 646 H 63.1443 2.64465 1.86655 0
M  V30 647 H 62.0513 3.7368 -0.177271 0
M  V30 648 H 63.3843 4.91736 -0.213566 0
M  V30 649 N 65.0364 0.313813 1.54444 0
M  V30 650 C 66.2844 -0.291099 1.99993 0
M  V30 651 C 66.6054 -1.53418 1.20366 0
M  V30 652 O 65.8754 -1.93544 0.302927 0
M  V30 653 H 64.4554 -0.110552 0.738774 0
M  V30 654 H 67.1174 0.428106 1.9014 0
M  V30 655 H 66.2134 -0.554268 3.07139 0
M  V30 656 N 66.5145 -1.57545 0.0417849 0
M  V30 657 C 67.7625 -1.91937 -0.632829 0
M  V30 658 C 68.0835 -0.919978 -1.71934 0
M  V30 659 O 67.3535 0.0366064 -1.95866 0
M  V30 660 H 65.9335 -0.708493 -0.236742 0
M  V30 661 H 68.5955 -1.9468 0.0925745 0
M  V30 662 H 67.6915 -2.92912 -1.07746 0
M  V30 663 N 67.9926 0.231505 -1.5589 0
M  V30 664 C 68.9426 1.29007 -1.87993 0
M  V30 665 C 69.9266 1.42764 -0.742102 0
M  V30 666 O 71.1186 1.45747 -1.00433 0
M  V30 667 C 68.2476 2.6425 -2.1915 0
M  V30 668 C 67.3336 2.54435 -3.39299 0
M  V30 669 N 67.7246 2.14262 -4.58176 0
M  V30 670 C 66.0226 2.85416 -3.42715 0
M  V30 671 C 66.7236 2.15455 -5.40328 0
M  V30 672 N 65.6996 2.55558 -4.79783 0
M  V30 673 H 69.5016 0.970213 -2.77424 0
M  V30 674 H 67.0156 0.440097 -1.56323 0
M  V30 675 H 69.0126 3.40665 -2.40319 0
M  V30 676 H 67.6726 2.9709 -1.31025 0
M  V30 677 H 68.6836 1.85554 -4.83518 0
M  V30 678 H 65.3606 3.22693 -2.64906 0
M  V30 679 H 66.7506 1.86605 -6.45467 0
M  V30 680 N 69.4707 1.49531 0.497807 0
M  V30 681 C 70.8867 1.36365 0.829266 0
M  V30 682 C 71.0867 0.399184 1.97506 0
M  V30 683 O 70.1427 -0.167977 2.51941 0
M  V30 684 C 71.4557 2.77153 1.16647 0
M  V30 685 C 73.0037 2.85877 1.27449 0
M  V30 686 C 73.4787 4.2744 1.64497 0
M  V30 687 N 74.9697 4.30265 1.7154 0
M  V30 688 C 75.7047 5.3677 2.01656 0
M  V30 689 N 75.2007 6.53516 2.29976 0
M  V30 690 N 76.9937 5.24189 2.02934 0
M  V30 691 H 69.1447 2.10831 -0.257703 0
M  V30 692 H 71.4077 0.946534 -0.0527091 0
M  V30 693 H 71.1137 3.49442 0.397872 0
M  V30 694 H 70.9877 3.12722 2.10915 0
M  V30 695 H 73.3747 2.13824 2.0338 0
M  V30 696 H 73.4557 2.53887 0.312244 0
M  V30 697 H 73.0997 5.00021 0.891151 0
M  V30 698 H 73.0297 4.56896 2.61827 0
M  V30 699 H 75.5207 3.4607 1.51802 0
M  V30 700 H 75.8337 7.30506 2.52153 0
M  V30 701 H 74.1787 6.56737 2.27425 0
M  V30 702 H 77.3697 4.31988 1.80289 0
M  V30 703 H 77.5427 6.07286 2.26071 0
M  V30 704 N 70.9488 -0.749086 1.3866 0
M  V30 705 C 71.9118 -1.84457 1.36045 0
M  V30 706 C 72.9118 -1.58682 0.260122 0
M  V30 707 O 74.1018 -1.66343 0.517261 0
M  V30 708 C 71.2338 -3.22008 1.11911 0
M  V30 709 H 72.4268 -1.88182 2.33512 0
M  V30 710 H 69.9798 -0.951266 1.24019 0
M  V30 711 H 70.7148 -3.2395 0.150686 0
M  V30 712 H 70.4998 -3.42111 1.91579 0
M  V30 713 H 71.9898 -4.0208 1.12788 0
M  V30 714 N 72.4269 -1.23603 -0.977757 0
M  V30 715 C 73.6759 -1.06377 -1.71368 0
M  V30 716 C 73.9889 0.399062 -1.91486 0
M  V30 717 O 75.1949 0.691312 -2.62551 0
M  V30 718 C 73.6509 -1.85512 -3.08404 0
M  V30 719 C 73.2589 -3.36141 -2.96164 0
M  V30 720 C 75.0029 -1.76783 -3.85938 0
M  V30 721 C 72.9099 -4.07659 -4.28449 0
M  V30 722 H 71.8399 -0.394452 -0.642591 0
M  V30 723 H 74.4909 -1.47594 -1.09034 0
M  V30 724 H 72.8729 -1.37103 -3.71509 0
M  V30 725 H 74.0469 -3.92056 -2.42133 0
M  V30 726 H 72.3619 -3.45712 -2.32104 0
M  V30 727 H 74.9589 -2.27526 -4.83876 0
M  V30 728 H 75.3019 -0.731116 -4.0983 0
M  V30 729 H 75.8349 -2.22818 -3.2954 0
M  V30 730 H 72.5739 -5.11648 -4.09752 0
M  V30 731 H 72.0939 -3.5653 -4.82334 0
M  V30 732 H 73.7729 -4.141 -4.97122 0
M  V30 733 N 73.905 1.17692 -1.04816 0
M  V30 734 C 75.152 1.87859 -0.75599 0
M  V30 735 C 75.48 1.80812 0.716752 0
M  V30 736 O 74.735 1.20819 1.53952 0
M  V30 737 C 75.034 3.37462 -1.17703 0
M  V30 738 C 74.7 3.64713 -2.65133 0
M  V30 739 C 73.362 3.71859 -3.05408 0
M  V30 740 C 75.714 3.76492 -3.60421 0
M  V30 741 C 73.042 3.88271 -4.39843 0
M  V30 742 C 75.394 3.94421 -4.94585 0
M  V30 743 C 74.058 3.99806 -5.3452 0
M  V30 744 H 73.328 0.687425 -0.276636 0
M  V30 745 H 75.975 1.39255 -1.31455 0
M  V30 746 H 74.28 3.88097 -0.537395 0
M  V30 747 H 75.977 3.90109 -0.928218 0
M  V30 748 H 72.567 3.59772 -2.32942 0
M  V30 749 H 76.751 3.70295 -3.30447 0
M  V30 750 H 72.007 3.90687 -4.70291 0
M  V30 751 H 76.181 4.02477 -5.68318 0
M  V30 752 H 73.808 4.12276 -6.38696 0
M  V30 753 N 75.3831 0.828654 1.34056 0
M  V30 754 C 76.6301 0.419458 1.98108 0
M  V30 755 C 76.9581 -1.01886 1.65679 0
M  V30 756 O 76.2131 -1.72539 0.923512 0
M  V30 757 C 76.5121 0.575226 3.52741 0
M  V30 758 C 76.1781 1.98012 4.05095 0
M  V30 759 C 74.8401 2.36442 4.19104 0
M  V30 760 C 77.1921 2.89824 4.33188 0
M  V30 761 C 74.5201 3.66009 4.58535 0
M  V30 762 C 76.8721 4.1886 4.74066 0
M  V30 763 C 75.5361 4.5726 4.86281 0
M  V30 764 H 74.8061 0.153491 0.724929 0
M  V30 765 H 77.4531 1.05371 1.59904 0
M  V30 766 H 75.7581 -0.142385 3.91541 0
M  V30 767 H 77.4551 0.239057 4.00287 0
M  V30 768 H 74.0451 1.67162 3.94658 0
M  V30 769 H 78.2291 2.61375 4.21897 0
M  V30 770 H 73.4851 3.95579 4.66184 0
M  V30 771 H 77.6591 4.90086 4.94761 0
M  V30 772 H 75.2861 5.57707 5.16592 0
M  V30 773 N 76.8612 -1.46375 0.584142 0
M  V30 774 C 77.8092 -2.32042 -0.161047 0
M  V30 775 C 78.8032 -1.44569 -0.882966 0
M  V30 776 O 80.0092 -1.61186 -0.801191 0
M  V30 777 H 76.3842 -0.748659 -0.0708033 0
M  V30 778 H 78.3552 -2.92704 0.580269 0
M  V30 779 C 77.1042 -3.27762 -1.1605 0
M  V30 780 H 76.4272 -3.95051 -0.614419 0
M  V30 781 H 77.8672 -3.90481 -1.65228 0
M  V30 782 C 76.3262 -2.53218 -2.22221 0
M  V30 783 O 76.8562 -2.29628 -3.29597 0
M  V30 784 N 75.0622 -2.13756 -1.96868 0
M  V30 785 H 74.6092 -2.33142 -1.09557 0
M  V30 786 H 74.5672 -1.642 -2.68115 0
M  V30 787 N 78.3393 -0.321999 -1.54275 0
M  V30 788 C 79.7553 0.0306999 -1.5957 0
M  V30 789 C 79.9553 1.50614 -1.33857 0
M  V30 790 O 79.0113 2.2619 -1.12223 0
M  V30 791 C 80.3243 -0.386122 -2.98211 0
M  V30 792 C 81.8723 -0.336647 -3.11184 0
M  V30 793 C 82.3473 -0.728607 -4.52167 0
M  V30 794 N 83.8383 -0.681952 -4.58152 0
M  V30 795 C 84.5733 -0.957449 -5.6535 0
M  V30 796 N 84.0693 -1.3 -6.80494 0
M  V30 797 N 85.8623 -0.883113 -5.55119 0
M  V30 798 H 78.0133 -1.28332 -1.69247 0
M  V30 799 H 80.2763 -0.521716 -0.791528 0
M  V30 800 H 79.9823 -1.41404 -3.22022 0
M  V30 801 H 79.8563 0.249662 -3.76373 0
M  V30 802 H 82.2433 0.682058 -2.8711 0
M  V30 803 H 82.3243 -1.00734 -2.3513 0
M  V30 804 H 81.9683 -1.74522 -4.76974 0
M  V30 805 H 81.8983 -0.0356152 -5.26588 0
M  V30 806 H 84.3893 -0.428985 -3.75457 0
M  V30 807 H 84.7023 -1.49563 -7.58189 0
M  V30 808 H 83.0473 -1.33824 -6.81994 0
M  V30 809 H 86.2383 -0.615001 -4.64042 0
M  V30 810 H 86.4113 -1.10118 -6.38575 0
M  V30 811 N 79.8174 1.5752 -0.0501392 0
M  V30 812 C 81.0664 1.91827 0.623328 0
M  V30 813 C 81.3794 0.930222 1.72065 0
M  V30 814 O 82.5854 1.1653 2.4522 0
M  V30 815 C 81.0414 3.40692 1.16003 0
M  V30 816 C 80.6494 4.479 0.0948811 0
M  V30 817 C 82.3934 3.84034 1.80881 0
M  V30 818 C 80.3004 5.87879 0.644411 0
M  V30 819 H 79.2304 0.715918 0.236596 0
M  V30 820 H 81.8814 1.83115 -0.118861 0
M  V30 821 H 80.2634 3.44405 1.9545 0
M  V30 822 H 81.4374 4.55775 -0.678675 0
M  V30 823 H 79.7524 4.13892 -0.45637 0
M  V30 824 H 82.3494 4.85984 2.22988 0
M  V30 825 H 82.6924 3.20225 2.6601 0
M  V30 826 H 83.2254 3.82833 1.0809 0
M  V30 827 H 79.9644 6.55282 -0.169229 0
M  V30 828 H 79.4844 5.83567 1.38598 0
M  V30 829 H 81.1634 6.37098 1.12763 0
M  V30 830 N 81.2955 -0.223234 1.56011 0
M  V30 831 C 82.5435 -0.946003 1.78592 0
M  V30 832 C 82.8645 -1.84936 0.618349 0
M  V30 833 O 82.1345 -1.92473 -0.364833 0
M  V30 834 H 80.7145 -0.352298 0.658707 0
M  V30 835 H 83.3765 -0.235494 1.93472 0
M  V30 836 H 82.4725 -1.55381 2.70672 0
M  V30 837 N 82.7736 -1.49793 -0.48987 0
M  V30 838 C 84.0216 -1.59525 -1.24081 0
M  V30 839 C 84.3426 -0.288953 -1.92847 0
M  V30 840 O 83.6126 0.692436 -1.83254 0
M  V30 841 H 82.1926 -0.587796 -0.460983 0
M  V30 842 H 84.8546 -1.86477 -0.566778 0
M  V30 843 H 83.9506 -2.39696 -1.99881 0
M  V30 844 N 84.2517 0.741722 -1.39055 0
M  V30 845 C 85.4977 1.50336 -1.36113 0
M  V30 846 C 85.8307 1.94148 0.0450796 0
M  V30 847 O 85.1057 1.66301 1.00868 0
M  V30 848 C 85.3887 2.74773 -2.32749 0
M  V30 849 C 85.2417 2.37023 -3.82283 0
M  V30 850 C 86.5607 3.76846 -2.27322 0
M  V30 851 H 83.6797 0.545351 -0.495743 0
M  V30 852 H 86.3217 0.848624 -1.69995 0
M  V30 853 H 84.4717 3.30639 -2.03986 0
M  V30 854 H 86.1437 1.8684 -4.21768 0
M  V30 855 H 84.3867 1.69334 -3.99385 0
M  V30 856 H 85.0577 3.26104 -4.45376 0
M  V30 857 H 87.5337 3.30548 -2.5274 0
M  V30 858 H 86.4097 4.6159 -2.97028 0
M  V30 859 H 86.6707 4.23286 -1.27599 0
M  V30 860 N 85.7298 1.2412 0.971189 0
M  V30 861 C 86.6618 0.988349 2.06795 0
M  V30 862 C 87.6748 -0.0409541 1.62748 0
M  V30 863 O 88.8638 0.195673 1.77424 0
M  V30 864 C 85.9638 0.469023 3.35639 0
M  V30 865 C 85.1368 1.56065 4.08611 0
M  V30 866 C 84.1958 1.04458 5.15728 0
M  V30 867 O 83.2218 1.73553 5.42096 0
M  V30 868 N 84.4238 -0.122817 5.8037 0
M  V30 869 H 87.1888 1.93265 2.29061 0
M  V30 870 H 84.7498 1.15102 1.13856 0
M  V30 871 H 86.7418 0.108613 4.04554 0
M  V30 872 H 85.3118 -0.380919 3.1027 0
M  V30 873 H 84.5318 2.09341 3.34021 0
M  V30 874 H 85.8198 2.29449 4.54126 0
M  V30 875 H 85.2178 -0.700563 5.61345 0
M  V30 876 H 83.7748 -0.424404 6.50417 0
M  V30 877 N 87.2079 -1.17134 1.05439 0
M  V30 878 C 88.1399 -2.2078 0.615539 0
M  V30 879 C 89.1529 -1.59584 -0.322001 0
M  V30 880 O 90.3419 -1.78133 -0.114344 0
M  V30 881 C 87.4419 -3.38691 -0.118938 0
M  V30 882 C 86.6149 -4.29454 0.829924 0
M  V30 883 C 85.6739 -5.26024 0.136258 0
M  V30 884 O 84.6999 -5.63952 0.77115 0
M  V30 885 N 85.9019 -5.69487 -1.1254 0
M  V30 886 H 88.6669 -2.59052 1.50705 0
M  V30 887 H 86.2279 -1.32058 0.936603 0
M  V30 888 H 88.2199 -4.00329 -0.593179 0
M  V30 889 H 86.7899 -2.98996 -0.91215 0
M  V30 890 H 86.0099 -3.65211 1.48373 0
M  V30 891 H 87.2979 -4.86984 1.47392 0
M  V30 892 H 86.6959 -5.4075 -1.6615 0
M  V30 893 H 85.2529 -6.33257 -1.54366 0
M  V30 894 N 88.686 -0.835752 -1.33615 0
M  V30 895 C 89.963 -0.352017 -1.92406 0
M  V30 896 C 90.343 1.16225 -1.76224 0
M  V30 897 O 89.691 1.97526 -1.14873 0
M  V30 898 C 89.901 -0.795485 -3.39813 0
M  V30 899 C 91.249 -0.801703 -4.16963 0
M  V30 900 O 92.273 -0.738889 -3.48452 0
M  V30 901 O 91.132 -0.886607 -5.3926 0
M  V30 902 H 88.226 -0.0989641 -0.821057 0
M  V30 903 H 90.772 -0.921397 -1.42507 0
M  V30 904 H 89.544 -1.83795 -3.45449 0
M  V30 905 H 89.167 -0.202505 -3.97084 0
M  V30 906 N 90.1641 1.46063 -0.591896 0
M  V30 907 C 91.3921 2.06717 -0.0868936 0
M  V30 908 C 91.8071 1.43916 1.22203 0
M  V30 909 O 91.1641 0.547698 1.74088 0
M  V30 910 C 91.2151 3.6142 0.0758725 0
M  V30 911 O 90.9361 4.21874 -1.18126 0
M  V30 912 C 92.4371 4.39025 0.61416 0
M  V30 913 H 89.6571 0.668162 -0.0616518 0
M  V30 914 H 92.2011 1.8755 -0.815175 0
M  V30 915 H 90.3561 3.79983 0.754413 0
M  V30 916 H 90.7701 5.14861 -1.00092 0
M  V30 917 H 92.2441 5.4783 0.677193 0
M  V30 918 H 92.7211 4.07708 1.63312 0
M  V30 919 H 93.3271 4.2529 -0.0298142 0
M  V30 920 N 91.6422 0.330177 1.54103 0
M  V30 921 C 92.8912 -0.271336 1.99867 0
M  V30 922 C 93.2042 -1.52723 1.22209 0
M  V30 923 O 94.4102 -2.20515 1.58383 0
M  V30 924 C 92.8662 -0.534032 3.55916 0
M  V30 925 C 92.4742 0.705193 4.42415 0
M  V30 926 C 94.2182 -1.09514 4.1013 0
M  V30 927 C 92.1252 0.414035 5.89949 0
M  V30 928 H 91.0552 -0.105166 0.74663 0
M  V30 929 H 93.7062 0.443429 1.78062 0
M  V30 930 H 92.0882 -1.30915 3.73734 0
M  V30 931 H 93.2622 1.4804 4.36372 0
M  V30 932 H 91.5772 1.18698 3.99124 0
M  V30 933 H 94.1742 -1.3277 5.17954 0
M  V30 934 H 94.5172 -2.04656 3.62521 0
M  V30 935 H 95.0502 -0.381038 3.95971 0
M  V30 936 H 91.7892 1.33481 6.41766 0
M  V30 937 H 91.3092 -0.323336 5.98928 0
M  V30 938 H 92.9882 0.0263105 6.46995 0
M  V30 939 N 93.1203 -1.57491 0.0584922 0
M  V30 940 C 94.0503 -2.14988 -0.911178 0
M  V30 941 C 95.0313 -1.07343 -1.31952 0
M  V30 942 O 96.2163 -1.35318 -1.39294 0
M  V30 943 C 93.3463 -2.70078 -2.18347 0
M  V30 944 C 92.3003 -3.82771 -1.91495 0
M  V30 945 C 91.6263 -4.24408 -3.25241 0
M  V30 946 C 92.9263 -5.07592 -1.23075 0
M  V30 947 H 94.6203 -2.96263 -0.432246 0
M  V30 948 H 92.1663 -1.42512 -0.206469 0
M  V30 949 H 94.1193 -3.08943 -2.86587 0
M  V30 950 H 92.8433 -1.86005 -2.68458 0
M  V30 951 H 91.5023 -3.44389 -1.25664 0
M  V30 952 H 91.1503 -3.37275 -3.73168 0
M  V30 953 H 90.8503 -5.00366 -3.08071 0
M  V30 954 H 92.3743 -4.65879 -3.94701 0
M  V30 955 H 93.7883 -5.43857 -1.81362 0
M  V30 956 H 92.1853 -5.88741 -1.16207 0
M  V30 957 H 93.2553 -4.84454 -0.207847 0
M  V30 958 N 94.5984 0.214957 -1.56127 0
M  V30 959 C 95.5614 1.24997 -1.92116 0
M  V30 960 C 96.5614 1.39467 -0.800344 0
M  V30 961 O 97.7514 1.37619 -1.06802 0
M  V30 962 C 94.8834 2.62271 -2.17777 0
M  V30 963 H 96.0764 0.942875 -2.84693 0
M  V30 964 H 93.6294 0.455654 -1.49511 0
M  V30 965 H 94.3644 2.98068 -1.27773 0
M  V30 966 H 94.1494 2.53143 -2.99434 0
M  V30 967 H 95.6394 3.36946 -2.46693 0
M  V30 968 N 96.0765 1.50051 0.48192 0
M  V30 969 C 96.9865 1.7089 1.60728 0
M  V30 970 C 98.0025 0.591788 1.63627 0
M  V30 971 O 99.1785 0.868817 1.81696 0
M  V30 972 C 96.2435 1.78855 2.97005 0
M  V30 973 C 95.3045 3.02537 3.04581 0
M  V30 974 C 94.5375 3.10112 4.34357 0
M  V30 975 O 94.7605 2.24765 5.24249 0
M  V30 976 O 93.6945 4.02747 4.47301 0
M  V30 977 H 97.5205 2.66264 1.46072 0
M  V30 978 H 95.1055 1.34018 0.660264 0
M  V30 979 H 96.9875 1.86336 3.77964 0
M  V30 980 H 95.6625 0.866628 3.11883 0
M  V30 981 H 94.5695 3.00563 2.22739 0
M  V30 982 H 95.9025 3.94272 2.94636 0
M  V30 983 N 97.5546 -0.734337 1.39446 0
M  V30 984 C 98.8026 -1.49096 1.36436 0
M  V30 985 C 99.1236 -1.94961 -0.0388255 0
M  V30 986 O 98.3936 -1.69033 -0.990191 0
M  V30 987 H 96.9736 -0.5531 0.502085 0
M  V30 988 H 99.6356 -0.871725 1.74319 0
M  V30 989 H 98.7316 -2.37276 2.02747 0
M  V30 990 N 99.0327 -1.24633 -0.964593 0
M  V30 991 C 99.9627 -1.06611 -2.07741 0
M  V30 992 C 100.944 0.0218666 -1.70086 0
M  V30 993 O 102.129 -0.145793 -1.93652 0
M  V30 994 C 99.2587 -0.673444 -3.40708 0
M  V30 995 C 98.2127 -1.71054 -3.92332 0
M  V30 996 C 97.5387 -1.17285 -5.21678 0
M  V30 997 C 98.8387 -3.10718 -4.19824 0
M  V30 998 H 100.533 -1.99693 -2.23076 0
M  V30 999 H 98.0787 -0.96152 -1.07195 0
M  V30 1000 H 100.032 -0.534345 -4.17998 0
M  V30 1001 H 98.7557 0.293073 -3.25282 0
M  V30 1002 H 97.4147 -1.83791 -3.17201 0
M  V30 1003 H 97.0627 -0.196847 -5.02615 0
M  V30 1004 H 96.7627 -1.86592 -5.57187 0
M  V30 1005 H 98.2867 -1.04593 -6.01575 0
M  V30 1006 H 99.7007 -3.01192 -4.87808 0
M  V30 1007 H 98.0977 -3.77406 -4.66567 0
M  V30 1008 H 99.1677 -3.58524 -3.26479 0
M  V30 1009 N 100.511 1.16574 -1.06058 0
M  V30 1010 C 101.461 2.18854 -0.63929 0
M  V30 1011 C 102.445 1.57505 0.328798 0
M  V30 1012 O 103.637 1.76408 0.144623 0
M  V30 1013 C 100.766 3.43291 -0.0247203 0
M  V30 1014 C 99.8518 4.11722 -1.01716 0
M  V30 1015 N 100.243 4.55841 -2.19186 0
M  V30 1016 C 98.5408 4.37872 -0.847569 0
M  V30 1017 C 99.2418 5.08751 -2.82042 0
M  V30 1018 N 98.2178 5.01489 -2.09784 0
M  V30 1019 H 102.02 2.5068 -1.53417 0
M  V30 1020 H 99.5338 1.32999 -0.931935 0
M  V30 1021 H 101.531 4.15856 0.294915 0
M  V30 1022 H 100.191 3.12954 0.865448 0
M  V30 1023 H 101.202 4.49649 -2.56975 0
M  V30 1024 H 97.8788 4.17499 -0.00918848 0
M  V30 1025 H 99.2688 5.52944 -3.81709 0
M  V30 1026 N 101.989 0.842826 1.3317 0
M  V30 1027 C 103.236 0.440447 1.97652 0
M  V30 1028 C 103.564 -1.00123 1.6675 0
M  V30 1029 O 102.819 -1.7155 0.941761 0
M  V30 1030 C 103.118 0.612607 3.52111 0
M  V30 1031 C 102.784 2.02297 4.02972 0
M  V30 1032 C 101.446 2.40874 4.16573 0
M  V30 1033 C 103.798 2.94402 4.30089 0
M  V30 1034 C 101.126 3.70852 4.54627 0
M  V30 1035 C 103.478 4.23865 4.69597 0
M  V30 1036 C 102.142 4.62392 4.81404 0
M  V30 1037 H 101.412 0.161171 0.72326 0
M  V30 1038 H 104.059 1.07061 1.58777 0
M  V30 1039 H 102.364 -0.100849 3.9167 0
M  V30 1040 H 104.061 0.2815 4.00011 0
M  V30 1041 H 100.651 1.71338 3.92863 0
M  V30 1042 H 104.835 2.65835 4.19101 0
M  V30 1043 H 100.091 4.00501 4.61962 0
M  V30 1044 H 104.265 4.95306 4.89536 0
M  V30 1045 H 101.892 5.63154 5.10648 0
M  V30 1046 N 103.467 -1.45747 0.599634 0
M  V30 1047 C 104.883 -1.57424 0.26264 0
M  V30 1048 C 105.083 -1.59222 -1.23493 0
M  V30 1049 O 104.139 -1.51825 -2.01756 0
M  V30 1050 C 105.452 -2.86061 0.926795 0
M  V30 1051 C 107 -2.99722 0.901967 0
M  V30 1052 C 107.475 -4.31119 1.54598 0
M  V30 1053 N 108.966 -4.37858 1.5111 0
M  V30 1054 C 109.701 -5.3818 1.97863 0
M  V30 1055 N 109.197 -6.45083 2.52666 0
M  V30 1056 N 110.99 -5.29487 1.88679 0
M  V30 1057 H 103.141 -1.42823 1.57211 0
M  V30 1058 H 105.404 -0.68235 0.658105 0
M  V30 1059 H 105.11 -2.90605 1.98095 0
M  V30 1060 H 104.984 -3.74563 0.445238 0
M  V30 1061 H 107.371 -2.9475 -0.143617 0
M  V30 1062 H 107.452 -2.12652 1.42171 0
M  V30 1063 H 107.096 -4.36849 2.59085 0
M  V30 1064 H 107.026 -5.16992 1.00132 0
M  V30 1065 H 109.517 -3.61209 1.11068 0
M  V30 1066 H 109.83 -7.17869 2.86155 0
M  V30 1067 H 108.175 -6.45856 2.56701 0
M  V30 1068 H 111.366 -4.44877 1.4561 0
M  V30 1069 H 111.539 -6.07524 2.25429 0
M  V30 1070 N 104.945 -0.338344 -1.53925 0
M  V30 1071 C 106.194 0.260732 -2.00008 0
M  V30 1072 C 106.507 1.52073 -1.23017 0
M  V30 1073 O 107.713 2.19672 -1.5955 0
M  V30 1074 C 106.169 0.51515 -3.56194 0
M  V30 1075 C 105.777 -0.728645 -4.42035 0
M  V30 1076 C 107.521 1.07337 -4.10706 0
M  V30 1077 C 105.428 -0.445315 -5.89721 0
M  V30 1078 H 104.358 0.101205 -0.747177 0
M  V30 1079 H 107.009 -0.452866 -1.77824 0
M  V30 1080 H 105.391 1.28932 -3.74423 0
M  V30 1081 H 106.565 -1.50352 -4.35581 0
M  V30 1082 H 104.88 -1.20813 -3.98489 0
M  V30 1083 H 107.477 1.30022 -5.18651 0
M  V30 1084 H 107.82 2.0273 -3.63602 0
M  V30 1085 H 108.353 0.360034 -3.96167 0
M  V30 1086 H 105.092 -1.36883 -6.41049 0
M  V30 1087 H 104.612 0.291569 -5.99091 0
M  V30 1088 H 106.291 -0.0606218 -6.46972 0
M  V30 1089 N 106.423 1.57458 -0.0668435 0
M  V30 1090 C 107.834 1.80776 0.466558 0
M  V30 1091 C 108.185 0.980361 1.69951 0
M  V30 1092 O 107.31 0.201441 2.1546 0
M  V30 1093 C 107.905 3.27881 0.85321 0
M  V30 1094 C 106.464 3.52062 1.3315 0
M  V30 1095 C 105.611 2.75513 0.314264 0
M  V30 1096 H 108.562 1.5598 -0.292588 0
M  V30 1097 H 108.583 3.39659 1.715 0
M  V30 1098 H 108.095 3.88075 -0.0443439 0
M  V30 1099 H 106.196 2.97167 2.24772 0
M  V30 1100 H 106.309 4.60762 1.31285 0
M  V30 1101 H 104.673 2.42123 0.790492 0
M  V30 1102 H 105.456 3.38442 -0.575477 0
M  V30 1103 N 107.901 -0.206675 1.56239 0
M  V30 1104 C 109.147 -0.925733 1.81113 0
M  V30 1105 C 109.502 -1.81368 0.642135 0
M  V30 1106 O 108.795 -1.88126 -0.363211 0
M  V30 1107 C 108.989 -1.78675 3.09532 0
M  V30 1108 C 108.818 -0.98365 4.3881 0
M  V30 1109 C 107.588 -0.672661 5.00803 0
M  V30 1110 C 109.786 -0.341847 5.13163 0
M  V30 1111 N 107.768 0.150283 6.13716 0
M  V30 1112 C 109.139 0.343815 6.19046 0
M  V30 1113 C 111.194 -0.256392 4.97239 0
M  V30 1114 C 109.897 1.10678 7.10734 0
M  V30 1115 C 111.923 0.493142 5.8934 0
M  V30 1116 C 111.285 1.16729 6.94661 0
M  V30 1117 H 107.384 -0.318524 0.714189 0
M  V30 1118 H 109.968 -0.195378 1.93717 0
M  V30 1119 H 108.139 -2.4888 2.98183 0
M  V30 1120 H 109.871 -2.44441 3.22538 0
M  V30 1121 H 106.626 -0.994294 4.63045 0
M  V30 1122 H 107.05 0.551026 6.74754 0
M  V30 1123 H 111.692 -0.763249 4.15854 0
M  V30 1124 H 109.41 1.6251 7.91591 0
M  V30 1125 H 112.996 0.560465 5.79094 0
M  V30 1126 H 111.876 1.738 7.64698 0
M  V30 1127 N 109.379 -1.50304 -0.473955 0
M  V30 1128 C 110.626 -1.6115 -1.22625 0
M  V30 1129 C 110.954 -0.310517 -1.92005 0
M  V30 1130 O 110.209 0.703419 -1.82621 0
M  V30 1131 C 110.508 -2.73938 -2.29549 0
M  V30 1132 C 110.174 -4.14519 -1.7744 0
M  V30 1133 C 108.836 -4.5277 -1.62949 0
M  V30 1134 C 111.188 -5.02392 -1.3875 0
M  V30 1135 C 108.516 -5.76639 -1.08187 0
M  V30 1136 C 110.868 -6.26805 -0.854309 0
M  V30 1137 C 109.532 -6.63861 -0.696011 0
M  V30 1138 H 108.802 -0.589691 -0.448715 0
M  V30 1139 H 111.449 -1.84228 -0.522705 0
M  V30 1140 H 109.754 -2.44937 -3.05799 0
M  V30 1141 H 111.451 -2.79534 -2.87509 0
M  V30 1142 H 108.041 -3.8434 -1.89685 0
M  V30 1143 H 112.225 -4.73474 -1.4878 0
M  V30 1144 H 107.481 -6.04027 -0.946666 0
M  V30 1145 H 111.655 -6.94258 -0.545843 0
M  V30 1146 H 109.282 -7.59722 -0.26952 0
M  V30 1147 N 110.857 0.726932 -1.39834 0
M  V30 1148 C 111.789 1.85147 -1.35104 0
M  V30 1149 C 112.802 1.60736 -0.258392 0
M  V30 1150 O 113.991 1.70821 -0.517931 0
M  V30 1151 C 111.091 3.21332 -1.07697 0
M  V30 1152 C 110.264 3.73033 -2.28396 0
M  V30 1153 C 109.323 4.87802 -1.97322 0
M  V30 1154 O 108.349 5.01043 -2.70083 0
M  V30 1155 N 109.551 5.72768 -0.944273 0
M  V30 1156 H 112.316 1.89706 -2.32017 0
M  V30 1157 H 109.877 0.908006 -1.3404 0
M  V30 1158 H 111.869 3.95691 -0.849144 0
M  V30 1159 H 110.439 3.11992 -0.194909 0
M  V30 1160 H 109.659 2.89934 -2.6708 0
M  V30 1161 H 110.947 4.0431 -3.08887 0
M  V30 1162 H 110.345 5.64669 -0.341427 0
M  V30 1163 H 108.902 6.4716 -0.776346 0
M  V30 1164 N 112.336 1.25143 0.95797 0
M  V30 1165 C 113.566 1.12261 1.73439 0
M  V30 1166 C 113.974 -0.326715 1.86358 0
M  V30 1167 O 113.317 -1.2367 1.35836 0
M  V30 1168 C 113.379 1.69966 3.16784 0
M  V30 1169 C 113.043 3.18936 3.27305 0
M  V30 1170 C 114.04 4.15968 3.11877 0
M  V30 1171 C 111.725 3.59083 3.51234 0
M  V30 1172 C 113.719 5.51126 3.20217 0
M  V30 1173 C 111.406 4.9438 3.5921 0
M  V30 1174 C 112.404 5.90211 3.43716 0
M  V30 1175 O 112.092 7.23046 3.51368 0
M  V30 1176 H 111.824 0.392476 0.550399 0
M  V30 1177 H 114.378 1.65927 1.21068 0
M  V30 1178 H 112.608 1.10744 3.70503 0
M  V30 1179 H 114.297 1.52232 3.76272 0
M  V30 1180 H 115.063 3.86292 2.93264 0
M  V30 1181 H 110.942 2.84989 3.62356 0
M  V30 1182 H 114.486 6.25905 3.0804 0
M  V30 1183 H 110.383 5.23723 3.77339 0
M  V30 1184 H 111.151 7.31097 3.6802 0
M  V30 1185 N 113.814 -1.1601 1.06675 0
M  V30 1186 C 115.225 -1.68235 0.809565 0
M  V30 1187 C 115.576 -1.8454 -0.666303 0
M  V30 1188 O 114.701 -1.54374 -1.5165 0
M  V30 1189 C 115.296 -3.05585 1.46299 0
M  V30 1190 C 113.855 -3.54915 1.25349 0
M  V30 1191 C 113.002 -2.30804 1.53703 0
M  V30 1192 H 115.953 -1.00318 1.22971 0
M  V30 1193 H 115.974 -3.70174 0.880431 0
M  V30 1194 H 115.486 -2.93686 2.53713 0
M  V30 1195 H 113.587 -3.72067 0.199261 0
M  V30 1196 H 113.7 -4.36774 1.9689 0
M  V30 1197 H 112.064 -2.36007 0.957739 0
M  V30 1198 H 112.847 -2.21499 2.62284 0
M  V30 1199 N 115.292 -0.849877 -1.32721 0
M  V30 1200 C 116.541 -0.447175 -1.96681 0
M  V30 1201 C 116.854 1.00135 -1.68025 0
M  V30 1202 O 118.06 1.50926 -2.25685 0
M  V30 1203 C 116.516 -0.7487 -3.52026 0
M  V30 1204 C 116.124 -2.21264 -3.89546 0
M  V30 1205 C 117.868 -0.413487 -4.22481 0
M  V30 1206 C 115.775 -2.45763 -5.37917 0
M  V30 1207 H 114.705 -0.163486 -0.736063 0
M  V30 1208 H 117.356 -1.03999 -1.51183 0
M  V30 1209 H 115.738 -0.0853727 -3.95908 0
M  V30 1210 H 116.912 -2.91736 -3.56689 0
M  V30 1211 H 115.227 -2.5119 -3.32103 0
M  V30 1212 H 117.824 -0.574017 -5.3161 0
M  V30 1213 H 118.167 0.644492 -4.11281 0
M  V30 1214 H 118.7 -1.03251 -3.84167 0
M  V30 1215 H 115.439 -3.50168 -5.54132 0
M  V30 1216 H 114.959 -1.79864 -5.72197 0
M  V30 1217 H 116.638 -2.29471 -6.0494 0
M  V30 1218 N 116.77 1.45427 -0.607355 0
M  V30 1219 C 118.019 2.01452 -0.100036 0
M  V30 1220 C 118.332 1.48159 1.27704 0
M  V30 1221 O 119.538 1.96159 1.87707 0
M  V30 1222 C 117.994 3.59672 -0.128158 0
M  V30 1223 C 117.602 4.21962 -1.50507 0
M  V30 1224 C 119.346 4.23262 0.323932 0
M  V30 1225 C 117.253 5.72333 -1.48959 0
M  V30 1226 H 116.183 0.75325 -0.0336299 0
M  V30 1227 H 118.834 1.66901 -0.76265 0
M  V30 1228 H 117.216 3.91411 0.601105 0
M  V30 1229 H 118.39 4.01796 -2.25602 0
M  V30 1230 H 116.705 3.70565 -1.89923 0
M  V30 1231 H 119.302 5.33522 0.354691 0
M  V30 1232 H 119.645 3.93921 1.34656 0
M  V30 1233 H 120.178 3.96239 -0.352056 0
M  V30 1234 H 116.917 6.06373 -2.48981 0
M  V30 1235 H 116.437 5.94691 -0.781214 0
M  V30 1236 H 118.116 6.35525 -1.21313 0
M  V30 1237 N 118.248 0.346503 1.53744 0
M  V30 1238 C 119.478 -0.250047 2.05081 0
M  V30 1239 C 119.886 -1.44529 1.22098 0
M  V30 1240 O 119.229 -1.81992 0.249917 0
M  V30 1241 C 119.291 -0.725934 3.52094 0
M  V30 1242 C 118.955 0.350053 4.55657 0
M  V30 1243 C 119.952 1.19372 5.0601 0
M  V30 1244 C 117.637 0.504827 4.99757 0
M  V30 1245 C 119.631 2.17768 5.99046 0
M  V30 1246 C 117.318 1.49218 5.92602 0
M  V30 1247 C 118.316 2.32706 6.42135 0
M  V30 1248 O 118.004 3.2976 7.33153 0
M  V30 1249 H 117.736 -0.0515469 0.674032 0
M  V30 1250 H 120.29 0.497559 1.99282 0
M  V30 1251 H 118.52 -1.52483 3.55367 0
M  V30 1252 H 120.209 -1.24336 3.86388 0
M  V30 1253 H 120.975 1.08525 4.72702 0
M  V30 1254 H 116.854 -0.135178 4.60802 0
M  V30 1255 H 120.398 2.82971 6.37631 0
M  V30 1256 H 116.295 1.6012 6.25325 0
M  V30 1257 H 117.063 3.25265 7.51096 0
M  V30 1258 N 119.726 -1.57421 0.075193 0
M  V30 1259 C 121.003 -1.85029 -0.634329 0
M  V30 1260 C 121.383 -0.968305 -1.87582 0
M  V30 1261 O 120.731 -0.0354749 -2.28472 0
M  V30 1262 C 120.941 -3.35286 -0.968742 0
M  V30 1263 C 122.289 -4.02875 -1.34077 0
M  V30 1264 O 123.313 -3.40051 -1.06037 0
M  V30 1265 O 122.172 -5.13691 -1.86506 0
M  V30 1266 H 119.266 -0.7645 -0.315387 0
M  V30 1267 H 121.812 -1.69366 0.106382 0
M  V30 1268 H 120.584 -3.91203 -0.0871376 0
M  V30 1269 H 120.207 -3.56223 -1.7661 0
M  V30 1270 N 121.204 0.198386 -1.56346 0
M  V30 1271 C 122.453 0.917451 -1.79627 0
M  V30 1272 C 122.766 1.8456 -0.64784 0
M  V30 1273 O 123.972 2.60504 -0.764859 0
M  V30 1274 C 122.428 1.68175 -3.18191 0
M  V30 1275 C 122.036 0.798589 -4.40825 0
M  V30 1276 C 123.78 2.39065 -3.50782 0
M  V30 1277 C 121.687 1.56157 -5.70411 0
M  V30 1278 H 120.617 0.346317 -0.669762 0
M  V30 1279 H 123.268 0.170801 -1.82703 0
M  V30 1280 H 121.65 2.47216 -3.09354 0
M  V30 1281 H 122.824 0.0470665 -4.60776 0
M  V30 1282 H 121.139 0.200686 -4.15916 0
M  V30 1283 H 123.736 2.96692 -4.44835 0
M  V30 1284 H 124.079 3.13091 -2.74371 0
M  V30 1285 H 124.612 1.66993 -3.61052 0
M  V30 1286 H 121.351 0.864142 -6.49779 0
M  V30 1287 H 120.871 2.2871 -5.54483 0
M  V30 1288 H 122.55 2.11622 -6.11412 0
M  V30 1289 N 122.682 1.50554 0.465978 0
M  V30 1290 C 124.098 1.38093 0.800154 0
M  V30 1291 C 124.298 0.440988 1.96615 0
M  V30 1292 O 123.354 -0.114499 2.5224 0
M  V30 1293 C 124.667 2.79565 1.10742 0
M  V30 1294 C 126.215 2.88516 1.21357 0
M  V30 1295 C 126.69 4.30833 1.55393 0
M  V30 1296 N 128.181 4.33807 1.62375 0
M  V30 1297 C 128.916 5.40927 1.90225 0
M  V30 1298 N 128.412 6.58247 2.16062 0
M  V30 1299 N 130.205 5.28376 1.9177 0
M  V30 1300 H 122.356 2.10237 -0.302366 0
M  V30 1301 H 124.619 0.945203 -0.0727746 0
M  V30 1302 H 124.325 3.50208 0.323661 0
M  V30 1303 H 124.199 3.17125 2.04234 0
M  V30 1304 H 126.586 2.1809 1.98799 0
M  V30 1305 H 126.667 2.54492 0.258321 0
M  V30 1306 H 126.311 5.01799 0.784889 0
M  V30 1307 H 126.241 4.62347 2.52076 0
M  V30 1308 H 128.732 3.49212 1.44427 0
M  V30 1309 H 129.045 7.3569 2.36601 0
M  V30 1310 H 127.39 6.61413 2.13444 0
M  V30 1311 H 130.581 4.35715 1.71085 0
M  V30 1312 H 130.754 6.11944 2.13139 0
M  V30 1313 N 124.16 -0.719506 1.40217 0
M  V30 1314 C 125.123 -1.8153 1.39927 0
M  V30 1315 C 126.123 -1.58095 0.293723 0
M  V30 1316 O 127.313 -1.65209 0.552429 0
M  V30 1317 C 124.445 -3.19561 1.18716 0
M  V30 1318 H 125.638 -1.83186 2.37451 0
M  V30 1319 H 123.191 -0.924746 1.26008 0
M  V30 1320 H 123.926 -3.23557 0.219366 0
M  V30 1321 H 123.711 -3.3797 1.98793 0
M  V30 1322 H 125.201 -3.99598 1.21291 0
M  V30 1323 N 125.638 -1.25649 -0.95132 0
M  V30 1324 C 127.054 -1.02542 -1.223 0
M  V30 1325 C 127.254 0.255715 -1.99871 0
M  V30 1326 O 126.31 0.967558 -2.33226 0
M  V30 1327 C 127.623 -2.25065 -1.99415 0
M  V30 1328 C 129.171 -2.29861 -2.12446 0
M  V30 1329 C 129.646 -3.52048 -2.92961 0
M  V30 1330 N 131.137 -3.52465 -3.00538 0
M  V30 1331 C 131.872 -4.43672 -3.63239 0
M  V30 1332 N 131.368 -5.45157 -4.27523 0
M  V30 1333 N 133.161 -4.31346 -3.60412 0
M  V30 1334 H 125.312 -2.07951 -0.432471 0
M  V30 1335 H 127.575 -0.91339 -0.253816 0
M  V30 1336 H 127.281 -3.18194 -1.49817 0
M  V30 1337 H 127.155 -2.28502 -3.00111 0
M  V30 1338 H 129.542 -1.37252 -2.61239 0
M  V30 1339 H 129.623 -2.3044 -1.11044 0
M  V30 1340 H 129.267 -4.44981 -2.44856 0
M  V30 1341 H 129.197 -3.48715 -3.94596 0
M  V30 1342 H 131.688 -2.79056 -2.54826 0
M  V30 1343 H 132.001 -6.10958 -4.73234 0
M  V30 1344 H 130.346 -5.49025 -4.26141 0
M  V30 1345 H 133.537 -3.51288 -3.09377 0
M  V30 1346 H 133.71 -5.02624 -4.0899 0
M  V30 1347 N 127.117 1.15442 -1.07289 0
M  V30 1348 C 128.528 1.67803 -0.818475 0
M  V30 1349 C 128.879 1.8489 0.656507 0
M  V30 1350 O 128.004 1.55176 1.50829 0
M  V30 1351 C 128.599 3.04805 -1.47917 0
M  V30 1352 C 127.158 3.54245 -1.27229 0
M  V30 1353 C 126.305 2.29986 -1.54925 0
M  V30 1354 H 129.256 0.996646 -1.23502 0
M  V30 1355 H 129.277 3.69702 -0.90005 0
M  V30 1356 H 128.789 2.92336 -2.55267 0
M  V30 1357 H 126.89 3.71956 -0.21899 0
M  V30 1358 H 127.003 4.35723 -1.99203 0
M  V30 1359 H 125.367 2.35496 -0.970242 0
M  V30 1360 H 126.15 2.20105 -2.63455 0
M  V30 1361 N 128.595 0.856903 1.32268 0
M  V30 1362 C 130.011 0.547061 1.49931 0
M  V30 1363 C 130.211 -0.921781 1.7918 0
M  V30 1364 O 129.267 -1.70469 1.8627 0
M  V30 1365 C 130.58 1.43599 2.64196 0
M  V30 1366 C 132.128 1.43665 2.78081 0
M  V30 1367 C 132.603 2.31085 3.95428 0
M  V30 1368 N 134.094 2.28893 4.02694 0
M  V30 1369 C 134.829 2.93262 4.92732 0
M  V30 1370 N 134.325 3.66751 5.87763 0
M  V30 1371 N 136.118 2.82638 4.85873 0
M  V30 1372 H 128.269 1.8075 1.11549 0
M  V30 1373 H 130.532 0.772144 0.549997 0
M  V30 1374 H 130.238 2.48058 2.49319 0
M  V30 1375 H 130.112 1.12502 3.60032 0
M  V30 1376 H 132.499 0.399701 2.92381 0
M  V30 1377 H 132.58 1.7878 1.82952 0
M  V30 1378 H 132.224 3.34849 3.81888 0
M  V30 1379 H 132.154 1.93302 4.89839 0
M  V30 1380 H 134.645 1.75466 3.34694 0
M  V30 1381 H 134.958 4.13027 6.53168 0
M  V30 1382 H 133.303 3.70859 5.87783 0
M  V30 1383 H 136.494 2.24774 4.10602 0
M  V30 1384 H 136.667 3.33084 5.55841 0
M  V30 1385 N 130.073 -1.45103 0.615059 0
M  V30 1386 C 131.02 -2.30586 -0.0993978 0
M  V30 1387 C 131.99 -1.42544 -0.852669 0
M  V30 1388 O 133.175 -1.71465 -0.836917 0
M  V30 1389 C 130.315 -3.27572 -1.08583 0
M  V30 1390 C 129.428 -4.30717 -0.332656 0
M  V30 1391 C 128.563 -5.14807 -1.30947 0
M  V30 1392 C 127.602 -6.09673 -0.544538 0
M  V30 1393 N 126.739 -6.86517 -1.47101 0
M  V30 1394 H 131.579 -2.91144 0.635542 0
M  V30 1395 H 129.116 -1.4346 0.325206 0
M  V30 1396 H 131.074 -3.82276 -1.67095 0
M  V30 1397 H 129.704 -2.68751 -1.78809 0
M  V30 1398 H 128.756 -3.78615 0.368107 0
M  V30 1399 H 130.068 -4.98102 0.263842 0
M  V30 1400 H 129.222 -5.73948 -1.96643 0
M  V30 1401 H 127.961 -4.47458 -1.9399 0
M  V30 1402 H 126.966 -5.49656 0.126003 0
M  V30 1403 H 128.191 -6.79052 0.080947 0
M  V30 1404 H 126.137 -6.21851 -2.08895 0
M  V30 1405 H 126.054 -7.50281 -0.928137 0
M  V30 1406 H 127.322 -7.50194 -2.11731 0
M  V30 1407 N 131.551 -0.354651 -1.53558 0
M  V30 1408 C 132.8 0.239504 -2.00273 0
M  V30 1409 C 133.113 1.50759 -1.24623 0
M  V30 1410 O 134.319 2.17968 -1.61871 0
M  V30 1411 C 132.775 0.477341 -3.5672 0
M  V30 1412 C 132.383 -0.775488 -4.41237 0
M  V30 1413 C 134.127 1.02975 -4.11821 0
M  V30 1414 C 132.034 -0.507838 -5.89216 0
M  V30 1415 H 130.964 0.0932743 -0.748208 0
M  V30 1416 H 133.615 -0.471701 -1.77334 0
M  V30 1417 H 131.997 1.24953 -3.7577 0
M  V30 1418 H 133.171 -1.54963 -4.33962 0
M  V30 1419 H 131.486 -1.25033 -3.97185 0
M  V30 1420 H 134.083 1.24513 -5.2 0
M  V30 1421 H 134.426 1.98862 -3.65731 0
M  V30 1422 H 134.959 0.317994 -3.96527 0
M  V30 1423 H 131.698 -1.43674 -6.39561 0
M  V30 1424 H 131.218 0.228011 -5.99366 0
M  V30 1425 H 132.897 -0.129238 -6.46871 0
M  V30 1426 N 133.029 1.57378 -0.0835403 0
M  V30 1427 C 134.254 1.98682 0.594987 0
M  V30 1428 C 134.679 0.961969 1.61641 0
M  V30 1429 O 134.037 -0.0709989 1.81161 0
M  V30 1430 C 134.085 3.38988 1.2296 0
M  V30 1431 O 133.189 3.39208 2.34546 0
M  V30 1432 H 132.53 0.646368 0.152002 0
M  V30 1433 H 135.06 2.03961 -0.161533 0
M  V30 1434 H 135.07 3.76431 1.57366 0
M  V30 1435 H 133.745 4.13107 0.481228 0
M  V30 1436 H 132.322 3.13548 2.01846 0
M  V30 1437 N 134.507 -0.190092 1.56449 0
M  V30 1438 C 135.732 -0.929864 1.85387 0
M  V30 1439 C 136.157 -1.7585 0.667704 0
M  V30 1440 O 135.515 -1.77198 -0.383459 0
M  V30 1441 C 135.563 -1.79773 3.12593 0
M  V30 1442 O 134.667 -2.89713 2.93496 0
M  V30 1443 H 134.008 -0.261574 0.610307 0
M  V30 1444 H 136.538 -0.193896 2.03679 0
M  V30 1445 H 136.548 -2.20139 3.43515 0
M  V30 1446 H 135.223 -1.18892 3.98544 0
M  V30 1447 H 133.8 -2.53065 2.73884 0
M  V30 1448 N 135.985 -1.50799 -0.457987 0
M  V30 1449 C 137.396 -1.55152 -1.0385 0
M  V30 1450 C 137.747 -0.362719 -1.92818 0
M  V30 1451 O 136.872 0.522915 -2.09987 0
M  V30 1452 C 137.467 -2.81173 -1.89017 0
M  V30 1453 C 136.026 -2.88164 -2.42154 0
M  V30 1454 C 135.173 -2.49591 -1.20829 0
M  V30 1455 H 138.124 -1.56874 -0.240068 0
M  V30 1456 H 138.145 -2.63769 -2.74238 0
M  V30 1457 H 137.657 -3.67677 -1.24238 0
M  V30 1458 H 135.758 -2.06042 -3.10447 0
M  V30 1459 H 135.871 -3.91356 -2.76364 0
M  V30 1460 H 134.235 -2.02322 -1.54719 0
M  V30 1461 H 135.018 -3.38418 -0.576927 0
M  V30 1462 N 137.463 0.71206 -1.40597 0
M  V30 1463 C 138.691 1.50111 -1.42388 0
M  V30 1464 C 139.106 1.88784 -0.0245395 0
M  V30 1465 O 138.463 1.55681 0.952351 0
M  V30 1466 C 138.514 2.7742 -2.31776 0
M  V30 1467 O 138.235 2.40382 -3.66262 0
M  V30 1468 C 139.736 3.7129 -2.42196 0
M  V30 1469 H 136.956 0.46314 -0.485533 0
M  V30 1470 H 139.5 0.878068 -1.8469 0
M  V30 1471 H 137.655 3.36001 -1.92827 0
M  V30 1472 H 138.069 3.22324 -4.13772 0
M  V30 1473 H 139.543 4.57448 -3.08943 0
M  V30 1474 H 140.02 4.14641 -1.44809 0
M  V30 1475 H 140.626 3.18619 -2.81712 0
M  V30 1476 N 138.941 1.26152 0.944643 0
M  V30 1477 C 140.189 1.11271 1.6871 0
M  V30 1478 C 140.51 -0.345166 1.91921 0
M  V30 1479 O 139.78 -1.24387 1.51343 0
M  V30 1480 H 138.36 0.408783 0.625224 0
M  V30 1481 H 141.022 1.58427 1.1352 0
M  V30 1482 H 140.118 1.62879 2.66227 0
M  V30 1483 N 140.419 -1.14872 1.07899 0
M  V30 1484 C 141.644 -1.90202 0.826926 0
M  V30 1485 C 142.069 -1.77774 -0.614664 0
M  V30 1486 O 141.427 -1.11431 -1.43013 0
M  V30 1487 C 141.475 -3.38352 1.24702 0
M  V30 1488 O 140.579 -4.10497 0.39575 0
M  V30 1489 H 139.92 -0.591968 0.300782 0
M  V30 1490 H 142.45 -1.45437 1.43907 0
M  V30 1491 H 142.46 -3.89156 1.22563 0
M  V30 1492 H 141.135 -3.46715 2.29698 0
M  V30 1493 H 139.712 -3.69796 0.480117 0
M  V30 1494 N 141.898 -0.863906 -1.31812 0
M  V30 1495 C 142.845 -0.313303 -2.28664 0
M  V30 1496 C 143.815 0.584868 -1.55462 0
M  V30 1497 O 145 0.517805 -1.83639 0
M  V30 1498 C 142.14 0.48441 -3.41683 0
M  V30 1499 C 141.253 -0.440594 -4.29747 0
M  V30 1500 C 140.388 0.370652 -5.29905 0
M  V30 1501 C 139.427 -0.551164 -6.09613 0
M  V30 1502 N 138.564 0.223462 -7.01744 0
M  V30 1503 H 143.404 -1.14444 -2.75148 0
M  V30 1504 H 140.941 -0.575769 -1.35364 0
M  V30 1505 H 142.899 0.962627 -4.05943 0
M  V30 1506 H 141.529 1.28029 -2.96325 0
M  V30 1507 H 140.581 -1.03724 -3.65986 0
M  V30 1508 H 141.893 -1.14767 -4.85417 0
M  V30 1509 H 141.047 0.911638 -5.99812 0
M  V30 1510 H 139.786 1.11105 -4.74876 0
M  V30 1511 H 138.791 -1.10396 -5.38603 0
M  V30 1512 H 140.016 -1.29032 -6.66729 0
M  V30 1513 H 137.962 0.946787 -6.49132 0
M  V30 1514 H 137.879 -0.424399 -7.54808 0
M  V30 1515 H 139.147 0.745876 -7.75923 0
M  V30 1516 N 143.376 1.44774 -0.622745 0
M  V30 1517 C 144.653 1.95522 -0.0551974 0
M  V30 1518 C 145.033 1.5649 1.41683 0
M  V30 1519 O 144.381 0.834848 2.12703 0
M  V30 1520 C 144.591 3.4796 -0.269242 0
M  V30 1521 C 145.939 4.24306 -0.158014 0
M  V30 1522 O 146.963 3.55637 -0.200162 0
M  V30 1523 O 145.822 5.46471 -0.0558693 0
M  V30 1524 H 142.916 0.826556 0.0271015 0
M  V30 1525 H 145.462 1.54866 -0.693864 0
M  V30 1526 H 144.234 3.6939 -1.29099 0
M  V30 1527 H 143.857 3.95543 0.403966 0
M  V30 1528 N 144.854 0.36279 1.53368 0
M  V30 1529 C 145.784 -0.476976 2.28576 0
M  V30 1530 C 146.765 -1.08631 1.30894 0
M  V30 1531 O 147.95 -1.10409 1.59761 0
M  V30 1532 C 145.08 -1.61828 3.07293 0
M  V30 1533 C 144.034 -1.13633 4.1264 0
M  V30 1534 C 143.36 -2.36766 4.79423 0
M  V30 1535 C 144.66 -0.223061 5.21823 0
M  V30 1536 H 146.354 0.150474 2.99022 0
M  V30 1537 H 143.9 0.0738103 1.43811 0
M  V30 1538 H 145.853 -2.21237 3.58653 0
M  V30 1539 H 144.577 -2.27292 2.34533 0
M  V30 1540 H 143.236 -0.564945 3.62221 0
M  V30 1541 H 142.884 -3.0068 4.03238 0
M  V30 1542 H 142.584 -2.05192 5.50609 0
M  V30 1543 H 144.108 -2.96865 5.33576 0
M  V30 1544 H 145.522 -0.724545 5.68703 0
M  V30 1545 H 143.919 0.001678 6.001 0
M  V30 1546 H 144.989 0.735553 4.79289 0
M  V30 1547 N 146.332 -1.57332 0.0918853 0
M  V30 1548 C 147.264 -2.10869 -0.898168 0
M  V30 1549 C 148.277 -1.04521 -1.24817 0
M  V30 1550 O 149.466 -1.31977 -1.20184 0
M  V30 1551 C 146.566 -2.57083 -2.2082 0
M  V30 1552 C 145.739 -3.87229 -2.03402 0
M  V30 1553 C 144.798 -4.19324 -3.17889 0
M  V30 1554 O 143.824 -4.88598 -2.91994 0
M  V30 1555 N 145.026 -3.74471 -4.43567 0
M  V30 1556 H 147.791 -2.96439 -0.440943 0
M  V30 1557 H 145.352 -1.61631 -0.0933064 0
M  V30 1558 H 147.344 -2.75602 -2.96354 0
M  V30 1559 H 145.914 -1.76541 -2.57977 0
M  V30 1560 H 145.134 -3.7789 -1.12218 0
M  V30 1561 H 146.422 -4.72379 -1.89038 0
M  V30 1562 H 145.82 -3.18546 -4.67488 0
M  V30 1563 H 144.377 -3.98151 -5.16061 0
M  V30 1564 N 147.81 0.181792 -1.56548 0
M  V30 1565 C 148.743 1.25366 -1.90679 0
M  V30 1566 C 149.721 1.43299 -0.768376 0
M  V30 1567 O 150.905 1.58475 -1.02068 0
M  V30 1568 C 148.032 2.61826 -2.1486 0
M  V30 1569 C 147.078 2.60688 -3.37556 0
M  V30 1570 S 147.911 2.10804 -4.92262 0
M  V30 1571 C 149.067 3.49062 -5.19525 0
M  V30 1572 H 149.3 0.962277 -2.81296 0
M  V30 1573 H 146.833 0.385892 -1.495 0
M  V30 1574 H 148.791 3.40371 -2.29473 0
M  V30 1575 H 147.452 2.88169 -1.24969 0
M  V30 1576 H 146.645 3.61058 -3.51643 0
M  V30 1577 H 146.247 1.90232 -3.22006 0
M  V30 1578 H 148.539 4.45003 -5.10861 0
M  V30 1579 H 149.482 3.39859 -6.2121 0
M  V30 1580 H 149.89 3.4459 -4.47122 0
M  V30 1581 N 149.288 1.51039 0.449983 0
M  V30 1582 C 150.534 1.63322 1.20223 0
M  V30 1583 C 150.867 0.34241 1.91158 0
M  V30 1584 O 150.142 -0.657344 1.83055 0
M  V30 1585 C 150.425 2.82801 2.22925 0
M  V30 1586 C 150.278 4.21823 1.56157 0
M  V30 1587 C 151.597 2.97807 3.24035 0
M  V30 1588 H 148.716 0.594407 0.435718 0
M  V30 1589 H 151.358 1.83489 0.493136 0
M  V30 1590 H 149.508 2.65738 2.834 0
M  V30 1591 H 151.18 4.50526 0.991162 0
M  V30 1592 H 149.423 4.25105 0.864172 0
M  V30 1593 H 150.094 5.01391 2.30891 0
M  V30 1594 H 152.57 3.13497 2.73603 0
M  V30 1595 H 151.446 3.82992 3.93202 0
M  V30 1596 H 151.707 2.09328 3.89402 0
M  V30 1597 N 150.766 -0.704594 1.40972 0
M  V30 1598 C 151.714 -1.83994 1.42299 0
M  V30 1599 C 152.708 -1.66684 0.302111 0
M  V30 1600 O 153.914 -1.73655 0.473697 0
M  V30 1601 H 150.289 -0.606171 0.44504 0
M  V30 1602 H 152.26 -1.79992 2.38003 0
M  V30 1603 C 151.009 -3.21946 1.31323 0
M  V30 1604 H 150.332 -3.35878 2.16855 0
M  V30 1605 H 151.772 -4.01491 1.36311 0
M  V30 1606 C 150.231 -3.36891 0.0245977 0
M  V30 1607 O 150.761 -3.90687 -0.934153 0
M  V30 1608 N 148.967 -2.90559 -0.0485243 0
M  V30 1609 H 148.514 -2.46968 0.732419 0
M  V30 1610 H 148.472 -3.00937 -0.910171 0
M  V30 1611 N 152.244 -1.26651 -0.937939 0
M  V30 1612 C 153.493 -1.11775 -1.67897 0
M  V30 1613 C 153.806 0.33794 -1.92659 0
M  V30 1614 O 155.012 0.607434 -2.64618 0
M  V30 1615 C 153.468 -1.9523 -3.02346 0
M  V30 1616 C 153.076 -3.45393 -2.8532 0
M  V30 1617 C 154.82 -1.88972 -3.80118 0
M  V30 1618 C 152.727 -4.21083 -4.15263 0
M  V30 1619 H 151.657 -0.414696 -0.629717 0
M  V30 1620 H 154.308 -1.50988 -1.04283 0
M  V30 1621 H 152.69 -1.48853 -3.66959 0
M  V30 1622 H 153.864 -3.99561 -2.29537 0
M  V30 1623 H 152.179 -3.52921 -2.20988 0
M  V30 1624 H 154.776 -2.42805 -4.76392 0
M  V30 1625 H 155.119 -0.86113 -4.07296 0
M  V30 1626 H 155.652 -2.33189 -3.22285 0
M  V30 1627 H 152.391 -5.24425 -3.93267 0
M  V30 1628 H 151.911 -3.71695 -4.70747 0
M  V30 1629 H 153.59 -4.29706 -4.83696 0
M  V30 1630 N 153.722 1.14298 -1.08507 0
M  V30 1631 C 154.947 1.8976 -0.837001 0
M  V30 1632 C 155.372 1.78097 0.605228 0
M  V30 1633 O 154.73 1.12188 1.4242 0
M  V30 1634 C 154.778 3.37685 -1.26495 0
M  V30 1635 O 153.882 4.10281 -0.417514 0
M  V30 1636 H 153.223 0.590365 -0.303917 0
M  V30 1637 H 155.753 1.44672 -1.44676 0
M  V30 1638 H 155.763 3.88501 -1.24625 0
M  V30 1639 H 154.438 3.45492 -2.31534 0
M  V30 1640 H 153.015 3.69536 -0.499722 0
M  V30 1641 N 155.201 0.870884 1.31352 0
M  V30 1642 C 156.131 0.343096 2.30966 0
M  V30 1643 C 157.112 -0.566507 1.60389 0
M  V30 1644 O 158.297 -0.483336 1.88089 0
M  V30 1645 C 155.427 -0.455487 3.443 0
M  V30 1646 C 154.381 0.361103 4.26474 0
M  V30 1647 C 153.707 -0.563221 5.31725 0
M  V30 1648 C 155.007 1.59566 4.97329 0
M  V30 1649 H 156.701 1.17548 2.75359 0
M  V30 1650 H 154.247 0.566686 1.32381 0
M  V30 1651 H 156.2 -0.83525 4.13039 0
M  V30 1652 H 154.924 -1.32139 2.98675 0
M  V30 1653 H 153.583 0.722825 3.59403 0
M  V30 1654 H 153.231 -1.42643 4.82351 0
M  V30 1655 H 152.931 -0.0207409 5.87596 0
M  V30 1656 H 154.455 -0.939808 6.03324 0
M  V30 1657 H 155.869 1.28728 5.58661 0
M  V30 1658 H 154.266 2.07728 5.63 0
M  V30 1659 H 155.336 2.34798 4.24262 0
M  V30 1660 N 156.679 -1.44442 0.630414 0
M  V30 1661 C 158.095 -1.56832 0.295973 0
M  V30 1662 C 158.295 -1.61806 -1.20088 0
M  V30 1663 O 157.351 -1.5607 -1.9849 0
M  V30 1664 C 158.664 -2.84031 0.987264 0
M  V30 1665 C 160.212 -2.97742 0.96534 0
M  V30 1666 C 160.687 -4.27743 1.63708 0
M  V30 1667 N 162.178 -4.34555 1.60364 0
M  V30 1668 C 162.913 -5.33862 2.09234 0
M  V30 1669 N 162.409 -6.39578 2.66292 0
M  V30 1670 N 164.202 -5.25366 1.99867 0
M  V30 1671 H 156.353 -1.39457 1.60205 0
M  V30 1672 H 158.616 -0.668237 0.672431 0
M  V30 1673 H 158.322 -2.86338 2.04215 0
M  V30 1674 H 158.196 -3.73534 0.524588 0
M  V30 1675 H 160.583 -2.94989 -0.0810639 0
M  V30 1676 H 160.664 -2.09589 1.4665 0
M  V30 1677 H 160.308 -4.31255 2.68293 0
M  V30 1678 H 160.238 -5.14752 1.11076 0
M  V30 1679 H 162.729 -3.58772 1.18705 0
M  V30 1680 H 163.042 -7.11637 3.01317 0
M  V30 1681 H 161.387 -6.40265 2.70343 0
M  V30 1682 H 164.578 -4.41688 1.55013 0
M  V30 1683 H 164.751 -6.02606 2.38265 0
M  V30 1684 N 158.157 -0.370918 -1.53173 0
M  V30 1685 C 159.403 0.217423 -2.01631 0
M  V30 1686 C 159.736 1.47983 -1.25756 0
M  V30 1687 O 159.011 1.91274 -0.352764 0
M  V30 1688 C 159.294 0.503982 -3.56556 0
M  V30 1689 C 159.147 -0.77243 -4.43118 0
M  V30 1690 C 160.466 1.30234 -4.20389 0
M  V30 1691 H 157.585 0.0775486 -0.732909 0
M  V30 1692 H 160.227 -0.496863 -1.83388 0
M  V30 1693 H 158.377 1.11248 -3.72231 0
M  V30 1694 H 160.049 -1.4098 -4.39229 0
M  V30 1695 H 158.292 -1.39167 -4.10871 0
M  V30 1696 H 158.963 -0.526815 -5.4948 0
M  V30 1697 H 161.439 0.787546 -4.08579 0
M  V30 1698 H 160.315 1.47158 -5.28806 0
M  V30 1699 H 160.576 2.31237 -3.76805 0
M  V30 1700 N 159.635 1.57281 -0.100228 0
M  V30 1701 C 160.565 2.17328 0.853857 0
M  V30 1702 C 161.546 1.10804 1.2906 0
M  V30 1703 O 162.731 1.38963 1.35657 0
M  V30 1704 C 159.861 2.75772 2.11109 0
M  V30 1705 C 158.815 3.87713 1.81279 0
M  V30 1706 C 158.141 4.32882 3.13874 0
M  V30 1707 C 159.441 5.10677 1.09574 0
M  V30 1708 H 161.135 2.97305 0.353545 0
M  V30 1709 H 158.681 1.43009 0.168612 0
M  V30 1710 H 160.634 3.16433 2.78296 0
M  V30 1711 H 159.358 1.93057 2.63432 0
M  V30 1712 H 158.017 3.476 1.16489 0
M  V30 1713 H 157.665 3.47051 3.64095 0
M  V30 1714 H 157.365 5.08358 2.94696 0
M  V30 1715 H 158.889 4.7618 3.82211 0
M  V30 1716 H 160.303 5.48474 1.66879 0
M  V30 1717 H 158.7 5.91615 1.00557 0
M  V30 1718 H 159.77 4.84835 0.0793299 0
M  V30 1719 N 161.113 -0.173488 1.56642 0
M  V30 1720 C 162.338 -0.910149 1.86363 0
M  V30 1721 C 162.763 -1.75132 0.686318 0
M  V30 1722 O 162.121 -1.77595 -0.364643 0
M  V30 1723 C 162.169 -1.76447 3.14482 0
M  V30 1724 O 161.273 -2.86584 2.96553 0
M  V30 1725 H 160.614 -0.255086 0.613047 0
M  V30 1726 H 163.144 -0.172283 2.03873 0
M  V30 1727 H 163.154 -2.16483 3.45831 0
M  V30 1728 H 161.829 -1.14658 3.99783 0
M  V30 1729 H 160.406 -2.50146 2.76553 0
M  V30 1730 N 162.591 -1.51276 -0.441967 0
M  V30 1731 C 164.007 -1.39349 -0.778083 0
M  V30 1732 C 164.207 -0.472212 -1.95889 0
M  V30 1733 O 163.263 0.0743551 -2.5239 0
M  V30 1734 C 164.576 -2.81292 -1.0628 0
M  V30 1735 C 166.124 -2.9041 -1.16751 0
M  V30 1736 C 166.599 -4.33251 -1.48519 0
M  V30 1737 N 168.09 -4.36336 -1.55453 0
M  V30 1738 C 168.825 -5.43885 -1.81596 0
M  V30 1739 N 168.321 -6.61601 -2.05562 0
M  V30 1740 N 170.114 -5.3136 -1.8334 0
M  V30 1741 H 162.265 -2.09729 0.335774 0
M  V30 1742 H 164.528 -0.943925 0.0878028 0
M  V30 1743 H 164.234 -3.50678 -0.267905 0
M  V30 1744 H 164.108 -3.20334 -1.99163 0
M  V30 1745 H 166.495 -2.21225 -1.95304 0
M  V30 1746 H 166.576 -2.54871 -0.217801 0
M  V30 1747 H 166.22 -5.02984 -0.704958 0
M  V30 1748 H 166.15 -4.66299 -2.44689 0
M  V30 1749 H 168.641 -3.51466 -1.38853 0
M  V30 1750 H 168.954 -7.39361 -2.24867 0
M  V30 1751 H 167.299 -6.64725 -2.02894 0
M  V30 1752 H 170.49 -4.38382 -1.64132 0
M  V30 1753 H 170.663 -6.15258 -2.03377 0
M  V30 1754 N 164.069 0.697108 -1.41344 0
M  V30 1755 C 165.48 1.27697 -1.36199 0
M  V30 1756 C 165.831 1.9615 -0.0443463 0
M  V30 1757 O 164.956 1.98689 0.857419 0
M  V30 1758 C 165.551 2.32223 -2.46694 0
M  V30 1759 C 164.11 2.8579 -2.44952 0
M  V30 1760 C 163.257 1.59807 -2.26621 0
M  V30 1761 H 166.208 0.491968 -1.50882 0
M  V30 1762 H 166.229 3.1348 -2.15664 0
M  V30 1763 H 165.741 1.82373 -3.42581 0
M  V30 1764 H 163.842 3.3982 -1.52817 0
M  V30 1765 H 163.955 3.36325 -3.41207 0
M  V30 1766 H 162.319 1.8556 -1.7447 0
M  V30 1767 H 163.102 1.11956 -3.24532 0
M  V30 1768 N 165.547 1.27147 0.931209 0
M  V30 1769 C 166.495 1.09398 2.05268 0
M  V30 1770 C 167.489 0.0180591 1.6939 0
M  V30 1771 O 168.695 0.17551 1.79142 0
M  V30 1772 H 165.07 0.336986 0.672268 0
M  V30 1773 H 167.041 2.04416 2.17386 0
M  V30 1774 C 165.79 0.75424 3.39421 0
M  V30 1775 H 165.113 1.57404 3.67511 0
M  V30 1776 H 166.553 0.669903 4.18674 0
M  V30 1777 C 165.012 -0.541197 3.32525 0
M  V30 1778 O 165.542 -1.57664 3.69466 0
M  V30 1779 N 163.748 -0.535517 2.85623 0
M  V30 1780 H 163.295 0.307511 2.55758 0
M  V30 1781 H 163.253 -1.40236 2.81392 0
M  V30 1782 N 167.025 -1.13721 1.09112 0
M  V30 1783 C 167.988 -2.17222 0.731241 0
M  V30 1784 C 168.988 -1.59035 -0.237566 0
M  V30 1785 O 170.178 -1.74192 -0.0161704 0
M  V30 1786 C 167.31 -3.40804 0.0808443 0
M  V30 1787 H 168.503 -2.50573 1.64783 0
M  V30 1788 H 166.056 -1.28493 0.889897 0
M  V30 1789 H 166.791 -3.1304 -0.847127 0
M  V30 1790 H 166.576 -3.84306 0.777896 0
M  V30 1791 H 168.066 -4.1731 -0.155657 0
M  V30 1792 N 168.503 -0.877838 -1.30888 0
M  V30 1793 C 169.435 -0.296607 -2.27273 0
M  V30 1794 C 170.448 0.544799 -1.53414 0
M  V30 1795 O 171.637 0.365511 -1.74718 0
M  V30 1796 C 168.737 0.597481 -3.33592 0
M  V30 1797 C 167.91 -0.213251 -4.3688 0
M  V30 1798 C 166.969 0.610208 -5.2265 0
M  V30 1799 O 165.995 0.035441 -5.69189 0
M  V30 1800 N 167.197 1.92071 -5.47804 0
M  V30 1801 H 169.962 -1.12492 -2.77787 0
M  V30 1802 H 167.523 -0.740105 -1.43993 0
M  V30 1803 H 169.515 1.15425 -3.87891 0
M  V30 1804 H 168.085 1.32647 -2.83061 0
M  V30 1805 H 167.305 -0.951466 -3.82545 0
M  V30 1806 H 168.593 -0.769262 -5.02951 0
M  V30 1807 H 167.991 2.4107 -5.11763 0
M  V30 1808 H 166.548 2.42508 -6.05007 0
M  V30 1809 N 169.982 1.44106 -0.638065 0
M  V30 1810 C 170.892 2.34513 0.0637334 0
M  V30 1811 C 171.908 1.53018 0.828346 0
M  V30 1812 O 173.084 1.85723 0.779036 0
M  V30 1813 C 170.149 3.31095 1.02844 0
M  V30 1814 C 169.21 4.28497 0.26244 0
M  V30 1815 C 168.443 5.20465 1.1812 0
M  V30 1816 O 168.666 5.16514 2.42011 0
M  V30 1817 O 167.6 5.98251 0.661774 0
M  V30 1818 H 171.426 2.95989 -0.68003 0
M  V30 1819 H 169.011 1.43994 -0.398252 0
M  V30 1820 H 170.893 3.90526 1.58327 0
M  V30 1821 H 169.568 2.72144 1.7527 0
M  V30 1822 H 168.475 3.72592 -0.335602 0
M  V30 1823 H 169.808 4.90388 -0.421936 0
M  V30 1824 N 171.46 0.379036 1.52974 0
M  V30 1825 C 172.39 -0.452706 2.29069 0
M  V30 1826 C 173.371 -1.07237 1.32039 0
M  V30 1827 O 174.556 -1.08708 1.60923 0
M  V30 1828 C 171.686 -1.5856 3.08992 0
M  V30 1829 C 170.64 -1.0925 4.13822 0
M  V30 1830 C 169.966 -2.31668 4.81907 0
M  V30 1831 C 171.266 -0.167702 5.22031 0
M  V30 1832 H 172.96 0.182181 2.98845 0
M  V30 1833 H 170.506 0.0890592 1.43724 0
M  V30 1834 H 172.459 -2.1742 3.6098 0
M  V30 1835 H 171.183 -2.24792 2.36931 0
M  V30 1836 H 169.842 -0.526494 3.628 0
M  V30 1837 H 169.49 -2.96386 4.06404 0
M  V30 1838 H 169.19 -1.9934 5.52754 0
M  V30 1839 H 170.714 -2.91189 5.36695 0
M  V30 1840 H 172.128 -0.664186 5.6944 0
M  V30 1841 H 170.525 0.0653265 6.00064 0
M  V30 1842 H 171.595 0.786347 4.78482 0
M  V30 1843 N 172.938 -1.57226 0.108567 0
M  V30 1844 C 174.349 -1.8195 -0.418464 0
M  V30 1845 C 174.7 -1.02508 -1.67292 0
M  V30 1846 O 173.825 -0.258496 -2.14851 0
M  V30 1847 C 174.42 -3.30028 -0.765979 0
M  V30 1848 C 172.979 -3.55469 -1.23769 0
M  V30 1849 C 172.126 -2.7625 -0.241106 0
M  V30 1850 H 175.077 -1.55149 0.33384 0
M  V30 1851 H 175.098 -3.44086 -1.62434 0
M  V30 1852 H 174.61 -3.87821 0.147219 0
M  V30 1853 H 172.711 -3.03022 -2.16814 0
M  V30 1854 H 172.824 -4.6408 -1.19022 0
M  V30 1855 H 171.188 -2.44133 -0.72602 0
M  V30 1856 H 171.971 -3.36797 0.665007 0
M  V30 1857 N 174.416 0.165178 -1.56732 0
M  V30 1858 C 175.641 0.900253 -1.86843 0
M  V30 1859 C 176.066 1.74766 -0.695596 0
M  V30 1860 O 175.424 1.77786 0.35522 0
M  V30 1861 C 175.472 1.74777 -3.15413 0
M  V30 1862 O 174.576 2.85007 -2.98068 0
M  V30 1863 H 173.917 0.251832 -0.614391 0
M  V30 1864 H 176.447 0.161468 -2.03962 0
M  V30 1865 H 176.457 2.14646 -3.46974 0
M  V30 1866 H 175.132 1.12537 -4.00385 0
M  V30 1867 H 173.709 2.48676 -2.77875 0
M  V30 1868 N 175.894 1.51508 0.433938 0
M  V30 1869 C 176.827 1.67756 1.54704 0
M  V30 1870 C 177.805 0.525127 1.53887 0
M  V30 1871 O 178.989 0.749393 1.72963 0
M  V30 1872 C 176.116 1.69424 2.9328 0
M  V30 1873 C 175.162 2.90673 3.12108 0
M  V30 1874 S 175.995 4.51431 2.88046 0
M  V30 1875 C 177.151 4.55849 4.28897 0
M  V30 1876 H 177.384 2.61904 1.40689 0
M  V30 1877 H 174.917 1.41235 0.62386 0
M  V30 1878 H 176.875 1.7107 3.73156 0
M  V30 1879 H 175.536 0.764464 3.04655 0
M  V30 1880 H 174.729 2.88251 4.13434 0
M  V30 1881 H 174.331 2.86786 2.40062 0
M  V30 1882 H 176.623 4.31699 5.22152 0
M  V30 1883 H 177.566 5.57676 4.36351 0
M  V30 1884 H 177.974 3.85137 4.12711 0
M  V30 1885 N 177.372 -0.689602 1.41712 0
M  V30 1886 C 178.602 -1.47613 1.44548 0
M  V30 1887 C 179.01 -1.89132 0.0509034 0
M  V30 1888 O 178.353 -1.57741 -0.94146 0
M  V30 1889 C 178.415 -2.76596 2.2964 0
M  V30 1890 C 178.079 -2.57245 3.77722 0
M  V30 1891 C 179.076 -2.22804 4.69739 0
M  V30 1892 C 176.761 -2.727 4.2183 0
M  V30 1893 C 178.755 -2.04064 6.03851 0
M  V30 1894 C 176.442 -2.53576 5.56006 0
M  V30 1895 C 177.44 -2.1931 6.46832 0
M  V30 1896 O 177.128 -2.00359 7.78532 0
M  V30 1897 H 176.86 -0.461227 0.494212 0
M  V30 1898 H 179.414 -0.856045 1.86711 0
M  V30 1899 H 177.644 -3.41033 1.82301 0
M  V30 1900 H 179.333 -3.38424 2.24107 0
M  V30 1901 H 180.099 -2.10473 4.36951 0
M  V30 1902 H 175.978 -2.98353 3.51435 0
M  V30 1903 H 179.522 -1.77241 6.74708 0
M  V30 1904 H 175.419 -2.65499 5.88371 0
M  V30 1905 H 176.187 -2.15075 7.89737 0
M  V30 1906 N 178.85 -1.27639 -0.924453 0
M  V30 1907 C 179.782 -1.06442 -2.02985 0
M  V30 1908 C 180.795 -0.0194771 -1.62788 0
M  V30 1909 O 181.984 -0.261388 -1.76576 0
M  V30 1910 C 179.084 -0.59327 -3.33667 0
M  V30 1911 C 178.257 -1.71123 -4.02537 0
M  V30 1912 C 177.316 -1.23527 -5.11495 0
M  V30 1913 O 176.342 -1.93553 -5.35281 0
M  V30 1914 N 177.544 -0.0926678 -5.80426 0
M  V30 1915 H 180.309 -2.01633 -2.2173 0
M  V30 1916 H 177.87 -1.19248 -1.09505 0
M  V30 1917 H 179.862 -0.258686 -4.03872 0
M  V30 1918 H 178.432 0.265502 -3.1147 0
M  V30 1919 H 177.652 -2.21593 -3.26022 0
M  V30 1920 H 178.94 -2.46145 -4.45298 0
M  V30 1921 H 178.338 0.491741 -5.63559 0
M  V30 1922 H 176.895 0.182714 -6.51544 0
M  V30 1923 N 180.328 1.1314 -1.09713 0
M  V30 1924 C 181.744 1.36477 -0.827423 0
M  V30 1925 C 181.944 1.93654 0.556817 0
M  V30 1926 O 181 2.15791 1.31112 0
M  V30 1927 C 182.313 2.31334 -1.92106 0
M  V30 1928 C 183.861 2.44943 -1.94864 0
M  V30 1929 C 184.336 3.4311 -3.0338 0
M  V30 1930 N 185.827 3.50662 -3.02639 0
M  V30 1931 C 186.562 4.2651 -3.83246 0
M  V30 1932 N 186.058 5.05485 -4.73768 0
M  V30 1933 N 187.851 4.2184 -3.71493 0
M  V30 1934 H 180.002 0.743807 -1.9895 0
M  V30 1935 H 182.265 0.389823 -0.864143 0
M  V30 1936 H 181.971 1.96483 -2.91698 0
M  V30 1937 H 181.845 3.31381 -1.80184 0
M  V30 1938 H 184.232 2.79079 -0.959099 0
M  V30 1939 H 184.313 1.4481 -2.10864 0
M  V30 1940 H 183.957 3.09704 -4.02549 0
M  V30 1941 H 183.887 4.43055 -2.84622 0
M  V30 1942 H 186.378 2.94315 -2.37039 0
M  V30 1943 H 186.691 5.60675 -5.3185 0
M  V30 1944 H 185.036 5.04708 -4.77802 0
M  V30 1945 H 188.227 3.5922 -3.00131 0
M  V30 1946 H 188.4 4.80697 -4.3455 0
M  V30 1947 N 181.806 0.884767 1.30421 0
M  V30 1948 C 182.736 0.367574 2.30589 0
M  V30 1949 C 183.717 -0.549464 1.60981 0
M  V30 1950 O 184.902 -0.46336 1.88591 0
M  V30 1951 C 182.032 -0.418944 3.44764 0
M  V30 1952 C 180.986 0.406316 4.26067 0
M  V30 1953 C 180.312 -0.506793 5.32293 0
M  V30 1954 C 181.612 1.64832 4.95608 0
M  V30 1955 H 183.306 1.20462 2.74097 0
M  V30 1956 H 180.852 0.580695 1.31772 0
M  V30 1957 H 182.805 -0.791395 4.13902 0
M  V30 1958 H 181.529 -1.28964 3.0006 0
M  V30 1959 H 180.188 0.760903 3.58617 0
M  V30 1960 H 179.836 -1.37519 4.83836 0
M  V30 1961 H 179.536 0.0415828 5.87585 0
M  V30 1962 H 181.06 -0.875764 6.04287 0
M  V30 1963 H 182.474 1.34646 5.57264 0
M  V30 1964 H 180.871 2.13688 5.60765 0
M  V30 1965 H 181.941 2.39284 4.21748 0
M  V30 1966 N 183.284 -1.43765 0.645699 0
M  V30 1967 C 184.532 -2.01499 0.155731 0
M  V30 1968 C 184.853 -1.51151 -1.232 0
M  V30 1969 O 184.123 -0.721044 -1.82148 0
M  V30 1970 H 182.703 -0.745003 0.0545817 0
M  V30 1971 H 185.365 -1.76075 0.835677 0
M  V30 1972 H 184.461 -3.1181 0.134577 0
M  V30 1973 N 184.763 -0.387143 -1.52771 0
M  V30 1974 C 185.693 0.440551 -2.29306 0
M  V30 1975 C 186.674 1.06535 -1.32606 0
M  V30 1976 O 187.859 1.07853 -1.61497 0
M  V30 1977 C 184.989 1.56919 -3.09829 0
M  V30 1978 C 183.943 1.07054 -4.14395 0
M  V30 1979 C 183.269 2.29109 -4.83129 0
M  V30 1980 C 184.569 0.140015 -5.22112 0
M  V30 1981 H 186.263 -0.198026 -2.98744 0
M  V30 1982 H 183.809 -0.09668 -1.43675 0
M  V30 1983 H 185.762 2.15503 -3.62128 0
M  V30 1984 H 184.486 2.23532 -2.3812 0
M  V30 1985 H 183.145 0.507247 -3.63074 0
M  V30 1986 H 182.793 2.94227 -4.0797 0
M  V30 1987 H 182.493 1.96406 -5.53804 0
M  V30 1988 H 184.017 2.88339 -5.38231 0
M  V30 1989 H 185.431 0.633978 -5.69784 0
M  V30 1990 H 183.828 -0.0971485 -6.00021 0
M  V30 1991 H 184.898 -0.811711 -4.78058 0
M  V30 1992 N 186.241 1.57166 -0.116904 0
M  V30 1993 C 187.518 1.86645 0.585049 0
M  V30 1994 C 187.898 1.0177 1.84949 0
M  V30 1995 O 187.246 0.0960379 2.28298 0
M  V30 1996 C 187.456 3.37736 0.879507 0
M  V30 1997 C 188.804 4.06289 1.23348 0
M  V30 1998 O 189.828 3.42743 0.969836 0
M  V30 1999 O 188.687 5.18455 1.7282 0
M  V30 2000 H 185.781 0.772593 0.295007 0
M  V30 2001 H 188.327 1.69025 -0.151249 0
M  V30 2002 H 187.099 3.91296 -0.0166136 0
M  V30 2003 H 186.722 3.6078 1.67103 0
M  V30 2004 N 187.719 -0.156864 1.56817 0
M  V30 2005 C 188.949 -0.885031 1.86684 0
M  V30 2006 C 189.357 -1.75696 0.701954 0
M  V30 2007 O 188.7 -1.80569 -0.337732 0
M  V30 2008 C 188.762 -1.80092 3.11138 0
M  V30 2009 C 188.426 -1.10714 4.43386 0
M  V30 2010 C 189.423 -0.465714 5.1781 0
M  V30 2011 C 187.108 -1.09959 4.90117 0
M  V30 2012 C 189.102 0.174002 6.37162 0
M  V30 2013 C 186.789 -0.456055 6.09396 0
M  V30 2014 C 187.787 0.179622 6.82764 0
M  V30 2015 O 187.475 0.812975 7.99779 0
M  V30 2016 H 187.207 -0.261813 0.623242 0
M  V30 2017 H 189.761 -0.157383 2.04796 0
M  V30 2018 H 187.991 -2.56926 2.89009 0
M  V30 2019 H 189.68 -2.40018 3.27332 0
M  V30 2020 H 190.446 -0.463427 4.82781 0
M  V30 2021 H 186.325 -1.58378 4.3294 0
M  V30 2022 H 189.869 0.670765 6.94368 0
M  V30 2023 H 185.766 -0.455975 6.43888 0
M  V30 2024 H 186.534 0.71366 8.15383 0
M  V30 2025 N 189.197 -1.51736 -0.425897 0
M  V30 2026 C 190.107 -1.76738 -1.54275 0
M  V30 2027 C 191.123 -0.65211 -1.61318 0
M  V30 2028 O 192.299 -0.935654 -1.78346 0
M  V30 2029 C 189.364 -1.89755 -2.90162 0
M  V30 2030 C 188.425 -3.13633 -2.93143 0
M  V30 2031 C 187.658 -3.2602 -4.22548 0
M  V30 2032 O 187.881 -2.44067 -5.15546 0
M  V30 2033 O 186.815 -4.19071 -4.32046 0
M  V30 2034 H 190.641 -2.71502 -1.36089 0
M  V30 2035 H 188.226 -1.36376 -0.610069 0
M  V30 2036 H 190.108 -2.00236 -3.70788 0
M  V30 2037 H 188.783 -0.981785 -3.08452 0
M  V30 2038 H 187.69 -3.08622 -2.11431 0
M  V30 2039 H 189.023 -4.04936 -2.798 0
M  V30 2040 N 190.675 0.682077 -1.42076 0
M  V30 2041 C 191.585 1.82535 -1.47371 0
M  V30 2042 C 192.601 1.7017 -0.363079 0
M  V30 2043 O 193.777 1.91848 -0.612875 0
M  V30 2044 C 190.842 3.18624 -1.36674 0
M  V30 2045 C 189.903 3.42999 -2.58167 0
M  V30 2046 C 189.136 4.72595 -2.4797 0
M  V30 2047 O 189.359 5.50006 -1.5116 0
M  V30 2048 O 188.293 4.98054 -3.37974 0
M  V30 2049 H 192.119 1.81023 -2.43853 0
M  V30 2050 H 189.704 0.836887 -1.2376 0
M  V30 2051 H 191.586 3.99847 -1.33043 0
M  V30 2052 H 190.261 3.20789 -0.433138 0
M  V30 2053 H 189.168 2.61653 -2.67373 0
M  V30 2054 H 190.501 3.45659 -3.50401 0
M  V30 2055 N 192.153 1.28127 0.917671 0
M  V30 2056 C 193.569 1.05749 1.19538 0
M  V30 2057 C 193.769 -0.202633 2.00479 0
M  V30 2058 O 192.825 -0.905382 2.3571 0
M  V30 2059 C 194.138 2.30273 1.93378 0
M  V30 2060 C 195.686 2.35412 2.06277 0
M  V30 2061 C 196.161 3.59692 2.83524 0
M  V30 2062 N 197.652 3.60309 2.91087 0
M  V30 2063 C 198.387 4.53147 3.51348 0
M  V30 2064 N 197.883 5.563 4.12919 0
M  V30 2065 N 199.676 4.40751 3.48849 0
M  V30 2066 H 191.827 2.09024 0.377184 0
M  V30 2067 H 194.09 0.919798 0.22951 0
M  V30 2068 H 193.796 3.22055 1.41328 0
M  V30 2069 H 193.67 2.36378 2.93947 0
M  V30 2070 H 196.057 1.4413 2.57508 0
M  V30 2071 H 196.138 2.33304 1.04895 0
M  V30 2072 H 195.782 4.51316 2.32973 0
M  V30 2073 H 195.712 3.59054 3.85211 0
M  V30 2074 H 198.203 2.85714 2.47338 0
M  V30 2075 H 198.516 6.2329 4.56869 0
M  V30 2076 H 196.861 5.60131 4.11435 0
M  V30 2077 H 200.052 3.59367 2.99955 0
M  V30 2078 H 200.225 5.13291 3.9552 0
M  V30 2079 N 193.631 -1.12557 1.10312 0
M  V30 2080 C 194.877 -1.84311 0.846011 0
M  V30 2081 C 195.21 -1.83805 -0.626859 0
M  V30 2082 O 194.485 -1.28268 -1.46211 0
M  V30 2083 C 194.768 -3.32048 1.39341 0
M  V30 2084 C 194.621 -3.41016 2.93305 0
M  V30 2085 C 195.94 -4.27764 1.03468 0
M  V30 2086 H 193.059 -0.669192 0.30879 0
M  V30 2087 H 195.701 -1.32057 1.36605 0
M  V30 2088 H 193.851 -3.76678 0.951087 0
M  V30 2089 H 195.523 -3.05031 3.46055 0
M  V30 2090 H 193.766 -2.81603 3.29973 0
M  V30 2091 H 194.437 -4.44948 3.26689 0
M  V30 2092 H 196.913 -3.91253 1.41633 0
M  V30 2093 H 195.789 -5.29549 1.44463 0
M  V30 2094 H 196.05 -4.42064 -0.0560404 0
M  V30 2095 N 195.109 -0.891671 -1.2995 0
M  V30 2096 C 196.039 -0.379797 -2.30391 0
M  V30 2097 C 197.02 0.540919 -1.6127 0
M  V30 2098 O 198.205 0.453352 -1.88834 0
M  V30 2099 C 195.335 0.400654 -3.44981 0
M  V30 2100 C 194.289 -0.428905 -4.25846 0
M  V30 2101 C 193.615 0.478557 -5.32554 0
M  V30 2102 C 194.915 -1.67458 -4.94727 0
M  V30 2103 H 196.609 -1.21914 -2.73454 0
M  V30 2104 H 194.155 -0.587675 -1.31462 0
M  V30 2105 H 196.108 0.769434 -4.14316 0
M  V30 2106 H 194.832 1.27371 -3.0074 0
M  V30 2107 H 193.491 -0.779911 -3.58208 0
M  V30 2108 H 193.139 1.34951 -4.84559 0
M  V30 2109 H 192.839 -0.0727433 -5.87555 0
M  V30 2110 H 194.363 0.843705 -6.04743 0
M  V30 2111 H 195.777 -1.376 -5.56542 0
M  V30 2112 H 194.174 -2.16659 -5.59624 0
M  V30 2113 H 195.244 -2.41518 -4.20473 0
M  V30 2114 N 196.587 1.43421 -0.653314 0
M  V30 2115 C 197.998 1.85065 -0.246537 0
M  V30 2116 C 198.349 1.54688 1.2069 0
M  V30 2117 O 197.474 0.995896 1.92122 0
M  V30 2118 C 198.069 3.35922 -0.440666 0
M  V30 2119 C 196.628 3.76297 -0.0882064 0
M  V30 2120 C 195.775 2.67147 -0.743484 0
M  V30 2121 H 198.726 1.33572 -0.856979 0
M  V30 2122 H 198.747 3.79204 0.313798 0
M  V30 2123 H 198.259 3.58 -1.49858 0
M  V30 2124 H 196.36 3.5983 0.96711 0
M  V30 2125 H 196.473 4.76338 -0.513738 0
M  V30 2126 H 194.837 2.54086 -0.176712 0
M  V30 2127 H 195.62 2.92053 -1.80443 0
M  V30 2128 N 198.065 0.39524 1.52563 0
M  V30 2129 C 199.29 -0.187456 2.06551 0
M  V30 2130 C 199.715 -1.39249 1.26457 0
M  V30 2131 O 199.073 -1.78947 0.291151 0
M  V30 2132 C 199.121 -0.529985 3.56684 0
M  V30 2133 O 198.225 -1.62307 3.79118 0
M  V30 2134 H 197.566 -0.0202537 0.663691 0
M  V30 2135 H 200.096 0.564426 1.96661 0
M  V30 2136 H 200.106 -0.792598 4.00227 0
M  V30 2137 H 198.781 0.350987 4.14416 0
M  V30 2138 H 197.358 -1.3537 3.47461 0
M  V30 2139 N 199.544 -1.57102 0.125237 0
M  V30 2140 C 200.793 -1.94582 -0.531095 0
M  V30 2141 C 201.106 -1.01126 -1.6743 0
M  V30 2142 O 202.312 -1.28097 -2.39381 0
M  V30 2143 C 200.768 -3.45839 -0.996164 0
M  V30 2144 C 200.376 -4.47842 0.118926 0
M  V30 2145 C 202.12 -3.92227 -1.62352 0
M  V30 2146 C 200.027 -5.90284 -0.363192 0
M  V30 2147 H 198.957 -0.726391 -0.20217 0
M  V30 2148 H 201.608 -1.82339 0.206092 0
M  V30 2149 H 199.99 -3.53338 -1.78796 0
M  V30 2150 H 201.164 -4.52018 0.895358 0
M  V30 2151 H 199.479 -4.11243 0.653324 0
M  V30 2152 H 202.076 -4.96069 -1.99548 0
M  V30 2153 H 202.419 -3.32552 -2.50429 0
M  V30 2154 H 202.952 -3.87554 -0.897019 0
M  V30 2155 H 199.691 -6.53728 0.481679 0
M  V30 2156 H 199.211 -5.89515 -1.10597 0
M  V30 2157 H 200.89 -6.41752 -0.822377 0
M  V30 2158 N 201.022 0.148545 -1.56898 0
M  V30 2159 C 202.268 0.862694 -1.83536 0
M  V30 2160 C 202.601 1.80889 -0.706604 0
M  V30 2161 O 201.876 1.92328 0.289885 0
M  V30 2162 C 202.159 1.63853 -3.20662 0
M  V30 2163 C 202.012 0.713925 -4.44098 0
M  V30 2164 C 203.331 2.60133 -3.54991 0
M  V30 2165 H 200.45 0.312179 -0.667618 0
M  V30 2166 H 203.092 0.127953 -1.89569 0
M  V30 2167 H 201.242 2.26489 -3.1565 0
M  V30 2168 H 202.914 0.098686 -4.61194 0
M  V30 2169 H 201.157 0.0234019 -4.33794 0
M  V30 2170 H 201.828 1.29278 -5.36648 0
M  V30 2171 H 204.304 2.07616 -3.60603 0
M  V30 2172 H 203.18 3.11468 -4.51972 0
M  V30 2173 H 203.441 3.41417 -2.80868 0
M  V30 2174 N 202.5 1.5196 0.417844 0
M  V30 2175 C 203.448 1.75278 1.52907 0
M  V30 2176 C 204.442 0.619611 1.57662 0
M  V30 2177 O 205.648 0.801457 1.61173 0
M  V30 2178 H 202.023 0.554141 0.508362 0
M  V30 2179 H 203.994 2.68389 1.30422 0
M  V30 2180 C 202.743 1.91262 2.90369 0
M  V30 2181 H 202.066 2.77872 2.8745 0
M  V30 2182 H 203.506 2.11581 3.67436 0
M  V30 2183 C 201.965 0.677431 3.30019 0
M  V30 2184 O 202.495 -0.158799 4.01386 0
M  V30 2185 N 200.701 0.515851 2.85985 0
M  V30 2186 H 200.248 1.19744 2.28077 0
M  V30 2187 H 200.206 -0.309315 3.12875 0
M  V30 2188 N 203.978 -0.674533 1.42435 0
M  V30 2189 C 204.888 -1.81751 1.48337 0
M  V30 2190 C 205.904 -1.69975 0.372099 0
M  V30 2191 O 207.08 -1.91521 0.62304 0
M  V30 2192 C 204.145 -3.17895 1.38361 0
M  V30 2193 C 203.206 -3.41625 2.59982 0
M  V30 2194 C 202.439 -4.71274 2.50473 0
M  V30 2195 O 202.662 -5.49197 1.54075 0
M  V30 2196 O 201.596 -4.96254 3.4061 0
M  V30 2197 H 205.422 -1.79728 2.44809 0
M  V30 2198 H 203.007 -0.830312 1.24202 0
M  V30 2199 H 204.889 -3.99136 1.35161 0
M  V30 2200 H 203.564 -3.20555 0.450144 0
M  V30 2201 H 202.471 -2.60231 2.68757 0
M  V30 2202 H 203.804 -3.43796 3.52229 0
M  V30 2203 N 205.456 -1.28612 -0.910864 0
M  V30 2204 C 206.702 -1.16106 -1.66274 0
M  V30 2205 C 207.035 0.289113 -1.92036 0
M  V30 2206 O 206.31 1.21 -1.52281 0
M  V30 2207 C 206.593 -1.96309 -3.01885 0
M  V30 2208 C 206.446 -3.49405 -2.8326 0
M  V30 2209 C 207.765 -1.78076 -4.02463 0
M  V30 2210 H 204.884 -0.423152 -0.603417 0
M  V30 2211 H 207.526 -1.57961 -1.05586 0
M  V30 2212 H 205.676 -1.60742 -3.53687 0
M  V30 2213 H 207.348 -3.94894 -2.38446 0
M  V30 2214 H 205.591 -3.74893 -2.18261 0
M  V30 2215 H 206.262 -4.00784 -3.79574 0
M  V30 2216 H 208.738 -2.0912 -3.59733 0
M  V30 2217 H 207.614 -2.36561 -4.95308 0
M  V30 2218 H 207.875 -0.733008 -4.35981 0
M  V30 2219 N 206.934 1.1197 -1.10907 0
M  V30 2220 C 207.864 2.19928 -0.784473 0
M  V30 2221 C 208.845 1.6833 0.244726 0
M  V30 2222 O 210.03 1.93892 0.109418 0
M  V30 2223 C 207.16 3.46597 -0.220827 0
M  V30 2224 C 206.114 4.11376 -1.18127 0
M  V30 2225 C 205.44 5.32554 -0.478594 0
M  V30 2226 C 206.74 4.56945 -2.52979 0
M  V30 2227 H 208.434 2.47337 -1.68715 0
M  V30 2228 H 205.98 1.18879 -0.812642 0
M  V30 2229 H 207.933 4.21396 0.0184278 0
M  V30 2230 H 206.657 3.1863 0.717113 0
M  V30 2231 H 205.316 3.38564 -1.40606 0
M  V30 2232 H 204.964 5.00856 0.463976 0
M  V30 2233 H 204.664 5.76844 -1.11912 0
M  V30 2234 H 206.188 6.10096 -0.248 0
M  V30 2235 H 207.602 5.23093 -2.3462 0
M  V30 2236 H 205.999 5.1203 -3.12962 0
M  V30 2237 H 207.069 3.70676 -3.12614 0
M  V30 2238 N 208.412 0.89855 1.29475 0
M  V30 2239 C 209.359 0.373819 2.27753 0
M  V30 2240 C 210.329 -0.543444 1.56958 0
M  V30 2241 O 211.514 -0.468934 1.84948 0
M  V30 2242 C 208.654 -0.393648 3.42848 0
M  V30 2243 C 207.767 0.554379 4.28428 0
M  V30 2244 C 206.902 -0.230026 5.30702 0
M  V30 2245 C 205.941 0.712599 6.07938 0
M  V30 2246 N 205.078 -0.0373283 7.0209 0
M  V30 2247 H 209.918 1.21699 2.72017 0
M  V30 2248 H 207.455 0.611456 1.33789 0
M  V30 2249 H 209.413 -0.85466 4.08352 0
M  V30 2250 H 208.043 -1.20128 2.99615 0
M  V30 2251 H 207.095 1.13391 3.63107 0
M  V30 2252 H 208.407 1.27597 4.82204 0
M  V30 2253 H 207.561 -0.752288 6.02018 0
M  V30 2254 H 206.3 -0.984758 4.77654 0
M  V30 2255 H 205.305 1.24637 5.35486 0
M  V30 2256 H 206.53 1.46664 6.63074 0
M  V30 2257 H 204.476 -0.774348 6.51414 0
M  V30 2258 H 204.393 0.624374 7.53417 0
M  V30 2259 H 205.661 -0.539891 7.77628 0
M  V30 2260 N 209.89 -1.43072 0.660911 0
M  V30 2261 C 211.115 -2.06584 0.183805 0
M  V30 2262 C 211.54 -1.49257 -1.14472 0
M  V30 2263 O 210.898 -0.605528 -1.70889 0
M  V30 2264 C 210.946 -3.60418 0.114434 0
M  V30 2265 O 210.05 -4.01981 -0.921137 0
M  V30 2266 H 209.391 -0.656669 0.0983994 0
M  V30 2267 H 211.921 -1.83447 0.906006 0
M  V30 2268 H 211.931 -4.07946 -0.0663394 0
M  V30 2269 H 210.606 -4.01519 1.08422 0
M  V30 2270 H 209.183 -3.66029 -0.71253 0
M  V30 2271 N 211.368 -0.403325 -1.52352 0
M  V30 2272 C 212.614 0.174605 -2.02047 0
M  V30 2273 C 212.947 1.45282 -1.28867 0
M  V30 2274 O 212.222 1.90483 -0.393257 0
M  V30 2275 C 212.505 0.428238 -3.57545 0
M  V30 2276 C 212.358 -0.866248 -4.4138 0
M  V30 2277 C 213.677 1.21287 -4.23057 0
M  V30 2278 H 210.796 0.0619851 -0.734389 0
M  V30 2279 H 213.438 -0.53565 -1.82293 0
M  V30 2280 H 211.588 1.03327 -3.74507 0
M  V30 2281 H 213.26 -1.50265 -4.3614 0
M  V30 2282 H 211.503 -1.47851 -4.07827 0
M  V30 2283 H 212.174 -0.643249 -5.48239 0
M  V30 2284 H 214.65 0.700703 -4.10158 0
M  V30 2285 H 213.526 1.35909 -5.31808 0
M  V30 2286 H 213.787 2.23193 -3.81625 0
M  V30 2287 N 212.846 1.57033 -0.133567 0
M  V30 2288 C 214.092 1.95976 0.521649 0
M  V30 2289 C 214.425 1.01779 1.65393 0
M  V30 2290 O 213.7 0.0576581 1.94415 0
M  V30 2291 C 213.983 3.44738 1.04057 0
M  V30 2292 C 213.836 4.49711 -0.0892897 0
M  V30 2293 C 215.155 3.95682 1.92675 0
M  V30 2294 H 212.274 0.712579 0.188149 0
M  V30 2295 H 214.916 1.88813 -0.212076 0
M  V30 2296 H 213.066 3.50973 1.66583 0
M  V30 2297 H 214.738 4.55565 -0.725152 0
M  V30 2298 H 212.981 4.27261 -0.750378 0
M  V30 2299 H 213.652 5.51099 0.315284 0
M  V30 2300 H 216.128 3.91841 1.39998 0
M  V30 2301 H 215.004 5.00262 2.25897 0
M  V30 2302 H 215.265 3.37239 2.85872 0
M  V30 2303 N 214.325 -0.140222 1.56975 0
M  V30 2304 C 215.288 -1.15689 1.97861 0
M  V30 2305 C 216.288 -1.3549 0.865974 0
M  V30 2306 O 217.478 -1.32367 1.13246 0
M  V30 2307 C 214.61 -2.51582 2.30042 0
M  V30 2308 H 215.803 -0.805971 2.88867 0
M  V30 2309 H 213.356 -0.383801 1.51515 0
M  V30 2310 H 214.091 -2.91632 1.41849 0
M  V30 2311 H 213.876 -2.38569 3.11171 0
M  V30 2312 H 215.366 -3.24792 2.62488 0
M  V30 2313 N 215.803 -1.52179 -0.40978 0
M  V30 2314 C 216.75 -1.75475 -1.49924 0
M  V30 2315 C 217.72 -0.597175 -1.54994 0
M  V30 2316 O 218.905 -0.834655 -1.71575 0
M  V30 2317 C 216.045 -1.9107 -2.87378 0
M  V30 2318 C 215.158 -3.18717 -2.91622 0
M  V30 2319 C 214.293 -3.24747 -4.20372 0
M  V30 2320 C 213.332 -4.46598 -4.18588 0
M  V30 2321 N 212.469 -4.50025 -5.38908 0
M  V30 2322 H 217.309 -2.68458 -1.29361 0
M  V30 2323 H 214.846 -1.33024 -0.627934 0
M  V30 2324 H 216.804 -1.98096 -3.6717 0
M  V30 2325 H 215.434 -1.01469 -3.06437 0
M  V30 2326 H 214.486 -3.20866 -2.04326 0
M  V30 2327 H 215.798 -4.08544 -2.86169 0
M  V30 2328 H 214.952 -3.30841 -5.08556 0
M  V30 2329 H 213.691 -2.32857 -4.28519 0
M  V30 2330 H 212.696 -4.40652 -3.28794 0
M  V30 2331 H 213.921 -5.39783 -4.12081 0
M  V30 2332 H 211.867 -3.61017 -5.47725 0
M  V30 2333 H 211.784 -5.33697 -5.35447 0
M  V30 2334 H 213.052 -4.60347 -6.29048 0
M  V30 2335 N 217.281 0.66697 -1.42791 0
M  V30 2336 C 218.528 1.42699 -1.43678 0
M  V30 2337 C 218.856 1.94419 -0.0560425 0
M  V30 2338 O 218.111 1.7182 0.936831 0
M  V30 2339 C 218.41 2.6349 -2.4147 0
M  V30 2340 C 218.076 2.30267 -3.8767 0
M  V30 2341 C 216.738 2.20918 -4.27491 0
M  V30 2342 C 219.09 2.03435 -4.79858 0
M  V30 2343 C 216.418 1.82873 -5.57471 0
M  V30 2344 C 218.77 1.66892 -6.10188 0
M  V30 2345 C 217.434 1.56058 -6.49001 0
M  V30 2346 H 216.704 0.522171 -0.525755 0
M  V30 2347 H 219.351 0.759785 -1.75783 0
M  V30 2348 H 217.656 3.35279 -2.0272 0
M  V30 2349 H 219.353 3.21684 -2.39417 0
M  V30 2350 H 215.943 2.38449 -3.56146 0
M  V30 2351 H 220.127 2.09586 -4.49875 0
M  V30 2352 H 215.383 1.7306 -5.86396 0
M  V30 2353 H 219.557 1.45157 -6.81104 0
M  V30 2354 H 217.184 1.26348 -7.49627 0
M  V30 2355 N 218.759 1.29093 0.90403 0
M  V30 2356 C 219.707 1.13727 2.02901 0
M  V30 2357 C 220.701 0.0539853 1.69314 0
M  V30 2358 O 221.907 0.213469 1.7873 0
M  V30 2359 H 218.282 0.35117 0.664969 0
M  V30 2360 H 220.253 2.08982 2.13001 0
M  V30 2361 C 219.002 0.826066 3.37745 0
M  V30 2362 H 218.325 1.65164 3.64089 0
M  V30 2363 H 219.765 0.758559 4.17159 0
M  V30 2364 C 218.224 -0.470541 3.33598 0
M  V30 2365 O 218.754 -1.49792 3.72727 0
M  V30 2366 N 216.96 -0.474812 2.86695 0
M  V30 2367 H 216.507 0.361692 2.55048 0
M  V30 2368 H 216.465 -1.34236 2.84303 0
M  V30 2369 N 220.237 -1.11381 1.11499 0
M  V30 2370 C 221.2 -2.15622 0.777153 0
M  V30 2371 C 222.2 -1.59504 -0.203779 0
M  V30 2372 O 223.39 -1.74188 0.020782 0
M  V30 2373 C 220.522 -3.40556 0.153116 0
M  V30 2374 H 221.715 -2.47021 1.70061 0
M  V30 2375 H 219.268 -1.26577 0.916952 0
M  V30 2376 H 220.003 -3.14767 -0.780536 0
M  V30 2377 H 219.788 -3.8257 0.859238 0
M  V30 2378 H 221.278 -4.17546 -0.0671044 0
M  V30 2379 N 221.715 -0.905404 -1.28997 0
M  V30 2380 C 222.94 -0.549175 -1.99997 0
M  V30 2381 C 223.365 0.860276 -1.67275 0
M  V30 2382 O 222.723 1.57355 -0.900502 0
M  V30 2383 C 222.771 -0.755185 -3.52604 0
M  V30 2384 O 221.875 0.189692 -4.11964 0
M  V30 2385 H 221.216 -0.213899 -0.628604 0
M  V30 2386 H 223.746 -1.21856 -1.64354 0
M  V30 2387 H 223.756 -0.662045 -4.02593 0
M  V30 2388 H 222.431 -1.78271 -3.75755 0
M  V30 2389 H 221.008 0.0485257 -3.72868 0
M  V30 2390 N 223.193 1.4272 -0.668489 0
M  V30 2391 C 224.125 2.2914 0.052613 0
M  V30 2392 C 225.138 1.43339 0.771857 0
M  V30 2393 O 226.327 1.67123 0.627067 0
M  V30 2394 C 223.427 3.20618 1.09804 0
M  V30 2395 C 222.6 4.35039 0.45389 0
M  V30 2396 C 221.659 5.07282 1.39825 0
M  V30 2397 O 220.685 5.62024 0.900978 0
M  V30 2398 N 221.887 5.12206 2.73176 0
M  V30 2399 H 224.652 2.91668 -0.689209 0
M  V30 2400 H 222.213 1.53577 -0.512422 0
M  V30 2401 H 224.205 3.65815 1.73094 0
M  V30 2402 H 222.775 2.59585 1.74167 0
M  V30 2403 H 221.995 3.92567 -0.358396 0
M  V30 2404 H 223.283 5.088 0.00486972 0
M  V30 2405 H 222.681 4.6913 3.16122 0
M  V30 2406 H 221.238 5.61069 3.31729 0
M  V30 2407 N 224.671 0.411399 1.52136 0
M  V30 2408 C 225.601 -0.404015 2.29978 0
M  V30 2409 C 226.582 -1.04412 1.34284 0
M  V30 2410 O 227.767 -1.0527 1.63192 0
M  V30 2411 C 224.897 -1.5197 3.12286 0
M  V30 2412 C 223.851 -1.00448 4.16046 0
M  V30 2413 C 223.177 -2.21393 4.86712 0
M  V30 2414 C 224.477 -0.0569336 5.22269 0
M  V30 2415 H 226.171 0.245529 2.98392 0
M  V30 2416 H 223.717 0.119525 1.43503 0
M  V30 2417 H 225.67 -2.09715 3.6551 0
M  V30 2418 H 224.394 -2.19716 2.41646 0
M  V30 2419 H 223.053 -0.449421 3.63835 0
M  V30 2420 H 222.701 -2.87699 4.12599 0
M  V30 2421 H 222.401 -1.87571 5.56858 0
M  V30 2422 H 223.925 -2.7974 5.4275 0
M  V30 2423 H 225.339 -0.54325 5.7072 0
M  V30 2424 H 223.736 0.192594 5.99791 0
M  V30 2425 H 224.806 0.887663 4.76706 0
M  V30 2426 N 226.149 -1.5696 0.141893 0
M  V30 2427 C 227.398 -1.95135 -0.510427 0
M  V30 2428 C 227.711 -1.02896 -1.66348 0
M  V30 2429 O 228.917 -1.30629 -2.38009 0
M  V30 2430 C 227.373 -3.46876 -0.959427 0
M  V30 2431 C 226.981 -4.47691 0.166419 0
M  V30 2432 C 228.725 -3.93927 -1.58183 0
M  V30 2433 C 226.632 -5.90636 -0.300565 0
M  V30 2434 H 225.562 -0.728494 -0.194454 0
M  V30 2435 H 228.213 -1.8211 0.22542 0
M  V30 2436 H 226.595 -3.55215 -1.75038 0
M  V30 2437 H 227.769 -4.51043 0.94325 0
M  V30 2438 H 226.084 -4.10527 0.696905 0
M  V30 2439 H 228.681 -4.98158 -1.94275 0
M  V30 2440 H 229.024 -3.3519 -2.46888 0
M  V30 2441 H 229.557 -3.88484 -0.855863 0
M  V30 2442 H 226.296 -6.5318 0.550989 0
M  V30 2443 H 225.816 -5.90655 -1.04338 0
M  V30 2444 H 227.495 -6.42588 -0.754265 0
M  V30 2445 N 227.627 0.131896 -1.57047 0
M  V30 2446 C 228.855 0.856461 -1.88341 0
M  V30 2447 C 229.27 1.74042 -0.731757 0
M  V30 2448 O 228.627 1.80051 0.297945 0
M  V30 2449 C 228.678 1.70064 -3.18999 0
M  V30 2450 O 228.399 0.852278 -4.2973 0
M  V30 2451 C 229.9 2.53148 -3.63911 0
M  V30 2452 H 227.12 0.246885 -0.62393 0
M  V30 2453 H 229.664 0.120152 -2.04147 0
M  V30 2454 H 227.819 2.38984 -3.04902 0
M  V30 2455 H 228.233 1.43329 -5.04537 0
M  V30 2456 H 229.707 3.07931 -4.58129 0
M  V30 2457 H 230.184 3.29901 -2.89935 0
M  V30 2458 H 230.79 1.89492 -3.80753 0
M  V30 2459 N 229.106 1.52395 0.401703 0
M  V30 2460 C 230.038 1.72505 1.50912 0
M  V30 2461 C 231.051 0.605468 1.51122 0
M  V30 2462 O 232.24 0.880828 1.55254 0
M  V30 2463 C 229.34 1.75711 2.89791 0
M  V30 2464 C 228.513 3.04824 3.1369 0
M  V30 2465 C 227.572 2.99743 4.32482 0
M  V30 2466 O 226.598 3.73635 4.29402 0
M  V30 2467 N 227.8 2.18047 5.37992 0
M  V30 2468 H 230.565 2.68049 1.34052 0
M  V30 2469 H 228.126 1.50724 0.591084 0
M  V30 2470 H 230.118 1.69834 3.6734 0
M  V30 2471 H 228.688 0.876092 3.00072 0
M  V30 2472 H 227.908 3.2429 2.24119 0
M  V30 2473 H 229.196 3.90221 3.26504 0
M  V30 2474 H 228.594 1.57456 5.43345 0
M  V30 2475 H 227.151 2.18021 6.14256 0
M  V30 2476 N 230.584 -0.659388 1.43143 0
M  V30 2477 C 232 -0.974337 1.26407 0
M  V30 2478 C 232.2 -2.007 0.179341 0
M  V30 2479 O 231.256 -2.4856 -0.444295 0
M  V30 2480 C 232.569 -1.46447 2.62628 0
M  V30 2481 C 234.117 -1.58144 2.7011 0
M  V30 2482 C 234.592 -2.1055 4.06734 0
M  V30 2483 N 236.083 -2.17861 4.08767 0
M  V30 2484 C 236.818 -2.59519 5.1131 0
M  V30 2485 N 236.314 -3.00518 6.24228 0
M  V30 2486 N 238.107 -2.59404 4.98664 0
M  V30 2487 H 230.258 0.0240528 2.12386 0
M  V30 2488 H 232.521 -0.0518065 0.946583 0
M  V30 2489 H 232.227 -0.780123 3.42939 0
M  V30 2490 H 232.101 -2.44058 2.87603 0
M  V30 2491 H 234.488 -2.25682 1.90136 0
M  V30 2492 H 234.569 -0.589828 2.48907 0
M  V30 2493 H 234.213 -1.43616 4.87172 0
M  V30 2494 H 234.143 -3.10531 4.25298 0
M  V30 2495 H 236.634 -1.88975 3.27257 0
M  V30 2496 H 236.947 -3.31036 6.98309 0
M  V30 2497 H 235.292 -2.98337 6.2771 0
M  V30 2498 H 238.483 -2.26747 4.09516 0
M  V30 2499 H 238.656 -2.91548 5.78709 0
M  V30 2500 N 232.062 -1.29571 -0.897171 0
M  V30 2501 C 233.025 -1.14913 -1.98312 0
M  V30 2502 C 234.025 -0.0838629 -1.60581 0
M  V30 2503 O 235.215 -0.331006 -1.71026 0
M  V30 2504 C 232.347 -0.757835 -3.3237 0
M  V30 2505 H 233.54 -2.11377 -2.12743 0
M  V30 2506 H 231.093 -1.12793 -1.08201 0
M  V30 2507 H 231.828 0.206837 -3.2364 0
M  V30 2508 H 231.613 -1.52755 -3.61121 0
M  V30 2509 H 233.103 -0.678408 -4.12053 0
M  V30 2510 N 233.54 1.10788 -1.12088 0
M  V30 2511 C 234.472 2.16816 -0.743213 0
M  V30 2512 C 235.485 1.6119 0.228412 0
M  V30 2513 O 236.674 1.78497 0.0102931 0
M  V30 2514 C 233.774 3.38809 -0.0787313 0
M  V30 2515 C 232.947 4.23885 -1.0789 0
M  V30 2516 C 232.006 5.24334 -0.442713 0
M  V30 2517 O 231.032 5.58497 -1.09864 0
M  V30 2518 N 232.234 5.75079 0.791457 0
M  V30 2519 H 234.999 2.49825 -1.65552 0
M  V30 2520 H 232.56 1.26373 -1.012 0
M  V30 2521 H 234.552 4.03107 0.358766 0
M  V30 2522 H 233.122 3.03805 0.736275 0
M  V30 2523 H 232.342 3.55939 -1.69414 0
M  V30 2524 H 233.63 4.77562 -1.75533 0
M  V30 2525 H 233.028 5.49517 1.3434 0
M  V30 2526 H 231.585 6.4118 1.17183 0
M  V30 2527 N 235.018 0.912232 1.28515 0
M  V30 2528 C 236.264 0.545405 1.95328 0
M  V30 2529 C 236.597 -0.908313 1.71649 0
M  V30 2530 O 235.872 -1.64575 1.03659 0
M  V30 2531 C 236.155 0.853483 3.4984 0
M  V30 2532 C 236.008 2.35982 3.82926 0
M  V30 2533 C 237.327 0.348589 4.38717 0
M  V30 2534 H 234.446 0.199626 0.709449 0
M  V30 2535 H 237.088 1.1412 1.5191 0
M  V30 2536 H 235.238 0.34643 3.86952 0
M  V30 2537 H 236.91 2.93738 3.55691 0
M  V30 2538 H 235.153 2.81543 3.30024 0
M  V30 2539 H 235.824 2.52593 4.90816 0
M  V30 2540 H 238.3 0.78294 4.08668 0
M  V30 2541 H 237.176 0.593242 5.45685 0
M  V30 2542 H 237.437 -0.751049 4.35674 0
M  V30 2543 N 236.496 -1.42363 0.676048 0
M  V30 2544 C 237.721 -2.06377 0.205705 0
M  V30 2545 C 238.146 -1.50463 -1.12883 0
M  V30 2546 O 237.504 -0.623619 -1.70237 0
M  V30 2547 C 237.552 -3.60277 0.152655 0
M  V30 2548 O 236.656 -4.02935 -0.87845 0
M  V30 2549 H 235.997 -0.655588 0.105359 0
M  V30 2550 H 238.527 -1.82475 0.925412 0
M  V30 2551 H 238.537 -4.07993 -0.0230675 0
M  V30 2552 H 237.212 -4.00346 1.12675 0
M  V30 2553 H 235.789 -3.66764 -0.673668 0
M  V30 2554 N 237.974 -0.419461 -1.51915 0
M  V30 2555 C 238.904 0.391813 -2.30189 0
M  V30 2556 C 239.885 1.03699 -1.34836 0
M  V30 2557 O 241.07 1.04403 -1.63748 0
M  V30 2558 C 238.2 1.50312 -3.13087 0
M  V30 2559 C 237.154 0.9824 -4.16573 0
M  V30 2560 C 236.48 2.18809 -4.8788 0
M  V30 2561 C 237.78 0.0292356 -5.22292 0
M  V30 2562 H 239.474 -0.26135 -2.98257 0
M  V30 2563 H 237.02 -0.127134 -1.43438 0
M  V30 2564 H 238.973 2.07773 -3.66617 0
M  V30 2565 H 237.697 2.18431 -2.42807 0
M  V30 2566 H 236.356 0.430119 -3.64068 0
M  V30 2567 H 236.004 2.85507 -4.14119 0
M  V30 2568 H 235.704 1.84615 -5.57845 0
M  V30 2569 H 237.228 2.76858 -5.44226 0
M  V30 2570 H 238.642 0.512976 -5.71 0
M  V30 2571 H 237.039 -0.2244 -5.9968 0
M  V30 2572 H 238.109 -0.912931 -4.76228 0
M  V30 2573 N 239.452 1.56882 -0.150215 0
M  V30 2574 C 240.382 2.19935 0.784284 0
M  V30 2575 C 241.363 1.14854 1.25469 0
M  V30 2576 O 242.548 1.43209 1.31168 0
M  V30 2577 C 239.678 2.82349 2.02229 0
M  V30 2578 C 238.632 3.93285 1.68853 0
M  V30 2579 C 237.958 4.42649 2.99944 0
M  V30 2580 C 239.258 5.13904 0.932714 0
M  V30 2581 H 240.952 2.9828 0.258781 0
M  V30 2582 H 238.498 1.43473 0.123029 0
M  V30 2583 H 240.451 3.25126 2.68088 0
M  V30 2584 H 239.175 2.0134 2.57157 0
M  V30 2585 H 237.834 3.5113 1.05371 0
M  V30 2586 H 237.482 3.58458 3.52869 0
M  V30 2587 H 237.182 5.17476 2.78374 0
M  V30 2588 H 238.706 4.88099 3.66868 0
M  V30 2589 H 240.12 5.53506 1.49345 0
M  V30 2590 H 238.517 5.94515 0.81684 0
M  V30 2591 H 239.587 4.84842 -0.0749568 0
M  V30 2592 N 240.93 -0.123565 1.57115 0
M  V30 2593 C 242.179 -0.830704 1.83799 0
M  V30 2594 C 242.492 -1.81259 0.735158 0
M  V30 2595 O 243.698 -2.56558 0.888278 0
M  V30 2596 C 242.154 -1.52802 3.25852 0
M  V30 2597 C 241.762 -0.587356 4.44133 0
M  V30 2598 C 243.506 -2.22056 3.61789 0
M  V30 2599 C 241.413 -1.28764 5.77212 0
M  V30 2600 H 240.343 -0.313967 0.685522 0
M  V30 2601 H 242.994 -0.0834359 1.8331 0
M  V30 2602 H 241.376 -2.32175 3.20797 0
M  V30 2603 H 242.55 0.172829 4.60476 0
M  V30 2604 H 240.865 -0.00201892 4.164 0
M  V30 2605 H 243.462 -2.75131 4.58483 0
M  V30 2606 H 243.805 -2.99644 2.88997 0
M  V30 2607 H 244.338 -1.49576 3.68608 0
M  V30 2608 H 241.077 -0.55314 6.53162 0
M  V30 2609 H 240.597 -2.01995 5.64764 0
M  V30 2610 H 242.276 -1.8221 6.20813 0
M  V30 2611 N 242.408 -1.52605 -0.393616 0
M  V30 2612 C 243.824 -1.41753 -0.733357 0
M  V30 2613 C 244.024 -0.534293 -1.94287 0
M  V30 2614 O 243.08 -0.0059787 -2.52499 0
M  V30 2615 C 244.393 -2.84531 -0.972772 0
M  V30 2616 C 245.941 -2.93978 -1.07453 0
M  V30 2617 C 246.416 -4.37756 -1.3466 0
M  V30 2618 N 247.907 -4.4106 -1.41492 0
M  V30 2619 C 248.642 -5.49387 -1.642 0
M  V30 2620 N 248.138 -6.67806 -1.8441 0
M  V30 2621 N 249.931 -5.36923 -1.66342 0
M  V30 2622 H 242.082 -2.08555 0.402328 0
M  V30 2623 H 244.345 -0.940654 0.117789 0
M  V30 2624 H 244.051 -3.51353 -0.156204 0
M  V30 2625 H 243.925 -3.26508 -1.88871 0
M  V30 2626 H 246.312 -2.27326 -1.88167 0
M  V30 2627 H 246.393 -2.55435 -0.136605 0
M  V30 2628 H 246.037 -5.04972 -0.544581 0
M  V30 2629 H 245.967 -4.73848 -2.2973 0
M  V30 2630 H 248.458 -3.55705 -1.27601 0
M  V30 2631 H 248.771 -7.46141 -2.01231 0
M  V30 2632 H 247.116 -6.70843 -1.81644 0
M  V30 2633 H 250.307 -4.43381 -1.50102 0
M  V30 2634 H 250.48 -6.21416 -1.837 0
M  V30 2635 N 243.887 0.651787 -1.4349 0
M  V30 2636 C 245.303 0.96762 -1.26922 0
M  V30 2637 C 245.503 2.00602 -0.189982 0
M  V30 2638 O 244.559 2.48793 0.431107 0
M  V30 2639 C 245.872 1.45052 -2.63401 0
M  V30 2640 C 247.42 1.5671 -2.70945 0
M  V30 2641 C 247.895 2.0839 -4.07845 0
M  V30 2642 N 249.386 2.1569 -4.09917 0
M  V30 2643 C 250.121 2.56804 -5.12679 0
M  V30 2644 N 249.617 2.97203 -6.25813 0
M  V30 2645 N 251.41 2.56756 -5.00033 0
M  V30 2646 H 243.561 -0.0353158 -2.12371 0
M  V30 2647 H 245.824 0.0467858 -0.946845 0
M  V30 2648 H 245.53 0.761926 -3.43348 0
M  V30 2649 H 245.404 2.42529 -2.88894 0
M  V30 2650 H 247.791 2.2467 -1.9133 0
M  V30 2651 H 247.872 0.57662 -2.49216 0
M  V30 2652 H 247.516 1.41031 -4.87927 0
M  V30 2653 H 247.446 3.08271 -4.26938 0
M  V30 2654 H 249.937 1.87237 -3.28254 0
M  V30 2655 H 250.25 3.27328 -7.00055 0
M  V30 2656 H 248.595 2.95004 -6.29283 0
M  V30 2657 H 251.786 2.24572 -4.10713 0
M  V30 2658 H 251.959 2.88475 -5.80247 0
M  V30 2659 N 245.365 1.30045 0.890287 0
M  V30 2660 C 246.275 1.17885 2.02831 0
M  V30 2661 C 247.291 0.0999609 1.73713 0
M  V30 2662 O 248.467 0.313867 1.98939 0
M  V30 2663 C 245.532 0.866079 3.35708 0
M  V30 2664 C 244.593 2.02979 3.78283 0
M  V30 2665 C 243.826 1.73184 5.0482 0
M  V30 2666 O 244.049 0.657237 5.66601 0
M  V30 2667 O 242.983 2.58267 5.43674 0
M  V30 2668 H 246.809 2.13474 2.16015 0
M  V30 2669 H 244.394 1.09587 1.01543 0
M  V30 2670 H 246.276 0.706623 4.15433 0
M  V30 2671 H 244.951 -0.0599443 3.23644 0
M  V30 2672 H 243.858 2.24454 2.99285 0
M  V30 2673 H 245.191 2.93734 3.94944 0
M  V30 2674 N 246.843 -1.10192 1.12674 0
M  V30 2675 C 247.773 -2.18652 0.819362 0
M  V30 2676 C 248.754 -1.68698 -0.217915 0
M  V30 2677 O 249.939 -1.94041 -0.0785581 0
M  V30 2678 C 247.069 -3.46202 0.27594 0
M  V30 2679 C 246.023 -4.09444 1.24656 0
M  V30 2680 C 245.349 -5.31725 0.563258 0
M  V30 2681 C 246.649 -4.52863 2.60217 0
M  V30 2682 H 248.343 -2.44622 1.72628 0
M  V30 2683 H 245.889 -1.17571 0.831451 0
M  V30 2684 H 247.842 -4.21372 0.0486149 0
M  V30 2685 H 246.566 -3.1973 -0.666331 0
M  V30 2686 H 245.225 -3.36284 1.45974 0
M  V30 2687 H 244.873 -5.0153 -0.384235 0
M  V30 2688 H 244.573 -5.74991 1.21075 0
M  V30 2689 H 246.097 -6.09624 0.34503 0
M  V30 2690 H 247.511 -5.19294 2.42913 0
M  V30 2691 H 245.908 -5.06986 3.21068 0
M  V30 2692 H 246.978 -3.65656 3.18471 0
M  V30 2693 N 248.321 -0.919034 -1.28029 0
M  V30 2694 C 249.549 -0.570971 -1.98866 0
M  V30 2695 C 249.964 0.848996 -1.68634 0
M  V30 2696 O 249.321 1.56307 -0.942036 0
M  V30 2697 C 249.372 -0.776876 -3.53054 0
M  V30 2698 O 249.093 -2.14097 -3.82222 0
M  V30 2699 C 250.594 -0.436356 -4.41147 0
M  V30 2700 H 247.814 -0.217175 -0.634883 0
M  V30 2701 H 250.358 -1.23368 -1.63097 0
M  V30 2702 H 248.513 -0.161085 -3.87065 0
M  V30 2703 H 248.927 -2.18455 -4.76841 0
M  V30 2704 H 250.401 -0.63117 -5.4838 0
M  V30 2705 H 250.878 0.627686 -4.34692 0
M  V30 2706 H 251.484 -1.02991 -4.12641 0
M  V30 2707 N 249.799 1.42003 -0.683588 0
M  V30 2708 C 250.709 2.34597 -0.0109075 0
M  V30 2709 C 251.725 1.55576 0.779245 0
M  V30 2710 O 252.901 1.88107 0.719555 0
M  V30 2711 C 249.966 3.34199 0.922588 0
M  V30 2712 C 249.027 4.29115 0.125984 0
M  V30 2713 C 248.26 5.23959 1.01502 0
M  V30 2714 O 248.483 5.23952 2.25456 0
M  V30 2715 O 247.417 6.00053 0.47111 0
M  V30 2716 H 251.243 2.93675 -0.773853 0
M  V30 2717 H 248.828 1.42654 -0.443861 0
M  V30 2718 H 250.71 3.95365 1.45823 0
M  V30 2719 H 249.385 2.77582 1.66523 0
M  V30 2720 H 248.292 3.71335 -0.453969 0
M  V30 2721 H 249.625 4.88798 -0.577736 0
M  V30 2722 N 251.277 0.427512 1.51691 0
M  V30 2723 C 252.693 0.0792977 1.59403 0
M  V30 2724 C 252.893 -1.41035 1.43914 0
M  V30 2725 O 251.949 -2.17922 1.27539 0
M  V30 2726 C 253.262 0.590636 2.94842 0
M  V30 2727 C 254.81 0.550215 3.08126 0
M  V30 2728 C 255.285 1.03836 4.46074 0
M  V30 2729 N 256.776 0.995943 4.52366 0
M  V30 2730 C 257.511 1.34463 5.57411 0
M  V30 2731 N 257.007 1.76569 6.69922 0
M  V30 2732 N 258.8 1.26343 5.47717 0
M  V30 2733 H 250.951 1.39687 1.60004 0
M  V30 2734 H 253.214 0.575003 0.753708 0
M  V30 2735 H 252.92 1.63251 3.11516 0
M  V30 2736 H 252.794 0.0102061 3.77199 0
M  V30 2737 H 255.181 -0.482654 2.91126 0
M  V30 2738 H 255.262 1.16693 2.27632 0
M  V30 2739 H 254.906 2.06965 4.63819 0
M  V30 2740 H 254.836 0.398286 5.25092 0
M  V30 2741 H 257.327 0.68661 3.7161 0
M  V30 2742 H 257.64 2.01438 7.46085 0
M  V30 2743 H 255.985 1.80488 6.71155 0
M  V30 2744 H 259.176 0.933209 4.58703 0
M  V30 2745 H 259.349 1.53846 6.29472 0
M  V30 2746 N 252.755 -1.56801 0.158532 0
M  V30 2747 C 253.718 -2.16138 -0.762705 0
M  V30 2748 C 254.718 -1.1061 -1.16713 0
M  V30 2749 O 255.908 -1.36191 -1.08617 0
M  V30 2750 C 253.04 -2.73386 -2.03649 0
M  V30 2751 H 254.233 -2.98886 -0.246354 0
M  V30 2752 H 251.786 -1.56035 -0.0909744 0
M  V30 2753 H 252.521 -1.94335 -2.59623 0
M  V30 2754 H 252.306 -3.50601 -1.75559 0
M  V30 2755 H 253.796 -3.19065 -2.6942 0
M  V30 2756 N 254.233 0.115231 -1.57178 0
M  V30 2757 C 255.18 1.14115 -2.00615 0
M  V30 2758 C 256.15 1.40939 -0.878941 0
M  V30 2759 O 257.335 1.52741 -1.14345 0
M  V30 2760 C 254.475 2.46156 -2.4187 0
M  V30 2761 C 253.588 2.26236 -3.68024 0
M  V30 2762 C 252.723 3.51534 -3.98243 0
M  V30 2763 C 251.762 3.26787 -5.17568 0
M  V30 2764 N 250.899 4.44298 -5.43639 0
M  V30 2765 H 255.739 0.763743 -2.88047 0
M  V30 2766 H 253.276 0.365615 -1.42484 0
M  V30 2767 H 255.234 3.23189 -2.63827 0
M  V30 2768 H 253.864 2.81783 -1.57475 0
M  V30 2769 H 252.916 1.40102 -3.5366 0
M  V30 2770 H 254.228 2.03929 -4.55208 0
M  V30 2771 H 253.382 4.36984 -4.20868 0
M  V30 2772 H 252.121 3.76876 -3.09541 0
M  V30 2773 H 251.126 2.39729 -4.94783 0
M  V30 2774 H 252.351 3.02812 -6.0785 0
M  V30 2775 H 250.297 4.69754 -4.57895 0
M  V30 2776 H 250.214 4.25109 -6.25154 0
M  V30 2777 H 251.482 5.3087 -5.70786 0
M  V30 2778 N 255.711 1.52812 0.385517 0
M  V30 2779 C 256.988 1.5861 1.14465 0
M  V30 2780 C 257.368 0.381402 2.07626 0
M  V30 2781 O 256.716 -0.629999 2.19643 0
M  V30 2782 C 256.926 2.92664 1.90128 0
M  V30 2783 C 258.274 3.46526 2.45367 0
M  V30 2784 O 259.298 2.94562 2.0028 0
M  V30 2785 O 258.157 4.37323 3.27736 0
M  V30 2786 H 255.251 0.639855 0.523941 0
M  V30 2787 H 257.797 1.65149 0.390389 0
M  V30 2788 H 256.569 3.71788 1.22022 0
M  V30 2789 H 256.192 2.89527 2.72507 0
M  V30 2790 N 257.189 -0.644168 1.43834 0
M  V30 2791 C 258.436 -1.40395 1.4593 0
M  V30 2792 C 258.764 -1.94305 0.0869658 0
M  V30 2793 O 258.019 -1.73288 -0.909378 0
M  V30 2794 C 258.318 -2.59615 2.45631 0
M  V30 2795 C 257.984 -2.2407 3.91284 0
M  V30 2796 C 256.646 -2.14089 4.30952 0
M  V30 2797 C 258.998 -1.95775 4.83034 0
M  V30 2798 C 256.326 -1.73981 5.6031 0
M  V30 2799 C 258.678 -1.57163 6.12766 0
M  V30 2800 C 257.342 -1.45713 6.51402 0
M  V30 2801 H 256.612 -0.513741 0.533995 0
M  V30 2802 H 259.259 -0.731724 1.76969 0
M  V30 2803 H 257.564 -3.32011 2.08028 0
M  V30 2804 H 259.261 -3.17834 2.44504 0
M  V30 2805 H 255.851 -2.32753 3.59895 0
M  V30 2806 H 260.035 -2.02403 4.53152 0
M  V30 2807 H 255.291 -1.63709 5.89075 0
M  V30 2808 H 259.465 -1.34303 6.83327 0
M  V30 2809 H 257.092 -1.14406 7.51542 0
M  V30 2810 N 258.668 -1.30515 -0.883378 0
M  V30 2811 C 259.893 -1.22487 -1.67367 0
M  V30 2812 C 260.318 0.208767 -1.86938 0
M  V30 2813 O 259.676 1.15015 -1.40148 0
M  V30 2814 C 259.724 -1.96041 -3.02655 0
M  V30 2815 O 258.828 -1.28859 -3.91751 0
M  V30 2816 H 258.169 -0.423573 -0.511353 0
M  V30 2817 H 260.699 -1.72362 -1.10239 0
M  V30 2818 H 260.709 -2.05124 -3.52687 0
M  V30 2819 H 259.384 -3.00307 -2.8773 0
M  V30 2820 H 257.961 -1.28141 -3.50192 0
M  V30 2821 N 260.146 1.09593 -1.13257 0
M  V30 2822 C 261.076 2.18214 -0.830946 0
M  V30 2823 C 262.057 1.68812 0.208966 0
M  V30 2824 O 263.242 1.9408 0.0682666 0
M  V30 2825 C 260.372 3.46051 -0.294296 0
M  V30 2826 C 259.326 4.08778 -1.26826 0
M  V30 2827 C 258.652 5.31419 -0.591449 0
M  V30 2828 C 259.952 4.51476 -2.62615 0
M  V30 2829 H 261.646 2.43703 -1.73923 0
M  V30 2830 H 259.192 1.17128 -0.837675 0
M  V30 2831 H 261.145 4.2134 -0.0709606 0
M  V30 2832 H 259.869 3.20079 0.649366 0
M  V30 2833 H 258.528 3.35505 -1.47756 0
M  V30 2834 H 258.176 5.01727 0.357633 0
M  V30 2835 H 257.876 5.74341 -1.24123 0
M  V30 2836 H 259.4 6.09433 -0.377355 0
M  V30 2837 H 260.814 5.17999 -2.45663 0
M  V30 2838 H 259.211 5.05277 -3.23752 0
M  V30 2839 H 260.281 3.63962 -3.20406 0
M  V30 2840 N 261.624 0.925811 1.2754 0
M  V30 2841 C 262.873 0.561084 1.93739 0
M  V30 2842 C 263.186 -0.901685 1.73577 0
M  V30 2843 O 264.392 -1.37511 2.34101 0
M  V30 2844 C 262.848 0.952668 3.47062 0
M  V30 2845 C 262.456 2.43599 3.75983 0
M  V30 2846 C 264.2 0.659103 4.19352 0
M  V30 2847 C 262.107 2.76707 5.22673 0
M  V30 2848 H 261.037 0.206122 0.725279 0
M  V30 2849 H 263.688 1.12637 1.44863 0
M  V30 2850 H 262.07 0.316053 3.94737 0
M  V30 2851 H 263.244 3.12035 3.39073 0
M  V30 2852 H 261.559 2.70125 3.16893 0
M  V30 2853 H 264.156 0.882985 5.27359 0
M  V30 2854 H 264.499 -0.403607 4.14339 0
M  V30 2855 H 265.032 1.25473 3.77494 0
M  V30 2856 H 261.771 3.8188 5.32774 0
M  V30 2857 H 261.291 2.12919 5.60737 0
M  V30 2858 H 262.97 2.6435 5.90532 0
M  V30 2859 N 263.102 -1.41638 0.69111 0
M  V30 2860 C 264.032 -2.3347 0.037248 0
M  V30 2861 C 265.013 -1.51575 -0.771947 0
M  V30 2862 O 266.198 -1.80126 -0.72582 0
M  V30 2863 C 263.328 -3.35354 -0.903064 0
M  V30 2864 C 262.282 -4.27526 -0.201288 0
M  V30 2865 C 261.608 -5.19747 -1.25565 0
M  V30 2866 C 262.908 -5.13959 0.929689 0
M  V30 2867 H 264.602 -2.88397 0.804227 0
M  V30 2868 H 262.148 -1.38669 0.388189 0
M  V30 2869 H 264.101 -3.98519 -1.36969 0
M  V30 2870 H 262.825 -2.78767 -1.70166 0
M  V30 2871 H 261.484 -3.65779 0.245265 0
M  V30 2872 H 261.132 -4.59479 -2.04666 0
M  V30 2873 H 260.832 -5.8225 -0.791128 0
M  V30 2874 H 262.356 -5.85789 -1.72288 0
M  V30 2875 H 263.77 -5.70718 0.543546 0
M  V30 2876 H 262.167 -5.85379 1.32103 0
M  V30 2877 H 263.237 -4.51389 1.77133 0
M  V30 2878 N 264.58 -0.43555 -1.51462 0
M  V30 2879 C 265.857 0.191364 -1.94662 0
M  V30 2880 C 266.237 1.60254 -1.37411 0
M  V30 2881 O 265.585 2.2152 -0.560458 0
M  V30 2882 C 265.795 0.17091 -3.48581 0
M  V30 2883 C 267.143 0.377357 -4.2292 0
M  V30 2884 O 268.167 0.249104 -3.55328 0
M  V30 2885 O 267.026 0.63247 -5.42828 0
M  V30 2886 H 264.12 0.130932 -0.816569 0
M  V30 2887 H 266.666 -0.4934 -1.62369 0
M  V30 2888 H 265.438 -0.815738 -3.82703 0
M  V30 2889 H 265.061 0.898659 -3.87311 0
M  V30 2890 N 266.058 1.56714 -0.166846 0
M  V30 2891 C 267.335 1.88412 0.525373 0
M  V30 2892 C 267.715 1.07602 1.81618 0
M  V30 2893 O 267.063 0.168621 2.27877 0
M  V30 2894 C 267.273 3.40363 0.771613 0
M  V30 2895 C 268.621 4.10007 1.1036 0
M  V30 2896 O 269.645 3.45655 0.860304 0
M  V30 2897 O 268.504 5.2369 1.56239 0
M  V30 2898 H 265.598 0.781587 0.270278 0
M  V30 2899 H 268.144 1.68458 -0.204946 0
M  V30 2900 H 266.916 3.91046 -0.141093 0
M  V30 2901 H 266.539 3.65914 1.55541 0
M  V30 2902 N 267.536 -0.106894 1.57237 0
M  V30 2903 C 268.782 -0.81373 1.85759 0
M  V30 2904 C 269.115 -1.78952 0.754315 0
M  V30 2905 O 268.39 -1.93029 -0.23879 0
M  V30 2906 C 268.673 -1.55293 3.24894 0
M  V30 2907 C 268.526 -0.595929 4.45835 0
M  V30 2908 C 269.845 -2.5063 3.61763 0
M  V30 2909 H 266.964 -0.294369 0.67566 0
M  V30 2910 H 269.606 -0.0776472 1.89841 0
M  V30 2911 H 267.756 -2.1804 3.21544 0
M  V30 2912 H 269.428 0.0236262 4.61294 0
M  V30 2913 H 267.671 0.0916191 4.33703 0
M  V30 2914 H 268.342 -1.15004 5.39887 0
M  V30 2915 H 270.818 -1.97982 3.65981 0
M  V30 2916 H 269.694 -2.99376 4.60071 0
M  V30 2917 H 269.955 -3.3385 2.89821 0
M  V30 2918 N 269.014 -1.53014 -0.377408 0
M  V30 2919 C 269.977 -1.77957 -1.44444 0
M  V30 2920 C 270.977 -0.649763 -1.47087 0
M  V30 2921 O 272.167 -0.917897 -1.48055 0
M  V30 2922 C 269.299 -1.89089 -2.83651 0
M  V30 2923 H 270.492 -2.73243 -1.23606 0
M  V30 2924 H 268.045 -1.43912 -0.609844 0
M  V30 2925 H 268.78 -0.958293 -3.09818 0
M  V30 2926 H 268.565 -2.71254 -2.83132 0
M  V30 2927 H 270.055 -2.1002 -3.60945 0
M  V30 2928 N 270.492 0.636531 -1.44174 0
M  V30 2929 C 271.741 1.39213 -1.45954 0
M  V30 2930 C 272.054 1.95374 -0.0939119 0
M  V30 2931 O 273.26 2.71498 0.0107767 0
M  V30 2932 C 271.716 2.52025 -2.56927 0
M  V30 2933 C 271.324 2.024 -3.99673 0
M  V30 2934 C 273.068 3.29269 -2.67922 0
M  V30 2935 C 270.975 3.12521 -5.0208 0
M  V30 2936 H 269.905 0.523132 -0.542999 0
M  V30 2937 H 272.556 0.685349 -1.70221 0
M  V30 2938 H 270.938 3.25253 -2.25891 0
M  V30 2939 H 272.112 1.36073 -4.40251 0
M  V30 2940 H 270.427 1.37987 -3.92872 0
M  V30 2941 H 273.024 4.11352 -3.41605 0
M  V30 2942 H 273.367 3.78397 -1.73555 0
M  V30 2943 H 273.9 2.63129 -2.98342 0
M  V30 2944 H 270.639 2.68343 -5.98057 0
M  V30 2945 H 270.159 3.77507 -4.66099 0
M  V30 2946 H 271.838 3.77385 -5.25538 0
M  V30 2947 N 271.97 1.30982 0.876444 0
M  V30 2948 C 273.198 1.23242 1.6619 0
M  V30 2949 C 273.613 -0.203345 1.87702 0
M  V30 2950 O 272.97 -1.13317 1.43057 0
M  V30 2951 C 273.021 1.96623 3.03351 0
M  V30 2952 O 272.742 3.34594 2.82804 0
M  V30 2953 C 274.243 1.95644 3.97792 0
M  V30 2954 H 271.463 0.426126 0.518322 0
M  V30 2955 H 274.007 1.7275 1.09442 0
M  V30 2956 H 272.162 1.50892 3.56806 0
M  V30 2957 H 272.576 3.71873 3.69879 0
M  V30 2958 H 274.05 2.51511 4.91372 0
M  V30 2959 H 274.527 0.937395 4.2908 0
M  V30 2960 H 275.133 2.41225 3.50272 0
M  V30 2961 N 273.449 -1.08991 1.13837 0
M  V30 2962 C 274.359 -2.19301 0.833333 0
M  V30 2963 C 275.375 -1.73026 -0.183847 0
M  V30 2964 O 276.551 -2.01395 -0.0138092 0
M  V30 2965 C 273.616 -3.45323 0.308651 0
M  V30 2966 C 272.677 -4.06255 1.38764 0
M  V30 2967 C 271.91 -5.26262 0.887896 0
M  V30 2968 O 272.133 -5.69747 -0.27287 0
M  V30 2969 O 271.067 -5.78435 1.66421 0
M  V30 2970 H 274.893 -2.47854 1.75506 0
M  V30 2971 H 272.478 -1.18012 0.916166 0
M  V30 2972 H 274.36 -4.21394 0.0216739 0
M  V30 2973 H 273.035 -3.18362 -0.585431 0
M  V30 2974 H 271.942 -3.318 1.72799 0
M  V30 2975 H 273.275 -4.37452 2.25602 0
M  V30 2976 N 274.927 -0.932562 -1.27047 0
M  V30 2977 C 275.857 -0.452902 -2.29066 0
M  V30 2978 C 276.838 0.489338 -1.62909 0
M  V30 2979 O 278.023 0.393046 -1.90181 0
M  V30 2980 C 275.153 0.290698 -3.46081 0
M  V30 2981 C 274.107 -0.564168 -4.24265 0
M  V30 2982 C 273.433 0.308886 -5.33807 0
M  V30 2983 C 274.733 -1.83112 -4.89149 0
M  V30 2984 H 276.427 -1.30552 -2.69437 0
M  V30 2985 H 273.973 -0.629201 -1.29526 0
M  V30 2986 H 275.926 0.637233 -4.16554 0
M  V30 2987 H 274.65 1.17738 -3.0464 0
M  V30 2988 H 273.309 -0.893477 -3.55545 0
M  V30 2989 H 272.957 1.19467 -4.88607 0
M  V30 2990 H 272.657 -0.259633 -5.87026 0
M  V30 2991 H 274.181 0.650884 -6.07121 0
M  V30 2992 H 275.595 -1.55236 -5.51883 0
M  V30 2993 H 273.992 -2.34353 -5.52448 0
M  V30 2994 H 275.062 -2.54772 -4.12576 0
M  V30 2995 N 276.405 1.4127 -0.698611 0
M  V30 2996 C 277.63 2.06024 -0.238512 0
M  V30 2997 C 278.055 1.5224 1.10475 0
M  V30 2998 O 277.413 0.650623 1.69223 0
M  V30 2999 C 277.461 3.59988 -0.209952 0
M  V30 3000 O 276.565 4.04282 0.814235 0
M  V30 3001 H 275.906 0.653829 -0.115775 0
M  V30 3002 H 278.436 1.8098 -0.954326 0
M  V30 3003 H 278.446 4.07979 -0.0418436 0
M  V30 3004 H 277.121 3.98503 -1.1903 0
M  V30 3005 H 275.698 3.6779 0.615234 0
M  V30 3006 N 277.883 0.443576 1.51229 0
M  V30 3007 C 279.13 -0.120796 2.02139 0
M  V30 3008 C 279.458 -1.42166 1.32736 0
M  V30 3009 O 278.713 -1.90849 0.43301 0
M  V30 3010 C 279.012 -0.380579 3.55368 0
M  V30 3011 C 278.678 0.83523 4.43097 0
M  V30 3012 C 277.34 1.16864 4.66794 0
M  V30 3013 C 279.692 1.64601 4.94526 0
M  V30 3014 C 277.02 2.31339 5.39165 0
M  V30 3015 C 279.372 2.78181 5.68153 0
M  V30 3016 C 278.036 3.11969 5.90112 0
M  V30 3017 H 277.306 -0.0442023 0.73968 0
M  V30 3018 H 279.953 0.592046 1.82118 0
M  V30 3019 H 278.258 -1.17538 3.73754 0
M  V30 3020 H 279.955 -0.830777 3.923 0
M  V30 3021 H 276.545 0.565437 4.24854 0
M  V30 3022 H 280.729 1.40163 4.76097 0
M  V30 3023 H 275.985 2.57823 5.5438 0
M  V30 3024 H 280.159 3.41371 6.06992 0
M  V30 3025 H 277.786 4.00784 6.45969 0
M  V30 3026 N 279.361 -1.56624 0.175154 0
M  V30 3027 C 280.586 -2.01813 -0.478137 0
M  V30 3028 C 281.011 -1.05457 -1.55757 0
M  V30 3029 O 280.369 -0.0347439 -1.81267 0
M  V30 3030 C 280.417 -3.45581 -1.02987 0
M  V30 3031 O 279.521 -3.52305 -2.14371 0
M  V30 3032 H 278.862 -0.65413 -0.114059 0
M  V30 3033 H 281.392 -2.02673 0.280173 0
M  V30 3034 H 281.402 -3.84965 -1.35151 0
M  V30 3035 H 280.077 -4.1521 -0.239556 0
M  V30 3036 H 278.654 -3.24783 -1.83222 0
M  V30 3037 N 280.839 0.0985539 -1.57292 0
M  V30 3038 C 282.255 0.45267 -1.53046 0
M  V30 3039 C 282.455 1.80713 -0.891342 0
M  V30 3040 O 281.511 2.4785 -0.482375 0
M  V30 3041 C 282.824 0.418341 -2.97776 0
M  V30 3042 C 284.372 0.500443 -3.08973 0
M  V30 3043 C 284.847 0.496297 -4.55303 0
M  V30 3044 N 286.338 0.557151 -4.59837 0
M  V30 3045 C 287.073 0.575726 -5.70502 0
M  V30 3046 N 286.569 0.550714 -6.90608 0
M  V30 3047 N 288.362 0.620277 -5.58667 0
M  V30 3048 H 280.513 -0.788673 -1.97215 0
M  V30 3049 H 282.776 -0.293188 -0.901524 0
M  V30 3050 H 282.482 -0.509659 -3.47988 0
M  V30 3051 H 282.356 1.2386 -3.56284 0
M  V30 3052 H 284.743 1.41886 -2.58751 0
M  V30 3053 H 284.824 -0.347894 -2.53423 0
M  V30 3054 H 284.468 -0.418162 -5.06176 0
M  V30 3055 H 284.398 1.3618 -5.08687 0
M  V30 3056 H 286.889 0.581816 -3.73394 0
M  V30 3057 H 287.202 0.568075 -7.70709 0
M  V30 3058 H 285.547 0.517816 -6.93068 0
M  V30 3059 H 288.738 0.637322 -4.63741 0
M  V30 3060 H 288.911 0.631283 -6.44918 0
M  V30 3061 N 282.317 1.53212 0.369288 0
M  V30 3062 C 283.227 1.82342 1.47609 0
M  V30 3063 C 284.243 0.711532 1.58787 0
M  V30 3064 O 285.419 1.0012 1.74751 0
M  V30 3065 C 282.484 2.00393 2.8292 0
M  V30 3066 C 281.545 3.24297 2.81301 0
M  V30 3067 C 280.778 3.41478 4.10157 0
M  V30 3068 O 281.001 2.63033 5.06132 0
M  V30 3069 O 279.935 4.34817 4.16194 0
M  V30 3070 H 283.761 2.76366 1.25918 0
M  V30 3071 H 281.346 1.38547 0.559034 0
M  V30 3072 H 283.228 2.13859 3.63101 0
M  V30 3073 H 281.903 1.09559 3.04596 0
M  V30 3074 H 280.81 3.16257 1.99831 0
M  V30 3075 H 282.143 4.15041 2.64578 0
M  V30 3076 N 283.795 -0.628877 1.44509 0
M  V30 3077 C 285.025 -1.41349 1.50678 0
M  V30 3078 C 285.433 -1.88745 0.131075 0
M  V30 3079 O 284.776 -1.61592 -0.87371 0
M  V30 3080 C 284.838 -2.66608 2.41165 0
M  V30 3081 C 284.502 -2.40993 3.88293 0
M  V30 3082 C 285.499 -2.0268 4.78766 0
M  V30 3083 C 283.184 -2.54563 4.33016 0
M  V30 3084 C 285.178 -1.78269 6.11963 0
M  V30 3085 C 282.865 -2.29766 5.6626 0
M  V30 3086 C 283.863 -1.91678 6.55552 0
M  V30 3087 O 283.551 -1.67158 7.86329 0
M  V30 3088 H 283.283 -0.439851 0.51333 0
M  V30 3089 H 285.837 -0.776084 1.90174 0
M  V30 3090 H 284.067 -3.32994 1.96601 0
M  V30 3091 H 285.756 -3.28615 2.38259 0
M  V30 3092 H 286.522 -1.91751 4.45485 0
M  V30 3093 H 282.401 -2.83179 3.63773 0
M  V30 3094 H 285.945 -1.48465 6.81619 0
M  V30 3095 H 281.842 -2.40306 5.99102 0
M  V30 3096 H 282.61 -1.81386 7.98149 0
M  V30 3097 N 285.273 -1.31445 -0.869486 0
M  V30 3098 C 286.501 -1.24122 -1.65534 0
M  V30 3099 C 286.916 0.193387 -1.87807 0
M  V30 3100 O 286.273 1.12557 -1.43656 0
M  V30 3101 C 286.324 -1.98229 -3.02304 0
M  V30 3102 O 286.045 -3.3609 -2.81026 0
M  V30 3103 C 287.546 -1.97751 -3.96749 0
M  V30 3104 H 284.766 -0.428868 -0.516055 0
M  V30 3105 H 287.31 -1.73328 -1.08525 0
M  V30 3106 H 285.465 -1.52782 -3.56001 0
M  V30 3107 H 285.879 -3.7383 -3.67902 0
M  V30 3108 H 287.353 -2.54114 -4.90031 0
M  V30 3109 H 287.83 -0.960137 -4.28577 0
M  V30 3110 H 288.436 -2.43079 -3.48988 0
M  V30 3111 N 286.751 1.08385 -1.14413 0
M  V30 3112 C 287.714 2.13486 -0.834048 0
M  V30 3113 C 288.714 1.59988 0.161418 0
M  V30 3114 O 289.904 1.74071 -0.0669575 0
M  V30 3115 C 287.036 3.4003 -0.243354 0
M  V30 3116 H 288.229 2.42425 -1.7655 0
M  V30 3117 H 285.782 1.24101 -0.950189 0
M  V30 3118 H 286.517 3.16726 0.696807 0
M  V30 3119 H 286.302 3.80157 -0.960367 0
M  V30 3120 H 287.792 4.17577 -0.0436242 0
M  V30 3121 N 288.23 0.939286 1.26551 0
M  V30 3122 C 289.193 0.451987 2.24699 0
M  V30 3123 C 290.193 -0.435869 1.5478 0
M  V30 3124 O 291.383 -0.235314 1.72603 0
M  V30 3125 C 288.515 -0.348801 3.39111 0
M  V30 3126 H 289.708 1.3193 2.69322 0
M  V30 3127 H 287.261 0.721072 1.38673 0
M  V30 3128 H 287.996 -1.23444 2.99887 0
M  V30 3129 H 287.781 0.287945 3.91041 0
M  V30 3130 H 289.271 -0.679726 4.12031 0
M  V30 3131 N 289.708 -1.40897 0.706093 0
M  V30 3132 C 290.954 -2.01352 0.241889 0
M  V30 3133 C 291.287 -1.55832 -1.15888 0
M  V30 3134 O 290.562 -0.774145 -1.7843 0
M  V30 3135 C 290.845 -3.58752 0.311311 0
M  V30 3136 C 290.698 -4.1437 1.74978 0
M  V30 3137 C 292.017 -4.38914 -0.322922 0
M  V30 3138 H 289.136 -0.731562 0.0893687 0
M  V30 3139 H 291.778 -1.67504 0.896802 0
M  V30 3140 H 289.928 -3.87718 -0.246302 0
M  V30 3141 H 291.6 -3.96239 2.36205 0
M  V30 3142 H 289.843 -3.69016 2.28057 0
M  V30 3143 H 290.514 -5.23532 1.74981 0
M  V30 3144 H 292.99 -4.15822 0.152089 0
M  V30 3145 H 291.866 -5.48358 -0.243855 0
M  V30 3146 H 292.127 -4.19176 -1.40513 0
M  V30 3147 N 291.186 -0.45159 -1.50991 0
M  V30 3148 C 292.096 0.358431 -2.31846 0
M  V30 3149 C 293.112 1.01438 -1.41373 0
M  V30 3150 O 294.288 1.00663 -1.74439 0
M  V30 3151 C 291.353 1.43704 -3.15515 0
M  V30 3152 C 290.414 0.799742 -4.21785 0
M  V30 3153 C 289.647 1.82696 -5.01456 0
M  V30 3154 O 289.87 3.05105 -4.81941 0
M  V30 3155 O 288.804 1.40958 -5.85162 0
M  V30 3156 H 292.63 -0.302032 -3.02194 0
M  V30 3157 H 290.215 -0.213825 -1.47862 0
M  V30 3158 H 292.097 2.06227 -3.67489 0
M  V30 3159 H 290.772 2.08133 -2.47916 0
M  V30 3160 H 289.679 0.136084 -3.73852 0
M  V30 3161 H 291.012 0.198718 -4.91799 0
M  V30 3162 N 292.664 1.56529 -0.183458 0
M  V30 3163 C 293.627 2.17324 0.728223 0
M  V30 3164 C 294.627 1.12453 1.14939 0
M  V30 3165 O 295.817 1.37902 1.06437 0
M  V30 3166 C 292.949 2.76591 1.99274 0
M  V30 3167 H 294.142 2.99241 0.198772 0
M  V30 3168 H 291.695 1.5616 0.0661391 0
M  V30 3169 H 292.43 1.98441 2.56499 0
M  V30 3170 H 292.215 3.5335 1.69959 0
M  V30 3171 H 293.705 3.23311 2.6431 0
M  V30 3172 N 294.142 -0.090211 1.57342 0
M  V30 3173 C 295.089 -1.10909 2.02405 0
M  V30 3174 C 296.059 -1.39523 0.901252 0
M  V30 3175 O 297.244 -1.50903 1.1676 0
M  V30 3176 C 294.384 -2.42277 2.45755 0
M  V30 3177 C 293.497 -2.20352 3.71576 0
M  V30 3178 C 292.632 -3.45154 4.03785 0
M  V30 3179 C 291.671 -3.18512 5.22701 0
M  V30 3180 N 290.808 -4.35593 5.50639 0
M  V30 3181 H 295.648 -0.71782 2.89225 0
M  V30 3182 H 293.185 -0.342901 1.43048 0
M  V30 3183 H 295.143 -3.18951 2.68935 0
M  V30 3184 H 293.773 -2.79242 1.61938 0
M  V30 3185 H 292.825 -1.34458 3.55844 0
M  V30 3186 H 294.137 -1.96661 4.58395 0
M  V30 3187 H 293.291 -4.30233 4.27767 0
M  V30 3188 H 292.03 -3.71904 3.15498 0
M  V30 3189 H 291.035 -2.31827 4.98534 0
M  V30 3190 H 292.26 -2.93103 6.12591 0
M  V30 3191 H 290.206 -4.6241 4.6531 0
M  V30 3192 H 290.123 -4.1511 6.31838 0
M  V30 3193 H 291.391 -5.21723 5.7916 0
M  V30 3194 N 295.62 -1.53406 -0.361157 0
M  V30 3195 C 296.552 -1.76446 -1.46286 0
M  V30 3196 C 297.565 -0.645322 -1.49464 0
M  V30 3197 O 298.754 -0.921681 -1.52864 0
M  V30 3198 C 295.854 -1.83332 -2.85031 0
M  V30 3199 C 295.027 -3.13033 -3.05498 0
M  V30 3200 C 294.086 -3.11104 -4.24383 0
M  V30 3201 O 293.112 -3.84888 -4.19344 0
M  V30 3202 N 294.314 -2.32234 -5.32022 0
M  V30 3203 H 297.079 -2.71508 -1.26899 0
M  V30 3204 H 294.64 -1.52238 -0.550915 0
M  V30 3205 H 296.632 -1.79514 -3.62708 0
M  V30 3206 H 295.202 -0.955342 -2.97644 0
M  V30 3207 H 294.422 -3.30119 -2.15442 0
M  V30 3208 H 295.71 -3.9874 -3.16044 0
M  V30 3209 H 295.108 -1.71807 -5.38979 0
M  V30 3210 H 293.665 -2.3423 -6.08259 0
M  V30 3211 N 297.098 0.621204 -1.44841 0
M  V30 3212 C 298.344 1.3826 -1.48365 0
M  V30 3213 C 298.677 1.93831 -0.119624 0
M  V30 3214 O 297.952 1.74251 0.864111 0
M  V30 3215 C 298.235 2.54058 -2.55199 0
M  V30 3216 C 298.088 2.03772 -4.00995 0
M  V30 3217 C 299.407 3.56225 -2.58442 0
M  V30 3218 H 296.526 0.501374 -0.540179 0
M  V30 3219 H 299.168 0.7015 -1.76576 0
M  V30 3220 H 297.318 3.12162 -2.31274 0
M  V30 3221 H 298.99 1.50423 -4.36086 0
M  V30 3222 H 297.233 1.34876 -4.12299 0
M  V30 3223 H 297.904 2.87185 -4.71411 0
M  V30 3224 H 300.38 3.07939 -2.79844 0
M  V30 3225 H 299.256 4.34756 -3.3508 0
M  V30 3226 H 299.517 4.10949 -1.63013 0
M  V30 3227 N 298.576 1.31904 0.862503 0
M  V30 3228 C 299.539 1.20131 1.95195 0
M  V30 3229 C 300.539 0.126409 1.60302 0
M  V30 3230 O 301.729 0.376234 1.70089 0
M  V30 3231 C 298.861 0.845691 3.30244 0
M  V30 3232 H 300.054 2.16943 2.07064 0
M  V30 3233 H 297.607 1.15622 1.05172 0
M  V30 3234 H 298.342 -0.120957 3.24074 0
M  V30 3235 H 298.127 1.62276 3.56944 0
M  V30 3236 H 299.617 0.787418 4.10109 0
M  V30 3237 N 300.054 -1.07777 1.14986 0
M  V30 3238 C 300.986 -2.14769 0.800436 0
M  V30 3239 C 301.999 -1.61739 -0.185595 0
M  V30 3240 O 303.188 -1.78462 0.0370358 0
M  V30 3241 C 300.288 -3.38481 0.168533 0
M  V30 3242 C 299.461 -4.20876 1.1909 0
M  V30 3243 C 298.52 -5.22976 0.581575 0
M  V30 3244 O 297.546 -5.55388 1.24633 0
M  V30 3245 N 298.748 -5.76976 -0.638706 0
M  V30 3246 H 301.513 -2.45348 1.72118 0
M  V30 3247 H 299.074 -1.23645 1.04515 0
M  V30 3248 H 301.066 -4.03916 -0.251764 0
M  V30 3249 H 299.636 -3.05651 -0.655467 0
M  V30 3250 H 298.856 -3.51322 1.78791 0
M  V30 3251 H 300.144 -4.7274 1.88133 0
M  V30 3252 H 299.542 -5.52886 -1.19723 0
M  V30 3253 H 298.099 -6.44061 -1.00142 0
M  V30 3254 N 301.532 -0.945985 -1.26051 0
M  V30 3255 C 302.464 -0.416662 -2.25381 0
M  V30 3256 C 303.477 0.462712 -1.56086 0
M  V30 3257 O 304.666 0.272383 -1.7641 0
M  V30 3258 C 301.766 0.419812 -3.3629 0
M  V30 3259 C 300.939 -0.444531 -4.35135 0
M  V30 3260 C 299.998 0.332305 -5.2515 0
M  V30 3261 O 299.024 -0.266324 -5.68577 0
M  V30 3262 N 300.226 1.62763 -5.57215 0
M  V30 3263 H 302.991 -1.27059 -2.71433 0
M  V30 3264 H 300.552 -0.815392 -1.39868 0
M  V30 3265 H 302.544 0.947013 -3.93464 0
M  V30 3266 H 301.114 1.17456 -2.89694 0
M  V30 3267 H 300.334 -1.15291 -3.76964 0
M  V30 3268 H 301.622 -1.03478 -4.98166 0
M  V30 3269 H 301.02 2.13603 -5.23823 0
M  V30 3270 H 299.577 2.10097 -6.17011 0
M  V30 3271 N 303.011 1.40521 -0.713556 0
M  V30 3272 C 303.921 2.34522 -0.0606667 0
M  V30 3273 C 304.937 1.57193 0.74607 0
M  V30 3274 O 306.113 1.89591 0.679493 0
M  V30 3275 C 303.178 3.36081 0.851491 0
M  V30 3276 C 302.239 4.29286 0.0349339 0
M  V30 3277 C 301.472 5.25994 0.903649 0
M  V30 3278 O 301.695 5.28616 2.14292 0
M  V30 3279 O 300.629 6.00918 0.343723 0
M  V30 3280 H 304.455 2.91968 -0.835972 0
M  V30 3281 H 302.04 1.41681 -0.47402 0
M  V30 3282 H 303.922 3.98369 1.37404 0
M  V30 3283 H 302.597 2.81052 1.60598 0
M  V30 3284 H 301.504 3.70289 -0.532633 0
M  V30 3285 H 302.837 4.87462 -0.681287 0
M  V30 3286 N 304.489 0.459591 1.5075 0
M  V30 3287 C 305.452 -0.329093 2.26825 0
M  V30 3288 C 306.452 -0.930481 1.31144 0
M  V30 3289 O 307.642 -0.801453 1.54669 0
M  V30 3290 C 304.774 -1.46768 3.07688 0
M  V30 3291 H 305.967 0.337924 2.9799 0
M  V30 3292 H 303.52 0.213336 1.54837 0
M  V30 3293 H 304.255 -2.17009 2.40993 0
M  V30 3294 H 304.04 -1.04238 3.77991 0
M  V30 3295 H 305.53 -2.02433 3.65254 0
M  V30 3296 N 305.967 -1.56429 0.191757 0
M  V30 3297 C 306.899 -2.16154 -0.762245 0
M  V30 3298 C 307.912 -1.12247 -1.17917 0
M  V30 3299 O 309.101 -1.39353 -1.11548 0
M  V30 3300 C 306.201 -2.70606 -2.04024 0
M  V30 3301 C 305.374 -3.99381 -1.78364 0
M  V30 3302 C 304.433 -4.38692 -2.90578 0
M  V30 3303 O 303.459 -5.06179 -2.6033 0
M  V30 3304 N 304.661 -4.01922 -4.18854 0
M  V30 3305 H 307.426 -2.98643 -0.251526 0
M  V30 3306 H 304.987 -1.61897 0.00967373 0
M  V30 3307 H 306.979 -2.93891 -2.78227 0
M  V30 3308 H 305.549 -1.9259 -2.46227 0
M  V30 3309 H 304.769 -3.84262 -0.879581 0
M  V30 3310 H 306.057 -4.83445 -1.58614 0
M  V30 3311 H 305.455 -3.47631 -4.46283 0
M  V30 3312 H 304.012 -4.30165 -4.89695 0
M  V30 3313 N 307.445 0.0818655 -1.57387 0
M  V30 3314 C 308.861 0.436412 -1.53517 0
M  V30 3315 C 309.061 1.79758 -0.910459 0
M  V30 3316 O 308.117 2.47324 -0.508636 0
M  V30 3317 C 309.43 0.386734 -2.98203 0
M  V30 3318 C 310.978 0.467644 -3.09487 0
M  V30 3319 C 311.453 0.447978 -4.55804 0
M  V30 3320 N 312.944 0.508348 -4.60402 0
M  V30 3321 C 313.679 0.515184 -5.71081 0
M  V30 3322 N 313.175 0.477435 -6.91153 0
M  V30 3323 N 314.968 0.560988 -5.59294 0
M  V30 3324 H 307.119 -0.809546 -1.96367 0
M  V30 3325 H 309.382 -0.302733 -0.898363 0
M  V30 3326 H 309.088 -0.546539 -3.47427 0
M  V30 3327 H 308.962 1.20075 -3.57578 0
M  V30 3328 H 311.349 1.39134 -2.60242 0
M  V30 3329 H 311.43 -0.374753 -2.5304 0
M  V30 3330 H 311.074 -0.471826 -5.05704 0
M  V30 3331 H 311.004 1.30777 -5.10103 0
M  V30 3332 H 313.495 0.54218 -3.7399 0
M  V30 3333 H 313.808 0.486299 -7.71268 0
M  V30 3334 H 312.153 0.444278 -6.93579 0
M  V30 3335 H 315.344 0.5881 -4.64391 0
M  V30 3336 H 315.517 0.562846 -6.45551 0
M  V30 3337 N 308.923 1.53595 0.353017 0
M  V30 3338 C 309.886 1.80232 1.41594 0
M  V30 3339 C 310.886 0.673081 1.46035 0
M  V30 3340 O 312.076 0.941335 1.46576 0
M  V30 3341 C 309.208 1.93578 2.80607 0
M  V30 3342 H 310.401 2.75174 1.19244 0
M  V30 3343 H 307.954 1.44864 0.586872 0
M  V30 3344 H 308.689 1.00746 3.08254 0
M  V30 3345 H 308.474 2.75724 2.78781 0
M  V30 3346 H 309.964 2.15735 3.57558 0
M  V30 3347 N 310.401 -0.613514 1.45168 0
M  V30 3348 C 311.333 -1.73825 1.4939 0
M  V30 3349 C 312.346 -1.58175 0.385304 0
M  V30 3350 O 313.535 -1.66165 0.652036 0
M  V30 3351 C 310.635 -3.11758 1.32891 0
M  V30 3352 C 309.808 -3.53704 2.57317 0
M  V30 3353 C 308.867 -4.70579 2.35462 0
M  V30 3354 O 307.893 -4.77996 3.09044 0
M  V30 3355 N 309.095 -5.63454 1.39644 0
M  V30 3356 H 311.86 -1.70669 2.46358 0
M  V30 3357 H 309.421 -0.79862 1.40832 0
M  V30 3358 H 311.413 -3.87692 1.1609 0
M  V30 3359 H 309.983 -3.09456 0.442218 0
M  V30 3360 H 309.203 -2.67794 2.89275 0
M  V30 3361 H 310.491 -3.78486 3.40038 0
M  V30 3362 H 309.889 -5.6017 0.789062 0
M  V30 3363 H 308.446 -6.38944 1.28816 0
M  V30 3364 N 311.879 -1.3236 -0.855495 0
M  V30 3365 C 313.126 -1.22872 -1.60962 0
M  V30 3366 C 313.454 0.209658 -1.93367 0
M  V30 3367 O 312.709 1.16243 -1.57436 0
M  V30 3368 C 313.008 -2.03275 -2.93963 0
M  V30 3369 C 312.674 -3.5264 -2.80991 0
M  V30 3370 C 311.336 -3.93364 -2.7716 0
M  V30 3371 C 313.688 -4.47626 -2.66983 0
M  V30 3372 C 311.016 -5.27319 -2.572 0
M  V30 3373 C 313.368 -5.81723 -2.48558 0
M  V30 3374 C 312.032 -6.2165 -2.4312 0
M  V30 3375 H 311.302 -0.44962 -0.589001 0
M  V30 3376 H 313.949 -1.63777 -0.992442 0
M  V30 3377 H 312.254 -1.55095 -3.59795 0
M  V30 3378 H 313.951 -1.93303 -3.51333 0
M  V30 3379 H 310.541 -3.20295 -2.84797 0
M  V30 3380 H 314.725 -4.17084 -2.68988 0
M  V30 3381 H 309.981 -5.57311 -2.51424 0
M  V30 3382 H 314.155 -6.5494 -2.36699 0
M  V30 3383 H 311.782 -7.25388 -2.27412 0
M  V30 3384 N 313.357 1.07166 -1.15556 0
M  V30 3385 C 314.287 2.16403 -0.877046 0
M  V30 3386 C 315.268 1.69217 0.173111 0
M  V30 3387 O 316.453 1.94181 0.027084 0
M  V30 3388 C 313.583 3.45349 -0.367632 0
M  V30 3389 C 312.537 4.05995 -1.35468 0
M  V30 3390 C 311.863 5.30045 -0.704038 0
M  V30 3391 C 313.163 4.45804 -2.72132 0
M  V30 3392 H 314.857 2.39959 -1.79053 0
M  V30 3393 H 312.403 1.15325 -0.862331 0
M  V30 3394 H 314.356 4.21095 -0.160317 0
M  V30 3395 H 313.08 3.21385 0.581326 0
M  V30 3396 H 311.739 3.32296 -1.54839 0
M  V30 3397 H 311.387 5.02373 0.251128 0
M  V30 3398 H 311.087 5.71579 -1.36277 0
M  V30 3399 H 312.611 6.08495 -0.50654 0
M  V30 3400 H 314.025 5.12671 -2.56595 0
M  V30 3401 H 312.422 4.98296 -3.34397 0
M  V30 3402 H 313.492 3.57083 -3.28054 0
M  V30 3403 N 314.835 0.952656 1.25548 0
M  V30 3404 C 316.081 0.607272 1.93494 0
M  V30 3405 C 316.414 -0.853245 1.74452 0
M  V30 3406 O 315.689 -1.61194 1.08843 0
M  V30 3407 C 315.972 0.96435 3.46947 0
M  V30 3408 C 315.825 2.48045 3.75225 0
M  V30 3409 C 317.144 0.487987 4.37386 0
M  V30 3410 H 314.263 0.222096 0.702739 0
M  V30 3411 H 316.905 1.18895 1.48203 0
M  V30 3412 H 315.055 0.469361 3.85654 0
M  V30 3413 H 316.727 3.04905 3.46166 0
M  V30 3414 H 314.97 2.919 3.209 0
M  V30 3415 H 315.641 2.6808 4.82532 0
M  V30 3416 H 318.117 0.912558 4.0597 0
M  V30 3417 H 316.993 0.766547 5.43521 0
M  V30 3418 H 317.254 -0.612063 4.37843 0
M  V30 3419 N 316.313 -1.40141 0.720998 0
M  V30 3420 C 317.223 -2.34486 0.0731031 0
M  V30 3421 C 318.239 -1.57587 -0.737723 0
M  V30 3422 O 319.415 -1.89949 -0.669429 0
M  V30 3423 C 316.48 -3.36528 -0.833656 0
M  V30 3424 C 315.541 -4.29298 -0.0121673 0
M  V30 3425 C 314.774 -5.26466 -0.875742 0
M  V30 3426 O 314.997 -5.29745 -2.11485 0
M  V30 3427 O 313.931 -6.01092 -0.31185 0
M  V30 3428 H 317.757 -2.9152 0.851444 0
M  V30 3429 H 315.342 -1.41427 0.481527 0
M  V30 3430 H 317.224 -3.99093 -1.35289 0
M  V30 3431 H 315.899 -2.81899 -1.59105 0
M  V30 3432 H 314.806 -3.70001 0.552262 0
M  V30 3433 H 316.139 -4.87094 0.707129 0
M  V30 3434 N 317.792 -0.46758 -1.50504 0
M  V30 3435 C 318.739 0.328413 -2.28452 0
M  V30 3436 C 319.709 0.990313 -1.33349 0
M  V30 3437 O 320.894 1.00343 -1.62284 0
M  V30 3438 C 318.034 1.40648 -3.15138 0
M  V30 3439 C 317.147 0.759709 -4.25267 0
M  V30 3440 C 316.282 1.81537 -4.99217 0
M  V30 3441 C 315.321 1.14866 -6.01226 0
M  V30 3442 N 314.458 2.14702 -6.68467 0
M  V30 3443 H 319.298 -0.342603 -2.96024 0
M  V30 3444 H 316.835 -0.180801 -1.45985 0
M  V30 3445 H 318.793 2.04315 -3.63746 0
M  V30 3446 H 317.423 2.04671 -2.49619 0
M  V30 3447 H 316.475 0.0105671 -3.80399 0
M  V30 3448 H 317.787 0.233243 -4.98254 0
M  V30 3449 H 316.941 2.52793 -5.51526 0
M  V30 3450 H 315.68 2.37564 -4.25928 0
M  V30 3451 H 314.685 0.42171 -5.4818 0
M  V30 3452 H 315.91 0.595334 -6.76485 0
M  V30 3453 H 313.856 2.69752 -5.97972 0
M  V30 3454 H 313.773 1.6703 -7.37317 0
M  V30 3455 H 315.041 2.85348 -7.25394 0
M  V30 3456 N 319.27 1.56325 -0.20005 0
M  V30 3457 C 320.233 2.18084 0.705132 0
M  V30 3458 C 321.233 1.13666 1.1374 0
M  V30 3459 O 322.423 1.39023 1.04968 0
M  V30 3460 C 319.555 2.78689 1.96329 0
M  V30 3461 H 320.748 2.99435 0.167023 0
M  V30 3462 H 318.301 1.56221 0.0495725 0
M  V30 3463 H 319.036 2.0115 2.5438 0
M  V30 3464 H 318.821 3.55133 1.66202 0
M  V30 3465 H 320.311 3.26096 2.60866 0
M  V30 3466 N 320.748 -0.0735177 1.57428 0
M  V30 3467 C 321.695 -1.08756 2.0357 0
M  V30 3468 C 322.665 -1.38559 0.916 0
M  V30 3469 O 323.85 -1.49656 1.18354 0
M  V30 3470 C 320.99 -2.39657 2.48311 0
M  V30 3471 C 320.103 -2.16399 3.73892 0
M  V30 3472 C 319.238 -3.40852 4.07423 0
M  V30 3473 C 318.277 -3.1295 5.2605 0
M  V30 3474 N 317.414 -4.29729 5.55228 0
M  V30 3475 H 322.254 -0.687104 2.8997 0
M  V30 3476 H 319.791 -0.327709 1.43403 0
M  V30 3477 H 321.749 -3.16081 2.72303 0
M  V30 3478 H 320.379 -2.77508 1.64891 0
M  V30 3479 H 319.431 -1.30676 3.57251 0
M  V30 3480 H 320.743 -1.91788 4.60455 0
M  V30 3481 H 319.897 -4.25671 4.32306 0
M  V30 3482 H 318.636 -3.68537 3.19425 0
M  V30 3483 H 317.641 -2.26526 5.00965 0
M  V30 3484 H 318.866 -2.86589 6.15665 0
M  V30 3485 H 316.812 -4.57448 4.70188 0
M  V30 3486 H 316.729 -4.08385 6.36206 0
M  V30 3487 H 317.997 -5.1555 5.84661 0
M  V30 3488 N 322.226 -1.5378 -0.344866 0
M  V30 3489 C 323.158 -1.77988 -1.44406 0
M  V30 3490 C 324.171 -0.661138 -1.48771 0
M  V30 3491 O 325.36 -0.937842 -1.51877 0
M  V30 3492 C 322.46 -1.86345 -2.8307 0
M  V30 3493 C 321.633 -3.16256 -3.0216 0
M  V30 3494 C 320.692 -3.15588 -4.21059 0
M  V30 3495 O 319.718 -3.89314 -4.15239 0
M  V30 3496 N 320.92 -2.37864 -5.29529 0
M  V30 3497 H 323.685 -2.72839 -1.24012 0
M  V30 3498 H 321.246 -1.52814 -0.534737 0
M  V30 3499 H 323.238 -1.83351 -3.60783 0
M  V30 3500 H 321.808 -0.986858 -2.96614 0
M  V30 3501 H 321.028 -3.32385 -2.11929 0
M  V30 3502 H 322.316 -4.0207 -3.11797 0
M  V30 3503 H 321.714 -1.77514 -5.37127 0
M  V30 3504 H 320.271 -2.40668 -6.05741 0
M  V30 3505 N 323.704 0.605807 -1.45491 0
M  V30 3506 C 324.614 1.74466 -1.56839 0
M  V30 3507 C 325.63 1.68006 -0.452772 0
M  V30 3508 O 326.806 1.8833 -0.713708 0
M  V30 3509 C 323.871 3.10931 -1.53371 0
M  V30 3510 C 322.932 3.28832 -2.75986 0
M  V30 3511 C 322.165 4.58787 -2.72673 0
M  V30 3512 O 322.388 5.4122 -1.80102 0
M  V30 3513 O 321.322 4.79438 -3.63899 0
M  V30 3514 H 325.148 1.67843 -2.53106 0
M  V30 3515 H 322.733 0.770108 -1.28022 0
M  V30 3516 H 324.615 3.92233 -1.54051 0
M  V30 3517 H 323.29 3.18042 -0.602572 0
M  V30 3518 H 322.197 2.47112 -2.80867 0
M  V30 3519 H 323.53 3.26599 -3.68231 0
M  V30 3520 N 325.182 1.32811 0.848464 0
M  V30 3521 C 326.114 1.18095 1.96433 0
M  V30 3522 C 327.127 0.114354 1.62398 0
M  V30 3523 O 328.316 0.363892 1.74751 0
M  V30 3524 C 325.416 0.786798 3.2964 0
M  V30 3525 C 324.589 1.943 3.91875 0
M  V30 3526 C 323.648 1.53138 5.03423 0
M  V30 3527 O 322.674 2.24432 5.23086 0
M  V30 3528 N 323.876 0.430915 5.78898 0
M  V30 3529 H 326.641 2.14218 2.09597 0
M  V30 3530 H 324.202 1.2543 1.02367 0
M  V30 3531 H 326.194 0.493715 4.01677 0
M  V30 3532 H 324.764 -0.0834541 3.12489 0
M  V30 3533 H 323.984 2.40224 3.12547 0
M  V30 3534 H 325.272 2.71689 4.30189 0
M  V30 3535 H 324.67 -0.162333 5.65467 0
M  V30 3536 H 323.227 0.197466 6.51501 0
M  V30 3537 N 326.66 -1.06551 1.16123 0
M  V30 3538 C 328.076 -1.3142 0.905585 0
M  V30 3539 C 328.276 -1.96571 -0.442964 0
M  V30 3540 O 327.332 -2.23068 -1.18308 0
M  V30 3541 C 328.645 -2.19741 2.05267 0
M  V30 3542 C 330.193 -2.33165 2.08813 0
M  V30 3543 C 330.668 -3.24838 3.22868 0
M  V30 3544 N 332.159 -3.32421 3.22568 0
M  V30 3545 C 332.894 -4.0344 4.0746 0
M  V30 3546 N 332.39 -4.77003 5.02434 0
M  V30 3547 N 334.183 -3.99464 3.95456 0
M  V30 3548 H 326.334 -0.626548 2.02949 0
M  V30 3549 H 328.597 -0.338777 0.8854 0
M  V30 3550 H 328.303 -1.79142 3.02657 0
M  V30 3551 H 328.177 -3.20313 1.99198 0
M  V30 3552 H 330.564 -2.73013 1.12018 0
M  V30 3553 H 330.645 -1.3227 2.18948 0
M  V30 3554 H 330.289 -2.85708 4.19921 0
M  V30 3555 H 330.219 -4.25707 3.0997 0
M  V30 3556 H 332.71 -2.79994 2.53795 0
M  V30 3557 H 333.023 -5.28712 5.63634 0
M  V30 3558 H 331.368 -4.75992 5.06415 0
M  V30 3559 H 334.559 -3.4111 3.20564 0
M  V30 3560 H 334.732 -4.54544 4.61837 0
M  V30 3561 N 328.138 -0.959301 -1.25041 0
M  V30 3562 C 329.07 -0.440543 -2.24926 0
M  V30 3563 C 330.083 0.446131 -1.56568 0
M  V30 3564 O 331.272 0.253657 -1.76689 0
M  V30 3565 C 328.372 0.38412 -3.36716 0
M  V30 3566 C 327.545 -0.490658 -4.34639 0
M  V30 3567 C 326.604 0.276587 -5.25473 0
M  V30 3568 O 325.63 -0.326614 -5.68262 0
M  V30 3569 N 326.832 1.56844 -5.5891 0
M  V30 3570 H 329.597 -1.29931 -2.70071 0
M  V30 3571 H 327.158 -0.830181 -1.38995 0
M  V30 3572 H 329.15 0.905228 -3.94446 0
M  V30 3573 H 327.72 1.14377 -2.90924 0
M  V30 3574 H 326.94 -1.19282 -3.7572 0
M  V30 3575 H 328.228 -1.08756 -4.97041 0
M  V30 3576 H 327.626 2.08036 -5.26059 0
M  V30 3577 H 326.183 2.03541 -6.19205 0
M  V30 3578 N 329.616 1.39756 -0.72842 0
M  V30 3579 C 330.563 2.30647 -0.0841519 0
M  V30 3580 C 331.533 1.48869 0.7367 0
M  V30 3581 O 332.718 1.77574 0.698015 0
M  V30 3582 C 329.858 3.35165 0.822091 0
M  V30 3583 C 328.971 4.31999 -0.0106663 0
M  V30 3584 C 328.106 5.23585 0.896241 0
M  V30 3585 C 327.145 6.12072 0.0583381 0
M  V30 3586 N 326.282 6.96035 0.920818 0
M  V30 3587 H 331.122 2.85173 -0.864891 0
M  V30 3588 H 328.659 1.40422 -0.438179 0
M  V30 3589 H 330.617 3.94345 1.36189 0
M  V30 3590 H 329.247 2.8211 1.56888 0
M  V30 3591 H 328.299 3.74492 -0.66781 0
M  V30 3592 H 329.611 4.9443 -0.658825 0
M  V30 3593 H 328.765 5.87759 1.50412 0
M  V30 3594 H 327.504 4.61459 1.57819 0
M  V30 3595 H 326.509 5.46916 -0.562389 0
M  V30 3596 H 327.734 6.76261 -0.6203 0
M  V30 3597 H 325.68 6.36485 1.58818 0
M  V30 3598 H 325.597 7.55284 0.32899 0
M  V30 3599 H 326.865 7.64646 1.51447 0
M  V30 3600 N 331.094 0.475555 1.50254 0
M  V30 3601 C 332.343 -0.0795996 2.01543 0
M  V30 3602 C 332.656 -1.4038 1.36209 0
M  V30 3603 O 333.862 -2.04415 1.7868 0
M  V30 3604 C 332.318 -0.192363 3.59386 0
M  V30 3605 C 331.926 1.12367 4.33679 0
M  V30 3606 C 333.67 -0.699238 4.18701 0
M  V30 3607 C 331.577 0.974453 5.83317 0
M  V30 3608 H 330.507 -0.0335228 0.753254 0
M  V30 3609 H 333.158 0.611128 1.73025 0
M  V30 3610 H 331.54 -0.946974 3.84511 0
M  V30 3611 H 332.714 1.88958 4.20276 0
M  V30 3612 H 331.029 1.562 3.85993 0
M  V30 3613 H 333.626 -0.827978 5.28251 0
M  V30 3614 H 333.969 -1.69171 3.80377 0
M  V30 3615 H 334.502 -0.00188807 3.978 0
M  V30 3616 H 331.241 1.94042 6.26121 0
M  V30 3617 H 330.761 0.248998 5.99283 0
M  V30 3618 H 332.44 0.642867 6.43798 0
M  V30 3619 N 332.573 -1.56217 0.208337 0
M  V30 3620 C 333.819 -1.98242 -0.427552 0
M  V30 3621 C 334.152 -1.09554 -1.60348 0
M  V30 3622 O 333.427 -0.15035 -1.93918 0
M  V30 3623 C 333.71 -3.4931 -0.874907 0
M  V30 3624 C 333.563 -4.48773 0.303751 0
M  V30 3625 C 334.882 -4.04424 -1.73577 0
M  V30 3626 H 332.001 -0.720744 -0.153936 0
M  V30 3627 H 334.643 -1.87586 0.30192 0
M  V30 3628 H 332.793 -3.58522 -1.49648 0
M  V30 3629 H 334.465 -4.51586 0.941682 0
M  V30 3630 H 332.708 -4.23194 0.953375 0
M  V30 3631 H 333.379 -5.51976 -0.0519883 0
M  V30 3632 H 335.855 -3.98075 -1.21143 0
M  V30 3633 H 334.731 -5.1047 -2.01771 0
M  V30 3634 H 334.992 -3.50494 -2.69456 0
M  V30 3635 N 334.051 0.0651679 -1.57465 0
M  V30 3636 C 334.983 1.10359 -2.00882 0
M  V30 3637 C 335.996 1.346 -0.915788 0
M  V30 3638 O 337.185 1.32723 -1.1936 0
M  V30 3639 C 334.285 2.45312 -2.33828 0
M  V30 3640 C 333.458 2.40934 -3.65061 0
M  V30 3641 C 332.517 3.58047 -3.85602 0
M  V30 3642 O 331.543 3.39175 -4.57109 0
M  V30 3643 N 332.745 4.78637 -3.28462 0
M  V30 3644 H 335.51 0.733807 -2.90578 0
M  V30 3645 H 333.071 0.253719 -1.599 0
M  V30 3646 H 335.063 3.22314 -2.44737 0
M  V30 3647 H 333.633 2.74267 -1.49988 0
M  V30 3648 H 332.853 1.49273 -3.64844 0
M  V30 3649 H 334.141 2.35117 -4.51218 0
M  V30 3650 H 333.539 4.96872 -2.70433 0
M  V30 3651 H 332.096 5.53127 -3.44809 0
M  V30 3652 N 335.529 1.53961 0.336706 0
M  V30 3653 C 336.492 1.81724 1.39675 0
M  V30 3654 C 337.492 0.688532 1.45313 0
M  V30 3655 O 338.682 0.956829 1.45569 0
M  V30 3656 C 335.814 1.96543 2.78538 0
M  V30 3657 H 337.007 2.76424 1.16318 0
M  V30 3658 H 334.56 1.45478 0.571474 0
M  V30 3659 H 335.295 1.0401 3.07168 0
M  V30 3660 H 335.08 2.78665 2.75841 0
M  V30 3661 H 336.57 2.19516 3.5525 0
M  V30 3662 N 337.007 -0.598083 1.45811 0
M  V30 3663 C 337.917 -1.73632 1.57763 0
M  V30 3664 C 338.933 -1.67763 0.461676 0
M  V30 3665 O 340.109 -1.87949 0.723685 0
M  V30 3666 C 337.174 -3.10114 1.55018 0
M  V30 3667 C 336.235 -3.27364 2.77726 0
M  V30 3668 C 335.468 -4.57334 2.75102 0
M  V30 3669 O 335.691 -5.40258 1.8297 0
M  V30 3670 O 334.625 -4.77502 3.66437 0
M  V30 3671 H 338.451 -1.66498 2.53992 0
M  V30 3672 H 336.036 -0.763308 1.28429 0
M  V30 3673 H 337.918 -3.9141 1.56129 0
M  V30 3674 H 336.593 -3.17718 0.619431 0
M  V30 3675 H 335.5 -2.45619 2.82174 0
M  V30 3676 H 336.833 -3.24641 3.69958 0
M  V30 3677 N 338.485 -1.33259 -0.841409 0
M  V30 3678 C 339.733 -1.24326 -1.59334 0
M  V30 3679 C 340.054 0.191564 -1.94057 0
M  V30 3680 O 339.324 1.11967 -1.60749 0
M  V30 3681 H 337.904 -0.457174 -0.590763 0
M  V30 3682 H 340.566 -1.66947 -1.00571 0
M  V30 3683 H 339.662 -1.8352 -2.52442 0
M  V30 3684 N 339.963 1.05934 -1.16686 0
M  V30 3685 C 340.873 2.17014 -0.891183 0
M  V30 3686 C 341.889 1.73453 0.137907 0
M  V30 3687 O 343.065 2.01361 -0.039592 0
M  V30 3688 C 340.13 3.44384 -0.400099 0
M  V30 3689 C 339.191 4.02433 -1.49486 0
M  V30 3690 C 338.424 5.23723 -1.02711 0
M  V30 3691 O 338.647 5.7027 0.121716 0
M  V30 3692 O 337.581 5.7382 -1.81699 0
M  V30 3693 H 341.407 2.43113 -1.82015 0
M  V30 3694 H 338.992 1.15541 -0.947132 0
M  V30 3695 H 340.874 4.21189 -0.133392 0
M  V30 3696 H 339.549 3.19802 0.500817 0
M  V30 3697 H 338.456 3.27102 -1.81535 0
M  V30 3698 H 339.789 4.31317 -2.37121 0
M  V30 3699 N 341.441 0.965919 1.2453 0
M  V30 3700 C 342.404 0.499547 2.2369 0
M  V30 3701 C 343.404 -0.40294 1.5567 0
M  V30 3702 O 344.594 -0.19865 1.73064 0
M  V30 3703 C 341.726 -0.276792 3.39774 0
M  V30 3704 H 342.919 1.37613 2.66463 0
M  V30 3705 H 340.472 0.750324 1.37112 0
M  V30 3706 H 341.207 -1.17055 3.02438 0
M  V30 3707 H 340.992 0.370826 3.90343 0
M  V30 3708 H 342.482 -0.592175 4.1338 0
M  V30 3709 N 342.919 -1.39368 0.735821 0
M  V30 3710 C 343.829 -2.34395 0.0979693 0
M  V30 3711 C 344.845 -1.58361 -0.720968 0
M  V30 3712 O 346.021 -1.90648 -0.649245 0
M  V30 3713 C 343.086 -3.37393 -0.797916 0
M  V30 3714 C 342.147 -4.29287 0.0333662 0
M  V30 3715 C 341.38 -5.27365 -0.819854 0
M  V30 3716 O 341.603 -5.31959 -2.05855 0
M  V30 3717 O 340.537 -6.01389 -0.248079 0
M  V30 3718 H 344.363 -2.90601 0.882315 0
M  V30 3719 H 341.948 -1.40909 0.4965 0
M  V30 3720 H 343.83 -4.00505 -1.31048 0
M  V30 3721 H 342.505 -2.83571 -1.56106 0
M  V30 3722 H 341.412 -3.69395 0.591475 0
M  V30 3723 H 342.745 -4.86317 0.758752 0
M  V30 3724 N 344.397 -0.483516 -1.5 0
M  V30 3725 C 345.36 0.292965 -2.2732 0
M  V30 3726 C 346.36 0.909499 -1.32608 0
M  V30 3727 O 347.55 0.776745 -1.55924 0
M  V30 3728 C 344.682 1.41854 -3.09984 0
M  V30 3729 H 345.875 -0.385289 -2.97415 0
M  V30 3730 H 343.428 -0.237942 -1.54478 0
M  V30 3731 H 344.163 2.13148 -2.44414 0
M  V30 3732 H 343.948 0.982114 -3.79601 0
M  V30 3733 H 345.438 1.96597 -3.68429 0
M  V30 3734 N 345.875 1.56104 -0.216619 0
M  V30 3735 C 346.838 2.18819 0.681962 0
M  V30 3736 C 347.838 1.14866 1.12528 0
M  V30 3737 O 349.028 1.40128 1.03488 0
M  V30 3738 C 346.16 2.80756 1.93362 0
M  V30 3739 H 347.353 2.99595 0.135254 0
M  V30 3740 H 344.906 1.56265 0.0330003 0
M  V30 3741 H 345.641 2.03837 2.52232 0
M  V30 3742 H 345.426 3.56876 1.62426 0
M  V30 3743 H 346.916 3.28844 2.57393 0
M  V30 3744 N 347.353 -0.0568162 1.57498 0
M  V30 3745 C 348.3 -1.06591 2.04712 0
M  V30 3746 C 349.27 -1.3758 0.930644 0
M  V30 3747 O 350.455 -1.48392 1.19935 0
M  V30 3748 C 347.595 -2.3701 2.50839 0
M  V30 3749 C 346.708 -2.12421 3.76167 0
M  V30 3750 C 345.843 -3.36511 4.11015 0
M  V30 3751 C 344.882 -3.07353 5.2934 0
M  V30 3752 N 344.019 -4.23816 5.59754 0
M  V30 3753 H 348.859 -0.65631 2.90683 0
M  V30 3754 H 346.396 -0.312481 1.43743 0
M  V30 3755 H 348.354 -3.13175 2.7564 0
M  V30 3756 H 346.984 -2.75744 1.67825 0
M  V30 3757 H 346.036 -1.2688 3.58616 0
M  V30 3758 H 347.348 -1.86894 4.62463 0
M  V30 3759 H 346.502 -4.21062 4.36797 0
M  V30 3760 H 345.241 -3.65128 3.23315 0
M  V30 3761 H 344.246 -2.212 5.03339 0
M  V30 3762 H 345.471 -2.80043 6.1867 0
M  V30 3763 H 343.417 -4.52436 4.75014 0
M  V30 3764 H 343.334 -4.01614 6.40501 0
M  V30 3765 H 344.602 -5.0932 5.90096 0
M  V30 3766 N 348.832 -1.54138 -0.328536 0
M  V30 3767 C 349.765 -1.78014 -1.4278 0
M  V30 3768 C 350.743 -0.629889 -1.49904 0
M  V30 3769 O 351.927 -0.866763 -1.6739 0
M  V30 3770 C 349.054 -1.89225 -2.80912 0
M  V30 3771 C 348.1 -3.11483 -2.91343 0
M  V30 3772 S 348.933 -4.70201 -2.56263 0
M  V30 3773 C 350.089 -4.84312 -3.96476 0
M  V30 3774 H 350.322 -2.70974 -1.22313 0
M  V30 3775 H 347.855 -1.45197 -0.525084 0
M  V30 3776 H 349.813 -1.9637 -3.60485 0
M  V30 3777 H 348.474 -0.972518 -2.98665 0
M  V30 3778 H 347.667 -3.16046 -3.92595 0
M  V30 3779 H 347.269 -3.02642 -2.19736 0
M  V30 3780 H 349.561 -4.66643 -4.91173 0
M  V30 3781 H 350.504 -5.86411 -3.96898 0
M  V30 3782 H 350.912 -4.12652 -3.85199 0
M  V30 3783 N 350.31 0.590341 -1.46126 0
M  V30 3784 C 351.24 1.71032 -1.58966 0
M  V30 3785 C 352.221 1.64302 -0.440335 0
M  V30 3786 O 353.406 1.82436 -0.665634 0
M  V30 3787 C 350.536 3.09665 -1.57241 0
M  V30 3788 C 349.49 3.31221 -2.71066 0
M  V30 3789 C 348.816 4.70303 -2.54399 0
M  V30 3790 C 350.116 3.19796 -4.1295 0
M  V30 3791 H 351.81 1.60543 -2.52718 0
M  V30 3792 H 349.356 0.770933 -1.21625 0
M  V30 3793 H 351.309 3.87831 -1.64819 0
M  V30 3794 H 350.033 3.21036 -0.600289 0
M  V30 3795 H 348.692 2.55452 -2.62944 0
M  V30 3796 H 348.34 4.78429 -1.55288 0
M  V30 3797 H 348.04 4.85679 -3.30741 0
M  V30 3798 H 349.564 5.50647 -2.63857 0
M  V30 3799 H 350.978 3.87815 -4.22223 0
M  V30 3800 H 349.375 3.46696 -4.89818 0
M  V30 3801 H 350.445 2.16983 -4.33643 0
M  V30 3802 N 351.788 1.33704 0.83433 0
M  V30 3803 C 353.036 1.25169 1.58673 0
M  V30 3804 C 353.357 -0.18127 1.94156 0
M  V30 3805 O 352.627 -1.11113 1.6134 0
M  V30 3806 H 351.207 0.4603 0.58833 0
M  V30 3807 H 353.869 1.67478 0.996847 0
M  V30 3808 H 352.965 1.84856 2.51465 0
M  V30 3809 N 353.266 -1.05314 1.17247 0
M  V30 3810 C 354.176 -2.16538 0.90268 0
M  V30 3811 C 355.192 -1.73523 -0.128707 0
M  V30 3812 O 356.368 -2.01337 0.0502701 0
M  V30 3813 C 353.433 -3.44167 0.418356 0
M  V30 3814 C 352.494 -4.01635 1.51618 0
M  V30 3815 C 351.727 -5.23171 1.05487 0
M  V30 3816 O 351.95 -5.70327 -0.0914715 0
M  V30 3817 O 350.884 -5.72848 1.8474 0
M  V30 3818 H 354.71 -2.42145 1.83302 0
M  V30 3819 H 352.295 -1.15037 0.953246 0
M  V30 3820 H 354.177 -4.21112 0.155726 0
M  V30 3821 H 352.852 -3.20063 -0.48385 0
M  V30 3822 H 351.759 -3.26135 1.83268 0
M  V30 3823 H 353.092 -4.30053 2.39405 0
M  V30 3824 N 354.744 -0.972509 -1.24016 0
M  V30 3825 C 355.707 -0.511403 -2.23422 0
M  V30 3826 C 356.707 0.394679 -1.55881 0
M  V30 3827 O 357.897 0.189469 -1.73167 0
M  V30 3828 C 355.029 0.258769 -3.39916 0
M  V30 3829 H 356.222 -1.39024 -2.6573 0
M  V30 3830 H 353.775 -0.757585 -1.36713 0
M  V30 3831 H 354.51 1.1545 -3.03054 0
M  V30 3832 H 354.295 -0.391522 -3.9014 0
M  V30 3833 H 355.785 0.570244 -4.13688 0
M  V30 3834 N 356.222 1.38976 -0.743202 0
M  V30 3835 C 357.152 2.33171 -0.123873 0
M  V30 3836 C 358.133 1.54336 0.71516 0
M  V30 3837 O 359.318 1.82696 0.658467 0
M  V30 3838 C 356.448 3.38474 0.777978 0
M  V30 3839 C 355.402 4.27979 0.0424758 0
M  V30 3840 C 354.728 5.2405 1.06189 0
M  V30 3841 C 356.028 5.10155 -1.1198 0
M  V30 3842 H 357.722 2.85213 -0.910709 0
M  V30 3843 H 355.268 1.37133 -0.439388 0
M  V30 3844 H 357.221 4.03328 1.22084 0
M  V30 3845 H 355.945 2.84891 1.59702 0
M  V30 3846 H 354.604 3.64616 -0.380853 0
M  V30 3847 H 354.252 4.66758 1.87472 0
M  V30 3848 H 353.952 5.84785 0.574485 0
M  V30 3849 H 355.476 5.9178 1.50428 0
M  V30 3850 H 356.89 5.68307 -0.75499 0
M  V30 3851 H 355.287 5.80073 -1.53738 0
M  V30 3852 H 356.357 4.44504 -1.93764 0
M  V30 3853 N 357.7 0.491464 1.49741 0
M  V30 3854 C 358.925 -0.0557177 2.07325 0
M  V30 3855 C 359.35 -1.30925 1.35056 0
M  V30 3856 O 358.708 -1.76733 0.404365 0
M  V30 3857 C 358.756 -0.302074 3.59333 0
M  V30 3858 O 357.86 -1.37868 3.88672 0
M  V30 3859 H 357.201 0.0219956 0.663636 0
M  V30 3860 H 359.731 0.688352 1.92673 0
M  V30 3861 H 359.741 -0.536464 4.04458 0
M  V30 3862 H 358.416 0.61383 4.11345 0
M  V30 3863 H 356.993 -1.12999 3.55367 0
M  V30 3864 N 359.178 -1.55987 0.224894 0
M  V30 3865 C 360.125 -2.20436 -0.68385 0
M  V30 3866 C 361.095 -1.16102 -1.18783 0
M  V30 3867 O 362.28 -1.4447 -1.24632 0
M  V30 3868 C 359.42 -2.89076 -1.88491 0
M  V30 3869 C 358.533 -4.08012 -1.41951 0
M  V30 3870 C 357.668 -4.64426 -2.5784 0
M  V30 3871 C 356.707 -5.75656 -2.08053 0
M  V30 3872 N 355.844 -6.26347 -3.17227 0
M  V30 3873 H 360.684 -2.97727 -0.12754 0
M  V30 3874 H 358.221 -1.47011 -0.0511978 0
M  V30 3875 H 360.179 -3.27059 -2.59014 0
M  V30 3876 H 358.809 -2.14298 -2.41405 0
M  V30 3877 H 357.861 -3.75492 -0.609095 0
M  V30 3878 H 359.173 -4.88375 -1.01447 0
M  V30 3879 H 358.327 -5.04869 -3.3644 0
M  V30 3880 H 357.066 -3.83233 -3.01635 0
M  V30 3881 H 356.071 -5.34712 -1.27916 0
M  V30 3882 H 357.296 -6.58686 -1.65255 0
M  V30 3883 H 355.242 -5.48067 -3.60497 0
M  V30 3884 H 355.159 -7.01843 -2.80986 0
M  V30 3885 H 356.427 -6.71447 -3.95953 0
M  V30 3886 N 360.656 0.0484629 -1.57525 0
M  V30 3887 C 361.604 1.07359 -2.06341 0
M  V30 3888 C 362.598 1.3865 -0.973269 0
M  V30 3889 O 363.804 1.37783 -1.15827 0
M  V30 3890 H 360.179 0.363662 -0.65822 0
M  V30 3891 H 362.15 0.635916 -2.91545 0
M  V30 3892 C 360.899 2.37198 -2.54229 0
M  V30 3893 H 360.222 2.13977 -3.37719 0
M  V30 3894 H 361.662 3.07319 -2.92115 0
M  V30 3895 C 360.121 3.04805 -1.43511 0
M  V30 3896 O 360.651 3.93848 -0.79034 0
M  V30 3897 N 358.857 2.65811 -1.17444 0
M  V30 3898 H 358.404 1.93488 -1.70059 0
M  V30 3899 H 358.362 3.11366 -0.435737 0
M  V30 3900 N 362.134 1.5431 0.320358 0
M  V30 3901 C 363.545 1.63872 0.894594 0
M  V30 3902 C 363.896 0.534847 1.88769 0
M  V30 3903 O 363.021 -0.331732 2.13842 0
M  V30 3904 C 363.616 2.97049 1.62934 0
M  V30 3905 C 362.175 3.08796 2.15226 0
M  V30 3906 C 361.322 2.59456 0.978671 0
M  V30 3907 H 364.273 1.58398 0.0978544 0
M  V30 3908 H 364.294 2.87388 2.49376 0
M  V30 3909 H 363.806 3.7737 0.906302 0
M  V30 3910 H 361.907 2.33156 2.90636 0
M  V30 3911 H 362.02 4.14649 2.40006 0
M  V30 3912 H 360.384 2.1543 1.35875 0
M  V30 3913 H 361.167 3.42237 0.269895 0
M  V30 3914 N 363.613 -0.582584 1.46437 0
M  V30 3915 C 364.861 -1.33814 1.51453 0
M  V30 3916 C 365.182 -1.94277 0.167792 0
M  V30 3917 O 364.452 -1.78566 -0.805677 0
M  V30 3918 H 363.032 -0.496838 0.557818 0
M  V30 3919 H 365.694 -0.682281 1.82568 0
M  V30 3920 H 364.79 -2.14479 2.26728 0
M  V30 3921 N 365.091 -1.34144 -0.827227 0
M  V30 3922 C 366.321 -1.29138 -1.61267 0
M  V30 3923 C 366.729 0.137597 -1.88699 0
M  V30 3924 O 366.072 1.09379 -1.47587 0
M  V30 3925 C 366.134 -2.0097 -2.9808 0
M  V30 3926 C 365.798 -3.50242 -2.93563 0
M  V30 3927 C 366.795 -4.4523 -2.68452 0
M  V30 3928 C 364.48 -3.92592 -3.13331 0
M  V30 3929 C 366.474 -5.80542 -2.63154 0
M  V30 3930 C 364.161 -5.28005 -3.07658 0
M  V30 3931 C 365.159 -6.21792 -2.82602 0
M  V30 3932 O 364.847 -7.54723 -2.76853 0
M  V30 3933 H 364.579 -0.445851 -0.508127 0
M  V30 3934 H 367.133 -1.77263 -1.03763 0
M  V30 3935 H 365.363 -1.47451 -3.57484 0
M  V30 3936 H 367.052 -1.89309 -3.5905 0
M  V30 3937 H 367.818 -4.13832 -2.52919 0
M  V30 3938 H 363.697 -3.19994 -3.31851 0
M  V30 3939 H 367.241 -6.53717 -2.43516 0
M  V30 3940 H 363.138 -5.59023 -3.22743 0
M  V30 3941 H 363.906 -7.64409 -2.92611 0
M  V30 3942 N 366.569 1.04691 -1.17803 0
M  V30 3943 C 367.818 1.77176 -0.963931 0
M  V30 3944 C 368.131 1.88888 0.508015 0
M  V30 3945 O 369.337 2.58164 0.840465 0
M  V30 3946 C 367.793 3.18518 -1.67555 0
M  V30 3947 C 367.401 3.14919 -3.18637 0
M  V30 3948 C 369.145 3.95424 -1.54402 0
M  V30 3949 C 367.052 4.51081 -3.82466 0
M  V30 3950 H 365.982 0.664116 -0.357023 0
M  V30 3951 H 368.633 1.17303 -1.4111 0
M  V30 3952 H 367.015 3.78748 -1.15613 0
M  V30 3953 H 368.189 2.64178 -3.77554 0
M  V30 3954 H 366.504 2.51512 -3.31859 0
M  V30 3955 H 369.101 4.96106 -1.99456 0
M  V30 3956 H 369.444 4.13343 -0.495329 0
M  V30 3957 H 369.977 3.41754 -2.0359 0
M  V30 3958 H 366.716 4.38368 -4.87354 0
M  V30 3959 H 366.236 5.01951 -3.28337 0
M  V30 3960 H 367.915 5.2001 -3.84965 0
M  V30 3961 N 368.047 0.979072 1.23499 0
M  V30 3962 C 368.994 0.517904 2.24914 0
M  V30 3963 C 369.964 -0.442525 1.60097 0
M  V30 3964 O 371.149 -0.350365 1.87556 0
M  V30 3965 C 368.289 -0.174813 3.44657 0
M  V30 3966 C 367.402 0.825721 4.24035 0
M  V30 3967 C 366.537 0.107946 5.3109 0
M  V30 3968 C 365.576 1.09778 6.02175 0
M  V30 3969 N 364.713 0.40925 7.00906 0
M  V30 3970 H 369.553 1.38751 2.63727 0
M  V30 3971 H 367.09 0.695303 1.2963 0
M  V30 3972 H 369.048 -0.593233 4.12961 0
M  V30 3973 H 367.678 -1.0083 3.06648 0
M  V30 3974 H 366.73 1.36253 3.55161 0
M  V30 3975 H 368.042 1.58005 4.73113 0
M  V30 3976 H 367.196 -0.367904 6.05583 0
M  V30 3977 H 365.935 -0.678994 4.8295 0
M  V30 3978 H 364.94 1.5844 5.26476 0
M  V30 3979 H 366.165 1.88536 6.52404 0
M  V30 3980 H 364.111 -0.358506 6.5502 0
M  V30 3981 H 364.028 1.10226 7.47921 0
M  V30 3982 H 365.296 -0.0442557 7.79487 0
M  V30 3983 N 369.525 -1.3858 0.750561 0
M  V30 3984 C 370.455 -2.33102 0.136237 0
M  V30 3985 C 371.436 -1.54713 -0.706965 0
M  V30 3986 O 372.621 -1.83043 -0.648769 0
M  V30 3987 C 369.751 -3.38882 -0.760017 0
M  V30 3988 C 368.705 -4.27995 -0.0197785 0
M  V30 3989 C 368.031 -5.24605 -1.03408 0
M  V30 3990 C 369.331 -5.09554 1.14684 0
M  V30 3991 H 371.025 -2.84726 0.925822 0
M  V30 3992 H 368.571 -1.36898 0.446654 0
M  V30 3993 H 370.524 -4.0397 -1.19943 0
M  V30 3994 H 369.248 -2.85734 -1.58189 0
M  V30 3995 H 367.907 -3.64409 0.400184 0
M  V30 3996 H 367.555 -4.67746 -1.84994 0
M  V30 3997 H 367.255 -5.85081 -0.543464 0
M  V30 3998 H 368.779 -5.9257 -1.47288 0
M  V30 3999 H 370.193 -5.67899 0.785118 0
M  V30 4000 H 368.59 -5.7925 1.56812 0
M  V30 4001 H 369.66 -4.4347 1.96118 0
M  V30 4002 N 371.003 -0.499398 -1.49478 0
M  V30 4003 C 372.419 -0.155261 -1.58843 0
M  V30 4004 C 372.619 1.34008 -1.50479 0
M  V30 4005 O 371.675 2.11589 -1.37791 0
M  V30 4006 C 372.988 -0.730636 -2.91689 0
M  V30 4007 C 374.536 -0.696599 -3.0515 0
M  V30 4008 C 375.011 -1.25001 -4.40612 0
M  V30 4009 N 376.502 -1.21064 -4.47099 0
M  V30 4010 C 377.237 -1.60905 -5.50361 0
M  V30 4011 N 376.733 -2.08331 -6.60735 0
M  V30 4012 N 378.526 -1.52331 -5.41065 0
M  V30 4013 H 370.677 -1.47162 -1.53158 0
M  V30 4014 H 372.94 -0.610309 -0.725415 0
M  V30 4015 H 372.646 -1.77928 -3.03372 0
M  V30 4016 H 372.52 -0.190161 -3.7672 0
M  V30 4017 H 374.907 0.343204 -2.93097 0
M  V30 4018 H 374.988 -1.2742 -2.21806 0
M  V30 4019 H 374.632 -2.28859 -4.53416 0
M  V30 4020 H 374.562 -0.64836 -5.22593 0
M  V30 4021 H 377.053 -0.863128 -3.67911 0
M  V30 4022 H 377.366 -2.36805 -7.35624 0
M  V30 4023 H 375.711 -2.12304 -6.6178 0
M  V30 4024 H 378.902 -1.151 -4.53729 0
M  V30 4025 H 379.075 -1.83704 -6.21415 0
M  V30 4026 N 372.481 1.55866 -0.233164 0
M  V30 4027 C 373.428 2.20796 0.67215 0
M  V30 4028 C 374.398 1.16731 1.18166 0
M  V30 4029 O 375.583 1.45129 1.23864 0
M  V30 4030 C 372.723 2.90072 1.86955 0
M  V30 4031 C 371.836 4.08759 1.39786 0
M  V30 4032 C 370.971 4.65787 2.55374 0
M  V30 4033 C 370.01 5.76752 2.04998 0
M  V30 4034 N 369.147 6.28021 3.13901 0
M  V30 4035 H 373.987 2.9779 0.111749 0
M  V30 4036 H 371.524 1.47036 0.0434007 0
M  V30 4037 H 373.482 3.28428 2.57276 0
M  V30 4038 H 372.112 2.15575 2.40265 0
M  V30 4039 H 371.164 3.7581 0.589173 0
M  V30 4040 H 372.476 4.88906 0.98856 0
M  V30 4041 H 371.63 5.06646 3.33758 0
M  V30 4042 H 370.369 3.84828 2.99598 0
M  V30 4043 H 369.374 5.35383 1.25079 0
M  V30 4044 H 370.599 6.59553 1.61759 0
M  V30 4045 H 368.545 5.49971 3.57586 0
M  V30 4046 H 368.462 7.03323 2.7726 0
M  V30 4047 H 369.73 6.73538 3.92386 0
M  V30 4048 N 373.959 -0.0401083 1.57549 0
M  V30 4049 C 375.208 -0.732108 1.87944 0
M  V30 4050 C 375.521 -1.77107 0.830206 0
M  V30 4051 O 376.727 -2.51488 1.02302 0
M  V30 4052 C 375.183 -1.35315 3.33494 0
M  V30 4053 C 374.791 -0.351105 4.46622 0
M  V30 4054 C 376.535 -2.02566 3.73051 0
M  V30 4055 C 374.442 -0.979859 5.83226 0
M  V30 4056 H 373.372 -0.277188 0.701201 0
M  V30 4057 H 376.023 0.0138501 1.83495 0
M  V30 4058 H 374.405 -2.14844 3.32653 0
M  V30 4059 H 375.579 0.416674 4.58912 0
M  V30 4060 H 373.894 0.218708 4.15825 0
M  V30 4061 H 376.491 -2.50441 4.72423 0
M  V30 4062 H 376.834 -2.83904 3.04474 0
M  V30 4063 H 377.367 -1.29827 3.76018 0
M  V30 4064 H 374.106 -0.206135 6.55176 0
M  V30 4065 H 373.626 -1.71774 5.74677 0
M  V30 4066 H 375.305 -1.49046 6.29599 0
M  V30 4067 N 375.437 -1.54477 -0.31217 0
M  V30 4068 C 376.853 -1.45442 -0.657185 0
M  V30 4069 C 377.053 -0.63653 -1.91182 0
M  V30 4070 O 376.109 -0.139815 -2.52113 0
M  V30 4071 C 377.422 -2.89287 -0.82058 0
M  V30 4072 C 378.97 -2.9926 -0.917188 0
M  V30 4073 C 379.445 -4.44279 -1.11267 0
M  V30 4074 N 380.936 -4.4794 -1.17914 0
M  V30 4075 C 381.671 -5.57318 -1.34848 0
M  V30 4076 N 381.167 -6.76642 -1.48752 0
M  V30 4077 N 382.96 -5.44986 -1.37647 0
M  V30 4078 H 375.111 -2.06129 0.512313 0
M  V30 4079 H 377.374 -0.933088 0.167485 0
M  V30 4080 H 377.08 -3.51687 0.0302604 0
M  V30 4081 H 376.954 -3.36061 -1.71298 0
M  V30 4082 H 379.341 -2.36981 -1.75852 0
M  V30 4083 H 379.422 -2.558 -0.00101257 0
M  V30 4084 H 379.066 -5.07149 -0.27614 0
M  V30 4085 H 378.996 -4.85359 -2.04289 0
M  V30 4086 H 381.487 -3.61969 -1.08567 0
M  V30 4087 H 381.8 -7.55758 -1.61397 0
M  V30 4088 H 380.145 -6.79529 -1.45828 0
M  V30 4089 H 383.336 -4.50715 -1.26388 0
M  V30 4090 H 383.509 -6.3028 -1.50501 0
M  V30 4091 N 376.915 0.57481 -1.46744 0
M  V30 4092 C 377.878 1.66533 -1.57478 0
M  V30 4093 C 378.878 1.54338 -0.451263 0
M  V30 4094 O 380.068 1.58814 -0.715813 0
M  V30 4095 C 377.2 3.05999 -1.50259 0
M  V30 4096 H 378.393 1.58372 -2.54673 0
M  V30 4097 H 375.946 0.793301 -1.34672 0
M  V30 4098 H 376.681 3.19709 -0.543725 0
M  V30 4099 H 376.466 3.16259 -2.31781 0
M  V30 4100 H 377.956 3.8537 -1.60872 0
M  V30 4101 N 378.394 1.34581 0.820102 0
M  V30 4102 C 379.357 1.2628 1.91275 0
M  V30 4103 C 380.357 0.177344 1.59819 0
M  V30 4104 O 381.547 0.430156 1.68806 0
M  V30 4105 C 378.679 0.950327 3.27386 0
M  V30 4106 H 379.872 2.23421 2.00057 0
M  V30 4107 H 377.425 1.1891 1.0144 0
M  V30 4108 H 378.16 -0.0177938 3.24295 0
M  V30 4109 H 377.945 1.73549 3.51601 0
M  V30 4110 H 379.435 0.917492 4.07396 0
M  V30 4111 N 379.872 -1.04064 1.18357 0
M  V30 4112 C 380.804 -2.12114 0.868358 0
M  V30 4113 C 381.817 -1.62247 -0.134045 0
M  V30 4114 O 383.006 -1.78253 0.0937933 0
M  V30 4115 C 380.106 -3.37773 0.276132 0
M  V30 4116 C 379.279 -4.16874 1.3242 0
M  V30 4117 C 378.338 -5.20861 0.747662 0
M  V30 4118 O 377.364 -5.51141 1.42239 0
M  V30 4119 N 378.566 -5.78715 -0.454823 0
M  V30 4120 H 381.331 -2.39748 1.79836 0
M  V30 4121 H 378.892 -1.20258 1.08396 0
M  V30 4122 H 380.884 -4.04513 -0.123133 0
M  V30 4123 H 379.454 -3.07581 -0.557895 0
M  V30 4124 H 378.674 -3.45456 1.89878 0
M  V30 4125 H 379.962 -4.66516 2.03078 0
M  V30 4126 H 379.36 -5.56415 -1.02073 0
M  V30 4127 H 377.917 -6.46921 -0.79601 0
M  V30 4128 N 381.35 -0.985608 -1.22978 0
M  V30 4129 C 382.298 -0.522631 -2.26652 0
M  V30 4130 C 383.292 0.422998 -1.64034 0
M  V30 4131 O 384.498 0.296319 -1.77544 0
M  V30 4132 H 380.873 -0.150597 -0.736766 0
M  V30 4133 H 382.844 -1.40863 -2.63059 0
M  V30 4134 C 381.593 0.154238 -3.47358 0
M  V30 4135 H 380.916 -0.564329 -3.95797 0
M  V30 4136 H 382.356 0.441744 -4.21693 0
M  V30 4137 C 380.815 1.38719 -3.07016 0
M  V30 4138 O 381.345 2.48307 -3.15764 0
M  V30 4139 N 379.551 1.25975 -2.61875 0
M  V30 4140 H 379.098 0.368068 -2.54957 0
M  V30 4141 H 379.056 2.08578 -2.3525 0
M  V30 4142 N 382.828 1.3818 -0.7579 0
M  V30 4143 C 384.077 1.99261 -0.312744 0
M  V30 4144 C 384.39 1.60846 1.11301 0
M  V30 4145 O 385.596 2.14929 1.65885 0
M  V30 4146 C 384.052 3.56294 -0.50821 0
M  V30 4147 C 383.66 4.03657 -1.94333 0
M  V30 4148 C 385.404 4.24313 -0.125982 0
M  V30 4149 C 383.311 5.53347 -2.08712 0
M  V30 4150 H 382.241 0.745456 -0.113185 0
M  V30 4151 H 384.892 1.57889 -0.935056 0
M  V30 4152 H 383.274 3.95575 0.183353 0
M  V30 4153 H 384.448 3.75655 -2.66871 0
M  V30 4154 H 382.763 3.48376 -2.28086 0
M  V30 4155 H 385.36 5.34279 -0.212125 0
M  V30 4156 H 385.703 4.05962 0.921964 0
M  V30 4157 H 386.236 3.90285 -0.769563 0
M  V30 4158 H 382.975 5.76607 -3.11777 0
M  V30 4159 H 382.495 5.83078 -1.4064 0
M  V30 4160 H 384.174 6.19111 -1.87912 0
M  V30 4161 N 384.306 0.507319 1.49211 0
M  V30 4162 C 385.531 -0.033725 2.07373 0
M  V30 4163 C 385.956 -1.29485 1.36437 0
M  V30 4164 O 385.314 -1.76294 0.423087 0
M  V30 4165 C 385.362 -0.263945 3.59633 0
M  V30 4166 O 384.466 -1.33737 3.90113 0
M  V30 4167 H 383.807 0.0290331 0.663365 0
M  V30 4168 H 386.337 0.708749 1.91932 0
M  V30 4169 H 386.347 -0.493536 4.05004 0
M  V30 4170 H 385.022 0.657424 4.10671 0
M  V30 4171 H 383.599 -1.09224 3.56545 0
M  V30 4172 N 385.784 -1.5574 0.241426 0
M  V30 4173 C 386.731 -2.21149 -0.660432 0
M  V30 4174 C 387.701 -1.17356 -1.17545 0
M  V30 4175 O 388.886 -1.45784 -1.23093 0
M  V30 4176 C 386.026 -2.91059 -1.85414 0
M  V30 4177 C 385.139 -4.09495 -1.37616 0
M  V30 4178 C 384.274 -4.67135 -2.529 0
M  V30 4179 C 383.313 -5.77831 -2.01936 0
M  V30 4180 N 382.45 -6.29677 -3.10566 0
M  V30 4181 H 387.29 -2.97845 -0.095955 0
M  V30 4182 H 384.827 -1.47057 -0.0356024 0
M  V30 4183 H 386.785 -3.29788 -2.5553 0
M  V30 4184 H 385.415 -2.16846 -2.39118 0
M  V30 4185 H 384.467 -3.76117 -0.569235 0
M  V30 4186 H 385.779 -4.89423 -0.962618 0
M  V30 4187 H 384.933 -5.08409 -3.31067 0
M  V30 4188 H 383.672 -3.86411 -2.97553 0
M  V30 4189 H 382.677 -5.36039 -1.22238 0
M  V30 4190 H 383.902 -6.60402 -1.58259 0
M  V30 4191 H 381.848 -5.5186 -3.54664 0
M  V30 4192 H 381.765 -7.04783 -2.73526 0
M  V30 4193 H 383.033 -6.75609 -3.88809 0
M  V30 4194 N 387.262 0.0317525 -1.57568 0
M  V30 4195 C 388.49 0.734949 -1.93407 0
M  V30 4196 C 388.905 1.69036 -0.84096 0
M  V30 4197 O 388.262 1.81582 0.182836 0
M  V30 4198 C 388.313 1.49432 -3.29169 0
M  V30 4199 O 388.034 0.577261 -4.3428 0
M  V30 4200 C 389.535 2.29492 -3.79273 0
M  V30 4201 H 386.755 0.206706 -0.638368 0
M  V30 4202 H 389.299 -0.00992046 -2.04498 0
M  V30 4203 H 387.454 2.1911 -3.19483 0
M  V30 4204 H 387.868 1.10952 -5.1263 0
M  V30 4205 H 389.342 2.78172 -4.76785 0
M  V30 4206 H 389.819 3.10794 -3.10328 0
M  V30 4207 H 390.425 1.64894 -3.92033 0
M  V30 4208 N 388.74 1.54641 0.303973 0
M  V30 4209 C 389.989 1.7299 1.03717 0
M  V30 4210 C 390.302 0.521168 1.88529 0
M  V30 4211 O 391.508 0.586408 2.65092 0
M  V30 4212 C 389.964 3.06051 1.89369 0
M  V30 4213 C 389.572 4.34393 1.09574 0
M  V30 4214 C 391.316 3.3376 2.62306 0
M  V30 4215 C 389.223 5.58506 1.94486 0
M  V30 4216 H 388.153 0.64473 0.390947 0
M  V30 4217 H 390.804 1.81124 0.294328 0
M  V30 4218 H 389.186 2.91874 2.67629 0
M  V30 4219 H 390.36 4.59396 0.359485 0
M  V30 4220 H 388.675 4.13597 0.482324 0
M  V30 4221 H 391.272 4.23687 3.26181 0
M  V30 4222 H 391.615 2.52503 3.3098 0
M  V30 4223 H 392.148 3.48894 1.91097 0
M  V30 4224 H 388.887 6.42422 1.30287 0
M  V30 4225 H 388.407 5.37694 2.65792 0
M  V30 4226 H 390.086 5.95651 2.52605 0
M  V30 4227 N 390.218 -0.567019 1.47046 0
M  V30 4228 C 391.181 -1.65696 1.58359 0
M  V30 4229 C 392.181 -1.54097 0.459441 0
M  V30 4230 O 393.371 -1.58432 0.724225 0
M  V30 4231 C 390.503 -3.05197 1.51879 0
M  V30 4232 H 391.696 -1.57019 2.5551 0
M  V30 4233 H 389.249 -0.786148 1.3509 0
M  V30 4234 H 389.984 -3.19417 0.560673 0
M  V30 4235 H 389.769 -3.15025 2.33455 0
M  V30 4236 H 391.259 -3.84511 1.62913 0
M  V30 4237 N 391.696 -1.35014 -0.812953 0
M  V30 4238 C 392.924 -1.31031 -1.6012 0
M  V30 4239 C 393.339 0.113558 -1.88458 0
M  V30 4240 O 392.696 1.06363 -1.48301 0
M  V30 4241 C 392.747 -2.10872 -2.93624 0
M  V30 4242 O 392.468 -3.47706 -2.66518 0
M  V30 4243 C 393.969 -2.14401 -3.88004 0
M  V30 4244 H 391.189 -0.45037 -0.497401 0
M  V30 4245 H 393.733 -1.77775 -1.01076 0
M  V30 4246 H 391.888 -1.67744 -3.492 0
M  V30 4247 H 392.302 -3.89097 -3.51715 0
M  V30 4248 H 393.776 -2.74669 -4.78812 0
M  V30 4249 H 394.253 -1.14105 -4.24119 0
M  V30 4250 H 394.859 -2.57662 -3.38364 0
M  V30 4251 N 393.175 1.03435 -1.18907 0
M  V30 4252 C 394.4 1.80919 -1.01406 0
M  V30 4253 C 394.825 1.83055 0.432721 0
M  V30 4254 O 394.183 1.25252 1.31079 0
M  V30 4255 C 394.231 3.24091 -1.58105 0
M  V30 4256 O 393.335 4.04434 -0.806669 0
M  V30 4257 H 392.676 0.558709 -0.358803 0
M  V30 4258 H 395.206 1.30223 -1.57807 0
M  V30 4259 H 395.216 3.74853 -1.61087 0
M  V30 4260 H 393.891 3.21851 -2.6341 0
M  V30 4261 H 392.468 3.63091 -0.849666 0
M  V30 4262 N 394.653 0.992116 1.22453 0
M  V30 4263 C 395.585 0.500024 2.23679 0
M  V30 4264 C 396.598 -0.404463 1.57696 0
M  V30 4265 O 397.787 -0.206722 1.77299 0
M  V30 4266 C 394.887 -0.294711 3.37616 0
M  V30 4267 C 394.06 0.605723 4.33186 0
M  V30 4268 C 393.119 -0.13717 5.26021 0
M  V30 4269 O 392.145 0.477164 5.67196 0
M  V30 4270 N 393.347 -1.4197 5.62872 0
M  V30 4271 H 396.112 1.37045 2.66531 0
M  V30 4272 H 393.673 0.866741 1.36745 0
M  V30 4273 H 395.665 -0.800329 3.96707 0
M  V30 4274 H 394.235 -1.06623 2.93854 0
M  V30 4275 H 393.455 1.29202 3.72425 0
M  V30 4276 H 394.743 1.21896 4.93983 0
M  V30 4277 H 394.141 -1.94015 5.31389 0
M  V30 4278 H 392.698 -1.87052 6.24383 0
M  V30 4279 N 396.131 -1.37776 0.765217 0
M  V30 4280 C 397.079 -2.32209 0.134798 0
M  V30 4281 C 398.073 -1.54607 -0.692315 0
M  V30 4282 O 399.279 -1.70052 -0.590109 0
M  V30 4283 H 395.654 -0.751591 0.0248005 0
M  V30 4284 H 397.625 -2.8297 0.947119 0
M  V30 4285 C 396.374 -3.39841 -0.735063 0
M  V30 4286 H 395.697 -3.99654 -0.107991 0
M  V30 4287 H 397.137 -4.08296 -1.14326 0
M  V30 4288 C 395.596 -2.79378 -1.88281 0
M  V30 4289 O 396.126 -2.69608 -2.97783 0
M  V30 4290 N 394.332 -2.37016 -1.68142 0
M  V30 4291 H 393.879 -2.45162 -0.790772 0
M  V30 4292 H 393.837 -1.96905 -2.45104 0
M  V30 4293 N 397.609 -0.515225 -1.4894 0
M  V30 4294 C 399.025 -0.172099 -1.58669 0
M  V30 4295 C 399.225 1.32405 -1.51892 0
M  V30 4296 O 398.281 2.10116 -1.40027 0
M  V30 4297 C 399.594 -0.761533 -2.90897 0
M  V30 4298 C 401.142 -0.728926 -3.04394 0
M  V30 4299 C 401.617 -1.29667 -4.39261 0
M  V30 4300 N 403.108 -1.25799 -4.4579 0
M  V30 4301 C 403.843 -1.66733 -5.48623 0
M  V30 4302 N 403.339 -2.15327 -6.58488 0
M  V30 4303 N 405.132 -1.58061 -5.39419 0
M  V30 4304 H 397.283 -1.48778 -1.51588 0
M  V30 4305 H 399.546 -0.617968 -0.718901 0
M  V30 4306 H 399.252 -1.81136 -3.01468 0
M  V30 4307 H 399.126 -0.230106 -3.76497 0
M  V30 4308 H 401.513 0.312098 -2.93445 0
M  V30 4309 H 401.594 -1.29766 -2.20442 0
M  V30 4310 H 401.238 -2.33655 -4.50963 0
M  V30 4311 H 401.168 -0.703752 -5.21876 0
M  V30 4312 H 403.659 -0.902102 -3.66975 0
M  V30 4313 H 403.972 -2.44594 -7.33071 0
M  V30 4314 H 402.317 -2.19311 -6.59491 0
M  V30 4315 H 405.508 -1.19906 -4.52482 0
M  V30 4316 H 405.681 -1.90284 -6.19432 0
M  V30 4317 N 399.087 1.5561 -0.249682 0
M  V30 4318 C 400.336 1.98187 0.37479 0
M  V30 4319 C 400.649 1.14111 1.58865 0
M  V30 4320 O 401.855 1.46714 2.28445 0
M  V30 4321 C 400.311 3.52661 0.718192 0
M  V30 4322 C 399.919 4.45481 -0.474428 0
M  V30 4323 C 401.663 4.03888 1.3067 0
M  V30 4324 C 399.57 5.91303 -0.107026 0
M  V30 4325 H 398.5 0.740159 0.143808 0
M  V30 4326 H 401.151 1.80125 -0.350336 0
M  V30 4327 H 399.533 3.66429 1.50152 0
M  V30 4328 H 400.707 4.43473 -1.25172 0
M  V30 4329 H 399.022 4.04751 -0.978052 0
M  V30 4330 H 401.619 5.10358 1.59496 0
M  V30 4331 H 401.962 3.51401 2.23211 0
M  V30 4332 H 402.495 3.93457 0.586211 0
M  V30 4333 H 399.234 6.47833 -0.999642 0
M  V30 4334 H 398.754 5.9644 0.634013 0
M  V30 4335 H 400.433 6.46258 0.309807 0
M  V30 4336 N 400.565 -0.0233959 1.57583 0
M  V30 4337 C 401.795 -0.723631 1.93513 0
M  V30 4338 C 402.203 -1.69115 0.848333 0
M  V30 4339 O 401.546 -1.82781 -0.183484 0
M  V30 4340 C 401.608 -1.53075 3.25282 0
M  V30 4341 C 401.272 -0.727388 4.51174 0
M  V30 4342 C 402.269 -0.0251924 5.19894 0
M  V30 4343 C 399.954 -0.680256 4.97672 0
M  V30 4344 C 401.948 0.713374 6.33395 0
M  V30 4345 C 399.635 0.0620523 6.11068 0
M  V30 4346 C 400.633 0.757622 6.78785 0
M  V30 4347 O 400.321 1.48787 7.90011 0
M  V30 4348 H 400.053 -0.208051 0.643188 0
M  V30 4349 H 402.607 0.0167489 2.05393 0
M  V30 4350 H 400.837 -2.31508 3.09744 0
M  V30 4351 H 402.526 -2.11413 3.46496 0
M  V30 4352 H 403.292 -0.0526003 4.84971 0
M  V30 4353 H 399.171 -1.21116 4.44805 0
M  V30 4354 H 402.715 1.25683 6.86185 0
M  V30 4355 H 398.612 0.0913634 6.45435 0
M  V30 4356 H 399.38 1.40213 8.06401 0
M  V30 4357 N 402.043 -1.548 -0.295768 0
M  V30 4358 C 402.973 -1.89115 -1.36959 0
M  V30 4359 C 403.954 -0.75059 -1.52644 0
M  V30 4360 O 405.139 -1.00678 -1.66065 0
M  V30 4361 C 402.269 -2.14307 -2.73295 0
M  V30 4362 C 401.223 -3.30151 -2.72368 0
M  V30 4363 C 400.549 -3.40772 -4.12042 0
M  V30 4364 C 401.849 -4.67126 -2.33646 0
M  V30 4365 H 403.543 -2.79053 -1.08488 0
M  V30 4366 H 401.089 -1.34266 -0.520443 0
M  V30 4367 H 403.042 -2.36898 -3.48507 0
M  V30 4368 H 401.766 -1.21145 -3.03301 0
M  V30 4369 H 400.425 -3.0749 -1.99613 0
M  V30 4370 H 400.073 -2.45117 -4.39234 0
M  V30 4371 H 399.773 -4.18645 -4.12322 0
M  V30 4372 H 401.297 -3.6563 -4.89027 0
M  V30 4373 H 402.711 -4.89414 -2.98575 0
M  V30 4374 H 401.108 -5.47751 -2.45129 0
M  V30 4375 H 402.178 -4.67489 -1.28772 0
M  V30 4376 N 403.521 0.559213 -1.47345 0
M  V30 4377 C 404.749 1.34194 -1.57479 0
M  V30 4378 C 405.164 1.87463 -0.224261 0
M  V30 4379 O 404.521 1.64888 0.782185 0
M  V30 4380 C 404.572 2.51324 -2.59843 0
M  V30 4381 O 404.293 2.00256 -3.89653 0
M  V30 4382 C 405.794 3.43563 -2.80142 0
M  V30 4383 H 403.014 0.409136 -0.531835 0
M  V30 4384 H 405.558 0.677609 -1.92947 0
M  V30 4385 H 403.713 3.13699 -2.27314 0
M  V30 4386 H 404.127 2.76708 -4.4557 0
M  V30 4387 H 405.601 4.2217 -3.55635 0
M  V30 4388 H 406.078 3.9698 -1.87892 0
M  V30 4389 H 406.684 2.87005 -3.1386 0
M  V30 4390 N 404.999 1.35443 0.805782 0
M  V30 4391 C 405.962 1.28301 1.89925 0
M  V30 4392 C 406.962 0.194285 1.59622 0
M  V30 4393 O 408.152 0.448036 1.6834 0
M  V30 4394 C 405.284 0.984997 3.2636 0
M  V30 4395 H 406.477 2.2553 1.97677 0
M  V30 4396 H 404.03 1.19979 1.00173 0
M  V30 4397 H 404.765 0.016603 3.24296 0
M  V30 4398 H 404.55 1.77269 3.4974 0
M  V30 4399 H 406.04 0.960651 4.064 0
M  V30 4400 N 406.477 -1.02803 1.19454 0
M  V30 4401 C 407.754 -1.73299 0.907013 0
M  V30 4402 C 408.134 -2.02772 -0.587086 0
M  V30 4403 O 407.482 -1.68304 -1.54551 0
M  V30 4404 C 407.692 -3.00912 1.76785 0
M  V30 4405 C 409.04 -3.74403 2.00268 0
M  V30 4406 O 410.064 -3.10841 1.73943 0
M  V30 4407 O 408.923 -4.88675 2.4466 0
M  V30 4408 H 406.017 -0.754727 0.338106 0
M  V30 4409 H 408.563 -1.08754 1.30271 0
M  V30 4410 H 407.335 -2.75366 2.7801 0
M  V30 4411 H 406.958 -3.73197 1.37149 0
M  V30 4412 N 407.956 -0.998596 -1.21925 0
M  V30 4413 C 408.904 -0.546641 -2.26085 0
M  V30 4414 C 409.898 0.405576 -1.64473 0
M  V30 4415 O 411.104 0.277471 -1.77849 0
M  V30 4416 H 407.479 -0.158403 -0.735127 0
M  V30 4417 H 409.45 -1.43645 -2.61551 0
M  V30 4418 C 408.199 0.117388 -3.47502 0
M  V30 4419 H 407.522 -0.606277 -3.95176 0
M  V30 4420 H 408.962 0.396993 -4.22137 0
M  V30 4421 C 407.421 1.35455 -3.0847 0
M  V30 4422 O 407.951 2.44944 -3.18379 0
M  V30 4423 N 406.157 1.23191 -2.63196 0
M  V30 4424 H 405.704 0.341006 -2.55333 0
M  V30 4425 H 405.662 2.06071 -2.37449 0
M  V30 4426 N 409.434 1.37368 -0.772513 0
M  V30 4427 C 410.364 2.32856 -0.173304 0
M  V30 4428 C 411.345 1.55818 0.682262 0
M  V30 4429 O 412.53 1.84052 0.619566 0
M  V30 4430 C 409.66 3.40048 0.706007 0
M  V30 4431 C 408.614 4.27973 -0.0483144 0
M  V30 4432 C 407.94 5.26184 0.950491 0
M  V30 4433 C 409.24 5.07665 -1.22776 0
M  V30 4434 H 410.934 2.83217 -0.971002 0
M  V30 4435 H 408.48 1.3617 -0.468377 0
M  V30 4436 H 410.433 4.05827 1.13501 0
M  V30 4437 H 409.157 2.88214 1.53623 0
M  V30 4438 H 407.816 3.63726 -0.458107 0
M  V30 4439 H 407.464 4.7063 1.77529 0
M  V30 4440 H 407.164 5.85872 0.450314 0
M  V30 4441 H 408.688 5.94838 1.37842 0
M  V30 4442 H 410.102 5.66578 -0.875366 0
M  V30 4443 H 408.499 5.76681 -1.66007 0
M  V30 4444 H 409.569 4.40294 -2.03149 0
M  V30 4445 N 410.912 0.523116 1.48665 0
M  V30 4446 C 412.158 -0.0134963 2.02796 0
M  V30 4447 C 412.491 -1.34582 1.40004 0
M  V30 4448 O 411.766 -1.86756 0.543381 0
M  V30 4449 C 412.049 -0.14276 3.59817 0
M  V30 4450 C 411.902 1.21425 4.331 0
M  V30 4451 C 413.221 -0.872856 4.31357 0
M  V30 4452 H 410.34 -0.00343074 0.736992 0
M  V30 4453 H 412.982 0.678816 1.7746 0
M  V30 4454 H 411.132 -0.732401 3.81534 0
M  V30 4455 H 412.804 1.84447 4.2282 0
M  V30 4456 H 411.047 1.79791 3.94788 0
M  V30 4457 H 411.718 1.07687 5.41394 0
M  V30 4458 H 414.194 -0.372555 4.14429 0
M  V30 4459 H 413.07 -0.932185 5.40927 0
M  V30 4460 H 413.331 -1.92161 3.98154 0
M  V30 4461 N 412.39 -1.55475 0.257931 0
M  V30 4462 C 413.32 -2.24815 -0.630912 0
M  V30 4463 C 414.301 -1.23224 -1.17259 0
M  V30 4464 O 415.486 -1.51904 -1.20991 0
M  V30 4465 C 412.616 -2.95609 -1.82298 0
M  V30 4466 C 411.57 -4.03982 -1.41359 0
M  V30 4467 C 410.896 -4.6226 -2.68738 0
M  V30 4468 C 412.196 -5.19109 -0.57648 0
M  V30 4469 H 413.89 -2.99354 -0.0526878 0
M  V30 4470 H 411.436 -1.4398 -0.023901 0
M  V30 4471 H 413.389 -3.42822 -2.45054 0
M  V30 4472 H 412.113 -2.18577 -2.42676 0
M  V30 4473 H 410.772 -3.57555 -0.809324 0
M  V30 4474 H 410.42 -3.81915 -3.27338 0
M  V30 4475 H 410.12 -5.35424 -2.42065 0
M  V30 4476 H 411.644 -5.12212 -3.32372 0
M  V30 4477 H 413.058 -5.62479 -1.10861 0
M  V30 4478 H 411.455 -5.98729 -0.405351 0
M  V30 4479 H 412.525 -4.83174 0.408776 0
M  V30 4480 N 413.868 0.0150385 -1.57593 0
M  V30 4481 C 414.816 1.02958 -2.08572 0
M  V30 4482 C 415.81 1.36554 -1.00246 0
M  V30 4483 O 417.016 1.35295 -1.18724 0
M  V30 4484 H 413.391 0.349619 -0.665786 0
M  V30 4485 H 415.362 0.573932 -2.92829 0
M  V30 4486 C 414.111 2.31752 -2.59203 0
M  V30 4487 H 413.434 2.06765 -3.42182 0
M  V30 4488 H 414.874 3.01053 -2.98568 0
M  V30 4489 C 413.333 3.01692 -1.49945 0
M  V30 4490 O 413.863 3.92083 -0.873704 0
M  V30 4491 N 412.069 2.6326 -1.23056 0
M  V30 4492 H 411.616 1.89838 -1.74125 0
M  V30 4493 H 411.574 3.10372 -0.501685 0
M  V30 4494 N 415.346 1.54954 0.287554 0
M  V30 4495 C 416.276 1.89839 1.35954 0
M  V30 4496 C 417.257 0.758675 1.52244 0
M  V30 4497 O 418.442 1.01557 1.65529 0
M  V30 4498 C 415.572 2.15753 2.72154 0
M  V30 4499 C 414.526 3.3159 2.70614 0
M  V30 4500 C 413.852 3.42952 4.10229 0
M  V30 4501 C 415.152 4.68359 2.31165 0
M  V30 4502 H 416.846 2.79625 1.07007 0
M  V30 4503 H 414.392 1.3454 0.513316 0
M  V30 4504 H 416.345 2.38743 3.47246 0
M  V30 4505 H 415.069 1.22752 3.02654 0
M  V30 4506 H 413.728 3.08545 1.97979 0
M  V30 4507 H 413.376 2.47443 4.37928 0
M  V30 4508 H 413.076 4.20826 4.10097 0
M  V30 4509 H 414.6 3.68218 4.87081 0
M  V30 4510 H 416.014 4.9099 2.95976 0
M  V30 4511 H 414.411 5.49044 2.42221 0
M  V30 4512 H 415.481 4.68165 1.26291 0
M  V30 4513 N 416.824 -0.551391 1.4764 0
M  V30 4514 C 417.756 -1.67333 1.56628 0
M  V30 4515 C 418.769 -1.56398 0.452045 0
M  V30 4516 O 419.958 -1.6325 0.721926 0
M  V30 4517 C 417.058 -3.05841 1.45994 0
M  V30 4518 C 416.231 -3.42472 2.72088 0
M  V30 4519 C 415.29 -4.60168 2.55209 0
M  V30 4520 O 414.316 -4.64458 3.2904 0
M  V30 4521 N 415.518 -5.57024 1.63416 0
M  V30 4522 H 418.283 -1.60066 2.53375 0
M  V30 4523 H 415.844 -0.738169 1.44093 0
M  V30 4524 H 417.836 -3.8242 1.32428 0
M  V30 4525 H 416.406 -3.07302 0.573071 0
M  V30 4526 H 415.626 -2.55284 3.00373 0
M  V30 4527 H 416.914 -3.63723 3.55785 0
M  V30 4528 H 416.312 -5.56319 1.02594 0
M  V30 4529 H 414.869 -6.32906 1.558 0
M  V30 4530 N 418.302 -1.35869 -0.798587 0
M  V30 4531 C 419.579 -1.20145 -1.54352 0
M  V30 4532 C 419.959 0.216161 -2.0999 0
M  V30 4533 O 419.307 1.22068 -1.93162 0
M  V30 4534 C 419.517 -2.27602 -2.64572 0
M  V30 4535 C 420.865 -2.63811 -3.32699 0
M  V30 4536 O 421.889 -2.26576 -2.74849 0
M  V30 4537 O 420.748 -3.27866 -4.37226 0
M  V30 4538 H 417.842 -0.467248 -0.682355 0
M  V30 4539 H 420.388 -1.47574 -0.837859 0
M  V30 4540 H 419.16 -3.2265 -2.21388 0
M  V30 4541 H 418.783 -2.01488 -3.42766 0
M  V30 4542 N 419.78 1.02168 -1.19998 0
M  V30 4543 C 420.69 2.14069 -0.959774 0
M  V30 4544 C 421.706 1.73804 0.082655 0
M  V30 4545 O 422.882 2.01133 -0.103633 0
M  V30 4546 C 419.947 3.42936 -0.509459 0
M  V30 4547 C 419.008 3.97474 -1.62213 0
M  V30 4548 C 418.241 5.2019 -1.19321 0
M  V30 4549 O 418.464 5.70369 -0.0597726 0
M  V30 4550 O 417.398 5.67749 -1.99863 0
M  V30 4551 H 421.224 2.37199 -1.89658 0
M  V30 4552 H 418.809 1.12469 -0.983411 0
M  V30 4553 H 420.691 4.20551 -0.267322 0
M  V30 4554 H 419.366 3.21234 0.398821 0
M  V30 4555 H 418.273 3.21161 -1.9185 0
M  V30 4556 H 419.606 4.23555 -2.50723 0
M  V30 4557 N 421.258 1.00505 1.21394 0
M  V30 4558 C 422.483 0.706367 1.95001 0
M  V30 4559 C 422.908 -0.72463 1.73582 0
M  V30 4560 O 422.266 -1.49702 1.0227 0
M  V30 4561 C 422.314 1.03299 3.45487 0
M  V30 4562 O 421.418 0.138275 4.12168 0
M  V30 4563 H 420.759 0.263175 0.609619 0
M  V30 4564 H 423.289 1.34531 1.54151 0
M  V30 4565 H 423.299 0.979872 3.96059 0
M  V30 4566 H 421.974 2.07567 3.60401 0
M  V30 4567 H 420.551 0.247928 3.72075 0
M  V30 4568 N 422.737 -1.36956 0.779787 0
M  V30 4569 C 423.984 -1.99491 0.347766 0
M  V30 4570 C 424.312 -1.61898 -1.07793 0
M  V30 4571 O 423.567 -0.86071 -1.75756 0
M  V30 4572 C 423.866 -3.54585 0.447686 0
M  V30 4573 C 423.532 -4.1197 1.83279 0
M  V30 4574 C 422.194 -4.27356 2.2118 0
M  V30 4575 C 424.546 -4.43354 2.74019 0
M  V30 4576 C 421.874 -4.71432 3.4924 0
M  V30 4577 C 424.226 -4.88858 4.01497 0
M  V30 4578 C 422.89 -5.0245 4.39432 0
M  V30 4579 H 422.16 -0.729991 0.127257 0
M  V30 4580 H 424.807 -1.63599 0.995376 0
M  V30 4581 H 423.112 -3.90773 -0.283447 0
M  V30 4582 H 424.809 -4.00888 0.0945948 0
M  V30 4583 H 421.399 -4.00428 1.52825 0
M  V30 4584 H 425.583 -4.31045 2.45995 0
M  V30 4585 H 420.839 -4.80141 3.78516 0
M  V30 4586 H 425.013 -5.12108 4.71931 0
M  V30 4587 H 422.64 -5.36362 5.38721 0
M  V30 4588 N 424.215 -0.530993 -1.48385 0
M  V30 4589 C 425.443 -0.00134122 -2.069 0
M  V30 4590 C 425.858 1.2805 -1.3874 0
M  V30 4591 O 425.215 1.76204 -0.475244 0
M  V30 4592 C 425.266 0.225256 -3.60798 0
M  V30 4593 O 424.987 -1.0058 -4.26398 0
M  V30 4594 C 426.488 0.795172 -4.3611 0
M  V30 4595 H 423.708 -0.0339704 -0.67014 0
M  V30 4596 H 426.252 -0.736926 -1.90761 0
M  V30 4597 H 424.407 0.910891 -3.76539 0
M  V30 4598 H 424.821 -0.787165 -5.1856 0
M  V30 4599 H 426.295 0.903143 -5.44562 0
M  V30 4600 H 426.772 1.80031 -4.00606 0
M  V30 4601 H 427.378 0.146069 -4.25049 0
M  V30 4602 N 425.693 1.55336 -0.266172 0
M  V30 4603 C 427.109 1.59356 0.0882065 0
M  V30 4604 C 427.309 1.2834 1.55342 0
M  V30 4605 O 426.365 1.03996 2.30089 0
M  V30 4606 C 427.678 2.99409 -0.278364 0
M  V30 4607 C 429.226 3.12196 -0.224243 0
M  V30 4608 C 429.701 4.545 -0.565123 0
M  V30 4609 N 431.192 4.60313 -0.51634 0
M  V30 4610 C 431.927 5.68434 -0.753013 0
M  V30 4611 N 431.423 6.84738 -1.05383 0
M  V30 4612 N 433.216 5.57942 -0.682414 0
M  V30 4613 H 425.367 1.73764 -1.22147 0
M  V30 4614 H 427.63 0.809822 -0.492841 0
M  V30 4615 H 427.336 3.2691 -1.29703 0
M  V30 4616 H 427.21 3.75228 0.385186 0
M  V30 4617 H 429.597 2.84464 0.78512 0
M  V30 4618 H 429.678 2.38609 -0.921922 0
M  V30 4619 H 429.322 4.82956 -1.57213 0
M  V30 4620 H 429.252 5.26374 0.154248 0
M  V30 4621 H 431.743 3.7676 -0.29335 0
M  V30 4622 H 432.056 7.63088 -1.22133 0
M  V30 4623 H 430.401 6.86375 -1.09151 0
M  V30 4624 H 433.592 4.65958 -0.44731 0
M  V30 4625 H 433.765 6.4213 -0.870248 0
M  V30 4626 N 427.171 -0.0066808 1.57599 0
M  V30 4627 C 428.419 -0.691552 1.899 0
M  V30 4628 C 428.74 -1.74682 0.866672 0
M  V30 4629 O 428.01 -1.95661 -0.0968189 0
M  V30 4630 H 426.59 -0.258416 0.700878 0
M  V30 4631 H 429.252 0.0326655 1.94873 0
M  V30 4632 H 428.348 -1.16702 2.8946 0
M  V30 4633 N 428.649 -1.55105 -0.279332 0
M  V30 4634 C 429.874 -1.7976 -1.03446 0
M  V30 4635 C 430.299 -0.565952 -1.79384 0
M  V30 4636 O 429.657 0.484259 -1.74713 0
M  V30 4637 C 429.705 -3.0179 -1.97371 0
M  V30 4638 O 428.809 -2.76432 -3.06038 0
M  V30 4639 H 428.15 -0.594334 -0.29608 0
M  V30 4640 H 430.68 -2.02235 -0.310165 0
M  V30 4641 H 430.69 -3.30351 -2.39441 0
M  V30 4642 H 429.365 -3.91085 -1.4151 0
M  V30 4643 H 427.942 -2.58949 -2.68328 0
M  V30 4644 N 430.127 0.543554 -1.4793 0
M  V30 4645 C 431.404 1.30458 -1.4574 0
M  V30 4646 C 431.784 2.1048 -0.161692 0
M  V30 4647 O 431.132 2.11831 0.856734 0
M  V30 4648 C 431.342 2.19754 -2.71126 0
M  V30 4649 C 432.69 2.80334 -3.18901 0
M  V30 4650 O 433.714 2.30049 -2.71948 0
M  V30 4651 O 432.573 3.71766 -4.00565 0
M  V30 4652 H 429.667 0.588117 -0.581418 0
M  V30 4653 H 432.213 0.561328 -1.60147 0
M  V30 4654 H 430.985 1.60316 -3.56952 0
M  V30 4655 H 430.608 3.01351 -2.59371 0
M  V30 4656 N 431.605 1.3629 0.791371 0
M  V30 4657 C 432.83 1.33726 1.58531 0
M  V30 4658 C 433.255 -0.0794933 1.87932 0
M  V30 4659 O 432.613 -1.05087 1.47738 0
M  V30 4660 C 432.661 2.16425 2.88431 0
M  V30 4661 O 431.765 1.5554 3.81944 0
M  V30 4662 H 431.106 0.457793 0.480959 0
M  V30 4663 H 433.636 1.79547 0.981031 0
M  V30 4664 H 433.646 2.28933 3.37718 0
M  V30 4665 H 432.321 3.19415 2.66359 0
M  V30 4666 H 430.898 1.51961 3.40532 0
M  V30 4667 N 433.083 -1.0153 1.20538 0
M  V30 4668 C 434.013 -2.11972 0.979295 0
M  V30 4669 C 434.994 -1.6985 -0.0921787 0
M  V30 4670 O 436.179 -1.94089 0.0655932 0
M  V30 4671 C 433.309 -3.43201 0.531984 0
M  V30 4672 C 432.263 -3.9907 1.54685 0
M  V30 4673 C 431.589 -5.26082 0.956127 0
M  V30 4674 C 432.889 -4.32313 2.93092 0
M  V30 4675 H 434.583 -2.31143 1.90298 0
M  V30 4676 H 432.129 -1.11079 0.916372 0
M  V30 4677 H 434.082 -4.1985 0.361044 0
M  V30 4678 H 432.806 -3.23792 -0.427327 0
M  V30 4679 H 431.465 -3.2453 1.70517 0
M  V30 4680 H 431.113 -5.02999 -0.0111538 0
M  V30 4681 H 430.813 -5.64426 1.63393 0
M  V30 4682 H 432.337 -6.05386 0.796284 0
M  V30 4683 H 433.751 -4.99845 2.80763 0
M  V30 4684 H 432.148 -4.81774 3.57791 0
M  V30 4685 H 433.218 -3.41025 3.44717 0
M  V30 4686 N 434.561 -1.01147 -1.20859 0
M  V30 4687 C 435.81 -0.693214 -1.89413 0
M  V30 4688 C 436.123 0.779969 -1.79376 0
M  V30 4689 O 437.329 1.21057 -2.43017 0
M  V30 4690 C 435.785 -1.18949 -3.39675 0
M  V30 4691 C 435.393 -2.68921 -3.58309 0
M  V30 4692 C 437.137 -0.94642 -4.13815 0
M  V30 4693 C 435.044 -3.12056 -5.0237 0
M  V30 4694 H 433.974 -0.255595 -0.709357 0
M  V30 4695 H 436.625 -1.22349 -1.36759 0
M  V30 4696 H 435.007 -0.587228 -3.91622 0
M  V30 4697 H 436.181 -3.34652 -3.16772 0
M  V30 4698 H 434.496 -2.91314 -2.97532 0
M  V30 4699 H 437.093 -1.24417 -5.20023 0
M  V30 4700 H 437.436 0.117219 -4.16135 0
M  V30 4701 H 437.969 -1.5118 -3.67953 0
M  V30 4702 H 434.708 -4.17674 -5.05202 0
M  V30 4703 H 434.228 -2.51041 -5.44737 0
M  V30 4704 H 435.907 -3.04403 -5.70918 0
M  V30 4705 N 436.039 1.36541 -0.78704 0
M  V30 4706 C 436.986 2.30082 -0.181901 0
M  V30 4707 C 437.956 1.5186 0.672896 0
M  V30 4708 O 439.141 1.80374 0.622072 0
M  V30 4709 C 436.281 3.3835 0.679197 0
M  V30 4710 C 435.394 4.31565 -0.193882 0
M  V30 4711 C 434.529 5.26915 0.673364 0
M  V30 4712 C 433.568 6.11769 -0.201315 0
M  V30 4713 N 432.705 6.99315 0.624777 0
M  V30 4714 H 437.545 2.81248 -0.985064 0
M  V30 4715 H 435.082 1.38437 -0.497342 0
M  V30 4716 H 437.04 3.99767 1.19341 0
M  V30 4717 H 435.67 2.8851 1.44781 0
M  V30 4718 H 434.722 3.71323 -0.826044 0
M  V30 4719 H 436.034 4.91191 -0.867937 0
M  V30 4720 H 435.188 5.9361 1.25348 0
M  V30 4721 H 433.927 4.67737 1.38105 0
M  V30 4722 H 432.932 5.44039 -0.793849 0
M  V30 4723 H 434.157 6.73022 -0.906568 0
M  V30 4724 H 432.103 6.42648 1.3168 0
M  V30 4725 H 432.02 7.56 0.00835237 0
M  V30 4726 H 433.288 7.70382 1.18879 0
M  V30 4727 N 437.518 0.538854 1.48102 0
M  V30 4728 C 438.766 0.00798599 2.02098 0
M  V30 4729 C 439.087 -1.33922 1.41739 0
M  V30 4730 O 438.357 -1.86932 0.585934 0
M  V30 4731 H 436.937 -3.62179e-05 0.747 0
M  V30 4732 H 439.599 0.7047 1.81714 0
M  V30 4733 H 438.695 -0.0937672 3.11959 0
M  V30 4734 N 438.996 -1.55193 0.274407 0
M  V30 4735 C 439.943 -2.225 -0.613374 0
M  V30 4736 C 440.913 -1.19823 -1.15029 0
M  V30 4737 O 442.098 -1.48362 -1.19973 0
M  V30 4738 C 439.238 -2.94927 -1.79199 0
M  V30 4739 C 438.351 -4.12322 -1.28899 0
M  V30 4740 C 437.486 -4.72394 -2.42934 0
M  V30 4741 C 436.525 -5.81984 -1.89634 0
M  V30 4742 N 435.662 -6.36123 -2.9714 0
M  V30 4743 H 440.502 -2.97982 -0.032756 0
M  V30 4744 H 438.039 -1.47099 -0.00440146 0
M  V30 4745 H 439.997 -3.35134 -2.48478 0
M  V30 4746 H 438.627 -2.2187 -2.34465 0
M  V30 4747 H 437.679 -3.7724 -0.489327 0
M  V30 4748 H 438.991 -4.91355 -0.858587 0
M  V30 4749 H 438.145 -5.15317 -3.20208 0
M  V30 4750 H 436.884 -3.92636 -2.8929 0
M  V30 4751 H 435.889 -5.38511 -1.1084 0
M  V30 4752 H 437.114 -6.6361 -1.44215 0
M  V30 4753 H 435.06 -5.59259 -3.42878 0
M  V30 4754 H 434.977 -7.10427 -2.58515 0
M  V30 4755 H 436.245 -6.83704 -3.74391 0
M  V30 4756 N 440.474 -0.00167713 -1.576 0
M  V30 4757 C 441.421 0.989195 -2.08527 0
M  V30 4758 C 442.391 1.34031 -0.981065 0
M  V30 4759 O 443.576 1.43839 -1.2536 0
M  V30 4760 C 440.716 2.27537 -2.59463 0
M  V30 4761 C 439.829 1.98314 -3.83791 0
M  V30 4762 C 438.964 3.21025 -4.23222 0
M  V30 4763 C 438.003 2.87495 -5.40382 0
M  V30 4764 N 437.14 4.02749 -5.75098 0
M  V30 4765 H 441.98 0.547973 -2.92919 0
M  V30 4766 H 439.517 0.258917 -1.44803 0
M  V30 4767 H 441.475 3.02729 -2.87073 0
M  V30 4768 H 440.105 2.69325 -1.77943 0
M  V30 4769 H 439.157 1.13482 -3.63078 0
M  V30 4770 H 440.469 1.69601 -4.69081 0
M  V30 4771 H 439.623 4.04561 -4.52123 0
M  V30 4772 H 438.362 3.52877 -3.36644 0
M  V30 4773 H 437.367 2.02367 -5.11202 0
M  V30 4774 H 438.592 2.56889 -6.28637 0
M  V30 4775 H 436.538 4.34494 -4.91478 0
M  V30 4776 H 436.455 3.77566 -6.54966 0
M  V30 4777 H 437.723 4.87068 -6.08592 0
M  V30 4778 O 441.991 1.60887 0.140552 0
M  V30 4779 H 442.682 1.77558 0.77413 0
M  V30 END ATOM
M  V30 BEGIN BOND
M  V30 END BOND
M  V30 END CTAB
M  END
$$$$
