drugbank_target|P0ADA1 Acyl-CoA thioesterase I (DB02364; DB03366; DB04519)
 OpenBabel12092120033D

  0  0  0     0  0            999 V3000
M  V30 BEGIN CTAB
M  V30 COUNTS 3326 3371 0 0 0
M  V30 BEGIN ATOM
M  V30 1 H -0.908 1.98254 -0.117106 0
M  V30 2 N 0 1.576 0 0
M  V30 3 C 0.933 2.03868 1.02534 0
M  V30 4 C 1.911 0.928543 1.3348 0
M  V30 5 O 3.095 1.19667 1.45644 0
M  V30 6 C 0.222 2.43627 2.35294 0
M  V30 7 C -0.732 3.65373 2.2001 0
M  V30 8 S 0.101 5.13292 1.52614 0
M  V30 9 C 1.257 5.56322 2.86805 0
M  V30 10 H 1.49 2.90518 0.631377 0
M  V30 11 H -0.977 1.52953 0.210867 0
M  V30 12 H 0.981 2.67203 3.11629 0
M  V30 13 H -0.358 1.57376 2.7183 0
M  V30 14 H -1.165 3.90944 3.18086 0
M  V30 15 H -1.563 3.418 1.51819 0
M  V30 16 H 0.729 5.58782 3.83104 0
M  V30 17 H 1.672 6.56266 2.65933 0
M  V30 18 H 2.08 4.83886 2.90714 0
M  V30 19 N 1.4781 -0.272755 1.55222 0
M  V30 20 C 2.4111 -1.3627 1.83046 0
M  V30 21 C 3.3891 -1.47536 0.683521 0
M  V30 22 O 4.5731 -1.64157 0.926545 0
M  V30 23 C 1.7001 -2.73908 1.99229 0
M  V30 24 C 0.7461 -2.79925 3.21783 0
M  V30 25 S 1.5791 -2.39146 4.79134 0
M  V30 26 C 2.7351 -3.78758 4.9829 0
M  V30 27 H 2.9681 -1.12464 2.75207 0
M  V30 28 H 0.5011 -0.472398 1.46996 0
M  V30 29 H 2.4591 -3.53171 2.09238 0
M  V30 30 H 1.1201 -2.94965 1.07956 0
M  V30 31 H 0.3131 -3.80946 3.29994 0
M  V30 32 H -0.0849 -2.08683 3.10367 0
M  V30 33 H 2.2071 -4.7403 4.84047 0
M  V30 34 H 3.1501 -3.75499 6.00338 0
M  V30 35 H 3.5581 -3.70072 4.26271 0
M  V30 36 N 2.9562 -1.48159 -0.537278 0
M  V30 37 C 3.9042 -1.62573 -1.66352 0
M  V30 38 C 4.8982 -0.492366 -1.62087 0
M  V30 39 O 6.1042 -0.670847 -1.67032 0
M  V30 40 H 2.4792 -0.511992 -0.550789 0
M  V30 41 H 4.4502 -2.57176 -1.51337 0
M  V30 42 C 3.1992 -1.67583 -3.04649 0
M  V30 43 H 2.5222 -2.54151 -3.08622 0
M  V30 44 H 3.9622 -1.81713 -3.83088 0
M  V30 45 C 2.4212 -0.413039 -3.34358 0
M  V30 46 O 2.9512 0.477259 -3.98855 0
M  V30 47 N 1.1572 -0.286961 -2.8918 0
M  V30 48 H 0.7042 -1.01241 -2.36871 0
M  V30 49 H 0.6622 0.556963 -3.09427 0
M  V30 50 N 4.4343 0.785586 -1.36625 0
M  V30 51 C 5.6813 1.54362 -1.31067 0
M  V30 52 C 6.0093 1.94195 0.10893 0
M  V30 53 O 5.2643 1.63262 1.07908 0
M  V30 54 C 5.5633 2.83007 -2.1827 0
M  V30 55 C 5.2293 2.62294 -3.6676 0
M  V30 56 C 3.8913 2.56353 -4.0723 0
M  V30 57 C 6.2433 2.43371 -4.6089 0
M  V30 58 C 3.5713 2.29461 -5.39967 0
M  V30 59 C 5.9233 2.18005 -5.93849 0
M  V30 60 C 4.5873 2.105 -6.3344 0
M  V30 61 H 3.8573 0.564851 -0.479609 0
M  V30 62 H 6.5043 0.906028 -1.68711 0
M  V30 63 H 4.8093 3.51253 -1.73576 0
M  V30 64 H 6.5063 3.40817 -2.11292 0
M  V30 65 H 3.0963 2.67774 -3.34656 0
M  V30 66 H 7.2803 2.46959 -4.30494 0
M  V30 67 H 2.5363 2.22135 -5.69619 0
M  V30 68 H 6.7103 2.02359 -6.66351 0
M  V30 69 H 4.3373 1.89425 -7.36222 0
M  V30 70 N 5.9124 1.20967 1.01018 0
M  V30 71 C 6.8604 0.961223 2.1181 0
M  V30 72 C 7.8544 -0.0897034 1.69162 0
M  V30 73 O 9.0604 0.0612271 1.79896 0
M  V30 74 H 5.4354 0.29355 0.692338 0
M  V30 75 H 7.4064 1.90178 2.29946 0
M  V30 76 C 6.1554 0.536854 3.4353 0
M  V30 77 H 5.4784 1.33713 3.76777 0
M  V30 78 H 6.9184 0.402286 4.22087 0
M  V30 79 C 5.3774 -0.751574 3.2841 0
M  V30 80 O 5.9074 -1.80841 3.58691 0
M  V30 81 N 4.1134 -0.716079 2.81639 0
M  V30 82 H 3.6604 0.144236 2.57196 0
M  V30 83 H 3.6184 -1.57847 2.71904 0
M  V30 84 N 7.3905 -1.2043 1.01659 0
M  V30 85 C 8.3385 -2.25249 0.580143 0
M  V30 86 C 9.3325 -1.65057 -0.381115 0
M  V30 87 O 10.5385 -1.78241 -0.251039 0
M  V30 88 H 6.9135 -0.732695 0.169299 0
M  V30 89 H 8.8845 -2.59389 1.47512 0
M  V30 90 C 7.6335 -3.47638 -0.065788 0
M  V30 91 H 6.9565 -3.94233 0.664874 0
M  V30 92 H 8.3965 -4.2268 -0.334282 0
M  V30 93 C 6.8555 -3.10447 -1.3086 0
M  V30 94 O 7.3855 -3.21981 -2.4019 0
M  V30 95 N 5.5915 -2.64996 -1.1927 0
M  V30 96 H 5.1385 -2.55811 -0.303064 0
M  V30 97 H 5.0965 -2.40482 -2.02523 0
M  V30 98 N 8.8686 -0.792821 -1.36206 0
M  V30 99 C 10.1146 -0.36733 -1.99446 0
M  V30 100 C 10.4476 1.05917 -1.62774 0
M  V30 101 O 9.7226 1.7324 -0.88421 0
M  V30 102 C 10.0056 -0.535044 -3.56103 0
M  V30 103 C 9.8586 -2.00548 -4.02617 0
M  V30 104 C 11.1776 0.0478191 -4.40074 0
M  V30 105 H 8.2966 -0.134941 -0.724541 0
M  V30 106 H 10.9386 -0.999794 -1.61568 0
M  V30 107 H 9.0886 0.00336329 -3.885 0
M  V30 108 H 10.7606 -2.60521 -3.80692 0
M  V30 109 H 9.0036 -2.50686 -3.54032 0
M  V30 110 H 9.6746 -2.07377 -5.11565 0
M  V30 111 H 12.1506 -0.411822 -4.14057 0
M  V30 112 H 11.0266 -0.0995336 -5.4881 0
M  V30 113 H 11.2876 1.14025 -4.27142 0
M  V30 114 N 10.3467 1.47872 -0.545128 0
M  V30 115 C 11.5937 2.02493 -0.0165858 0
M  V30 116 C 11.9217 1.42073 1.32836 0
M  V30 117 O 11.1767 0.561459 1.87473 0
M  V30 118 C 11.4757 3.57131 0.13867 0
M  V30 119 C 11.1417 4.36411 -1.13384 0
M  V30 120 C 9.8037 4.57792 -1.48256 0
M  V30 121 C 12.1557 4.82223 -1.97764 0
M  V30 122 C 9.4837 5.22233 -2.67376 0
M  V30 123 C 11.8357 5.47977 -3.16076 0
M  V30 124 C 10.4997 5.67593 -3.51275 0
M  V30 125 H 9.7697 0.740975 -0.00606918 0
M  V30 126 H 12.4167 1.77683 -0.714207 0
M  V30 127 H 10.7217 3.80865 0.919172 0
M  V30 128 H 12.4187 3.97031 0.562782 0
M  V30 129 H 9.0087 4.2004 -0.852297 0
M  V30 130 H 13.1927 4.65493 -1.72132 0
M  V30 131 H 8.4487 5.35616 -2.94831 0
M  V30 132 H 12.6227 5.8244 -3.81755 0
M  V30 133 H 10.2497 6.17298 -4.43675 0
M  V30 134 N 11.8248 0.280983 1.55075 0
M  V30 135 C 13.2408 -0.0729964 1.59433 0
M  V30 136 C 13.4408 -1.5411 1.29817 0
M  V30 137 O 12.4968 -2.29086 1.06187 0
M  V30 138 C 13.8098 0.306921 2.9913 0
M  V30 139 C 15.3578 0.254023 3.11968 0
M  V30 140 C 15.8328 0.608467 4.5394 0
M  V30 141 N 17.3238 0.560241 4.59799 0
M  V30 142 C 18.0588 0.80722 5.6769 0
M  V30 143 N 17.5548 1.11912 6.83701 0
M  V30 144 N 19.3478 0.735623 5.57266 0
M  V30 145 H 11.4988 1.238 1.7259 0
M  V30 146 H 13.7618 0.500547 0.805082 0
M  V30 147 H 13.4678 1.32816 3.25657 0
M  V30 148 H 13.3418 -0.349363 3.75579 0
M  V30 149 H 15.7288 -0.75794 2.852 0
M  V30 150 H 15.8098 0.944649 2.37718 0
M  V30 151 H 15.4538 1.61814 4.81434 0
M  V30 152 H 15.3838 -0.104013 5.26497 0
M  V30 153 H 17.8748 0.329288 3.76463 0
M  V30 154 H 18.1878 1.29409 7.61888 0
M  V30 155 H 16.5328 1.15695 6.85303 0
M  V30 156 H 19.7238 0.491752 4.6551 0
M  V30 157 H 19.8968 0.931482 6.4127 0
M  V30 158 N 13.3029 -1.57598 0.00835791 0
M  V30 159 C 14.5489 -1.92046 -0.670055 0
M  V30 160 C 14.9039 -0.88351 -1.70915 0
M  V30 161 O 14.1969 0.103223 -1.91322 0
M  V30 162 C 14.3909 -3.3101 -1.34787 0
M  V30 163 C 14.2199 -4.48126 -0.375945 0
M  V30 164 C 12.9899 -5.05297 0.0166914 0
M  V30 165 C 15.1879 -5.1303 0.361272 0
M  V30 166 N 13.1699 -6.05931 0.985952 0
M  V30 167 C 14.5409 -6.08571 1.18495 0
M  V30 168 C 16.5959 -4.9609 0.42421 0
M  V30 169 C 15.2989 -6.88996 2.06584 0
M  V30 170 C 17.3249 -5.77107 1.29236 0
M  V30 171 C 16.6869 -6.72248 2.10386 0
M  V30 172 H 12.7859 -0.75096 -0.218136 0
M  V30 173 H 15.3699 -1.94572 0.0706669 0
M  V30 174 H 13.5409 -3.29342 -2.05884 0
M  V30 175 H 15.2729 -3.52864 -1.98164 0
M  V30 176 H 12.0279 -4.72279 -0.353435 0
M  V30 177 H 12.4519 -6.60932 1.4662 0
M  V30 178 H 17.0939 -4.22378 -0.188915 0
M  V30 179 H 14.8119 -7.62028 2.6896 0
M  V30 180 H 18.3979 -5.66038 1.34508 0
M  V30 181 H 17.2779 -7.33846 2.76476 0
M  V30 182 N 14.781 0.264519 -1.55364 0
M  V30 183 C 15.731 1.32966 -1.85214 0
M  V30 184 C 16.715 1.44306 -0.711653 0
M  V30 185 O 17.907 1.47844 -0.973192 0
M  V30 186 C 15.036 2.68839 -2.13495 0
M  V30 187 C 14.122 2.61575 -3.33825 0
M  V30 188 N 14.513 2.23933 -4.53528 0
M  V30 189 C 12.811 2.92621 -3.36584 0
M  V30 190 C 13.512 2.26868 -5.35636 0
M  V30 191 N 12.488 2.65677 -4.74254 0
M  V30 192 H 16.29 1.02884 -2.75304 0
M  V30 193 H 13.804 0.473157 -1.55354 0
M  V30 194 H 15.801 3.45685 -2.33039 0
M  V30 195 H 14.461 2.99802 -1.24694 0
M  V30 196 H 15.472 1.95769 -4.79474 0
M  V30 197 H 12.149 3.2824 -2.58002 0
M  V30 198 H 13.539 2.00254 -6.41364 0
M  V30 199 N 16.2591 1.48442 0.529413 0
M  V30 200 C 17.1891 1.65902 1.64313 0
M  V30 201 C 18.1701 0.507897 1.6234 0
M  V30 202 O 19.3551 0.740503 1.79528 0
M  V30 203 C 16.4851 1.69911 3.02898 0
M  V30 204 C 15.4391 2.8453 3.19729 0
M  V30 205 C 14.7651 2.73629 4.59381 0
M  V30 206 C 16.0651 4.25821 3.02447 0
M  V30 207 H 17.7591 2.5914 1.49955 0
M  V30 208 H 15.3051 1.24709 0.719982 0
M  V30 209 H 17.2581 1.80715 3.80684 0
M  V30 210 H 15.9821 0.732524 3.18279 0
M  V30 211 H 14.6411 2.73283 2.44361 0
M  V30 212 H 14.2891 1.74938 4.71599 0
M  V30 213 H 13.9891 3.50541 4.71588 0
M  V30 214 H 15.5131 2.86401 5.39265 0
M  V30 215 H 16.9271 4.37898 3.70024 0
M  V30 216 H 15.3241 5.03735 3.26146 0
M  V30 217 H 16.3941 4.42244 1.98867 0
M  V30 218 N 17.7372 -0.778329 1.37039 0
M  V30 219 C 19.1482 -1.35421 1.28523 0
M  V30 220 C 19.4992 -1.96075 -0.0700901 0
M  V30 221 O 18.6242 -1.93352 -0.971801 0
M  V30 222 C 19.2192 -2.46211 2.32735 0
M  V30 223 C 17.7782 -2.99585 2.27873 0
M  V30 224 C 16.9252 -1.72748 2.16918 0
M  V30 225 H 19.8762 -0.5791 1.47757 0
M  V30 226 H 19.8972 -3.2552 1.9702 0
M  V30 227 H 19.4092 -2.02036 3.31365 0
M  V30 228 H 17.5102 -3.48152 1.32745 0
M  V30 229 H 17.6232 -3.55646 3.21018 0
M  V30 230 H 15.9872 -1.95416 1.63354 0
M  V30 231 H 16.7702 -1.30686 3.17452 0
M  V30 232 N 19.2153 -1.21501 -1.00376 0
M  V30 233 C 20.4623 -1.03299 -1.74171 0
M  V30 234 C 20.7903 0.433326 -1.89612 0
M  V30 235 O 20.0453 1.33779 -1.42834 0
M  V30 236 C 20.3443 -1.67673 -3.15627 0
M  V30 237 C 20.0103 -3.17533 -3.2013 0
M  V30 238 C 18.6723 -3.58427 -3.21067 0
M  V30 239 C 21.0243 -4.13504 -3.17275 0
M  V30 240 C 18.3523 -4.93794 -3.16835 0
M  V30 241 C 20.7043 -5.48834 -3.14585 0
M  V30 242 C 19.3683 -5.89123 -3.13831 0
M  V30 243 H 18.6383 -0.377999 -0.637336 0
M  V30 244 H 21.2853 -1.51111 -1.17634 0
M  V30 245 H 19.5903 -1.12158 -3.75404 0
M  V30 246 H 21.2873 -1.51091 -3.71446 0
M  V30 247 H 17.8773 -2.84965 -3.20145 0
M  V30 248 H 22.0613 -3.82936 -3.15711 0
M  V30 249 H 17.3173 -5.24255 -3.1459 0
M  V30 250 H 21.4913 -6.22934 -3.1133 0
M  V30 251 H 19.1183 -6.93984 -3.10307 0
M  V30 252 N 20.6934 1.19889 -1.02296 0
M  V30 253 C 21.6234 2.25141 -0.619174 0
M  V30 254 C 22.6044 1.66051 0.368915 0
M  V30 255 O 23.7894 1.92546 0.252941 0
M  V30 256 C 20.9194 3.4728 0.0368783 0
M  V30 257 C 19.8734 4.19005 -0.872865 0
M  V30 258 C 19.1994 5.34637 -0.0822402 0
M  V30 259 C 20.4994 4.74452 -2.18387 0
M  V30 260 H 22.1934 2.59171 -1.49903 0
M  V30 261 H 19.7394 1.24579 -0.722222 0
M  V30 262 H 21.6924 4.20098 0.330958 0
M  V30 263 H 20.4164 3.12433 0.95149 0
M  V30 264 H 19.0754 3.48061 -1.15105 0
M  V30 265 H 18.7234 4.96034 0.83422 0
M  V30 266 H 18.4234 5.83557 -0.688149 0
M  V30 267 H 19.9474 6.10255 0.205238 0
M  V30 268 H 21.3614 5.39055 -1.95172 0
M  V30 269 H 19.7584 5.33834 -2.74119 0
M  V30 270 H 20.8284 3.92844 -2.84257 0
M  V30 271 N 22.1715 0.800033 1.35784 0
M  V30 272 C 23.4185 0.377342 1.98953 0
M  V30 273 C 23.7465 -1.05378 1.6348 0
M  V30 274 O 23.0015 -1.74459 0.886707 0
M  V30 275 C 23.3005 0.500276 3.53881 0
M  V30 276 C 22.9665 1.89375 4.09204 0
M  V30 277 C 21.6285 2.27499 4.24025 0
M  V30 278 C 23.9805 2.8057 4.39238 0
M  V30 279 C 21.3085 3.562 4.66195 0
M  V30 280 C 23.6605 4.0871 4.82844 0
M  V30 281 C 22.3245 4.46843 4.95871 0
M  V30 282 H 21.5945 0.138079 0.728021 0
M  V30 283 H 24.2415 1.01955 1.62103 0
M  V30 284 H 22.5465 -0.225405 3.91151 0
M  V30 285 H 24.2435 0.154097 4.00704 0
M  V30 286 H 20.8335 1.58753 3.98115 0
M  V30 287 H 25.0175 2.52367 4.27346 0
M  V30 288 H 20.2735 3.85602 4.74469 0
M  V30 289 H 24.4475 4.79481 5.05046 0
M  V30 290 H 22.0745 5.46623 5.28306 0
M  V30 291 N 23.6496 -1.47581 0.552962 0
M  V30 292 C 24.5796 -2.32762 -0.185451 0
M  V30 293 C 25.5606 -1.43527 -0.912905 0
M  V30 294 O 26.7456 -1.72388 -0.894201 0
M  V30 295 C 23.8756 -3.25219 -1.21859 0
M  V30 296 C 22.8296 -4.23661 -0.607864 0
M  V30 297 C 22.1556 -5.05413 -1.74533 0
M  V30 298 C 23.4556 -5.20481 0.435582 0
M  V30 299 H 25.1496 -2.94749 0.525684 0
M  V30 300 H 22.6956 -1.41738 0.254251 0
M  V30 301 H 24.6486 -3.8365 -1.7433 0
M  V30 302 H 23.3726 -2.61279 -1.95961 0
M  V30 303 H 22.0316 -3.66451 -0.104489 0
M  V30 304 H 21.6796 -4.3788 -2.47529 0
M  V30 305 H 21.3796 -5.72059 -1.34249 0
M  V30 306 H 22.9036 -5.66701 -2.27338 0
M  V30 307 H 24.3176 -5.733 -0.00290157 0
M  V30 308 H 22.7146 -5.95305 0.757067 0
M  V30 309 H 23.7846 -4.66217 1.33303 0
M  V30 310 N 25.1277 -0.289203 -1.54924 0
M  V30 311 C 26.3737 0.323998 -2.00195 0
M  V30 312 C 26.7067 1.54441 -1.17735 0
M  V30 313 O 25.9817 1.92875 -0.250878 0
M  V30 314 C 26.2647 0.692276 -3.53383 0
M  V30 315 C 26.1177 -0.536457 -4.46589 0
M  V30 316 C 27.4367 1.52335 -4.12895 0
M  V30 317 H 24.5557 0.116289 -0.727768 0
M  V30 318 H 27.1977 -0.398954 -1.85764 0
M  V30 319 H 25.3477 1.30822 -3.65811 0
M  V30 320 H 27.0197 -1.17499 -4.46085 0
M  V30 321 H 25.2627 -1.17192 -4.1767 0
M  V30 322 H 25.9337 -0.234806 -5.515 0
M  V30 323 H 28.4097 1.00302 -4.0383 0
M  V30 324 H 27.2857 1.74982 -5.20262 0
M  V30 325 H 27.5467 2.50886 -3.64018 0
M  V30 326 N 26.6058 1.57591 -0.0167156 0
M  V30 327 C 27.5358 2.12496 0.967858 0
M  V30 328 C 28.5168 1.03807 1.34752 0
M  V30 329 O 29.7018 1.31577 1.42833 0
M  V30 330 C 26.8318 2.64194 2.25431 0
M  V30 331 C 25.7858 3.77559 2.01576 0
M  V30 332 C 25.1118 4.15636 3.36379 0
M  V30 333 C 26.4118 5.04151 1.36489 0
M  V30 334 H 28.1058 2.95013 0.510643 0
M  V30 335 H 25.6518 1.41915 0.244181 0
M  V30 336 H 27.6048 3.01236 2.94678 0
M  V30 337 H 26.3288 1.78821 2.73296 0
M  V30 338 H 24.9878 3.40937 1.34751 0
M  V30 339 H 24.6358 3.27263 3.81979 0
M  V30 340 H 24.3358 4.92022 3.21229 0
M  V30 341 H 25.8598 4.5525 4.06915 0
M  V30 342 H 27.2738 5.38857 1.95718 0
M  V30 343 H 25.6708 5.85453 1.31776 0
M  V30 344 H 26.7408 4.83733 0.336219 0
M  V30 345 N 28.0839 -0.256276 1.55502 0
M  V30 346 C 29.0139 -1.32102 1.92539 0
M  V30 347 C 29.9949 -1.50684 0.789194 0
M  V30 348 O 31.1799 -1.63449 1.04872 0
M  V30 349 C 28.3099 -2.67752 2.21192 0
M  V30 350 C 27.2639 -2.63878 3.36975 0
M  V30 351 C 26.5899 -4.03236 3.51147 0
M  V30 352 C 27.8899 -2.21682 4.72921 0
M  V30 353 H 29.5839 -1.01351 2.81724 0
M  V30 354 H 27.1299 -0.486105 1.35547 0
M  V30 355 H 29.0829 -3.42365 2.45691 0
M  V30 356 H 27.8069 -3.0012 1.28824 0
M  V30 357 H 26.4659 -1.91722 3.12471 0
M  V30 358 H 26.1139 -4.32854 2.56216 0
M  V30 359 H 25.8139 -4.01535 4.29003 0
M  V30 360 H 27.3379 -4.79563 3.77957 0
M  V30 361 H 28.7519 -2.86023 4.96854 0
M  V30 362 H 27.1489 -2.3111 5.53812 0
M  V30 363 H 28.2189 -1.16833 4.70615 0
M  V30 364 N 29.562 -1.4872 -0.521534 0
M  V30 365 C 30.79 -1.60843 -1.30142 0
M  V30 366 C 31.205 -0.271897 -1.86832 0
M  V30 367 O 30.562 0.739969 -1.66825 0
M  V30 368 C 30.613 -2.66155 -2.4463 0
M  V30 369 O 30.334 -3.94623 -1.90275 0
M  V30 370 C 31.835 -2.88795 -3.36322 0
M  V30 371 H 29.055 -0.542075 -0.395468 0
M  V30 372 H 31.599 -1.94609 -0.628285 0
M  V30 373 H 29.754 -2.35224 -3.07812 0
M  V30 374 H 30.168 -4.52468 -2.65279 0
M  V30 375 H 31.642 -3.66264 -4.12983 0
M  V30 376 H 32.119 -1.97934 -3.9207 0
M  V30 377 H 32.725 -3.21063 -2.78924 0
M  V30 378 N 31.0401 0.771051 -1.3745 0
M  V30 379 C 32.2871 1.52963 -1.32697 0
M  V30 380 C 32.6151 1.94299 0.0883274 0
M  V30 381 O 31.8701 1.64397 1.0617 0
M  V30 382 C 32.1691 2.80676 -2.2126 0
M  V30 383 C 31.8351 2.58389 -3.69521 0
M  V30 384 C 30.4971 2.52019 -4.09927 0
M  V30 385 C 32.8491 2.38469 -4.63446 0
M  V30 386 C 30.1771 2.23721 -5.42371 0
M  V30 387 C 32.5291 2.11694 -5.96128 0
M  V30 388 C 31.1931 2.03769 -6.35637 0
M  V30 389 H 30.4631 0.559732 -0.485573 0
M  V30 390 H 33.1101 0.888083 -1.69662 0
M  V30 391 H 31.4151 3.49392 -1.77291 0
M  V30 392 H 33.1121 3.38557 -2.14895 0
M  V30 393 H 29.7021 2.6421 -3.37478 0
M  V30 394 H 33.8861 2.4238 -4.33089 0
M  V30 395 H 29.1421 2.16081 -5.71943 0
M  V30 396 H 33.3161 1.9528 -6.6846 0
M  V30 397 H 30.9431 1.81606 -7.38189 0
M  V30 398 N 32.5182 1.22032 0.997298 0
M  V30 399 C 33.9342 0.979326 1.26021 0
M  V30 400 C 34.1342 -0.32972 1.98784 0
M  V30 401 O 33.1902 -1.05345 2.29475 0
M  V30 402 C 34.5032 2.17509 2.07631 0
M  V30 403 C 36.0512 2.21817 2.2083 0
M  V30 404 C 36.5262 3.40933 3.05825 0
M  V30 405 N 38.0172 3.41067 3.13412 0
M  V30 406 C 38.7522 4.29885 3.79455 0
M  V30 407 N 38.2482 5.28914 4.47462 0
M  V30 408 N 40.0412 4.17673 3.76173 0
M  V30 409 H 32.1922 2.06202 0.509352 0
M  V30 410 H 34.4552 0.90334 0.287541 0
M  V30 411 H 34.1612 3.12415 1.61524 0
M  V30 412 H 34.0352 2.17206 3.08385 0
M  V30 413 H 36.4222 1.27462 2.66153 0
M  V30 414 H 36.5032 2.2616 1.1952 0
M  V30 415 H 36.1472 4.35586 2.61203 0
M  V30 416 H 36.0772 3.33829 4.07266 0
M  V30 417 H 38.5682 2.69406 2.65007 0
M  V30 418 H 38.8812 5.92973 4.95583 0
M  V30 419 H 37.2262 5.32831 4.46224 0
M  V30 420 H 40.4172 3.39564 3.22202 0
M  V30 421 H 40.5902 4.87098 4.27363 0
M  V30 422 N 33.9963 -1.19345 1.0293 0
M  V30 423 C 34.9593 -2.20793 0.615069 0
M  V30 424 C 35.9593 -1.57553 -0.321533 0
M  V30 425 O 37.1493 -1.73862 -0.108483 0
M  V30 426 C 34.2813 -3.40754 -0.0999222 0
M  V30 427 H 35.4743 -2.58955 1.51269 0
M  V30 428 H 33.0273 -1.3303 0.820534 0
M  V30 429 H 33.7623 -3.0811 -1.01187 0
M  V30 430 H 33.5473 -3.87889 0.57309 0
M  V30 431 H 35.0373 -4.15898 -0.376645 0
M  V30 432 N 35.4744 -0.807222 -1.35358 0
M  V30 433 C 36.4374 -0.223665 -2.28106 0
M  V30 434 C 37.4374 0.589354 -1.4961 0
M  V30 435 O 38.6274 0.407745 -1.69361 0
M  V30 436 C 35.7594 0.688149 -3.33882 0
M  V30 437 H 36.9524 -1.04169 -2.81227 0
M  V30 438 H 34.5054 -0.577921 -1.45223 0
M  V30 439 H 35.2404 1.52984 -2.85948 0
M  V30 440 H 35.0254 0.10687 -3.91954 0
M  V30 441 H 36.5154 1.09075 -4.03104 0
M  V30 442 N 36.9525 1.47285 -0.560781 0
M  V30 443 C 37.9155 2.28535 0.174488 0
M  V30 444 C 38.9155 1.37153 0.839388 0
M  V30 445 O 40.1055 1.59748 0.694702 0
M  V30 446 C 37.2375 3.16934 1.25561 0
M  V30 447 H 38.4305 2.95012 -0.539262 0
M  V30 448 H 35.9835 1.53034 -0.317865 0
M  V30 449 H 36.7185 2.55157 2.00164 0
M  V30 450 H 36.5035 3.8419 0.783604 0
M  V30 451 H 37.9935 3.78143 1.77193 0
M  V30 452 N 38.4306 0.297415 1.54768 0
M  V30 453 C 39.3936 -0.567375 2.22066 0
M  V30 454 C 40.3936 -1.06409 1.20556 0
M  V30 455 O 41.5836 -0.960691 1.45315 0
M  V30 456 C 38.7156 -1.78517 2.90421 0
M  V30 457 H 39.9086 0.0205534 2.99893 0
M  V30 458 H 37.4616 0.0482163 1.56226 0
M  V30 459 H 38.1966 -2.41303 2.16664 0
M  V30 460 H 37.9816 -1.43669 3.64831 0
M  V30 461 H 39.4716 -2.39964 3.41771 0
M  V30 462 N 39.9087 -1.5758 0.0250728 0
M  V30 463 C 41.1857 -1.82917 -0.692873 0
M  V30 464 C 41.5657 -0.908137 -1.90568 0
M  V30 465 O 40.9137 0.0372298 -2.2847 0
M  V30 466 C 41.1237 -3.32034 -1.07492 0
M  V30 467 C 42.4717 -3.98406 -1.46826 0
M  V30 468 O 43.4957 -3.36505 -1.16801 0
M  V30 469 O 42.3547 -5.07497 -2.02754 0
M  V30 470 H 39.4487 -0.754079 -0.33955 0
M  V30 471 H 41.9947 -1.69619 0.0524456 0
M  V30 472 H 40.7667 -3.90728 -0.211552 0
M  V30 473 H 40.3897 -3.50424 -1.87854 0
M  V30 474 N 41.3868 0.248026 -1.55636 0
M  V30 475 C 42.6148 0.993808 -1.81469 0
M  V30 476 C 43.0298 1.78991 -0.60064 0
M  V30 477 O 42.3868 1.77345 0.430682 0
M  V30 478 C 42.4378 1.93258 -3.05506 0
M  V30 479 O 42.1588 1.16869 -4.22224 0
M  V30 480 C 43.6598 2.79444 -3.4413 0
M  V30 481 H 40.8798 0.292486 -0.603898 0
M  V30 482 H 43.4238 0.271253 -2.02693 0
M  V30 483 H 41.5788 2.60943 -2.86335 0
M  V30 484 H 41.9928 1.80359 -4.92515 0
M  V30 485 H 43.4668 3.41066 -4.34026 0
M  V30 486 H 43.9438 3.50499 -2.64665 0
M  V30 487 H 44.5498 2.17214 -3.65648 0
M  V30 488 N 42.8649 1.48995 0.513639 0
M  V30 489 C 43.7949 1.67636 1.62544 0
M  V30 490 C 44.7759 0.525087 1.61793 0
M  V30 491 O 45.9609 0.759502 1.78732 0
M  V30 492 C 43.0909 1.73114 3.01079 0
M  V30 493 C 42.0449 2.87905 3.16693 0
M  V30 494 C 41.3709 2.78486 4.56453 0
M  V30 495 C 42.6709 4.29005 2.97913 0
M  V30 496 H 44.3649 2.60716 1.47198 0
M  V30 497 H 41.9109 1.25465 0.706714 0
M  V30 498 H 43.8639 1.84742 3.78746 0
M  V30 499 H 42.5879 0.766241 3.17484 0
M  V30 500 H 41.2469 2.75859 2.41448 0
M  V30 501 H 40.8949 1.7993 4.69717 0
M  V30 502 H 40.5949 3.55523 4.67843 0
M  V30 503 H 42.1189 2.92104 5.36197 0
M  V30 504 H 43.5329 4.41798 3.65359 0
M  V30 505 H 41.9299 5.07166 3.20785 0
M  V30 506 H 42.9999 4.44329 1.94165 0
M  V30 507 N 44.343 -0.763751 1.37857 0
M  V30 508 C 45.273 -1.89103 1.36975 0
M  V30 509 C 46.254 -1.68439 0.237152 0
M  V30 510 O 47.439 -1.8918 0.438713 0
M  V30 511 C 44.569 -3.26496 1.18395 0
M  V30 512 C 43.523 -3.61741 2.28751 0
M  V30 513 C 42.849 -4.97762 1.95286 0
M  V30 514 C 44.149 -3.67665 3.70972 0
M  V30 515 H 45.843 -1.90099 2.31307 0
M  V30 516 H 43.389 -0.91319 1.11341 0
M  V30 517 H 45.342 -4.05003 1.16406 0
M  V30 518 H 44.066 -3.25955 0.205215 0
M  V30 519 H 42.725 -2.85547 2.29909 0
M  V30 520 H 42.373 -4.93769 0.959221 0
M  V30 521 H 42.073 -5.22313 2.69189 0
M  V30 522 H 43.597 -5.7866 1.94898 0
M  V30 523 H 45.011 -4.36307 3.719 0
M  V30 524 H 43.408 -4.03718 4.43995 0
M  V30 525 H 44.478 -2.68134 4.0402 0
M  V30 526 N 45.8211 -1.22559 -0.990812 0
M  V30 527 C 47.0701 -1.04553 -1.72486 0
M  V30 528 C 47.3831 0.419349 -1.91052 0
M  V30 529 O 48.5891 0.719121 -2.61803 0
M  V30 530 C 47.0451 -1.82231 -3.10355 0
M  V30 531 C 46.6531 -3.32981 -2.99713 0
M  V30 532 C 48.3971 -1.7268 -3.87791 0
M  V30 533 C 46.3041 -4.03091 -4.32748 0
M  V30 534 H 45.2341 -0.387614 -0.646739 0
M  V30 535 H 47.8851 -1.46429 -1.10593 0
M  V30 536 H 46.2671 -1.33155 -3.72942 0
M  V30 537 H 47.4411 -3.89466 -2.46278 0
M  V30 538 H 45.7561 -3.43231 -2.35758 0
M  V30 539 H 48.3531 -2.22381 -4.86262 0
M  V30 540 H 48.6961 -0.687607 -4.10582 0
M  V30 541 H 49.2291 -2.1931 -3.31885 0
M  V30 542 H 45.9681 -5.07273 -4.15156 0
M  V30 543 H 45.4881 -3.51394 -4.86089 0
M  V30 544 H 47.1671 -4.08804 -5.01486 0
M  V30 545 N 47.2992 1.18797 -1.03562 0
M  V30 546 C 48.2292 2.24472 -0.643019 0
M  V30 547 C 49.2102 1.66433 0.351283 0
M  V30 548 O 50.3952 1.92803 0.232505 0
M  V30 549 C 47.5252 3.473 4.24935e-05 0
M  V30 550 C 46.4792 4.18055 -0.917257 0
M  V30 551 C 45.8052 5.34519 -0.138941 0
M  V30 552 C 47.1052 4.72109 -2.23407 0
M  V30 553 H 48.7992 2.57566 -1.52643 0
M  V30 554 H 46.3452 1.23806 -0.735394 0
M  V30 555 H 48.2982 4.20426 0.286383 0
M  V30 556 H 47.0222 3.13424 0.918299 0
M  V30 557 H 45.6812 3.46821 -1.1879 0
M  V30 558 H 45.3292 4.96891 0.781562 0
M  V30 559 H 45.0292 5.82794 -0.750005 0
M  V30 560 H 46.5532 6.10438 0.1405 0
M  V30 561 H 47.9672 5.36955 -2.00879 0
M  V30 562 H 46.3642 5.30897 -2.79765 0
M  V30 563 H 47.4342 3.89807 -2.88407 0
M  V30 564 N 48.7773 0.814389 1.34928 0
M  V30 565 C 50.0253 0.397636 1.9815 0
M  V30 566 C 50.3463 -1.04069 1.64908 0
M  V30 567 O 49.6163 -1.72121 0.93548 0
M  V30 568 H 48.1963 0.144043 0.732981 0
M  V30 569 H 50.8583 1.04195 1.6471 0
M  V30 570 H 49.9543 0.509688 3.0791 0
M  V30 571 N 50.2554 -1.46986 0.568584 0
M  V30 572 C 51.5324 -1.95592 -0.0174074 0
M  V30 573 C 51.9124 -1.51124 -1.47393 0
M  V30 574 O 51.2604 -0.755329 -2.15655 0
M  V30 575 C 51.4704 -3.48719 0.139913 0
M  V30 576 C 52.8184 -4.246 0.000426376 0
M  V30 577 O 53.8424 -3.56135 0.0680316 0
M  V30 578 O 52.7014 -5.46302 -0.146988 0
M  V30 579 H 49.7954 -0.82498 -0.0577599 0
M  V30 580 H 52.3414 -1.57335 0.635909 0
M  V30 581 H 51.1134 -3.73927 1.15301 0
M  V30 582 H 50.7364 -3.93771 -0.550491 0
M  V30 583 N 51.7335 -0.305618 -1.54608 0
M  V30 584 C 52.9585 0.307562 -2.05107 0
M  V30 585 C 53.3835 1.46385 -1.18123 0
M  V30 586 O 52.7415 1.8034 -0.186324 0
M  V30 587 C 52.7895 0.73704 -3.52987 0
M  V30 588 O 51.8935 1.84134 -3.6901 0
M  V30 589 H 51.2345 0.0589143 -0.661381 0
M  V30 590 H 53.7645 -0.448807 -1.99617 0
M  V30 591 H 53.7745 1.02459 -3.94925 0
M  V30 592 H 52.4495 -0.108773 -4.15758 0
M  V30 593 H 51.0265 1.55398 -3.38978 0
M  V30 594 N 53.2116 1.57565 -0.0334293 0
M  V30 595 C 54.1416 2.13511 0.945265 0
M  V30 596 C 55.1226 1.05231 1.33643 0
M  V30 597 O 56.3076 1.33084 1.41429 0
M  V30 598 C 53.4376 2.6657 2.22616 0
M  V30 599 C 52.3916 3.79676 1.97561 0
M  V30 600 C 51.7176 4.1918 3.31952 0
M  V30 601 C 53.0176 5.0557 1.31135 0
M  V30 602 H 54.7116 2.95538 0.479325 0
M  V30 603 H 52.2576 1.42166 0.229115 0
M  V30 604 H 54.2106 3.04344 2.91466 0
M  V30 605 H 52.9346 1.8171 2.71384 0
M  V30 606 H 51.5936 3.42347 1.31127 0
M  V30 607 H 51.2416 3.31296 3.78487 0
M  V30 608 H 50.9416 4.95402 3.15992 0
M  V30 609 H 52.4656 4.59541 4.02063 0
M  V30 610 H 53.8796 5.40903 1.89992 0
M  V30 611 H 52.2766 5.86818 1.25559 0
M  V30 612 H 53.3466 4.84062 0.284894 0
M  V30 613 N 54.6897 -0.239769 1.55765 0
M  V30 614 C 55.9147 -0.988373 1.82335 0
M  V30 615 C 56.3397 -1.77886 0.611421 0
M  V30 616 O 55.6977 -1.75889 -0.439639 0
M  V30 617 C 55.7457 -1.89627 3.06715 0
M  V30 618 O 54.8497 -2.98904 2.84131 0
M  V30 619 H 54.1907 -0.280858 0.601677 0
M  V30 620 H 56.7207 -0.258597 2.02959 0
M  V30 621 H 56.7307 -2.30957 3.36338 0
M  V30 622 H 55.4057 -1.31511 3.9456 0
M  V30 623 H 53.9827 -2.61651 2.65694 0
M  V30 624 N 56.1678 -1.49265 -0.50573 0
M  V30 625 C 57.1308 -1.65075 -1.59006 0
M  V30 626 C 58.1308 -0.522768 -1.52065 0
M  V30 627 O 59.3208 -0.789117 -1.55302 0
M  V30 628 C 56.4528 -1.64369 -2.98656 0
M  V30 629 H 57.6458 -2.61784 -1.46319 0
M  V30 630 H 55.1988 -1.38226 -0.729616 0
M  V30 631 H 55.9338 -0.692272 -3.16825 0
M  V30 632 H 55.7188 -2.46282 -3.05103 0
M  V30 633 H 57.2088 -1.78674 -3.77446 0
M  V30 634 N 57.6459 0.756429 -1.3826 0
M  V30 635 C 58.8939 1.51248 -1.34047 0
M  V30 636 C 59.2149 1.94875 0.0698372 0
M  V30 637 O 58.4849 1.67436 1.01696 0
M  V30 638 H 57.0649 0.561018 -0.493222 0
M  V30 639 H 59.7269 0.899347 -1.7291 0
M  V30 640 H 58.8229 2.40472 -1.98947 0
M  V30 641 N 59.124 1.23083 0.984299 0
M  V30 642 C 60.354 1.08556 1.75781 0
M  V30 643 C 60.762 -0.366171 1.85623 0
M  V30 644 O 60.105 -1.26524 1.33182 0
M  V30 645 C 60.167 1.63208 3.20318 0
M  V30 646 C 59.831 3.11922 3.33997 0
M  V30 647 C 60.828 4.09259 3.2063 0
M  V30 648 C 58.513 3.51552 3.58771 0
M  V30 649 C 60.507 5.4421 3.31835 0
M  V30 650 C 58.194 4.86649 3.69616 0
M  V30 651 C 59.192 5.82787 3.56157 0
M  V30 652 O 58.88 7.15431 3.66626 0
M  V30 653 H 58.612 0.380713 0.5586 0
M  V30 654 H 61.166 1.63321 1.2456 0
M  V30 655 H 59.396 1.0286 3.72769 0
M  V30 656 H 61.085 1.44216 3.79416 0
M  V30 657 H 61.851 3.79984 3.01392 0
M  V30 658 H 57.73 2.77239 3.6832 0
M  V30 659 H 61.274 6.1923 3.21247 0
M  V30 660 H 57.171 5.15601 3.88363 0
M  V30 661 H 57.939 7.23127 3.83445 0
M  V30 662 N 60.6021 -1.18246 1.0419 0
M  V30 663 C 62.0181 -1.40269 0.761366 0
M  V30 664 C 62.2181 -1.90777 -0.648578 0
M  V30 665 O 61.2741 -2.0929 -1.41258 0
M  V30 666 C 62.5871 -2.40237 1.8085 0
M  V30 667 C 64.1351 -2.53961 1.82955 0
M  V30 668 C 64.6101 -3.57194 2.86664 0
M  V30 669 N 66.1011 -3.64702 2.85563 0
M  V30 670 C 66.8361 -4.44309 3.6246 0
M  V30 671 N 66.3321 -5.27514 4.49111 0
M  V30 672 N 68.1251 -4.39084 3.50944 0
M  V30 673 H 60.2761 -0.837882 1.95175 0
M  V30 674 H 62.5391 -0.430608 0.84456 0
M  V30 675 H 62.2451 -2.10176 2.81991 0
M  V30 676 H 62.1191 -3.39601 1.64168 0
M  V30 677 H 64.5061 -2.83338 0.824855 0
M  V30 678 H 64.5871 -1.54706 2.03715 0
M  V30 679 H 64.2311 -3.28558 3.87314 0
M  V30 680 H 64.1611 -4.5613 2.6316 0
M  V30 681 H 66.6521 -3.05289 2.22727 0
M  V30 682 H 66.9651 -5.85411 5.04493 0
M  V30 683 H 65.3101 -5.2693 4.53178 0
M  V30 684 H 68.5011 -3.7313 2.82651 0
M  V30 685 H 68.6741 -5.00883 4.11121 0
M  V30 686 N 62.0802 -0.821533 -1.34494 0
M  V30 687 C 63.0132 -0.187704 -2.27427 0
M  V30 688 C 63.9912 0.65507 -1.48821 0
M  V30 689 O 65.1752 0.619111 -1.78043 0
M  V30 690 C 62.3022 0.737996 -3.30562 0
M  V30 691 C 61.3482 -0.0270713 -4.26491 0
M  V30 692 S 62.1812 -1.37329 -5.17592 0
M  V30 693 C 63.3372 -0.452427 -6.24263 0
M  V30 694 H 63.5702 -0.975598 -2.80837 0
M  V30 695 H 61.1032 -0.61736 -1.4152 0
M  V30 696 H 63.0612 1.26654 -3.90473 0
M  V30 697 H 61.7222 1.4994 -2.76001 0
M  V30 698 H 60.9152 0.6766 -4.99438 0
M  V30 699 H 60.5172 -0.48612 -3.70827 0
M  V30 700 H 62.8092 0.356557 -6.76561 0
M  V30 701 H 63.7522 -1.15153 -6.98674 0
M  V30 702 H 64.1602 -0.0414755 -5.64485 0
M  V30 703 N 63.5583 1.46682 -0.576371 0
M  V30 704 C 64.7833 2.07304 -0.0630475 0
M  V30 705 C 65.2083 1.42329 1.2298 0
M  V30 706 O 64.5663 0.504865 1.74129 0
M  V30 707 C 64.6143 3.60472 0.095895 0
M  V30 708 O 63.7183 3.95927 1.15394 0
M  V30 709 H 63.0593 0.661288 -0.0599463 0
M  V30 710 H 65.5893 1.88417 -0.797511 0
M  V30 711 H 65.5993 4.06865 0.304071 0
M  V30 712 H 64.2743 4.07157 -0.84828 0
M  V30 713 H 62.8513 3.61252 0.924724 0
M  V30 714 N 65.0364 0.313813 1.54444 0
M  V30 715 C 65.9994 -0.54379 2.22656 0
M  V30 716 C 66.9994 -1.05124 1.21678 0
M  V30 717 O 68.1894 -0.945225 1.46325 0
M  V30 718 C 65.3214 -1.75427 2.92298 0
M  V30 719 H 66.5144 0.0523599 2.99854 0
M  V30 720 H 64.0674 0.0647834 1.56166 0
M  V30 721 H 64.8024 -2.38991 2.19211 0
M  V30 722 H 64.5874 -1.39791 3.66334 0
M  V30 723 H 66.0774 -2.36325 3.44297 0
M  V30 724 N 66.5145 -1.57545 0.0417849 0
M  V30 725 C 67.7395 -1.97035 -0.647455 0
M  V30 726 C 68.1645 -0.918775 -1.64135 0
M  V30 727 O 67.5225 0.119006 -1.80909 0
M  V30 728 C 67.5705 -3.35609 -1.31905 0
M  V30 729 O 66.6745 -3.3287 -2.43457 0
M  V30 730 H 66.0155 -0.64211 -0.169086 0
M  V30 731 H 68.5455 -2.04318 0.107399 0
M  V30 732 H 68.5555 -3.72126 -1.67291 0
M  V30 733 H 67.2305 -4.11685 -0.590586 0
M  V30 734 H 65.8075 -3.08087 -2.10088 0
M  V30 735 N 67.9926 0.231505 -1.5589 0
M  V30 736 C 68.9556 1.27028 -1.90779 0
M  V30 737 C 69.9556 1.40308 -0.785507 0
M  V30 738 O 71.1456 1.38744 -1.05336 0
M  V30 739 C 68.2776 2.64566 -2.14983 0
M  V30 740 H 69.4706 0.973017 -2.83677 0
M  V30 741 H 67.0236 0.471486 -1.49019 0
M  V30 742 H 67.7586 2.99406 -1.24604 0
M  V30 743 H 67.5436 2.56305 -2.96732 0
M  V30 744 H 69.0336 3.39543 -2.43105 0
M  V30 745 N 69.4707 1.49531 0.497807 0
M  V30 746 C 70.4337 1.65916 1.58128 0
M  V30 747 C 71.4337 0.530825 1.51786 0
M  V30 748 O 72.6237 0.797342 1.54881 0
M  V30 749 C 69.7557 1.65951 2.9778 0
M  V30 750 H 70.9487 2.62556 1.44929 0
M  V30 751 H 68.5017 1.38611 0.722275 0
M  V30 752 H 69.2367 0.709065 3.16453 0
M  V30 753 H 69.0217 2.47897 3.03792 0
M  V30 754 H 70.5117 1.80673 3.76493 0
M  V30 755 N 70.9488 -0.749086 1.3866 0
M  V30 756 C 72.1948 -1.50959 1.36319 0
M  V30 757 C 72.5498 -1.92347 -0.0452451 0
M  V30 758 O 71.8428 -1.6289 -1.00884 0
M  V30 759 C 72.0368 -2.7712 2.25697 0
M  V30 760 C 71.8658 -2.48067 3.7509 0
M  V30 761 C 70.6358 -2.41062 4.44091 0
M  V30 762 C 72.8338 -2.14544 4.67414 0
M  V30 763 N 70.8158 -2.04331 5.78897 0
M  V30 764 C 72.1868 -1.88141 5.90765 0
M  V30 765 C 74.2418 -2.00892 4.55573 0
M  V30 766 C 72.9448 -1.49463 7.036 0
M  V30 767 C 74.9708 -1.63616 5.68317 0
M  V30 768 C 74.3328 -1.38088 6.90732 0
M  V30 769 H 70.4318 -0.551804 0.554108 0
M  V30 770 H 73.0158 -0.871886 1.74087 0
M  V30 771 H 71.1868 -3.38693 1.9011 0
M  V30 772 H 72.9188 -3.4321 2.1445 0
M  V30 773 H 69.6738 -2.57685 3.9736 0
M  V30 774 H 70.0978 -1.88598 6.502 0
M  V30 775 H 74.7398 -2.19301 3.61479 0
M  V30 776 H 72.4578 -1.29794 7.97608 0
M  V30 777 H 76.0438 -1.53678 5.61137 0
M  V30 778 H 74.9238 -1.09674 7.76493 0
M  V30 779 N 72.4269 -1.23603 -0.977757 0
M  V30 780 C 73.8379 -1.06424 -1.53398 0
M  V30 781 C 74.1889 0.367578 -1.92726 0
M  V30 782 O 73.3139 1.25465 -1.76316 0
M  V30 783 C 73.9089 -1.92568 -2.78753 0
M  V30 784 C 72.4679 -1.79642 -3.30765 0
M  V30 785 C 71.6149 -1.88111 -2.03739 0
M  V30 786 H 74.5659 -1.37227 -0.797152 0
M  V30 787 H 74.5869 -1.45203 -3.51705 0
M  V30 788 H 74.0989 -2.96771 -2.50098 0
M  V30 789 H 72.1999 -0.782325 -3.64294 0
M  V30 790 H 72.3129 -2.63174 -4.00345 0
M  V30 791 H 70.6769 -1.31723 -2.17994 0
M  V30 792 H 71.4599 -2.93875 -1.77461 0
M  V30 793 N 73.905 1.17692 -1.04816 0
M  V30 794 C 74.868 2.19787 -0.650117 0
M  V30 795 C 75.868 1.58044 0.296427 0
M  V30 796 O 77.058 1.74012 0.0808097 0
M  V30 797 C 74.19 3.40869 0.0456987 0
M  V30 798 H 75.383 2.56516 -1.5537 0
M  V30 799 H 72.936 1.31708 -0.841594 0
M  V30 800 H 73.671 3.09681 0.962726 0
M  V30 801 H 73.456 3.86928 -0.634727 0
M  V30 802 H 74.946 4.16445 0.310432 0
M  V30 803 N 75.3831 0.828654 1.34056 0
M  V30 804 C 76.3131 0.269443 2.3194 0
M  V30 805 C 77.2941 -0.617247 1.58506 0
M  V30 806 O 78.4791 -0.542931 1.86456 0
M  V30 807 C 75.6091 -0.564793 3.42677 0
M  V30 808 C 74.5631 0.225241 4.27407 0
M  V30 809 C 73.8891 -0.7321 5.29664 0
M  V30 810 C 75.1891 1.43663 5.02154 0
M  V30 811 H 76.8831 1.08728 2.7896 0
M  V30 812 H 74.4291 0.524283 1.34117 0
M  V30 813 H 76.3821 -0.966233 4.10173 0
M  V30 814 H 75.1061 -1.41574 2.9432 0
M  V30 815 H 73.7651 0.608117 3.61521 0
M  V30 816 H 73.4131 -1.57916 4.77568 0
M  V30 817 H 73.1131 -0.20767 5.87233 0
M  V30 818 H 74.6371 -1.13128 6.00029 0
M  V30 819 H 76.0511 1.1089 5.62473 0
M  V30 820 H 74.4481 1.89711 5.69324 0
M  V30 821 H 75.5181 2.21181 4.31517 0
M  V30 822 N 76.8612 -1.46375 0.584142 0
M  V30 823 C 77.7912 -2.33103 -0.136037 0
M  V30 824 C 78.7722 -1.45431 -0.882255 0
M  V30 825 O 79.9572 -1.74246 -0.857434 0
M  V30 826 C 77.0872 -3.27731 -1.14933 0
M  V30 827 C 76.0412 -4.24855 -0.517862 0
M  V30 828 C 75.3672 -5.09001 -1.63773 0
M  V30 829 C 76.6672 -5.19439 0.545886 0
M  V30 830 H 78.3612 -2.93568 0.588086 0
M  V30 831 H 75.9072 -1.41166 0.284259 0
M  V30 832 H 77.8602 -3.87261 -1.66153 0
M  V30 833 H 76.5842 -2.65377 -1.90375 0
M  V30 834 H 75.2432 -3.6659 -0.0267361 0
M  V30 835 H 74.8912 -4.43031 -2.38185 0
M  V30 836 H 74.5912 -5.74777 -1.22085 0
M  V30 837 H 76.1152 -5.71396 -2.15266 0
M  V30 838 H 77.5292 -5.73177 0.118704 0
M  V30 839 H 75.9262 -5.93566 0.88317 0
M  V30 840 H 76.9962 -4.63285 1.43162 0
M  V30 841 N 78.3393 -0.321999 -1.54275 0
M  V30 842 C 79.2873 0.560206 -2.25753 0
M  V30 843 C 80.2813 1.11984 -1.27106 0
M  V30 844 O 81.4873 1.06806 -1.44888 0
M  V30 845 H 77.8623 0.199304 -0.725108 0
M  V30 846 H 79.8333 -0.0649365 -2.98329 0
M  V30 847 C 78.5823 1.71023 -3.02731 0
M  V30 848 H 77.9053 1.28885 -3.78456 0
M  V30 849 H 79.3453 2.30314 -3.55993 0
M  V30 850 C 77.8043 2.62692 -2.10938 0
M  V30 851 O 78.3343 3.64364 -1.6912 0
M  V30 852 N 76.5403 2.30891 -1.76459 0
M  V30 853 H 76.0873 1.48253 -2.10663 0
M  V30 854 H 76.0453 2.92487 -1.1532 0
M  V30 855 N 79.8174 1.5752 -0.0501392 0
M  V30 856 C 81.0944 1.83996 0.663685 0
M  V30 857 C 81.4744 0.938339 1.89099 0
M  V30 858 O 80.8224 -0.00087759 2.285 0
M  V30 859 C 81.0324 3.33702 1.02196 0
M  V30 860 C 82.3804 4.00691 1.40469 0
M  V30 861 O 83.4044 3.38321 1.11433 0
M  V30 862 O 82.2634 5.10658 1.94654 0
M  V30 863 H 79.3574 0.759385 0.32751 0
M  V30 864 H 81.9034 1.69514 -0.0794238 0
M  V30 865 H 80.6754 3.91015 0.149364 0
M  V30 866 H 80.2984 3.53368 1.82255 0
M  V30 867 N 81.2955 -0.223234 1.56011 0
M  V30 868 C 82.2425 -1.27664 1.92277 0
M  V30 869 C 83.2125 -1.46659 0.779763 0
M  V30 870 O 84.3975 -1.60256 1.03551 0
M  V30 871 C 81.5375 -2.62234 2.24338 0
M  V30 872 C 80.6505 -2.51051 3.51564 0
M  V30 873 C 79.7855 -3.78133 3.7308 0
M  V30 874 C 78.8245 -3.61665 4.93827 0
M  V30 875 N 77.9615 -4.80693 5.11741 0
M  V30 876 H 82.8015 -0.960358 2.82101 0
M  V30 877 H 80.3385 -0.462901 1.39627 0
M  V30 878 H 82.2965 -3.40596 2.40936 0
M  V30 879 H 80.9265 -2.91961 1.3769 0
M  V30 880 H 79.9785 -1.64132 3.43169 0
M  V30 881 H 81.2905 -2.34803 4.40079 0
M  V30 882 H 80.4445 -4.64938 3.89766 0
M  V30 883 H 79.1835 -3.97304 2.82844 0
M  V30 884 H 78.1885 -2.73244 4.77093 0
M  V30 885 H 79.4135 -3.43966 5.85546 0
M  V30 886 H 77.3595 -5.00181 4.24446 0
M  V30 887 H 77.2765 -4.67165 5.94384 0
M  V30 888 H 78.5445 -5.6893 5.3286 0
M  V30 889 N 82.7736 -1.49793 -0.48987 0
M  V30 890 C 84.0196 -1.61049 -1.24236 0
M  V30 891 C 84.3746 -0.298412 -1.90072 0
M  V30 892 O 83.6676 0.702262 -1.78266 0
M  V30 893 C 83.8616 -2.71488 -2.32441 0
M  V30 894 C 83.6906 -4.13308 -1.77218 0
M  V30 895 C 82.4606 -4.79955 -1.58023 0
M  V30 896 C 84.6586 -4.98176 -1.27772 0
M  V30 897 N 82.6406 -6.06052 -0.978465 0
M  V30 898 C 84.0116 -6.14843 -0.798 0
M  V30 899 C 86.0666 -4.84091 -1.16449 0
M  V30 900 C 84.7696 -7.18975 -0.216245 0
M  V30 901 C 86.7956 -5.88382 -0.596698 0
M  V30 902 C 86.1576 -7.04285 -0.127262 0
M  V30 903 H 82.2566 -0.643611 -0.444172 0
M  V30 904 H 84.8406 -1.86842 -0.54754 0
M  V30 905 H 83.0116 -2.47449 -2.99372 0
M  V30 906 H 84.7436 -2.72205 -2.99477 0
M  V30 907 H 81.4986 -4.36936 -1.82712 0
M  V30 908 H 81.9226 -6.73407 -0.696534 0
M  V30 909 H 86.5646 -3.94786 -1.5134 0
M  V30 910 H 84.2826 -8.0797 0.144903 0
M  V30 911 H 87.8686 -5.79545 -0.511716 0
M  V30 912 H 86.7486 -7.83606 0.30523 0
M  V30 913 N 84.2517 0.741722 -1.39055 0
M  V30 914 C 85.1837 1.8657 -1.33133 0
M  V30 915 C 86.1967 1.61001 -0.241329 0
M  V30 916 O 87.3857 1.7136 -0.499784 0
M  V30 917 C 84.4857 3.22457 -1.04283 0
M  V30 918 C 83.6587 3.75435 -2.24427 0
M  V30 919 C 82.7177 4.89867 -1.92138 0
M  V30 920 O 81.7437 5.03879 -2.64754 0
M  V30 921 N 82.9457 5.73738 -0.88347 0
M  V30 922 H 85.7107 1.92156 -2.29991 0
M  V30 923 H 83.2717 0.922172 -1.3307 0
M  V30 924 H 85.2637 3.9657 -0.807128 0
M  V30 925 H 83.8337 3.12181 -0.161807 0
M  V30 926 H 83.0537 2.92751 -2.6399 0
M  V30 927 H 84.3417 4.07563 -3.04581 0
M  V30 928 H 83.7397 5.64999 -0.281517 0
M  V30 929 H 82.2967 6.47947 -0.707662 0
M  V30 930 N 85.7298 1.2412 0.971189 0
M  V30 931 C 86.9548 1.10667 1.75407 0
M  V30 932 C 87.3798 -0.337048 1.85056 0
M  V30 933 O 86.7378 -1.24396 1.31892 0
M  V30 934 C 86.7858 1.74726 3.15441 0
M  V30 935 O 85.8898 1.01566 3.99697 0
M  V30 936 H 85.2308 0.387341 0.539317 0
M  V30 937 H 87.7608 1.64358 1.2185 0
M  V30 938 H 87.7708 1.80341 3.6598 0
M  V30 939 H 86.4458 2.79773 3.07734 0
M  V30 940 H 85.0228 1.03713 3.58187 0
M  V30 941 N 87.2079 -1.17134 1.05439 0
M  V30 942 C 88.1549 -2.21235 0.657539 0
M  V30 943 C 89.1249 -1.62551 -0.341543 0
M  V30 944 O 90.3099 -1.89379 -0.232393 0
M  V30 945 C 87.4499 -3.45076 0.0410575 0
M  V30 946 C 86.5629 -4.18042 1.08927 0
M  V30 947 C 85.6979 -5.29376 0.439848 0
M  V30 948 C 84.7369 -5.94132 1.4722 0
M  V30 949 N 83.8739 -6.96975 0.846756 0
M  V30 950 H 88.7139 -2.54534 1.54972 0
M  V30 951 H 86.2509 -1.25028 0.775006 0
M  V30 952 H 88.2089 -4.15862 -0.33383 0
M  V30 953 H 86.8389 -3.12353 -0.814568 0
M  V30 954 H 85.8909 -3.45945 1.58196 0
M  V30 955 H 87.2029 -4.62306 1.87282 0
M  V30 956 H 86.3569 -6.06699 0.0115125 0
M  V30 957 H 85.0959 -4.86251 -0.375656 0
M  V30 958 H 84.1009 -5.15538 1.91052 0
M  V30 959 H 85.3259 -6.39337 2.28965 0
M  V30 960 H 83.2719 -6.5598 0.0518075 0
M  V30 961 H 83.1889 -7.39565 1.5678 0
M  V30 962 H 84.4569 -7.78239 0.443277 0
M  V30 963 N 88.686 -0.835752 -1.33615 0
M  V30 964 C 89.914 -0.443344 -2.02094 0
M  V30 965 C 90.329 0.954522 -1.62894 0
M  V30 966 O 89.686 1.61982 -0.840723 0
M  V30 967 C 89.737 -0.550775 -3.5728 0
M  V30 968 O 89.458 -1.89356 -3.95065 0
M  V30 969 C 90.959 -0.154919 -4.43029 0
M  V30 970 H 88.179 -0.176359 -0.647409 0
M  V30 971 H 90.723 -1.12746 -1.70612 0
M  V30 972 H 88.878 0.0853997 -3.87306 0
M  V30 973 H 89.292 -1.87687 -4.89769 0
M  V30 974 H 90.766 -0.281144 -5.51284 0
M  V30 975 H 91.243 0.902863 -4.2982 0
M  V30 976 H 91.849 -0.765404 -4.18356 0
M  V30 977 N 90.1641 1.46063 -0.591896 0
M  V30 978 C 91.3891 2.07226 -0.0850314 0
M  V30 979 C 91.8141 1.43625 1.21463 0
M  V30 980 O 91.1721 0.523305 1.73583 0
M  V30 981 C 91.2201 3.60554 0.0576567 0
M  V30 982 O 90.3241 3.97128 1.11188 0
M  V30 983 H 89.6651 0.660615 -0.0669568 0
M  V30 984 H 92.1951 1.8756 -0.81745 0
M  V30 985 H 92.2051 4.07165 0.2609 0
M  V30 986 H 90.8801 4.06235 -0.891416 0
M  V30 987 H 89.4571 3.62213 0.886356 0
M  V30 988 N 91.6422 0.330177 1.54103 0
M  V30 989 C 92.8882 -0.270806 2.00984 0
M  V30 990 C 93.2212 -1.51265 1.21789 0
M  V30 991 O 92.4962 -1.92142 0.301927 0
M  V30 992 C 92.7792 -0.598339 3.55094 0
M  V30 993 C 92.6322 0.654674 4.4501 0
M  V30 994 C 93.9512 -1.41334 4.16789 0
M  V30 995 H 91.0702 -0.0969531 0.730595 0
M  V30 996 H 93.7122 0.448066 1.84641 0
M  V30 997 H 91.8622 -1.21078 3.69151 0
M  V30 998 H 93.5342 1.29285 4.42813 0
M  V30 999 H 91.7772 1.28224 4.14416 0
M  V30 1000 H 92.4482 0.380944 5.50684 0
M  V30 1001 H 94.9242 -0.895597 4.06347 0
M  V30 1002 H 93.8002 -1.61127 5.24718 0
M  V30 1003 H 94.0612 -2.41146 3.70541 0
M  V30 1004 N 93.1203 -1.57491 0.0584922 0
M  V30 1005 C 94.3663 -1.93264 -0.614558 0
M  V30 1006 C 94.6993 -0.937717 -1.7006 0
M  V30 1007 O 93.9743 0.0351652 -1.94468 0
M  V30 1008 C 94.2573 -3.3938 -1.20386 0
M  V30 1009 C 94.1103 -4.49625 -0.125375 0
M  V30 1010 C 95.4293 -3.86039 -2.11334 0
M  V30 1011 H 92.5483 -0.702791 -0.221933 0
M  V30 1012 H 95.1903 -1.8961 0.12175 0
M  V30 1013 H 93.3403 -3.42626 -1.83139 0
M  V30 1014 H 95.0123 -4.58506 0.506971 0
M  V30 1015 H 93.2553 -4.30354 0.545672 0
M  V30 1016 H 93.9263 -5.48967 -0.577861 0
M  V30 1017 H 96.4023 -3.84716 -1.58534 0
M  V30 1018 H 95.2783 -4.88914 -2.49507 0
M  V30 1019 H 95.5393 -3.23215 -3.01636 0
M  V30 1020 N 94.5984 0.214957 -1.56127 0
M  V30 1021 C 95.5464 1.28601 -1.93816 0
M  V30 1022 C 96.5404 1.48175 -0.821016 0
M  V30 1023 O 97.7464 1.49271 -1.0059 0
M  V30 1024 H 94.1214 0.431302 -0.616022 0
M  V30 1025 H 96.0924 0.940991 -2.83175 0
M  V30 1026 C 94.8414 2.62779 -2.27689 0
M  V30 1027 H 94.1644 2.48527 -3.13168 0
M  V30 1028 H 95.6044 3.36517 -2.57939 0
M  V30 1029 C 94.0634 3.18285 -1.10436 0
M  V30 1030 O 94.5934 4.00002 -0.368945 0
M  V30 1031 N 92.7994 2.7675 -0.886433 0
M  V30 1032 H 92.3464 2.10404 -1.48619 0
M  V30 1033 H 92.3044 3.14229 -0.103656 0
M  V30 1034 N 96.0765 1.50051 0.48192 0
M  V30 1035 C 97.0395 1.67584 1.5636 0
M  V30 1036 C 98.0395 0.546894 1.51214 0
M  V30 1037 O 99.2295 0.813725 1.54026 0
M  V30 1038 C 96.3615 1.691 2.96003 0
M  V30 1039 H 97.5545 2.64078 1.42136 0
M  V30 1040 H 95.1075 1.39369 0.707533 0
M  V30 1041 H 95.8425 0.742589 3.15684 0
M  V30 1042 H 95.6275 2.51105 3.01146 0
M  V30 1043 H 97.1175 1.84656 3.74556 0
M  V30 1044 N 97.5546 -0.734337 1.39446 0
M  V30 1045 C 98.7796 -1.52866 1.40167 0
M  V30 1046 C 99.2046 -1.881 -0.00171513 0
M  V30 1047 O 98.5626 -1.51957 -0.988879 0
M  V30 1048 C 98.6106 -2.79235 2.28167 0
M  V30 1049 O 97.7146 -3.75185 1.71201 0
M  V30 1050 H 97.0556 -0.461618 0.477289 0
M  V30 1051 H 99.5856 -0.905949 1.8345 0
M  V30 1052 H 99.5956 -3.27963 2.42702 0
M  V30 1053 H 98.2706 -2.52923 3.30156 0
M  V30 1054 H 96.8476 -3.33958 1.65912 0
M  V30 1055 N 99.0327 -1.24633 -0.964593 0
M  V30 1056 C 100.282 -1.08188 -1.7023 0
M  V30 1057 C 100.595 0.37873 -1.91898 0
M  V30 1058 O 101.801 0.663427 -2.6327 0
M  V30 1059 C 100.257 -1.88773 -3.06419 0
M  V30 1060 C 99.8647 -3.39263 -2.92582 0
M  V30 1061 C 101.609 -1.80867 -3.84041 0
M  V30 1062 C 99.5157 -4.1218 -4.24101 0
M  V30 1063 H 98.4457 -0.401245 -0.638372 0
M  V30 1064 H 101.097 -1.48742 -1.07462 0
M  V30 1065 H 99.4787 -1.41035 -3.70034 0
M  V30 1066 H 100.653 -3.94603 -2.37961 0
M  V30 1067 H 98.9677 -3.48154 -2.28424 0
M  V30 1068 H 101.565 -2.32646 -4.81435 0
M  V30 1069 H 101.908 -0.774543 -4.09031 0
M  V30 1070 H 102.441 -2.26301 -3.27159 0
M  V30 1071 H 99.1797 -5.15965 -4.04303 0
M  V30 1072 H 98.6997 -3.61626 -4.78526 0
M  V30 1073 H 100.379 -4.19349 -4.92702 0
M  V30 1074 N 100.511 1.16574 -1.06058 0
M  V30 1075 C 101.736 1.91493 -0.796562 0
M  V30 1076 C 102.161 1.76773 0.642868 0
M  V30 1077 O 101.519 1.09142 1.44768 0
M  V30 1078 C 101.567 3.40293 -1.19303 0
M  V30 1079 O 100.671 4.11074 -0.330394 0
M  V30 1080 H 100.012 0.596678 -0.291326 0
M  V30 1081 H 102.542 1.47708 -1.41575 0
M  V30 1082 H 102.552 3.91057 -1.16356 0
M  V30 1083 H 101.227 3.50326 -2.24153 0
M  V30 1084 H 99.8038 3.70513 -0.421225 0
M  V30 1085 N 101.989 0.842826 1.3317 0
M  V30 1086 C 103.237 0.439577 1.97262 0
M  V30 1087 C 103.558 -1.00548 1.67078 0
M  V30 1088 O 102.828 -1.70098 0.971779 0
M  V30 1089 H 101.408 0.159558 0.72976 0
M  V30 1090 H 104.07 1.07665 1.62463 0
M  V30 1091 H 103.166 0.574886 3.0676 0
M  V30 1092 N 103.467 -1.45747 0.599634 0
M  V30 1093 C 104.744 -1.95585 0.0240846 0
M  V30 1094 C 105.124 -1.54217 -1.44154 0
M  V30 1095 O 104.472 -0.800903 -2.14004 0
M  V30 1096 C 104.682 -3.48344 0.21385 0
M  V30 1097 C 106.03 -4.24504 0.0904902 0
M  V30 1098 O 107.054 -3.55911 0.143558 0
M  V30 1099 O 105.913 -5.46491 -0.0310766 0
M  V30 1100 H 103.007 -0.82602 -0.0402478 0
M  V30 1101 H 105.553 -1.55951 0.669139 0
M  V30 1102 H 104.325 -3.71397 1.23206 0
M  V30 1103 H 103.948 -3.9485 -0.466842 0
M  V30 1104 N 104.945 -0.338344 -1.53925 0
M  V30 1105 C 106.173 0.261298 -2.05243 0
M  V30 1106 C 106.588 1.44625 -1.21363 0
M  V30 1107 O 105.945 1.80811 -0.247736 0
M  V30 1108 C 105.996 0.681412 -3.5502 0
M  V30 1109 O 105.717 -0.456414 -4.35716 0
M  V30 1110 C 107.218 1.34232 -4.22489 0
M  V30 1111 H 104.438 0.0513685 -0.669031 0
M  V30 1112 H 106.982 -0.488822 -1.98572 0
M  V30 1113 H 105.137 1.38148 -3.61931 0
M  V30 1114 H 105.551 -0.122564 -5.24357 0
M  V30 1115 H 107.025 1.58708 -5.28693 0
M  V30 1116 H 107.502 2.29426 -3.74514 0
M  V30 1117 H 108.108 0.684424 -4.19757 0
M  V30 1118 N 106.423 1.57458 -0.0668435 0
M  V30 1119 C 107.648 1.9804 0.616027 0
M  V30 1120 C 108.073 0.944771 1.62652 0
M  V30 1121 O 107.431 -0.0902094 1.81075 0
M  V30 1122 C 107.479 3.37665 1.26549 0
M  V30 1123 O 106.583 3.36701 2.38131 0
M  V30 1124 H 105.924 0.644719 0.158849 0
M  V30 1125 H 108.454 2.04121 -0.139891 0
M  V30 1126 H 108.464 3.7474 1.6135 0
M  V30 1127 H 107.139 4.12573 0.525016 0
M  V30 1128 H 105.716 3.1139 2.0516 0
M  V30 1129 N 107.901 -0.206675 1.56239 0
M  V30 1130 C 108.833 -1.27997 1.9013 0
M  V30 1131 C 109.846 -1.42299 0.790883 0
M  V30 1132 O 111.035 -1.42931 1.06925 0
M  V30 1133 C 108.135 -2.65368 2.10792 0
M  V30 1134 C 107.308 -2.72824 3.41886 0
M  V30 1135 C 106.367 -3.9131 3.51799 0
M  V30 1136 O 105.393 -3.78953 4.24716 0
M  V30 1137 N 106.595 -5.06265 2.84035 0
M  V30 1138 H 109.36 -0.992444 2.82791 0
M  V30 1139 H 106.921 -0.396652 1.56966 0
M  V30 1140 H 108.913 -3.43039 2.14724 0
M  V30 1141 H 107.483 -2.86657 1.24685 0
M  V30 1142 H 106.703 -1.81515 3.49923 0
M  V30 1143 H 107.991 -2.74786 4.28217 0
M  V30 1144 H 107.389 -5.19203 2.246 0
M  V30 1145 H 105.946 -5.81925 2.93609 0
M  V30 1146 N 109.379 -1.50304 -0.473955 0
M  V30 1147 C 110.311 -1.65109 -1.58971 0
M  V30 1148 C 111.324 -0.532676 -1.53839 0
M  V30 1149 O 112.513 -0.805751 -1.59279 0
M  V30 1150 C 109.613 -1.61684 -2.97845 0
M  V30 1151 C 108.786 -2.8951 -3.27876 0
M  V30 1152 C 107.845 -2.78768 -4.4629 0
M  V30 1153 O 106.871 -3.52722 -4.46739 0
M  V30 1154 N 108.073 -1.9213 -5.47783 0
M  V30 1155 H 110.838 -2.61347 -1.46689 0
M  V30 1156 H 108.399 -1.47732 -0.662324 0
M  V30 1157 H 110.391 -1.52114 -3.75024 0
M  V30 1158 H 108.961 -0.731925 -3.03911 0
M  V30 1159 H 108.181 -3.13228 -2.39336 0
M  V30 1160 H 109.469 -3.74199 -3.4475 0
M  V30 1161 H 108.867 -1.31353 -5.50239 0
M  V30 1162 H 107.424 -1.88466 -6.23958 0
M  V30 1163 N 110.857 0.726932 -1.39834 0
M  V30 1164 C 112.105 1.4837 -1.37225 0
M  V30 1165 C 112.426 1.94979 0.0284857 0
M  V30 1166 O 111.696 1.69555 0.981213 0
M  V30 1167 H 110.276 0.55043 -0.505011 0
M  V30 1168 H 112.938 0.862468 -1.74778 0
M  V30 1169 H 112.034 2.36198 -2.04003 0
M  V30 1170 N 112.336 1.25143 0.95797 0
M  V30 1171 C 113.266 1.07711 2.07173 0
M  V30 1172 C 114.247 -0.0128462 1.70095 0
M  V30 1173 O 115.432 0.156061 1.93572 0
M  V30 1174 C 112.562 0.691503 3.40346 0
M  V30 1175 C 111.516 1.73132 3.9142 0
M  V30 1176 C 110.842 1.20049 5.21049 0
M  V30 1177 C 112.142 3.1294 4.1817 0
M  V30 1178 H 113.836 2.00873 2.22014 0
M  V30 1179 H 111.382 0.967191 1.06684 0
M  V30 1180 H 113.335 0.556505 4.17709 0
M  V30 1181 H 112.059 -0.275819 3.25433 0
M  V30 1182 H 110.718 1.8547 3.16222 0
M  V30 1183 H 110.366 0.223499 5.02503 0
M  V30 1184 H 110.066 1.89545 5.56189 0
M  V30 1185 H 111.59 1.07782 6.01012 0
M  V30 1186 H 113.004 3.03775 4.86203 0
M  V30 1187 H 111.401 3.79875 4.64559 0
M  V30 1188 H 112.471 3.6025 3.24573 0
M  V30 1189 N 113.814 -1.1601 1.06675 0
M  V30 1190 C 114.777 -2.18724 0.685001 0
M  V30 1191 C 115.777 -1.58496 -0.271246 0
M  V30 1192 O 116.967 -1.74119 -0.0531156 0
M  V30 1193 C 114.099 -3.40899 0.00853648 0
M  V30 1194 H 115.292 -2.54011 1.59431 0
M  V30 1195 H 112.845 -1.30352 0.862441 0
M  V30 1196 H 113.58 -3.11173 -0.913337 0
M  V30 1197 H 113.365 -3.8587 0.696204 0
M  V30 1198 H 114.855 -4.16886 -0.24414 0
M  V30 1199 N 115.292 -0.849877 -1.32721 0
M  V30 1200 C 116.708 -0.539102 -1.50219 0
M  V30 1201 C 116.908 0.931271 -1.78689 0
M  V30 1202 O 115.964 1.71455 -1.85363 0
M  V30 1203 C 117.277 -1.42196 -2.64954 0
M  V30 1204 C 118.825 -1.42189 -2.78839 0
M  V30 1205 C 119.3 -2.28985 -3.96648 0
M  V30 1206 N 120.791 -2.26754 -4.03902 0
M  V30 1207 C 121.526 -2.90644 -4.94281 0
M  V30 1208 N 121.022 -3.63629 -5.897 0
M  V30 1209 N 122.815 -2.80057 -4.87365 0
M  V30 1210 H 114.966 -1.80156 -1.12506 0
M  V30 1211 H 117.229 -0.769217 -0.554085 0
M  V30 1212 H 116.935 -2.46733 -2.50631 0
M  V30 1213 H 116.809 -1.10591 -3.60624 0
M  V30 1214 H 119.196 -0.38419 -2.92588 0
M  V30 1215 H 119.277 -1.77807 -1.83898 0
M  V30 1216 H 118.921 -3.32819 -3.83658 0
M  V30 1217 H 118.851 -1.90702 -4.90857 0
M  V30 1218 H 121.342 -1.73688 -3.3562 0
M  V30 1219 H 121.655 -4.09558 -6.55349 0
M  V30 1220 H 120 -3.67737 -5.89741 0
M  V30 1221 H 123.191 -2.22593 -4.11789 0
M  V30 1222 H 123.364 -3.30132 -5.57599 0
M  V30 1223 N 116.77 1.45427 -0.607355 0
M  V30 1224 C 117.7 2.3329 0.0989352 0
M  V30 1225 C 118.681 1.46816 0.859007 0
M  V30 1226 O 119.866 1.75588 0.829604 0
M  V30 1227 C 116.996 3.29518 1.09705 0
M  V30 1228 C 115.95 4.25626 0.450206 0
M  V30 1229 C 115.276 5.11542 1.55655 0
M  V30 1230 C 116.576 5.18505 -0.628455 0
M  V30 1231 H 118.27 2.92595 -0.634716 0
M  V30 1232 H 115.816 1.40696 -0.306681 0
M  V30 1233 H 117.769 3.89855 1.59971 0
M  V30 1234 H 116.493 2.68372 1.86129 0
M  V30 1235 H 115.152 3.66586 -0.0315886 0
M  V30 1236 H 114.8 4.46765 2.31107 0
M  V30 1237 H 114.5 5.76647 1.12925 0
M  V30 1238 H 116.024 5.74748 2.06148 0
M  V30 1239 H 117.438 5.72916 -0.209877 0
M  V30 1240 H 115.835 5.92085 -0.977489 0
M  V30 1241 H 116.905 4.60948 -1.50514 0
M  V30 1242 N 118.248 0.346503 1.53744 0
M  V30 1243 C 119.659 -0.136779 1.86198 0
M  V30 1244 C 120.01 -1.49749 1.26766 0
M  V30 1245 O 119.135 -2.08417 0.582355 0
M  V30 1246 C 119.73 -0.254966 3.37839 0
M  V30 1247 C 118.289 -0.682482 3.70161 0
M  V30 1248 C 117.436 0.181981 2.76702 0
M  V30 1249 H 120.387 0.565994 1.48264 0
M  V30 1250 H 120.408 -1.08195 3.64793 0
M  V30 1251 H 119.92 0.735526 3.81066 0
M  V30 1252 H 118.021 -1.68189 3.3248 0
M  V30 1253 H 118.134 -0.470326 4.76786 0
M  V30 1254 H 116.498 -0.34615 2.52337 0
M  V30 1255 H 117.281 1.16966 3.2276 0
M  V30 1256 N 119.726 -1.57421 0.075193 0
M  V30 1257 C 120.689 -2.11791 -0.876203 0
M  V30 1258 C 121.689 -1.04268 -1.22412 0
M  V30 1259 O 122.879 -1.30242 -1.15684 0
M  V30 1260 C 120.011 -2.62207 -2.17854 0
M  V30 1261 H 121.204 -2.9716 -0.40444 0
M  V30 1262 H 118.757 -1.55333 -0.173557 0
M  V30 1263 H 119.492 -1.803 -2.6956 0
M  V30 1264 H 119.277 -3.40802 -1.93897 0
M  V30 1265 H 120.767 -3.04335 -2.85955 0
M  V30 1266 N 121.204 0.198386 -1.56346 0
M  V30 1267 C 122.134 1.24865 -1.9731 0
M  V30 1268 C 123.115 1.47651 -0.844576 0
M  V30 1269 O 124.3 1.59444 -1.10866 0
M  V30 1270 C 121.43 2.59358 -2.30977 0
M  V30 1271 C 120.384 2.5119 -3.46537 0
M  V30 1272 C 119.71 3.89926 -3.65871 0
M  V30 1273 C 121.01 2.03977 -4.80823 0
M  V30 1274 H 122.704 0.908252 -2.85291 0
M  V30 1275 H 120.25 0.435462 -1.37258 0
M  V30 1276 H 122.203 3.33011 -2.58228 0
M  V30 1277 H 120.927 2.95132 -1.39874 0
M  V30 1278 H 119.586 1.79993 -3.19371 0
M  V30 1279 H 119.234 4.23046 -2.72105 0
M  V30 1280 H 118.934 3.85336 -4.4361 0
M  V30 1281 H 120.458 4.65205 -3.95495 0
M  V30 1282 H 121.872 2.67386 -5.07127 0
M  V30 1283 H 120.269 2.10397 -5.62008 0
M  V30 1284 H 121.339 0.992861 -4.74626 0
M  V30 1285 N 122.682 1.50554 0.465978 0
M  V30 1286 C 123.612 1.72722 1.57128 0
M  V30 1287 C 124.593 0.576294 1.6004 0
M  V30 1288 O 125.778 0.81598 1.76225 0
M  V30 1289 C 122.908 1.82605 2.95419 0
M  V30 1290 C 121.862 2.97835 3.07373 0
M  V30 1291 C 121.188 2.92867 4.47363 0
M  V30 1292 C 122.488 4.38265 2.84114 0
M  V30 1293 H 124.182 2.65267 1.38829 0
M  V30 1294 H 121.728 1.2765 0.666441 0
M  V30 1295 H 123.681 1.96698 3.72677 0
M  V30 1296 H 122.405 0.866858 3.14886 0
M  V30 1297 H 121.064 2.83401 2.3255 0
M  V30 1298 H 120.712 1.94783 4.63755 0
M  V30 1299 H 120.412 3.70227 4.56296 0
M  V30 1300 H 121.936 3.09015 5.26633 0
M  V30 1301 H 123.35 4.53198 3.51118 0
M  V30 1302 H 121.747 5.17115 3.04487 0
M  V30 1303 H 122.817 4.50281 1.7993 0
M  V30 1304 N 124.16 -0.719506 1.40217 0
M  V30 1305 C 125.107 -1.83359 1.40172 0
M  V30 1306 C 126.077 -1.64065 0.259206 0
M  V30 1307 O 127.262 -1.85254 0.456677 0
M  V30 1308 C 124.402 -3.2103 1.26624 0
M  V30 1309 C 123.515 -3.51923 2.50548 0
M  V30 1310 C 122.65 -4.79079 2.29471 0
M  V30 1311 C 121.689 -5.02863 3.48992 0
M  V30 1312 N 120.826 -6.2123 3.27135 0
M  V30 1313 H 125.666 -1.82733 2.35399 0
M  V30 1314 H 123.203 -0.892688 1.16917 0
M  V30 1315 H 125.161 -4.00524 1.16776 0
M  V30 1316 H 123.791 -3.20895 0.350176 0
M  V30 1317 H 122.843 -2.67014 2.70939 0
M  V30 1318 H 124.155 -3.6541 3.39525 0
M  V30 1319 H 123.309 -5.66582 2.16955 0
M  V30 1320 H 122.048 -4.67794 1.37913 0
M  V30 1321 H 121.053 -4.13816 3.6199 0
M  V30 1322 H 122.278 -5.16023 4.41472 0
M  V30 1323 H 120.224 -6.11204 2.38256 0
M  V30 1324 H 120.141 -6.35375 4.09675 0
M  V30 1325 H 121.409 -7.11532 3.18344 0
M  V30 1326 N 125.638 -1.25649 -0.95132 0
M  V30 1327 C 126.57 -1.02112 -2.05197 0
M  V30 1328 C 127.583 0.0150571 -1.62793 0
M  V30 1329 O 128.772 -0.223874 -1.77091 0
M  V30 1330 C 125.872 -0.522361 -3.3485 0
M  V30 1331 C 125.045 -1.62546 -4.06076 0
M  V30 1332 C 124.104 -1.12649 -5.14001 0
M  V30 1333 O 123.13 -1.82156 -5.39266 0
M  V30 1334 N 124.332 0.03047 -5.80492 0
M  V30 1335 H 127.097 -1.96885 -2.25957 0
M  V30 1336 H 124.658 -1.16899 -1.1201 0
M  V30 1337 H 126.65 -0.172961 -4.0433 0
M  V30 1338 H 125.22 0.33151 -3.10837 0
M  V30 1339 H 124.44 -2.14628 -3.30649 0
M  V30 1340 H 125.728 -2.36644 -4.50419 0
M  V30 1341 H 125.126 0.611169 -5.62389 0
M  V30 1342 H 123.683 0.320875 -6.5101 0
M  V30 1343 N 127.117 1.15442 -1.07289 0
M  V30 1344 C 128.067 2.18164 -0.662467 0
M  V30 1345 C 129.051 1.57845 0.312074 0
M  V30 1346 O 130.243 1.76552 0.125905 0
M  V30 1347 C 127.372 3.43246 -0.0611295 0
M  V30 1348 C 126.458 4.1062 -1.06077 0
M  V30 1349 N 126.849 4.53491 -2.24008 0
M  V30 1350 C 125.147 4.36949 -0.893964 0
M  V30 1351 C 125.848 5.05731 -2.87422 0
M  V30 1352 N 124.824 4.99236 -2.15091 0
M  V30 1353 H 128.626 2.49038 -1.56068 0
M  V30 1354 H 126.14 1.32003 -0.945988 0
M  V30 1355 H 128.137 4.16145 0.250792 0
M  V30 1356 H 126.797 3.13854 0.832207 0
M  V30 1357 H 127.808 4.46898 -2.6173 0
M  V30 1358 H 124.485 4.17466 -0.0534693 0
M  V30 1359 H 125.875 5.48865 -3.87553 0
M  V30 1360 N 128.595 0.856903 1.32268 0
M  V30 1361 C 129.527 0.260412 2.27716 0
M  V30 1362 C 130.54 -0.569137 1.52528 0
M  V30 1363 O 131.729 -0.39326 1.74114 0
M  V30 1364 C 128.829 -0.650477 3.32599 0
M  V30 1365 C 128.002 0.14372 4.37164 0
M  V30 1366 C 127.061 -0.69328 5.21613 0
M  V30 1367 O 126.087 -0.12599 5.69061 0
M  V30 1368 N 127.289 -2.00761 5.44679 0
M  V30 1369 H 130.054 1.08059 2.79541 0
M  V30 1370 H 127.615 0.717103 1.45152 0
M  V30 1371 H 129.607 -1.21581 3.86005 0
M  V30 1372 H 128.177 -1.37133 2.80915 0
M  V30 1373 H 127.397 0.890486 3.8401 0
M  V30 1374 H 128.685 0.68915 5.04111 0
M  V30 1375 H 128.083 -2.49181 5.07863 0
M  V30 1376 H 126.64 -2.52103 6.01072 0
M  V30 1377 N 130.073 -1.45103 0.615059 0
M  V30 1378 C 131.484 -1.85654 0.197383 0
M  V30 1379 C 131.835 -1.51433 -1.24749 0
M  V30 1380 O 130.96 -0.944608 -1.94695 0
M  V30 1381 C 131.555 -3.36972 0.351448 0
M  V30 1382 C 130.114 -3.76398 -0.011593 0
M  V30 1383 C 129.261 -2.69024 0.672394 0
M  V30 1384 H 132.212 -1.35797 0.821263 0
M  V30 1385 H 132.233 -3.78239 -0.414227 0
M  V30 1386 H 131.745 -3.61847 1.40314 0
M  V30 1387 H 129.846 -3.5714 -1.06217 0
M  V30 1388 H 129.959 -4.77532 0.387265 0
M  V30 1389 H 128.323 -2.54465 0.109284 0
M  V30 1390 H 129.106 -2.96735 1.72636 0
M  V30 1391 N 131.551 -0.354651 -1.53558 0
M  V30 1392 C 132.967 -0.00315426 -1.596 0
M  V30 1393 C 133.167 1.47741 -1.37021 0
M  V30 1394 O 132.223 2.23759 -1.16996 0
M  V30 1395 C 133.536 -0.44929 -2.97325 0
M  V30 1396 C 135.084 -0.402578 -3.104 0
M  V30 1397 C 135.559 -0.824355 -4.5052 0
M  V30 1398 N 137.05 -0.778979 -4.56603 0
M  V30 1399 C 137.785 -1.07715 -5.63192 0
M  V30 1400 N 137.281 -1.44405 -6.77583 0
M  V30 1401 N 139.074 -1.00066 -5.53121 0
M  V30 1402 H 131.225 -1.31893 -1.66487 0
M  V30 1403 H 133.488 -0.538388 -0.780284 0
M  V30 1404 H 133.194 -1.48202 -3.1895 0
M  V30 1405 H 133.068 0.169772 -3.76818 0
M  V30 1406 H 135.455 0.621004 -2.88492 0
M  V30 1407 H 135.536 -1.05699 -2.32941 0
M  V30 1408 H 135.18 -1.846 -4.73165 0
M  V30 1409 H 135.11 -0.147304 -5.26394 0
M  V30 1410 H 137.601 -0.508528 -3.74463 0
M  V30 1411 H 137.914 -1.65612 -7.54846 0
M  V30 1412 H 136.259 -1.4826 -6.79002 0
M  V30 1413 H 139.45 -0.713293 -4.62633 0
M  V30 1414 H 139.623 -1.23638 -6.36096 0
M  V30 1415 N 133.029 1.57378 -0.0835403 0
M  V30 1416 C 134.275 1.95025 0.577664 0
M  V30 1417 C 134.63 0.964049 1.66505 0
M  V30 1418 O 133.923 -0.0118235 1.91596 0
M  V30 1419 C 134.117 3.37063 1.1884 0
M  V30 1420 C 133.946 4.49409 0.16171 0
M  V30 1421 C 132.716 5.04642 -0.257756 0
M  V30 1422 C 134.914 5.10722 -0.605634 0
M  V30 1423 N 132.896 6.00537 -1.27393 0
M  V30 1424 C 134.267 6.02225 -1.47395 0
M  V30 1425 C 136.322 4.93501 -0.660418 0
M  V30 1426 C 135.025 6.78355 -2.39221 0
M  V30 1427 C 137.051 5.70283 -1.56623 0
M  V30 1428 C 136.413 6.61444 -2.4222 0
M  V30 1429 H 132.512 0.760512 0.182058 0
M  V30 1430 H 135.096 1.94013 -0.163419 0
M  V30 1431 H 133.267 3.3879 1.89936 0
M  V30 1432 H 134.999 3.61917 1.81103 0
M  V30 1433 H 131.754 4.73428 0.127702 0
M  V30 1434 H 132.178 6.53184 -1.77987 0
M  V30 1435 H 136.82 4.22798 -0.0128221 0
M  V30 1436 H 134.538 7.48327 -3.05011 0
M  V30 1437 H 138.124 5.58976 -1.61361 0
M  V30 1438 H 137.004 7.1982 -3.11174 0
M  V30 1439 N 134.507 -0.190092 1.56449 0
M  V30 1440 C 135.753 -0.911052 1.81184 0
M  V30 1441 C 136.086 -1.82699 0.658396 0
M  V30 1442 O 135.361 -1.91491 -0.340775 0
M  V30 1443 C 135.644 -1.72297 3.16205 0
M  V30 1444 C 135.497 -0.831419 4.42049 0
M  V30 1445 C 136.816 -2.69454 3.47969 0
M  V30 1446 H 133.935 -0.32977 0.659106 0
M  V30 1447 H 136.577 -0.178169 1.89163 0
M  V30 1448 H 134.727 -2.34778 3.09534 0
M  V30 1449 H 136.399 -0.220929 4.60771 0
M  V30 1450 H 134.642 -0.138406 4.33579 0
M  V30 1451 H 135.313 -1.43461 5.33032 0
M  V30 1452 H 137.789 -2.17104 3.54972 0
M  V30 1453 H 136.665 -3.23342 4.43555 0
M  V30 1454 H 136.926 -3.48744 2.71717 0
M  V30 1455 N 135.985 -1.50799 -0.457987 0
M  V30 1456 C 136.915 -1.73553 -1.5621 0
M  V30 1457 C 137.896 -0.584774 -1.59732 0
M  V30 1458 O 139.081 -0.825314 -1.7579 0
M  V30 1459 C 136.211 -1.84169 -2.94447 0
M  V30 1460 C 135.165 -2.99461 -3.0579 0
M  V30 1461 C 134.491 -2.95235 -4.45803 0
M  V30 1462 C 135.791 -4.39766 -2.81786 0
M  V30 1463 H 137.485 -2.66 -1.37421 0
M  V30 1464 H 135.031 -1.28002 -0.659662 0
M  V30 1465 H 136.984 -1.98672 -3.71628 0
M  V30 1466 H 135.708 -0.883545 -3.14422 0
M  V30 1467 H 134.367 -2.8463 -2.31044 0
M  V30 1468 H 134.015 -1.97239 -4.62715 0
M  V30 1469 H 133.715 -3.72642 -4.54326 0
M  V30 1470 H 135.239 -3.11803 -5.24987 0
M  V30 1471 H 136.653 -4.55054 -3.4871 0
M  V30 1472 H 135.05 -5.18722 -3.0174 0
M  V30 1473 H 136.12 -4.51229 -1.7754 0
M  V30 1474 N 137.463 0.71206 -1.40597 0
M  V30 1475 C 138.709 1.47416 -1.39271 0
M  V30 1476 C 139.042 1.942 0.00388791 0
M  V30 1477 O 138.317 1.68403 0.973179 0
M  V30 1478 C 138.6 2.69774 -2.38525 0
M  V30 1479 C 138.453 2.28861 -3.87224 0
M  V30 1480 C 139.772 3.71939 -2.35264 0
M  V30 1481 H 136.891 0.534713 -0.5072 0
M  V30 1482 H 139.533 0.812375 -1.71757 0
M  V30 1483 H 137.683 3.26238 -2.10953 0
M  V30 1484 H 139.355 1.77852 -4.25636 0
M  V30 1485 H 137.598 1.60824 -4.02887 0
M  V30 1486 H 138.269 3.16584 -4.52193 0
M  V30 1487 H 140.745 3.25113 -2.59694 0
M  V30 1488 H 139.621 4.55186 -3.06753 0
M  V30 1489 H 139.882 4.20484 -1.36549 0
M  V30 1490 N 138.941 1.26152 0.944643 0
M  V30 1491 C 139.851 1.09176 2.07648 0
M  V30 1492 C 140.867 0.0261935 1.7398 0
M  V30 1493 O 142.043 0.229208 2.00091 0
M  V30 1494 C 139.108 0.722915 3.39079 0
M  V30 1495 C 138.169 1.86752 3.86552 0
M  V30 1496 C 137.402 1.51617 5.11711 0
M  V30 1497 O 137.625 0.416331 5.68879 0
M  V30 1498 O 136.559 2.34975 5.54139 0
M  V30 1499 H 140.385 2.0412 2.24875 0
M  V30 1500 H 137.97 1.05182 1.061 0
M  V30 1501 H 139.852 0.529787 4.18056 0
M  V30 1502 H 138.527 -0.197159 3.23099 0
M  V30 1503 H 137.434 2.11558 3.08535 0
M  V30 1504 H 138.767 2.76719 4.07047 0
M  V30 1505 N 140.419 -1.14872 1.07899 0
M  V30 1506 C 141.349 -2.2193 0.725887 0
M  V30 1507 C 142.33 -1.67622 -0.28927 0
M  V30 1508 O 143.515 -1.93533 -0.160787 0
M  V30 1509 C 140.645 -3.47061 0.128856 0
M  V30 1510 C 139.599 -4.14363 1.07178 0
M  V30 1511 C 138.925 -5.33636 0.337229 0
M  V30 1512 C 140.225 -4.63492 2.40775 0
M  V30 1513 H 141.919 -2.51724 1.62097 0
M  V30 1514 H 139.465 -1.20991 0.780838 0
M  V30 1515 H 141.418 -4.21199 -0.130147 0
M  V30 1516 H 140.142 -3.16617 -0.80134 0
M  V30 1517 H 138.801 -3.42173 1.3158 0
M  V30 1518 H 138.449 -4.99449 -0.596606 0
M  V30 1519 H 138.149 -5.79609 0.965788 0
M  V30 1520 H 139.673 -6.10539 0.0861567 0
M  V30 1521 H 141.087 -5.2913 2.20669 0
M  V30 1522 H 139.484 -5.20148 2.99276 0
M  V30 1523 H 140.554 -3.78834 3.02676 0
M  V30 1524 N 141.898 -0.863906 -1.31812 0
M  V30 1525 C 143.146 -0.470904 -1.96537 0
M  V30 1526 C 143.467 0.978771 -1.68657 0
M  V30 1527 O 142.737 1.6853 -0.998717 0
M  V30 1528 H 141.317 -0.171148 -0.72713 0
M  V30 1529 H 143.979 -1.10236 -1.60729 0
M  V30 1530 H 143.075 -0.623616 -3.05806 0
M  V30 1531 N 143.376 1.44774 -0.622745 0
M  V30 1532 C 144.624 2.01721 -0.123655 0
M  V30 1533 C 144.945 1.49172 1.25589 0
M  V30 1534 O 144.215 0.691974 1.83272 0
M  V30 1535 H 142.795 0.745777 -0.0427225 0
M  V30 1536 H 145.457 1.77382 -0.807559 0
M  V30 1537 H 144.553 3.11984 -0.0849534 0
M  V30 1538 N 144.854 0.36279 1.53368 0
M  V30 1539 C 145.802 -0.500155 2.27159 0
M  V30 1540 C 146.796 -1.08575 1.3003 0
M  V30 1541 O 148.002 -1.02927 1.47668 0
M  V30 1542 H 144.377 -0.180009 0.730138 0
M  V30 1543 H 146.348 0.14401 2.98052 0
M  V30 1544 C 145.097 -1.62937 3.07159 0
M  V30 1545 H 144.42 -1.18806 3.8174 0
M  V30 1546 H 145.86 -2.20795 3.61975 0
M  V30 1547 C 144.319 -2.57007 2.17829 0
M  V30 1548 O 144.849 -3.59752 1.78721 0
M  V30 1549 N 143.055 -2.26131 1.82518 0
M  V30 1550 H 142.602 -1.42616 2.14519 0
M  V30 1551 H 142.56 -2.89327 1.23034 0
M  V30 1552 N 146.332 -1.57332 0.0918853 0
M  V30 1553 C 147.609 -1.85691 -0.614668 0
M  V30 1554 C 147.989 -0.988146 -1.86545 0
M  V30 1555 O 147.337 -0.0597055 -2.28422 0
M  V30 1556 C 147.547 -3.36294 -0.933126 0
M  V30 1557 C 148.895 -4.04275 -1.29796 0
M  V30 1558 O 149.919 -3.41157 -1.02424 0
M  V30 1559 O 148.778 -5.1564 -1.81047 0
M  V30 1560 H 145.872 -0.767802 -0.307261 0
M  V30 1561 H 148.418 -1.69244 0.12434 0
M  V30 1562 H 147.19 -3.91273 -0.0456404 0
M  V30 1563 H 146.813 -3.58076 -1.72822 0
M  V30 1564 N 147.81 0.181792 -1.56548 0
M  V30 1565 C 149.058 0.89832 -1.81038 0
M  V30 1566 C 149.379 1.83232 -0.667164 0
M  V30 1567 O 148.649 1.93372 0.313673 0
M  V30 1568 H 147.229 0.33471 -0.667816 0
M  V30 1569 H 149.891 0.184116 -1.94028 0
M  V30 1570 H 148.987 1.4815 -2.74696 0
M  V30 1571 N 149.288 1.51039 0.449983 0
M  V30 1572 C 150.218 1.74379 1.55288 0
M  V30 1573 C 151.199 0.593236 1.5942 0
M  V30 1574 O 152.384 0.834625 1.7535 0
M  V30 1575 C 149.514 1.85728 2.93466 0
M  V30 1576 C 148.468 3.01078 3.04197 0
M  V30 1577 C 147.794 2.97595 4.44231 0
M  V30 1578 C 149.094 4.41254 2.7945 0
M  V30 1579 H 150.788 2.66725 1.36008 0
M  V30 1580 H 148.334 1.2835 0.652864 0
M  V30 1581 H 150.287 2.0064 3.70569 0
M  V30 1582 H 149.011 0.900207 3.13949 0
M  V30 1583 H 147.67 2.85851 2.29531 0
M  V30 1584 H 147.318 1.99691 4.61663 0
M  V30 1585 H 147.018 3.75046 4.52343 0
M  V30 1586 H 148.542 3.14583 5.23326 0
M  V30 1587 H 149.956 4.56897 3.46292 0
M  V30 1588 H 148.353 5.20315 2.98985 0
M  V30 1589 H 149.423 4.52164 1.75144 0
M  V30 1590 N 150.766 -0.704594 1.40972 0
M  V30 1591 C 152.182 -1.01406 1.23244 0
M  V30 1592 C 152.382 -2.01169 0.115399 0
M  V30 1593 O 151.438 -2.47021 -0.523147 0
M  V30 1594 C 152.751 -1.54728 2.57836 0
M  V30 1595 C 154.299 -1.66658 2.64942 0
M  V30 1596 C 154.774 -2.23383 3.9983 0
M  V30 1597 N 156.265 -2.30756 4.01629 0
M  V30 1598 C 157 -2.75655 5.02794 0
M  V30 1599 N 156.496 -3.20225 6.14352 0
M  V30 1600 N 158.289 -2.75138 4.90159 0
M  V30 1601 H 150.44 -0.0435285 2.12355 0
M  V30 1602 H 152.703 -0.0818951 0.944456 0
M  V30 1603 H 152.409 -0.888832 3.40283 0
M  V30 1604 H 152.283 -2.53084 2.79693 0
M  V30 1605 H 154.67 -2.31617 1.8286 0
M  V30 1606 H 154.751 -0.668717 2.46904 0
M  V30 1607 H 154.395 -1.59043 4.82357 0
M  V30 1608 H 154.325 -3.23904 4.15203 0
M  V30 1609 H 156.816 -1.99291 3.21079 0
M  V30 1610 H 157.129 -3.53084 6.87424 0
M  V30 1611 H 155.474 -3.18156 6.17901 0
M  V30 1612 H 158.665 -2.39661 4.02095 0
M  V30 1613 H 158.838 -3.09812 5.6914 0
M  V30 1614 N 152.244 -1.26651 -0.937939 0
M  V30 1615 C 153.492 -1.12165 -1.68118 0
M  V30 1616 C 153.813 0.334983 -1.92101 0
M  V30 1617 O 153.083 1.23583 -1.52 0
M  V30 1618 H 151.663 -0.412093 -0.623048 0
M  V30 1619 H 154.325 -1.59027 -1.12678 0
M  V30 1620 H 153.421 -1.64289 -2.6536 0
M  V30 1621 N 153.722 1.14298 -1.08507 0
M  V30 1622 C 154.969 1.85359 -0.815373 0
M  V30 1623 C 155.297 1.83001 0.658865 0
M  V30 1624 O 154.552 1.25655 1.50031 0
M  V30 1625 C 154.851 3.33547 -1.28379 0
M  V30 1626 C 154.517 3.56093 -2.76602 0
M  V30 1627 C 153.179 3.61955 -3.17084 0
M  V30 1628 C 155.531 3.64834 -3.72217 0
M  V30 1629 C 152.859 3.74082 -4.51973 0
M  V30 1630 C 155.211 3.78487 -5.06883 0
M  V30 1631 C 153.875 3.82598 -5.46969 0
M  V30 1632 H 153.145 0.678276 -0.298366 0
M  V30 1633 H 155.792 1.35002 -1.35819 0
M  V30 1634 H 154.097 3.86191 -0.660593 0
M  V30 1635 H 155.794 3.86959 -1.05186 0
M  V30 1636 H 152.384 3.52179 -2.4427 0
M  V30 1637 H 156.568 3.59595 -3.42061 0
M  V30 1638 H 151.824 3.75527 -4.82483 0
M  V30 1639 H 155.998 3.84193 -5.80834 0
M  V30 1640 H 153.625 3.91747 -6.51489 0
M  V30 1641 N 155.201 0.870884 1.31352 0
M  V30 1642 C 156.133 0.28455 2.27427 0
M  V30 1643 C 157.146 -0.552927 1.53123 0
M  V30 1644 O 158.335 -0.374771 1.74521 0
M  V30 1645 C 155.435 -0.615164 3.3327 0
M  V30 1646 C 154.608 0.190079 4.36987 0
M  V30 1647 C 153.667 -0.637917 5.22319 0
M  V30 1648 O 152.693 -0.065626 5.69162 0
M  V30 1649 N 153.895 -1.94973 5.46778 0
M  V30 1650 H 156.66 1.11017 2.7838 0
M  V30 1651 H 154.221 0.732458 1.44384 0
M  V30 1652 H 156.213 -1.1748 3.87273 0
M  V30 1653 H 154.783 -1.34146 2.82354 0
M  V30 1654 H 154.003 0.931165 3.83044 0
M  V30 1655 H 155.291 0.742579 5.03352 0
M  V30 1656 H 154.689 -2.4378 5.10478 0
M  V30 1657 H 153.246 -2.45713 6.03712 0
M  V30 1658 N 156.679 -1.44442 0.630414 0
M  V30 1659 C 158.09 -1.85434 0.217063 0
M  V30 1660 C 158.441 -1.52748 -1.23136 0
M  V30 1661 O 157.566 -0.965205 -1.93682 0
M  V30 1662 C 158.161 -3.36581 0.387168 0
M  V30 1663 C 156.72 -3.76389 0.0283297 0
M  V30 1664 C 155.867 -2.68296 0.700889 0
M  V30 1665 H 158.818 -1.34919 0.83562 0
M  V30 1666 H 158.839 -3.78657 -0.374086 0
M  V30 1667 H 158.351 -3.60339 1.44144 0
M  V30 1668 H 156.452 -3.58246 -1.02423 0
M  V30 1669 H 156.565 -4.77095 0.437892 0
M  V30 1670 H 154.929 -2.54335 0.136267 0
M  V30 1671 H 155.712 -2.94887 1.75774 0
M  V30 1672 N 158.157 -0.370918 -1.53173 0
M  V30 1673 C 159.089 0.507823 -2.23503 0
M  V30 1674 C 160.102 1.04182 -1.251 0
M  V30 1675 O 161.291 0.947286 -1.5129 0
M  V30 1676 C 158.391 1.71447 -2.92334 0
M  V30 1677 C 157.564 1.31105 -4.17289 0
M  V30 1678 C 156.623 2.38035 -4.69282 0
M  V30 1679 O 155.649 2.00204 -5.32829 0
M  V30 1680 N 156.851 3.69697 -4.47554 0
M  V30 1681 H 159.616 -0.0946382 -2.99551 0
M  V30 1682 H 157.177 -0.196358 -1.60705 0
M  V30 1683 H 159.169 2.42469 -3.24023 0
M  V30 1684 H 157.739 2.22368 -2.19707 0
M  V30 1685 H 156.959 0.430462 -3.91843 0
M  V30 1686 H 158.247 1.0179 -4.98514 0
M  V30 1687 H 157.645 4.03205 -3.9679 0
M  V30 1688 H 156.202 4.36807 -4.8378 0
M  V30 1689 N 159.635 1.57281 -0.100228 0
M  V30 1690 C 160.567 2.11342 0.886972 0
M  V30 1691 C 161.58 1.05182 1.24261 0
M  V30 1692 O 162.769 1.32613 1.19483 0
M  V30 1693 C 159.869 2.5825 2.19454 0
M  V30 1694 C 159.042 3.88302 2.01346 0
M  V30 1695 C 158.101 4.21004 3.15661 0
M  V30 1696 O 157.127 4.9014 2.89398 0
M  V30 1697 N 158.329 3.76818 4.41575 0
M  V30 1698 H 161.094 2.96668 0.425216 0
M  V30 1699 H 158.655 1.61678 0.0847334 0
M  V30 1700 H 160.647 2.7717 2.94888 0
M  V30 1701 H 159.217 1.77907 2.57037 0
M  V30 1702 H 158.437 3.7848 1.10212 0
M  V30 1703 H 159.725 4.73375 1.8653 0
M  V30 1704 H 159.123 3.2102 4.65792 0
M  V30 1705 H 157.68 4.00882 5.13942 0
M  V30 1706 N 161.113 -0.173488 1.56642 0
M  V30 1707 C 162.341 -0.906095 1.86004 0
M  V30 1708 C 162.756 -1.75921 0.685355 0
M  V30 1709 O 162.113 -1.79198 -0.345578 0
M  V30 1710 C 162.164 -1.78462 3.14378 0
M  V30 1711 O 161.885 -0.965914 4.27319 0
M  V30 1712 C 163.386 -2.62707 3.57071 0
M  V30 1713 H 160.606 -0.263341 0.617165 0
M  V30 1714 H 163.15 -0.174236 2.03756 0
M  V30 1715 H 161.305 -2.46984 2.98459 0
M  V30 1716 H 161.719 -1.56655 5.00559 0
M  V30 1717 H 163.193 -3.19969 4.49804 0
M  V30 1718 H 163.67 -3.37472 2.81086 0
M  V30 1719 H 164.276 -1.99521 3.75595 0
M  V30 1720 N 162.591 -1.51276 -0.441967 0
M  V30 1721 C 163.501 -1.75092 -1.56141 0
M  V30 1722 C 164.517 -0.634963 -1.62001 0
M  V30 1723 O 165.693 -0.916686 -1.79329 0
M  V30 1724 C 162.758 -1.86666 -2.92158 0
M  V30 1725 C 161.819 -3.10506 -2.96453 0
M  V30 1726 C 161.052 -3.21519 -4.25982 0
M  V30 1727 O 161.275 -2.38586 -5.18105 0
M  V30 1728 O 160.209 -4.14465 -4.36466 0
M  V30 1729 H 164.035 -2.70044 -1.38961 0
M  V30 1730 H 161.62 -1.35722 -0.624499 0
M  V30 1731 H 163.502 -1.96292 -3.72891 0
M  V30 1732 H 162.177 -0.949014 -3.09476 0
M  V30 1733 H 161.084 -3.06363 -2.14692 0
M  V30 1734 H 162.417 -4.01945 -2.84079 0
M  V30 1735 N 164.069 0.697108 -1.41344 0
M  V30 1736 C 165.001 1.8224 -1.39001 0
M  V30 1737 C 166.014 1.60152 -0.292428 0
M  V30 1738 O 167.203 1.69684 -0.554048 0
M  V30 1739 C 164.303 3.18976 -1.14489 0
M  V30 1740 C 163.476 3.68105 -2.36258 0
M  V30 1741 C 162.535 4.83506 -2.07625 0
M  V30 1742 O 161.561 4.95201 -2.8065 0
M  V30 1743 N 162.763 5.70637 -1.06555 0
M  V30 1744 H 165.528 1.84742 -2.35988 0
M  V30 1745 H 163.089 0.87937 -1.35936 0
M  V30 1746 H 165.081 3.93801 -0.932885 0
M  V30 1747 H 163.651 3.11508 -0.261043 0
M  V30 1748 H 162.871 2.84204 -2.7317 0
M  V30 1749 H 164.159 3.97667 -3.17393 0
M  V30 1750 H 163.557 5.63817 -0.461125 0
M  V30 1751 H 162.114 6.45368 -0.913444 0
M  V30 1752 N 165.547 1.27147 0.931209 0
M  V30 1753 C 166.775 1.16082 1.71267 0
M  V30 1754 C 167.19 -0.282772 1.8667 0
M  V30 1755 O 166.547 -1.19283 1.38122 0
M  V30 1756 C 166.598 1.8358 3.11417 0
M  V30 1757 O 166.319 3.22299 2.96741 0
M  V30 1758 C 167.82 1.78597 4.05732 0
M  V30 1759 H 165.04 0.403758 0.535929 0
M  V30 1760 H 167.584 1.67953 1.16671 0
M  V30 1761 H 165.739 1.35623 3.62885 0
M  V30 1762 H 166.153 3.55851 3.85319 0
M  V30 1763 H 167.627 2.30444 5.01597 0
M  V30 1764 H 168.104 0.754564 4.3267 0
M  V30 1765 H 168.71 2.26152 3.60188 0
M  V30 1766 N 167.025 -1.13721 1.09112 0
M  V30 1767 C 167.955 -2.21148 0.749385 0
M  V30 1768 C 168.936 -1.6792 -0.271475 0
M  V30 1769 O 170.121 -1.93693 -0.140251 0
M  V30 1770 C 167.251 -3.46905 0.165659 0
M  V30 1771 C 166.205 -4.13203 1.11567 0
M  V30 1772 C 165.531 -5.33248 0.393809 0
M  V30 1773 C 166.831 -4.60912 2.45678 0
M  V30 1774 H 168.525 -2.4999 1.64758 0
M  V30 1775 H 166.071 -1.20156 0.793626 0
M  V30 1776 H 168.024 -4.21313 -0.085466 0
M  V30 1777 H 166.748 -3.17449 -0.767714 0
M  V30 1778 H 165.407 -3.40758 1.35202 0
M  V30 1779 H 165.055 -5.00054 -0.543599 0
M  V30 1780 H 164.755 -5.78552 1.02721 0
M  V30 1781 H 166.279 -6.10413 0.150908 0
M  V30 1782 H 167.693 -5.26759 2.26269 0
M  V30 1783 H 166.09 -5.16944 3.04776 0
M  V30 1784 H 167.16 -3.75603 3.06677 0
M  V30 1785 N 168.503 -0.877838 -1.30888 0
M  V30 1786 C 169.919 -0.570844 -1.49042 0
M  V30 1787 C 170.119 0.893159 -1.80624 0
M  V30 1788 O 169.175 1.67485 -1.88958 0
M  V30 1789 C 170.488 -1.47784 -2.61878 0
M  V30 1790 C 172.036 -1.48071 -2.75761 0
M  V30 1791 C 172.511 -2.37347 -3.91702 0
M  V30 1792 N 174.002 -2.35271 -3.99001 0
M  V30 1793 C 174.737 -3.01063 -4.88004 0
M  V30 1794 N 174.233 -3.76055 -5.81854 0
M  V30 1795 N 176.026 -2.90332 -4.81315 0
M  V30 1796 H 168.177 -1.82502 -1.0866 0
M  V30 1797 H 170.44 -0.780797 -0.537644 0
M  V30 1798 H 170.146 -2.51993 -2.45341 0
M  V30 1799 H 170.02 -1.18215 -3.58197 0
M  V30 1800 H 172.407 -0.446166 -2.91708 0
M  V30 1801 H 172.488 -1.81668 -1.80085 0
M  V30 1802 H 172.132 -3.40883 -3.76512 0
M  V30 1803 H 172.062 -2.01071 -4.86701 0
M  V30 1804 H 174.553 -1.80768 -3.3186 0
M  V30 1805 H 174.866 -4.23366 -6.46514 0
M  V30 1806 H 173.211 -3.80163 -5.81808 0
M  V30 1807 H 176.402 -2.31278 -4.06974 0
M  V30 1808 H 176.575 -3.41885 -5.50471 0
M  V30 1809 N 169.982 1.44106 -0.638065 0
M  V30 1810 C 170.914 2.28976 0.101205 0
M  V30 1811 C 171.927 1.4167 0.802088 0
M  V30 1812 O 173.116 1.65755 0.662375 0
M  V30 1813 C 170.216 3.18217 1.16581 0
M  V30 1814 C 169.389 4.33978 0.546066 0
M  V30 1815 C 168.448 5.04202 1.50554 0
M  V30 1816 O 167.474 5.59986 1.01999 0
M  V30 1817 N 168.676 5.06296 2.8398 0
M  V30 1818 H 171.441 2.93064 -0.627186 0
M  V30 1819 H 169.002 1.54629 -0.479731 0
M  V30 1820 H 170.994 3.62061 1.80815 0
M  V30 1821 H 169.564 2.55833 1.79634 0
M  V30 1822 H 168.784 3.93239 -0.275046 0
M  V30 1823 H 170.072 5.08675 0.112793 0
M  V30 1824 H 169.47 4.62319 3.26002 0
M  V30 1825 H 168.027 5.53907 3.43556 0
M  V30 1826 N 171.46 0.379036 1.52974 0
M  V30 1827 C 172.709 -0.207612 2.00629 0
M  V30 1828 C 173.022 -1.48758 1.27006 0
M  V30 1829 O 174.228 -2.15365 1.65318 0
M  V30 1830 C 172.684 -0.42053 3.57435 0
M  V30 1831 C 172.292 0.845587 4.39948 0
M  V30 1832 C 174.036 -0.964102 4.13407 0
M  V30 1833 C 171.943 0.601513 5.88333 0
M  V30 1834 H 170.873 -0.0813591 0.749598 0
M  V30 1835 H 173.524 0.499853 1.76561 0
M  V30 1836 H 171.906 -1.18959 3.7771 0
M  V30 1837 H 173.08 1.61848 4.31442 0
M  V30 1838 H 171.395 1.31336 3.95145 0
M  V30 1839 H 173.992 -1.16225 5.21916 0
M  V30 1840 H 174.335 -1.93019 3.68849 0
M  V30 1841 H 174.868 -0.25487 3.96983 0
M  V30 1842 H 171.607 1.53831 6.37194 0
M  V30 1843 H 171.127 -0.132628 5.99653 0
M  V30 1844 H 172.806 0.232134 6.46583 0
M  V30 1845 N 172.938 -1.57226 0.108567 0
M  V30 1846 C 173.868 -2.17778 -0.84232 0
M  V30 1847 C 174.849 -1.11487 -1.2847 0
M  V30 1848 O 176.034 -1.39681 -1.34918 0
M  V30 1849 C 173.164 -2.76888 -2.09644 0
M  V30 1850 C 172.118 -3.88669 -1.79221 0
M  V30 1851 C 171.444 -4.34541 -3.11574 0
M  V30 1852 C 172.744 -5.11251 -1.06864 0
M  V30 1853 H 174.438 -2.97489 -0.337774 0
M  V30 1854 H 171.984 -1.43097 -0.161025 0
M  V30 1855 H 173.937 -3.17904 -2.76614 0
M  V30 1856 H 172.661 -1.94451 -2.62405 0
M  V30 1857 H 171.32 -3.48213 -1.14644 0
M  V30 1858 H 170.968 -3.48977 -3.62249 0
M  V30 1859 H 170.668 -5.09914 -2.91996 0
M  V30 1860 H 172.192 -4.782 -3.7968 0
M  V30 1861 H 173.606 -5.49352 -1.63968 0
M  V30 1862 H 172.003 -5.9214 -0.974178 0
M  V30 1863 H 173.073 -4.8487 -0.0536168 0
M  V30 1864 N 174.416 0.165178 -1.56732 0
M  V30 1865 C 175.348 1.22911 -1.93457 0
M  V30 1866 C 176.361 1.40152 -0.828333 0
M  V30 1867 O 177.55 1.40046 -1.10677 0
M  V30 1868 C 174.65 2.59686 -2.17753 0
M  V30 1869 C 173.823 2.63663 -3.48999 0
M  V30 1870 C 172.882 3.81845 -3.62051 0
M  V30 1871 O 171.908 3.67559 -4.34613 0
M  V30 1872 N 173.11 4.98557 -2.97357 0
M  V30 1873 H 175.875 0.917118 -2.85323 0
M  V30 1874 H 173.436 0.354895 -1.57962 0
M  V30 1875 H 175.428 3.37225 -2.23743 0
M  V30 1876 H 173.998 2.83251 -1.32242 0
M  V30 1877 H 173.218 1.72173 -3.54612 0
M  V30 1878 H 174.506 2.63336 -4.35352 0
M  V30 1879 H 173.904 5.13065 -2.38287 0
M  V30 1880 H 172.461 5.73936 -3.08934 0
M  V30 1881 N 175.894 1.51508 0.433938 0
M  V30 1882 C 177.171 1.54888 1.19453 0
M  V30 1883 C 177.551 0.315154 2.08734 0
M  V30 1884 O 176.899 -0.699558 2.17528 0
M  V30 1885 C 177.109 2.86467 1.99342 0
M  V30 1886 C 178.457 3.38545 2.56267 0
M  V30 1887 O 179.481 2.88041 2.0955 0
M  V30 1888 O 178.34 4.26675 3.41483 0
M  V30 1889 H 175.434 0.622863 0.544032 0
M  V30 1890 H 177.98 1.63823 0.442732 0
M  V30 1891 H 176.752 3.67718 1.33788 0
M  V30 1892 H 176.375 2.8071 2.8158 0
M  V30 1893 N 177.372 -0.689602 1.41712 0
M  V30 1894 C 178.618 -1.45181 1.41599 0
M  V30 1895 C 178.951 -1.94181 0.0270081 0
M  V30 1896 O 178.226 -1.6993 -0.946265 0
M  V30 1897 C 178.509 -2.65945 2.42787 0
M  V30 1898 C 178.362 -2.22672 3.90816 0
M  V30 1899 C 179.681 -3.68149 2.41151 0
M  V30 1900 H 176.8 -0.526576 0.515642 0
M  V30 1901 H 179.442 -0.784947 1.73028 0
M  V30 1902 H 177.592 -3.2284 2.16116 0
M  V30 1903 H 179.264 -1.71058 4.28412 0
M  V30 1904 H 177.507 -1.54394 4.05395 0
M  V30 1905 H 178.178 -3.0935 4.57172 0
M  V30 1906 H 180.654 -3.2094 2.64834 0
M  V30 1907 H 179.53 -4.50248 3.13955 0
M  V30 1908 H 179.791 -4.18259 1.43221 0
M  V30 1909 N 178.85 -1.27639 -0.924453 0
M  V30 1910 C 179.797 -1.10644 -2.0255 0
M  V30 1911 C 180.767 -0.00658438 -1.66099 0
M  V30 1912 O 181.952 -0.16952 -1.90045 0
M  V30 1913 C 179.092 -0.76309 -3.36557 0
M  V30 1914 C 178.205 -1.94091 -3.85944 0
M  V30 1915 C 177.34 -1.53914 -5.08413 0
M  V30 1916 C 176.379 -2.68425 -5.50104 0
M  V30 1917 N 175.516 -2.28815 -6.63768 0
M  V30 1918 H 180.356 -2.04858 -2.16419 0
M  V30 1919 H 177.893 -1.01974 -1.06017 0
M  V30 1920 H 179.851 -0.544822 -4.13627 0
M  V30 1921 H 178.481 0.142102 -3.22487 0
M  V30 1922 H 177.533 -2.27162 -3.05125 0
M  V30 1923 H 178.845 -2.7998 -4.12811 0
M  V30 1924 H 177.999 -1.28231 -5.92994 0
M  V30 1925 H 176.738 -0.651391 -4.8333 0
M  V30 1926 H 175.743 -2.94819 -4.64071 0
M  V30 1927 H 176.968 -3.57826 -5.7718 0
M  V30 1928 H 174.914 -1.42495 -6.40337 0
M  V30 1929 H 174.831 -3.08242 -6.90306 0
M  V30 1930 H 176.099 -2.06387 -7.51681 0
M  V30 1931 N 180.328 1.1314 -1.09713 0
M  V30 1932 C 181.291 2.16831 -0.742751 0
M  V30 1933 C 182.291 1.59159 0.229129 0
M  V30 1934 O 183.481 1.74199 0.00693237 0
M  V30 1935 C 180.613 3.40756 -0.0989168 0
M  V30 1936 H 181.806 2.49695 -1.66109 0
M  V30 1937 H 179.359 1.2802 -0.896699 0
M  V30 1938 H 180.094 3.13485 0.830514 0
M  V30 1939 H 179.879 3.83888 -0.798265 0
M  V30 1940 H 181.369 4.17386 0.133524 0
M  V30 1941 N 181.806 0.884767 1.30421 0
M  V30 1942 C 182.769 0.356277 2.26414 0
M  V30 1943 C 183.769 -0.501124 1.52792 0
M  V30 1944 O 184.959 -0.30831 1.7145 0
M  V30 1945 C 182.091 -0.492316 3.37326 0
M  V30 1946 H 183.284 1.20389 2.74675 0
M  V30 1947 H 180.837 0.661607 1.41607 0
M  V30 1948 H 181.572 -1.36052 2.94381 0
M  V30 1949 H 181.357 0.121832 3.91911 0
M  V30 1950 H 182.847 -0.853871 4.08777 0
M  V30 1951 N 183.284 -1.43765 0.645699 0
M  V30 1952 C 184.232 -2.32516 -0.0624849 0
M  V30 1953 C 185.226 -1.48183 -0.820855 0
M  V30 1954 O 186.432 -1.64439 -0.732106 0
M  V30 1955 H 182.807 -0.750989 -0.0389864 0
M  V30 1956 H 184.778 -2.89979 0.703892 0
M  V30 1957 C 183.527 -3.32389 -1.02044 0
M  V30 1958 H 182.85 -3.97301 -0.446312 0
M  V30 1959 H 184.29 -3.97138 -1.48517 0
M  V30 1960 C 182.749 -2.62416 -2.11281 0
M  V30 1961 O 183.279 -2.434 -3.19561 0
M  V30 1962 N 181.485 -2.21913 -1.87624 0
M  V30 1963 H 181.032 -2.37578 -0.995703 0
M  V30 1964 H 180.99 -1.75424 -2.6091 0
M  V30 1965 N 184.763 -0.387143 -1.52771 0
M  V30 1966 C 185.726 0.436939 -2.24997 0
M  V30 1967 C 186.726 0.991991 -1.26555 0
M  V30 1968 O 187.916 0.874335 -1.50669 0
M  V30 1969 C 185.048 1.61281 -3.00335 0
M  V30 1970 H 186.241 -0.195365 -2.99263 0
M  V30 1971 H 183.794 -0.139218 -1.55679 0
M  V30 1972 H 184.529 2.2826 -2.30364 0
M  V30 1973 H 184.314 1.22154 -3.72587 0
M  V30 1974 H 185.804 2.19629 -3.5518 0
M  V30 1975 N 186.241 1.57166 -0.116904 0
M  V30 1976 C 187.151 2.18745 0.847812 0
M  V30 1977 C 188.167 1.163 1.29423 0
M  V30 1978 O 189.343 1.48761 1.35765 0
M  V30 1979 C 186.408 2.77307 2.0809 0
M  V30 1980 C 185.469 3.94781 1.68661 0
M  V30 1981 C 184.702 4.50541 2.86091 0
M  V30 1982 O 184.925 4.05202 4.01456 0
M  V30 1983 O 183.859 5.41256 2.63298 0
M  V30 1984 H 187.685 3.01632 0.353778 0
M  V30 1985 H 185.27 1.49005 0.108599 0
M  V30 1986 H 187.152 3.14647 2.80313 0
M  V30 1987 H 185.827 1.97452 2.56504 0
M  V30 1988 H 184.734 3.62214 0.935518 0
M  V30 1989 H 186.067 4.76065 1.24991 0
M  V30 1990 N 187.719 -0.156864 1.56817 0
M  V30 1991 C 189.13 -0.717916 1.72345 0
M  V30 1992 C 189.481 -1.82124 0.729747 0
M  V30 1993 O 188.606 -2.16141 -0.105781 0
M  V30 1994 C 189.201 -1.30904 3.12489 0
M  V30 1995 C 187.76 -1.81676 3.29653 0
M  V30 1996 C 186.907 -0.701349 2.68284 0
M  V30 1997 H 189.858 0.0686989 1.58551 0
M  V30 1998 H 189.879 -2.17882 3.11942 0
M  V30 1999 H 189.391 -0.505796 3.8479 0
M  V30 2000 H 187.492 -2.64598 2.62333 0
M  V30 2001 H 187.605 -1.95226 4.3752 0
M  V30 2002 H 185.969 -1.12548 2.28484 0
M  V30 2003 H 186.752 0.0902846 3.43181 0
M  V30 2004 N 189.197 -1.51736 -0.425897 0
M  V30 2005 C 190.127 -1.76827 -1.52494 0
M  V30 2006 C 191.108 -0.618524 -1.58456 0
M  V30 2007 O 192.293 -0.862416 -1.74 0
M  V30 2008 C 189.423 -1.90374 -2.90474 0
M  V30 2009 C 188.377 -3.0588 -2.99369 0
M  V30 2010 C 187.703 -3.04625 -4.3944 0
M  V30 2011 C 189.003 -4.45644 -2.72394 0
M  V30 2012 H 190.697 -2.68855 -1.31748 0
M  V30 2013 H 188.243 -1.29372 -0.632362 0
M  V30 2014 H 190.196 -2.0651 -3.6733 0
M  V30 2015 H 188.92 -0.95004 -3.12477 0
M  V30 2016 H 187.579 -2.89467 -2.24954 0
M  V30 2017 H 187.227 -2.0701 -4.58428 0
M  V30 2018 H 186.927 -3.82195 -4.46319 0
M  V30 2019 H 188.451 -3.22869 -5.18255 0
M  V30 2020 H 189.865 -4.62348 -3.38979 0
M  V30 2021 H 188.262 -5.25006 -2.9067 0
M  V30 2022 H 189.332 -4.54893 -1.67929 0
M  V30 2023 N 190.675 0.682077 -1.42076 0
M  V30 2024 C 191.605 1.80796 -1.47767 0
M  V30 2025 C 192.586 1.6677 -0.334954 0
M  V30 2026 O 193.771 1.863 -0.548264 0
M  V30 2027 C 190.901 3.19038 -1.37229 0
M  V30 2028 C 189.855 3.47789 -2.49453 0
M  V30 2029 C 189.181 4.8553 -2.23975 0
M  V30 2030 C 190.481 3.45411 -3.91776 0
M  V30 2031 H 192.175 1.7629 -2.41997 0
M  V30 2032 H 189.721 0.846721 -1.16476 0
M  V30 2033 H 191.674 3.97528 -1.39821 0
M  V30 2034 H 190.398 3.24204 -0.394907 0
M  V30 2035 H 189.057 2.71657 -2.46166 0
M  V30 2036 H 188.705 4.87337 -1.24547 0
M  V30 2037 H 188.405 5.0573 -2.99184 0
M  V30 2038 H 189.929 5.66312 -2.28304 0
M  V30 2039 H 191.343 4.13882 -3.96705 0
M  V30 2040 H 189.74 3.77145 -4.66778 0
M  V30 2041 H 190.81 2.44122 -4.18966 0
M  V30 2042 N 192.153 1.28127 0.917671 0
M  V30 2043 C 193.086 1.06039 2.02067 0
M  V30 2044 C 194.064 -0.0223285 1.62585 0
M  V30 2045 O 195.248 0.124823 1.88086 0
M  V30 2046 C 192.375 0.610596 3.33151 0
M  V30 2047 C 191.421 1.68937 3.91615 0
M  V30 2048 S 192.254 3.28437 4.22953 0
M  V30 2049 C 193.41 2.85283 5.57103 0
M  V30 2050 H 193.643 1.99425 2.20493 0
M  V30 2051 H 191.176 1.12071 1.06205 0
M  V30 2052 H 193.134 0.357778 4.08938 0
M  V30 2053 H 191.795 -0.303364 3.12632 0
M  V30 2054 H 190.988 1.32619 4.86239 0
M  V30 2055 H 190.59 1.89478 3.2245 0
M  V30 2056 H 192.882 2.3121 6.36827 0
M  V30 2057 H 193.825 3.7869 5.98331 0
M  V30 2058 H 194.233 2.24118 5.18104 0
M  V30 2059 N 193.631 -1.12557 1.10312 0
M  V30 2060 C 194.563 -2.17971 0.708625 0
M  V30 2061 C 195.576 -1.60806 -0.254027 0
M  V30 2062 O 196.765 -1.78458 -0.0386891 0
M  V30 2063 C 193.865 -3.38891 0.0248198 0
M  V30 2064 C 193.038 -4.25548 1.01132 0
M  V30 2065 C 192.097 -5.24972 0.35924 0
M  V30 2066 O 191.123 -5.60174 1.00965 0
M  V30 2067 N 192.325 -5.73747 -0.882847 0
M  V30 2068 H 195.09 -2.52427 1.61557 0
M  V30 2069 H 192.651 -1.27967 0.991771 0
M  V30 2070 H 194.643 -4.02485 -0.422852 0
M  V30 2071 H 193.213 -3.02596 -0.784514 0
M  V30 2072 H 192.433 -3.58589 1.6373 0
M  V30 2073 H 193.721 -4.80294 1.67914 0
M  V30 2074 H 193.119 -5.4731 -1.43065 0
M  V30 2075 H 191.676 -6.39234 -1.27369 0
M  V30 2076 N 195.109 -0.891671 -1.2995 0
M  V30 2077 C 196.358 -0.509521 -1.95158 0
M  V30 2078 C 196.671 0.947388 -1.71125 0
M  V30 2079 O 197.877 1.43669 -2.30372 0
M  V30 2080 C 196.333 -0.860315 -3.49466 0
M  V30 2081 C 195.941 -2.33545 -3.8231 0
M  V30 2082 C 197.685 -0.547687 -4.20952 0
M  V30 2083 C 195.592 -2.62752 -5.29826 0
M  V30 2084 H 194.522 -0.18682 -0.730489 0
M  V30 2085 H 197.173 -1.08756 -1.47798 0
M  V30 2086 H 195.555 -0.211285 -3.95436 0
M  V30 2087 H 196.729 -3.02936 -3.47227 0
M  V30 2088 H 195.044 -2.61629 -3.23944 0
M  V30 2089 H 197.641 -0.742854 -5.29515 0
M  V30 2090 H 197.984 0.51332 -4.13123 0
M  V30 2091 H 198.517 -1.1542 -3.80688 0
M  V30 2092 H 195.256 -3.6762 -5.42712 0
M  V30 2093 H 194.776 -1.97977 -5.66185 0
M  V30 2094 H 196.455 -2.48601 -5.97333 0
M  V30 2095 N 196.587 1.43421 -0.653314 0
M  V30 2096 C 198.003 1.56341 -0.320886 0
M  V30 2097 C 198.203 1.63696 1.17499 0
M  V30 2098 O 197.259 1.59208 1.95982 0
M  V30 2099 C 198.572 2.82424 -1.03233 0
M  V30 2100 C 200.12 2.96168 -1.01259 0
M  V30 2101 C 200.595 4.25084 -1.70492 0
M  V30 2102 N 202.086 4.31948 -1.67257 0
M  V30 2103 C 202.821 5.30466 -2.17701 0
M  V30 2104 N 202.317 6.35261 -2.76434 0
M  V30 2105 N 204.11 5.2212 -2.082 0
M  V30 2106 H 196.261 1.3689 -1.62403 0
M  V30 2107 H 198.524 0.657455 -0.682977 0
M  V30 2108 H 198.23 2.83053 -2.08744 0
M  V30 2109 H 198.104 3.72653 -0.583948 0
M  V30 2110 H 200.491 2.9508 0.0341235 0
M  V30 2111 H 200.572 2.07229 -1.49966 0
M  V30 2112 H 200.216 4.26932 -2.7512 0
M  V30 2113 H 200.146 5.1292 -1.19251 0
M  V30 2114 H 202.637 3.56838 -1.24398 0
M  V30 2115 H 202.95 7.06754 -3.12601 0
M  V30 2116 H 201.295 6.35884 -2.80495 0
M  V30 2117 H 204.486 4.39166 -1.62021 0
M  V30 2118 H 204.659 5.98739 -2.47822 0
M  V30 2119 N 198.065 0.39524 1.52563 0
M  V30 2120 C 198.995 -0.428384 2.29537 0
M  V30 2121 C 199.976 -1.05831 1.33169 0
M  V30 2122 O 201.161 -1.06995 1.62067 0
M  V30 2123 C 198.291 -1.55274 3.10656 0
M  V30 2124 C 197.245 -1.04855 4.14957 0
M  V30 2125 C 196.571 -2.26543 4.84337 0
M  V30 2126 C 197.871 -0.112324 5.22179 0
M  V30 2127 H 199.565 0.213867 2.98635 0
M  V30 2128 H 197.111 0.104298 1.43622 0
M  V30 2129 H 199.064 -2.1358 3.63265 0
M  V30 2130 H 197.788 -2.22266 2.39302 0
M  V30 2131 H 196.447 -0.487985 3.63338 0
M  V30 2132 H 196.095 -2.92059 4.09525 0
M  V30 2133 H 195.795 -1.93466 5.54837 0
M  V30 2134 H 197.319 -2.85481 5.39753 0
M  V30 2135 H 198.733 -0.603752 5.70112 0
M  V30 2136 H 197.13 0.128968 5.99961 0
M  V30 2137 H 198.2 0.837052 4.77621 0
M  V30 2138 N 199.544 -1.57102 0.125237 0
M  V30 2139 C 200.955 -1.82384 -0.399142 0
M  V30 2140 C 201.306 -1.04276 -1.66195 0
M  V30 2141 O 200.431 -0.281269 -2.14564 0
M  V30 2142 C 201.026 -3.30821 -0.730932 0
M  V30 2143 C 199.585 -3.56762 -1.19992 0
M  V30 2144 C 198.732 -2.7649 -0.211792 0
M  V30 2145 H 201.683 -1.54786 0.350277 0
M  V30 2146 H 201.704 -3.4579 -1.58775 0
M  V30 2147 H 201.216 -3.87643 0.188345 0
M  V30 2148 H 199.317 -3.05305 -2.13588 0
M  V30 2149 H 199.43 -4.65317 -1.14093 0
M  V30 2150 H 197.794 -2.4489 -0.700085 0
M  V30 2151 H 198.577 -3.36073 0.700691 0
M  V30 2152 N 201.022 0.148545 -1.56898 0
M  V30 2153 C 201.985 1.16736 -1.97244 0
M  V30 2154 C 202.985 1.35947 -0.858777 0
M  V30 2155 O 204.175 1.32966 -1.12542 0
M  V30 2156 C 201.307 2.52798 -2.28705 0
M  V30 2157 H 202.5 0.821279 -2.88435 0
M  V30 2158 H 200.053 0.391831 -1.51309 0
M  V30 2159 H 200.788 2.92381 -1.403 0
M  V30 2160 H 200.573 2.40216 -3.09901 0
M  V30 2161 H 202.063 3.26179 -2.60762 0
M  V30 2162 N 202.5 1.5196 0.417844 0
M  V30 2163 C 203.448 1.75278 1.52907 0
M  V30 2164 C 204.442 0.619611 1.57662 0
M  V30 2165 O 205.648 0.801457 1.61173 0
M  V30 2166 H 202.023 0.554141 0.508362 0
M  V30 2167 H 203.994 2.68389 1.30422 0
M  V30 2168 C 202.743 1.91262 2.90369 0
M  V30 2169 H 202.066 2.77872 2.8745 0
M  V30 2170 H 203.506 2.11581 3.67436 0
M  V30 2171 C 201.965 0.677431 3.30019 0
M  V30 2172 O 202.495 -0.158799 4.01386 0
M  V30 2173 N 200.701 0.515851 2.85985 0
M  V30 2174 H 200.248 1.19744 2.28077 0
M  V30 2175 H 200.206 -0.309315 3.12875 0
M  V30 2176 N 203.978 -0.674533 1.42435 0
M  V30 2177 C 205.208 -1.46071 1.46105 0
M  V30 2178 C 205.616 -1.89067 0.0709605 0
M  V30 2179 O 204.959 -1.58731 -0.924677 0
M  V30 2180 C 205.021 -2.74145 2.32561 0
M  V30 2181 C 204.685 -2.53224 3.8043 0
M  V30 2182 C 205.682 -2.17809 4.72075 0
M  V30 2183 C 203.367 -2.6821 4.24698 0
M  V30 2184 C 205.361 -1.97648 6.05982 0
M  V30 2185 C 203.048 -2.47665 5.58664 0
M  V30 2186 C 204.046 -2.12437 6.49122 0
M  V30 2187 O 203.734 -1.9209 7.80613 0
M  V30 2188 H 203.466 -0.455959 0.499076 0
M  V30 2189 H 206.02 -0.836193 1.87609 0
M  V30 2190 H 204.25 -3.3908 1.85908 0
M  V30 2191 H 205.939 -3.36028 2.27683 0
M  V30 2192 H 206.705 -2.05826 4.39159 0
M  V30 2193 H 202.584 -2.94609 3.54579 0
M  V30 2194 H 206.128 -1.70075 6.7655 0
M  V30 2195 H 202.025 -2.59244 5.91154 0
M  V30 2196 H 202.793 -2.06686 7.91974 0
M  V30 2197 N 205.456 -1.28612 -0.910864 0
M  V30 2198 C 206.704 -1.15705 -1.65701 0
M  V30 2199 C 207.025 0.29416 -1.92769 0
M  V30 2200 O 206.295 1.20331 -1.54588 0
M  V30 2201 H 204.875 -0.425216 -0.614167 0
M  V30 2202 H 207.537 -1.61381 -1.0928 0
M  V30 2203 H 206.633 -1.6988 -2.61815 0
M  V30 2204 N 206.934 1.1197 -1.10907 0
M  V30 2205 C 208.35 1.35591 -0.841852 0
M  V30 2206 C 208.55 1.94233 0.536246 0
M  V30 2207 O 207.606 2.1717 1.28816 0
M  V30 2208 C 208.919 2.29284 -1.94549 0
M  V30 2209 C 210.467 2.42862 -1.97451 0
M  V30 2210 C 210.942 3.39873 -3.07002 0
M  V30 2211 N 212.433 3.47433 -3.06341 0
M  V30 2212 C 213.168 4.22421 -3.87748 0
M  V30 2213 N 212.664 5.00432 -4.79103 0
M  V30 2214 N 214.457 4.17876 -3.75946 0
M  V30 2215 H 206.608 0.722664 -1.99728 0
M  V30 2216 H 208.871 0.380635 -0.868229 0
M  V30 2217 H 208.577 1.93378 -2.93765 0
M  V30 2218 H 208.451 3.29452 -1.83688 0
M  V30 2219 H 210.838 2.78046 -0.988645 0
M  V30 2220 H 210.919 1.42566 -2.12388 0
M  V30 2221 H 210.563 3.05417 -4.05811 0
M  V30 2222 H 210.493 4.40011 -2.89306 0
M  V30 2223 H 212.984 2.91784 -2.40147 0
M  V30 2224 H 213.297 5.55002 -5.37766 0
M  V30 2225 H 211.642 4.99612 -4.83128 0
M  V30 2226 H 214.833 3.56016 -3.03924 0
M  V30 2227 H 215.006 4.76061 -4.39624 0
M  V30 2228 N 208.412 0.89855 1.29475 0
M  V30 2229 C 209.828 0.594483 1.48115 0
M  V30 2230 C 210.028 -0.86431 1.82022 0
M  V30 2231 O 209.084 -1.64457 1.91599 0
M  V30 2232 C 210.397 1.51932 2.59494 0
M  V30 2233 C 211.945 1.5244 2.7337 0
M  V30 2234 C 212.42 2.43548 3.87877 0
M  V30 2235 N 213.911 2.41589 3.95208 0
M  V30 2236 C 214.646 3.08789 4.83153 0
M  V30 2237 N 214.142 3.85265 5.75798 0
M  V30 2238 N 215.935 2.97952 4.76635 0
M  V30 2239 H 208.086 1.84207 1.05742 0
M  V30 2240 H 210.349 0.789251 0.525154 0
M  V30 2241 H 210.055 2.55865 2.41301 0
M  V30 2242 H 209.929 1.23899 3.56271 0
M  V30 2243 H 212.316 0.492518 2.90961 0
M  V30 2244 H 212.397 1.8451 1.77172 0
M  V30 2245 H 212.041 3.46829 3.71041 0
M  V30 2246 H 211.971 2.08788 4.83441 0
M  V30 2247 H 214.462 1.86025 3.28943 0
M  V30 2248 H 214.775 4.33598 6.39697 0
M  V30 2249 H 213.12 3.89371 5.75687 0
M  V30 2250 H 216.311 2.37723 4.03244 0
M  V30 2251 H 216.484 3.50599 5.44962 0
M  V30 2252 N 209.89 -1.43072 0.660911 0
M  V30 2253 C 211.12 -2.05769 0.185153 0
M  V30 2254 C 211.528 -1.49668 -1.15742 0
M  V30 2255 O 210.871 -0.625649 -1.72717 0
M  V30 2256 C 210.933 -3.59489 0.0278237 0
M  V30 2257 C 210.597 -4.38212 1.2969 0
M  V30 2258 C 211.594 -4.69772 2.22734 0
M  V30 2259 C 209.279 -4.7809 1.54063 0
M  V30 2260 C 211.273 -5.40129 3.38437 0
M  V30 2261 C 208.96 -5.4819 2.70058 0
M  V30 2262 C 209.958 -5.79132 3.62071 0
M  V30 2263 O 209.646 -6.47798 4.76039 0
M  V30 2264 H 209.378 -0.669873 0.0908086 0
M  V30 2265 H 211.932 -1.84436 0.90402 0
M  V30 2266 H 210.162 -3.79426 -0.746489 0
M  V30 2267 H 211.851 -4.03862 -0.406275 0
M  V30 2268 H 212.617 -4.39476 2.05149 0
M  V30 2269 H 208.496 -4.53408 0.833215 0
M  V30 2270 H 212.04 -5.64198 4.10277 0
M  V30 2271 H 207.937 -5.77902 2.87574 0
M  V30 2272 H 208.705 -6.66283 4.75404 0
M  V30 2273 N 211.368 -0.403325 -1.52352 0
M  V30 2274 C 212.316 0.439752 -2.28405 0
M  V30 2275 C 213.31 1.05089 -1.32863 0
M  V30 2276 O 214.516 0.989759 -1.50345 0
M  V30 2277 H 210.891 0.160587 -0.734653 0
M  V30 2278 H 212.862 -0.222983 -2.97566 0
M  V30 2279 C 211.611 1.54736 -3.11371 0
M  V30 2280 H 210.934 1.08643 -3.84755 0
M  V30 2281 H 212.374 2.1112 -3.67701 0
M  V30 2282 C 210.833 2.51141 -2.24566 0
M  V30 2283 O 211.363 3.54887 -1.88196 0
M  V30 2284 N 209.569 2.21213 -1.8845 0
M  V30 2285 H 209.116 1.36878 -2.18225 0
M  V30 2286 H 209.074 2.85963 -1.30662 0
M  V30 2287 N 212.846 1.57033 -0.133567 0
M  V30 2288 C 213.756 2.19632 0.824564 0
M  V30 2289 C 214.772 1.17666 1.28182 0
M  V30 2290 O 215.948 1.50193 1.3418 0
M  V30 2291 C 213.013 2.79499 2.05137 0
M  V30 2292 C 212.074 3.96548 1.64464 0
M  V30 2293 C 211.307 4.5355 2.81297 0
M  V30 2294 O 211.53 4.09438 3.97136 0
M  V30 2295 O 210.464 5.44018 2.57542 0
M  V30 2296 H 214.29 3.01991 0.321766 0
M  V30 2297 H 211.875 1.49112 0.0927889 0
M  V30 2298 H 213.757 3.17602 2.7696 0
M  V30 2299 H 212.432 2.00162 2.54395 0
M  V30 2300 H 211.339 3.63186 0.897048 0
M  V30 2301 H 212.672 4.77364 1.19934 0
M  V30 2302 N 214.325 -0.140222 1.56975 0
M  V30 2303 C 215.288 -1.15689 1.97861 0
M  V30 2304 C 216.288 -1.3549 0.865974 0
M  V30 2305 O 217.478 -1.32367 1.13246 0
M  V30 2306 C 214.61 -2.51582 2.30042 0
M  V30 2307 H 215.803 -0.805971 2.88867 0
M  V30 2308 H 213.356 -0.383801 1.51515 0
M  V30 2309 H 214.091 -2.91632 1.41849 0
M  V30 2310 H 213.876 -2.38569 3.11171 0
M  V30 2311 H 215.366 -3.24792 2.62488 0
M  V30 2312 N 215.803 -1.52179 -0.40978 0
M  V30 2313 C 217.05 -1.66206 -1.15679 0
M  V30 2314 C 217.378 -0.391674 -1.90516 0
M  V30 2315 O 216.633 0.62533 -1.8544 0
M  V30 2316 C 216.932 -2.83428 -2.17723 0
M  V30 2317 C 216.598 -4.21672 -1.59699 0
M  V30 2318 C 215.26 -4.59274 -1.43599 0
M  V30 2319 C 217.612 -5.07825 -1.17317 0
M  V30 2320 C 214.94 -5.80709 -0.836328 0
M  V30 2321 C 217.292 -6.29864 -0.587691 0
M  V30 2322 C 215.956 -6.66216 -0.413818 0
M  V30 2323 H 215.226 -0.608192 -0.423301 0
M  V30 2324 H 217.873 -1.86279 -0.444097 0
M  V30 2325 H 216.178 -2.57687 -2.95135 0
M  V30 2326 H 217.875 -2.91477 -2.75394 0
M  V30 2327 H 214.465 -3.9204 -1.73213 0
M  V30 2328 H 218.649 -4.79359 -1.28565 0
M  V30 2329 H 213.905 -6.07498 -0.689626 0
M  V30 2330 H 218.079 -6.95948 -0.250894 0
M  V30 2331 H 215.706 -7.60182 0.0529471 0
M  V30 2332 N 217.281 0.66697 -1.42791 0
M  V30 2333 C 218.506 1.46004 -1.47301 0
M  V30 2334 C 218.931 1.87894 -0.0880317 0
M  V30 2335 O 218.289 1.56502 0.915253 0
M  V30 2336 C 218.337 2.68031 -2.41229 0
M  V30 2337 O 217.441 3.6659 -1.88906 0
M  V30 2338 H 216.782 0.43832 -0.49877 0
M  V30 2339 H 219.312 0.817391 -1.87563 0
M  V30 2340 H 219.322 3.1601 -2.58073 0
M  V30 2341 H 217.997 2.36883 -3.41847 0
M  V30 2342 H 216.574 3.25661 -1.81656 0
M  V30 2343 N 218.759 1.29093 0.90403 0
M  V30 2344 C 219.722 1.1386 1.98919 0
M  V30 2345 C 220.722 0.0753457 1.60623 0
M  V30 2346 O 221.912 0.321931 1.71199 0
M  V30 2347 C 219.044 0.740198 3.32767 0
M  V30 2348 H 220.237 2.10246 2.13861 0
M  V30 2349 H 217.79 1.12218 1.08797 0
M  V30 2350 H 218.525 -0.223997 3.23525 0
M  V30 2351 H 218.31 1.50838 3.61926 0
M  V30 2352 H 219.8 0.656546 4.12407 0
M  V30 2353 N 220.237 -1.11381 1.11499 0
M  V30 2354 C 221.486 -1.82494 0.858993 0
M  V30 2355 C 221.799 -1.85605 -0.617278 0
M  V30 2356 O 223.005 -2.52824 -0.989552 0
M  V30 2357 C 221.461 -3.27745 1.48699 0
M  V30 2358 C 221.069 -3.32961 2.99735 0
M  V30 2359 C 222.813 -4.03754 1.31085 0
M  V30 2360 C 220.72 -4.72612 3.55516 0
M  V30 2361 H 219.65 -0.683802 0.317696 0
M  V30 2362 H 222.301 -1.25331 1.34031 0
M  V30 2363 H 220.683 -3.84844 0.933339 0
M  V30 2364 H 221.857 -2.85741 3.61509 0
M  V30 2365 H 220.172 -2.70433 3.16631 0
M  V30 2366 H 222.769 -5.06891 1.70192 0
M  V30 2367 H 223.112 -4.15527 0.253496 0
M  V30 2368 H 223.645 -3.53043 1.83318 0
M  V30 2369 H 220.384 -4.66036 4.60967 0
M  V30 2370 H 219.904 -5.2024 2.98513 0
M  V30 2371 H 221.583 -5.4157 3.53992 0
M  V30 2372 N 221.715 -0.905404 -1.28997 0
M  V30 2373 C 222.945 -0.549049 -1.99171 0
M  V30 2374 C 223.353 0.87203 -1.67906 0
M  V30 2375 O 222.696 1.58796 -0.923561 0
M  V30 2376 C 222.758 -0.668306 -3.53234 0
M  V30 2377 C 222.422 -2.0574 -4.08069 0
M  V30 2378 C 223.419 -3.0292 -4.22534 0
M  V30 2379 C 221.104 -2.36833 -4.42962 0
M  V30 2380 C 223.098 -4.29314 -4.71135 0
M  V30 2381 C 220.785 -3.63467 -4.91258 0
M  V30 2382 C 221.783 -4.59522 -5.053 0
M  V30 2383 O 221.471 -5.83907 -5.52546 0
M  V30 2384 H 221.203 -0.208784 -0.64295 0
M  V30 2385 H 223.757 -1.21836 -1.65363 0
M  V30 2386 H 221.987 0.0580547 -3.86656 0
M  V30 2387 H 223.676 -0.320273 -4.04634 0
M  V30 2388 H 224.442 -2.80216 -3.95859 0
M  V30 2389 H 220.321 -1.62824 -4.31288 0
M  V30 2390 H 223.865 -5.04293 -4.8201 0
M  V30 2391 H 219.762 -3.86 -5.17372 0
M  V30 2392 H 220.53 -5.86578 -5.70849 0
M  V30 2393 N 223.193 1.4272 -0.668489 0
M  V30 2394 C 224.604 1.84793 -0.266151 0
M  V30 2395 C 224.955 1.55959 1.19043 0
M  V30 2396 O 224.08 1.01622 1.91055 0
M  V30 2397 C 224.675 3.35436 -0.476271 0
M  V30 2398 C 223.234 3.76182 -0.128113 0
M  V30 2399 C 222.381 2.66344 -0.771777 0
M  V30 2400 H 225.332 1.32656 -0.871098 0
M  V30 2401 H 225.353 3.79515 0.273561 0
M  V30 2402 H 224.865 3.5639 -1.53647 0
M  V30 2403 H 222.966 3.60836 0.928891 0
M  V30 2404 H 223.079 4.75766 -0.564231 0
M  V30 2405 H 221.443 2.53885 -0.203652 0
M  V30 2406 H 222.226 2.90123 -1.83531 0
M  V30 2407 N 224.671 0.411399 1.52136 0
M  V30 2408 C 225.618 -0.412975 2.27075 0
M  V30 2409 C 226.588 -1.03912 1.29582 0
M  V30 2410 O 227.773 -1.06296 1.58448 0
M  V30 2411 C 224.913 -1.52247 3.09701 0
M  V30 2412 C 224.026 -0.917021 4.22155 0
M  V30 2413 C 223.161 -1.9994 4.92135 0
M  V30 2414 C 222.2 -1.37101 5.96548 0
M  V30 2415 N 221.337 -2.39364 6.60038 0
M  V30 2416 H 226.177 0.232499 2.97092 0
M  V30 2417 H 223.714 0.126496 1.46555 0
M  V30 2418 H 225.672 -2.17674 3.55913 0
M  V30 2419 H 224.302 -2.13794 2.41851 0
M  V30 2420 H 223.354 -0.151742 3.80097 0
M  V30 2421 H 224.666 -0.418006 4.97045 0
M  V30 2422 H 223.82 -2.73088 5.41763 0
M  V30 2423 H 222.559 -2.53208 4.16818 0
M  V30 2424 H 221.564 -0.624873 5.46237 0
M  V30 2425 H 222.789 -0.845998 6.7381 0
M  V30 2426 H 220.735 -2.91759 5.87548 0
M  V30 2427 H 220.652 -1.9428 7.3061 0
M  V30 2428 H 221.92 -3.12074 7.14304 0
M  V30 2429 N 226.149 -1.5696 0.141893 0
M  V30 2430 C 227.079 -2.19516 -0.795936 0
M  V30 2431 C 228.06 -1.14187 -1.26077 0
M  V30 2432 O 229.245 -1.42511 -1.31925 0
M  V30 2433 C 226.375 -2.81272 -2.03723 0
M  V30 2434 C 225.329 -3.92384 -1.70936 0
M  V30 2435 C 224.655 -4.41052 -3.02287 0
M  V30 2436 C 225.955 -5.13403 -0.959954 0
M  V30 2437 H 227.649 -2.98138 -0.274596 0
M  V30 2438 H 225.195 -1.43406 -0.130636 0
M  V30 2439 H 227.148 -3.237 -2.69808 0
M  V30 2440 H 225.872 -1.99973 -2.58221 0
M  V30 2441 H 224.531 -3.50566 -1.07232 0
M  V30 2442 H 224.179 -3.56582 -3.54765 0
M  V30 2443 H 223.879 -5.15993 -2.81114 0
M  V30 2444 H 225.403 -4.86146 -3.69451 0
M  V30 2445 H 226.817 -5.52706 -1.52279 0
M  V30 2446 H 225.214 -5.94073 -0.848357 0
M  V30 2447 H 226.284 -4.84875 0.0492434 0
M  V30 2448 N 227.627 0.131896 -1.57047 0
M  V30 2449 C 228.59 1.14638 -1.98471 0
M  V30 2450 C 229.59 1.35029 -0.873148 0
M  V30 2451 O 230.78 1.31764 -1.13946 0
M  V30 2452 C 227.912 2.50358 -2.31373 0
M  V30 2453 H 229.105 0.79064 -2.8929 0
M  V30 2454 H 226.658 0.375761 -1.51716 0
M  V30 2455 H 227.393 2.90876 -1.43393 0
M  V30 2456 H 227.178 2.36915 -3.12432 0
M  V30 2457 H 228.668 3.23395 -2.64207 0
M  V30 2458 N 229.106 1.52395 0.401703 0
M  V30 2459 C 230.053 1.76268 1.48991 0
M  V30 2460 C 231.023 0.605386 1.54675 0
M  V30 2461 O 232.208 0.843742 1.7113 0
M  V30 2462 C 229.348 1.92592 2.86361 0
M  V30 2463 C 228.461 3.20259 2.89928 0
M  V30 2464 C 227.596 3.26972 4.18644 0
M  V30 2465 C 226.635 4.48812 4.16214 0
M  V30 2466 N 225.772 4.52877 5.36514 0
M  V30 2467 H 230.612 2.6914 1.27935 0
M  V30 2468 H 228.149 1.33355 0.620871 0
M  V30 2469 H 230.107 2.0004 3.66115 0
M  V30 2470 H 228.737 1.03093 3.05895 0
M  V30 2471 H 227.789 3.21945 2.02621 0
M  V30 2472 H 229.101 4.10056 2.83999 0
M  V30 2473 H 228.255 3.33533 5.06794 0
M  V30 2474 H 226.994 2.35126 4.27278 0
M  V30 2475 H 225.999 4.4239 3.26453 0
M  V30 2476 H 227.224 5.41961 4.09213 0
M  V30 2477 H 225.17 3.63917 5.45802 0
M  V30 2478 H 225.087 5.36529 5.32609 0
M  V30 2479 H 226.355 4.63676 6.26597 0
M  V30 2480 N 230.584 -0.659388 1.43143 0
M  V30 2481 C 231.494 -1.80167 1.50256 0
M  V30 2482 C 232.51 -1.69571 0.390106 0
M  V30 2483 O 233.686 -1.90849 0.643319 0
M  V30 2484 C 230.751 -3.16409 1.41725 0
M  V30 2485 C 229.812 -3.38848 2.63591 0
M  V30 2486 C 229.045 -4.68591 2.55458 0
M  V30 2487 O 229.268 -5.47532 1.59891 0
M  V30 2488 O 228.202 -4.92614 3.45854 0
M  V30 2489 H 232.028 -1.77121 2.46702 0
M  V30 2490 H 229.613 -0.817092 1.25076 0
M  V30 2491 H 231.495 -3.9768 1.39387 0
M  V30 2492 H 230.17 -3.20059 0.484118 0
M  V30 2493 H 229.077 -2.57366 2.71502 0
M  V30 2494 H 230.41 -3.4004 3.55856 0
M  V30 2495 N 232.062 -1.29571 -0.897171 0
M  V30 2496 C 233.309 -1.17689 -1.6479 0
M  V30 2497 C 233.637 0.27107 -1.92602 0
M  V30 2498 O 232.892 1.21193 -1.53658 0
M  V30 2499 C 233.191 -1.9382 -3.00281 0
M  V30 2500 C 232.857 -3.43522 -2.92068 0
M  V30 2501 C 231.519 -3.84348 -2.89535 0
M  V30 2502 C 233.871 -4.38906 -2.81089 0
M  V30 2503 C 231.199 -5.18869 -2.73846 0
M  V30 2504 C 233.551 -5.73521 -2.66939 0
M  V30 2505 C 232.215 -6.13601 -2.62774 0
M  V30 2506 H 231.485 -0.430654 -0.603008 0
M  V30 2507 H 234.132 -1.60536 -1.04404 0
M  V30 2508 H 232.437 -1.4357 -3.64547 0
M  V30 2509 H 234.134 -1.82028 -3.57305 0
M  V30 2510 H 230.724 -3.11072 -2.94842 0
M  V30 2511 H 234.908 -4.08315 -2.82121 0
M  V30 2512 H 230.164 -5.4903 -2.69027 0
M  V30 2513 H 234.338 -6.47078 -2.57416 0
M  V30 2514 H 231.965 -7.17786 -2.50375 0
M  V30 2515 N 233.54 1.10788 -1.12088 0
M  V30 2516 C 234.817 1.79136 -0.785476 0
M  V30 2517 C 235.197 1.98246 0.725377 0
M  V30 2518 O 234.545 1.57258 1.65778 0
M  V30 2519 C 234.755 3.12375 -1.55636 0
M  V30 2520 C 236.103 3.8731 -1.74001 0
M  V30 2521 O 237.127 3.22085 -1.52117 0
M  V30 2522 O 235.986 5.04369 -2.10415 0
M  V30 2523 H 233.08 0.776226 -0.285311 0
M  V30 2524 H 235.626 1.1747 -1.2247 0
M  V30 2525 H 234.398 2.93863 -2.5838 0
M  V30 2526 H 234.021 3.81758 -1.11114 0
M  V30 2527 N 235.018 0.912232 1.28515 0
M  V30 2528 C 236.264 0.545405 1.95328 0
M  V30 2529 C 236.597 -0.908313 1.71649 0
M  V30 2530 O 235.872 -1.64575 1.03659 0
M  V30 2531 C 236.155 0.853483 3.4984 0
M  V30 2532 C 236.008 2.35982 3.82926 0
M  V30 2533 C 237.327 0.348589 4.38717 0
M  V30 2534 H 234.446 0.199626 0.709449 0
M  V30 2535 H 237.088 1.1412 1.5191 0
M  V30 2536 H 235.238 0.34643 3.86952 0
M  V30 2537 H 236.91 2.93738 3.55691 0
M  V30 2538 H 235.153 2.81543 3.30024 0
M  V30 2539 H 235.824 2.52593 4.90816 0
M  V30 2540 H 238.3 0.78294 4.08668 0
M  V30 2541 H 237.176 0.593242 5.45685 0
M  V30 2542 H 237.437 -0.751049 4.35674 0
M  V30 2543 N 236.496 -1.42363 0.676048 0
M  V30 2544 C 237.907 -1.84649 0.275948 0
M  V30 2545 C 238.258 -1.56588 -1.18214 0
M  V30 2546 O 237.383 -1.02634 -1.90513 0
M  V30 2547 C 237.978 -3.35178 0.494053 0
M  V30 2548 C 236.537 -3.76109 0.148061 0
M  V30 2549 C 235.684 -2.65931 0.785891 0
M  V30 2550 H 238.635 -1.32192 0.878121 0
M  V30 2551 H 238.656 -3.79655 -0.25343 0
M  V30 2552 H 238.168 -3.55571 1.55535 0
M  V30 2553 H 236.269 -3.61323 -0.909742 0
M  V30 2554 H 236.382 -4.7546 0.589454 0
M  V30 2555 H 234.746 -2.53773 0.217113 0
M  V30 2556 H 235.529 -2.89146 1.85067 0
M  V30 2557 N 237.974 -0.419461 -1.51915 0
M  V30 2558 C 238.904 0.391813 -2.30189 0
M  V30 2559 C 239.885 1.03699 -1.34836 0
M  V30 2560 O 241.07 1.04403 -1.63748 0
M  V30 2561 C 238.2 1.50312 -3.13087 0
M  V30 2562 C 237.154 0.9824 -4.16573 0
M  V30 2563 C 236.48 2.18809 -4.8788 0
M  V30 2564 C 237.78 0.0292356 -5.22292 0
M  V30 2565 H 239.474 -0.26135 -2.98257 0
M  V30 2566 H 237.02 -0.127134 -1.43438 0
M  V30 2567 H 238.973 2.07773 -3.66617 0
M  V30 2568 H 237.697 2.18431 -2.42807 0
M  V30 2569 H 236.356 0.430119 -3.64068 0
M  V30 2570 H 236.004 2.85507 -4.14119 0
M  V30 2571 H 235.704 1.84615 -5.57845 0
M  V30 2572 H 237.228 2.76858 -5.44226 0
M  V30 2573 H 238.642 0.512976 -5.71 0
M  V30 2574 H 237.039 -0.2244 -5.9968 0
M  V30 2575 H 238.109 -0.912931 -4.76228 0
M  V30 2576 N 239.452 1.56882 -0.150215 0
M  V30 2577 C 240.382 2.19935 0.784284 0
M  V30 2578 C 241.363 1.14854 1.25469 0
M  V30 2579 O 242.548 1.43209 1.31168 0
M  V30 2580 C 239.678 2.82349 2.02229 0
M  V30 2581 C 238.632 3.93285 1.68853 0
M  V30 2582 C 237.958 4.42649 2.99944 0
M  V30 2583 C 239.258 5.13904 0.932714 0
M  V30 2584 H 240.952 2.9828 0.258781 0
M  V30 2585 H 238.498 1.43473 0.123029 0
M  V30 2586 H 240.451 3.25126 2.68088 0
M  V30 2587 H 239.175 2.0134 2.57157 0
M  V30 2588 H 237.834 3.5113 1.05371 0
M  V30 2589 H 237.482 3.58458 3.52869 0
M  V30 2590 H 237.182 5.17476 2.78374 0
M  V30 2591 H 238.706 4.88099 3.66868 0
M  V30 2592 H 240.12 5.53506 1.49345 0
M  V30 2593 H 238.517 5.94515 0.81684 0
M  V30 2594 H 239.587 4.84842 -0.0749568 0
M  V30 2595 N 240.93 -0.123565 1.57115 0
M  V30 2596 C 242.341 -0.681198 1.73829 0
M  V30 2597 C 242.692 -1.80535 0.768214 0
M  V30 2598 O 241.817 -2.16317 -0.0599103 0
M  V30 2599 C 242.412 -1.24246 3.15196 0
M  V30 2600 C 240.971 -1.74643 3.33432 0
M  V30 2601 C 240.118 -0.644284 2.69711 0
M  V30 2602 H 243.069 0.102315 1.5837 0
M  V30 2603 H 243.09 -2.11216 3.16493 0
M  V30 2604 H 242.602 -0.424062 3.85776 0
M  V30 2605 H 240.703 -2.58974 2.67886 0
M  V30 2606 H 240.816 -1.85902 4.41562 0
M  V30 2607 H 239.18 -1.07676 2.3082 0
M  V30 2608 H 239.963 0.163058 3.42913 0
M  V30 2609 N 242.408 -1.52605 -0.393616 0
M  V30 2610 C 243.655 -1.67424 -1.1391 0
M  V30 2611 C 243.983 -0.411859 -1.90089 0
M  V30 2612 O 243.238 0.605626 -1.86093 0
M  V30 2613 C 243.537 -2.85721 -2.14705 0
M  V30 2614 C 243.203 -4.23342 -1.55218 0
M  V30 2615 C 241.865 -4.60771 -1.3872 0
M  V30 2616 C 244.217 -5.09041 -1.11924 0
M  V30 2617 C 241.545 -5.81563 -0.774689 0
M  V30 2618 C 243.897 -6.30452 -0.520853 0
M  V30 2619 C 242.561 -6.66617 -0.343134 0
M  V30 2620 H 241.831 -0.612648 -0.416826 0
M  V30 2621 H 244.478 -1.8674 -0.424315 0
M  V30 2622 H 242.783 -2.60803 -2.92385 0
M  V30 2623 H 244.48 -2.94382 -2.72288 0
M  V30 2624 H 241.07 -3.93855 -1.69045 0
M  V30 2625 H 245.254 -4.80695 -1.23473 0
M  V30 2626 H 240.51 -6.08196 -0.625154 0
M  V30 2627 H 244.684 -6.96175 -0.177065 0
M  V30 2628 H 242.311 -7.60083 0.133571 0
M  V30 2629 N 243.887 0.651787 -1.4349 0
M  V30 2630 C 245.134 1.41167 -1.45183 0
M  V30 2631 C 245.462 1.94349 -0.0766601 0
M  V30 2632 O 244.717 1.72804 0.918555 0
M  V30 2633 C 245.016 2.60914 -2.44251 0
M  V30 2634 C 244.682 2.26142 -3.9009 0
M  V30 2635 C 243.344 2.16371 -4.2981 0
M  V30 2636 C 245.696 1.98334 -4.81989 0
M  V30 2637 C 243.024 1.7695 -5.5938 0
M  V30 2638 C 245.376 1.6041 -6.11924 0
M  V30 2639 C 244.04 1.49166 -6.5062 0
M  V30 2640 H 243.31 0.516566 -0.531263 0
M  V30 2641 H 245.957 0.741099 -1.76579 0
M  V30 2642 H 244.262 3.3311 -2.06265 0
M  V30 2643 H 245.959 3.19127 -2.42815 0
M  V30 2644 H 242.549 2.34658 -3.58655 0
M  V30 2645 H 246.733 2.04803 -4.52072 0
M  V30 2646 H 241.989 1.66831 -5.88198 0
M  V30 2647 H 246.163 1.37925 -6.82605 0
M  V30 2648 H 243.79 1.1839 -7.50925 0
M  V30 2649 N 245.365 1.30045 0.890287 0
M  V30 2650 C 246.298 1.10301 1.99772 0
M  V30 2651 C 247.276 0.0121631 1.62595 0
M  V30 2652 O 248.46 0.16469 1.87779 0
M  V30 2653 C 245.587 0.681125 3.31781 0
M  V30 2654 C 244.633 1.77206 3.87944 0
M  V30 2655 S 245.466 3.37335 4.15891 0
M  V30 2656 C 246.622 2.97036 5.50927 0
M  V30 2657 H 246.855 2.04057 2.16213 0
M  V30 2658 H 244.388 1.14299 1.03804 0
M  V30 2659 H 246.346 0.444439 4.08087 0
M  V30 2660 H 245.007 -0.236981 3.13205 0
M  V30 2661 H 244.2 1.42903 4.83316 0
M  V30 2662 H 243.802 1.96275 3.18358 0
M  V30 2663 H 246.094 2.44666 6.31779 0
M  V30 2664 H 247.037 3.91296 5.90164 0
M  V30 2665 H 247.445 2.35057 5.13233 0
M  V30 2666 N 246.843 -1.10192 1.12674 0
M  V30 2667 C 247.753 -2.20172 0.810026 0
M  V30 2668 C 248.769 -1.72821 -0.202188 0
M  V30 2669 O 249.945 -2.01369 -0.0351691 0
M  V30 2670 C 247.01 -3.45631 0.272007 0
M  V30 2671 C 246.071 -4.07704 1.34447 0
M  V30 2672 C 245.304 -5.27175 0.832029 0
M  V30 2673 O 245.527 -5.69425 -0.333284 0
M  V30 2674 O 244.461 -5.80168 1.60277 0
M  V30 2675 H 248.287 -2.49701 1.72867 0
M  V30 2676 H 245.872 -1.18977 0.903597 0
M  V30 2677 H 247.754 -4.21394 -0.0230219 0
M  V30 2678 H 246.429 -3.17723 -0.619164 0
M  V30 2679 H 245.336 -3.33614 1.6927 0
M  V30 2680 H 246.669 -4.3982 2.2095 0
M  V30 2681 N 248.321 -0.919034 -1.28029 0
M  V30 2682 C 249.231 -0.416756 -2.30869 0
M  V30 2683 C 250.247 0.498235 -1.66714 0
M  V30 2684 O 251.423 0.383144 -1.97722 0
M  V30 2685 C 248.488 0.330274 -3.45123 0
M  V30 2686 C 247.549 -0.618578 -4.2482 0
M  V30 2687 C 246.782 0.0928959 -5.33619 0
M  V30 2688 O 247.005 1.31375 -5.55065 0
M  V30 2689 O 245.939 -0.574499 -5.99152 0
M  V30 2690 H 249.765 -1.27043 -2.75851 0
M  V30 2691 H 247.35 -0.684052 -1.3282 0
M  V30 2692 H 249.232 0.751972 -4.14636 0
M  V30 2693 H 247.907 1.1597 -3.02213 0
M  V30 2694 H 246.814 -1.08978 -3.57875 0
M  V30 2695 H 248.147 -1.41497 -4.71423 0
M  V30 2696 N 249.799 1.42003 -0.683588 0
M  V30 2697 C 251.045 2.01712 -0.209825 0
M  V30 2698 C 251.378 1.53968 1.18353 0
M  V30 2699 O 250.653 0.745661 1.79639 0
M  V30 2700 C 250.936 3.59202 -0.254197 0
M  V30 2701 C 250.789 4.17102 -1.68363 0
M  V30 2702 C 252.108 4.38344 0.392709 0
M  V30 2703 H 249.227 0.732891 -0.0777189 0
M  V30 2704 H 251.869 1.68909 -0.87004 0
M  V30 2705 H 250.019 3.87278 0.307954 0
M  V30 2706 H 251.691 3.99946 -2.29871 0
M  V30 2707 H 249.934 3.72597 -2.22157 0
M  V30 2708 H 250.605 5.26249 -1.6663 0
M  V30 2709 H 253.081 4.16011 -0.0859162 0
M  V30 2710 H 251.957 5.47901 0.331063 0
M  V30 2711 H 252.218 4.16887 1.47164 0
M  V30 2712 N 251.277 0.427512 1.51691 0
M  V30 2713 C 252.507 -0.140986 2.06118 0
M  V30 2714 C 252.915 -1.37854 1.29588 0
M  V30 2715 O 252.258 -1.80411 0.346036 0
M  V30 2716 C 252.32 -0.538276 3.55447 0
M  V30 2717 C 251.984 0.591095 4.53161 0
M  V30 2718 C 252.981 1.46027 4.98971 0
M  V30 2719 C 250.666 0.769028 4.96378 0
M  V30 2720 C 252.66 2.49216 5.8666 0
M  V30 2721 C 250.347 1.80421 5.83859 0
M  V30 2722 C 251.345 2.66417 6.28897 0
M  V30 2723 O 251.033 3.68159 7.14643 0
M  V30 2724 H 250.765 -0.0157455 0.675817 0
M  V30 2725 H 253.319 0.602495 1.96365 0
M  V30 2726 H 251.549 -1.33432 3.6295 0
M  V30 2727 H 253.238 -1.0368 3.92435 0
M  V30 2728 H 254.004 1.33429 4.66285 0
M  V30 2729 H 249.883 0.109273 4.6087 0
M  V30 2730 H 253.427 3.16372 6.21735 0
M  V30 2731 H 249.324 1.93042 6.15959 0
M  V30 2732 H 250.092 3.64622 7.32798 0
M  V30 2733 N 252.755 -1.56801 0.158532 0
M  V30 2734 C 253.685 -2.20347 -0.772609 0
M  V30 2735 C 254.666 -1.15518 -1.24859 0
M  V30 2736 O 255.851 -1.43902 -1.30406 0
M  V30 2737 C 252.981 -2.83417 -2.00729 0
M  V30 2738 C 251.935 -3.94174 -1.66765 0
M  V30 2739 C 251.261 -4.44233 -2.97592 0
M  V30 2740 C 252.561 -5.14392 -0.905447 0
M  V30 2741 H 254.255 -2.98413 -0.242959 0
M  V30 2742 H 251.801 -1.43537 -0.115419 0
M  V30 2743 H 253.754 -3.26543 -2.6636 0
M  V30 2744 H 252.478 -2.02701 -2.56086 0
M  V30 2745 H 251.137 -3.51684 -1.03508 0
M  V30 2746 H 250.785 -3.60325 -3.50963 0
M  V30 2747 H 250.485 -5.18945 -2.75626 0
M  V30 2748 H 252.009 -4.90037 -3.64274 0
M  V30 2749 H 253.423 -5.5429 -1.46408 0
M  V30 2750 H 251.82 -5.9494 -0.7853 0
M  V30 2751 H 252.89 -4.84795 0.100668 0
M  V30 2752 N 254.233 0.115231 -1.57178 0
M  V30 2753 C 255.18 1.14115 -2.00615 0
M  V30 2754 C 256.15 1.40939 -0.878941 0
M  V30 2755 O 257.335 1.52741 -1.14345 0
M  V30 2756 C 254.475 2.46156 -2.4187 0
M  V30 2757 C 253.588 2.26236 -3.68024 0
M  V30 2758 C 252.723 3.51534 -3.98243 0
M  V30 2759 C 251.762 3.26787 -5.17568 0
M  V30 2760 N 250.899 4.44298 -5.43639 0
M  V30 2761 H 255.739 0.763743 -2.88047 0
M  V30 2762 H 253.276 0.365615 -1.42484 0
M  V30 2763 H 255.234 3.23189 -2.63827 0
M  V30 2764 H 253.864 2.81783 -1.57475 0
M  V30 2765 H 252.916 1.40102 -3.5366 0
M  V30 2766 H 254.228 2.03929 -4.55208 0
M  V30 2767 H 253.382 4.36984 -4.20868 0
M  V30 2768 H 252.121 3.76876 -3.09541 0
M  V30 2769 H 251.126 2.39729 -4.94783 0
M  V30 2770 H 252.351 3.02812 -6.0785 0
M  V30 2771 H 250.297 4.69754 -4.57895 0
M  V30 2772 H 250.214 4.25109 -6.25154 0
M  V30 2773 H 251.482 5.3087 -5.70786 0
M  V30 2774 N 255.711 1.52812 0.385517 0
M  V30 2775 C 257.122 1.5993 0.963293 0
M  V30 2776 C 257.473 0.454302 1.90868 0
M  V30 2777 O 256.598 -0.422132 2.12243 0
M  V30 2778 C 257.193 2.89871 1.75387 0
M  V30 2779 C 255.752 2.99389 2.28129 0
M  V30 2780 C 254.899 2.55071 1.08783 0
M  V30 2781 H 257.85 1.5784 0.164948 0
M  V30 2782 H 257.871 2.76553 2.61341 0
M  V30 2783 H 257.383 3.73186 1.06554 0
M  V30 2784 H 255.484 2.20619 3.00263 0
M  V30 2785 H 255.597 4.04096 2.57377 0
M  V30 2786 H 253.961 2.09473 1.4489 0
M  V30 2787 H 254.744 3.40785 0.414807 0
M  V30 2788 N 257.189 -0.644168 1.43834 0
M  V30 2789 C 258.121 -1.76955 1.45669 0
M  V30 2790 C 259.134 -1.58956 0.351666 0
M  V30 2791 O 260.323 -1.6751 0.616644 0
M  V30 2792 C 257.423 -3.14507 1.26248 0
M  V30 2793 C 256.596 -3.59083 2.49757 0
M  V30 2794 C 255.655 -4.75467 2.25427 0
M  V30 2795 O 254.681 -4.84444 2.98836 0
M  V30 2796 N 255.883 -5.66289 1.27661 0
M  V30 2797 H 258.648 -1.75856 2.42682 0
M  V30 2798 H 256.209 -0.828312 1.39106 0
M  V30 2799 H 258.201 -3.90067 1.0784 0
M  V30 2800 H 256.771 -3.10325 0.376478 0
M  V30 2801 H 255.991 -2.7387 2.8353 0
M  V30 2802 H 257.279 -3.85613 3.31934 0
M  V30 2803 H 256.677 -5.61718 0.670064 0
M  V30 2804 H 255.234 -6.41533 1.15234 0
M  V30 2805 N 258.668 -1.30515 -0.883378 0
M  V30 2806 C 259.914 -1.20617 -1.63778 0
M  V30 2807 C 260.269 0.236469 -1.90941 0
M  V30 2808 O 259.562 1.16596 -1.52039 0
M  V30 2809 C 259.756 -1.96994 -2.98209 0
M  V30 2810 C 259.585 -3.48537 -2.84169 0
M  V30 2811 C 258.355 -4.17893 -2.84067 0
M  V30 2812 C 260.553 -4.43738 -2.60001 0
M  V30 2813 N 258.535 -5.55685 -2.60936 0
M  V30 2814 C 259.906 -5.69105 -2.46007 0
M  V30 2815 C 261.961 -4.33316 -2.45239 0
M  V30 2816 C 260.664 -6.8523 -2.18752 0
M  V30 2817 C 262.69 -5.4921 -2.19369 0
M  V30 2818 C 262.052 -6.73558 -2.06153 0
M  V30 2819 H 258.151 -0.496434 -0.604216 0
M  V30 2820 H 260.735 -1.64544 -1.04083 0
M  V30 2821 H 258.906 -1.55455 -3.55933 0
M  V30 2822 H 260.638 -1.79225 -3.62851 0
M  V30 2823 H 257.393 -3.69739 -2.95956 0
M  V30 2824 H 257.817 -6.28199 -2.52378 0
M  V30 2825 H 262.459 -3.37856 -2.54191 0
M  V30 2826 H 260.177 -7.80729 -2.08537 0
M  V30 2827 H 263.763 -5.43054 -2.08766 0
M  V30 2828 H 262.643 -7.61721 -1.86416 0
M  V30 2829 N 260.146 1.09593 -1.13257 0
M  V30 2830 C 261.079 2.15451 -0.752061 0
M  V30 2831 C 262.057 1.60493 0.260913 0
M  V30 2832 O 263.241 1.8788 0.152819 0
M  V30 2833 C 260.368 3.38506 -0.114594 0
M  V30 2834 C 259.414 4.12183 -1.09579 0
M  V30 2835 S 260.247 4.6661 -2.62745 0
M  V30 2836 C 261.403 5.92966 -2.00354 0
M  V30 2837 H 261.636 2.47395 -1.64872 0
M  V30 2838 H 259.169 1.21515 -0.952545 0
M  V30 2839 H 261.127 4.09757 0.246808 0
M  V30 2840 H 259.788 3.04784 0.759309 0
M  V30 2841 H 258.981 5.00445 -0.597545 0
M  V30 2842 H 258.583 3.46785 -1.40057 0
M  V30 2843 H 260.875 6.63882 -1.35156 0
M  V30 2844 H 261.818 6.47467 -2.86691 0
M  V30 2845 H 262.226 5.45405 -1.4558 0
M  V30 2846 N 261.624 0.925811 1.2754 0
M  V30 2847 C 262.556 0.380753 2.26015 0
M  V30 2848 C 263.569 -0.487485 1.5533 0
M  V30 2849 O 264.758 -0.300413 1.75954 0
M  V30 2850 C 261.858 -0.473259 3.35579 0
M  V30 2851 C 261.031 0.375249 4.35787 0
M  V30 2852 C 260.09 -0.415809 5.24555 0
M  V30 2853 O 259.116 0.175834 5.68928 0
M  V30 2854 N 260.318 -1.71607 5.54555 0
M  V30 2855 H 263.083 1.22725 2.73421 0
M  V30 2856 H 260.644 0.793037 1.41147 0
M  V30 2857 H 262.636 -1.00949 3.91907 0
M  V30 2858 H 261.206 -1.2205 2.87789 0
M  V30 2859 H 260.426 1.09279 3.7875 0
M  V30 2860 H 261.714 0.955399 4.99749 0
M  V30 2861 H 261.112 -2.2191 5.20358 0
M  V30 2862 H 259.669 -2.19887 6.1359 0
M  V30 2863 N 263.102 -1.41638 0.69111 0
M  V30 2864 C 264.379 -1.95036 0.148421 0
M  V30 2865 C 264.759 -1.63072 -1.34055 0
M  V30 2866 O 264.107 -0.93538 -2.08478 0
M  V30 2867 C 264.317 -3.46279 0.434951 0
M  V30 2868 C 265.665 -4.23069 0.360275 0
M  V30 2869 O 266.689 -3.54277 0.369613 0
M  V30 2870 O 265.548 -5.45583 0.316534 0
M  V30 2871 H 262.642 -0.826908 0.0123654 0
M  V30 2872 H 265.188 -1.5138 0.766963 0
M  V30 2873 H 263.96 -3.6281 1.46576 0
M  V30 2874 H 263.583 -3.97019 -0.214787 0
M  V30 2875 N 264.58 -0.43555 -1.51462 0
M  V30 2876 C 265.857 0.191364 -1.94662 0
M  V30 2877 C 266.237 1.60254 -1.37411 0
M  V30 2878 O 265.585 2.2152 -0.560458 0
M  V30 2879 C 265.795 0.17091 -3.48581 0
M  V30 2880 C 267.143 0.377357 -4.2292 0
M  V30 2881 O 268.167 0.249104 -3.55328 0
M  V30 2882 O 267.026 0.63247 -5.42828 0
M  V30 2883 H 264.12 0.130932 -0.816569 0
M  V30 2884 H 266.666 -0.4934 -1.62369 0
M  V30 2885 H 265.438 -0.815738 -3.82703 0
M  V30 2886 H 265.061 0.898659 -3.87311 0
M  V30 2887 N 266.058 1.56714 -0.166846 0
M  V30 2888 C 267.306 1.96358 0.478305 0
M  V30 2889 C 267.627 1.0537 1.6408 0
M  V30 2890 O 266.897 0.119154 1.95537 0
M  V30 2891 H 265.477 0.725065 0.179692 0
M  V30 2892 H 268.139 1.93329 -0.246985 0
M  V30 2893 H 267.235 3.00547 0.841292 0
M  V30 2894 N 267.536 -0.106894 1.57237 0
M  V30 2895 C 268.785 -0.811163 1.8467 0
M  V30 2896 C 269.098 -1.80469 0.754342 0
M  V30 2897 O 270.304 -2.55601 0.915439 0
M  V30 2898 C 268.76 -1.49337 3.27454 0
M  V30 2899 C 268.368 -0.540217 4.44731 0
M  V30 2900 C 270.112 -2.18206 3.64124 0
M  V30 2901 C 268.019 -1.22634 5.78545 0
M  V30 2902 H 266.949 -0.306679 0.688813 0
M  V30 2903 H 269.6 -0.0639887 1.83388 0
M  V30 2904 H 267.982 -2.2876 3.23241 0
M  V30 2905 H 269.156 0.221659 4.60267 0
M  V30 2906 H 267.471 0.042146 4.16379 0
M  V30 2907 H 270.068 -2.70253 4.61376 0
M  V30 2908 H 270.411 -2.96562 2.92158 0
M  V30 2909 H 270.944 -1.45658 3.70174 0
M  V30 2910 H 267.683 -0.483832 6.53712 0
M  V30 2911 H 267.203 -1.95993 5.66874 0
M  V30 2912 H 268.882 -1.75615 6.2271 0
M  V30 2913 N 269.014 -1.53014 -0.377408 0
M  V30 2914 C 269.964 -1.74996 -1.46152 0
M  V30 2915 C 270.948 -0.604236 -1.49123 0
M  V30 2916 O 272.14 -0.862489 -1.54564 0
M  V30 2917 C 269.269 -1.93267 -2.8373 0
M  V30 2918 C 268.355 -3.13807 -2.85283 0
M  V30 2919 N 268.746 -4.35941 -2.56493 0
M  V30 2920 C 267.044 -3.14288 -3.16448 0
M  V30 2921 C 267.745 -5.17615 -2.65424 0
M  V30 2922 N 266.721 -4.53559 -2.99641 0
M  V30 2923 H 270.523 -2.67044 -1.22738 0
M  V30 2924 H 268.037 -1.51479 -0.585479 0
M  V30 2925 H 270.034 -2.0714 -3.61799 0
M  V30 2926 H 268.694 -1.0244 -3.08117 0
M  V30 2927 H 269.705 -4.63876 -2.30302 0
M  V30 2928 H 266.382 -2.33312 -3.46225 0
M  V30 2929 H 267.772 -6.25006 -2.46612 0
M  V30 2930 N 270.492 0.636531 -1.44174 0
M  V30 2931 C 271.903 1.21806 -1.41493 0
M  V30 2932 C 272.254 1.95785 -0.1275 0
M  V30 2933 O 271.379 2.02147 0.772376 0
M  V30 2934 C 271.974 2.21551 -2.56321 0
M  V30 2935 C 270.533 2.75143 -2.56853 0
M  V30 2936 C 269.68 1.50052 -2.33195 0
M  V30 2937 H 272.631 0.427531 -1.52833 0
M  V30 2938 H 272.652 3.0405 -2.28765 0
M  V30 2939 H 272.164 1.67679 -3.50008 0
M  V30 2940 H 270.265 3.33033 -1.67093 0
M  V30 2941 H 270.378 3.2155 -3.55165 0
M  V30 2942 H 268.742 1.77993 -1.82183 0
M  V30 2943 H 269.525 0.980903 -3.28988 0
M  V30 2944 N 271.97 1.30982 0.876444 0
M  V30 2945 C 272.918 1.18006 2.00443 0
M  V30 2946 C 273.912 0.0898871 1.69161 0
M  V30 2947 O 275.118 0.251333 1.78237 0
M  V30 2948 H 271.493 0.365196 0.65737 0
M  V30 2949 H 273.464 2.13453 2.0852 0
M  V30 2950 C 272.213 0.897521 3.35916 0
M  V30 2951 H 271.536 1.7285 3.60504 0
M  V30 2952 H 272.976 0.846874 4.15456 0
M  V30 2953 C 271.435 -0.399674 3.34521 0
M  V30 2954 O 271.965 -1.41852 3.7582 0
M  V30 2955 N 270.171 -0.413893 2.87637 0
M  V30 2956 H 269.718 0.41571 2.54224 0
M  V30 2957 H 269.676 -1.28175 2.87086 0
M  V30 2958 N 273.449 -1.08991 1.13837 0
M  V30 2959 C 274.865 -1.33312 0.877506 0
M  V30 2960 C 275.065 -1.95587 -0.48456 0
M  V30 2961 O 274.121 -2.20509 -1.23013 0
M  V30 2962 C 275.434 -2.24045 2.0056 0
M  V30 2963 C 276.982 -2.37542 2.03821 0
M  V30 2964 C 277.457 -3.31614 3.15905 0
M  V30 2965 N 278.948 -3.39189 3.15445 0
M  V30 2966 C 279.683 -4.11992 3.98811 0
M  V30 2967 N 279.179 -4.87553 4.92203 0
M  V30 2968 N 280.972 -4.07762 3.86894 0
M  V30 2969 H 273.123 -0.669456 2.01574 0
M  V30 2970 H 275.386 -0.357482 0.878015 0
M  V30 2971 H 275.092 -1.85521 2.98789 0
M  V30 2972 H 274.966 -3.24466 1.92359 0
M  V30 2973 H 277.353 -2.75327 1.06202 0
M  V30 2974 H 277.434 -1.36884 2.16093 0
M  V30 2975 H 277.078 -2.94551 4.13766 0
M  V30 2976 H 277.008 -4.32186 3.0087 0
M  V30 2977 H 279.499 -2.85314 2.47799 0
M  V30 2978 H 279.812 -5.40549 5.52292 0
M  V30 2979 H 278.157 -4.86627 4.96205 0
M  V30 2980 H 281.348 -3.47833 3.13257 0
M  V30 2981 H 281.521 -4.64238 4.52092 0
M  V30 2982 N 274.927 -0.932562 -1.27047 0
M  V30 2983 C 276.204 -0.49377 -1.89265 0
M  V30 2984 C 276.584 1.02833 -1.8436 0
M  V30 2985 O 275.932 1.88461 -1.29209 0
M  V30 2986 C 276.142 -1.04536 -3.32976 0
M  V30 2987 C 277.49 -1.10879 -4.09867 0
M  V30 2988 O 278.514 -0.995327 -3.42011 0
M  V30 2989 O 277.373 -1.28417 -5.31198 0
M  V30 2990 H 274.467 -0.159596 -0.811454 0
M  V30 2991 H 277.013 -1.02457 -1.3528 0
M  V30 2992 H 275.785 -2.08913 -3.30864 0
M  V30 2993 H 275.408 -0.496494 -3.94488 0
M  V30 2994 N 276.405 1.4127 -0.698611 0
M  V30 2995 C 277.368 2.29158 -0.044132 0
M  V30 2996 C 278.368 1.44529 0.704841 0
M  V30 2997 O 279.558 1.65643 0.539276 0
M  V30 2998 C 276.69 3.27459 0.947809 0
M  V30 2999 H 277.883 2.88529 -0.817994 0
M  V30 3000 H 275.436 1.49307 -0.46228 0
M  V30 3001 H 276.171 2.73073 1.74933 0
M  V30 3002 H 275.956 3.8991 0.41385 0
M  V30 3003 H 277.446 3.93311 1.40344 0
M  V30 3004 N 277.883 0.443576 1.51229 0
M  V30 3005 C 278.815 -0.400608 2.25672 0
M  V30 3006 C 279.828 -0.980945 1.29928 0
M  V30 3007 O 281.017 -0.874024 1.55638 0
M  V30 3008 C 278.117 -1.57304 3.00181 0
M  V30 3009 C 277.29 -1.11046 4.23069 0
M  V30 3010 C 276.349 -2.15374 4.80105 0
M  V30 3011 O 275.375 -1.74554 5.41774 0
M  V30 3012 N 276.577 -3.47922 4.64683 0
M  V30 3013 H 279.342 0.23745 2.98758 0
M  V30 3014 H 276.903 0.272809 1.59585 0
M  V30 3015 H 278.895 -2.26733 3.35223 0
M  V30 3016 H 277.465 -2.11632 2.30066 0
M  V30 3017 H 276.685 -0.243019 3.9345 0
M  V30 3018 H 277.973 -0.778888 5.02803 0
M  V30 3019 H 277.371 -3.83815 4.15575 0
M  V30 3020 H 275.928 -4.13228 5.0407 0
M  V30 3021 N 279.361 -1.56624 0.175154 0
M  V30 3022 C 280.772 -1.83561 -0.340916 0
M  V30 3023 C 281.123 -1.09511 -1.62794 0
M  V30 3024 O 280.248 -0.349389 -2.13561 0
M  V30 3025 C 280.843 -3.32979 -0.625313 0
M  V30 3026 C 279.402 -3.60399 -1.08581 0
M  V30 3027 C 278.549 -2.77024 -0.123722 0
M  V30 3028 H 281.5 -1.53593 0.399344 0
M  V30 3029 H 281.521 -3.50666 -1.47694 0
M  V30 3030 H 281.033 -3.86847 0.311575 0
M  V30 3031 H 279.134 -3.11945 -2.03767 0
M  V30 3032 H 279.247 -4.68711 -0.992317 0
M  V30 3033 H 277.611 -2.46993 -0.621821 0
M  V30 3034 H 278.394 -3.33674 0.807256 0
M  V30 3035 N 280.839 0.0985539 -1.57292 0
M  V30 3036 C 282.086 0.802678 -1.85912 0
M  V30 3037 C 282.414 1.78901 -0.763186 0
M  V30 3038 O 281.669 1.94178 0.243559 0
M  V30 3039 C 281.968 1.56927 -3.21105 0
M  V30 3040 C 281.634 0.725376 -4.45027 0
M  V30 3041 C 280.296 0.492726 -4.78671 0
M  V30 3042 C 282.648 0.138493 -5.21016 0
M  V30 3043 C 279.976 -0.336727 -5.85733 0
M  V30 3044 C 282.328 -0.678264 -6.28953 0
M  V30 3045 C 280.992 -0.921039 -6.61115 0
M  V30 3046 H 280.262 0.293721 -0.680301 0
M  V30 3047 H 282.909 0.0642841 -1.91392 0
M  V30 3048 H 281.214 2.37914 -3.11294 0
M  V30 3049 H 282.911 2.11841 -3.40477 0
M  V30 3050 H 279.501 0.916815 -4.18679 0
M  V30 3051 H 283.685 0.305404 -4.95359 0
M  V30 3052 H 278.941 -0.533836 -6.09065 0
M  V30 3053 H 283.115 -1.1399 -6.87007 0
M  V30 3054 H 280.742 -1.56556 -7.43905 0
M  V30 3055 N 282.317 1.53212 0.369288 0
M  V30 3056 C 283.566 1.68436 1.10961 0
M  V30 3057 C 283.879 0.440738 1.9057 0
M  V30 3058 O 285.085 0.473446 2.6734 0
M  V30 3059 C 283.541 2.97744 2.0218 0
M  V30 3060 C 283.149 4.29355 1.279 0
M  V30 3061 C 284.893 3.22334 2.76226 0
M  V30 3062 C 282.8 5.49755 2.17999 0
M  V30 3063 H 281.73 0.627568 0.41794 0
M  V30 3064 H 284.381 1.79713 0.370884 0
M  V30 3065 H 282.763 2.8026 2.79768 0
M  V30 3066 H 283.937 4.57458 0.554007 0
M  V30 3067 H 282.252 4.11179 0.657311 0
M  V30 3068 H 284.849 4.09471 3.43857 0
M  V30 3069 H 285.192 2.38238 3.41392 0
M  V30 3070 H 285.725 3.40475 2.05723 0
M  V30 3071 H 282.464 6.36318 1.57417 0
M  V30 3072 H 281.984 5.25937 2.88359 0
M  V30 3073 H 283.663 5.84401 2.77641 0
M  V30 3074 N 283.795 -0.628877 1.44509 0
M  V30 3075 C 284.758 -1.72263 1.51188 0
M  V30 3076 C 285.758 -1.55907 0.39367 0
M  V30 3077 O 286.948 -1.61361 0.656377 0
M  V30 3078 C 284.08 -3.11365 1.38798 0
M  V30 3079 H 285.273 -1.67714 2.4862 0
M  V30 3080 H 282.826 -0.842737 1.31634 0
M  V30 3081 H 283.561 -3.21507 0.424693 0
M  V30 3082 H 283.346 -3.24644 2.19884 0
M  V30 3083 H 284.836 -3.91075 1.46458 0
M  V30 3084 N 285.273 -1.31445 -0.869486 0
M  V30 3085 C 286.55 -1.11795 -1.60503 0
M  V30 3086 C 286.93 0.327168 -2.08549 0
M  V30 3087 O 286.278 1.32135 -1.8642 0
M  V30 3088 C 286.488 -2.13258 -2.76265 0
M  V30 3089 C 287.836 -2.45805 -3.46215 0
M  V30 3090 O 288.86 -2.11688 -2.86473 0
M  V30 3091 O 287.719 -3.04228 -4.5399 0
M  V30 3092 H 284.813 -0.430421 -0.706163 0
M  V30 3093 H 287.359 -1.42925 -0.914907 0
M  V30 3094 H 286.131 -3.10461 -2.3818 0
M  V30 3095 H 285.754 -1.83035 -3.52964 0
M  V30 3096 N 286.751 1.08385 -1.14413 0
M  V30 3097 C 287.997 1.81212 -0.923793 0
M  V30 3098 C 288.352 1.84555 0.543814 0
M  V30 3099 O 287.645 1.31056 1.39767 0
M  V30 3100 C 287.839 3.26273 -1.45879 0
M  V30 3101 C 287.668 3.37063 -2.97689 0
M  V30 3102 C 286.438 3.4824 -3.66138 0
M  V30 3103 C 288.636 3.28698 -3.95553 0
M  V30 3104 N 286.618 3.47824 -5.05858 0
M  V30 3105 C 287.989 3.35276 -5.21527 0
M  V30 3106 C 290.044 3.12437 -3.8767 0
M  V30 3107 C 288.747 3.27267 -6.40538 0
M  V30 3108 C 290.773 3.05757 -5.06228 0
M  V30 3109 C 290.135 3.12938 -6.3107 0
M  V30 3110 H 286.234 0.6769 -0.391574 0
M  V30 3111 H 288.818 1.29455 -1.45429 0
M  V30 3112 H 286.989 3.76474 -0.95507 0
M  V30 3113 H 288.721 3.87165 -1.17835 0
M  V30 3114 H 285.476 3.52141 -3.16692 0
M  V30 3115 H 285.9 3.51171 -5.78798 0
M  V30 3116 H 290.542 3.05747 -2.92025 0
M  V30 3117 H 288.26 3.32718 -7.36427 0
M  V30 3118 H 291.846 2.94295 -5.01878 0
M  V30 3119 H 290.726 3.078 -7.21269 0
M  V30 3120 N 288.23 0.939286 1.26551 0
M  V30 3121 C 289.163 0.391702 2.24813 0
M  V30 3122 C 290.141 -0.518421 1.54114 0
M  V30 3123 O 291.325 -0.456299 1.82894 0
M  V30 3124 C 288.452 -0.437382 3.35864 0
M  V30 3125 C 287.498 0.410946 4.24516 0
M  V30 3126 S 288.331 1.83372 5.03125 0
M  V30 3127 C 289.487 1.01264 6.17654 0
M  V30 3128 H 289.72 1.22448 2.70913 0
M  V30 3129 H 287.253 0.742269 1.35387 0
M  V30 3130 H 289.211 -0.909837 4.0029 0
M  V30 3131 H 287.872 -1.24482 2.8838 0
M  V30 3132 H 287.065 -0.224191 5.03501 0
M  V30 3133 H 286.667 0.818014 3.64945 0
M  V30 3134 H 288.959 0.254023 6.77024 0
M  V30 3135 H 289.902 1.77589 6.85469 0
M  V30 3136 H 290.31 0.549532 5.61819 0
M  V30 3137 N 289.708 -1.40897 0.706093 0
M  V30 3138 C 290.671 -2.29131 0.0562841 0
M  V30 3139 C 291.671 -1.44901 -0.697166 0
M  V30 3140 O 292.861 -1.65926 -0.530484 0
M  V30 3141 C 289.993 -3.27957 -0.93043 0
M  V30 3142 H 291.186 -2.88091 0.833284 0
M  V30 3143 H 288.739 -1.4906 0.470192 0
M  V30 3144 H 289.474 -2.73997 -1.73482 0
M  V30 3145 H 289.259 -3.90124 -0.393166 0
M  V30 3146 H 290.749 -3.94049 -1.38256 0
M  V30 3147 N 291.186 -0.45159 -1.50991 0
M  V30 3148 C 292.133 0.352625 -2.2809 0
M  V30 3149 C 293.103 1.0044 -1.32291 0
M  V30 3150 O 294.288 1.02058 -1.6121 0
M  V30 3151 C 291.428 1.43983 -3.13629 0
M  V30 3152 C 290.541 0.804772 -4.24438 0
M  V30 3153 C 289.676 1.86822 -4.97263 0
M  V30 3154 C 288.715 1.21236 -5.99973 0
M  V30 3155 N 287.852 2.2178 -6.66152 0
M  V30 3156 H 292.692 -0.311186 -2.96371 0
M  V30 3157 H 290.229 -0.165308 -1.46168 0
M  V30 3158 H 292.187 2.08161 -3.61559 0
M  V30 3159 H 290.817 2.07307 -2.47434 0
M  V30 3160 H 289.869 0.0509129 -3.80366 0
M  V30 3161 H 291.181 0.286076 -4.97979 0
M  V30 3162 H 290.335 2.58628 -5.48813 0
M  V30 3163 H 289.074 2.42068 -4.23385 0
M  V30 3164 H 288.079 0.479828 -5.47702 0
M  V30 3165 H 289.304 0.667051 -6.75816 0
M  V30 3166 H 287.25 2.76079 -5.95077 0
M  V30 3167 H 287.167 1.74841 -7.35504 0
M  V30 3168 H 288.435 2.93026 -7.22327 0
M  V30 3169 N 292.664 1.56529 -0.183458 0
M  V30 3170 C 293.596 2.15747 0.773697 0
M  V30 3171 C 294.609 1.1162 1.1851 0
M  V30 3172 O 295.798 1.3876 1.12285 0
M  V30 3173 C 292.898 2.6952 2.05456 0
M  V30 3174 C 292.071 3.98429 1.8048 0
M  V30 3175 C 291.13 4.37145 2.92901 0
M  V30 3176 O 290.156 5.04791 2.6301 0
M  V30 3177 N 291.358 3.99695 4.2098 0
M  V30 3178 H 294.123 2.98505 0.26736 0
M  V30 3179 H 291.684 1.619 -0.0010878 0
M  V30 3180 H 293.676 2.92412 2.79781 0
M  V30 3181 H 292.246 1.91282 2.47245 0
M  V30 3182 H 291.466 3.8379 0.899947 0
M  V30 3183 H 292.754 4.82597 1.61175 0
M  V30 3184 H 292.152 3.4526 4.48121 0
M  V30 3185 H 290.709 4.27562 4.9197 0
M  V30 3186 N 294.142 -0.090211 1.57342 0
M  V30 3187 C 295.072 -1.10976 2.05443 0
M  V30 3188 C 296.053 -1.41482 0.944284 0
M  V30 3189 O 297.238 -1.51428 1.21586 0
M  V30 3190 C 294.368 -2.42831 2.48295 0
M  V30 3191 C 293.322 -2.26721 3.63018 0
M  V30 3192 C 292.648 -3.63796 3.91863 0
M  V30 3193 C 293.948 -1.7037 4.93732 0
M  V30 3194 H 295.642 -0.709564 2.9087 0
M  V30 3195 H 293.188 -0.339874 1.39932 0
M  V30 3196 H 295.141 -3.14431 2.80555 0
M  V30 3197 H 293.865 -2.84795 1.59873 0
M  V30 3198 H 292.524 -1.57565 3.31012 0
M  V30 3199 H 292.172 -4.03297 3.00601 0
M  V30 3200 H 291.872 -3.53861 4.69101 0
M  V30 3201 H 293.396 -4.36855 4.26603 0
M  V30 3202 H 294.81 -2.31816 5.24342 0
M  V30 3203 H 293.207 -1.71181 5.75167 0
M  V30 3204 H 294.277 -0.663542 4.80339 0
M  V30 3205 N 295.62 -1.53406 -0.361157 0
M  V30 3206 C 296.552 -1.76446 -1.46286 0
M  V30 3207 C 297.565 -0.645322 -1.49464 0
M  V30 3208 O 298.754 -0.921681 -1.52864 0
M  V30 3209 C 295.854 -1.83332 -2.85031 0
M  V30 3210 C 295.027 -3.13033 -3.05498 0
M  V30 3211 C 294.086 -3.11104 -4.24383 0
M  V30 3212 O 293.112 -3.84888 -4.19344 0
M  V30 3213 N 294.314 -2.32234 -5.32022 0
M  V30 3214 H 297.079 -2.71508 -1.26899 0
M  V30 3215 H 294.64 -1.52238 -0.550915 0
M  V30 3216 H 296.632 -1.79514 -3.62708 0
M  V30 3217 H 295.202 -0.955342 -2.97644 0
M  V30 3218 H 294.422 -3.30119 -2.15442 0
M  V30 3219 H 295.71 -3.9874 -3.16044 0
M  V30 3220 H 295.108 -1.71807 -5.38979 0
M  V30 3221 H 293.665 -2.3423 -6.08259 0
M  V30 3222 N 297.098 0.621204 -1.44841 0
M  V30 3223 C 298.509 1.20298 -1.42777 0
M  V30 3224 C 298.86 1.95639 -0.148259 0
M  V30 3225 O 297.985 2.02955 0.750892 0
M  V30 3226 C 298.58 2.1882 -2.58657 0
M  V30 3227 C 297.139 2.72403 -2.59756 0
M  V30 3228 C 296.286 1.4757 -2.34773 0
M  V30 3229 H 299.237 0.411297 -1.53278 0
M  V30 3230 H 299.258 3.01607 -2.31977 0
M  V30 3231 H 298.77 1.63957 -3.51766 0
M  V30 3232 H 296.871 3.31242 -1.70615 0
M  V30 3233 H 296.984 3.17765 -3.58556 0
M  V30 3234 H 295.348 1.76051 -1.8406 0
M  V30 3235 H 296.131 0.945954 -3.3001 0
M  V30 3236 N 298.576 1.31904 0.862503 0
M  V30 3237 C 299.506 1.22782 1.98612 0
M  V30 3238 C 300.487 0.113362 1.69722 0
M  V30 3239 O 301.672 0.299218 1.91881 0
M  V30 3240 C 298.802 0.942058 3.34279 0
M  V30 3241 C 297.756 2.0169 3.77499 0
M  V30 3242 C 297.082 1.58369 5.10709 0
M  V30 3243 C 298.382 3.43096 3.93805 0
M  V30 3244 H 300.076 2.16788 2.06502 0
M  V30 3245 H 297.622 1.04366 0.992154 0
M  V30 3246 H 299.575 0.864818 4.1243 0
M  V30 3247 H 298.299 -0.0336603 3.26583 0
M  V30 3248 H 296.958 2.08416 3.01593 0
M  V30 3249 H 296.606 0.595628 4.99461 0
M  V30 3250 H 296.306 2.30279 5.40597 0
M  V30 3251 H 297.83 1.52067 5.91361 0
M  V30 3252 H 299.244 3.39003 4.62331 0
M  V30 3253 H 297.641 4.13288 4.35101 0
M  V30 3254 H 298.711 3.83334 2.96957 0
M  V30 3255 N 300.054 -1.07777 1.14986 0
M  V30 3256 C 301.3 -1.80557 0.923422 0
M  V30 3257 C 301.633 -1.86298 -0.548337 0
M  V30 3258 O 300.908 -1.34354 -1.40639 0
M  V30 3259 C 301.191 -3.25839 1.53299 0
M  V30 3260 C 301.044 -3.28269 3.07505 0
M  V30 3261 C 302.363 -4.22991 1.21518 0
M  V30 3262 H 299.482 -0.655493 0.336894 0
M  V30 3263 H 302.124 -1.26144 1.42083 0
M  V30 3264 H 300.274 -3.72306 1.10999 0
M  V30 3265 H 301.946 -2.90079 3.58681 0
M  V30 3266 H 300.189 -2.67355 3.4162 0
M  V30 3267 H 300.86 -4.30691 3.45266 0
M  V30 3268 H 303.336 -3.84894 1.581 0
M  V30 3269 H 302.212 -5.22945 1.66793 0
M  V30 3270 H 302.473 -4.41904 0.131505 0
M  V30 3271 N 301.532 -0.945985 -1.26051 0
M  V30 3272 C 302.48 -0.450259 -2.282 0
M  V30 3273 C 303.474 0.47497 -1.62605 0
M  V30 3274 O 304.68 0.352653 -1.76512 0
M  V30 3275 H 301.055 -0.127081 -0.741184 0
M  V30 3276 H 303.026 -1.32422 -2.67408 0
M  V30 3277 C 301.775 0.26467 -3.46691 0
M  V30 3278 H 301.098 -0.438123 -3.97392 0
M  V30 3279 H 302.538 0.575678 -4.20074 0
M  V30 3280 C 300.997 1.48416 -3.02447 0
M  V30 3281 O 301.527 2.58227 -3.07704 0
M  V30 3282 N 299.733 1.34243 -2.57735 0
M  V30 3283 H 299.28 0.448994 -2.53657 0
M  V30 3284 H 299.238 2.15957 -2.28495 0
M  V30 3285 N 303.011 1.40521 -0.713556 0
M  V30 3286 C 303.961 2.27971 -0.036165 0
M  V30 3287 C 304.945 1.43151 0.734623 0
M  V30 3288 O 306.137 1.66261 0.607158 0
M  V30 3289 C 303.266 3.31661 0.886331 0
M  V30 3290 C 302.352 4.23955 0.110836 0
M  V30 3291 N 302.743 4.97641 -0.904847 0
M  V30 3292 C 301.041 4.44674 0.343692 0
M  V30 3293 C 301.742 5.65322 -1.37064 0
M  V30 3294 N 300.718 5.39162 -0.693168 0
M  V30 3295 H 304.52 2.82384 -0.814645 0
M  V30 3296 H 302.034 1.52948 -0.545963 0
M  V30 3297 H 304.031 3.93154 1.38692 0
M  V30 3298 H 302.691 2.78808 1.66421 0
M  V30 3299 H 303.702 5.01689 -1.28563 0
M  V30 3300 H 300.379 4.02801 1.09805 0
M  V30 3301 H 301.769 6.34359 -2.21447 0
M  V30 3302 N 304.489 0.459591 1.5075 0
M  V30 3303 C 305.766 -0.160371 1.94941 0
M  V30 3304 C 306.146 -1.58048 1.39943 0
M  V30 3305 O 305.494 -2.206 0.595629 0
M  V30 3306 C 305.704 -0.115432 3.48809 0
M  V30 3307 C 307.052 -0.310026 4.23467 0
M  V30 3308 O 308.076 -0.192543 3.55679 0
M  V30 3309 O 306.935 -0.546031 5.43765 0
M  V30 3310 H 304.029 -0.117925 0.818549 0
M  V30 3311 H 306.575 0.519169 1.61563 0
M  V30 3312 H 305.347 0.87652 3.81357 0
M  V30 3313 H 304.97 -0.836928 3.88692 0
M  V30 3314 N 305.967 -1.56429 0.191757 0
M  V30 3315 C 307.192 -2.02309 -0.456706 0
M  V30 3316 C 307.617 -1.07103 -1.5463 0
M  V30 3317 O 306.975 -0.0539677 -1.8122 0
M  V30 3318 C 307.023 -3.46654 -0.993159 0
M  V30 3319 O 306.127 -3.54559 -2.10622 0
M  V30 3320 H 305.468 -0.655303 -0.107114 0
M  V30 3321 H 307.998 -2.02364 0.301653 0
M  V30 3322 H 308.008 -3.86377 -1.31061 0
M  V30 3323 H 306.683 -4.1544 -0.195504 0
M  V30 3324 H 305.26 -3.26708 -1.79767 0
M  V30 3325 O 307.484 -0.0545306 -1.61408 0
M  V30 3326 H 308.175 0.554314 -1.85599 0
M  V30 END ATOM
M  V30 BEGIN BOND
M  V30 END BOND
M  V30 END CTAB
M  END
$$$$
