drugbank_target|P25006 Copper-containing nitrite reductase (DB03814)
 OpenBabel12092119553D

  0  0  0     0  0            999 V3000
M  V30 BEGIN CTAB
M  V30 COUNTS 5690 5764 0 0 0
M  V30 BEGIN ATOM
M  V30 1 H -0.908 1.98254 -0.117106 0
M  V30 2 N 0 1.576 0 0
M  V30 3 C 0.933 2.03868 1.02534 0
M  V30 4 C 1.911 0.928543 1.3348 0
M  V30 5 O 3.095 1.19667 1.45644 0
M  V30 6 C 0.222 2.43627 2.35294 0
M  V30 7 C -0.732 3.65373 2.2001 0
M  V30 8 S 0.101 5.13292 1.52614 0
M  V30 9 C 1.257 5.56322 2.86805 0
M  V30 10 H 1.49 2.90518 0.631377 0
M  V30 11 H -0.977 1.52953 0.210867 0
M  V30 12 H 0.981 2.67203 3.11629 0
M  V30 13 H -0.358 1.57376 2.7183 0
M  V30 14 H -1.165 3.90944 3.18086 0
M  V30 15 H -1.563 3.418 1.51819 0
M  V30 16 H 0.729 5.58782 3.83104 0
M  V30 17 H 1.672 6.56266 2.65933 0
M  V30 18 H 2.08 4.83886 2.90714 0
M  V30 19 N 1.4781 -0.272755 1.55222 0
M  V30 20 C 2.7061 -1.02255 1.79865 0
M  V30 21 C 3.1211 -1.79924 0.572088 0
M  V30 22 O 2.4781 -1.76638 -0.458842 0
M  V30 23 C 2.5291 -1.98094 3.02392 0
M  V30 24 O 2.2501 -1.23572 4.20311 0
M  V30 25 C 3.7511 -2.84884 3.39641 0
M  V30 26 H 0.9711 -0.302057 0.599168 0
M  V30 27 H 3.5151 -0.303465 2.02236 0
M  V30 28 H 1.6701 -2.65465 2.82147 0
M  V30 29 H 2.0841 -1.88172 4.89583 0
M  V30 30 H 3.5581 -3.47927 4.28545 0
M  V30 31 H 4.0351 -3.54665 2.59055 0
M  V30 32 H 4.6411 -2.23003 3.62146 0
M  V30 33 N 2.9562 -1.48159 -0.537278 0
M  V30 34 C 3.8662 -1.64807 -1.6696 0
M  V30 35 C 4.8822 -0.530651 -1.65711 0
M  V30 36 O 6.0582 -0.800784 -1.84796 0
M  V30 37 C 3.1232 -1.67708 -3.03438 0
M  V30 38 C 2.1842 -2.91025 -3.156 0
M  V30 39 C 1.4172 -2.93778 -4.45567 0
M  V30 40 O 1.6402 -2.05153 -5.3223 0
M  V30 41 O 0.5742 -3.85868 -4.61941 0
M  V30 42 H 4.4002 -2.6066 -1.55853 0
M  V30 43 H 1.9852 -1.31475 -0.709549 0
M  V30 44 H 3.8672 -1.7218 -3.84619 0
M  V30 45 H 2.5422 -0.750278 -3.14885 0
M  V30 46 H 1.4492 -2.92089 -2.33741 0
M  V30 47 H 2.7822 -3.83065 -3.09066 0
M  V30 48 N 4.4343 0.785586 -1.36625 0
M  V30 49 C 5.3663 1.90711 -1.2713 0
M  V30 50 C 6.3793 1.61688 -0.189986 0
M  V30 51 O 7.5683 1.72864 -0.445014 0
M  V30 52 C 4.6683 3.25611 -0.939713 0
M  V30 53 C 3.8413 3.82385 -2.12369 0
M  V30 54 C 2.9003 4.95732 -1.76456 0
M  V30 55 O 1.9263 5.12047 -2.48589 0
M  V30 56 N 3.1283 5.76258 -0.700492 0
M  V30 57 H 5.8933 1.99376 -2.23762 0
M  V30 58 H 3.4543 0.964041 -1.30069 0
M  V30 59 H 5.4463 3.98937 -0.680554 0
M  V30 60 H 4.0163 3.12538 -0.0624074 0
M  V30 61 H 3.2363 3.01001 -2.54543 0
M  V30 62 H 4.5243 4.17047 -2.9146 0
M  V30 63 H 3.9223 5.65609 -0.101624 0
M  V30 64 H 2.4793 6.4987 -0.501165 0
M  V30 65 N 5.9124 1.20967 1.01018 0
M  V30 66 C 6.8424 0.988272 2.11555 0
M  V30 67 C 7.8234 -0.0849778 1.69888 0
M  V30 68 O 9.0084 0.0738202 1.9406 0
M  V30 69 C 6.1384 0.546528 3.42973 0
M  V30 70 C 5.0924 1.56375 3.9841 0
M  V30 71 C 4.4184 0.97842 5.25672 0
M  V30 72 C 5.7184 2.94922 4.31066 0
M  V30 73 H 7.4124 1.91276 2.30334 0
M  V30 74 H 4.9584 0.921073 1.1069 0
M  V30 75 H 6.9114 0.378839 4.19694 0
M  V30 76 H 5.6354 -0.413598 3.23971 0
M  V30 77 H 4.2944 1.71891 3.23804 0
M  V30 78 H 3.9424 0.0101688 5.02999 0
M  V30 79 H 3.6424 1.65784 5.63728 0
M  V30 80 H 5.1664 0.821939 6.05043 0
M  V30 81 H 6.5804 2.8288 4.9865 0
M  V30 82 H 4.9774 3.5983 4.80253 0
M  V30 83 H 6.0474 3.4616 3.39561 0
M  V30 84 N 7.3905 -1.2043 1.01659 0
M  V30 85 C 8.3225 -2.22626 0.544988 0
M  V30 86 C 9.3355 -1.58479 -0.372609 0
M  V30 87 O 10.5245 -1.77679 -0.170958 0
M  V30 88 C 7.6245 -3.38141 -0.22663 0
M  V30 89 C 6.7975 -4.31877 0.692876 0
M  V30 90 C 5.8565 -5.26191 -0.0311616 0
M  V30 91 O 4.8825 -5.6612 0.591343 0
M  V30 92 N 6.0845 -5.65618 -1.30601 0
M  V30 93 H 8.8495 -2.63716 1.42388 0
M  V30 94 H 6.4105 -1.34971 0.894116 0
M  V30 95 H 8.4025 -3.98239 -0.72024 0
M  V30 96 H 6.9725 -2.95943 -1.00681 0
M  V30 97 H 6.1925 -3.69746 1.36679 0
M  V30 98 H 7.4805 -4.91426 1.31824 0
M  V30 99 H 6.8785 -5.3519 -1.83269 0
M  V30 100 H 5.4355 -6.28025 -1.74435 0
M  V30 101 N 8.8686 -0.792821 -1.36206 0
M  V30 102 C 9.8016 -0.139422 -2.27774 0
M  V30 103 C 10.7796 0.68649 -1.47398 0
M  V30 104 O 11.9636 0.656738 -1.7669 0
M  V30 105 C 9.0906 0.807947 -3.28922 0
M  V30 106 C 8.1366 0.0633999 -4.26453 0
M  V30 107 S 8.9696 -1.26319 -5.20388 0
M  V30 108 C 10.1256 -0.31991 -6.25082 0
M  V30 109 H 10.3586 -0.915809 -2.82843 0
M  V30 110 H 7.8916 -0.587203 -1.42798 0
M  V30 111 H 9.8496 1.34908 -3.87699 0
M  V30 112 H 8.5106 1.55761 -2.72759 0
M  V30 113 H 7.7036 0.782386 -4.9789 0
M  V30 114 H 7.3056 -0.407352 -3.71775 0
M  V30 115 H 9.5976 0.499985 -6.75653 0
M  V30 116 H 10.5406 -1.00307 -7.00959 0
M  V30 117 H 10.9486 0.0782694 -5.64446 0
M  V30 118 N 10.3467 1.47872 -0.545128 0
M  V30 119 C 11.5747 2.06889 -0.021084 0
M  V30 120 C 11.9897 1.39955 1.2672 0
M  V30 121 O 11.3467 0.492036 1.75742 0
M  V30 122 C 11.3977 3.60996 0.190817 0
M  V30 123 O 11.1187 4.25419 -1.04644 0
M  V30 124 C 12.6197 4.36849 0.753521 0
M  V30 125 H 9.8397 0.669785 -0.0403635 0
M  V30 126 H 12.3837 1.90049 -0.755095 0
M  V30 127 H 10.5387 3.77391 0.87492 0
M  V30 128 H 10.9527 5.17785 -0.836611 0
M  V30 129 H 12.4267 5.45399 0.851139 0
M  V30 130 H 12.9037 4.02306 1.762 0
M  V30 131 H 13.5097 4.25169 0.105503 0
M  V30 132 N 11.8248 0.280983 1.55075 0
M  V30 133 C 13.2408 -0.0729964 1.59433 0
M  V30 134 C 13.4408 -1.5411 1.29817 0
M  V30 135 O 12.4968 -2.29086 1.06187 0
M  V30 136 C 13.8098 0.306921 2.9913 0
M  V30 137 C 15.3578 0.254023 3.11968 0
M  V30 138 C 15.8328 0.608467 4.5394 0
M  V30 139 N 17.3238 0.560241 4.59799 0
M  V30 140 C 18.0588 0.80722 5.6769 0
M  V30 141 N 17.5548 1.11912 6.83701 0
M  V30 142 N 19.3478 0.735623 5.57266 0
M  V30 143 H 11.4988 1.238 1.7259 0
M  V30 144 H 13.7618 0.500547 0.805082 0
M  V30 145 H 13.4678 1.32816 3.25657 0
M  V30 146 H 13.3418 -0.349363 3.75579 0
M  V30 147 H 15.7288 -0.75794 2.852 0
M  V30 148 H 15.8098 0.944649 2.37718 0
M  V30 149 H 15.4538 1.61814 4.81434 0
M  V30 150 H 15.3838 -0.104013 5.26497 0
M  V30 151 H 17.8748 0.329288 3.76463 0
M  V30 152 H 18.1878 1.29409 7.61888 0
M  V30 153 H 16.5328 1.15695 6.85303 0
M  V30 154 H 19.7238 0.491752 4.6551 0
M  V30 155 H 19.8968 0.931482 6.4127 0
M  V30 156 N 13.3029 -1.57598 0.00835791 0
M  V30 157 C 14.7189 -1.55764 -0.347822 0
M  V30 158 C 14.9189 -1.01186 -1.74252 0
M  V30 159 O 13.9749 -0.649371 -2.44007 0
M  V30 160 C 15.2879 -2.99927 -0.215407 0
M  V30 161 C 16.8359 -3.11656 -0.289725 0
M  V30 162 C 17.3109 -4.57621 -0.18634 0
M  V30 163 N 18.8019 -4.62557 -0.243978 0
M  V30 164 C 19.5369 -5.73094 -0.18745 0
M  V30 165 N 19.0329 -6.92753 -0.0810331 0
M  V30 166 N 20.8259 -5.61588 -0.239925 0
M  V30 167 H 12.9769 -1.91411 0.92062 0
M  V30 168 H 15.2399 -0.879562 0.353659 0
M  V30 169 H 14.9459 -3.43729 0.744512 0
M  V30 170 H 14.8199 -3.63865 -0.994097 0
M  V30 171 H 17.2069 -2.67779 -1.24009 0
M  V30 172 H 17.2879 -2.5048 0.51898 0
M  V30 173 H 16.9319 -5.02174 0.760519 0
M  V30 174 H 16.8619 -5.16752 -1.01364 0
M  V30 175 H 19.3529 -3.76481 -0.327217 0
M  V30 176 H 19.6659 -7.72787 -0.0440241 0
M  V30 177 H 18.0109 -6.94984 -0.0465419 0
M  V30 178 H 21.2019 -4.66996 -0.321317 0
M  V30 179 H 21.3749 -6.47714 -0.192407 0
M  V30 180 N 14.781 0.264519 -1.55364 0
M  V30 181 C 16.009 1.013 -1.80405 0
M  V30 182 C 16.424 1.79618 -0.581622 0
M  V30 183 O 15.781 1.76879 0.449468 0
M  V30 184 C 15.832 1.96487 -3.03439 0
M  V30 185 O 15.553 1.21341 -4.20961 0
M  V30 186 C 17.054 2.83079 -3.41147 0
M  V30 187 H 14.274 0.298875 -0.600762 0
M  V30 188 H 16.818 0.292736 -2.02394 0
M  V30 189 H 14.973 2.63965 -2.83551 0
M  V30 190 H 15.387 1.85573 -4.90574 0
M  V30 191 H 16.861 3.4565 -4.30384 0
M  V30 192 H 17.338 3.53286 -2.60932 0
M  V30 193 H 17.944 2.2108 -3.63323 0
M  V30 194 N 16.2591 1.48442 0.529413 0
M  V30 195 C 17.1921 1.57577 1.65059 0
M  V30 196 C 18.1701 0.426198 1.56915 0
M  V30 197 O 19.3541 0.637877 1.77379 0
M  V30 198 C 16.4811 1.5043 3.03461 0
M  V30 199 C 15.5271 2.70235 3.29962 0
M  V30 200 S 16.3601 4.32198 3.16172 0
M  V30 201 C 17.5161 4.2765 4.57019 0
M  V30 202 H 17.7491 2.52427 1.5706 0
M  V30 203 H 15.2821 1.36982 0.712417 0
M  V30 204 H 17.2401 1.46992 3.8328 0
M  V30 205 H 15.9011 0.569167 3.089 0
M  V30 206 H 15.0941 2.61374 4.30929 0
M  V30 207 H 14.6961 2.70938 2.57815 0
M  V30 208 H 16.9881 3.97618 5.48549 0
M  V30 209 H 17.9311 5.28797 4.70934 0
M  V30 210 H 18.3391 3.5811 4.36368 0
M  V30 211 N 17.7372 -0.778329 1.37039 0
M  V30 212 C 18.6672 -1.90546 1.34962 0
M  V30 213 C 19.6482 -1.68681 0.219274 0
M  V30 214 O 20.8332 -1.89634 0.418624 0
M  V30 215 C 17.9632 -3.27734 1.14925 0
M  V30 216 C 16.9172 -3.64147 2.24902 0
M  V30 217 C 16.2432 -4.99806 1.89996 0
M  V30 218 C 17.5432 -3.71579 3.67051 0
M  V30 219 H 19.2372 -1.92541 2.29277 0
M  V30 220 H 16.7832 -0.924948 1.10366 0
M  V30 221 H 18.7362 -4.06215 1.12104 0
M  V30 222 H 17.4602 -3.26154 0.170631 0
M  V30 223 H 16.1192 -2.8797 2.26868 0
M  V30 224 H 15.7672 -4.94759 0.906796 0
M  V30 225 H 15.4672 -5.25139 2.63634 0
M  V30 226 H 16.9912 -5.80694 1.88749 0
M  V30 227 H 18.4052 -4.40227 3.67251 0
M  V30 228 H 16.8022 -4.08405 4.39688 0
M  V30 229 H 17.8722 -2.72404 4.01154 0
M  V30 230 N 19.2153 -1.21501 -1.00376 0
M  V30 231 C 20.1783 -0.976927 -2.07337 0
M  V30 232 C 21.1783 0.0525322 -1.60714 0
M  V30 233 O 22.3683 -0.184869 -1.73216 0
M  V30 234 C 19.5003 -0.473423 -3.37597 0
M  V30 235 H 20.6933 -1.92587 -2.29892 0
M  V30 236 H 18.2463 -1.03217 -1.17371 0
M  V30 237 H 18.9813 0.480379 -3.20722 0
M  V30 238 H 18.7663 -1.216 -3.72768 0
M  V30 239 H 20.2563 -0.32675 -4.1632 0
M  V30 240 N 20.6934 1.19889 -1.02296 0
M  V30 241 C 21.9414 1.89046 -0.714558 0
M  V30 242 C 22.2624 1.79636 0.758681 0
M  V30 243 O 21.5324 1.20292 1.54618 0
M  V30 244 H 20.1124 0.699802 -0.261317 0
M  V30 245 H 22.7744 1.45574 -1.29592 0
M  V30 246 H 21.8704 2.95524 -1.0036 0
M  V30 247 N 22.1715 0.800033 1.35784 0
M  V30 248 C 23.1345 0.211565 2.28221 0
M  V30 249 C 24.1345 -0.59728 1.49296 0
M  V30 250 O 25.3245 -0.416721 1.69142 0
M  V30 251 C 22.4565 -0.705846 3.33513 0
M  V30 252 H 23.6495 1.02677 2.81776 0
M  V30 253 H 21.2025 0.570211 1.45528 0
M  V30 254 H 21.9375 -1.54498 2.85133 0
M  V30 255 H 21.7225 -0.127655 3.91892 0
M  V30 256 H 23.2125 -1.11211 4.02519 0
M  V30 257 N 23.6496 -1.47581 0.552962 0
M  V30 258 C 24.6126 -2.28439 -0.186605 0
M  V30 259 C 25.6126 -1.36706 -0.84665 0
M  V30 260 O 26.8026 -1.59378 -0.703164 0
M  V30 261 C 23.9346 -3.16264 -1.2724 0
M  V30 262 H 25.1276 -2.95294 0.523609 0
M  V30 263 H 22.6806 -1.532 0.309745 0
M  V30 264 H 23.4156 -2.54091 -2.01514 0
M  V30 265 H 23.2006 -3.83769 -0.803968 0
M  V30 266 H 24.6906 -3.77198 -1.79196 0
M  V30 267 N 25.1277 -0.289203 -1.54924 0
M  V30 268 C 26.0577 0.58549 -2.2604 0
M  V30 269 C 27.0387 1.14753 -1.25562 0
M  V30 270 O 28.2237 1.17906 -1.54311 0
M  V30 271 C 25.3537 1.76305 -2.99222 0
M  V30 272 C 24.3077 1.33191 -4.06748 0
M  V30 273 C 23.6337 2.5937 -4.6758 0
M  V30 274 C 24.9337 0.471775 -5.20165 0
M  V30 275 H 26.6277 -0.00763532 -2.99399 0
M  V30 276 H 24.1737 -0.00511229 -1.43999 0
M  V30 277 H 26.1267 2.38097 -3.47689 0
M  V30 278 H 24.8507 2.38223 -2.23422 0
M  V30 279 H 23.5097 0.737121 -3.59113 0
M  V30 280 H 23.1577 3.19576 -3.88433 0
M  V30 281 H 22.8577 2.31228 -5.40192 0
M  V30 282 H 24.3817 3.21985 -5.18804 0
M  V30 283 H 25.7957 0.995056 -5.64599 0
M  V30 284 H 24.1927 0.284639 -5.99425 0
M  V30 285 H 25.2627 -0.506041 -4.82252 0
M  V30 286 N 26.6058 1.57591 -0.0167156 0
M  V30 287 C 27.5688 2.08393 0.954204 0
M  V30 288 C 28.5688 0.996531 1.26198 0
M  V30 289 O 29.7588 1.25858 1.20438 0
M  V30 290 C 26.8908 2.5394 2.27436 0
M  V30 291 H 28.0838 2.95455 0.514451 0
M  V30 292 H 25.6368 1.54582 0.231089 0
M  V30 293 H 26.3718 1.70171 2.76066 0
M  V30 294 H 26.1568 3.33371 2.06412 0
M  V30 295 H 27.6468 2.93512 2.97053 0
M  V30 296 N 28.0839 -0.256276 1.55502 0
M  V30 297 C 29.3319 -0.983672 1.76545 0
M  V30 298 C 29.6529 -1.86206 0.578982 0
M  V30 299 O 28.9229 -1.91656 -0.405577 0
M  V30 300 H 27.5029 -0.366191 0.651086 0
M  V30 301 H 30.1649 -0.276479 1.92929 0
M  V30 302 H 29.2609 -1.61087 2.67315 0
M  V30 303 N 29.562 -1.4872 -0.521534 0
M  V30 304 C 30.525 -1.63379 -1.60748 0
M  V30 305 C 31.525 -0.50661 -1.52611 0
M  V30 306 O 32.715 -0.772601 -1.5613 0
M  V30 307 C 29.847 -1.61192 -3.00383 0
M  V30 308 H 31.04 -2.60217 -1.49087 0
M  V30 309 H 28.593 -1.37444 -0.744235 0
M  V30 310 H 29.328 -0.65863 -3.17541 0
M  V30 311 H 29.113 -2.43032 -3.07698 0
M  V30 312 H 30.603 -1.7466 -3.7932 0
M  V30 313 N 31.0401 0.771051 -1.3745 0
M  V30 314 C 32.2861 1.5319 -1.32894 0
M  V30 315 C 32.6191 1.94008 0.0862511 0
M  V30 316 O 31.8941 1.64124 1.04373 0
M  V30 317 C 32.1771 2.79648 -2.26868 0
M  V30 318 C 32.0301 2.45079 -3.77169 0
M  V30 319 C 33.3491 3.81583 -2.19277 0
M  V30 320 H 30.4681 0.555744 -0.484064 0
M  V30 321 H 33.1101 0.884492 -1.68157 0
M  V30 322 H 31.2601 3.34891 -1.96926 0
M  V30 323 H 32.9321 1.95745 -4.1771 0
M  V30 324 H 31.1751 1.77767 -3.95704 0
M  V30 325 H 31.8461 3.35478 -4.38359 0
M  V30 326 H 34.3221 3.35835 -2.45671 0
M  V30 327 H 33.1981 4.67787 -2.87171 0
M  V30 328 H 33.4591 4.25897 -1.18592 0
M  V30 329 N 32.5182 1.22032 0.997298 0
M  V30 330 C 33.4812 0.987909 2.06816 0
M  V30 331 C 34.4812 -0.0440084 1.6074 0
M  V30 332 O 35.6712 0.194053 1.73116 0
M  V30 333 C 32.8032 0.49132 3.37341 0
M  V30 334 H 33.9962 1.93803 2.28868 0
M  V30 335 H 31.5492 1.03838 1.16822 0
M  V30 336 H 32.2842 -0.463364 3.20973 0
M  V30 337 H 32.0692 1.23575 3.72118 0
M  V30 338 H 33.5592 0.348824 4.16141 0
M  V30 339 N 33.9963 -1.19345 1.0293 0
M  V30 340 C 35.4073 -1.70725 0.755633 0
M  V30 341 C 35.7583 -1.82326 -0.724676 0
M  V30 342 O 34.8833 -1.49471 -1.56484 0
M  V30 343 C 35.4783 -3.10084 1.36503 0
M  V30 344 C 34.0373 -3.58723 1.13994 0
M  V30 345 C 33.1843 -2.35577 1.46283 0
M  V30 346 H 36.1353 -1.0418 1.19718 0
M  V30 347 H 36.1563 -3.72787 0.762217 0
M  V30 348 H 35.6683 -3.01609 2.44241 0
M  V30 349 H 33.7693 -3.72512 0.0807901 0
M  V30 350 H 33.8823 -4.42816 1.82894 0
M  V30 351 H 32.2463 -2.38935 0.88217 0
M  V30 352 H 33.0293 -2.29731 2.55105 0
M  V30 353 N 35.4744 -0.807222 -1.35358 0
M  V30 354 C 36.4044 -0.232509 -2.3234 0
M  V30 355 C 37.3854 0.642386 -1.57504 0
M  V30 356 O 38.5704 0.572526 -1.85569 0
M  V30 357 C 35.7004 0.619238 -3.41735 0
M  V30 358 C 34.6544 -0.157215 -4.27711 0
M  V30 359 C 33.9804 0.816273 -5.28433 0
M  V30 360 C 35.2804 -1.35656 -5.04376 0
M  V30 361 H 36.9744 -1.04276 -2.80654 0
M  V30 362 H 34.5204 -0.50288 -1.34934 0
M  V30 363 H 36.4734 1.03137 -4.08584 0
M  V30 364 H 35.1974 1.46239 -2.92031 0
M  V30 365 H 33.8564 -0.550525 -3.62443 0
M  V30 366 H 33.5044 1.65494 -4.74996 0
M  V30 367 H 33.2044 0.301067 -5.86828 0
M  V30 368 H 34.7284 1.22659 -5.98153 0
M  V30 369 H 36.1424 -1.01927 -5.64166 0
M  V30 370 H 34.5394 -1.8063 -5.7227 0
M  V30 371 H 35.6094 -2.14288 -4.34981 0
M  V30 372 N 36.9525 1.47285 -0.560781 0
M  V30 373 C 37.8825 2.32857 0.173105 0
M  V30 374 C 38.8635 1.44009 0.905281 0
M  V30 375 O 40.0485 1.7286 0.885046 0
M  V30 376 C 37.1785 3.25861 1.20133 0
M  V30 377 C 36.1325 4.23978 0.585388 0
M  V30 378 C 35.4585 5.06332 1.7185 0
M  V30 379 C 36.7585 5.20242 -0.463178 0
M  V30 380 H 38.4525 2.94466 -0.541307 0
M  V30 381 H 35.9985 1.41601 -0.261764 0
M  V30 382 H 37.9515 3.84569 1.72293 0
M  V30 383 H 36.6755 2.62315 1.94573 0
M  V30 384 H 35.3345 3.66501 0.085054 0
M  V30 385 H 34.9825 4.39186 2.45203 0
M  V30 386 H 34.6825 5.72762 1.31213 0
M  V30 387 H 36.2065 5.67899 2.24329 0
M  V30 388 H 37.6205 5.73293 -0.027502 0
M  V30 389 H 36.0175 5.94896 -0.788627 0
M  V30 390 H 37.0875 4.65504 -1.35773 0
M  V30 391 N 38.4306 0.297415 1.54768 0
M  V30 392 C 39.3806 -0.595275 2.20092 0
M  V30 393 C 40.3646 -1.10163 1.17273 0
M  V30 394 O 41.5566 -1.043 1.43006 0
M  V30 395 C 38.6856 -1.7684 2.94249 0
M  V30 396 C 37.7716 -1.27818 4.0438 0
M  V30 397 N 38.1626 -0.505695 5.03266 0
M  V30 398 C 36.4606 -1.55923 4.17857 0
M  V30 399 C 37.1616 -0.245094 5.81183 0
M  V30 400 N 36.1376 -0.823881 5.3732 0
M  V30 401 H 39.9396 0.00250837 2.939 0
M  V30 402 H 37.4536 0.102007 1.62079 0
M  V30 403 H 39.4506 -2.41944 3.39513 0
M  V30 404 H 38.1106 -2.36992 2.21957 0
M  V30 405 H 39.1216 -0.150928 5.1768 0
M  V30 406 H 35.7986 -2.16849 3.56767 0
M  V30 407 H 37.1886 0.375084 6.70852 0
M  V30 408 N 39.9087 -1.5758 0.0250728 0
M  V30 409 C 41.1367 -1.9593 -0.664747 0
M  V30 410 C 41.5517 -0.901352 -1.65895 0
M  V30 411 O 40.9087 0.117255 -1.82123 0
M  V30 412 C 40.9597 -3.34342 -1.37468 0
M  V30 413 O 40.6807 -4.36079 -0.420324 0
M  V30 414 C 42.1817 -3.873 -2.1567 0
M  V30 415 H 39.4017 -0.645405 -0.183557 0
M  V30 416 H 41.9457 -2.04329 0.0836372 0
M  V30 417 H 40.1007 -3.27175 -2.0745 0
M  V30 418 H 40.5147 -5.16297 -0.923991 0
M  V30 419 H 41.9887 -4.86504 -2.60803 0
M  V30 420 H 42.4657 -3.21331 -2.99405 0
M  V30 421 H 43.0717 -3.97723 -1.50654 0
M  V30 422 N 41.3868 0.248026 -1.55636 0
M  V30 423 C 42.3498 1.29044 -1.89421 0
M  V30 424 C 43.3498 1.41134 -0.770581 0
M  V30 425 O 44.5398 1.39854 -1.03858 0
M  V30 426 C 41.6718 2.66831 -2.12165 0
M  V30 427 H 42.8648 1.00305 -2.82629 0
M  V30 428 H 40.4178 0.487265 -1.48511 0
M  V30 429 H 41.1528 3.00711 -1.21422 0
M  V30 430 H 40.9378 2.59438 -2.93997 0
M  V30 431 H 42.4278 3.42103 -2.3949 0
M  V30 432 N 42.8649 1.48995 0.513639 0
M  V30 433 C 43.7969 1.60836 1.63293 0
M  V30 434 C 44.8099 0.491701 1.55197 0
M  V30 435 O 45.9989 0.763238 1.6136 0
M  V30 436 C 43.0989 1.53731 3.02027 0
M  V30 437 C 42.2719 2.80715 3.35437 0
M  V30 438 C 41.3309 2.66837 4.53525 0
M  V30 439 O 40.3569 3.40753 4.55934 0
M  V30 440 N 41.5589 1.77539 5.52684 0
M  V30 441 H 44.3239 2.57366 1.53566 0
M  V30 442 H 41.8849 1.45925 0.701259 0
M  V30 443 H 43.8769 1.42118 3.78926 0
M  V30 444 H 42.4469 0.651092 3.05744 0
M  V30 445 H 41.6669 3.06772 2.47557 0
M  V30 446 H 42.9549 3.64927 3.54551 0
M  V30 447 H 42.3529 1.16719 5.53528 0
M  V30 448 H 40.9099 1.71856 6.28736 0
M  V30 449 N 44.343 -0.763751 1.37857 0
M  V30 450 C 45.306 -1.85889 1.34081 0
M  V30 451 C 46.306 -1.58949 0.243277 0
M  V30 452 O 47.496 -1.66882 0.499589 0
M  V30 453 C 44.628 -3.23176 1.08489 0
M  V30 454 H 45.821 -1.90648 2.31502 0
M  V30 455 H 43.374 -0.964367 1.23003 0
M  V30 456 H 44.109 -3.24091 0.116318 0
M  V30 457 H 43.894 -3.44124 1.8794 0
M  V30 458 H 45.384 -4.03254 1.08517 0
M  V30 459 N 45.8211 -1.22559 -0.990812 0
M  V30 460 C 46.7711 -0.964807 -2.0658 0
M  V30 461 C 47.7551 0.0853472 -1.60673 0
M  V30 462 O 48.9471 -0.125443 -1.76555 0
M  V30 463 C 46.0761 -0.546707 -3.38919 0
M  V30 464 C 45.1621 -1.6317 -3.91454 0
M  V30 465 N 45.5531 -2.85985 -4.17189 0
M  V30 466 C 43.8511 -1.50387 -4.19881 0
M  V30 467 C 44.5521 -3.56159 -4.59919 0
M  V30 468 N 43.5281 -2.83637 -4.63736 0
M  V30 469 H 47.3301 -1.89769 -2.24421 0
M  V30 470 H 44.8441 -1.12343 -1.17273 0
M  V30 471 H 46.8411 -0.34119 -4.15502 0
M  V30 472 H 45.5011 0.379254 -3.22478 0
M  V30 473 H 46.5121 -3.22392 -4.05319 0
M  V30 474 H 43.1891 -0.644254 -4.12499 0
M  V30 475 H 44.5791 -4.6139 -4.88435 0
M  V30 476 N 47.2992 1.18797 -1.03562 0
M  V30 477 C 48.2622 2.20464 -0.626769 0
M  V30 478 C 49.2622 1.57721 0.313173 0
M  V30 479 O 50.4522 1.73917 0.0992615 0
M  V30 480 C 47.5842 3.40802 0.0818498 0
M  V30 481 H 48.7772 2.58149 -1.5264 0
M  V30 482 H 46.3302 1.32593 -0.827578 0
M  V30 483 H 47.0652 3.08642 0.995518 0
M  V30 484 H 46.8502 3.8758 -0.593652 0
M  V30 485 H 48.3402 4.16092 0.354584 0
M  V30 486 N 48.7773 0.814389 1.34928 0
M  V30 487 C 49.7403 0.235759 2.27984 0
M  V30 488 C 50.7403 -0.581412 1.49921 0
M  V30 489 O 51.9303 -0.398758 1.69575 0
M  V30 490 C 49.0623 -0.670433 3.34242 0
M  V30 491 H 50.2553 1.05659 2.80671 0
M  V30 492 H 47.8083 0.585614 1.44915 0
M  V30 493 H 48.5433 -1.51466 2.86755 0
M  V30 494 H 48.3283 -0.0860822 3.92005 0
M  V30 495 H 49.8183 -1.06935 4.03676 0
M  V30 496 N 50.2554 -1.46986 0.568584 0
M  V30 497 C 51.5034 -2.02041 0.0487022 0
M  V30 498 C 51.8244 -1.44408 -1.31039 0
M  V30 499 O 51.0944 -0.623477 -1.85714 0
M  V30 500 H 49.6744 -0.746849 0.015014 0
M  V30 501 H 52.3364 -1.80257 0.741168 0
M  V30 502 H 51.4324 -3.12085 -0.0308961 0
M  V30 503 N 51.7335 -0.305618 -1.54608 0
M  V30 504 C 52.6965 0.555591 -2.22364 0
M  V30 505 C 53.6965 1.05768 -1.21119 0
M  V30 506 O 54.8865 0.952972 -1.45822 0
M  V30 507 C 52.0185 1.76974 -2.91364 0
M  V30 508 H 53.2115 -0.0364572 -2.99878 0
M  V30 509 H 50.7645 -0.0565007 -1.56198 0
M  V30 510 H 51.4995 2.40151 -2.17941 0
M  V30 511 H 51.2845 1.41732 -3.65588 0
M  V30 512 H 52.7745 2.38148 -3.43038 0
M  V30 513 N 53.2116 1.57565 -0.0334293 0
M  V30 514 C 54.1746 2.09393 0.932048 0
M  V30 515 C 55.1746 1.00986 1.25134 0
M  V30 516 O 56.3646 1.27129 1.19096 0
M  V30 517 C 53.4966 2.56338 2.2473 0
M  V30 518 H 54.6896 2.95984 0.483085 0
M  V30 519 H 52.2426 1.54819 0.21468 0
M  V30 520 H 52.9776 1.7309 2.74245 0
M  V30 521 H 52.7626 3.35542 2.02865 0
M  V30 522 H 54.2526 2.96646 2.93923 0
M  V30 523 N 54.6897 -0.239769 1.55765 0
M  V30 524 C 55.6527 -1.28038 1.90103 0
M  V30 525 C 56.6527 -1.40723 0.778055 0
M  V30 526 O 57.8427 -1.39301 1.04599 0
M  V30 527 C 54.9747 -2.65702 2.13577 0
M  V30 528 H 56.1677 -0.988048 2.83157 0
M  V30 529 H 53.7207 -0.479382 1.48767 0
M  V30 530 H 54.4557 -3.00063 1.23015 0
M  V30 531 H 54.2407 -2.57875 2.95369 0
M  V30 532 H 55.7307 -3.40828 2.41301 0
M  V30 533 N 56.1678 -1.49265 -0.50573 0
M  V30 534 C 57.1308 -1.65075 -1.59006 0
M  V30 535 C 58.1308 -0.522768 -1.52065 0
M  V30 536 O 59.3208 -0.789117 -1.55302 0
M  V30 537 C 56.4528 -1.64369 -2.98656 0
M  V30 538 H 57.6458 -2.61784 -1.46319 0
M  V30 539 H 55.1988 -1.38226 -0.729616 0
M  V30 540 H 55.9338 -0.692272 -3.16825 0
M  V30 541 H 55.7188 -2.46282 -3.05103 0
M  V30 542 H 57.2088 -1.78674 -3.77446 0
M  V30 543 N 57.6459 0.756429 -1.3826 0
M  V30 544 C 58.6089 1.85176 -1.35065 0
M  V30 545 C 59.6089 1.58818 -0.251703 0
M  V30 546 O 60.7989 1.66615 -0.508433 0
M  V30 547 C 57.9309 3.22596 -1.10201 0
M  V30 548 H 59.1239 1.89417 -2.3251 0
M  V30 549 H 56.6769 0.95783 -1.23512 0
M  V30 550 H 57.4119 3.24025 -0.133504 0
M  V30 551 H 57.1969 3.43122 -1.89762 0
M  V30 552 H 58.6869 4.02673 -1.10654 0
M  V30 553 N 59.124 1.23083 0.984299 0
M  V30 554 C 60.372 1.05848 1.72165 0
M  V30 555 C 60.693 -0.406049 1.90726 0
M  V30 556 O 59.963 -1.29139 1.47309 0
M  V30 557 H 58.543 0.388685 0.637913 0
M  V30 558 H 61.205 1.54736 1.18503 0
M  V30 559 H 60.301 1.54327 2.71274 0
M  V30 560 N 60.6021 -1.18246 1.0419 0
M  V30 561 C 61.5651 -2.20128 0.638452 0
M  V30 562 C 62.5651 -1.57885 -0.304805 0
M  V30 563 O 63.7551 -1.73967 -0.0900369 0
M  V30 564 C 60.8871 -3.4084 -0.0637751 0
M  V30 565 H 62.0801 -2.57336 1.54007 0
M  V30 566 H 59.6331 -1.32152 0.834598 0
M  V30 567 H 60.3681 -3.09166 -0.979136 0
M  V30 568 H 60.1531 -3.8726 0.614198 0
M  V30 569 H 61.6431 -4.16274 -0.332512 0
M  V30 570 N 62.0802 -0.821533 -1.34494 0
M  V30 571 C 63.0432 -0.247847 -2.27856 0
M  V30 572 C 64.0432 0.573453 -1.50227 0
M  V30 573 O 65.2332 0.389759 -1.69784 0
M  V30 574 C 62.3652 0.652698 -3.34593 0
M  V30 575 H 63.5582 -1.07146 -2.80107 0
M  V30 576 H 61.1112 -0.593291 -1.44602 0
M  V30 577 H 61.8462 1.49943 -2.87555 0
M  V30 578 H 61.6312 0.065292 -3.92046 0
M  V30 579 H 63.1212 1.04793 -4.04238 0
M  V30 580 N 63.5583 1.46682 -0.576371 0
M  V30 581 C 64.9693 1.86112 -0.148091 0
M  V30 582 C 65.3203 1.48073 1.2872 0
M  V30 583 O 64.4453 0.892656 1.97131 0
M  V30 584 C 65.0403 3.37786 -0.261982 0
M  V30 585 C 63.5993 3.76235 0.111384 0
M  V30 586 C 62.7463 2.70713 -0.60083 0
M  V30 587 H 65.6973 1.37927 -0.78497 0
M  V30 588 H 65.7183 3.77007 0.514364 0
M  V30 589 H 65.2303 3.6544 -1.30671 0
M  V30 590 H 63.3313 3.54198 1.15649 0
M  V30 591 H 63.4443 4.78391 -0.26052 0
M  V30 592 H 61.8083 2.54666 -0.0417783 0
M  V30 593 H 62.5913 3.01208 -1.64708 0
M  V30 594 N 65.0364 0.313813 1.54444 0
M  V30 595 C 66.2824 -0.292108 2.00685 0
M  V30 596 C 66.6154 -1.52548 1.20177 0
M  V30 597 O 65.8904 -1.92452 0.281531 0
M  V30 598 C 66.1734 -0.635968 3.5444 0
M  V30 599 C 66.0264 0.607437 4.4568 0
M  V30 600 C 67.3454 -1.45747 4.15266 0
M  V30 601 H 64.4644 -0.104697 0.729526 0
M  V30 602 H 67.1064 0.428457 1.85106 0
M  V30 603 H 65.2564 -1.24986 3.67846 0
M  V30 604 H 66.9284 1.24581 4.44159 0
M  V30 605 H 65.1714 1.23822 4.15753 0
M  V30 606 H 65.8424 0.322515 5.51057 0
M  V30 607 H 68.3184 -0.938645 4.05375 0
M  V30 608 H 67.1944 -1.66683 5.2298 0
M  V30 609 H 67.4554 -2.45063 3.67963 0
M  V30 610 N 66.5145 -1.57545 0.0417849 0
M  V30 611 C 67.7915 -1.83642 -0.673433 0
M  V30 612 C 68.1715 -0.928298 -1.89594 0
M  V30 613 O 67.5195 0.0129955 -2.28496 0
M  V30 614 C 67.7295 -3.33155 -1.03964 0
M  V30 615 C 69.0775 -3.99941 -1.42592 0
M  V30 616 O 70.1015 -3.37725 -1.13226 0
M  V30 617 O 68.9605 -5.09619 -1.9736 0
M  V30 618 H 66.0545 -0.757638 -0.331533 0
M  V30 619 H 68.6005 -1.69554 0.070433 0
M  V30 620 H 67.3725 -3.9093 -0.170098 0
M  V30 621 H 66.9955 -3.52396 -1.84126 0
M  V30 622 N 67.9926 0.231505 -1.5589 0
M  V30 623 C 69.2416 0.955346 -1.7764 0
M  V30 624 C 69.5546 1.85893 -0.608546 0
M  V30 625 O 70.7606 2.62067 -0.70943 0
M  V30 626 C 69.2166 1.74886 -3.14552 0
M  V30 627 C 68.8246 0.891915 -4.39032 0
M  V30 628 C 70.5686 2.46452 -3.45633 0
M  V30 629 C 68.4756 1.68221 -5.66971 0
M  V30 630 H 67.4056 0.360446 -0.662265 0
M  V30 631 H 70.0566 0.209516 -1.823 0
M  V30 632 H 68.4386 2.53723 -3.04041 0
M  V30 633 H 69.6126 0.144793 -4.60572 0
M  V30 634 H 67.9276 0.288863 -4.15397 0
M  V30 635 H 70.5246 3.06061 -4.38441 0
M  V30 636 H 70.8676 3.18841 -2.67668 0
M  V30 637 H 71.4006 1.74613 -3.57428 0
M  V30 638 H 68.1396 1.00178 -6.478 0
M  V30 639 H 67.6596 2.4042 -5.49507 0
M  V30 640 H 69.3386 2.24544 -6.06786 0
M  V30 641 N 69.4707 1.49531 0.497807 0
M  V30 642 C 70.6957 1.63159 1.28039 0
M  V30 643 C 71.1207 0.30418 1.85624 0
M  V30 644 O 70.4787 -0.728618 1.66015 0
M  V30 645 C 70.5267 2.70537 2.38416 0
M  V30 646 O 69.6307 2.29931 3.42353 0
M  V30 647 H 68.9717 0.546001 0.377861 0
M  V30 648 H 71.5017 1.9574 0.59558 0
M  V30 649 H 71.5117 2.92802 2.84132 0
M  V30 650 H 70.1867 3.6689 1.95869 0
M  V30 651 H 68.7637 2.18009 3.02533 0
M  V30 652 N 70.9488 -0.749086 1.3866 0
M  V30 653 C 72.1768 -1.53834 1.38358 0
M  V30 654 C 72.5918 -1.88783 -0.0255219 0
M  V30 655 O 71.9488 -1.53101 -0.993292 0
M  V30 656 C 71.9998 -2.83468 2.2434 0
M  V30 657 O 71.7208 -2.50008 3.5976 0
M  V30 658 C 73.2218 -3.7758 2.32267 0
M  V30 659 H 70.4418 -0.47585 0.473083 0
M  V30 660 H 72.9858 -0.926726 1.82297 0
M  V30 661 H 71.1408 -3.40995 1.83851 0
M  V30 662 H 71.5548 -3.33182 4.05081 0
M  V30 663 H 73.0288 -4.65478 2.96706 0
M  V30 664 H 73.5058 -4.18334 1.33765 0
M  V30 665 H 74.1118 -3.25976 2.73166 0
M  V30 666 N 72.4269 -1.23603 -0.977757 0
M  V30 667 C 73.3569 -1.04401 -2.0886 0
M  V30 668 C 74.3379 0.0399052 -1.70053 0
M  V30 669 O 75.5229 -0.125246 -1.93796 0
M  V30 670 C 72.6529 -0.637269 -3.41403 0
M  V30 671 C 71.6069 -1.66883 -3.94124 0
M  V30 672 C 70.9329 -1.11745 -5.22893 0
M  V30 673 C 72.2329 -3.06247 -4.23096 0
M  V30 674 H 73.9269 -1.97316 -2.25182 0
M  V30 675 H 71.4729 -0.950096 -1.08209 0
M  V30 676 H 73.4259 -0.48998 -4.18542 0
M  V30 677 H 72.1499 0.327557 -3.24953 0
M  V30 678 H 70.8089 -1.80416 -3.19133 0
M  V30 679 H 70.4569 -0.143527 -5.02795 0
M  V30 680 H 70.1569 -1.80672 -5.59134 0
M  V30 681 H 71.6809 -0.982067 -6.02651 0
M  V30 682 H 73.0949 -2.96001 -4.90975 0
M  V30 683 H 71.4919 -3.72436 -4.70544 0
M  V30 684 H 72.5619 -3.55041 -3.30263 0
M  V30 685 N 73.905 1.17692 -1.04816 0
M  V30 686 C 75.316 1.69501 -0.782698 0
M  V30 687 C 75.667 1.83456 0.695577 0
M  V30 688 O 74.792 1.51942 1.54086 0
M  V30 689 C 75.387 3.07874 -1.41419 0
M  V30 690 C 73.946 3.56864 -1.19686 0
M  V30 691 C 73.093 2.3322 -1.50012 0
M  V30 692 H 76.044 1.02262 -1.2136 0
M  V30 693 H 76.065 3.71528 -0.821428 0
M  V30 694 H 75.577 2.97685 -2.49009 0
M  V30 695 H 73.678 3.72337 -0.140043 0
M  V30 696 H 73.791 4.39851 -1.89916 0
M  V30 697 H 72.155 2.37501 -0.920071 0
M  V30 698 H 72.938 2.25644 -2.58727 0
M  V30 699 N 75.3831 0.828654 1.34056 0
M  V30 700 C 76.7991 0.515135 1.51058 0
M  V30 701 C 76.9991 -0.959581 1.77184 0
M  V30 702 O 76.0551 -1.74382 1.82612 0
M  V30 703 C 77.3681 1.37963 2.67183 0
M  V30 704 C 78.9161 1.37735 2.81066 0
M  V30 705 C 79.3911 2.22645 4.00241 0
M  V30 706 N 80.8821 2.203 4.07458 0
M  V30 707 C 81.6171 2.82744 4.98842 0
M  V30 708 N 81.1131 3.54201 5.9541 0
M  V30 709 N 82.9061 2.72268 4.91759 0
M  V30 710 H 75.0571 1.78343 1.15358 0
M  V30 711 H 77.3201 0.760304 0.566252 0
M  V30 712 H 77.0261 2.42714 2.54525 0
M  V30 713 H 76.9001 1.0484 3.62338 0
M  V30 714 H 79.2871 0.337593 2.93163 0
M  V30 715 H 79.3681 1.74859 1.86703 0
M  V30 716 H 79.0121 3.26674 3.88905 0
M  V30 717 H 78.9421 1.82869 4.93829 0
M  V30 718 H 81.4331 1.68327 3.38341 0
M  V30 719 H 81.7461 3.9908 6.61782 0
M  V30 720 H 80.0911 3.58308 5.95517 0
M  V30 721 H 83.2821 2.16014 4.15278 0
M  V30 722 H 83.4551 3.21219 5.62781 0
M  V30 723 N 76.8612 -1.46375 0.584142 0
M  V30 724 C 78.1072 -2.02678 0.0703716 0
M  V30 725 C 78.4402 -1.4545 -1.28678 0
M  V30 726 O 77.7152 -0.62014 -1.84349 0
M  V30 727 C 77.9982 -3.60099 0.00614674 0
M  V30 728 C 77.8512 -4.27709 1.3923 0
M  V30 729 C 79.1702 -4.34598 -0.693742 0
M  V30 730 H 76.2892 -0.736504 0.027047 0
M  V30 731 H 78.9312 -1.74501 0.751615 0
M  V30 732 H 77.0812 -3.84236 -0.574009 0
M  V30 733 H 78.7532 -4.14832 2.01773 0
M  V30 734 H 76.9962 -3.87016 1.95962 0
M  V30 735 H 77.6672 -5.36478 1.29982 0
M  V30 736 H 80.1432 -4.15615 -0.200869 0
M  V30 737 H 79.0192 -5.44318 -0.707714 0
M  V30 738 H 79.2802 -4.05759 -1.75533 0
M  V30 739 N 78.3393 -0.321999 -1.54275 0
M  V30 740 C 79.2863 0.544664 -2.24281 0
M  V30 741 C 80.2563 1.1129 -1.23303 0
M  V30 742 O 81.4413 1.15354 -1.51981 0
M  V30 743 C 78.5813 1.70045 -3.00298 0
M  V30 744 C 77.6943 1.16159 -4.1609 0
M  V30 745 C 76.8293 2.28293 -4.79641 0
M  V30 746 C 75.8683 1.71648 -5.8754 0
M  V30 747 N 75.0053 2.77438 -6.44959 0
M  V30 748 H 79.8453 -0.0588907 -2.97942 0
M  V30 749 H 77.3823 -0.0408345 -1.47043 0
M  V30 750 H 79.3403 2.38054 -3.42616 0
M  V30 751 H 77.9703 2.27531 -2.28975 0
M  V30 752 H 77.0223 0.373092 -3.78566 0
M  V30 753 H 78.3343 0.707087 -4.93763 0
M  V30 754 H 77.4883 3.0421 -5.2492 0
M  V30 755 H 76.2273 2.77079 -4.01346 0
M  V30 756 H 75.2323 0.942282 -5.41665 0
M  V30 757 H 76.4573 1.23741 -6.67731 0
M  V30 758 H 74.4033 3.25519 -5.69538 0
M  V30 759 H 74.3203 2.36547 -7.1804 0
M  V30 760 H 75.5883 3.53189 -6.94894 0
M  V30 761 N 79.8174 1.5752 -0.0501392 0
M  V30 762 C 81.0634 1.92936 0.624798 0
M  V30 763 C 81.3964 0.928685 1.70555 0
M  V30 764 O 80.6714 -0.0454779 1.94447 0
M  V30 765 C 80.9544 3.38737 1.22185 0
M  V30 766 C 80.8074 4.49552 0.149218 0
M  V30 767 C 82.1264 3.84913 2.13378 0
M  V30 768 H 79.2454 0.701604 0.225657 0
M  V30 769 H 81.8874 1.89671 -0.111693 0
M  V30 770 H 80.0374 3.4165 1.84953 0
M  V30 771 H 81.7094 4.58768 -0.482648 0
M  V30 772 H 79.9524 4.30638 -0.522841 0
M  V30 773 H 80.6234 5.48653 0.606966 0
M  V30 774 H 83.0994 3.8387 1.60572 0
M  V30 775 H 81.9754 4.87584 2.52097 0
M  V30 776 H 82.2364 3.21611 3.03346 0
M  V30 777 N 81.2955 -0.223234 1.56011 0
M  V30 778 C 82.5725 -0.972108 1.69733 0
M  V30 779 C 82.9525 -2.02485 0.59691 0
M  V30 780 O 82.3005 -2.25037 -0.396324 0
M  V30 781 C 82.5105 -1.58407 3.10979 0
M  V30 782 C 83.8585 -2.07696 3.70334 0
M  V30 783 O 84.8825 -1.68304 3.1393 0
M  V30 784 O 83.7415 -2.80096 4.69264 0
M  V30 785 H 80.8355 -0.453993 0.691245 0
M  V30 786 H 83.3815 -0.215149 1.68331 0
M  V30 787 H 82.1535 -0.823831 3.82529 0
M  V30 788 H 81.7765 -2.40661 3.16493 0
M  V30 789 N 82.7736 -1.49793 -0.48987 0
M  V30 790 C 83.7036 -1.70201 -1.59856 0
M  V30 791 C 84.6846 -0.55076 -1.60937 0
M  V30 792 O 85.8696 -0.787841 -1.77501 0
M  V30 793 C 82.9996 -1.77882 -2.98287 0
M  V30 794 C 81.9536 -2.92907 -3.12073 0
M  V30 795 C 81.2796 -2.85712 -4.51965 0
M  V30 796 C 82.5796 -4.3369 -2.91051 0
M  V30 797 H 84.2736 -2.63025 -1.43032 0
M  V30 798 H 81.8196 -1.26574 -0.686664 0
M  V30 799 H 83.7726 -1.90744 -3.75759 0
M  V30 800 H 82.4966 -0.816653 -3.16225 0
M  V30 801 H 81.1556 -2.79665 -2.37029 0
M  V30 802 H 80.8036 -1.8738 -4.66795 0
M  V30 803 H 80.5036 -3.62921 -4.62128 0
M  V30 804 H 82.0276 -3.00598 -5.31482 0
M  V30 805 H 83.4416 -4.47555 -3.58284 0
M  V30 806 H 81.8386 -5.12205 -3.12675 0
M  V30 807 H 82.9086 -4.47362 -1.87071 0
M  V30 808 N 84.2517 0.741722 -1.39055 0
M  V30 809 C 85.4977 1.50336 -1.36113 0
M  V30 810 C 85.8307 1.94148 0.0450796 0
M  V30 811 O 85.1057 1.66301 1.00868 0
M  V30 812 C 85.3887 2.74773 -2.32749 0
M  V30 813 C 85.2417 2.37023 -3.82283 0
M  V30 814 C 86.5607 3.76846 -2.27322 0
M  V30 815 H 83.6797 0.545351 -0.495743 0
M  V30 816 H 86.3217 0.848624 -1.69995 0
M  V30 817 H 84.4717 3.30639 -2.03986 0
M  V30 818 H 86.1437 1.8684 -4.21768 0
M  V30 819 H 84.3867 1.69334 -3.99385 0
M  V30 820 H 85.0577 3.26104 -4.45376 0
M  V30 821 H 87.5337 3.30548 -2.5274 0
M  V30 822 H 86.4097 4.6159 -2.97028 0
M  V30 823 H 86.6707 4.23286 -1.27599 0
M  V30 824 N 85.7298 1.2412 0.971189 0
M  V30 825 C 86.6768 1.0305 2.06517 0
M  V30 826 C 87.6468 -0.0550666 1.66009 0
M  V30 827 O 88.8318 0.0988688 1.90544 0
M  V30 828 C 85.9718 0.637653 3.39158 0
M  V30 829 C 85.0848 1.79633 3.92882 0
M  V30 830 C 84.2198 1.34939 5.13775 0
M  V30 831 C 83.2588 2.47823 5.59687 0
M  V30 832 N 82.3958 2.04022 6.71803 0
M  V30 833 H 87.2358 1.96685 2.23873 0
M  V30 834 H 84.7728 0.979694 1.09729 0
M  V30 835 H 86.7308 0.390931 4.15364 0
M  V30 836 H 85.3608 -0.261693 3.21737 0
M  V30 837 H 84.4128 2.15681 3.13346 0
M  V30 838 H 85.7248 2.64466 4.22918 0
M  V30 839 H 84.8788 1.06134 5.97345 0
M  V30 840 H 83.6178 0.471557 4.85415 0
M  V30 841 H 82.6228 2.77392 4.74693 0
M  V30 842 H 83.8478 3.36158 5.90063 0
M  V30 843 H 81.7938 1.18632 6.45184 0
M  V30 844 H 81.7108 2.82409 7.01271 0
M  V30 845 H 82.9788 1.78347 7.58823 0
M  V30 846 N 87.2079 -1.17134 1.05439 0
M  V30 847 C 88.6189 -1.69084 0.791676 0
M  V30 848 C 88.9699 -1.83822 -0.685839 0
M  V30 849 O 88.0949 -1.52757 -1.53278 0
M  V30 850 C 88.6899 -3.07119 1.4305 0
M  V30 851 C 87.2489 -3.56225 1.21577 0
M  V30 852 C 86.3959 -2.32421 1.51247 0
M  V30 853 H 89.3469 -1.01617 1.219 0
M  V30 854 H 89.3679 -3.71087 0.84112 0
M  V30 855 H 88.8799 -2.9636 2.50584 0
M  V30 856 H 86.9809 -3.72257 0.159787 0
M  V30 857 H 87.0939 -4.38837 1.92246 0
M  V30 858 H 85.4579 -2.3701 0.932653 0
M  V30 859 H 86.2409 -2.24268 2.5992 0
M  V30 860 N 88.686 -0.835752 -1.33615 0
M  V30 861 C 90.097 -0.487099 -1.80234 0
M  V30 862 C 90.448 0.993627 -1.69179 0
M  V30 863 O 89.573 1.77403 -1.23924 0
M  V30 864 C 90.168 -0.877385 -3.27242 0
M  V30 865 C 88.727 -0.580915 -3.7189 0
M  V30 866 C 87.874 -1.0874 -2.5509 0
M  V30 867 H 90.825 -1.02474 -1.2118 0
M  V30 868 H 90.846 -0.186195 -3.80044 0
M  V30 869 H 90.358 -1.95512 -3.35256 0
M  V30 870 H 88.459 0.486881 -3.69405 0
M  V30 871 H 88.572 -1.13396 -4.65487 0
M  V30 872 H 86.936 -0.508392 -2.49575 0
M  V30 873 H 87.719 -2.17184 -2.65868 0
M  V30 874 N 90.1641 1.46063 -0.591896 0
M  V30 875 C 91.4111 2.02338 -0.0809991 0
M  V30 876 C 91.7391 1.46228 1.28249 0
M  V30 877 O 90.9941 0.620818 1.85592 0
M  V30 878 C 91.2931 3.57391 0.0249813 0
M  V30 879 C 90.9591 4.32583 -1.27211 0
M  V30 880 C 89.6211 4.52844 -1.62745 0
M  V30 881 C 91.9731 4.75687 -2.13005 0
M  V30 882 C 89.3011 5.13462 -2.83855 0
M  V30 883 C 91.6531 5.37644 -3.3335 0
M  V30 884 C 90.3171 5.5613 -3.69155 0
M  V30 885 H 89.5871 0.740407 -0.0296397 0
M  V30 886 H 92.2341 1.75321 -0.770374 0
M  V30 887 H 90.5391 3.83597 0.797537 0
M  V30 888 H 92.2361 3.98621 0.436184 0
M  V30 889 H 88.8261 4.17116 -0.985499 0
M  V30 890 H 93.0101 4.59782 -1.86855 0
M  V30 891 H 88.2661 5.25965 -3.11722 0
M  V30 892 H 92.4401 5.7 -4.00092 0
M  V30 893 H 90.0671 6.0287 -4.63089 0
M  V30 894 N 91.6422 0.330177 1.54103 0
M  V30 895 C 92.8882 -0.270806 2.00984 0
M  V30 896 C 93.2212 -1.51265 1.21789 0
M  V30 897 O 92.4962 -1.92142 0.301927 0
M  V30 898 C 92.7792 -0.598339 3.55094 0
M  V30 899 C 92.6322 0.654674 4.4501 0
M  V30 900 C 93.9512 -1.41334 4.16789 0
M  V30 901 H 91.0702 -0.0969531 0.730595 0
M  V30 902 H 93.7122 0.448066 1.84641 0
M  V30 903 H 91.8622 -1.21078 3.69151 0
M  V30 904 H 93.5342 1.29285 4.42813 0
M  V30 905 H 91.7772 1.28224 4.14416 0
M  V30 906 H 92.4482 0.380944 5.50684 0
M  V30 907 H 94.9242 -0.895597 4.06347 0
M  V30 908 H 93.8002 -1.61127 5.24718 0
M  V30 909 H 94.0612 -2.41146 3.70541 0
M  V30 910 N 93.1203 -1.57491 0.0584922 0
M  V30 911 C 94.0703 -2.08474 -0.923188 0
M  V30 912 C 95.0543 -0.991479 -1.26722 0
M  V30 913 O 96.2463 -1.25473 -1.24842 0
M  V30 914 C 93.3753 -2.6392 -2.19548 0
M  V30 915 C 92.4613 -3.80227 -1.87852 0
M  V30 916 N 92.8523 -4.89714 -1.26546 0
M  V30 917 C 91.1503 -3.89271 -2.17679 0
M  V30 918 C 91.8513 -5.70689 -1.12644 0
M  V30 919 N 90.8273 -5.18531 -1.63176 0
M  V30 920 H 94.6293 -2.90517 -0.444653 0
M  V30 921 H 92.1433 -1.61745 -0.145764 0
M  V30 922 H 94.1403 -2.98752 -2.9078 0
M  V30 923 H 92.8003 -1.83318 -2.68001 0
M  V30 924 H 93.8113 -5.09358 -0.936757 0
M  V30 925 H 90.4883 -3.19623 -2.68602 0
M  V30 926 H 91.8783 -6.6875 -0.6499 0
M  V30 927 N 94.5984 0.214957 -1.56127 0
M  V30 928 C 95.5614 1.24997 -1.92116 0
M  V30 929 C 96.5614 1.39467 -0.800344 0
M  V30 930 O 97.7514 1.37619 -1.06802 0
M  V30 931 C 94.8834 2.62271 -2.17777 0
M  V30 932 H 96.0764 0.942875 -2.84693 0
M  V30 933 H 93.6294 0.455654 -1.49511 0
M  V30 934 H 94.3644 2.98068 -1.27773 0
M  V30 935 H 94.1494 2.53143 -2.99434 0
M  V30 936 H 95.6394 3.36946 -2.46693 0
M  V30 937 N 96.0765 1.50051 0.48192 0
M  V30 938 C 97.0265 1.64512 1.5786 0
M  V30 939 C 98.0105 0.500073 1.52932 0
M  V30 940 O 99.2025 0.753964 1.60139 0
M  V30 941 C 96.3315 1.73263 2.9637 0
M  V30 942 C 95.4175 2.93409 3.06222 0
M  V30 943 N 95.8085 4.17236 2.85915 0
M  V30 944 C 94.1065 2.91742 3.37346 0
M  V30 945 C 94.8075 4.981 3.00451 0
M  V30 946 N 93.7835 4.3184 3.30174 0
M  V30 947 H 97.5855 2.57955 1.40842 0
M  V30 948 H 95.0995 1.47086 0.688439 0
M  V30 949 H 97.0965 1.81724 3.75209 0
M  V30 950 H 95.7565 0.809711 3.14442 0
M  V30 951 H 96.7675 4.46909 2.6171 0
M  V30 952 H 93.4445 2.08907 3.61475 0
M  V30 953 H 94.8345 6.06532 2.89082 0
M  V30 954 N 97.5546 -0.734337 1.39446 0
M  V30 955 C 98.8316 -1.48579 1.27215 0
M  V30 956 C 99.2116 -2.1077 -0.117968 0
M  V30 957 O 98.5596 -1.98646 -1.12924 0
M  V30 958 C 98.7696 -2.53667 2.39696 0
M  V30 959 C 100.118 -3.20031 2.79044 0
M  V30 960 O 101.142 -2.6398 2.39151 0
M  V30 961 O 100.001 -4.21455 3.47905 0
M  V30 962 H 97.0946 -0.659816 0.49857 0
M  V30 963 H 99.6406 -0.768106 1.51322 0
M  V30 964 H 98.4126 -2.06096 3.32626 0
M  V30 965 H 98.0356 -3.32994 2.17258 0
M  V30 966 N 99.0327 -1.24633 -0.964593 0
M  V30 967 C 99.9647 -0.999302 -2.06268 0
M  V30 968 C 100.978 0.0323226 -1.62768 0
M  V30 969 O 102.167 -0.205079 -1.77318 0
M  V30 970 C 99.2667 -0.486816 -3.35385 0
M  V30 971 C 98.4397 -1.5823 -4.07777 0
M  V30 972 C 97.4987 -1.07191 -5.15166 0
M  V30 973 O 96.5247 -1.76426 -5.41168 0
M  V30 974 N 97.7267 0.0920373 -5.80427 0
M  V30 975 H 100.492 -1.94477 -2.28033 0
M  V30 976 H 98.0527 -1.15704 -1.13244 0
M  V30 977 H 100.045 -0.130066 -4.04491 0
M  V30 978 H 98.6147 0.364459 -3.10468 0
M  V30 979 H 97.8347 -2.11109 -3.32906 0
M  V30 980 H 99.1227 -2.31854 -4.52903 0
M  V30 981 H 98.5207 0.670784 -5.61709 0
M  V30 982 H 97.0777 0.389905 -6.50633 0
M  V30 983 N 100.511 1.16574 -1.06058 0
M  V30 984 C 101.757 1.87324 -0.777022 0
M  V30 985 C 102.09 1.81351 0.694645 0
M  V30 986 O 101.365 1.22753 1.50871 0
M  V30 987 C 101.648 3.36991 -1.26922 0
M  V30 988 C 101.501 3.51667 -2.80447 0
M  V30 989 C 102.82 4.3131 -0.87521 0
M  V30 990 H 99.9388 0.680191 -0.28374 0
M  V30 991 H 102.581 1.37036 -1.3161 0
M  V30 992 H 100.731 3.79949 -0.81063 0
M  V30 993 H 102.403 3.17664 -3.34495 0
M  V30 994 H 100.646 2.93656 -3.19294 0
M  V30 995 H 101.317 4.56766 -3.0995 0
M  V30 996 H 103.793 3.9624 -1.27014 0
M  V30 997 H 102.669 5.34545 -1.2471 0
M  V30 998 H 102.93 4.41552 0.220071 0
M  V30 999 N 101.989 0.842826 1.3317 0
M  V30 1000 C 102.952 0.284065 2.27433 0
M  V30 1001 C 103.952 -0.54948 1.5112 0
M  V30 1002 O 105.142 -0.362699 1.70382 0
M  V30 1003 C 102.274 -0.599384 3.35589 0
M  V30 1004 H 103.467 1.11589 2.78366 0
M  V30 1005 H 101.02 0.616221 1.4364 0
M  V30 1006 H 101.755 -1.45349 2.89904 0
M  V30 1007 H 101.54 -0.00291266 3.921 0
M  V30 1008 H 103.03 -0.983488 4.05854 0
M  V30 1009 N 103.467 -1.45747 0.599634 0
M  V30 1010 C 104.414 -2.30467 -0.123849 0
M  V30 1011 C 105.384 -1.41632 -0.86774 0
M  V30 1012 O 106.569 -1.70568 -0.855056 0
M  V30 1013 C 103.709 -3.26402 -1.12051 0
M  V30 1014 C 102.822 -4.3034 -0.37832 0
M  V30 1015 C 101.957 -5.13389 -1.364 0
M  V30 1016 C 100.996 -6.09061 -0.609171 0
M  V30 1017 N 100.133 -6.84918 -1.54374 0
M  V30 1018 H 104.973 -2.91802 0.604627 0
M  V30 1019 H 102.51 -1.43797 0.309972 0
M  V30 1020 H 104.468 -3.80482 -1.7114 0
M  V30 1021 H 103.098 -2.66839 -1.8165 0
M  V30 1022 H 102.15 -3.78984 0.327929 0
M  V30 1023 H 103.462 -4.98354 0.210997 0
M  V30 1024 H 102.616 -5.7183 -2.02719 0
M  V30 1025 H 101.355 -4.45376 -1.98725 0
M  V30 1026 H 100.36 -5.49758 0.0676979 0
M  V30 1027 H 101.585 -6.79099 0.00891991 0
M  V30 1028 H 99.531 -6.19601 -2.15478 0
M  V30 1029 H 99.448 -7.49254 -1.00766 0
M  V30 1030 H 100.716 -7.47906 -2.19676 0
M  V30 1031 N 104.945 -0.338344 -1.53925 0
M  V30 1032 C 106.173 0.261298 -2.05243 0
M  V30 1033 C 106.588 1.44625 -1.21363 0
M  V30 1034 O 105.945 1.80811 -0.247736 0
M  V30 1035 C 105.996 0.681412 -3.5502 0
M  V30 1036 O 105.717 -0.456414 -4.35716 0
M  V30 1037 C 107.218 1.34232 -4.22489 0
M  V30 1038 H 104.438 0.0513685 -0.669031 0
M  V30 1039 H 106.982 -0.488822 -1.98572 0
M  V30 1040 H 105.137 1.38148 -3.61931 0
M  V30 1041 H 105.551 -0.122564 -5.24357 0
M  V30 1042 H 107.025 1.58708 -5.28693 0
M  V30 1043 H 107.502 2.29426 -3.74514 0
M  V30 1044 H 108.108 0.684424 -4.19757 0
M  V30 1045 N 106.423 1.57458 -0.0668435 0
M  V30 1046 C 107.671 1.92919 0.602214 0
M  V30 1047 C 107.992 0.947215 1.70449 0
M  V30 1048 O 107.262 -0.00544117 1.95899 0
M  V30 1049 H 105.842 0.71217 0.22544 0
M  V30 1050 H 108.504 1.94508 -0.123535 0
M  V30 1051 H 107.6 2.94589 1.03073 0
M  V30 1052 N 107.901 -0.206675 1.56239 0
M  V30 1053 C 109.312 -0.772383 1.69974 0
M  V30 1054 C 109.663 -1.84353 0.671436 0
M  V30 1055 O 108.788 -2.15695 -0.174491 0
M  V30 1056 C 109.383 -1.40779 3.08167 0
M  V30 1057 C 107.942 -1.92072 3.23706 0
M  V30 1058 C 107.089 -0.786347 2.65917 0
M  V30 1059 H 110.04 0.0182223 1.5869 0
M  V30 1060 H 110.061 -2.27696 3.04852 0
M  V30 1061 H 109.573 -0.627958 3.82986 0
M  V30 1062 H 107.674 -2.7281 2.53782 0
M  V30 1063 H 107.787 -2.09046 4.31087 0
M  V30 1064 H 106.151 -1.1976 2.24788 0
M  V30 1065 H 106.934 -0.0189416 3.43295 0
M  V30 1066 N 109.379 -1.50304 -0.473955 0
M  V30 1067 C 110.795 -1.37667 -0.807466 0
M  V30 1068 C 110.995 -0.430555 -1.96846 0
M  V30 1069 O 110.051 0.127874 -2.52176 0
M  V30 1070 C 111.364 -2.78974 -1.12223 0
M  V30 1071 C 112.912 -2.87868 -1.22885 0
M  V30 1072 C 113.387 -4.30003 -1.57676 0
M  V30 1073 N 114.878 -4.3294 -1.64673 0
M  V30 1074 C 115.613 -5.3991 -1.93091 0
M  V30 1075 N 115.109 -6.57092 -2.1955 0
M  V30 1076 N 116.902 -5.27351 -1.94569 0
M  V30 1077 H 109.053 -2.10394 0.291212 0
M  V30 1078 H 111.316 -0.945575 0.0677609 0
M  V30 1079 H 111.022 -3.50031 -0.342229 0
M  V30 1080 H 110.896 -3.16038 -2.05913 0
M  V30 1081 H 113.283 -2.17032 -1.99953 0
M  V30 1082 H 113.364 -2.54352 -0.271814 0
M  V30 1083 H 113.008 -5.01375 -0.81149 0
M  V30 1084 H 112.938 -4.61004 -2.54525 0
M  V30 1085 H 115.429 -3.48441 -1.46277 0
M  V30 1086 H 115.742 -7.34425 -2.405 0
M  V30 1087 H 114.087 -6.60272 -2.16948 0
M  V30 1088 H 117.278 -4.34801 -1.73394 0
M  V30 1089 H 117.451 -6.10805 -2.16381 0
M  V30 1090 N 110.857 0.726932 -1.39834 0
M  V30 1091 C 112.103 1.48884 -1.377 0
M  V30 1092 C 112.436 1.94185 0.0244852 0
M  V30 1093 O 111.711 1.67361 0.990986 0
M  V30 1094 C 111.994 2.72288 -2.3565 0
M  V30 1095 C 111.847 2.32956 -3.84775 0
M  V30 1096 C 113.166 3.74414 -2.31306 0
M  V30 1097 H 110.285 0.540062 -0.5015 0
M  V30 1098 H 112.927 0.830547 -1.70886 0
M  V30 1099 H 111.077 3.28457 -2.07481 0
M  V30 1100 H 112.749 1.82356 -4.23726 0
M  V30 1101 H 110.992 1.65088 -4.01159 0
M  V30 1102 H 111.663 3.21362 -4.4881 0
M  V30 1103 H 114.139 3.27849 -2.56231 0
M  V30 1104 H 113.015 4.58414 -3.01907 0
M  V30 1105 H 113.276 4.21909 -1.32081 0
M  V30 1106 N 112.336 1.25143 0.95797 0
M  V30 1107 C 113.582 1.09855 1.70469 0
M  V30 1108 C 113.915 -0.360187 1.90831 0
M  V30 1109 O 113.19 -1.26568 1.47685 0
M  V30 1110 C 113.473 1.8497 3.08963 0
M  V30 1111 C 113.326 3.38652 2.96032 0
M  V30 1112 C 114.645 1.63016 4.08795 0
M  V30 1113 H 111.764 0.400465 0.618706 0
M  V30 1114 H 114.406 1.53933 1.11376 0
M  V30 1115 H 112.556 1.47505 3.59409 0
M  V30 1116 H 114.228 3.85772 2.52938 0
M  V30 1117 H 112.471 3.66534 2.32025 0
M  V30 1118 H 113.142 3.8642 3.94187 0
M  V30 1119 H 115.618 1.95625 3.67247 0
M  V30 1120 H 114.494 2.18015 5.03747 0
M  V30 1121 H 114.755 0.570692 4.38401 0
M  V30 1122 N 113.814 -1.1601 1.06675 0
M  V30 1123 C 114.724 -2.24156 0.692179 0
M  V30 1124 C 115.74 -1.71507 -0.293513 0
M  V30 1125 O 116.916 -2.009 -0.141861 0
M  V30 1126 C 113.981 -3.46587 0.0884131 0
M  V30 1127 C 113.042 -4.14257 1.12646 0
M  V30 1128 C 112.275 -5.30844 0.551416 0
M  V30 1129 O 112.498 -5.66858 -0.634656 0
M  V30 1130 O 111.432 -5.87848 1.29298 0
M  V30 1131 H 115.258 -2.58513 1.59388 0
M  V30 1132 H 112.843 -1.23599 0.83926 0
M  V30 1133 H 114.725 -4.20679 -0.246361 0
M  V30 1134 H 113.4 -3.13994 -0.786712 0
M  V30 1135 H 112.307 -3.42118 1.51348 0
M  V30 1136 H 113.64 -4.50914 1.97325 0
M  V30 1137 N 115.292 -0.849877 -1.32721 0
M  V30 1138 C 116.539 -0.450923 -1.97416 0
M  V30 1139 C 116.867 0.992376 -1.67279 0
M  V30 1140 O 116.122 1.71048 -0.950845 0
M  V30 1141 C 116.421 -0.631272 -3.51781 0
M  V30 1142 C 116.087 -2.04432 -4.01894 0
M  V30 1143 C 114.749 -2.4308 -4.1529 0
M  V30 1144 C 117.101 -2.96679 -4.28522 0
M  V30 1145 C 114.429 -3.73257 -4.52654 0
M  V30 1146 C 116.781 -4.26349 -4.67343 0
M  V30 1147 C 115.445 -4.64939 -4.78945 0
M  V30 1148 H 114.715 -0.165004 -0.722395 0
M  V30 1149 H 117.362 -1.07901 -1.58207 0
M  V30 1150 H 115.667 0.0800767 -3.91718 0
M  V30 1151 H 117.364 -0.302709 -3.99856 0
M  V30 1152 H 113.954 -1.73419 -3.91949 0
M  V30 1153 H 118.138 -2.68054 -4.17685 0
M  V30 1154 H 113.394 -4.02946 -4.59831 0
M  V30 1155 H 117.568 -4.97895 -4.86902 0
M  V30 1156 H 115.195 -5.65855 -5.07654 0
M  V30 1157 N 116.77 1.45427 -0.607355 0
M  V30 1158 C 117.998 2.06614 -0.108814 0
M  V30 1159 C 118.413 1.45204 1.2067 0
M  V30 1160 O 117.77 0.566132 1.73497 0
M  V30 1161 C 117.821 3.61481 0.0375347 0
M  V30 1162 O 117.542 4.20598 -1.22593 0
M  V30 1163 C 119.043 4.39652 0.567561 0
M  V30 1164 H 116.263 0.66747 -0.0687351 0
M  V30 1165 H 118.807 1.86675 -0.835022 0
M  V30 1166 H 116.962 3.80762 0.714068 0
M  V30 1167 H 117.376 5.1377 -1.05547 0
M  V30 1168 H 118.85 5.48518 0.61905 0
M  V30 1169 H 119.327 4.09417 1.58978 0
M  V30 1170 H 119.933 4.25234 -0.0749202 0
M  V30 1171 N 118.248 0.346503 1.53744 0
M  V30 1172 C 119.181 -0.552023 2.21423 0
M  V30 1173 C 120.159 -1.09798 1.19929 0
M  V30 1174 O 121.343 -1.1577 1.4876 0
M  V30 1175 C 118.47 -1.75972 2.89398 0
M  V30 1176 C 117.516 -1.34295 4.04805 0
M  V30 1177 S 118.349 -0.360263 5.34287 0
M  V30 1178 C 119.505 -1.57473 6.05767 0
M  V30 1179 H 119.738 0.0228119 2.97291 0
M  V30 1180 H 117.271 0.130579 1.53847 0
M  V30 1181 H 119.229 -2.45256 3.2918 0
M  V30 1182 H 117.89 -2.30578 2.1329 0
M  V30 1183 H 117.083 -2.24349 4.51313 0
M  V30 1184 H 116.685 -0.729555 3.66815 0
M  V30 1185 H 118.977 -2.50875 6.29339 0
M  V30 1186 H 119.92 -1.15138 6.98676 0
M  V30 1187 H 120.328 -1.77212 5.35963 0
M  V30 1188 N 119.726 -1.57421 0.075193 0
M  V30 1189 C 120.954 -1.97946 -0.602076 0
M  V30 1190 C 121.369 -0.953674 -1.62943 0
M  V30 1191 O 120.726 0.0592551 -1.82404 0
M  V30 1192 C 120.777 -3.38546 -1.26762 0
M  V30 1193 O 120.498 -4.37195 -0.281376 0
M  V30 1194 C 121.999 -3.93966 -2.03239 0
M  V30 1195 H 119.219 -0.650918 -0.162931 0
M  V30 1196 H 121.763 -2.03959 0.148601 0
M  V30 1197 H 119.918 -3.33609 -1.96936 0
M  V30 1198 H 120.332 -5.18975 -0.759267 0
M  V30 1199 H 121.806 -4.94555 -2.45193 0
M  V30 1200 H 122.283 -3.30693 -2.8903 0
M  V30 1201 H 122.889 -4.02315 -1.37924 0
M  V30 1202 N 121.204 0.198386 -1.56346 0
M  V30 1203 C 122.453 0.917451 -1.79627 0
M  V30 1204 C 122.766 1.8456 -0.64784 0
M  V30 1205 O 123.972 2.60504 -0.764859 0
M  V30 1206 C 122.428 1.68175 -3.18191 0
M  V30 1207 C 122.036 0.798589 -4.40825 0
M  V30 1208 C 123.78 2.39065 -3.50782 0
M  V30 1209 C 121.687 1.56157 -5.70411 0
M  V30 1210 H 120.617 0.346317 -0.669762 0
M  V30 1211 H 123.268 0.170801 -1.82703 0
M  V30 1212 H 121.65 2.47216 -3.09354 0
M  V30 1213 H 122.824 0.0470665 -4.60776 0
M  V30 1214 H 121.139 0.200686 -4.15916 0
M  V30 1215 H 123.736 2.96692 -4.44835 0
M  V30 1216 H 124.079 3.13091 -2.74371 0
M  V30 1217 H 124.612 1.66993 -3.61052 0
M  V30 1218 H 121.351 0.864142 -6.49779 0
M  V30 1219 H 120.871 2.2871 -5.54483 0
M  V30 1220 H 122.55 2.11622 -6.11412 0
M  V30 1221 N 122.682 1.50554 0.465978 0
M  V30 1222 C 123.592 1.72585 1.58907 0
M  V30 1223 C 124.608 0.60911 1.6299 0
M  V30 1224 O 125.784 0.88804 1.80765 0
M  V30 1225 C 122.849 1.81995 2.95091 0
M  V30 1226 C 121.91 3.05751 3.01355 0
M  V30 1227 C 121.143 3.14702 4.31043 0
M  V30 1228 O 121.366 2.30313 5.21835 0
M  V30 1229 O 120.3 4.07468 4.43005 0
M  V30 1230 H 124.126 2.67799 1.43239 0
M  V30 1231 H 121.711 1.34711 0.646013 0
M  V30 1232 H 123.593 1.90335 3.75966 0
M  V30 1233 H 122.268 0.899659 3.10947 0
M  V30 1234 H 121.175 3.02908 2.19539 0
M  V30 1235 H 122.508 3.97375 2.90437 0
M  V30 1236 N 124.16 -0.719506 1.40217 0
M  V30 1237 C 125.07 -1.86378 1.42479 0
M  V30 1238 C 126.086 -1.71073 0.317834 0
M  V30 1239 O 127.262 -1.93406 0.561794 0
M  V30 1240 C 124.327 -3.22136 1.28178 0
M  V30 1241 C 123.388 -3.49723 2.48982 0
M  V30 1242 C 122.621 -4.79004 2.35353 0
M  V30 1243 O 122.844 -5.53821 1.36524 0
M  V30 1244 O 121.778 -5.06839 3.2465 0
M  V30 1245 H 125.604 -1.87425 2.38968 0
M  V30 1246 H 123.189 -0.869405 1.21498 0
M  V30 1247 H 125.071 -4.03234 1.22395 0
M  V30 1248 H 123.746 -3.21825 0.347934 0
M  V30 1249 H 122.653 -2.6865 2.60342 0
M  V30 1250 H 123.986 -3.54828 3.41113 0
M  V30 1251 N 125.638 -1.25649 -0.95132 0
M  V30 1252 C 126.585 -1.06323 -2.04851 0
M  V30 1253 C 127.555 0.0286491 -1.66075 0
M  V30 1254 O 128.74 -0.12917 -1.90362 0
M  V30 1255 C 125.88 -0.691529 -3.381 0
M  V30 1256 C 124.993 -1.85861 -3.89974 0
M  V30 1257 C 124.128 -1.43096 -5.11563 0
M  V30 1258 C 123.167 -2.56696 -5.55674 0
M  V30 1259 N 122.304 -2.14684 -6.68472 0
M  V30 1260 H 127.144 -2.00222 -2.20715 0
M  V30 1261 H 124.681 -0.997027 -1.08156 0
M  V30 1262 H 126.639 -0.456963 -4.1469 0
M  V30 1263 H 125.269 0.210474 -3.22113 0
M  V30 1264 H 124.321 -2.20639 -3.09875 0
M  V30 1265 H 125.633 -2.71161 -4.18657 0
M  V30 1266 H 124.787 -1.15624 -5.9558 0
M  V30 1267 H 123.526 -0.548722 -4.84603 0
M  V30 1268 H 122.531 -2.84909 -4.7022 0
M  V30 1269 H 123.756 -3.45503 -5.8464 0
M  V30 1270 H 121.702 -1.28881 -6.43215 0
M  V30 1271 H 121.619 -2.9353 -6.96689 0
M  V30 1272 H 122.887 -1.90397 -7.5589 0
M  V30 1273 N 127.117 1.15442 -1.07289 0
M  V30 1274 C 128.064 2.20161 -0.692653 0
M  V30 1275 C 129.034 1.63073 0.31564 0
M  V30 1276 O 130.219 1.89725 0.202235 0
M  V30 1277 C 127.359 3.44967 -0.0959509 0
M  V30 1278 C 126.472 4.16256 -1.15564 0
M  V30 1279 C 125.607 5.28609 -0.524011 0
M  V30 1280 C 124.646 5.91715 -1.56653 0
M  V30 1281 N 123.783 6.9554 -0.957531 0
M  V30 1282 H 128.623 2.52037 -1.59002 0
M  V30 1283 H 126.16 1.2378 -0.794798 0
M  V30 1284 H 128.118 4.16341 0.267628 0
M  V30 1285 H 126.748 3.1361 0.764772 0
M  V30 1286 H 125.8 3.43385 -1.6368 0
M  V30 1287 H 127.112 4.59268 -1.94613 0
M  V30 1288 H 126.266 6.06604 -0.108032 0
M  V30 1289 H 125.005 4.86787 0.29825 0
M  V30 1290 H 124.01 5.12433 -1.9923 0
M  V30 1291 H 125.235 6.35614 -2.39107 0
M  V30 1292 H 123.181 6.55814 -0.156162 0
M  V30 1293 H 123.098 7.36977 -1.68526 0
M  V30 1294 H 124.366 7.77435 -0.567032 0
M  V30 1295 N 128.595 0.856903 1.32268 0
M  V30 1296 C 129.525 0.31858 2.31316 0
M  V30 1297 C 130.506 -0.583487 1.59779 0
M  V30 1298 O 131.691 -0.503259 1.87566 0
M  V30 1299 C 128.821 -0.491979 3.43798 0
M  V30 1300 C 127.775 0.315849 4.26833 0
M  V30 1301 C 127.101 -0.619586 5.31098 0
M  V30 1302 C 128.401 1.54282 4.98993 0
M  V30 1303 H 130.095 1.14621 2.76591 0
M  V30 1304 H 127.641 0.552613 1.32974 0
M  V30 1305 H 129.594 -0.879012 4.1213 0
M  V30 1306 H 128.318 -1.35299 2.97257 0
M  V30 1307 H 126.977 0.684664 3.6015 0
M  V30 1308 H 126.625 -1.47751 4.8081 0
M  V30 1309 H 126.325 -0.0830621 5.87541 0
M  V30 1310 H 127.849 -1.00375 6.02293 0
M  V30 1311 H 129.263 1.22796 5.59995 0
M  V30 1312 H 127.66 2.01745 5.65172 0
M  V30 1313 H 128.73 2.30285 4.26728 0
M  V30 1314 N 130.073 -1.45103 0.615059 0
M  V30 1315 C 131.319 -2.02483 0.113347 0
M  V30 1316 C 131.652 -1.48146 -1.25564 0
M  V30 1317 O 130.927 -0.659104 -1.82992 0
M  V30 1318 C 131.21 -3.60005 0.0825278 0
M  V30 1319 C 131.063 -4.2466 1.48271 0
M  V30 1320 C 132.382 -4.35972 -0.601401 0
M  V30 1321 H 129.501 -0.735764 0.0426632 0
M  V30 1322 H 132.143 -1.72868 0.788461 0
M  V30 1323 H 130.293 -3.85367 -0.492378 0
M  V30 1324 H 131.965 -4.10458 2.10527 0
M  V30 1325 H 130.208 -3.82772 2.04127 0
M  V30 1326 H 130.879 -5.336 1.41332 0
M  V30 1327 H 133.355 -4.15947 -0.112666 0
M  V30 1328 H 132.231 -5.45697 -0.592097 0
M  V30 1329 H 132.492 -4.09391 -1.66887 0
M  V30 1330 N 131.551 -0.354651 -1.53558 0
M  V30 1331 C 132.8 0.239504 -2.00273 0
M  V30 1332 C 133.113 1.50759 -1.24623 0
M  V30 1333 O 134.319 2.17968 -1.61871 0
M  V30 1334 C 132.775 0.477341 -3.5672 0
M  V30 1335 C 132.383 -0.775488 -4.41237 0
M  V30 1336 C 134.127 1.02975 -4.11821 0
M  V30 1337 C 132.034 -0.507838 -5.89216 0
M  V30 1338 H 130.964 0.0932743 -0.748208 0
M  V30 1339 H 133.615 -0.471701 -1.77334 0
M  V30 1340 H 131.997 1.24953 -3.7577 0
M  V30 1341 H 133.171 -1.54963 -4.33962 0
M  V30 1342 H 131.486 -1.25033 -3.97185 0
M  V30 1343 H 134.083 1.24513 -5.2 0
M  V30 1344 H 134.426 1.98862 -3.65731 0
M  V30 1345 H 134.959 0.317994 -3.96527 0
M  V30 1346 H 131.698 -1.43674 -6.39561 0
M  V30 1347 H 131.218 0.228011 -5.99366 0
M  V30 1348 H 132.897 -0.129238 -6.46871 0
M  V30 1349 N 133.029 1.57378 -0.0835403 0
M  V30 1350 C 134.306 1.85363 0.624507 0
M  V30 1351 C 134.686 0.978239 1.87066 0
M  V30 1352 O 134.034 0.0475908 2.2845 0
M  V30 1353 C 134.244 3.35795 0.950947 0
M  V30 1354 C 135.592 4.03581 1.31939 0
M  V30 1355 O 136.616 3.40609 1.04232 0
M  V30 1356 O 135.475 5.14672 1.83779 0
M  V30 1357 H 132.569 0.766162 0.311329 0
M  V30 1358 H 135.115 1.69307 -0.115362 0
M  V30 1359 H 133.887 3.91244 0.0663899 0
M  V30 1360 H 133.51 3.57154 1.74719 0
M  V30 1361 N 134.507 -0.190092 1.56449 0
M  V30 1362 C 135.923 -0.54113 1.50146 0
M  V30 1363 C 136.123 -1.85603 0.784465 0
M  V30 1364 O 135.179 -2.5024 0.337051 0
M  V30 1365 C 136.492 -0.591241 2.9483 0
M  V30 1366 C 138.04 -0.679732 3.0553 0
M  V30 1367 C 138.515 -0.760908 4.51635 0
M  V30 1368 N 140.006 -0.824302 4.55806 0
M  V30 1369 C 140.741 -0.907365 5.66175 0
M  V30 1370 N 140.237 -0.952422 6.86222 0
M  V30 1371 N 142.03 -0.94494 5.541 0
M  V30 1372 H 134.181 0.67235 2.01478 0
M  V30 1373 H 136.444 0.240127 0.917084 0
M  V30 1374 H 136.15 0.305905 3.50367 0
M  V30 1375 H 136.024 -1.44422 3.48457 0
M  V30 1376 H 138.411 -1.56731 2.50039 0
M  V30 1377 H 138.492 0.199549 2.5502 0
M  V30 1378 H 138.136 0.122336 5.07753 0
M  V30 1379 H 138.066 -1.65606 4.99882 0
M  V30 1380 H 140.557 -0.798526 3.69367 0
M  V30 1381 H 140.87 -1.01645 7.66086 0
M  V30 1382 H 139.215 -0.921014 6.8887 0
M  V30 1383 H 142.406 -0.906612 4.59236 0
M  V30 1384 H 142.579 -1.00622 6.4014 0
M  V30 1385 N 135.985 -1.50799 -0.457987 0
M  V30 1386 C 136.895 -1.73426 -1.57989 0
M  V30 1387 C 137.911 -0.617745 -1.62665 0
M  V30 1388 O 139.087 -0.897614 -1.80291 0
M  V30 1389 C 136.152 -1.83557 -2.94122 0
M  V30 1390 C 135.213 -3.07345 -2.99729 0
M  V30 1391 C 134.446 -3.16983 -4.29368 0
M  V30 1392 O 134.669 -2.33077 -5.20607 0
M  V30 1393 O 133.603 -4.09812 -4.40837 0
M  V30 1394 H 137.429 -2.68555 -1.41817 0
M  V30 1395 H 135.014 -1.35052 -0.638859 0
M  V30 1396 H 136.896 -1.92326 -3.74952 0
M  V30 1397 H 135.571 -0.916137 -3.10465 0
M  V30 1398 H 134.478 -3.04068 -2.1793 0
M  V30 1399 H 135.811 -3.9891 -2.88326 0
M  V30 1400 N 137.463 0.71206 -1.40597 0
M  V30 1401 C 138.711 1.46907 -1.38791 0
M  V30 1402 C 139.032 1.94998 0.00780391 0
M  V30 1403 O 138.302 1.70587 0.963174 0
M  V30 1404 H 136.882 0.545043 -0.51082 0
M  V30 1405 H 139.544 0.843882 -1.75683 0
M  V30 1406 H 138.64 2.34021 -2.06496 0
M  V30 1407 N 138.941 1.26152 0.944643 0
M  V30 1408 C 140.169 1.14259 1.72489 0
M  V30 1409 C 140.584 -0.302555 1.8636 0
M  V30 1410 O 139.941 -1.20741 1.36849 0
M  V30 1411 C 139.992 1.80266 3.13347 0
M  V30 1412 O 139.713 3.19133 3.00143 0
M  V30 1413 C 141.214 1.74283 4.07603 0
M  V30 1414 H 138.434 0.398051 0.540181 0
M  V30 1415 H 140.978 1.66706 1.18446 0
M  V30 1416 H 139.133 1.31766 3.64303 0
M  V30 1417 H 139.547 3.51744 3.89071 0
M  V30 1418 H 141.021 2.25111 5.04013 0
M  V30 1419 H 141.498 0.708631 4.33446 0
M  V30 1420 H 142.104 2.22319 3.62567 0
M  V30 1421 N 140.419 -1.14872 1.07899 0
M  V30 1422 C 141.329 -2.2341 0.715915 0
M  V30 1423 C 142.345 -1.71808 -0.275306 0
M  V30 1424 O 143.521 -2.01039 -0.120545 0
M  V30 1425 C 140.586 -3.46474 0.125168 0
M  V30 1426 C 139.647 -4.13039 1.17034 0
M  V30 1427 C 138.88 -5.30229 0.607688 0
M  V30 1428 O 139.103 -5.675 -0.574497 0
M  V30 1429 O 138.037 -5.86444 1.35526 0
M  V30 1430 H 141.863 -2.56808 1.62121 0
M  V30 1431 H 139.448 -1.22702 0.852322 0
M  V30 1432 H 141.33 -4.20917 -0.201729 0
M  V30 1433 H 140.005 -3.14811 -0.753364 0
M  V30 1434 H 138.912 -3.40493 1.54968 0
M  V30 1435 H 140.245 -4.48796 2.02097 0
M  V30 1436 N 141.898 -0.863906 -1.31812 0
M  V30 1437 C 143.147 -0.46801 -1.96195 0
M  V30 1438 C 143.46 0.983474 -1.69077 0
M  V30 1439 O 144.666 1.48523 -2.27273 0
M  V30 1440 C 143.122 -0.785995 -3.51212 0
M  V30 1441 C 142.73 -2.25383 -3.87178 0
M  V30 1442 C 144.474 -0.458274 -4.22019 0
M  V30 1443 C 142.381 -2.51455 -5.3528 0
M  V30 1444 H 141.311 -0.171283 -0.734287 0
M  V30 1445 H 143.962 -1.05597 -1.50072 0
M  V30 1446 H 142.344 -0.127359 -3.95795 0
M  V30 1447 H 143.518 -2.95502 -3.53575 0
M  V30 1448 H 141.833 -2.54698 -3.2942 0
M  V30 1449 H 144.43 -0.630369 -5.30971 0
M  V30 1450 H 144.773 0.600834 -4.11941 0
M  V30 1451 H 145.306 -1.07319 -3.8305 0
M  V30 1452 H 142.045 -3.56025 -5.50387 0
M  V30 1453 H 141.565 -1.85923 -5.70257 0
M  V30 1454 H 143.244 -2.35874 -6.02472 0
M  V30 1455 N 143.376 1.44774 -0.622745 0
M  V30 1456 C 144.326 2.2774 0.108889 0
M  V30 1457 C 145.31 1.38189 0.824175 0
M  V30 1458 O 146.502 1.62063 0.711664 0
M  V30 1459 C 143.631 3.25353 1.09546 0
M  V30 1460 C 142.717 4.22392 0.380232 0
M  V30 1461 N 143.108 5.02388 -0.586535 0
M  V30 1462 C 141.406 4.41588 0.625792 0
M  V30 1463 C 142.107 5.72894 -1.00834 0
M  V30 1464 N 141.083 5.42479 -0.348878 0
M  V30 1465 H 144.885 2.86993 -0.63341 0
M  V30 1466 H 142.399 1.5611 -0.447589 0
M  V30 1467 H 144.396 3.83538 1.63414 0
M  V30 1468 H 143.056 2.6766 1.83815 0
M  V30 1469 H 144.067 5.0885 -0.963975 0
M  V30 1470 H 140.744 3.95003 1.352 0
M  V30 1471 H 142.134 6.47158 -1.80656 0
M  V30 1472 N 144.854 0.36279 1.53368 0
M  V30 1473 C 145.817 -0.472679 2.24273 0
M  V30 1474 C 146.817 -1.012 1.24961 0
M  V30 1475 O 148.007 -0.898194 1.49259 0
M  V30 1476 C 145.139 -1.66039 2.97731 0
M  V30 1477 H 146.332 0.14773 2.99536 0
M  V30 1478 H 143.885 0.114434 1.55881 0
M  V30 1479 H 144.62 -2.31896 2.26704 0
M  V30 1480 H 144.405 -1.28066 3.70596 0
M  V30 1481 H 145.895 -2.25252 3.51641 0
M  V30 1482 N 146.332 -1.57332 0.0918853 0
M  V30 1483 C 147.265 -2.09499 -0.904735 0
M  V30 1484 C 148.243 -1.00479 -1.27839 0
M  V30 1485 O 149.427 -1.27954 -1.38419 0
M  V30 1486 C 146.554 -2.56931 -2.2069 0
M  V30 1487 C 145.6 -3.77579 -1.98334 0
M  V30 1488 S 146.433 -5.21317 -1.22428 0
M  V30 1489 C 147.589 -5.72097 -2.53882 0
M  V30 1490 H 147.822 -2.93705 -0.460922 0
M  V30 1491 H 145.355 -1.53923 -0.121332 0
M  V30 1492 H 147.313 -2.84917 -2.95521 0
M  V30 1493 H 145.974 -1.72956 -2.62192 0
M  V30 1494 H 145.167 -4.08824 -2.94752 0
M  V30 1495 H 144.769 -3.5007 -1.31633 0
M  V30 1496 H 147.061 -5.80168 -3.49874 0
M  V30 1497 H 148.004 -6.70654 -2.27219 0
M  V30 1498 H 148.412 -5.00012 -2.62007 0
M  V30 1499 N 147.81 0.181792 -1.56548 0
M  V30 1500 C 149.038 0.915947 -1.85521 0
M  V30 1501 C 149.453 1.76282 -0.676016 0
M  V30 1502 O 148.81 1.79012 0.355077 0
M  V30 1503 C 148.861 1.80126 -3.13427 0
M  V30 1504 O 148.582 0.988562 -4.26801 0
M  V30 1505 C 150.083 2.64597 -3.55673 0
M  V30 1506 H 147.303 0.26661 -0.61576 0
M  V30 1507 H 149.847 0.185039 -2.03661 0
M  V30 1508 H 148.002 2.48563 -2.97145 0
M  V30 1509 H 148.416 1.59308 -4.99721 0
M  V30 1510 H 149.89 3.2235 -4.48101 0
M  V30 1511 H 150.367 3.38958 -2.79292 0
M  V30 1512 H 150.973 2.0151 -3.74532 0
M  V30 1513 N 149.288 1.51039 0.449983 0
M  V30 1514 C 150.535 1.63081 1.20045 0
M  V30 1515 C 150.863 0.341024 1.91487 0
M  V30 1516 O 150.118 -0.674276 1.83717 0
M  V30 1517 C 150.417 2.77556 2.25161 0
M  V30 1518 C 150.083 4.17289 1.70823 0
M  V30 1519 C 148.745 4.55305 1.55725 0
M  V30 1520 C 151.097 5.04536 1.3074 0
M  V30 1521 C 148.425 5.78287 0.989999 0
M  V30 1522 C 150.777 6.28085 0.754482 0
M  V30 1523 C 149.441 6.64885 0.590308 0
M  V30 1524 H 148.711 0.596755 0.439277 0
M  V30 1525 H 151.358 1.85037 0.49333 0
M  V30 1526 H 149.663 2.49771 3.01863 0
M  V30 1527 H 151.36 2.84073 2.83026 0
M  V30 1528 H 147.95 3.8731 1.83546 0
M  V30 1529 H 152.134 4.75782 1.41229 0
M  V30 1530 H 147.39 6.05456 0.850451 0
M  V30 1531 H 151.564 6.95038 0.435324 0
M  V30 1532 H 149.191 7.60055 0.14862 0
M  V30 1533 N 150.766 -0.704594 1.40972 0
M  V30 1534 C 151.714 -1.83994 1.42299 0
M  V30 1535 C 152.708 -1.66684 0.302111 0
M  V30 1536 O 153.914 -1.73655 0.473697 0
M  V30 1537 H 150.289 -0.606171 0.44504 0
M  V30 1538 H 152.26 -1.79992 2.38003 0
M  V30 1539 C 151.009 -3.21946 1.31323 0
M  V30 1540 H 150.332 -3.35878 2.16855 0
M  V30 1541 H 151.772 -4.01491 1.36311 0
M  V30 1542 C 150.231 -3.36891 0.0245977 0
M  V30 1543 O 150.761 -3.90687 -0.934153 0
M  V30 1544 N 148.967 -2.90559 -0.0485243 0
M  V30 1545 H 148.514 -2.46968 0.732419 0
M  V30 1546 H 148.472 -3.00937 -0.910171 0
M  V30 1547 N 152.244 -1.26651 -0.937939 0
M  V30 1548 C 153.492 -1.12165 -1.68118 0
M  V30 1549 C 153.813 0.334983 -1.92101 0
M  V30 1550 O 153.083 1.23583 -1.52 0
M  V30 1551 H 151.663 -0.412093 -0.623048 0
M  V30 1552 H 154.325 -1.59027 -1.12678 0
M  V30 1553 H 153.421 -1.64289 -2.6536 0
M  V30 1554 N 153.722 1.14298 -1.08507 0
M  V30 1555 C 154.947 1.8976 -0.837001 0
M  V30 1556 C 155.372 1.78097 0.605228 0
M  V30 1557 O 154.73 1.12188 1.4242 0
M  V30 1558 C 154.778 3.37685 -1.26495 0
M  V30 1559 O 153.882 4.10281 -0.417514 0
M  V30 1560 H 153.223 0.590365 -0.303917 0
M  V30 1561 H 155.753 1.44672 -1.44676 0
M  V30 1562 H 155.763 3.88501 -1.24625 0
M  V30 1563 H 154.438 3.45492 -2.31534 0
M  V30 1564 H 153.015 3.69536 -0.499722 0
M  V30 1565 N 155.201 0.870884 1.31352 0
M  V30 1566 C 156.447 0.482987 1.96965 0
M  V30 1567 C 156.78 -0.962462 1.68672 0
M  V30 1568 O 156.055 -1.6779 0.98371 0
M  V30 1569 C 156.338 0.741752 3.52378 0
M  V30 1570 C 156.191 2.2368 3.9024 0
M  V30 1571 C 157.51 0.208838 4.39604 0
M  V30 1572 H 154.629 0.176955 0.715441 0
M  V30 1573 H 157.271 1.09229 1.55464 0
M  V30 1574 H 155.421 0.223149 3.87859 0
M  V30 1575 H 157.093 2.82273 3.64856 0
M  V30 1576 H 155.336 2.70901 3.38814 0
M  V30 1577 H 156.007 2.3685 4.98604 0
M  V30 1578 H 158.483 0.652529 4.10952 0
M  V30 1579 H 157.359 0.419336 5.47296 0
M  V30 1580 H 157.62 -0.889275 4.33064 0
M  V30 1581 N 156.679 -1.44442 0.630414 0
M  V30 1582 C 158.09 -1.85434 0.217063 0
M  V30 1583 C 158.441 -1.52748 -1.23136 0
M  V30 1584 O 157.566 -0.965205 -1.93682 0
M  V30 1585 C 158.161 -3.36581 0.387168 0
M  V30 1586 C 156.72 -3.76389 0.0283297 0
M  V30 1587 C 155.867 -2.68296 0.700889 0
M  V30 1588 H 158.818 -1.34919 0.83562 0
M  V30 1589 H 158.839 -3.78657 -0.374086 0
M  V30 1590 H 158.351 -3.60339 1.44144 0
M  V30 1591 H 156.452 -3.58246 -1.02423 0
M  V30 1592 H 156.565 -4.77095 0.437892 0
M  V30 1593 H 154.929 -2.54335 0.136267 0
M  V30 1594 H 155.712 -2.94887 1.75774 0
M  V30 1595 N 158.157 -0.370918 -1.53173 0
M  V30 1596 C 159.405 0.216673 -2.00935 0
M  V30 1597 C 159.726 1.48845 -1.25977 0
M  V30 1598 O 158.996 1.92286 -0.374551 0
M  V30 1599 H 157.576 0.0830565 -0.742368 0
M  V30 1600 H 160.238 -0.49838 -1.8842 0
M  V30 1601 H 159.334 0.439893 -3.08984 0
M  V30 1602 N 159.635 1.57281 -0.100228 0
M  V30 1603 C 161.046 1.81725 0.428107 0
M  V30 1604 C 161.397 1.01619 1.67833 0
M  V30 1605 O 160.522 0.247098 2.14985 0
M  V30 1606 C 161.117 3.29617 0.78347 0
M  V30 1607 C 159.676 3.54808 1.25653 0
M  V30 1608 C 158.823 2.76118 0.255752 0
M  V30 1609 H 161.774 1.55324 -0.325608 0
M  V30 1610 H 161.795 3.4322 1.64256 0
M  V30 1611 H 161.307 3.87893 -0.12665 0
M  V30 1612 H 159.408 3.01868 2.18418 0
M  V30 1613 H 159.521 4.63443 1.21482 0
M  V30 1614 H 157.885 2.43745 0.738956 0
M  V30 1615 H 158.668 3.37145 -0.647136 0
M  V30 1616 N 161.113 -0.173488 1.56642 0
M  V30 1617 C 162.043 -1.2171 1.99271 0
M  V30 1618 C 163.024 -1.46289 0.867959 0
M  V30 1619 O 164.209 -1.5766 1.13388 0
M  V30 1620 C 161.339 -2.55651 2.35074 0
M  V30 1621 C 160.293 -2.45645 3.50489 0
M  V30 1622 C 159.619 -3.84056 3.72028 0
M  V30 1623 C 160.919 -1.96302 4.84007 0
M  V30 1624 H 162.613 -0.86275 2.867 0
M  V30 1625 H 160.159 -0.413571 1.37933 0
M  V30 1626 H 162.112 -3.2886 2.63494 0
M  V30 1627 H 160.836 -2.92869 1.44552 0
M  V30 1628 H 159.495 -1.7489 3.22194 0
M  V30 1629 H 159.143 -4.18664 2.788 0
M  V30 1630 H 158.843 -3.7823 4.49684 0
M  V30 1631 H 160.367 -4.58854 4.02846 0
M  V30 1632 H 161.781 -2.59284 5.11317 0
M  V30 1633 H 160.178 -2.01429 5.65284 0
M  V30 1634 H 161.248 -0.917226 4.76146 0
M  V30 1635 N 162.591 -1.51276 -0.441967 0
M  V30 1636 C 163.524 -1.66933 -1.55591 0
M  V30 1637 C 164.502 -0.516958 -1.54163 0
M  V30 1638 O 165.686 -0.740209 -1.73358 0
M  V30 1639 C 162.813 -1.67866 -2.94174 0
M  V30 1640 C 161.859 -2.89013 -3.13646 0
M  V30 1641 S 162.692 -4.49897 -2.90436 0
M  V30 1642 C 163.848 -4.53568 -4.31308 0
M  V30 1643 H 164.081 -2.61155 -1.42076 0
M  V30 1644 H 161.614 -1.40902 -0.631341 0
M  V30 1645 H 163.572 -1.69089 -3.74058 0
M  V30 1646 H 162.233 -0.748296 -3.05056 0
M  V30 1647 H 161.426 -2.86054 -4.14957 0
M  V30 1648 H 161.028 -2.85509 -2.4158 0
M  V30 1649 H 163.32 -4.28924 -5.24434 0
M  V30 1650 H 164.263 -5.55355 -4.39303 0
M  V30 1651 H 164.671 -3.82943 -4.14747 0
M  V30 1652 N 164.069 0.697108 -1.41344 0
M  V30 1653 C 165.315 1.4593 -1.40827 0
M  V30 1654 C 165.648 1.94193 -0.0167098 0
M  V30 1655 O 164.923 1.69425 0.955263 0
M  V30 1656 C 165.206 2.67229 -2.41373 0
M  V30 1657 C 165.059 2.24741 -3.8963 0
M  V30 1658 C 166.378 3.69423 -2.39196 0
M  V30 1659 H 163.497 0.529303 -0.512842 0
M  V30 1660 H 166.139 0.794112 -1.72609 0
M  V30 1661 H 164.289 3.23982 -2.14401 0
M  V30 1662 H 165.961 1.73327 -4.27499 0
M  V30 1663 H 164.204 1.56542 -4.0457 0
M  V30 1664 H 164.875 3.1177 -4.55525 0
M  V30 1665 H 167.351 3.2234 -2.63128 0
M  V30 1666 H 166.227 4.51907 -3.11563 0
M  V30 1667 H 166.488 4.19012 -1.41001 0
M  V30 1668 N 165.547 1.27147 0.931209 0
M  V30 1669 C 166.793 1.13446 1.68101 0
M  V30 1670 C 167.126 -0.319628 1.91552 0
M  V30 1671 O 166.401 -1.23407 1.50336 0
M  V30 1672 C 166.684 1.91482 3.0497 0
M  V30 1673 C 166.537 3.44855 2.88782 0
M  V30 1674 C 167.856 1.71651 4.05246 0
M  V30 1675 H 164.975 0.413498 0.610072 0
M  V30 1676 H 167.617 1.56261 1.08086 0
M  V30 1677 H 165.767 1.55095 3.56199 0
M  V30 1678 H 167.439 3.9105 2.44698 0
M  V30 1679 H 165.682 3.71373 2.24198 0
M  V30 1680 H 166.353 3.94694 3.85902 0
M  V30 1681 H 168.829 2.0337 3.63015 0
M  V30 1682 H 167.705 2.28651 4.99009 0
M  V30 1683 H 167.966 0.663555 4.37092 0
M  V30 1684 N 167.025 -1.13721 1.09112 0
M  V30 1685 C 167.975 -2.17082 0.697091 0
M  V30 1686 C 168.959 -1.58321 -0.286923 0
M  V30 1687 O 170.151 -1.7673 -0.0978008 0
M  V30 1688 C 167.28 -3.43105 0.115729 0
M  V30 1689 C 166.366 -4.0888 1.12596 0
M  V30 1690 N 166.757 -4.4987 2.31195 0
M  V30 1691 C 165.055 -4.35471 0.963366 0
M  V30 1692 C 165.756 -5.01094 2.95431 0
M  V30 1693 N 164.732 -4.95751 2.23006 0
M  V30 1694 H 168.534 -2.46524 1.6001 0
M  V30 1695 H 166.048 -1.30481 0.966869 0
M  V30 1696 H 168.045 -4.16491 -0.184555 0
M  V30 1697 H 166.705 -3.15138 -0.78217 0
M  V30 1698 H 167.716 -4.42678 2.68806 0
M  V30 1699 H 164.393 -4.17328 0.119878 0
M  V30 1700 H 165.783 -5.4263 3.96236 0
M  V30 1701 N 168.503 -0.877838 -1.30888 0
M  V30 1702 C 169.413 -0.343096 -2.32078 0
M  V30 1703 C 170.429 0.551022 -1.65045 0
M  V30 1704 O 171.605 0.445854 -1.96403 0
M  V30 1705 C 168.67 0.439905 -3.43898 0
M  V30 1706 C 167.731 -0.483111 -4.26573 0
M  V30 1707 C 166.964 0.262616 -5.33053 0
M  V30 1708 O 167.187 1.48967 -5.50604 0
M  V30 1709 O 166.121 -0.383593 -6.00676 0
M  V30 1710 H 169.947 -1.18203 -2.79753 0
M  V30 1711 H 167.532 -0.64145 -1.34929 0
M  V30 1712 H 169.414 0.883504 -4.12034 0
M  V30 1713 H 168.089 1.25526 -2.98371 0
M  V30 1714 H 166.996 -0.975374 -3.61161 0
M  V30 1715 H 168.329 -1.26427 -4.75686 0
M  V30 1716 N 169.982 1.44106 -0.638065 0
M  V30 1717 C 170.93 2.3248 0.0748149 0
M  V30 1718 C 171.924 1.47746 0.828702 0
M  V30 1719 O 173.13 1.64049 0.740816 0
M  V30 1720 H 169.505 0.750771 0.0429686 0
M  V30 1721 H 171.476 2.90348 -0.688504 0
M  V30 1722 C 170.225 3.31843 1.03805 0
M  V30 1723 H 169.548 3.97059 0.467375 0
M  V30 1724 H 170.988 3.96345 1.50622 0
M  V30 1725 C 169.447 2.61291 2.1267 0
M  V30 1726 O 169.977 2.41702 3.20847 0
M  V30 1727 N 168.183 2.20915 1.88798 0
M  V30 1728 H 167.73 2.37047 1.00829 0
M  V30 1729 H 167.688 1.74038 2.61836 0
M  V30 1730 N 171.46 0.379036 1.52974 0
M  V30 1731 C 172.737 -0.263479 1.93817 0
M  V30 1732 C 173.117 -1.65244 1.31368 0
M  V30 1733 O 172.465 -2.23448 0.477856 0
M  V30 1734 C 172.675 -0.300166 3.47707 0
M  V30 1735 C 174.023 -0.534061 4.21228 0
M  V30 1736 O 175.047 -0.38081 3.54159 0
M  V30 1737 O 173.906 -0.833501 5.40106 0
M  V30 1738 H 171 -0.161149 0.811147 0
M  V30 1739 H 173.546 0.432798 1.64088 0
M  V30 1740 H 172.318 0.673138 3.85467 0
M  V30 1741 H 171.941 -1.04179 3.83709 0
M  V30 1742 N 172.938 -1.57226 0.108567 0
M  V30 1743 C 174.168 -1.9889 -0.559142 0
M  V30 1744 C 174.576 -0.986889 -1.61422 0
M  V30 1745 O 173.919 0.0298705 -1.83676 0
M  V30 1746 C 173.981 -3.36952 -1.25315 0
M  V30 1747 C 173.645 -4.55679 -0.347248 0
M  V30 1748 C 174.642 -5.18281 0.409996 0
M  V30 1749 C 172.327 -5.0162 -0.261367 0
M  V30 1750 C 174.321 -6.25203 1.24096 0
M  V30 1751 C 172.008 -6.08405 0.573238 0
M  V30 1752 C 173.006 -6.70063 1.32304 0
M  V30 1753 O 172.694 -7.74788 2.14381 0
M  V30 1754 H 172.426 -0.658343 -0.153492 0
M  V30 1755 H 174.98 -2.04532 0.188584 0
M  V30 1756 H 173.21 -3.28032 -2.04773 0
M  V30 1757 H 174.899 -3.62974 -1.81673 0
M  V30 1758 H 175.665 -4.8371 0.353457 0
M  V30 1759 H 171.544 -4.53381 -0.834656 0
M  V30 1760 H 175.088 -6.73259 1.82669 0
M  V30 1761 H 170.985 -6.42406 0.631208 0
M  V30 1762 H 171.753 -7.91837 2.07209 0
M  V30 1763 N 174.416 0.165178 -1.56732 0
M  V30 1764 C 175.662 0.882112 -1.82611 0
M  V30 1765 C 175.995 1.81628 -0.687378 0
M  V30 1766 O 175.27 1.92009 0.310267 0
M  V30 1767 C 175.553 1.67245 -3.18906 0
M  V30 1768 C 175.406 0.760987 -4.43316 0
M  V30 1769 C 176.725 2.63884 -3.52212 0
M  V30 1770 H 173.844 0.319242 -0.664269 0
M  V30 1771 H 176.486 0.148052 -1.89422 0
M  V30 1772 H 174.636 2.29824 -3.1323 0
M  V30 1773 H 176.308 0.147596 -4.61064 0
M  V30 1774 H 174.551 0.0694102 -4.33744 0
M  V30 1775 H 175.222 1.34962 -5.35247 0
M  V30 1776 H 177.698 2.11429 -3.58381 0
M  V30 1777 H 176.574 3.16245 -4.48643 0
M  V30 1778 H 176.835 3.44377 -2.77231 0
M  V30 1779 N 175.894 1.51508 0.433938 0
M  V30 1780 C 176.804 1.75917 1.5521 0
M  V30 1781 C 177.82 0.643545 1.61662 0
M  V30 1782 O 178.996 0.926183 1.7884 0
M  V30 1783 C 176.061 1.88213 2.91164 0
M  V30 1784 C 175.122 3.12074 2.94802 0
M  V30 1785 C 174.355 3.23774 4.24271 0
M  V30 1786 O 174.578 2.4133 5.16833 0
M  V30 1787 O 173.512 4.16774 4.34262 0
M  V30 1788 H 177.338 2.70777 1.37527 0
M  V30 1789 H 174.923 1.36051 0.617293 0
M  V30 1790 H 176.805 1.98267 3.71845 0
M  V30 1791 H 175.48 0.965413 3.08968 0
M  V30 1792 H 174.387 3.07497 2.13065 0
M  V30 1793 H 175.72 4.03446 2.81943 0
M  V30 1794 N 177.372 -0.689602 1.41712 0
M  V30 1795 C 178.302 -1.81577 1.46806 0
M  V30 1796 C 179.283 -1.66945 0.326105 0
M  V30 1797 O 180.468 -1.86588 0.538377 0
M  V30 1798 C 177.598 -3.19762 1.35535 0
M  V30 1799 C 176.552 -3.49107 2.47605 0
M  V30 1800 C 175.878 -4.86711 2.21397 0
M  V30 1801 C 177.178 -3.47483 3.89939 0
M  V30 1802 H 178.872 -1.7757 2.41058 0
M  V30 1803 H 176.418 -0.852887 1.16025 0
M  V30 1804 H 178.371 -3.98263 1.3771 0
M  V30 1805 H 177.095 -3.24409 0.377708 0
M  V30 1806 H 175.754 -2.72959 2.44722 0
M  V30 1807 H 175.402 -4.8799 1.21961 0
M  V30 1808 H 175.102 -5.0731 2.96497 0
M  V30 1809 H 176.626 -5.67515 2.25297 0
M  V30 1810 H 178.04 -4.1598 3.94505 0
M  V30 1811 H 176.437 -3.79615 4.64771 0
M  V30 1812 H 177.507 -2.46341 4.17665 0
M  V30 1813 N 178.85 -1.27639 -0.924453 0
M  V30 1814 C 180.266 -1.05113 -1.20097 0
M  V30 1815 C 180.466 0.213262 -2.00368 0
M  V30 1816 O 179.522 0.91787 -2.35226 0
M  V30 1817 C 180.835 -2.29244 -1.94596 0
M  V30 1818 C 182.383 -2.34315 -2.07522 0
M  V30 1819 C 182.858 -3.58183 -2.85427 0
M  V30 1820 N 184.349 -3.5876 -2.92994 0
M  V30 1821 C 185.084 -4.51277 -3.53746 0
M  V30 1822 N 184.58 -5.54102 -4.15863 0
M  V30 1823 N 186.373 -4.38894 -3.51181 0
M  V30 1824 H 178.524 -2.08821 -0.388264 0
M  V30 1825 H 180.787 -0.918568 -0.234385 0
M  V30 1826 H 180.493 -3.21301 -1.43034 0
M  V30 1827 H 180.367 -2.34816 -2.95197 0
M  V30 1828 H 182.754 -1.42762 -2.58269 0
M  V30 1829 H 182.835 -2.32744 -1.06131 0
M  V30 1830 H 182.479 -4.50074 -2.35363 0
M  V30 1831 H 182.409 -3.57006 -3.8711 0
M  V30 1832 H 184.9 -2.84398 -2.4885 0
M  V30 1833 H 185.213 -6.20859 -4.60168 0
M  V30 1834 H 183.558 -5.57941 -4.144 0
M  V30 1835 H 186.749 -3.57772 -3.01856 0
M  V30 1836 H 186.922 -5.11186 -3.98237 0
M  V30 1837 N 180.328 1.1314 -1.09713 0
M  V30 1838 C 181.258 2.20748 -0.761102 0
M  V30 1839 C 182.239 1.68061 0.262566 0
M  V30 1840 O 183.424 1.93765 0.129977 0
M  V30 1841 C 180.554 3.46812 -0.184054 0
M  V30 1842 C 179.508 4.12606 -1.13757 0
M  V30 1843 C 178.834 5.33031 -0.422083 0
M  V30 1844 C 180.134 4.59603 -2.48118 0
M  V30 1845 H 181.828 2.49113 -1.66082 0
M  V30 1846 H 179.374 1.19734 -0.799987 0
M  V30 1847 H 181.327 4.21353 0.0631215 0
M  V30 1848 H 180.051 3.17851 0.750868 0
M  V30 1849 H 178.71 3.40036 -1.37007 0
M  V30 1850 H 178.358 5.00335 0.517072 0
M  V30 1851 H 178.058 5.77999 -1.05788 0
M  V30 1852 H 179.582 6.10325 -0.183277 0
M  V30 1853 H 180.996 5.25552 -2.29059 0
M  V30 1854 H 179.393 5.15321 -3.07514 0
M  V30 1855 H 180.463 3.73971 -3.08665 0
M  V30 1856 N 181.806 0.884767 1.30421 0
M  V30 1857 C 183.055 0.499164 1.95426 0
M  V30 1858 C 183.368 -0.95645 1.70621 0
M  V30 1859 O 184.574 -1.44889 2.29607 0
M  V30 1860 C 183.03 0.84177 3.49917 0
M  V30 1861 C 182.638 2.31514 3.83543 0
M  V30 1862 C 184.382 0.525355 4.21237 0
M  V30 1863 C 182.289 2.59939 5.31212 0
M  V30 1864 H 181.219 0.182944 0.73147 0
M  V30 1865 H 183.87 1.07971 1.48373 0
M  V30 1866 H 182.252 0.190311 3.95542 0
M  V30 1867 H 183.426 3.0109 3.48829 0
M  V30 1868 H 181.741 2.59907 3.25326 0
M  V30 1869 H 184.338 0.714762 5.29901 0
M  V30 1870 H 184.681 -0.535222 4.12845 0
M  V30 1871 H 185.214 1.134 3.81294 0
M  V30 1872 H 181.953 3.64736 5.44654 0
M  V30 1873 H 181.473 1.94972 5.67227 0
M  V30 1874 H 183.152 2.45429 5.98643 0
M  V30 1875 N 183.284 -1.43765 0.645699 0
M  V30 1876 C 184.232 -2.32516 -0.0624849 0
M  V30 1877 C 185.226 -1.48183 -0.820855 0
M  V30 1878 O 186.432 -1.64439 -0.732106 0
M  V30 1879 H 182.807 -0.750989 -0.0389864 0
M  V30 1880 H 184.778 -2.89979 0.703892 0
M  V30 1881 C 183.527 -3.32389 -1.02044 0
M  V30 1882 H 182.85 -3.97301 -0.446312 0
M  V30 1883 H 184.29 -3.97138 -1.48517 0
M  V30 1884 C 182.749 -2.62416 -2.11281 0
M  V30 1885 O 183.279 -2.434 -3.19561 0
M  V30 1886 N 181.485 -2.21913 -1.87624 0
M  V30 1887 H 181.032 -2.37578 -0.995703 0
M  V30 1888 H 180.99 -1.75424 -2.6091 0
M  V30 1889 N 184.763 -0.387143 -1.52771 0
M  V30 1890 C 186.174 0.0873634 -1.86495 0
M  V30 1891 C 186.525 1.46336 -1.30691 0
M  V30 1892 O 185.65 2.068 -0.637409 0
M  V30 1893 C 186.245 0.165305 -3.38396 0
M  V30 1894 C 184.804 0.584101 -3.7184 0
M  V30 1895 C 183.951 -0.255279 -2.76122 0
M  V30 1896 H 186.902 -0.605104 -1.46711 0
M  V30 1897 H 186.923 0.984848 -3.67534 0
M  V30 1898 H 186.435 -0.836301 -3.78982 0
M  V30 1899 H 184.536 1.59315 -3.36823 0
M  V30 1900 H 184.649 0.343749 -4.77865 0
M  V30 1901 H 183.013 0.279126 -2.53166 0
M  V30 1902 H 183.796 -1.25482 -3.19545 0
M  V30 1903 N 186.241 1.57166 -0.116904 0
M  V30 1904 C 187.518 1.86645 0.585049 0
M  V30 1905 C 187.898 1.0177 1.84949 0
M  V30 1906 O 187.246 0.0960379 2.28298 0
M  V30 1907 C 187.456 3.37736 0.879507 0
M  V30 1908 C 188.804 4.06289 1.23348 0
M  V30 1909 O 189.828 3.42743 0.969836 0
M  V30 1910 O 188.687 5.18455 1.7282 0
M  V30 1911 H 185.781 0.772593 0.295007 0
M  V30 1912 H 188.327 1.69025 -0.151249 0
M  V30 1913 H 187.099 3.91296 -0.0166136 0
M  V30 1914 H 186.722 3.6078 1.67103 0
M  V30 1915 N 187.719 -0.156864 1.56817 0
M  V30 1916 C 188.947 -0.886316 1.86955 0
M  V30 1917 C 189.362 -1.75185 0.703975 0
M  V30 1918 O 188.719 -1.79555 -0.326552 0
M  V30 1919 C 188.77 -1.75117 3.16253 0
M  V30 1920 O 188.491 -0.920537 4.2832 0
M  V30 1921 C 189.992 -2.58905 3.59837 0
M  V30 1922 H 187.212 -0.25678 0.619923 0
M  V30 1923 H 189.756 -0.152615 2.0393 0
M  V30 1924 H 187.911 -2.43805 3.01062 0
M  V30 1925 H 188.325 -1.51337 5.02192 0
M  V30 1926 H 189.799 -3.1518 4.53172 0
M  V30 1927 H 190.276 -3.34472 2.84649 0
M  V30 1928 H 190.882 -1.95526 3.7769 0
M  V30 1929 N 189.197 -1.51736 -0.425897 0
M  V30 1930 C 190.145 -1.74464 -1.53834 0
M  V30 1931 C 191.139 -0.611241 -1.57988 0
M  V30 1932 O 192.345 -0.792899 -1.61596 0
M  V30 1933 H 188.72 -0.551437 -0.511293 0
M  V30 1934 H 190.691 -2.67694 -1.31843 0
M  V30 1935 C 189.44 -1.8972 -2.91379 0
M  V30 1936 H 188.763 -2.76344 -2.88919 0
M  V30 1937 H 190.203 -2.09629 -3.68553 0
M  V30 1938 C 188.662 -0.65992 -3.30374 0
M  V30 1939 O 189.192 0.180083 -4.01296 0
M  V30 1940 N 187.398 -0.500677 -2.86254 0
M  V30 1941 H 186.945 -1.18532 -2.28709 0
M  V30 1942 H 186.903 0.325903 -3.12706 0
M  V30 1943 N 190.675 0.682077 -1.42076 0
M  V30 1944 C 191.903 1.47057 -1.4554 0
M  V30 1945 C 192.318 1.8869 -0.0645779 0
M  V30 1946 O 191.675 1.57666 0.919115 0
M  V30 1947 C 191.726 2.72442 -2.37609 0
M  V30 1948 O 191.447 2.32559 -3.71279 0
M  V30 1949 C 192.948 3.66069 -2.50017 0
M  V30 1950 H 190.168 0.452737 -0.495248 0
M  V30 1951 H 192.712 0.838695 -1.8651 0
M  V30 1952 H 190.867 3.31835 -1.9991 0
M  V30 1953 H 191.281 3.13475 -4.20516 0
M  V30 1954 H 192.755 4.50792 -3.18576 0
M  V30 1955 H 193.232 4.11476 -1.53572 0
M  V30 1956 H 193.838 3.12572 -2.88407 0
M  V30 1957 N 192.153 1.28127 0.917671 0
M  V30 1958 C 193.083 1.14248 2.03641 0
M  V30 1959 C 194.064 0.0412748 1.7005 0
M  V30 1960 O 195.249 0.217566 1.92977 0
M  V30 1961 C 192.379 0.799431 3.37974 0
M  V30 1962 C 191.333 1.85497 3.85713 0
M  V30 1963 C 190.659 1.36565 5.16966 0
M  V30 1964 C 191.959 3.26085 4.08002 0
M  V30 1965 H 193.653 2.07835 2.15511 0
M  V30 1966 H 191.199 1.00064 1.03553 0
M  V30 1967 H 193.152 0.689114 4.15727 0
M  V30 1968 H 191.876 -0.172145 3.26146 0
M  V30 1969 H 190.535 1.95437 3.10161 0
M  V30 1970 H 190.183 0.383253 5.01538 0
M  V30 1971 H 189.883 2.07143 5.49878 0
M  V30 1972 H 191.407 1.26848 5.97279 0
M  V30 1973 H 192.821 3.19089 4.76293 0
M  V30 1974 H 191.218 3.94462 4.52238 0
M  V30 1975 H 192.288 3.70394 3.12948 0
M  V30 1976 N 193.631 -1.12557 1.10312 0
M  V30 1977 C 194.561 -2.20341 0.772798 0
M  V30 1978 C 195.542 -1.68198 -0.25365 0
M  V30 1979 O 196.727 -1.93831 -0.119699 0
M  V30 1980 C 193.857 -3.46709 0.202443 0
M  V30 1981 C 192.811 -4.11996 1.15943 0
M  V30 1982 C 192.137 -5.328 0.450345 0
M  V30 1983 C 193.437 -4.5828 2.50552 0
M  V30 1984 H 195.131 -2.48229 1.674 0
M  V30 1985 H 192.677 -1.19308 0.806326 0
M  V30 1986 H 194.63 -4.2138 -0.0407752 0
M  V30 1987 H 193.354 -3.18245 -0.734001 0
M  V30 1988 H 192.013 -3.39305 1.38808 0
M  V30 1989 H 191.661 -5.00602 -0.490531 0
M  V30 1990 H 191.361 -5.7743 1.08851 0
M  V30 1991 H 192.885 -6.10219 0.215642 0
M  V30 1992 H 194.299 -5.2433 2.31843 0
M  V30 1993 H 192.696 -5.13683 3.10242 0
M  V30 1994 H 193.766 -3.72329 3.10643 0
M  V30 1995 N 195.109 -0.891671 -1.2995 0
M  V30 1996 C 196.059 -0.334811 -2.25528 0
M  V30 1997 C 197.043 0.540553 -1.51548 0
M  V30 1998 O 198.235 0.383882 -1.72787 0
M  V30 1999 C 195.364 0.44374 -3.4042 0
M  V30 2000 C 194.45 -0.44609 -4.21747 0
M  V30 2001 N 194.841 -1.54963 -4.81477 0
M  V30 2002 C 193.139 -0.242415 -4.45341 0
M  V30 2003 C 193.84 -2.10015 -5.42465 0
M  V30 2004 N 192.816 -1.39423 -5.25416 0
M  V30 2005 H 196.618 -1.17792 -2.69262 0
M  V30 2006 H 194.132 -0.741822 -1.44467 0
M  V30 2007 H 196.129 0.859362 -4.07947 0
M  V30 2008 H 194.789 1.28421 -2.98225 0
M  V30 2009 H 195.8 -1.93244 -4.80497 0
M  V30 2010 H 192.477 0.560342 -4.13723 0
M  V30 2011 H 193.867 -3.02724 -5.9984 0
M  V30 2012 N 196.587 1.43421 -0.653314 0
M  V30 2013 C 197.535 2.32546 0.0501531 0
M  V30 2014 C 198.529 1.48617 0.812985 0
M  V30 2015 O 199.735 1.64825 0.723375 0
M  V30 2016 H 196.11 0.751185 0.0350032 0
M  V30 2017 H 198.081 2.89602 -0.719261 0
M  V30 2018 C 196.83 3.32925 1.00279 0
M  V30 2019 H 196.153 3.97532 0.425236 0
M  V30 2020 H 197.593 3.9792 1.46409 0
M  V30 2021 C 196.052 2.63532 2.09886 0
M  V30 2022 O 196.582 2.45092 3.18265 0
M  V30 2023 N 194.788 2.22905 1.86445 0
M  V30 2024 H 194.335 2.38103 0.98309 0
M  V30 2025 H 194.293 1.76805 2.59976 0
M  V30 2026 N 198.065 0.39524 1.52563 0
M  V30 2027 C 199.314 -0.186321 2.00838 0
M  V30 2028 C 199.627 -1.47402 1.28577 0
M  V30 2029 O 200.833 -2.13599 1.67593 0
M  V30 2030 C 199.289 -0.382595 3.57861 0
M  V30 2031 C 198.897 0.892202 4.39026 0
M  V30 2032 C 200.641 -0.9202 4.14406 0
M  V30 2033 C 198.548 0.66388 5.87662 0
M  V30 2034 H 197.478 -0.0734041 0.750418 0
M  V30 2035 H 200.129 0.518552 1.76021 0
M  V30 2036 H 198.511 -1.14946 3.7895 0
M  V30 2037 H 199.685 1.66414 4.29701 0
M  V30 2038 H 198 1.35519 3.9373 0
M  V30 2039 H 200.597 -1.10683 5.23119 0
M  V30 2040 H 200.94 -1.89096 3.70875 0
M  V30 2041 H 201.473 -0.212751 3.97231 0
M  V30 2042 H 198.212 1.6058 6.35527 0
M  V30 2043 H 197.732 -0.0690193 5.9976 0
M  V30 2044 H 199.411 0.300699 6.46301 0
M  V30 2045 N 199.544 -1.57102 0.125237 0
M  V30 2046 C 200.821 -1.86953 -0.575142 0
M  V30 2047 C 201.201 -1.02749 -1.84407 0
M  V30 2048 O 200.549 -0.108144 -2.28244 0
M  V30 2049 C 200.759 -3.38198 -0.861583 0
M  V30 2050 C 202.107 -4.06937 -1.21192 0
M  V30 2051 O 203.131 -3.43252 -0.951645 0
M  V30 2052 O 201.99 -5.19364 -1.70068 0
M  V30 2053 H 199.084 -0.774147 -0.290906 0
M  V30 2054 H 201.63 -1.68942 0.160211 0
M  V30 2055 H 200.402 -3.91282 0.0373647 0
M  V30 2056 H 200.025 -3.61661 -1.65188 0
M  V30 2057 N 201.022 0.148545 -1.56898 0
M  V30 2058 C 202.269 0.861418 -1.83264 0
M  V30 2059 C 202.597 1.81239 -0.705883 0
M  V30 2060 O 201.852 1.93305 0.305212 0
M  V30 2061 C 202.151 1.67064 -3.1595 0
M  V30 2062 C 201.817 0.866591 -4.42494 0
M  V30 2063 C 200.479 0.644762 -4.76861 0
M  V30 2064 C 202.831 0.30418 -5.20312 0
M  V30 2065 C 200.159 -0.15021 -5.86508 0
M  V30 2066 C 202.511 -0.477824 -6.30793 0
M  V30 2067 C 201.175 -0.710244 -6.63711 0
M  V30 2068 H 200.445 0.315215 -0.670612 0
M  V30 2069 H 203.092 0.125142 -1.91091 0
M  V30 2070 H 201.397 2.47698 -3.03567 0
M  V30 2071 H 203.094 2.22566 -3.33565 0
M  V30 2072 H 199.684 1.04955 -4.15551 0
M  V30 2073 H 203.868 0.462844 -4.94137 0
M  V30 2074 H 199.124 -0.339796 -6.10455 0
M  V30 2075 H 203.298 -0.92076 -6.90286 0
M  V30 2076 H 200.925 -1.3281 -7.48509 0
M  V30 2077 N 202.5 1.5196 0.417844 0
M  V30 2078 C 203.45 1.7106 1.5074 0
M  V30 2079 C 204.434 0.564487 1.50673 0
M  V30 2080 O 205.626 0.821206 1.56797 0
M  V30 2081 C 202.755 1.85677 2.88754 0
M  V30 2082 C 201.841 3.06133 2.93502 0
M  V30 2083 N 202.232 4.28987 2.67962 0
M  V30 2084 C 200.53 3.05787 3.24669 0
M  V30 2085 C 201.231 5.10395 2.79055 0
M  V30 2086 N 200.207 4.45455 3.11561 0
M  V30 2087 H 204.009 2.63696 1.29775 0
M  V30 2088 H 201.523 1.49873 0.625436 0
M  V30 2089 H 203.52 1.97475 3.67164 0
M  V30 2090 H 202.18 0.942348 3.10725 0
M  V30 2091 H 203.191 4.57607 2.4252 0
M  V30 2092 H 199.868 2.2405 3.52289 0
M  V30 2093 H 201.258 6.18247 2.63097 0
M  V30 2094 N 203.978 -0.674533 1.42435 0
M  V30 2095 C 204.941 -1.76986 1.45632 0
M  V30 2096 C 205.941 -1.5708 0.343871 0
M  V30 2097 O 207.131 -1.63367 0.604709 0
M  V30 2098 C 204.263 -3.15623 1.28822 0
M  V30 2099 H 205.456 -1.75539 2.43158 0
M  V30 2100 H 203.009 -0.884189 1.28887 0
M  V30 2101 H 203.744 -3.22696 0.322193 0
M  V30 2102 H 203.529 -3.31475 2.09444 0
M  V30 2103 H 205.019 -3.95537 1.33942 0
M  V30 2104 N 205.456 -1.28612 -0.910864 0
M  V30 2105 C 206.419 -1.12803 -1.9952 0
M  V30 2106 C 207.419 -0.0668264 -1.60661 0
M  V30 2107 O 208.609 -0.312847 -1.71368 0
M  V30 2108 C 205.741 -0.72254 -3.33155 0
M  V30 2109 H 206.934 -2.09109 -2.14973 0
M  V30 2110 H 204.487 -1.11639 -1.09391 0
M  V30 2111 H 205.222 0.241152 -3.23402 0
M  V30 2112 H 205.007 -1.48916 -3.62721 0
M  V30 2113 H 206.497 -0.634666 -4.12749 0
M  V30 2114 N 206.934 1.1197 -1.10907 0
M  V30 2115 C 208.162 1.87402 -0.876824 0
M  V30 2116 C 208.577 1.79894 0.573025 0
M  V30 2117 O 207.934 1.17629 1.39534 0
M  V30 2118 C 207.985 3.36428 -1.32282 0
M  V30 2119 O 207.706 3.43765 -2.71582 0
M  V30 2120 C 209.207 4.28783 -1.12518 0
M  V30 2121 H 206.427 0.592793 -0.314384 0
M  V30 2122 H 208.971 1.41649 -1.47499 0
M  V30 2123 H 207.126 3.79706 -0.768229 0
M  V30 2124 H 207.54 4.3652 -2.90776 0
M  V30 2125 H 209.014 5.31613 -1.48633 0
M  V30 2126 H 209.491 4.39153 -0.0642394 0
M  V30 2127 H 210.097 3.91291 -1.66648 0
M  V30 2128 N 208.412 0.89855 1.29475 0
M  V30 2129 C 209.66 0.522847 1.9522 0
M  V30 2130 C 209.981 -0.93371 1.71192 0
M  V30 2131 O 209.251 -1.65823 1.04305 0
M  V30 2132 H 207.831 0.190366 0.722336 0
M  V30 2133 H 210.493 1.14459 1.5775 0
M  V30 2134 H 209.589 0.704476 3.04045 0
M  V30 2135 N 209.89 -1.43072 0.660911 0
M  V30 2136 C 210.853 -2.29194 -0.0166406 0
M  V30 2137 C 211.853 -1.42609 -0.742912 0
M  V30 2138 O 213.043 -1.64155 -0.583004 0
M  V30 2139 C 210.175 -3.24831 -1.0343 0
M  V30 2140 H 211.368 -2.90596 0.741208 0
M  V30 2141 H 208.921 -1.5048 0.422532 0
M  V30 2142 H 209.656 -2.68339 -1.82111 0
M  V30 2143 H 209.441 -3.88676 -0.517082 0
M  V30 2144 H 210.931 -3.89451 -1.50723 0
M  V30 2145 N 211.368 -0.403325 -1.52352 0
M  V30 2146 C 212.298 0.416205 -2.29761 0
M  V30 2147 C 213.279 1.05123 -1.33728 0
M  V30 2148 O 214.464 1.06134 -1.62632 0
M  V30 2149 C 211.594 1.53624 -3.11475 0
M  V30 2150 C 210.548 1.02653 -4.15507 0
M  V30 2151 C 209.874 2.23971 -4.85532 0
M  V30 2152 C 211.174 0.08463 -5.22231 0
M  V30 2153 H 212.868 -0.229701 -2.98518 0
M  V30 2154 H 210.414 -0.111913 -1.43564 0
M  V30 2155 H 212.367 2.1165 -3.64393 0
M  V30 2156 H 211.091 2.20994 -2.40477 0
M  V30 2157 H 209.75 0.46871 -3.63591 0
M  V30 2158 H 209.398 2.89883 -4.11068 0
M  V30 2159 H 209.098 1.90521 -5.55856 0
M  V30 2160 H 210.622 2.82614 -5.41259 0
M  V30 2161 H 212.036 0.573509 -5.70424 0
M  V30 2162 H 210.433 -0.160783 -5.99885 0
M  V30 2163 H 211.503 -0.86237 -4.7717 0
M  V30 2164 N 212.846 1.57033 -0.133567 0
M  V30 2165 C 214.094 1.953 0.519848 0
M  V30 2166 C 214.415 1.01866 1.66278 0
M  V30 2167 O 213.685 0.0776513 1.95746 0
M  V30 2168 H 212.265 0.721091 0.195032 0
M  V30 2169 H 214.927 1.93809 -0.205921 0
M  V30 2170 H 214.023 2.98695 0.904854 0
M  V30 2171 N 214.325 -0.140222 1.56975 0
M  V30 2172 C 215.573 -0.850005 1.83356 0
M  V30 2173 C 215.894 -1.81399 0.71551 0
M  V30 2174 O 215.164 -1.94136 -0.262294 0
M  V30 2175 H 213.744 -0.316886 0.676456 0
M  V30 2176 H 216.406 -0.132608 1.94448 0
M  V30 2177 H 215.502 -1.40814 2.78528 0
M  V30 2178 N 215.803 -1.52179 -0.40978 0
M  V30 2179 C 217.051 -1.65878 -1.15451 0
M  V30 2180 C 217.372 -0.390771 -1.91044 0
M  V30 2181 O 216.642 0.594323 -1.86667 0
M  V30 2182 H 215.222 -0.611405 -0.429177 0
M  V30 2183 H 217.884 -1.89219 -0.467134 0
M  V30 2184 H 216.98 -2.49954 -1.86894 0
M  V30 2185 N 217.281 0.66697 -1.42791 0
M  V30 2186 C 218.244 1.76211 -1.46568 0
M  V30 2187 C 219.244 1.56896 -0.352196 0
M  V30 2188 O 220.434 1.63044 -0.613364 0
M  V30 2189 C 217.566 3.14935 -1.30494 0
M  V30 2190 H 218.759 1.74247 -2.44086 0
M  V30 2191 H 216.312 0.877342 -1.29354 0
M  V30 2192 H 217.047 3.2252 -0.339301 0
M  V30 2193 H 216.832 3.30359 -2.11199 0
M  V30 2194 H 218.322 3.94821 -1.36038 0
M  V30 2195 N 218.759 1.29093 0.90403 0
M  V30 2196 C 219.689 1.16401 2.02418 0
M  V30 2197 C 220.67 0.0593085 1.69997 0
M  V30 2198 O 221.855 0.238021 1.92736 0
M  V30 2199 C 218.985 0.835233 3.37107 0
M  V30 2200 C 217.939 1.89578 3.83724 0
M  V30 2201 C 217.265 1.42041 5.15489 0
M  V30 2202 C 218.565 3.30394 4.04521 0
M  V30 2203 H 220.259 2.10109 2.13295 0
M  V30 2204 H 217.805 1.01157 1.02486 0
M  V30 2205 H 219.758 0.733169 4.14973 0
M  V30 2206 H 218.482 -0.137543 3.2631 0
M  V30 2207 H 217.141 1.98715 3.08071 0
M  V30 2208 H 216.789 0.436426 5.01103 0
M  V30 2209 H 216.489 2.12964 5.4765 0
M  V30 2210 H 218.013 1.33176 5.959 0
M  V30 2211 H 219.427 3.24123 4.72882 0
M  V30 2212 H 217.824 3.99237 4.48029 0
M  V30 2213 H 218.894 3.73692 3.09002 0
M  V30 2214 N 220.237 -1.11381 1.11499 0
M  V30 2215 C 221.465 -1.86934 0.88675 0
M  V30 2216 C 221.88 -1.80195 -0.563476 0
M  V30 2217 O 221.237 -1.18367 -1.38908 0
M  V30 2218 C 221.288 -3.35722 1.34064 0
M  V30 2219 O 221.009 -3.4232 2.73401 0
M  V30 2220 C 222.51 -4.2818 1.14791 0
M  V30 2221 H 219.73 -0.591117 0.317523 0
M  V30 2222 H 222.274 -1.40865 1.48248 0
M  V30 2223 H 220.429 -3.79294 0.788355 0
M  V30 2224 H 220.843 -4.34971 2.93087 0
M  V30 2225 H 222.317 -5.30817 1.5145 0
M  V30 2226 H 222.794 -4.39113 0.0875279 0
M  V30 2227 H 223.4 -3.90402 1.68721 0
M  V30 2228 N 221.715 -0.905404 -1.28997 0
M  V30 2229 C 222.647 -0.344748 -2.26592 0
M  V30 2230 C 223.66 0.512135 -1.54535 0
M  V30 2231 O 224.849 0.328368 -1.75454 0
M  V30 2232 C 221.949 0.526587 -3.34784 0
M  V30 2233 C 221.122 -0.305871 -4.36329 0
M  V30 2234 C 220.181 0.499209 -5.23827 0
M  V30 2235 O 219.207 -0.0853004 -5.69136 0
M  V30 2236 N 220.409 1.80408 -5.51755 0
M  V30 2237 H 223.174 -1.18359 -2.75338 0
M  V30 2238 H 220.735 -0.770481 -1.42391 0
M  V30 2239 H 222.727 1.07171 -3.90252 0
M  V30 2240 H 221.297 1.26613 -2.85811 0
M  V30 2241 H 220.517 -1.0324 -3.80441 0
M  V30 2242 H 221.805 -0.875773 -5.01206 0
M  V30 2243 H 221.203 2.3016 -5.16762 0
M  V30 2244 H 219.76 2.29621 -6.10014 0
M  V30 2245 N 223.193 1.4272 -0.668489 0
M  V30 2246 C 224.439 2.01923 -0.188419 0
M  V30 2247 C 224.772 1.52704 1.19979 0
M  V30 2248 O 224.047 0.726566 1.8042 0
M  V30 2249 C 224.33 3.59451 -0.216085 0
M  V30 2250 C 224.183 4.18864 -1.6393 0
M  V30 2251 C 225.502 4.37903 0.439179 0
M  V30 2252 H 222.621 0.733674 -0.0699412 0
M  V30 2253 H 225.263 1.69822 -0.852076 0
M  V30 2254 H 223.413 3.86929 0.349012 0
M  V30 2255 H 225.085 4.02362 -2.25616 0
M  V30 2256 H 223.328 3.74933 -2.18193 0
M  V30 2257 H 223.999 5.27987 -1.61039 0
M  V30 2258 H 226.475 4.16079 -0.0417878 0
M  V30 2259 H 225.351 5.47519 0.389157 0
M  V30 2260 H 225.612 4.15303 1.51577 0
M  V30 2261 N 224.671 0.411399 1.52136 0
M  V30 2262 C 225.619 -0.427633 2.28635 0
M  V30 2263 C 226.613 -1.04383 1.33419 0
M  V30 2264 O 227.819 -0.981772 1.50868 0
M  V30 2265 H 224.194 -0.156689 0.735495 0
M  V30 2266 H 226.165 0.238761 2.97443 0
M  V30 2267 C 224.914 -1.53082 3.12188 0
M  V30 2268 H 224.237 -1.06601 3.85326 0
M  V30 2269 H 225.677 -2.09167 3.68816 0
M  V30 2270 C 224.136 -2.49946 2.25895 0
M  V30 2271 O 224.666 -3.53884 1.90076 0
M  V30 2272 N 222.872 -2.2021 1.8962 0
M  V30 2273 H 222.419 -1.35719 2.18948 0
M  V30 2274 H 222.377 -2.85266 1.32176 0
M  V30 2275 N 226.149 -1.5696 0.141893 0
M  V30 2276 C 227.56 -1.82797 -0.379776 0
M  V30 2277 C 227.911 -1.06033 -1.6508 0
M  V30 2278 O 227.036 -0.304011 -2.14254 0
M  V30 2279 C 227.631 -3.31578 -0.695802 0
M  V30 2280 C 226.19 -3.58014 -1.16201 0
M  V30 2281 C 225.337 -2.76699 -0.182455 0
M  V30 2282 H 228.288 -1.54406 0.366675 0
M  V30 2283 H 228.309 -3.47454 -1.55099 0
M  V30 2284 H 227.821 -3.87421 0.229449 0
M  V30 2285 H 225.922 -3.07553 -2.10338 0
M  V30 2286 H 226.035 -4.66501 -1.09151 0
M  V30 2287 H 224.399 -2.45618 -0.674072 0
M  V30 2288 H 225.182 -3.35311 0.736297 0
M  V30 2289 N 227.627 0.131896 -1.57047 0
M  V30 2290 C 228.875 0.840269 -1.83804 0
M  V30 2291 C 229.196 1.81017 -0.72512 0
M  V30 2292 O 228.466 1.94272 0.251995 0
M  V30 2293 H 227.046 0.313294 -0.678127 0
M  V30 2294 H 229.708 0.122294 -1.94516 0
M  V30 2295 H 228.804 1.39335 -2.79271 0
M  V30 2296 N 229.106 1.52395 0.401703 0
M  V30 2297 C 230.016 1.7917 1.51444 0
M  V30 2298 C 231.032 0.677691 1.6026 0
M  V30 2299 O 232.208 0.963909 1.76835 0
M  V30 2300 C 229.273 1.94347 2.87107 0
M  V30 2301 C 228.334 3.18257 2.88116 0
M  V30 2302 C 227.567 3.32701 4.17308 0
M  V30 2303 O 227.79 2.52238 5.11598 0
M  V30 2304 O 226.724 4.25891 4.25324 0
M  V30 2305 H 230.55 2.73633 1.31752 0
M  V30 2306 H 228.135 1.3733 0.588296 0
M  V30 2307 H 230.017 2.06109 3.67555 0
M  V30 2308 H 228.692 1.03073 3.06851 0
M  V30 2309 H 227.599 3.11947 2.06494 0
M  V30 2310 H 228.932 4.09336 2.73322 0
M  V30 2311 N 230.584 -0.659388 1.43143 0
M  V30 2312 C 231.494 -1.80167 1.50256 0
M  V30 2313 C 232.51 -1.69571 0.390106 0
M  V30 2314 O 233.686 -1.90849 0.643319 0
M  V30 2315 C 230.751 -3.16409 1.41725 0
M  V30 2316 C 229.812 -3.38848 2.63591 0
M  V30 2317 C 229.045 -4.68591 2.55458 0
M  V30 2318 O 229.268 -5.47532 1.59891 0
M  V30 2319 O 228.202 -4.92614 3.45854 0
M  V30 2320 H 232.028 -1.77121 2.46702 0
M  V30 2321 H 229.613 -0.817092 1.25076 0
M  V30 2322 H 231.495 -3.9768 1.39387 0
M  V30 2323 H 230.17 -3.20059 0.484118 0
M  V30 2324 H 229.077 -2.57366 2.71502 0
M  V30 2325 H 230.41 -3.4004 3.55856 0
M  V30 2326 N 232.062 -1.29571 -0.897171 0
M  V30 2327 C 233.29 -1.20583 -1.68129 0
M  V30 2328 C 233.705 0.233181 -1.87354 0
M  V30 2329 O 233.062 1.15579 -1.41236 0
M  V30 2330 C 233.113 -1.91772 -3.06441 0
M  V30 2331 O 232.834 -3.30053 -2.88091 0
M  V30 2332 C 234.335 -1.89291 -4.00854 0
M  V30 2333 H 231.555 -0.417826 -0.525036 0
M  V30 2334 H 234.099 -1.70987 -1.12177 0
M  V30 2335 H 232.254 -1.45196 -3.59161 0
M  V30 2336 H 232.668 -3.65942 -3.75748 0
M  V30 2337 H 234.142 -2.43662 -4.95311 0
M  V30 2338 H 234.619 -0.869014 -4.30517 0
M  V30 2339 H 235.225 -2.35622 -3.54066 0
M  V30 2340 N 233.54 1.10788 -1.12088 0
M  V30 2341 C 234.768 1.86461 -0.896651 0
M  V30 2342 C 235.183 1.80492 0.553912 0
M  V30 2343 O 234.54 1.19102 1.38278 0
M  V30 2344 C 234.591 3.35006 -1.35843 0
M  V30 2345 O 234.312 3.40866 -2.75213 0
M  V30 2346 C 235.813 4.27565 -1.1706 0
M  V30 2347 H 233.033 0.589425 -0.320654 0
M  V30 2348 H 235.577 1.40076 -1.48993 0
M  V30 2349 H 233.732 3.7887 -0.808458 0
M  V30 2350 H 234.146 4.33411 -2.9539 0
M  V30 2351 H 235.62 5.30007 -1.54263 0
M  V30 2352 H 236.097 4.3906 -0.110814 0
M  V30 2353 H 236.703 3.89501 -1.70789 0
M  V30 2354 N 235.018 0.912232 1.28515 0
M  V30 2355 C 235.948 0.416403 2.29757 0
M  V30 2356 C 236.929 -0.515194 1.6211 0
M  V30 2357 O 238.114 -0.423253 1.89532 0
M  V30 2358 C 235.244 -0.34572 3.45575 0
M  V30 2359 C 234.198 0.496599 4.25109 0
M  V30 2360 C 233.524 -0.393771 5.33248 0
M  V30 2361 C 234.824 1.75307 4.92001 0
M  V30 2362 H 236.518 1.26249 2.7148 0
M  V30 2363 H 234.064 0.608515 1.30511 0
M  V30 2364 H 236.017 -0.703422 4.15488 0
M  V30 2365 H 234.741 -1.2257 3.02728 0
M  V30 2366 H 233.4 0.8368 3.56922 0
M  V30 2367 H 233.048 -1.27225 4.86644 0
M  V30 2368 H 232.748 0.166209 5.87365 0
M  V30 2369 H 234.272 -0.747389 6.06009 0
M  V30 2370 H 235.686 1.46437 5.54283 0
M  V30 2371 H 234.083 2.25534 5.56106 0
M  V30 2372 H 235.153 2.48176 4.16577 0
M  V30 2373 N 236.496 -1.42363 0.676048 0
M  V30 2374 C 237.912 -1.55811 0.345718 0
M  V30 2375 C 238.112 -1.65544 -1.14879 0
M  V30 2376 O 237.168 -1.62306 -1.93424 0
M  V30 2377 C 238.481 -2.80746 1.07713 0
M  V30 2378 C 240.029 -2.9452 1.05958 0
M  V30 2379 C 240.504 -4.22318 1.77233 0
M  V30 2380 N 241.995 -4.29233 1.74108 0
M  V30 2381 C 242.73 -5.26935 2.26113 0
M  V30 2382 N 242.226 -6.30783 2.86505 0
M  V30 2383 N 244.019 -5.18741 2.1648 0
M  V30 2384 H 236.17 -1.34289 1.6456 0
M  V30 2385 H 238.433 -0.646506 0.69335 0
M  V30 2386 H 238.139 -2.79696 2.13221 0
M  V30 2387 H 238.013 -3.71676 0.64316 0
M  V30 2388 H 240.4 -2.95097 0.0128255 0
M  V30 2389 H 240.481 -2.04817 1.53244 0
M  V30 2390 H 240.125 -4.22502 2.81877 0
M  V30 2391 H 240.055 -5.10958 1.27396 0
M  V30 2392 H 242.546 -3.54814 1.30059 0
M  V30 2393 H 242.859 -7.01691 3.23805 0
M  V30 2394 H 241.204 -6.31341 2.90575 0
M  V30 2395 H 244.395 -4.36533 1.68987 0
M  V30 2396 H 244.568 -5.94721 2.57316 0
M  V30 2397 N 237.974 -0.419461 -1.51915 0
M  V30 2398 C 239.221 0.152939 -2.01922 0
M  V30 2399 C 239.549 1.4426 -1.30458 0
M  V30 2400 O 238.804 1.91514 -0.402593 0
M  V30 2401 C 239.103 0.437067 -3.54717 0
M  V30 2402 C 238.769 -0.764632 -4.44369 0
M  V30 2403 C 237.431 -1.09423 -4.68594 0
M  V30 2404 C 239.783 -1.56713 -4.97082 0
M  V30 2405 C 237.111 -2.22732 -5.42777 0
M  V30 2406 C 239.463 -2.69107 -5.72507 0
M  V30 2407 C 238.127 -3.02541 -5.95 0
M  V30 2408 H 237.397 0.0559644 -0.738884 0
M  V30 2409 H 240.044 -0.562998 -1.83037 0
M  V30 2410 H 238.349 1.23469 -3.71837 0
M  V30 2411 H 240.046 0.893083 -3.90928 0
M  V30 2412 H 236.636 -0.497775 -4.257 0
M  V30 2413 H 240.82 -1.32571 -4.78266 0
M  V30 2414 H 236.076 -2.48971 -5.58411 0
M  V30 2415 H 240.25 -3.31671 -6.12346 0
M  V30 2416 H 237.877 -3.90457 -6.52264 0
M  V30 2417 N 239.452 1.56882 -0.150215 0
M  V30 2418 C 240.399 2.16922 0.788244 0
M  V30 2419 C 241.369 1.10303 1.24187 0
M  V30 2420 O 242.554 1.38359 1.31383 0
M  V30 2421 C 239.694 2.79754 2.02068 0
M  V30 2422 C 238.807 4.00775 1.61257 0
M  V30 2423 C 237.942 4.51595 2.79705 0
M  V30 2424 C 236.981 5.65074 2.35282 0
M  V30 2425 N 236.118 6.10499 3.4675 0
M  V30 2426 H 240.958 2.96779 0.269444 0
M  V30 2427 H 238.495 1.46599 0.12128 0
M  V30 2428 H 240.453 3.14329 2.74323 0
M  V30 2429 H 239.083 2.02536 2.51354 0
M  V30 2430 H 238.135 3.72158 0.787553 0
M  V30 2431 H 239.447 4.82978 1.24633 0
M  V30 2432 H 238.601 4.88242 3.60145 0
M  V30 2433 H 237.34 3.68406 3.19576 0
M  V30 2434 H 236.345 5.28 1.53283 0
M  V30 2435 H 237.57 6.50052 1.96493 0
M  V30 2436 H 235.516 5.30243 3.86236 0
M  V30 2437 H 235.433 6.87637 3.14152 0
M  V30 2438 H 236.701 6.51791 4.27537 0
M  V30 2439 N 240.93 -0.123565 1.57115 0
M  V30 2440 C 241.893 -1.13583 1.99076 0
M  V30 2441 C 242.893 -1.34564 0.880296 0
M  V30 2442 O 244.083 -1.31158 1.14644 0
M  V30 2443 C 241.215 -2.49128 2.32698 0
M  V30 2444 H 242.408 -0.775287 2.89706 0
M  V30 2445 H 239.961 -0.36771 1.51913 0
M  V30 2446 H 240.696 -2.90111 1.44934 0
M  V30 2447 H 240.481 -2.35255 3.13684 0
M  V30 2448 H 241.971 -3.2199 2.65918 0
M  V30 2449 N 242.408 -1.52605 -0.393616 0
M  V30 2450 C 243.636 -1.71294 -1.16043 0
M  V30 2451 C 244.051 -0.429259 -1.83855 0
M  V30 2452 O 243.408 0.595921 -1.72496 0
M  V30 2453 C 243.459 -2.8593 -2.21193 0
M  V30 2454 O 243.18 -4.09329 -1.56146 0
M  V30 2455 C 244.681 -3.16259 -3.10636 0
M  V30 2456 H 241.901 -0.573641 -0.348104 0
M  V30 2457 H 244.445 -1.99234 -0.461092 0
M  V30 2458 H 242.6 -2.60465 -2.86769 0
M  V30 2459 H 243.014 -4.73323 -2.25978 0
M  V30 2460 H 244.488 -3.99946 -3.80456 0
M  V30 2461 H 244.965 -2.3045 -3.73884 0
M  V30 2462 H 245.571 -3.43547 -2.50711 0
M  V30 2463 N 243.887 0.651787 -1.4349 0
M  V30 2464 C 244.834 1.76462 -1.4876 0
M  V30 2465 C 245.804 1.62641 -0.337189 0
M  V30 2466 O 246.989 1.82864 -0.544544 0
M  V30 2467 C 244.129 3.14623 -1.41796 0
M  V30 2468 C 243.242 3.39568 -2.67053 0
M  V30 2469 C 242.377 4.67585 -2.52068 0
M  V30 2470 C 241.416 4.85639 -3.72587 0
M  V30 2471 N 240.553 6.04915 -3.56402 0
M  V30 2472 H 245.393 1.71293 -2.43849 0
M  V30 2473 H 242.93 0.835889 -1.21043 0
M  V30 2474 H 244.888 3.94496 -1.35753 0
M  V30 2475 H 243.518 3.18859 -0.50288 0
M  V30 2476 H 242.57 2.53783 -2.8337 0
M  V30 2477 H 243.882 3.48795 -3.56572 0
M  V30 2478 H 243.036 5.55586 -2.4374 0
M  V30 2479 H 241.775 4.60681 -1.60075 0
M  V30 2480 H 240.78 3.96073 -3.81321 0
M  V30 2481 H 242.005 4.94372 -4.65589 0
M  V30 2482 H 239.951 5.9914 -2.67146 0
M  V30 2483 H 239.868 6.15106 -4.39524 0
M  V30 2484 H 241.136 6.95533 -3.51929 0
M  V30 2485 N 245.365 1.30045 0.890287 0
M  V30 2486 C 246.776 1.16738 1.45702 0
M  V30 2487 C 247.127 -0.233939 1.948 0
M  V30 2488 O 246.252 -1.13021 1.84541 0
M  V30 2489 C 246.847 2.11313 2.64825 0
M  V30 2490 C 245.406 2.02001 3.17604 0
M  V30 2491 C 244.553 2.01699 1.90296 0
M  V30 2492 H 247.504 1.42392 0.700726 0
M  V30 2493 H 247.525 1.69086 3.40867 0
M  V30 2494 H 247.037 3.13294 2.2906 0
M  V30 2495 H 245.138 1.03142 3.5804 0
M  V30 2496 H 245.251 2.90128 3.81264 0
M  V30 2497 H 243.615 1.46427 2.08402 0
M  V30 2498 H 244.398 3.05402 1.56795 0
M  V30 2499 N 246.843 -1.10192 1.12674 0
M  V30 2500 C 248.091 -1.81845 0.881861 0
M  V30 2501 C 248.412 -1.85737 -0.593867 0
M  V30 2502 O 247.682 -1.33724 -1.4316 0
M  V30 2503 H 246.262 -0.673432 0.323261 0
M  V30 2504 H 248.924 -1.33316 1.42172 0
M  V30 2505 H 248.02 -2.85288 1.2656 0
M  V30 2506 N 248.321 -0.919034 -1.28029 0
M  V30 2507 C 249.567 -0.555757 -1.95036 0
M  V30 2508 C 249.9 0.899198 -1.72128 0
M  V30 2509 O 249.175 1.64023 -1.04531 0
M  V30 2510 C 249.458 -0.872024 -3.49382 0
M  V30 2511 C 249.311 -2.3801 -3.81669 0
M  V30 2512 C 250.63 -0.37185 -4.38526 0
M  V30 2513 H 247.749 -0.203386 -0.708381 0
M  V30 2514 H 250.391 -1.14924 -1.51303 0
M  V30 2515 H 248.541 -0.366946 -3.86763 0
M  V30 2516 H 250.213 -2.9562 -3.54128 0
M  V30 2517 H 248.456 -2.83289 -3.28526 0
M  V30 2518 H 249.127 -2.55192 -4.8947 0
M  V30 2519 H 251.603 -0.804602 -4.08247 0
M  V30 2520 H 250.479 -0.622173 -5.45362 0
M  V30 2521 H 250.74 0.727934 -4.36066 0
M  V30 2522 N 249.799 1.42003 -0.683588 0
M  V30 2523 C 251.046 2.01413 -0.209514 0
M  V30 2524 C 251.374 1.54088 1.1869 0
M  V30 2525 O 250.629 0.737591 1.81268 0
M  V30 2526 C 250.928 3.56827 -0.202357 0
M  V30 2527 C 250.594 4.23617 -1.54464 0
M  V30 2528 C 249.256 4.41577 -1.91215 0
M  V30 2529 C 251.608 4.61178 -2.42826 0
M  V30 2530 C 248.936 4.9437 -3.15935 0
M  V30 2531 C 251.288 5.15355 -3.66867 0
M  V30 2532 C 249.952 5.31528 -4.03776 0
M  V30 2533 H 249.222 0.737023 -0.0766668 0
M  V30 2534 H 251.869 1.70067 -0.880312 0
M  V30 2535 H 250.174 3.87892 0.551969 0
M  V30 2536 H 251.871 4.00588 0.181793 0
M  V30 2537 H 248.461 4.10004 -1.24877 0
M  V30 2538 H 252.645 4.46968 -2.15717 0
M  V30 2539 H 247.901 5.05076 -3.44541 0
M  V30 2540 H 252.075 5.43402 -4.35531 0
M  V30 2541 H 249.702 5.72199 -5.00492 0
M  V30 2542 N 251.277 0.427512 1.51691 0
M  V30 2543 C 252.523 -0.142439 2.02299 0
M  V30 2544 C 252.856 -1.43214 1.31162 0
M  V30 2545 O 252.131 -1.89833 0.423511 0
M  V30 2546 C 252.414 -0.371301 3.58181 0
M  V30 2547 C 252.267 0.936358 4.39946 0
M  V30 2548 C 253.586 -1.14542 4.24933 0
M  V30 2549 H 250.705 -0.0502937 0.735282 0
M  V30 2550 H 253.347 0.564584 1.81418 0
M  V30 2551 H 251.497 -0.973559 3.76104 0
M  V30 2552 H 253.169 1.57184 4.33694 0
M  V30 2553 H 251.412 1.5432 4.05423 0
M  V30 2554 H 252.083 0.730388 5.47147 0
M  V30 2555 H 254.559 -0.635362 4.11221 0
M  V30 2556 H 253.435 -1.27431 5.33903 0
M  V30 2557 H 253.696 -2.17093 3.85127 0
M  V30 2558 N 252.755 -1.56801 0.158532 0
M  V30 2559 C 253.985 -2.00568 -0.495583 0
M  V30 2560 C 254.393 -1.03774 -1.58201 0
M  V30 2561 O 253.736 -0.0285797 -1.83678 0
M  V30 2562 C 253.798 -3.40768 -1.14532 0
M  V30 2563 C 253.462 -4.56553 -0.202101 0
M  V30 2564 C 254.459 -5.16714 0.574675 0
M  V30 2565 C 252.144 -5.02197 -0.101648 0
M  V30 2566 C 254.138 -6.20939 1.43924 0
M  V30 2567 C 251.825 -6.06274 0.766508 0
M  V30 2568 C 252.823 -6.65515 1.53555 0
M  V30 2569 O 252.511 -7.67575 2.38922 0
M  V30 2570 H 252.243 -0.662893 -0.13247 0
M  V30 2571 H 254.797 -2.03829 0.253559 0
M  V30 2572 H 253.027 -3.34381 -1.94233 0
M  V30 2573 H 254.716 -3.6857 -1.70033 0
M  V30 2574 H 255.482 -4.82341 0.507167 0
M  V30 2575 H 251.361 -4.55807 -0.689994 0
M  V30 2576 H 254.905 -6.67107 2.03996 0
M  V30 2577 H 250.802 -6.40073 0.835266 0
M  V30 2578 H 251.57 -7.84844 2.32296 0
M  V30 2579 N 254.233 0.115231 -1.57178 0
M  V30 2580 C 255.183 1.14707 -1.97044 0
M  V30 2581 C 256.167 1.36866 -0.845957 0
M  V30 2582 O 257.359 1.37895 -1.10968 0
M  V30 2583 C 254.488 2.47266 -2.38148 0
M  V30 2584 C 253.574 2.28566 -3.57237 0
M  V30 2585 N 253.965 1.79685 -4.72807 0
M  V30 2586 C 252.263 2.59208 -3.62943 0
M  V30 2587 C 252.964 1.74781 -5.54821 0
M  V30 2588 N 251.94 2.19264 -4.97417 0
M  V30 2589 H 255.742 0.761754 -2.83857 0
M  V30 2590 H 253.256 0.322928 -1.59157 0
M  V30 2591 H 255.253 3.219 -2.64927 0
M  V30 2592 H 253.913 2.86552 -1.52702 0
M  V30 2593 H 254.924 1.49177 -4.9595 0
M  V30 2594 H 251.601 3.02154 -2.88113 0
M  V30 2595 H 252.991 1.38212 -6.57531 0
M  V30 2596 N 255.711 1.52812 0.385517 0
M  V30 2597 C 256.951 1.69716 1.13911 0
M  V30 2598 C 257.315 0.42962 1.87132 0
M  V30 2599 O 258.516 0.475071 2.64569 0
M  V30 2600 C 256.787 2.90021 2.0886 0
M  V30 2601 S 258.346 3.27531 2.92009 0
M  V30 2602 H 255.164 0.59739 0.385547 0
M  V30 2603 H 257.766 1.90868 0.423061 0
M  V30 2604 H 256.47 3.80493 1.53797 0
M  V30 2605 H 256.001 2.71213 2.84969 0
M  V30 2606 H 258.016 2.77989 4.11019 0
M  V30 2607 N 257.189 -0.644168 1.43834 0
M  V30 2608 C 258.152 -1.73857 1.49353 0
M  V30 2609 C 259.152 -1.56315 0.377112 0
M  V30 2610 O 260.342 -1.62048 0.639226 0
M  V30 2611 C 257.474 -3.12819 1.35488 0
M  V30 2612 H 258.667 -1.70342 2.46827 0
M  V30 2613 H 256.22 -0.856652 1.30733 0
M  V30 2614 H 256.955 -3.2194 0.390569 0
M  V30 2615 H 256.74 -3.26958 2.16428 0
M  V30 2616 H 258.23 -3.92606 1.42302 0
M  V30 2617 N 258.668 -1.30515 -0.883378 0
M  V30 2618 C 260.079 -1.17509 -1.45081 0
M  V30 2619 C 260.43 0.223605 -1.94922 0
M  V30 2620 O 259.555 1.12041 -1.85137 0
M  V30 2621 C 260.15 -2.12715 -2.63701 0
M  V30 2622 C 258.709 -2.03682 -3.16529 0
M  V30 2623 C 257.856 -2.02706 -1.89224 0
M  V30 2624 H 260.807 -1.42762 -0.693165 0
M  V30 2625 H 260.828 -1.70891 -3.39965 0
M  V30 2626 H 260.34 -3.14505 -2.27395 0
M  V30 2627 H 258.441 -1.05039 -3.57488 0
M  V30 2628 H 258.554 -2.92146 -3.7972 0
M  V30 2629 H 256.918 -1.4753 -2.07622 0
M  V30 2630 H 257.701 -3.06229 -1.55174 0
M  V30 2631 N 260.146 1.09593 -1.13257 0
M  V30 2632 C 261.056 2.19739 -0.821691 0
M  V30 2633 C 262.072 1.72926 0.19302 0
M  V30 2634 O 263.248 2.01385 0.0244895 0
M  V30 2635 C 260.313 3.45482 -0.290333 0
M  V30 2636 C 259.374 4.06985 -1.36607 0
M  V30 2637 C 258.607 5.26726 -0.859975 0
M  V30 2638 O 258.83 5.69594 0.303082 0
M  V30 2639 O 257.764 5.7931 -1.63351 0
M  V30 2640 H 261.59 2.48781 -1.74189 0
M  V30 2641 H 259.175 1.18496 -0.909894 0
M  V30 2642 H 261.057 4.214 0.000674022 0
M  V30 2643 H 259.732 3.18047 0.602306 0
M  V30 2644 H 258.639 3.32712 -1.71037 0
M  V30 2645 H 259.972 4.38643 -2.23279 0
M  V30 2646 N 261.624 0.925811 1.2754 0
M  V30 2647 C 262.872 0.564138 1.94067 0
M  V30 2648 C 263.193 -0.897188 1.73134 0
M  V30 2649 O 262.463 -1.63573 1.07799 0
M  V30 2650 H 261.043 0.205645 0.718136 0
M  V30 2651 H 263.705 1.1778 1.55287 0
M  V30 2652 H 262.801 0.76881 3.02483 0
M  V30 2653 N 263.102 -1.41638 0.69111 0
M  V30 2654 C 264.035 -2.28183 -0.0274913 0
M  V30 2655 C 265.013 -1.41984 -0.792424 0
M  V30 2656 O 266.197 -1.71415 -0.784169 0
M  V30 2657 C 263.324 -3.22135 -1.04628 0
M  V30 2658 C 262.37 -4.24848 -0.375037 0
M  V30 2659 S 263.203 -5.28231 0.879321 0
M  V30 2660 C 264.359 -6.25748 -0.137983 0
M  V30 2661 H 264.592 -2.88782 0.706553 0
M  V30 2662 H 262.125 -1.46709 0.481222 0
M  V30 2663 H 264.083 -3.76797 -1.62894 0
M  V30 2664 H 262.744 -2.6064 -1.75287 0
M  V30 2665 H 261.937 -4.90837 -1.14433 0
M  V30 2666 H 261.539 -3.73758 0.134434 0
M  V30 2667 H 263.831 -6.70188 -0.992659 0
M  V30 2668 H 264.774 -7.06417 0.487867 0
M  V30 2669 H 265.182 -5.62363 -0.490762 0
M  V30 2670 N 264.58 -0.43555 -1.51462 0
M  V30 2671 C 265.826 0.131709 -2.02372 0
M  V30 2672 C 266.159 1.42516 -1.3192 0
M  V30 2673 O 265.434 1.89606 -0.433573 0
M  V30 2674 C 265.717 0.352301 -3.58373 0
M  V30 2675 C 265.57 -0.959676 -4.39443 0
M  V30 2676 C 266.889 1.12286 -4.25535 0
M  V30 2677 H 264.008 0.0463936 -0.735538 0
M  V30 2678 H 266.65 -0.574197 -1.81116 0
M  V30 2679 H 264.8 0.9536 -3.76615 0
M  V30 2680 H 266.472 -1.59482 -4.32855 0
M  V30 2681 H 264.715 -1.56468 -4.04599 0
M  V30 2682 H 265.386 -0.759394 -5.46752 0
M  V30 2683 H 267.862 0.613545 -4.11552 0
M  V30 2684 H 266.738 1.24598 -5.34571 0
M  V30 2685 H 266.999 2.15048 -3.86273 0
M  V30 2686 N 266.058 1.56714 -0.166846 0
M  V30 2687 C 267.469 1.83378 0.350646 0
M  V30 2688 C 267.82 1.08646 1.63372 0
M  V30 2689 O 266.945 0.338058 2.13743 0
M  V30 2690 C 267.54 3.32643 0.642963 0
M  V30 2691 C 266.099 3.59818 1.10491 0
M  V30 2692 C 265.246 2.76954 0.138411 0
M  V30 2693 H 268.197 1.53803 -0.391193 0
M  V30 2694 H 268.218 3.49878 1.49551 0
M  V30 2695 H 267.73 3.87007 -0.291055 0
M  V30 2696 H 265.831 3.1086 2.05418 0
M  V30 2697 H 265.944 4.68178 1.01716 0
M  V30 2698 H 264.308 2.4666 0.634911 0
M  V30 2699 H 265.091 3.34097 -0.789549 0
M  V30 2700 N 267.536 -0.106894 1.57237 0
M  V30 2701 C 268.782 -0.808678 1.86633 0
M  V30 2702 C 269.137 -1.76917 0.756178 0
M  V30 2703 O 268.43 -1.90055 -0.242834 0
M  V30 2704 C 268.624 -1.58628 3.20268 0
M  V30 2705 C 268.453 -0.702592 4.44178 0
M  V30 2706 C 267.223 -0.352808 5.04067 0
M  V30 2707 C 269.421 -0.0148031 5.14298 0
M  V30 2708 N 267.403 0.540279 6.11518 0
M  V30 2709 C 268.774 0.736809 6.15606 0
M  V30 2710 C 270.829 0.0603524 4.97863 0
M  V30 2711 C 269.532 1.55654 7.02257 0
M  V30 2712 C 271.558 0.866942 5.85011 0
M  V30 2713 C 270.92 1.60671 6.85831 0
M  V30 2714 H 267.019 -0.27246 0.733001 0
M  V30 2715 H 269.603 -0.0717858 1.94568 0
M  V30 2716 H 267.774 -2.29413 3.13408 0
M  V30 2717 H 269.506 -2.23434 3.3743 0
M  V30 2718 H 266.261 -0.697802 4.68431 0
M  V30 2719 H 266.685 0.979029 6.69884 0
M  V30 2720 H 271.327 -0.497236 4.19866 0
M  V30 2721 H 269.045 2.12524 7.79653 0
M  V30 2722 H 272.631 0.927612 5.74358 0
M  V30 2723 H 271.511 2.2208 7.52097 0
M  V30 2724 N 269.014 -1.53014 -0.377408 0
M  V30 2725 C 269.964 -1.74996 -1.46152 0
M  V30 2726 C 270.948 -0.604236 -1.49123 0
M  V30 2727 O 272.14 -0.862489 -1.54564 0
M  V30 2728 C 269.269 -1.93267 -2.8373 0
M  V30 2729 C 268.355 -3.13807 -2.85283 0
M  V30 2730 N 268.746 -4.35941 -2.56493 0
M  V30 2731 C 267.044 -3.14288 -3.16448 0
M  V30 2732 C 267.745 -5.17615 -2.65424 0
M  V30 2733 N 266.721 -4.53559 -2.99641 0
M  V30 2734 H 270.523 -2.67044 -1.22738 0
M  V30 2735 H 268.037 -1.51479 -0.585479 0
M  V30 2736 H 270.034 -2.0714 -3.61799 0
M  V30 2737 H 268.694 -1.0244 -3.08117 0
M  V30 2738 H 269.705 -4.63876 -2.30302 0
M  V30 2739 H 266.382 -2.33312 -3.46225 0
M  V30 2740 H 267.772 -6.25006 -2.46612 0
M  V30 2741 N 270.492 0.636531 -1.44174 0
M  V30 2742 C 271.738 1.39826 -1.4689 0
M  V30 2743 C 272.071 1.93947 -0.0990585 0
M  V30 2744 O 271.346 1.73325 0.882544 0
M  V30 2745 C 271.629 2.56751 -2.5249 0
M  V30 2746 C 271.482 2.08014 -3.98811 0
M  V30 2747 C 272.801 3.58946 -2.54649 0
M  V30 2748 H 269.92 0.507075 -0.53483 0
M  V30 2749 H 272.562 0.720188 -1.75822 0
M  V30 2750 H 270.712 3.14597 -2.2795 0
M  V30 2751 H 272.384 1.5504 -4.34466 0
M  V30 2752 H 270.627 1.39242 -4.10846 0
M  V30 2753 H 271.298 2.92169 -4.68339 0
M  V30 2754 H 273.774 3.1089 -2.76563 0
M  V30 2755 H 272.65 4.38286 -3.3045 0
M  V30 2756 H 272.911 4.12655 -1.58646 0
M  V30 2757 N 271.97 1.30982 0.876444 0
M  V30 2758 C 273.198 1.23242 1.6619 0
M  V30 2759 C 273.613 -0.203345 1.87702 0
M  V30 2760 O 272.97 -1.13317 1.43057 0
M  V30 2761 C 273.021 1.96623 3.03351 0
M  V30 2762 O 272.742 3.34594 2.82804 0
M  V30 2763 C 274.243 1.95644 3.97792 0
M  V30 2764 H 271.463 0.426126 0.518322 0
M  V30 2765 H 274.007 1.7275 1.09442 0
M  V30 2766 H 272.162 1.50892 3.56806 0
M  V30 2767 H 272.576 3.71873 3.69879 0
M  V30 2768 H 274.05 2.51511 4.91372 0
M  V30 2769 H 274.527 0.937395 4.2908 0
M  V30 2770 H 275.133 2.41225 3.50272 0
M  V30 2771 N 273.449 -1.08991 1.13837 0
M  V30 2772 C 274.674 -1.85551 0.926585 0
M  V30 2773 C 275.099 -1.80782 -0.519566 0
M  V30 2774 O 274.457 -1.18855 -1.36906 0
M  V30 2775 C 274.505 -3.31266 1.42462 0
M  V30 2776 O 273.609 -4.07822 0.612789 0
M  V30 2777 H 272.95 -0.575192 0.331738 0
M  V30 2778 H 275.48 -1.37604 1.51414 0
M  V30 2779 H 275.49 -3.82112 1.43019 0
M  V30 2780 H 274.165 -3.34052 2.47754 0
M  V30 2781 H 272.742 -3.66731 0.675463 0
M  V30 2782 N 274.927 -0.932562 -1.27047 0
M  V30 2783 C 276.175 -0.574422 -1.93765 0
M  V30 2784 C 276.496 0.887993 -1.73608 0
M  V30 2785 O 275.766 1.62999 -1.08665 0
M  V30 2786 H 274.346 -0.209451 -0.717035 0
M  V30 2787 H 277.008 -1.18601 -1.5466 0
M  V30 2788 H 276.104 -0.784841 -3.02071 0
M  V30 2789 N 276.405 1.4127 -0.698611 0
M  V30 2790 C 277.338 2.28195 0.0153898 0
M  V30 2791 C 278.316 1.42402 0.784883 0
M  V30 2792 O 279.5 1.71828 0.775067 0
M  V30 2793 C 276.627 3.22685 1.02918 0
M  V30 2794 C 275.673 4.25041 0.352501 0
M  V30 2795 S 276.506 5.27757 -0.907322 0
M  V30 2796 C 277.662 6.25812 0.104796 0
M  V30 2797 H 277.895 2.88403 -0.721858 0
M  V30 2798 H 275.428 1.46452 -0.488996 0
M  V30 2799 H 277.386 3.77655 1.60893 0
M  V30 2800 H 276.047 2.61566 1.73902 0
M  V30 2801 H 275.24 4.91437 1.11828 0
M  V30 2802 H 274.842 3.73682 -0.154254 0
M  V30 2803 H 277.134 6.70705 0.957103 0
M  V30 2804 H 278.077 7.06149 -0.525323 0
M  V30 2805 H 278.485 5.62615 0.460931 0
M  V30 2806 N 277.883 0.443576 1.51229 0
M  V30 2807 C 278.831 -0.37904 2.29491 0
M  V30 2808 C 279.825 -1.0153 1.35603 0
M  V30 2809 O 281.031 -0.94955 1.52917 0
M  V30 2810 H 277.406 -0.141053 0.738653 0
M  V30 2811 H 279.377 0.301799 2.9687 0
M  V30 2812 C 278.126 -1.46426 3.15364 0
M  V30 2813 H 277.449 -0.984037 3.87501 0
M  V30 2814 H 278.889 -2.01297 3.7317 0
M  V30 2815 C 277.348 -2.45099 2.31146 0
M  V30 2816 O 277.878 -3.49773 1.9754 0
M  V30 2817 N 276.084 -2.16139 1.94249 0
M  V30 2818 H 275.631 -1.31044 2.21777 0
M  V30 2819 H 275.589 -2.82398 1.38198 0
M  V30 2820 N 279.361 -1.56624 0.175154 0
M  V30 2821 C 280.609 -1.96609 -0.467885 0
M  V30 2822 C 280.93 -1.06238 -1.63519 0
M  V30 2823 O 280.2 -0.129523 -1.95471 0
M  V30 2824 H 278.78 -0.726008 -0.175845 0
M  V30 2825 H 281.442 -1.93195 0.257234 0
M  V30 2826 H 280.538 -3.00989 -0.825342 0
M  V30 2827 N 280.839 0.0985539 -1.57292 0
M  V30 2828 C 281.802 1.10402 -2.00858 0
M  V30 2829 C 282.802 1.33146 -0.901593 0
M  V30 2830 O 283.992 1.29318 -1.16716 0
M  V30 2831 C 281.124 2.45394 -2.36632 0
M  V30 2832 H 282.317 0.729099 -2.90902 0
M  V30 2833 H 279.87 0.343495 -1.52479 0
M  V30 2834 H 280.605 2.87769 -1.49531 0
M  V30 2835 H 280.39 2.30235 -3.17387 0
M  V30 2836 H 281.88 3.17718 -2.71007 0
M  V30 2837 N 282.317 1.53212 0.369288 0
M  V30 2838 C 283.566 1.68436 1.10961 0
M  V30 2839 C 283.879 0.440738 1.9057 0
M  V30 2840 O 285.085 0.473446 2.6734 0
M  V30 2841 C 283.541 2.97744 2.0218 0
M  V30 2842 C 283.149 4.29355 1.279 0
M  V30 2843 C 284.893 3.22334 2.76226 0
M  V30 2844 C 282.8 5.49755 2.17999 0
M  V30 2845 H 281.73 0.627568 0.41794 0
M  V30 2846 H 284.381 1.79713 0.370884 0
M  V30 2847 H 282.763 2.8026 2.79768 0
M  V30 2848 H 283.937 4.57458 0.554007 0
M  V30 2849 H 282.252 4.11179 0.657311 0
M  V30 2850 H 284.849 4.09471 3.43857 0
M  V30 2851 H 285.192 2.38238 3.41392 0
M  V30 2852 H 285.725 3.40475 2.05723 0
M  V30 2853 H 282.464 6.36318 1.57417 0
M  V30 2854 H 281.984 5.25937 2.88359 0
M  V30 2855 H 283.663 5.84401 2.77641 0
M  V30 2856 N 283.795 -0.628877 1.44509 0
M  V30 2857 C 284.728 -1.75367 1.46019 0
M  V30 2858 C 285.706 -1.59444 0.318787 0
M  V30 2859 O 286.89 -1.81297 0.516099 0
M  V30 2860 C 284.017 -3.12965 1.29501 0
M  V30 2861 C 283.063 -3.47532 2.47233 0
M  V30 2862 S 283.896 -3.44758 4.09758 0
M  V30 2863 C 285.052 -4.84973 3.95667 0
M  V30 2864 H 285.285 -1.7382 2.41193 0
M  V30 2865 H 282.818 -0.803686 1.31834 0
M  V30 2866 H 284.776 -3.92367 1.20658 0
M  V30 2867 H 283.437 -3.12049 0.358341 0
M  V30 2868 H 282.63 -4.47664 2.31544 0
M  V30 2869 H 282.232 -2.75598 2.52828 0
M  V30 2870 H 284.524 -5.74255 3.59496 0
M  V30 2871 H 285.467 -5.05716 4.95638 0
M  V30 2872 H 285.875 -4.59653 3.27688 0
M  V30 2873 N 285.273 -1.31445 -0.869486 0
M  V30 2874 C 286.519 -1.21337 -1.62496 0
M  V30 2875 C 286.852 0.227872 -1.92858 0
M  V30 2876 O 286.127 1.16094 -1.56053 0
M  V30 2877 C 286.41 -2.05814 -2.95487 0
M  V30 2878 C 286.263 -3.5824 -2.72 0
M  V30 2879 C 287.582 -1.9079 -3.96594 0
M  V30 2880 H 284.701 -0.442135 -0.589649 0
M  V30 2881 H 287.343 -1.6124 -1.00507 0
M  V30 2882 H 285.493 -1.71913 -3.48394 0
M  V30 2883 H 287.165 -4.0228 -2.25762 0
M  V30 2884 H 285.408 -3.81647 -2.06224 0
M  V30 2885 H 286.079 -4.12657 -3.66631 0
M  V30 2886 H 288.555 -2.20459 -3.52898 0
M  V30 2887 H 287.431 -2.52199 -4.87531 0
M  V30 2888 H 287.692 -0.871341 -4.33428 0
M  V30 2889 N 286.751 1.08385 -1.14413 0
M  V30 2890 C 287.681 2.17321 -0.854044 0
M  V30 2891 C 288.662 1.69024 0.191049 0
M  V30 2892 O 289.847 1.94141 0.0476779 0
M  V30 2893 C 286.977 3.45719 -0.330983 0
M  V30 2894 C 285.931 4.07409 -1.31155 0
M  V30 2895 C 285.257 5.30762 -0.64778 0
M  V30 2896 C 286.557 4.48665 -2.67388 0
M  V30 2897 H 288.251 2.41845 -1.76498 0
M  V30 2898 H 285.797 1.16233 -0.850051 0
M  V30 2899 H 287.75 4.21241 -0.115645 0
M  V30 2900 H 286.474 3.2075 0.615381 0
M  V30 2901 H 285.133 3.33919 -1.51306 0
M  V30 2902 H 284.781 5.02078 0.304398 0
M  V30 2903 H 284.481 5.72992 -1.30207 0
M  V30 2904 H 286.005 6.08998 -0.441972 0
M  V30 2905 H 287.419 5.15364 -2.51143 0
M  V30 2906 H 285.816 5.01814 -3.29093 0
M  V30 2907 H 286.886 3.60543 -3.24248 0
M  V30 2908 N 288.23 0.939286 1.26551 0
M  V30 2909 C 289.641 0.628782 1.75793 0
M  V30 2910 C 289.992 -0.856046 1.7654 0
M  V30 2911 O 289.117 -1.66994 1.3763 0
M  V30 2912 C 289.712 1.13465 3.19235 0
M  V30 2913 C 288.271 0.874601 3.66098 0
M  V30 2914 C 287.418 1.28667 2.45642 0
M  V30 2915 H 290.369 1.1178 1.12654 0
M  V30 2916 H 290.39 0.487609 3.77363 0
M  V30 2917 H 289.902 2.21535 3.1866 0
M  V30 2918 H 288.003 -0.191793 3.72106 0
M  V30 2919 H 288.116 1.50028 4.55004 0
M  V30 2920 H 286.48 0.705109 2.44745 0
M  V30 2921 H 287.263 2.37625 2.47769 0
M  V30 2922 N 289.708 -1.40897 0.706093 0
M  V30 2923 C 291.124 -1.55042 0.37869 0
M  V30 2924 C 291.324 -1.67944 -1.11342 0
M  V30 2925 O 290.38 -1.66372 -1.89938 0
M  V30 2926 C 291.693 -2.78398 1.13643 0
M  V30 2927 C 293.241 -2.92206 1.12181 0
M  V30 2928 C 293.716 -4.18463 1.86152 0
M  V30 2929 N 295.207 -4.25443 1.83173 0
M  V30 2930 C 295.942 -5.2202 2.37239 0
M  V30 2931 N 295.438 -6.24563 2.99821 0
M  V30 2932 N 297.231 -5.14033 2.27435 0
M  V30 2933 H 289.382 -1.30769 1.67372 0
M  V30 2934 H 291.645 -0.631653 0.706907 0
M  V30 2935 H 291.351 -2.7511 2.19106 0
M  V30 2936 H 291.225 -3.70228 0.721853 0
M  V30 2937 H 293.612 -2.95004 0.0754171 0
M  V30 2938 H 293.693 -2.01521 1.57554 0
M  V30 2939 H 293.337 -4.16427 2.90776 0
M  V30 2940 H 293.267 -5.08141 1.38206 0
M  V30 2941 H 295.758 -3.51976 1.37556 0
M  V30 2942 H 296.071 -6.94665 3.38616 0
M  V30 2943 H 294.416 -6.25035 3.03902 0
M  V30 2944 H 297.607 -4.3285 1.78208 0
M  V30 2945 H 297.78 -5.89129 2.69873 0
M  V30 2946 N 291.186 -0.45159 -1.50991 0
M  V30 2947 C 292.463 0.170707 -1.94854 0
M  V30 2948 C 292.843 1.58788 -1.39103 0
M  V30 2949 O 292.191 2.20913 -0.583921 0
M  V30 2950 C 292.401 0.133929 -3.48743 0
M  V30 2951 C 293.749 0.33248 -4.23296 0
M  V30 2952 O 294.773 0.211403 -3.55572 0
M  V30 2953 O 293.632 0.57486 -5.43468 0
M  V30 2954 H 290.726 0.122264 -0.817912 0
M  V30 2955 H 293.272 -0.510594 -1.61836 0
M  V30 2956 H 292.044 -0.856283 -3.81816 0
M  V30 2957 H 291.667 0.857529 -3.88242 0
M  V30 2958 N 292.664 1.56529 -0.183458 0
M  V30 2959 C 293.912 1.96855 0.457452 0
M  V30 2960 C 294.233 1.07104 1.62953 0
M  V30 2961 O 293.503 0.139887 1.954 0
M  V30 2962 H 292.083 0.72693 0.171992 0
M  V30 2963 H 294.745 1.93056 -0.267476 0
M  V30 2964 H 293.841 3.01423 0.809368 0
M  V30 2965 N 294.142 -0.090211 1.57342 0
M  V30 2966 C 295.072 -1.10976 2.05443 0
M  V30 2967 C 296.053 -1.41482 0.944284 0
M  V30 2968 O 297.238 -1.51428 1.21586 0
M  V30 2969 C 294.368 -2.42831 2.48295 0
M  V30 2970 C 293.322 -2.26721 3.63018 0
M  V30 2971 C 292.648 -3.63796 3.91863 0
M  V30 2972 C 293.948 -1.7037 4.93732 0
M  V30 2973 H 295.642 -0.709564 2.9087 0
M  V30 2974 H 293.188 -0.339874 1.39932 0
M  V30 2975 H 295.141 -3.14431 2.80555 0
M  V30 2976 H 293.865 -2.84795 1.59873 0
M  V30 2977 H 292.524 -1.57565 3.31012 0
M  V30 2978 H 292.172 -4.03297 3.00601 0
M  V30 2979 H 291.872 -3.53861 4.69101 0
M  V30 2980 H 293.396 -4.36855 4.26603 0
M  V30 2981 H 294.81 -2.31816 5.24342 0
M  V30 2982 H 293.207 -1.71181 5.75167 0
M  V30 2983 H 294.277 -0.663542 4.80339 0
M  V30 2984 N 295.62 -1.53406 -0.361157 0
M  V30 2985 C 296.567 -1.80156 -1.44265 0
M  V30 2986 C 297.537 -0.646183 -1.53015 0
M  V30 2987 O 298.722 -0.888818 -1.68833 0
M  V30 2988 C 295.862 -2.00116 -2.81154 0
M  V30 2989 C 294.975 -3.27833 -2.81335 0
M  V30 2990 C 294.11 -3.37957 -4.09828 0
M  V30 2991 C 293.149 -4.59689 -4.04168 0
M  V30 2992 N 292.286 -4.66942 -5.24318 0
M  V30 2993 H 297.126 -2.72438 -1.20754 0
M  V30 2994 H 294.663 -1.34954 -0.585296 0
M  V30 2995 H 296.621 -2.09677 -3.60682 0
M  V30 2996 H 295.251 -1.11167 -3.03054 0
M  V30 2997 H 294.303 -3.27204 -1.94014 0
M  V30 2998 H 295.615 -4.17442 -2.73027 0
M  V30 2999 H 294.769 -3.46853 -4.97773 0
M  V30 3000 H 293.508 -2.46372 -4.20894 0
M  V30 3001 H 292.513 -4.50889 -3.14609 0
M  V30 3002 H 293.738 -5.5262 -3.947 0
M  V30 3003 H 291.684 -3.7826 -5.35962 0
M  V30 3004 H 291.601 -5.50462 -5.18197 0
M  V30 3005 H 292.869 -4.80127 -6.14084 0
M  V30 3006 N 297.098 0.621204 -1.44841 0
M  V30 3007 C 298.375 1.38 -1.38619 0
M  V30 3008 C 298.755 2.11041 -0.0498935 0
M  V30 3009 O 298.103 2.06992 0.967816 0
M  V30 3010 C 298.313 2.33817 -2.59096 0
M  V30 3011 C 299.661 2.96844 -3.03593 0
M  V30 3012 O 300.685 2.44141 -2.59371 0
M  V30 3013 O 299.544 3.92476 -3.80296 0
M  V30 3014 H 296.638 0.61811 -0.549426 0
M  V30 3015 H 299.184 0.645429 -1.56947 0
M  V30 3016 H 297.956 1.79012 -3.47952 0
M  V30 3017 H 297.579 3.14676 -2.43032 0
M  V30 3018 N 298.576 1.31904 0.862503 0
M  V30 3019 C 299.486 1.22161 2.00285 0
M  V30 3020 C 300.502 0.136785 1.73462 0
M  V30 3021 O 301.678 0.355994 1.98229 0
M  V30 3022 C 298.743 0.937093 3.33796 0
M  V30 3023 C 297.804 2.10957 3.73893 0
M  V30 3024 C 297.037 1.83853 5.01033 0
M  V30 3025 O 297.26 0.777274 5.65079 0
M  V30 3026 O 296.194 2.69741 5.38074 0
M  V30 3027 H 300.02 2.18008 2.11439 0
M  V30 3028 H 297.605 1.11716 0.991957 0
M  V30 3029 H 299.487 0.794583 4.13841 0
M  V30 3030 H 298.162 0.00871894 3.23699 0
M  V30 3031 H 297.069 2.30752 2.94456 0
M  V30 3032 H 298.402 3.02046 3.88625 0
M  V30 3033 N 300.054 -1.07777 1.14986 0
M  V30 3034 C 301.001 -2.14867 0.842672 0
M  V30 3035 C 301.971 -1.6486 -0.202552 0
M  V30 3036 O 303.156 -1.90668 -0.0710568 0
M  V30 3037 C 300.296 -3.43486 0.333363 0
M  V30 3038 C 299.409 -4.07306 1.43965 0
M  V30 3039 C 298.544 -5.23744 0.886914 0
M  V30 3040 C 297.583 -5.79517 1.97043 0
M  V30 3041 N 296.72 -6.87291 1.4344 0
M  V30 3042 H 301.56 -2.40485 1.75986 0
M  V30 3043 H 299.097 -1.1801 0.878179 0
M  V30 3044 H 301.055 -4.17195 0.0198163 0
M  V30 3045 H 299.685 -3.18133 -0.546916 0
M  V30 3046 H 298.737 -3.31293 1.86946 0
M  V30 3047 H 300.049 -4.44771 2.25788 0
M  V30 3048 H 299.203 -6.04419 0.525651 0
M  V30 3049 H 297.942 -4.87685 0.0377957 0
M  V30 3050 H 296.947 -4.97491 2.34057 0
M  V30 3051 H 298.172 -6.17632 2.82325 0
M  V30 3052 H 296.118 -6.5318 0.607567 0
M  V30 3053 H 296.035 -7.23617 2.18895 0
M  V30 3054 H 297.303 -7.71682 1.10124 0
M  V30 3055 N 301.532 -0.945985 -1.26051 0
M  V30 3056 C 302.78 -0.594941 -1.93145 0
M  V30 3057 C 303.101 0.86953 -1.7454 0
M  V30 3058 O 302.371 1.61838 -1.10387 0
M  V30 3059 H 300.951 -0.217044 -0.714773 0
M  V30 3060 H 303.613 -1.20235 -1.53393 0
M  V30 3061 H 302.709 -0.816835 -3.01221 0
M  V30 3062 N 303.011 1.40521 -0.713556 0
M  V30 3063 C 303.943 2.29191 -0.0203126 0
M  V30 3064 C 304.956 1.45723 0.725864 0
M  V30 3065 O 306.145 1.69033 0.573581 0
M  V30 3066 C 303.245 3.2395 0.995486 0
M  V30 3067 C 302.418 4.36262 0.315256 0
M  V30 3068 C 301.477 5.11474 1.23616 0
M  V30 3069 O 300.503 5.64606 0.721719 0
M  V30 3070 N 301.705 5.20638 2.56743 0
M  V30 3071 H 304.47 2.89327 -0.781652 0
M  V30 3072 H 302.031 1.51869 -0.561022 0
M  V30 3073 H 304.023 3.71137 1.61368 0
M  V30 3074 H 302.593 2.64995 1.6582 0
M  V30 3075 H 301.813 3.91228 -0.483106 0
M  V30 3076 H 303.101 5.08558 -0.157004 0
M  V30 3077 H 302.499 4.7895 3.01037 0
M  V30 3078 H 301.056 5.71339 3.13712 0
M  V30 3079 N 304.489 0.459591 1.5075 0
M  V30 3080 C 305.9 0.00171547 1.867 0
M  V30 3081 C 306.251 -1.39934 1.37525 0
M  V30 3082 O 305.376 -2.03523 0.735349 0
M  V30 3083 C 305.971 -0.00366298 3.388 0
M  V30 3084 C 304.53 -0.406026 3.74204 0
M  V30 3085 C 303.677 0.38673 2.7459 0
M  V30 3086 H 306.628 0.674413 1.43657 0
M  V30 3087 H 306.649 -0.808371 3.71814 0
M  V30 3088 H 306.161 1.01617 3.74561 0
M  V30 3089 H 304.262 -1.43063 3.4404 0
M  V30 3090 H 304.375 -0.115362 4.78961 0
M  V30 3091 H 302.739 -0.158019 2.54209 0
M  V30 3092 H 303.522 1.40585 3.13194 0
M  V30 3093 N 305.967 -1.56429 0.191757 0
M  V30 3094 C 306.897 -2.21937 -0.725696 0
M  V30 3095 C 307.878 -1.1814 -1.2238 0
M  V30 3096 O 309.063 -1.46636 -1.27325 0
M  V30 3097 C 306.193 -2.87611 -1.94672 0
M  V30 3098 C 305.147 -3.97623 -1.58366 0
M  V30 3099 C 304.473 -4.50446 -2.88102 0
M  V30 3100 C 305.773 -5.16197 -0.796133 0
M  V30 3101 H 307.467 -2.98861 -0.179606 0
M  V30 3102 H 305.013 -1.43749 -0.0849464 0
M  V30 3103 H 306.966 -3.3212 -2.59373 0
M  V30 3104 H 305.69 -2.08087 -2.51728 0
M  V30 3105 H 304.349 -3.53801 -0.960247 0
M  V30 3106 H 303.997 -3.67688 -3.43241 0
M  V30 3107 H 303.697 -5.24675 -2.64556 0
M  V30 3108 H 305.221 -4.97654 -3.53798 0
M  V30 3109 H 306.635 -5.57271 -1.34618 0
M  V30 3110 H 305.032 -5.96471 -0.658928 0
M  V30 3111 H 306.102 -4.84473 0.203478 0
M  V30 3112 N 307.445 0.0818655 -1.57387 0
M  V30 3113 C 308.673 0.796108 -1.9097 0
M  V30 3114 C 309.088 1.71626 -0.786757 0
M  V30 3115 O 308.445 1.80908 0.240513 0
M  V30 3116 C 308.496 1.59829 -3.24248 0
M  V30 3117 O 308.217 0.715131 -4.32224 0
M  V30 3118 C 309.718 2.41442 -3.7178 0
M  V30 3119 H 306.938 0.22691 -0.631469 0
M  V30 3120 H 309.482 0.0551439 -2.04426 0
M  V30 3121 H 307.637 2.29163 -3.12351 0
M  V30 3122 H 308.051 1.27205 -5.08841 0
M  V30 3123 H 309.525 2.932 -4.67694 0
M  V30 3124 H 310.002 3.2051 -3.00283 0
M  V30 3125 H 310.608 1.77283 -3.86589 0
M  V30 3126 N 308.923 1.53595 0.353017 0
M  V30 3127 C 310.153 1.74058 1.11299 0
M  V30 3128 C 310.561 0.475205 1.83135 0
M  V30 3129 O 309.904 -0.562344 1.74881 0
M  V30 3130 C 309.966 2.85994 2.17825 0
M  V30 3131 C 309.63 4.25923 1.65647 0
M  V30 3132 C 310.627 5.07829 1.11383 0
M  V30 3133 C 308.312 4.72377 1.7078 0
M  V30 3134 C 310.306 6.34285 0.629439 0
M  V30 3135 C 307.993 5.98808 1.21953 0
M  V30 3136 C 308.991 6.79594 0.681265 0
M  V30 3137 O 308.679 8.03651 0.200248 0
M  V30 3138 H 308.411 0.585327 0.338183 0
M  V30 3139 H 310.965 2.01186 0.413927 0
M  V30 3140 H 309.195 2.54368 2.91262 0
M  V30 3141 H 310.884 2.94515 2.79313 0
M  V30 3142 H 311.65 4.73107 1.06746 0
M  V30 3143 H 307.529 4.0956 2.11617 0
M  V30 3144 H 311.073 6.97288 0.208636 0
M  V30 3145 H 306.97 6.33026 1.26287 0
M  V30 3146 H 307.738 8.1788 0.318416 0
M  V30 3147 N 310.401 -0.613514 1.45168 0
M  V30 3148 C 311.678 -1.37263 1.39349 0
M  V30 3149 C 312.058 -2.11012 0.0610848 0
M  V30 3150 O 311.406 -2.07502 -0.956825 0
M  V30 3151 C 311.616 -2.3244 2.60332 0
M  V30 3152 C 312.964 -2.9523 3.05163 0
M  V30 3153 O 313.988 -2.42762 2.60663 0
M  V30 3154 O 312.847 -3.90454 3.82372 0
M  V30 3155 H 309.941 -0.615188 0.552696 0
M  V30 3156 H 312.487 -0.637097 1.57287 0
M  V30 3157 H 311.259 -1.77164 3.48896 0
M  V30 3158 H 310.882 -3.13383 2.44698 0
M  V30 3159 N 311.879 -1.3236 -0.855495 0
M  V30 3160 C 312.826 -1.21225 -1.964 0
M  V30 3161 C 313.796 -0.0946204 -1.6583 0
M  V30 3162 O 314.981 -0.27002 -1.8888 0
M  V30 3163 C 312.121 -0.940419 -3.32039 0
M  V30 3164 C 311.234 -2.14276 -3.75113 0
M  V30 3165 C 310.369 -1.80648 -4.9954 0
M  V30 3166 C 309.408 -2.97208 -5.35102 0
M  V30 3167 N 308.545 -2.63678 -6.50706 0
M  V30 3168 H 313.385 -2.16042 -2.05255 0
M  V30 3169 H 310.922 -1.07451 -1.00463 0
M  V30 3170 H 312.88 -0.763311 -4.10158 0
M  V30 3171 H 311.51 -0.0290413 -3.22787 0
M  V30 3172 H 310.562 -2.43017 -2.92655 0
M  V30 3173 H 311.874 -3.01468 -3.97389 0
M  V30 3174 H 311.028 -1.59484 -5.85363 0
M  V30 3175 H 309.767 -0.906678 -4.79198 0
M  V30 3176 H 308.772 -3.19004 -4.47791 0
M  V30 3177 H 309.997 -3.87918 -5.57401 0
M  V30 3178 H 307.943 -1.76238 -6.31883 0
M  V30 3179 H 307.86 -3.444 -6.72997 0
M  V30 3180 H 309.128 -2.45942 -7.39684 0
M  V30 3181 N 313.357 1.07166 -1.15556 0
M  V30 3182 C 314.606 1.79181 -0.926132 0
M  V30 3183 C 314.919 1.87768 0.547967 0
M  V30 3184 O 316.125 2.56323 0.895036 0
M  V30 3185 C 314.581 3.22 -1.60761 0
M  V30 3186 C 314.189 3.21607 -3.11886 0
M  V30 3187 C 315.933 3.9861 -1.4598 0
M  V30 3188 C 313.84 4.59092 -3.72812 0
M  V30 3189 H 312.77 0.67154 -0.342856 0
M  V30 3190 H 315.421 1.2027 -1.3859 0
M  V30 3191 H 313.803 3.81115 -1.07553 0
M  V30 3192 H 314.977 2.72127 -3.71865 0
M  V30 3193 H 313.292 2.58495 -3.2645 0
M  V30 3194 H 315.889 5.00225 -1.88888 0
M  V30 3195 H 316.232 4.143 -0.407541 0
M  V30 3196 H 316.765 3.45996 -1.96295 0
M  V30 3197 H 313.504 4.48606 -4.77946 0
M  V30 3198 H 313.024 5.08803 -3.17616 0
M  V30 3199 H 314.703 5.28059 -3.73848 0
M  V30 3200 N 314.835 0.952656 1.25548 0
M  V30 3201 C 316.065 0.622592 1.96996 0
M  V30 3202 C 316.473 -0.809112 1.71026 0
M  V30 3203 O 315.816 -1.55258 0.981861 0
M  V30 3204 C 315.878 0.798946 3.5051 0
M  V30 3205 C 315.542 2.20744 4.00151 0
M  V30 3206 C 316.539 3.18394 4.11001 0
M  V30 3207 C 314.224 2.5311 4.33867 0
M  V30 3208 C 316.218 4.46504 4.54877 0
M  V30 3209 C 313.905 3.8145 4.7743 0
M  V30 3210 C 314.903 4.77959 4.87897 0
M  V30 3211 O 314.591 6.04012 5.30494 0
M  V30 3212 H 314.323 0.232503 0.634758 0
M  V30 3213 H 316.877 1.2789 1.60728 0
M  V30 3214 H 315.107 0.0854903 3.86605 0
M  V30 3215 H 316.796 0.47023 4.03167 0
M  V30 3216 H 317.562 2.94715 3.85186 0
M  V30 3217 H 313.441 1.78719 4.24948 0
M  V30 3218 H 316.985 5.21835 4.62962 0
M  V30 3219 H 312.882 4.04936 5.0269 0
M  V30 3220 H 313.65 6.0736 5.48685 0
M  V30 3221 N 316.313 -1.40141 0.720998 0
M  V30 3222 C 317.543 -2.04798 0.27226 0
M  V30 3223 C 317.951 -1.54442 -1.09289 0
M  V30 3224 O 317.294 -0.698342 -1.69908 0
M  V30 3225 C 317.356 -3.59048 0.18027 0
M  V30 3226 C 317.02 -4.32317 1.48159 0
M  V30 3227 C 318.017 -4.59902 2.42458 0
M  V30 3228 C 315.702 -4.71125 1.74202 0
M  V30 3229 C 317.696 -5.25288 3.61042 0
M  V30 3230 C 315.383 -5.36242 2.93066 0
M  V30 3231 C 316.381 -5.63254 3.86308 0
M  V30 3232 O 316.069 -6.27024 5.03086 0
M  V30 3233 H 315.801 -0.665419 0.119139 0
M  V30 3234 H 318.355 -1.80436 0.981432 0
M  V30 3235 H 316.585 -3.82251 -0.58489 0
M  V30 3236 H 318.274 -4.05221 -0.234618 0
M  V30 3237 H 319.04 -4.30379 2.23604 0
M  V30 3238 H 314.919 -4.49466 1.02477 0
M  V30 3239 H 318.463 -5.46289 4.33837 0
M  V30 3240 H 314.36 -5.65185 3.11826 0
M  V30 3241 H 315.128 -6.4552 5.03235 0
M  V30 3242 N 317.792 -0.46758 -1.50504 0
M  V30 3243 C 319.038 0.0887532 -2.02606 0
M  V30 3244 C 319.371 1.39686 -1.34913 0
M  V30 3245 O 318.646 1.88644 -0.473694 0
M  V30 3246 C 318.929 0.276206 -3.59039 0
M  V30 3247 C 318.782 -1.05267 -4.37309 0
M  V30 3248 C 320.101 1.03235 -4.27821 0
M  V30 3249 H 317.22 0.0307814 -0.736357 0
M  V30 3250 H 319.862 -0.612485 -1.79857 0
M  V30 3251 H 318.012 0.8735 -3.78553 0
M  V30 3252 H 319.684 -1.68628 -4.29374 0
M  V30 3253 H 317.927 -1.65015 -4.01189 0
M  V30 3254 H 318.598 -0.875197 -5.45018 0
M  V30 3255 H 321.074 0.526111 -4.12761 0
M  V30 3256 H 319.95 1.1323 -5.37094 0
M  V30 3257 H 320.211 2.06806 -3.90748 0
M  V30 3258 N 319.27 1.56325 -0.20005 0
M  V30 3259 C 320.518 1.97329 0.436547 0
M  V30 3260 C 320.839 1.08826 1.61808 0
M  V30 3261 O 320.109 0.160604 1.95241 0
M  V30 3262 H 318.689 0.728714 0.164272 0
M  V30 3263 H 321.351 1.92761 -0.287937 0
M  V30 3264 H 320.447 3.02264 0.777353 0
M  V30 3265 N 320.748 -0.0735177 1.57428 0
M  V30 3266 C 321.658 -1.10547 2.06922 0
M  V30 3267 C 322.674 -1.42506 0.998402 0
M  V30 3268 O 323.85 -1.52717 1.31299 0
M  V30 3269 C 320.915 -2.40019 2.50184 0
M  V30 3270 C 319.976 -2.15046 3.71556 0
M  V30 3271 C 319.209 -3.38345 4.12745 0
M  V30 3272 O 319.432 -4.47399 3.53822 0
M  V30 3273 O 318.366 -3.2666 5.05546 0
M  V30 3274 H 322.192 -0.715013 2.95163 0
M  V30 3275 H 319.777 -0.287531 1.46607 0
M  V30 3276 H 321.659 -3.16218 2.78539 0
M  V30 3277 H 320.334 -2.78447 1.65072 0
M  V30 3278 H 319.241 -1.36558 3.48285 0
M  V30 3279 H 320.574 -1.81499 4.57514 0
M  V30 3280 N 322.226 -1.5378 -0.344866 0
M  V30 3281 C 323.158 -1.77988 -1.44406 0
M  V30 3282 C 324.171 -0.661138 -1.48771 0
M  V30 3283 O 325.36 -0.937842 -1.51877 0
M  V30 3284 C 322.46 -1.86345 -2.8307 0
M  V30 3285 C 321.633 -3.16256 -3.0216 0
M  V30 3286 C 320.692 -3.15588 -4.21059 0
M  V30 3287 O 319.718 -3.89314 -4.15239 0
M  V30 3288 N 320.92 -2.37864 -5.29529 0
M  V30 3289 H 323.685 -2.72839 -1.24012 0
M  V30 3290 H 321.246 -1.52814 -0.534737 0
M  V30 3291 H 323.238 -1.83351 -3.60783 0
M  V30 3292 H 321.808 -0.986858 -2.96614 0
M  V30 3293 H 321.028 -3.32385 -2.11929 0
M  V30 3294 H 322.316 -4.0207 -3.11797 0
M  V30 3295 H 321.714 -1.77514 -5.37127 0
M  V30 3296 H 320.271 -2.40668 -6.05741 0
M  V30 3297 N 323.704 0.605807 -1.45491 0
M  V30 3298 C 324.981 1.36522 -1.40075 0
M  V30 3299 C 325.361 2.10976 -0.0722744 0
M  V30 3300 O 324.709 2.08007 0.945808 0
M  V30 3301 C 324.919 2.31056 -2.61561 0
M  V30 3302 C 326.267 2.93608 -3.06724 0
M  V30 3303 O 327.291 2.41376 -2.61946 0
M  V30 3304 O 326.15 3.88421 -3.84437 0
M  V30 3305 H 323.244 0.612248 -0.555951 0
M  V30 3306 H 325.79 0.628747 -1.57623 0
M  V30 3307 H 324.562 1.75311 -3.49831 0
M  V30 3308 H 324.185 3.12081 -2.46356 0
M  V30 3309 N 325.182 1.32811 0.848464 0
M  V30 3310 C 326.429 1.23724 1.60308 0
M  V30 3311 C 326.757 -0.1994 1.93475 0
M  V30 3312 O 326.012 -1.15406 1.5805 0
M  V30 3313 C 326.311 2.04831 2.92881 0
M  V30 3314 C 325.977 3.54125 2.79117 0
M  V30 3315 C 324.639 3.94829 2.7507 0
M  V30 3316 C 326.991 4.49036 2.64606 0
M  V30 3317 C 324.319 5.28675 2.544 0
M  V30 3318 C 326.671 5.83033 2.4547 0
M  V30 3319 C 325.335 6.22931 2.39819 0
M  V30 3320 H 324.605 0.452737 0.586609 0
M  V30 3321 H 327.252 1.64301 0.983743 0
M  V30 3322 H 325.557 1.57001 3.58968 0
M  V30 3323 H 327.254 1.95164 3.50303 0
M  V30 3324 H 323.844 3.21801 2.83094 0
M  V30 3325 H 328.028 4.18505 2.66772 0
M  V30 3326 H 323.284 5.58637 2.48465 0
M  V30 3327 H 327.458 6.56186 2.33222 0
M  V30 3328 H 325.085 7.26584 2.23562 0
M  V30 3329 N 326.66 -1.06551 1.16123 0
M  V30 3330 C 327.89 -1.8274 0.963838 0
M  V30 3331 C 328.298 -1.82712 -0.491228 0
M  V30 3332 O 327.641 -1.24294 -1.35265 0
M  V30 3333 C 327.703 -3.3065 1.41106 0
M  V30 3334 C 327.367 -3.54384 2.88549 0
M  V30 3335 C 328.364 -3.4765 3.86569 0
M  V30 3336 C 326.049 -3.81789 3.26408 0
M  V30 3337 C 328.043 -3.67982 5.2045 0
M  V30 3338 C 325.73 -4.01772 4.60459 0
M  V30 3339 C 326.728 -3.94866 5.57288 0
M  V30 3340 O 326.416 -4.14306 6.88916 0
M  V30 3341 H 326.148 -0.583136 0.341948 0
M  V30 3342 H 328.702 -1.35351 1.54497 0
M  V30 3343 H 326.932 -3.78887 0.773394 0
M  V30 3344 H 328.621 -3.88324 1.1815 0
M  V30 3345 H 329.387 -3.2647 3.58667 0
M  V30 3346 H 325.266 -3.86276 2.51619 0
M  V30 3347 H 328.81 -3.62507 5.96015 0
M  V30 3348 H 324.707 -4.2244 4.88072 0
M  V30 3349 H 325.475 -4.31609 6.95454 0
M  V30 3350 N 328.138 -0.959301 -1.25041 0
M  V30 3351 C 329.384 -0.617525 -1.9317 0
M  V30 3352 C 329.717 0.843981 -1.74902 0
M  V30 3353 O 328.992 1.60615 -1.09696 0
M  V30 3354 C 329.275 -0.982736 -3.46431 0
M  V30 3355 C 329.128 -2.50032 -3.73904 0
M  V30 3356 C 330.447 -0.511176 -4.37121 0
M  V30 3357 H 327.566 -0.22582 -0.701552 0
M  V30 3358 H 330.208 -1.19679 -1.4757 0
M  V30 3359 H 328.358 -0.489806 -3.854 0
M  V30 3360 H 330.03 -3.06737 -3.44544 0
M  V30 3361 H 328.273 -2.93598 -3.19348 0
M  V30 3362 H 328.944 -2.70635 -4.81103 0
M  V30 3363 H 331.42 -0.934075 -4.0548 0
M  V30 3364 H 330.296 -0.795361 -5.43107 0
M  V30 3365 H 330.557 0.588834 -4.38161 0
M  V30 3366 N 329.616 1.39756 -0.72842 0
M  V30 3367 C 331.027 1.83498 -0.344289 0
M  V30 3368 C 331.378 1.60868 1.12321 0
M  V30 3369 O 330.503 1.09634 1.86573 0
M  V30 3370 C 331.098 3.33114 -0.618112 0
M  V30 3371 C 329.657 3.753 -0.287549 0
M  V30 3372 C 328.804 2.62831 -0.884048 0
M  V30 3373 H 331.755 1.28842 -0.926578 0
M  V30 3374 H 331.776 3.80334 0.112349 0
M  V30 3375 H 331.288 3.49553 -1.68625 0
M  V30 3376 H 329.389 3.64451 0.775012 0
M  V30 3377 H 329.502 4.72945 -0.765512 0
M  V30 3378 H 327.866 2.52792 -0.311149 0
M  V30 3379 H 328.649 2.82078 -1.95671 0
M  V30 3380 N 331.094 0.475555 1.50254 0
M  V30 3381 C 332.041 -0.316293 2.28622 0
M  V30 3382 C 333.011 -0.983227 1.33873 0
M  V30 3383 O 334.196 -0.994805 1.62814 0
M  V30 3384 C 331.336 -1.38975 3.1588 0
M  V30 3385 C 330.449 -0.737146 4.25664 0
M  V30 3386 C 329.584 -1.78887 5.00173 0
M  V30 3387 C 328.623 -1.11676 6.01826 0
M  V30 3388 N 327.76 -2.11154 6.69596 0
M  V30 3389 H 332.6 0.358297 2.95838 0
M  V30 3390 H 330.137 0.188541 1.45887 0
M  V30 3391 H 332.095 -2.02383 3.64825 0
M  V30 3392 H 330.725 -2.03344 2.50701 0
M  V30 3393 H 329.777 0.0096065 3.80399 0
M  V30 3394 H 331.089 -0.206816 4.98371 0
M  V30 3395 H 330.243 -2.49865 5.52859 0
M  V30 3396 H 328.982 -2.35302 4.27182 0
M  V30 3397 H 327.987 -0.392633 5.48396 0
M  V30 3398 H 329.212 -0.55945 6.76792 0
M  V30 3399 H 327.158 -2.66577 5.99394 0
M  V30 3400 H 327.075 -1.63118 7.38193 0
M  V30 3401 H 328.343 -2.81497 7.26897 0
M  V30 3402 N 332.573 -1.56217 0.208337 0
M  V30 3403 C 333.85 -1.89739 -0.475234 0
M  V30 3404 C 334.23 -1.1238 -1.78701 0
M  V30 3405 O 333.578 -0.228979 -2.2735 0
M  V30 3406 C 333.788 -3.42289 -0.681101 0
M  V30 3407 C 335.136 -4.12789 -0.994507 0
M  V30 3408 O 336.16 -3.47814 -0.768357 0
M  V30 3409 O 335.019 -5.27649 -1.42299 0
M  V30 3410 H 332.113 -0.788478 -0.249461 0
M  V30 3411 H 334.659 -1.67855 0.249538 0
M  V30 3412 H 333.431 -3.90534 0.244722 0
M  V30 3413 H 333.054 -3.69909 -1.45785 0
M  V30 3414 N 334.051 0.0651679 -1.57465 0
M  V30 3415 C 334.961 1.09448 -2.07505 0
M  V30 3416 C 335.977 1.41974 -1.00595 0
M  V30 3417 O 337.153 1.52018 -1.32107 0
M  V30 3418 C 334.218 2.38689 -2.51453 0
M  V30 3419 C 333.279 2.13073 -3.72691 0
M  V30 3420 C 332.512 3.36152 -4.14533 0
M  V30 3421 O 332.735 4.45517 -3.56189 0
M  V30 3422 O 331.669 3.23974 -5.07272 0
M  V30 3423 H 335.495 0.69935 -2.95538 0
M  V30 3424 H 333.08 0.279752 -1.46757 0
M  V30 3425 H 334.962 3.14736 -2.80212 0
M  V30 3426 H 333.637 2.77568 -1.66546 0
M  V30 3427 H 332.544 1.34709 -3.49005 0
M  V30 3428 H 333.877 1.79071 -4.5847 0
M  V30 3429 N 335.529 1.53961 0.336706 0
M  V30 3430 C 336.492 1.81724 1.39675 0
M  V30 3431 C 337.492 0.688532 1.45313 0
M  V30 3432 O 338.682 0.956829 1.45569 0
M  V30 3433 C 335.814 1.96543 2.78538 0
M  V30 3434 H 337.007 2.76424 1.16318 0
M  V30 3435 H 334.56 1.45478 0.571474 0
M  V30 3436 H 335.295 1.0401 3.07168 0
M  V30 3437 H 335.08 2.78665 2.75841 0
M  V30 3438 H 336.57 2.19516 3.5525 0
M  V30 3439 N 337.007 -0.598083 1.45811 0
M  V30 3440 C 338.255 -1.35413 1.50026 0
M  V30 3441 C 338.576 -1.94444 0.147177 0
M  V30 3442 O 337.846 -1.77701 -0.824571 0
M  V30 3443 H 336.426 -0.502727 0.552517 0
M  V30 3444 H 339.088 -0.701606 1.81834 0
M  V30 3445 H 338.184 -2.16871 2.2444 0
M  V30 3446 N 338.485 -1.33259 -0.841409 0
M  V30 3447 C 339.433 -1.23279 -1.97244 0
M  V30 3448 C 340.427 -0.134706 -1.68864 0
M  V30 3449 O 341.633 -0.298501 -1.77508 0
M  V30 3450 H 338.008 -0.382497 -0.647457 0
M  V30 3451 H 339.979 -2.18906 -2.02787 0
M  V30 3452 C 338.728 -0.986268 -3.33419 0
M  V30 3453 H 338.051 -1.82347 -3.55794 0
M  V30 3454 H 339.491 -0.956728 -4.13065 0
M  V30 3455 C 337.95 0.310842 -3.35463 0
M  V30 3456 O 338.48 1.31838 -3.79449 0
M  V30 3457 N 336.686 0.337485 -2.88634 0
M  V30 3458 H 336.233 -0.482967 -2.53032 0
M  V30 3459 H 336.191 1.20518 -2.90384 0
M  V30 3460 N 339.963 1.05934 -1.16686 0
M  V30 3461 C 341.193 1.82226 -0.973515 0
M  V30 3462 C 341.601 1.8297 0.481532 0
M  V30 3463 O 340.944 1.25009 1.34604 0
M  V30 3464 C 341.006 3.29897 -1.42858 0
M  V30 3465 C 340.67 3.52849 -2.90425 0
M  V30 3466 C 341.667 3.45595 -3.88407 0
M  V30 3467 C 339.352 3.80053 -3.28428 0
M  V30 3468 C 341.346 3.65217 -5.22394 0
M  V30 3469 C 339.033 3.99325 -4.62583 0
M  V30 3470 C 340.031 3.91905 -5.59374 0
M  V30 3471 O 339.719 4.10647 -6.91104 0
M  V30 3472 H 339.451 0.581314 -0.345036 0
M  V30 3473 H 342.005 1.3453 -1.55212 0
M  V30 3474 H 340.235 3.78472 -0.793477 0
M  V30 3475 H 341.924 3.87692 -1.20207 0
M  V30 3476 H 342.69 3.24564 -3.60393 0
M  V30 3477 H 338.569 3.84936 -2.53664 0
M  V30 3478 H 342.113 3.59341 -5.9793 0
M  V30 3479 H 338.01 4.19846 -4.90306 0
M  V30 3480 H 338.778 4.27915 -6.97733 0
M  V30 3481 N 341.441 0.965919 1.2453 0
M  V30 3482 C 342.388 0.49402 2.25451 0
M  V30 3483 C 343.358 -0.45948 1.59618 0
M  V30 3484 O 344.543 -0.370238 1.87173 0
M  V30 3485 C 341.683 -0.211359 3.44452 0
M  V30 3486 C 340.796 0.7807 4.24887 0
M  V30 3487 C 339.931 0.0516105 5.31175 0
M  V30 3488 C 338.97 1.03385 6.03306 0
M  V30 3489 N 338.107 0.334887 7.01301 0
M  V30 3490 H 342.947 1.35946 2.65184 0
M  V30 3491 H 340.484 0.681515 1.3036 0
M  V30 3492 H 342.442 -0.637 4.12308 0
M  V30 3493 H 341.072 -1.04077 3.05562 0
M  V30 3494 H 340.124 1.32479 3.56586 0
M  V30 3495 H 341.436 1.52978 4.74762 0
M  V30 3496 H 340.59 -0.432114 6.05159 0
M  V30 3497 H 339.329 -0.730179 4.82203 0
M  V30 3498 H 338.334 1.52847 5.28127 0
M  V30 3499 H 339.559 1.81606 6.54367 0
M  V30 3500 H 337.505 -0.427959 6.54603 0
M  V30 3501 H 337.422 1.02287 7.49048 0
M  V30 3502 H 338.69 -0.126928 7.79397 0
M  V30 3503 N 342.919 -1.39368 0.735821 0
M  V30 3504 C 343.866 -2.30599 0.0963825 0
M  V30 3505 C 344.836 -1.49257 -0.728794 0
M  V30 3506 O 346.021 -1.77941 -0.688588 0
M  V30 3507 C 343.161 -3.35596 -0.804305 0
M  V30 3508 C 342.274 -4.31987 0.0335761 0
M  V30 3509 C 341.409 -5.24053 -0.868461 0
M  V30 3510 C 340.448 -6.12095 -0.0258776 0
M  V30 3511 N 339.585 -6.96514 -0.883893 0
M  V30 3512 H 344.425 -2.8471 0.880002 0
M  V30 3513 H 341.962 -1.40188 0.445619 0
M  V30 3514 H 343.92 -3.95062 -1.34096 0
M  V30 3515 H 342.55 -2.82938 -1.55389 0
M  V30 3516 H 341.602 -3.74133 0.68766 0
M  V30 3517 H 342.914 -4.94074 0.685036 0
M  V30 3518 H 342.068 -5.88549 -1.47293 0
M  V30 3519 H 340.807 -4.62289 -1.5537 0
M  V30 3520 H 339.812 -5.4661 0.591386 0
M  V30 3521 H 341.037 -6.75923 0.656156 0
M  V30 3522 H 338.983 -6.37318 -1.55441 0
M  V30 3523 H 338.9 -7.55448 -0.288931 0
M  V30 3524 H 340.168 -7.65439 -1.4739 0
M  V30 3525 N 344.397 -0.483516 -1.5 0
M  V30 3526 C 345.627 0.0643896 -2.065 0
M  V30 3527 C 346.035 1.32949 -1.34615 0
M  V30 3528 O 345.378 1.79003 -0.412756 0
M  V30 3529 C 345.44 0.405983 -3.572 0
M  V30 3530 C 345.104 -0.758875 -4.50655 0
M  V30 3531 C 346.101 -1.64445 -4.93208 0
M  V30 3532 C 343.786 -0.952725 -4.93182 0
M  V30 3533 C 345.78 -2.70818 -5.77006 0
M  V30 3534 C 343.467 -2.01966 -5.76761 0
M  V30 3535 C 344.465 -2.89574 -6.18576 0
M  V30 3536 O 344.153 -3.94429 -7.00486 0
M  V30 3537 H 343.885 -0.00934786 -0.675935 0
M  V30 3538 H 346.439 -0.674959 -1.93993 0
M  V30 3539 H 344.669 1.19869 -3.67652 0
M  V30 3540 H 346.358 0.890433 -3.96013 0
M  V30 3541 H 347.124 -1.50643 -4.61012 0
M  V30 3542 H 343.003 -0.280247 -4.60147 0
M  V30 3543 H 346.547 -3.3923 -6.09565 0
M  V30 3544 H 342.444 -2.1577 -6.0837 0
M  V30 3545 H 343.212 -3.91568 -7.1876 0
M  V30 3546 N 345.875 1.56104 -0.216619 0
M  V30 3547 C 346.785 2.23694 0.706982 0
M  V30 3548 C 347.801 1.24295 1.21765 0
M  V30 3549 O 348.977 1.57094 1.2603 0
M  V30 3550 C 346.042 2.8998 1.90033 0
M  V30 3551 C 345.103 4.04708 1.43213 0
M  V30 3552 C 344.336 4.67824 2.56859 0
M  V30 3553 O 344.559 4.29913 3.74874 0
M  V30 3554 O 343.493 5.56905 2.28343 0
M  V30 3555 H 347.319 3.03272 0.161235 0
M  V30 3556 H 344.904 1.49394 0.0136177 0
M  V30 3557 H 346.786 3.31837 2.59735 0
M  V30 3558 H 345.461 2.13365 2.43428 0
M  V30 3559 H 344.368 3.6743 0.70327 0
M  V30 3560 H 345.701 4.83051 0.944615 0
M  V30 3561 N 347.353 -0.0568162 1.57498 0
M  V30 3562 C 348.581 -0.765626 1.92213 0
M  V30 3563 C 348.996 -1.70353 0.813961 0
M  V30 3564 O 348.353 -1.81268 -0.211701 0
M  V30 3565 C 348.404 -1.5465 3.2675 0
M  V30 3566 O 348.125 -0.646278 4.33307 0
M  V30 3567 C 349.626 -2.35497 3.75574 0
M  V30 3568 H 346.846 -0.216835 0.634999 0
M  V30 3569 H 349.39 -0.0226146 2.04487 0
M  V30 3570 H 347.545 -2.24165 3.15957 0
M  V30 3571 H 347.959 -1.19093 5.108 0
M  V30 3572 H 349.433 -2.85722 4.72299 0
M  V30 3573 H 349.91 -3.15692 3.05344 0
M  V30 3574 H 350.516 -1.7111 3.8936 0
M  V30 3575 N 348.832 -1.54138 -0.328536 0
M  V30 3576 C 350.243 -1.63395 -0.903272 0
M  V30 3577 C 350.594 -0.524828 -1.8905 0
M  V30 3578 O 349.719 0.343068 -2.13663 0
M  V30 3579 C 350.314 -2.9618 -1.64507 0
M  V30 3580 C 348.873 -3.0765 -2.1686 0
M  V30 3581 C 348.02 -2.58933 -0.992416 0
M  V30 3582 H 350.971 -1.58344 -0.106253 0
M  V30 3583 H 350.992 -2.86061 -2.50897 0
M  V30 3584 H 350.504 -3.76884 -0.926302 0
M  V30 3585 H 348.605 -2.31611 -2.91868 0
M  V30 3586 H 348.718 -4.1337 -2.42202 0
M  V30 3587 H 347.082 -2.14706 -1.37016 0
M  V30 3588 H 347.865 -3.42089 -0.288041 0
M  V30 3589 N 350.31 0.590341 -1.46126 0
M  V30 3590 C 351.558 1.34616 -1.50742 0
M  V30 3591 C 351.879 1.94363 -0.157486 0
M  V30 3592 O 351.149 1.78136 0.815136 0
M  V30 3593 H 349.729 0.499789 -0.555175 0
M  V30 3594 H 352.391 0.691953 -1.82203 0
M  V30 3595 H 351.487 2.15678 -2.25587 0
M  V30 3596 N 351.788 1.33704 0.83433 0
M  V30 3597 C 352.698 1.26382 1.97648 0
M  V30 3598 C 353.714 0.173548 1.73132 0
M  V30 3599 O 354.89 0.397962 1.97429 0
M  V30 3600 C 351.955 1.00769 3.31733 0
M  V30 3601 C 351.016 2.1884 3.69334 0
M  V30 3602 C 350.249 1.9444 4.9702 0
M  V30 3603 O 350.472 0.896961 5.63303 0
M  V30 3604 O 349.406 2.81093 5.32231 0
M  V30 3605 H 353.232 2.22444 2.06767 0
M  V30 3606 H 350.817 1.13795 0.968037 0
M  V30 3607 H 352.699 0.882186 4.12062 0
M  V30 3608 H 351.374 0.0773783 3.23608 0
M  V30 3609 H 350.281 2.36946 2.89495 0
M  V30 3610 H 351.614 3.10221 3.82131 0
M  V30 3611 N 353.266 -1.05314 1.17247 0
M  V30 3612 C 354.229 -2.112 0.890357 0
M  V30 3613 C 355.229 -1.60359 -0.118943 0
M  V30 3614 O 356.419 -1.73833 0.113086 0
M  V30 3615 C 353.551 -3.39266 0.333422 0
M  V30 3616 H 354.744 -2.37659 1.82916 0
M  V30 3617 H 352.297 -1.21538 0.982758 0
M  V30 3618 H 353.032 -3.18462 -0.612587 0
M  V30 3619 H 352.817 -3.77477 1.06082 0
M  V30 3620 H 354.307 -4.17315 0.154322 0
M  V30 3621 N 354.744 -0.972509 -1.24016 0
M  V30 3622 C 355.974 -0.653853 -1.9598 0
M  V30 3623 C 356.382 0.781801 -1.72292 0
M  V30 3624 O 355.725 1.53677 -1.00644 0
M  V30 3625 C 355.787 -0.854608 -3.49194 0
M  V30 3626 C 355.451 -2.27082 -3.96589 0
M  V30 3627 C 356.448 -3.24892 -4.05883 0
M  V30 3628 C 354.133 -2.5998 -4.29786 0
M  V30 3629 C 356.127 -4.53684 -4.47716 0
M  V30 3630 C 353.814 -3.88997 -4.71301 0
M  V30 3631 C 354.812 -4.85661 -4.80232 0
M  V30 3632 O 354.5 -6.12376 -5.20818 0
M  V30 3633 H 354.232 -0.242572 -0.630979 0
M  V30 3634 H 356.786 -1.30431 -1.58673 0
M  V30 3635 H 355.016 -0.146985 -3.86421 0
M  V30 3636 H 356.705 -0.534311 -4.02368 0
M  V30 3637 H 357.471 -3.00805 -3.80449 0
M  V30 3638 H 353.35 -1.85457 -4.22051 0
M  V30 3639 H 356.894 -5.29135 -4.54601 0
M  V30 3640 H 352.791 -4.12882 -4.96184 0
M  V30 3641 H 353.559 -6.16013 -5.38953 0
M  V30 3642 N 356.222 1.38976 -0.743202 0
M  V30 3643 C 357.132 2.3434 -0.110399 0
M  V30 3644 C 358.148 1.58741 0.712559 0
M  V30 3645 O 359.324 1.9099 0.639125 0
M  V30 3646 C 356.389 3.37812 0.780012 0
M  V30 3647 C 355.45 4.29263 -0.0561319 0
M  V30 3648 C 354.683 5.27793 0.791875 0
M  V30 3649 O 354.906 5.33043 2.03031 0
M  V30 3650 O 353.84 6.01512 0.216183 0
M  V30 3651 H 357.666 2.90129 -0.897714 0
M  V30 3652 H 355.251 1.40643 -0.503966 0
M  V30 3653 H 357.133 4.01194 1.28923 0
M  V30 3654 H 355.808 2.84395 1.546 0
M  V30 3655 H 354.715 3.69076 -0.611056 0
M  V30 3656 H 356.048 4.85907 -0.784531 0
M  V30 3657 N 357.7 0.491464 1.49741 0
M  V30 3658 C 358.977 -0.118984 1.95238 0
M  V30 3659 C 359.357 -1.55044 1.43264 0
M  V30 3660 O 358.705 -2.19287 0.642287 0
M  V30 3661 C 358.915 -0.0414187 3.48975 0
M  V30 3662 C 360.263 -0.220133 4.24029 0
M  V30 3663 O 361.287 -0.117055 3.56008 0
M  V30 3664 O 360.146 -0.430567 5.44801 0
M  V30 3665 H 357.24 -0.100536 0.820866 0
M  V30 3666 H 359.786 0.553322 1.60426 0
M  V30 3667 H 358.558 0.957214 3.79412 0
M  V30 3668 H 358.181 -0.754292 3.9038 0
M  V30 3669 N 359.178 -1.55987 0.224894 0
M  V30 3670 C 360.141 -2.19178 -0.670348 0
M  V30 3671 C 361.141 -1.15461 -1.11917 0
M  V30 3672 O 362.331 -1.40675 -1.02743 0
M  V30 3673 C 359.463 -2.81777 -1.9187 0
M  V30 3674 H 360.656 -2.99662 -0.119364 0
M  V30 3675 H 358.209 -1.5628 -0.0247128 0
M  V30 3676 H 358.944 -2.05172 -2.51147 0
M  V30 3677 H 358.729 -3.57732 -1.60531 0
M  V30 3678 H 360.219 -3.30205 -2.55645 0
M  V30 3679 N 360.656 0.0484629 -1.57525 0
M  V30 3680 C 361.902 0.744226 -1.88651 0
M  V30 3681 C 362.235 1.76029 -0.820212 0
M  V30 3682 O 361.51 1.93782 0.166985 0
M  V30 3683 C 361.793 1.43128 -3.30434 0
M  V30 3684 C 361.646 0.43005 -4.47739 0
M  V30 3685 C 362.965 2.37031 -3.70816 0
M  V30 3686 H 360.084 0.269089 -0.68612 0
M  V30 3687 H 362.726 0.00713532 -1.89999 0
M  V30 3688 H 360.876 2.05956 -3.29415 0
M  V30 3689 H 362.548 -0.194816 -4.60888 0
M  V30 3690 H 360.791 -0.252522 -4.33064 0
M  V30 3691 H 361.462 0.948874 -5.43783 0
M  V30 3692 H 363.938 1.84263 -3.73077 0
M  V30 3693 H 362.814 2.82094 -4.70865 0
M  V30 3694 H 363.075 3.22864 -3.02012 0
M  V30 3695 N 362.134 1.5431 0.320358 0
M  V30 3696 C 363.081 1.83918 1.39438 0
M  V30 3697 C 364.051 0.686525 1.51248 0
M  V30 3698 O 365.236 0.933269 1.66417 0
M  V30 3699 C 362.376 2.075 2.75749 0
M  V30 3700 C 361.489 3.35177 2.72544 0
M  V30 3701 C 360.624 3.48704 4.00723 0
M  V30 3702 C 359.663 4.70244 3.91838 0
M  V30 3703 N 358.8 4.80679 5.11754 0
M  V30 3704 H 363.64 2.75544 1.13489 0
M  V30 3705 H 361.177 1.36459 0.549309 0
M  V30 3706 H 363.135 2.19166 3.54996 0
M  V30 3707 H 361.765 1.19163 3 0
M  V30 3708 H 360.817 3.32233 1.85271 0
M  V30 3709 H 362.129 4.24534 2.61863 0
M  V30 3710 H 361.283 3.59928 4.88402 0
M  V30 3711 H 360.022 2.57445 4.14214 0
M  V30 3712 H 359.027 4.59072 3.02544 0
M  V30 3713 H 360.252 5.6289 3.7991 0
M  V30 3714 H 358.198 3.92337 5.25745 0
M  V30 3715 H 358.115 5.64007 5.0342 0
M  V30 3716 H 359.383 4.96239 6.01138 0
M  V30 3717 N 363.613 -0.582584 1.46437 0
M  V30 3718 C 364.576 -1.67366 1.56592 0
M  V30 3719 C 365.576 -1.54575 0.443072 0
M  V30 3720 O 366.766 -1.59191 0.707381 0
M  V30 3721 C 363.898 -3.06791 1.48634 0
M  V30 3722 H 365.091 -1.5972 2.5383 0
M  V30 3723 H 362.644 -0.800432 1.34249 0
M  V30 3724 H 363.379 -3.19993 0.526763 0
M  V30 3725 H 363.164 -3.17484 2.30101 0
M  V30 3726 H 364.654 -3.86218 1.58826 0
M  V30 3727 N 365.091 -1.34144 -0.827227 0
M  V30 3728 C 366.024 -1.19707 -1.94282 0
M  V30 3729 C 367.002 -0.0897256 -1.62352 0
M  V30 3730 O 368.186 -0.254095 -1.8678 0
M  V30 3731 C 365.313 -0.838646 -3.28153 0
M  V30 3732 C 364.359 -1.95514 -3.79047 0
M  V30 3733 S 365.192 -3.56793 -3.99323 0
M  V30 3734 C 366.348 -3.22983 -5.36127 0
M  V30 3735 H 366.581 -2.1414 -2.06231 0
M  V30 3736 H 364.114 -1.19121 -0.982321 0
M  V30 3737 H 366.072 -0.638637 -4.05502 0
M  V30 3738 H 364.733 0.0872776 -3.13979 0
M  V30 3739 H 363.926 -1.658 -4.75948 0
M  V30 3740 H 363.528 -2.11241 -3.08631 0
M  V30 3741 H 365.82 -2.74531 -6.19386 0
M  V30 3742 H 366.763 -4.19008 -5.70822 0
M  V30 3743 H 367.171 -2.59276 -5.01434 0
M  V30 3744 N 366.569 1.04691 -1.17803 0
M  V30 3745 C 367.985 1.29963 -0.926379 0
M  V30 3746 C 368.185 1.97251 0.411635 0
M  V30 3747 O 367.241 2.24922 1.14744 0
M  V30 3748 C 368.554 2.16447 -2.08737 0
M  V30 3749 C 370.102 2.29814 -2.12496 0
M  V30 3750 C 370.577 3.19661 -3.27995 0
M  V30 3751 N 372.068 3.27247 -3.27816 0
M  V30 3752 C 372.803 3.96906 -4.13827 0
M  V30 3753 N 372.299 4.6895 -5.09959 0
M  V30 3754 N 374.092 3.93122 -4.01761 0
M  V30 3755 H 366.243 0.594182 -2.0392 0
M  V30 3756 H 368.506 0.324649 -0.890678 0
M  V30 3757 H 368.212 1.74304 -3.05469 0
M  V30 3758 H 368.086 3.17103 -2.04268 0
M  V30 3759 H 370.473 2.71196 -1.16347 0
M  V30 3760 H 370.554 1.2877 -2.21025 0
M  V30 3761 H 370.198 2.78991 -4.24413 0
M  V30 3762 H 370.128 4.20722 -3.16703 0
M  V30 3763 H 372.619 2.75921 -2.58217 0
M  V30 3764 H 372.932 5.19679 -5.71974 0
M  V30 3765 H 371.277 4.67875 -5.13924 0
M  V30 3766 H 374.468 3.35967 -3.2595 0
M  V30 3767 H 374.641 4.47139 -4.6901 0
M  V30 3768 N 368.047 0.979072 1.23499 0
M  V30 3769 C 369.275 0.665202 1.95915 0
M  V30 3770 C 369.69 -0.767571 1.72493 0
M  V30 3771 O 369.047 -1.51635 1.01554 0
M  V30 3772 C 369.098 0.944438 3.48945 0
M  V30 3773 O 368.819 2.3209 3.71572 0
M  V30 3774 C 370.32 0.646336 4.38563 0
M  V30 3775 H 367.54 0.247218 0.623798 0
M  V30 3776 H 370.084 1.31009 1.57025 0
M  V30 3777 H 368.239 0.345575 3.85856 0
M  V30 3778 H 368.653 2.40957 4.65876 0
M  V30 3779 H 370.127 0.892091 5.44744 0
M  V30 3780 H 370.604 -0.419575 4.37191 0
M  V30 3781 H 371.21 1.22562 4.07258 0
M  V30 3782 N 369.525 -1.3858 0.750561 0
M  V30 3783 C 370.455 -2.33102 0.136237 0
M  V30 3784 C 371.436 -1.54713 -0.706965 0
M  V30 3785 O 372.621 -1.83043 -0.648769 0
M  V30 3786 C 369.751 -3.38882 -0.760017 0
M  V30 3787 C 368.705 -4.27995 -0.0197785 0
M  V30 3788 C 368.031 -5.24605 -1.03408 0
M  V30 3789 C 369.331 -5.09554 1.14684 0
M  V30 3790 H 371.025 -2.84726 0.925822 0
M  V30 3791 H 368.571 -1.36898 0.446654 0
M  V30 3792 H 370.524 -4.0397 -1.19943 0
M  V30 3793 H 369.248 -2.85734 -1.58189 0
M  V30 3794 H 367.907 -3.64409 0.400184 0
M  V30 3795 H 367.555 -4.67746 -1.84994 0
M  V30 3796 H 367.255 -5.85081 -0.543464 0
M  V30 3797 H 368.779 -5.9257 -1.47288 0
M  V30 3798 H 370.193 -5.67899 0.785118 0
M  V30 3799 H 368.59 -5.7925 1.56812 0
M  V30 3800 H 369.66 -4.4347 1.96118 0
M  V30 3801 N 371.003 -0.499398 -1.49478 0
M  V30 3802 C 372.231 0.0425456 -2.06856 0
M  V30 3803 C 372.646 1.30964 -1.35992 0
M  V30 3804 O 372.003 1.77172 -0.437762 0
M  V30 3805 C 372.054 0.301735 -3.60239 0
M  V30 3806 O 371.775 -0.915127 -4.28436 0
M  V30 3807 C 373.276 0.887499 -4.34325 0
M  V30 3808 H 370.496 -0.0197482 -0.670709 0
M  V30 3809 H 373.04 -0.696297 -1.92281 0
M  V30 3810 H 371.195 0.990556 -3.74522 0
M  V30 3811 H 371.609 -0.676993 -5.20113 0
M  V30 3812 H 373.083 1.01845 -5.42523 0
M  V30 3813 H 373.56 1.88488 -3.96698 0
M  V30 3814 H 374.166 0.236196 -4.24644 0
M  V30 3815 N 372.481 1.55866 -0.233164 0
M  V30 3816 C 373.892 1.847 0.272554 0
M  V30 3817 C 374.243 1.15477 1.58617 0
M  V30 3818 O 373.368 0.42841 2.12117 0
M  V30 3819 C 373.963 3.35071 0.501299 0
M  V30 3820 C 372.522 3.6418 0.951304 0
M  V30 3821 C 371.669 2.77292 0.0208209 0
M  V30 3822 H 374.62 1.52005 -0.456074 0
M  V30 3823 H 374.641 3.55906 1.34577 0
M  V30 3824 H 374.153 3.85424 -0.454936 0
M  V30 3825 H 372.254 3.19293 1.92049 0
M  V30 3826 H 372.367 4.72071 0.817675 0
M  V30 3827 H 370.731 2.49131 0.529723 0
M  V30 3828 H 371.514 3.30448 -0.93054 0
M  V30 3829 N 373.959 -0.0401083 1.57549 0
M  V30 3830 C 375.187 -0.745196 1.93014 0
M  V30 3831 C 375.602 -1.6948 0.831984 0
M  V30 3832 O 374.959 -1.81482 -0.192463 0
M  V30 3833 C 375.01 -1.51176 3.28372 0
M  V30 3834 O 374.731 -0.600284 4.33968 0
M  V30 3835 C 376.232 -2.315 3.78051 0
M  V30 3836 H 373.452 -0.210088 0.637263 0
M  V30 3837 H 375.996 -0.000924689 2.045 0
M  V30 3838 H 374.151 -2.20801 3.18317 0
M  V30 3839 H 374.565 -1.13669 5.12035 0
M  V30 3840 H 376.039 -2.80697 4.75303 0
M  V30 3841 H 376.516 -3.12436 3.08675 0
M  V30 3842 H 377.122 -1.66971 3.91153 0
M  V30 3843 N 375.437 -1.54477 -0.31217 0
M  V30 3844 C 376.387 -1.81037 -1.38598 0
M  V30 3845 C 377.371 -0.666941 -1.46426 0
M  V30 3846 O 378.563 -0.927269 -1.50767 0
M  V30 3847 C 375.692 -2.05127 -2.75277 0
M  V30 3848 C 374.778 -3.25624 -2.71716 0
M  V30 3849 N 375.169 -4.46428 -2.37773 0
M  V30 3850 C 373.467 -3.27427 -3.02833 0
M  V30 3851 C 374.168 -5.28406 -2.43232 0
M  V30 3852 N 373.144 -4.6586 -2.80135 0
M  V30 3853 H 376.946 -2.7201 -1.11301 0
M  V30 3854 H 374.46 -1.53826 -0.520705 0
M  V30 3855 H 376.457 -2.22299 -3.52688 0
M  V30 3856 H 375.117 -1.15416 -3.03495 0
M  V30 3857 H 376.128 -4.73227 -2.1042 0
M  V30 3858 H 372.805 -2.47786 -3.36018 0
M  V30 3859 H 374.195 -6.34903 -2.19882 0
M  V30 3860 N 376.915 0.57481 -1.46744 0
M  V30 3861 C 378.164 1.32898 -1.51727 0
M  V30 3862 C 378.477 1.948 -0.176692 0
M  V30 3863 O 379.683 2.71299 -0.104385 0
M  V30 3864 C 378.139 2.40901 -2.67385 0
M  V30 3865 C 377.747 1.85266 -4.07898 0
M  V30 3866 C 379.491 3.17609 -2.81646 0
M  V30 3867 C 377.398 2.90945 -5.14883 0
M  V30 3868 H 376.328 0.499631 -0.564699 0
M  V30 3869 H 378.979 0.612536 -1.72975 0
M  V30 3870 H 377.361 3.15379 -2.39483 0
M  V30 3871 H 378.535 1.17278 -4.45626 0
M  V30 3872 H 376.85 1.21199 -3.98371 0
M  V30 3873 H 379.447 3.96493 -3.58744 0
M  V30 3874 H 379.79 3.70696 -1.89448 0
M  V30 3875 H 380.323 2.50239 -3.09233 0
M  V30 3876 H 377.062 2.42736 -6.089 0
M  V30 3877 H 376.582 3.57398 -4.81691 0
M  V30 3878 H 378.261 3.54755 -5.41071 0
M  V30 3879 N 378.394 1.34581 0.820102 0
M  V30 3880 C 379.64 1.27285 1.57881 0
M  V30 3881 C 379.973 -0.156137 1.93571 0
M  V30 3882 O 379.248 -1.10222 1.60254 0
M  V30 3883 C 379.531 2.16639 2.87645 0
M  V30 3884 C 379.384 3.68088 2.58517 0
M  V30 3885 C 380.703 2.05378 3.8924 0
M  V30 3886 H 377.822 0.463714 0.572833 0
M  V30 3887 H 380.464 1.64859 0.944539 0
M  V30 3888 H 378.614 1.84725 3.41773 0
M  V30 3889 H 380.286 4.10382 2.10676 0
M  V30 3890 H 378.529 3.89038 1.91917 0
M  V30 3891 H 379.2 4.2598 3.51063 0
M  V30 3892 H 381.676 2.33404 3.44473 0
M  V30 3893 H 380.552 2.7012 4.77835 0
M  V30 3894 H 380.813 1.0316 4.29896 0
M  V30 3895 N 379.872 -1.04064 1.18357 0
M  V30 3896 C 381.119 -1.77265 0.978947 0
M  V30 3897 C 381.447 -1.88189 -0.491428 0
M  V30 3898 O 380.702 -1.38653 -1.38108 0
M  V30 3899 C 381.001 -3.20634 1.57888 0
M  V30 3900 C 380.667 -3.29743 3.07539 0
M  V30 3901 C 379.329 -3.31937 3.48384 0
M  V30 3902 C 381.681 -3.29841 4.03552 0
M  V30 3903 C 379.009 -3.3187 4.83818 0
M  V30 3904 C 381.361 -3.31313 5.38901 0
M  V30 3905 C 380.025 -3.31799 5.79194 0
M  V30 3906 H 379.295 -0.648659 0.358222 0
M  V30 3907 H 381.942 -1.22225 1.47422 0
M  V30 3908 H 380.247 -3.78675 1.00561 0
M  V30 3909 H 381.944 -3.75917 1.39598 0
M  V30 3910 H 378.534 -3.28757 2.74986 0
M  V30 3911 H 382.718 -3.27337 3.73047 0
M  V30 3912 H 377.974 -3.30562 5.14333 0
M  V30 3913 H 382.148 -3.30338 6.13066 0
M  V30 3914 H 379.775 -3.315 6.84114 0
M  V30 3915 N 381.35 -0.985608 -1.22978 0
M  V30 3916 C 382.298 -0.522631 -2.26652 0
M  V30 3917 C 383.292 0.422998 -1.64034 0
M  V30 3918 O 384.498 0.296319 -1.77544 0
M  V30 3919 H 380.873 -0.150597 -0.736766 0
M  V30 3920 H 382.844 -1.40863 -2.63059 0
M  V30 3921 C 381.593 0.154238 -3.47358 0
M  V30 3922 H 380.916 -0.564329 -3.95797 0
M  V30 3923 H 382.356 0.441744 -4.21693 0
M  V30 3924 C 380.815 1.38719 -3.07016 0
M  V30 3925 O 381.345 2.48307 -3.15764 0
M  V30 3926 N 379.551 1.25975 -2.61875 0
M  V30 3927 H 379.098 0.368068 -2.54957 0
M  V30 3928 H 379.056 2.08578 -2.3525 0
M  V30 3929 N 382.828 1.3818 -0.7579 0
M  V30 3930 C 384.076 1.99624 -0.315361 0
M  V30 3931 C 384.397 1.60464 1.10799 0
M  V30 3932 O 383.667 0.863507 1.75842 0
M  V30 3933 H 382.247 0.73831 -0.113611 0
M  V30 3934 H 384.909 1.68878 -0.972952 0
M  V30 3935 H 384.005 3.09754 -0.381931 0
M  V30 3936 N 384.306 0.507319 1.49211 0
M  V30 3937 C 385.269 -0.256763 2.27757 0
M  V30 3938 C 386.269 -0.888287 1.34038 0
M  V30 3939 O 387.459 -0.751841 1.5714 0
M  V30 3940 C 384.591 -1.36905 3.12202 0
M  V30 3941 H 385.784 0.432557 2.96764 0
M  V30 3942 H 383.337 0.262488 1.5408 0
M  V30 3943 H 384.072 -2.09233 2.47775 0
M  V30 3944 H 383.857 -0.921599 3.81115 0
M  V30 3945 H 385.347 -1.9071 3.7151 0
M  V30 3946 N 385.784 -1.5574 0.241426 0
M  V30 3947 C 387.03 -1.99104 -0.385406 0
M  V30 3948 C 387.363 -1.1293 -1.57988 0
M  V30 3949 O 386.638 -0.191449 -1.93555 0
M  V30 3950 C 386.921 -3.51087 -0.800616 0
M  V30 3951 C 386.774 -4.48028 0.398874 0
M  V30 3952 C 388.093 -4.08015 -1.64959 0
M  V30 3953 H 385.212 -0.723848 -0.138614 0
M  V30 3954 H 387.854 -1.86903 0.341642 0
M  V30 3955 H 386.004 -3.61615 -1.4201 0
M  V30 3956 H 387.676 -4.49487 1.03726 0
M  V30 3957 H 385.919 -4.21077 1.04293 0
M  V30 3958 H 386.59 -5.51962 0.0651056 0
M  V30 3959 H 389.066 -4.00555 -1.12672 0
M  V30 3960 H 387.942 -5.14635 -1.90898 0
M  V30 3961 H 388.203 -3.56131 -2.61961 0
M  V30 3962 N 387.262 0.0317525 -1.57568 0
M  V30 3963 C 388.51 0.721676 -1.88776 0
M  V30 3964 C 388.831 1.76039 -0.838772 0
M  V30 3965 O 388.101 1.95482 0.127935 0
M  V30 3966 H 386.681 0.269534 -0.696678 0
M  V30 3967 H 389.343 -0.00165879 -1.949 0
M  V30 3968 H 388.439 1.21293 -2.87566 0
M  V30 3969 N 388.74 1.54641 0.303973 0
M  V30 3970 C 389.703 1.84646 1.35789 0
M  V30 3971 C 390.703 0.7192 1.4382 0
M  V30 3972 O 391.893 0.987491 1.43507 0
M  V30 3973 C 389.025 2.02407 2.74307 0
M  V30 3974 H 390.218 2.78829 1.10429 0
M  V30 3975 H 387.771 1.46658 0.540487 0
M  V30 3976 H 388.506 1.10502 3.04893 0
M  V30 3977 H 388.291 2.84453 2.69868 0
M  V30 3978 H 389.781 2.27002 3.50514 0
M  V30 3979 N 390.218 -0.567019 1.47046 0
M  V30 3980 C 391.148 -1.68482 1.61667 0
M  V30 3981 C 392.129 -1.6358 0.466418 0
M  V30 3982 O 393.314 -1.81354 0.694574 0
M  V30 3983 C 390.444 -3.07124 1.62148 0
M  V30 3984 C 389.398 -3.26867 2.76301 0
M  V30 3985 C 388.724 -4.66196 2.61849 0
M  V30 3986 C 390.024 -3.13186 4.17986 0
M  V30 3987 H 391.718 -1.56502 2.5524 0
M  V30 3988 H 389.264 -0.751486 1.22836 0
M  V30 3989 H 391.217 -3.8516 1.70968 0
M  V30 3990 H 389.941 -3.2004 0.651287 0
M  V30 3991 H 388.6 -2.51237 2.66975 0
M  V30 3992 H 388.248 -4.75898 1.62879 0
M  V30 3993 H 387.948 -4.80356 3.38425 0
M  V30 3994 H 389.472 -5.46379 2.72584 0
M  V30 3995 H 390.886 -3.81049 4.2834 0
M  V30 3996 H 389.283 -3.3886 4.95272 0
M  V30 3997 H 390.353 -2.10057 4.3704 0
M  V30 3998 N 391.696 -1.35014 -0.812953 0
M  V30 3999 C 392.924 -1.31031 -1.6012 0
M  V30 4000 C 393.339 0.113558 -1.88458 0
M  V30 4001 O 392.696 1.06363 -1.48301 0
M  V30 4002 C 392.747 -2.10872 -2.93624 0
M  V30 4003 O 392.468 -3.47706 -2.66518 0
M  V30 4004 C 393.969 -2.14401 -3.88004 0
M  V30 4005 H 391.189 -0.45037 -0.497401 0
M  V30 4006 H 393.733 -1.77775 -1.01076 0
M  V30 4007 H 391.888 -1.67744 -3.492 0
M  V30 4008 H 392.302 -3.89097 -3.51715 0
M  V30 4009 H 393.776 -2.74669 -4.78812 0
M  V30 4010 H 394.253 -1.14105 -4.24119 0
M  V30 4011 H 394.859 -2.57662 -3.38364 0
M  V30 4012 N 393.175 1.03435 -1.18907 0
M  V30 4013 C 394.423 1.76394 -0.986382 0
M  V30 4014 C 394.744 1.88883 0.484567 0
M  V30 4015 O 394.014 1.41843 1.3512 0
M  V30 4016 H 392.594 0.65344 -0.361975 0
M  V30 4017 H 395.256 1.248 -1.49703 0
M  V30 4018 H 394.352 2.77424 -1.42978 0
M  V30 4019 N 394.653 0.992116 1.22453 0
M  V30 4020 C 395.93 0.583508 1.86694 0
M  V30 4021 C 396.31 -0.9392 1.89056 0
M  V30 4022 O 395.658 -1.82081 1.38053 0
M  V30 4023 C 395.868 1.20304 3.2761 0
M  V30 4024 C 397.216 1.30308 4.0411 0
M  V30 4025 O 398.24 1.15737 3.36873 0
M  V30 4026 O 397.099 1.53615 5.24466 0
M  V30 4027 H 394.193 0.198129 0.802916 0
M  V30 4028 H 396.739 1.08794 1.30238 0
M  V30 4029 H 395.511 2.24461 3.2052 0
M  V30 4030 H 395.134 0.684144 3.9167 0
M  V30 4031 N 396.131 -1.37776 0.765217 0
M  V30 4032 C 397.081 -2.2768 0.12075 0
M  V30 4033 C 398.065 -1.45778 -0.680988 0
M  V30 4034 O 399.257 -1.684 -0.545033 0
M  V30 4035 C 396.386 -3.34722 -0.762626 0
M  V30 4036 C 395.472 -4.24074 0.0465881 0
M  V30 4037 N 395.863 -4.93939 1.08892 0
M  V30 4038 C 394.161 -4.45643 -0.178418 0
M  V30 4039 C 394.862 -5.59845 1.57951 0
M  V30 4040 N 393.838 -5.36218 0.892797 0
M  V30 4041 H 397.64 -2.79166 0.918889 0
M  V30 4042 H 395.154 -1.50816 0.602353 0
M  V30 4043 H 397.151 -3.98031 -1.24005 0
M  V30 4044 H 395.811 -2.84793 -1.55959 0
M  V30 4045 H 396.822 -4.96572 1.47095 0
M  V30 4046 H 393.499 -4.06599 -0.9478 0
M  V30 4047 H 394.889 -6.25703 2.44838 0
M  V30 4048 N 397.609 -0.515225 -1.4894 0
M  V30 4049 C 398.572 0.244681 -2.2789 0
M  V30 4050 C 399.572 0.881166 -1.34507 0
M  V30 4051 O 400.762 0.743497 -1.57537 0
M  V30 4052 C 397.894 1.35247 -3.12923 0
M  V30 4053 H 399.087 -0.448289 -2.96531 0
M  V30 4054 H 396.64 -0.270656 -1.53939 0
M  V30 4055 H 397.375 2.07916 -2.48881 0
M  V30 4056 H 397.16 0.901374 -3.81599 0
M  V30 4057 H 398.65 1.88737 -3.72516 0
M  V30 4058 N 399.087 1.5561 -0.249682 0
M  V30 4059 C 400.017 2.24477 0.642826 0
M  V30 4060 C 400.998 1.22601 1.17911 0
M  V30 4061 O 402.183 1.5126 1.21795 0
M  V30 4062 C 399.313 2.94638 1.83863 0
M  V30 4063 C 398.267 4.03227 1.435 0
M  V30 4064 C 397.593 4.60828 2.71186 0
M  V30 4065 C 398.893 5.18796 0.604002 0
M  V30 4066 H 400.587 2.99321 0.0685625 0
M  V30 4067 H 398.133 1.43965 0.0315363 0
M  V30 4068 H 400.086 3.41517 2.46868 0
M  V30 4069 H 398.81 2.17287 2.43832 0
M  V30 4070 H 397.469 3.57121 0.828275 0
M  V30 4071 H 397.117 3.80174 3.29358 0
M  V30 4072 H 396.817 5.34132 2.44901 0
M  V30 4073 H 398.341 5.10442 3.35084 0
M  V30 4074 H 399.755 5.61883 1.13842 0
M  V30 4075 H 398.152 5.98506 0.437097 0
M  V30 4076 H 399.222 4.83384 -0.383147 0
M  V30 4077 N 400.565 -0.0233959 1.57583 0
M  V30 4078 C 401.793 -0.724682 1.93794 0
M  V30 4079 C 402.208 -1.68588 0.849912 0
M  V30 4080 O 401.565 -1.81676 -0.173204 0
M  V30 4081 C 401.616 -1.47684 3.29957 0
M  V30 4082 O 401.337 -0.554222 4.3458 0
M  V30 4083 C 402.838 -2.27477 3.80485 0
M  V30 4084 H 400.058 -0.203317 0.639455 0
M  V30 4085 H 402.602 0.0207653 2.04489 0
M  V30 4086 H 400.757 -2.17412 3.20641 0
M  V30 4087 H 401.171 -1.08232 5.13212 0
M  V30 4088 H 402.645 -2.7564 4.78254 0
M  V30 4089 H 403.122 -3.09144 3.11972 0
M  V30 4090 H 403.728 -1.62813 3.92902 0
M  V30 4091 N 402.043 -1.548 -0.295768 0
M  V30 4092 C 403.006 -1.85363 -1.34808 0
M  V30 4093 C 404.006 -0.726817 -1.43436 0
M  V30 4094 O 405.196 -0.995088 -1.42981 0
M  V30 4095 C 402.328 -2.03859 -2.73229 0
M  V30 4096 H 403.521 -2.7941 -1.08949 0
M  V30 4097 H 401.074 -1.46942 -0.532702 0
M  V30 4098 H 401.809 -1.12117 -3.04303 0
M  V30 4099 H 401.594 -2.8588 -2.68356 0
M  V30 4100 H 403.084 -2.28857 -3.49305 0
M  V30 4101 N 403.521 0.559213 -1.47345 0
M  V30 4102 C 404.484 1.64854 -1.59235 0
M  V30 4103 C 405.484 1.53851 -0.467607 0
M  V30 4104 O 406.674 1.58045 -0.732617 0
M  V30 4105 C 403.806 3.04388 -1.53496 0
M  V30 4106 H 404.999 1.55662 -2.56339 0
M  V30 4107 H 402.552 0.778973 -1.35505 0
M  V30 4108 H 403.287 3.19115 -0.577604 0
M  V30 4109 H 403.072 3.13783 -2.35123 0
M  V30 4110 H 404.562 3.83642 -1.6495 0
M  V30 4111 N 404.999 1.35443 0.805782 0
M  V30 4112 C 406.245 1.28952 1.56522 0
M  V30 4113 C 406.578 -0.135597 1.93726 0
M  V30 4114 O 405.853 -1.08516 1.61414 0
M  V30 4115 C 406.136 2.19678 2.85331 0
M  V30 4116 C 405.989 3.7081 2.54598 0
M  V30 4117 C 407.308 2.09495 3.8704 0
M  V30 4118 H 404.427 0.469764 0.567883 0
M  V30 4119 H 407.069 1.65851 0.927001 0
M  V30 4120 H 405.219 1.8834 3.39795 0
M  V30 4121 H 406.891 4.12593 2.06312 0
M  V30 4122 H 405.134 3.91051 1.8778 0
M  V30 4123 H 405.805 4.29679 3.46525 0
M  V30 4124 H 408.281 2.37045 3.41978 0
M  V30 4125 H 407.157 2.75173 4.74943 0
M  V30 4126 H 407.418 1.07714 4.28777 0
M  V30 4127 N 406.477 -1.02803 1.19454 0
M  V30 4128 C 407.725 -1.75869 0.995722 0
M  V30 4129 C 408.046 -1.89138 -0.474543 0
M  V30 4130 O 407.316 -1.42558 -1.34366 0
M  V30 4131 H 405.896 -0.651511 0.365435 0
M  V30 4132 H 408.558 -1.24004 1.50363 0
M  V30 4133 H 407.654 -2.76661 1.44447 0
M  V30 4134 N 407.956 -0.998596 -1.21925 0
M  V30 4135 C 408.866 -0.562736 -2.27751 0
M  V30 4136 C 409.882 0.391203 -1.69545 0
M  V30 4137 O 411.058 0.256625 -1.99758 0
M  V30 4138 C 408.123 0.11012 -3.46525 0
M  V30 4139 C 407.184 -0.887495 -4.20026 0
M  V30 4140 C 406.417 -0.246654 -5.3313 0
M  V30 4141 O 406.64 0.958088 -5.62296 0
M  V30 4142 O 405.574 -0.954374 -5.94286 0
M  V30 4143 H 409.4 -1.44329 -2.67213 0
M  V30 4144 H 406.985 -0.767135 -1.28201 0
M  V30 4145 H 408.867 0.486756 -4.18579 0
M  V30 4146 H 407.542 0.965154 -3.08976 0
M  V30 4147 H 406.449 -1.31517 -3.5022 0
M  V30 4148 H 407.782 -1.71191 -4.6147 0
M  V30 4149 N 409.434 1.37368 -0.772513 0
M  V30 4150 C 410.85 1.53059 -0.452231 0
M  V30 4151 C 411.05 1.73065 1.03203 0
M  V30 4152 O 410.106 1.75245 1.81784 0
M  V30 4153 C 411.419 2.72659 -1.26797 0
M  V30 4154 C 412.967 2.86521 -1.25995 0
M  V30 4155 C 413.442 4.09105 -2.05905 0
M  V30 4156 N 414.933 4.16219 -2.03263 0
M  V30 4157 C 415.668 5.10107 -2.61875 0
M  V30 4158 N 415.164 6.09547 -3.29278 0
M  V30 4159 N 416.957 5.02596 -2.51701 0
M  V30 4160 H 409.108 1.22634 -1.7342 0
M  V30 4161 H 411.371 0.597206 -0.736239 0
M  V30 4162 H 411.077 2.64343 -2.31982 0
M  V30 4163 H 410.951 3.66363 -0.897672 0
M  V30 4164 H 413.338 2.94308 -0.216081 0
M  V30 4165 H 413.419 1.93774 -1.66989 0
M  V30 4166 H 413.063 4.0208 -3.10313 0
M  V30 4167 H 412.993 5.00968 -1.62292 0
M  V30 4168 H 415.484 3.45012 -1.54192 0
M  V30 4169 H 415.797 6.77718 -3.71374 0
M  V30 4170 H 414.142 6.09824 -3.33377 0
M  V30 4171 H 417.333 4.23855 -1.98657 0
M  V30 4172 H 417.506 5.75582 -2.97673 0
M  V30 4173 N 410.912 0.523116 1.48665 0
M  V30 4174 C 412.158 -0.0134963 2.02796 0
M  V30 4175 C 412.491 -1.34582 1.40004 0
M  V30 4176 O 411.766 -1.86756 0.543381 0
M  V30 4177 C 412.049 -0.14276 3.59817 0
M  V30 4178 C 411.902 1.21425 4.331 0
M  V30 4179 C 413.221 -0.872856 4.31357 0
M  V30 4180 H 410.34 -0.00343074 0.736992 0
M  V30 4181 H 412.982 0.678816 1.7746 0
M  V30 4182 H 411.132 -0.732401 3.81534 0
M  V30 4183 H 412.804 1.84447 4.2282 0
M  V30 4184 H 411.047 1.79791 3.94788 0
M  V30 4185 H 411.718 1.07687 5.41394 0
M  V30 4186 H 414.194 -0.372555 4.14429 0
M  V30 4187 H 413.07 -0.932185 5.40927 0
M  V30 4188 H 413.331 -1.92161 3.98154 0
M  V30 4189 N 412.39 -1.55475 0.257931 0
M  V30 4190 C 413.32 -2.24815 -0.630912 0
M  V30 4191 C 414.301 -1.23224 -1.17259 0
M  V30 4192 O 415.486 -1.51904 -1.20991 0
M  V30 4193 C 412.616 -2.95609 -1.82298 0
M  V30 4194 C 411.57 -4.03982 -1.41359 0
M  V30 4195 C 410.896 -4.6226 -2.68738 0
M  V30 4196 C 412.196 -5.19109 -0.57648 0
M  V30 4197 H 413.89 -2.99354 -0.0526878 0
M  V30 4198 H 411.436 -1.4398 -0.023901 0
M  V30 4199 H 413.389 -3.42822 -2.45054 0
M  V30 4200 H 412.113 -2.18577 -2.42676 0
M  V30 4201 H 410.772 -3.57555 -0.809324 0
M  V30 4202 H 410.42 -3.81915 -3.27338 0
M  V30 4203 H 410.12 -5.35424 -2.42065 0
M  V30 4204 H 411.644 -5.12212 -3.32372 0
M  V30 4205 H 413.058 -5.62479 -1.10861 0
M  V30 4206 H 411.455 -5.98729 -0.405351 0
M  V30 4207 H 412.525 -4.83174 0.408776 0
M  V30 4208 N 413.868 0.0150385 -1.57593 0
M  V30 4209 C 415.114 0.704043 -1.90187 0
M  V30 4210 C 415.447 1.74249 -0.857366 0
M  V30 4211 O 414.722 1.94092 0.125843 0
M  V30 4212 C 415.005 1.36087 -3.33395 0
M  V30 4213 C 414.858 0.334981 -4.48551 0
M  V30 4214 C 416.177 2.29112 -3.7576 0
M  V30 4215 H 413.296 0.254475 -0.691673 0
M  V30 4216 H 415.938 -0.0331678 -1.89971 0
M  V30 4217 H 414.088 1.98922 -3.3371 0
M  V30 4218 H 415.76 -0.292534 -4.60372 0
M  V30 4219 H 414.003 -0.344325 -4.32431 0
M  V30 4220 H 414.674 0.833316 -5.45674 0
M  V30 4221 H 417.15 1.76308 -3.76902 0
M  V30 4222 H 416.026 2.72043 -4.76743 0
M  V30 4223 H 416.287 3.16385 -3.08793 0
M  V30 4224 N 415.346 1.54954 0.287554 0
M  V30 4225 C 416.592 1.75132 1.02257 0
M  V30 4226 C 416.925 0.542858 1.86458 0
M  V30 4227 O 416.2 -0.459856 1.88986 0
M  V30 4228 C 416.483 3.04812 1.91733 0
M  V30 4229 C 416.336 4.35985 1.10622 0
M  V30 4230 C 417.655 3.30438 2.90687 0
M  V30 4231 H 414.774 0.637194 0.370341 0
M  V30 4232 H 417.416 1.87678 0.296111 0
M  V30 4233 H 415.566 2.94247 2.53675 0
M  V30 4234 H 417.238 4.58487 0.508636 0
M  V30 4235 H 415.481 4.31865 0.409271 0
M  V30 4236 H 416.152 5.23017 1.76513 0
M  V30 4237 H 418.628 3.40701 2.38877 0
M  V30 4238 H 417.504 4.22467 3.50447 0
M  V30 4239 H 417.765 2.49377 3.65053 0
M  V30 4240 N 416.824 -0.551391 1.4764 0
M  V30 4241 C 417.774 -1.65362 1.56969 0
M  V30 4242 C 418.758 -1.55098 0.428189 0
M  V30 4243 O 419.95 -1.63481 0.678441 0
M  V30 4244 C 417.079 -3.04129 1.59249 0
M  V30 4245 C 416.165 -3.19576 2.78804 0
M  V30 4246 N 416.556 -3.05067 4.03445 0
M  V30 4247 C 414.854 -3.50588 2.75688 0
M  V30 4248 C 415.555 -3.2336 4.83543 0
M  V30 4249 N 414.531 -3.4996 4.15968 0
M  V30 4250 H 418.333 -1.52722 2.51104 0
M  V30 4251 H 415.847 -0.756303 1.43714 0
M  V30 4252 H 417.844 -3.83278 1.64024 0
M  V30 4253 H 416.504 -3.17877 0.662148 0
M  V30 4254 H 417.515 -2.82273 4.34215 0
M  V30 4255 H 414.192 -3.70827 1.91817 0
M  V30 4256 H 415.582 -3.17061 5.92387 0
M  V30 4257 N 418.302 -1.35869 -0.798587 0
M  V30 4258 C 419.527 -1.32883 -1.59238 0
M  V30 4259 C 419.952 0.0894587 -1.87887 0
M  V30 4260 O 419.31 1.05869 -1.47178 0
M  V30 4261 C 419.358 -2.14892 -2.89575 0
M  V30 4262 O 418.462 -1.53512 -3.82763 0
M  V30 4263 H 417.803 -0.455236 -0.48338 0
M  V30 4264 H 420.333 -1.79024 -0.990539 0
M  V30 4265 H 420.343 -2.27139 -3.38928 0
M  V30 4266 H 419.018 -3.17998 -2.68049 0
M  V30 4267 H 417.595 -1.50153 -3.41334 0
M  V30 4268 N 419.78 1.02168 -1.19998 0
M  V30 4269 C 420.712 2.10705 -0.901994 0
M  V30 4270 C 421.725 1.6244 0.108216 0
M  V30 4271 O 422.914 1.78082 -0.12214 0
M  V30 4272 C 420.014 3.37291 -0.329834 0
M  V30 4273 C 419.187 4.14714 -1.39035 0
M  V30 4274 C 418.246 5.19606 -0.830432 0
M  V30 4275 O 417.272 5.48809 -1.50989 0
M  V30 4276 N 418.474 5.79366 0.362696 0
M  V30 4277 H 421.239 2.36856 -1.83628 0
M  V30 4278 H 418.8 1.18518 -1.10296 0
M  V30 4279 H 420.792 4.04657 0.0587633 0
M  V30 4280 H 419.362 3.0843 0.508891 0
M  V30 4281 H 418.582 3.42392 -1.9535 0
M  V30 4282 H 419.87 4.63226 -2.10474 0
M  V30 4283 H 419.268 5.57968 0.932081 0
M  V30 4284 H 417.825 6.48106 0.69299 0
M  V30 4285 N 421.258 1.00505 1.21394 0
M  V30 4286 C 422.221 0.570459 2.21987 0
M  V30 4287 C 423.221 -0.353211 1.56873 0
M  V30 4288 O 424.411 -0.14349 1.73608 0
M  V30 4289 C 421.543 -0.168555 3.40483 0
M  V30 4290 H 422.736 1.46021 2.6195 0
M  V30 4291 H 420.289 0.793565 1.34656 0
M  V30 4292 H 421.024 -1.07374 3.06009 0
M  V30 4293 H 420.809 0.494823 3.88965 0
M  V30 4294 H 422.299 -0.460362 4.15055 0
M  V30 4295 N 422.737 -1.36956 0.779787 0
M  V30 4296 C 423.685 -2.32053 0.15942 0
M  V30 4297 C 424.679 -1.55333 -0.675878 0
M  V30 4298 O 425.885 -1.70668 -0.57204 0
M  V30 4299 H 422.26 -0.751286 0.0327707 0
M  V30 4300 H 424.231 -2.8195 0.977078 0
M  V30 4301 C 422.98 -3.40602 -0.698977 0
M  V30 4302 H 422.303 -3.99746 -0.0655966 0
M  V30 4303 H 423.743 -4.09486 -1.09989 0
M  V30 4304 C 422.202 -2.81359 -1.85307 0
M  V30 4305 O 422.732 -2.72751 -2.94906 0
M  V30 4306 N 420.938 -2.38786 -1.65619 0
M  V30 4307 H 420.485 -2.45987 -0.764725 0
M  V30 4308 H 420.443 -1.99493 -2.43002 0
M  V30 4309 N 424.215 -0.530993 -1.48385 0
M  V30 4310 C 425.631 -0.188919 -1.58478 0
M  V30 4311 C 425.831 1.30786 -1.53288 0
M  V30 4312 O 424.887 2.08619 -1.42248 0
M  V30 4313 C 426.2 -0.792343 -2.90073 0
M  V30 4314 C 427.748 -0.76117 -3.03604 0
M  V30 4315 C 428.223 -1.34319 -4.37861 0
M  V30 4316 N 429.714 -1.3052 -4.44431 0
M  V30 4317 C 430.449 -1.72543 -5.46824 0
M  V30 4318 N 429.945 -2.22299 -6.56167 0
M  V30 4319 N 431.738 -1.63773 -5.37712 0
M  V30 4320 H 423.889 -1.50377 -1.50002 0
M  V30 4321 H 426.152 -0.625559 -0.712306 0
M  V30 4322 H 425.858 -1.84323 -2.99529 0
M  V30 4323 H 425.732 -0.270026 -3.76232 0
M  V30 4324 H 428.119 0.280957 -2.93759 0
M  V30 4325 H 428.2 -1.32097 -2.19053 0
M  V30 4326 H 427.844 -2.38425 -4.4846 0
M  V30 4327 H 427.774 -0.759064 -5.21101 0
M  V30 4328 H 430.265 -0.940973 -3.65997 0
M  V30 4329 H 430.578 -2.52356 -7.30436 0
M  V30 4330 H 428.923 -2.26293 -6.57127 0
M  V30 4331 H 432.114 -1.24698 -4.51185 0
M  V30 4332 H 432.287 -1.96844 -6.17379 0
M  V30 4333 N 425.693 1.55336 -0.266172 0
M  V30 4334 C 426.97 1.91372 0.404486 0
M  V30 4335 C 427.35 1.18935 1.74407 0
M  V30 4336 O 426.698 0.3132 2.26343 0
M  V30 4337 C 426.908 3.44581 0.553593 0
M  V30 4338 C 428.256 4.16196 0.840618 0
M  V30 4339 O 429.28 3.50426 0.638739 0
M  V30 4340 O 428.139 5.32567 1.22618 0
M  V30 4341 H 425.233 0.797194 0.220025 0
M  V30 4342 H 427.779 1.66813 -0.311664 0
M  V30 4343 H 426.551 3.89357 -0.389498 0
M  V30 4344 H 426.174 3.75065 1.31955 0
M  V30 4345 N 427.171 -0.0066808 1.57599 0
M  V30 4346 C 428.399 -0.704087 1.94551 0
M  V30 4347 C 428.814 -1.67677 0.867746 0
M  V30 4348 O 428.171 -1.8185 -0.153925 0
M  V30 4349 C 428.222 -1.44177 3.31505 0
M  V30 4350 O 427.943 -0.508097 4.35144 0
M  V30 4351 C 429.444 -2.23429 3.82876 0
M  V30 4352 H 426.664 -0.196523 0.641576 0
M  V30 4353 H 429.208 0.042453 2.04456 0
M  V30 4354 H 427.363 -2.13999 3.22929 0
M  V30 4355 H 427.777 -1.02782 5.14331 0
M  V30 4356 H 429.251 -2.70552 4.8115 0
M  V30 4357 H 429.728 -3.05818 3.15233 0
M  V30 4358 H 430.334 -1.58636 3.94607 0
M  V30 4359 N 428.649 -1.55105 -0.279332 0
M  V30 4360 C 430.065 -1.46803 -0.626187 0
M  V30 4361 C 430.265 -0.676939 -1.89789 0
M  V30 4362 O 429.321 -0.19326 -2.51759 0
M  V30 4363 C 430.634 -2.90962 -0.759034 0
M  V30 4364 C 432.182 -3.01138 -0.853504 0
M  V30 4365 C 432.657 -4.46539 -1.01818 0
M  V30 4366 N 434.148 -4.50341 -1.08386 0
M  V30 4367 C 434.883 -5.60053 -1.22996 0
M  V30 4368 N 434.379 -6.79645 -1.34366 0
M  V30 4369 N 436.172 -5.47783 -1.26056 0
M  V30 4370 H 428.323 -2.04996 0.555921 0
M  V30 4371 H 430.586 -0.929325 0.187239 0
M  V30 4372 H 430.292 -3.51544 0.104852 0
M  V30 4373 H 430.166 -3.39619 -1.64131 0
M  V30 4374 H 432.553 -2.40658 -1.70786 0
M  V30 4375 H 432.634 -2.55745 0.0532466 0
M  V30 4376 H 432.278 -5.0762 -0.168504 0
M  V30 4377 H 432.208 -4.89583 -1.93948 0
M  V30 4378 H 434.699 -3.64191 -1.00864 0
M  V30 4379 H 435.012 -7.59012 -1.4533 0
M  V30 4380 H 433.357 -6.82469 -1.31382 0
M  V30 4381 H 436.548 -4.53294 -1.168 0
M  V30 4382 H 436.721 -6.33331 -1.37098 0
M  V30 4383 N 430.127 0.543554 -1.4793 0
M  V30 4384 C 431.538 1.12561 -1.48953 0
M  V30 4385 C 431.889 1.94578 -0.251754 0
M  V30 4386 O 431.014 2.0665 0.642255 0
M  V30 4387 C 431.609 2.04801 -2.69892 0
M  V30 4388 C 430.168 2.58251 -2.73831 0
M  V30 4389 C 429.315 1.34918 -2.42265 0
M  V30 4390 H 432.266 0.32947 -1.55242 0
M  V30 4391 H 432.287 2.88886 -2.47639 0
M  V30 4392 H 431.799 1.4508 -3.59963 0
M  V30 4393 H 429.9 3.21732 -1.87934 0
M  V30 4394 H 430.013 2.98312 -3.74895 0
M  V30 4395 H 428.377 1.66046 -1.93134 0
M  V30 4396 H 429.16 0.769693 -3.3456 0
M  V30 4397 N 431.605 1.3629 0.791371 0
M  V30 4398 C 432.555 1.26988 1.89362 0
M  V30 4399 C 433.539 0.161795 1.60084 0
M  V30 4400 O 434.731 0.394426 1.72549 0
M  V30 4401 C 431.86 1.05944 3.26544 0
M  V30 4402 C 430.946 2.21211 3.61838 0
M  V30 4403 N 431.337 3.46518 3.68455 0
M  V30 4404 C 429.635 2.12933 3.91887 0
M  V30 4405 C 430.336 4.2241 3.99931 0
M  V30 4406 N 429.312 3.51329 4.14812 0
M  V30 4407 H 433.114 2.21908 1.92702 0
M  V30 4408 H 430.628 1.28982 0.986787 0
M  V30 4409 H 432.625 0.973666 4.05371 0
M  V30 4410 H 431.285 0.119223 3.24481 0
M  V30 4411 H 432.296 3.80677 3.51148 0
M  V30 4412 H 428.973 1.26855 3.97761 0
M  V30 4413 H 430.363 5.30767 4.1199 0
M  V30 4414 N 433.083 -1.0153 1.20538 0
M  V30 4415 C 434.013 -2.11972 0.979295 0
M  V30 4416 C 434.994 -1.6985 -0.0921787 0
M  V30 4417 O 436.179 -1.94089 0.0655932 0
M  V30 4418 C 433.309 -3.43201 0.531984 0
M  V30 4419 C 432.263 -3.9907 1.54685 0
M  V30 4420 C 431.589 -5.26082 0.956127 0
M  V30 4421 C 432.889 -4.32313 2.93092 0
M  V30 4422 H 434.583 -2.31143 1.90298 0
M  V30 4423 H 432.129 -1.11079 0.916372 0
M  V30 4424 H 434.082 -4.1985 0.361044 0
M  V30 4425 H 432.806 -3.23792 -0.427327 0
M  V30 4426 H 431.465 -3.2453 1.70517 0
M  V30 4427 H 431.113 -5.02999 -0.0111538 0
M  V30 4428 H 430.813 -5.64426 1.63393 0
M  V30 4429 H 432.337 -6.05386 0.796284 0
M  V30 4430 H 433.751 -4.99845 2.80763 0
M  V30 4431 H 432.148 -4.81774 3.57791 0
M  V30 4432 H 433.218 -3.41025 3.44717 0
M  V30 4433 N 434.561 -1.01147 -1.20859 0
M  V30 4434 C 435.81 -0.693214 -1.89413 0
M  V30 4435 C 436.123 0.779969 -1.79376 0
M  V30 4436 O 437.329 1.21057 -2.43017 0
M  V30 4437 C 435.785 -1.18949 -3.39675 0
M  V30 4438 C 435.393 -2.68921 -3.58309 0
M  V30 4439 C 437.137 -0.94642 -4.13815 0
M  V30 4440 C 435.044 -3.12056 -5.0237 0
M  V30 4441 H 433.974 -0.255595 -0.709357 0
M  V30 4442 H 436.625 -1.22349 -1.36759 0
M  V30 4443 H 435.007 -0.587228 -3.91622 0
M  V30 4444 H 436.181 -3.34652 -3.16772 0
M  V30 4445 H 434.496 -2.91314 -2.97532 0
M  V30 4446 H 437.093 -1.24417 -5.20023 0
M  V30 4447 H 437.436 0.117219 -4.16135 0
M  V30 4448 H 437.969 -1.5118 -3.67953 0
M  V30 4449 H 434.708 -4.17674 -5.05202 0
M  V30 4450 H 434.228 -2.51041 -5.44737 0
M  V30 4451 H 435.907 -3.04403 -5.70918 0
M  V30 4452 N 436.039 1.36541 -0.78704 0
M  V30 4453 C 437.287 1.98911 -0.357633 0
M  V30 4454 C 437.608 1.62778 1.07371 0
M  V30 4455 O 436.878 0.900612 1.73971 0
M  V30 4456 H 435.458 0.735734 -0.129246 0
M  V30 4457 H 438.12 1.66776 -1.00855 0
M  V30 4458 H 437.216 3.08874 -0.447549 0
M  V30 4459 N 437.518 0.538854 1.48102 0
M  V30 4460 C 438.766 0.00798599 2.02098 0
M  V30 4461 C 439.087 -1.33922 1.41739 0
M  V30 4462 O 438.357 -1.86932 0.585934 0
M  V30 4463 H 436.937 -3.62179e-05 0.747 0
M  V30 4464 H 439.599 0.7047 1.81714 0
M  V30 4465 H 438.695 -0.0937672 3.11959 0
M  V30 4466 N 438.996 -1.55193 0.274407 0
M  V30 4467 C 439.946 -2.19184 -0.627882 0
M  V30 4468 C 440.93 -1.15625 -1.11892 0
M  V30 4469 O 442.122 -1.41441 -1.06411 0
M  V30 4470 C 439.251 -2.91591 -1.81189 0
M  V30 4471 C 438.337 -4.02438 -1.33807 0
M  V30 4472 N 438.728 -5.0246 -0.580349 0
M  V30 4473 C 437.026 -4.15496 -1.62109 0
M  V30 4474 C 437.727 -5.80756 -0.331344 0
M  V30 4475 N 436.703 -5.36038 -0.903556 0
M  V30 4476 H 440.505 -2.93871 -0.0411216 0
M  V30 4477 H 438.019 -1.62213 0.0779348 0
M  V30 4478 H 440.016 -3.35883 -2.46957 0
M  V30 4479 H 438.676 -2.18414 -2.40261 0
M  V30 4480 H 439.687 -5.17399 -0.227762 0
M  V30 4481 H 436.364 -3.53509 -2.22121 0
M  V30 4482 H 437.754 -6.71335 0.275454 0
M  V30 4483 N 440.474 -0.00167713 -1.576 0
M  V30 4484 C 441.722 0.681471 -1.90264 0
M  V30 4485 C 442.043 1.7422 -0.875924 0
M  V30 4486 O 441.313 1.95709 0.0864412 0
M  V30 4487 H 439.893 0.254696 -0.702239 0
M  V30 4488 H 442.555 -0.0429996 -1.94853 0
M  V30 4489 H 441.651 1.15166 -2.90075 0
M  V30 4490 N 441.952 1.55251 0.271103 0
M  V30 4491 C 443.229 1.66664 1.02384 0
M  V30 4492 C 443.609 0.534363 2.04225 0
M  V30 4493 O 442.957 -0.465337 2.23712 0
M  V30 4494 C 443.167 3.05961 1.67895 0
M  V30 4495 C 444.515 3.63772 2.18986 0
M  V30 4496 O 445.539 3.08606 1.77878 0
M  V30 4497 O 444.398 4.60429 2.94393 0
M  V30 4498 H 441.492 0.676957 0.475035 0
M  V30 4499 H 444.038 1.67589 0.26681 0
M  V30 4500 H 442.81 3.79815 0.941071 0
M  V30 4501 H 442.433 3.08943 2.5028 0
M  V30 4502 N 443.43 -0.535701 1.48216 0
M  V30 4503 C 444.66 -1.3148 1.59363 0
M  V30 4504 C 445.068 -1.8753 0.250844 0
M  V30 4505 O 444.411 -1.66821 -0.769174 0
M  V30 4506 C 444.473 -2.50731 2.57632 0
M  V30 4507 C 444.137 -2.15811 4.02833 0
M  V30 4508 C 445.134 -1.71822 4.90686 0
M  V30 4509 C 442.819 -2.26509 4.48329 0
M  V30 4510 C 444.813 -1.3899 6.22062 0
M  V30 4511 C 442.5 -1.93289 5.79726 0
M  V30 4512 C 443.498 -1.49599 6.66415 0
M  V30 4513 O 443.186 -1.16812 7.95368 0
M  V30 4514 H 442.918 -0.406315 0.540263 0
M  V30 4515 H 445.472 -0.653569 1.94725 0
M  V30 4516 H 443.702 -3.19817 2.1738 0
M  V30 4517 H 445.391 -3.12797 2.58675 0
M  V30 4518 H 446.157 -1.63031 4.56778 0
M  V30 4519 H 442.036 -2.59471 3.81045 0
M  V30 4520 H 445.58 -1.04816 6.89681 0
M  V30 4521 H 441.477 -2.01718 6.13172 0
M  V30 4522 H 442.245 -1.30259 8.08069 0
M  V30 4523 N 444.908 -1.36708 -0.784132 0
M  V30 4524 C 446.154 -1.31426 -1.54451 0
M  V30 4525 C 446.487 0.10476 -1.93917 0
M  V30 4526 O 445.762 1.05934 -1.6312 0
M  V30 4527 C 446.045 -2.24189 -2.818 0
M  V30 4528 C 445.898 -3.74813 -2.48667 0
M  V30 4529 C 447.217 -2.15626 -3.83658 0
M  V30 4530 H 444.336 -0.478739 -0.560337 0
M  V30 4531 H 446.978 -1.67305 -0.900498 0
M  V30 4532 H 445.128 -1.93722 -3.36755 0
M  V30 4533 H 446.8 -4.15823 -1.99722 0
M  V30 4534 H 445.043 -3.93989 -1.81535 0
M  V30 4535 H 445.714 -4.35138 -3.39646 0
M  V30 4536 H 448.19 -2.42456 -3.38163 0
M  V30 4537 H 447.066 -2.82694 -4.70506 0
M  V30 4538 H 447.327 -1.14522 -4.27009 0
M  V30 4539 N 446.386 1.0089 -1.21074 0
M  V30 4540 C 447.632 1.7497 -1.03717 0
M  V30 4541 C 447.987 1.8764 0.425344 0
M  V30 4542 O 447.28 1.39679 1.3115 0
M  V30 4543 C 447.474 3.16335 -1.66334 0
M  V30 4544 C 447.303 3.17449 -3.18522 0
M  V30 4545 C 446.073 3.2425 -3.87543 0
M  V30 4546 C 448.271 3.02877 -4.15656 0
M  V30 4547 N 446.253 3.14949 -5.26954 0
M  V30 4548 C 447.624 3.0143 -5.41793 0
M  V30 4549 C 449.679 2.8715 -4.06755 0
M  V30 4550 C 448.382 2.85869 -6.60054 0
M  V30 4551 C 450.408 2.72944 -5.24648 0
M  V30 4552 C 449.77 2.72171 -6.49694 0
M  V30 4553 H 445.869 0.650627 -0.43383 0
M  V30 4554 H 448.453 1.19944 -1.53367 0
M  V30 4555 H 446.624 3.69638 -1.19256 0
M  V30 4556 H 448.356 3.78888 -1.42219 0
M  V30 4557 H 445.111 3.31288 -3.38446 0
M  V30 4558 H 445.535 3.13651 -5.9996 0
M  V30 4559 H 450.177 2.86557 -3.10878 0
M  V30 4560 H 447.895 2.8521 -7.56096 0
M  V30 4561 H 451.481 2.61782 -5.19578 0
M  V30 4562 H 450.361 2.61307 -7.39384 0
M  V30 4563 N 447.864 1.01787 1.20321 0
M  V30 4564 C 448.827 0.593972 2.2137 0
M  V30 4565 C 449.827 -0.336553 1.57239 0
M  V30 4566 O 451.017 -0.125069 1.7375 0
M  V30 4567 C 448.149 -0.132433 3.40643 0
M  V30 4568 H 449.342 1.48791 2.60387 0
M  V30 4569 H 446.895 0.807803 1.33807 0
M  V30 4570 H 447.63 -1.04123 3.0713 0
M  V30 4571 H 447.415 0.53605 3.88418 0
M  V30 4572 H 448.905 -0.416314 4.1552 0
M  V30 4573 N 449.342 -1.36122 0.79427 0
M  V30 4574 C 450.57 -2.03362 0.380989 0
M  V30 4575 C 450.985 -1.59881 -1.00416 0
M  V30 4576 O 450.342 -0.790515 -1.6449 0
M  V30 4577 C 450.393 -3.58804 0.440649 0
M  V30 4578 O 450.114 -4.007 1.77118 0
M  V30 4579 C 451.615 -4.43296 0.0186117 0
M  V30 4580 H 448.835 -0.652526 0.156367 0
M  V30 4581 H 451.379 -1.73998 1.07447 0
M  V30 4582 H 449.534 -3.8686 -0.204458 0
M  V30 4583 H 449.948 -4.95309 1.72538 0
M  V30 4584 H 451.422 -5.51887 0.111488 0
M  V30 4585 H 451.899 -4.2684 -1.03461 0
M  V30 4586 H 452.505 -4.20512 0.636395 0
M  V30 4587 N 450.82 -0.546701 -1.47814 0
M  V30 4588 C 452.068 -0.0187037 -2.02091 0
M  V30 4589 C 452.389 1.33168 -1.42447 0
M  V30 4590 O 451.659 1.86619 -0.595839 0
M  V30 4591 H 450.239 -0.00392531 -0.74699 0
M  V30 4592 H 452.901 -0.714327 -1.81338 0
M  V30 4593 H 451.997 0.0772219 -3.12004 0
M  V30 4594 N 452.299 1.55045 -0.282633 0
M  V30 4595 C 453.246 2.22822 0.601566 0
M  V30 4596 C 454.216 1.20431 1.14392 0
M  V30 4597 O 455.401 1.48996 1.19184 0
M  V30 4598 C 452.541 2.95873 1.77632 0
M  V30 4599 C 451.654 4.12999 1.26711 0
M  V30 4600 C 450.789 4.73676 2.40426 0
M  V30 4601 C 449.828 5.82981 1.86545 0
M  V30 4602 N 448.965 6.3769 2.93762 0
M  V30 4603 H 453.805 2.97995 0.0169528 0
M  V30 4604 H 451.342 1.471 -0.00339964 0
M  V30 4605 H 453.3 3.36447 2.46697 0
M  V30 4606 H 451.93 2.2311 2.33285 0
M  V30 4607 H 450.982 3.77494 0.469314 0
M  V30 4608 H 452.294 4.91803 0.832518 0
M  V30 4609 H 451.448 5.17008 3.17471 0
M  V30 4610 H 450.187 3.94164 2.87203 0
M  V30 4611 H 449.192 5.39092 1.07983 0
M  V30 4612 H 450.417 6.64366 1.40694 0
M  V30 4613 H 448.363 5.61069 3.39908 0
M  V30 4614 H 448.28 7.11788 2.54744 0
M  V30 4615 H 449.548 6.8568 3.7076 0
M  V30 4616 N 453.777 0.010035 1.57597 0
M  V30 4617 C 455.024 -0.6727 1.91 0
M  V30 4618 C 455.352 -1.73219 0.884614 0
M  V30 4619 O 454.607 -1.95395 -0.109215 0
M  V30 4620 C 454.906 -1.34434 3.31153 0
M  V30 4621 C 454.572 -0.417083 4.48967 0
M  V30 4622 C 453.234 -0.161809 4.80928 0
M  V30 4623 C 455.586 0.220753 5.20732 0
M  V30 4624 C 452.914 0.739426 5.82022 0
M  V30 4625 C 455.266 1.10993 6.22787 0
M  V30 4626 C 453.93 1.37428 6.532 0
M  V30 4627 H 453.2 -0.246158 0.698918 0
M  V30 4628 H 455.847 0.0677145 1.9138 0
M  V30 4629 H 454.152 -2.15905 3.26944 0
M  V30 4630 H 455.849 -1.87883 3.54261 0
M  V30 4631 H 452.439 -0.626217 4.24001 0
M  V30 4632 H 456.623 0.0365643 4.96287 0
M  V30 4633 H 451.879 0.952139 6.03941 0
M  V30 4634 H 456.053 1.61046 6.77523 0
M  V30 4635 H 453.68 2.0743 7.31353 0
M  V30 4636 N 455.255 -1.55392 -0.262866 0
M  V30 4637 C 456.671 -1.47459 -0.610582 0
M  V30 4638 C 456.871 -0.697031 -1.8906 0
M  V30 4639 O 455.927 -0.219952 -2.5154 0
M  V30 4640 C 457.24 -2.91751 -0.728131 0
M  V30 4641 C 458.788 -3.02027 -0.821517 0
M  V30 4642 C 459.263 -4.47594 -0.97076 0
M  V30 4643 N 460.754 -4.51465 -1.03603 0
M  V30 4644 C 461.489 -5.61326 -1.17049 0
M  V30 4645 N 460.985 -6.81032 -1.2715 0
M  V30 4646 N 462.778 -5.49089 -1.20239 0
M  V30 4647 H 454.929 -2.04395 0.577632 0
M  V30 4648 H 457.192 -0.927287 0.197086 0
M  V30 4649 H 456.898 -3.51413 0.142132 0
M  V30 4650 H 456.772 -3.4134 -1.6052 0
M  V30 4651 H 459.159 -2.42456 -1.68224 0
M  V30 4652 H 459.24 -2.55674 0.0803688 0
M  V30 4653 H 458.884 -5.07771 -0.114655 0
M  V30 4654 H 458.814 -4.91613 -1.88745 0
M  V30 4655 H 461.305 -3.6524 -0.96996 0
M  V30 4656 H 461.618 -7.60511 -1.37271 0
M  V30 4657 H 459.963 -6.83824 -1.24136 0
M  V30 4658 H 463.154 -4.54507 -1.11985 0
M  V30 4659 H 463.327 -6.34749 -1.30373 0
M  V30 4660 N 456.733 0.527833 -1.48498 0
M  V30 4661 C 457.681 1.65313 -1.63628 0
M  V30 4662 C 458.675 1.6177 -0.502676 0
M  V30 4663 O 459.881 1.66601 -0.681469 0
M  V30 4664 H 456.256 0.547518 -0.515488 0
M  V30 4665 H 458.227 1.49696 -2.58135 0
M  V30 4666 C 456.976 3.03576 -1.6952 0
M  V30 4667 H 456.299 3.06997 -2.56111 0
M  V30 4668 H 457.739 3.81923 -1.84149 0
M  V30 4669 C 456.198 3.34089 -0.43432 0
M  V30 4670 O 456.728 3.99151 0.451852 0
M  V30 4671 N 454.934 2.88991 -0.305368 0
M  V30 4672 H 454.481 2.36222 -1.02747 0
M  V30 4673 H 454.439 3.09776 0.537249 0
M  V30 4674 N 458.211 1.37122 0.776871 0
M  V30 4675 C 459.622 1.28667 1.35284 0
M  V30 4676 C 459.973 -0.0680035 1.96082 0
M  V30 4677 O 459.098 -0.969743 1.93455 0
M  V30 4678 C 459.693 2.32997 2.45963 0
M  V30 4679 C 458.252 2.28191 2.99342 0
M  V30 4680 C 457.399 2.17101 1.72517 0
M  V30 4681 H 460.35 1.47819 0.577527 0
M  V30 4682 H 460.371 1.97366 3.2531 0
M  V30 4683 H 459.883 3.3158 2.01684 0
M  V30 4684 H 457.984 1.33115 3.4801 0
M  V30 4685 H 458.097 3.21397 3.55304 0
M  V30 4686 H 456.461 1.63562 1.95242 0
M  V30 4687 H 457.244 3.17591 1.30348 0
M  V30 4688 N 459.689 -1.00246 1.21608 0
M  V30 4689 C 461.1 -1.55511 1.03312 0
M  V30 4690 C 461.451 -1.91946 -0.406332 0
M  V30 4691 O 460.576 -1.73753 -1.28992 0
M  V30 4692 C 461.171 -2.82576 1.86913 0
M  V30 4693 C 459.73 -3.34318 1.72941 0
M  V30 4694 C 458.877 -2.07487 1.83968 0
M  V30 4695 H 461.828 -0.824638 1.35593 0
M  V30 4696 H 461.849 -3.54559 1.38087 0
M  V30 4697 H 461.361 -2.56026 2.91672 0
M  V30 4698 H 459.462 -3.65797 0.70877 0
M  V30 4699 H 459.575 -4.05566 2.55055 0
M  V30 4700 H 457.939 -2.20603 1.27304 0
M  V30 4701 H 458.722 -1.83346 2.9024 0
M  V30 4702 N 461.167 -1.02423 -1.1978 0
M  V30 4703 C 462.444 -0.632802 -1.85081 0
M  V30 4704 C 462.824 0.888745 -1.9148 0
M  V30 4705 O 462.172 1.78357 -1.42832 0
M  V30 4706 C 462.382 -1.28947 -3.24305 0
M  V30 4707 C 463.73 -1.40976 -4.00513 0
M  V30 4708 O 464.754 -1.24628 -3.33686 0
M  V30 4709 O 463.613 -1.67467 -5.20209 0
M  V30 4710 H 460.707 -0.219348 -0.79738 0
M  V30 4711 H 463.253 -1.12209 -1.27307 0
M  V30 4712 H 462.025 -2.3288 -3.14456 0
M  V30 4713 H 461.648 -0.787748 -3.89718 0
M  V30 4714 N 462.645 1.35699 -0.801477 0
M  V30 4715 C 463.575 2.32436 -0.222658 0
M  V30 4716 C 464.556 1.5723 0.649057 0
M  V30 4717 O 465.741 1.85324 0.580387 0
M  V30 4718 C 462.871 3.41469 0.633719 0
M  V30 4719 C 461.825 4.27774 -0.139083 0
M  V30 4720 C 461.151 5.28082 0.838666 0
M  V30 4721 C 462.451 5.04946 -1.33517 0
M  V30 4722 H 464.145 2.81094 -1.03086 0
M  V30 4723 H 461.691 1.35146 -0.497155 0
M  V30 4724 H 463.644 4.08143 1.04868 0
M  V30 4725 H 462.368 2.91408 1.47475 0
M  V30 4726 H 461.027 3.62673 -0.535156 0
M  V30 4727 H 460.675 4.7429 1.67506 0
M  V30 4728 H 460.375 5.86695 0.32594 0
M  V30 4729 H 461.899 5.97628 1.25194 0
M  V30 4730 H 463.313 5.64593 -0.995349 0
M  V30 4731 H 461.71 5.7303 -1.78202 0
M  V30 4732 H 462.78 4.35886 -2.12442 0
M  V30 4733 N 464.123 0.554532 1.47522 0
M  V30 4734 C 465.4 -0.0360704 1.95567 0
M  V30 4735 C 465.78 -1.48828 1.49711 0
M  V30 4736 O 465.128 -2.16366 0.734717 0
M  V30 4737 C 465.338 0.106631 3.48837 0
M  V30 4738 C 466.686 -0.0400899 4.24581 0
M  V30 4739 O 467.71 0.0340453 3.56184 0
M  V30 4740 O 466.569 -0.199111 5.46137 0
M  V30 4741 H 463.663 -0.0656294 0.824392 0
M  V30 4742 H 466.209 0.620867 1.57935 0
M  V30 4743 H 464.981 1.11727 3.7501 0
M  V30 4744 H 464.604 -0.58804 3.93227 0
M  V30 4745 N 465.601 -1.54893 0.290851 0
M  V30 4746 C 466.533 -2.20564 -0.623236 0
M  V30 4747 C 467.546 -1.19519 -1.1054 0
M  V30 4748 O 468.735 -1.46165 -1.02459 0
M  V30 4749 C 465.835 -2.83033 -1.86401 0
M  V30 4750 C 465.008 -4.09916 -1.52604 0
M  V30 4751 C 464.067 -4.56284 -2.62091 0
M  V30 4752 O 463.093 -5.2171 -2.27612 0
M  V30 4753 N 464.295 -4.27746 -3.92446 0
M  V30 4754 H 467.06 -2.99638 -0.0610915 0
M  V30 4755 H 464.621 -1.61508 0.112615 0
M  V30 4756 H 466.613 -3.1099 -2.58973 0
M  V30 4757 H 465.183 -2.0786 -2.33481 0
M  V30 4758 H 464.403 -3.89078 -0.633424 0
M  V30 4759 H 465.691 -4.92554 -1.27547 0
M  V30 4760 H 465.089 -3.7531 -4.23272 0
M  V30 4761 H 463.646 -4.60437 -4.61347 0
M  V30 4762 N 467.08 -0.0183926 -1.57589 0
M  V30 4763 C 467.99 0.982943 -2.13015 0
M  V30 4764 C 469.006 1.36443 -1.07979 0
M  V30 4765 O 470.182 1.44802 -1.3998 0
M  V30 4766 C 467.247 2.25024 -2.63752 0
M  V30 4767 C 466.308 1.93018 -3.83461 0
M  V30 4768 C 465.541 3.13706 -4.31769 0
M  V30 4769 O 465.764 4.2601 -3.79305 0
M  V30 4770 O 464.698 2.96629 -5.23732 0
M  V30 4771 H 468.524 0.541709 -2.9883 0
M  V30 4772 H 466.109 0.201565 -1.48034 0
M  V30 4773 H 467.991 2.99441 -2.96502 0
M  V30 4774 H 466.666 2.68349 -1.81026 0
M  V30 4775 H 465.573 1.16019 -3.55655 0
M  V30 4776 H 466.906 1.54516 -4.67317 0
M  V30 4777 N 468.558 1.5553 0.254621 0
M  V30 4778 C 469.786 1.81046 1.00149 0
M  V30 4779 C 470.201 0.593047 1.79244 0
M  V30 4780 O 469.558 -0.438196 1.77161 0
M  V30 4781 C 469.609 3.04684 1.94551 0
M  V30 4782 O 469.33 4.21725 1.18658 0
M  V30 4783 C 470.831 3.42943 2.80901 0
M  V30 4784 H 468.051 0.602653 0.295044 0
M  V30 4785 H 470.595 2.02576 0.279842 0
M  V30 4786 H 468.75 2.85226 2.62154 0
M  V30 4787 H 469.164 4.91746 1.82445 0
M  V30 4788 H 470.638 4.32576 3.42902 0
M  V30 4789 H 471.115 2.63176 3.51617 0
M  V30 4790 H 471.721 3.64724 2.18762 0
M  V30 4791 N 470.036 -0.519951 1.48776 0
M  V30 4792 C 471.282 -1.27456 1.58514 0
M  V30 4793 C 471.637 -1.90634 0.260057 0
M  V30 4794 O 470.93 -1.76815 -0.738036 0
M  V30 4795 C 471.124 -2.37864 2.6675 0
M  V30 4796 C 470.953 -1.85509 4.09654 0
M  V30 4797 C 469.723 -1.67661 4.76674 0
M  V30 4798 C 471.921 -1.37783 4.955 0
M  V30 4799 N 469.903 -1.10037 6.03958 0
M  V30 4800 C 471.274 -0.921714 6.1311 0
M  V30 4801 C 473.329 -1.26179 4.81646 0
M  V30 4802 C 472.032 -0.361057 7.18393 0
M  V30 4803 C 474.058 -0.715121 5.8706 0
M  V30 4804 C 473.42 -0.269132 7.03886 0
M  V30 4805 H 469.519 -0.457049 0.634531 0
M  V30 4806 H 472.103 -0.585073 1.85701 0
M  V30 4807 H 470.274 -3.04296 2.41367 0
M  V30 4808 H 472.006 -3.04901 2.66116 0
M  V30 4809 H 468.761 -1.91478 4.33166 0
M  V30 4810 H 469.185 -0.832067 6.71867 0
M  V30 4811 H 473.827 -1.59263 3.91657 0
M  V30 4812 H 471.545 -0.0179127 8.08098 0
M  V30 4813 H 475.131 -0.628376 5.78397 0
M  V30 4814 H 474.011 0.14729 7.84062 0
M  V30 4815 N 471.514 -1.37532 -0.769588 0
M  V30 4816 C 472.444 -1.36172 -1.89682 0
M  V30 4817 C 473.425 -0.23001 -1.68538 0
M  V30 4818 O 474.61 -0.43069 -1.89364 0
M  V30 4819 C 471.74 -1.1701 -3.26995 0
M  V30 4820 C 470.694 -2.27216 -3.62708 0
M  V30 4821 C 470.02 -1.93174 -4.98586 0
M  V30 4822 C 471.32 -3.6941 -3.69234 0
M  V30 4823 H 473.014 -2.30499 -1.91078 0
M  V30 4824 H 470.56 -1.10953 -0.917902 0
M  V30 4825 H 472.513 -1.14688 -4.05493 0
M  V30 4826 H 471.237 -0.191395 -3.26039 0
M  V30 4827 H 469.896 -2.28697 -2.86519 0
M  V30 4828 H 469.544 -0.938281 -4.94171 0
M  V30 4829 H 469.244 -2.66973 -5.23449 0
M  V30 4830 H 470.768 -1.92443 -5.79481 0
M  V30 4831 H 472.182 -3.70047 -4.37879 0
M  V30 4832 H 470.579 -4.4228 -4.05597 0
M  V30 4833 H 471.649 -4.0288 -2.69844 0
M  V30 4834 N 472.992 0.995999 -1.22138 0
M  V30 4835 C 474.241 1.72928 -1.03821 0
M  V30 4836 C 474.554 1.90872 0.427444 0
M  V30 4837 O 475.76 2.61496 0.730212 0
M  V30 4838 C 474.216 3.11124 -1.80913 0
M  V30 4839 C 473.824 3.01122 -3.31707 0
M  V30 4840 C 475.568 3.8852 -1.71035 0
M  V30 4841 C 473.475 4.34453 -4.01253 0
M  V30 4842 H 472.405 0.648376 -0.384869 0
M  V30 4843 H 475.056 1.11213 -1.45959 0
M  V30 4844 H 473.438 3.73503 -1.31573 0
M  V30 4845 H 474.612 2.47926 -3.88419 0
M  V30 4846 H 472.927 2.3721 -3.42228 0
M  V30 4847 H 475.524 4.872 -2.20318 0
M  V30 4848 H 475.867 4.1087 -0.670196 0
M  V30 4849 H 476.4 3.32812 -2.17902 0
M  V30 4850 H 473.139 4.17303 -5.05508 0
M  V30 4851 H 472.659 4.87574 -3.49331 0
M  V30 4852 H 474.338 5.03215 -4.06674 0
M  V30 4853 N 474.47 1.03057 1.19235 0
M  V30 4854 C 475.881 0.757449 1.70645 0
M  V30 4855 C 476.232 -0.722735 1.82403 0
M  V30 4856 O 475.357 -1.56325 1.49638 0
M  V30 4857 C 475.952 1.36833 3.09939 0
M  V30 4858 C 474.511 1.14375 3.58602 0
M  V30 4859 C 473.658 1.46533 2.35422 0
M  V30 4860 H 476.609 1.19828 1.04052 0
M  V30 4861 H 476.63 0.766184 3.72706 0
M  V30 4862 H 476.142 2.44562 3.01349 0
M  V30 4863 H 474.243 0.0847542 3.72504 0
M  V30 4864 H 474.356 1.83366 4.42622 0
M  V30 4865 H 472.72 0.884712 2.38841 0
M  V30 4866 H 473.503 2.55349 2.2946 0
M  V30 4867 N 475.948 -1.35272 0.808662 0
M  V30 4868 C 477.196 -1.98316 0.389233 0
M  V30 4869 C 477.517 -1.64465 -1.04767 0
M  V30 4870 O 476.787 -0.928175 -1.72516 0
M  V30 4871 H 475.367 -0.733585 0.140935 0
M  V30 4872 H 478.029 -1.6515 1.03496 0
M  V30 4873 H 477.125 -3.08123 0.496631 0
M  V30 4874 N 477.426 -0.562348 -1.47226 0
M  V30 4875 C 478.674 -0.0401371 -2.0206 0
M  V30 4876 C 478.995 1.3165 -1.43852 0
M  V30 4877 O 478.265 1.85976 -0.615599 0
M  V30 4878 H 476.845 -0.0118479 -0.746906 0
M  V30 4879 H 479.507 -0.73352 -1.8057 0
M  V30 4880 H 478.603 0.0441254 -3.12069 0
M  V30 4881 N 478.904 1.54736 -0.299062 0
M  V30 4882 C 480.132 2.04512 0.313447 0
M  V30 4883 C 480.547 1.17643 1.47667 0
M  V30 4884 O 479.904 0.20164 1.81383 0
M  V30 4885 C 479.955 3.53171 0.771542 0
M  V30 4886 O 479.676 4.36736 -0.345379 0
M  V30 4887 C 481.177 4.18936 1.4494 0
M  V30 4888 H 478.397 0.667507 0.0683784 0
M  V30 4889 H 480.941 1.99752 -0.438129 0
M  V30 4890 H 479.096 3.58298 1.47314 0
M  V30 4891 H 479.51 5.24499 0.0109219 0
M  V30 4892 H 480.984 5.24482 1.72111 0
M  V30 4893 H 481.461 3.68554 2.38883 0
M  V30 4894 H 482.067 4.17879 0.791028 0
M  V30 4895 N 480.382 0.0267497 1.57577 0
M  V30 4896 C 481.345 -0.940916 2.08996 0
M  V30 4897 C 482.345 -1.25561 1.00455 0
M  V30 4898 O 483.535 -1.19634 1.26623 0
M  V30 4899 C 480.667 -2.25814 2.55384 0
M  V30 4900 H 481.86 -0.495628 2.95776 0
M  V30 4901 H 479.413 -0.221241 1.54726 0
M  V30 4902 H 480.148 -2.74976 1.71926 0
M  V30 4903 H 479.933 -2.04285 3.34679 0
M  V30 4904 H 481.423 -2.95178 2.95398 0
M  V30 4905 N 481.861 -1.55662 -0.24637 0
M  V30 4906 C 483.109 -1.77168 -0.972411 0
M  V30 4907 C 483.43 -0.590827 -1.85834 0
M  V30 4908 O 482.7 0.393365 -1.9191 0
M  V30 4909 H 481.28 -0.653405 -0.362038 0
M  V30 4910 H 483.942 -1.93101 -0.264189 0
M  V30 4911 H 483.038 -2.68335 -1.59382 0
M  V30 4912 N 483.339 0.512053 -1.4905 0
M  V30 4913 C 484.302 1.59704 -1.64399 0
M  V30 4914 C 485.302 1.52285 -0.516317 0
M  V30 4915 O 486.492 1.55635 -0.782527 0
M  V30 4916 C 483.624 2.9935 -1.63102 0
M  V30 4917 H 484.817 1.47428 -2.61161 0
M  V30 4918 H 482.37 0.735469 -1.37915 0
M  V30 4919 H 483.105 3.17116 -0.678836 0
M  V30 4920 H 482.89 3.06144 -2.44986 0
M  V30 4921 H 484.38 3.782 -1.77072 0
M  V30 4922 N 484.817 1.37938 0.762283 0
M  V30 4923 C 485.78 1.34279 1.85747 0
M  V30 4924 C 486.78 0.244969 1.58923 0
M  V30 4925 O 487.97 0.501365 1.66829 0
M  V30 4926 C 485.102 1.08833 3.23061 0
M  V30 4927 H 486.295 2.31705 1.90401 0
M  V30 4928 H 483.848 1.23105 0.963057 0
M  V30 4929 H 484.583 0.119767 3.24079 0
M  V30 4930 H 484.368 1.88306 3.43923 0
M  V30 4931 H 485.858 1.08946 4.03138 0
M  V30 4932 N 486.295 -0.989507 1.22664 0
M  V30 4933 C 487.542 -1.72953 1.05325 0
M  V30 4934 C 487.87 -1.90104 -0.411168 0
M  V30 4935 O 487.125 -1.44386 -1.32103 0
M  V30 4936 C 487.424 -3.13649 1.71345 0
M  V30 4937 C 487.09 -3.16403 3.21248 0
M  V30 4938 C 485.752 -3.16862 3.62149 0
M  V30 4939 C 488.104 -3.12428 4.17179 0
M  V30 4940 C 485.432 -3.11051 4.97458 0
M  V30 4941 C 487.784 -3.08159 5.52468 0
M  V30 4942 C 486.448 -3.06935 5.92746 0
M  V30 4943 H 485.718 -0.632881 0.385412 0
M  V30 4944 H 488.365 -1.15863 1.52473 0
M  V30 4945 H 486.67 -3.74069 1.16532 0
M  V30 4946 H 488.367 -3.69658 1.55416 0
M  V30 4947 H 484.957 -3.16798 2.88682 0
M  V30 4948 H 489.141 -3.11221 3.86595 0
M  V30 4949 H 484.397 -3.0845 5.27891 0
M  V30 4950 H 488.571 -3.04039 6.26525 0
M  V30 4951 H 486.198 -3.02186 6.97558 0
M  V30 4952 N 487.773 -1.03688 -1.18687 0
M  V30 4953 C 489.003 -0.756819 -1.92239 0
M  V30 4954 C 489.411 0.689374 -1.76194 0
M  V30 4955 O 488.754 1.48126 -1.08648 0
M  V30 4956 C 488.816 -1.03851 -3.44173 0
M  V30 4957 C 488.48 -2.47785 -3.83994 0
M  V30 4958 C 489.477 -3.4595 -3.88091 0
M  V30 4959 C 487.162 -2.82397 -4.154 0
M  V30 4960 C 489.156 -4.76779 -4.23038 0
M  V30 4961 C 486.843 -4.13433 -4.50018 0
M  V30 4962 C 487.841 -5.10434 -4.53813 0
M  V30 4963 O 487.529 -6.39122 -4.87625 0
M  V30 4964 H 487.261 -0.275678 -0.617234 0
M  V30 4965 H 489.815 -1.38658 -1.51536 0
M  V30 4966 H 488.045 -0.351612 -3.85098 0
M  V30 4967 H 489.734 -0.746846 -3.9897 0
M  V30 4968 H 490.5 -3.20549 -3.63969 0
M  V30 4969 H 486.379 -2.07568 -4.11627 0
M  V30 4970 H 489.923 -5.52488 -4.25914 0
M  V30 4971 H 485.82 -4.38604 -4.736 0
M  V30 4972 H 486.588 -6.43715 -5.05542 0
M  V30 4973 N 489.251 1.34841 -0.815825 0
M  V30 4974 C 490.479 2.0273 -0.413294 0
M  V30 4975 C 490.894 1.61459 0.978599 0
M  V30 4976 O 490.251 0.816584 1.63212 0
M  V30 4977 C 490.302 3.58058 -0.497676 0
M  V30 4978 O 490.023 3.97832 -1.8347 0
M  V30 4979 C 491.524 4.4321 -0.0891339 0
M  V30 4980 H 488.744 0.649956 -0.166728 0
M  V30 4981 H 491.288 1.72267 -1.10201 0
M  V30 4982 H 489.443 3.87136 0.142886 0
M  V30 4983 H 489.857 4.92501 -1.80396 0
M  V30 4984 H 491.331 5.5164 -0.199274 0
M  V30 4985 H 491.808 4.28432 0.966571 0
M  V30 4986 H 492.414 4.19446 -0.703214 0
M  V30 4987 N 490.729 0.570148 1.46925 0
M  V30 4988 C 491.976 0.0509529 2.02436 0
M  V30 4989 C 492.304 -1.30405 1.44308 0
M  V30 4990 O 491.559 -1.86493 0.593198 0
M  V30 4991 C 491.858 -0.0780336 3.57315 0
M  V30 4992 C 491.524 1.20775 4.34424 0
M  V30 4993 C 490.186 1.56004 4.5521 0
M  V30 4994 C 492.538 2.0592 4.78797 0
M  V30 4995 C 489.866 2.76201 5.17619 0
M  V30 4996 C 492.218 3.25332 5.42533 0
M  V30 4997 C 490.882 3.60859 5.61549 0
M  V30 4998 H 490.152 0.018645 0.740765 0
M  V30 4999 H 492.799 0.744262 1.76445 0
M  V30 5000 H 491.104 -0.854394 3.82371 0
M  V30 5001 H 492.801 -0.495312 3.97929 0
M  V30 5002 H 489.391 0.923469 4.18533 0
M  V30 5003 H 493.575 1.80008 4.62505 0
M  V30 5004 H 488.831 3.0388 5.30535 0
M  V30 5005 H 493.005 3.91586 5.75876 0
M  V30 5006 H 490.632 4.54088 6.09678 0
M  V30 5007 N 492.207 -1.54576 0.307264 0
M  V30 5008 C 493.623 -1.59534 -0.0459251 0
M  V30 5009 C 493.823 -1.32414 -1.51884 0
M  V30 5010 O 492.879 -1.1006 -2.27251 0
M  V30 5011 C 494.192 -2.98566 0.357649 0
M  V30 5012 C 495.74 -3.11491 0.306937 0
M  V30 5013 C 496.215 -4.52842 0.685427 0
M  V30 5014 N 497.706 -4.58782 0.638203 0
M  V30 5015 C 498.441 -5.66238 0.903458 0
M  V30 5016 N 497.937 -6.81703 1.23501 0
M  V30 5017 N 499.73 -5.55937 0.830102 0
M  V30 5018 H 491.881 -1.70464 1.26712 0
M  V30 5019 H 494.144 -0.79647 0.514139 0
M  V30 5020 H 493.85 -3.23356 1.38325 0
M  V30 5021 H 493.724 -3.76117 -0.285565 0
M  V30 5022 H 496.111 -2.86446 -0.709424 0
M  V30 5023 H 496.192 -2.36081 0.984861 0
M  V30 5024 H 495.836 -4.78618 1.69963 0
M  V30 5025 H 495.766 -5.26598 -0.0146346 0
M  V30 5026 H 498.257 -3.75849 0.393138 0
M  V30 5027 H 498.57 -7.59582 1.42322 0
M  V30 5028 H 496.915 -6.8324 1.27311 0
M  V30 5029 H 500.106 -4.64608 0.570693 0
M  V30 5030 H 500.279 -6.39597 1.04019 0
M  V30 5031 N 493.685 -0.035106 -1.57561 0
M  V30 5032 C 494.617 0.973604 -2.07494 0
M  V30 5033 C 495.63 1.28504 -0.999534 0
M  V30 5034 O 496.819 1.24864 -1.27559 0
M  V30 5035 C 493.919 2.29945 -2.48955 0
M  V30 5036 C 493.092 2.1723 -3.79644 0
M  V30 5037 C 492.151 3.328 -4.07592 0
M  V30 5038 O 491.177 3.09418 -4.77754 0
M  V30 5039 N 492.379 4.56779 -3.58236 0
M  V30 5040 H 495.144 0.547525 -2.94656 0
M  V30 5041 H 492.705 0.151515 -1.61189 0
M  V30 5042 H 494.697 3.06097 -2.64739 0
M  V30 5043 H 493.267 2.64173 -1.67126 0
M  V30 5044 H 492.487 1.25768 -3.73599 0
M  V30 5045 H 493.775 2.05945 -4.65257 0
M  V30 5046 H 493.173 4.78668 -3.01485 0
M  V30 5047 H 491.73 5.30079 -3.79288 0
M  V30 5048 N 495.163 1.55791 0.238111 0
M  V30 5049 C 496.574 1.68383 0.806472 0
M  V30 5050 C 496.925 0.634157 1.85669 0
M  V30 5051 O 496.05 -0.217913 2.153 0
M  V30 5052 C 496.645 3.05268 1.46959 0
M  V30 5053 C 495.204 3.1977 1.98555 0
M  V30 5054 C 494.351 2.64279 0.839763 0
M  V30 5055 H 497.302 1.58694 0.0137535 0
M  V30 5056 H 497.323 3.00203 2.33792 0
M  V30 5057 H 496.835 3.81643 0.704993 0
M  V30 5058 H 494.936 2.48234 2.77868 0
M  V30 5059 H 495.049 4.26788 2.17689 0
M  V30 5060 H 493.413 2.22329 1.24265 0
M  V30 5061 H 494.196 3.43187 0.0881032 0
M  V30 5062 N 496.642 -0.504142 1.49319 0
M  V30 5063 C 497.89 -1.25598 1.58334 0
M  V30 5064 C 498.211 -1.93114 0.270538 0
M  V30 5065 O 497.481 -1.82585 -0.709891 0
M  V30 5066 H 496.061 -0.466571 0.58337 0
M  V30 5067 H 498.723 -0.584547 1.85928 0
M  V30 5068 H 497.819 -2.02159 2.37778 0
M  V30 5069 N 498.12 -1.38341 -0.754957 0
M  V30 5070 C 499.366 -1.34672 -1.51628 0
M  V30 5071 C 499.699 0.0636036 -1.94096 0
M  V30 5072 O 498.974 1.0245 -1.6533 0
M  V30 5073 C 499.257 -2.30116 -2.76981 0
M  V30 5074 C 499.11 -3.80003 -2.4066 0
M  V30 5075 C 500.429 -2.23715 -3.78998 0
M  V30 5076 H 497.548 -0.490517 -0.550056 0
M  V30 5077 H 500.19 -1.69178 -0.864807 0
M  V30 5078 H 498.34 -2.00821 -3.3257 0
M  V30 5079 H 500.012 -4.19966 -1.90856 0
M  V30 5080 H 498.255 -3.97751 -1.73137 0
M  V30 5081 H 498.926 -4.42244 -3.30339 0
M  V30 5082 H 501.402 -2.49574 -3.32945 0
M  V30 5083 H 500.278 -2.9261 -4.64403 0
M  V30 5084 H 500.539 -1.23554 -4.24484 0
M  V30 5085 N 499.598 0.982988 -1.23187 0
M  V30 5086 C 500.828 1.75666 -1.08743 0
M  V30 5087 C 501.236 1.85662 0.364195 0
M  V30 5088 O 500.579 1.33317 1.26382 0
M  V30 5089 C 500.641 3.20144 -1.63549 0
M  V30 5090 C 500.305 3.33665 -3.12277 0
M  V30 5091 C 501.302 3.20194 -4.096 0
M  V30 5092 C 498.987 3.58397 -3.51933 0
M  V30 5093 C 500.981 3.31256 -5.44563 0
M  V30 5094 C 498.668 3.69098 -4.87042 0
M  V30 5095 C 499.666 3.55537 -5.83166 0
M  V30 5096 O 499.354 3.65864 -7.1582 0
M  V30 5097 H 499.086 0.558194 -0.381307 0
M  V30 5098 H 501.64 1.24387 -1.63454 0
M  V30 5099 H 499.87 3.72659 -1.03256 0
M  V30 5100 H 501.559 3.79262 -1.4462 0
M  V30 5101 H 502.325 3.00987 -3.80305 0
M  V30 5102 H 498.204 3.68025 -2.77631 0
M  V30 5103 H 501.748 3.20588 -6.19572 0
M  V30 5104 H 497.645 3.87814 -5.16014 0
M  V30 5105 H 498.413 3.82675 -7.23534 0
M  V30 5106 N 501.076 1.04316 1.18135 0
M  V30 5107 C 502.039 0.640794 2.2006 0
M  V30 5108 C 503.039 -0.303124 1.57917 0
M  V30 5109 O 504.229 -0.0881855 1.73977 0
M  V30 5110 C 501.361 -0.060148 3.40847 0
M  V30 5111 H 502.554 1.54281 2.57172 0
M  V30 5112 H 500.107 0.836004 1.32063 0
M  V30 5113 H 500.842 -0.975845 3.0927 0
M  V30 5114 H 500.627 0.618319 3.87194 0
M  V30 5115 H 502.117 -0.328082 4.16309 0
M  V30 5116 N 502.554 -1.34406 0.822964 0
M  V30 5117 C 503.784 -2.02214 0.423424 0
M  V30 5118 C 504.192 -1.62124 -0.975322 0
M  V30 5119 O 503.535 -0.822452 -1.6426 0
M  V30 5120 C 503.597 -3.56721 0.446107 0
M  V30 5121 C 503.261 -4.20136 1.79819 0
M  V30 5122 C 504.258 -4.4065 2.75904 0
M  V30 5123 C 501.943 -4.56906 2.08669 0
M  V30 5124 C 503.937 -4.9706 3.99012 0
M  V30 5125 C 501.624 -5.13026 3.32036 0
M  V30 5126 C 502.622 -5.33047 4.27024 0
M  V30 5127 O 502.31 -5.87979 5.48211 0
M  V30 5128 H 502.042 -0.654748 0.168169 0
M  V30 5129 H 504.596 -1.72659 1.11257 0
M  V30 5130 H 502.826 -3.85537 -0.299734 0
M  V30 5131 H 504.515 -4.05845 0.0666114 0
M  V30 5132 H 505.281 -4.12607 2.54912 0
M  V30 5133 H 501.16 -4.40626 1.35535 0
M  V30 5134 H 504.704 -5.12603 4.73164 0
M  V30 5135 H 500.601 -5.40498 3.52891 0
M  V30 5136 H 501.369 -6.06413 5.49732 0
M  V30 5137 N 504.032 -0.577932 -1.46621 0
M  V30 5138 C 505.278 -0.0617793 -2.02706 0
M  V30 5139 C 505.611 1.29294 -1.44903 0
M  V30 5140 O 504.886 1.8461 -0.61232 0
M  V30 5141 C 505.169 0.00911824 -3.60099 0
M  V30 5142 C 505.022 -1.37416 -4.28295 0
M  V30 5143 C 506.341 0.712159 -4.343 0
M  V30 5144 H 503.46 -0.0239246 -0.736612 0
M  V30 5145 H 506.102 -0.744211 -1.74818 0
M  V30 5146 H 504.252 0.590292 -3.83989 0
M  V30 5147 H 505.924 -2.00013 -4.15683 0
M  V30 5148 H 504.167 -1.94319 -3.87843 0
M  V30 5149 H 504.838 -1.27707 -5.37024 0
M  V30 5150 H 507.314 0.218486 -4.15526 0
M  V30 5151 H 506.19 0.730782 -5.44014 0
M  V30 5152 H 506.451 1.77251 -4.05012 0
M  V30 5153 N 505.51 1.54411 -0.315457 0
M  V30 5154 C 506.458 2.25514 0.569771 0
M  V30 5155 C 507.452 1.2663 1.12522 0
M  V30 5156 O 508.658 1.44434 1.07419 0
M  V30 5157 H 505.033 0.724257 0.202376 0
M  V30 5158 H 507.004 2.98354 -0.0522895 0
M  V30 5159 C 505.753 3.02004 1.72305 0
M  V30 5160 H 505.076 3.77906 1.30488 0
M  V30 5161 H 506.516 3.55014 2.31821 0
M  V30 5162 C 504.975 2.09822 2.63583 0
M  V30 5163 O 505.505 1.67574 3.65078 0
M  V30 5164 N 503.711 1.75478 2.31637 0
M  V30 5165 H 503.258 2.10032 1.49145 0
M  V30 5166 H 503.216 1.14079 2.92973 0
M  V30 5167 N 506.988 0.0434614 1.5754 0
M  V30 5168 C 507.938 -0.943039 2.07583 0
M  V30 5169 C 508.922 -1.27662 0.979342 0
M  V30 5170 O 510.114 -1.26034 1.24276 0
M  V30 5171 C 507.243 -2.22056 2.61813 0
M  V30 5172 C 506.329 -1.91471 3.78417 0
M  V30 5173 N 506.72 -1.31214 4.88484 0
M  V30 5174 C 505.018 -2.21384 3.87176 0
M  V30 5175 C 505.719 -1.18084 5.69588 0
M  V30 5176 N 504.695 -1.68116 5.16951 0
M  V30 5177 H 508.497 -0.472354 2.90079 0
M  V30 5178 H 506.011 -0.161191 1.61598 0
M  V30 5179 H 508.008 -2.93618 2.95963 0
M  V30 5180 H 506.668 -2.69738 1.80752 0
M  V30 5181 H 507.679 -0.985318 5.08441 0
M  V30 5182 H 504.356 -2.7164 3.17046 0
M  V30 5183 H 505.746 -0.713684 6.68099 0
M  V30 5184 N 508.466 -1.55915 -0.229846 0
M  V30 5185 C 509.414 -1.9258 -1.30444 0
M  V30 5186 C 510.408 -0.806839 -1.48951 0
M  V30 5187 O 511.614 -0.991606 -1.50224 0
M  V30 5188 H 507.989 -0.611878 -0.437161 0
M  V30 5189 H 509.96 -2.82264 -0.96797 0
M  V30 5190 C 508.709 -2.25171 -2.6494 0
M  V30 5191 H 508.032 -3.10782 -2.51504 0
M  V30 5192 H 509.472 -2.54716 -3.38963 0
M  V30 5193 C 507.931 -1.07394 -3.19324 0
M  V30 5194 O 508.461 -0.330759 -4.00336 0
M  V30 5195 N 506.667 -0.859984 -2.77584 0
M  V30 5196 H 506.214 -1.46605 -2.11813 0
M  V30 5197 H 506.172 -0.0736671 -3.14314 0
M  V30 5198 N 509.944 0.496216 -1.49584 0
M  V30 5199 C 510.874 1.60576 -1.69521 0
M  V30 5200 C 511.855 1.61169 -0.543933 0
M  V30 5201 O 513.04 1.77834 -0.78031 0
M  V30 5202 C 510.17 2.99038 -1.76616 0
M  V30 5203 C 509.124 3.13312 -2.91581 0
M  V30 5204 C 508.45 4.53172 -2.83794 0
M  V30 5205 C 509.75 2.92886 -4.32452 0
M  V30 5206 H 511.444 1.44146 -2.62416 0
M  V30 5207 H 508.99 0.692024 -1.26282 0
M  V30 5208 H 510.943 3.76564 -1.8915 0
M  V30 5209 H 509.667 3.16568 -0.80324 0
M  V30 5210 H 508.326 2.38213 -2.78658 0
M  V30 5211 H 507.974 4.67585 -1.854 0
M  V30 5212 H 507.674 4.63662 -3.60958 0
M  V30 5213 H 509.198 5.32752 -2.98342 0
M  V30 5214 H 510.612 3.60178 -4.46032 0
M  V30 5215 H 509.009 3.14844 -5.10875 0
M  V30 5216 H 510.079 1.88966 -4.46565 0
M  V30 5217 N 511.423 1.38739 0.74761 0
M  V30 5218 C 512.672 1.3459 1.50228 0
M  V30 5219 C 512.985 -0.0595592 1.95509 0
M  V30 5220 O 514.191 -0.22361 2.70578 0
M  V30 5221 C 512.647 2.36377 2.71393 0
M  V30 5222 C 512.255 3.82573 2.33113 0
M  V30 5223 C 513.999 2.41281 3.49262 0
M  V30 5224 C 511.906 4.76032 3.50924 0
M  V30 5225 H 510.836 0.500312 0.564096 0
M  V30 5226 H 513.487 1.64324 0.8167 0
M  V30 5227 H 511.869 1.99694 3.41962 0
M  V30 5228 H 513.043 4.28227 1.70171 0
M  V30 5229 H 511.358 3.80844 1.68365 0
M  V30 5230 H 513.955 3.08301 4.36869 0
M  V30 5231 H 514.298 1.43353 3.9084 0
M  V30 5232 H 514.831 2.76793 2.85711 0
M  V30 5233 H 511.57 5.75177 3.14408 0
M  V30 5234 H 511.09 4.35066 4.12889 0
M  V30 5235 H 512.769 4.94331 4.17427 0
M  V30 5236 N 512.901 -0.976442 1.23707 0
M  V30 5237 C 513.811 -2.10359 1.03856 0
M  V30 5238 C 514.827 -1.73991 -0.0180919 0
M  V30 5239 O 516.003 -2.0061 0.178211 0
M  V30 5240 C 513.068 -3.40809 0.636387 0
M  V30 5241 C 512.129 -3.91179 1.76854 0
M  V30 5242 C 511.362 -5.15404 1.38546 0
M  V30 5243 O 511.585 -5.69754 0.27142 0
M  V30 5244 O 510.519 -5.5994 2.20797 0
M  V30 5245 H 514.345 -2.29997 1.98331 0
M  V30 5246 H 511.93 -1.08742 1.02448 0
M  V30 5247 H 513.812 -4.19269 0.423223 0
M  V30 5248 H 512.487 -3.22493 -0.279322 0
M  V30 5249 H 511.394 -3.13819 2.03638 0
M  V30 5250 H 512.727 -4.13958 2.6627 0
M  V30 5251 N 514.379 -1.04941 -1.1758 0
M  V30 5252 C 515.342 -0.652456 -2.19717 0
M  V30 5253 C 516.342 0.294745 -1.58076 0
M  V30 5254 O 517.532 0.0789579 -1.74021 0
M  V30 5255 C 514.664 0.0420712 -3.40874 0
M  V30 5256 H 515.857 -1.55642 -2.5635 0
M  V30 5257 H 513.41 -0.842995 -1.31618 0
M  V30 5258 H 514.145 0.95943 -3.09783 0
M  V30 5259 H 513.93 -0.638844 -3.86861 0
M  V30 5260 H 515.42 0.306 -4.16477 0
M  V30 5261 N 515.857 1.33968 -0.830081 0
M  V30 5262 C 517.104 1.98063 -0.421566 0
M  V30 5263 C 517.432 1.65787 1.0171 0
M  V30 5264 O 516.687 0.925348 1.72441 0
M  V30 5265 C 516.986 3.52679 -0.57898 0
M  V30 5266 C 516.652 4.04884 -1.98443 0
M  V30 5267 C 515.314 4.18852 -2.36888 0
M  V30 5268 C 517.666 4.32879 -2.90285 0
M  V30 5269 C 514.994 4.58145 -3.66497 0
M  V30 5270 C 517.346 4.7362 -4.19364 0
M  V30 5271 C 516.01 4.85794 -4.57778 0
M  V30 5272 H 515.28 0.724765 -0.154262 0
M  V30 5273 H 517.927 1.59792 -1.05541 0
M  V30 5274 H 516.232 3.91556 0.138219 0
M  V30 5275 H 517.929 4.00261 -0.243317 0
M  V30 5276 H 514.519 3.9448 -1.67581 0
M  V30 5277 H 518.703 4.21619 -2.61823 0
M  V30 5278 H 513.959 4.65762 -3.96075 0
M  V30 5279 H 518.133 4.9424 -4.90612 0
M  V30 5280 H 515.76 5.15998 -5.58256 0
M  V30 5281 N 517.335 0.585699 1.46312 0
M  V30 5282 C 518.245 -0.148236 2.34131 0
M  V30 5283 C 519.261 -0.882972 1.49932 0
M  V30 5284 O 520.437 -0.845484 1.82794 0
M  V30 5285 C 517.502 -1.14714 3.27172 0
M  V30 5286 C 516.563 -0.416746 4.27272 0
M  V30 5287 C 515.796 -1.36806 5.15868 0
M  V30 5288 O 516.019 -2.60475 5.07454 0
M  V30 5289 O 514.953 -0.877018 5.95476 0
M  V30 5290 H 518.779 0.572882 2.98248 0
M  V30 5291 H 516.364 0.346082 1.45336 0
M  V30 5292 H 518.246 -1.72303 3.84564 0
M  V30 5293 H 516.921 -1.84967 2.65648 0
M  V30 5294 H 515.828 0.201061 3.73559 0
M  V30 5295 H 517.161 0.244872 4.9159 0
M  V30 5296 N 518.813 -1.54241 0.323641 0
M  V30 5297 C 519.743 -2.27289 -0.534993 0
M  V30 5298 C 520.724 -1.28087 -1.11927 0
M  V30 5299 O 521.909 -1.56899 -1.14439 0
M  V30 5300 C 519.039 -3.03075 -1.69596 0
M  V30 5301 C 517.993 -4.09614 -1.24098 0
M  V30 5302 C 517.319 -4.73242 -2.4889 0
M  V30 5303 C 518.619 -5.21087 -0.355789 0
M  V30 5304 H 520.313 -2.99308 0.0743257 0
M  V30 5305 H 517.859 -1.43952 0.0371874 0
M  V30 5306 H 519.812 -3.52907 -2.30293 0
M  V30 5307 H 518.536 -2.28673 -2.33187 0
M  V30 5308 H 517.195 -3.60666 -0.656945 0
M  V30 5309 H 516.843 -3.95455 -3.10845 0
M  V30 5310 H 516.543 -5.45209 -2.19138 0
M  V30 5311 H 518.067 -5.25848 -3.10348 0
M  V30 5312 H 519.481 -5.66675 -0.869042 0
M  V30 5313 H 517.878 -5.9991 -0.151045 0
M  V30 5314 H 518.948 -4.81005 0.613339 0
M  V30 5315 N 520.291 -0.0518155 -1.57515 0
M  V30 5316 C 521.539 0.620595 -1.92336 0
M  V30 5317 C 521.86 1.71345 -0.930907 0
M  V30 5318 O 521.13 1.95885 0.0241341 0
M  V30 5319 H 519.71 0.232226 -0.709986 0
M  V30 5320 H 522.372 -0.104969 -1.94617 0
M  V30 5321 H 521.468 1.05879 -2.93592 0
M  V30 5322 N 521.769 1.56035 0.221574 0
M  V30 5323 C 522.732 1.91584 1.2581 0
M  V30 5324 C 523.732 0.794425 1.39805 0
M  V30 5325 O 524.922 1.06217 1.38071 0
M  V30 5326 C 522.054 2.16663 2.63192 0
M  V30 5327 H 523.247 2.8429 0.954935 0
M  V30 5328 H 520.8 1.49316 0.461988 0
M  V30 5329 H 521.535 1.26508 2.98607 0
M  V30 5330 H 521.32 2.98358 2.5441 0
M  V30 5331 H 522.81 2.45262 3.37988 0
M  V30 5332 N 523.247 -0.488276 1.49845 0
M  V30 5333 C 524.21 -1.57069 1.66919 0
M  V30 5334 C 525.21 -1.51445 0.540479 0
M  V30 5335 O 526.4 -1.5437 0.807188 0
M  V30 5336 C 523.532 -2.96718 1.67844 0
M  V30 5337 H 524.725 -1.43254 2.63474 0
M  V30 5338 H 522.278 -0.713435 1.39068 0
M  V30 5339 H 523.013 -3.15996 0.7292 0
M  V30 5340 H 522.798 -3.02208 2.49826 0
M  V30 5341 H 524.288 -3.75335 1.83066 0
M  V30 5342 N 524.725 -1.39134 -0.740242 0
M  V30 5343 C 525.973 -1.35803 -1.49673 0
M  V30 5344 C 526.294 0.0470897 -1.94943 0
M  V30 5345 O 525.564 0.997347 -1.68611 0
M  V30 5346 H 524.144 -0.499736 -0.555224 0
M  V30 5347 H 526.806 -1.73947 -0.879107 0
M  V30 5348 H 525.902 -2.0174 -2.38133 0
M  V30 5349 N 526.204 0.969867 -1.24223 0
M  V30 5350 C 527.154 2.04913 -0.999732 0
M  V30 5351 C 528.138 1.60795 0.0580636 0
M  V30 5352 O 529.33 1.76317 -0.155392 0
M  V30 5353 C 526.459 3.37942 -0.604154 0
M  V30 5354 C 525.545 3.88628 -1.69791 0
M  V30 5355 N 525.936 4.12274 -2.93025 0
M  V30 5356 C 524.234 4.17268 -1.57492 0
M  V30 5357 C 524.935 4.53808 -3.63914 0
M  V30 5358 N 523.911 4.58855 -2.91468 0
M  V30 5359 H 527.713 2.21168 -1.93551 0
M  V30 5360 H 525.227 1.15349 -1.14317 0
M  V30 5361 H 527.224 4.14863 -0.411665 0
M  V30 5362 H 525.884 3.23075 0.324465 0
M  V30 5363 H 526.895 3.99789 -3.29225 0
M  V30 5364 H 523.572 4.11346 -0.714175 0
M  V30 5365 H 524.962 4.80534 -4.69614 0
M  V30 5366 N 527.682 1.05563 1.17022 0
M  V30 5367 C 528.929 0.767937 1.87374 0
M  V30 5368 C 529.257 -0.705224 1.81265 0
M  V30 5369 O 528.512 -1.5318 1.21796 0
M  V30 5370 C 528.811 1.19849 3.36706 0
M  V30 5371 C 528.477 2.6745 3.63017 0
M  V30 5372 C 527.139 3.0777 3.69907 0
M  V30 5373 C 529.491 3.62811 3.74189 0
M  V30 5374 C 526.819 4.42307 3.85463 0
M  V30 5375 C 529.171 4.97087 3.91264 0
M  V30 5376 C 527.835 5.37055 3.96394 0
M  V30 5377 H 527.105 0.281008 0.68565 0
M  V30 5378 H 529.752 1.32339 1.38415 0
M  V30 5379 H 528.057 0.562096 3.87747 0
M  V30 5380 H 529.754 0.953038 3.8951 0
M  V30 5381 H 526.344 2.35228 3.58282 0
M  V30 5382 H 530.528 3.32798 3.68183 0
M  V30 5383 H 525.784 4.72769 3.87684 0
M  V30 5384 H 529.958 5.70869 3.9885 0
M  V30 5385 H 527.585 6.41308 4.082 0
M  V30 5386 N 529.16 -1.33526 0.837174 0
M  V30 5387 C 530.107 -2.29248 0.267169 0
M  V30 5388 C 531.077 -1.54252 -0.616071 0
M  V30 5389 O 532.262 -1.82559 -0.554699 0
M  V30 5390 C 529.402 -3.40638 -0.553152 0
M  V30 5391 C 528.515 -4.30548 0.353921 0
M  V30 5392 C 527.65 -5.29051 -0.477339 0
M  V30 5393 C 526.689 -6.106 0.42823 0
M  V30 5394 N 525.826 -7.01152 -0.364801 0
M  V30 5395 H 530.666 -2.77398 1.08877 0
M  V30 5396 H 528.203 -1.36496 0.54838 0
M  V30 5397 H 530.161 -4.03921 -1.04422 0
M  V30 5398 H 528.791 -2.93685 -1.33973 0
M  V30 5399 H 527.843 -3.68001 0.963289 0
M  V30 5400 H 529.155 -4.87631 1.04964 0
M  V30 5401 H 528.309 -5.97853 -1.0323 0
M  V30 5402 H 527.048 -4.72541 -1.2065 0
M  V30 5403 H 526.053 -5.40718 0.995219 0
M  V30 5404 H 527.278 -6.69193 1.15573 0
M  V30 5405 H 525.224 -6.47092 -1.07738 0
M  V30 5406 H 525.141 -7.5551 0.272238 0
M  V30 5407 H 526.409 -7.74263 -0.902054 0
M  V30 5408 N 530.638 -0.59345 -1.46 0
M  V30 5409 C 531.884 -0.0832754 -2.02629 0
M  V30 5410 C 532.217 1.27749 -1.46266 0
M  V30 5411 O 531.492 1.8395 -0.631866 0
M  V30 5412 C 531.775 -0.0290756 -3.60088 0
M  V30 5413 C 531.628 -1.41951 -4.26814 0
M  V30 5414 C 532.947 0.666055 -4.35031 0
M  V30 5415 H 530.066 -0.031736 -0.736316 0
M  V30 5416 H 532.708 -0.762711 -1.74019 0
M  V30 5417 H 530.858 0.549532 -3.84594 0
M  V30 5418 H 532.53 -2.04411 -4.13538 0
M  V30 5419 H 530.773 -1.98422 -3.8576 0
M  V30 5420 H 531.444 -1.33395 -5.3564 0
M  V30 5421 H 533.92 0.174401 -4.15734 0
M  V30 5422 H 532.796 0.673041 -5.44758 0
M  V30 5423 H 533.057 1.72946 -4.06869 0
M  V30 5424 N 532.116 1.54067 -0.331816 0
M  V30 5425 C 533.344 2.05131 0.269996 0
M  V30 5426 C 533.759 1.20749 1.45138 0
M  V30 5427 O 533.116 0.240069 1.80914 0
M  V30 5428 C 533.167 3.54728 0.696456 0
M  V30 5429 O 532.888 4.35906 -0.43794 0
M  V30 5430 C 534.389 4.21916 1.36021 0
M  V30 5431 H 531.609 0.668807 0.0542042 0
M  V30 5432 H 534.153 1.98777 -0.4804 0
M  V30 5433 H 532.308 3.61342 1.39681 0
M  V30 5434 H 532.722 5.24404 -0.100334 0
M  V30 5435 H 534.196 5.28015 1.60947 0
M  V30 5436 H 534.673 3.73538 2.31011 0
M  V30 5437 H 535.279 4.19463 0.702212 0
M  V30 5438 N 533.594 0.0601682 1.57485 0
M  V30 5439 C 534.842 -0.610386 1.92662 0
M  V30 5440 C 535.163 -1.70849 0.939981 0
M  V30 5441 O 534.433 -1.95895 -0.0137455 0
M  V30 5442 H 533.013 -0.228457 0.711208 0
M  V30 5443 H 535.675 0.115288 1.94559 0
M  V30 5444 H 534.771 -1.0432 2.94149 0
M  V30 5445 N 535.072 -1.5615 -0.213296 0
M  V30 5446 C 535.982 -1.96265 -1.28519 0
M  V30 5447 C 536.998 -0.86765 -1.50824 0
M  V30 5448 O 538.174 -1.17191 -1.63793 0
M  V30 5449 C 535.239 -2.27836 -2.61327 0
M  V30 5450 C 534.3 -3.50949 -2.47252 0
M  V30 5451 C 533.533 -3.81004 -3.73727 0
M  V30 5452 O 533.756 -3.12612 -4.77106 0
M  V30 5453 O 532.69 -4.74477 -3.70344 0
M  V30 5454 H 536.516 -2.87631 -0.974795 0
M  V30 5455 H 534.101 -1.43467 -0.416832 0
M  V30 5456 H 535.983 -2.49299 -3.39747 0
M  V30 5457 H 534.658 -1.39643 -2.9203 0
M  V30 5458 H 533.565 -3.34754 -1.67004 0
M  V30 5459 H 534.898 -4.39551 -2.21486 0
M  V30 5460 N 536.55 0.480323 -1.50102 0
M  V30 5461 C 537.796 1.23208 -1.61837 0
M  V30 5462 C 538.151 1.89878 -0.310509 0
M  V30 5463 O 537.444 1.7871 0.690897 0
M  V30 5464 C 537.638 2.30708 -2.72963 0
M  V30 5465 C 537.467 1.74583 -4.14428 0
M  V30 5466 C 536.237 1.54964 -4.80951 0
M  V30 5467 C 538.435 1.24597 -4.98979 0
M  V30 5468 N 536.417 0.939855 -6.06663 0
M  V30 5469 C 537.788 0.758834 -6.15339 0
M  V30 5470 C 539.843 1.13365 -4.84822 0
M  V30 5471 C 538.546 0.17046 -7.19098 0
M  V30 5472 C 540.572 0.559221 -5.8875 0
M  V30 5473 C 539.934 0.082415 -7.04352 0
M  V30 5474 H 536.033 0.440065 -0.646426 0
M  V30 5475 H 538.617 0.535632 -1.87187 0
M  V30 5476 H 536.788 2.9779 -2.4935 0
M  V30 5477 H 538.52 2.97738 -2.74106 0
M  V30 5478 H 535.275 1.79926 -4.38091 0
M  V30 5479 H 535.699 0.653641 -6.73837 0
M  V30 5480 H 540.341 1.48823 -3.95742 0
M  V30 5481 H 538.059 -0.196347 -8.07861 0
M  V30 5482 H 541.645 0.474804 -5.79859 0
M  V30 5483 H 540.525 -0.355119 -7.83396 0
M  V30 5484 N 538.028 1.39524 0.732853 0
M  V30 5485 C 538.976 1.38563 1.86824 0
M  V30 5486 C 539.97 0.268467 1.67259 0
M  V30 5487 O 541.176 0.438613 1.74574 0
M  V30 5488 H 537.551 0.432737 0.615014 0
M  V30 5489 H 539.522 2.34328 1.84751 0
M  V30 5490 C 538.271 1.2481 3.24527 0
M  V30 5491 H 537.594 2.10044 3.40179 0
M  V30 5492 H 539.034 1.28194 4.04156 0
M  V30 5493 C 537.493 -0.0432825 3.36872 0
M  V30 5494 O 538.023 -1.01268 3.88726 0
M  V30 5495 N 536.229 -0.107055 2.90403 0
M  V30 5496 H 535.776 0.682512 2.48394 0
M  V30 5497 H 535.734 -0.970618 2.99042 0
M  V30 5498 N 539.506 -0.963266 1.24736 0
M  V30 5499 C 540.783 -1.68248 0.9976 0
M  V30 5500 C 541.163 -2.05599 -0.478776 0
M  V30 5501 O 540.511 -1.7626 -1.45412 0
M  V30 5502 C 540.721 -2.91118 1.92487 0
M  V30 5503 C 542.069 -3.63261 2.19833 0
M  V30 5504 O 543.093 -3.01184 1.90176 0
M  V30 5505 O 541.952 -4.75019 2.7022 0
M  V30 5506 H 539.046 -0.735744 0.377637 0
M  V30 5507 H 541.592 -1.01696 1.35853 0
M  V30 5508 H 540.364 -2.60242 2.92215 0
M  V30 5509 H 539.987 -3.65402 1.56738 0
M  V30 5510 N 540.985 -1.06182 -1.16461 0
M  V30 5511 C 542.262 -0.691364 -1.82974 0
M  V30 5512 C 542.642 0.827377 -1.9421 0
M  V30 5513 O 541.99 1.73723 -1.48434 0
M  V30 5514 C 542.2 -1.39199 -3.20038 0
M  V30 5515 C 543.548 -1.53647 -3.95825 0
M  V30 5516 O 544.572 -1.35181 -3.29552 0
M  V30 5517 O 543.431 -1.83932 -5.14618 0
M  V30 5518 H 540.525 -0.244605 -0.789998 0
M  V30 5519 H 543.071 -1.16203 -1.23673 0
M  V30 5520 H 541.843 -2.42766 -3.06888 0
M  V30 5521 H 541.466 -0.911335 -3.87015 0
M  V30 5522 N 542.463 1.3308 -0.844243 0
M  V30 5523 C 543.393 2.3161 -0.296493 0
M  V30 5524 C 544.374 1.59215 0.598707 0
M  V30 5525 O 545.559 1.87077 0.521134 0
M  V30 5526 C 542.689 3.43313 0.524762 0
M  V30 5527 C 541.643 4.27115 -0.275106 0
M  V30 5528 C 540.969 5.30483 0.670236 0
M  V30 5529 C 542.269 5.00443 -1.49514 0
M  V30 5530 H 543.963 2.77672 -1.11976 0
M  V30 5531 H 541.509 1.33496 -0.539899 0
M  V30 5532 H 543.462 4.11273 0.918298 0
M  V30 5533 H 542.186 2.95952 1.3813 0
M  V30 5534 H 540.845 3.60787 -0.650267 0
M  V30 5535 H 540.493 4.79379 1.52332 0
M  V30 5536 H 540.193 5.87435 0.139123 0
M  V30 5537 H 541.717 6.01308 1.06117 0
M  V30 5538 H 543.131 5.61141 -1.17447 0
M  V30 5539 H 541.528 5.67071 -1.96343 0
M  V30 5540 H 542.598 4.28906 -2.26202 0
M  V30 5541 N 543.941 0.601185 1.45683 0
M  V30 5542 C 544.874 -0.17013 2.27565 0
M  V30 5543 C 545.852 -0.879661 1.36751 0
M  V30 5544 O 547.036 -0.889827 1.66176 0
M  V30 5545 C 544.163 -1.24568 3.14961 0
M  V30 5546 C 543.209 -0.639978 4.21671 0
M  V30 5547 S 544.042 0.547275 5.32696 0
M  V30 5548 C 545.198 -0.529019 6.2366 0
M  V30 5549 H 545.431 0.524583 2.92635 0
M  V30 5550 H 542.964 0.388537 1.49431 0
M  V30 5551 H 544.922 -1.86138 3.65873 0
M  V30 5552 H 543.583 -1.91243 2.49169 0
M  V30 5553 H 542.776 -1.44903 4.8272 0
M  V30 5554 H 542.378 -0.0995558 3.73867 0
M  V30 5555 H 544.67 -1.40981 6.62669 0
M  V30 5556 H 545.613 0.0451599 7.08086 0
M  V30 5557 H 546.021 -0.84147 5.58193 0
M  V30 5558 N 545.419 -1.53889 0.339982 0
M  V30 5559 C 546.647 -2.05271 -0.259114 0
M  V30 5560 C 547.062 -1.21517 -1.44496 0
M  V30 5561 O 546.419 -0.24966 -1.80784 0
M  V30 5562 C 546.47 -3.55092 -0.677634 0
M  V30 5563 O 546.191 -4.35667 0.461051 0
M  V30 5564 C 547.692 -4.22631 -1.33782 0
M  V30 5565 H 544.912 -0.669085 -0.0506566 0
M  V30 5566 H 547.456 -1.9852 0.490935 0
M  V30 5567 H 545.611 -3.62077 -1.37763 0
M  V30 5568 H 546.025 -5.24343 0.128144 0
M  V30 5569 H 547.499 -5.28861 -1.58145 0
M  V30 5570 H 547.976 -3.74758 -2.29027 0
M  V30 5571 H 548.582 -4.19829 -0.679957 0
M  V30 5572 N 546.897 -0.0685191 -1.57451 0
M  V30 5573 C 548.122 0.613919 -1.98106 0
M  V30 5574 C 548.547 1.62551 -0.946501 0
M  V30 5575 O 547.905 1.81085 0.0882824 0
M  V30 5576 C 547.953 1.26189 -3.378 0
M  V30 5577 O 547.057 2.37773 -3.36954 0
M  V30 5578 H 546.398 0.158163 -0.644888 0
M  V30 5579 H 548.928 -0.142063 -2.04106 0
M  V30 5580 H 548.938 1.60951 -3.74912 0
M  V30 5581 H 547.613 0.520625 -4.12629 0
M  V30 5582 H 546.19 2.04829 -3.11608 0
M  V30 5583 N 548.375 1.56261 0.205012 0
M  V30 5584 C 549.621 1.80306 0.9283 0
M  V30 5585 C 549.954 0.640932 1.83319 0
M  V30 5586 O 549.229 -0.359032 1.91158 0
M  V30 5587 C 549.512 3.14547 1.75306 0
M  V30 5588 C 549.365 4.41236 0.873562 0
M  V30 5589 C 550.684 3.45382 2.72762 0
M  V30 5590 H 547.803 0.655929 0.336044 0
M  V30 5591 H 550.445 1.88984 0.196211 0
M  V30 5592 H 548.595 3.0728 2.37721 0
M  V30 5593 H 550.267 4.60539 0.264887 0
M  V30 5594 H 548.51 4.33427 0.179773 0
M  V30 5595 H 549.181 5.31639 1.48541 0
M  V30 5596 H 551.657 3.52884 2.20481 0
M  V30 5597 H 550.533 4.40449 3.2756 0
M  V30 5598 H 550.794 2.68377 3.51321 0
M  V30 5599 N 549.853 -0.472356 1.50355 0
M  V30 5600 C 551.099 -1.22634 1.6152 0
M  V30 5601 C 551.432 -1.91645 0.313995 0
M  V30 5602 O 550.707 -1.82059 -0.684446 0
M  V30 5603 C 550.99 -2.27099 2.7946 0
M  V30 5604 C 550.843 -1.62402 4.19459 0
M  V30 5605 C 552.162 -3.28421 2.92964 0
M  V30 5606 H 549.281 -0.444494 0.587873 0
M  V30 5607 H 551.923 -0.520321 1.82737 0
M  V30 5608 H 550.073 -2.87314 2.61501 0
M  V30 5609 H 551.745 -1.05793 4.49005 0
M  V30 5610 H 549.988 -0.927184 4.23776 0
M  V30 5611 H 550.659 -2.38309 4.97909 0
M  V30 5612 H 553.135 -2.78227 3.09401 0
M  V30 5613 H 552.011 -3.98845 3.77113 0
M  V30 5614 H 552.272 -3.92467 2.03525 0
M  V30 5615 N 551.331 -1.39911 -0.725443 0
M  V30 5616 C 552.278 -1.39393 -1.83952 0
M  V30 5617 C 553.248 -0.252249 -1.64173 0
M  V30 5618 O 554.433 -0.44882 -1.85446 0
M  V30 5619 C 551.573 -1.25262 -3.21564 0
M  V30 5620 C 550.686 -2.49054 -3.52982 0
M  V30 5621 C 549.821 -2.27439 -4.80047 0
M  V30 5622 C 548.86 -3.46857 -5.04338 0
M  V30 5623 N 547.997 -3.24499 -6.22611 0
M  V30 5624 H 552.837 -2.34622 -1.83729 0
M  V30 5625 H 550.374 -1.16537 -0.897636 0
M  V30 5626 H 552.332 -1.15077 -4.01015 0
M  V30 5627 H 550.962 -0.33657 -3.21041 0
M  V30 5628 H 550.014 -2.69805 -2.6816 0
M  V30 5629 H 551.326 -3.37973 -3.66846 0
M  V30 5630 H 550.48 -2.14551 -5.67497 0
M  V30 5631 H 549.219 -1.35929 -4.68374 0
M  V30 5632 H 548.224 -3.60232 -4.15346 0
M  V30 5633 H 549.449 -4.3928 -5.17889 0
M  V30 5634 H 547.395 -2.35663 -6.12208 0
M  V30 5635 H 547.312 -4.06978 -6.37106 0
M  V30 5636 H 548.58 -3.15325 -7.12875 0
M  V30 5637 N 552.809 0.956637 -1.25245 0
M  V30 5638 C 554.22 1.51569 -1.09012 0
M  V30 5639 C 554.571 1.93322 0.334813 0
M  V30 5640 O 553.696 1.78421 1.22454 0
M  V30 5641 C 554.291 2.75444 -1.97271 0
M  V30 5642 C 552.85 3.27669 -1.8523 0
M  V30 5643 C 551.997 2.00517 -1.91542 0
M  V30 5644 H 554.948 0.773746 -1.3856 0
M  V30 5645 H 554.969 3.4919 -1.51151 0
M  V30 5646 H 554.481 2.45024 -3.00973 0
M  V30 5647 H 552.582 3.62914 -0.844045 0
M  V30 5648 H 552.695 3.9582 -2.69932 0
M  V30 5649 H 551.059 2.15727 -1.35404 0
M  V30 5650 H 551.842 1.72448 -2.96844 0
M  V30 5651 N 554.287 1.06798 1.15896 0
M  V30 5652 C 555.25 0.687328 2.18651 0
M  V30 5653 C 556.25 -0.269559 1.58524 0
M  V30 5654 O 557.44 -0.0512627 1.74125 0
M  V30 5655 C 554.572 0.0121642 3.40898 0
M  V30 5656 H 555.765 1.59701 2.53842 0
M  V30 5657 H 553.318 0.863828 1.3026 0
M  V30 5658 H 554.053 -0.910025 3.1127 0
M  V30 5659 H 553.838 0.700309 3.85795 0
M  V30 5660 H 555.328 -0.239703 4.16911 0
M  V30 5661 N 555.766 -1.3263 0.851289 0
M  V30 5662 C 556.991 -2.02097 0.466006 0
M  V30 5663 C 557.416 -1.63574 -0.928709 0
M  V30 5664 O 556.774 -0.834665 -1.60944 0
M  V30 5665 C 556.822 -3.55425 0.608737 0
M  V30 5666 O 555.926 -4.10827 -0.359878 0
M  V30 5667 H 555.267 -0.636911 0.187724 0
M  V30 5668 H 557.797 -1.69253 1.14955 0
M  V30 5669 H 557.807 -4.04986 0.495006 0
M  V30 5670 H 556.482 -3.82806 1.62581 0
M  V30 5671 H 555.059 -3.72349 -0.202666 0
M  V30 5672 N 557.244 -0.608902 -1.45362 0
M  V30 5673 C 558.177 0.158059 -2.27652 0
M  V30 5674 C 559.155 0.872397 -1.37215 0
M  V30 5675 O 560.339 0.881002 -1.66645 0
M  V30 5676 C 557.466 1.22896 -3.15617 0
M  V30 5677 C 556.512 0.617607 -4.22005 0
M  V30 5678 S 557.345 -0.575518 -5.32398 0
M  V30 5679 C 558.501 0.495938 -6.23932 0
M  V30 5680 H 558.734 -0.540095 -2.92353 0
M  V30 5681 H 556.267 -0.396456 -1.49223 0
M  V30 5682 H 558.225 1.84195 -3.66855 0
M  V30 5683 H 556.886 1.89919 -2.50179 0
M  V30 5684 H 556.079 1.42341 -4.83482 0
M  V30 5685 H 555.681 0.0797273 -3.73915 0
M  V30 5686 H 557.973 1.37465 -6.63408 0
M  V30 5687 H 558.916 -0.0827108 -7.08052 0
M  V30 5688 H 559.324 0.811856 -5.58631 0
M  V30 5689 O 558.761 1.53877 -0.490327 0
M  V30 5690 H 559.452 1.93677 0.0300664 0
M  V30 END ATOM
M  V30 BEGIN BOND
M  V30 END BOND
M  V30 END CTAB
M  END
$$$$
