drugbank_target|P51787 Potassium voltage-gated channel subfamily KQT member 1 (DB01244; DB04855; DB04957; DB06089; DB11633)
 OpenBabel12092119363D

  0  0  0     0  0            999 V3000
M  V30 BEGIN CTAB
M  V30 COUNTS 10655 10792 0 0 0
M  V30 BEGIN ATOM
M  V30 1 H -0.908 1.98254 -0.117106 0
M  V30 2 N 0 1.576 0 0
M  V30 3 C 0.933 2.03868 1.02534 0
M  V30 4 C 1.911 0.928543 1.3348 0
M  V30 5 O 3.095 1.19667 1.45644 0
M  V30 6 C 0.222 2.43627 2.35294 0
M  V30 7 C -0.732 3.65373 2.2001 0
M  V30 8 S 0.101 5.13292 1.52614 0
M  V30 9 C 1.257 5.56322 2.86805 0
M  V30 10 H 1.49 2.90518 0.631377 0
M  V30 11 H -0.977 1.52953 0.210867 0
M  V30 12 H 0.981 2.67203 3.11629 0
M  V30 13 H -0.358 1.57376 2.7183 0
M  V30 14 H -1.165 3.90944 3.18086 0
M  V30 15 H -1.563 3.418 1.51819 0
M  V30 16 H 0.729 5.58782 3.83104 0
M  V30 17 H 1.672 6.56266 2.65933 0
M  V30 18 H 2.08 4.83886 2.90714 0
M  V30 19 N 1.4781 -0.272755 1.55222 0
M  V30 20 C 2.4411 -1.32041 1.87344 0
M  V30 21 C 3.4411 -1.42342 0.74803 0
M  V30 22 O 4.6311 -1.41488 1.0162 0
M  V30 23 C 1.7631 -2.70173 2.07893 0
M  V30 24 H 2.9561 -1.04789 2.80997 0
M  V30 25 H 0.5091 -0.51083 1.47717 0
M  V30 26 H 1.2441 -3.02605 1.16622 0
M  V30 27 H 1.0291 -2.64082 2.89833 0
M  V30 28 H 2.5191 -3.45869 2.34017 0
M  V30 29 N 2.9562 -1.48159 -0.537278 0
M  V30 30 C 3.9192 -1.61665 -1.62472 0
M  V30 31 C 4.9192 -0.490395 -1.5314 0
M  V30 32 O 6.1092 -0.755998 -1.5694 0
M  V30 33 C 3.2412 -1.57997 -3.02076 0
M  V30 34 H 4.4342 -2.58621 -1.51839 0
M  V30 35 H 1.9872 -1.36647 -0.758771 0
M  V30 36 H 2.7222 -0.624913 -3.18222 0
M  V30 37 H 2.5072 -2.39755 -3.10258 0
M  V30 38 H 3.9972 -1.70627 -3.81151 0
M  V30 39 N 4.4343 0.785586 -1.36625 0
M  V30 40 C 5.3973 1.87999 -1.31107 0
M  V30 41 C 6.3973 1.59316 -0.217959 0
M  V30 42 O 7.5873 1.67656 -0.472977 0
M  V30 43 C 4.7193 3.24861 -1.03334 0
M  V30 44 H 5.9123 1.94307 -2.2844 0
M  V30 45 H 3.4653 0.983813 -1.21453 0
M  V30 46 H 4.2003 3.24235 -0.0647432 0
M  V30 47 H 3.9853 3.4707 -1.82441 0
M  V30 48 H 5.4753 4.04929 -1.02088 0
M  V30 49 N 5.9124 1.20967 1.01018 0
M  V30 50 C 7.1374 1.0503 1.78839 0
M  V30 51 C 7.5624 -0.395752 1.8389 0
M  V30 52 O 6.9204 -1.28529 1.27867 0
M  V30 53 C 6.9684 1.64602 3.2084 0
M  V30 54 O 6.0724 0.887988 4.02726 0
M  V30 55 H 5.4134 0.369987 0.551367 0
M  V30 56 H 7.9434 1.60399 1.27018 0
M  V30 57 H 7.9534 1.68607 3.71532 0
M  V30 58 H 6.6284 2.69841 3.16479 0
M  V30 59 H 5.2054 0.922648 3.61305 0
M  V30 60 N 7.3905 -1.2043 1.01659 0
M  V30 61 C 8.6155 -1.94318 0.724942 0
M  V30 62 C 9.0405 -1.74266 -0.708034 0
M  V30 63 O 8.3985 -1.03694 -1.48719 0
M  V30 64 C 8.4465 -3.44486 1.06591 0
M  V30 65 O 7.5505 -4.12017 0.177599 0
M  V30 66 H 6.8915 -0.60708 0.26898 0
M  V30 67 H 9.4215 -1.52861 1.35995 0
M  V30 68 H 9.4315 -3.95106 1.01762 0
M  V30 69 H 8.1065 -3.58404 2.10997 0
M  V30 70 H 6.6835 -3.71821 0.283421 0
M  V30 71 N 8.8686 -0.792821 -1.36206 0
M  V30 72 C 10.2796 -0.429513 -1.81692 0
M  V30 73 C 10.6306 1.04695 -1.65932 0
M  V30 74 O 9.7556 1.81256 -1.18218 0
M  V30 75 C 10.3506 -0.772831 -3.29868 0
M  V30 76 C 8.9096 -0.462307 -3.7355 0
M  V30 77 C 8.0566 -1.00569 -2.5842 0
M  V30 78 H 11.0076 -0.985672 -1.24379 0
M  V30 79 H 11.0286 -0.0651928 -3.80444 0
M  V30 80 H 10.5406 -1.84747 -3.41307 0
M  V30 81 H 8.6416 0.604158 -3.67669 0
M  V30 82 H 8.7546 -0.985299 -4.68859 0
M  V30 83 H 7.1186 -0.428734 -2.51066 0
M  V30 84 H 7.9016 -2.08616 -2.72643 0
M  V30 85 N 10.3467 1.47872 -0.545128 0
M  V30 86 C 11.7577 1.86384 -0.108581 0
M  V30 87 C 12.1087 1.45309 1.31832 0
M  V30 88 O 11.2337 0.850641 1.9898 0
M  V30 89 C 11.8287 3.38265 -0.190274 0
M  V30 90 C 10.3877 3.75914 0.191164 0
M  V30 91 C 9.5347 2.71926 -0.543273 0
M  V30 92 H 12.4857 1.39561 -0.755537 0
M  V30 93 H 12.5067 3.75831 0.594217 0
M  V30 94 H 12.0187 3.6813 -1.2289 0
M  V30 95 H 10.1197 3.51665 1.23136 0
M  V30 96 H 10.2327 4.78836 -0.158987 0
M  V30 97 H 8.5967 2.54697 0.0122495 0
M  V30 98 H 9.3797 3.04634 -1.58282 0
M  V30 99 N 11.8248 0.280983 1.55075 0
M  V30 100 C 13.2408 -0.0729964 1.59433 0
M  V30 101 C 13.4408 -1.5411 1.29817 0
M  V30 102 O 12.4968 -2.29086 1.06187 0
M  V30 103 C 13.8098 0.306921 2.9913 0
M  V30 104 C 15.3578 0.254023 3.11968 0
M  V30 105 C 15.8328 0.608467 4.5394 0
M  V30 106 N 17.3238 0.560241 4.59799 0
M  V30 107 C 18.0588 0.80722 5.6769 0
M  V30 108 N 17.5548 1.11912 6.83701 0
M  V30 109 N 19.3478 0.735623 5.57266 0
M  V30 110 H 11.4988 1.238 1.7259 0
M  V30 111 H 13.7618 0.500547 0.805082 0
M  V30 112 H 13.4678 1.32816 3.25657 0
M  V30 113 H 13.3418 -0.349363 3.75579 0
M  V30 114 H 15.7288 -0.75794 2.852 0
M  V30 115 H 15.8098 0.944649 2.37718 0
M  V30 116 H 15.4538 1.61814 4.81434 0
M  V30 117 H 15.3838 -0.104013 5.26497 0
M  V30 118 H 17.8748 0.329288 3.76463 0
M  V30 119 H 18.1878 1.29409 7.61888 0
M  V30 120 H 16.5328 1.15695 6.85303 0
M  V30 121 H 19.7238 0.491752 4.6551 0
M  V30 122 H 19.8968 0.931482 6.4127 0
M  V30 123 N 13.3029 -1.57598 0.00835791 0
M  V30 124 C 14.2659 -2.07884 -0.965242 0
M  V30 125 C 15.2659 -0.989825 -1.26725 0
M  V30 126 O 16.4559 -1.25218 -1.21104 0
M  V30 127 C 13.5879 -2.52731 -2.28779 0
M  V30 128 H 14.7809 -2.95178 -0.530112 0
M  V30 129 H 12.3339 -1.54458 -0.239283 0
M  V30 130 H 13.0689 -1.68705 -2.76964 0
M  V30 131 H 12.8539 -3.32272 -2.08177 0
M  V30 132 H 14.3439 -2.91933 -2.98605 0
M  V30 133 N 14.781 0.264519 -1.55364 0
M  V30 134 C 15.691 1.34902 -1.91934 0
M  V30 135 C 16.707 1.53595 -0.817593 0
M  V30 136 O 17.883 1.67558 -1.11742 0
M  V30 137 C 14.948 2.68676 -2.19121 0
M  V30 138 C 14.009 2.58657 -3.4263 0
M  V30 139 C 13.242 3.86051 -3.68511 0
M  V30 140 O 13.465 4.87126 -2.96757 0
M  V30 141 O 12.399 3.85744 -4.62045 0
M  V30 142 H 16.225 1.06883 -2.8427 0
M  V30 143 H 13.81 0.463775 -1.42019 0
M  V30 144 H 15.692 3.47759 -2.37995 0
M  V30 145 H 14.367 2.96463 -1.29966 0
M  V30 146 H 13.274 1.7792 -3.29082 0
M  V30 147 H 14.607 2.35818 -4.32031 0
M  V30 148 N 16.2591 1.48442 0.529413 0
M  V30 149 C 17.6751 1.34575 0.858004 0
M  V30 150 C 17.8751 0.3572 1.98309 0
M  V30 151 O 16.9311 -0.221379 2.51528 0
M  V30 152 C 18.2441 2.74617 1.22499 0
M  V30 153 C 19.7921 2.83109 1.33484 0
M  V30 154 C 20.2671 4.23854 1.73526 0
M  V30 155 N 21.7581 4.2653 1.80628 0
M  V30 156 C 22.4931 5.32372 2.12997 0
M  V30 157 N 21.9891 6.48491 2.43786 0
M  V30 158 N 23.7821 5.19766 2.14008 0
M  V30 159 H 15.9331 2.1133 -0.212925 0
M  V30 160 H 18.1961 0.947439 -0.0326199 0
M  V30 161 H 17.9021 3.4852 0.471905 0
M  V30 162 H 17.7761 3.08177 2.17501 0
M  V30 163 H 20.1631 2.09462 2.0787 0
M  V30 164 H 20.2441 2.53168 0.366027 0
M  V30 165 H 19.8881 4.98018 0.997013 0
M  V30 166 H 19.8181 4.5124 2.71459 0
M  V30 167 H 22.3091 3.42772 1.59108 0
M  V30 168 H 22.6221 7.24993 2.67592 0
M  V30 169 H 20.9671 6.51765 2.41304 0
M  V30 170 H 24.1581 4.28066 1.89412 0
M  V30 171 H 24.3311 6.02354 2.38902 0
M  V30 172 N 17.7372 -0.778329 1.37039 0
M  V30 173 C 18.6842 -1.89139 1.32269 0
M  V30 174 C 19.6542 -1.65017 0.189387 0
M  V30 175 O 20.8392 -1.87024 0.377693 0
M  V30 176 C 17.9792 -3.26112 1.12894 0
M  V30 177 C 17.0922 -3.62233 2.35396 0
M  V30 178 C 16.2272 -4.8838 2.08946 0
M  V30 179 C 15.2662 -5.17212 3.2735 0
M  V30 180 N 14.4032 -6.34546 3.00492 0
M  V30 181 H 19.2432 -1.92552 2.27437 0
M  V30 182 H 16.7802 -0.941473 1.13025 0
M  V30 183 H 18.7382 -4.05116 0.996835 0
M  V30 184 H 17.3682 -3.22091 0.213758 0
M  V30 185 H 16.4202 -2.78265 2.5937 0
M  V30 186 H 17.7322 -3.79481 3.23721 0
M  V30 187 H 16.8862 -5.75274 1.92729 0
M  V30 188 H 15.6252 -4.73222 1.17949 0
M  V30 189 H 14.6302 -4.28796 3.44113 0
M  V30 190 H 15.8552 -5.34283 4.19188 0
M  V30 191 H 13.8012 -6.20759 2.12118 0
M  V30 192 H 13.7182 -6.52179 3.82358 0
M  V30 193 H 14.9862 -7.24394 2.87879 0
M  V30 194 N 19.2153 -1.21501 -1.00376 0
M  V30 195 C 20.6313 -0.972629 -1.26539 0
M  V30 196 C 20.8313 0.340257 -1.98606 0
M  V30 197 O 19.8873 1.06561 -2.28913 0
M  V30 198 C 21.2003 -2.16404 -2.08781 0
M  V30 199 C 22.7483 -2.20643 -2.22004 0
M  V30 200 C 23.2233 -3.39306 -3.07629 0
M  V30 201 N 24.7143 -3.39401 -3.15217 0
M  V30 202 C 25.4493 -4.27867 -3.81729 0
M  V30 203 N 24.9453 -5.26533 -4.5026 0
M  V30 204 N 26.7383 -4.15672 -3.78382 0
M  V30 205 H 18.8893 -2.05929 -0.520281 0
M  V30 206 H 21.1523 -0.901803 -0.292328 0
M  V30 207 H 20.8583 -3.11554 -1.63178 0
M  V30 208 H 20.7323 -2.15567 -3.09533 0
M  V30 209 H 23.1193 -1.26048 -2.66825 0
M  V30 210 H 23.2003 -2.25523 -1.20718 0
M  V30 211 H 22.8443 -4.34195 -2.63509 0
M  V30 212 H 22.7743 -3.31665 -4.09031 0
M  V30 213 H 25.2653 -2.67997 -2.66432 0
M  V30 214 H 25.5783 -5.90337 -4.98721 0
M  V30 215 H 23.9233 -5.30457 -4.49044 0
M  V30 216 H 27.1143 -3.3785 -3.23998 0
M  V30 217 H 27.2873 -4.84825 -4.2994 0
M  V30 218 N 20.6934 1.19889 -1.02296 0
M  V30 219 C 21.9394 1.89973 -0.726759 0
M  V30 220 C 22.2944 1.7776 0.73614 0
M  V30 221 O 21.5874 1.15523 1.52856 0
M  V30 222 C 21.7814 3.39883 -1.10518 0
M  V30 223 C 21.6104 3.66684 -2.60332 0
M  V30 224 C 20.3804 3.85045 -3.27213 0
M  V30 225 C 22.5784 3.68727 -3.58532 0
M  V30 226 N 20.5604 3.99422 -4.66192 0
M  V30 227 C 21.9314 3.88604 -4.83101 0
M  V30 228 C 23.9864 3.51722 -3.52414 0
M  V30 229 C 22.6894 3.9324 -6.02292 0
M  V30 230 C 24.7154 3.57632 -4.71013 0
M  V30 231 C 24.0774 3.77988 -5.94394 0
M  V30 232 H 20.1764 0.714551 -0.317712 0
M  V30 233 H 22.7604 1.44123 -1.30907 0
M  V30 234 H 20.9314 3.8447 -0.551142 0
M  V30 235 H 22.6634 3.97464 -0.761853 0
M  V30 236 H 19.4184 3.83689 -2.77632 0
M  V30 237 H 19.8424 4.10473 -5.38368 0
M  V30 238 H 24.4844 3.34945 -2.58015 0
M  V30 239 H 22.2024 4.08811 -6.97065 0
M  V30 240 H 25.7884 3.45773 -4.67902 0
M  V30 241 H 24.6684 3.82428 -6.8463 0
M  V30 242 N 22.1715 0.800033 1.35784 0
M  V30 243 C 23.4195 0.376597 1.9856 0
M  V30 244 C 23.7405 -1.05812 1.63795 0
M  V30 245 O 23.0105 -1.73103 0.917171 0
M  V30 246 H 21.5905 0.136261 0.734467 0
M  V30 247 H 24.2525 1.02442 1.65806 0
M  V30 248 H 23.3485 0.477002 3.08433 0
M  V30 249 N 23.6496 -1.47581 0.552962 0
M  V30 250 C 24.8956 -2.03369 0.0355807 0
M  V30 251 C 25.2506 -1.42016 -1.29805 0
M  V30 252 O 24.5436 -0.564917 -1.83083 0
M  V30 253 C 24.7376 -3.57199 -0.119728 0
M  V30 254 C 24.5666 -4.33468 1.1973 0
M  V30 255 C 23.3366 -4.7353 1.76345 0
M  V30 256 C 25.5346 -4.68866 2.11351 0
M  V30 257 N 23.5166 -5.34426 3.02097 0
M  V30 258 C 24.8876 -5.3002 3.21681 0
M  V30 259 C 26.9426 -4.50795 2.11397 0
M  V30 260 C 25.6456 -5.75011 4.32151 0
M  V30 261 C 27.6716 -4.96782 3.20876 0
M  V30 262 C 27.0336 -5.57981 4.29926 0
M  V30 263 H 23.1326 -0.780058 0.0550806 0
M  V30 264 H 25.7166 -1.80117 0.739315 0
M  V30 265 H 23.8876 -3.80227 -0.792579 0
M  V30 266 H 25.6196 -3.99627 -0.638792 0
M  V30 267 H 22.3746 -4.55352 1.30196 0
M  V30 268 H 22.7986 -5.69421 3.66182 0
M  V30 269 H 27.4406 -4.0284 1.28372 0
M  V30 270 H 25.1586 -6.21959 5.15938 0
M  V30 271 H 28.7446 -4.84573 3.21994 0
M  V30 272 H 27.6246 -5.92918 5.13243 0
M  V30 273 N 25.1277 -0.289203 -1.54924 0
M  V30 274 C 26.3757 0.322879 -1.99504 0
M  V30 275 C 26.6967 1.55313 -1.1791 0
M  V30 276 O 25.9667 1.94001 -0.272097 0
M  V30 277 H 24.5467 0.122291 -0.736922 0
M  V30 278 H 27.2087 -0.397802 -1.90797 0
M  V30 279 H 26.3047 0.603061 -3.06218 0
M  V30 280 N 26.6058 1.57591 -0.0167156 0
M  V30 281 C 28.0218 1.55946 0.339557 0
M  V30 282 C 28.2218 1.02109 1.73713 0
M  V30 283 O 27.2778 0.662303 2.43659 0
M  V30 284 C 28.5908 3.00037 0.199499 0
M  V30 285 C 30.1388 3.11805 0.273193 0
M  V30 286 C 30.6138 4.57713 0.162068 0
M  V30 287 N 32.1048 4.6268 0.219444 0
M  V30 288 C 32.8398 5.73185 0.157054 0
M  V30 289 N 32.3358 6.92786 0.0442936 0
M  V30 290 N 34.1288 5.61707 0.21014 0
M  V30 291 H 26.2798 1.90921 -0.930758 0
M  V30 292 H 28.5428 0.877674 -0.358319 0
M  V30 293 H 28.2488 3.4333 -0.76273 0
M  V30 294 H 28.1228 3.64387 0.974786 0
M  V30 295 H 30.5098 2.68433 1.22587 0
M  V30 296 H 30.5908 2.50201 -0.532256 0
M  V30 297 H 30.2348 5.01763 -0.78714 0
M  V30 298 H 30.1648 5.17283 0.986222 0
M  V30 299 H 32.6558 3.76649 0.307246 0
M  V30 300 H 32.9688 7.728 0.00304069 0
M  V30 301 H 31.3138 6.94999 0.00968457 0
M  V30 302 H 34.5048 4.6716 0.296546 0
M  V30 303 H 34.6778 6.47807 0.158054 0
M  V30 304 N 28.0839 -0.256276 1.55502 0
M  V30 305 C 29.0139 -1.32102 1.92539 0
M  V30 306 C 29.9949 -1.50684 0.789194 0
M  V30 307 O 31.1799 -1.63449 1.04872 0
M  V30 308 C 28.3099 -2.67752 2.21192 0
M  V30 309 C 27.2639 -2.63878 3.36975 0
M  V30 310 C 26.5899 -4.03236 3.51147 0
M  V30 311 C 27.8899 -2.21682 4.72921 0
M  V30 312 H 29.5839 -1.01351 2.81724 0
M  V30 313 H 27.1299 -0.486105 1.35547 0
M  V30 314 H 29.0829 -3.42365 2.45691 0
M  V30 315 H 27.8069 -3.0012 1.28824 0
M  V30 316 H 26.4659 -1.91722 3.12471 0
M  V30 317 H 26.1139 -4.32854 2.56216 0
M  V30 318 H 25.8139 -4.01535 4.29003 0
M  V30 319 H 27.3379 -4.79563 3.77957 0
M  V30 320 H 28.7519 -2.86023 4.96854 0
M  V30 321 H 27.1489 -2.3111 5.53812 0
M  V30 322 H 28.2189 -1.16833 4.70615 0
M  V30 323 N 29.562 -1.4872 -0.521534 0
M  V30 324 C 30.973 -1.50607 -1.10337 0
M  V30 325 C 31.324 -0.280612 -1.94183 0
M  V30 326 O 30.449 0.611507 -2.0758 0
M  V30 327 C 31.044 -2.72903 -2.00772 0
M  V30 328 C 29.603 -2.77634 -2.54158 0
M  V30 329 C 28.75 -2.44241 -1.31307 0
M  V30 330 H 31.701 -1.55714 -0.306388 0
M  V30 331 H 31.722 -2.519 -2.85178 0
M  V30 332 H 31.234 -3.62077 -1.39721 0
M  V30 333 H 29.335 -1.92689 -3.18907 0
M  V30 334 H 29.448 -3.79283 -2.92714 0
M  V30 335 H 27.812 -1.95577 -1.63161 0
M  V30 336 H 28.595 -3.35666 -0.719943 0
M  V30 337 N 31.0401 0.771051 -1.3745 0
M  V30 338 C 32.2881 1.52661 -1.32435 0
M  V30 339 C 32.6091 1.9479 0.0905024 0
M  V30 340 O 31.8791 1.66348 1.03466 0
M  V30 341 H 30.4591 0.566218 -0.487244 0
M  V30 342 H 33.1211 0.917636 -1.71946 0
M  V30 343 H 32.2171 2.42568 -1.96385 0
M  V30 344 N 32.5182 1.22032 0.997298 0
M  V30 345 C 33.4812 0.987909 2.06816 0
M  V30 346 C 34.4812 -0.0440084 1.6074 0
M  V30 347 O 35.6712 0.194053 1.73116 0
M  V30 348 C 32.8032 0.49132 3.37341 0
M  V30 349 H 33.9962 1.93803 2.28868 0
M  V30 350 H 31.5492 1.03838 1.16822 0
M  V30 351 H 32.2842 -0.463364 3.20973 0
M  V30 352 H 32.0692 1.23575 3.72118 0
M  V30 353 H 33.5592 0.348824 4.16141 0
M  V30 354 N 33.9963 -1.19345 1.0293 0
M  V30 355 C 35.4123 -1.41069 0.746446 0
M  V30 356 C 35.6123 -1.90078 -0.668776 0
M  V30 357 O 34.6683 -2.0778 -1.4347 0
M  V30 358 C 35.9813 -2.42141 1.78292 0
M  V30 359 C 37.5293 -2.55887 1.80252 0
M  V30 360 C 38.0043 -3.60214 2.8286 0
M  V30 361 N 39.4953 -3.67711 2.81679 0
M  V30 362 C 40.2303 -4.48128 3.57727 0
M  V30 363 N 39.7263 -5.32248 4.43491 0
M  V30 364 N 41.5193 -4.42782 3.46267 0
M  V30 365 H 33.6703 -0.858536 1.94275 0
M  V30 366 H 35.9333 -0.439541 0.839945 0
M  V30 367 H 35.6393 -2.13155 2.79746 0
M  V30 368 H 35.5133 -3.41323 1.60557 0
M  V30 369 H 37.9003 -2.84196 0.794757 0
M  V30 370 H 37.9813 -1.56858 2.02062 0
M  V30 371 H 37.6253 -3.32647 3.83807 0
M  V30 372 H 37.5553 -4.58895 2.58307 0
M  V30 373 H 40.0463 -3.07634 2.19476 0
M  V30 374 H 40.3593 -5.90729 4.98256 0
M  V30 375 H 38.7043 -5.31707 4.47564 0
M  V30 376 H 41.8953 -3.76107 2.78677 0
M  V30 377 H 42.0683 -5.05215 4.05785 0
M  V30 378 N 35.4744 -0.807222 -1.35358 0
M  V30 379 C 36.8904 -0.491038 -1.51858 0
M  V30 380 C 37.0904 0.987648 -1.75635 0
M  V30 381 O 36.1464 1.77265 -1.79815 0
M  V30 382 C 37.4594 -1.33695 -2.69344 0
M  V30 383 C 39.0074 -1.33246 -2.83222 0
M  V30 384 C 39.4824 -2.1625 -4.03733 0
M  V30 385 N 40.9734 -2.1379 -4.10911 0
M  V30 386 C 41.7084 -2.74772 -5.03277 0
M  V30 387 N 41.2044 -3.44684 -6.0097 0
M  V30 388 N 42.9974 -2.6441 -4.96028 0
M  V30 389 H 35.1484 -1.76485 -1.18181 0
M  V30 390 H 37.4114 -0.751199 -0.578276 0
M  V30 391 H 37.1174 -2.38634 -2.58354 0
M  V30 392 H 36.9914 -0.990618 -3.6396 0
M  V30 393 H 39.3784 -0.290911 -2.93663 0
M  V30 394 H 39.4594 -1.71866 -1.89461 0
M  V30 395 H 39.1034 -3.20445 -3.94052 0
M  V30 396 H 39.0334 -1.74989 -4.96675 0
M  V30 397 H 41.5244 -1.62923 -3.40976 0
M  V30 398 H 41.8374 -3.88501 -6.68047 0
M  V30 399 H 40.1824 -3.48788 -6.01142 0
M  V30 400 H 43.3734 -2.0938 -4.18662 0
M  V30 401 H 43.5464 -3.12225 -5.6782 0
M  V30 402 N 36.9525 1.47285 -0.560781 0
M  V30 403 C 38.2005 2.02064 -0.0379868 0
M  V30 404 C 38.5215 1.43711 1.31803 0
M  V30 405 O 37.7915 0.61362 1.86042 0
M  V30 406 H 36.3715 0.746918 -0.0110531 0
M  V30 407 H 39.0335 1.80648 -0.731598 0
M  V30 408 H 38.1295 3.12064 0.0474463 0
M  V30 409 N 38.4306 0.297415 1.54768 0
M  V30 410 C 39.6556 -0.318435 2.04941 0
M  V30 411 C 40.0806 -1.4701 1.17345 0
M  V30 412 O 39.4386 -1.80436 0.176758 0
M  V30 413 C 39.4866 -0.755749 3.52592 0
M  V30 414 O 38.5906 -1.86088 3.68028 0
M  V30 415 H 37.9316 -0.062421 0.661059 0
M  V30 416 H 40.4616 0.438215 1.99852 0
M  V30 417 H 40.4716 -1.04552 3.94376 0
M  V30 418 H 39.1466 0.0867233 4.1581 0
M  V30 419 H 37.7236 -1.57193 3.38149 0
M  V30 420 N 39.9087 -1.5758 0.0250728 0
M  V30 421 C 40.8717 -2.08896 -0.943139 0
M  V30 422 C 41.8717 -1.00321 -1.25668 0
M  V30 423 O 43.0617 -1.26495 -1.19769 0
M  V30 424 C 40.1937 -2.55143 -2.26086 0
M  V30 425 H 41.3867 -2.95723 -0.498775 0
M  V30 426 H 38.9397 -1.54703 -0.222888 0
M  V30 427 H 39.6747 -1.71633 -2.75159 0
M  V30 428 H 39.4597 -3.34461 -2.04641 0
M  V30 429 H 40.9497 -2.95083 -2.95492 0
M  V30 430 N 41.3868 0.248026 -1.55636 0
M  V30 431 C 42.6348 0.974295 -1.77065 0
M  V30 432 C 42.9558 1.85897 -0.588849 0
M  V30 433 O 42.2258 1.91868 0.395407 0
M  V30 434 H 40.8058 0.362733 -0.653019 0
M  V30 435 H 43.4678 0.266244 -1.93073 0
M  V30 436 H 42.5638 1.59667 -2.68166 0
M  V30 437 N 42.8649 1.48995 0.513639 0
M  V30 438 C 43.7949 1.67636 1.62544 0
M  V30 439 C 44.7759 0.525087 1.61793 0
M  V30 440 O 45.9609 0.759502 1.78732 0
M  V30 441 C 43.0909 1.73114 3.01079 0
M  V30 442 C 42.0449 2.87905 3.16693 0
M  V30 443 C 41.3709 2.78486 4.56453 0
M  V30 444 C 42.6709 4.29005 2.97913 0
M  V30 445 H 44.3649 2.60716 1.47198 0
M  V30 446 H 41.9109 1.25465 0.706714 0
M  V30 447 H 43.8639 1.84742 3.78746 0
M  V30 448 H 42.5879 0.766241 3.17484 0
M  V30 449 H 41.2469 2.75859 2.41448 0
M  V30 450 H 40.8949 1.7993 4.69717 0
M  V30 451 H 40.5949 3.55523 4.67843 0
M  V30 452 H 42.1189 2.92104 5.36197 0
M  V30 453 H 43.5329 4.41798 3.65359 0
M  V30 454 H 41.9299 5.07166 3.20785 0
M  V30 455 H 42.9999 4.44329 1.94165 0
M  V30 456 N 44.343 -0.763751 1.37857 0
M  V30 457 C 45.306 -1.85889 1.34081 0
M  V30 458 C 46.306 -1.58949 0.243277 0
M  V30 459 O 47.496 -1.66882 0.499589 0
M  V30 460 C 44.628 -3.23176 1.08489 0
M  V30 461 H 45.821 -1.90648 2.31502 0
M  V30 462 H 43.374 -0.964367 1.23003 0
M  V30 463 H 44.109 -3.24091 0.116318 0
M  V30 464 H 43.894 -3.44124 1.8794 0
M  V30 465 H 45.384 -4.03254 1.08517 0
M  V30 466 N 45.8211 -1.22559 -0.990812 0
M  V30 467 C 46.7681 -0.997519 -2.0813 0
M  V30 468 C 47.7381 0.0814702 -1.659 0
M  V30 469 O 48.9231 -0.0685424 -1.90677 0
M  V30 470 C 46.0631 -0.583615 -3.40129 0
M  V30 471 C 45.1761 -1.7336 -3.9569 0
M  V30 472 C 44.3111 -1.26748 -5.15857 0
M  V30 473 C 43.3501 -2.38888 -5.63559 0
M  V30 474 N 42.4871 -1.93308 -6.74964 0
M  V30 475 H 47.3271 -1.93099 -2.26973 0
M  V30 476 H 44.8641 -0.962114 -1.11273 0
M  V30 477 H 46.8221 -0.324801 -4.15934 0
M  V30 478 H 45.4521 0.312845 -3.2128 0
M  V30 479 H 44.5041 -2.10669 -3.16738 0
M  V30 480 H 45.8161 -2.57704 -4.27071 0
M  V30 481 H 44.9701 -0.966173 -5.98957 0
M  V30 482 H 43.7091 -0.394272 -4.86104 0
M  V30 483 H 42.7141 -2.69805 -4.79046 0
M  V30 484 H 43.9391 -3.26728 -5.95336 0
M  V30 485 H 41.8851 -1.08352 -6.4699 0
M  V30 486 H 41.8021 -2.71217 -7.05675 0
M  V30 487 H 43.0701 -1.66252 -7.61564 0
M  V30 488 N 47.2992 1.18797 -1.03562 0
M  V30 489 C 48.2462 2.22253 -0.622259 0
M  V30 490 C 49.2162 1.61987 0.36736 0
M  V30 491 O 50.4012 1.88986 0.262492 0
M  V30 492 C 47.5412 3.45097 0.0138462 0
M  V30 493 C 46.6542 4.19722 -1.02263 0
M  V30 494 C 45.7892 5.30009 -0.355573 0
M  V30 495 C 44.8282 5.96399 -1.37749 0
M  V30 496 N 43.9652 6.98234 -0.735766 0
M  V30 497 H 48.8052 2.56968 -1.50903 0
M  V30 498 H 46.3422 1.26245 -0.755017 0
M  V30 499 H 48.3002 4.15279 0.399948 0
M  V30 500 H 46.9302 3.11018 0.864158 0
M  V30 501 H 45.9822 3.48418 -1.52673 0
M  V30 502 H 47.2942 4.65227 -1.79903 0
M  V30 503 H 46.4482 6.0664 0.0850095 0
M  V30 504 H 45.1872 4.85592 0.452967 0
M  V30 505 H 44.1922 5.18512 -1.82826 0
M  V30 506 H 45.4172 6.42899 -2.18764 0
M  V30 507 H 43.3632 6.55979 0.0525597 0
M  V30 508 H 43.2802 7.41965 -1.44995 0
M  V30 509 H 44.5482 7.78845 -0.31941 0
M  V30 510 N 48.7773 0.814389 1.34928 0
M  V30 511 C 50.0173 0.404165 2.00364 0
M  V30 512 C 50.3813 -1.01166 1.63185 0
M  V30 513 O 51.5823 -1.52431 2.21401 0
M  V30 514 C 49.8533 0.590718 3.52484 0
M  V30 515 S 51.4123 0.272075 4.37956 0
M  V30 516 H 48.2303 0.15311 0.694319 0
M  V30 517 H 50.8323 1.05834 1.64376 0
M  V30 518 H 49.5363 1.62099 3.77031 0
M  V30 519 H 49.0673 -0.0785013 3.93322 0
M  V30 520 H 51.0823 -0.917405 4.87645 0
M  V30 521 N 50.2554 -1.46986 0.568584 0
M  V30 522 C 51.6664 -1.86188 0.138219 0
M  V30 523 C 52.0174 -1.47388 -1.29504 0
M  V30 524 O 51.1424 -0.88219 -1.97602 0
M  V30 525 C 51.7374 -3.3792 0.244065 0
M  V30 526 C 50.2964 -3.76171 -0.131335 0
M  V30 527 C 49.4434 -2.71027 0.586465 0
M  V30 528 H 52.3944 -1.38342 0.777645 0
M  V30 529 H 52.4154 -3.76729 -0.534351 0
M  V30 530 H 51.9274 -3.66128 1.28731 0
M  V30 531 H 50.0284 -3.5358 -1.17526 0
M  V30 532 H 50.1414 -4.78523 0.235146 0
M  V30 533 H 48.5054 -2.54684 0.0282722 0
M  V30 534 H 49.2884 -3.02077 1.63109 0
M  V30 535 N 51.7335 -0.305618 -1.54608 0
M  V30 536 C 52.9805 0.302298 -2.00231 0
M  V30 537 C 53.3085 1.5354 -1.19398 0
M  V30 538 O 52.5635 1.93973 -0.259423 0
M  V30 539 C 52.8625 0.698983 -3.50498 0
M  V30 540 C 52.5285 -0.432903 -4.48817 0
M  V30 541 C 51.1905 -0.743622 -4.75419 0
M  V30 542 C 53.5425 -1.19409 -5.07337 0
M  V30 543 C 50.8705 -1.81857 -5.57804 0
M  V30 544 C 53.2225 -2.25899 -5.90891 0
M  V30 545 C 51.8865 -2.57572 -6.15803 0
M  V30 546 H 51.1565 0.110619 -0.732697 0
M  V30 547 H 53.8035 -0.425674 -1.86709 0
M  V30 548 H 52.1085 1.50711 -3.61654 0
M  V30 549 H 53.8055 1.1806 -3.83227 0
M  V30 550 H 50.3955 -0.18063 -4.28219 0
M  V30 551 H 54.5795 -0.967295 -4.86782 0
M  V30 552 H 49.8355 -2.06864 -5.75341 0
M  V30 553 H 54.0095 -2.85335 -6.35261 0
M  V30 554 H 51.6365 -3.40998 -6.7943 0
M  V30 555 N 53.2116 1.57565 -0.0334293 0
M  V30 556 C 54.4366 1.96689 0.657895 0
M  V30 557 C 54.8616 0.910057 1.64619 0
M  V30 558 O 54.2196 -0.128598 1.80843 0
M  V30 559 C 54.2676 3.34905 1.33683 0
M  V30 560 O 53.3716 3.31574 2.45219 0
M  V30 561 H 52.7126 0.641205 0.172489 0
M  V30 562 H 55.2426 2.04372 -0.0965621 0
M  V30 563 H 55.2526 3.71234 1.69262 0
M  V30 564 H 53.9276 4.11366 0.612411 0
M  V30 565 H 52.5046 3.06968 2.11719 0
M  V30 566 N 54.6897 -0.239769 1.55765 0
M  V30 567 C 55.6197 -1.30052 1.9393 0
M  V30 568 C 56.6007 -1.49839 0.805132 0
M  V30 569 O 57.7857 -1.62328 1.06599 0
M  V30 570 C 54.9157 -2.65391 2.2402 0
M  V30 571 C 53.8697 -2.60289 3.39755 0
M  V30 572 C 53.1957 -3.99489 3.55405 0
M  V30 573 C 54.4957 -2.16654 4.75246 0
M  V30 574 H 56.1897 -0.983573 2.82783 0
M  V30 575 H 53.7357 -0.471701 1.36055 0
M  V30 576 H 55.6887 -3.3974 2.49308 0
M  V30 577 H 54.4127 -2.98736 1.32 0
M  V30 578 H 53.0717 -1.88398 3.14487 0
M  V30 579 H 52.7197 -4.30112 2.60793 0
M  V30 580 H 52.4197 -3.96962 4.33238 0
M  V30 581 H 53.9437 -4.75528 3.83022 0
M  V30 582 H 55.3577 -2.80737 4.99859 0
M  V30 583 H 53.7547 -2.25223 5.56232 0
M  V30 584 H 54.8247 -1.11835 4.71827 0
M  V30 585 N 56.1678 -1.49265 -0.50573 0
M  V30 586 C 57.0778 -1.68312 -1.63427 0
M  V30 587 C 58.0938 -0.565682 -1.64548 0
M  V30 588 O 59.2698 -0.839801 -1.83055 0
M  V30 589 C 56.3348 -1.74107 -2.99813 0
M  V30 590 C 55.3958 -2.97653 -3.09356 0
M  V30 591 C 54.6288 -3.03163 -4.39236 0
M  V30 592 O 54.8518 -2.16396 -5.27758 0
M  V30 593 O 53.7858 -3.9558 -4.53652 0
M  V30 594 H 57.6118 -2.63907 -1.50289 0
M  V30 595 H 55.1968 -1.32951 -0.681502 0
M  V30 596 H 57.0788 -1.803 -3.80881 0
M  V30 597 H 55.7538 -0.816901 -3.13223 0
M  V30 598 H 54.6608 -2.96981 -2.27493 0
M  V30 599 H 55.9938 -3.89535 -3.00871 0
M  V30 600 N 57.6459 0.756429 -1.3826 0
M  V30 601 C 58.5759 1.88374 -1.37976 0
M  V30 602 C 59.5569 1.68311 -0.246082 0
M  V30 603 O 60.7419 1.88944 -0.44874 0
M  V30 604 C 57.8719 3.25864 -1.20125 0
M  V30 605 C 56.8259 3.60523 -2.30666 0
M  V30 606 C 56.1519 4.9672 -1.97923 0
M  V30 607 C 57.4519 3.65692 -3.72916 0
M  V30 608 H 59.1459 1.88869 -2.32312 0
M  V30 609 H 56.6919 0.907272 -1.11824 0
M  V30 610 H 58.6449 4.0438 -1.18552 0
M  V30 611 H 57.3689 3.25841 -0.222498 0
M  V30 612 H 56.0279 2.84324 -2.3142 0
M  V30 613 H 55.6759 4.93253 -0.985393 0
M  V30 614 H 55.3759 5.20878 -2.71955 0
M  V30 615 H 56.8999 5.77618 -1.97964 0
M  V30 616 H 58.3139 4.34328 -3.74208 0
M  V30 617 H 56.7109 4.01358 -4.4613 0
M  V30 618 H 57.7809 2.65987 -4.05436 0
M  V30 619 N 59.124 1.23083 0.984299 0
M  V30 620 C 60.087 1.00979 2.05757 0
M  V30 621 C 61.087 -0.0269573 1.60777 0
M  V30 622 O 62.277 0.212403 1.729 0
M  V30 623 C 59.409 0.527072 3.36801 0
M  V30 624 H 60.602 1.9622 2.26799 0
M  V30 625 H 58.155 1.05072 1.15714 0
M  V30 626 H 58.89 -0.429294 3.21446 0
M  V30 627 H 58.675 1.27515 3.70786 0
M  V30 628 H 60.165 0.392942 4.15747 0
M  V30 629 N 60.6021 -1.18246 1.0419 0
M  V30 630 C 61.5121 -2.25574 0.644476 0
M  V30 631 C 62.5281 -1.70845 -0.329826 0
M  V30 632 O 63.7041 -2.00554 -0.184443 0
M  V30 633 C 60.7691 -3.46697 0.014877 0
M  V30 634 C 59.8301 -4.16554 1.03834 0
M  V30 635 C 59.0631 -5.31894 0.438692 0
M  V30 636 O 59.2861 -5.65385 -0.754752 0
M  V30 637 O 58.2201 -5.90459 1.168 0
M  V30 638 H 62.0461 -2.61836 1.53869 0
M  V30 639 H 59.6311 -1.25352 0.812854 0
M  V30 640 H 61.5131 -4.20062 -0.335538 0
M  V30 641 H 60.1881 -3.12255 -0.853138 0
M  V30 642 H 59.0951 -3.45251 1.44057 0
M  V30 643 H 60.4281 -4.54998 1.87716 0
M  V30 644 N 62.0802 -0.821533 -1.34494 0
M  V30 645 C 63.3282 -0.408139 -1.97936 0
M  V30 646 C 63.6492 1.03193 -1.65457 0
M  V30 647 O 62.9192 1.71622 -0.944595 0
M  V30 648 H 61.4992 -0.147928 -0.732206 0
M  V30 649 H 64.1612 -1.05067 -1.64155 0
M  V30 650 H 63.2572 -0.52601 -3.07635 0
M  V30 651 N 63.5583 1.46682 -0.576371 0
M  V30 652 C 64.8063 2.02013 -0.0594163 0
M  V30 653 C 65.1273 1.45101 1.30271 0
M  V30 654 O 64.3973 0.633317 1.8538 0
M  V30 655 H 62.9773 0.746759 -0.0189745 0
M  V30 656 H 65.6393 1.79862 -0.750717 0
M  V30 657 H 64.7353 3.12097 0.014345 0
M  V30 658 N 65.0364 0.313813 1.54444 0
M  V30 659 C 66.4474 -0.176243 1.85866 0
M  V30 660 C 66.7984 -1.52405 1.23561 0
M  V30 661 O 65.9234 -2.09605 0.538016 0
M  V30 662 C 66.5184 -0.32657 3.37222 0
M  V30 663 C 65.0774 -0.760846 3.6863 0
M  V30 664 C 64.2244 0.123247 2.77026 0
M  V30 665 H 67.1754 0.534418 1.49431 0
M  V30 666 H 67.1964 -1.15908 3.62416 0
M  V30 667 H 66.7084 0.654531 3.82541 0
M  V30 668 H 64.8094 -1.75204 3.28838 0
M  V30 669 H 64.9224 -0.571353 4.75681 0
M  V30 670 H 63.2864 -0.399597 2.51546 0
M  V30 671 H 64.0694 1.10094 3.25168 0
M  V30 672 N 66.5145 -1.57545 0.0417849 0
M  V30 673 C 67.4775 -2.09885 -0.92093 0
M  V30 674 C 68.4775 -1.01648 -1.24596 0
M  V30 675 O 69.6675 -1.27759 -1.1842 0
M  V30 676 C 66.7995 -2.57527 -2.23367 0
M  V30 677 H 67.9925 -2.96236 -0.467382 0
M  V30 678 H 65.5455 -1.5493 -0.206467 0
M  V30 679 H 66.2805 -1.74542 -2.73323 0
M  V30 680 H 66.0655 -3.36613 -2.01083 0
M  V30 681 H 67.5555 -2.98201 -2.92346 0
M  V30 682 N 67.9926 0.231505 -1.5589 0
M  V30 683 C 69.2406 0.955461 -1.78088 0
M  V30 684 C 69.5616 1.85262 -0.608533 0
M  V30 685 O 68.8316 1.92277 0.375035 0
M  V30 686 H 67.4116 0.355787 -0.656829 0
M  V30 687 H 70.0736 0.245751 -1.93344 0
M  V30 688 H 69.1696 1.56814 -2.69844 0
M  V30 689 N 69.4707 1.49531 0.497807 0
M  V30 690 C 70.7187 1.58865 1.24926 0
M  V30 691 C 71.0397 0.278721 1.92998 0
M  V30 692 O 70.3097 -0.702144 1.82885 0
M  V30 693 H 68.8897 0.585343 0.464094 0
M  V30 694 H 71.5517 1.86174 0.57666 0
M  V30 695 H 70.6477 2.38633 2.01149 0
M  V30 696 N 70.9488 -0.749086 1.3866 0
M  V30 697 C 71.9118 -1.84457 1.36045 0
M  V30 698 C 72.9118 -1.58682 0.260122 0
M  V30 699 O 74.1018 -1.66343 0.517261 0
M  V30 700 C 71.2338 -3.22008 1.11911 0
M  V30 701 H 72.4268 -1.88182 2.33512 0
M  V30 702 H 69.9798 -0.951266 1.24019 0
M  V30 703 H 70.7148 -3.2395 0.150686 0
M  V30 704 H 70.4998 -3.42111 1.91579 0
M  V30 705 H 71.9898 -4.0208 1.12788 0
M  V30 706 N 72.4269 -1.23603 -0.977757 0
M  V30 707 C 73.3569 -1.04401 -2.0886 0
M  V30 708 C 74.3379 0.0399052 -1.70053 0
M  V30 709 O 75.5229 -0.125246 -1.93796 0
M  V30 710 C 72.6529 -0.637269 -3.41403 0
M  V30 711 C 71.6069 -1.66883 -3.94124 0
M  V30 712 C 70.9329 -1.11745 -5.22893 0
M  V30 713 C 72.2329 -3.06247 -4.23096 0
M  V30 714 H 73.9269 -1.97316 -2.25182 0
M  V30 715 H 71.4729 -0.950096 -1.08209 0
M  V30 716 H 73.4259 -0.48998 -4.18542 0
M  V30 717 H 72.1499 0.327557 -3.24953 0
M  V30 718 H 70.8089 -1.80416 -3.19133 0
M  V30 719 H 70.4569 -0.143527 -5.02795 0
M  V30 720 H 70.1569 -1.80672 -5.59134 0
M  V30 721 H 71.6809 -0.982067 -6.02651 0
M  V30 722 H 73.0949 -2.96001 -4.90975 0
M  V30 723 H 71.4919 -3.72436 -4.70544 0
M  V30 724 H 72.5619 -3.55041 -3.30263 0
M  V30 725 N 73.905 1.17692 -1.04816 0
M  V30 726 C 75.135 1.91508 -0.775128 0
M  V30 727 C 75.543 1.76844 0.67253 0
M  V30 728 O 74.886 1.10057 1.47082 0
M  V30 729 C 74.948 3.43167 -1.0713 0
M  V30 730 C 74.612 3.81612 -2.51438 0
M  V30 731 C 75.609 3.84772 -3.49638 0
M  V30 732 C 73.294 4.12687 -2.86348 0
M  V30 733 C 75.288 4.18469 -4.80794 0
M  V30 734 C 72.975 4.46053 -4.17708 0
M  V30 735 C 73.973 4.48921 -5.14741 0
M  V30 736 O 73.661 4.81504 -6.43746 0
M  V30 737 H 73.393 0.614575 -0.281555 0
M  V30 738 H 75.947 1.50206 -1.40098 0
M  V30 739 H 74.177 3.84745 -0.388342 0
M  V30 740 H 75.866 3.98239 -0.784883 0
M  V30 741 H 76.632 3.60893 -3.24008 0
M  V30 742 H 72.511 4.09627 -2.11486 0
M  V30 743 H 76.055 4.20623 -5.56527 0
M  V30 744 H 71.952 4.69393 -4.43103 0
M  V30 745 H 72.72 4.99377 -6.4851 0
M  V30 746 N 75.3831 0.828654 1.34056 0
M  V30 747 C 76.3461 0.259927 2.27721 0
M  V30 748 C 77.3461 -0.565478 1.50529 0
M  V30 749 O 78.5361 -0.38075 1.69988 0
M  V30 750 C 75.6681 -0.634944 3.34935 0
M  V30 751 H 76.8611 1.0863 2.79534 0
M  V30 752 H 74.4141 0.600951 1.44285 0
M  V30 753 H 75.1491 -1.48416 2.88346 0
M  V30 754 H 74.9341 -0.0444999 3.92075 0
M  V30 755 H 76.4241 -1.02648 4.04788 0
M  V30 756 N 76.8612 -1.46375 0.584142 0
M  V30 757 C 78.2722 -1.86031 0.157959 0
M  V30 758 C 78.6232 -1.48753 -1.27933 0
M  V30 759 O 77.7482 -0.903098 -1.96655 0
M  V30 760 C 78.3432 -3.37642 0.279892 0
M  V30 761 C 76.9022 -3.76289 -0.09143 0
M  V30 762 C 76.0492 -2.7039 0.615178 0
M  V30 763 H 79.0002 -1.37509 0.792274 0
M  V30 764 H 79.0212 -3.77275 -0.494364 0
M  V30 765 H 78.5332 -3.64742 1.32607 0
M  V30 766 H 76.6342 -3.54806 -1.13769 0
M  V30 767 H 76.7472 -4.78246 0.285886 0
M  V30 768 H 75.1112 -2.5464 0.0552833 0
M  V30 769 H 75.8942 -3.0033 1.66303 0
M  V30 770 N 78.3393 -0.321999 -1.54275 0
M  V30 771 C 79.5883 0.281931 -1.9972 0
M  V30 772 C 79.9013 1.53369 -1.21397 0
M  V30 773 O 81.1073 2.21352 -1.57211 0
M  V30 774 C 79.5633 0.5529 -3.55628 0
M  V30 775 C 79.1713 -0.681721 -4.42783 0
M  V30 776 C 80.9153 1.11687 -4.09544 0
M  V30 777 C 78.8223 -0.382742 -5.9016 0
M  V30 778 H 77.7523 0.109124 -0.746062 0
M  V30 779 H 80.4033 -0.43398 -1.78294 0
M  V30 780 H 78.7853 1.32896 -3.73035 0
M  V30 781 H 79.9593 -1.45723 -4.37151 0
M  V30 782 H 78.2743 -1.1658 -3.99748 0
M  V30 783 H 80.8713 1.35515 -5.17242 0
M  V30 784 H 81.2143 2.06575 -3.61431 0
M  V30 785 H 81.7473 0.402032 -3.95763 0
M  V30 786 H 78.4863 -1.30076 -6.42464 0
M  V30 787 H 78.0063 0.355094 -5.98748 0
M  V30 788 H 79.6853 0.00800157 -6.47 0
M  V30 789 N 79.8174 1.5752 -0.0501392 0
M  V30 790 C 80.7804 2.1037 0.909786 0
M  V30 791 C 81.7804 1.02308 1.24056 0
M  V30 792 O 82.9704 1.28385 1.17741 0
M  V30 793 C 80.1024 2.58708 2.21998 0
M  V30 794 H 81.2954 2.96479 0.451665 0
M  V30 795 H 78.8484 1.55038 0.198248 0
M  V30 796 H 79.5834 1.75989 2.72394 0
M  V30 797 H 79.3684 3.37675 1.99295 0
M  V30 798 H 80.8584 2.99747 2.9076 0
M  V30 799 N 81.2955 -0.223234 1.56011 0
M  V30 800 C 82.7065 -0.790368 1.69145 0
M  V30 801 C 83.0575 -1.85055 0.651845 0
M  V30 802 O 82.1825 -2.15498 -0.197359 0
M  V30 803 C 82.7775 -1.4404 3.06656 0
M  V30 804 C 81.3365 -1.95494 3.2165 0
M  V30 805 C 80.4835 -0.814506 2.65068 0
M  V30 806 H 83.4345 0.00139011 1.587 0
M  V30 807 H 83.4555 -2.30916 3.0242 0
M  V30 808 H 82.9675 -0.668543 3.82298 0
M  V30 809 H 81.0685 -2.75487 2.50874 0
M  V30 810 H 81.1815 -2.13607 4.28846 0
M  V30 811 H 79.5455 -1.22137 2.23505 0
M  V30 812 H 80.3285 -0.0553515 3.43255 0
M  V30 813 N 82.7736 -1.49793 -0.48987 0
M  V30 814 C 84.0216 -1.59525 -1.24081 0
M  V30 815 C 84.3426 -0.288953 -1.92847 0
M  V30 816 O 83.6126 0.692436 -1.83254 0
M  V30 817 H 82.1926 -0.587796 -0.460983 0
M  V30 818 H 84.8546 -1.86477 -0.566778 0
M  V30 819 H 83.9506 -2.39696 -1.99881 0
M  V30 820 N 84.2517 0.741722 -1.39055 0
M  V30 821 C 85.2147 1.83733 -1.37021 0
M  V30 822 C 86.2147 1.58542 -0.268534 0
M  V30 823 O 87.4047 1.66067 -0.526076 0
M  V30 824 C 84.5367 3.2141 -1.13617 0
M  V30 825 H 85.7297 1.86941 -2.34506 0
M  V30 826 H 83.2827 0.944676 -1.24521 0
M  V30 827 H 84.0177 3.23865 -0.167863 0
M  V30 828 H 83.8027 3.4109 -1.93391 0
M  V30 829 H 85.2927 4.01477 -1.14918 0
M  V30 830 N 85.7298 1.2412 0.971189 0
M  V30 831 C 87.1408 1.07236 1.52831 0
M  V30 832 C 87.4918 -0.357352 1.92918 0
M  V30 833 O 86.6168 -1.24528 1.76979 0
M  V30 834 C 87.2118 1.94043 2.77728 0
M  V30 835 C 85.7708 1.81394 3.29808 0
M  V30 836 C 84.9178 1.89189 2.02738 0
M  V30 837 H 87.8688 1.37648 0.789864 0
M  V30 838 H 87.8898 1.47066 3.5093 0
M  V30 839 H 87.4018 2.98093 2.4852 0
M  V30 840 H 85.5028 0.801634 3.63874 0
M  V30 841 H 85.6158 2.65294 3.98944 0
M  V30 842 H 83.9798 1.32877 2.17292 0
M  V30 843 H 84.7628 2.94812 1.759 0
M  V30 844 N 87.2079 -1.17134 1.05439 0
M  V30 845 C 88.4559 -1.87085 0.764429 0
M  V30 846 C 88.7769 -1.81584 -0.710787 0
M  V30 847 O 88.0469 -1.24349 -1.51374 0
M  V30 848 H 86.6269 -0.692627 0.279779 0
M  V30 849 H 89.2889 -1.42087 1.33406 0
M  V30 850 H 88.3849 -2.92759 1.0816 0
M  V30 851 N 88.686 -0.835752 -1.33615 0
M  V30 852 C 90.097 -0.487099 -1.80234 0
M  V30 853 C 90.448 0.993627 -1.69179 0
M  V30 854 O 89.573 1.77403 -1.23924 0
M  V30 855 C 90.168 -0.877385 -3.27242 0
M  V30 856 C 88.727 -0.580915 -3.7189 0
M  V30 857 C 87.874 -1.0874 -2.5509 0
M  V30 858 H 90.825 -1.02474 -1.2118 0
M  V30 859 H 90.846 -0.186195 -3.80044 0
M  V30 860 H 90.358 -1.95512 -3.35256 0
M  V30 861 H 88.459 0.486881 -3.69405 0
M  V30 862 H 88.572 -1.13396 -4.65487 0
M  V30 863 H 86.936 -0.508392 -2.49575 0
M  V30 864 H 87.719 -2.17184 -2.65868 0
M  V30 865 N 90.1641 1.46063 -0.591896 0
M  V30 866 C 91.1271 2.28854 0.125973 0
M  V30 867 C 92.1271 1.38903 0.810107 0
M  V30 868 O 93.3171 1.61186 0.66066 0
M  V30 869 C 90.4491 3.19526 1.1881 0
M  V30 870 H 91.6421 2.93802 -0.601717 0
M  V30 871 H 89.1951 1.52325 -0.350254 0
M  V30 872 H 89.9301 2.59345 1.94707 0
M  V30 873 H 89.7151 3.85766 0.701936 0
M  V30 874 H 91.2051 3.81817 1.69132 0
M  V30 875 N 91.6422 0.330177 1.54103 0
M  V30 876 C 93.0532 -0.15652 1.86043 0
M  V30 877 C 93.4042 -1.51086 1.2517 0
M  V30 878 O 92.5292 -2.09023 0.560217 0
M  V30 879 C 93.1242 -0.290784 3.3755 0
M  V30 880 C 91.6832 -0.721705 3.69416 0
M  V30 881 C 90.8302 0.152622 2.7688 0
M  V30 882 H 93.7812 0.550237 1.48856 0
M  V30 883 H 93.8022 -1.12058 3.63625 0
M  V30 884 H 93.3142 0.695068 3.81825 0
M  V30 885 H 91.4152 -1.71706 3.30678 0
M  V30 886 H 91.5282 -0.520869 4.7626 0
M  V30 887 H 89.8922 -0.372894 2.51956 0
M  V30 888 H 90.6752 1.13536 3.23982 0
M  V30 889 N 93.1203 -1.57491 0.0584922 0
M  V30 890 C 94.5313 -1.80526 -0.476138 0
M  V30 891 C 94.8823 -0.971334 -1.70469 0
M  V30 892 O 94.0073 -0.190012 -2.15564 0
M  V30 893 C 94.6023 -3.27424 -0.870587 0
M  V30 894 C 93.1613 -3.51351 -1.35015 0
M  V30 895 C 92.3083 -2.75343 -0.32887 0
M  V30 896 H 95.2593 -1.56133 0.284312 0
M  V30 897 H 95.2803 -3.38745 -1.73299 0
M  V30 898 H 94.7923 -3.88093 0.0237627 0
M  V30 899 H 92.8933 -2.95971 -2.26345 0
M  V30 900 H 93.0063 -4.60059 -1.33726 0
M  V30 901 H 91.3703 -2.417 -0.803321 0
M  V30 902 H 92.1533 -3.38743 0.557521 0
M  V30 903 N 94.5984 0.214957 -1.56127 0
M  V30 904 C 95.5614 1.24997 -1.92116 0
M  V30 905 C 96.5614 1.39467 -0.800344 0
M  V30 906 O 97.7514 1.37619 -1.06802 0
M  V30 907 C 94.8834 2.62271 -2.17777 0
M  V30 908 H 96.0764 0.942875 -2.84693 0
M  V30 909 H 93.6294 0.455654 -1.49511 0
M  V30 910 H 94.3644 2.98068 -1.27773 0
M  V30 911 H 94.1494 2.53143 -2.99434 0
M  V30 912 H 95.6394 3.36946 -2.46693 0
M  V30 913 N 96.0765 1.50051 0.48192 0
M  V30 914 C 97.3015 1.64508 1.26301 0
M  V30 915 C 97.7265 0.323851 1.85291 0
M  V30 916 O 97.0845 -0.710969 1.66778 0
M  V30 917 C 97.1325 2.7305 2.35533 0
M  V30 918 O 96.2365 2.3355 3.39895 0
M  V30 919 H 95.5775 0.549978 0.372048 0
M  V30 920 H 98.1075 1.9636 0.574786 0
M  V30 921 H 98.1175 2.95799 2.8101 0
M  V30 922 H 96.7925 3.68946 1.91967 0
M  V30 923 H 95.3695 2.21205 3.00204 0
M  V30 924 N 97.5546 -0.734337 1.39446 0
M  V30 925 C 98.9656 -1.31264 1.32766 0
M  V30 926 C 99.3166 -1.96198 -0.00767497 0
M  V30 927 O 98.4416 -1.96346 -0.909796 0
M  V30 928 C 99.0366 -2.38682 2.4045 0
M  V30 929 C 97.5956 -2.92184 2.37288 0
M  V30 930 C 96.7426 -1.6576 2.22304 0
M  V30 931 H 99.6936 -0.531799 1.49525 0
M  V30 932 H 99.7146 -3.19087 2.07276 0
M  V30 933 H 99.2266 -1.91392 3.37625 0
M  V30 934 H 97.3276 -3.43752 1.43754 0
M  V30 935 H 97.4406 -3.45253 3.3217 0
M  V30 936 H 95.8046 -1.9012 1.69489 0
M  V30 937 H 96.5876 -1.20521 3.21449 0
M  V30 938 N 99.0327 -1.24633 -0.964593 0
M  V30 939 C 99.9957 -1.0424 -2.04124 0
M  V30 940 C 100.996 0.00137563 -1.608 0
M  V30 941 O 102.186 -0.239883 -1.7254 0
M  V30 942 C 99.3177 -0.580588 -3.3592 0
M  V30 943 H 100.511 -1.99803 -2.23649 0
M  V30 944 H 98.0637 -1.06899 -1.14027 0
M  V30 945 H 98.7987 0.3781 -3.22088 0
M  V30 946 H 98.5837 -1.33398 -3.6871 0
M  V30 947 H 100.074 -0.459034 -4.15069 0
M  V30 948 N 100.511 1.16574 -1.06058 0
M  V30 949 C 101.474 2.19085 -0.673392 0
M  V30 950 C 102.474 1.5835 0.279648 0
M  V30 951 O 103.664 1.74088 0.0623488 0
M  V30 952 C 100.796 3.40899 0.00954234 0
M  V30 953 H 101.989 2.54853 -1.58081 0
M  V30 954 H 99.5418 1.30808 -0.855516 0
M  V30 955 H 100.277 3.10684 0.929826 0
M  V30 956 H 100.062 3.86233 -0.67573 0
M  V30 957 H 101.552 4.1675 0.266245 0
M  V30 958 N 101.989 0.842826 1.3317 0
M  V30 959 C 103.4 0.496651 1.79973 0
M  V30 960 C 103.751 -0.984641 1.69703 0
M  V30 961 O 102.876 -1.76743 1.24863 0
M  V30 962 C 103.471 0.894727 3.26772 0
M  V30 963 C 102.03 0.600629 3.71577 0
M  V30 964 C 101.177 1.10091 2.5451 0
M  V30 965 H 104.128 1.03116 1.20635 0
M  V30 966 H 104.149 0.206347 3.7994 0
M  V30 967 H 103.661 1.97287 3.34215 0
M  V30 968 H 101.762 -0.467284 3.69658 0
M  V30 969 H 101.875 1.15863 4.64879 0
M  V30 970 H 100.239 0.52162 2.49301 0
M  V30 971 H 101.022 2.18591 2.64713 0
M  V30 972 N 103.467 -1.45747 0.599634 0
M  V30 973 C 104.43 -2.28917 -0.113835 0
M  V30 974 C 105.43 -1.3933 -0.802729 0
M  V30 975 O 106.62 -1.61534 -0.652103 0
M  V30 976 C 103.752 -3.20152 -1.17114 0
M  V30 977 H 104.945 -2.93478 0.617289 0
M  V30 978 H 102.498 -1.52137 0.358327 0
M  V30 979 H 103.233 -2.60374 -1.93329 0
M  V30 980 H 103.018 -3.86133 -0.681468 0
M  V30 981 H 104.508 -3.82708 -1.67105 0
M  V30 982 N 104.945 -0.338344 -1.53925 0
M  V30 983 C 105.908 0.508299 -2.23493 0
M  V30 984 C 106.908 1.03175 -1.23335 0
M  V30 985 O 108.098 0.921826 -1.47811 0
M  V30 986 C 105.23 1.70754 -2.95052 0
M  V30 987 H 106.423 -0.100058 -2.99733 0
M  V30 988 H 103.976 -0.0896198 -1.56043 0
M  V30 989 H 104.711 2.35474 -2.22986 0
M  V30 990 H 104.496 1.33946 -3.68512 0
M  V30 991 H 105.986 2.30818 -3.48013 0
M  V30 992 N 106.423 1.57458 -0.0668435 0
M  V30 993 C 107.834 1.80776 0.466558 0
M  V30 994 C 108.185 0.980361 1.69951 0
M  V30 995 O 107.31 0.201441 2.1546 0
M  V30 996 C 107.905 3.27881 0.85321 0
M  V30 997 C 106.464 3.52062 1.3315 0
M  V30 998 C 105.611 2.75513 0.314264 0
M  V30 999 H 108.562 1.5598 -0.292588 0
M  V30 1000 H 108.583 3.39659 1.715 0
M  V30 1001 H 108.095 3.88075 -0.0443439 0
M  V30 1002 H 106.196 2.97167 2.24772 0
M  V30 1003 H 106.309 4.60762 1.31285 0
M  V30 1004 H 104.673 2.42123 0.790492 0
M  V30 1005 H 105.456 3.38442 -0.575477 0
M  V30 1006 N 107.901 -0.206675 1.56239 0
M  V30 1007 C 109.312 -0.772383 1.69974 0
M  V30 1008 C 109.663 -1.84353 0.671436 0
M  V30 1009 O 108.788 -2.15695 -0.174491 0
M  V30 1010 C 109.383 -1.40779 3.08167 0
M  V30 1011 C 107.942 -1.92072 3.23706 0
M  V30 1012 C 107.089 -0.786347 2.65917 0
M  V30 1013 H 110.04 0.0182223 1.5869 0
M  V30 1014 H 110.061 -2.27696 3.04852 0
M  V30 1015 H 109.573 -0.627958 3.82986 0
M  V30 1016 H 107.674 -2.7281 2.53782 0
M  V30 1017 H 107.787 -2.09046 4.31087 0
M  V30 1018 H 106.151 -1.1976 2.24788 0
M  V30 1019 H 106.934 -0.0189416 3.43295 0
M  V30 1020 N 109.379 -1.50304 -0.473955 0
M  V30 1021 C 110.625 -1.61389 -1.22806 0
M  V30 1022 C 110.958 -0.311955 -1.91678 0
M  V30 1023 O 110.233 0.686384 -1.81986 0
M  V30 1024 C 110.516 -2.79219 -2.27396 0
M  V30 1025 C 110.369 -4.19286 -1.62848 0
M  V30 1026 C 111.688 -2.92614 -3.28732 0
M  V30 1027 H 108.807 -0.587399 -0.445119 0
M  V30 1028 H 111.449 -1.82681 -0.522265 0
M  V30 1029 H 109.599 -2.61195 -2.87592 0
M  V30 1030 H 111.271 -4.48892 -1.06271 0
M  V30 1031 H 109.514 -4.23677 -0.931693 0
M  V30 1032 H 110.185 -4.97655 -2.38838 0
M  V30 1033 H 112.661 -3.09105 -2.78556 0
M  V30 1034 H 111.537 -3.76688 -3.99246 0
M  V30 1035 H 111.798 -2.03107 -3.92683 0
M  V30 1036 N 110.857 0.726932 -1.39834 0
M  V30 1037 C 111.82 1.82269 -1.38962 0
M  V30 1038 C 112.82 1.58248 -0.285334 0
M  V30 1039 O 114.01 1.65499 -0.54366 0
M  V30 1040 C 111.142 3.20186 -1.17019 0
M  V30 1041 H 112.335 1.84443 -2.36476 0
M  V30 1042 H 109.888 0.931416 -1.25516 0
M  V30 1043 H 110.623 3.23669 -0.202204 0
M  V30 1044 H 110.408 3.3902 -1.96998 0
M  V30 1045 H 111.898 4.00235 -1.1917 0
M  V30 1046 N 112.336 1.25143 0.95797 0
M  V30 1047 C 113.561 1.12521 1.74223 0
M  V30 1048 C 113.986 -0.317402 1.85403 0
M  V30 1049 O 113.344 -1.2299 1.33204 0
M  V30 1050 C 113.392 1.78062 3.1357 0
M  V30 1051 O 112.496 1.058 3.98598 0
M  V30 1052 H 111.837 0.39304 0.535178 0
M  V30 1053 H 114.367 1.65641 1.201 0
M  V30 1054 H 114.377 1.84213 3.64046 0
M  V30 1055 H 113.052 2.83021 3.04749 0
M  V30 1056 H 111.629 1.07506 3.57067 0
M  V30 1057 N 113.814 -1.1601 1.06675 0
M  V30 1058 C 115.091 -1.82679 0.699114 0
M  V30 1059 C 115.471 -1.94559 -0.819137 0
M  V30 1060 O 114.819 -1.49169 -1.73092 0
M  V30 1061 C 115.029 -3.19445 1.40555 0
M  V30 1062 C 116.377 -3.95171 1.55323 0
M  V30 1063 O 117.401 -3.28976 1.36577 0
M  V30 1064 O 116.26 -5.13833 1.86112 0
M  V30 1065 H 113.354 -0.788954 0.247951 0
M  V30 1066 H 115.9 -1.23179 1.16726 0
M  V30 1067 H 114.672 -3.05856 2.44065 0
M  V30 1068 H 114.295 -3.86625 0.927733 0
M  V30 1069 N 115.292 -0.849877 -1.32721 0
M  V30 1070 C 116.222 -0.306308 -2.31482 0
M  V30 1071 C 117.203 0.591952 -1.59468 0
M  V30 1072 O 118.388 0.513199 -1.87296 0
M  V30 1073 C 115.518 0.510204 -3.43532 0
M  V30 1074 C 114.472 -0.293209 -4.26994 0
M  V30 1075 C 113.798 0.647743 -5.30762 0
M  V30 1076 C 115.098 -1.51634 -4.99804 0
M  V30 1077 H 116.792 -1.13153 -2.77195 0
M  V30 1078 H 114.338 -0.545553 -1.33266 0
M  V30 1079 H 116.291 0.900856 -4.11658 0
M  V30 1080 H 115.015 1.36874 -2.96535 0
M  V30 1081 H 113.674 -0.665555 -3.60508 0
M  V30 1082 H 113.322 1.50299 -4.8002 0
M  V30 1083 H 113.022 0.11422 -5.87489 0
M  V30 1084 H 114.546 1.03567 -6.01753 0
M  V30 1085 H 115.96 -1.19824 -5.60638 0
M  V30 1086 H 114.357 -1.98745 -5.66234 0
M  V30 1087 H 115.427 -2.28018 -4.27943 0
M  V30 1088 N 116.77 1.45427 -0.607355 0
M  V30 1089 C 118.018 2.01841 -0.102253 0
M  V30 1090 C 118.339 1.47832 1.27164 0
M  V30 1091 O 117.609 0.672497 1.83995 0
M  V30 1092 H 116.189 0.746188 -0.0348101 0
M  V30 1093 H 118.851 1.78229 -0.7887 0
M  V30 1094 H 117.947 3.12057 -0.0518585 0
M  V30 1095 N 118.248 0.346503 1.53744 0
M  V30 1096 C 119.659 -0.136779 1.86198 0
M  V30 1097 C 120.01 -1.49749 1.26766 0
M  V30 1098 O 119.135 -2.08417 0.582355 0
M  V30 1099 C 119.73 -0.254966 3.37839 0
M  V30 1100 C 118.289 -0.682482 3.70161 0
M  V30 1101 C 117.436 0.181981 2.76702 0
M  V30 1102 H 120.387 0.565994 1.48264 0
M  V30 1103 H 120.408 -1.08195 3.64793 0
M  V30 1104 H 119.92 0.735526 3.81066 0
M  V30 1105 H 118.021 -1.68189 3.3248 0
M  V30 1106 H 118.134 -0.470326 4.76786 0
M  V30 1107 H 116.498 -0.34615 2.52337 0
M  V30 1108 H 117.281 1.16966 3.2276 0
M  V30 1109 N 119.726 -1.57421 0.075193 0
M  V30 1110 C 121.142 -1.57099 -0.281444 0
M  V30 1111 C 121.342 -1.08486 -1.69803 0
M  V30 1112 O 120.398 -0.752279 -2.41033 0
M  V30 1113 C 121.711 -3.00571 -0.0880041 0
M  V30 1114 C 123.259 -3.12605 -0.157281 0
M  V30 1115 C 123.734 -4.57999 0.0079207 0
M  V30 1116 N 125.225 -4.63176 -0.0475725 0
M  V30 1117 C 125.96 -5.73373 0.0557876 0
M  V30 1118 N 125.456 -6.92473 0.21286 0
M  V30 1119 N 127.249 -5.621 -0.00152098 0
M  V30 1120 H 119.4 -1.87335 1.00098 0
M  V30 1121 H 121.663 -0.86377 0.390646 0
M  V30 1122 H 121.369 -3.40262 0.889629 0
M  V30 1123 H 121.243 -3.67754 -0.838875 0
M  V30 1124 H 123.63 -2.72798 -1.1254 0
M  V30 1125 H 123.711 -2.48053 0.62475 0
M  V30 1126 H 123.355 -4.98496 0.972824 0
M  V30 1127 H 123.285 -5.20586 -0.793556 0
M  V30 1128 H 125.776 -3.7753 -0.167244 0
M  V30 1129 H 126.089 -7.72279 0.283781 0
M  V30 1130 H 124.434 -6.94556 0.248267 0
M  V30 1131 H 127.625 -4.67938 -0.122958 0
M  V30 1132 H 127.798 -6.47948 0.0824844 0
M  V30 1133 N 121.204 0.198386 -1.56346 0
M  V30 1134 C 122.615 0.763358 -1.70381 0
M  V30 1135 C 122.966 1.83995 -0.681203 0
M  V30 1136 O 122.091 2.15785 0.16305 0
M  V30 1137 C 122.686 1.39143 -3.08909 0
M  V30 1138 C 121.245 1.90352 -3.2472 0
M  V30 1139 C 120.392 0.772233 -2.6633 0
M  V30 1140 H 123.343 -0.0266377 -1.58678 0
M  V30 1141 H 123.364 2.26076 -3.06055 0
M  V30 1142 H 122.876 0.607638 -3.83314 0
M  V30 1143 H 120.977 2.71461 -2.55225 0
M  V30 1144 H 121.09 2.06757 -4.3219 0
M  V30 1145 H 119.454 1.18566 -2.2542 0
M  V30 1146 H 120.237 0.00073556 -3.433 0
M  V30 1147 N 122.682 1.50554 0.465978 0
M  V30 1148 C 124.093 1.54599 1.04671 0
M  V30 1149 C 124.444 0.352488 1.93008 0
M  V30 1150 O 123.569 -0.534044 2.09707 0
M  V30 1151 C 124.164 2.80166 1.90505 0
M  V30 1152 C 122.723 2.86876 2.43678 0
M  V30 1153 C 121.87 2.48947 1.22151 0
M  V30 1154 H 124.821 1.56744 0.248384 0
M  V30 1155 H 124.842 2.62311 2.75633 0
M  V30 1156 H 124.354 3.67013 1.26186 0
M  V30 1157 H 122.455 2.04393 3.11536 0
M  V30 1158 H 122.568 3.89885 2.78436 0
M  V30 1159 H 120.932 2.01498 1.5579 0
M  V30 1160 H 121.715 3.38107 0.594866 0
M  V30 1161 N 124.16 -0.719506 1.40217 0
M  V30 1162 C 125.406 -1.48152 1.38488 0
M  V30 1163 C 125.739 -1.94195 -0.0141867 0
M  V30 1164 O 125.014 -1.67884 -0.982096 0
M  V30 1165 C 125.297 -2.71035 2.37091 0
M  V30 1166 C 125.15 -2.30912 3.86005 0
M  V30 1167 C 126.469 -3.73182 2.33288 0
M  V30 1168 H 123.588 -0.537395 0.504357 0
M  V30 1169 H 126.23 -0.821472 1.71324 0
M  V30 1170 H 124.38 -3.27352 2.0922 0
M  V30 1171 H 126.052 -1.80107 4.24687 0
M  V30 1172 H 124.295 -1.62958 4.02029 0
M  V30 1173 H 124.966 -3.18978 4.50508 0
M  V30 1174 H 127.442 -3.26485 2.57966 0
M  V30 1175 H 126.318 -4.56806 3.04334 0
M  V30 1176 H 126.579 -4.21202 1.34317 0
M  V30 1177 N 125.638 -1.25649 -0.95132 0
M  V30 1178 C 126.863 -1.13443 -1.73624 0
M  V30 1179 C 127.288 0.307565 -1.85568 0
M  V30 1180 O 126.646 1.22282 -1.33854 0
M  V30 1181 C 126.694 -1.79723 -3.12621 0
M  V30 1182 O 125.798 -1.07912 -3.98031 0
M  V30 1183 H 125.139 -0.395872 -0.533086 0
M  V30 1184 H 127.669 -1.66276 -1.1922 0
M  V30 1185 H 127.679 -1.86141 -3.63064 0
M  V30 1186 H 126.354 -2.84633 -3.03244 0
M  V30 1187 H 124.931 -1.09398 -3.56492 0
M  V30 1188 N 127.117 1.15442 -1.07289 0
M  V30 1189 C 128.047 2.22312 -0.714107 0
M  V30 1190 C 129.028 1.67467 0.298155 0
M  V30 1191 O 130.213 1.93445 0.171048 0
M  V30 1192 C 127.343 3.47124 -0.110448 0
M  V30 1193 C 126.297 4.14926 -1.04979 0
M  V30 1194 C 125.623 5.33807 -0.308924 0
M  V30 1195 C 126.923 4.64762 -2.38314 0
M  V30 1196 H 128.617 2.5258 -1.6076 0
M  V30 1197 H 126.163 1.21404 -0.77441 0
M  V30 1198 H 128.116 4.21124 0.152482 0
M  V30 1199 H 126.84 3.16187 0.81812 0
M  V30 1200 H 125.499 3.42866 -1.29764 0
M  V30 1201 H 125.147 4.99126 0.623084 0
M  V30 1202 H 124.847 5.80113 -0.935036 0
M  V30 1203 H 126.371 6.10576 -0.0537771 0
M  V30 1204 H 127.785 5.30292 -2.1786 0
M  V30 1205 H 126.182 5.21728 -2.96514 0
M  V30 1206 H 127.252 3.80434 -3.00663 0
M  V30 1207 N 128.595 0.856903 1.32268 0
M  V30 1208 C 129.872 0.382583 1.91822 0
M  V30 1209 C 130.252 -1.13407 1.78051 0
M  V30 1210 O 129.6 -1.95673 1.18001 0
M  V30 1211 C 129.81 0.849446 3.38505 0
M  V30 1212 C 131.158 0.867936 4.15634 0
M  V30 1213 O 132.182 0.794232 3.47232 0
M  V30 1214 O 131.041 0.972286 5.37781 0
M  V30 1215 H 128.135 0.112014 0.819379 0
M  V30 1216 H 130.681 0.943952 1.41024 0
M  V30 1217 H 129.453 1.89267 3.42482 0
M  V30 1218 H 129.076 0.265652 3.96712 0
M  V30 1219 N 130.073 -1.45103 0.615059 0
M  V30 1220 C 131.484 -1.85654 0.197383 0
M  V30 1221 C 131.835 -1.51433 -1.24749 0
M  V30 1222 O 130.96 -0.944608 -1.94695 0
M  V30 1223 C 131.555 -3.36972 0.351448 0
M  V30 1224 C 130.114 -3.76398 -0.011593 0
M  V30 1225 C 129.261 -2.69024 0.672394 0
M  V30 1226 H 132.212 -1.35797 0.821263 0
M  V30 1227 H 132.233 -3.78239 -0.414227 0
M  V30 1228 H 131.745 -3.61847 1.40314 0
M  V30 1229 H 129.846 -3.5714 -1.06217 0
M  V30 1230 H 129.959 -4.77532 0.387265 0
M  V30 1231 H 128.323 -2.54465 0.109284 0
M  V30 1232 H 129.106 -2.96735 1.72636 0
M  V30 1233 N 131.551 -0.354651 -1.53558 0
M  V30 1234 C 132.967 -0.00315426 -1.596 0
M  V30 1235 C 133.167 1.47741 -1.37021 0
M  V30 1236 O 132.223 2.23759 -1.16996 0
M  V30 1237 C 133.536 -0.44929 -2.97325 0
M  V30 1238 C 135.084 -0.402578 -3.104 0
M  V30 1239 C 135.559 -0.824355 -4.5052 0
M  V30 1240 N 137.05 -0.778979 -4.56603 0
M  V30 1241 C 137.785 -1.07715 -5.63192 0
M  V30 1242 N 137.281 -1.44405 -6.77583 0
M  V30 1243 N 139.074 -1.00066 -5.53121 0
M  V30 1244 H 131.225 -1.31893 -1.66487 0
M  V30 1245 H 133.488 -0.538388 -0.780284 0
M  V30 1246 H 133.194 -1.48202 -3.1895 0
M  V30 1247 H 133.068 0.169772 -3.76818 0
M  V30 1248 H 135.455 0.621004 -2.88492 0
M  V30 1249 H 135.536 -1.05699 -2.32941 0
M  V30 1250 H 135.18 -1.846 -4.73165 0
M  V30 1251 H 135.11 -0.147304 -5.26394 0
M  V30 1252 H 137.601 -0.508528 -3.74463 0
M  V30 1253 H 137.914 -1.65612 -7.54846 0
M  V30 1254 H 136.259 -1.4826 -6.79002 0
M  V30 1255 H 139.45 -0.713293 -4.62633 0
M  V30 1256 H 139.623 -1.23638 -6.36096 0
M  V30 1257 N 133.029 1.57378 -0.0835403 0
M  V30 1258 C 134.275 1.94217 0.583733 0
M  V30 1259 C 134.608 0.964653 1.68547 0
M  V30 1260 O 133.883 -0.00422258 1.945 0
M  V30 1261 C 134.166 3.41253 1.14972 0
M  V30 1262 C 134.019 4.49768 0.0538277 0
M  V30 1263 C 135.338 3.89352 2.05166 0
M  V30 1264 H 132.457 0.706233 0.210724 0
M  V30 1265 H 135.099 1.89392 -0.1519 0
M  V30 1266 H 133.249 3.45496 1.77665 0
M  V30 1267 H 134.921 4.57641 -0.579851 0
M  V30 1268 H 133.164 4.29432 -0.614068 0
M  V30 1269 H 133.835 5.49817 0.490452 0
M  V30 1270 H 136.311 3.87189 1.52393 0
M  V30 1271 H 135.187 4.92822 2.41698 0
M  V30 1272 H 135.448 3.27973 2.96456 0
M  V30 1273 N 134.507 -0.190092 1.56449 0
M  V30 1274 C 135.732 -0.929864 1.85387 0
M  V30 1275 C 136.157 -1.7585 0.667704 0
M  V30 1276 O 135.515 -1.77198 -0.383459 0
M  V30 1277 C 135.563 -1.79773 3.12593 0
M  V30 1278 O 134.667 -2.89713 2.93496 0
M  V30 1279 H 134.008 -0.261574 0.610307 0
M  V30 1280 H 136.538 -0.193896 2.03679 0
M  V30 1281 H 136.548 -2.20139 3.43515 0
M  V30 1282 H 135.223 -1.18892 3.98544 0
M  V30 1283 H 133.8 -2.53065 2.73884 0
M  V30 1284 N 135.985 -1.50799 -0.457987 0
M  V30 1285 C 137.234 -1.6168 -1.20593 0
M  V30 1286 C 137.547 -0.32888 -1.92815 0
M  V30 1287 O 138.753 -0.316773 -2.69646 0
M  V30 1288 C 137.209 -2.8545 -2.19195 0
M  V30 1289 C 136.817 -4.21168 -1.52715 0
M  V30 1290 C 138.561 -3.05681 -2.94549 0
M  V30 1291 C 136.468 -5.3611 -2.4968 0
M  V30 1292 H 135.398 -0.602134 -0.453818 0
M  V30 1293 H 138.049 -1.77245 -0.475031 0
M  V30 1294 H 136.431 -2.63472 -2.95632 0
M  V30 1295 H 137.605 -4.53449 -0.819775 0
M  V30 1296 H 135.92 -4.06648 -0.895922 0
M  V30 1297 H 138.517 -3.88727 -3.67145 0
M  V30 1298 H 138.86 -2.17929 -3.54701 0
M  V30 1299 H 139.393 -3.27901 -2.25223 0
M  V30 1300 H 136.132 -6.26057 -1.94249 0
M  V30 1301 H 135.652 -5.0823 -3.18532 0
M  V30 1302 H 137.331 -5.6722 -3.11241 0
M  V30 1303 N 137.463 0.71206 -1.40597 0
M  V30 1304 C 138.693 1.49894 -1.42181 0
M  V30 1305 C 139.101 1.89189 -0.0208078 0
M  V30 1306 O 138.444 1.56223 0.966436 0
M  V30 1307 C 138.506 2.80215 -2.25211 0
M  V30 1308 C 138.17 2.63221 -3.73582 0
M  V30 1309 C 139.167 2.30249 -4.66135 0
M  V30 1310 C 136.852 2.79376 -4.17438 0
M  V30 1311 C 138.846 2.13645 -6.00529 0
M  V30 1312 C 136.533 2.6239 -5.51901 0
M  V30 1313 C 137.531 2.29573 -6.43262 0
M  V30 1314 O 137.219 2.12719 -7.75246 0
M  V30 1315 H 136.951 0.469031 -0.486812 0
M  V30 1316 H 139.505 0.88564 -1.85326 0
M  V30 1317 H 137.735 3.4389 -1.76852 0
M  V30 1318 H 139.424 3.41947 -2.18694 0
M  V30 1319 H 140.19 2.17398 -4.33547 0
M  V30 1320 H 136.069 3.03906 -3.46644 0
M  V30 1321 H 139.613 1.87953 -6.71803 0
M  V30 1322 H 135.51 2.74826 -5.84073 0
M  V30 1323 H 136.278 2.27611 -7.86216 0
M  V30 1324 N 138.941 1.26152 0.944643 0
M  V30 1325 C 140.166 1.14363 1.7302 0
M  V30 1326 C 140.591 -0.29772 1.85729 0
M  V30 1327 O 139.949 -1.2157 1.34501 0
M  V30 1328 C 139.997 1.81378 3.11664 0
M  V30 1329 O 139.101 1.10022 3.97453 0
M  V30 1330 H 138.442 0.398694 0.53098 0
M  V30 1331 H 140.972 1.66906 1.18337 0
M  V30 1332 H 140.982 1.88064 3.62072 0
M  V30 1333 H 139.657 2.86237 3.0173 0
M  V30 1334 H 138.234 1.11287 3.55907 0
M  V30 1335 N 140.419 -1.14872 1.07899 0
M  V30 1336 C 141.647 -1.89661 0.82683 0
M  V30 1337 C 142.062 -1.78312 -0.620519 0
M  V30 1338 O 141.419 -1.13888 -1.42604 0
M  V30 1339 C 141.47 -3.39817 1.23316 0
M  V30 1340 O 141.191 -3.50845 2.62372 0
M  V30 1341 C 142.692 -4.31615 1.0111 0
M  V30 1342 H 139.912 -0.60092 0.298557 0
M  V30 1343 H 142.456 -1.4551 1.43691 0
M  V30 1344 H 140.611 -3.8161 0.667286 0
M  V30 1345 H 141.025 -4.44076 2.79101 0
M  V30 1346 H 142.499 -5.35367 1.34486 0
M  V30 1347 H 142.976 -4.39169 -0.0522168 0
M  V30 1348 H 143.582 -3.95572 1.56215 0
M  V30 1349 N 141.898 -0.863906 -1.31812 0
M  V30 1350 C 143.314 -0.555004 -1.49639 0
M  V30 1351 C 143.514 0.912266 -1.79666 0
M  V30 1352 O 142.57 1.69479 -1.87171 0
M  V30 1353 C 143.883 -1.44998 -2.63431 0
M  V30 1354 C 145.431 -1.45138 -2.77316 0
M  V30 1355 C 145.906 -2.33179 -3.94197 0
M  V30 1356 N 147.397 -2.31025 -4.01474 0
M  V30 1357 C 148.132 -2.95871 -4.9117 0
M  V30 1358 N 147.628 -3.69863 -5.8581 0
M  V30 1359 N 149.421 -2.85211 -4.84367 0
M  V30 1360 H 141.572 -1.81339 -1.10589 0
M  V30 1361 H 143.835 -0.77505 -0.545895 0
M  V30 1362 H 143.541 -2.49377 -2.48 0
M  V30 1363 H 143.415 -1.14409 -3.59431 0
M  V30 1364 H 145.802 -0.415201 -2.92164 0
M  V30 1365 H 145.883 -1.79747 -1.82001 0
M  V30 1366 H 145.527 -3.3687 -3.80107 0
M  V30 1367 H 145.457 -1.95897 -4.88807 0
M  V30 1368 H 147.948 -1.77238 -3.33759 0
M  V30 1369 H 148.261 -4.16486 -6.50968 0
M  V30 1370 H 146.606 -3.73971 -5.85808 0
M  V30 1371 H 149.797 -2.26948 -4.09405 0
M  V30 1372 H 149.97 -3.36027 -5.54066 0
M  V30 1373 N 143.376 1.44774 -0.622745 0
M  V30 1374 C 144.792 1.56986 -0.287652 0
M  V30 1375 C 144.992 1.61167 1.20944 0
M  V30 1376 O 144.048 1.55015 1.99315 0
M  V30 1377 C 145.361 2.84551 -0.972188 0
M  V30 1378 C 146.909 2.9825 -0.949536 0
M  V30 1379 C 147.384 4.28605 -1.61437 0
M  V30 1380 N 148.875 4.35399 -1.58057 0
M  V30 1381 C 149.61 5.34964 -2.064 0
M  V30 1382 N 149.106 6.40981 -2.62897 0
M  V30 1383 N 150.899 5.26419 -1.97078 0
M  V30 1384 H 143.05 1.40304 -1.59463 0
M  V30 1385 H 145.313 0.671794 -0.668878 0
M  V30 1386 H 145.019 2.87417 -2.02693 0
M  V30 1387 H 144.893 3.73807 -0.504771 0
M  V30 1388 H 147.28 2.94941 0.0967067 0
M  V30 1389 H 147.361 2.10364 -1.45536 0
M  V30 1390 H 147.005 4.32672 -2.66002 0
M  V30 1391 H 146.935 5.15334 -1.08344 0
M  V30 1392 H 149.426 3.59397 -1.16801 0
M  V30 1393 H 149.739 7.13225 -2.97539 0
M  V30 1394 H 148.084 6.4169 -2.66943 0
M  V30 1395 H 151.275 4.42504 -1.52669 0
M  V30 1396 H 151.448 6.03861 -2.35066 0
M  V30 1397 N 144.854 0.36279 1.53368 0
M  V30 1398 C 146.265 -0.117022 1.86333 0
M  V30 1399 C 146.616 -1.48397 1.28347 0
M  V30 1400 O 145.741 -2.07787 0.604428 0
M  V30 1401 C 146.336 -0.21912 3.38091 0
M  V30 1402 C 144.895 -0.643184 3.70864 0
M  V30 1403 C 144.042 0.211318 2.76494 0
M  V30 1404 H 146.993 0.581687 1.47655 0
M  V30 1405 H 147.014 -1.04319 3.6592 0
M  V30 1406 H 146.526 0.775902 3.80265 0
M  V30 1407 H 144.627 -1.64654 3.34245 0
M  V30 1408 H 144.74 -0.41973 4.77258 0
M  V30 1409 H 143.104 -0.319367 2.5269 0
M  V30 1410 H 143.887 1.20383 3.21501 0
M  V30 1411 N 146.332 -1.57332 0.0918853 0
M  V30 1412 C 147.578 -1.94524 -0.573425 0
M  V30 1413 C 147.911 -0.973578 -1.68033 0
M  V30 1414 O 147.186 -0.00609226 -1.94499 0
M  V30 1415 C 147.469 -3.41858 -1.13161 0
M  V30 1416 C 147.322 -4.4979 -0.0299747 0
M  V30 1417 C 148.641 -3.90435 -2.03098 0
M  V30 1418 H 145.76 -0.70734 -0.206975 0
M  V30 1419 H 148.402 -1.89309 0.161942 0
M  V30 1420 H 146.552 -3.46433 -1.7583 0
M  V30 1421 H 148.224 -4.57327 0.604112 0
M  V30 1422 H 146.467 -4.291 0.636833 0
M  V30 1423 H 147.138 -5.50069 -0.461287 0
M  V30 1424 H 149.614 -3.87992 -1.50338 0
M  V30 1425 H 148.49 -4.94097 -2.39081 0
M  V30 1426 H 148.751 -3.29541 -2.94712 0
M  V30 1427 N 147.81 0.181792 -1.56548 0
M  V30 1428 C 148.74 1.22765 -1.98623 0
M  V30 1429 C 149.721 1.46747 -0.860189 0
M  V30 1430 O 150.906 1.58259 -1.12551 0
M  V30 1431 C 148.036 2.56894 -2.33715 0
M  V30 1432 C 146.99 2.475 -3.49182 0
M  V30 1433 C 146.316 3.86023 -3.69986 0
M  V30 1434 C 147.616 1.98866 -4.82959 0
M  V30 1435 H 149.31 0.877942 -2.86239 0
M  V30 1436 H 146.856 0.42088 -1.37712 0
M  V30 1437 H 148.809 3.30253 -2.61746 0
M  V30 1438 H 147.533 2.93632 -1.42997 0
M  V30 1439 H 146.192 1.76596 -3.21262 0
M  V30 1440 H 145.84 4.20136 -2.76576 0
M  V30 1441 H 145.54 3.80609 -4.47672 0
M  V30 1442 H 147.064 4.60984 -4.00407 0
M  V30 1443 H 148.478 2.61992 -5.09934 0
M  V30 1444 H 146.875 2.04424 -5.64208 0
M  V30 1445 H 147.945 0.942465 -4.75653 0
M  V30 1446 N 149.288 1.51039 0.449983 0
M  V30 1447 C 150.251 1.70863 1.5277 0
M  V30 1448 C 151.251 0.578846 1.5002 0
M  V30 1449 O 152.441 0.846213 1.52266 0
M  V30 1450 C 149.573 1.75341 2.9235 0
M  V30 1451 H 150.766 2.67034 1.36502 0
M  V30 1452 H 148.319 1.40838 0.677812 0
M  V30 1453 H 149.054 0.809383 3.14037 0
M  V30 1454 H 148.839 2.57436 2.95752 0
M  V30 1455 H 150.329 1.92559 3.70555 0
M  V30 1456 N 150.766 -0.704594 1.40972 0
M  V30 1457 C 152.182 -1.01406 1.23244 0
M  V30 1458 C 152.382 -2.01169 0.115399 0
M  V30 1459 O 151.438 -2.47021 -0.523147 0
M  V30 1460 C 152.751 -1.54728 2.57836 0
M  V30 1461 C 154.299 -1.66658 2.64942 0
M  V30 1462 C 154.774 -2.23383 3.9983 0
M  V30 1463 N 156.265 -2.30756 4.01629 0
M  V30 1464 C 157 -2.75655 5.02794 0
M  V30 1465 N 156.496 -3.20225 6.14352 0
M  V30 1466 N 158.289 -2.75138 4.90159 0
M  V30 1467 H 150.44 -0.0435285 2.12355 0
M  V30 1468 H 152.703 -0.0818951 0.944456 0
M  V30 1469 H 152.409 -0.888832 3.40283 0
M  V30 1470 H 152.283 -2.53084 2.79693 0
M  V30 1471 H 154.67 -2.31617 1.8286 0
M  V30 1472 H 154.751 -0.668717 2.46904 0
M  V30 1473 H 154.395 -1.59043 4.82357 0
M  V30 1474 H 154.325 -3.23904 4.15203 0
M  V30 1475 H 156.816 -1.99291 3.21079 0
M  V30 1476 H 157.129 -3.53084 6.87424 0
M  V30 1477 H 155.474 -3.18156 6.17901 0
M  V30 1478 H 158.665 -2.39661 4.02095 0
M  V30 1479 H 158.838 -3.09812 5.6914 0
M  V30 1480 N 152.244 -1.26651 -0.937939 0
M  V30 1481 C 153.472 -1.15173 -1.7188 0
M  V30 1482 C 153.887 0.292668 -1.86518 0
M  V30 1483 O 153.244 1.20014 -1.37488 0
M  V30 1484 C 153.295 -1.81925 -3.12387 0
M  V30 1485 O 153.016 -3.2072 -2.98446 0
M  V30 1486 C 154.517 -1.76442 -4.06673 0
M  V30 1487 H 151.737 -0.400911 -0.538063 0
M  V30 1488 H 154.281 -1.67332 -1.1756 0
M  V30 1489 H 152.436 -1.33696 -3.63599 0
M  V30 1490 H 152.85 -3.53802 -3.872 0
M  V30 1491 H 154.324 -2.27781 -5.02812 0
M  V30 1492 H 154.801 -0.731608 -4.33064 0
M  V30 1493 H 155.407 -2.24238 -3.61382 0
M  V30 1494 N 153.722 1.14298 -1.08507 0
M  V30 1495 C 154.672 2.17449 -0.685569 0
M  V30 1496 C 155.656 1.58167 0.295315 0
M  V30 1497 O 156.848 1.76675 0.107172 0
M  V30 1498 C 153.977 3.43161 -0.0975318 0
M  V30 1499 C 153.063 4.09471 -1.10426 0
M  V30 1500 N 153.454 4.51089 -2.28806 0
M  V30 1501 C 151.752 4.35976 -0.940258 0
M  V30 1502 C 152.453 5.02654 -2.9277 0
M  V30 1503 N 151.429 4.96927 -2.20374 0
M  V30 1504 H 155.231 2.47369 -1.587 0
M  V30 1505 H 152.745 1.30992 -0.959936 0
M  V30 1506 H 154.742 4.16388 0.20664 0
M  V30 1507 H 153.402 3.14719 0.798872 0
M  V30 1508 H 154.413 4.44097 -2.66455 0
M  V30 1509 H 151.09 4.17386 -0.0977441 0
M  V30 1510 H 152.48 5.44723 -3.93352 0
M  V30 1511 N 155.201 0.870884 1.31352 0
M  V30 1512 C 156.447 0.482987 1.96965 0
M  V30 1513 C 156.78 -0.962462 1.68672 0
M  V30 1514 O 156.055 -1.6779 0.98371 0
M  V30 1515 C 156.338 0.741752 3.52378 0
M  V30 1516 C 156.191 2.2368 3.9024 0
M  V30 1517 C 157.51 0.208838 4.39604 0
M  V30 1518 H 154.629 0.176955 0.715441 0
M  V30 1519 H 157.271 1.09229 1.55464 0
M  V30 1520 H 155.421 0.223149 3.87859 0
M  V30 1521 H 157.093 2.82273 3.64856 0
M  V30 1522 H 155.336 2.70901 3.38814 0
M  V30 1523 H 156.007 2.3685 4.98604 0
M  V30 1524 H 158.483 0.652529 4.10952 0
M  V30 1525 H 157.359 0.419336 5.47296 0
M  V30 1526 H 157.62 -0.889275 4.33064 0
M  V30 1527 N 156.679 -1.44442 0.630414 0
M  V30 1528 C 157.611 -2.2892 -0.113347 0
M  V30 1529 C 158.624 -1.41243 -0.80959 0
M  V30 1530 O 159.813 -1.65402 -0.671156 0
M  V30 1531 C 156.913 -3.17594 -1.18266 0
M  V30 1532 C 156.086 -4.33682 -0.569073 0
M  V30 1533 C 155.145 -5.03397 -1.53226 0
M  V30 1534 O 154.171 -5.59438 -1.04967 0
M  V30 1535 N 155.373 -5.04783 -2.86661 0
M  V30 1536 H 158.138 -2.93392 0.611636 0
M  V30 1537 H 155.699 -1.54881 0.471523 0
M  V30 1538 H 157.691 -3.61097 -1.82732 0
M  V30 1539 H 156.261 -2.54876 -1.80988 0
M  V30 1540 H 155.481 -3.9338 0.254187 0
M  V30 1541 H 156.769 -5.08608 -0.139767 0
M  V30 1542 H 156.167 -4.60584 -3.28449 0
M  V30 1543 H 154.724 -5.52077 -3.46489 0
M  V30 1544 N 158.157 -0.370918 -1.53173 0
M  V30 1545 C 159.405 0.216673 -2.00935 0
M  V30 1546 C 159.726 1.48845 -1.25977 0
M  V30 1547 O 158.996 1.92286 -0.374551 0
M  V30 1548 H 157.576 0.0830565 -0.742368 0
M  V30 1549 H 160.238 -0.49838 -1.8842 0
M  V30 1550 H 159.334 0.439893 -3.08984 0
M  V30 1551 N 159.635 1.57281 -0.100228 0
M  V30 1552 C 161.051 1.57527 0.256416 0
M  V30 1553 C 161.251 1.11173 1.68056 0
M  V30 1554 O 160.307 0.79053 2.39806 0
M  V30 1555 C 161.62 3.00673 0.0401747 0
M  V30 1556 C 163.168 3.12815 0.107528 0
M  V30 1557 C 163.643 4.57929 -0.0807834 0
M  V30 1558 N 165.134 4.63193 -0.0261207 0
M  V30 1559 C 165.869 5.73212 -0.146999 0
M  V30 1560 N 165.365 6.92047 -0.322999 0
M  V30 1561 N 167.158 5.62031 -0.0879044 0
M  V30 1562 H 159.309 1.85718 -1.03065 0
M  V30 1563 H 161.572 0.857446 -0.404339 0
M  V30 1564 H 161.278 3.38804 -0.943649 0
M  V30 1565 H 161.152 3.69042 0.780262 0
M  V30 1566 H 163.539 2.74554 1.08186 0
M  V30 1567 H 163.62 2.47028 -0.664134 0
M  V30 1568 H 163.264 4.96886 -1.05201 0
M  V30 1569 H 163.194 5.21783 0.710635 0
M  V30 1570 H 165.685 3.77748 0.107161 0
M  V30 1571 H 165.998 7.7173 -0.406608 0
M  V30 1572 H 164.343 6.94074 -0.358733 0
M  V30 1573 H 167.534 4.68075 0.048498 0
M  V30 1574 H 167.707 6.47734 -0.185557 0
M  V30 1575 N 161.113 -0.173488 1.56642 0
M  V30 1576 C 162.359 -0.891784 1.8214 0
M  V30 1577 C 162.692 -1.8199 0.677736 0
M  V30 1578 O 161.967 -1.91842 -0.320446 0
M  V30 1579 C 162.25 -1.68933 3.18015 0
M  V30 1580 C 162.103 -0.784487 4.42906 0
M  V30 1581 C 163.422 -2.65748 3.50808 0
M  V30 1582 H 160.541 -0.322761 0.662567 0
M  V30 1583 H 163.183 -0.158095 1.89341 0
M  V30 1584 H 161.333 -2.31482 3.12007 0
M  V30 1585 H 163.005 -0.172046 4.60979 0
M  V30 1586 H 161.248 -0.0924117 4.33702 0
M  V30 1587 H 161.919 -1.37799 5.34524 0
M  V30 1588 H 164.395 -2.13327 3.57255 0
M  V30 1589 H 163.271 -3.18619 4.4696 0
M  V30 1590 H 163.532 -3.45842 2.75401 0
M  V30 1591 N 162.591 -1.51276 -0.441967 0
M  V30 1592 C 163.821 -1.67273 -1.21257 0
M  V30 1593 C 164.229 -0.367624 -1.85594 0
M  V30 1594 O 163.572 0.663349 -1.71305 0
M  V30 1595 C 163.634 -2.72807 -2.34129 0
M  V30 1596 C 163.298 -4.1554 -1.90198 0
M  V30 1597 C 164.295 -5.00471 -1.40801 0
M  V30 1598 C 161.98 -4.61616 -1.9803 0
M  V30 1599 C 163.974 -6.29536 -0.998174 0
M  V30 1600 C 161.661 -5.90679 -1.56658 0
M  V30 1601 C 162.659 -6.74466 -1.07633 0
M  V30 1602 O 162.347 -8.01116 -0.668459 0
M  V30 1603 H 162.079 -0.564614 -0.371734 0
M  V30 1604 H 164.633 -1.9843 -0.530521 0
M  V30 1605 H 162.863 -2.36954 -3.05597 0
M  V30 1606 H 164.552 -2.77729 -2.96009 0
M  V30 1607 H 165.318 -4.66079 -1.34148 0
M  V30 1608 H 161.197 -3.96526 -2.35135 0
M  V30 1609 H 164.741 -6.94885 -0.61482 0
M  V30 1610 H 160.638 -6.24586 -1.62979 0
M  V30 1611 H 161.406 -8.14633 -0.794722 0
M  V30 1612 N 164.069 0.697108 -1.41344 0
M  V30 1613 C 165.017 1.83237 -1.43272 0
M  V30 1614 C 166.011 1.66522 -0.310947 0
M  V30 1615 O 167.217 1.73402 -0.482899 0
M  V30 1616 H 163.592 0.603802 -0.448249 0
M  V30 1617 H 165.563 1.78727 -2.38954 0
M  V30 1618 C 164.312 3.21245 -1.33029 0
M  V30 1619 H 163.635 3.34723 -2.18633 0
M  V30 1620 H 165.075 4.00763 -1.38439 0
M  V30 1621 C 163.534 3.36873 -0.0424635 0
M  V30 1622 O 164.064 3.91177 0.913421 0
M  V30 1623 N 162.27 2.90581 0.0331145 0
M  V30 1624 H 161.817 2.46577 -0.745506 0
M  V30 1625 H 161.775 3.01416 0.894199 0
M  V30 1626 N 165.547 1.27147 0.931209 0
M  V30 1627 C 166.794 1.13278 1.67852 0
M  V30 1628 C 167.122 -0.32204 1.91815 0
M  V30 1629 O 166.377 -1.25224 1.50391 0
M  V30 1630 C 166.676 1.8579 3.05314 0
M  V30 1631 C 166.342 3.35657 3.01073 0
M  V30 1632 C 165.004 3.76536 2.99623 0
M  V30 1633 C 167.356 4.31299 2.92627 0
M  V30 1634 C 164.684 5.11426 2.87506 0
M  V30 1635 C 167.036 5.66242 2.82051 0
M  V30 1636 C 165.7 6.06418 2.7895 0
M  V30 1637 H 164.97 0.414515 0.614214 0
M  V30 1638 H 167.617 1.57712 1.08624 0
M  V30 1639 H 165.922 1.33854 3.68226 0
M  V30 1640 H 167.619 1.72491 3.62005 0
M  V30 1641 H 164.209 3.03146 3.02986 0
M  V30 1642 H 168.393 4.00692 2.92848 0
M  V30 1643 H 163.649 5.41705 2.83489 0
M  V30 1644 H 167.823 6.40026 2.74481 0
M  V30 1645 H 165.45 7.10895 2.69318 0
M  V30 1646 N 167.025 -1.13721 1.09112 0
M  V30 1647 C 167.955 -2.21148 0.749385 0
M  V30 1648 C 168.936 -1.6792 -0.271475 0
M  V30 1649 O 170.121 -1.93693 -0.140251 0
M  V30 1650 C 167.251 -3.46905 0.165659 0
M  V30 1651 C 166.205 -4.13203 1.11567 0
M  V30 1652 C 165.531 -5.33248 0.393809 0
M  V30 1653 C 166.831 -4.60912 2.45678 0
M  V30 1654 H 168.525 -2.4999 1.64758 0
M  V30 1655 H 166.071 -1.20156 0.793626 0
M  V30 1656 H 168.024 -4.21313 -0.085466 0
M  V30 1657 H 166.748 -3.17449 -0.767714 0
M  V30 1658 H 165.407 -3.40758 1.35202 0
M  V30 1659 H 165.055 -5.00054 -0.543599 0
M  V30 1660 H 164.755 -5.78552 1.02721 0
M  V30 1661 H 166.279 -6.10413 0.150908 0
M  V30 1662 H 167.693 -5.26759 2.26269 0
M  V30 1663 H 166.09 -5.16944 3.04776 0
M  V30 1664 H 167.16 -3.75603 3.06677 0
M  V30 1665 N 168.503 -0.877838 -1.30888 0
M  V30 1666 C 169.413 -0.343096 -2.32078 0
M  V30 1667 C 170.429 0.551022 -1.65045 0
M  V30 1668 O 171.605 0.445854 -1.96403 0
M  V30 1669 C 168.67 0.439905 -3.43898 0
M  V30 1670 C 167.731 -0.483111 -4.26573 0
M  V30 1671 C 166.964 0.262616 -5.33053 0
M  V30 1672 O 167.187 1.48967 -5.50604 0
M  V30 1673 O 166.121 -0.383593 -6.00676 0
M  V30 1674 H 169.947 -1.18203 -2.79753 0
M  V30 1675 H 167.532 -0.64145 -1.34929 0
M  V30 1676 H 169.414 0.883504 -4.12034 0
M  V30 1677 H 168.089 1.25526 -2.98371 0
M  V30 1678 H 166.996 -0.975374 -3.61161 0
M  V30 1679 H 168.329 -1.26427 -4.75686 0
M  V30 1680 N 169.982 1.44106 -0.638065 0
M  V30 1681 C 171.398 1.56672 -0.304286 0
M  V30 1682 C 171.598 1.6244 1.19228 0
M  V30 1683 O 170.654 1.57121 1.9766 0
M  V30 1684 C 171.967 2.83503 -1.00231 0
M  V30 1685 C 173.515 2.97226 -0.981116 0
M  V30 1686 C 173.99 4.26868 -1.65974 0
M  V30 1687 N 175.481 4.33698 -1.62666 0
M  V30 1688 C 176.216 5.32745 -2.12063 0
M  V30 1689 N 175.712 6.38157 -2.6968 0
M  V30 1690 N 177.505 5.24299 -2.02651 0
M  V30 1691 H 169.656 1.38605 -1.60942 0
M  V30 1692 H 171.919 0.664661 -0.675965 0
M  V30 1693 H 171.625 2.85251 -2.0573 0
M  V30 1694 H 171.499 3.73251 -0.54439 0
M  V30 1695 H 173.886 2.95027 0.0654188 0
M  V30 1696 H 173.967 2.08808 -1.47759 0
M  V30 1697 H 173.611 4.29826 -2.70576 0
M  V30 1698 H 173.541 5.14156 -1.13804 0
M  V30 1699 H 176.032 3.58138 -1.20606 0
M  V30 1700 H 176.345 7.10029 -3.05087 0
M  V30 1701 H 174.69 6.38823 -2.73734 0
M  V30 1702 H 177.881 4.4086 -1.57353 0
M  V30 1703 H 178.054 6.01334 -2.41457 0
M  V30 1704 N 171.46 0.379036 1.52974 0
M  V30 1705 C 172.871 -0.0972525 1.86447 0
M  V30 1706 C 173.222 -1.47027 1.29914 0
M  V30 1707 O 172.347 -2.07135 0.626433 0
M  V30 1708 C 172.942 -0.183248 3.38304 0
M  V30 1709 C 171.501 -0.603812 3.71525 0
M  V30 1710 C 170.648 0.240632 2.76254 0
M  V30 1711 H 173.599 0.597316 1.4703 0
M  V30 1712 H 173.62 -1.00432 3.67006 0
M  V30 1713 H 173.132 0.816191 3.79421 0
M  V30 1714 H 171.233 -1.61099 3.35973 0
M  V30 1715 H 171.346 -0.369086 4.77676 0
M  V30 1716 H 169.71 -0.292548 2.53014 0
M  V30 1717 H 170.493 1.23786 3.20206 0
M  V30 1718 N 172.938 -1.57226 0.108567 0
M  V30 1719 C 174.166 -1.99179 -0.559954 0
M  V30 1720 C 174.581 -0.988022 -1.60884 0
M  V30 1721 O 173.938 0.0205512 -1.82488 0
M  V30 1722 C 173.989 -3.41159 -1.19552 0
M  V30 1723 O 173.71 -4.37694 -0.188577 0
M  V30 1724 C 175.211 -3.98188 -1.94837 0
M  V30 1725 H 172.431 -0.654228 -0.149088 0
M  V30 1726 H 174.975 -2.03598 0.19183 0
M  V30 1727 H 173.13 -3.37711 -1.89815 0
M  V30 1728 H 173.544 -5.20469 -0.649014 0
M  V30 1729 H 175.018 -4.99644 -2.34648 0
M  V30 1730 H 175.495 -3.3675 -2.81951 0
M  V30 1731 H 176.101 -4.0515 -1.2936 0
M  V30 1732 N 174.416 0.165178 -1.56732 0
M  V30 1733 C 175.664 0.879068 -1.8198 0
M  V30 1734 C 175.985 1.82514 -0.686561 0
M  V30 1735 O 175.255 1.93694 0.293146 0
M  V30 1736 H 173.835 0.327608 -0.671329 0
M  V30 1737 H 176.497 0.163526 -1.94213 0
M  V30 1738 H 175.593 1.45228 -2.76252 0
M  V30 1739 N 175.894 1.51508 0.433938 0
M  V30 1740 C 177.14 1.65549 1.18173 0
M  V30 1741 C 177.495 0.368751 1.88833 0
M  V30 1742 O 176.788 -0.635616 1.8075 0
M  V30 1743 C 176.982 2.79928 2.22205 0
M  V30 1744 C 176.811 4.19601 1.61756 0
M  V30 1745 C 175.581 4.85489 1.40101 0
M  V30 1746 C 177.779 5.02574 1.09194 0
M  V30 1747 N 175.761 6.09266 0.752859 0
M  V30 1748 C 177.132 6.17381 0.569255 0
M  V30 1749 C 179.187 4.88079 0.984025 0
M  V30 1750 C 177.89 7.19282 -0.0507472 0
M  V30 1751 C 179.916 5.90191 0.377912 0
M  V30 1752 C 179.278 7.04272 -0.134216 0
M  V30 1753 H 175.377 0.659653 0.419979 0
M  V30 1754 H 177.961 1.88746 0.477818 0
M  V30 1755 H 176.132 2.5839 2.89982 0
M  V30 1756 H 177.864 2.83132 2.89168 0
M  V30 1757 H 174.619 4.43417 1.66369 0
M  V30 1758 H 175.043 6.75528 0.446123 0
M  V30 1759 H 179.685 4.00131 1.36583 0
M  V30 1760 H 177.403 8.06876 -0.444676 0
M  V30 1761 H 180.989 5.81045 0.296269 0
M  V30 1762 H 179.869 7.81933 -0.59585 0
M  V30 1763 N 177.372 -0.689602 1.41712 0
M  V30 1764 C 178.319 -1.80345 1.44029 0
M  V30 1765 C 179.289 -1.63478 0.293948 0
M  V30 1766 O 180.474 -1.84244 0.495869 0
M  V30 1767 C 177.614 -3.18272 1.33405 0
M  V30 1768 C 176.727 -3.46529 2.57956 0
M  V30 1769 C 175.862 -4.74103 2.39582 0
M  V30 1770 C 174.901 -4.95347 3.5958 0
M  V30 1771 N 174.038 -6.14151 3.40239 0
M  V30 1772 H 178.878 -1.77698 2.39222 0
M  V30 1773 H 176.415 -0.867688 1.18784 0
M  V30 1774 H 178.373 -3.97956 1.25246 0
M  V30 1775 H 177.003 -3.2008 0.418164 0
M  V30 1776 H 176.055 -2.61207 2.76542 0
M  V30 1777 H 177.367 -3.58126 3.47199 0
M  V30 1778 H 176.521 -5.61853 2.28924 0
M  V30 1779 H 175.26 -4.64763 1.47805 0
M  V30 1780 H 174.265 -4.06044 3.70686 0
M  V30 1781 H 175.49 -5.06542 4.52318 0
M  V30 1782 H 173.436 -6.06013 2.51167 0
M  V30 1783 H 173.353 -6.26543 4.23061 0
M  V30 1784 H 174.621 -7.04619 3.33365 0
M  V30 1785 N 178.85 -1.27639 -0.924453 0
M  V30 1786 C 180.09 -1.15407 -1.68703 0
M  V30 1787 C 180.454 0.294581 -1.89727 0
M  V30 1788 O 181.655 0.539385 -2.63333 0
M  V30 1789 C 179.926 -1.9195 -3.0148 0
M  V30 1790 S 181.485 -1.95969 -3.92609 0
M  V30 1791 H 178.303 -0.411937 -0.579507 0
M  V30 1792 H 180.905 -1.61592 -1.10038 0
M  V30 1793 H 179.609 -2.96387 -2.83871 0
M  V30 1794 H 179.14 -1.46272 -3.65196 0
M  V30 1795 H 181.155 -1.05846 -4.84779 0
M  V30 1796 N 180.328 1.1314 -1.09713 0
M  V30 1797 C 181.575 1.84484 -0.834987 0
M  V30 1798 C 181.903 1.83689 0.639418 0
M  V30 1799 O 181.158 1.2724 1.4869 0
M  V30 1800 C 181.457 3.32167 -1.3191 0
M  V30 1801 C 181.123 3.53139 -2.80363 0
M  V30 1802 C 179.785 3.58571 -3.20905 0
M  V30 1803 C 182.137 3.60866 -3.76065 0
M  V30 1804 C 179.465 3.69267 -4.55916 0
M  V30 1805 C 181.817 3.73089 -5.10869 0
M  V30 1806 C 180.481 3.76775 -5.50996 0
M  V30 1807 H 179.751 0.675073 -0.305544 0
M  V30 1808 H 182.398 1.33554 -1.37243 0
M  V30 1809 H 180.703 3.85469 -0.701517 0
M  V30 1810 H 182.4 3.85821 -1.09284 0
M  V30 1811 H 178.99 3.49569 -2.47991 0
M  V30 1812 H 183.174 3.55946 -3.45855 0
M  V30 1813 H 178.43 3.70388 -4.86438 0
M  V30 1814 H 182.604 3.78011 -5.84877 0
M  V30 1815 H 180.231 3.84815 -6.55608 0
M  V30 1816 N 181.806 0.884767 1.30421 0
M  V30 1817 C 183.052 0.503851 1.96441 0
M  V30 1818 C 183.385 -0.944518 1.69684 0
M  V30 1819 O 182.66 -1.66737 1.00145 0
M  V30 1820 C 182.943 0.779085 3.51571 0
M  V30 1821 C 182.796 2.27807 3.87846 0
M  V30 1822 C 184.115 0.255452 4.39358 0
M  V30 1823 H 181.234 0.184533 0.713524 0
M  V30 1824 H 183.876 1.10872 1.54297 0
M  V30 1825 H 182.026 0.264274 3.876 0
M  V30 1826 H 183.698 2.86127 3.61841 0
M  V30 1827 H 181.941 2.74479 3.35922 0
M  V30 1828 H 182.612 2.42125 4.96064 0
M  V30 1829 H 185.088 0.696079 4.10236 0
M  V30 1830 H 183.964 0.477361 5.4682 0
M  V30 1831 H 184.225 -0.843293 4.33983 0
M  V30 1832 N 183.284 -1.43765 0.645699 0
M  V30 1833 C 184.514 -2.05953 0.163318 0
M  V30 1834 C 184.922 -1.48432 -1.17322 0
M  V30 1835 O 184.265 -0.607295 -1.73371 0
M  V30 1836 C 184.327 -3.59499 -0.0103065 0
M  V30 1837 C 183.991 -4.39563 1.25035 0
M  V30 1838 C 184.988 -4.72108 2.17739 0
M  V30 1839 C 182.673 -4.79697 1.48983 0
M  V30 1840 C 184.667 -5.43688 3.3269 0
M  V30 1841 C 182.354 -5.51023 2.64229 0
M  V30 1842 C 183.352 -5.8294 3.55908 0
M  V30 1843 O 183.04 -6.5281 4.69142 0
M  V30 1844 H 182.772 -0.670798 0.0836986 0
M  V30 1845 H 185.326 -1.85384 0.884407 0
M  V30 1846 H 183.556 -3.78613 -0.78669 0
M  V30 1847 H 185.245 -4.03408 -0.449087 0
M  V30 1848 H 186.011 -4.41627 2.00476 0
M  V30 1849 H 181.89 -4.54266 0.785078 0
M  V30 1850 H 185.434 -5.68517 4.04269 0
M  V30 1851 H 181.331 -5.8092 2.81429 0
M  V30 1852 H 182.099 -6.71288 4.6831 0
M  V30 1853 N 184.763 -0.387143 -1.52771 0
M  V30 1854 C 185.713 0.465942 -2.23188 0
M  V30 1855 C 186.697 1.03138 -1.23496 0
M  V30 1856 O 187.889 0.957845 -1.48843 0
M  V30 1857 C 185.018 1.59384 -3.04059 0
M  V30 1858 C 184.104 1.04024 -4.11144 0
M  V30 1859 N 184.495 0.211416 -5.05358 0
M  V30 1860 C 182.793 1.31295 -4.26237 0
M  V30 1861 C 183.494 -0.0941698 -5.81624 0
M  V30 1862 N 182.47 0.509207 -5.4121 0
M  V30 1863 H 186.272 -0.173856 -2.93385 0
M  V30 1864 H 183.786 -0.19633 -1.61209 0
M  V30 1865 H 185.783 2.21738 -3.53041 0
M  V30 1866 H 184.443 2.23648 -2.35397 0
M  V30 1867 H 185.454 -0.151151 -5.17679 0
M  V30 1868 H 182.131 1.95679 -3.68803 0
M  V30 1869 H 183.521 -0.765572 -6.67524 0
M  V30 1870 N 186.241 1.57166 -0.116904 0
M  V30 1871 C 187.488 1.95123 0.541603 0
M  V30 1872 C 187.816 1.00006 1.6682 0
M  V30 1873 O 187.071 0.0235658 1.95686 0
M  V30 1874 C 187.37 3.39508 1.11664 0
M  V30 1875 C 187.036 4.50762 0.111606 0
M  V30 1876 C 185.698 4.80918 -0.164758 0
M  V30 1877 C 188.05 5.18036 -0.573438 0
M  V30 1878 C 185.378 5.75666 -1.13249 0
M  V30 1879 C 187.73 6.13824 -1.52978 0
M  V30 1880 C 186.394 6.42374 -1.81415 0
M  V30 1881 H 185.664 0.714005 0.198187 0
M  V30 1882 H 188.311 1.9048 -0.197365 0
M  V30 1883 H 186.616 3.40835 1.93232 0
M  V30 1884 H 188.313 3.66189 1.63422 0
M  V30 1885 H 184.903 4.27272 0.337192 0
M  V30 1886 H 189.087 4.94896 -0.373092 0
M  V30 1887 H 184.343 5.96092 -1.35958 0
M  V30 1888 H 188.517 6.65039 -2.06629 0
M  V30 1889 H 186.144 7.15599 -2.56557 0
M  V30 1890 N 187.719 -0.156864 1.56817 0
M  V30 1891 C 188.682 -1.17781 1.96622 0
M  V30 1892 C 189.682 -1.36401 0.851555 0
M  V30 1893 O 190.872 -1.33561 1.11836 0
M  V30 1894 C 188.004 -2.54008 2.27361 0
M  V30 1895 H 189.197 -0.836564 2.87996 0
M  V30 1896 H 186.75 -0.39985 1.51099 0
M  V30 1897 H 187.485 -2.9312 1.38748 0
M  V30 1898 H 187.27 -2.41856 3.08623 0
M  V30 1899 H 188.76 -3.27558 2.59029 0
M  V30 1900 N 189.197 -1.51736 -0.425897 0
M  V30 1901 C 190.443 -1.65214 -1.1761 0
M  V30 1902 C 190.776 -0.372778 -1.90589 0
M  V30 1903 O 190.051 0.628139 -1.84078 0
M  V30 1904 C 190.334 -2.86312 -2.18398 0
M  V30 1905 C 190.187 -4.24254 -1.49426 0
M  V30 1906 C 191.506 -3.02925 -3.19256 0
M  V30 1907 H 188.625 -0.601263 -0.426206 0
M  V30 1908 H 191.267 -1.8425 -0.463882 0
M  V30 1909 H 189.417 -2.70213 -2.79137 0
M  V30 1910 H 191.089 -4.52046 -0.919362 0
M  V30 1911 H 189.332 -4.26426 -0.796432 0
M  V30 1912 H 190.003 -5.05001 -2.22885 0
M  V30 1913 H 192.479 -3.1781 -2.68581 0
M  V30 1914 H 191.355 -3.89199 -3.8706 0
M  V30 1915 H 191.616 -2.15497 -3.86023 0
M  V30 1916 N 190.675 0.682077 -1.42076 0
M  V30 1917 C 191.922 1.44215 -1.42156 0
M  V30 1918 C 192.25 1.94468 -0.0354186 0
M  V30 1919 O 191.505 1.70816 0.955002 0
M  V30 1920 C 191.804 2.66036 -2.38662 0
M  V30 1921 C 191.47 2.34366 -3.85206 0
M  V30 1922 C 190.132 2.25439 -4.25124 0
M  V30 1923 C 192.484 2.08513 -4.77673 0
M  V30 1924 C 189.812 1.88775 -5.55501 0
M  V30 1925 C 192.164 1.73354 -6.08384 0
M  V30 1926 C 190.828 1.62933 -6.47309 0
M  V30 1927 H 190.098 0.527718 -0.520187 0
M  V30 1928 H 192.745 0.778387 -1.74967 0
M  V30 1929 H 191.05 3.3741 -1.99152 0
M  V30 1930 H 192.747 3.24205 -2.35991 0
M  V30 1931 H 189.337 2.42213 -3.53597 0
M  V30 1932 H 193.521 2.14346 -4.47626 0
M  V30 1933 H 188.777 1.7927 -5.84527 0
M  V30 1934 H 192.951 1.52373 -6.79526 0
M  V30 1935 H 190.578 1.34292 -7.48244 0
M  V30 1936 N 192.153 1.28127 0.917671 0
M  V30 1937 C 193.083 1.14248 2.03641 0
M  V30 1938 C 194.064 0.0412748 1.7005 0
M  V30 1939 O 195.249 0.217566 1.92977 0
M  V30 1940 C 192.379 0.799431 3.37974 0
M  V30 1941 C 191.333 1.85497 3.85713 0
M  V30 1942 C 190.659 1.36565 5.16966 0
M  V30 1943 C 191.959 3.26085 4.08002 0
M  V30 1944 H 193.653 2.07835 2.15511 0
M  V30 1945 H 191.199 1.00064 1.03553 0
M  V30 1946 H 193.152 0.689114 4.15727 0
M  V30 1947 H 191.876 -0.172145 3.26146 0
M  V30 1948 H 190.535 1.95437 3.10161 0
M  V30 1949 H 190.183 0.383253 5.01538 0
M  V30 1950 H 189.883 2.07143 5.49878 0
M  V30 1951 H 191.407 1.26848 5.97279 0
M  V30 1952 H 192.821 3.19089 4.76293 0
M  V30 1953 H 191.218 3.94462 4.52238 0
M  V30 1954 H 192.288 3.70394 3.12948 0
M  V30 1955 N 193.631 -1.12557 1.10312 0
M  V30 1956 C 194.88 -1.83395 0.839588 0
M  V30 1957 C 195.193 -1.84939 -0.636929 0
M  V30 1958 O 196.399 -2.51761 -1.01631 0
M  V30 1959 C 194.855 -3.29303 1.45215 0
M  V30 1960 C 194.463 -3.36122 2.96186 0
M  V30 1961 C 196.207 -4.05121 1.26796 0
M  V30 1962 C 194.114 -4.76357 3.50483 0
M  V30 1963 H 193.044 -0.687133 0.310425 0
M  V30 1964 H 195.695 -1.26746 1.32694 0
M  V30 1965 H 194.077 -3.85812 0.892469 0
M  V30 1966 H 195.251 -2.89559 3.58458 0
M  V30 1967 H 193.566 -2.73776 3.13745 0
M  V30 1968 H 196.163 -5.08668 1.64806 0
M  V30 1969 H 196.506 -4.15773 0.209409 0
M  V30 1970 H 197.039 -3.54967 1.79563 0
M  V30 1971 H 193.778 -4.70899 4.55998 0
M  V30 1972 H 193.298 -5.23377 2.92978 0
M  V30 1973 H 194.977 -5.45294 3.48228 0
M  V30 1974 N 195.109 -0.891671 -1.2995 0
M  V30 1975 C 196.355 -0.514261 -1.96171 0
M  V30 1976 C 196.688 0.935506 -1.70182 0
M  V30 1977 O 195.963 1.66204 -1.01028 0
M  V30 1978 C 196.246 -0.797719 -3.51153 0
M  V30 1979 C 196.099 -2.2986 -3.86632 0
M  V30 1980 C 197.418 -0.278749 -4.39216 0
M  V30 1981 H 194.537 -0.188314 -0.712535 0
M  V30 1982 H 197.179 -1.11689 -1.53706 0
M  V30 1983 H 195.329 -0.284826 -3.87455 0
M  V30 1984 H 197.001 -2.88042 -3.60319 0
M  V30 1985 H 195.244 -2.76257 -3.34462 0
M  V30 1986 H 195.915 -2.44753 -4.94773 0
M  V30 1987 H 198.391 -0.717825 -4.09862 0
M  V30 1988 H 197.267 -0.506353 -5.46559 0
M  V30 1989 H 197.528 0.820266 -4.34424 0
M  V30 1990 N 196.587 1.43421 -0.653314 0
M  V30 1991 C 197.517 2.33487 0.0246656 0
M  V30 1992 C 198.498 1.49475 0.811863 0
M  V30 1993 O 199.683 1.78139 0.773322 0
M  V30 1994 C 196.813 3.32841 0.99166 0
M  V30 1995 C 195.767 4.26842 0.314568 0
M  V30 1996 C 195.093 5.16236 1.39302 0
M  V30 1997 C 196.393 5.16243 -0.793095 0
M  V30 1998 H 198.087 2.90427 -0.727481 0
M  V30 1999 H 195.633 1.39649 -0.351287 0
M  V30 2000 H 197.586 3.94747 1.47487 0
M  V30 2001 H 196.31 2.74158 1.77497 0
M  V30 2002 H 194.969 3.663 -0.148199 0
M  V30 2003 H 194.617 4.53891 2.16776 0
M  V30 2004 H 194.317 5.79948 0.945223 0
M  V30 2005 H 195.841 5.81015 1.87759 0
M  V30 2006 H 197.255 5.71958 -0.392039 0
M  V30 2007 H 195.652 5.88676 -1.16536 0
M  V30 2008 H 196.722 4.55927 -1.65103 0
M  V30 2009 N 198.065 0.39524 1.52563 0
M  V30 2010 C 199.311 -0.185318 2.01952 0
M  V30 2011 C 199.644 -1.45964 1.28095 0
M  V30 2012 O 198.919 -1.90689 0.38315 0
M  V30 2013 C 199.202 -0.447193 3.57312 0
M  V30 2014 C 199.055 0.842828 4.41833 0
M  V30 2015 C 200.374 -1.23529 4.22408 0
M  V30 2016 H 197.493 -0.0658788 0.73405 0
M  V30 2017 H 200.135 0.525975 1.82575 0
M  V30 2018 H 198.285 -1.05312 3.73954 0
M  V30 2019 H 199.957 1.4795 4.36931 0
M  V30 2020 H 198.2 1.45686 4.08605 0
M  V30 2021 H 198.871 0.614165 5.48573 0
M  V30 2022 H 201.347 -0.722445 4.0978 0
M  V30 2023 H 200.223 -1.38727 5.3108 0
M  V30 2024 H 200.484 -2.25213 3.80436 0
M  V30 2025 N 199.544 -1.57102 0.125237 0
M  V30 2026 C 200.784 -1.97294 -0.534259 0
M  V30 2027 C 201.148 -1.0074 -1.63449 0
M  V30 2028 O 202.349 -1.29893 -2.35332 0
M  V30 2029 C 200.62 -3.41705 -1.04748 0
M  V30 2030 S 202.179 -4.03913 -1.71463 0
M  V30 2031 H 198.997 -0.689517 -0.173458 0
M  V30 2032 H 201.599 -1.94349 0.211797 0
M  V30 2033 H 200.303 -4.09723 -0.235649 0
M  V30 2034 H 199.834 -3.48315 -1.82867 0
M  V30 2035 H 201.849 -3.95182 -3.00077 0
M  V30 2036 N 201.022 0.148545 -1.56898 0
M  V30 2037 C 201.952 1.18524 -2.01182 0
M  V30 2038 C 202.933 1.4489 -0.891123 0
M  V30 2039 O 204.118 1.55836 -1.15882 0
M  V30 2040 C 201.248 2.51879 -2.39112 0
M  V30 2041 C 200.202 2.40038 -3.54353 0
M  V30 2042 C 199.528 3.78089 -3.78091 0
M  V30 2043 C 200.828 1.88577 -4.87069 0
M  V30 2044 H 202.522 0.817029 -2.88036 0
M  V30 2045 H 200.068 0.391575 -1.38574 0
M  V30 2046 H 202.021 3.24627 -2.68692 0
M  V30 2047 H 200.745 2.90532 -1.49193 0
M  V30 2048 H 199.404 1.69742 -3.24936 0
M  V30 2049 H 199.052 4.14175 -2.85426 0
M  V30 2050 H 198.752 3.71028 -4.55645 0
M  V30 2051 H 200.276 4.52387 -4.10095 0
M  V30 2052 H 201.69 2.51117 -5.15377 0
M  V30 2053 H 200.087 1.9241 -5.68417 0
M  V30 2054 H 201.157 0.84136 -4.77545 0
M  V30 2055 N 202.5 1.5196 0.417844 0
M  V30 2056 C 203.749 1.6482 1.16264 0
M  V30 2057 C 204.062 0.379886 1.91876 0
M  V30 2058 O 205.268 0.388154 2.68711 0
M  V30 2059 C 203.724 2.91161 2.1155 0
M  V30 2060 C 203.332 4.25068 1.41495 0
M  V30 2061 C 205.076 3.13383 2.86341 0
M  V30 2062 C 202.983 5.42541 2.35379 0
M  V30 2063 H 201.913 0.613954 0.437694 0
M  V30 2064 H 204.564 1.78442 0.427871 0
M  V30 2065 H 202.946 2.71218 2.88543 0
M  V30 2066 H 204.12 4.55463 0.699263 0
M  V30 2067 H 202.435 4.0888 0.787792 0
M  V30 2068 H 205.032 3.98324 3.5671 0
M  V30 2069 H 205.375 2.27256 3.48798 0
M  V30 2070 H 205.908 3.33757 2.1645 0
M  V30 2071 H 202.647 6.30987 1.77582 0
M  V30 2072 H 202.167 5.16497 3.04945 0
M  V30 2073 H 203.846 5.75272 2.96093 0
M  V30 2074 N 203.978 -0.674533 1.42435 0
M  V30 2075 C 205.225 -1.43459 1.42919 0
M  V30 2076 C 205.553 -1.94446 0.0457312 0
M  V30 2077 O 204.808 -1.7132 -0.94593 0
M  V30 2078 C 205.107 -2.64767 2.40069 0
M  V30 2079 C 204.773 -2.3232 3.86443 0
M  V30 2080 C 203.435 -2.23182 4.26314 0
M  V30 2081 C 205.787 -2.05977 4.78773 0
M  V30 2082 C 203.115 -1.85827 5.56494 0
M  V30 2083 C 205.467 -1.70125 6.09295 0
M  V30 2084 C 204.131 -1.59498 6.48164 0
M  V30 2085 H 203.401 -0.524952 0.522978 0
M  V30 2086 H 206.048 -0.769097 1.75377 0
M  V30 2087 H 204.353 -3.36349 2.00939 0
M  V30 2088 H 206.05 -3.22949 2.37707 0
M  V30 2089 H 202.64 -2.40334 3.54877 0
M  V30 2090 H 206.824 -2.11969 4.48757 0
M  V30 2091 H 202.08 -1.76168 5.8547 0
M  V30 2092 H 206.254 -1.48767 6.80324 0
M  V30 2093 H 203.881 -1.30322 7.48946 0
M  V30 2094 N 205.456 -1.28612 -0.910864 0
M  V30 2095 C 206.681 -1.1891 -1.69927 0
M  V30 2096 C 207.106 0.248372 -1.86453 0
M  V30 2097 O 206.464 1.17961 -1.37676 0
M  V30 2098 C 206.512 -1.89578 -3.06745 0
M  V30 2099 O 205.616 -1.20521 -3.94396 0
M  V30 2100 H 204.957 -0.412632 -0.520222 0
M  V30 2101 H 207.487 -1.69985 -1.1387 0
M  V30 2102 H 207.497 -1.97597 -3.56958 0
M  V30 2103 H 206.172 -2.94136 -2.94035 0
M  V30 2104 H 204.749 -1.20684 -3.52831 0
M  V30 2105 N 206.934 1.1197 -1.10907 0
M  V30 2106 C 208.18 1.8386 -0.855773 0
M  V30 2107 C 208.513 1.84134 0.617103 0
M  V30 2108 O 207.788 1.29041 1.45529 0
M  V30 2109 C 208.071 3.31305 -1.411 0
M  V30 2110 C 207.924 3.39456 -2.9511 0
M  V30 2111 C 209.243 4.2721 -1.05736 0
M  V30 2112 H 206.362 0.667545 -0.312334 0
M  V30 2113 H 209.004 1.31331 -1.37303 0
M  V30 2114 H 207.154 3.76169 -0.97105 0
M  V30 2115 H 208.826 3.03191 -3.47668 0
M  V30 2116 H 207.069 2.79849 -3.31462 0
M  V30 2117 H 207.74 4.43209 -3.29044 0
M  V30 2118 H 210.216 3.90497 -1.43706 0
M  V30 2119 H 209.092 5.28775 -1.47269 0
M  V30 2120 H 209.353 4.42088 0.0325958 0
M  V30 2121 N 208.412 0.89855 1.29475 0
M  V30 2122 C 209.342 0.39201 2.30186 0
M  V30 2123 C 210.323 -0.532359 1.61555 0
M  V30 2124 O 211.508 -0.443331 1.89072 0
M  V30 2125 C 208.638 -0.382353 3.45189 0
M  V30 2126 C 207.592 0.451483 4.25612 0
M  V30 2127 C 206.918 -0.450307 5.328 0
M  V30 2128 C 208.218 1.70079 4.93832 0
M  V30 2129 H 209.912 1.23362 2.72804 0
M  V30 2130 H 207.458 0.594638 1.31149 0
M  V30 2131 H 209.411 -0.747451 4.14718 0
M  V30 2132 H 208.135 -1.25774 3.01411 0
M  V30 2133 H 206.794 0.798897 3.57789 0
M  V30 2134 H 206.442 -1.32379 4.85268 0
M  V30 2135 H 206.142 0.103902 5.87508 0
M  V30 2136 H 207.666 -0.811623 6.05182 0
M  V30 2137 H 209.08 1.40549 5.55805 0
M  V30 2138 H 207.477 2.19623 5.58467 0
M  V30 2139 H 208.547 2.43744 4.19186 0
M  V30 2140 N 209.89 -1.43072 0.660911 0
M  V30 2141 C 211.115 -2.06584 0.183805 0
M  V30 2142 C 211.54 -1.49257 -1.14472 0
M  V30 2143 O 210.898 -0.605528 -1.70889 0
M  V30 2144 C 210.946 -3.60418 0.114434 0
M  V30 2145 O 210.05 -4.01981 -0.921137 0
M  V30 2146 H 209.391 -0.656669 0.0983994 0
M  V30 2147 H 211.921 -1.83447 0.906006 0
M  V30 2148 H 211.931 -4.07946 -0.0663394 0
M  V30 2149 H 210.606 -4.01519 1.08422 0
M  V30 2150 H 209.183 -3.66029 -0.71253 0
M  V30 2151 N 211.368 -0.403325 -1.52352 0
M  V30 2152 C 212.596 0.174012 -2.06167 0
M  V30 2153 C 213.011 1.39347 -1.27388 0
M  V30 2154 O 212.368 1.79597 -0.324201 0
M  V30 2155 C 212.419 0.530223 -3.5759 0
M  V30 2156 O 212.14 -0.640806 -4.33388 0
M  V30 2157 C 213.641 1.16192 -4.27802 0
M  V30 2158 H 210.861 0.0229464 -0.670608 0
M  V30 2159 H 213.405 -0.572604 -1.9632 0
M  V30 2160 H 211.56 1.22673 -3.67464 0
M  V30 2161 H 211.974 -0.344851 -5.23365 0
M  V30 2162 H 213.448 1.36141 -5.34948 0
M  V30 2163 H 213.925 2.13335 -3.83907 0
M  V30 2164 H 214.531 0.505775 -4.22282 0
M  V30 2165 N 212.846 1.57033 -0.133567 0
M  V30 2166 C 214.095 1.94861 0.520768 0
M  V30 2167 C 214.408 1.02012 1.66892 0
M  V30 2168 O 215.614 1.29365 2.38699 0
M  V30 2169 C 214.07 3.46362 0.977809 0
M  V30 2170 C 213.678 4.47773 -0.142674 0
M  V30 2171 C 215.422 3.93083 1.60269 0
M  V30 2172 C 213.329 5.90468 0.331883 0
M  V30 2173 H 212.259 0.727453 0.198315 0
M  V30 2174 H 214.91 1.82227 -0.215759 0
M  V30 2175 H 213.292 3.54282 1.7692 0
M  V30 2176 H 214.466 4.51536 -0.919317 0
M  V30 2177 H 212.781 4.10891 -0.675124 0
M  V30 2178 H 215.378 4.97121 1.96914 0
M  V30 2179 H 215.721 3.33876 2.48662 0
M  V30 2180 H 216.254 3.88025 0.876453 0
M  V30 2181 H 212.993 6.53463 -0.516341 0
M  V30 2182 H 212.513 5.90094 1.07469 0
M  V30 2183 H 214.192 6.42179 0.788332 0
M  V30 2184 N 214.325 -0.140222 1.56975 0
M  V30 2185 C 215.235 -1.19223 2.02047 0
M  V30 2186 C 216.251 -1.46612 0.937062 0
M  V30 2187 O 217.427 -1.58148 1.24704 0
M  V30 2188 C 214.492 -2.50414 2.39778 0
M  V30 2189 C 213.553 -2.30612 3.621 0
M  V30 2190 C 212.786 -3.55547 3.98023 0
M  V30 2191 O 213.009 -4.62004 3.34528 0
M  V30 2192 O 211.943 -3.47808 4.91237 0
M  V30 2193 H 215.769 -0.839559 2.91865 0
M  V30 2194 H 213.354 -0.349453 1.45256 0
M  V30 2195 H 215.236 -3.27747 2.64877 0
M  V30 2196 H 213.911 -2.85198 1.53114 0
M  V30 2197 H 212.818 -1.51207 3.4218 0
M  V30 2198 H 214.151 -2.00741 4.49404 0
M  V30 2199 N 215.803 -1.52179 -0.40978 0
M  V30 2200 C 216.735 -1.71703 -1.51825 0
M  V30 2201 C 217.748 -0.597445 -1.51441 0
M  V30 2202 O 218.937 -0.872582 -1.55719 0
M  V30 2203 C 216.037 -1.74171 -2.90719 0
M  V30 2204 C 215.21 -3.03156 -3.15302 0
M  V30 2205 C 214.269 -2.97445 -4.34065 0
M  V30 2206 O 213.295 -3.71352 -4.31377 0
M  V30 2207 N 214.497 -2.15191 -5.39141 0
M  V30 2208 H 217.262 -2.67334 -1.35472 0
M  V30 2209 H 214.823 -1.50409 -0.599069 0
M  V30 2210 H 216.815 -1.67884 -3.68235 0
M  V30 2211 H 215.385 -0.860166 -3.00533 0
M  V30 2212 H 214.605 -3.23097 -2.25836 0
M  V30 2213 H 215.893 -3.88484 -3.28569 0
M  V30 2214 H 215.291 -1.54573 -5.44173 0
M  V30 2215 H 213.848 -2.1476 -6.15403 0
M  V30 2216 N 217.281 0.66697 -1.42791 0
M  V30 2217 C 218.511 1.45294 -1.46878 0
M  V30 2218 C 218.919 1.89027 -0.0809861 0
M  V30 2219 O 218.262 1.59219 0.916246 0
M  V30 2220 C 218.324 2.72908 -2.34012 0
M  V30 2221 C 217.988 2.51203 -3.81767 0
M  V30 2222 C 218.985 2.15302 -4.73224 0
M  V30 2223 C 216.67 2.65954 -4.26115 0
M  V30 2224 C 218.664 1.94431 -6.07022 0
M  V30 2225 C 216.351 2.44699 -5.59969 0
M  V30 2226 C 217.349 2.08992 -6.5024 0
M  V30 2227 O 217.037 1.87948 -7.81621 0
M  V30 2228 H 216.769 0.453306 -0.501487 0
M  V30 2229 H 219.323 0.826232 -1.88049 0
M  V30 2230 H 217.553 3.38089 -1.87703 0
M  V30 2231 H 219.242 3.34816 -2.29462 0
M  V30 2232 H 220.008 2.03495 -4.40244 0
M  V30 2233 H 215.887 2.92724 -3.56137 0
M  V30 2234 H 219.431 1.66484 -6.77443 0
M  V30 2235 H 215.328 2.56105 -5.9252 0
M  V30 2236 H 216.096 2.02483 -7.93059 0
M  V30 2237 N 218.759 1.29093 0.90403 0
M  V30 2238 C 219.722 1.1386 1.98919 0
M  V30 2239 C 220.722 0.0753457 1.60623 0
M  V30 2240 O 221.912 0.321931 1.71199 0
M  V30 2241 C 219.044 0.740198 3.32767 0
M  V30 2242 H 220.237 2.10246 2.13861 0
M  V30 2243 H 217.79 1.12218 1.08797 0
M  V30 2244 H 218.525 -0.223997 3.23525 0
M  V30 2245 H 218.31 1.50838 3.61926 0
M  V30 2246 H 219.8 0.656546 4.12407 0
M  V30 2247 N 220.237 -1.11381 1.11499 0
M  V30 2248 C 221.2 -2.15622 0.777153 0
M  V30 2249 C 222.2 -1.59504 -0.203779 0
M  V30 2250 O 223.39 -1.74188 0.020782 0
M  V30 2251 C 220.522 -3.40556 0.153116 0
M  V30 2252 H 221.715 -2.47021 1.70061 0
M  V30 2253 H 219.268 -1.26577 0.916952 0
M  V30 2254 H 220.003 -3.14767 -0.780536 0
M  V30 2255 H 219.788 -3.8257 0.859238 0
M  V30 2256 H 221.278 -4.17546 -0.0671044 0
M  V30 2257 N 221.715 -0.905404 -1.28997 0
M  V30 2258 C 222.645 -0.404212 -2.29975 0
M  V30 2259 C 223.626 0.523784 -1.61835 0
M  V30 2260 O 224.811 0.433298 -1.89304 0
M  V30 2261 C 221.941 0.364042 -3.45387 0
M  V30 2262 C 220.895 -0.474048 -4.25367 0
M  V30 2263 C 220.221 0.422045 -5.33032 0
M  V30 2264 C 221.521 -1.72696 -4.92923 0
M  V30 2265 H 223.215 -1.24807 -2.72146 0
M  V30 2266 H 220.761 -0.601585 -1.30832 0
M  V30 2267 H 222.714 0.725447 -4.15109 0
M  V30 2268 H 221.438 1.24174 -3.02074 0
M  V30 2269 H 220.097 -0.81786 -3.57361 0
M  V30 2270 H 219.745 1.29804 -4.85963 0
M  V30 2271 H 219.445 -0.135057 -5.87445 0
M  V30 2272 H 220.969 0.779517 -6.05604 0
M  V30 2273 H 222.383 -1.43495 -5.55051 0
M  V30 2274 H 220.78 -2.22582 -5.57295 0
M  V30 2275 H 221.85 -2.45964 -4.17887 0
M  V30 2276 N 223.193 1.4272 -0.668489 0
M  V30 2277 C 224.156 2.292 0.00448567 0
M  V30 2278 C 225.156 1.43001 0.735339 0
M  V30 2279 O 226.346 1.64461 0.57429 0
M  V30 2280 C 223.478 3.25375 1.01705 0
M  V30 2281 H 224.671 2.90199 -0.756608 0
M  V30 2282 H 222.224 1.50254 -0.430506 0
M  V30 2283 H 222.959 2.69301 1.80686 0
M  V30 2284 H 222.744 3.88944 0.496463 0
M  V30 2285 H 224.234 3.90245 1.48655 0
M  V30 2286 N 224.671 0.411399 1.52136 0
M  V30 2287 C 225.899 -0.163076 2.06256 0
M  V30 2288 C 226.314 -1.3867 1.28125 0
M  V30 2289 O 225.671 -1.79423 0.333721 0
M  V30 2290 C 225.722 -0.511252 3.57867 0
M  V30 2291 O 225.443 0.66378 4.33042 0
M  V30 2292 C 226.944 -1.13921 4.28412 0
M  V30 2293 H 224.164 -0.0193897 0.67072 0
M  V30 2294 H 226.708 0.583007 1.96013 0
M  V30 2295 H 224.863 -1.20723 3.6811 0
M  V30 2296 H 225.277 0.372601 5.23175 0
M  V30 2297 H 226.751 -1.33302 5.35663 0
M  V30 2298 H 227.228 -2.11296 3.85033 0
M  V30 2299 H 227.834 -0.483373 4.22544 0
M  V30 2300 N 226.149 -1.5696 0.141893 0
M  V30 2301 C 227.397 -1.95573 -0.509484 0
M  V30 2302 C 227.718 -1.02746 -1.65736 0
M  V30 2303 O 226.988 -0.0880311 -1.95702 0
M  V30 2304 H 225.568 -0.722115 -0.191205 0
M  V30 2305 H 228.23 -1.93697 0.216196 0
M  V30 2306 H 227.326 -2.99171 -0.889 0
M  V30 2307 N 227.627 0.131896 -1.57047 0
M  V30 2308 C 228.855 0.856461 -1.88341 0
M  V30 2309 C 229.27 1.74042 -0.731757 0
M  V30 2310 O 228.627 1.80051 0.297945 0
M  V30 2311 C 228.678 1.70064 -3.18999 0
M  V30 2312 O 228.399 0.852278 -4.2973 0
M  V30 2313 C 229.9 2.53148 -3.63911 0
M  V30 2314 H 227.12 0.246885 -0.62393 0
M  V30 2315 H 229.664 0.120152 -2.04147 0
M  V30 2316 H 227.819 2.38984 -3.04902 0
M  V30 2317 H 228.233 1.43329 -5.04537 0
M  V30 2318 H 229.707 3.07931 -4.58129 0
M  V30 2319 H 230.184 3.29901 -2.89935 0
M  V30 2320 H 230.79 1.89492 -3.80753 0
M  V30 2321 N 229.106 1.52395 0.401703 0
M  V30 2322 C 230.036 1.79231 1.49661 0
M  V30 2323 C 231.017 0.643654 1.57452 0
M  V30 2324 O 232.202 0.889989 1.72606 0
M  V30 2325 C 229.332 1.94971 2.87409 0
M  V30 2326 C 228.286 3.10604 2.94465 0
M  V30 2327 C 227.612 3.11577 4.34538 0
M  V30 2328 C 228.912 4.49921 2.6527 0
M  V30 2329 H 230.606 2.70917 1.27454 0
M  V30 2330 H 228.152 1.30362 0.6117 0
M  V30 2331 H 230.105 2.12328 3.63999 0
M  V30 2332 H 228.829 0.999632 3.10926 0
M  V30 2333 H 227.488 2.93009 2.20321 0
M  V30 2334 H 227.136 2.14277 4.55076 0
M  V30 2335 H 226.836 3.89247 4.40183 0
M  V30 2336 H 228.36 3.31073 5.13053 0
M  V30 2337 H 229.774 4.67683 3.31581 0
M  V30 2338 H 228.171 5.29564 2.82281 0
M  V30 2339 H 229.241 4.57507 1.60671 0
M  V30 2340 N 230.584 -0.659388 1.43143 0
M  V30 2341 C 231.831 -1.41935 1.44433 0
M  V30 2342 C 232.159 -1.94387 0.0663522 0
M  V30 2343 O 231.414 -1.72314 -0.927706 0
M  V30 2344 C 231.713 -2.62206 2.42864 0
M  V30 2345 C 231.379 -2.28208 3.88886 0
M  V30 2346 C 230.041 -2.18647 4.28657 0
M  V30 2347 C 232.393 -2.00887 4.8093 0
M  V30 2348 C 229.721 -1.79914 5.58433 0
M  V30 2349 C 232.073 -1.63653 6.11065 0
M  V30 2350 C 230.737 -1.52614 6.49819 0
M  V30 2351 H 230.007 -0.519376 0.528517 0
M  V30 2352 H 232.654 -0.750453 1.76183 0
M  V30 2353 H 230.959 -3.34199 2.04495 0
M  V30 2354 H 232.656 -3.2041 2.41119 0
M  V30 2355 H 229.246 -2.36557 3.57406 0
M  V30 2356 H 233.43 -2.07198 4.5098 0
M  V30 2357 H 228.686 -1.69948 5.87305 0
M  V30 2358 H 232.86 -1.41543 6.81864 0
M  V30 2359 H 230.487 -1.22371 7.50286 0
M  V30 2360 N 232.062 -1.29571 -0.897171 0
M  V30 2361 C 233.308 -1.18873 -1.65048 0
M  V30 2362 C 233.663 0.256707 -1.9068 0
M  V30 2363 O 232.956 1.18202 -1.50794 0
M  V30 2364 C 233.15 -1.9382 -3.00281 0
M  V30 2365 C 232.979 -3.45503 -2.8785 0
M  V30 2366 C 231.749 -4.14856 -2.88483 0
M  V30 2367 C 233.947 -4.40956 -2.64693 0
M  V30 2368 N 231.929 -5.52886 -2.66815 0
M  V30 2369 C 233.3 -5.66464 -2.5203 0
M  V30 2370 C 235.355 -4.3069 -2.49821 0
M  V30 2371 C 234.058 -6.82871 -2.26008 0
M  V30 2372 C 236.084 -5.46852 -2.25182 0
M  V30 2373 C 235.446 -6.71333 -2.13286 0
M  V30 2374 H 231.545 -0.489998 -0.609447 0
M  V30 2375 H 234.129 -1.63431 -1.05822 0
M  V30 2376 H 232.3 -1.51671 -3.57562 0
M  V30 2377 H 234.032 -1.75366 -3.64731 0
M  V30 2378 H 230.787 -3.66579 -2.99861 0
M  V30 2379 H 231.211 -6.25487 -2.59027 0
M  V30 2380 H 235.853 -3.35141 -2.5776 0
M  V30 2381 H 233.571 -7.78473 -2.16806 0
M  V30 2382 H 237.157 -5.40809 -2.14515 0
M  V30 2383 H 236.037 -7.59701 -1.94485 0
M  V30 2384 N 233.54 1.10788 -1.12088 0
M  V30 2385 C 234.473 2.16237 -0.729168 0
M  V30 2386 C 235.451 1.60207 0.277921 0
M  V30 2387 O 236.635 1.87707 0.172737 0
M  V30 2388 C 233.762 3.38609 -0.0786848 0
M  V30 2389 C 232.808 4.13322 -1.05201 0
M  V30 2390 S 233.641 4.69371 -2.57781 0
M  V30 2391 C 234.797 5.95058 -1.94053 0
M  V30 2392 H 235.03 2.4913 -1.62239 0
M  V30 2393 H 232.563 1.22519 -0.939603 0
M  V30 2394 H 234.521 4.09473 0.290254 0
M  V30 2395 H 233.182 3.03962 0.791593 0
M  V30 2396 H 232.375 5.01051 -0.544433 0
M  V30 2397 H 231.977 3.48251 -1.36371 0
M  V30 2398 H 234.269 6.65278 -1.28107 0
M  V30 2399 H 235.212 6.50472 -2.79807 0
M  V30 2400 H 235.62 5.46918 -1.39787 0
M  V30 2401 N 235.018 0.912232 1.28515 0
M  V30 2402 C 235.928 0.404506 2.31086 0
M  V30 2403 C 236.944 -0.50707 1.66448 0
M  V30 2404 O 238.12 -0.393624 1.97516 0
M  V30 2405 C 235.185 -0.348572 3.44943 0
M  V30 2406 C 234.246 0.59604 4.25142 0
M  V30 2407 C 233.479 -0.121194 5.33562 0
M  V30 2408 O 233.702 -1.34317 5.5436 0
M  V30 2409 O 232.636 0.542716 5.99448 0
M  V30 2410 H 236.462 1.25579 2.76521 0
M  V30 2411 H 234.047 0.676998 1.33181 0
M  V30 2412 H 235.929 -0.77395 4.14232 0
M  V30 2413 H 234.604 -1.17571 3.01594 0
M  V30 2414 H 233.511 1.07079 3.58448 0
M  V30 2415 H 234.844 1.38995 4.72167 0
M  V30 2416 N 236.496 -1.42363 0.676048 0
M  V30 2417 C 237.745 -2.00745 0.196037 0
M  V30 2418 C 238.058 -1.54083 -1.20489 0
M  V30 2419 O 239.264 -2.04891 -1.78134 0
M  V30 2420 C 237.72 -3.58651 0.299616 0
M  V30 2421 C 237.328 -4.143 1.70468 0
M  V30 2422 C 239.072 -4.24326 -0.121619 0
M  V30 2423 C 236.979 -5.64574 1.76096 0
M  V30 2424 H 235.909 -0.750787 0.0695301 0
M  V30 2425 H 238.56 -1.63072 0.841412 0
M  V30 2426 H 236.942 -3.93833 -0.413673 0
M  V30 2427 H 238.116 -3.90575 2.44515 0
M  V30 2428 H 236.431 -3.61081 2.07387 0
M  V30 2429 H 239.028 -5.34607 -0.0997362 0
M  V30 2430 H 239.371 -3.99897 -1.15708 0
M  V30 2431 H 239.904 -3.94108 0.540706 0
M  V30 2432 H 236.643 -5.93804 2.77628 0
M  V30 2433 H 236.163 -5.90286 1.06406 0
M  V30 2434 H 237.842 -6.29013 1.51496 0
M  V30 2435 N 237.974 -0.419461 -1.51915 0
M  V30 2436 C 239.22 0.153166 -2.02221 0
M  V30 2437 C 239.553 1.43907 -1.30401 0
M  V30 2438 O 238.828 1.90055 -0.413438 0
M  V30 2439 C 239.111 0.390291 -3.57979 0
M  V30 2440 C 238.964 -0.913014 -4.40436 0
M  V30 2441 C 240.283 1.16794 -4.2432 0
M  V30 2442 H 237.402 0.0541924 -0.735005 0
M  V30 2443 H 240.044 -0.554955 -1.81715 0
M  V30 2444 H 238.194 0.993491 -3.75582 0
M  V30 2445 H 239.866 -1.54882 -4.34522 0
M  V30 2446 H 238.109 -1.52168 -4.06236 0
M  V30 2447 H 238.78 -0.701361 -5.47526 0
M  V30 2448 H 241.256 0.657161 -4.10878 0
M  V30 2449 H 240.132 1.3026 -5.3322 0
M  V30 2450 H 240.393 2.19132 -3.83971 0
M  V30 2451 N 239.452 1.56882 -0.150215 0
M  V30 2452 C 240.382 2.19935 0.784284 0
M  V30 2453 C 241.363 1.14854 1.25469 0
M  V30 2454 O 242.548 1.43209 1.31168 0
M  V30 2455 C 239.678 2.82349 2.02229 0
M  V30 2456 C 238.632 3.93285 1.68853 0
M  V30 2457 C 237.958 4.42649 2.99944 0
M  V30 2458 C 239.258 5.13904 0.932714 0
M  V30 2459 H 240.952 2.9828 0.258781 0
M  V30 2460 H 238.498 1.43473 0.123029 0
M  V30 2461 H 240.451 3.25126 2.68088 0
M  V30 2462 H 239.175 2.0134 2.57157 0
M  V30 2463 H 237.834 3.5113 1.05371 0
M  V30 2464 H 237.482 3.58458 3.52869 0
M  V30 2465 H 237.182 5.17476 2.78374 0
M  V30 2466 H 238.706 4.88099 3.66868 0
M  V30 2467 H 240.12 5.53506 1.49345 0
M  V30 2468 H 238.517 5.94515 0.81684 0
M  V30 2469 H 239.587 4.84842 -0.0749568 0
M  V30 2470 N 240.93 -0.123565 1.57115 0
M  V30 2471 C 242.176 -0.833386 1.84885 0
M  V30 2472 C 242.509 -1.79742 0.735292 0
M  V30 2473 O 241.784 -1.92764 -0.25925 0
M  V30 2474 C 242.067 -1.5873 3.23228 0
M  V30 2475 C 241.92 -0.643183 4.45178 0
M  V30 2476 C 243.239 -2.54453 3.59085 0
M  V30 2477 H 240.358 -0.301518 0.6725 0
M  V30 2478 H 243 -0.097778 1.89748 0
M  V30 2479 H 241.15 -2.21438 3.19214 0
M  V30 2480 H 242.822 -0.0253015 4.61293 0
M  V30 2481 H 241.065 0.0456139 4.33776 0
M  V30 2482 H 241.736 -1.20724 5.38637 0
M  V30 2483 H 244.212 -2.01853 3.63861 0
M  V30 2484 H 243.088 -3.04238 4.5687 0
M  V30 2485 H 243.349 -3.36906 2.86264 0
M  V30 2486 N 242.408 -1.52605 -0.393616 0
M  V30 2487 C 243.654 -1.67672 -1.14079 0
M  V30 2488 C 243.987 -0.413121 -1.89755 0
M  V30 2489 O 243.262 0.588952 -1.85369 0
M  V30 2490 C 243.545 -2.9088 -2.12276 0
M  V30 2491 C 243.398 -4.27329 -1.40394 0
M  V30 2492 C 244.717 -3.09628 -3.12759 0
M  V30 2493 H 241.836 -0.610168 -0.413356 0
M  V30 2494 H 244.478 -1.85193 -0.424696 0
M  V30 2495 H 242.628 -2.76073 -2.73342 0
M  V30 2496 H 244.3 -4.53894 -0.82327 0
M  V30 2497 H 242.543 -4.2802 -0.705801 0
M  V30 2498 H 243.214 -5.09615 -2.12123 0
M  V30 2499 H 245.69 -3.23436 -2.61779 0
M  V30 2500 H 244.566 -3.97322 -3.78717 0
M  V30 2501 H 244.827 -2.23637 -3.81365 0
M  V30 2502 N 243.887 0.651787 -1.4349 0
M  V30 2503 C 245.134 1.41167 -1.45183 0
M  V30 2504 C 245.462 1.94349 -0.0766601 0
M  V30 2505 O 244.717 1.72804 0.918555 0
M  V30 2506 C 245.016 2.60914 -2.44251 0
M  V30 2507 C 244.682 2.26142 -3.9009 0
M  V30 2508 C 243.344 2.16371 -4.2981 0
M  V30 2509 C 245.696 1.98334 -4.81989 0
M  V30 2510 C 243.024 1.7695 -5.5938 0
M  V30 2511 C 245.376 1.6041 -6.11924 0
M  V30 2512 C 244.04 1.49166 -6.5062 0
M  V30 2513 H 243.31 0.516566 -0.531263 0
M  V30 2514 H 245.957 0.741099 -1.76579 0
M  V30 2515 H 244.262 3.3311 -2.06265 0
M  V30 2516 H 245.959 3.19127 -2.42815 0
M  V30 2517 H 242.549 2.34658 -3.58655 0
M  V30 2518 H 246.733 2.04803 -4.52072 0
M  V30 2519 H 241.989 1.66831 -5.88198 0
M  V30 2520 H 246.163 1.37925 -6.82605 0
M  V30 2521 H 243.79 1.1839 -7.50925 0
M  V30 2522 N 245.365 1.30045 0.890287 0
M  V30 2523 C 246.612 1.18561 1.64163 0
M  V30 2524 C 246.94 -0.260852 1.92743 0
M  V30 2525 O 246.195 -1.20376 1.54299 0
M  V30 2526 C 246.494 1.95409 2.99249 0
M  V30 2527 C 246.16 3.45066 2.90242 0
M  V30 2528 C 244.822 3.85878 2.87492 0
M  V30 2529 C 247.174 4.4039 2.78758 0
M  V30 2530 C 244.502 5.20314 2.7109 0
M  V30 2531 C 246.854 5.74928 2.63894 0
M  V30 2532 C 245.518 6.14986 2.59516 0
M  V30 2533 H 244.788 0.433846 0.600715 0
M  V30 2534 H 247.435 1.61088 1.03552 0
M  V30 2535 H 245.74 1.45501 3.63781 0
M  V30 2536 H 247.437 1.8392 3.56334 0
M  V30 2537 H 244.027 3.12631 2.93189 0
M  V30 2538 H 248.211 4.09806 2.79952 0
M  V30 2539 H 243.467 5.50449 2.66112 0
M  V30 2540 H 247.641 6.48434 2.53981 0
M  V30 2541 H 245.268 7.19104 2.46565 0
M  V30 2542 N 246.843 -1.10192 1.12674 0
M  V30 2543 C 248.091 -1.81845 0.881861 0
M  V30 2544 C 248.412 -1.85737 -0.593867 0
M  V30 2545 O 247.682 -1.33724 -1.4316 0
M  V30 2546 H 246.262 -0.673432 0.323261 0
M  V30 2547 H 248.924 -1.33316 1.42172 0
M  V30 2548 H 248.02 -2.85288 1.2656 0
M  V30 2549 N 248.321 -0.919034 -1.28029 0
M  V30 2550 C 249.549 -0.570971 -1.98866 0
M  V30 2551 C 249.964 0.848996 -1.68634 0
M  V30 2552 O 249.321 1.56307 -0.942036 0
M  V30 2553 C 249.372 -0.776876 -3.53054 0
M  V30 2554 O 249.093 -2.14097 -3.82222 0
M  V30 2555 C 250.594 -0.436356 -4.41147 0
M  V30 2556 H 247.814 -0.217175 -0.634883 0
M  V30 2557 H 250.358 -1.23368 -1.63097 0
M  V30 2558 H 248.513 -0.161085 -3.87065 0
M  V30 2559 H 248.927 -2.18455 -4.76841 0
M  V30 2560 H 250.401 -0.63117 -5.4838 0
M  V30 2561 H 250.878 0.627686 -4.34692 0
M  V30 2562 H 251.484 -1.02991 -4.12641 0
M  V30 2563 N 249.799 1.42003 -0.683588 0
M  V30 2564 C 250.709 2.34597 -0.0109075 0
M  V30 2565 C 251.725 1.55576 0.779245 0
M  V30 2566 O 252.901 1.88107 0.719555 0
M  V30 2567 C 249.966 3.34199 0.922588 0
M  V30 2568 C 249.027 4.29115 0.125984 0
M  V30 2569 C 248.26 5.23959 1.01502 0
M  V30 2570 O 248.483 5.23952 2.25456 0
M  V30 2571 O 247.417 6.00053 0.47111 0
M  V30 2572 H 251.243 2.93675 -0.773853 0
M  V30 2573 H 248.828 1.42654 -0.443861 0
M  V30 2574 H 250.71 3.95365 1.45823 0
M  V30 2575 H 249.385 2.77582 1.66523 0
M  V30 2576 H 248.292 3.71335 -0.453969 0
M  V30 2577 H 249.625 4.88798 -0.577736 0
M  V30 2578 N 251.277 0.427512 1.51691 0
M  V30 2579 C 252.507 -0.140986 2.06118 0
M  V30 2580 C 252.915 -1.37854 1.29588 0
M  V30 2581 O 252.258 -1.80411 0.346036 0
M  V30 2582 C 252.32 -0.538276 3.55447 0
M  V30 2583 C 251.984 0.591095 4.53161 0
M  V30 2584 C 252.981 1.46027 4.98971 0
M  V30 2585 C 250.666 0.769028 4.96378 0
M  V30 2586 C 252.66 2.49216 5.8666 0
M  V30 2587 C 250.347 1.80421 5.83859 0
M  V30 2588 C 251.345 2.66417 6.28897 0
M  V30 2589 O 251.033 3.68159 7.14643 0
M  V30 2590 H 250.765 -0.0157455 0.675817 0
M  V30 2591 H 253.319 0.602495 1.96365 0
M  V30 2592 H 251.549 -1.33432 3.6295 0
M  V30 2593 H 253.238 -1.0368 3.92435 0
M  V30 2594 H 254.004 1.33429 4.66285 0
M  V30 2595 H 249.883 0.109273 4.6087 0
M  V30 2596 H 253.427 3.16372 6.21735 0
M  V30 2597 H 249.324 1.93042 6.15959 0
M  V30 2598 H 250.092 3.64622 7.32798 0
M  V30 2599 N 252.755 -1.56801 0.158532 0
M  V30 2600 C 254.001 -1.96781 -0.490405 0
M  V30 2601 C 254.334 -1.04397 -1.63753 0
M  V30 2602 O 253.609 -0.0885805 -1.94298 0
M  V30 2603 C 253.892 -3.4635 -0.985594 0
M  V30 2604 C 253.745 -4.49512 0.160824 0
M  V30 2605 C 255.064 -3.98697 -1.86355 0
M  V30 2606 H 252.183 -0.715482 -0.176788 0
M  V30 2607 H 254.825 -1.88451 0.242088 0
M  V30 2608 H 252.975 -3.53579 -1.60978 0
M  V30 2609 H 254.647 -4.54353 0.797537 0
M  V30 2610 H 252.89 -4.26013 0.818256 0
M  V30 2611 H 253.561 -5.51531 -0.227569 0
M  V30 2612 H 256.037 -3.94019 -1.33746 0
M  V30 2613 H 254.913 -5.03792 -2.17909 0
M  V30 2614 H 255.174 -3.41744 -2.8047 0
M  V30 2615 N 254.233 0.115231 -1.57178 0
M  V30 2616 C 255.479 0.82357 -1.85325 0
M  V30 2617 C 255.812 1.79349 -0.744814 0
M  V30 2618 O 255.087 1.92899 0.249024 0
M  V30 2619 C 255.37 1.57014 -3.24066 0
M  V30 2620 C 255.223 0.619565 -4.45513 0
M  V30 2621 C 256.542 2.52545 -3.60429 0
M  V30 2622 H 253.661 0.297948 -0.674089 0
M  V30 2623 H 256.303 0.0877138 -1.89797 0
M  V30 2624 H 254.453 2.19742 -3.20383 0
M  V30 2625 H 256.125 0.000837639 -4.613 0
M  V30 2626 H 254.368 -0.0686174 -4.33746 0
M  V30 2627 H 255.039 1.17866 -5.3927 0
M  V30 2628 H 257.515 1.9992 -3.64926 0
M  V30 2629 H 256.391 3.01811 -4.58477 0
M  V30 2630 H 256.652 3.35383 -2.88047 0
M  V30 2631 N 255.711 1.52812 0.385517 0
M  V30 2632 C 257.127 1.4214 0.725829 0
M  V30 2633 C 257.327 0.544589 1.94001 0
M  V30 2634 O 256.383 0.0193693 2.52493 0
M  V30 2635 C 257.696 2.85042 0.957668 0
M  V30 2636 C 259.244 2.94543 1.05892 0
M  V30 2637 C 259.719 4.38464 1.32337 0
M  V30 2638 N 261.21 4.41804 1.39151 0
M  V30 2639 C 261.945 5.5025 1.61285 0
M  V30 2640 N 261.441 6.68775 1.80866 0
M  V30 2641 N 263.234 5.37798 1.63492 0
M  V30 2642 H 255.385 2.08338 -0.413383 0
M  V30 2643 H 257.648 0.940016 -0.122775 0
M  V30 2644 H 257.354 3.51431 0.137568 0
M  V30 2645 H 257.228 3.27505 1.87137 0
M  V30 2646 H 259.615 2.28321 1.86959 0
M  V30 2647 H 259.696 2.55504 0.123057 0
M  V30 2648 H 259.34 5.05254 0.517793 0
M  V30 2649 H 259.27 4.75059 2.27214 0
M  V30 2650 H 261.761 3.56377 1.25713 0
M  V30 2651 H 262.074 7.47197 1.97271 0
M  V30 2652 H 260.419 6.71797 1.78083 0
M  V30 2653 H 263.61 4.44171 1.47749 0
M  V30 2654 H 263.783 6.22382 1.80402 0
M  V30 2655 N 257.189 -0.644168 1.43834 0
M  V30 2656 C 258.119 -1.76814 1.52509 0
M  V30 2657 C 259.1 -1.65823 0.379052 0
M  V30 2658 O 260.285 -1.84781 0.597466 0
M  V30 2659 C 257.415 -3.15288 1.4564 0
M  V30 2660 C 256.369 -3.41053 2.58586 0
M  V30 2661 C 255.695 -4.79421 2.36769 0
M  V30 2662 C 256.995 -3.34902 4.00797 0
M  V30 2663 H 258.689 -1.69812 2.46586 0
M  V30 2664 H 256.235 -0.815542 1.1868 0
M  V30 2665 H 258.188 -3.93681 1.50311 0
M  V30 2666 H 256.912 -3.23043 0.480725 0
M  V30 2667 H 255.571 -2.65035 2.53282 0
M  V30 2668 H 255.219 -4.83863 1.37424 0
M  V30 2669 H 254.919 -4.9762 3.12487 0
M  V30 2670 H 256.443 -5.6006 2.43238 0
M  V30 2671 H 257.857 -4.03218 4.07539 0
M  V30 2672 H 256.254 -3.64637 4.76613 0
M  V30 2673 H 257.324 -2.32928 4.25291 0
M  V30 2674 N 258.668 -1.30515 -0.883378 0
M  V30 2675 C 259.914 -1.20617 -1.63778 0
M  V30 2676 C 260.269 0.236469 -1.90941 0
M  V30 2677 O 259.562 1.16596 -1.52039 0
M  V30 2678 C 259.756 -1.96994 -2.98209 0
M  V30 2679 C 259.585 -3.48537 -2.84169 0
M  V30 2680 C 258.355 -4.17893 -2.84067 0
M  V30 2681 C 260.553 -4.43738 -2.60001 0
M  V30 2682 N 258.535 -5.55685 -2.60936 0
M  V30 2683 C 259.906 -5.69105 -2.46007 0
M  V30 2684 C 261.961 -4.33316 -2.45239 0
M  V30 2685 C 260.664 -6.8523 -2.18752 0
M  V30 2686 C 262.69 -5.4921 -2.19369 0
M  V30 2687 C 262.052 -6.73558 -2.06153 0
M  V30 2688 H 258.151 -0.496434 -0.604216 0
M  V30 2689 H 260.735 -1.64544 -1.04083 0
M  V30 2690 H 258.906 -1.55455 -3.55933 0
M  V30 2691 H 260.638 -1.79225 -3.62851 0
M  V30 2692 H 257.393 -3.69739 -2.95956 0
M  V30 2693 H 257.817 -6.28199 -2.52378 0
M  V30 2694 H 262.459 -3.37856 -2.54191 0
M  V30 2695 H 260.177 -7.80729 -2.08537 0
M  V30 2696 H 263.763 -5.43054 -2.08766 0
M  V30 2697 H 262.643 -7.61721 -1.86416 0
M  V30 2698 N 260.146 1.09593 -1.13257 0
M  V30 2699 C 261.371 1.8604 -0.916732 0
M  V30 2700 C 261.796 1.80504 0.529146 0
M  V30 2701 O 261.154 1.18127 1.37534 0
M  V30 2702 C 261.202 3.32017 -1.40703 0
M  V30 2703 O 260.306 4.08141 -0.591153 0
M  V30 2704 H 259.647 0.576943 -0.328683 0
M  V30 2705 H 262.177 1.38405 -1.50682 0
M  V30 2706 H 262.187 3.82865 -1.4099 0
M  V30 2707 H 260.862 3.35361 -2.45979 0
M  V30 2708 H 259.439 3.67084 -0.656005 0
M  V30 2709 N 261.624 0.925811 1.2754 0
M  V30 2710 C 262.587 0.428129 2.25166 0
M  V30 2711 C 263.587 -0.452261 1.54309 0
M  V30 2712 O 264.777 -0.253608 1.72344 0
M  V30 2713 C 261.909 -0.384749 3.38722 0
M  V30 2714 H 263.102 1.29066 2.70706 0
M  V30 2715 H 260.655 0.706323 1.3943 0
M  V30 2716 H 261.39 -1.26618 2.98561 0
M  V30 2717 H 261.175 0.246454 3.91325 0
M  V30 2718 H 262.665 -0.723389 4.11287 0
M  V30 2719 N 263.102 -1.41638 0.69111 0
M  V30 2720 C 264.35 -2.00902 0.219758 0
M  V30 2721 C 264.671 -1.54994 -1.18329 0
M  V30 2722 O 263.941 -0.778628 -1.79762 0
M  V30 2723 H 262.521 -0.74289 0.0782558 0
M  V30 2724 H 265.183 -1.73327 0.891271 0
M  V30 2725 H 264.279 -3.11224 0.233708 0
M  V30 2726 N 264.58 -0.43555 -1.51462 0
M  V30 2727 C 265.82 0.130708 -2.03982 0
M  V30 2728 C 266.184 1.40117 -1.31268 0
M  V30 2729 O 267.385 2.04755 -1.74152 0
M  V30 2730 C 265.656 0.346102 -3.5572 0
M  V30 2731 S 267.215 0.876022 -4.29967 0
M  V30 2732 H 264.033 0.0326881 -0.710248 0
M  V30 2733 H 266.635 -0.594544 -1.8624 0
M  V30 2734 H 265.339 -0.584911 -4.0621 0
M  V30 2735 H 264.87 1.09849 -3.77752 0
M  V30 2736 H 266.885 2.15379 -4.47019 0
M  V30 2737 N 266.058 1.56714 -0.166846 0
M  V30 2738 C 267.474 1.58473 0.189372 0
M  V30 2739 C 267.674 1.18201 1.63189 0
M  V30 2740 O 266.73 0.891528 2.36237 0
M  V30 2741 C 268.043 3.00573 -0.0873872 0
M  V30 2742 C 269.591 3.1299 -0.0252443 0
M  V30 2743 C 270.066 4.57174 -0.274934 0
M  V30 2744 N 271.557 4.62665 -0.222553 0
M  V30 2745 C 272.292 5.72072 -0.389985 0
M  V30 2746 N 271.788 6.90054 -0.616229 0
M  V30 2747 N 273.581 5.61153 -0.326202 0
M  V30 2748 H 265.732 1.8118 -1.10849 0
M  V30 2749 H 267.995 0.839525 -0.440342 0
M  V30 2750 H 267.701 3.34497 -1.0865 0
M  V30 2751 H 267.575 3.72019 0.623037 0
M  V30 2752 H 269.962 2.78895 0.96444 0
M  V30 2753 H 270.043 2.43989 -0.768309 0
M  V30 2754 H 269.687 4.91976 -1.26181 0
M  V30 2755 H 269.617 5.24328 0.48869 0
M  V30 2756 H 272.108 3.77863 -0.0531512 0
M  V30 2757 H 272.421 7.69311 -0.733559 0
M  V30 2758 H 270.766 6.91927 -0.652791 0
M  V30 2759 H 273.957 4.67859 -0.150072 0
M  V30 2760 H 274.13 6.46364 -0.460116 0
M  V30 2761 N 267.536 -0.106894 1.57237 0
M  V30 2762 C 268.761 -0.830287 1.90055 0
M  V30 2763 C 269.186 -1.72064 0.75998 0
M  V30 2764 O 268.544 -1.78982 -0.288991 0
M  V30 2765 C 268.592 -1.6295 3.21683 0
M  V30 2766 O 267.696 -2.73748 3.08441 0
M  V30 2767 H 267.037 -0.228855 0.623315 0
M  V30 2768 H 269.567 -0.085658 2.04421 0
M  V30 2769 H 269.577 -2.01621 3.54701 0
M  V30 2770 H 268.252 -0.975989 4.04286 0
M  V30 2771 H 266.829 -2.38192 2.86913 0
M  V30 2772 N 269.014 -1.53014 -0.377408 0
M  V30 2773 C 269.961 -1.78616 -1.46168 0
M  V30 2774 C 270.931 -0.629917 -1.53692 0
M  V30 2775 O 272.116 -0.870861 -1.69766 0
M  V30 2776 C 269.256 -1.97123 -2.8326 0
M  V30 2777 C 268.369 -3.24831 -2.84796 0
M  V30 2778 C 267.504 -3.33591 -4.13389 0
M  V30 2779 C 266.543 -4.55377 -4.09021 0
M  V30 2780 N 265.68 -4.61355 -5.29241 0
M  V30 2781 H 270.52 -2.71142 -1.23637 0
M  V30 2782 H 268.057 -1.34326 -0.599577 0
M  V30 2783 H 270.015 -2.05839 -3.62886 0
M  V30 2784 H 268.645 -1.07946 -3.04216 0
M  V30 2785 H 267.697 -3.25128 -1.97474 0
M  V30 2786 H 269.009 -4.14523 -2.77439 0
M  V30 2787 H 268.163 -3.41554 -5.01424 0
M  V30 2788 H 266.902 -2.41894 -4.23484 0
M  V30 2789 H 265.907 -4.47527 -3.19373 0
M  V30 2790 H 267.132 -5.48402 -4.00539 0
M  V30 2791 H 265.078 -3.72554 -5.39944 0
M  V30 2792 H 264.995 -5.44935 -5.24006 0
M  V30 2793 H 266.263 -4.73586 -6.19141 0
M  V30 2794 N 270.492 0.636531 -1.44174 0
M  V30 2795 C 271.722 1.42146 -1.49927 0
M  V30 2796 C 272.13 1.88812 -0.121063 0
M  V30 2797 O 271.473 1.61126 0.882267 0
M  V30 2798 C 271.535 2.67883 -2.39748 0
M  V30 2799 C 271.199 2.43048 -3.8701 0
M  V30 2800 C 272.196 2.05216 -4.77684 0
M  V30 2801 C 269.881 2.56856 -4.3166 0
M  V30 2802 C 271.875 1.81512 -6.11009 0
M  V30 2803 C 269.562 2.32766 -5.65034 0
M  V30 2804 C 270.56 1.95152 -6.54526 0
M  V30 2805 O 270.248 1.71326 -7.85431 0
M  V30 2806 H 269.98 0.442567 -0.51099 0
M  V30 2807 H 272.534 0.786158 -1.8976 0
M  V30 2808 H 270.764 3.34032 -1.94832 0
M  V30 2809 H 272.453 3.29874 -2.36513 0
M  V30 2810 H 273.219 1.94111 -4.44462 0
M  V30 2811 H 269.098 2.85104 -3.62266 0
M  V30 2812 H 272.642 1.52077 -6.80822 0
M  V30 2813 H 268.539 2.43479 -5.97819 0
M  V30 2814 H 269.307 1.85616 -7.97176 0
M  V30 2815 N 271.97 1.30982 0.876444 0
M  V30 2816 C 273.216 1.20474 1.63138 0
M  V30 2817 C 273.549 -0.238096 1.92735 0
M  V30 2818 O 272.824 -1.1692 1.55435 0
M  V30 2819 C 273.107 2.04244 2.96574 0
M  V30 2820 C 272.96 3.56793 2.73896 0
M  V30 2821 C 274.279 1.88684 3.97601 0
M  V30 2822 H 271.398 0.439001 0.591985 0
M  V30 2823 H 274.04 1.60704 1.01361 0
M  V30 2824 H 272.19 1.70063 3.493 0
M  V30 2825 H 273.862 4.01077 2.27892 0
M  V30 2826 H 272.105 3.80548 2.08245 0
M  V30 2827 H 272.776 4.10706 3.68815 0
M  V30 2828 H 275.252 2.18584 3.54062 0
M  V30 2829 H 274.128 2.4961 4.88862 0
M  V30 2830 H 274.389 0.848343 4.33884 0
M  V30 2831 N 273.449 -1.08991 1.13837 0
M  V30 2832 C 274.697 -1.80899 0.901098 0
M  V30 2833 C 275.018 -1.86356 -0.574134 0
M  V30 2834 O 274.288 -1.35235 -1.41733 0
M  V30 2835 H 272.868 -0.669966 0.330386 0
M  V30 2836 H 275.53 -1.318 1.43578 0
M  V30 2837 H 274.626 -2.83929 1.29578 0
M  V30 2838 N 274.927 -0.932562 -1.27047 0
M  V30 2839 C 275.857 -0.452902 -2.29066 0
M  V30 2840 C 276.838 0.489338 -1.62909 0
M  V30 2841 O 278.023 0.393046 -1.90181 0
M  V30 2842 C 275.153 0.290698 -3.46081 0
M  V30 2843 C 274.107 -0.564168 -4.24265 0
M  V30 2844 C 273.433 0.308886 -5.33807 0
M  V30 2845 C 274.733 -1.83112 -4.89149 0
M  V30 2846 H 276.427 -1.30552 -2.69437 0
M  V30 2847 H 273.973 -0.629201 -1.29526 0
M  V30 2848 H 275.926 0.637233 -4.16554 0
M  V30 2849 H 274.65 1.17738 -3.0464 0
M  V30 2850 H 273.309 -0.893477 -3.55545 0
M  V30 2851 H 272.957 1.19467 -4.88607 0
M  V30 2852 H 272.657 -0.259633 -5.87026 0
M  V30 2853 H 274.181 0.650884 -6.07121 0
M  V30 2854 H 275.595 -1.55236 -5.51883 0
M  V30 2855 H 273.992 -2.34353 -5.52448 0
M  V30 2856 H 275.062 -2.54772 -4.12576 0
M  V30 2857 N 276.405 1.4127 -0.698611 0
M  V30 2858 C 277.651 2.01979 -0.239972 0
M  V30 2859 C 278.006 1.54353 1.14861 0
M  V30 2860 O 277.299 0.746218 1.76471 0
M  V30 2861 C 277.493 3.56592 -0.240192 0
M  V30 2862 C 277.322 4.19226 -1.62726 0
M  V30 2863 C 276.092 4.53389 -2.23084 0
M  V30 2864 C 278.29 4.45228 -2.57443 0
M  V30 2865 N 276.272 5.01327 -3.54323 0
M  V30 2866 C 277.643 4.94973 -3.73365 0
M  V30 2867 C 279.698 4.27243 -2.55671 0
M  V30 2868 C 278.401 5.28624 -4.878 0
M  V30 2869 C 280.427 4.61985 -3.69221 0
M  V30 2870 C 279.789 5.11904 -4.83873 0
M  V30 2871 H 275.888 0.770561 -0.133269 0
M  V30 2872 H 278.472 1.71767 -0.916748 0
M  V30 2873 H 276.643 3.86271 0.406082 0
M  V30 2874 H 278.375 4.04025 0.23356 0
M  V30 2875 H 275.13 4.39946 -1.75341 0
M  V30 2876 H 275.554 5.29697 -4.21604 0
M  V30 2877 H 280.196 3.87884 -1.68243 0
M  V30 2878 H 277.914 5.66905 -5.75885 0
M  V30 2879 H 281.5 4.49725 -3.69105 0
M  V30 2880 H 280.38 5.38282 -5.70282 0
M  V30 2881 N 277.883 0.443576 1.51229 0
M  V30 2882 C 279.131 -0.120557 2.0174 0
M  V30 2883 C 279.452 -1.42665 1.32935 0
M  V30 2884 O 278.722 -1.9028 0.465866 0
M  V30 2885 H 277.302 -0.0475426 0.745486 0
M  V30 2886 H 279.964 0.587711 1.85828 0
M  V30 2887 H 279.06 -0.291972 3.10731 0
M  V30 2888 N 279.361 -1.56624 0.175154 0
M  V30 2889 C 280.777 -1.58571 -0.180966 0
M  V30 2890 C 280.977 -1.19065 -1.6256 0
M  V30 2891 O 280.033 -0.904044 -2.35761 0
M  V30 2892 C 281.346 -3.00522 0.103326 0
M  V30 2893 C 282.894 -3.12972 0.0418426 0
M  V30 2894 C 283.369 -4.57022 0.299175 0
M  V30 2895 N 284.86 -4.62541 0.247086 0
M  V30 2896 C 285.595 -5.71857 0.420318 0
M  V30 2897 N 285.091 -6.89717 0.652816 0
M  V30 2898 N 286.884 -5.60972 0.355957 0
M  V30 2899 H 279.035 -1.80589 1.11809 0
M  V30 2900 H 281.298 -0.837178 0.444788 0
M  V30 2901 H 281.004 -3.33916 1.10422 0
M  V30 2902 H 280.878 -3.72344 -0.603299 0
M  V30 2903 H 283.265 -2.79403 -0.949636 0
M  V30 2904 H 283.346 -2.43578 0.781238 0
M  V30 2905 H 282.99 -4.913 1.28788 0
M  V30 2906 H 282.92 -5.24579 -0.460876 0
M  V30 2907 H 285.411 -3.77829 0.0731895 0
M  V30 2908 H 285.724 -7.68911 0.774347 0
M  V30 2909 H 284.069 -6.91572 0.689476 0
M  V30 2910 H 287.26 -4.67773 0.174882 0
M  V30 2911 H 287.433 -6.46111 0.494388 0
M  V30 2912 N 280.839 0.0985539 -1.57292 0
M  V30 2913 C 281.769 1.12064 -2.04851 0
M  V30 2914 C 282.75 1.41981 -0.936767 0
M  V30 2915 O 283.935 1.52071 -1.20781 0
M  V30 2916 C 281.065 2.44144 -2.47004 0
M  V30 2917 C 280.019 2.28643 -3.6181 0
M  V30 2918 C 279.345 3.65869 -3.89929 0
M  V30 2919 C 280.645 1.72986 -4.92822 0
M  V30 2920 H 282.339 0.724979 -2.9049 0
M  V30 2921 H 279.885 0.34729 -1.39749 0
M  V30 2922 H 281.838 3.15914 -2.78884 0
M  V30 2923 H 280.562 2.85639 -1.5836 0
M  V30 2924 H 279.221 1.59318 -3.30172 0
M  V30 2925 H 278.869 4.04885 -2.98458 0
M  V30 2926 H 278.569 3.56344 -4.67218 0
M  V30 2927 H 280.093 4.39112 -4.2428 0
M  V30 2928 H 281.507 2.34593 -5.23105 0
M  V30 2929 H 279.904 1.74229 -5.74251 0
M  V30 2930 H 280.974 0.689007 -4.7998 0
M  V30 2931 N 282.317 1.53212 0.369288 0
M  V30 2932 C 283.733 1.42902 0.710712 0
M  V30 2933 C 283.933 0.565135 1.93413 0
M  V30 2934 O 282.989 0.0461484 2.52458 0
M  V30 2935 C 284.302 2.86042 0.927382 0
M  V30 2936 C 285.85 2.9565 1.02762 0
M  V30 2937 C 286.325 4.39843 1.27679 0
M  V30 2938 N 287.816 4.43256 1.34457 0
M  V30 2939 C 288.551 5.51929 1.55439 0
M  V30 2940 N 288.047 6.70655 1.73762 0
M  V30 2941 N 289.84 5.39502 1.57779 0
M  V30 2942 H 281.991 2.07888 -0.435457 0
M  V30 2943 H 284.254 0.938661 -0.132739 0
M  V30 2944 H 283.96 3.51557 0.100287 0
M  V30 2945 H 283.834 3.29472 1.83653 0
M  V30 2946 H 286.221 2.30291 1.84527 0
M  V30 2947 H 286.302 2.5562 0.0959504 0
M  V30 2948 H 285.946 5.05774 0.464175 0
M  V30 2949 H 285.876 4.77443 2.22162 0
M  V30 2950 H 288.367 3.5769 1.21926 0
M  V30 2951 H 288.68 7.49248 1.89335 0
M  V30 2952 H 287.025 6.73648 1.70948 0
M  V30 2953 H 290.216 4.45713 1.43029 0
M  V30 2954 H 290.389 6.2426 1.7379 0
M  V30 2955 N 283.795 -0.628877 1.44509 0
M  V30 2956 C 285.042 -1.38839 1.47411 0
M  V30 2957 C 285.37 -1.94202 0.10757 0
M  V30 2958 O 284.625 -1.74243 -0.890947 0
M  V30 2959 C 284.924 -2.56995 2.48371 0
M  V30 2960 C 284.59 -2.19908 3.93639 0
M  V30 2961 C 283.252 -2.09506 4.33198 0
M  V30 2962 C 285.604 -1.9064 4.85083 0
M  V30 2963 C 282.932 -1.68028 5.62124 0
M  V30 2964 C 285.284 -1.50655 6.14399 0
M  V30 2965 C 283.948 -1.38796 6.5291 0
M  V30 2966 H 283.218 -0.508048 0.539414 0
M  V30 2967 H 285.865 -0.712913 1.77735 0
M  V30 2968 H 284.17 -3.29786 2.11538 0
M  V30 2969 H 285.867 -3.15223 2.47861 0
M  V30 2970 H 282.457 -2.28922 3.62343 0
M  V30 2971 H 286.641 -1.97585 4.55273 0
M  V30 2972 H 281.897 -1.57452 5.90778 0
M  V30 2973 H 286.071 -1.27048 6.84713 0
M  V30 2974 H 283.698 -1.06429 7.52713 0
M  V30 2975 N 285.273 -1.31445 -0.869486 0
M  V30 2976 C 286.236 -1.19094 -1.9583 0
M  V30 2977 C 287.236 -0.117906 -1.60367 0
M  V30 2978 O 288.426 -0.367208 -1.70286 0
M  V30 2979 C 285.558 -0.828165 -3.30688 0
M  V30 2980 H 286.751 -2.15842 -2.08212 0
M  V30 2981 H 284.304 -1.15063 -1.05784 0
M  V30 2982 H 285.039 0.138142 -3.24006 0
M  V30 2983 H 284.824 -1.6038 -3.578 0
M  V30 2984 H 286.314 -0.765658 -4.10521 0
M  V30 2985 N 286.751 1.08385 -1.14413 0
M  V30 2986 C 288.167 1.32844 -0.884563 0
M  V30 2987 C 288.367 1.95841 0.474181 0
M  V30 2988 O 287.423 2.21158 1.21842 0
M  V30 2989 C 288.736 2.22978 -2.01745 0
M  V30 2990 C 290.284 2.36458 -2.05077 0
M  V30 2991 C 290.759 3.29934 -3.1766 0
M  V30 2992 N 292.25 3.37511 -3.17239 0
M  V30 2993 C 292.985 4.09871 -4.0099 0
M  V30 2994 N 292.481 4.84936 -4.94781 0
M  V30 2995 N 294.274 4.05704 -3.89051 0
M  V30 2996 H 286.425 0.658756 -2.01926 0
M  V30 2997 H 288.688 0.352821 -0.879899 0
M  V30 2998 H 288.394 1.83934 -2.99769 0
M  V30 2999 H 288.268 3.23441 -1.94077 0
M  V30 3000 H 290.655 2.7476 -1.0766 0
M  V30 3001 H 290.736 1.35736 -2.16816 0
M  V30 3002 H 290.38 2.92352 -4.15322 0
M  V30 3003 H 290.31 4.30584 -3.03158 0
M  V30 3004 H 292.801 2.83996 -2.49308 0
M  V30 3005 H 293.114 5.37612 -5.55151 0
M  V30 3006 H 291.459 4.83988 -4.98779 0
M  V30 3007 H 294.65 3.46167 -3.15097 0
M  V30 3008 H 294.823 4.61834 -4.54547 0
M  V30 3009 N 288.23 0.939286 1.26551 0
M  V30 3010 C 289.177 0.446088 2.26448 0
M  V30 3011 C 290.147 -0.493234 1.58608 0
M  V30 3012 O 291.332 -0.409857 1.86346 0
M  V30 3013 C 288.472 -0.284375 3.43926 0
M  V30 3014 C 287.585 0.690399 4.26448 0
M  V30 3015 C 286.72 -0.0610712 5.31165 0
M  V30 3016 C 285.759 0.905649 6.05363 0
M  V30 3017 N 284.896 0.186055 7.01853 0
M  V30 3018 H 289.736 1.30291 2.68008 0
M  V30 3019 H 287.273 0.65371 1.31776 0
M  V30 3020 H 289.231 -0.724313 4.10864 0
M  V30 3021 H 287.861 -1.10535 3.03285 0
M  V30 3022 H 286.913 1.24885 3.59316 0
M  V30 3023 H 288.225 1.42873 4.779 0
M  V30 3024 H 287.379 -0.56038 6.04106 0
M  V30 3025 H 286.118 -0.832297 4.80546 0
M  V30 3026 H 285.123 1.4161 5.3125 0
M  V30 3027 H 286.348 1.67685 6.58072 0
M  V30 3028 H 284.294 -0.566714 6.53548 0
M  V30 3029 H 284.211 0.863752 7.51049 0
M  V30 3030 H 285.479 -0.292221 7.78952 0
M  V30 3031 N 289.708 -1.40897 0.706093 0
M  V30 3032 C 291.119 -1.84023 0.315052 0
M  V30 3033 C 291.47 -1.5906 -1.14866 0
M  V30 3034 O 290.595 -1.06651 -1.88293 0
M  V30 3035 C 291.19 -3.34055 0.565038 0
M  V30 3036 C 289.749 -3.7571 0.227806 0
M  V30 3037 C 288.896 -2.64204 0.842122 0
M  V30 3038 H 291.847 -1.303 0.905963 0
M  V30 3039 H 291.868 -3.80107 -0.172843 0
M  V30 3040 H 291.38 -3.52192 1.63042 0
M  V30 3041 H 289.481 -3.63172 -0.832895 0
M  V30 3042 H 289.594 -4.74103 0.690174 0
M  V30 3043 H 287.958 -2.53255 0.270893 0
M  V30 3044 H 288.741 -2.85155 1.91158 0
M  V30 3045 N 291.186 -0.45159 -1.50991 0
M  V30 3046 C 292.435 0.111653 -2.01391 0
M  V30 3047 C 292.748 1.42529 -1.33959 0
M  V30 3048 O 293.954 2.07232 -1.75405 0
M  V30 3049 C 292.41 0.249514 -3.59034 0
M  V30 3050 C 292.018 -1.05453 -4.35412 0
M  V30 3051 C 293.762 0.765762 -4.17536 0
M  V30 3052 C 291.669 -0.881529 -5.84793 0
M  V30 3053 H 290.599 0.0455022 -0.752626 0
M  V30 3054 H 293.25 -0.583524 -1.73975 0
M  V30 3055 H 291.632 1.00803 -3.82955 0
M  V30 3056 H 292.806 -1.82248 -4.23229 0
M  V30 3057 H 291.121 -1.50039 -3.88429 0
M  V30 3058 H 293.718 0.911913 -5.26866 0
M  V30 3059 H 294.061 1.75201 -3.77638 0
M  V30 3060 H 294.594 0.0651744 -3.97747 0
M  V30 3061 H 291.333 -1.84057 -6.29129 0
M  V30 3062 H 290.853 -0.153625 -5.99603 0
M  V30 3063 H 292.532 -0.540363 -6.4474 0
M  V30 3064 N 292.664 1.56529 -0.183458 0
M  V30 3065 C 293.889 2.02064 0.467428 0
M  V30 3066 C 294.314 1.06282 1.55196 0
M  V30 3067 O 293.672 0.0443565 1.81246 0
M  V30 3068 C 293.72 3.46122 1.01153 0
M  V30 3069 O 292.824 3.53437 2.12499 0
M  V30 3070 H 292.165 0.654726 0.110588 0
M  V30 3071 H 294.695 2.02521 -0.290917 0
M  V30 3072 H 294.705 3.85676 1.33108 0
M  V30 3073 H 293.38 4.15331 0.217533 0
M  V30 3074 H 291.957 3.2575 1.81497 0
M  V30 3075 N 294.142 -0.090211 1.57342 0
M  V30 3076 C 295.391 -0.791531 1.8552 0
M  V30 3077 C 295.704 -1.79659 0.773441 0
M  V30 3078 O 296.91 -2.54616 0.942497 0
M  V30 3079 C 295.366 -1.45856 3.2902 0
M  V30 3080 C 294.974 -0.493017 4.45279 0
M  V30 3081 C 296.718 -2.14332 3.66418 0
M  V30 3082 C 294.625 -1.16491 5.79814 0
M  V30 3083 H 293.555 -0.299356 0.692027 0
M  V30 3084 H 296.206 -0.0445343 1.83446 0
M  V30 3085 H 294.588 -2.25318 3.2565 0
M  V30 3086 H 295.762 0.270464 4.60006 0
M  V30 3087 H 294.077 0.0863061 4.16311 0
M  V30 3088 H 296.674 -2.65344 4.64216 0
M  V30 3089 H 297.017 -2.93447 2.95287 0
M  V30 3090 H 297.55 -1.41724 3.71698 0
M  V30 3091 H 294.289 -0.41447 6.54188 0
M  V30 3092 H 293.809 -1.8997 5.68921 0
M  V30 3093 H 295.488 -1.69001 6.24538 0
M  V30 3094 N 295.62 -1.53406 -0.361157 0
M  V30 3095 C 296.869 -1.69022 -1.10066 0
M  V30 3096 C 297.182 -0.450838 -1.90333 0
M  V30 3097 O 298.388 -0.487617 -2.67085 0
M  V30 3098 C 296.844 -2.98812 -2.00598 0
M  V30 3099 C 296.452 -4.30027 -1.25621 0
M  V30 3100 C 298.196 -3.23795 -2.74513 0
M  V30 3101 C 296.103 -5.50903 -2.1508 0
M  V30 3102 H 295.033 -0.629776 -0.414606 0
M  V30 3103 H 297.684 -1.79907 -0.361348 0
M  V30 3104 H 296.066 -2.8174 -2.78278 0
M  V30 3105 H 297.24 -4.57745 -0.529739 0
M  V30 3106 H 295.555 -4.11522 -0.635496 0
M  V30 3107 H 298.152 -4.11289 -3.41681 0
M  V30 3108 H 298.495 -2.40045 -3.40123 0
M  V30 3109 H 299.028 -3.41561 -2.03914 0
M  V30 3110 H 295.767 -6.37143 -1.54041 0
M  V30 3111 H 295.287 -5.27459 -2.85565 0
M  V30 3112 H 296.966 -5.85865 -2.74538 0
M  V30 3113 N 297.098 0.621204 -1.44841 0
M  V30 3114 C 298.375 1.38 -1.38619 0
M  V30 3115 C 298.755 2.11041 -0.0498935 0
M  V30 3116 O 298.103 2.06992 0.967816 0
M  V30 3117 C 298.313 2.33817 -2.59096 0
M  V30 3118 C 299.661 2.96844 -3.03593 0
M  V30 3119 O 300.685 2.44141 -2.59371 0
M  V30 3120 O 299.544 3.92476 -3.80296 0
M  V30 3121 H 296.638 0.61811 -0.549426 0
M  V30 3122 H 299.184 0.645429 -1.56947 0
M  V30 3123 H 297.956 1.79012 -3.47952 0
M  V30 3124 H 297.579 3.14676 -2.43032 0
M  V30 3125 N 298.576 1.31904 0.862503 0
M  V30 3126 C 299.506 1.22782 1.98612 0
M  V30 3127 C 300.487 0.113362 1.69722 0
M  V30 3128 O 301.672 0.299218 1.91881 0
M  V30 3129 C 298.802 0.942058 3.34279 0
M  V30 3130 C 297.756 2.0169 3.77499 0
M  V30 3131 C 297.082 1.58369 5.10709 0
M  V30 3132 C 298.382 3.43096 3.93805 0
M  V30 3133 H 300.076 2.16788 2.06502 0
M  V30 3134 H 297.622 1.04366 0.992154 0
M  V30 3135 H 299.575 0.864818 4.1243 0
M  V30 3136 H 298.299 -0.0336603 3.26583 0
M  V30 3137 H 296.958 2.08416 3.01593 0
M  V30 3138 H 296.606 0.595628 4.99461 0
M  V30 3139 H 296.306 2.30279 5.40597 0
M  V30 3140 H 297.83 1.52067 5.91361 0
M  V30 3141 H 299.244 3.39003 4.62331 0
M  V30 3142 H 297.641 4.13288 4.35101 0
M  V30 3143 H 298.711 3.83334 2.96957 0
M  V30 3144 N 300.054 -1.07777 1.14986 0
M  V30 3145 C 301.303 -1.79669 0.916617 0
M  V30 3146 C 301.616 -1.87474 -0.557917 0
M  V30 3147 O 302.822 -2.55845 -0.908617 0
M  V30 3148 C 301.278 -3.22848 1.59051 0
M  V30 3149 C 300.886 -3.23257 3.10176 0
M  V30 3150 C 302.63 -3.99379 1.43864 0
M  V30 3151 C 300.537 -4.61063 3.70372 0
M  V30 3152 H 299.467 -0.673349 0.33929 0
M  V30 3153 H 302.118 -1.21003 1.37951 0
M  V30 3154 H 300.5 -3.8168 1.0553 0
M  V30 3155 H 301.674 -2.74095 3.70417 0
M  V30 3156 H 299.989 -2.60222 3.25074 0
M  V30 3157 H 302.586 -5.0122 1.86232 0
M  V30 3158 H 302.929 -4.14511 0.385564 0
M  V30 3159 H 303.462 -3.47032 1.94457 0
M  V30 3160 H 300.201 -4.51135 4.7556 0
M  V30 3161 H 299.721 -5.1048 3.14913 0
M  V30 3162 H 301.4 -5.30034 3.71043 0
M  V30 3163 N 301.532 -0.945985 -1.26051 0
M  V30 3164 C 302.778 -0.597002 -1.93814 0
M  V30 3165 C 303.111 0.862484 -1.73997 0
M  V30 3166 O 302.386 1.61769 -1.07986 0
M  V30 3167 C 302.669 -0.945937 -3.47454 0
M  V30 3168 C 302.522 -2.46052 -3.76535 0
M  V30 3169 C 303.841 -0.464785 -4.37639 0
M  V30 3170 H 300.96 -0.218366 -0.703907 0
M  V30 3171 H 303.602 -1.18107 -1.48831 0
M  V30 3172 H 301.752 -0.448902 -3.85898 0
M  V30 3173 H 303.424 -3.03065 -3.47778 0
M  V30 3174 H 301.667 -2.90194 -3.22444 0
M  V30 3175 H 302.338 -2.65517 -4.83947 0
M  V30 3176 H 304.814 -0.891016 -4.06448 0
M  V30 3177 H 303.69 -0.737712 -5.4392 0
M  V30 3178 H 303.951 0.635274 -4.37512 0
M  V30 3179 N 303.011 1.40521 -0.713556 0
M  V30 3180 C 304.257 2.01221 -0.252564 0
M  V30 3181 C 304.59 1.56444 1.1506 0
M  V30 3182 O 303.865 0.783597 1.78017 0
M  V30 3183 C 304.148 3.58582 -0.330332 0
M  V30 3184 C 304.001 4.13437 -1.77173 0
M  V30 3185 C 305.32 4.39079 0.299641 0
M  V30 3186 H 302.439 0.731077 -0.0932471 0
M  V30 3187 H 305.081 1.67026 -0.905673 0
M  V30 3188 H 303.231 3.87844 0.225737 0
M  V30 3189 H 304.903 3.9498 -2.38303 0
M  V30 3190 H 303.146 3.67801 -2.3001 0
M  V30 3191 H 303.817 5.22597 -1.77755 0
M  V30 3192 H 306.293 4.15735 -0.174139 0
M  V30 3193 H 305.169 5.4848 0.214771 0
M  V30 3194 H 305.43 4.19915 1.38288 0
M  V30 3195 N 304.489 0.459591 1.5075 0
M  V30 3196 C 305.735 -0.0994966 2.02556 0
M  V30 3197 C 306.068 -1.40399 1.3417 0
M  V30 3198 O 305.343 -1.88892 0.463683 0
M  V30 3199 C 305.626 -0.295242 3.58888 0
M  V30 3200 C 305.479 1.02947 4.37861 0
M  V30 3201 C 306.798 -1.05502 4.27267 0
M  V30 3202 H 303.917 -0.034686 0.736183 0
M  V30 3203 H 306.559 0.602938 1.8018 0
M  V30 3204 H 304.709 -0.893563 3.78084 0
M  V30 3205 H 306.381 1.66348 4.30263 0
M  V30 3206 H 304.624 1.62885 4.02058 0
M  V30 3207 H 305.295 0.846281 5.45474 0
M  V30 3208 H 307.771 -0.547993 4.12476 0
M  V30 3209 H 306.647 -1.16077 5.36486 0
M  V30 3210 H 306.908 -2.08875 3.89645 0
M  V30 3211 N 305.967 -1.56429 0.191757 0
M  V30 3212 C 306.93 -2.17707 -0.716688 0
M  V30 3213 C 307.93 -1.13061 -1.14341 0
M  V30 3214 O 309.12 -1.38464 -1.05704 0
M  V30 3215 C 306.252 -2.77644 -1.97804 0
M  V30 3216 H 307.445 -2.99342 -0.1829 0
M  V30 3217 H 304.998 -1.56193 -0.0578566 0
M  V30 3218 H 305.733 -1.99799 -2.55443 0
M  V30 3219 H 305.518 -3.54246 -1.68083 0
M  V30 3220 H 307.008 -3.24708 -2.62592 0
M  V30 3221 N 307.445 0.0818655 -1.57387 0
M  V30 3222 C 308.67 0.799946 -1.91352 0
M  V30 3223 C 309.095 1.70833 -0.787258 0
M  V30 3224 O 308.453 1.79419 0.26048 0
M  V30 3225 C 308.501 1.57812 -3.24234 0
M  V30 3226 O 307.605 2.68806 -3.12757 0
M  V30 3227 H 306.946 0.21891 -0.626877 0
M  V30 3228 H 309.476 0.0531256 -2.04531 0
M  V30 3229 H 309.486 1.95952 -3.57864 0
M  V30 3230 H 308.161 0.911548 -4.05788 0
M  V30 3231 H 306.738 2.33597 -2.90666 0
M  V30 3232 N 308.923 1.53595 0.353017 0
M  V30 3233 C 309.856 1.7572 1.45594 0
M  V30 3234 C 310.834 0.605961 1.50887 0
M  V30 3235 O 312.018 0.840023 1.68748 0
M  V30 3236 C 309.145 1.84732 2.83887 0
M  V30 3237 C 308.191 3.06808 2.96262 0
M  V30 3238 S 309.024 4.66065 2.63711 0
M  V30 3239 C 310.18 4.77943 4.04131 0
M  V30 3240 H 310.413 2.68994 1.26608 0
M  V30 3241 H 307.946 1.44343 0.548117 0
M  V30 3242 H 309.904 1.9061 3.63563 0
M  V30 3243 H 308.565 0.92488 3.00175 0
M  V30 3244 H 307.758 3.09761 3.97573 0
M  V30 3245 H 307.36 2.99108 2.24523 0
M  V30 3246 H 309.652 4.5877 4.98534 0
M  V30 3247 H 310.595 5.80022 4.06177 0
M  V30 3248 H 311.003 4.06472 3.91715 0
M  V30 3249 N 310.401 -0.613514 1.45168 0
M  V30 3250 C 311.647 -1.37471 1.49096 0
M  V30 3251 C 311.98 -1.93765 0.129901 0
M  V30 3252 O 311.255 -1.74707 -0.854858 0
M  V30 3253 C 311.538 -2.52701 2.56542 0
M  V30 3254 C 311.391 -2.01643 4.0207 0
M  V30 3255 C 312.71 -3.54849 2.60327 0
M  V30 3256 H 309.829 -0.498502 0.54283 0
M  V30 3257 H 312.471 -0.692125 1.76945 0
M  V30 3258 H 310.621 -3.10931 2.32926 0
M  V30 3259 H 312.293 -1.48108 4.36877 0
M  V30 3260 H 310.536 -1.32688 4.13009 0
M  V30 3261 H 311.207 -2.84681 4.72928 0
M  V30 3262 H 313.683 -3.0645 2.81474 0
M  V30 3263 H 312.559 -4.32973 3.37381 0
M  V30 3264 H 312.82 -4.10079 1.6519 0
M  V30 3265 N 311.879 -1.3236 -0.855495 0
M  V30 3266 C 313.125 -1.23054 -1.612 0
M  V30 3267 C 313.458 0.207404 -1.93089 0
M  V30 3268 O 312.733 1.14432 -1.57275 0
M  V30 3269 C 313.016 -2.08937 -2.93287 0
M  V30 3270 C 312.869 -3.61105 -2.68185 0
M  V30 3271 C 314.188 -1.94986 -3.94549 0
M  V30 3272 H 311.307 -0.448364 -0.584926 0
M  V30 3273 H 313.949 -1.62297 -0.987917 0
M  V30 3274 H 312.099 -1.75599 -3.46551 0
M  V30 3275 H 313.771 -4.04652 -2.21483 0
M  V30 3276 H 312.014 -3.83813 -2.02164 0
M  V30 3277 H 312.685 -4.16522 -3.62234 0
M  V30 3278 H 315.161 -2.24189 -3.5054 0
M  V30 3279 H 314.037 -2.57356 -4.84829 0
M  V30 3280 H 314.298 -0.917263 -4.3248 0
M  V30 3281 N 313.357 1.07166 -1.15556 0
M  V30 3282 C 314.287 2.16403 -0.877046 0
M  V30 3283 C 315.268 1.69217 0.173111 0
M  V30 3284 O 316.453 1.94181 0.027084 0
M  V30 3285 C 313.583 3.45349 -0.367632 0
M  V30 3286 C 312.537 4.05995 -1.35468 0
M  V30 3287 C 311.863 5.30045 -0.704038 0
M  V30 3288 C 313.163 4.45804 -2.72132 0
M  V30 3289 H 314.857 2.39959 -1.79053 0
M  V30 3290 H 312.403 1.15325 -0.862331 0
M  V30 3291 H 314.356 4.21095 -0.160317 0
M  V30 3292 H 313.08 3.21385 0.581326 0
M  V30 3293 H 311.739 3.32296 -1.54839 0
M  V30 3294 H 311.387 5.02373 0.251128 0
M  V30 3295 H 311.087 5.71579 -1.36277 0
M  V30 3296 H 312.611 6.08495 -0.50654 0
M  V30 3297 H 314.025 5.12671 -2.56595 0
M  V30 3298 H 312.422 4.98296 -3.34397 0
M  V30 3299 H 313.492 3.57083 -3.28054 0
M  V30 3300 N 314.835 0.952656 1.25548 0
M  V30 3301 C 316.075 0.614013 1.9496 0
M  V30 3302 C 316.439 -0.833215 1.72978 0
M  V30 3303 O 317.64 -1.28135 2.36294 0
M  V30 3304 C 315.911 0.960562 3.4425 0
M  V30 3305 S 317.47 0.734195 4.32614 0
M  V30 3306 H 314.288 0.225754 0.674208 0
M  V30 3307 H 316.89 1.22641 1.52248 0
M  V30 3308 H 315.594 2.01103 3.57751 0
M  V30 3309 H 315.125 0.338336 3.91942 0
M  V30 3310 H 317.14 -0.395995 4.94617 0
M  V30 3311 N 316.313 -1.40141 0.720998 0
M  V30 3312 C 317.559 -2.01084 0.263231 0
M  V30 3313 C 317.892 -1.57052 -1.14229 0
M  V30 3314 O 317.167 -0.793027 -1.77599 0
M  V30 3315 C 317.45 -3.58401 0.349344 0
M  V30 3316 C 317.303 -4.12491 1.79363 0
M  V30 3317 C 318.622 -4.39231 -0.276351 0
M  V30 3318 H 315.741 -0.730572 0.0971228 0
M  V30 3319 H 318.383 -1.66543 0.914518 0
M  V30 3320 H 316.533 -3.87958 -0.205165 0
M  V30 3321 H 318.205 -3.93711 2.40394 0
M  V30 3322 H 316.448 -3.66576 2.31958 0
M  V30 3323 H 317.119 -5.21646 1.80524 0
M  V30 3324 H 319.595 -4.15637 0.196184 0
M  V30 3325 H 318.471 -5.48586 -0.185681 0
M  V30 3326 H 318.732 -4.20643 -1.36059 0
M  V30 3327 N 317.792 -0.46758 -1.50504 0
M  V30 3328 C 319.04 0.0884469 -2.01906 0
M  V30 3329 C 319.361 1.40532 -1.35188 0
M  V30 3330 O 318.631 1.89515 -0.496079 0
M  V30 3331 H 317.211 0.0356765 -0.746148 0
M  V30 3332 H 319.873 -0.6172 -1.84869 0
M  V30 3333 H 318.969 0.2425 -3.11156 0
M  V30 3334 N 319.27 1.56325 -0.20005 0
M  V30 3335 C 320.495 2.02548 0.44597 0
M  V30 3336 C 320.92 1.07922 1.5406 0
M  V30 3337 O 320.278 0.0635775 1.81188 0
M  V30 3338 C 320.326 3.47175 0.974761 0
M  V30 3339 O 319.43 3.55671 2.08739 0
M  V30 3340 H 318.771 0.655862 0.103638 0
M  V30 3341 H 321.301 2.02201 -0.312381 0
M  V30 3342 H 321.311 3.87067 1.2901 0
M  V30 3343 H 319.986 4.15538 0.17347 0
M  V30 3344 H 318.563 3.27657 1.78032 0
M  V30 3345 N 320.748 -0.0735177 1.57428 0
M  V30 3346 C 321.695 -1.08756 2.0357 0
M  V30 3347 C 322.665 -1.38559 0.916 0
M  V30 3348 O 323.85 -1.49656 1.18354 0
M  V30 3349 C 320.99 -2.39657 2.48311 0
M  V30 3350 C 320.103 -2.16399 3.73892 0
M  V30 3351 C 319.238 -3.40852 4.07423 0
M  V30 3352 C 318.277 -3.1295 5.2605 0
M  V30 3353 N 317.414 -4.29729 5.55228 0
M  V30 3354 H 322.254 -0.687104 2.8997 0
M  V30 3355 H 319.791 -0.327709 1.43403 0
M  V30 3356 H 321.749 -3.16081 2.72303 0
M  V30 3357 H 320.379 -2.77508 1.64891 0
M  V30 3358 H 319.431 -1.30676 3.57251 0
M  V30 3359 H 320.743 -1.91788 4.60455 0
M  V30 3360 H 319.897 -4.25671 4.32306 0
M  V30 3361 H 318.636 -3.68537 3.19425 0
M  V30 3362 H 317.641 -2.26526 5.00965 0
M  V30 3363 H 318.866 -2.86589 6.15665 0
M  V30 3364 H 316.812 -4.57448 4.70188 0
M  V30 3365 H 316.729 -4.08385 6.36206 0
M  V30 3366 H 317.997 -5.1555 5.84661 0
M  V30 3367 N 322.226 -1.5378 -0.344866 0
M  V30 3368 C 323.474 -1.70625 -1.08311 0
M  V30 3369 C 323.795 -0.471447 -1.89215 0
M  V30 3370 O 323.065 0.514616 -1.8902 0
M  V30 3371 H 321.645 -0.629058 -0.402859 0
M  V30 3372 H 324.307 -1.9103 -0.386459 0
M  V30 3373 H 323.403 -2.57656 -1.76124 0
M  V30 3374 N 323.704 0.605807 -1.45491 0
M  V30 3375 C 324.636 1.73031 -1.5031 0
M  V30 3376 C 325.649 1.57968 -0.393687 0
M  V30 3377 O 326.838 1.65817 -0.660839 0
M  V30 3378 C 323.938 3.11049 -1.34543 0
M  V30 3379 C 323.111 3.52334 -2.59189 0
M  V30 3380 C 322.17 4.69323 -2.37954 0
M  V30 3381 O 321.196 4.7635 -3.11575 0
M  V30 3382 N 322.398 5.62705 -1.4263 0
M  V30 3383 H 325.163 1.6936 -2.4726 0
M  V30 3384 H 322.724 0.79114 -1.41254 0
M  V30 3385 H 324.716 3.87071 -1.18144 0
M  V30 3386 H 323.286 3.09217 -0.458623 0
M  V30 3387 H 322.506 2.66256 -2.90691 0
M  V30 3388 H 323.794 3.76677 -3.42041 0
M  V30 3389 H 323.192 5.59744 -0.818758 0
M  V30 3390 H 321.749 6.38252 -1.32202 0
M  V30 3391 N 325.182 1.32811 0.848464 0
M  V30 3392 C 326.428 1.23907 1.60546 0
M  V30 3393 C 326.761 -0.197161 1.93197 0
M  V30 3394 O 326.036 -1.13596 1.5788 0
M  V30 3395 C 326.319 2.10489 2.92175 0
M  V30 3396 C 326.172 3.62522 2.66266 0
M  V30 3397 C 327.491 1.97075 3.93509 0
M  V30 3398 H 324.61 0.451459 0.58254 0
M  V30 3399 H 327.252 1.62818 0.979296 0
M  V30 3400 H 325.402 1.77434 3.45614 0
M  V30 3401 H 327.074 4.05821 2.19334 0
M  V30 3402 H 325.317 3.84879 2.00126 0
M  V30 3403 H 325.988 4.18437 3.6002 0
M  V30 3404 H 328.464 2.26045 3.49346 0
M  V30 3405 H 327.34 2.59923 4.83457 0
M  V30 3406 H 327.601 0.940186 4.31987 0
M  V30 3407 N 326.66 -1.06551 1.16123 0
M  V30 3408 C 327.907 -1.79302 0.941126 0
M  V30 3409 C 328.235 -1.87105 -0.531235 0
M  V30 3410 O 327.49 -1.35692 -1.41018 0
M  V30 3411 C 327.789 -3.23911 1.51052 0
M  V30 3412 C 327.455 -3.36193 3.00475 0
M  V30 3413 C 326.117 -3.39252 3.41265 0
M  V30 3414 C 328.469 -3.38326 3.96465 0
M  V30 3415 C 325.797 -3.42057 4.76669 0
M  V30 3416 C 328.149 -3.4267 5.31752 0
M  V30 3417 C 326.813 -3.4401 5.72026 0
M  V30 3418 H 326.083 -0.656111 0.344382 0
M  V30 3419 H 328.73 -1.25325 1.44796 0
M  V30 3420 H 327.035 -3.80723 0.925063 0
M  V30 3421 H 328.732 -3.78793 1.31593 0
M  V30 3422 H 325.322 -3.34516 2.6795 0
M  V30 3423 H 329.506 -3.35176 3.6602 0
M  V30 3424 H 324.762 -3.41398 5.07206 0
M  V30 3425 H 328.936 -3.43268 6.05921 0
M  V30 3426 H 326.563 -3.45937 6.76928 0
M  V30 3427 N 328.138 -0.959301 -1.25041 0
M  V30 3428 C 329.101 -0.487677 -2.23952 0
M  V30 3429 C 330.101 0.41119 -1.55454 0
M  V30 3430 O 331.291 0.207825 -1.72956 0
M  V30 3431 C 328.423 0.294807 -3.39623 0
M  V30 3432 H 329.616 -1.36198 -2.67189 0
M  V30 3433 H 327.169 -0.743042 -1.37508 0
M  V30 3434 H 327.904 1.18658 -3.01813 0
M  V30 3435 H 327.689 -0.35012 -3.90534 0
M  V30 3436 H 329.179 0.614089 -4.1306 0
M  V30 3437 N 329.616 1.39756 -0.72842 0
M  V30 3438 C 330.844 2.04948 -0.283528 0
M  V30 3439 C 331.259 1.54908 1.0793 0
M  V30 3440 O 330.616 0.711135 1.68075 0
M  V30 3441 C 330.667 3.60498 -0.268957 0
M  V30 3442 O 330.388 4.08695 -1.57798 0
M  V30 3443 C 331.889 4.4288 0.192912 0
M  V30 3444 H 329.109 0.659243 -0.125056 0
M  V30 3445 H 331.653 1.78927 -0.990226 0
M  V30 3446 H 329.808 3.85444 0.388801 0
M  V30 3447 H 330.222 5.02977 -1.48709 0
M  V30 3448 H 331.696 5.51791 0.151952 0
M  V30 3449 H 332.173 4.21418 1.23708 0
M  V30 3450 H 332.779 4.23069 -0.435039 0
M  V30 3451 N 331.094 0.475555 1.50254 0
M  V30 3452 C 332.319 -0.0777042 2.07254 0
M  V30 3453 C 332.744 -1.3235 1.3366 0
M  V30 3454 O 332.102 -1.77152 0.385597 0
M  V30 3455 C 332.15 -0.340169 3.58992 0
M  V30 3456 O 331.254 -1.41982 3.87188 0
M  V30 3457 H 330.595 0.0149556 0.663832 0
M  V30 3458 H 333.125 0.667878 1.93392 0
M  V30 3459 H 333.135 -0.579332 4.03866 0
M  V30 3460 H 331.81 0.570167 4.11973 0
M  V30 3461 H 330.387 -1.16762 3.54148 0
M  V30 3462 N 332.573 -1.56217 0.208337 0
M  V30 3463 C 333.536 -2.18455 -0.693557 0
M  V30 3464 C 334.536 -1.14268 -1.13135 0
M  V30 3465 O 335.726 -1.39577 -1.0423 0
M  V30 3466 C 332.858 -2.79727 -1.94848 0
M  V30 3467 H 334.051 -2.99519 -0.15114 0
M  V30 3468 H 331.604 -1.56245 -0.041287 0
M  V30 3469 H 332.339 -2.02497 -2.53309 0
M  V30 3470 H 332.124 -3.56009 -1.64316 0
M  V30 3471 H 333.614 -3.27475 -2.59133 0
M  V30 3472 N 334.051 0.0651679 -1.57465 0
M  V30 3473 C 335.3 0.761916 -1.86756 0
M  V30 3474 C 335.613 1.78406 -0.801925 0
M  V30 3475 O 336.819 2.53084 -0.982885 0
M  V30 3476 C 335.275 1.40603 -3.31299 0
M  V30 3477 C 334.883 0.422115 -4.46007 0
M  V30 3478 C 336.627 2.08476 -3.69781 0
M  V30 3479 C 334.534 1.07252 -5.81593 0
M  V30 3480 H 333.464 0.288308 -0.696702 0
M  V30 3481 H 336.115 0.015344 -1.83494 0
M  V30 3482 H 334.497 2.20109 -3.29193 0
M  V30 3483 H 335.671 -0.343613 -4.59517 0
M  V30 3484 H 333.986 -0.152527 -4.16121 0
M  V30 3485 H 336.583 2.57925 -4.68379 0
M  V30 3486 H 336.926 2.88712 -2.99919 0
M  V30 3487 H 337.459 1.35792 -3.73905 0
M  V30 3488 H 334.198 0.310342 -6.54765 0
M  V30 3489 H 333.718 1.80895 -5.71872 0
M  V30 3490 H 335.397 1.59043 -6.27148 0
M  V30 3491 N 335.529 1.53961 0.336706 0
M  V30 3492 C 336.945 1.44378 0.680241 0
M  V30 3493 C 337.145 0.606034 1.9217 0
M  V30 3494 O 336.201 0.099688 2.52303 0
M  V30 3495 C 337.514 2.87945 0.8665 0
M  V30 3496 C 339.062 2.97763 0.964682 0
M  V30 3497 C 339.537 4.42453 1.18321 0
M  V30 3498 N 341.028 4.46008 1.25025 0
M  V30 3499 C 341.763 5.55102 1.43697 0
M  V30 3500 N 341.259 6.7419 1.59498 0
M  V30 3501 N 343.052 5.42727 1.463 0
M  V30 3502 H 335.203 2.06918 -0.479455 0
M  V30 3503 H 337.466 0.935634 -0.152619 0
M  V30 3504 H 337.172 3.51691 0.0256937 0
M  V30 3505 H 337.046 3.33293 1.76623 0
M  V30 3506 H 339.433 2.34153 1.796 0
M  V30 3507 H 339.514 2.55766 0.041708 0
M  V30 3508 H 339.158 5.06645 0.356788 0
M  V30 3509 H 339.088 4.82048 2.11985 0
M  V30 3510 H 341.579 3.60196 1.14312 0
M  V30 3511 H 341.892 7.53095 1.734 0
M  V30 3512 H 340.237 6.77123 1.56621 0
M  V30 3513 H 343.428 4.48647 1.33543 0
M  V30 3514 H 343.601 6.27806 1.6051 0
M  V30 3515 N 337.007 -0.598083 1.45811 0
M  V30 3516 C 338.255 -1.35413 1.50026 0
M  V30 3517 C 338.576 -1.94444 0.147177 0
M  V30 3518 O 337.846 -1.77701 -0.824571 0
M  V30 3519 H 336.426 -0.502727 0.552517 0
M  V30 3520 H 339.088 -0.701606 1.81834 0
M  V30 3521 H 338.184 -2.16871 2.2444 0
M  V30 3522 N 338.485 -1.33259 -0.841409 0
M  V30 3523 C 339.734 -1.23921 -1.59143 0
M  V30 3524 C 340.047 0.1941 -1.94635 0
M  V30 3525 O 341.253 0.409474 -2.68394 0
M  V30 3526 C 339.709 -2.17119 -2.87032 0
M  V30 3527 C 339.317 -3.65606 -2.58914 0
M  V30 3528 C 341.061 -2.16648 -3.65053 0
M  V30 3529 C 338.968 -4.50726 -3.82884 0
M  V30 3530 H 337.898 -0.460264 -0.597221 0
M  V30 3531 H 340.549 -1.58307 -0.927959 0
M  V30 3532 H 338.931 -1.75663 -3.54906 0
M  V30 3533 H 340.105 -4.15487 -1.99267 0
M  V30 3534 H 338.42 -3.68341 -1.942 0
M  V30 3535 H 341.017 -2.77474 -4.57069 0
M  V30 3536 H 341.36 -1.16088 -3.99787 0
M  V30 3537 H 341.893 -2.56453 -3.041 0
M  V30 3538 H 338.632 -5.52151 -3.53283 0
M  V30 3539 H 338.152 -4.0559 -4.41879 0
M  V30 3540 H 339.831 -4.64401 -4.50489 0
M  V30 3541 N 339.963 1.05934 -1.16686 0
M  V30 3542 C 341.379 1.30938 -0.912542 0
M  V30 3543 C 341.579 1.96803 0.432533 0
M  V30 3544 O 340.635 2.23693 1.17123 0
M  V30 3545 C 341.948 2.18649 -2.06429 0
M  V30 3546 C 343.496 2.32055 -2.10047 0
M  V30 3547 C 343.971 3.23122 -3.24586 0
M  V30 3548 N 345.462 3.30706 -3.24327 0
M  V30 3549 C 346.197 4.01273 -4.09594 0
M  V30 3550 N 345.693 4.74332 -5.04956 0
M  V30 3551 N 347.486 3.97361 -3.97569 0
M  V30 3552 H 339.637 0.615777 -2.03278 0
M  V30 3553 H 341.9 0.334077 -0.887185 0
M  V30 3554 H 341.606 1.77534 -3.03603 0
M  V30 3555 H 341.48 3.19252 -2.00894 0
M  V30 3556 H 343.867 2.72415 -1.13464 0
M  V30 3557 H 343.948 1.31107 -2.19647 0
M  V30 3558 H 343.592 2.83477 -4.2143 0
M  V30 3559 H 343.522 4.24057 -3.12223 0
M  V30 3560 H 346.013 2.78644 -2.55276 0
M  V30 3561 H 346.326 5.25716 -5.6643 0
M  V30 3562 H 344.671 4.733 -5.08933 0
M  V30 3563 H 347.862 3.39405 -3.22369 0
M  V30 3564 H 348.035 4.52089 -4.64241 0
M  V30 3565 N 341.441 0.965919 1.2453 0
M  V30 3566 C 342.688 0.626831 1.92554 0
M  V30 3567 C 343.016 -0.837739 1.75534 0
M  V30 3568 O 342.271 -1.61793 1.10098 0
M  V30 3569 C 342.57 0.945428 3.44669 0
M  V30 3570 C 342.236 2.39785 3.81856 0
M  V30 3571 C 340.898 2.79483 3.91718 0
M  V30 3572 C 343.25 3.34055 4.00071 0
M  V30 3573 C 340.578 4.12496 4.1721 0
M  V30 3574 C 342.93 4.66694 4.27059 0
M  V30 3575 C 341.594 5.06172 4.3514 0
M  V30 3576 H 340.864 0.229374 0.704605 0
M  V30 3577 H 343.511 1.21707 1.4785 0
M  V30 3578 H 341.816 0.272926 3.90848 0
M  V30 3579 H 343.513 0.661484 3.95507 0
M  V30 3580 H 340.103 2.08003 3.74743 0
M  V30 3581 H 344.287 3.04571 3.91855 0
M  V30 3582 H 339.543 4.42709 4.21685 0
M  V30 3583 H 343.717 5.3971 4.40097 0
M  V30 3584 H 341.344 6.09262 4.54646 0
M  V30 3585 N 342.919 -1.39368 0.735821 0
M  V30 3586 C 343.849 -2.33234 0.111506 0
M  V30 3587 C 344.83 -1.53954 -0.723334 0
M  V30 3588 O 346.015 -1.82344 -0.668147 0
M  V30 3589 C 343.145 -3.38057 -0.795917 0
M  V30 3590 C 342.099 -4.2795 -0.065172 0
M  V30 3591 C 341.425 -5.23479 -1.08967 0
M  V30 3592 C 342.725 -5.10741 1.09273 0
M  V30 3593 H 344.419 -2.85692 0.895571 0
M  V30 3594 H 341.965 -1.37364 0.432109 0
M  V30 3595 H 343.918 -4.02675 -1.24221 0
M  V30 3596 H 342.642 -2.8404 -1.61211 0
M  V30 3597 H 341.301 -3.64813 0.361511 0
M  V30 3598 H 340.949 -4.65758 -1.89944 0
M  V30 3599 H 340.649 -5.84472 -0.605489 0
M  V30 3600 H 342.173 -5.90974 -1.53565 0
M  V30 3601 H 343.587 -5.68699 0.724841 0
M  V30 3602 H 341.984 -5.8088 1.50659 0
M  V30 3603 H 343.054 -4.45525 1.91404 0
M  V30 3604 N 344.397 -0.483516 -1.5 0
M  V30 3605 C 345.329 0.340634 -2.26655 0
M  V30 3606 C 346.342 0.946152 -1.32483 0
M  V30 3607 O 347.531 0.832453 -1.579 0
M  V30 3608 C 344.631 1.4929 -3.04246 0
M  V30 3609 C 343.804 0.997903 -4.25865 0
M  V30 3610 C 342.863 2.02569 -4.85646 0
M  V30 3611 O 341.889 1.60128 -5.46212 0
M  V30 3612 N 343.091 3.3548 -4.73744 0
M  V30 3613 H 345.856 -0.316577 -2.98023 0
M  V30 3614 H 343.417 -0.315024 -1.58806 0
M  V30 3615 H 345.409 2.17766 -3.41116 0
M  V30 3616 H 343.979 2.05458 -2.35597 0
M  V30 3617 H 343.199 0.138617 -3.93956 0
M  V30 3618 H 344.487 0.645305 -5.04691 0
M  V30 3619 H 343.885 3.72661 -4.25605 0
M  V30 3620 H 342.442 3.99718 -5.14848 0
M  V30 3621 N 345.875 1.56104 -0.216619 0
M  V30 3622 C 347.124 1.97348 0.416744 0
M  V30 3623 C 347.437 1.10715 1.6125 0
M  V30 3624 O 348.643 1.41836 2.31506 0
M  V30 3625 C 347.099 3.51059 0.792835 0
M  V30 3626 C 346.707 4.46387 -0.379828 0
M  V30 3627 C 348.451 4.01026 1.39208 0
M  V30 3628 C 346.358 5.91397 0.0184223 0
M  V30 3629 H 345.288 0.736942 0.159475 0
M  V30 3630 H 347.939 1.80827 -0.31205 0
M  V30 3631 H 346.321 3.63162 1.57891 0
M  V30 3632 H 347.495 4.46029 -1.15737 0
M  V30 3633 H 345.81 4.06734 -0.891979 0
M  V30 3634 H 348.407 5.0686 1.70286 0
M  V30 3635 H 348.75 3.46587 2.30614 0
M  V30 3636 H 349.283 3.92125 0.669537 0
M  V30 3637 H 346.022 6.49807 -0.862002 0
M  V30 3638 H 345.542 5.94961 0.760384 0
M  V30 3639 H 347.221 6.45455 0.446818 0
M  V30 3640 N 347.353 -0.0568162 1.57498 0
M  V30 3641 C 348.283 -1.06593 2.0775 0
M  V30 3642 C 349.264 -1.39448 0.974082 0
M  V30 3643 O 350.449 -1.48815 1.24771 0
M  V30 3644 C 347.579 -2.37509 2.5339 0
M  V30 3645 C 346.533 -2.1897 3.67745 0
M  V30 3646 C 345.859 -3.55402 3.99492 0
M  V30 3647 C 347.159 -1.59859 4.97235 0
M  V30 3648 H 348.853 -0.647706 2.9231 0
M  V30 3649 H 346.399 -0.310116 1.40621 0
M  V30 3650 H 348.352 -3.08409 2.87162 0
M  V30 3651 H 347.076 -2.8134 1.65878 0
M  V30 3652 H 345.735 -1.50508 3.3428 0
M  V30 3653 H 345.383 -3.9683 3.09088 0
M  V30 3654 H 345.083 -3.43831 4.76502 0
M  V30 3655 H 346.607 -4.27708 4.35773 0
M  V30 3656 H 348.021 -2.20642 5.29141 0
M  V30 3657 H 346.418 -1.58942 5.78669 0
M  V30 3658 H 347.488 -0.561506 4.81638 0
M  V30 3659 N 348.832 -1.54138 -0.328536 0
M  V30 3660 C 350.248 -1.44736 -0.672574 0
M  V30 3661 C 350.448 -0.616217 -1.91846 0
M  V30 3662 O 349.504 -0.113067 -2.52247 0
M  V30 3663 C 350.817 -2.884 -0.851217 0
M  V30 3664 C 352.365 -2.98271 -0.948877 0
M  V30 3665 C 352.84 -4.43074 -1.15973 0
M  V30 3666 N 354.331 -4.46665 -1.22658 0
M  V30 3667 C 355.066 -5.55857 -1.40751 0
M  V30 3668 N 354.562 -6.75026 -1.5592 0
M  V30 3669 N 356.355 -5.43495 -1.4342 0
M  V30 3670 H 348.506 -2.06661 0.490421 0
M  V30 3671 H 350.769 -0.934812 0.157579 0
M  V30 3672 H 350.475 -3.51699 -0.00704236 0
M  V30 3673 H 350.349 -3.34225 -1.74853 0
M  V30 3674 H 352.736 -2.35102 -1.78356 0
M  V30 3675 H 352.817 -2.55785 -0.0281435 0
M  V30 3676 H 352.461 -5.06827 -0.329915 0
M  V30 3677 H 352.391 -4.83165 -2.09426 0
M  V30 3678 H 354.882 -3.60797 -1.124 0
M  V30 3679 H 355.195 -7.54004 -1.69404 0
M  V30 3680 H 353.54 -6.77944 -1.53027 0
M  V30 3681 H 356.731 -4.49349 -1.31162 0
M  V30 3682 H 356.904 -6.28649 -1.57178 0
M  V30 3683 N 350.31 0.590341 -1.46126 0
M  V30 3684 C 351.243 1.71434 -1.50617 0
M  V30 3685 C 352.221 1.58543 -0.360948 0
M  V30 3686 O 353.405 1.79865 -0.563985 0
M  V30 3687 C 350.532 3.09422 -1.37753 0
M  V30 3688 C 349.578 3.40854 -2.5636 0
M  V30 3689 S 350.411 3.33773 -4.18755 0
M  V30 3690 C 351.567 4.74312 -4.08386 0
M  V30 3691 H 351.8 1.67364 -2.45717 0
M  V30 3692 H 349.333 0.76845 -1.33919 0
M  V30 3693 H 351.291 3.8903 -1.31018 0
M  V30 3694 H 349.952 3.10989 -0.440949 0
M  V30 3695 H 349.145 4.41368 -2.43332 0
M  V30 3696 H 348.747 2.68798 -2.60046 0
M  V30 3697 H 351.039 5.64522 -3.74595 0
M  V30 3698 H 351.982 4.92397 -5.08872 0
M  V30 3699 H 352.39 4.50803 -3.3976 0
M  V30 3700 N 351.788 1.33704 0.83433 0
M  V30 3701 C 352.718 1.26967 1.95963 0
M  V30 3702 C 353.699 0.149337 1.69443 0
M  V30 3703 O 354.884 0.339852 1.91203 0
M  V30 3704 C 352.014 1.01275 3.32206 0
M  V30 3705 C 350.968 2.09652 3.73136 0
M  V30 3706 C 350.294 1.69166 5.07235 0
M  V30 3707 C 351.594 3.51372 3.86439 0
M  V30 3708 H 353.288 2.2112 2.01857 0
M  V30 3709 H 350.834 1.06447 0.969793 0
M  V30 3710 H 352.787 0.952106 4.10503 0
M  V30 3711 H 351.511 0.0356203 3.26581 0
M  V30 3712 H 350.17 2.14766 2.97104 0
M  V30 3713 H 349.818 0.701437 4.98085 0
M  V30 3714 H 349.518 2.41694 5.35591 0
M  V30 3715 H 351.042 1.64576 5.88003 0
M  V30 3716 H 352.456 3.48734 4.55036 0
M  V30 3717 H 350.853 4.22425 4.26236 0
M  V30 3718 H 351.923 3.89546 2.88759 0
M  V30 3719 N 353.266 -1.05314 1.17247 0
M  V30 3720 C 354.216 -2.11313 0.856196 0
M  V30 3721 C 355.2 -1.60013 -0.168694 0
M  V30 3722 O 356.392 -1.76968 0.0335624 0
M  V30 3723 C 353.521 -3.41301 0.369917 0
M  V30 3724 C 352.607 -3.99401 1.42616 0
M  V30 3725 N 352.998 -4.31481 2.63928 0
M  V30 3726 C 351.296 -4.27126 1.28373 0
M  V30 3727 C 351.997 -4.77799 3.31787 0
M  V30 3728 N 350.973 -4.77843 2.59166 0
M  V30 3729 H 354.775 -2.33976 1.77856 0
M  V30 3730 H 352.289 -1.2295 1.06099 0
M  V30 3731 H 354.286 -4.16713 0.124897 0
M  V30 3732 H 352.946 -3.20072 -0.546253 0
M  V30 3733 H 353.957 -4.21519 3.00902 0
M  V30 3734 H 350.634 -4.15289 0.429111 0
M  V30 3735 H 352.024 -5.11743 4.35395 0
M  V30 3736 N 354.744 -0.972509 -1.24016 0
M  V30 3737 C 355.99 -0.637978 -1.92504 0
M  V30 3738 C 356.323 0.825383 -1.75787 0
M  V30 3739 O 355.598 1.59442 -1.11393 0
M  V30 3740 C 355.881 -1.01942 -3.45369 0
M  V30 3741 C 355.734 -2.53983 -3.71231 0
M  V30 3742 C 357.053 -0.55751 -4.36555 0
M  V30 3743 H 354.172 -0.233248 -0.699117 0
M  V30 3744 H 356.814 -1.21238 -1.46292 0
M  V30 3745 H 354.964 -0.530656 -3.84859 0
M  V30 3746 H 356.636 -3.10374 -3.41271 0
M  V30 3747 H 354.879 -2.96968 -3.16216 0
M  V30 3748 H 355.55 -2.75723 -4.78206 0
M  V30 3749 H 358.026 -0.977029 -4.04467 0
M  V30 3750 H 356.902 -0.85292 -5.42233 0
M  V30 3751 H 357.163 0.542328 -4.38761 0
M  V30 3752 N 356.222 1.38976 -0.743202 0
M  V30 3753 C 357.499 1.94351 -0.220705 0
M  V30 3754 C 357.879 1.67935 1.2791 0
M  V30 3755 O 357.227 1.01211 2.04862 0
M  V30 3756 C 357.437 3.44426 -0.563171 0
M  V30 3757 C 358.785 4.2144 -0.517046 0
M  V30 3758 O 359.809 3.52661 -0.500846 0
M  V30 3759 O 358.668 5.44032 -0.518806 0
M  V30 3760 H 355.762 0.825879 -0.043047 0
M  V30 3761 H 358.308 1.48429 -0.822618 0
M  V30 3762 H 357.08 3.5712 -1.59941 0
M  V30 3763 H 356.703 3.97543 0.0672883 0
M  V30 3764 N 357.7 0.491464 1.49741 0
M  V30 3765 C 359.116 0.146835 1.58923 0
M  V30 3766 C 359.316 -1.34804 1.49767 0
M  V30 3767 O 358.372 -2.12317 1.36667 0
M  V30 3768 C 359.685 0.715157 2.92072 0
M  V30 3769 C 361.233 0.680407 3.05515 0
M  V30 3770 C 361.708 1.22663 4.41269 0
M  V30 3771 N 363.199 1.18691 4.47735 0
M  V30 3772 C 363.934 1.57984 5.51207 0
M  V30 3773 N 363.43 2.04824 6.6183 0
M  V30 3774 N 365.223 1.49459 5.41866 0
M  V30 3775 H 357.374 1.46347 1.53936 0
M  V30 3776 H 359.637 0.606453 0.728642 0
M  V30 3777 H 359.343 1.76317 3.04311 0
M  V30 3778 H 359.217 0.17018 3.76816 0
M  V30 3779 H 361.604 -0.358743 2.92911 0
M  V30 3780 H 361.685 1.26242 2.22478 0
M  V30 3781 H 361.329 2.26451 4.54623 0
M  V30 3782 H 361.259 0.620637 5.2293 0
M  V30 3783 H 363.75 0.843605 3.68364 0
M  V30 3784 H 364.063 2.32901 7.3687 0
M  V30 3785 H 362.408 2.08791 6.62896 0
M  V30 3786 H 365.599 1.12692 4.54333 0
M  V30 3787 H 365.772 1.80406 6.22381 0
M  V30 3788 N 359.178 -1.55987 0.224894 0
M  V30 3789 C 360.11 -2.17722 -0.716224 0
M  V30 3790 C 361.123 -1.14723 -1.15509 0
M  V30 3791 O 362.312 -1.41688 -1.08567 0
M  V30 3792 C 359.412 -2.74873 -1.98238 0
M  V30 3793 C 358.585 -4.03074 -1.69853 0
M  V30 3794 C 357.644 -4.44757 -2.81208 0
M  V30 3795 O 356.67 -5.11587 -2.49534 0
M  V30 3796 N 357.872 -4.10716 -4.10235 0
M  V30 3797 H 360.637 -2.99109 -0.188123 0
M  V30 3798 H 358.198 -1.6184 0.0440123 0
M  V30 3799 H 360.19 -2.99727 -2.7193 0
M  V30 3800 H 358.76 -1.9777 -2.42086 0
M  V30 3801 H 357.98 -3.86041 -0.797875 0
M  V30 3802 H 359.268 -4.86701 -1.48324 0
M  V30 3803 H 358.666 -3.57019 -4.38809 0
M  V30 3804 H 357.223 -4.40455 -4.80461 0
M  V30 3805 N 360.656 0.0484629 -1.57525 0
M  V30 3806 C 361.904 0.741657 -1.88 0
M  V30 3807 C 362.225 1.76918 -0.820054 0
M  V30 3808 O 361.495 1.95335 0.148661 0
M  V30 3809 H 360.075 0.276908 -0.69378 0
M  V30 3810 H 362.737 0.019013 -1.94891 0
M  V30 3811 H 361.833 1.24336 -2.86264 0
M  V30 3812 N 362.134 1.5431 0.320358 0
M  V30 3813 C 363.382 1.72327 1.05583 0
M  V30 3814 C 363.703 0.50149 1.88441 0
M  V30 3815 O 362.973 -0.48448 1.89815 0
M  V30 3816 H 361.553 0.635387 0.3928 0
M  V30 3817 H 364.215 1.91621 0.356019 0
M  V30 3818 H 363.311 2.60426 1.72003 0
M  V30 3819 N 363.613 -0.582584 1.46437 0
M  V30 3820 C 364.841 -1.36682 1.55324 0
M  V30 3821 C 365.256 -1.87796 0.194409 0
M  V30 3822 O 364.613 -1.63623 -0.808318 0
M  V30 3823 C 364.664 -2.55426 2.55812 0
M  V30 3824 O 364.385 -2.0643 3.86417 0
M  V30 3825 C 365.886 -3.47976 2.74641 0
M  V30 3826 H 363.106 -0.417545 0.525259 0
M  V30 3827 H 365.65 -0.708219 1.91845 0
M  V30 3828 H 363.805 -3.17275 2.22295 0
M  V30 3829 H 364.219 -2.83762 4.41111 0
M  V30 3830 H 365.693 -4.27775 3.48874 0
M  V30 3831 H 366.17 -3.99919 1.81553 0
M  V30 3832 H 366.776 -2.91962 3.09255 0
M  V30 3833 N 365.091 -1.34144 -0.827227 0
M  V30 3834 C 366.337 -1.27455 -1.58515 0
M  V30 3835 C 366.692 0.155271 -1.91772 0
M  V30 3836 O 365.985 1.10042 -1.56848 0
M  V30 3837 C 366.179 -2.09464 -2.89585 0
M  V30 3838 C 366.008 -3.60276 -2.69131 0
M  V30 3839 C 364.778 -4.29565 -2.66087 0
M  V30 3840 C 366.976 -4.54367 -2.40947 0
M  V30 3841 N 364.958 -5.66252 -2.37132 0
M  V30 3842 C 366.329 -5.79027 -2.21648 0
M  V30 3843 C 368.384 -4.43327 -2.26639 0
M  V30 3844 C 367.087 -6.93891 -1.89492 0
M  V30 3845 C 369.113 -5.58019 -1.95878 0
M  V30 3846 C 368.475 -6.81695 -1.774 0
M  V30 3847 H 364.574 -0.521614 -0.582617 0
M  V30 3848 H 367.158 -1.68811 -0.970105 0
M  V30 3849 H 365.329 -1.70411 -3.49019 0
M  V30 3850 H 367.061 -1.94453 -3.54923 0
M  V30 3851 H 363.816 -3.81959 -2.80008 0
M  V30 3852 H 364.24 -6.38338 -2.25507 0
M  V30 3853 H 368.882 -3.48333 -2.39633 0
M  V30 3854 H 366.6 -7.88871 -1.75236 0
M  V30 3855 H 370.186 -5.5142 -1.85546 0
M  V30 3856 H 369.066 -7.68942 -1.53941 0
M  V30 3857 N 366.569 1.04691 -1.17803 0
M  V30 3858 C 367.985 1.29963 -0.926379 0
M  V30 3859 C 368.185 1.97251 0.411635 0
M  V30 3860 O 367.241 2.24922 1.14744 0
M  V30 3861 C 368.554 2.16447 -2.08737 0
M  V30 3862 C 370.102 2.29814 -2.12496 0
M  V30 3863 C 370.577 3.19661 -3.27995 0
M  V30 3864 N 372.068 3.27247 -3.27816 0
M  V30 3865 C 372.803 3.96906 -4.13827 0
M  V30 3866 N 372.299 4.6895 -5.09959 0
M  V30 3867 N 374.092 3.93122 -4.01761 0
M  V30 3868 H 366.243 0.594182 -2.0392 0
M  V30 3869 H 368.506 0.324649 -0.890678 0
M  V30 3870 H 368.212 1.74304 -3.05469 0
M  V30 3871 H 368.086 3.17103 -2.04268 0
M  V30 3872 H 370.473 2.71196 -1.16347 0
M  V30 3873 H 370.554 1.2877 -2.21025 0
M  V30 3874 H 370.198 2.78991 -4.24413 0
M  V30 3875 H 370.128 4.20722 -3.16703 0
M  V30 3876 H 372.619 2.75921 -2.58217 0
M  V30 3877 H 372.932 5.19679 -5.71974 0
M  V30 3878 H 371.277 4.67875 -5.13924 0
M  V30 3879 H 374.468 3.35967 -3.2595 0
M  V30 3880 H 374.641 4.47139 -4.6901 0
M  V30 3881 N 368.047 0.979072 1.23499 0
M  V30 3882 C 368.977 0.537606 2.27227 0
M  V30 3883 C 369.958 -0.428539 1.64613 0
M  V30 3884 O 371.143 -0.322191 1.91509 0
M  V30 3885 C 368.273 -0.162052 3.46922 0
M  V30 3886 C 367.227 0.721242 4.21879 0
M  V30 3887 C 366.553 -0.110555 5.34586 0
M  V30 3888 C 367.853 2.01141 4.82016 0
M  V30 3889 H 369.547 1.40462 2.64406 0
M  V30 3890 H 367.093 0.67684 1.27102 0
M  V30 3891 H 369.046 -0.482192 4.18632 0
M  V30 3892 H 367.77 -1.06351 3.08799 0
M  V30 3893 H 366.429 1.02482 3.51984 0
M  V30 3894 H 366.077 -1.0125 4.92704 0
M  V30 3895 H 365.777 0.477325 5.85658 0
M  V30 3896 H 367.301 -0.425107 6.09118 0
M  V30 3897 H 368.715 1.75612 5.45741 0
M  V30 3898 H 367.112 2.54695 5.43369 0
M  V30 3899 H 368.182 2.69909 4.02836 0
M  V30 3900 N 369.525 -1.3858 0.750561 0
M  V30 3901 C 370.455 -2.33102 0.136237 0
M  V30 3902 C 371.436 -1.54713 -0.706965 0
M  V30 3903 O 372.621 -1.83043 -0.648769 0
M  V30 3904 C 369.751 -3.38882 -0.760017 0
M  V30 3905 C 368.705 -4.27995 -0.0197785 0
M  V30 3906 C 368.031 -5.24605 -1.03408 0
M  V30 3907 C 369.331 -5.09554 1.14684 0
M  V30 3908 H 371.025 -2.84726 0.925822 0
M  V30 3909 H 368.571 -1.36898 0.446654 0
M  V30 3910 H 370.524 -4.0397 -1.19943 0
M  V30 3911 H 369.248 -2.85734 -1.58189 0
M  V30 3912 H 367.907 -3.64409 0.400184 0
M  V30 3913 H 367.555 -4.67746 -1.84994 0
M  V30 3914 H 367.255 -5.85081 -0.543464 0
M  V30 3915 H 368.779 -5.9257 -1.47288 0
M  V30 3916 H 370.193 -5.67899 0.785118 0
M  V30 3917 H 368.59 -5.7925 1.56812 0
M  V30 3918 H 369.66 -4.4347 1.96118 0
M  V30 3919 N 371.003 -0.499398 -1.49478 0
M  V30 3920 C 372.251 0.0455996 -2.02049 0
M  V30 3921 C 372.572 1.37633 -1.38138 0
M  V30 3922 O 371.842 1.8842 -0.536166 0
M  V30 3923 H 370.422 0.0198416 -0.746736 0
M  V30 3924 H 373.084 -0.656274 -1.83519 0
M  V30 3925 H 372.18 0.176445 -3.11601 0
M  V30 3926 N 372.481 1.55866 -0.233164 0
M  V30 3927 C 373.706 2.03449 0.402906 0
M  V30 3928 C 374.131 1.11166 1.51736 0
M  V30 3929 O 373.489 0.101996 1.81013 0
M  V30 3930 C 373.537 3.49165 0.9009 0
M  V30 3931 O 372.641 3.60019 2.01147 0
M  V30 3932 H 371.982 0.657913 0.0897025 0
M  V30 3933 H 374.512 2.01493 -0.355201 0
M  V30 3934 H 374.522 3.89716 1.2077 0
M  V30 3935 H 373.197 4.15813 0.0852889 0
M  V30 3936 H 371.774 3.3136 1.71042 0
M  V30 3937 N 373.959 -0.0401083 1.57549 0
M  V30 3938 C 375.205 -0.734211 1.89043 0
M  V30 3939 C 375.538 -1.75591 0.829535 0
M  V30 3940 O 374.813 -1.93868 -0.156706 0
M  V30 3941 C 375.096 -1.41374 3.31188 0
M  V30 3942 C 374.949 -0.406299 4.47961 0
M  V30 3943 C 376.268 -2.35061 3.72068 0
M  V30 3944 H 373.387 -0.265447 0.687537 0
M  V30 3945 H 376.029 0.00294087 1.9 0
M  V30 3946 H 374.179 -2.04206 3.30503 0
M  V30 3947 H 375.851 0.219255 4.60779 0
M  V30 3948 H 374.094 0.275485 4.32924 0
M  V30 3949 H 374.765 -0.920022 5.44279 0
M  V30 3950 H 377.241 -1.82282 3.74049 0
M  V30 3951 H 376.117 -2.79593 4.72355 0
M  V30 3952 H 376.378 -3.21258 3.0372 0
M  V30 3953 N 375.437 -1.54477 -0.31217 0
M  V30 3954 C 376.683 -1.73483 -1.0503 0
M  V30 3955 C 377.016 -0.513125 -1.87298 0
M  V30 3956 O 376.291 0.489864 -1.8823 0
M  V30 3957 C 376.574 -3.01723 -1.96558 0
M  V30 3958 C 376.427 -4.3417 -1.17545 0
M  V30 3959 C 377.746 -3.25772 -2.95907 0
M  V30 3960 H 374.865 -0.631222 -0.380432 0
M  V30 3961 H 377.507 -1.87184 -0.325932 0
M  V30 3962 H 375.657 -2.90174 -2.58324 0
M  V30 3963 H 377.329 -4.5762 -0.581513 0
M  V30 3964 H 375.572 -4.31159 -0.477925 0
M  V30 3965 H 376.243 -5.20143 -1.84811 0
M  V30 3966 H 378.719 -3.36857 -2.44267 0
M  V30 3967 H 377.595 -4.16838 -3.57123 0
M  V30 3968 H 377.856 -2.43537 -3.68974 0
M  V30 3969 N 376.915 0.57481 -1.46744 0
M  V30 3970 C 378.162 1.33272 -1.52462 0
M  V30 3971 C 378.49 1.93669 -0.179572 0
M  V30 3972 O 377.745 1.7743 0.825664 0
M  V30 3973 C 378.044 2.476 -2.57738 0
M  V30 3974 C 377.71 2.05146 -4.01529 0
M  V30 3975 C 376.372 1.93284 -4.40676 0
M  V30 3976 C 378.724 1.72506 -4.91824 0
M  V30 3977 C 376.052 1.47049 -5.67973 0
M  V30 3978 C 378.404 1.27748 -6.19567 0
M  V30 3979 C 377.068 1.14468 -6.57612 0
M  V30 3980 H 376.338 0.487678 -0.557899 0
M  V30 3981 H 378.985 0.646456 -1.80259 0
M  V30 3982 H 377.29 3.21708 -2.23632 0
M  V30 3983 H 378.987 3.05807 -2.5939 0
M  V30 3984 H 375.577 2.15316 -3.7059 0
M  V30 3985 H 379.761 1.80552 -4.62293 0
M  V30 3986 H 375.017 1.35417 -5.96215 0
M  V30 3987 H 379.191 1.01547 -6.88957 0
M  V30 3988 H 376.818 0.78419 -7.56145 0
M  V30 3989 N 378.394 1.34581 0.820102 0
M  V30 3990 C 379.643 1.26437 1.57151 0
M  V30 3991 C 379.956 -0.163111 1.94919 0
M  V30 3992 O 381.162 -0.366722 2.69012 0
M  V30 3993 C 379.618 2.21658 2.83541 0
M  V30 3994 C 379.226 3.69679 2.53065 0
M  V30 3995 C 380.97 2.22428 3.61561 0
M  V30 3996 C 378.877 4.56761 3.75664 0
M  V30 3997 H 377.807 0.469707 0.589823 0
M  V30 3998 H 380.458 1.59763 0.902656 0
M  V30 3999 H 378.84 1.81287 3.52067 0
M  V30 4000 H 380.014 4.18605 1.92631 0
M  V30 4001 H 378.329 3.71384 1.88316 0
M  V30 4002 H 380.926 2.8471 4.52597 0
M  V30 4003 H 381.269 1.22434 3.97889 0
M  V30 4004 H 381.802 2.61259 2.99981 0
M  V30 4005 H 378.541 5.57702 3.44454 0
M  V30 4006 H 378.061 4.12568 4.35371 0
M  V30 4007 H 379.74 4.71509 4.43044 0
M  V30 4008 N 379.872 -1.04064 1.18357 0
M  V30 4009 C 380.822 -2.10393 0.878561 0
M  V30 4010 C 381.806 -1.60183 -0.151713 0
M  V30 4011 O 382.998 -1.76923 0.0523303 0
M  V30 4012 C 380.127 -3.4089 0.406096 0
M  V30 4013 C 379.213 -3.97866 1.46844 0
M  V30 4014 N 379.604 -4.28657 2.68489 0
M  V30 4015 C 377.902 -4.2574 1.32896 0
M  V30 4016 C 378.603 -4.74253 3.36836 0
M  V30 4017 N 377.579 -4.75068 2.64219 0
M  V30 4018 H 381.381 -2.32076 1.80327 0
M  V30 4019 H 378.895 -1.21818 1.07397 0
M  V30 4020 H 380.892 -4.16557 0.169088 0
M  V30 4021 H 379.552 -3.20633 -0.512275 0
M  V30 4022 H 380.563 -4.18304 3.05356 0
M  V30 4023 H 377.24 -4.1481 0.473134 0
M  V30 4024 H 378.63 -5.07096 4.40798 0
M  V30 4025 N 381.35 -0.985608 -1.22978 0
M  V30 4026 C 382.766 -0.695104 -1.43668 0
M  V30 4027 C 382.966 0.736866 -1.87543 0
M  V30 4028 O 382.022 1.50868 -2.02473 0
M  V30 4029 C 383.335 -1.69447 -2.48412 0
M  V30 4030 C 384.883 -1.70909 -2.62219 0
M  V30 4031 C 385.358 -2.6969 -3.70178 0
M  V30 4032 N 386.849 -2.6824 -3.77626 0
M  V30 4033 C 387.584 -3.41339 -4.60733 0
M  V30 4034 N 387.08 -4.24015 -5.4789 0
M  V30 4035 N 388.873 -3.30079 -4.54977 0
M  V30 4036 H 381.024 -1.91054 -0.928016 0
M  V30 4037 H 383.287 -0.823553 -0.469536 0
M  V30 4038 H 382.993 -2.7188 -2.23102 0
M  V30 4039 H 382.867 -1.48147 -3.46889 0
M  V30 4040 H 385.254 -0.691785 -2.86877 0
M  V30 4041 H 385.335 -1.96276 -1.6404 0
M  V30 4042 H 384.979 -3.71566 -3.46268 0
M  V30 4043 H 384.909 -2.41595 -4.67909 0
M  V30 4044 H 387.4 -2.08243 -3.15346 0
M  V30 4045 H 387.713 -4.76636 -6.08308 0
M  V30 4046 H 386.058 -4.28104 -5.47496 0
M  V30 4047 H 389.249 -2.64937 -3.85909 0
M  V30 4048 H 389.422 -3.87308 -5.19516 0
M  V30 4049 N 382.828 1.3818 -0.7579 0
M  V30 4050 C 383.76 2.2901 -0.0932177 0
M  V30 4051 C 384.773 1.47958 0.679136 0
M  V30 4052 O 385.962 1.70773 0.519514 0
M  V30 4053 C 383.062 3.26953 0.89192 0
M  V30 4054 C 382.235 4.37045 0.176303 0
M  V30 4055 C 381.294 5.15148 1.07281 0
M  V30 4056 O 380.32 5.66616 0.541728 0
M  V30 4057 N 381.522 5.28542 2.40049 0
M  V30 4058 H 384.287 2.86694 -0.873303 0
M  V30 4059 H 381.848 1.50007 -0.609054 0
M  V30 4060 H 383.84 3.76083 1.49479 0
M  V30 4061 H 382.41 2.70136 1.57306 0
M  V30 4062 H 381.63 3.89493 -0.607328 0
M  V30 4063 H 382.918 5.07801 -0.318718 0
M  V30 4064 H 382.316 4.88285 2.85647 0
M  V30 4065 H 380.873 5.8103 2.95376 0
M  V30 4066 N 384.306 0.507319 1.49211 0
M  V30 4067 C 385.216 -0.272136 2.33016 0
M  V30 4068 C 386.232 -0.961206 1.45041 0
M  V30 4069 O 387.408 -0.941191 1.78055 0
M  V30 4070 C 384.473 -1.31895 3.20631 0
M  V30 4071 C 383.534 -0.642648 4.24463 0
M  V30 4072 C 382.767 -1.63959 5.07891 0
M  V30 4073 O 382.99 -2.87007 4.92933 0
M  V30 4074 O 381.924 -1.19143 5.8999 0
M  V30 4075 H 385.75 0.413982 3.00865 0
M  V30 4076 H 383.335 0.268556 1.46966 0
M  V30 4077 H 385.217 -1.92446 3.7489 0
M  V30 4078 H 383.892 -1.98788 2.5547 0
M  V30 4079 H 382.799 0.00276252 3.741 0
M  V30 4080 H 384.132 -0.0160534 4.92197 0
M  V30 4081 N 385.784 -1.5574 0.241426 0
M  V30 4082 C 386.714 -2.24133 -0.654722 0
M  V30 4083 C 387.695 -1.21974 -1.1856 0
M  V30 4084 O 388.88 -1.50612 -1.22595 0
M  V30 4085 C 386.01 -2.93659 -1.85423 0
M  V30 4086 C 384.964 -4.0246 -1.45636 0
M  V30 4087 C 384.29 -4.59383 -2.73626 0
M  V30 4088 C 385.59 -5.18468 -0.631506 0
M  V30 4089 H 387.284 -2.99281 -0.0844353 0
M  V30 4090 H 384.83 -1.43947 -0.0391707 0
M  V30 4091 H 386.783 -3.40203 -2.48676 0
M  V30 4092 H 385.507 -2.15991 -2.44981 0
M  V30 4093 H 384.166 -3.56676 -0.847202 0
M  V30 4094 H 383.814 -3.78422 -3.3137 0
M  V30 4095 H 383.514 -5.32826 -2.4773 0
M  V30 4096 H 385.038 -5.08658 -3.37786 0
M  V30 4097 H 386.452 -5.61272 -1.1682 0
M  V30 4098 H 384.849 -5.98266 -0.468831 0
M  V30 4099 H 385.919 -4.8358 0.357506 0
M  V30 4100 N 387.262 0.0317525 -1.57568 0
M  V30 4101 C 388.511 0.722131 -1.8833 0
M  V30 4102 C 388.824 1.76664 -0.839587 0
M  V30 4103 O 390.03 2.50942 -1.03635 0
M  V30 4104 C 388.486 1.33544 -3.34207 0
M  V30 4105 C 388.094 0.327415 -4.46802 0
M  V30 4106 C 389.838 2.00585 -3.7412 0
M  V30 4107 C 387.745 0.948915 -5.83738 0
M  V30 4108 H 386.675 0.273466 -0.702661 0
M  V30 4109 H 389.326 -0.0235811 -1.83485 0
M  V30 4110 H 387.708 2.13077 -3.33788 0
M  V30 4111 H 388.882 -0.441006 -4.58685 0
M  V30 4112 H 387.197 -0.240758 -4.15703 0
M  V30 4113 H 389.794 2.47932 -4.73744 0
M  V30 4114 H 390.137 2.82285 -3.05975 0
M  V30 4115 H 390.67 1.27831 -3.76702 0
M  V30 4116 H 387.409 0.171387 -6.55276 0
M  V30 4117 H 386.929 1.68724 -5.7558 0
M  V30 4118 H 388.608 1.45705 -6.3038 0
M  V30 4119 N 388.74 1.54641 0.303973 0
M  V30 4120 C 389.968 1.77768 1.05858 0
M  V30 4121 C 390.383 0.535722 1.8104 0
M  V30 4122 O 389.74 -0.494337 1.75677 0
M  V30 4123 C 389.791 2.9834 2.04146 0
M  V30 4124 O 389.512 4.17736 1.32015 0
M  V30 4125 C 391.013 3.33832 2.91669 0
M  V30 4126 H 388.233 0.592961 0.314067 0
M  V30 4127 H 390.777 2.01583 0.344149 0
M  V30 4128 H 388.932 2.76742 2.71096 0
M  V30 4129 H 389.346 4.85693 1.97998 0
M  V30 4130 H 390.82 4.21448 3.56491 0
M  V30 4131 H 391.297 2.51857 3.59812 0
M  V30 4132 H 391.903 3.57579 2.30254 0
M  V30 4133 N 390.218 -0.567019 1.47046 0
M  V30 4134 C 391.446 -1.35027 1.56765 0
M  V30 4135 C 391.861 -1.8758 0.214316 0
M  V30 4136 O 391.218 -1.64471 -0.790919 0
M  V30 4137 C 391.269 -2.52698 2.58507 0
M  V30 4138 O 390.99 -2.0232 3.88585 0
M  V30 4139 C 392.491 -3.45043 2.78316 0
M  V30 4140 H 389.711 -0.41195 0.529658 0
M  V30 4141 H 392.255 -0.687832 1.92585 0
M  V30 4142 H 390.41 -3.149 2.25648 0
M  V30 4143 H 390.824 -2.79068 4.44096 0
M  V30 4144 H 392.298 -4.2405 3.53391 0
M  V30 4145 H 392.775 -3.97971 1.85784 0
M  V30 4146 H 393.381 -2.88665 3.12334 0
M  V30 4147 N 391.696 -1.35014 -0.812953 0
M  V30 4148 C 392.626 -1.30069 -1.93919 0
M  V30 4149 C 393.607 -0.176275 -1.69184 0
M  V30 4150 O 394.792 -0.370227 -1.90638 0
M  V30 4151 C 391.922 -1.06547 -3.30552 0
M  V30 4152 C 390.876 -2.15561 -3.69753 0
M  V30 4153 C 390.202 -1.77214 -5.04479 0
M  V30 4154 C 391.502 -3.57476 -3.808 0
M  V30 4155 H 393.196 -2.24303 -1.98314 0
M  V30 4156 H 390.742 -1.07977 -0.952736 0
M  V30 4157 H 392.695 -1.01729 -4.08937 0
M  V30 4158 H 391.419 -0.0875719 -3.26483 0
M  V30 4159 H 390.078 -2.19466 -2.9365 0
M  V30 4160 H 389.726 -0.780589 -4.96906 0
M  V30 4161 H 389.426 -2.50184 -5.31678 0
M  V30 4162 H 390.95 -1.7391 -5.8531 0
M  V30 4163 H 392.364 -3.55929 -4.4943 0
M  V30 4164 H 390.761 -4.29152 -4.19462 0
M  V30 4165 H 391.831 -3.94091 -2.82525 0
M  V30 4166 N 393.175 1.03435 -1.18907 0
M  V30 4167 C 394.405 1.8012 -1.01195 0
M  V30 4168 C 394.813 1.8395 0.442613 0
M  V30 4169 O 394.156 1.27836 1.31923 0
M  V30 4170 C 394.218 3.26792 -1.49823 0
M  V30 4171 C 393.882 3.46609 -2.97844 0
M  V30 4172 C 394.879 3.37278 -3.95651 0
M  V30 4173 C 392.564 3.73001 -3.36416 0
M  V30 4174 C 394.558 3.54054 -5.30023 0
M  V30 4175 C 392.245 3.89423 -4.70949 0
M  V30 4176 C 393.243 3.79951 -5.67562 0
M  V30 4177 O 392.931 3.95895 -6.99659 0
M  V30 4178 H 392.663 0.573865 -0.357289 0
M  V30 4179 H 395.217 1.31207 -1.58031 0
M  V30 4180 H 393.447 3.76703 -0.873578 0
M  V30 4181 H 395.136 3.85055 -1.28404 0
M  V30 4182 H 395.902 3.16846 -3.67197 0
M  V30 4183 H 391.781 3.79469 -2.61772 0
M  V30 4184 H 395.325 3.46577 -6.05417 0
M  V30 4185 H 391.222 4.09351 -4.99101 0
M  V30 4186 H 391.99 4.13019 -7.06653 0
M  V30 4187 N 394.653 0.992116 1.22453 0
M  V30 4188 C 395.902 0.662992 1.90492 0
M  V30 4189 C 396.215 -0.808407 1.78113 0
M  V30 4190 O 397.421 -1.24908 2.41061 0
M  V30 4191 C 395.877 1.1353 3.41524 0
M  V30 4192 C 395.485 2.63187 3.62542 0
M  V30 4193 C 397.229 0.880465 4.15269 0
M  V30 4194 C 395.136 3.04024 5.0727 0
M  V30 4195 H 394.066 0.244278 0.713333 0
M  V30 4196 H 396.717 1.20157 1.38688 0
M  V30 4197 H 395.099 0.52485 3.92506 0
M  V30 4198 H 396.273 3.2957 3.22056 0
M  V30 4199 H 394.588 2.86543 3.02129 0
M  V30 4200 H 397.185 1.16128 5.21937 0
M  V30 4201 H 397.528 -0.183408 4.15896 0
M  V30 4202 H 398.061 1.45307 3.70312 0
M  V30 4203 H 394.8 4.09584 5.11782 0
M  V30 4204 H 394.32 2.42343 5.48662 0
M  V30 4205 H 395.999 2.95282 5.75689 0
M  V30 4206 N 396.131 -1.37776 0.765217 0
M  V30 4207 C 397.379 -1.99454 0.325943 0
M  V30 4208 C 397.7 -1.61049 -1.09947 0
M  V30 4209 O 396.97 -0.872821 -1.75381 0
M  V30 4210 H 395.55 -0.737697 0.117525 0
M  V30 4211 H 398.212 -1.68359 0.981895 0
M  V30 4212 H 397.308 -3.09547 0.398353 0
M  V30 4213 N 397.609 -0.515225 -1.4894 0
M  V30 4214 C 398.856 0.024215 -2.02486 0
M  V30 4215 C 399.184 1.35671 -1.39368 0
M  V30 4216 O 398.439 1.88566 -0.523574 0
M  V30 4217 C 398.738 0.210595 -3.56779 0
M  V30 4218 C 398.404 -1.04569 -4.38607 0
M  V30 4219 C 397.066 -1.39002 -4.60686 0
M  V30 4220 C 399.418 -1.88008 -4.86109 0
M  V30 4221 C 396.746 -2.568 -5.27514 0
M  V30 4222 C 399.098 -3.04972 -5.54234 0
M  V30 4223 C 397.762 -3.39768 -5.74555 0
M  V30 4224 H 397.032 0.00886088 -0.740947 0
M  V30 4225 H 399.679 -0.678263 -1.79086 0
M  V30 4226 H 397.984 0.99572 -3.78936 0
M  V30 4227 H 399.681 0.642659 -3.95817 0
M  V30 4228 H 396.271 -0.767497 -4.21672 0
M  V30 4229 H 400.455 -1.62719 -4.68867 0
M  V30 4230 H 395.711 -2.8398 -5.41447 0
M  V30 4231 H 399.885 -3.69943 -5.90013 0
M  V30 4232 H 397.512 -4.31148 -6.26112 0
M  V30 4233 N 399.087 1.5561 -0.249682 0
M  V30 4234 C 400.017 2.24477 0.642826 0
M  V30 4235 C 400.998 1.22601 1.17911 0
M  V30 4236 O 402.183 1.5126 1.21795 0
M  V30 4237 C 399.313 2.94638 1.83863 0
M  V30 4238 C 398.267 4.03227 1.435 0
M  V30 4239 C 397.593 4.60828 2.71186 0
M  V30 4240 C 398.893 5.18796 0.604002 0
M  V30 4241 H 400.587 2.99321 0.0685625 0
M  V30 4242 H 398.133 1.43965 0.0315363 0
M  V30 4243 H 400.086 3.41517 2.46868 0
M  V30 4244 H 398.81 2.17287 2.43832 0
M  V30 4245 H 397.469 3.57121 0.828275 0
M  V30 4246 H 397.117 3.80174 3.29358 0
M  V30 4247 H 396.817 5.34132 2.44901 0
M  V30 4248 H 398.341 5.10442 3.35084 0
M  V30 4249 H 399.755 5.61883 1.13842 0
M  V30 4250 H 398.152 5.98506 0.437097 0
M  V30 4251 H 399.222 4.83384 -0.383147 0
M  V30 4252 N 400.565 -0.0233959 1.57583 0
M  V30 4253 C 401.813 -0.711654 1.89156 0
M  V30 4254 C 402.134 -1.75591 0.848096 0
M  V30 4255 O 401.404 -1.95547 -0.117566 0
M  V30 4256 H 399.984 -0.265835 0.698098 0
M  V30 4257 H 402.646 0.0119948 1.94896 0
M  V30 4258 H 401.742 -1.19766 2.88206 0
M  V30 4259 N 402.043 -1.548 -0.295768 0
M  V30 4260 C 402.973 -1.89115 -1.36959 0
M  V30 4261 C 403.954 -0.75059 -1.52644 0
M  V30 4262 O 405.139 -1.00678 -1.66065 0
M  V30 4263 C 402.269 -2.14307 -2.73295 0
M  V30 4264 C 401.223 -3.30151 -2.72368 0
M  V30 4265 C 400.549 -3.40772 -4.12042 0
M  V30 4266 C 401.849 -4.67126 -2.33646 0
M  V30 4267 H 403.543 -2.79053 -1.08488 0
M  V30 4268 H 401.089 -1.34266 -0.520443 0
M  V30 4269 H 403.042 -2.36898 -3.48507 0
M  V30 4270 H 401.766 -1.21145 -3.03301 0
M  V30 4271 H 400.425 -3.0749 -1.99613 0
M  V30 4272 H 400.073 -2.45117 -4.39234 0
M  V30 4273 H 399.773 -4.18645 -4.12322 0
M  V30 4274 H 401.297 -3.6563 -4.89027 0
M  V30 4275 H 402.711 -4.89414 -2.98575 0
M  V30 4276 H 401.108 -5.47751 -2.45129 0
M  V30 4277 H 402.178 -4.67489 -1.28772 0
M  V30 4278 N 403.521 0.559213 -1.47345 0
M  V30 4279 C 404.77 1.31281 -1.53128 0
M  V30 4280 C 405.083 1.94602 -0.197344 0
M  V30 4281 O 406.289 2.71173 -0.133154 0
M  V30 4282 C 404.745 2.38051 -2.69925 0
M  V30 4283 C 404.353 1.8093 -4.0984 0
M  V30 4284 C 406.097 3.14604 -2.84999 0
M  V30 4285 C 404.004 2.85468 -5.1794 0
M  V30 4286 H 402.934 0.493614 -0.569966 0
M  V30 4287 H 405.585 0.594155 -1.73615 0
M  V30 4288 H 403.967 3.12822 -2.42814 0
M  V30 4289 H 405.141 1.12544 -4.46845 0
M  V30 4290 H 403.456 1.16967 -3.99634 0
M  V30 4291 H 406.053 3.92666 -3.62929 0
M  V30 4292 H 406.396 3.68665 -1.93369 0
M  V30 4293 H 406.929 2.46945 -3.1187 0
M  V30 4294 H 403.668 2.36264 -6.1144 0
M  V30 4295 H 403.188 3.52269 -4.85455 0
M  V30 4296 H 404.867 3.48996 -5.44803 0
M  V30 4297 N 404.999 1.35443 0.805782 0
M  V30 4298 C 406.246 1.28761 1.56291 0
M  V30 4299 C 406.574 -0.137747 1.94012 0
M  V30 4300 O 405.829 -1.1032 1.61642 0
M  V30 4301 C 406.128 2.14045 2.86216 0
M  V30 4302 C 405.794 3.62826 2.67709 0
M  V30 4303 C 404.456 4.0338 2.6237 0
M  V30 4304 C 406.808 4.57227 2.50186 0
M  V30 4305 C 404.136 5.36501 2.37451 0
M  V30 4306 C 406.488 5.90547 2.26797 0
M  V30 4307 C 405.152 6.30245 2.1988 0
M  V30 4308 H 404.422 0.471171 0.571908 0
M  V30 4309 H 407.069 1.67347 0.930974 0
M  V30 4310 H 405.374 1.68342 3.53791 0
M  V30 4311 H 407.071 2.0621 3.43917 0
M  V30 4312 H 403.661 3.30644 2.72713 0
M  V30 4313 H 407.845 4.2678 2.53323 0
M  V30 4314 H 403.101 5.66259 2.30567 0
M  V30 4315 H 407.275 6.63274 2.12228 0
M  V30 4316 H 404.902 7.33328 2.00333 0
M  V30 4317 N 406.477 -1.02803 1.19454 0
M  V30 4318 C 407.702 -1.80378 1.02364 0
M  V30 4319 C 408.127 -1.83282 -0.423007 0
M  V30 4320 O 407.485 -1.25945 -1.30413 0
M  V30 4321 C 407.533 -3.23248 1.59821 0
M  V30 4322 O 406.637 -4.04 0.828105 0
M  V30 4323 H 405.978 -0.556799 0.361761 0
M  V30 4324 H 408.508 -1.29385 1.58495 0
M  V30 4325 H 408.518 -3.73994 1.63073 0
M  V30 4326 H 407.193 -3.2045 2.65113 0
M  V30 4327 H 405.77 -3.62635 0.86891 0
M  V30 4328 N 407.956 -0.998596 -1.21925 0
M  V30 4329 C 409.181 -0.696015 -1.95372 0
M  V30 4330 C 409.606 0.733826 -1.73195 0
M  V30 4331 O 408.964 1.50242 -1.01474 0
M  V30 4332 C 409.012 -1.01466 -3.4603 0
M  V30 4333 O 408.116 -0.116415 -4.12236 0
M  V30 4334 H 407.457 -0.259938 -0.611006 0
M  V30 4335 H 409.987 -1.33711 -1.54863 0
M  V30 4336 H 409.997 -0.958855 -3.96573 0
M  V30 4337 H 408.672 -2.05653 -3.61497 0
M  V30 4338 H 407.249 -0.228193 -3.72201 0
M  V30 4339 N 409.434 1.37368 -0.772513 0
M  V30 4340 C 410.664 2.03647 -0.348082 0
M  V30 4341 C 411.072 1.58392 1.03482 0
M  V30 4342 O 410.415 0.760921 1.672 0
M  V30 4343 C 410.477 3.58131 -0.313404 0
M  V30 4344 C 410.141 4.2652 -1.64102 0
M  V30 4345 C 411.138 4.50587 -2.5936 0
M  V30 4346 C 408.823 4.64335 -1.91567 0
M  V30 4347 C 410.817 5.11526 -3.80289 0
M  V30 4348 C 408.504 5.24996 -3.12766 0
M  V30 4349 C 409.502 5.48529 -4.06946 0
M  V30 4350 O 409.19 6.07921 -5.26011 0
M  V30 4351 H 408.922 0.660538 -0.143753 0
M  V30 4352 H 411.476 1.76669 -1.04772 0
M  V30 4353 H 409.706 3.84159 0.442617 0
M  V30 4354 H 411.395 4.05813 0.0840613 0
M  V30 4355 H 412.161 4.21784 -2.39423 0
M  V30 4356 H 408.04 4.45353 -1.19088 0
M  V30 4357 H 411.584 5.29811 -4.53813 0
M  V30 4358 H 407.481 5.53223 -3.32588 0
M  V30 4359 H 408.249 6.26398 -5.26847 0
M  V30 4360 N 410.912 0.523116 1.48665 0
M  V30 4361 C 412.159 -0.0134763 2.02496 0
M  V30 4362 C 412.487 -1.3493 1.40086 0
M  V30 4363 O 411.742 -1.88286 0.533567 0
M  V30 4364 C 412.041 -0.191671 3.56886 0
M  V30 4365 C 411.707 1.06893 4.38046 0
M  V30 4366 C 410.369 1.41443 4.59943 0
M  V30 4367 C 412.721 1.90584 4.85106 0
M  V30 4368 C 410.049 2.59594 5.26144 0
M  V30 4369 C 412.401 3.07907 5.52609 0
M  V30 4370 C 411.065 3.42811 5.72745 0
M  V30 4371 H 410.335 -0.00493133 0.740984 0
M  V30 4372 H 412.982 0.687751 1.78724 0
M  V30 4373 H 411.287 -0.97561 3.79459 0
M  V30 4374 H 412.984 -0.621659 3.96152 0
M  V30 4375 H 409.574 0.789848 4.21259 0
M  V30 4376 H 413.758 1.65203 4.67997 0
M  V30 4377 H 409.014 2.86847 5.39934 0
M  V30 4378 H 413.188 3.73066 5.88043 0
M  V30 4379 H 410.815 4.34462 6.23816 0
M  V30 4380 N 412.39 -1.55475 0.257931 0
M  V30 4381 C 413.636 -1.99502 -0.364266 0
M  V30 4382 C 413.969 -1.146 -1.56782 0
M  V30 4383 O 413.244 -0.211968 -1.93342 0
M  V30 4384 C 413.527 -3.51917 -0.763333 0
M  V30 4385 C 413.38 -4.4758 0.446371 0
M  V30 4386 C 414.699 -4.09742 -1.60623 0
M  V30 4387 H 411.818 -0.725277 -0.130929 0
M  V30 4388 H 414.46 -1.8653 0.361446 0
M  V30 4389 H 412.61 -3.63101 -1.38166 0
M  V30 4390 H 414.282 -4.48362 1.08487 0
M  V30 4391 H 412.525 -4.19947 1.08753 0
M  V30 4392 H 413.196 -5.51862 0.123645 0
M  V30 4393 H 415.672 -4.01727 -1.08418 0
M  V30 4394 H 414.548 -5.16631 -1.85429 0
M  V30 4395 H 414.809 -3.58889 -2.58169 0
M  V30 4396 N 413.868 0.0150385 -1.57593 0
M  V30 4397 C 415.098 0.713359 -1.93894 0
M  V30 4398 C 415.506 1.68663 -0.857289 0
M  V30 4399 O 414.849 1.82876 0.173788 0
M  V30 4400 C 414.911 1.51348 -3.26089 0
M  V30 4401 C 414.575 0.703451 -4.51554 0
M  V30 4402 C 415.572 -0.00237924 -5.199 0
M  V30 4403 C 413.257 0.653854 -4.98026 0
M  V30 4404 C 415.251 -0.746955 -6.33008 0
M  V30 4405 C 412.938 -0.0944578 -6.11027 0
M  V30 4406 C 413.936 -0.793609 -6.78374 0
M  V30 4407 O 413.624 -1.52974 -7.89211 0
M  V30 4408 H 413.356 0.204637 -0.644282 0
M  V30 4409 H 415.91 -0.0276411 -2.05381 0
M  V30 4410 H 414.14 2.29862 -3.10967 0
M  V30 4411 H 415.829 2.09572 -3.47612 0
M  V30 4412 H 416.595 0.0268803 -4.84993 0
M  V30 4413 H 412.474 1.18756 -4.45441 0
M  V30 4414 H 416.018 -1.2932 -6.85509 0
M  V30 4415 H 411.915 -0.125591 -6.45378 0
M  V30 4416 H 412.683 -1.44488 -8.05646 0
M  V30 4417 N 415.346 1.54954 0.287554 0
M  V30 4418 C 416.276 1.89839 1.35954 0
M  V30 4419 C 417.257 0.758675 1.52244 0
M  V30 4420 O 418.442 1.01557 1.65529 0
M  V30 4421 C 415.572 2.15753 2.72154 0
M  V30 4422 C 414.526 3.3159 2.70614 0
M  V30 4423 C 413.852 3.42952 4.10229 0
M  V30 4424 C 415.152 4.68359 2.31165 0
M  V30 4425 H 416.846 2.79625 1.07007 0
M  V30 4426 H 414.392 1.3454 0.513316 0
M  V30 4427 H 416.345 2.38743 3.47246 0
M  V30 4428 H 415.069 1.22752 3.02654 0
M  V30 4429 H 413.728 3.08545 1.97979 0
M  V30 4430 H 413.376 2.47443 4.37928 0
M  V30 4431 H 413.076 4.20826 4.10097 0
M  V30 4432 H 414.6 3.68218 4.87081 0
M  V30 4433 H 416.014 4.9099 2.95976 0
M  V30 4434 H 414.411 5.49044 2.42221 0
M  V30 4435 H 415.481 4.68165 1.26291 0
M  V30 4436 N 416.824 -0.551391 1.4764 0
M  V30 4437 C 417.787 -1.64007 1.60107 0
M  V30 4438 C 418.787 -1.53601 0.47576 0
M  V30 4439 O 419.977 -1.57655 0.740988 0
M  V30 4440 C 417.109 -3.03569 1.55108 0
M  V30 4441 H 418.302 -1.543 2.57161 0
M  V30 4442 H 415.855 -0.771776 1.35917 0
M  V30 4443 H 416.59 -3.18804 0.594519 0
M  V30 4444 H 416.375 -3.12532 2.36783 0
M  V30 4445 H 417.865 -3.82762 1.66982 0
M  V30 4446 N 418.302 -1.35869 -0.798587 0
M  V30 4447 C 419.212 -1.31578 -1.94228 0
M  V30 4448 C 420.228 -0.21939 -1.72611 0
M  V30 4449 O 421.404 -0.450167 -1.96305 0
M  V30 4450 C 418.469 -1.09528 -3.28944 0
M  V30 4451 C 417.53 -2.28556 -3.63402 0
M  V30 4452 C 416.763 -2.07549 -4.9169 0
M  V30 4453 O 416.986 -1.046 -5.60727 0
M  V30 4454 O 415.92 -2.95106 -5.24591 0
M  V30 4455 H 419.746 -2.27847 -2.00796 0
M  V30 4456 H 417.331 -1.16322 -0.937526 0
M  V30 4457 H 419.213 -0.991127 -4.09579 0
M  V30 4458 H 417.888 -0.16315 -3.23289 0
M  V30 4459 H 416.795 -2.44538 -2.83112 0
M  V30 4460 H 418.128 -3.20244 -3.73771 0
M  V30 4461 N 419.78 1.02168 -1.19998 0
M  V30 4462 C 420.727 2.10601 -0.944228 0
M  V30 4463 C 421.697 1.65639 0.123664 0
M  V30 4464 O 422.882 1.9079 -0.0199941 0
M  V30 4465 C 420.022 3.41504 -0.496865 0
M  V30 4466 C 419.135 3.99973 -1.63234 0
M  V30 4467 C 418.27 5.18915 -1.13579 0
M  V30 4468 C 417.309 5.69456 -2.24468 0
M  V30 4469 N 416.446 6.79665 -1.76068 0
M  V30 4470 H 421.286 2.31814 -1.8726 0
M  V30 4471 H 418.823 1.13686 -0.933483 0
M  V30 4472 H 420.781 4.16626 -0.218843 0
M  V30 4473 H 419.411 3.2038 0.394508 0
M  V30 4474 H 418.463 3.21997 -2.0254 0
M  V30 4475 H 419.775 4.33492 -2.46752 0
M  V30 4476 H 418.929 6.01222 -0.813429 0
M  V30 4477 H 417.668 4.8695 -0.270434 0
M  V30 4478 H 416.673 4.85757 -2.57526 0
M  V30 4479 H 417.898 6.03459 -3.11472 0
M  V30 4480 H 415.844 6.49538 -0.918516 0
M  V30 4481 H 415.761 7.12349 -2.5317 0
M  V30 4482 H 417.029 7.65549 -1.46817 0
M  V30 4483 N 421.258 1.00505 1.21394 0
M  V30 4484 C 422.535 0.603277 1.86064 0
M  V30 4485 C 422.915 -0.919095 1.90042 0
M  V30 4486 O 422.263 -1.80607 1.39977 0
M  V30 4487 C 422.473 1.23772 3.26315 0
M  V30 4488 C 423.821 1.34586 4.02705 0
M  V30 4489 O 424.845 1.19304 3.35626 0
M  V30 4490 O 423.704 1.59169 5.22807 0
M  V30 4491 H 420.798 0.206634 0.800769 0
M  V30 4492 H 423.344 1.1017 1.29076 0
M  V30 4493 H 422.116 2.27848 3.18121 0
M  V30 4494 H 421.739 0.725648 3.90922 0
M  V30 4495 N 422.737 -1.36956 0.779787 0
M  V30 4496 C 423.7 -2.2851 0.177662 0
M  V30 4497 C 424.7 -1.48393 -0.619377 0
M  V30 4498 O 425.89 -1.68505 -0.441785 0
M  V30 4499 C 423.022 -3.32428 -0.755279 0
M  V30 4500 H 424.215 -2.83269 0.984823 0
M  V30 4501 H 421.768 -1.46358 0.548544 0
M  V30 4502 H 422.503 -2.82808 -1.58714 0
M  V30 4503 H 422.288 -3.91659 -0.185817 0
M  V30 4504 H 423.778 -4.00824 -1.17174 0
M  V30 4505 N 424.215 -0.530993 -1.48385 0
M  V30 4506 C 425.461 0.00274135 -2.028 0
M  V30 4507 C 425.794 1.33838 -1.40716 0
M  V30 4508 O 425.069 1.86465 -0.553277 0
M  V30 4509 C 425.352 0.123676 -3.59888 0
M  V30 4510 C 425.205 -1.2372 -4.3245 0
M  V30 4511 C 426.524 0.849967 -4.31814 0
M  V30 4512 H 423.643 -0.000477758 -0.737 0
M  V30 4513 H 426.285 -0.688217 -1.77098 0
M  V30 4514 H 424.435 0.712157 -3.81917 0
M  V30 4515 H 426.107 -1.86687 -4.21836 0
M  V30 4516 H 424.35 -1.81882 -3.93829 0
M  V30 4517 H 425.021 -1.10557 -5.40815 0
M  V30 4518 H 427.497 0.350572 -4.14621 0
M  V30 4519 H 426.373 0.903486 -5.41413 0
M  V30 4520 H 426.634 1.90047 -3.99167 0
M  V30 4521 N 425.693 1.55336 -0.266172 0
M  V30 4522 C 426.641 2.23587 0.641228 0
M  V30 4523 C 427.635 1.22986 1.16494 0
M  V30 4524 O 428.841 1.40943 1.1196 0
M  V30 4525 H 425.216 0.717452 0.225315 0
M  V30 4526 H 427.187 2.9837 0.0426561 0
M  V30 4527 C 425.936 2.96369 1.81826 0
M  V30 4528 H 425.259 3.73563 1.42445 0
M  V30 4529 H 426.699 3.47459 2.42998 0
M  V30 4530 C 425.158 2.0133 2.70125 0
M  V30 4531 O 425.688 1.55875 3.70224 0
M  V30 4532 N 423.894 1.6802 2.37102 0
M  V30 4533 H 423.441 2.05181 1.55751 0
M  V30 4534 H 423.399 1.047 2.96454 0
M  V30 4535 N 427.171 -0.0066808 1.57599 0
M  V30 4536 C 428.081 -1.01671 2.11424 0
M  V30 4537 C 429.097 -1.38143 1.05795 0
M  V30 4538 O 430.273 -1.47011 1.37658 0
M  V30 4539 C 427.338 -2.29192 2.60139 0
M  V30 4540 C 426.399 -1.99094 3.80342 0
M  V30 4541 C 425.632 -3.20535 4.26724 0
M  V30 4542 O 425.855 -4.3199 3.72479 0
M  V30 4543 O 424.789 -3.04924 5.18946 0
M  V30 4544 H 428.615 -0.589181 2.9793 0
M  V30 4545 H 426.2 -0.225091 1.47695 0
M  V30 4546 H 428.082 -3.0412 2.917 0
M  V30 4547 H 426.757 -2.71195 1.76733 0
M  V30 4548 H 425.664 -1.21663 3.53764 0
M  V30 4549 H 426.997 -1.61931 4.648 0
M  V30 4550 N 428.649 -1.55105 -0.279332 0
M  V30 4551 C 429.874 -1.7976 -1.03446 0
M  V30 4552 C 430.299 -0.565952 -1.79384 0
M  V30 4553 O 429.657 0.484259 -1.74713 0
M  V30 4554 C 429.705 -3.0179 -1.97371 0
M  V30 4555 O 428.809 -2.76432 -3.06038 0
M  V30 4556 H 428.15 -0.594334 -0.29608 0
M  V30 4557 H 430.68 -2.02235 -0.310165 0
M  V30 4558 H 430.69 -3.30351 -2.39441 0
M  V30 4559 H 429.365 -3.91085 -1.4151 0
M  V30 4560 H 427.942 -2.58949 -2.68328 0
M  V30 4561 N 430.127 0.543554 -1.4793 0
M  V30 4562 C 431.375 1.29752 -1.54948 0
M  V30 4563 C 431.696 1.93764 -0.219242 0
M  V30 4564 O 430.966 1.80639 0.75805 0
M  V30 4565 H 429.546 0.481874 -0.570795 0
M  V30 4566 H 432.208 0.633636 -1.84312 0
M  V30 4567 H 431.304 2.08392 -2.32334 0
M  V30 4568 N 431.605 1.3629 0.791371 0
M  V30 4569 C 433.021 1.16661 1.08914 0
M  V30 4570 C 433.221 -0.0106266 2.01497 0
M  V30 4571 O 432.277 -0.676596 2.43266 0
M  V30 4572 C 433.59 2.47656 1.70549 0
M  V30 4573 C 435.138 2.54002 1.82899 0
M  V30 4574 C 435.613 3.85078 2.47949 0
M  V30 4575 N 437.104 3.86413 2.5542 0
M  V30 4576 C 437.839 4.84572 3.06557 0
M  V30 4577 N 437.335 5.93124 3.58016 0
M  V30 4578 N 439.128 4.71994 3.05251 0
M  V30 4579 H 431.279 2.11668 0.176238 0
M  V30 4580 H 433.542 0.937486 0.140796 0
M  V30 4581 H 433.248 3.34059 1.09989 0
M  V30 4582 H 433.122 2.63319 2.70079 0
M  V30 4583 H 435.509 1.68018 2.42598 0
M  V30 4584 H 435.59 2.42239 0.821808 0
M  V30 4585 H 435.234 4.71467 1.88895 0
M  V30 4586 H 435.164 3.94135 3.49235 0
M  V30 4587 H 437.655 3.07988 2.18979 0
M  V30 4588 H 437.968 6.63999 3.95381 0
M  V30 4589 H 436.313 5.96796 3.56173 0
M  V30 4590 H 439.504 3.86321 2.64336 0
M  V30 4591 H 439.677 5.48653 3.44796 0
M  V30 4592 N 433.083 -1.0153 1.20538 0
M  V30 4593 C 434.329 -1.75408 1.01783 0
M  V30 4594 C 434.662 -1.88943 -0.448814 0
M  V30 4595 O 433.937 -1.4162 -1.33319 0
M  V30 4596 C 434.22 -3.17255 1.70356 0
M  V30 4597 C 434.073 -3.11508 3.24473 0
M  V30 4598 C 435.392 -4.15955 1.43769 0
M  V30 4599 H 432.511 -0.636713 0.371167 0
M  V30 4600 H 435.153 -1.18436 1.4857 0
M  V30 4601 H 433.303 -3.65898 1.30578 0
M  V30 4602 H 434.975 -2.70658 3.73553 0
M  V30 4603 H 433.218 -2.4887 3.55311 0
M  V30 4604 H 433.889 -4.11784 3.67611 0
M  V30 4605 H 436.365 -3.75973 1.7828 0
M  V30 4606 H 435.241 -5.13368 1.94279 0
M  V30 4607 H 435.502 -4.40586 0.365564 0
M  V30 4608 N 434.561 -1.01147 -1.20859 0
M  V30 4609 C 435.471 -0.58686 -2.27141 0
M  V30 4610 C 436.487 0.373198 -1.69951 0
M  V30 4611 O 437.663 0.235423 -2.00019 0
M  V30 4612 C 434.728 0.0733602 -3.46622 0
M  V30 4613 C 433.789 -0.931995 -4.19061 0
M  V30 4614 C 433.022 -0.303186 -5.32838 0
M  V30 4615 O 433.245 0.898395 -5.63281 0
M  V30 4616 O 432.179 -1.01735 -5.9324 0
M  V30 4617 H 436.005 -1.47155 -2.65667 0
M  V30 4618 H 433.59 -0.780689 -1.2738 0
M  V30 4619 H 435.472 0.442333 -4.19072 0
M  V30 4620 H 434.147 0.932329 -3.09983 0
M  V30 4621 H 433.054 -1.35224 -3.48805 0
M  V30 4622 H 434.387 -1.76076 -4.59628 0
M  V30 4623 N 436.039 1.36541 -0.78704 0
M  V30 4624 C 437.286 1.99304 -0.358341 0
M  V30 4625 C 437.614 1.62467 1.06933 0
M  V30 4626 O 436.869 0.870019 1.75297 0
M  V30 4627 C 437.168 3.54343 -0.466485 0
M  V30 4628 C 436.834 4.10993 -1.85461 0
M  V30 4629 C 435.496 4.26177 -2.23443 0
M  V30 4630 C 437.848 4.41895 -2.76366 0
M  V30 4631 C 435.176 4.69573 -3.51736 0
M  V30 4632 C 437.528 4.86722 -4.04084 0
M  V30 4633 C 436.192 5.00112 -4.42091 0
M  V30 4634 H 435.462 0.729306 -0.131126 0
M  V30 4635 H 438.109 1.63068 -1.00404 0
M  V30 4636 H 436.414 3.90918 0.262719 0
M  V30 4637 H 438.111 4.00833 -0.115854 0
M  V30 4638 H 434.701 3.99612 -1.54946 0
M  V30 4639 H 438.885 4.29735 -2.48277 0
M  V30 4640 H 434.141 4.78127 -3.81057 0
M  V30 4641 H 438.315 5.09598 -4.7464 0
M  V30 4642 H 435.942 5.33498 -5.41557 0
M  V30 4643 N 437.518 0.538854 1.48102 0
M  V30 4644 C 438.766 0.00798599 2.02098 0
M  V30 4645 C 439.087 -1.33922 1.41739 0
M  V30 4646 O 438.357 -1.86932 0.585934 0
M  V30 4647 H 436.937 -3.62179e-05 0.747 0
M  V30 4648 H 439.599 0.7047 1.81714 0
M  V30 4649 H 438.695 -0.0937672 3.11959 0
M  V30 4650 N 438.996 -1.55193 0.274407 0
M  V30 4651 C 440.221 -2.04446 -0.348824 0
M  V30 4652 C 440.646 -1.15149 -1.48735 0
M  V30 4653 O 440.004 -0.149952 -1.80679 0
M  V30 4654 C 440.052 -3.51431 -0.808009 0
M  V30 4655 O 439.156 -3.65225 -1.91531 0
M  V30 4656 H 438.497 -0.66006 -0.0722276 0
M  V30 4657 H 441.027 -2.00481 0.408498 0
M  V30 4658 H 441.037 -3.92781 -1.10395 0
M  V30 4659 H 439.712 -4.15892 0.0249865 0
M  V30 4660 H 438.289 -3.35778 -1.62196 0
M  V30 4661 N 440.474 -0.00167713 -1.576 0
M  V30 4662 C 441.704 0.692754 -1.94639 0
M  V30 4663 C 442.112 1.67744 -0.87513 0
M  V30 4664 O 441.455 1.8305 0.154382 0
M  V30 4665 C 441.517 1.47881 -3.27676 0
M  V30 4666 C 441.181 0.655518 -4.52274 0
M  V30 4667 C 442.178 -0.0575214 -5.19868 0
M  V30 4668 C 439.863 0.600994 -4.98692 0
M  V30 4669 C 441.857 -0.814052 -6.3218 0
M  V30 4670 C 439.544 -0.15926 -6.10892 0
M  V30 4671 C 440.542 -0.865515 -6.77494 0
M  V30 4672 O 440.23 -1.61336 -7.87544 0
M  V30 4673 H 439.962 0.197792 -0.646417 0
M  V30 4674 H 442.516 -0.049423 -2.05341 0
M  V30 4675 H 440.746 2.2655 -3.13388 0
M  V30 4676 H 442.435 2.05874 -3.49816 0
M  V30 4677 H 443.201 -0.0245611 -4.84994 0
M  V30 4678 H 439.08 1.14025 -4.46676 0
M  V30 4679 H 442.624 -1.36584 -6.84098 0
M  V30 4680 H 438.521 -0.194035 -6.45208 0
M  V30 4681 H 439.289 -1.53025 -8.04068 0
M  V30 4682 N 441.952 1.55251 0.271103 0
M  V30 4683 C 442.915 1.87484 1.31842 0
M  V30 4684 C 443.915 0.749545 1.42262 0
M  V30 4685 O 445.105 1.01771 1.4138 0
M  V30 4686 C 442.237 2.0818 2.69951 0
M  V30 4687 H 443.43 2.81108 1.0449 0
M  V30 4688 H 440.983 1.47771 0.509258 0
M  V30 4689 H 441.718 1.16944 3.02481 0
M  V30 4690 H 441.503 2.90114 2.63774 0
M  V30 4691 H 442.993 2.34385 3.4562 0
M  V30 4692 N 443.43 -0.535701 1.48216 0
M  V30 4693 C 444.707 -1.29683 1.46429 0
M  V30 4694 C 445.087 -2.10391 0.172852 0
M  V30 4695 O 444.435 -2.12282 -0.845488 0
M  V30 4696 C 444.645 -2.18313 2.72287 0
M  V30 4697 C 445.993 -2.78639 3.20383 0
M  V30 4698 O 447.017 -2.28604 2.73164 0
M  V30 4699 O 445.876 -3.69636 4.02531 0
M  V30 4700 H 442.97 -0.585026 0.584529 0
M  V30 4701 H 445.516 -0.552827 1.60443 0
M  V30 4702 H 444.288 -1.58421 3.57797 0
M  V30 4703 H 443.911 -2.99971 2.60966 0
M  V30 4704 N 444.908 -1.36708 -0.784132 0
M  V30 4705 C 445.871 -1.31307 -1.87859 0
M  V30 4706 C 446.871 -0.219654 -1.59293 0
M  V30 4707 O 448.061 -0.47476 -1.67606 0
M  V30 4708 C 445.193 -1.03679 -3.24751 0
M  V30 4709 H 446.386 -2.28647 -1.94064 0
M  V30 4710 H 443.939 -1.21558 -0.98252 0
M  V30 4711 H 444.674 -0.0681936 -3.24228 0
M  V30 4712 H 444.459 -1.82811 -3.46876 0
M  V30 4713 H 445.949 -1.02518 -4.04821 0
M  V30 4714 N 446.386 1.0089 -1.21074 0
M  V30 4715 C 447.316 2.1145 -0.990523 0
M  V30 4716 C 448.297 1.69897 0.0831699 0
M  V30 4717 O 449.482 1.94052 -0.0758853 0
M  V30 4718 C 446.612 3.42914 -0.550177 0
M  V30 4719 C 445.566 3.98244 -1.56799 0
M  V30 4720 C 444.892 5.25568 -0.984013 0
M  V30 4721 C 446.192 4.30752 -2.95381 0
M  V30 4722 H 447.886 2.3013 -1.91521 0
M  V30 4723 H 445.432 1.10592 -0.92225 0
M  V30 4724 H 447.385 4.19653 -0.383305 0
M  V30 4725 H 446.109 3.24014 0.41015 0
M  V30 4726 H 444.768 3.23621 -1.72236 0
M  V30 4727 H 444.416 5.02998 -0.0155216 0
M  V30 4728 H 444.116 5.63551 -1.66384 0
M  V30 4729 H 445.64 6.04955 -0.828378 0
M  V30 4730 H 447.054 4.98349 -2.8341 0
M  V30 4731 H 445.451 4.79869 -3.60341 0
M  V30 4732 H 446.521 3.39192 -3.46521 0
M  V30 4733 N 447.864 1.01787 1.20321 0
M  V30 4734 C 449.11 0.718699 1.90279 0
M  V30 4735 C 449.465 -0.743669 1.77447 0
M  V30 4736 O 448.758 -1.53345 1.14874 0
M  V30 4737 C 448.952 1.09076 3.40349 0
M  V30 4738 C 448.781 2.58775 3.67784 0
M  V30 4739 C 447.551 3.25578 3.86428 0
M  V30 4740 C 449.749 3.56966 3.70243 0
M  V30 4741 N 447.731 4.64495 4.01395 0
M  V30 4742 C 449.102 4.8145 3.90649 0
M  V30 4743 C 451.157 3.5092 3.53213 0
M  V30 4744 C 449.86 6.00619 3.95789 0
M  V30 4745 C 451.886 4.69493 3.59625 0
M  V30 4746 C 451.248 5.92786 3.80505 0
M  V30 4747 H 447.347 0.31468 0.715891 0
M  V30 4748 H 449.931 1.30295 1.44677 0
M  V30 4749 H 448.102 0.534839 3.847 0
M  V30 4750 H 449.834 0.744997 3.97784 0
M  V30 4751 H 446.589 2.76003 3.84862 0
M  V30 4752 H 447.013 5.36624 4.12752 0
M  V30 4753 H 451.655 2.56593 3.36035 0
M  V30 4754 H 449.373 6.95326 4.11762 0
M  V30 4755 H 452.959 4.66432 3.47754 0
M  V30 4756 H 451.839 6.83003 3.85327 0
M  V30 4757 N 449.342 -1.36122 0.79427 0
M  V30 4758 C 450.588 -1.99846 0.378542 0
M  V30 4759 C 450.943 -1.61898 -1.03955 0
M  V30 4760 O 450.236 -0.866013 -1.70912 0
M  V30 4761 C 450.43 -3.5409 0.48527 0
M  V30 4762 C 450.259 -4.0702 1.91219 0
M  V30 4763 C 449.029 -4.36944 2.53787 0
M  V30 4764 C 451.227 -4.26435 2.87502 0
M  V30 4765 N 449.209 -4.75727 3.88017 0
M  V30 4766 C 450.58 -4.68077 4.06576 0
M  V30 4767 C 452.635 -4.08616 2.84495 0
M  V30 4768 C 451.338 -4.93765 5.23057 0
M  V30 4769 C 453.364 -4.35453 4.00169 0
M  V30 4770 C 452.726 -4.77355 5.17988 0
M  V30 4771 H 448.825 -0.759549 0.186034 0
M  V30 4772 H 451.409 -1.65043 1.0329 0
M  V30 4773 H 449.58 -3.88151 -0.139023 0
M  V30 4774 H 451.312 -4.04675 0.0453192 0
M  V30 4775 H 448.067 -4.26822 2.05231 0
M  V30 4776 H 448.491 -4.99396 4.57092 0
M  V30 4777 H 453.133 -3.75373 1.94564 0
M  V30 4778 H 450.851 -5.25887 6.1357 0
M  V30 4779 H 454.437 -4.2323 3.99208 0
M  V30 4780 H 453.317 -4.97718 6.06008 0
M  V30 4781 N 450.82 -0.546701 -1.47814 0
M  V30 4782 C 452.068 -0.0187037 -2.02091 0
M  V30 4783 C 452.389 1.33168 -1.42447 0
M  V30 4784 O 451.659 1.86619 -0.595839 0
M  V30 4785 H 450.239 -0.00392531 -0.74699 0
M  V30 4786 H 452.901 -0.714327 -1.81338 0
M  V30 4787 H 451.997 0.0772219 -3.12004 0
M  V30 4788 N 452.299 1.55045 -0.282633 0
M  V30 4789 C 453.545 2.00056 0.332481 0
M  V30 4790 C 453.878 1.1708 1.54939 0
M  V30 4791 O 453.153 0.2427 1.9298 0
M  V30 4792 C 453.436 3.53086 0.70725 0
M  V30 4793 C 453.289 4.46813 -0.517521 0
M  V30 4794 C 454.608 4.12245 1.54084 0
M  V30 4795 H 451.727 0.727268 0.119373 0
M  V30 4796 H 454.369 1.85932 -0.391076 0
M  V30 4797 H 452.519 3.65253 1.32372 0
M  V30 4798 H 454.191 4.46579 -1.15607 0
M  V30 4799 H 452.434 4.18163 -1.1542 0
M  V30 4800 H 453.105 5.51595 -0.211426 0
M  V30 4801 H 455.581 4.03401 1.02013 0
M  V30 4802 H 454.457 5.19515 1.77186 0
M  V30 4803 H 454.718 3.62951 2.52427 0
M  V30 4804 N 453.777 0.010035 1.57597 0
M  V30 4805 C 455.023 -0.673697 1.91283 0
M  V30 4806 C 455.356 -1.72863 0.884979 0
M  V30 4807 O 454.631 -1.94268 -0.0949487 0
M  V30 4808 C 454.914 -1.30766 3.35518 0
M  V30 4809 C 454.767 -0.263578 4.49027 0
M  V30 4810 C 456.086 -2.23105 3.79358 0
M  V30 4811 H 453.205 -0.243439 0.695634 0
M  V30 4812 H 455.847 0.0633864 1.89894 0
M  V30 4813 H 453.997 -1.93588 3.36832 0
M  V30 4814 H 455.669 0.365738 4.59848 0
M  V30 4815 H 453.912 0.413077 4.31829 0
M  V30 4816 H 454.583 -0.746398 5.4693 0
M  V30 4817 H 457.059 -1.70289 3.79659 0
M  V30 4818 H 455.935 -2.64424 4.81011 0
M  V30 4819 H 456.196 -3.11433 3.13787 0
M  V30 4820 N 455.255 -1.55392 -0.262866 0
M  V30 4821 C 456.483 -1.80513 -1.01108 0
M  V30 4822 C 456.898 -0.583533 -1.79556 0
M  V30 4823 O 456.255 0.447585 -1.76926 0
M  V30 4824 C 456.306 -3.03648 -1.96164 0
M  V30 4825 O 456.027 -4.2109 -1.20893 0
M  V30 4826 C 457.528 -3.41448 -2.82715 0
M  V30 4827 H 454.748 -0.601079 -0.298236 0
M  V30 4828 H 457.292 -2.02425 -0.290582 0
M  V30 4829 H 455.447 -2.83832 -2.63663 0
M  V30 4830 H 455.861 -4.90771 -1.85051 0
M  V30 4831 H 457.335 -4.30751 -3.45192 0
M  V30 4832 H 457.812 -2.61308 -3.53008 0
M  V30 4833 H 458.418 -3.63559 -2.20693 0
M  V30 4834 N 456.733 0.527833 -1.48498 0
M  V30 4835 C 457.979 1.28545 -1.56857 0
M  V30 4836 C 458.312 1.92678 -0.242651 0
M  V30 4837 O 457.587 1.79394 0.751545 0
M  V30 4838 C 457.87 2.37314 -2.70839 0
M  V30 4839 C 457.723 1.77858 -4.13142 0
M  V30 4840 C 459.042 3.39068 -2.80573 0
M  V30 4841 H 456.161 0.466006 -0.570971 0
M  V30 4842 H 458.803 0.587784 -1.8068 0
M  V30 4843 H 456.953 2.96821 -2.50658 0
M  V30 4844 H 458.625 1.22385 -4.44769 0
M  V30 4845 H 456.868 1.08383 -4.20042 0
M  V30 4846 H 457.539 2.56624 -4.88721 0
M  V30 4847 H 460.015 2.89518 -2.98862 0
M  V30 4848 H 458.891 4.12566 -3.6205 0
M  V30 4849 H 459.152 3.9975 -1.88818 0
M  V30 4850 N 458.211 1.37122 0.776871 0
M  V30 4851 C 459.439 1.3523 1.5659 0
M  V30 4852 C 459.854 -0.0635518 1.88693 0
M  V30 4853 O 459.211 -1.02394 1.51069 0
M  V30 4854 C 459.262 2.18583 2.8793 0
M  V30 4855 O 458.983 3.5465 2.57206 0
M  V30 4856 C 460.484 2.24612 3.82183 0
M  V30 4857 H 457.704 0.4634 0.485285 0
M  V30 4858 H 460.248 1.80392 0.963266 0
M  V30 4859 H 458.403 1.76943 3.4463 0
M  V30 4860 H 458.817 3.98286 3.41275 0
M  V30 4861 H 460.291 2.87267 4.71361 0
M  V30 4862 H 460.768 1.25309 4.20944 0
M  V30 4863 H 461.374 2.66543 3.31414 0
M  V30 4864 N 459.689 -1.00246 1.21608 0
M  V30 4865 C 460.917 -1.77631 1.06089 0
M  V30 4866 C 461.332 -1.84746 -0.38916 0
M  V30 4867 O 460.689 -1.31068 -1.26994 0
M  V30 4868 C 460.74 -3.21415 1.65453 0
M  V30 4869 O 460.461 -3.14703 3.04785 0
M  V30 4870 C 461.962 -4.15289 1.55079 0
M  V30 4871 H 459.182 -0.558162 0.37242 0
M  V30 4872 H 461.726 -1.26093 1.60999 0
M  V30 4873 H 459.881 -3.70053 1.14629 0
M  V30 4874 H 460.295 -4.05056 3.33212 0
M  V30 4875 H 461.769 -5.13965 2.01355 0
M  V30 4876 H 462.246 -4.36279 0.505665 0
M  V30 4877 H 462.852 -3.72543 2.05163 0
M  V30 4878 N 461.167 -1.02423 -1.1978 0
M  V30 4879 C 462.416 -0.713265 -1.88667 0
M  V30 4880 C 462.729 0.7609 -1.80193 0
M  V30 4881 O 463.935 1.18473 -2.44288 0
M  V30 4882 C 462.391 -1.22545 -3.38394 0
M  V30 4883 C 461.999 -2.72706 -3.55437 0
M  V30 4884 C 463.743 -0.990257 -4.12788 0
M  V30 4885 C 461.65 -3.17367 -4.99031 0
M  V30 4886 H 460.58 -0.263105 -0.706606 0
M  V30 4887 H 463.231 -1.23792 -1.35454 0
M  V30 4888 H 461.613 -0.628732 -3.90977 0
M  V30 4889 H 462.787 -3.37993 -3.13205 0
M  V30 4890 H 461.102 -2.94453 -2.94425 0
M  V30 4891 H 463.699 -1.29926 -5.18675 0
M  V30 4892 H 464.042 0.0730761 -4.16236 0
M  V30 4893 H 464.575 -1.55074 -3.66329 0
M  V30 4894 H 461.314 -4.23009 -5.00743 0
M  V30 4895 H 460.834 -2.56805 -5.42044 0
M  V30 4896 H 462.513 -3.10441 -5.67658 0
M  V30 4897 N 462.645 1.35699 -0.801477 0
M  V30 4898 C 463.893 1.9852 -0.37871 0
M  V30 4899 C 464.214 1.63907 1.05638 0
M  V30 4900 O 463.484 0.919013 1.73006 0
M  V30 4901 H 462.064 0.734322 -0.137042 0
M  V30 4902 H 464.726 1.65697 -1.02619 0
M  V30 4903 H 463.822 3.08382 -0.480284 0
M  V30 4904 N 464.123 0.554532 1.47522 0
M  V30 4905 C 465.353 0.0342074 2.06572 0
M  V30 4906 C 465.761 -1.26375 1.40805 0
M  V30 4907 O 465.104 -1.7683 0.49769 0
M  V30 4908 C 465.166 -0.235096 3.5873 0
M  V30 4909 C 464.83 0.973024 4.46521 0
M  V30 4910 C 465.827 1.8779 4.848 0
M  V30 4911 C 463.512 1.18694 4.88075 0
M  V30 4912 C 465.506 2.98039 5.63428 0
M  V30 4913 C 463.193 2.29254 5.66468 0
M  V30 4914 C 464.191 3.18757 6.04055 0
M  V30 4915 O 463.879 4.27401 6.8087 0
M  V30 4916 H 463.611 0.041587 0.67472 0
M  V30 4917 H 466.165 0.766748 1.90552 0
M  V30 4918 H 464.395 -1.02191 3.72953 0
M  V30 4919 H 466.084 -0.700477 3.9981 0
M  V30 4920 H 466.85 1.72467 4.53299 0
M  V30 4921 H 462.729 0.49947 4.58286 0
M  V30 4922 H 466.273 3.67926 5.92685 0
M  V30 4923 H 462.17 2.4455 5.97382 0
M  V30 4924 H 462.938 4.25415 6.9926 0
M  V30 4925 N 465.601 -1.54893 0.290851 0
M  V30 4926 C 466.849 -1.99538 -0.320756 0
M  V30 4927 C 467.17 -1.18075 -1.55188 0
M  V30 4928 O 466.44 -0.274162 -1.93972 0
M  V30 4929 H 465.02 -0.737052 -0.121507 0
M  V30 4930 H 467.682 -1.90755 0.399832 0
M  V30 4931 H 466.778 -3.06282 -0.599802 0
M  V30 4932 N 467.08 -0.0183926 -1.57589 0
M  V30 4933 C 468.357 0.700621 -1.82622 0
M  V30 4934 C 468.737 1.90951 -0.90005 0
M  V30 4935 O 468.085 2.28452 0.0469145 0
M  V30 4936 C 468.295 1.08899 -3.31575 0
M  V30 4937 C 469.643 1.48514 -3.9778 0
M  V30 4938 O 470.667 1.18227 -3.36007 0
M  V30 4939 O 469.526 2.04903 -5.06633 0
M  V30 4940 H 466.62 0.342743 -0.752633 0
M  V30 4941 H 469.166 -0.0452548 -1.6964 0
M  V30 4942 H 467.938 0.228113 -3.90635 0
M  V30 4943 H 467.561 1.89338 -3.49624 0
M  V30 4944 N 468.558 1.5553 0.254621 0
M  V30 4945 C 469.505 1.89666 1.31512 0
M  V30 4946 C 470.475 0.750057 1.482 0
M  V30 4947 O 471.66 1.00301 1.62309 0
M  V30 4948 C 468.8 2.19009 2.667 0
M  V30 4949 C 467.913 3.46435 2.58083 0
M  V30 4950 C 467.048 3.65386 3.85573 0
M  V30 4951 C 466.087 4.8644 3.71541 0
M  V30 4952 N 465.224 5.01952 4.90906 0
M  V30 4953 H 470.064 2.80109 1.017 0
M  V30 4954 H 467.601 1.38666 0.490938 0
M  V30 4955 H 469.559 2.34025 3.45381 0
M  V30 4956 H 468.189 1.31779 2.94676 0
M  V30 4957 H 467.241 3.39792 1.71013 0
M  V30 4958 H 468.553 4.35258 2.43622 0
M  V30 4959 H 467.707 3.80319 4.72697 0
M  V30 4960 H 466.446 2.74781 4.02922 0
M  V30 4961 H 465.451 4.71491 2.82801 0
M  V30 4962 H 466.676 5.78497 3.55694 0
M  V30 4963 H 464.622 4.14283 5.08631 0
M  V30 4964 H 464.539 5.84851 4.79046 0
M  V30 4965 H 465.807 5.21289 5.7955 0
M  V30 4966 N 470.036 -0.519951 1.48776 0
M  V30 4967 C 471.282 -1.27711 1.57536 0
M  V30 4968 C 471.615 -1.92547 0.252866 0
M  V30 4969 O 470.89 -1.7979 -0.742021 0
M  V30 4970 C 471.173 -2.35875 2.72094 0
M  V30 4971 C 471.026 -1.75664 4.1408 0
M  V30 4972 C 472.345 -3.37575 2.82367 0
M  V30 4973 H 469.464 -0.462971 0.573434 0
M  V30 4974 H 472.106 -0.578194 1.80989 0
M  V30 4975 H 470.256 -2.95488 2.52228 0
M  V30 4976 H 471.928 -1.20025 4.45412 0
M  V30 4977 H 470.171 -1.06154 4.20611 0
M  V30 4978 H 470.842 -2.54029 4.90075 0
M  V30 4979 H 473.318 -2.87929 3.00393 0
M  V30 4980 H 472.194 -4.1064 3.64233 0
M  V30 4981 H 472.455 -3.98743 1.90936 0
M  V30 4982 N 471.514 -1.37532 -0.769588 0
M  V30 4983 C 472.925 -1.29382 -1.346 0
M  V30 4984 C 473.276 0.0576039 -1.96115 0
M  V30 4985 O 472.401 0.95947 -1.93967 0
M  V30 4986 C 472.996 -2.34298 -2.44724 0
M  V30 4987 C 471.555 -2.29776 -2.98128 0
M  V30 4988 C 470.702 -2.18013 -1.71364 0
M  V30 4989 H 473.653 -1.48123 -0.56968 0
M  V30 4990 H 473.674 -1.99089 -3.24259 0
M  V30 4991 H 473.186 -3.32645 -1.99922 0
M  V30 4992 H 471.287 -1.34959 -3.47299 0
M  V30 4993 H 471.4 -3.23276 -3.53595 0
M  V30 4994 H 469.764 -1.64595 -1.94372 0
M  V30 4995 H 470.547 -3.18278 -1.28662 0
M  V30 4996 N 472.992 0.995999 -1.22138 0
M  V30 4997 C 473.924 2.08745 -0.946485 0
M  V30 4998 C 474.937 1.62633 0.0737356 0
M  V30 4999 O 476.126 1.77782 -0.159886 0
M  V30 5000 C 473.226 3.36516 -0.401305 0
M  V30 5001 C 472.399 4.11672 -1.47801 0
M  V30 5002 C 471.458 5.17728 -0.940461 0
M  V30 5003 O 470.484 5.45482 -1.62596 0
M  V30 5004 N 471.686 5.80005 0.239723 0
M  V30 5005 H 474.451 2.32908 -1.88611 0
M  V30 5006 H 472.012 1.16152 -1.12785 0
M  V30 5007 H 474.004 4.04691 -0.0270837 0
M  V30 5008 H 472.574 3.0944 0.443354 0
M  V30 5009 H 471.794 3.38171 -2.02568 0
M  V30 5010 H 473.082 4.58657 -2.20253 0
M  V30 5011 H 472.48 5.5982 0.813518 0
M  V30 5012 H 471.037 6.4943 0.555361 0
M  V30 5013 N 474.47 1.03057 1.19235 0
M  V30 5014 C 475.698 0.747697 1.92917 0
M  V30 5015 C 476.113 -0.69372 1.75593 0
M  V30 5016 O 475.47 -1.47191 1.07894 0
M  V30 5017 C 475.521 1.09159 3.44625 0
M  V30 5018 O 475.242 2.47641 3.61394 0
M  V30 5019 C 476.743 0.831763 4.35427 0
M  V30 5020 H 473.963 0.273453 0.612751 0
M  V30 5021 H 476.507 1.37552 1.51327 0
M  V30 5022 H 474.662 0.508919 3.84043 0
M  V30 5023 H 475.076 2.60499 4.55237 0
M  V30 5024 H 476.55 1.12233 5.4047 0
M  V30 5025 H 477.027 -0.233769 4.38577 0
M  V30 5026 H 477.633 1.39725 4.01693 0
M  V30 5027 N 475.948 -1.35272 0.808662 0
M  V30 5028 C 477.194 -1.99434 0.399717 0
M  V30 5029 C 477.549 -1.62992 -1.02232 0
M  V30 5030 O 476.842 -0.884091 -1.69983 0
M  V30 5031 C 477.036 -3.53556 0.522798 0
M  V30 5032 C 476.865 -4.04969 1.95525 0
M  V30 5033 C 475.635 -4.34228 2.58407 0
M  V30 5034 C 477.833 -4.23362 2.92009 0
M  V30 5035 N 475.815 -4.71585 3.93041 0
M  V30 5036 C 477.186 -4.63739 4.11517 0
M  V30 5037 C 479.241 -4.05576 2.88813 0
M  V30 5038 C 477.944 -4.88189 5.28265 0
M  V30 5039 C 479.97 -4.31184 4.04765 0
M  V30 5040 C 479.332 -4.71834 5.23022 0
M  V30 5041 H 475.431 -0.757534 0.19408 0
M  V30 5042 H 478.015 -1.63939 1.05034 0
M  V30 5043 H 476.186 -3.88277 -0.0978471 0
M  V30 5044 H 477.918 -4.04604 0.0882378 0
M  V30 5045 H 474.673 -4.24621 2.09747 0
M  V30 5046 H 475.097 -4.9452 4.62363 0
M  V30 5047 H 479.739 -3.73288 1.98535 0
M  V30 5048 H 477.457 -5.1935 6.19113 0
M  V30 5049 H 481.043 -4.18972 4.03675 0
M  V30 5050 H 479.923 -4.91263 6.11253 0
M  V30 5051 N 477.426 -0.562348 -1.47226 0
M  V30 5052 C 478.672 -0.0402761 -2.0276 0
M  V30 5053 C 479.005 1.30823 -1.43523 0
M  V30 5054 O 478.28 1.85249 -0.592705 0
M  V30 5055 C 478.563 0.047311 -3.60069 0
M  V30 5056 C 478.416 -1.32865 -4.29729 0
M  V30 5057 C 479.735 0.758182 -4.3352 0
M  V30 5058 H 476.854 -0.0161105 -0.736824 0
M  V30 5059 H 479.496 -0.725628 -1.75598 0
M  V30 5060 H 477.646 0.630986 -3.83342 0
M  V30 5061 H 479.318 -1.95593 -4.17781 0
M  V30 5062 H 477.561 -1.90195 -3.89882 0
M  V30 5063 H 478.232 -1.22004 -5.38349 0
M  V30 5064 H 480.708 0.262546 -4.15271 0
M  V30 5065 H 479.584 0.78844 -5.43208 0
M  V30 5066 H 479.845 1.81537 -4.03109 0
M  V30 5067 N 478.904 1.54736 -0.299062 0
M  V30 5068 C 480.152 1.99706 0.31017 0
M  V30 5069 C 480.473 1.18896 1.54559 0
M  V30 5070 O 479.743 0.284445 1.93824 0
M  V30 5071 H 478.323 0.737686 0.117596 0
M  V30 5072 H 480.985 1.9054 -0.409943 0
M  V30 5073 H 480.081 3.06596 0.58355 0
M  V30 5074 N 480.382 0.0267497 1.57577 0
M  V30 5075 C 481.329 -0.955894 2.10075 0
M  V30 5076 C 482.299 -1.32453 1.00226 0
M  V30 5077 O 483.484 -1.41826 1.27632 0
M  V30 5078 C 480.624 -2.2338 2.6305 0
M  V30 5079 C 479.737 -1.92183 3.86898 0
M  V30 5080 C 478.872 -3.14251 4.28275 0
M  V30 5081 C 477.911 -2.78862 5.44888 0
M  V30 5082 N 477.048 -3.93548 5.81433 0
M  V30 5083 H 481.888 -0.501303 2.93753 0
M  V30 5084 H 479.425 -0.235847 1.45197 0
M  V30 5085 H 481.383 -2.98124 2.91853 0
M  V30 5086 H 480.013 -2.6646 1.82205 0
M  V30 5087 H 479.065 -1.07692 3.64838 0
M  V30 5088 H 480.377 -1.62117 4.7172 0
M  V30 5089 H 479.531 -3.97317 4.58502 0
M  V30 5090 H 478.27 -3.47476 3.42215 0
M  V30 5091 H 477.275 -1.94208 5.14357 0
M  V30 5092 H 478.5 -2.46855 6.32645 0
M  V30 5093 H 476.446 -4.2662 4.98328 0
M  V30 5094 H 476.363 -3.67098 6.6089 0
M  V30 5095 H 477.631 -4.77325 6.16264 0
M  V30 5096 N 481.861 -1.55662 -0.24637 0
M  V30 5097 C 483.089 -1.81575 -0.991876 0
M  V30 5098 C 483.504 -0.602545 -1.78927 0
M  V30 5099 O 482.861 0.428795 -1.77391 0
M  V30 5100 C 482.912 -3.05711 -1.92933 0
M  V30 5101 O 482.633 -4.22348 -1.1642 0
M  V30 5102 C 484.134 -3.44428 -2.79078 0
M  V30 5103 H 481.354 -0.604209 -0.291844 0
M  V30 5104 H 483.898 -2.02722 -0.269095 0
M  V30 5105 H 482.053 -2.86612 -2.60638 0
M  V30 5106 H 482.467 -4.92706 -1.79835 0
M  V30 5107 H 483.941 -4.34388 -3.40603 0
M  V30 5108 H 484.418 -2.65037 -3.50217 0
M  V30 5109 H 485.024 -3.65879 -2.16824 0
M  V30 5110 N 483.339 0.512053 -1.4905 0
M  V30 5111 C 484.588 1.26343 -1.57227 0
M  V30 5112 C 484.901 1.93876 -0.259155 0
M  V30 5113 O 486.107 2.70612 -0.219358 0
M  V30 5114 C 484.563 2.29343 -2.77362 0
M  V30 5115 C 484.171 1.67799 -4.15388 0
M  V30 5116 C 485.915 3.05378 -2.94864 0
M  V30 5117 C 483.822 2.68845 -5.2676 0
M  V30 5118 H 482.752 0.475231 -0.585382 0
M  V30 5119 H 485.403 0.53862 -1.75417 0
M  V30 5120 H 483.785 3.04938 -2.52643 0
M  V30 5121 H 484.959 0.982715 -4.50199 0
M  V30 5122 H 483.274 1.04194 -4.03153 0
M  V30 5123 H 485.871 3.80921 -3.75238 0
M  V30 5124 H 486.214 3.62327 -2.05 0
M  V30 5125 H 486.747 2.36898 -3.19569 0
M  V30 5126 H 483.486 2.16692 -6.18647 0
M  V30 5127 H 483.006 3.36647 -4.96416 0
M  V30 5128 H 484.685 3.31487 -5.5563 0
M  V30 5129 N 484.817 1.37938 0.762283 0
M  V30 5130 C 485.78 1.34279 1.85747 0
M  V30 5131 C 486.78 0.244969 1.58923 0
M  V30 5132 O 487.97 0.501365 1.66829 0
M  V30 5133 C 485.102 1.08833 3.23061 0
M  V30 5134 H 486.295 2.31705 1.90401 0
M  V30 5135 H 483.848 1.23105 0.963057 0
M  V30 5136 H 484.583 0.119767 3.24079 0
M  V30 5137 H 484.368 1.88306 3.43923 0
M  V30 5138 H 485.858 1.08946 4.03138 0
M  V30 5139 N 486.295 -0.989507 1.22664 0
M  V30 5140 C 487.52 -1.77031 1.08051 0
M  V30 5141 C 487.945 -1.84535 -0.364483 0
M  V30 5142 O 487.303 -1.3003 -1.2634 0
M  V30 5143 C 487.351 -3.18 1.70024 0
M  V30 5144 O 486.455 -4.01161 0.956216 0
M  V30 5145 H 485.796 -0.545008 0.379292 0
M  V30 5146 H 488.326 -1.24277 1.62531 0
M  V30 5147 H 488.336 -3.68616 1.74888 0
M  V30 5148 H 487.011 -3.11853 2.75174 0
M  V30 5149 H 485.588 -3.59687 0.98384 0
M  V30 5150 N 487.773 -1.03688 -1.18687 0
M  V30 5151 C 489.013 -0.746858 -1.90267 0
M  V30 5152 C 489.377 0.712075 -1.78307 0
M  V30 5153 O 490.578 1.11553 -2.44559 0
M  V30 5154 C 488.849 -1.19543 -3.36815 0
M  V30 5155 S 490.408 -1.03047 -4.26529 0
M  V30 5156 H 487.226 -0.271663 -0.657054 0
M  V30 5157 H 489.828 -1.32838 -1.43437 0
M  V30 5158 H 488.532 -2.2527 -3.43047 0
M  V30 5159 H 488.063 -0.607533 -3.88681 0
M  V30 5160 H 490.078 0.0543232 -4.9617 0
M  V30 5161 N 489.251 1.34841 -0.815825 0
M  V30 5162 C 490.498 1.98499 -0.400535 0
M  V30 5163 C 490.826 1.64699 1.03463 0
M  V30 5164 O 490.081 0.907006 1.73412 0
M  V30 5165 C 490.38 3.53273 -0.541541 0
M  V30 5166 C 490.046 4.06966 -1.94138 0
M  V30 5167 C 488.708 4.21341 -2.32433 0
M  V30 5168 C 491.06 4.35933 -2.85677 0
M  V30 5169 C 488.388 4.62007 -3.61617 0
M  V30 5170 C 490.74 4.78042 -4.14317 0
M  V30 5171 C 489.404 4.90622 -4.52599 0
M  V30 5172 H 488.674 0.72636 -0.146566 0
M  V30 5173 H 491.321 1.60902 -1.0384 0
M  V30 5174 H 489.626 3.91387 0.179741 0
M  V30 5175 H 491.323 4.00497 -0.20085 0
M  V30 5176 H 487.913 3.96235 -1.63388 0
M  V30 5177 H 492.097 4.24372 -2.57337 0
M  V30 5178 H 487.353 4.69937 -3.91113 0
M  V30 5179 H 491.527 4.99415 -4.85342 0
M  V30 5180 H 489.154 5.2189 -5.52752 0
M  V30 5181 N 490.729 0.570148 1.46925 0
M  V30 5182 C 491.954 0.0542592 2.07329 0
M  V30 5183 C 492.379 -1.23582 1.41806 0
M  V30 5184 O 491.737 -1.74341 0.497479 0
M  V30 5185 C 491.785 -0.111175 3.60429 0
M  V30 5186 O 490.889 -1.17071 3.95434 0
M  V30 5187 H 490.23 0.0571425 0.661537 0
M  V30 5188 H 492.76 0.789516 1.88753 0
M  V30 5189 H 492.77 -0.321315 4.06733 0
M  V30 5190 H 491.445 0.831012 4.07513 0
M  V30 5191 H 490.022 -0.940029 3.60857 0
M  V30 5192 N 492.207 -1.54576 0.307264 0
M  V30 5193 C 493.453 -2.0056 -0.300612 0
M  V30 5194 C 493.786 -1.1953 -1.53057 0
M  V30 5195 O 493.061 -0.27337 -1.92569 0
M  V30 5196 C 493.344 -3.54167 -0.650987 0
M  V30 5197 C 493.197 -4.45933 0.588539 0
M  V30 5198 C 494.516 -4.14645 -1.47506 0
M  V30 5199 H 491.635 -0.729075 -0.107788 0
M  V30 5200 H 494.277 -1.85286 0.420606 0
M  V30 5201 H 492.427 -3.67313 -1.26544 0
M  V30 5202 H 494.099 -4.44683 1.22697 0
M  V30 5203 H 492.342 -4.16274 1.22058 0
M  V30 5204 H 493.013 -5.51189 0.299153 0
M  V30 5205 H 495.489 -4.04973 -0.955821 0
M  V30 5206 H 494.365 -5.22269 -1.68899 0
M  V30 5207 H 494.626 -3.66921 -2.4662 0
M  V30 5208 N 493.685 -0.035106 -1.57561 0
M  V30 5209 C 494.932 0.642229 -1.92046 0
M  V30 5210 C 495.26 1.7179 -0.91206 0
M  V30 5211 O 494.515 1.95544 0.0781153 0
M  V30 5212 C 494.814 1.29149 -3.3325 0
M  V30 5213 C 494.48 0.345604 -4.49574 0
M  V30 5214 C 493.142 0.0852775 -4.81124 0
M  V30 5215 C 495.494 -0.303569 -5.20315 0
M  V30 5216 C 492.822 -0.831927 -5.80772 0
M  V30 5217 C 495.174 -1.20886 -6.20942 0
M  V30 5218 C 493.838 -1.47802 -6.50931 0
M  V30 5219 H 493.108 0.235008 -0.702746 0
M  V30 5220 H 495.755 -0.0981529 -1.91248 0
M  V30 5221 H 494.06 2.10676 -3.30337 0
M  V30 5222 H 495.757 1.82223 -3.57205 0
M  V30 5223 H 492.347 0.558683 -4.24943 0
M  V30 5224 H 496.531 -0.115515 -4.96166 0
M  V30 5225 H 491.787 -1.0481 -6.02349 0
M  V30 5226 H 495.961 -1.71804 -6.74875 0
M  V30 5227 H 493.588 -2.19039 -7.2796 0
M  V30 5228 N 495.163 1.55791 0.238111 0
M  V30 5229 C 496.126 1.90239 1.27835 0
M  V30 5230 C 497.126 0.779552 1.4064 0
M  V30 5231 O 498.316 1.04747 1.3919 0
M  V30 5232 C 495.448 2.13859 2.65475 0
M  V30 5233 H 496.641 2.83262 0.985034 0
M  V30 5234 H 494.194 1.48818 0.477799 0
M  V30 5235 H 494.929 1.23334 2.99932 0
M  V30 5236 H 494.714 2.95643 2.57561 0
M  V30 5237 H 496.204 2.41664 3.40571 0
M  V30 5238 N 496.642 -0.504142 1.49319 0
M  V30 5239 C 497.891 -1.25507 1.57895 0
M  V30 5240 C 498.204 -1.93735 0.269433 0
M  V30 5241 O 499.41 -2.70492 0.233706 0
M  V30 5242 C 497.866 -2.27869 2.78574 0
M  V30 5243 C 497.474 -1.65594 4.16272 0
M  V30 5244 C 499.218 -3.0381 2.96479 0
M  V30 5245 C 497.125 -2.66048 5.28178 0
M  V30 5246 H 496.055 -0.47212 0.587894 0
M  V30 5247 H 498.706 -0.52931 1.757 0
M  V30 5248 H 497.088 -3.03594 2.54257 0
M  V30 5249 H 498.262 -0.958826 4.50714 0
M  V30 5250 H 496.577 -1.02055 4.037 0
M  V30 5251 H 499.174 -3.78925 3.77253 0
M  V30 5252 H 499.517 -3.61235 2.06918 0
M  V30 5253 H 500.05 -2.352 3.20821 0
M  V30 5254 H 496.789 -2.13408 6.19788 0
M  V30 5255 H 496.309 -3.34009 4.98195 0
M  V30 5256 H 497.988 -3.28536 5.57381 0
M  V30 5257 N 498.12 -1.38341 -0.754957 0
M  V30 5258 C 499.345 -1.37882 -1.5493 0
M  V30 5259 C 499.77 0.0296385 -1.88077 0
M  V30 5260 O 499.128 1.01133 -1.50472 0
M  V30 5261 C 499.176 -2.23996 -2.82592 0
M  V30 5262 O 498.28 -1.65612 -3.77686 0
M  V30 5263 H 497.621 -0.470384 -0.468652 0
M  V30 5264 H 500.151 -1.82084 -0.933082 0
M  V30 5265 H 500.161 -2.37806 -3.3153 0
M  V30 5266 H 498.836 -3.26365 -2.57796 0
M  V30 5267 H 497.413 -1.60936 -3.36384 0
M  V30 5268 N 499.598 0.982988 -1.23187 0
M  V30 5269 C 500.845 1.72392 -1.06241 0
M  V30 5270 C 501.173 1.9032 0.40108 0
M  V30 5271 O 500.428 1.45084 1.31336 0
M  V30 5272 C 500.727 3.12736 -1.73006 0
M  V30 5273 C 500.393 3.14695 -3.22921 0
M  V30 5274 C 499.055 3.14937 -3.63824 0
M  V30 5275 C 501.407 3.10211 -4.1883 0
M  V30 5276 C 498.735 3.08408 -4.99101 0
M  V30 5277 C 501.087 3.05224 -5.54095 0
M  V30 5278 C 499.751 3.03787 -5.94365 0
M  V30 5279 H 499.021 0.630829 -0.388762 0
M  V30 5280 H 501.668 1.15053 -1.53085 0
M  V30 5281 H 499.973 3.73446 -1.18514 0
M  V30 5282 H 501.67 3.68828 -1.57374 0
M  V30 5283 H 498.26 3.15262 -2.90358 0
M  V30 5284 H 502.444 3.09166 -3.8824 0
M  V30 5285 H 497.7 3.05646 -5.29519 0
M  V30 5286 H 501.874 3.00712 -6.28128 0
M  V30 5287 H 499.501 2.98483 -6.99151 0
M  V30 5288 N 501.076 1.04316 1.18135 0
M  V30 5289 C 502.323 0.74802 1.88178 0
M  V30 5290 C 502.651 -0.72441 1.80506 0
M  V30 5291 O 501.906 -1.54463 1.20165 0
M  V30 5292 C 502.205 1.16271 3.37958 0
M  V30 5293 C 501.871 2.63585 3.65833 0
M  V30 5294 C 500.533 3.03829 3.73151 0
M  V30 5295 C 502.885 3.58822 3.78016 0
M  V30 5296 C 500.213 4.38194 3.90132 0
M  V30 5297 C 502.565 4.92909 3.96514 0
M  V30 5298 C 501.229 5.3282 4.02068 0
M  V30 5299 H 500.499 0.27372 0.688592 0
M  V30 5300 H 503.146 1.30863 1.39811 0
M  V30 5301 H 501.451 0.520938 3.88321 0
M  V30 5302 H 503.148 0.911672 3.90499 0
M  V30 5303 H 499.738 2.31414 3.60757 0
M  V30 5304 H 503.922 3.28875 3.71692 0
M  V30 5305 H 499.178 4.68631 3.92677 0
M  V30 5306 H 503.352 5.66606 4.04883 0
M  V30 5307 H 500.979 6.36943 4.14979 0
M  V30 5308 N 502.554 -1.34406 0.822964 0
M  V30 5309 C 503.517 -2.2783 0.250271 0
M  V30 5310 C 504.517 -1.50288 -0.571854 0
M  V30 5311 O 505.707 -1.69825 -0.387952 0
M  V30 5312 C 502.839 -3.34663 -0.649137 0
M  V30 5313 H 504.032 -2.79992 1.07444 0
M  V30 5314 H 501.585 -1.44539 0.594829 0
M  V30 5315 H 502.32 -2.87714 -1.49637 0
M  V30 5316 H 502.105 -3.92052 -0.0611199 0
M  V30 5317 H 503.595 -4.04349 -1.04363 0
M  V30 5318 N 504.032 -0.577932 -1.46621 0
M  V30 5319 C 504.962 0.145917 -2.33044 0
M  V30 5320 C 505.943 0.888412 -1.45056 0
M  V30 5321 O 507.128 0.864812 -1.73881 0
M  V30 5322 C 504.258 1.16322 -3.27241 0
M  V30 5323 C 503.212 0.535868 -4.24632 0
M  V30 5324 C 502.538 1.65929 -5.08303 0
M  V30 5325 C 503.838 -0.523861 -5.19666 0
M  V30 5326 H 505.532 -0.575636 -2.93814 0
M  V30 5327 H 503.078 -0.278272 -1.41286 0
M  V30 5328 H 505.031 1.67793 -3.86553 0
M  V30 5329 H 503.755 1.91498 -2.64567 0
M  V30 5330 H 502.414 0.0422759 -3.66576 0
M  V30 5331 H 502.062 2.40061 -4.42018 0
M  V30 5332 H 501.762 1.2452 -5.74255 0
M  V30 5333 H 503.286 2.17686 -5.70478 0
M  V30 5334 H 504.7 -0.0944059 -5.73222 0
M  V30 5335 H 503.097 -0.858 -5.93935 0
M  V30 5336 H 504.167 -1.41197 -4.63887 0
M  V30 5337 N 505.51 1.54411 -0.315457 0
M  V30 5338 C 506.921 1.85885 0.174265 0
M  V30 5339 C 507.272 1.23723 1.52273 0
M  V30 5340 O 506.397 0.540246 2.09548 0
M  V30 5341 C 506.992 3.37257 0.322981 0
M  V30 5342 C 505.551 3.68711 0.756922 0
M  V30 5343 C 504.698 2.77013 -0.126195 0
M  V30 5344 H 507.649 1.49374 -0.536007 0
M  V30 5345 H 507.67 3.62539 1.15522 0
M  V30 5346 H 507.182 3.82471 -0.658602 0
M  V30 5347 H 505.283 3.29024 1.74854 0
M  V30 5348 H 505.396 4.75741 0.566291 0
M  V30 5349 H 503.76 2.51588 0.39692 0
M  V30 5350 H 504.543 3.25051 -1.1044 0
M  V30 5351 N 506.988 0.0434614 1.5754 0
M  V30 5352 C 507.951 -0.918696 2.09982 0
M  V30 5353 C 508.951 -1.24488 1.01781 0
M  V30 5354 O 510.141 -1.18284 1.27885 0
M  V30 5355 C 507.273 -2.23093 2.57764 0
M  V30 5356 H 508.466 -0.464229 2.96285 0
M  V30 5357 H 506.019 -0.204818 1.54952 0
M  V30 5358 H 506.754 -2.73137 1.74832 0
M  V30 5359 H 506.539 -2.00724 3.36827 0
M  V30 5360 H 508.029 -2.92028 2.98512 0
M  V30 5361 N 508.466 -1.55915 -0.229846 0
M  V30 5362 C 509.714 -1.7819 -0.953565 0
M  V30 5363 C 510.035 -0.610504 -1.85197 0
M  V30 5364 O 509.305 0.372988 -1.92316 0
M  V30 5365 H 507.885 -0.657208 -0.355087 0
M  V30 5366 H 510.547 -1.9337 -0.243693 0
M  V30 5367 H 509.643 -2.70011 -1.56527 0
M  V30 5368 N 509.944 0.496216 -1.49584 0
M  V30 5369 C 511.193 1.24668 -1.58558 0
M  V30 5370 C 511.506 1.9359 -0.279703 0
M  V30 5371 O 512.712 2.70365 -0.248048 0
M  V30 5372 C 511.168 2.26388 -2.79779 0
M  V30 5373 C 510.776 1.63384 -4.17145 0
M  V30 5374 C 512.52 3.02233 -2.98086 0
M  V30 5375 C 510.427 2.63243 -5.29582 0
M  V30 5376 H 509.357 0.468995 -0.590389 0
M  V30 5377 H 512.008 0.519985 -1.75978 0
M  V30 5378 H 510.39 3.02241 -2.55863 0
M  V30 5379 H 511.564 0.93491 -4.51216 0
M  V30 5380 H 509.879 0.999121 -4.04236 0
M  V30 5381 H 512.476 3.76919 -3.79257 0
M  V30 5382 H 512.819 3.60132 -2.08831 0
M  V30 5383 H 513.352 2.33495 -3.22063 0
M  V30 5384 H 510.091 2.10119 -6.20911 0
M  V30 5385 H 509.611 3.31363 -4.99959 0
M  V30 5386 H 511.29 3.25575 -5.59115 0
M  V30 5387 N 511.423 1.38739 0.74761 0
M  V30 5388 C 512.353 1.39173 1.87492 0
M  V30 5389 C 513.334 0.256794 1.6815 0
M  V30 5390 O 514.519 0.460762 1.88655 0
M  V30 5391 C 511.649 1.22197 3.25093 0
M  V30 5392 C 510.603 2.32957 3.59047 0
M  V30 5393 C 509.929 2.01082 4.95449 0
M  V30 5394 C 511.229 3.75237 3.6331 0
M  V30 5395 H 512.923 2.3351 1.87386 0
M  V30 5396 H 510.469 1.12399 0.900134 0
M  V30 5397 H 512.422 1.21124 4.03617 0
M  V30 5398 H 511.146 0.243241 3.25693 0
M  V30 5399 H 509.805 2.33226 2.82845 0
M  V30 5400 H 509.453 1.01678 4.92616 0
M  V30 5401 H 509.153 2.75267 5.19136 0
M  V30 5402 H 510.677 2.01638 5.76346 0
M  V30 5403 H 512.091 3.76966 4.31937 0
M  V30 5404 H 510.488 4.48677 3.98509 0
M  V30 5405 H 511.558 4.07122 2.634 0
M  V30 5406 N 512.901 -0.976442 1.23707 0
M  V30 5407 C 514.149 -1.71487 1.06942 0
M  V30 5408 C 514.47 -1.9098 -0.393897 0
M  V30 5409 O 513.74 -1.48128 -1.28198 0
M  V30 5410 H 512.32 -0.635425 0.392739 0
M  V30 5411 H 514.982 -1.17515 1.55487 0
M  V30 5412 H 514.078 -2.70286 1.56051 0
M  V30 5413 N 514.379 -1.04941 -1.1758 0
M  V30 5414 C 515.604 -0.778253 -1.92245 0
M  V30 5415 C 516.029 0.659707 -1.76152 0
M  V30 5416 O 515.387 1.45803 -1.07755 0
M  V30 5417 C 515.435 -1.16051 -3.41416 0
M  V30 5418 O 514.539 -0.291153 -4.11371 0
M  V30 5419 H 513.88 -0.285619 -0.599431 0
M  V30 5420 H 516.41 -1.40159 -1.49052 0
M  V30 5421 H 516.42 -1.12619 -3.92149 0
M  V30 5422 H 515.095 -2.208 -3.52449 0
M  V30 5423 H 513.672 -0.385851 -3.70898 0
M  V30 5424 N 515.857 1.33968 -0.830081 0
M  V30 5425 C 517.105 1.97672 -0.420734 0
M  V30 5426 C 517.426 1.66111 1.02138 0
M  V30 5427 O 516.696 0.955503 1.71017 0
M  V30 5428 H 515.276 0.73125 -0.152587 0
M  V30 5429 H 517.938 1.63483 -1.0611 0
M  V30 5430 H 517.034 3.07294 -0.545588 0
M  V30 5431 N 517.335 0.585699 1.46312 0
M  V30 5432 C 518.582 0.0724211 2.0237 0
M  V30 5433 C 518.91 -1.28868 1.45683 0
M  V30 5434 O 518.165 -1.85853 0.612945 0
M  V30 5435 C 518.464 -0.0401312 3.57377 0
M  V30 5436 C 518.13 1.25376 4.33119 0
M  V30 5437 C 516.792 1.60824 4.5353 0
M  V30 5438 C 519.144 2.10987 4.76586 0
M  V30 5439 C 516.472 2.81676 5.14661 0
M  V30 5440 C 518.824 3.31068 5.39052 0
M  V30 5441 C 517.488 3.66794 5.5769 0
M  V30 5442 H 516.758 0.0265007 0.740526 0
M  V30 5443 H 519.405 0.762935 1.75646 0
M  V30 5444 H 517.71 -0.813791 3.83255 0
M  V30 5445 H 519.407 -0.453078 3.98432 0
M  V30 5446 H 515.997 0.967808 4.1753 0
M  V30 5447 H 520.181 1.84904 4.60569 0
M  V30 5448 H 515.437 3.0949 5.27282 0
M  V30 5449 H 519.611 3.97672 5.71691 0
M  V30 5450 H 517.238 4.60529 6.04828 0
M  V30 5451 N 518.813 -1.54241 0.323641 0
M  V30 5452 C 519.776 -2.22997 -0.529602 0
M  V30 5453 C 520.776 -1.22345 -1.04347 0
M  V30 5454 O 521.966 -1.46924 -0.935889 0
M  V30 5455 C 519.098 -2.93409 -1.73562 0
M  V30 5456 H 520.291 -2.99815 0.0714518 0
M  V30 5457 H 517.844 -1.56121 0.0747258 0
M  V30 5458 H 518.579 -2.20729 -2.37591 0
M  V30 5459 H 518.364 -3.67217 -1.37456 0
M  V30 5460 H 519.854 -3.45794 -2.34128 0
M  V30 5461 N 520.291 -0.0518155 -1.57515 0
M  V30 5462 C 521.221 0.920283 -2.146 0
M  V30 5463 C 522.202 1.32406 -1.06783 0
M  V30 5464 O 523.387 1.39866 -1.34726 0
M  V30 5465 C 520.517 2.1949 -2.6915 0
M  V30 5466 C 519.471 1.93116 -3.81956 0
M  V30 5467 C 518.797 3.27037 -4.23026 0
M  V30 5468 C 520.097 1.25225 -5.07066 0
M  V30 5469 H 521.791 0.444801 -2.96077 0
M  V30 5470 H 519.337 0.212508 -1.42423 0
M  V30 5471 H 521.29 2.87894 -3.07725 0
M  V30 5472 H 520.014 2.69244 -1.84865 0
M  V30 5473 H 518.673 1.27123 -3.43854 0
M  V30 5474 H 518.321 3.74595 -3.3569 0
M  V30 5475 H 518.021 3.10189 -4.99056 0
M  V30 5476 H 519.545 3.96673 -4.64202 0
M  V30 5477 H 520.959 1.83666 -5.43083 0
M  V30 5478 H 519.356 1.18702 -5.88243 0
M  V30 5479 H 520.426 0.228382 -4.84362 0
M  V30 5480 N 521.769 1.56035 0.221574 0
M  V30 5481 C 522.716 1.92413 1.27459 0
M  V30 5482 C 523.686 0.781323 1.46576 0
M  V30 5483 O 524.871 1.03721 1.60145 0
M  V30 5484 C 522.011 2.24617 2.61995 0
M  V30 5485 C 521.124 3.51831 2.50677 0
M  V30 5486 C 520.259 3.73482 3.77736 0
M  V30 5487 C 519.298 4.94211 3.6114 0
M  V30 5488 N 518.435 5.12252 4.80148 0
M  V30 5489 H 523.275 2.82203 0.957355 0
M  V30 5490 H 520.812 1.39676 0.461415 0
M  V30 5491 H 522.77 2.41298 3.40339 0
M  V30 5492 H 521.4 1.38 2.91815 0
M  V30 5493 H 520.452 3.43343 1.63767 0
M  V30 5494 H 521.764 4.40328 2.34334 0
M  V30 5495 H 520.918 3.9026 4.64523 0
M  V30 5496 H 519.657 2.83266 3.97003 0
M  V30 5497 H 518.662 4.77384 2.72736 0
M  V30 5498 H 519.887 5.85912 3.43343 0
M  V30 5499 H 517.833 4.24978 4.99729 0
M  V30 5500 H 517.75 5.94881 4.66532 0
M  V30 5501 H 519.018 5.33465 5.68362 0
M  V30 5502 N 523.247 -0.488276 1.49845 0
M  V30 5503 C 524.493 -1.24341 1.6021 0
M  V30 5504 C 524.826 -1.91967 0.293651 0
M  V30 5505 O 524.101 -1.81323 -0.703718 0
M  V30 5506 C 524.384 -2.3005 2.77036 0
M  V30 5507 C 524.237 -1.66842 4.17713 0
M  V30 5508 C 525.556 -3.31509 2.89464 0
M  V30 5509 H 522.675 -0.450704 0.583125 0
M  V30 5510 H 525.317 -0.539673 1.82174 0
M  V30 5511 H 523.467 -2.90071 2.58439 0
M  V30 5512 H 525.139 -1.1055 4.47858 0
M  V30 5513 H 523.382 -0.972079 4.22768 0
M  V30 5514 H 524.053 -2.43576 4.95353 0
M  V30 5515 H 526.529 -2.81493 3.06433 0
M  V30 5516 H 525.405 -4.02822 3.72861 0
M  V30 5517 H 525.666 -3.94603 1.99351 0
M  V30 5518 N 524.725 -1.39134 -0.740242 0
M  V30 5519 C 525.657 -1.33332 -1.86428 0
M  V30 5520 C 526.67 -0.243042 -1.60976 0
M  V30 5521 O 527.859 -0.501608 -1.71307 0
M  V30 5522 C 524.959 -1.04626 -3.22346 0
M  V30 5523 C 524.132 -2.24826 -3.75196 0
M  V30 5524 C 523.191 -1.92659 -4.89662 0
M  V30 5525 O 522.217 -2.6529 -5.03597 0
M  V30 5526 N 523.419 -0.889575 -5.73643 0
M  V30 5527 H 526.184 -2.30196 -1.91911 0
M  V30 5528 H 523.745 -1.33168 -0.920756 0
M  V30 5529 H 525.737 -0.811347 -3.96484 0
M  V30 5530 H 524.307 -0.165129 -3.12164 0
M  V30 5531 H 523.527 -2.64301 -2.9247 0
M  V30 5532 H 524.815 -3.05015 -4.07239 0
M  V30 5533 H 524.213 -0.287529 -5.64969 0
M  V30 5534 H 522.77 -0.714557 -6.47871 0
M  V30 5535 N 526.204 0.969867 -1.24223 0
M  V30 5536 C 527.136 2.0669 -0.99055 0
M  V30 5537 C 528.149 1.62753 0.0392222 0
M  V30 5538 O 529.338 1.77403 -0.197561 0
M  V30 5539 C 526.438 3.35589 -0.472594 0
M  V30 5540 C 525.611 4.08444 -1.56499 0
M  V30 5541 C 524.67 5.15616 -1.05007 0
M  V30 5542 O 523.696 5.41911 -1.7413 0
M  V30 5543 N 524.898 5.80383 0.116641 0
M  V30 5544 H 527.663 2.28855 -1.93508 0
M  V30 5545 H 525.224 1.13733 -1.15223 0
M  V30 5546 H 527.216 4.04542 -0.112919 0
M  V30 5547 H 525.786 3.10311 0.377617 0
M  V30 5548 H 525.006 3.33798 -2.09696 0
M  V30 5549 H 526.294 4.53882 -2.29932 0
M  V30 5550 H 525.692 5.6142 0.694589 0
M  V30 5551 H 524.249 6.50462 0.417483 0
M  V30 5552 N 527.682 1.05563 1.17022 0
M  V30 5553 C 528.629 0.659893 2.21165 0
M  V30 5554 C 529.599 -0.339813 1.62587 0
M  V30 5555 O 530.784 -0.230378 1.89404 0
M  V30 5556 C 527.924 0.0447297 3.45071 0
M  V30 5557 C 527.037 1.09372 4.17926 0
M  V30 5558 C 526.172 0.445481 5.29329 0
M  V30 5559 C 525.211 1.47852 5.93975 0
M  V30 5560 N 524.348 0.854172 6.96885 0
M  V30 5561 H 529.188 1.55243 2.54369 0
M  V30 5562 H 526.725 0.776336 1.24946 0
M  V30 5563 H 528.683 -0.329404 4.15898 0
M  V30 5564 H 527.313 -0.811244 3.1244 0
M  V30 5565 H 526.365 1.58564 3.45777 0
M  V30 5566 H 527.677 1.87773 4.62107 0
M  V30 5567 H 526.831 0.0179688 6.06697 0
M  V30 5568 H 525.57 -0.370481 4.86291 0
M  V30 5569 H 524.575 1.91601 5.15334 0
M  V30 5570 H 525.8 2.29645 6.39093 0
M  V30 5571 H 523.746 0.0587882 6.55974 0
M  V30 5572 H 523.663 1.57567 7.39397 0
M  V30 5573 H 524.931 0.451559 7.78191 0
M  V30 5574 N 529.16 -1.33526 0.837174 0
M  V30 5575 C 530.092 -2.28077 0.226579 0
M  V30 5576 C 531.105 -1.51666 -0.591717 0
M  V30 5577 O 532.294 -1.73511 -0.419064 0
M  V30 5578 C 529.394 -3.31597 -0.69978 0
M  V30 5579 C 528.567 -4.37329 0.0788067 0
M  V30 5580 C 527.626 -5.20526 -0.770637 0
M  V30 5581 O 526.652 -5.68811 -0.210453 0
M  V30 5582 N 527.854 -5.41639 -2.08825 0
M  V30 5583 H 530.619 -2.81115 1.03897 0
M  V30 5584 H 528.18 -1.46201 0.695476 0
M  V30 5585 H 530.172 -3.84158 -1.27298 0
M  V30 5586 H 528.742 -2.78848 -1.41288 0
M  V30 5587 H 527.962 -3.8529 0.833381 0
M  V30 5588 H 529.25 -5.05079 0.614238 0
M  V30 5589 H 528.648 -5.04108 -2.56693 0
M  V30 5590 H 527.205 -5.97263 -2.60998 0
M  V30 5591 N 530.638 -0.59345 -1.46 0
M  V30 5592 C 532.054 -0.255965 -1.57534 0
M  V30 5593 C 532.254 1.24167 -1.58697 0
M  V30 5594 O 531.31 2.02398 -1.50968 0
M  V30 5595 C 532.623 -0.91466 -2.86451 0
M  V30 5596 C 534.171 -0.889253 -3.00102 0
M  V30 5597 C 534.646 -1.52769 -4.3177 0
M  V30 5598 N 536.137 -1.49253 -4.38495 0
M  V30 5599 C 536.872 -1.9558 -5.39014 0
M  V30 5600 N 536.368 -2.49929 -6.46148 0
M  V30 5601 N 538.161 -1.86432 -5.30282 0
M  V30 5602 H 530.312 -1.56604 -1.43489 0
M  V30 5603 H 532.575 -0.655207 -0.685133 0
M  V30 5604 H 532.281 -1.96861 -2.91442 0
M  V30 5605 H 532.155 -0.429356 -3.74748 0
M  V30 5606 H 534.542 0.156111 -2.94687 0
M  V30 5607 H 534.623 -1.41268 -2.13253 0
M  V30 5608 H 534.267 -2.57231 -4.37944 0
M  V30 5609 H 534.197 -0.979398 -5.17412 0
M  V30 5610 H 536.688 -1.09536 -3.61677 0
M  V30 5611 H 537.001 -2.83109 -7.19075 0
M  V30 5612 H 535.346 -2.53961 -6.46938 0
M  V30 5613 H 538.537 -1.43722 -4.4549 0
M  V30 5614 H 538.71 -2.22852 -6.08474 0
M  V30 5615 N 532.116 1.54067 -0.331816 0
M  V30 5616 C 533.048 2.22139 0.564538 0
M  V30 5617 C 534.061 1.22408 1.07332 0
M  V30 5618 O 535.25 1.4883 0.985481 0
M  V30 5619 C 532.35 2.87876 1.78831 0
M  V30 5620 C 531.523 4.13817 1.41682 0
M  V30 5621 C 530.582 4.63072 2.49901 0
M  V30 5622 O 529.608 5.27562 2.13699 0
M  V30 5623 N 530.81 4.38001 3.80967 0
M  V30 5624 H 533.575 2.99694 -0.0183736 0
M  V30 5625 H 531.136 1.61153 -0.155396 0
M  V30 5626 H 533.128 3.17747 2.50637 0
M  V30 5627 H 531.698 2.13977 2.27887 0
M  V30 5628 H 530.918 3.9062 0.530044 0
M  V30 5629 H 532.206 4.95762 1.14443 0
M  V30 5630 H 531.604 3.864 4.13173 0
M  V30 5631 H 530.161 4.72507 4.48977 0
M  V30 5632 N 533.594 0.0601682 1.57485 0
M  V30 5633 C 534.541 -0.91112 2.12055 0
M  V30 5634 C 535.511 -1.30298 1.03013 0
M  V30 5635 O 536.696 -1.39087 1.30612 0
M  V30 5636 C 533.836 -2.1775 2.67729 0
M  V30 5637 C 532.949 -1.83933 3.90887 0
M  V30 5638 C 532.084 -3.05096 4.34845 0
M  V30 5639 C 531.123 -2.67241 5.5068 0
M  V30 5640 N 530.26 -3.81127 5.8965 0
M  V30 5641 H 535.1 -0.43888 2.9475 0
M  V30 5642 H 532.637 -0.204995 1.45665 0
M  V30 5643 H 534.595 -2.91866 2.98111 0
M  V30 5644 H 533.225 -2.62535 1.87816 0
M  V30 5645 H 532.277 -0.999287 3.6704 0
M  V30 5646 H 533.589 -1.52074 4.75052 0
M  V30 5647 H 532.743 -3.87502 4.66827 0
M  V30 5648 H 531.482 -3.40139 3.49509 0
M  V30 5649 H 530.487 -1.83254 5.18361 0
M  V30 5650 H 531.712 -2.3338 6.37738 0
M  V30 5651 H 529.658 -4.15954 5.07266 0
M  V30 5652 H 529.575 -3.52997 6.68528 0
M  V30 5653 H 530.843 -4.64145 6.2625 0
M  V30 5654 N 535.072 -1.5615 -0.213296 0
M  V30 5655 C 536.022 -1.89485 -1.26804 0
M  V30 5656 C 537.006 -0.758713 -1.41889 0
M  V30 5657 O 538.198 -1.02127 -1.44565 0
M  V30 5658 C 535.327 -2.22219 -2.61675 0
M  V30 5659 C 534.413 -3.42245 -2.50458 0
M  V30 5660 N 534.804 -4.60645 -2.089 0
M  V30 5661 C 533.102 -3.46023 -2.81397 0
M  V30 5662 C 533.803 -5.42805 -2.09135 0
M  V30 5663 N 532.779 -4.82732 -2.49941 0
M  V30 5664 H 536.581 -2.78537 -0.937771 0
M  V30 5665 H 534.095 -1.56826 -0.421824 0
M  V30 5666 H 536.092 -2.44278 -3.37837 0
M  V30 5667 H 534.752 -1.34484 -2.95541 0
M  V30 5668 H 535.763 -4.85651 -1.79899 0
M  V30 5669 H 532.44 -2.68654 -3.1958 0
M  V30 5670 H 533.83 -6.47601 -1.79059 0
M  V30 5671 N 536.55 0.480323 -1.50102 0
M  V30 5672 C 537.797 1.23307 -1.60629 0
M  V30 5673 C 538.125 1.92135 -0.302375 0
M  V30 5674 O 537.38 1.82321 0.711154 0
M  V30 5675 C 537.679 2.30708 -2.72963 0
M  V30 5676 C 537.345 1.79195 -4.13763 0
M  V30 5677 C 536.007 1.64867 -4.52076 0
M  V30 5678 C 538.359 1.40878 -5.018 0
M  V30 5679 C 535.687 1.10631 -5.76175 0
M  V30 5680 C 538.039 0.880872 -6.26437 0
M  V30 5681 C 536.703 0.724146 -6.6356 0
M  V30 5682 H 535.973 0.451211 -0.587784 0
M  V30 5683 H 538.62 0.53051 -1.84005 0
M  V30 5684 H 536.925 3.06834 -2.43639 0
M  V30 5685 H 538.622 2.88692 -2.78313 0
M  V30 5686 H 535.212 1.91313 -3.83533 0
M  V30 5687 H 539.396 1.50786 -4.7284 0
M  V30 5688 H 534.652 0.972263 -6.0362 0
M  V30 5689 H 538.826 0.575269 -6.9402 0
M  V30 5690 H 536.453 0.301722 -7.59601 0
M  V30 5691 N 538.028 1.39524 0.732853 0
M  V30 5692 C 538.976 1.38563 1.86824 0
M  V30 5693 C 539.97 0.268467 1.67259 0
M  V30 5694 O 541.176 0.438613 1.74574 0
M  V30 5695 H 537.551 0.432737 0.615014 0
M  V30 5696 H 539.522 2.34328 1.84751 0
M  V30 5697 C 538.271 1.2481 3.24527 0
M  V30 5698 H 537.594 2.10044 3.40179 0
M  V30 5699 H 539.034 1.28194 4.04156 0
M  V30 5700 C 537.493 -0.0432825 3.36872 0
M  V30 5701 O 538.023 -1.01268 3.88726 0
M  V30 5702 N 536.229 -0.107055 2.90403 0
M  V30 5703 H 535.776 0.682512 2.48394 0
M  V30 5704 H 535.734 -0.970618 2.99042 0
M  V30 5705 N 539.506 -0.963266 1.24736 0
M  V30 5706 C 540.922 -1.23273 1.01371 0
M  V30 5707 C 541.122 -1.99618 -0.274776 0
M  V30 5708 O 540.178 -2.32293 -0.989769 0
M  V30 5709 C 541.491 -2.01554 2.23152 0
M  V30 5710 C 543.039 -2.14629 2.27823 0
M  V30 5711 C 543.514 -2.96307 3.49237 0
M  V30 5712 N 545.005 -3.03887 3.49581 0
M  V30 5713 C 545.74 -3.67456 4.40186 0
M  V30 5714 N 545.236 -4.32706 5.41052 0
M  V30 5715 N 547.029 -3.64511 4.27888 0
M  V30 5716 H 539.18 -0.452294 2.07528 0
M  V30 5717 H 541.443 -0.262521 0.910926 0
M  V30 5718 H 541.149 -1.52847 3.1675 0
M  V30 5719 H 541.023 -3.02278 2.25628 0
M  V30 5720 H 543.41 -2.62537 1.34753 0
M  V30 5721 H 543.491 -1.13238 2.2937 0
M  V30 5722 H 543.135 -2.49091 4.42624 0
M  V30 5723 H 543.065 -3.97905 3.44933 0
M  V30 5724 H 545.556 -2.57477 2.76611 0
M  V30 5725 H 545.869 -4.79042 6.06415 0
M  V30 5726 H 544.214 -4.31361 5.44934 0
M  V30 5727 H 547.405 -3.12715 3.4832 0
M  V30 5728 H 547.578 -4.13768 4.98698 0
M  V30 5729 N 540.985 -1.06182 -1.16461 0
M  V30 5730 C 541.917 -0.629584 -2.20383 0
M  V30 5731 C 542.93 0.311834 -1.59786 0
M  V30 5732 O 544.119 0.103 -1.78203 0
M  V30 5733 C 541.219 0.0973695 -3.3876 0
M  V30 5734 C 540.392 -0.857252 -4.28917 0
M  V30 5735 C 539.451 -0.169749 -5.25926 0
M  V30 5736 O 538.477 -0.807044 -5.6345 0
M  V30 5737 N 539.679 1.08911 -5.70192 0
M  V30 5738 H 542.444 -1.52352 -2.58087 0
M  V30 5739 H 540.005 -0.944993 -1.31459 0
M  V30 5740 H 541.997 0.567676 -4.00699 0
M  V30 5741 H 540.567 0.893093 -2.99571 0
M  V30 5742 H 539.787 -1.50696 -3.64259 0
M  V30 5743 H 541.075 -1.50489 -4.86035 0
M  V30 5744 H 540.473 1.62703 -5.41797 0
M  V30 5745 H 539.03 1.50331 -6.34227 0
M  V30 5746 N 542.463 1.3308 -0.844243 0
M  V30 5747 C 543.712 1.96868 -0.438833 0
M  V30 5748 C 544.025 1.67599 1.00846 0
M  V30 5749 O 545.231 2.25043 1.51881 0
M  V30 5750 C 543.687 3.5234 -0.73377 0
M  V30 5751 C 543.295 3.90481 -2.1961 0
M  V30 5752 C 545.039 4.22653 -0.395574 0
M  V30 5753 C 542.946 5.38954 -2.43481 0
M  V30 5754 H 541.876 0.736749 -0.160364 0
M  V30 5755 H 544.527 1.51623 -1.03358 0
M  V30 5756 H 542.909 3.95941 -0.068589 0
M  V30 5757 H 544.083 3.57922 -2.90221 0
M  V30 5758 H 542.398 3.33165 -2.4978 0
M  V30 5759 H 544.995 5.31848 -0.551477 0
M  V30 5760 H 545.338 4.11004 0.661921 0
M  V30 5761 H 545.871 3.84601 -1.01621 0
M  V30 5762 H 542.61 5.55612 -3.47816 0
M  V30 5763 H 542.13 5.72954 -1.77437 0
M  V30 5764 H 543.809 6.05907 -2.26905 0
M  V30 5765 N 543.941 0.601185 1.45683 0
M  V30 5766 C 545.352 0.179659 1.85834 0
M  V30 5767 C 545.703 -1.26189 1.50236 0
M  V30 5768 O 544.828 -1.95587 0.925987 0
M  V30 5769 C 545.423 0.319277 3.37292 0
M  V30 5770 C 543.982 -0.0475092 3.7637 0
M  V30 5771 C 543.129 0.646692 2.69654 0
M  V30 5772 H 546.08 0.808268 1.36575 0
M  V30 5773 H 546.101 -0.4503 3.77826 0
M  V30 5774 H 545.613 1.36855 3.6317 0
M  V30 5775 H 543.714 -1.0962 3.5611 0
M  V30 5776 H 543.827 0.34168 4.7788 0
M  V30 5777 H 542.191 0.0849971 2.54558 0
M  V30 5778 H 542.974 1.69797 2.98369 0
M  V30 5779 N 545.419 -1.53889 0.339982 0
M  V30 5780 C 546.382 -2.23547 -0.50592 0
M  V30 5781 C 547.382 -1.23445 -1.03044 0
M  V30 5782 O 548.572 -1.47909 -0.920253 0
M  V30 5783 C 545.704 -2.95234 -1.7044 0
M  V30 5784 H 546.897 -2.99722 0.103247 0
M  V30 5785 H 544.45 -1.56033 0.0912804 0
M  V30 5786 H 545.185 -2.23236 -2.35236 0
M  V30 5787 H 544.97 -3.68654 -1.33553 0
M  V30 5788 H 546.46 -3.48258 -2.30447 0
M  V30 5789 N 546.897 -0.0685191 -1.57451 0
M  V30 5790 C 547.86 0.885173 -2.11417 0
M  V30 5791 C 548.86 1.22853 -1.03748 0
M  V30 5792 O 550.05 1.16235 -1.2975 0
M  V30 5793 C 547.182 2.18964 -2.61281 0
M  V30 5794 H 548.375 0.417034 -2.96986 0
M  V30 5795 H 545.928 0.18014 -1.55258 0
M  V30 5796 H 546.663 2.70321 -1.79156 0
M  V30 5797 H 546.448 1.9534 -3.39977 0
M  V30 5798 H 547.938 2.87242 -3.0312 0
M  V30 5799 N 548.375 1.56261 0.205012 0
M  V30 5800 C 549.338 1.92908 1.23771 0
M  V30 5801 C 550.338 0.809208 1.38955 0
M  V30 5802 O 551.528 1.07676 1.36936 0
M  V30 5803 C 548.66 2.19442 2.60879 0
M  V30 5804 H 549.853 2.85287 0.924728 0
M  V30 5805 H 547.406 1.49798 0.446125 0
M  V30 5806 H 548.141 1.29668 2.97248 0
M  V30 5807 H 547.926 3.0104 2.51232 0
M  V30 5808 H 549.416 2.48833 3.35368 0
M  V30 5809 N 549.853 -0.472356 1.50355 0
M  V30 5810 C 551.078 -1.25251 1.65309 0
M  V30 5811 C 551.503 -1.85081 0.335643 0
M  V30 5812 O 550.861 -1.67227 -0.700335 0
M  V30 5813 C 550.909 -2.3379 2.74544 0
M  V30 5814 O 550.013 -3.38401 2.35709 0
M  V30 5815 H 549.354 -0.368539 0.552336 0
M  V30 5816 H 551.884 -0.562271 1.96722 0
M  V30 5817 H 551.894 -2.79121 2.97583 0
M  V30 5818 H 550.569 -1.89614 3.70161 0
M  V30 5819 H 549.146 -2.9879 2.23112 0
M  V30 5820 N 551.331 -1.39911 -0.725443 0
M  V30 5821 C 552.261 -1.42138 -1.85254 0
M  V30 5822 C 553.242 -0.283513 -1.67721 0
M  V30 5823 O 554.427 -0.490717 -1.87898 0
M  V30 5824 C 551.557 -1.27354 -3.23107 0
M  V30 5825 C 550.511 -2.3864 -3.55296 0
M  V30 5826 C 549.837 -2.08939 -4.92188 0
M  V30 5827 C 551.137 -3.8097 -3.57295 0
M  V30 5828 H 552.831 -2.36461 -1.83648 0
M  V30 5829 H 550.377 -1.13817 -0.882138 0
M  V30 5830 H 552.33 -1.2753 -4.01639 0
M  V30 5831 H 551.054 -0.295025 -3.25265 0
M  V30 5832 H 549.713 -2.37696 -2.79099 0
M  V30 5833 H 549.361 -1.09502 -4.90936 0
M  V30 5834 H 549.061 -2.83491 -5.14691 0
M  V30 5835 H 550.585 -2.10781 -5.73065 0
M  V30 5836 H 551.999 -3.8379 -4.25885 0
M  V30 5837 H 550.396 -4.5496 -3.9132 0
M  V30 5838 H 551.466 -4.11261 -2.5689 0
M  V30 5839 N 552.809 0.956637 -1.25245 0
M  V30 5840 C 554.058 1.69537 -1.0927 0
M  V30 5841 C 554.371 1.92136 0.366503 0
M  V30 5842 O 555.577 2.63687 0.64665 0
M  V30 5843 C 554.033 3.05211 -1.9072 0
M  V30 5844 C 553.641 2.90416 -3.41119 0
M  V30 5845 C 555.385 3.82882 -1.83308 0
M  V30 5846 C 553.292 4.21468 -4.14872 0
M  V30 5847 H 552.222 0.635804 -0.405302 0
M  V30 5848 H 554.873 1.06513 -1.49423 0
M  V30 5849 H 553.255 3.69128 -1.43389 0
M  V30 5850 H 554.429 2.35444 -3.9611 0
M  V30 5851 H 552.744 2.26203 -3.49602 0
M  V30 5852 H 555.341 4.79944 -2.35706 0
M  V30 5853 H 555.684 4.0853 -0.800572 0
M  V30 5854 H 556.217 3.25711 -2.28379 0
M  V30 5855 H 552.956 4.01009 -5.18529 0
M  V30 5856 H 552.476 4.76213 -3.64665 0
M  V30 5857 H 554.155 4.90022 -4.22478 0
M  V30 5858 N 554.287 1.06798 1.15896 0
M  V30 5859 C 555.219 0.641263 2.20046 0
M  V30 5860 C 556.232 -0.303355 1.59949 0
M  V30 5861 O 557.421 -0.0935478 1.78255 0
M  V30 5862 C 554.521 -0.0794029 3.38807 0
M  V30 5863 C 553.694 0.879986 4.28457 0
M  V30 5864 C 552.753 0.197638 5.25829 0
M  V30 5865 O 551.779 0.836913 5.63014 0
M  V30 5866 N 552.981 -1.05886 5.70761 0
M  V30 5867 H 555.746 1.53718 2.57276 0
M  V30 5868 H 553.307 0.951951 1.30956 0
M  V30 5869 H 555.299 -0.546418 4.00994 0
M  V30 5870 H 553.869 -0.877193 3.0004 0
M  V30 5871 H 553.089 1.52625 3.63454 0
M  V30 5872 H 554.377 1.53065 4.8523 0
M  V30 5873 H 553.775 -1.59828 5.42652 0
M  V30 5874 H 552.332 -1.46965 6.35015 0
M  V30 5875 N 555.766 -1.3263 0.851289 0
M  V30 5876 C 556.994 -2.01563 0.466899 0
M  V30 5877 C 557.409 -1.63996 -0.935447 0
M  V30 5878 O 556.766 -0.85957 -1.6099 0
M  V30 5879 C 556.817 -3.56613 0.592433 0
M  V30 5880 O 556.538 -3.92828 1.93954 0
M  V30 5881 C 558.039 -4.42818 0.206612 0
M  V30 5882 H 555.259 -0.645307 0.183902 0
M  V30 5883 H 557.803 -1.69285 1.1473 0
M  V30 5884 H 555.958 -3.87379 -0.0401936 0
M  V30 5885 H 556.372 -4.87545 1.9339 0
M  V30 5886 H 557.846 -5.50918 0.345462 0
M  V30 5887 H 558.323 -4.30844 -0.85264 0
M  V30 5888 H 558.929 -4.17434 0.814176 0
M  V30 5889 N 557.244 -0.608902 -1.45362 0
M  V30 5890 C 558.207 0.0992563 -2.28985 0
M  V30 5891 C 559.207 0.793841 -1.39838 0
M  V30 5892 O 560.397 0.641804 -1.61946 0
M  V30 5893 C 557.529 1.15073 -3.20891 0
M  V30 5894 H 558.722 -0.635964 -2.93079 0
M  V30 5895 H 556.275 -0.368007 -1.51906 0
M  V30 5896 H 557.01 1.91667 -2.616 0
M  V30 5897 H 556.795 0.656867 -3.86559 0
M  V30 5898 H 558.285 1.64665 -3.83765 0
M  V30 5899 N 558.722 1.53707 -0.348139 0
M  V30 5900 C 559.968 2.01979 0.239986 0
M  V30 5901 C 560.323 1.23141 1.47831 0
M  V30 5902 O 559.616 0.311936 1.89044 0
M  V30 5903 C 559.81 3.52292 0.602061 0
M  V30 5904 C 559.639 4.45684 -0.599625 0
M  V30 5905 C 558.409 4.9304 -1.10635 0
M  V30 5906 C 560.607 4.93156 -1.4595 0
M  V30 5907 N 558.589 5.70394 -2.26988 0
M  V30 5908 C 559.96 5.6868 -2.46988 0
M  V30 5909 C 562.015 4.75257 -1.48441 0
M  V30 5910 C 560.718 6.28208 -3.50353 0
M  V30 5911 C 562.744 5.35639 -2.50689 0
M  V30 5912 C 562.106 6.11034 -3.50453 0
M  V30 5913 H 558.205 0.780335 0.0509992 0
M  V30 5914 H 560.789 1.88466 -0.488742 0
M  V30 5915 H 558.96 3.66002 1.29989 0
M  V30 5916 H 560.692 3.87304 1.17377 0
M  V30 5917 H 557.447 4.68784 -0.67371 0
M  V30 5918 H 557.871 6.13741 -2.85747 0
M  V30 5919 H 562.513 4.16508 -0.726707 0
M  V30 5920 H 560.231 6.86064 -4.27015 0
M  V30 5921 H 563.817 5.23693 -2.53449 0
M  V30 5922 H 562.697 6.56925 -4.28275 0
M  V30 5923 N 560.2 0.0768682 1.57412 0
M  V30 5924 C 561.616 -0.279772 1.57129 0
M  V30 5925 C 561.816 -1.69688 1.08666 0
M  V30 5926 O 560.872 -2.40953 0.754843 0
M  V30 5927 C 562.185 -0.0848055 3.0058 0
M  V30 5928 C 563.733 -0.153954 3.12621 0
M  V30 5929 C 564.208 0.0127946 4.57998 0
M  V30 5930 N 565.699 -0.0426435 4.6318 0
M  V30 5931 C 566.434 0.0618892 5.73367 0
M  V30 5932 N 565.93 0.220229 6.9245 0
M  V30 5933 N 567.723 0.00446072 5.621 0
M  V30 5934 H 559.874 1.00297 1.87228 0
M  V30 5935 H 562.137 0.391565 0.863354 0
M  V30 5936 H 561.843 0.89325 3.40168 0
M  V30 5937 H 561.717 -0.834961 3.67843 0
M  V30 5938 H 564.104 -1.1225 2.72917 0
M  V30 5939 H 564.185 0.627389 2.47987 0
M  V30 5940 H 563.829 0.978128 4.98392 0
M  V30 5941 H 563.759 -0.788016 5.20671 0
M  V30 5942 H 566.25 -0.163226 3.77547 0
M  V30 5943 H 566.563 0.291999 7.72248 0
M  V30 5944 H 564.908 0.255658 6.9453 0
M  V30 5945 H 568.099 -0.117979 4.67951 0
M  V30 5946 H 568.272 0.0893796 6.47938 0
M  V30 5947 N 561.678 -1.56367 -0.196722 0
M  V30 5948 C 562.918 -1.82315 -0.92415 0
M  V30 5949 C 563.282 -0.654117 -1.80514 0
M  V30 5950 O 564.483 -0.79345 -2.56823 0
M  V30 5951 C 562.754 -3.13279 -1.72021 0
M  V30 5952 S 564.313 -3.60627 -2.49988 0
M  V30 5953 H 561.131 -0.639862 -0.309997 0
M  V30 5954 H 563.733 -1.94597 -0.187684 0
M  V30 5955 H 562.437 -3.96379 -1.06358 0
M  V30 5956 H 561.968 -3.03871 -2.49852 0
M  V30 5957 H 563.983 -3.25934 -3.74141 0
M  V30 5958 N 563.156 0.464375 -1.50603 0
M  V30 5959 C 564.386 1.23727 -1.65454 0
M  V30 5960 C 564.794 1.86119 -0.340032 0
M  V30 5961 O 564.137 1.70301 0.688706 0
M  V30 5962 C 564.199 2.38153 -2.69301 0
M  V30 5963 C 563.863 1.96345 -4.12671 0
M  V30 5964 C 564.86 1.48215 -4.98326 0
M  V30 5965 C 562.545 2.04861 -4.58625 0
M  V30 5966 C 564.539 1.09152 -6.27985 0
M  V30 5967 C 562.226 1.65409 -5.88288 0
M  V30 5968 C 563.224 1.17634 -6.72794 0
M  V30 5969 O 562.912 0.787312 -8.00035 0
M  V30 5970 H 562.644 0.380075 -0.559034 0
M  V30 5971 H 565.198 0.559919 -1.97621 0
M  V30 5972 H 563.428 3.09081 -2.32392 0
M  V30 5973 H 565.117 3.00099 -2.73304 0
M  V30 5974 H 565.883 1.41052 -4.64036 0
M  V30 5975 H 561.762 2.40996 -3.92991 0
M  V30 5976 H 565.306 0.717909 -6.93896 0
M  V30 5977 H 561.203 1.72233 -6.22098 0
M  V30 5978 H 561.971 0.915567 -8.13363 0
M  V30 5979 N 564.634 1.40294 0.718013 0
M  V30 5980 C 565.597 1.4012 1.81381 0
M  V30 5981 C 566.597 0.295405 1.58063 0
M  V30 5982 O 567.787 0.554187 1.6515 0
M  V30 5983 C 564.919 1.19056 3.19435 0
M  V30 5984 H 566.112 2.37645 1.82933 0
M  V30 5985 H 563.665 1.26107 0.923405 0
M  V30 5986 H 564.4 0.222809 3.23534 0
M  V30 5987 H 564.185 1.99152 3.37758 0
M  V30 5988 H 565.675 1.21716 3.99468 0
M  V30 5989 N 566.112 -0.949982 1.2575 0
M  V30 5990 C 567.075 -2.02894 1.06615 0
M  V30 5991 C 568.075 -1.60791 0.0173905 0
M  V30 5992 O 569.265 -1.72249 0.260003 0
M  V30 5993 C 566.397 -3.35219 0.619751 0
M  V30 5994 H 567.59 -2.21302 2.02399 0
M  V30 5995 H 565.143 -1.12772 1.08223 0
M  V30 5996 H 565.878 -3.22508 -0.340486 0
M  V30 5997 H 565.663 -3.67129 1.37692 0
M  V30 5998 H 567.153 -4.14505 0.507443 0
M  V30 5999 N 567.59 -1.07411 -1.15328 0
M  V30 6000 C 568.5 -0.706438 -2.23711 0
M  V30 6001 C 569.516 0.282586 -1.7169 0
M  V30 6002 O 570.692 0.129066 -2.00986 0
M  V30 6003 C 567.757 -0.11048 -3.46524 0
M  V30 6004 C 566.818 -1.15282 -4.13532 0
M  V30 6005 C 566.051 -0.585205 -5.30482 0
M  V30 6006 O 566.274 0.598549 -5.67251 0
M  V30 6007 O 565.208 -1.33039 -5.87013 0
M  V30 6008 H 569.034 -1.61031 -2.57493 0
M  V30 6009 H 566.619 -0.847113 -1.23062 0
M  V30 6010 H 568.501 0.21957 -4.20828 0
M  V30 6011 H 567.176 0.766703 -3.14489 0
M  V30 6012 H 566.083 -1.53523 -3.41147 0
M  V30 6013 H 567.416 -2.00192 -4.49649 0
M  V30 6014 N 569.068 1.32177 -0.85831 0
M  V30 6015 C 570.016 2.30729 -0.294442 0
M  V30 6016 C 571.01 1.59009 0.584165 0
M  V30 6017 O 572.216 1.73713 0.471562 0
M  V30 6018 H 568.591 0.748097 -0.0765171 0
M  V30 6019 H 570.562 2.75774 -1.1398 0
M  V30 6020 C 569.311 3.44098 0.499208 0
M  V30 6021 H 568.634 3.99449 -0.167579 0
M  V30 6022 H 570.074 4.15202 0.859273 0
M  V30 6023 C 568.533 2.91684 1.68588 0
M  V30 6024 O 569.063 2.89481 2.78503 0
M  V30 6025 N 567.269 2.48036 1.51415 0
M  V30 6026 H 566.816 2.50027 0.620006 0
M  V30 6027 H 566.774 2.13322 2.30957 0
M  V30 6028 N 570.547 0.616602 1.45037 0
M  V30 6029 C 571.958 0.199359 1.85633 0
M  V30 6030 C 572.309 -1.24588 1.51566 0
M  V30 6031 O 571.434 -1.94594 0.94668 0
M  V30 6032 C 572.029 0.355033 3.36935 0
M  V30 6033 C 570.588 -0.00758748 3.76399 0
M  V30 6034 C 569.735 0.675256 2.68953 0
M  V30 6035 H 572.686 0.822708 1.3571 0
M  V30 6036 H 572.707 -0.410201 3.78282 0
M  V30 6037 H 572.219 1.40699 3.61698 0
M  V30 6038 H 570.32 -1.05837 3.57252 0
M  V30 6039 H 570.433 0.392346 4.77491 0
M  V30 6040 H 568.797 0.111992 2.54454 0
M  V30 6041 H 569.58 1.72952 2.96551 0
M  V30 6042 N 572.025 -1.5352 0.356285 0
M  V30 6043 C 573.302 -1.93405 -0.292223 0
M  V30 6044 C 573.682 -1.28901 -1.67176 0
M  V30 6045 O 573.03 -0.444632 -2.24132 0
M  V30 6046 C 573.24 -3.47223 -0.35175 0
M  V30 6047 C 574.588 -4.20389 -0.596534 0
M  V30 6048 O 575.612 -3.53554 -0.433344 0
M  V30 6049 O 574.471 -5.3881 -0.913589 0
M  V30 6050 H 571.565 -0.808666 -0.173172 0
M  V30 6051 H 574.111 -1.64713 0.408391 0
M  V30 6052 H 572.883 -3.86423 0.615841 0
M  V30 6053 H 572.506 -3.8212 -1.09864 0
M  V30 6054 N 573.503 -0.0852151 -1.57369 0
M  V30 6055 C 574.728 0.592872 -1.98746 0
M  V30 6056 C 575.153 1.61538 -0.963689 0
M  V30 6057 O 574.511 1.81168 0.069071 0
M  V30 6058 C 574.559 1.22599 -3.39119 0
M  V30 6059 O 573.663 2.34185 -3.39457 0
M  V30 6060 H 573.004 0.151314 -0.646529 0
M  V30 6061 H 575.534 -0.163703 -2.03944 0
M  V30 6062 H 575.544 1.56965 -3.76598 0
M  V30 6063 H 574.219 0.476831 -4.13158 0
M  V30 6064 H 572.796 2.01512 -3.13763 0
M  V30 6065 N 574.981 1.5647 0.188427 0
M  V30 6066 C 576.206 1.85486 0.927891 0
M  V30 6067 C 576.631 0.669575 1.75779 0
M  V30 6068 O 575.989 -0.381573 1.77239 0
M  V30 6069 C 576.037 3.12784 1.7944 0
M  V30 6070 O 575.141 2.93805 2.894 0
M  V30 6071 H 574.482 0.610585 0.260925 0
M  V30 6072 H 577.012 2.037 0.191729 0
M  V30 6073 H 577.022 3.43749 2.19774 0
M  V30 6074 H 575.697 3.98671 1.18468 0
M  V30 6075 H 574.274 2.74153 2.52774 0
M  V30 6076 N 576.459 -0.456382 1.50847 0
M  V30 6077 C 577.687 -1.23026 1.66349 0
M  V30 6078 C 578.102 -1.85473 0.352868 0
M  V30 6079 O 577.459 -1.69885 -0.666739 0
M  V30 6080 C 577.51 -2.32827 2.76539 0
M  V30 6081 O 577.231 -1.72938 4.02522 0
M  V30 6082 C 578.732 -3.23448 3.03144 0
M  V30 6083 H 575.952 -0.371527 0.558756 0
M  V30 6084 H 578.496 -0.543082 1.97157 0
M  V30 6085 H 576.651 -2.97294 2.48384 0
M  V30 6086 H 577.065 -2.45357 4.63573 0
M  V30 6087 H 578.539 -3.96669 3.83872 0
M  V30 6088 H 579.016 -3.83094 2.14793 0
M  V30 6089 H 579.622 -2.64702 3.32886 0
M  V30 6090 N 577.937 -1.40673 -0.710563 0
M  V30 6091 C 579.183 -1.4043 -1.47142 0
M  V30 6092 C 579.538 -0.00781557 -1.92398 0
M  V30 6093 O 578.831 0.963535 -1.6561 0
M  V30 6094 C 579.025 -2.33253 -2.70791 0
M  V30 6095 C 578.854 -3.81789 -2.37629 0
M  V30 6096 C 577.624 -4.5057 -2.28724 0
M  V30 6097 C 579.822 -4.73152 -2.01572 0
M  V30 6098 N 577.804 -5.84312 -1.88289 0
M  V30 6099 C 579.175 -5.95728 -1.71778 0
M  V30 6100 C 581.23 -4.6094 -1.88252 0
M  V30 6101 C 579.933 -7.07454 -1.30003 0
M  V30 6102 C 581.959 -5.72613 -1.47881 0
M  V30 6103 C 581.321 -6.94278 -1.18987 0
M  V30 6104 H 577.42 -0.569115 -0.536314 0
M  V30 6105 H 580.004 -1.76425 -0.823547 0
M  V30 6106 H 578.175 -1.99378 -3.33321 0
M  V30 6107 H 579.907 -2.23833 -3.37166 0
M  V30 6108 H 576.662 -4.04315 -2.46629 0
M  V30 6109 H 577.086 -6.55153 -1.70596 0
M  V30 6110 H 581.728 -3.67389 -2.09249 0
M  V30 6111 H 579.446 -8.00884 -1.07749 0
M  V30 6112 H 583.032 -5.65161 -1.38145 0
M  V30 6113 H 581.912 -7.79222 -0.88219 0
M  V30 6114 N 579.415 0.9433 -1.26252 0
M  V30 6115 C 580.362 2.0417 -1.07625 0
M  V30 6116 C 581.332 1.6609 0.0180738 0
M  V30 6117 O 582.517 1.90276 -0.141289 0
M  V30 6118 C 579.657 3.37653 -0.713043 0
M  V30 6119 C 578.77 3.88783 -1.8834 0
M  V30 6120 C 577.905 5.10642 -1.4635 0
M  V30 6121 C 576.944 5.54028 -2.60229 0
M  V30 6122 N 576.081 6.67092 -2.18936 0
M  V30 6123 H 580.921 2.19436 -2.01623 0
M  V30 6124 H 578.458 1.07519 -1.00389 0
M  V30 6125 H 580.416 4.14391 -0.483358 0
M  V30 6126 H 579.046 3.22241 0.18996 0
M  V30 6127 H 578.098 3.08464 -2.22608 0
M  V30 6128 H 579.41 4.16922 -2.73821 0
M  V30 6129 H 578.564 5.94832 -1.19414 0
M  V30 6130 H 577.303 4.84244 -0.579568 0
M  V30 6131 H 576.308 4.68396 -2.87898 0
M  V30 6132 H 577.533 5.82429 -3.49219 0
M  V30 6133 H 575.479 6.42381 -1.32974 0
M  V30 6134 H 575.396 6.94806 -2.97961 0
M  V30 6135 H 576.664 7.54662 -1.95206 0
M  V30 6136 N 580.893 1.08022 1.14757 0
M  V30 6137 C 582.142 0.802468 1.8505 0
M  V30 6138 C 582.455 -0.674061 1.83619 0
M  V30 6139 O 583.661 -1.06683 2.49662 0
M  V30 6140 C 582.117 1.38551 3.32162 0
M  V30 6141 C 581.725 2.89354 3.42021 0
M  V30 6142 C 583.469 1.18608 4.07594 0
M  V30 6143 C 581.376 3.40815 4.83321 0
M  V30 6144 H 580.306 0.296518 0.693248 0
M  V30 6145 H 582.957 1.30114 1.29393 0
M  V30 6146 H 581.339 0.814556 3.87532 0
M  V30 6147 H 582.513 3.52552 2.96722 0
M  V30 6148 H 580.828 3.08165 2.80041 0
M  V30 6149 H 583.425 1.54525 5.11885 0
M  V30 6150 H 583.768 0.125599 4.1611 0
M  V30 6151 H 584.301 1.72375 3.58513 0
M  V30 6152 H 581.04 4.46418 4.79991 0
M  V30 6153 H 580.56 2.82374 5.29174 0
M  V30 6154 H 582.239 3.37171 5.522 0
M  V30 6155 N 582.371 -1.3172 0.865308 0
M  V30 6156 C 583.601 -2.00765 0.487543 0
M  V30 6157 C 584.009 -1.65145 -0.92325 0
M  V30 6158 O 583.352 -0.874294 -1.61561 0
M  V30 6159 C 583.414 -3.55122 0.559369 0
M  V30 6160 C 583.078 -4.14202 1.93095 0
M  V30 6161 C 584.075 -4.3165 2.89784 0
M  V30 6162 C 581.76 -4.50036 2.23099 0
M  V30 6163 C 583.754 -4.84114 4.14623 0
M  V30 6164 C 581.441 -5.02203 3.48189 0
M  V30 6165 C 582.439 -5.19192 4.43767 0
M  V30 6166 O 582.127 -5.70241 5.6664 0
M  V30 6167 H 581.859 -0.649066 0.188915 0
M  V30 6168 H 584.413 -1.69032 1.16694 0
M  V30 6169 H 582.643 -3.86295 -0.176926 0
M  V30 6170 H 584.332 -4.05428 0.195694 0
M  V30 6171 H 585.098 -4.04288 2.6791 0
M  V30 6172 H 580.977 -4.36091 1.49485 0
M  V30 6173 H 584.521 -4.9729 4.89233 0
M  V30 6174 H 580.418 -5.28997 3.69908 0
M  V30 6175 H 581.186 -5.88617 5.68746 0
M  V30 6176 N 583.85 -0.624285 -1.44708 0
M  V30 6177 C 585.099 -0.123539 -2.01321 0
M  V30 6178 C 585.412 1.25966 -1.49639 0
M  V30 6179 O 586.618 1.85405 -1.98336 0
M  V30 6180 C 585.074 -0.170124 -3.59498 0
M  V30 6181 C 584.682 -1.55421 -4.20176 0
M  V30 6182 C 586.426 0.274513 -4.23611 0
M  V30 6183 C 584.332 -1.55628 -5.70556 0
M  V30 6184 H 583.263 -0.0424183 -0.752806 0
M  V30 6185 H 585.913 -0.782076 -1.65999 0
M  V30 6186 H 584.296 0.555385 -3.92086 0
M  V30 6187 H 585.47 -2.30276 -3.99136 0
M  V30 6188 H 583.784 -1.94235 -3.68323 0
M  V30 6189 H 586.382 0.292402 -5.339 0
M  V30 6190 H 586.725 1.3005 -3.95465 0
M  V30 6191 H 587.258 -0.398275 -3.95801 0
M  V30 6192 H 583.997 -2.56041 -6.03426 0
M  V30 6193 H 583.517 -0.850563 -5.93739 0
M  V30 6194 H 585.196 -1.28721 -6.34066 0
M  V30 6195 N 585.328 1.53329 -0.364422 0
M  V30 6196 C 586.744 1.59594 -0.0133165 0
M  V30 6197 C 586.944 1.37959 1.46865 0
M  V30 6198 O 586 1.18418 2.2301 0
M  V30 6199 C 587.313 2.97032 -0.468213 0
M  V30 6200 C 588.861 3.10138 -0.422334 0
M  V30 6201 C 589.336 4.49986 -0.853024 0
M  V30 6202 N 590.827 4.56098 -0.808037 0
M  V30 6203 C 591.562 5.62495 -1.11299 0
M  V30 6204 N 591.058 6.7665 -1.48717 0
M  V30 6205 N 592.851 5.52473 -1.03586 0
M  V30 6206 H 585.002 1.65644 -1.32951 0
M  V30 6207 H 587.265 0.77684 -0.543345 0
M  V30 6208 H 586.971 3.18 -1.5023 0
M  V30 6209 H 586.845 3.76918 0.145775 0
M  V30 6210 H 589.232 2.88881 0.602622 0
M  V30 6211 H 589.313 2.32263 -1.0718 0
M  V30 6212 H 588.957 4.7198 -1.87609 0
M  V30 6213 H 588.887 5.26289 -0.180819 0
M  V30 6214 H 591.378 3.74131 -0.532361 0
M  V30 6215 H 591.691 7.53776 -1.70415 0
M  V30 6216 H 590.036 6.78044 -1.52581 0
M  V30 6217 H 593.227 4.6217 -0.742736 0
M  V30 6218 H 593.4 6.35295 -1.27686 0
M  V30 6219 N 586.806 0.0935595 1.57322 0
M  V30 6220 C 587.753 -0.865935 2.1394 0
M  V30 6221 C 588.723 -1.28083 1.05754 0
M  V30 6222 O 589.908 -1.36285 1.33533 0
M  V30 6223 C 587.048 -2.12023 2.72287 0
M  V30 6224 C 586.161 -1.756 3.94701 0
M  V30 6225 C 585.296 -2.95804 4.41218 0
M  V30 6226 C 584.335 -2.555 5.56225 0
M  V30 6227 N 583.472 -3.68534 5.97601 0
M  V30 6228 H 588.312 -0.376261 2.95615 0
M  V30 6229 H 585.849 -0.174052 1.46067 0
M  V30 6230 H 587.807 -2.85477 3.04235 0
M  V30 6231 H 586.437 -2.58492 1.93343 0
M  V30 6232 H 585.489 -0.921208 3.69077 0
M  V30 6233 H 586.801 -1.41964 4.78171 0
M  V30 6234 H 585.955 -3.77513 4.74941 0
M  V30 6235 H 584.694 -3.32649 3.56645 0
M  V30 6236 H 583.699 -1.72218 5.22131 0
M  V30 6237 H 584.924 -2.19801 6.42545 0
M  V30 6238 H 582.87 -4.051 5.15974 0
M  V30 6239 H 582.787 -3.38737 6.75865 0
M  V30 6240 H 584.055 -4.50757 6.35955 0
M  V30 6241 N 588.284 -1.56567 -0.180126 0
M  V30 6242 C 589.247 -1.94852 -1.20686 0
M  V30 6243 C 590.247 -0.831212 -1.3765 0
M  V30 6244 O 591.437 -1.09841 -1.35206 0
M  V30 6245 C 588.569 -2.23565 -2.57355 0
M  V30 6246 H 589.762 -2.86722 -0.879225 0
M  V30 6247 H 587.315 -1.50489 -0.422237 0
M  V30 6248 H 588.05 -1.34381 -2.95148 0
M  V30 6249 H 587.835 -3.04999 -2.46411 0
M  V30 6250 H 589.325 -2.54137 -3.31367 0
M  V30 6251 N 589.762 0.448376 -1.51087 0
M  V30 6252 C 591.173 1.0286 -1.5581 0
M  V30 6253 C 591.524 1.92583 -0.374989 0
M  V30 6254 O 590.649 2.10316 0.509533 0
M  V30 6255 C 591.244 1.87223 -2.8237 0
M  V30 6256 C 589.803 2.40314 -2.897 0
M  V30 6257 C 588.95 1.19238 -2.50355 0
M  V30 6258 H 591.901 0.230075 -1.57023 0
M  V30 6259 H 591.922 2.72553 -2.6551 0
M  V30 6260 H 591.434 1.21894 -3.68461 0
M  V30 6261 H 589.535 3.09129 -2.08014 0
M  V30 6262 H 589.648 2.73866 -3.93108 0
M  V30 6263 H 588.012 1.53428 -2.03303 0
M  V30 6264 H 588.795 0.555367 -3.38778 0
M  V30 6265 N 591.24 1.41047 0.703093 0
M  V30 6266 C 592.656 1.23351 1.01275 0
M  V30 6267 C 592.856 0.11754 2.01157 0
M  V30 6268 O 591.912 -0.520518 2.47077 0
M  V30 6269 C 593.225 2.58001 1.54454 0
M  V30 6270 C 594.773 2.65119 1.66376 0
M  V30 6271 C 595.248 4.00067 2.22958 0
M  V30 6272 N 596.739 4.01875 2.30328 0
M  V30 6273 C 597.474 5.03087 2.75119 0
M  V30 6274 N 596.97 6.14692 3.19571 0
M  V30 6275 N 598.763 4.90451 2.74616 0
M  V30 6276 H 590.914 2.1236 0.0412686 0
M  V30 6277 H 593.177 0.944543 0.08089 0
M  V30 6278 H 592.883 3.40378 0.88521 0
M  V30 6279 H 592.757 2.79962 2.52786 0
M  V30 6280 H 595.144 1.83106 2.31422 0
M  V30 6281 H 595.225 2.46975 0.666089 0
M  V30 6282 H 594.869 4.82526 1.58529 0
M  V30 6283 H 594.799 4.15547 3.23462 0
M  V30 6284 H 597.29 3.21291 1.98949 0
M  V30 6285 H 597.603 6.87799 3.52352 0
M  V30 6286 H 595.948 6.18239 3.17498 0
M  V30 6287 H 599.139 4.0235 2.39233 0
M  V30 6288 H 599.312 5.6947 3.09206 0
M  V30 6289 N 592.718 -0.936591 1.26751 0
M  V30 6290 C 593.943 -1.72288 1.15462 0
M  V30 6291 C 594.368 -1.85915 -0.285887 0
M  V30 6292 O 593.726 -1.35272 -1.20711 0
M  V30 6293 C 593.774 -3.10503 1.83359 0
M  V30 6294 O 592.878 -3.96745 1.1255 0
M  V30 6295 H 592.219 -0.52843 0.402067 0
M  V30 6296 H 594.749 -1.17271 1.67656 0
M  V30 6297 H 594.759 -3.60867 1.90365 0
M  V30 6298 H 593.434 -2.99901 2.88153 0
M  V30 6299 H 592.011 -3.55191 1.13551 0
M  V30 6300 N 594.196 -1.08629 -1.14182 0
M  V30 6301 C 595.146 -0.687882 -2.17376 0
M  V30 6302 C 596.13 0.293632 -1.58198 0
M  V30 6303 O 597.322 0.105292 -1.76687 0
M  V30 6304 C 594.451 -0.101184 -3.43151 0
M  V30 6305 C 593.537 -1.10862 -4.09354 0
M  V30 6306 N 593.928 -2.29285 -4.50846 0
M  V30 6307 C 592.226 -0.944897 -4.35876 0
M  V30 6308 C 592.927 -2.93305 -5.02342 0
M  V30 6309 N 591.903 -2.20903 -4.96692 0
M  V30 6310 H 595.705 -1.58963 -2.472 0
M  V30 6311 H 593.219 -0.961329 -1.3089 0
M  V30 6312 H 595.216 0.202209 -4.16409 0
M  V30 6313 H 593.876 0.795522 -3.14804 0
M  V30 6314 H 594.887 -2.66927 -4.43813 0
M  V30 6315 H 591.564 -0.102186 -4.17375 0
M  V30 6316 H 592.954 -3.93932 -5.44304 0
M  V30 6317 N 595.674 1.31259 -0.872281 0
M  V30 6318 C 596.902 2.00795 -0.498907 0
M  V30 6319 C 597.317 1.65464 0.909238 0
M  V30 6320 O 596.674 0.885073 1.59602 0
M  V30 6321 C 596.725 3.55625 -0.649092 0
M  V30 6322 O 596.446 3.89692 -2.00179 0
M  V30 6323 C 597.947 4.42434 -0.277034 0
M  V30 6324 H 595.167 0.642299 -0.194145 0
M  V30 6325 H 597.711 1.67438 -1.17408 0
M  V30 6326 H 595.866 3.87394 -0.0214402 0
M  V30 6327 H 596.28 4.84407 -2.01122 0
M  V30 6328 H 597.754 5.50299 -0.433064 0
M  V30 6329 H 598.231 4.32146 0.783989 0
M  V30 6330 H 598.837 4.16086 -0.880483 0
M  V30 6331 N 597.152 0.631951 1.44375 0
M  V30 6332 C 598.082 -0.0593243 2.33425 0
M  V30 6333 C 599.063 -0.833964 1.48253 0
M  V30 6334 O 600.248 -0.799682 1.76971 0
M  V30 6335 C 597.378 -1.04096 3.31333 0
M  V30 6336 C 596.332 -0.377899 4.26328 0
M  V30 6337 C 595.658 -1.4695 5.14111 0
M  V30 6338 C 596.958 0.716371 5.17364 0
M  V30 6339 H 598.652 0.684287 2.91475 0
M  V30 6340 H 596.198 0.330518 1.40156 0
M  V30 6341 H 598.151 -1.53331 3.92514 0
M  V30 6342 H 596.875 -1.81547 2.71493 0
M  V30 6343 H 595.534 0.0938054 3.6648 0
M  V30 6344 H 595.182 -2.2349 4.50623 0
M  V30 6345 H 594.882 -1.03121 5.78481 0
M  V30 6346 H 596.406 -1.96363 5.78164 0
M  V30 6347 H 597.82 0.307089 5.72477 0
M  V30 6348 H 596.217 1.07784 5.90341 0
M  V30 6349 H 597.287 1.58316 4.58327 0
M  V30 6350 N 598.631 -1.53133 0.372548 0
M  V30 6351 C 599.561 -2.28876 -0.462412 0
M  V30 6352 C 600.542 -1.31583 -1.07796 0
M  V30 6353 O 601.727 -1.60461 -1.09389 0
M  V30 6354 C 598.857 -3.08317 -1.59868 0
M  V30 6355 C 597.811 -4.13355 -1.11003 0
M  V30 6356 C 597.137 -4.8092 -2.33708 0
M  V30 6357 C 598.437 -5.21955 -0.18983 0
M  V30 6358 H 600.131 -2.9892 0.169511 0
M  V30 6359 H 597.677 -1.43761 0.0829658 0
M  V30 6360 H 599.63 -3.60055 -2.18949 0
M  V30 6361 H 598.354 -2.35976 -2.25794 0
M  V30 6362 H 597.013 -3.62573 -0.541869 0
M  V30 6363 H 596.661 -4.05144 -2.98106 0
M  V30 6364 H 596.361 -5.51904 -2.01682 0
M  V30 6365 H 597.885 -5.35455 -2.93462 0
M  V30 6366 H 599.299 -5.69153 -0.688319 0
M  V30 6367 H 597.696 -6.00087 0.0398887 0
M  V30 6368 H 598.766 -4.78811 0.766057 0
M  V30 6369 N 600.109 -0.101901 -1.5727 0
M  V30 6370 C 601.334 0.571759 -1.99363 0
M  V30 6371 C 601.759 1.60507 -0.980768 0
M  V30 6372 O 601.117 1.81231 0.0498517 0
M  V30 6373 C 601.165 1.18996 -3.404 0
M  V30 6374 O 600.269 2.30572 -3.41922 0
M  V30 6375 H 599.61 0.144449 -0.648098 0
M  V30 6376 H 602.14 -0.185325 -2.03759 0
M  V30 6377 H 602.15 1.52962 -3.78241 0
M  V30 6378 H 600.825 0.432984 -4.1364 0
M  V30 6379 H 599.402 1.98173 -3.15883 0
M  V30 6380 N 601.587 1.56661 0.17182 0
M  V30 6381 C 602.998 1.71652 0.734329 0
M  V30 6382 C 603.349 0.712335 1.82812 0
M  V30 6383 O 602.474 -0.126401 2.16031 0
M  V30 6384 C 603.069 3.11226 1.3388 0
M  V30 6385 C 601.628 3.27904 1.84813 0
M  V30 6386 C 600.775 2.67603 0.726917 0
M  V30 6387 H 603.726 1.5861 -0.0535665 0
M  V30 6388 H 603.747 3.09849 2.20849 0
M  V30 6389 H 603.259 3.8429 0.54249 0
M  V30 6390 H 601.36 2.59796 2.6709 0
M  V30 6391 H 601.473 4.35637 1.99392 0
M  V30 6392 H 599.837 2.274 1.14723 0
M  V30 6393 H 600.62 3.43252 -0.0575334 0
M  V30 6394 N 603.065 -0.440357 1.51323 0
M  V30 6395 C 604.29 -1.21716 1.67928 0
M  V30 6396 C 604.715 -1.84328 0.374826 0
M  V30 6397 O 604.073 -1.68675 -0.664706 0
M  V30 6398 C 604.121 -2.27914 2.79442 0
M  V30 6399 O 603.225 -3.33325 2.42834 0
M  V30 6400 H 602.566 -0.35674 0.560029 0
M  V30 6401 H 605.096 -0.520417 1.97871 0
M  V30 6402 H 605.106 -2.72746 3.03436 0
M  V30 6403 H 603.781 -1.8172 3.741 0
M  V30 6404 H 602.358 -2.9399 2.294 0
M  V30 6405 N 604.543 -1.41418 -0.695603 0
M  V30 6406 C 605.954 -1.36335 -1.27552 0
M  V30 6407 C 606.305 -0.0464336 -1.96145 0
M  V30 6408 O 605.43 0.855304 -1.9878 0
M  V30 6409 C 606.025 -2.46941 -2.3196 0
M  V30 6410 C 604.584 -2.45256 -2.85529 0
M  V30 6411 C 603.731 -2.2679 -1.59566 0
M  V30 6412 H 606.682 -1.50934 -0.490362 0
M  V30 6413 H 606.703 -2.15997 -3.1325 0
M  V30 6414 H 606.215 -3.42775 -1.82008 0
M  V30 6415 H 604.316 -1.53179 -3.39657 0
M  V30 6416 H 604.429 -3.41565 -3.35961 0
M  V30 6417 H 602.793 -1.74667 -1.85374 0
M  V30 6418 H 603.576 -3.24651 -1.1161 0
M  V30 6419 N 606.021 0.929856 -1.27246 0
M  V30 6420 C 606.968 2.03017 -1.09785 0
M  V30 6421 C 607.938 1.661 0.000456744 0
M  V30 6422 O 609.123 1.90116 -0.161462 0
M  V30 6423 C 606.263 3.36878 -0.748816 0
M  V30 6424 C 605.376 3.86763 -1.92453 0
M  V30 6425 C 604.511 5.09061 -1.51758 0
M  V30 6426 C 603.55 5.51237 -2.66091 0
M  V30 6427 N 602.687 6.64732 -2.25999 0
M  V30 6428 H 607.527 2.17285 -2.03939 0
M  V30 6429 H 605.064 1.06448 -1.01524 0
M  V30 6430 H 607.022 4.13855 -0.527283 0
M  V30 6431 H 605.652 3.22424 0.155771 0
M  V30 6432 H 604.704 3.06086 -2.25867 0
M  V30 6433 H 606.016 4.13994 -2.78227 0
M  V30 6434 H 605.17 5.93532 -1.25716 0
M  V30 6435 H 603.909 4.83602 -0.630896 0
M  V30 6436 H 602.914 4.65316 -2.92849 0
M  V30 6437 H 604.139 5.78692 -3.55377 0
M  V30 6438 H 602.085 6.40935 -1.3978 0
M  V30 6439 H 602.002 6.91607 -3.05313 0
M  V30 6440 H 603.27 7.52549 -2.03199 0
M  V30 6441 N 607.499 1.09233 1.13605 0
M  V30 6442 C 608.91 0.846839 1.6639 0
M  V30 6443 C 609.261 -0.625031 1.85978 0
M  V30 6444 O 608.386 -1.48173 1.57714 0
M  V30 6445 C 608.981 1.5307 3.0225 0
M  V30 6446 C 607.54 1.33223 3.52035 0
M  V30 6447 C 606.687 1.58806 2.27323 0
M  V30 6448 H 609.638 1.25175 0.975541 0
M  V30 6449 H 609.659 0.96267 3.68121 0
M  V30 6450 H 609.171 2.60192 2.87961 0
M  V30 6451 H 607.272 0.282091 3.71531 0
M  V30 6452 H 607.385 2.0657 4.32279 0
M  V30 6453 H 605.749 1.01007 2.33815 0
M  V30 6454 H 606.532 2.67153 2.15602 0
M  V30 6455 N 608.977 -1.30795 0.87923 0
M  V30 6456 C 609.924 -2.28282 0.339968 0
M  V30 6457 C 610.894 -1.56134 -0.566685 0
M  V30 6458 O 612.079 -1.84231 -0.496338 0
M  V30 6459 C 609.219 -3.42225 -0.444501 0
M  V30 6460 C 608.332 -4.29204 0.490717 0
M  V30 6461 C 607.467 -5.30302 -0.308784 0
M  V30 6462 C 606.506 -6.08929 0.622272 0
M  V30 6463 N 605.643 -7.01957 -0.14155 0
M  V30 6464 H 610.483 -2.73794 1.17647 0
M  V30 6465 H 608.02 -1.34682 0.591527 0
M  V30 6466 H 609.978 -4.07038 -0.915186 0
M  V30 6467 H 608.608 -2.97799 -1.24562 0
M  V30 6468 H 607.66 -3.6475 1.07988 0
M  V30 6469 H 608.972 -4.84045 1.20425 0
M  V30 6470 H 608.126 -6.00835 -0.841575 0
M  V30 6471 H 606.865 -4.7614 -1.05556 0
M  V30 6472 H 605.87 -5.37278 1.16674 0
M  V30 6473 H 607.095 -6.65178 1.36804 0
M  V30 6474 H 605.041 -6.50192 -0.870966 0
M  V30 6475 H 604.958 -7.54261 0.51246 0
M  V30 6476 H 606.226 -7.76741 -0.655271 0
M  V30 6477 N 610.455 -0.639598 -1.44038 0
M  V30 6478 C 611.402 0.0602458 -2.30721 0
M  V30 6479 C 612.372 0.828352 -1.43971 0
M  V30 6480 O 613.557 0.807693 -1.72861 0
M  V30 6481 C 610.697 1.03008 -3.29368 0
M  V30 6482 C 609.81 0.259502 -4.3122 0
M  V30 6483 C 608.945 1.22191 -5.16955 0
M  V30 6484 C 607.984 0.440978 -6.10509 0
M  V30 6485 N 607.121 1.35428 -6.88915 0
M  V30 6486 H 611.961 -0.684867 -2.90023 0
M  V30 6487 H 609.498 -0.349509 -1.42888 0
M  V30 6488 H 611.456 1.60583 -3.85057 0
M  V30 6489 H 610.086 1.74222 -2.71747 0
M  V30 6490 H 609.138 -0.432317 -3.77935 0
M  V30 6491 H 610.45 -0.348347 -4.97582 0
M  V30 6492 H 609.604 1.86873 -5.77203 0
M  V30 6493 H 608.343 1.86367 -4.50687 0
M  V30 6494 H 607.348 -0.219279 -5.49363 0
M  V30 6495 H 608.573 -0.196192 -6.78817 0
M  V30 6496 H 606.519 1.9831 -6.25307 0
M  V30 6497 H 606.436 0.800657 -7.51748 0
M  V30 6498 H 607.704 1.98967 -7.53679 0
M  V30 6499 N 611.933 1.52934 -0.380664 0
M  V30 6500 C 613.158 2.06363 0.207157 0
M  V30 6501 C 613.583 1.25122 1.4045 0
M  V30 6502 O 612.941 0.274062 1.79217 0
M  V30 6503 C 612.989 3.56162 0.563996 0
M  V30 6504 O 612.093 3.77552 1.65917 0
M  V30 6505 H 611.434 0.663468 0.0265859 0
M  V30 6506 H 613.964 1.9719 -0.545635 0
M  V30 6507 H 613.974 3.99453 0.830752 0
M  V30 6508 H 612.649 4.14732 -0.311427 0
M  V30 6509 H 611.226 3.46154 1.3868 0
M  V30 6510 N 613.412 0.11024 1.57214 0
M  V30 6511 C 614.658 -0.550684 1.9518 0
M  V30 6512 C 614.991 -1.66885 0.993122 0
M  V30 6513 O 614.266 -1.94479 0.0287907 0
M  V30 6514 C 614.549 -1.09163 3.43155 0
M  V30 6515 C 614.402 0.0225198 4.49794 0
M  V30 6516 C 615.721 -1.98527 3.92778 0
M  V30 6517 H 612.84 -0.198706 0.709708 0
M  V30 6518 H 615.482 0.184024 1.89107 0
M  V30 6519 H 613.632 -1.71775 3.48462 0
M  V30 6520 H 615.304 0.657443 4.56591 0
M  V30 6521 H 613.547 0.686868 4.28328 0
M  V30 6522 H 614.218 -0.39706 5.5057 0
M  V30 6523 H 616.694 -1.458 3.8972 0
M  V30 6524 H 615.57 -2.33298 4.96853 0
M  V30 6525 H 615.831 -2.90846 3.32958 0
M  V30 6526 N 614.89 -1.56749 -0.16351 0
M  V30 6527 C 616.136 -1.82704 -0.880168 0
M  V30 6528 C 616.469 -0.689311 -1.81555 0
M  V30 6529 O 615.744 0.308224 -1.92042 0
M  V30 6530 C 616.027 -3.19084 -1.66905 0
M  V30 6531 C 615.88 -4.43397 -0.756269 0
M  V30 6532 C 617.199 -3.52493 -2.63509 0
M  V30 6533 H 614.318 -0.664608 -0.318535 0
M  V30 6534 H 616.96 -1.89438 -0.146036 0
M  V30 6535 H 615.11 -3.13475 -2.2949 0
M  V30 6536 H 616.782 -4.61079 -0.14269 0
M  V30 6537 H 615.025 -4.33752 -0.0647944 0
M  V30 6538 H 615.696 -5.3539 -1.34393 0
M  V30 6539 H 618.172 -3.58606 -2.11047 0
M  V30 6540 H 617.048 -4.48979 -3.15767 0
M  V30 6541 H 617.309 -2.77597 -3.44082 0
M  V30 6542 N 616.368 0.432326 -1.51554 0
M  V30 6543 C 617.614 1.18309 -1.64714 0
M  V30 6544 C 617.947 1.90745 -0.364696 0
M  V30 6545 O 617.222 1.8381 0.635936 0
M  V30 6546 C 617.505 2.1961 -2.85383 0
M  V30 6547 C 617.358 1.51223 -4.23617 0
M  V30 6548 C 618.677 3.20538 -3.01569 0
M  V30 6549 H 615.796 0.428751 -0.599451 0
M  V30 6550 H 618.438 0.471689 -1.84052 0
M  V30 6551 H 616.588 2.8028 -2.69027 0
M  V30 6552 H 618.26 0.938516 -4.51652 0
M  V30 6553 H 616.503 0.814501 -4.26085 0
M  V30 6554 H 617.174 2.25024 -5.04052 0
M  V30 6555 H 619.65 2.69926 -3.16669 0
M  V30 6556 H 618.526 3.88706 -3.87555 0
M  V30 6557 H 618.787 3.86933 -2.13859 0
M  V30 6558 N 617.846 1.41785 0.688094 0
M  V30 6559 C 618.793 1.44221 1.80191 0
M  V30 6560 C 619.763 0.295688 1.63447 0
M  V30 6561 O 620.948 0.49783 1.84191 0
M  V30 6562 C 618.088 1.33743 3.1813 0
M  V30 6563 C 617.201 2.58325 3.46254 0
M  V30 6564 C 616.336 2.40086 4.73848 0
M  V30 6565 C 615.375 3.60107 4.94964 0
M  V30 6566 N 614.512 3.40892 6.13789 0
M  V30 6567 H 619.352 2.39411 1.77444 0
M  V30 6568 H 616.889 1.18876 0.866423 0
M  V30 6569 H 618.847 1.25669 3.97823 0
M  V30 6570 H 617.477 0.42157 3.20035 0
M  V30 6571 H 616.529 2.7682 2.60912 0
M  V30 6572 H 617.841 3.4758 3.57756 0
M  V30 6573 H 616.995 2.29522 5.61609 0
M  V30 6574 H 615.734 1.483 4.64606 0
M  V30 6575 H 614.739 3.71118 4.05649 0
M  V30 6576 H 615.964 4.52857 5.06061 0
M  V30 6577 H 613.91 2.51812 6.05745 0
M  V30 6578 H 613.827 4.23727 6.26092 0
M  V30 6579 H 615.095 3.34114 7.04264 0
M  V30 6580 N 619.324 -0.923095 1.27737 0
M  V30 6581 C 620.271 -2.02432 1.1086 0
M  V30 6582 C 621.241 -1.66098 0.00835195 0
M  V30 6583 O 622.426 -1.90027 0.171542 0
M  V30 6584 C 619.566 -3.36476 0.766671 0
M  V30 6585 C 618.679 -3.85737 1.94501 0
M  V30 6586 C 617.814 -5.08249 1.54455 0
M  V30 6587 C 616.853 -5.49818 2.6901 0
M  V30 6588 N 615.99 -6.63524 2.29521 0
M  V30 6589 H 620.83 -2.16201 2.05089 0
M  V30 6590 H 618.367 -1.05909 1.02087 0
M  V30 6591 H 620.325 -4.13569 0.549223 0
M  V30 6592 H 618.955 -3.22502 -0.13867 0
M  V30 6593 H 618.007 -3.04883 2.27487 0
M  V30 6594 H 619.319 -4.12513 2.80419 0
M  V30 6595 H 618.473 -5.92857 1.28862 0
M  V30 6596 H 617.212 -4.83261 0.656534 0
M  V30 6597 H 616.217 -4.63757 2.95313 0
M  V30 6598 H 617.442 -5.76799 3.5844 0
M  V30 6599 H 615.388 -6.40185 1.43177 0
M  V30 6600 H 615.305 -6.89978 3.08977 0
M  V30 6601 H 616.573 -7.51461 2.07187 0
M  V30 6602 N 620.802 -1.09834 -1.13024 0
M  V30 6603 C 621.749 -0.741522 -2.18564 0
M  V30 6604 C 622.719 0.279236 -1.63736 0
M  V30 6605 O 623.904 0.159923 -1.90129 0
M  V30 6606 C 621.044 -0.17277 -3.44667 0
M  V30 6607 C 620.157 -1.24808 -4.13578 0
M  V30 6608 C 619.292 -0.641631 -5.27311 0
M  V30 6609 C 618.331 -1.69795 -5.88078 0
M  V30 6610 N 617.468 -1.11223 -6.93234 0
M  V30 6611 H 622.308 -1.64576 -2.48432 0
M  V30 6612 H 619.845 -0.822174 -1.21978 0
M  V30 6613 H 621.803 0.17482 -4.16834 0
M  V30 6614 H 620.433 0.694725 -3.15235 0
M  V30 6615 H 619.485 -1.71288 -3.39653 0
M  V30 6616 H 620.797 -2.04795 -4.54819 0
M  V30 6617 H 619.951 -0.243128 -6.06213 0
M  V30 6618 H 618.69 0.189742 -4.87331 0
M  V30 6619 H 617.695 -2.10595 -5.07868 0
M  V30 6620 H 618.92 -2.53206 -6.3013 0
M  V30 6621 H 616.866 -0.302208 -6.55304 0
M  V30 6622 H 616.783 -1.84901 -7.3304 0
M  V30 6623 H 618.051 -0.740068 -7.75979 0
M  V30 6624 N 622.28 1.30327 -0.886154 0
M  V30 6625 C 623.227 2.28099 -0.352069 0
M  V30 6626 C 624.197 1.56433 0.558397 0
M  V30 6627 O 625.382 1.84492 0.486561 0
M  V30 6628 C 622.522 3.42456 0.426346 0
M  V30 6629 C 621.635 4.28938 -0.513472 0
M  V30 6630 C 620.77 5.30458 0.280657 0
M  V30 6631 C 619.809 6.0859 -0.654556 0
M  V30 6632 N 618.946 7.02022 0.104322 0
M  V30 6633 H 623.786 2.73166 -1.19097 0
M  V30 6634 H 621.323 1.34367 -0.598662 0
M  V30 6635 H 623.281 4.07518 0.893587 0
M  V30 6636 H 621.911 2.98455 1.22981 0
M  V30 6637 H 620.963 3.64173 -1.09921 0
M  V30 6638 H 622.275 4.83399 -1.2299 0
M  V30 6639 H 621.429 6.01273 0.8097 0
M  V30 6640 H 620.168 4.76693 1.03029 0
M  V30 6641 H 619.173 5.36651 -1.19522 0
M  V30 6642 H 620.398 6.64443 -1.4033 0
M  V30 6643 H 618.344 6.50645 0.836472 0
M  V30 6644 H 618.261 7.53979 -0.552453 0
M  V30 6645 H 619.529 7.77077 0.614069 0
M  V30 6646 N 623.758 0.647228 1.43697 0
M  V30 6647 C 625.005 0.158188 2.01881 0
M  V30 6648 C 625.333 -1.22573 1.51017 0
M  V30 6649 O 624.588 -1.83086 0.69122 0
M  V30 6650 C 624.887 0.111481 3.57226 0
M  V30 6651 C 624.553 1.43633 4.27411 0
M  V30 6652 C 623.215 1.79915 4.463 0
M  V30 6653 C 625.567 2.31011 4.67208 0
M  V30 6654 C 622.895 3.03251 5.02251 0
M  V30 6655 C 625.247 3.53633 5.24525 0
M  V30 6656 C 623.911 3.90118 5.41631 0
M  V30 6657 H 623.181 0.0578851 0.738736 0
M  V30 6658 H 625.828 0.836746 1.72252 0
M  V30 6659 H 624.133 -0.650507 3.86362 0
M  V30 6660 H 625.83 -0.283682 3.99995 0
M  V30 6661 H 622.42 1.14403 4.1305 0
M  V30 6662 H 626.604 2.04272 4.52313 0
M  V30 6663 H 621.86 3.31575 5.13681 0
M  V30 6664 H 626.034 4.21561 5.5431 0
M  V30 6665 H 623.661 4.85768 5.84751 0
M  V30 6666 N 625.236 -1.5273 0.388769 0
M  V30 6667 C 626.183 -2.26437 -0.446639 0
M  V30 6668 C 627.153 -1.28025 -1.05824 0
M  V30 6669 O 628.338 -1.56852 -1.08637 0
M  V30 6670 C 625.478 -3.07407 -1.56828 0
M  V30 6671 C 624.591 -4.20747 -0.979589 0
M  V30 6672 C 623.726 -4.89113 -2.07224 0
M  V30 6673 C 622.765 -5.94447 -1.45942 0
M  V30 6674 N 621.902 -6.56411 -2.49135 0
M  V30 6675 H 626.742 -2.97404 0.18837 0
M  V30 6676 H 624.279 -1.46727 0.104725 0
M  V30 6677 H 626.237 -3.52642 -2.22934 0
M  V30 6678 H 624.867 -2.3865 -2.17361 0
M  V30 6679 H 623.919 -3.7983 -0.208151 0
M  V30 6680 H 625.231 -4.9637 -0.491747 0
M  V30 6681 H 624.385 -5.3765 -2.81101 0
M  V30 6682 H 623.124 -4.13013 -2.59368 0
M  V30 6683 H 622.129 -5.4525 -0.705894 0
M  V30 6684 H 623.354 -6.7248 -0.945932 0
M  V30 6685 H 621.3 -5.83152 -3.00449 0
M  V30 6686 H 621.217 -7.27645 -2.05105 0
M  V30 6687 H 622.485 -7.09592 -3.22644 0
M  V30 6688 N 626.714 -0.118576 -1.57153 0
M  V30 6689 C 627.644 0.828436 -2.1831 0
M  V30 6690 C 628.625 1.27758 -1.12303 0
M  V30 6691 O 629.81 1.34026 -1.40537 0
M  V30 6692 C 626.94 2.07876 -2.78217 0
M  V30 6693 C 625.894 1.76742 -3.89803 0
M  V30 6694 C 625.22 3.08801 -4.36516 0
M  V30 6695 C 626.52 1.03606 -5.11921 0
M  V30 6696 H 628.214 0.318824 -2.97698 0
M  V30 6697 H 625.76 0.151911 -1.43196 0
M  V30 6698 H 627.713 2.74584 -3.19659 0
M  V30 6699 H 626.437 2.61161 -1.96118 0
M  V30 6700 H 625.096 1.12424 -3.48936 0
M  V30 6701 H 624.744 3.6002 -3.51276 0
M  V30 6702 H 624.444 2.88743 -5.11763 0
M  V30 6703 H 625.968 3.76627 -4.80608 0
M  V30 6704 H 627.382 1.60467 -5.50385 0
M  V30 6705 H 625.779 0.936454 -5.92748 0
M  V30 6706 H 626.849 0.0227421 -4.84895 0
M  V30 6707 N 628.193 1.56834 0.155195 0
M  V30 6708 C 629.47 1.73799 0.897395 0
M  V30 6709 C 629.85 0.684379 1.99698 0
M  V30 6710 O 629.198 -0.298111 2.26547 0
M  V30 6711 C 629.408 3.17572 1.44737 0
M  V30 6712 C 630.756 3.79014 1.91399 0
M  V30 6713 O 631.78 3.20951 1.54496 0
M  V30 6714 O 630.639 4.80998 2.59429 0
M  V30 6715 H 627.733 0.710329 0.423511 0
M  V30 6716 H 630.279 1.69107 0.141761 0
M  V30 6717 H 629.051 3.85749 0.656741 0
M  V30 6718 H 628.674 3.26657 2.26674 0
M  V30 6719 N 629.671 -0.424282 1.51781 0
M  V30 6720 C 630.618 -1.51591 1.74037 0
M  V30 6721 C 631.588 -1.55556 0.582358 0
M  V30 6722 O 632.773 -1.72364 0.818245 0
M  V30 6723 C 629.913 -2.89188 1.8832 0
M  V30 6724 C 629.026 -2.9465 3.1592 0
M  V30 6725 C 628.161 -4.23452 3.20721 0
M  V30 6726 C 627.2 -4.22831 4.42584 0
M  V30 6727 N 626.337 -5.43178 4.44862 0
M  V30 6728 H 631.177 -1.31917 2.67212 0
M  V30 6729 H 628.714 -0.640599 1.32419 0
M  V30 6730 H 630.672 -3.69044 1.94583 0
M  V30 6731 H 629.302 -3.07392 0.985402 0
M  V30 6732 H 628.354 -2.07378 3.18902 0
M  V30 6733 H 629.666 -2.90055 4.05795 0
M  V30 6734 H 628.82 -5.1169 3.25973 0
M  V30 6735 H 627.559 -4.30722 2.28757 0
M  V30 6736 H 626.564 -3.32984 4.37495 0
M  V30 6737 H 627.789 -4.17213 5.35826 0
M  V30 6738 H 625.735 -5.51145 3.55775 0
M  V30 6739 H 625.652 -5.40515 5.28563 0
M  V30 6740 H 626.92 -6.33412 4.54324 0
M  V30 6741 N 631.149 -1.42148 -0.680565 0
M  V30 6742 C 632.426 -1.32795 -1.43614 0
M  V30 6743 C 632.806 0.037415 -2.11067 0
M  V30 6744 O 632.154 1.05258 -2.02813 0
M  V30 6745 C 632.364 -2.49206 -2.44331 0
M  V30 6746 C 633.712 -2.91059 -3.09144 0
M  V30 6747 O 634.736 -2.49054 -2.54657 0
M  V30 6748 O 633.595 -3.63741 -4.07866 0
M  V30 6749 H 630.689 -0.523397 -0.640301 0
M  V30 6750 H 633.235 -1.54144 -0.709775 0
M  V30 6751 H 632.007 -3.40252 -1.93247 0
M  V30 6752 H 631.63 -2.29813 -3.24456 0
M  V30 6753 N 632.627 0.916307 -1.28225 0
M  V30 6754 C 633.575 2.03977 -1.11786 0
M  V30 6755 C 634.569 1.69358 -0.0378265 0
M  V30 6756 O 635.775 1.78925 -0.196405 0
M  V30 6757 H 632.15 0.66829 -0.344809 0
M  V30 6758 H 634.121 2.14985 -2.06939 0
M  V30 6759 C 632.87 3.38518 -0.7938 0
M  V30 6760 H 632.193 3.65649 -1.61682 0
M  V30 6761 H 633.633 4.17864 -0.718719 0
M  V30 6762 C 632.092 3.33134 0.502353 0
M  V30 6763 O 632.622 3.71281 1.53341 0
M  V30 6764 N 630.828 2.86229 0.502147 0
M  V30 6765 H 630.375 2.55382 -0.337338 0
M  V30 6766 H 630.333 2.83009 1.36942 0
M  V30 6767 N 634.105 1.10431 1.1244 0
M  V30 6768 C 635.353 0.845045 1.83585 0
M  V30 6769 C 635.674 -0.631168 1.84503 0
M  V30 6770 O 634.944 -1.45825 1.30813 0
M  V30 6771 H 633.524 0.309628 0.679809 0
M  V30 6772 H 636.186 1.39458 1.36153 0
M  V30 6773 H 635.282 1.20786 2.8778 0
M  V30 6774 N 635.583 -1.29855 0.893053 0
M  V30 6775 C 636.829 -1.96116 0.516349 0
M  V30 6776 C 637.162 -1.70281 -0.933695 0
M  V30 6777 O 636.437 -1.01205 -1.66096 0
M  V30 6778 C 636.72 -3.51068 0.801455 0
M  V30 6779 C 636.573 -3.86387 2.30272 0
M  V30 6780 C 637.892 -4.39186 0.283423 0
M  V30 6781 H 635.011 -0.712335 0.189072 0
M  V30 6782 H 637.653 -1.53587 1.11852 0
M  V30 6783 H 635.803 -3.87424 0.288949 0
M  V30 6784 H 637.475 -3.60012 2.88425 0
M  V30 6785 H 635.718 -3.34167 2.76613 0
M  V30 6786 H 636.389 -4.94512 2.45279 0
M  V30 6787 H 638.865 -4.09785 0.722187 0
M  V30 6788 H 637.741 -5.46505 0.512169 0
M  V30 6789 H 638.002 -4.34511 -0.815643 0
M  V30 6790 N 637.061 -0.65484 -1.43351 0
M  V30 6791 C 638.289 -0.176685 -2.06144 0
M  V30 6792 C 638.704 1.15831 -1.49093 0
M  V30 6793 O 638.061 1.71542 -0.622868 0
M  V30 6794 C 638.112 -0.0813326 -3.61408 0
M  V30 6795 O 637.833 -1.36355 -4.1634 0
M  V30 6796 C 639.334 0.422706 -4.4128 0
M  V30 6797 H 636.554 -0.0906429 -0.66485 0
M  V30 6798 H 639.098 -0.895945 -1.83829 0
M  V30 6799 H 637.253 0.588496 -3.82904 0
M  V30 6800 H 637.667 -1.22381 -5.10023 0
M  V30 6801 H 639.141 0.438375 -5.50257 0
M  V30 6802 H 639.618 1.45432 -4.14423 0
M  V30 6803 H 640.224 -0.214687 -4.24758 0
M  V30 6804 N 638.539 1.52521 -0.396863 0
M  V30 6805 C 639.95 1.86547 0.0754868 0
M  V30 6806 C 640.301 1.31621 1.45501 0
M  V30 6807 O 639.426 0.650563 2.0639 0
M  V30 6808 C 640.021 3.38495 0.143754 0
M  V30 6809 C 638.58 3.72205 0.560413 0
M  V30 6810 C 637.727 2.75954 -0.272856 0
M  V30 6811 H 640.678 1.46323 -0.614434 0
M  V30 6812 H 640.699 3.68153 0.961425 0
M  V30 6813 H 640.211 3.78442 -0.860415 0
M  V30 6814 H 638.312 3.3783 1.57167 0
M  V30 6815 H 638.425 4.78074 0.313314 0
M  V30 6816 H 636.789 2.53339 0.263 0
M  V30 6817 H 637.572 3.1874 -1.27515 0
M  V30 6818 N 640.017 0.126909 1.57088 0
M  V30 6819 C 641.265 -0.528123 1.95078 0
M  V30 6820 C 641.586 -1.66708 1.0116 0
M  V30 6821 O 640.856 -1.95777 0.0693527 0
M  V30 6822 H 639.436 -0.198087 0.720257 0
M  V30 6823 H 642.098 0.197703 1.93895 0
M  V30 6824 H 641.194 -0.917507 2.98309 0
M  V30 6825 N 641.495 -1.56914 -0.146875 0
M  V30 6826 C 642.405 -2.0154 -1.20079 0
M  V30 6827 C 643.421 -0.930838 -1.47008 0
M  V30 6828 O 644.597 -1.24032 -1.58676 0
M  V30 6829 C 641.662 -2.38715 -2.51428 0
M  V30 6830 C 640.723 -3.6112 -2.32145 0
M  V30 6831 C 639.956 -3.96512 -3.57231 0
M  V30 6832 O 640.179 -3.32566 -4.63418 0
M  V30 6833 O 639.113 -4.89758 -3.49887 0
M  V30 6834 H 642.939 -2.91506 -0.851924 0
M  V30 6835 H 640.524 -1.45106 -0.355607 0
M  V30 6836 H 642.406 -2.63485 -3.28867 0
M  V30 6837 H 641.081 -1.51903 -2.85845 0
M  V30 6838 H 639.988 -3.41536 -1.52656 0
M  V30 6839 H 641.321 -4.48549 -2.02644 0
M  V30 6840 N 642.974 0.416227 -1.52004 0
M  V30 6841 C 643.921 1.50666 -1.74838 0
M  V30 6842 C 644.891 1.55245 -0.590599 0
M  V30 6843 O 646.076 1.71928 -0.827374 0
M  V30 6844 C 643.216 2.88185 -1.89851 0
M  V30 6845 C 642.329 2.92971 -3.17478 0
M  V30 6846 C 641.464 4.21745 -3.22962 0
M  V30 6847 C 640.503 4.20478 -4.4482 0
M  V30 6848 N 639.64 5.40811 -4.47736 0
M  V30 6849 H 644.48 1.30498 -2.67907 0
M  V30 6850 H 642.017 0.633568 -1.32757 0
M  V30 6851 H 643.975 3.68007 -1.96537 0
M  V30 6852 H 642.605 3.06865 -1.00169 0
M  V30 6853 H 641.657 2.05684 -3.19997 0
M  V30 6854 H 642.969 2.87899 -4.07328 0
M  V30 6855 H 642.123 5.09954 -3.28682 0
M  V30 6856 H 640.862 4.29503 -2.31038 0
M  V30 6857 H 639.867 3.30659 -4.39254 0
M  V30 6858 H 641.092 4.14366 -5.38031 0
M  V30 6859 H 639.038 5.4925 -3.58692 0
M  V30 6860 H 638.955 5.37705 -5.31422 0
M  V30 6861 H 640.223 6.30993 -4.57676 0
M  V30 6862 N 644.452 1.42507 0.673017 0
M  V30 6863 C 645.385 1.40557 1.79774 0
M  V30 6864 C 646.363 0.269606 1.60349 0
M  V30 6865 O 647.547 0.460105 1.82798 0
M  V30 6866 C 644.674 1.19815 3.168 0
M  V30 6867 C 643.72 2.36429 3.5497 0
M  V30 6868 S 644.553 3.98963 3.57196 0
M  V30 6869 C 645.709 3.80567 4.9691 0
M  V30 6870 H 645.942 2.35734 1.81154 0
M  V30 6871 H 643.475 1.293 0.843846 0
M  V30 6872 H 645.433 1.08535 3.95892 0
M  V30 6873 H 644.094 0.262215 3.13004 0
M  V30 6874 H 643.287 2.17669 4.54573 0
M  V30 6875 H 642.889 2.44233 2.83242 0
M  V30 6876 H 645.181 3.41668 5.85038 0
M  V30 6877 H 646.124 4.79852 5.20718 0
M  V30 6878 H 646.532 3.13399 4.69512 0
M  V30 6879 N 645.93 -0.909495 1.28709 0
M  V30 6880 C 646.86 -2.0291 1.15542 0
M  V30 6881 C 647.841 -1.7002 0.0521017 0
M  V30 6882 O 649.026 -1.92835 0.229849 0
M  V30 6883 C 646.156 -3.37458 0.820935 0
M  V30 6884 C 645.11 -3.84524 1.87949 0
M  V30 6885 C 644.436 -5.16086 1.39854 0
M  V30 6886 C 645.736 -4.05918 3.28676 0
M  V30 6887 H 647.43 -2.14183 2.09203 0
M  V30 6888 H 644.976 -1.02913 1.00722 0
M  V30 6889 H 646.929 -4.1528 0.715571 0
M  V30 6890 H 645.653 -3.26249 -0.151374 0
M  V30 6891 H 644.312 -3.08911 1.97408 0
M  V30 6892 H 643.96 -5.01284 0.41518 0
M  V30 6893 H 643.66 -5.48547 2.1064 0
M  V30 6894 H 645.184 -5.96459 1.30649 0
M  V30 6895 H 646.598 -4.74252 3.22115 0
M  V30 6896 H 644.995 -4.49717 3.97334 0
M  V30 6897 H 646.065 -3.10583 3.72379 0
M  V30 6898 N 647.408 -1.11026 -1.11852 0
M  V30 6899 C 648.636 -0.878818 -1.87308 0
M  V30 6900 C 649.051 0.57111 -1.79955 0
M  V30 6901 O 648.408 1.39409 -1.17777 0
M  V30 6902 C 648.459 -1.3264 -3.36287 0
M  V30 6903 O 648.18 -2.71948 -3.43476 0
M  V30 6904 C 649.681 -1.12974 -4.28663 0
M  V30 6905 H 646.901 -0.315015 -0.592458 0
M  V30 6906 H 649.445 -1.47649 -1.41492 0
M  V30 6907 H 647.6 -0.772269 -3.79625 0
M  V30 6908 H 648.014 -2.91241 -4.3621 0
M  V30 6909 H 649.488 -1.49198 -5.31454 0
M  V30 6910 H 649.965 -0.0689127 -4.39146 0
M  V30 6911 H 650.571 -1.67064 -3.91113 0
M  V30 6912 N 648.886 1.2938 -0.899927 0
M  V30 6913 C 650.132 1.9584 -0.526742 0
M  V30 6914 C 650.465 1.70774 0.924651 0
M  V30 6915 O 649.74 1.02084 1.65557 0
M  V30 6916 C 650.023 3.50638 -0.820062 0
M  V30 6917 C 649.876 3.85161 -2.32317 0
M  V30 6918 C 651.195 4.3903 -0.30671 0
M  V30 6919 H 648.314 0.711322 -0.192848 0
M  V30 6920 H 650.956 1.52992 -1.12665 0
M  V30 6921 H 649.106 3.87265 -0.309491 0
M  V30 6922 H 650.778 3.58477 -2.9033 0
M  V30 6923 H 649.021 3.32696 -2.78381 0
M  V30 6924 H 649.692 4.93204 -2.47898 0
M  V30 6925 H 652.168 4.09396 -0.743908 0
M  V30 6926 H 651.044 5.46226 -0.541144 0
M  V30 6927 H 651.305 4.34937 0.792588 0
M  V30 6928 N 650.364 0.662433 1.43002 0
M  V30 6929 C 651.775 0.258315 1.84904 0
M  V30 6930 C 652.126 -1.19703 1.55453 0
M  V30 6931 O 651.251 -1.91484 1.00811 0
M  V30 6932 C 651.846 0.462047 3.35635 0
M  V30 6933 C 650.405 0.112165 3.76233 0
M  V30 6934 C 649.552 0.760479 2.66668 0
M  V30 6935 H 652.503 0.865467 1.33024 0
M  V30 6936 H 652.524 -0.289646 3.79396 0
M  V30 6937 H 652.036 1.52135 3.57039 0
M  V30 6938 H 650.137 -0.944179 3.60439 0
M  V30 6939 H 650.25 0.544058 4.76001 0
M  V30 6940 H 648.614 0.192887 2.53969 0
M  V30 6941 H 649.397 1.82299 2.90898 0
M  V30 6942 N 651.842 -1.52309 0.404946 0
M  V30 6943 C 652.792 -2.23717 -0.439864 0
M  V30 6944 C 653.776 -1.24692 -1.0169 0
M  V30 6945 O 654.968 -1.49951 -0.940409 0
M  V30 6946 C 652.097 -3.05898 -1.55825 0
M  V30 6947 C 651.183 -4.12331 -0.992188 0
M  V30 6948 N 651.574 -5.0557 -0.152424 0
M  V30 6949 C 649.872 -4.2774 -1.26312 0
M  V30 6950 C 650.573 -5.81474 0.162041 0
M  V30 6951 N 649.549 -5.41767 -0.44601 0
M  V30 6952 H 653.351 -2.93162 0.208084 0
M  V30 6953 H 650.865 -1.60969 0.215131 0
M  V30 6954 H 652.862 -3.55605 -2.17603 0
M  V30 6955 H 651.522 -2.37991 -2.20886 0
M  V30 6956 H 652.533 -5.17468 0.211556 0
M  V30 6957 H 649.21 -3.71062 -1.91362 0
M  V30 6958 H 650.6 -6.66585 0.843423 0
M  V30 6959 N 653.32 -0.135238 -1.57019 0
M  V30 6960 C 654.569 0.518694 -1.94917 0
M  V30 6961 C 654.882 1.66783 -1.0219 0
M  V30 6962 O 656.088 2.38561 -1.29619 0
M  V30 6963 C 654.544 0.974123 -3.46466 0
M  V30 6964 C 654.152 -0.147439 -4.47757 0
M  V30 6965 C 655.896 1.59851 -3.93253 0
M  V30 6966 C 653.803 0.325599 -5.90503 0
M  V30 6967 H 652.733 0.19754 -0.727663 0
M  V30 6968 H 655.384 -0.217698 -1.82204 0
M  V30 6969 H 653.766 1.76542 -3.5447 0
M  V30 6970 H 654.94 -0.924122 -4.51438 0
M  V30 6971 H 653.255 -0.679496 -4.10818 0
M  V30 6972 H 655.852 1.96385 -4.9733 0
M  V30 6973 H 656.195 2.48306 -3.3414 0
M  V30 6974 H 656.728 0.872323 -3.88118 0
M  V30 6975 H 653.467 -0.523295 -6.53408 0
M  V30 6976 H 652.987 1.06841 -5.90208 0
M  V30 6977 H 654.666 0.781498 -6.42263 0
M  V30 6978 N 654.798 1.5699 0.138552 0
M  V30 6979 C 656.026 1.87976 0.864437 0
M  V30 6980 C 656.441 0.724372 1.74351 0
M  V30 6981 O 655.798 -0.305575 1.79924 0
M  V30 6982 C 655.849 3.18276 1.71414 0
M  V30 6983 O 655.57 4.29365 0.870487 0
M  V30 6984 C 657.071 3.62834 2.54688 0
M  V30 6985 H 654.291 0.622878 0.249528 0
M  V30 6986 H 656.835 2.04094 0.128805 0
M  V30 6987 H 654.99 3.03886 2.40274 0
M  V30 6988 H 655.404 5.03924 1.45466 0
M  V30 6989 H 656.878 4.5682 3.0987 0
M  V30 6990 H 657.355 2.88533 3.31127 0
M  V30 6991 H 657.961 3.79946 1.91105 0
M  V30 6992 N 656.276 -0.40816 1.52223 0
M  V30 6993 C 657.516 -1.16418 1.68006 0
M  V30 6994 C 657.88 -1.87749 0.401793 0
M  V30 6995 O 659.081 -2.65245 0.435743 0
M  V30 6996 C 657.352 -2.13143 2.86889 0
M  V30 6997 S 658.911 -2.96839 3.2316 0
M  V30 6998 H 655.729 -0.394373 0.5916 0
M  V30 6999 H 658.331 -0.451349 1.90219 0
M  V30 7000 H 657.035 -1.59428 3.78168 0
M  V30 7001 H 656.566 -2.88963 2.66953 0
M  V30 7002 H 658.581 -4.151 2.71857 0
M  V30 7003 N 657.755 -1.42862 -0.66545 0
M  V30 7004 C 659.032 -1.3431 -1.42197 0
M  V30 7005 C 659.412 0.0150265 -2.11095 0
M  V30 7006 O 658.76 1.03101 -2.03918 0
M  V30 7007 C 658.97 -2.51783 -2.41674 0
M  V30 7008 C 660.318 -2.94321 -3.0604 0
M  V30 7009 O 661.342 -2.51741 -2.52001 0
M  V30 7010 O 660.201 -3.68047 -4.03985 0
M  V30 7011 H 657.295 -0.530159 -0.634713 0
M  V30 7012 H 659.841 -1.54888 -0.693386 0
M  V30 7013 H 658.613 -3.42282 -1.89627 0
M  V30 7014 H 658.236 -2.33241 -3.22001 0
M  V30 7015 N 659.233 0.902656 -1.29189 0
M  V30 7016 C 660.644 1.46809 -1.15343 0
M  V30 7017 C 660.995 1.94568 0.252517 0
M  V30 7018 O 660.12 1.83454 1.14777 0
M  V30 7019 C 660.715 2.66829 -2.08776 0
M  V30 7020 C 659.274 3.19518 -1.98961 0
M  V30 7021 C 658.421 1.92212 -1.99874 0
M  V30 7022 H 661.372 0.714282 -1.41717 0
M  V30 7023 H 661.393 3.42465 -1.65826 0
M  V30 7024 H 660.905 2.32039 -3.11094 0
M  V30 7025 H 659.006 3.59008 -0.99721 0
M  V30 7026 H 659.119 3.84016 -2.86477 0
M  V30 7027 H 657.483 2.0979 -1.44431 0
M  V30 7028 H 658.266 1.59702 -3.03891 0
M  V30 7029 N 660.711 1.11618 1.11262 0
M  V30 7030 C 662.122 0.881942 1.64556 0
M  V30 7031 C 662.473 -0.585442 1.87262 0
M  V30 7032 O 661.598 -1.44795 1.60821 0
M  V30 7033 C 662.193 1.59446 2.98935 0
M  V30 7034 C 660.752 1.40661 3.4913 0
M  V30 7035 C 659.899 1.63593 2.23903 0
M  V30 7036 H 662.85 1.27217 0.94877 0
M  V30 7037 H 662.871 1.04054 3.65996 0
M  V30 7038 H 662.383 2.66241 2.82378 0
M  V30 7039 H 660.484 0.360835 3.70849 0
M  V30 7040 H 660.597 2.15693 4.27801 0
M  V30 7041 H 658.961 1.05944 2.3162 0
M  V30 7042 H 659.744 2.71666 2.09886 0
M  V30 7043 N 662.189 -1.289 0.906776 0
M  V30 7044 C 663.099 -2.31256 0.394707 0
M  V30 7045 C 664.115 -1.66231 -0.514121 0
M  V30 7046 O 665.291 -1.97347 -0.401994 0
M  V30 7047 C 662.356 -3.44792 -0.363191 0
M  V30 7048 C 661.417 -4.25391 0.578012 0
M  V30 7049 C 660.65 -5.33506 -0.143811 0
M  V30 7050 O 660.873 -5.53786 -1.36665 0
M  V30 7051 O 659.807 -5.99673 0.5173 0
M  V30 7052 H 663.633 -2.77051 1.24405 0
M  V30 7053 H 661.218 -1.33466 0.671346 0
M  V30 7054 H 663.1 -4.139 -0.791503 0
M  V30 7055 H 661.775 -3.01093 -1.18848 0
M  V30 7056 H 660.682 -3.58899 1.05558 0
M  V30 7057 H 662.015 -4.72752 1.36992 0
M  V30 7058 N 663.667 -0.670007 -1.42649 0
M  V30 7059 C 664.577 0.0114788 -2.34597 0
M  V30 7060 C 665.593 0.794055 -1.54825 0
M  V30 7061 O 666.769 0.737472 -1.87412 0
M  V30 7062 C 663.834 0.954436 -3.33304 0
M  V30 7063 C 662.895 0.166925 -4.28975 0
M  V30 7064 C 662.128 1.06497 -5.22967 0
M  V30 7065 O 662.351 2.30446 -5.21777 0
M  V30 7066 O 661.285 0.528347 -5.99577 0
M  V30 7067 H 665.111 -0.745794 -2.944 0
M  V30 7068 H 662.696 -0.430228 -1.43071 0
M  V30 7069 H 664.578 1.49589 -3.93956 0
M  V30 7070 H 663.253 1.69164 -2.7598 0
M  V30 7071 H 662.16 -0.418515 -3.71752 0
M  V30 7072 H 663.493 -0.531067 -4.89327 0
M  V30 7073 N 665.145 1.52092 -0.413018 0
M  V30 7074 C 666.561 1.59471 -0.0640836 0
M  V30 7075 C 666.761 1.42562 1.42402 0
M  V30 7076 O 665.817 1.25453 2.19129 0
M  V30 7077 C 667.13 2.95392 -0.562474 0
M  V30 7078 C 668.678 3.08637 -0.520788 0
M  V30 7079 C 669.153 4.47044 -0.995752 0
M  V30 7080 N 670.644 4.53296 -0.952732 0
M  V30 7081 C 671.379 5.58669 -1.29138 0
M  V30 7082 N 670.875 6.71576 -1.70168 0
M  V30 7083 N 672.668 5.48898 -1.2111 0
M  V30 7084 H 664.819 1.6133 -1.38153 0
M  V30 7085 H 667.082 0.75916 -0.567785 0
M  V30 7086 H 666.788 3.13059 -1.60271 0
M  V30 7087 H 666.662 3.77191 0.0257875 0
M  V30 7088 H 669.049 2.90652 0.510412 0
M  V30 7089 H 669.13 2.28735 -1.14515 0
M  V30 7090 H 668.774 4.65773 -2.0253 0
M  V30 7091 H 668.704 5.25448 -0.348162 0
M  V30 7092 H 671.195 3.72248 -0.651119 0
M  V30 7093 H 671.508 7.47973 -1.9431 0
M  V30 7094 H 669.853 6.72847 -1.74075 0
M  V30 7095 H 673.044 4.59573 -0.889396 0
M  V30 7096 H 673.217 6.30912 -1.47833 0
M  V30 7097 N 666.623 0.143563 1.56945 0
M  V30 7098 C 668.039 -0.212877 1.58174 0
M  V30 7099 C 668.239 -1.64926 1.15766 0
M  V30 7100 O 667.295 -2.37535 0.856361 0
M  V30 7101 C 668.608 0.0427573 3.0067 0
M  V30 7102 C 670.156 -0.0212221 3.12993 0
M  V30 7103 C 670.631 0.207036 4.57532 0
M  V30 7104 N 672.122 0.153845 4.62944 0
M  V30 7105 C 672.857 0.305018 5.72588 0
M  V30 7106 N 672.353 0.513722 6.90893 0
M  V30 7107 N 674.146 0.242862 5.61575 0
M  V30 7108 H 666.297 1.08148 1.82805 0
M  V30 7109 H 668.56 0.427831 0.84597 0
M  V30 7110 H 668.266 1.03672 3.36073 0
M  V30 7111 H 668.14 -0.678195 3.71053 0
M  V30 7112 H 670.527 -1.00574 2.77433 0
M  V30 7113 H 670.608 0.732004 2.45103 0
M  V30 7114 H 670.252 1.18863 4.93795 0
M  V30 7115 H 670.182 -0.566473 5.23544 0
M  V30 7116 H 672.673 -0.00294866 3.779 0
M  V30 7117 H 672.986 0.619273 7.70315 0
M  V30 7118 H 671.331 0.550001 6.9282 0
M  V30 7119 H 674.522 0.0806015 4.68031 0
M  V30 7120 H 674.695 0.364112 6.46976 0
M  V30 7121 N 668.101 -1.57061 -0.130224 0
M  V30 7122 C 669.031 -2.02552 -1.16168 0
M  V30 7123 C 670.012 -0.907971 -1.4384 0
M  V30 7124 O 671.197 -1.17693 -1.54473 0
M  V30 7125 C 668.327 -2.42035 -2.49071 0
M  V30 7126 C 667.281 -3.5713 -2.35886 0
M  V30 7127 C 666.607 -3.82478 -3.7365 0
M  V30 7128 C 667.907 -4.89236 -1.8288 0
M  V30 7129 H 669.601 -2.8897 -0.783359 0
M  V30 7130 H 667.147 -1.39021 -0.375376 0
M  V30 7131 H 669.1 -2.72462 -3.21469 0
M  V30 7132 H 667.824 -1.52573 -2.88771 0
M  V30 7133 H 666.483 -3.26895 -1.65938 0
M  V30 7134 H 666.131 -2.9024 -4.10816 0
M  V30 7135 H 665.831 -4.59944 -3.65685 0
M  V30 7136 H 667.355 -4.15347 -4.47571 0
M  V30 7137 H 668.769 -5.18272 -2.45085 0
M  V30 7138 H 667.166 -5.70624 -1.85763 0
M  V30 7139 H 668.236 -4.78494 -0.785571 0
M  V30 7140 N 669.579 0.400081 -1.52437 0
M  V30 7141 C 670.856 1.15973 -1.57511 0
M  V30 7142 C 671.236 2.0798 -0.361572 0
M  V30 7143 O 670.584 2.19032 0.650929 0
M  V30 7144 C 670.794 1.92912 -2.90837 0
M  V30 7145 C 672.142 2.48662 -3.44169 0
M  V30 7146 O 673.166 2.03081 -2.92637 0
M  V30 7147 O 672.025 3.31894 -4.34176 0
M  V30 7148 H 669.119 0.530023 -0.634827 0
M  V30 7149 H 671.665 0.40613 -1.64769 0
M  V30 7150 H 670.437 1.25564 -3.70607 0
M  V30 7151 H 670.06 2.75257 -2.86913 0
M  V30 7152 N 671.057 1.43213 0.657864 0
M  V30 7153 C 672.007 1.44459 1.76396 0
M  V30 7154 C 672.991 0.313641 1.57814 0
M  V30 7155 O 674.183 0.557094 1.68004 0
M  V30 7156 C 671.312 1.36586 3.14959 0
M  V30 7157 C 670.398 2.54692 3.39106 0
M  V30 7158 N 670.789 3.80059 3.33749 0
M  V30 7159 C 669.087 2.49316 3.69807 0
M  V30 7160 C 669.788 4.58606 3.57849 0
M  V30 7161 N 668.764 3.89267 3.79437 0
M  V30 7162 H 672.566 2.39265 1.70673 0
M  V30 7163 H 670.08 1.378 0.859357 0
M  V30 7164 H 672.077 1.35561 3.94245 0
M  V30 7165 H 670.737 0.427956 3.21867 0
M  V30 7166 H 671.748 4.12414 3.13266 0
M  V30 7167 H 668.425 1.6419 3.83859 0
M  V30 7168 H 669.815 5.67619 3.59525 0
M  V30 7169 N 672.536 -0.895792 1.29666 0
M  V30 7170 C 673.783 -1.64664 1.17864 0
M  V30 7171 C 674.111 -1.92631 -0.26902 0
M  V30 7172 O 673.366 -1.53787 -1.21029 0
M  V30 7173 C 673.665 -3.00075 1.94139 0
M  V30 7174 C 673.331 -2.91702 3.43833 0
M  V30 7175 C 671.993 -2.89126 3.84656 0
M  V30 7176 C 674.345 -2.80622 4.39205 0
M  V30 7177 C 671.673 -2.73293 5.1916 0
M  V30 7178 C 674.025 -2.66329 5.73805 0
M  V30 7179 C 672.689 -2.62121 6.1388 0
M  V30 7180 H 671.959 -0.602549 0.431295 0
M  V30 7181 H 674.606 -1.04234 1.60648 0
M  V30 7182 H 672.911 -3.64394 1.43958 0
M  V30 7183 H 674.608 -3.57111 1.82408 0
M  V30 7184 H 671.198 -2.94511 3.11386 0
M  V30 7185 H 675.382 -2.81686 4.08615 0
M  V30 7186 H 670.638 -2.68443 5.49316 0
M  V30 7187 H 674.812 -2.56727 6.47352 0
M  V30 7188 H 672.439 -2.49611 7.18052 0
M  V30 7189 N 674.014 -1.12206 -1.10668 0
M  V30 7190 C 675.239 -0.898938 -1.86906 0
M  V30 7191 C 675.664 0.546346 -1.79991 0
M  V30 7192 O 675.022 1.38655 -1.1681 0
M  V30 7193 C 675.07 -1.37529 -3.33344 0
M  V30 7194 O 674.174 -0.55218 -4.08687 0
M  V30 7195 H 673.515 -0.323163 -0.580053 0
M  V30 7196 H 676.045 -1.49355 -1.39837 0
M  V30 7197 H 676.055 -1.3733 -3.84193 0
M  V30 7198 H 674.73 -2.42767 -3.37693 0
M  V30 7199 H 673.307 -0.620947 -3.67694 0
M  V30 7200 N 675.492 1.28418 -0.913599 0
M  V30 7201 C 676.738 1.9527 -0.547484 0
M  V30 7202 C 677.071 1.71745 0.906486 0
M  V30 7203 O 676.346 1.03834 1.64465 0
M  V30 7204 C 676.629 3.49748 -0.857205 0
M  V30 7205 C 676.482 3.82675 -2.3639 0
M  V30 7206 C 677.801 4.3868 -0.353258 0
M  V30 7207 H 674.92 0.709236 -0.200381 0
M  V30 7208 H 677.562 1.51789 -1.14281 0
M  V30 7209 H 675.712 3.86915 -0.350548 0
M  V30 7210 H 677.384 3.55378 -2.94116 0
M  V30 7211 H 675.627 3.29724 -2.81894 0
M  V30 7212 H 676.298 4.90547 -2.53115 0
M  V30 7213 H 678.774 4.08584 -0.787288 0
M  V30 7214 H 677.65 5.45621 -0.599049 0
M  V30 7215 H 677.911 4.35753 0.746413 0
M  V30 7216 N 676.97 0.677563 1.42291 0
M  V30 7217 C 678.247 0.129803 1.95169 0
M  V30 7218 C 678.627 -1.35605 1.61786 0
M  V30 7219 O 677.975 -2.09361 0.915444 0
M  V30 7220 C 678.185 0.401889 3.46678 0
M  V30 7221 C 679.533 0.319889 4.23393 0
M  V30 7222 O 680.557 0.33579 3.54614 0
M  V30 7223 O 679.416 0.264459 5.4586 0
M  V30 7224 H 676.51 0.00447433 0.826988 0
M  V30 7225 H 679.056 0.752483 1.52105 0
M  V30 7226 H 677.828 1.43108 3.64192 0
M  V30 7227 H 677.451 -0.252662 3.96796 0
M  V30 7228 N 678.448 -1.51871 0.421078 0
M  V30 7229 C 679.696 -2.01539 -0.150492 0
M  V30 7230 C 680.017 -1.30803 -1.44623 0
M  V30 7231 O 679.287 -0.437568 -1.90951 0
M  V30 7232 H 677.867 -0.744698 -0.0586041 0
M  V30 7233 H 680.529 -1.8668 0.560059 0
M  V30 7234 H 679.625 -3.10264 -0.338068 0
M  V30 7235 N 679.926 -0.151884 -1.56866 0
M  V30 7236 C 681.156 0.504081 -2.00356 0
M  V30 7237 C 681.564 1.58639 -1.03103 0
M  V30 7238 O 680.907 1.83688 -0.0207931 0
M  V30 7239 C 680.969 1.15975 -3.40279 0
M  V30 7240 C 680.633 0.221453 -4.56463 0
M  V30 7241 C 681.63 -0.552766 -5.16953 0
M  V30 7242 C 679.315 0.122936 -5.0215 0
M  V30 7243 C 681.309 -1.4129 -6.21543 0
M  V30 7244 C 678.996 -0.740801 -6.06593 0
M  V30 7245 C 679.994 -1.50732 -6.6616 0
M  V30 7246 O 679.682 -2.35666 -7.68581 0
M  V30 7247 H 679.414 0.135279 -0.662326 0
M  V30 7248 H 681.968 -0.244916 -2.03935 0
M  V30 7249 H 680.198 1.95649 -3.33554 0
M  V30 7250 H 681.887 1.71594 -3.67846 0
M  V30 7251 H 682.653 -0.486716 -4.82552 0
M  V30 7252 H 678.532 0.70931 -4.5551 0
M  V30 7253 H 682.076 -2.01166 -6.67966 0
M  V30 7254 H 677.973 -0.808125 -6.40421 0
M  V30 7255 H 678.741 -2.28967 -7.85822 0
M  V30 7256 N 681.404 1.57128 0.121893 0
M  V30 7257 C 682.681 1.75664 0.860327 0
M  V30 7258 C 683.061 0.726585 1.98202 0
M  V30 7259 O 682.409 -0.24999 2.27128 0
M  V30 7260 C 682.619 3.20571 1.37968 0
M  V30 7261 C 683.967 3.82988 1.83317 0
M  V30 7262 O 684.991 3.24156 1.47654 0
M  V30 7263 O 683.85 4.86393 2.49168 0
M  V30 7264 H 680.944 0.719153 0.408348 0
M  V30 7265 H 683.49 1.6937 0.105859 0
M  V30 7266 H 682.262 3.87056 0.57477 0
M  V30 7267 H 681.885 3.31392 2.19694 0
M  V30 7268 N 682.882 -0.391992 1.52647 0
M  V30 7269 C 684.107 -1.16312 1.71716 0
M  V30 7270 C 684.532 -1.83042 0.433279 0
M  V30 7271 O 683.89 -1.70705 -0.610707 0
M  V30 7272 C 683.938 -2.18908 2.86551 0
M  V30 7273 O 683.042 -3.2543 2.53316 0
M  V30 7274 H 682.383 -0.338743 0.571095 0
M  V30 7275 H 684.913 -0.457202 1.99426 0
M  V30 7276 H 684.923 -2.62954 3.1196 0
M  V30 7277 H 683.598 -1.69726 3.79692 0
M  V30 7278 H 682.175 -2.86543 2.38637 0
M  V30 7279 N 684.36 -1.4356 -0.65026 0
M  V30 7280 C 685.585 -1.48995 -1.44275 0
M  V30 7281 C 686.01 -0.109954 -1.87778 0
M  V30 7282 O 685.368 0.896926 -1.57559 0
M  V30 7283 C 685.416 -2.44341 -2.65198 0
M  V30 7284 O 684.52 -1.93172 -3.6436 0
M  V30 7285 H 683.861 -0.503852 -0.432469 0
M  V30 7286 H 686.391 -1.88504 -0.795446 0
M  V30 7287 H 686.401 -2.61743 -3.12977 0
M  V30 7288 H 685.076 -3.44588 -2.32877 0
M  V30 7289 H 683.653 -1.85445 -3.23519 0
M  V30 7290 N 685.838 0.888903 -1.30139 0
M  V30 7291 C 687.084 1.6428 -1.18912 0
M  V30 7292 C 687.417 1.92499 0.256477 0
M  V30 7293 O 686.692 1.54312 1.18397 0
M  V30 7294 C 686.975 2.9851 -2.01405 0
M  V30 7295 C 686.828 2.77288 -3.54163 0
M  V30 7296 C 688.147 3.99383 -1.84882 0
M  V30 7297 H 685.266 0.596148 -0.433333 0
M  V30 7298 H 687.908 1.0289 -1.5973 0
M  V30 7299 H 686.058 3.50907 -1.66722 0
M  V30 7300 H 687.73 2.31709 -3.98884 0
M  V30 7301 H 685.973 2.11867 -3.78543 0
M  V30 7302 H 686.644 3.72717 -4.07168 0
M  V30 7303 H 689.12 3.56132 -2.15196 0
M  V30 7304 H 687.996 4.91222 -2.44934 0
M  V30 7305 H 688.257 4.34674 -0.806902 0
M  V30 7306 N 687.317 1.12792 1.10072 0
M  V30 7307 C 688.733 0.864745 1.34143 0
M  V30 7308 C 688.933 -0.503201 1.95116 0
M  V30 7309 O 687.989 -1.25111 2.19325 0
M  V30 7310 C 689.302 1.98413 2.25949 0
M  V30 7311 C 690.85 2.01545 2.39476 0
M  V30 7312 C 691.325 3.12727 3.34613 0
M  V30 7313 N 692.816 3.12194 3.42183 0
M  V30 7314 C 693.551 3.94862 4.15779 0
M  V30 7315 N 693.047 4.87528 4.92228 0
M  V30 7316 N 694.84 3.82985 4.11435 0
M  V30 7317 H 686.991 2.00926 0.68866 0
M  V30 7318 H 689.254 0.874564 0.365844 0
M  V30 7319 H 688.96 2.97005 1.88364 0
M  V30 7320 H 688.834 1.89254 3.26287 0
M  V30 7321 H 691.221 1.0357 2.76328 0
M  V30 7322 H 691.302 2.14777 1.3894 0
M  V30 7323 H 690.946 4.10936 2.98486 0
M  V30 7324 H 690.876 2.96732 4.35037 0
M  V30 7325 H 693.367 2.45065 2.87666 0
M  V30 7326 H 693.68 5.47109 5.45794 0
M  V30 7327 H 692.025 4.91539 4.9134 0
M  V30 7328 H 695.216 3.09923 3.50807 0
M  V30 7329 H 695.389 4.47641 4.68531 0
M  V30 7330 N 688.795 -1.27931 0.920396 0
M  V30 7331 C 689.742 -2.27085 0.412422 0
M  V30 7332 C 690.712 -1.57858 -0.516725 0
M  V30 7333 O 691.897 -1.85717 -0.437475 0
M  V30 7334 C 689.037 -3.43466 -0.335399 0
M  V30 7335 C 688.15 -4.27425 0.627017 0
M  V30 7336 C 687.285 -5.31016 -0.139916 0
M  V30 7337 C 686.324 -6.06641 0.815683 0
M  V30 7338 N 685.461 -7.02052 0.0818439 0
M  V30 7339 H 690.301 -2.69913 1.26298 0
M  V30 7340 H 687.838 -1.32732 0.634076 0
M  V30 7341 H 689.796 -4.09744 -0.785226 0
M  V30 7342 H 688.426 -3.01611 -1.15025 0
M  V30 7343 H 687.478 -3.6113 1.19537 0
M  V30 7344 H 688.79 -4.79969 1.35763 0
M  V30 7345 H 687.944 -6.03208 -0.649998 0
M  V30 7346 H 686.683 -4.79257 -0.903543 0
M  V30 7347 H 685.688 -5.33294 1.33708 0
M  V30 7348 H 686.913 -6.60489 1.57897 0
M  V30 7349 H 684.859 -6.52634 -0.663671 0
M  V30 7350 H 684.776 -7.52249 0.752163 0
M  V30 7351 H 686.044 -7.78432 -0.407825 0
M  V30 7352 N 690.273 -0.685099 -1.4193 0
M  V30 7353 C 691.498 -0.218842 -2.06242 0
M  V30 7354 C 691.923 1.11923 -1.51178 0
M  V30 7355 O 691.281 1.69837 -0.634446 0
M  V30 7356 C 691.329 -0.175592 -3.60172 0
M  V30 7357 O 690.433 0.852776 -4.03487 0
M  V30 7358 H 689.774 -0.109531 -0.654904 0
M  V30 7359 H 692.304 -0.937013 -1.81882 0
M  V30 7360 H 692.314 -0.00291151 -4.08 0
M  V30 7361 H 690.989 -1.15222 -3.99621 0
M  V30 7362 H 689.566 0.650301 -3.67186 0
M  V30 7363 N 691.751 1.51645 -0.429126 0
M  V30 7364 C 693.162 1.86665 0.0359003 0
M  V30 7365 C 693.513 1.34677 1.42676 0
M  V30 7366 O 692.638 0.694195 2.04963 0
M  V30 7367 C 693.233 3.38724 0.0719221 0
M  V30 7368 C 691.792 3.7331 0.481336 0
M  V30 7369 C 690.939 2.75313 -0.331329 0
M  V30 7370 H 693.89 1.44987 -0.645333 0
M  V30 7371 H 693.911 3.7011 0.883118 0
M  V30 7372 H 693.423 3.76532 -0.940495 0
M  V30 7373 H 691.524 3.41088 1.49966 0
M  V30 7374 H 691.637 4.78631 0.211837 0
M  V30 7375 H 690.001 2.53839 0.209204 0
M  V30 7376 H 690.784 3.15963 -1.34247 0
M  V30 7377 N 693.229 0.160201 1.56784 0
M  V30 7378 C 694.457 -0.494165 2.00912 0
M  V30 7379 C 694.872 -1.57548 1.04038 0
M  V30 7380 O 694.229 -1.82457 0.0394581 0
M  V30 7381 C 694.28 -1.08271 3.44905 0
M  V30 7382 O 694.001 -0.0445704 4.38077 0
M  V30 7383 C 695.502 -1.8164 4.04378 0
M  V30 7384 H 692.722 -0.127498 0.658776 0
M  V30 7385 H 695.266 0.258665 2.02858 0
M  V30 7386 H 693.421 -1.78609 3.4377 0
M  V30 7387 H 693.835 -0.477544 5.22322 0
M  V30 7388 H 695.309 -2.18094 5.07089 0
M  V30 7389 H 695.786 -2.70727 3.45838 0
M  V30 7390 H 696.392 -1.15969 4.09184 0
M  V30 7391 N 694.707 -1.5719 -0.113559 0
M  V30 7392 C 695.637 -2.03772 -1.14013 0
M  V30 7393 C 696.618 -0.923176 -1.42869 0
M  V30 7394 O 697.803 -1.19325 -1.53216 0
M  V30 7395 C 694.933 -2.44663 -2.4649 0
M  V30 7396 C 693.887 -3.59612 -2.32085 0
M  V30 7397 C 693.213 -3.8642 -3.69573 0
M  V30 7398 C 694.513 -4.91149 -1.7768 0
M  V30 7399 H 696.207 -2.89785 -0.752665 0
M  V30 7400 H 693.753 -1.39412 -0.360609 0
M  V30 7401 H 695.706 -2.75857 -3.18561 0
M  V30 7402 H 694.43 -1.55628 -2.87137 0
M  V30 7403 H 693.089 -3.28636 -1.62461 0
M  V30 7404 H 692.737 -2.94581 -4.07715 0
M  V30 7405 H 692.437 -4.63797 -3.60786 0
M  V30 7406 H 693.961 -4.2007 -4.4314 0
M  V30 7407 H 695.375 -5.20843 -2.39574 0
M  V30 7408 H 693.772 -5.72562 -1.79701 0
M  V30 7409 H 694.842 -4.79301 -0.734776 0
M  V30 7410 N 696.185 0.383891 -1.52853 0
M  V30 7411 C 697.115 1.47559 -1.80965 0
M  V30 7412 C 698.096 1.5669 -0.661986 0
M  V30 7413 O 699.281 1.71556 -0.910072 0
M  V30 7414 C 696.411 2.85114 -1.98312 0
M  V30 7415 C 695.365 2.9082 -3.14019 0
M  V30 7416 C 694.691 4.30873 -3.16627 0
M  V30 7417 C 695.991 2.60001 -4.52986 0
M  V30 7418 H 697.685 1.24283 -2.72386 0
M  V30 7419 H 695.231 0.596445 -1.31067 0
M  V30 7420 H 697.184 3.61496 -2.16561 0
M  V30 7421 H 695.908 3.09738 -1.03585 0
M  V30 7422 H 694.567 2.16886 -2.9556 0
M  V30 7423 H 694.215 4.52545 -2.19573 0
M  V30 7424 H 693.915 4.3561 -3.94357 0
M  V30 7425 H 695.439 5.09154 -3.37038 0
M  V30 7426 H 696.853 3.261 -4.71521 0
M  V30 7427 H 695.25 2.76081 -5.32822 0
M  V30 7428 H 696.32 1.5532 -4.59351 0
M  V30 7429 N 697.663 1.43903 0.642637 0
M  V30 7430 C 698.573 1.52349 1.78401 0
M  V30 7431 C 699.589 0.409869 1.69104 0
M  V30 7432 O 700.765 0.665548 1.90085 0
M  V30 7433 C 697.83 1.45408 3.14734 0
M  V30 7434 C 696.891 2.67528 3.35749 0
M  V30 7435 C 696.124 2.60909 4.65577 0
M  V30 7436 O 696.347 1.6627 5.45628 0
M  V30 7437 O 695.281 3.5158 4.88544 0
M  V30 7438 H 699.107 2.48752 1.7423 0
M  V30 7439 H 696.692 1.26021 0.802439 0
M  V30 7440 H 698.574 1.44019 3.96026 0
M  V30 7441 H 697.249 0.521437 3.19473 0
M  V30 7442 H 696.156 2.74487 2.5418 0
M  V30 7443 H 697.489 3.598 3.35864 0
M  V30 7444 N 699.141 -0.881989 1.30609 0
M  V30 7445 C 700.387 -1.63647 1.19781 0
M  V30 7446 C 700.72 -1.92632 -0.246265 0
M  V30 7447 O 699.995 -1.54938 -1.17577 0
M  V30 7448 C 700.278 -2.97437 2.02985 0
M  V30 7449 C 700.131 -2.75406 3.55628 0
M  V30 7450 C 701.45 -3.98397 1.86997 0
M  V30 7451 H 698.569 -0.593841 0.436488 0
M  V30 7452 H 701.211 -1.02041 1.60273 0
M  V30 7453 H 699.361 -3.50018 1.68581 0
M  V30 7454 H 701.033 -2.2959 4.00107 0
M  V30 7455 H 699.276 -2.09856 3.79662 0
M  V30 7456 H 699.947 -3.70552 4.09139 0
M  V30 7457 H 702.423 -3.54986 2.17081 0
M  V30 7458 H 701.299 -4.89916 2.47536 0
M  V30 7459 H 701.56 -4.3424 0.829943 0
M  V30 7460 N 700.619 -1.13374 -1.09472 0
M  V30 7461 C 701.844 -0.918711 -1.85942 0
M  V30 7462 C 702.269 0.527225 -1.8056 0
M  V30 7463 O 701.627 1.37408 -1.18274 0
M  V30 7464 C 701.675 -1.41056 -3.31867 0
M  V30 7465 O 700.779 -0.595496 -4.08078 0
M  V30 7466 H 700.12 -0.329297 -0.576593 0
M  V30 7467 H 702.65 -1.50829 -1.38245 0
M  V30 7468 H 702.66 -1.41398 -3.82715 0
M  V30 7469 H 701.335 -2.46335 -3.35099 0
M  V30 7470 H 699.912 -0.659911 -3.67014 0
M  V30 7471 N 702.098 1.27442 -0.927168 0
M  V30 7472 C 703.031 2.25177 -0.370232 0
M  V30 7473 C 704.009 1.53612 0.533103 0
M  V30 7474 O 705.193 1.8245 0.47373 0
M  V30 7475 C 702.32 3.35431 0.469411 0
M  V30 7476 C 701.366 4.24888 -0.370419 0
M  V30 7477 S 702.199 5.04852 -1.78562 0
M  V30 7478 C 703.355 6.18592 -0.953651 0
M  V30 7479 H 703.588 2.72069 -1.19858 0
M  V30 7480 H 701.121 1.36089 -0.729316 0
M  V30 7481 H 703.079 3.99404 0.947992 0
M  V30 7482 H 701.74 2.87179 1.27228 0
M  V30 7483 H 700.933 5.03264 0.272226 0
M  V30 7484 H 700.535 3.65709 -0.783153 0
M  V30 7485 H 702.827 6.77235 -0.189408 0
M  V30 7486 H 703.77 6.87132 -1.7104 0
M  V30 7487 H 704.178 5.62318 -0.495897 0
M  V30 7488 N 703.576 0.692616 1.41565 0
M  V30 7489 C 704.987 0.297478 1.84315 0
M  V30 7490 C 705.338 -1.16379 1.57957 0
M  V30 7491 O 704.463 -1.89303 1.0485 0
M  V30 7492 C 705.058 0.533136 3.34579 0
M  V30 7493 C 703.617 0.191944 3.7591 0
M  V30 7494 C 702.764 0.816873 2.64995 0
M  V30 7495 H 705.715 0.893488 1.31158 0
M  V30 7496 H 705.736 -0.209105 3.79925 0
M  V30 7497 H 705.248 1.59674 3.53731 0
M  V30 7498 H 703.349 -0.867512 3.6236 0
M  V30 7499 H 703.462 0.644902 4.7474 0
M  V30 7500 H 701.826 0.246715 2.53502 0
M  V30 7501 H 702.609 1.88429 2.86966 0
M  V30 7502 N 705.054 -1.51416 0.437162 0
M  V30 7503 C 706.004 -2.24599 -0.392311 0
M  V30 7504 C 706.988 -1.2682 -0.990221 0
M  V30 7505 O 708.18 -1.51912 -0.908391 0
M  V30 7506 C 705.309 -3.09134 -1.49301 0
M  V30 7507 C 704.395 -4.14342 -0.904503 0
M  V30 7508 N 704.786 -5.0578 -0.0451511 0
M  V30 7509 C 703.084 -4.30323 -1.1721 0
M  V30 7510 C 703.785 -5.81 0.285344 0
M  V30 7511 N 702.761 -5.42591 -0.330993 0
M  V30 7512 H 706.563 -2.92655 0.270221 0
M  V30 7513 H 704.077 -1.60476 0.249226 0
M  V30 7514 H 706.074 -3.6014 -2.10011 0
M  V30 7515 H 704.734 -2.42622 -2.15788 0
M  V30 7516 H 705.745 -5.16903 0.321271 0
M  V30 7517 H 702.422 -3.75037 -1.83448 0
M  V30 7518 H 703.812 -6.64646 0.984626 0
M  V30 7519 N 706.532 -0.168513 -1.56696 0
M  V30 7520 C 707.779 0.477158 -1.96798 0
M  V30 7521 C 708.107 1.63442 -1.05437 0
M  V30 7522 O 707.362 1.95503 -0.0878903 0
M  V30 7523 C 707.661 1.00441 -3.42996 0
M  V30 7524 C 707.327 -0.0366556 -4.50885 0
M  V30 7525 C 705.989 -0.322785 -4.80116 0
M  V30 7526 C 708.341 -0.743447 -5.1587 0
M  V30 7527 C 705.669 -1.32114 -5.71632 0
M  V30 7528 C 708.021 -1.73077 -6.08463 0
M  V30 7529 C 706.685 -2.02437 -6.36062 0
M  V30 7530 H 705.955 0.174604 -0.720135 0
M  V30 7531 H 708.602 -0.259884 -1.89728 0
M  V30 7532 H 706.907 1.81922 -3.47004 0
M  V30 7533 H 708.604 1.51294 -3.71364 0
M  V30 7534 H 705.194 0.196532 -4.28149 0
M  V30 7535 H 709.378 -0.535602 -4.93401 0
M  V30 7536 H 704.634 -1.55482 -5.913 0
M  V30 7537 H 708.808 -2.28382 -6.57886 0
M  V30 7538 H 706.435 -2.79946 -7.06777 0
M  V30 7539 N 708.01 1.57248 0.105221 0
M  V30 7540 C 708.943 1.96567 1.15916 0
M  V30 7541 C 709.921 0.837355 1.39381 0
M  V30 7542 O 711.105 1.09676 1.53308 0
M  V30 7543 C 708.232 2.27375 2.51035 0
M  V30 7544 C 707.278 3.49869 2.43913 0
M  V30 7545 S 708.111 5.01958 1.86543 0
M  V30 7546 C 709.267 5.35932 3.23307 0
M  V30 7547 H 709.5 2.85655 0.823931 0
M  V30 7548 H 707.033 1.51204 0.312515 0
M  V30 7549 H 708.991 2.45801 3.28774 0
M  V30 7550 H 707.652 1.38876 2.81731 0
M  V30 7551 H 706.845 3.68835 3.43477 0
M  V30 7552 H 706.447 3.30901 1.743 0
M  V30 7553 H 708.739 5.31958 4.19556 0
M  V30 7554 H 709.682 6.37047 3.09155 0
M  V30 7555 H 710.09 4.63397 3.22372 0
M  V30 7556 N 709.488 -0.375779 1.53054 0
M  V30 7557 C 710.904 -0.716764 1.426 0
M  V30 7558 C 711.104 -1.93651 0.556931 0
M  V30 7559 O 710.16 -2.52475 0.0354461 0
M  V30 7560 C 711.473 -0.939499 2.85646 0
M  V30 7561 C 713.021 -1.04015 2.95212 0
M  V30 7562 C 713.496 -1.29543 4.39298 0
M  V30 7563 N 714.987 -1.36335 4.42682 0
M  V30 7564 C 715.722 -1.57778 5.51266 0
M  V30 7565 N 715.218 -1.76604 6.69913 0
M  V30 7566 N 717.011 -1.60065 5.38828 0
M  V30 7567 H 709.162 0.42664 2.08071 0
M  V30 7568 H 711.425 0.128758 0.939215 0
M  V30 7569 H 711.131 -0.115189 3.51511 0
M  V30 7570 H 711.005 -1.85048 3.2869 0
M  V30 7571 H 713.392 -1.85501 2.29507 0
M  V30 7572 H 713.473 -0.106785 2.55577 0
M  V30 7573 H 713.117 -0.485611 5.05573 0
M  V30 7574 H 713.047 -2.24184 4.76497 0
M  V30 7575 H 715.538 -1.23441 3.5717 0
M  V30 7576 H 715.851 -1.9251 7.48438 0
M  V30 7577 H 714.196 -1.73802 6.72917 0
M  V30 7578 H 717.387 -1.44917 4.45103 0
M  V30 7579 H 717.56 -1.76435 6.23518 0
M  V30 7580 N 710.966 -1.44241 -0.634997 0
M  V30 7581 C 712.194 -1.50296 -1.42193 0
M  V30 7582 C 712.609 -0.12658 -1.88375 0
M  V30 7583 O 711.966 0.86678 -1.60603 0
M  V30 7584 C 712.017 -2.46437 -2.64482 0
M  V30 7585 O 711.738 -3.78724 -2.20226 0
M  V30 7586 C 713.239 -2.61918 -3.57651 0
M  V30 7587 H 710.459 -0.509865 -0.43621 0
M  V30 7588 H 713.003 -1.89167 -0.776921 0
M  V30 7589 H 711.158 -2.10712 -3.25083 0
M  V30 7590 H 711.572 -4.30595 -2.9948 0
M  V30 7591 H 713.046 -3.33225 -4.40074 0
M  V30 7592 H 713.523 -1.67017 -4.06204 0
M  V30 7593 H 714.129 -2.98528 -3.02921 0
M  V30 7594 N 712.444 0.87505 -1.31075 0
M  V30 7595 C 713.392 2.00317 -1.18219 0
M  V30 7596 C 714.386 1.69152 -0.0916872 0
M  V30 7597 O 715.592 1.7821 -0.253229 0
M  V30 7598 H 711.967 0.656981 -0.365895 0
M  V30 7599 H 713.938 2.08293 -2.13674 0
M  V30 7600 C 712.687 3.35821 -0.901095 0
M  V30 7601 H 712.01 3.6032 -1.73233 0
M  V30 7602 H 713.45 4.15366 -0.851295 0
M  V30 7603 C 711.909 3.34563 0.396114 0
M  V30 7604 O 712.439 3.75971 1.41452 0
M  V30 7605 N 710.645 2.87681 0.410832 0
M  V30 7606 H 710.192 2.54179 -0.418415 0
M  V30 7607 H 710.15 2.87223 1.27869 0
M  V30 7608 N 713.922 1.13953 1.08869 0
M  V30 7609 C 715.147 0.928559 1.85452 0
M  V30 7610 C 715.572 -0.517642 1.80837 0
M  V30 7611 O 714.93 -1.36779 1.19001 0
M  V30 7612 C 714.978 1.42814 3.31114 0
M  V30 7613 O 714.082 0.617129 4.07756 0
M  V30 7614 H 713.423 0.33235 0.574839 0
M  V30 7615 H 715.953 1.5156 1.37443 0
M  V30 7616 H 715.963 1.43425 3.8196 0
M  V30 7617 H 714.638 2.48109 3.33788 0
M  V30 7618 H 713.215 0.679365 3.66659 0
M  V30 7619 N 715.4 -1.26948 0.933913 0
M  V30 7620 C 716.647 -1.94087 0.577625 0
M  V30 7621 C 716.975 -1.73345 -0.88214 0
M  V30 7622 O 716.23 -1.05945 -1.64542 0
M  V30 7623 C 716.529 -3.46963 0.857406 0
M  V30 7624 C 716.195 -3.87834 2.2999 0
M  V30 7625 C 714.857 -3.98704 2.69423 0
M  V30 7626 C 717.209 -4.08442 3.23766 0
M  V30 7627 C 714.537 -4.27573 4.01744 0
M  V30 7628 C 716.889 -4.38798 4.55675 0
M  V30 7629 C 715.553 -4.47881 4.94934 0
M  V30 7630 H 714.823 -0.710215 0.211368 0
M  V30 7631 H 717.47 -1.50899 1.17905 0
M  V30 7632 H 715.775 -3.91416 0.173369 0
M  V30 7633 H 717.472 -3.97062 0.560615 0
M  V30 7634 H 714.062 -3.79916 1.98399 0
M  V30 7635 H 718.246 -3.99479 2.94499 0
M  V30 7636 H 713.502 -4.32815 4.31834 0
M  V30 7637 H 717.676 -4.5369 5.28335 0
M  V30 7638 H 715.303 -4.70005 5.97495 0
M  V30 7639 N 716.879 -0.700114 -1.41195 0
M  V30 7640 C 717.842 -0.0465706 -2.29153 0
M  V30 7641 C 718.842 0.703302 -1.44604 0
M  V30 7642 O 720.032 0.537513 -1.657 0
M  V30 7643 C 717.164 0.944324 -3.2756 0
M  V30 7644 H 718.357 -0.821064 -2.88442 0
M  V30 7645 H 715.91 -0.463869 -1.49258 0
M  V30 7646 H 716.645 1.74642 -2.73259 0
M  V30 7647 H 716.43 0.409701 -3.89954 0
M  V30 7648 H 717.92 1.39925 -3.9346 0
M  V30 7649 N 718.357 1.51182 -0.445186 0
M  V30 7650 C 719.267 2.31692 0.368255 0
M  V30 7651 C 720.283 1.40942 1.02036 0
M  V30 7652 O 721.459 1.74011 1.01401 0
M  V30 7653 C 718.524 3.14903 1.45041 0
M  V30 7654 C 717.585 4.21442 0.817615 0
M  V30 7655 C 716.818 5.00677 1.8482 0
M  V30 7656 O 717.041 4.80644 3.07145 0
M  V30 7657 O 715.975 5.84559 1.43438 0
M  V30 7658 H 719.801 3.0232 -0.289219 0
M  V30 7659 H 717.386 1.47951 -0.207555 0
M  V30 7660 H 719.268 3.66612 2.07783 0
M  V30 7661 H 717.943 2.47031 2.09182 0
M  V30 7662 H 716.85 3.73791 0.151931 0
M  V30 7663 H 718.183 4.9171 0.219564 0
M  V30 7664 N 719.835 0.176821 1.56605 0
M  V30 7665 C 721.112 -0.513365 1.88743 0
M  V30 7666 C 721.492 -1.80929 1.08757 0
M  V30 7667 O 720.84 -2.27765 0.183127 0
M  V30 7668 C 721.05 -0.749925 3.40848 0
M  V30 7669 C 722.398 -1.07747 4.10701 0
M  V30 7670 O 723.422 -0.838277 3.46196 0
M  V30 7671 O 722.281 -1.52901 5.24675 0
M  V30 7672 H 719.375 -0.265296 0.783292 0
M  V30 7673 H 721.921 0.215669 1.68324 0
M  V30 7674 H 720.693 0.16599 3.90948 0
M  V30 7675 H 720.316 -1.53208 3.66897 0
M  V30 7676 N 721.313 -1.57302 -0.09688 0
M  V30 7677 C 722.243 -2.0497 -1.11846 0
M  V30 7678 C 723.224 -0.938278 -1.41882 0
M  V30 7679 O 724.409 -1.20943 -1.51942 0
M  V30 7680 C 721.539 -2.47264 -2.43881 0
M  V30 7681 C 720.493 -3.62053 -2.28257 0
M  V30 7682 C 719.819 -3.90318 -3.65453 0
M  V30 7683 C 721.119 -4.93005 -1.72461 0
M  V30 7684 H 722.813 -2.90567 -0.721888 0
M  V30 7685 H 720.359 -1.39786 -0.345803 0
M  V30 7686 H 722.312 -2.7922 -3.15617 0
M  V30 7687 H 721.036 -1.58664 -2.8547 0
M  V30 7688 H 719.695 -3.30341 -1.58967 0
M  V30 7689 H 719.343 -2.98889 -4.04567 0
M  V30 7690 H 719.043 -4.67597 -3.55846 0
M  V30 7691 H 720.567 -4.24747 -4.3866 0
M  V30 7692 H 721.981 -5.23354 -2.34036 0
M  V30 7693 H 720.378 -5.74436 -1.73618 0
M  V30 7694 H 721.448 -4.80053 -0.683898 0
M  V30 7695 N 722.791 0.367657 -1.53252 0
M  V30 7696 C 724.068 1.12606 -1.59935 0
M  V30 7697 C 724.448 2.07167 -0.405606 0
M  V30 7698 O 723.796 2.20364 0.604323 0
M  V30 7699 C 724.006 1.86699 -2.94863 0
M  V30 7700 C 725.354 2.41306 -3.49366 0
M  V30 7701 O 726.378 1.96828 -2.96879 0
M  V30 7702 O 725.237 3.2261 -4.41118 0
M  V30 7703 H 722.331 0.516438 -0.645926 0
M  V30 7704 H 724.877 0.371088 -1.65593 0
M  V30 7705 H 723.649 1.17674 -3.73187 0
M  V30 7706 H 723.272 2.6911 -2.92687 0
M  V30 7707 N 724.269 1.44576 0.627338 0
M  V30 7708 C 725.199 1.54562 1.75022 0
M  V30 7709 C 726.18 0.398378 1.65369 0
M  V30 7710 O 727.365 0.61899 1.84071 0
M  V30 7711 C 724.495 1.49309 3.13567 0
M  V30 7712 C 723.449 2.62549 3.38012 0
M  V30 7713 C 722.775 2.42348 4.76625 0
M  V30 7714 C 724.075 4.04678 3.30202 0
M  V30 7715 H 725.769 2.4855 1.66922 0
M  V30 7716 H 723.315 1.19624 0.801636 0
M  V30 7717 H 725.268 1.54895 3.919 0
M  V30 7718 H 723.992 0.518392 3.2246 0
M  V30 7719 H 722.651 2.56358 2.62061 0
M  V30 7720 H 722.299 1.43062 4.82226 0
M  V30 7721 H 721.999 3.18273 4.93939 0
M  V30 7722 H 723.523 2.49758 5.57183 0
M  V30 7723 H 724.937 4.12217 3.98435 0
M  V30 7724 H 723.334 4.80836 3.5905 0
M  V30 7725 H 724.404 4.2798 2.27949 0
M  V30 7726 N 725.747 -0.868086 1.31537 0
M  V30 7727 C 726.657 -2.00801 1.21311 0
M  V30 7728 C 727.673 -1.73518 0.129431 0
M  V30 7729 O 728.849 -1.98378 0.347588 0
M  V30 7730 C 725.914 -3.3419 0.922935 0
M  V30 7731 C 724.975 -3.74783 2.0937 0
M  V30 7732 C 724.208 -5.01807 1.81728 0
M  V30 7733 O 724.431 -5.65404 0.753313 0
M  V30 7734 O 723.365 -5.39213 2.67457 0
M  V30 7735 H 727.191 -2.12361 2.17109 0
M  V30 7736 H 724.776 -0.996684 1.11295 0
M  V30 7737 H 726.658 -4.14174 0.777033 0
M  V30 7738 H 725.333 -3.237 -0.00500301 0
M  V30 7739 H 724.24 -2.95432 2.29501 0
M  V30 7740 H 725.573 -3.89902 3.00396 0
M  V30 7741 N 727.225 -1.14528 -1.08264 0
M  V30 7742 C 728.473 -0.912599 -1.80322 0
M  V30 7743 C 728.794 0.562256 -1.86718 0
M  V30 7744 O 728.064 1.40869 -1.36135 0
M  V30 7745 H 726.644 -0.334645 -0.667849 0
M  V30 7746 H 729.306 -1.44415 -1.30883 0
M  V30 7747 H 728.402 -1.31384 -2.83098 0
M  V30 7748 N 728.703 1.26451 -0.940633 0
M  V30 7749 C 729.613 2.30128 -0.455881 0
M  V30 7750 C 730.629 1.67536 0.469867 0
M  V30 7751 O 731.805 1.98344 0.349529 0
M  V30 7752 C 728.87 3.45634 0.271648 0
M  V30 7753 C 727.931 4.23709 -0.690594 0
M  V30 7754 C 727.164 5.337 0.00231047 0
M  V30 7755 O 727.387 5.57215 1.21935 0
M  V30 7756 O 726.321 5.98091 -0.676111 0
M  V30 7757 H 730.147 2.73655 -1.31707 0
M  V30 7758 H 727.732 1.3164 -0.706497 0
M  V30 7759 H 729.614 4.15853 0.681486 0
M  V30 7760 H 728.289 3.04138 1.10824 0
M  V30 7761 H 727.196 3.55974 -1.15037 0
M  V30 7762 H 728.529 4.68953 -1.49478 0
M  V30 7763 N 730.181 0.707592 1.40822 0
M  V30 7764 C 731.409 0.253073 2.05346 0
M  V30 7765 C 731.824 -1.10218 1.53289 0
M  V30 7766 O 731.181 -1.69112 0.686105 0
M  V30 7767 C 731.232 0.215411 3.60858 0
M  V30 7768 O 730.953 1.51714 4.10992 0
M  V30 7769 C 732.454 -0.258636 4.42545 0
M  V30 7770 H 729.674 0.115256 0.661027 0
M  V30 7771 H 732.218 0.963555 1.80377 0
M  V30 7772 H 730.373 -0.445978 3.84824 0
M  V30 7773 H 730.787 1.41226 5.05129 0
M  V30 7774 H 732.261 -0.233849 5.51504 0
M  V30 7775 H 732.738 -1.2995 4.19535 0
M  V30 7776 H 733.344 0.372186 4.23668 0
M  V30 7777 N 731.66 -1.50943 0.453197 0
M  V30 7778 C 732.59 -2.31005 -0.34044 0
M  V30 7779 C 733.571 -1.37112 -1.00669 0
M  V30 7780 O 734.756 -1.66033 -1.0073 0
M  V30 7781 C 731.886 -3.16358 -1.433 0
M  V30 7782 C 730.84 -4.18658 -0.889363 0
M  V30 7783 C 730.166 -4.92633 -2.07887 0
M  V30 7784 C 731.466 -5.22227 0.0871142 0
M  V30 7785 H 733.16 -2.97601 0.327723 0
M  V30 7786 H 730.706 -1.43119 0.159054 0
M  V30 7787 H 732.659 -3.71155 -1.99555 0
M  V30 7788 H 731.383 -2.47613 -2.12968 0
M  V30 7789 H 730.042 -3.64936 -0.348915 0
M  V30 7790 H 729.69 -4.20376 -2.76211 0
M  V30 7791 H 729.39 -5.61819 -1.72143 0
M  V30 7792 H 730.914 -5.50258 -2.64666 0
M  V30 7793 H 732.328 -5.72001 -0.385656 0
M  V30 7794 H 730.725 -5.99032 0.357926 0
M  V30 7795 H 731.795 -4.74077 1.01879 0
M  V30 7796 N 733.138 -0.185124 -1.56509 0
M  V30 7797 C 734.068 0.735098 -2.21627 0
M  V30 7798 C 735.049 1.2288 -1.1762 0
M  V30 7799 O 736.234 1.27945 -1.46095 0
M  V30 7800 C 733.364 1.95889 -2.86783 0
M  V30 7801 C 732.318 1.6005 -3.96948 0
M  V30 7802 C 731.644 2.90009 -4.4922 0
M  V30 7803 C 732.944 0.818008 -5.15855 0
M  V30 7804 H 734.638 0.192274 -2.98782 0
M  V30 7805 H 732.184 0.0910393 -1.43712 0
M  V30 7806 H 734.137 2.60779 -3.31017 0
M  V30 7807 H 732.861 2.52608 -2.07018 0
M  V30 7808 H 731.52 0.975237 -3.5339 0
M  V30 7809 H 731.168 3.44797 -3.6623 0
M  V30 7810 H 730.868 2.66778 -5.23549 0
M  V30 7811 H 732.392 3.55904 -4.9615 0
M  V30 7812 H 733.806 1.36979 -5.56695 0
M  V30 7813 H 732.203 0.684207 -5.96187 0
M  V30 7814 H 733.273 -0.182939 -4.84555 0
M  V30 7815 N 734.616 1.57351 0.0885366 0
M  V30 7816 C 735.844 1.90631 0.804196 0
M  V30 7817 C 736.259 0.779474 1.71958 0
M  V30 7818 O 735.616 -0.248179 1.80805 0
M  V30 7819 C 735.667 3.23568 1.61202 0
M  V30 7820 O 735.388 4.31917 0.733447 0
M  V30 7821 C 736.889 3.70753 2.43016 0
M  V30 7822 H 734.109 0.630501 0.229585 0
M  V30 7823 H 736.653 2.044 0.0638092 0
M  V30 7824 H 734.808 3.11377 2.30485 0
M  V30 7825 H 735.222 5.08297 1.29361 0
M  V30 7826 H 736.696 4.66447 2.9518 0
M  V30 7827 H 737.173 2.98922 3.2178 0
M  V30 7828 H 737.779 3.85834 1.7892 0
M  V30 7829 N 736.094 -0.359525 1.53444 0
M  V30 7830 C 737.505 -0.936009 1.61542 0
M  V30 7831 C 737.856 -1.90069 0.486633 0
M  V30 7832 O 736.981 -2.12929 -0.386047 0
M  V30 7833 C 737.576 -1.70441 2.92806 0
M  V30 7834 C 736.135 -2.23015 3.03218 0
M  V30 7835 C 735.282 -1.04438 2.56881 0
M  V30 7836 H 738.233 -0.138134 1.58098 0
M  V30 7837 H 738.254 -2.56609 2.80948 0
M  V30 7838 H 737.766 -1.00205 3.74941 0
M  V30 7839 H 735.867 -2.96475 2.25684 0
M  V30 7840 H 735.98 -2.50481 4.08407 0
M  V30 7841 H 734.344 -1.41314 2.11902 0
M  V30 7842 H 735.127 -0.356905 3.4144 0
M  V30 7843 N 737.572 -1.44907 -0.619662 0
M  V30 7844 C 738.821 -1.47569 -1.37501 0
M  V30 7845 C 739.134 -0.116707 -1.95252 0
M  V30 7846 O 740.34 -0.020909 -2.71492 0
M  V30 7847 C 738.796 -2.59851 -2.49009 0
M  V30 7848 C 738.404 -4.02008 -1.97722 0
M  V30 7849 C 740.148 -2.71746 -3.2612 0
M  V30 7850 C 738.055 -5.05693 -3.0664 0
M  V30 7851 H 736.985 -0.549068 -0.51676 0
M  V30 7852 H 739.636 -1.71009 -0.665437 0
M  V30 7853 H 738.018 -2.29671 -3.22594 0
M  V30 7854 H 739.192 -4.41809 -1.30925 0
M  V30 7855 H 737.507 -3.94456 -1.33392 0
M  V30 7856 H 740.104 -3.46382 -4.07337 0
M  V30 7857 H 740.447 -1.77959 -3.76346 0
M  V30 7858 H 740.98 -3.01392 -2.5963 0
M  V30 7859 H 737.719 -6.01148 -2.61345 0
M  V30 7860 H 737.239 -4.70473 -3.72042 0
M  V30 7861 H 738.918 -5.29906 -3.71226 0
M  V30 7862 N 739.05 0.861098 -1.31996 0
M  V30 7863 C 740.278 1.6474 -1.25173 0
M  V30 7864 C 740.693 1.87926 0.181425 0
M  V30 7865 O 740.05 1.4437 1.1164 0
M  V30 7866 C 740.101 3.01036 -2.0015 0
M  V30 7867 O 739.822 2.7888 -3.37872 0
M  V30 7868 C 741.323 3.95481 -2.00273 0
M  V30 7869 H 738.543 0.513314 -0.432146 0
M  V30 7870 H 741.087 1.07419 -1.74016 0
M  V30 7871 H 739.242 3.55021 -1.55046 0
M  V30 7872 H 739.656 3.65514 -3.76165 0
M  V30 7873 H 741.13 4.88403 -2.57229 0
M  V30 7874 H 741.607 4.27957 -0.987407 0
M  V30 7875 H 742.213 3.47433 -2.45296 0
M  V30 7876 N 740.528 1.15101 1.07655 0
M  V30 7877 C 741.478 0.813448 2.12995 0
M  V30 7878 C 742.462 -0.200899 1.59641 0
M  V30 7879 O 743.654 -0.00209918 1.77 0
M  V30 7880 C 740.783 0.301078 3.41977 0
M  V30 7881 C 739.869 1.3454 4.02194 0
M  V30 7882 N 740.26 2.55181 4.36711 0
M  V30 7883 C 738.558 1.19742 4.29625 0
M  V30 7884 C 739.259 3.22094 4.84387 0
M  V30 7885 N 738.235 2.49486 4.82968 0
M  V30 7886 H 742.037 1.73105 2.37511 0
M  V30 7887 H 739.551 1.03601 1.25063 0
M  V30 7888 H 741.548 0.040914 4.1688 0
M  V30 7889 H 740.208 -0.610629 3.18907 0
M  V30 7890 H 741.219 2.92349 4.27496 0
M  V30 7891 H 737.896 0.345353 4.16069 0
M  V30 7892 H 739.286 4.24996 5.20411 0
M  V30 7893 N 742.006 -1.2595 0.947325 0
M  V30 7894 C 743.255 -1.92759 0.593887 0
M  V30 7895 C 743.568 -1.75083 -0.872093 0
M  V30 7896 O 744.774 -2.36401 -1.33518 0
M  V30 7897 C 743.23 -3.45395 1.01144 0
M  V30 7898 C 742.838 -3.71795 2.49946 0
M  V30 7899 C 744.582 -4.18173 0.730185 0
M  V30 7900 C 742.489 -5.17901 2.85539 0
M  V30 7901 H 741.419 -0.721676 0.218403 0
M  V30 7902 H 744.07 -1.4293 1.15079 0
M  V30 7903 H 742.452 -3.94143 0.383007 0
M  V30 7904 H 743.626 -3.33728 3.17746 0
M  V30 7905 H 741.941 -3.12263 2.75465 0
M  V30 7906 H 744.538 -5.25784 0.972367 0
M  V30 7907 H 744.881 -4.14964 -0.333223 0
M  V30 7908 H 745.414 -3.75309 1.31862 0
M  V30 7909 H 742.153 -5.26216 3.90867 0
M  V30 7910 H 741.673 -5.57042 2.22406 0
M  V30 7911 H 743.352 -5.8596 2.74336 0
M  V30 7912 N 743.484 -0.715051 -1.40445 0
M  V30 7913 C 744.709 -0.26254 -2.05732 0
M  V30 7914 C 745.134 1.08691 -1.53519 0
M  V30 7915 O 744.492 1.68453 -0.670328 0
M  V30 7916 C 744.54 -0.25195 -3.59719 0
M  V30 7917 O 743.644 0.766998 -4.05205 0
M  V30 7918 H 742.985 -0.123398 -0.652433 0
M  V30 7919 H 745.515 -0.975382 -1.79854 0
M  V30 7920 H 745.525 -0.0894537 -4.07902 0
M  V30 7921 H 744.2 -1.23672 -3.97087 0
M  V30 7922 H 742.777 0.572269 -3.68483 0
M  V30 7923 N 744.962 1.50701 -0.461195 0
M  V30 7924 C 745.894 2.26124 0.374244 0
M  V30 7925 C 746.907 1.31064 0.965715 0
M  V30 7926 O 748.096 1.56647 0.855801 0
M  V30 7927 C 745.196 3.01996 1.5379 0
M  V30 7928 C 744.369 4.24336 1.06101 0
M  V30 7929 C 743.428 4.82585 2.09756 0
M  V30 7930 O 742.454 5.43775 1.68219 0
M  V30 7931 N 743.656 4.68712 3.42475 0
M  V30 7932 H 746.421 2.9846 -0.2723 0
M  V30 7933 H 743.982 1.59256 -0.291415 0
M  V30 7934 H 745.974 3.37846 2.22806 0
M  V30 7935 H 744.544 2.32521 2.08933 0
M  V30 7936 H 743.764 3.93707 0.197085 0
M  V30 7937 H 745.052 5.03678 0.720156 0
M  V30 7938 H 744.45 4.20026 3.78938 0
M  V30 7939 H 743.007 5.08858 4.07317 0
M  V30 7940 N 746.441 0.193421 1.56409 0
M  V30 7941 C 747.371 -0.723334 2.22014 0
M  V30 7942 C 748.352 -1.22254 1.1827 0
M  V30 7943 O 749.537 -1.27168 1.46771 0
M  V30 7944 C 746.667 -1.94366 2.87818 0
M  V30 7945 C 745.621 -1.57943 3.97791 0
M  V30 7946 C 744.947 -2.87623 4.50752 0
M  V30 7947 C 746.247 -0.790639 5.16281 0
M  V30 7948 H 747.941 -0.176426 2.9888 0
M  V30 7949 H 745.487 -0.0834166 1.43758 0
M  V30 7950 H 747.44 -2.5902 3.32396 0
M  V30 7951 H 746.164 -2.51507 2.08355 0
M  V30 7952 H 744.823 -0.956482 3.53903 0
M  V30 7953 H 744.471 -3.4285 3.68053 0
M  V30 7954 H 744.171 -2.63998 5.24956 0
M  V30 7955 H 745.695 -3.53268 4.9803 0
M  V30 7956 H 747.109 -1.34024 5.57414 0
M  V30 7957 H 745.506 -0.65258 5.96541 0
M  V30 7958 H 746.576 0.208633 4.84451 0
M  V30 7959 N 747.919 -1.57396 -0.0801906 0
M  V30 7960 C 749.335 -1.53564 -0.434778 0
M  V30 7961 C 749.535 -0.912372 -1.79661 0
M  V30 7962 O 748.591 -0.511268 -2.4727 0
M  V30 7963 C 749.904 -2.98244 -0.383561 0
M  V30 7964 C 751.452 -3.09536 -0.46435 0
M  V30 7965 C 751.927 -4.55851 -0.443128 0
M  V30 7966 N 753.418 -4.60456 -0.503448 0
M  V30 7967 C 754.153 -5.71135 -0.509106 0
M  V30 7968 N 753.649 -6.91203 -0.47008 0
M  V30 7969 N 755.442 -5.59353 -0.555035 0
M  V30 7970 H 747.593 -1.96281 0.811635 0
M  V30 7971 H 749.856 -0.898041 0.303689 0
M  V30 7972 H 749.562 -3.47369 0.550236 0
M  V30 7973 H 749.436 -3.57705 -1.19694 0
M  V30 7974 H 751.823 -2.6039 -1.38857 0
M  V30 7975 H 751.904 -2.53 0.377445 0
M  V30 7976 H 751.548 -5.05653 0.477207 0
M  V30 7977 H 751.478 -5.10242 -1.30234 0
M  V30 7978 H 753.969 -3.74048 -0.538199 0
M  V30 7979 H 754.282 -7.7132 -0.478091 0
M  V30 7980 H 752.627 -6.93625 -0.436897 0
M  V30 7981 H 755.818 -4.64453 -0.583158 0
M  V30 7982 H 755.991 -6.4561 -0.555976 0
M  V30 7983 N 749.397 0.351382 -1.53633 0
M  V30 7984 C 750.307 1.45471 -1.84052 0
M  V30 7985 C 751.323 1.57945 -0.730015 0
M  V30 7986 O 752.499 1.73571 -1.02153 0
M  V30 7987 C 749.564 2.80562 -2.03681 0
M  V30 7988 C 748.625 2.77497 -3.27558 0
M  V30 7989 C 747.858 4.06144 -3.46241 0
M  V30 7990 O 748.081 5.03028 -2.68922 0
M  V30 7991 O 747.015 4.11092 -4.39645 0
M  V30 7992 H 750.841 1.22684 -2.77817 0
M  V30 7993 H 748.426 0.542827 -1.3919 0
M  V30 7994 H 750.308 3.6058 -2.18082 0
M  V30 7995 H 748.983 3.03296 -1.13106 0
M  V30 7996 H 747.89 1.96126 -3.18568 0
M  V30 7997 H 749.223 2.59716 -4.18101 0
M  V30 7998 N 750.875 1.45233 0.611969 0
M  V30 7999 C 751.825 1.49997 1.71711 0
M  V30 8000 C 752.809 0.363689 1.56736 0
M  V30 8001 O 754.001 0.610261 1.66147 0
M  V30 8002 C 751.13 1.46537 3.10454 0
M  V30 8003 C 750.216 2.65351 3.30831 0
M  V30 8004 N 750.607 3.90485 3.21489 0
M  V30 8005 C 748.905 2.60955 3.61688 0
M  V30 8006 C 749.606 4.69758 3.43078 0
M  V30 8007 N 748.582 4.01141 3.66861 0
M  V30 8008 H 752.384 2.44574 1.62975 0
M  V30 8009 H 749.898 1.40464 0.815082 0
M  V30 8010 H 751.895 1.48035 3.89732 0
M  V30 8011 H 750.555 0.530139 3.20343 0
M  V30 8012 H 751.566 4.22171 2.99987 0
M  V30 8013 H 748.243 1.76319 3.78441 0
M  V30 8014 H 749.633 5.7877 3.41285 0
M  V30 8015 N 752.353 -0.854086 1.3245 0
M  V30 8016 C 753.303 -1.9508 1.18016 0
M  V30 8017 C 754.287 -1.60665 0.0869417 0
M  V30 8018 O 755.479 -1.74201 0.313505 0
M  V30 8019 C 752.608 -3.3113 0.905961 0
M  V30 8020 C 751.694 -3.71763 2.04091 0
M  V30 8021 N 752.085 -3.84218 3.28953 0
M  V30 8022 C 750.383 -4.01393 1.94421 0
M  V30 8023 C 751.084 -4.192 4.03294 0
M  V30 8024 N 750.06 -4.30749 3.31596 0
M  V30 8025 H 753.862 -2.02843 2.12678 0
M  V30 8026 H 751.376 -1.04588 1.24238 0
M  V30 8027 H 753.373 -4.09471 0.783508 0
M  V30 8028 H 752.033 -3.24684 -0.0322715 0
M  V30 8029 H 753.044 -3.68524 3.63883 0
M  V30 8030 H 749.721 -4.03246 1.08162 0
M  V30 8031 H 751.111 -4.36301 5.1097 0
M  V30 8032 N 753.831 -1.1567 -1.07043 0
M  V30 8033 C 755.247 -0.900006 -1.31803 0
M  V30 8034 C 755.447 0.451293 -1.96381 0
M  V30 8035 O 754.503 1.19252 -2.22565 0
M  V30 8036 C 755.816 -2.04334 -2.20609 0
M  V30 8037 C 757.364 -2.07823 -2.34048 0
M  V30 8038 C 757.839 -3.21488 -3.26204 0
M  V30 8039 N 759.33 -3.21156 -3.33786 0
M  V30 8040 C 760.065 -4.05746 -4.05163 0
M  V30 8041 N 759.561 -5.00407 -4.79129 0
M  V30 8042 N 761.354 -3.93759 -4.01136 0
M  V30 8043 H 753.505 -2.02681 -0.635146 0
M  V30 8044 H 755.768 -0.883956 -0.342528 0
M  V30 8045 H 755.474 -3.01895 -1.80423 0
M  V30 8046 H 755.348 -1.97838 -3.21154 0
M  V30 8047 H 757.735 -1.1086 -2.73485 0
M  V30 8048 H 757.816 -2.18386 -1.33197 0
M  V30 8049 H 757.46 -4.18706 -2.87485 0
M  V30 8050 H 757.39 -3.08162 -4.27017 0
M  V30 8051 H 759.881 -2.52606 -2.81067 0
M  V30 8052 H 760.194 -5.61387 -5.31097 0
M  V30 8053 H 758.539 -5.04393 -4.78135 0
M  V30 8054 H 761.73 -3.19115 -3.42466 0
M  V30 8055 H 761.903 -4.59906 -4.56498 0
M  V30 8056 N 755.309 1.25446 -0.953992 0
M  V30 8057 C 756.272 2.24156 -0.478179 0
M  V30 8058 C 757.272 1.55278 0.417776 0
M  V30 8059 O 758.462 1.72866 0.215155 0
M  V30 8060 C 755.594 3.39495 0.309202 0
M  V30 8061 H 756.787 2.67764 -1.35064 0
M  V30 8062 H 754.34 1.37822 -0.737206 0
M  V30 8063 H 755.075 3.01307 1.19936 0
M  V30 8064 H 754.86 3.90679 -0.333562 0
M  V30 8065 H 756.35 4.12796 0.631594 0
M  V30 8066 N 756.787 0.722489 1.40064 0
M  V30 8067 C 758.015 0.274838 2.05066 0
M  V30 8068 C 758.43 -1.08586 1.54449 0
M  V30 8069 O 757.787 -1.68375 0.704003 0
M  V30 8070 C 757.838 0.253673 3.60609 0
M  V30 8071 O 757.559 1.56064 4.0936 0
M  V30 8072 C 759.06 -0.211684 4.42794 0
M  V30 8073 H 756.28 0.12226 0.659768 0
M  V30 8074 H 758.824 0.982632 1.79345 0
M  V30 8075 H 756.979 -0.405137 3.85276 0
M  V30 8076 H 757.393 1.46576 5.03603 0
M  V30 8077 H 758.867 -0.175341 5.51721 0
M  V30 8078 H 759.344 -1.25493 4.2089 0
M  V30 8079 H 759.95 0.4171 4.2325 0
M  V30 8080 N 758.265 -1.50454 0.469181 0
M  V30 8081 C 759.514 -2.01507 -0.0881425 0
M  V30 8082 C 759.827 -1.35613 -1.40956 0
M  V30 8083 O 761.033 -1.77812 -2.05171 0
M  V30 8084 C 759.489 -3.59301 -0.207596 0
M  V30 8085 C 759.097 -4.34152 1.10527 0
M  V30 8086 C 760.841 -4.18401 -0.716981 0
M  V30 8087 C 758.748 -5.83725 0.949717 0
M  V30 8088 H 757.678 -0.753106 -0.0367156 0
M  V30 8089 H 760.329 -1.73282 0.603788 0
M  V30 8090 H 758.711 -3.84106 -0.963265 0
M  V30 8091 H 759.885 -4.21073 1.87175 0
M  V30 8092 H 758.2 -3.86652 1.54562 0
M  V30 8093 H 760.797 -5.27895 -0.850363 0
M  V30 8094 H 761.14 -3.79657 -1.70782 0
M  V30 8095 H 761.673 -3.97796 -0.0187511 0
M  V30 8096 H 758.412 -6.26938 1.91387 0
M  V30 8097 H 757.932 -5.99383 0.223591 0
M  V30 8098 H 759.611 -6.44065 0.61557 0
M  V30 8099 N 759.743 -0.201713 -1.56304 0
M  V30 8100 C 760.69 0.716499 -2.19397 0
M  V30 8101 C 761.66 1.20494 -1.14326 0
M  V30 8102 O 762.845 1.26763 -1.42604 0
M  V30 8103 C 759.985 1.92762 -2.86246 0
M  V30 8104 C 759.098 1.47993 -4.0586 0
M  V30 8105 C 758.233 2.64706 -4.60547 0
M  V30 8106 C 757.272 2.16576 -5.72504 0
M  V30 8107 N 756.409 3.26491 -6.21569 0
M  V30 8108 H 761.249 0.171724 -2.97505 0
M  V30 8109 H 758.786 0.073016 -1.46919 0
M  V30 8110 H 760.744 2.6384 -3.23178 0
M  V30 8111 H 759.374 2.44559 -2.10691 0
M  V30 8112 H 758.426 0.66477 -3.74546 0
M  V30 8113 H 759.738 1.08686 -4.86815 0
M  V30 8114 H 758.892 3.43898 -4.99819 0
M  V30 8115 H 757.631 3.0729 -3.78713 0
M  V30 8116 H 756.636 1.3584 -5.32755 0
M  V30 8117 H 757.861 1.75015 -6.56161 0
M  V30 8118 H 755.807 3.68594 -5.42655 0
M  V30 8119 H 755.724 2.91374 -6.97594 0
M  V30 8120 H 756.992 4.05877 -6.65495 0
M  V30 8121 N 761.222 1.57436 0.0718424 0
M  V30 8122 C 762.468 1.87525 0.772149 0
M  V30 8123 C 762.801 0.79399 1.77227 0
M  V30 8124 O 762.076 -0.195733 1.93513 0
M  V30 8125 C 762.359 3.28272 1.48018 0
M  V30 8126 C 762.212 4.47052 0.49647 0
M  V30 8127 C 763.531 3.67256 2.42509 0
M  V30 8128 H 760.65 0.682049 0.279245 0
M  V30 8129 H 763.292 1.89967 0.03534 0
M  V30 8130 H 761.442 3.26321 2.10824 0
M  V30 8131 H 763.114 4.61127 -0.126375 0
M  V30 8132 H 761.357 4.33392 -0.188205 0
M  V30 8133 H 762.028 5.42315 1.02949 0
M  V30 8134 H 764.504 3.70301 1.89781 0
M  V30 8135 H 763.38 4.66626 2.89053 0
M  V30 8136 H 763.641 2.97186 3.27312 0
M  V30 8137 N 762.7 -0.34323 1.53817 0
M  V30 8138 C 763.949 -1.08086 1.70295 0
M  V30 8139 C 764.262 -1.89794 0.47302 0
M  V30 8140 O 765.468 -2.66498 0.518754 0
M  V30 8141 C 763.924 -1.97097 3.01133 0
M  V30 8142 C 763.532 -1.20594 4.31464 0
M  V30 8143 C 765.276 -2.70715 3.26976 0
M  V30 8144 C 763.183 -2.08636 5.53376 0
M  V30 8145 H 762.113 -0.407228 0.634572 0
M  V30 8146 H 764.764 -0.340328 1.80316 0
M  V30 8147 H 763.146 -2.74971 2.84969 0
M  V30 8148 H 764.32 -0.476282 4.58332 0
M  V30 8149 H 762.635 -0.587426 4.12236 0
M  V30 8150 H 765.232 -3.36857 4.15248 0
M  V30 8151 H 765.575 -3.37299 2.43998 0
M  V30 8152 H 766.108 -1.99914 3.43917 0
M  V30 8153 H 762.847 -1.46594 6.38898 0
M  V30 8154 H 762.367 -2.7939 5.30755 0
M  V30 8155 H 764.046 -2.67682 5.89029 0
M  V30 8156 N 764.178 -1.45556 -0.604258 0
M  V30 8157 C 765.594 -1.30035 -0.925368 0
M  V30 8158 C 765.794 -0.255833 -1.99869 0
M  V30 8159 O 764.85 0.349076 -2.50075 0
M  V30 8160 C 766.163 -2.68028 -1.36314 0
M  V30 8161 C 767.711 -2.75951 -1.47717 0
M  V30 8162 C 768.186 -4.14476 -1.94868 0
M  V30 8163 N 769.677 -4.16787 -2.02097 0
M  V30 8164 C 770.412 -5.20845 -2.39809 0
M  V30 8165 N 769.908 -6.35246 -2.76467 0
M  V30 8166 N 771.701 -5.08204 -2.40177 0
M  V30 8167 H 763.852 -2.1214 0.10512 0
M  V30 8168 H 766.115 -0.947871 -0.0156303 0
M  V30 8169 H 765.821 -3.45667 -0.648628 0
M  V30 8170 H 765.695 -2.96711 -2.329 0
M  V30 8171 H 768.082 -1.98613 -2.18258 0
M  V30 8172 H 768.163 -2.50977 -0.494371 0
M  V30 8173 H 767.807 -4.923 -1.24912 0
M  V30 8174 H 767.737 -4.36843 -2.94068 0
M  V30 8175 H 770.228 -3.34233 -1.76343 0
M  V30 8176 H 770.541 -7.10438 -3.04134 0
M  V30 8177 H 768.886 -6.38642 -2.74155 0
M  V30 8178 H 772.077 -4.17874 -2.10947 0
M  V30 8179 H 772.25 -5.89417 -2.69242 0
M  V30 8180 N 765.656 0.84705 -1.32902 0
M  V30 8181 C 767.072 1.13645 -1.12058 0
M  V30 8182 C 767.272 2.01281 0.093937 0
M  V30 8183 O 766.328 2.4026 0.776608 0
M  V30 8184 C 767.641 1.80644 -2.40392 0
M  V30 8185 C 769.189 1.93246 -2.46221 0
M  V30 8186 C 769.664 2.6366 -3.74496 0
M  V30 8187 N 771.155 2.71179 -3.75521 0
M  V30 8188 C 771.89 3.26332 -4.71482 0
M  V30 8189 N 771.386 3.82236 -5.77813 0
M  V30 8190 N 773.179 3.24507 -4.58968 0
M  V30 8191 H 765.33 0.263612 -2.10758 0
M  V30 8192 H 767.593 0.17944 -0.930863 0
M  V30 8193 H 767.299 1.23708 -3.29225 0
M  V30 8194 H 767.173 2.80736 -2.51926 0
M  V30 8195 H 769.56 2.49338 -1.57843 0
M  V30 8196 H 769.641 0.921272 -2.38634 0
M  V30 8197 H 769.285 2.08229 -4.63253 0
M  V30 8198 H 769.215 3.65234 -3.79357 0
M  V30 8199 H 771.706 2.31527 -2.9867 0
M  V30 8200 H 772.019 4.22499 -6.47082 0
M  V30 8201 H 770.364 3.80546 -5.81558 0
M  V30 8202 H 773.555 2.80085 -3.7506 0
M  V30 8203 H 773.728 3.67188 -5.33926 0
M  V30 8204 N 767.134 1.16236 1.06428 0
M  V30 8205 C 768.067 0.81119 2.13295 0
M  V30 8206 C 769.045 -0.216555 1.61151 0
M  V30 8207 O 770.229 -0.100949 1.88229 0
M  V30 8208 C 767.356 0.207901 3.38061 0
M  V30 8209 C 766.402 1.20904 4.09004 0
M  V30 8210 S 767.235 2.75513 4.59187 0
M  V30 8211 C 768.391 2.1663 5.87216 0
M  V30 8212 H 768.624 1.71632 2.42755 0
M  V30 8213 H 766.157 0.985693 1.18842 0
M  V30 8214 H 768.115 -0.133715 4.10282 0
M  V30 8215 H 766.776 -0.67497 3.06762 0
M  V30 8216 H 765.969 0.735326 4.98607 0
M  V30 8217 H 765.571 1.49567 3.42791 0
M  V30 8218 H 767.863 1.53413 6.59902 0
M  V30 8219 H 768.806 3.04437 6.39315 0
M  V30 8220 H 769.214 1.60565 5.41183 0
M  V30 8221 N 768.612 -1.24939 0.960631 0
M  V30 8222 C 769.544 -2.24879 0.442937 0
M  V30 8223 C 770.557 -1.56615 -0.444464 0
M  V30 8224 O 771.746 -1.76715 -0.251776 0
M  V30 8225 C 768.846 -3.36757 -0.380537 0
M  V30 8226 C 768.019 -4.34587 0.495283 0
M  V30 8227 C 767.078 -5.25502 -0.270995 0
M  V30 8228 O 766.104 -5.68227 0.332661 0
M  V30 8229 N 767.306 -5.59077 -1.56249 0
M  V30 8230 H 770.071 -2.69932 1.30218 0
M  V30 8231 H 767.632 -1.38907 0.83166 0
M  V30 8232 H 769.624 -3.94542 -0.90103 0
M  V30 8233 H 768.194 -2.91045 -1.14067 0
M  V30 8234 H 767.414 -3.75593 1.19682 0
M  V30 8235 H 768.702 -4.96925 1.09285 0
M  V30 8236 H 768.1 -5.2628 -2.07476 0
M  V30 8237 H 766.657 -6.19421 -2.02882 0
M  V30 8238 N 770.09 -0.729906 -1.39679 0
M  V30 8239 C 771.32 -0.285295 -2.04621 0
M  V30 8240 C 771.728 1.08304 -1.55135 0
M  V30 8241 O 771.071 1.6946 -0.709146 0
M  V30 8242 C 771.133 -0.203129 -3.58926 0
M  V30 8243 C 770.797 -1.50909 -4.31365 0
M  V30 8244 C 771.794 -2.45381 -4.58349 0
M  V30 8245 C 769.479 -1.77198 -4.70007 0
M  V30 8246 C 771.473 -3.64379 -5.22979 0
M  V30 8247 C 769.16 -2.96474 -5.34365 0
M  V30 8248 C 770.158 -3.89886 -5.60783 0
M  V30 8249 O 769.846 -5.07069 -6.23808 0
M  V30 8250 H 769.578 -0.123373 -0.664647 0
M  V30 8251 H 772.132 -0.992901 -1.79807 0
M  V30 8252 H 770.362 0.560538 -3.82616 0
M  V30 8253 H 772.051 0.208811 -4.05363 0
M  V30 8254 H 772.817 -2.2634 -4.28947 0
M  V30 8255 H 768.696 -1.05337 -4.48804 0
M  V30 8256 H 772.24 -4.37307 -5.43515 0
M  V30 8257 H 768.137 -3.15419 -5.63188 0
M  V30 8258 H 768.905 -5.07335 -6.42303 0
M  V30 8259 N 771.568 1.50203 -0.477153 0
M  V30 8260 C 772.815 2.02358 0.0757385 0
M  V30 8261 C 773.143 1.3587 1.39174 0
M  V30 8262 O 772.398 0.475415 1.89838 0
M  V30 8263 C 772.697 3.56127 0.301325 0
M  V30 8264 C 772.363 4.41126 -0.933725 0
M  V30 8265 C 771.025 4.64075 -1.27233 0
M  V30 8266 C 773.377 4.90737 -1.75576 0
M  V30 8267 C 770.705 5.33878 -2.43292 0
M  V30 8268 C 773.057 5.61816 -2.90768 0
M  V30 8269 C 771.721 5.83016 -3.25036 0
M  V30 8270 H 770.991 0.740482 0.0277147 0
M  V30 8271 H 773.638 1.80754 -0.632467 0
M  V30 8272 H 771.943 3.76279 1.09183 0
M  V30 8273 H 773.64 3.94053 0.743184 0
M  V30 8274 H 770.23 4.23489 -0.659935 0
M  V30 8275 H 774.414 4.72856 -1.50734 0
M  V30 8276 H 769.67 5.48499 -2.70109 0
M  V30 8277 H 773.844 5.99237 -3.54807 0
M  V30 8278 H 771.471 6.36881 -4.15074 0
M  V30 8279 N 773.046 0.209999 1.56195 0
M  V30 8280 C 774.292 -0.425442 1.98287 0
M  V30 8281 C 774.625 -1.60232 1.09724 0
M  V30 8282 O 773.9 -1.93902 0.152414 0
M  V30 8283 C 774.183 -0.871189 3.49403 0
M  V30 8284 C 774.036 0.308527 4.48741 0
M  V30 8285 C 775.355 -1.73146 4.04609 0
M  V30 8286 H 772.474 -0.153169 0.720908 0
M  V30 8287 H 775.116 0.303916 1.87554 0
M  V30 8288 H 773.266 -1.49266 3.58681 0
M  V30 8289 H 774.938 0.946487 4.51486 0
M  V30 8290 H 773.181 0.957878 4.23092 0
M  V30 8291 H 773.852 -0.0461143 5.51981 0
M  V30 8292 H 776.328 -1.2072 3.98203 0
M  V30 8293 H 775.204 -2.01228 5.10684 0
M  V30 8294 H 775.465 -2.69083 3.5078 0
M  V30 8295 N 774.524 -1.57472 -0.0634922 0
M  V30 8296 C 775.487 -2.03268 -1.059 0
M  V30 8297 C 776.487 -0.931028 -1.31105 0
M  V30 8298 O 777.677 -1.19567 -1.26686 0
M  V30 8299 C 774.809 -2.42039 -2.40062 0
M  V30 8300 H 776.002 -2.92454 -0.664119 0
M  V30 8301 H 773.555 -1.53206 -0.309444 0
M  V30 8302 H 774.29 -1.55904 -2.84367 0
M  V30 8303 H 774.075 -3.22437 -2.23108 0
M  V30 8304 H 775.565 -2.78017 -3.11603 0
M  V30 8305 N 776.003 0.335068 -1.53997 0
M  V30 8306 C 776.95 1.41187 -1.82579 0
M  V30 8307 C 777.92 1.51897 -0.672061 0
M  V30 8308 O 779.105 1.673 -0.917346 0
M  V30 8309 C 776.245 2.77717 -2.0486 0
M  V30 8310 C 775.358 2.7573 -3.32561 0
M  V30 8311 C 774.493 4.04032 -3.44864 0
M  V30 8312 C 773.532 3.96308 -4.66483 0
M  V30 8313 N 772.669 5.16317 -4.75774 0
M  V30 8314 H 777.509 1.16113 -2.74448 0
M  V30 8315 H 775.046 0.562305 -1.35928 0
M  V30 8316 H 777.004 3.57071 -2.15768 0
M  V30 8317 H 775.634 3.01124 -1.16294 0
M  V30 8318 H 774.686 1.88432 -3.3045 0
M  V30 8319 H 775.998 2.65902 -4.22016 0
M  V30 8320 H 775.152 4.91814 -3.55251 0
M  V30 8321 H 773.891 4.16652 -2.53481 0
M  V30 8322 H 772.896 3.06911 -4.56164 0
M  V30 8323 H 774.121 3.85263 -5.5924 0
M  V30 8324 H 772.067 5.29464 -3.87303 0
M  V30 8325 H 771.984 5.08779 -5.59178 0
M  V30 8326 H 773.252 6.05846 -4.9048 0
M  V30 8327 N 777.481 1.45874 0.596531 0
M  V30 8328 C 778.428 1.55389 1.70655 0
M  V30 8329 C 779.398 0.399036 1.61236 0
M  V30 8330 O 780.583 0.61396 1.80652 0
M  V30 8331 C 777.723 1.53705 3.0898 0
M  V30 8332 C 776.836 2.79823 3.29125 0
M  V30 8333 C 775.971 2.69735 4.5762 0
M  V30 8334 C 775.01 3.90856 4.71061 0
M  V30 8335 N 774.147 3.79237 5.90867 0
M  V30 8336 H 778.987 2.50211 1.61859 0
M  V30 8337 H 776.524 1.24146 0.789069 0
M  V30 8338 H 778.482 1.50715 3.89026 0
M  V30 8339 H 777.112 0.624247 3.16706 0
M  V30 8340 H 776.164 2.92852 2.42779 0
M  V30 8341 H 777.476 3.69628 3.34927 0
M  V30 8342 H 776.63 2.64773 5.45875 0
M  V30 8343 H 775.369 1.77547 4.54234 0
M  V30 8344 H 774.374 3.96164 3.81227 0
M  V30 8345 H 775.599 4.84124 4.76236 0
M  V30 8346 H 773.545 2.89825 5.88504 0
M  V30 8347 H 773.462 4.62686 5.97877 0
M  V30 8348 H 774.73 3.78227 6.8159 0
M  V30 8349 N 778.959 -0.83999 1.33349 0
M  V30 8350 C 779.906 -1.94972 1.23509 0
M  V30 8351 C 780.876 -1.65709 0.113967 0
M  V30 8352 O 782.061 -1.88552 0.292045 0
M  V30 8353 C 779.201 -3.30919 0.979105 0
M  V30 8354 C 778.314 -3.72587 2.18639 0
M  V30 8355 C 777.449 -4.97397 1.86465 0
M  V30 8356 C 776.488 -5.31597 3.03432 0
M  V30 8357 N 775.625 -6.47584 2.71254 0
M  V30 8358 H 780.465 -2.0272 2.18423 0
M  V30 8359 H 778.002 -0.992017 1.08616 0
M  V30 8360 H 779.96 -4.09239 0.811126 0
M  V30 8361 H 778.59 -3.22731 0.0667099 0
M  V30 8362 H 777.642 -2.89799 2.46416 0
M  V30 8363 H 778.954 -3.93844 3.06086 0
M  V30 8364 H 778.108 -5.83462 1.66305 0
M  V30 8365 H 776.847 -4.78107 0.96254 0
M  V30 8366 H 775.852 -4.44037 3.24208 0
M  V30 8367 H 777.077 -5.52836 3.94397 0
M  V30 8368 H 775.023 -6.29783 1.836 0
M  V30 8369 H 774.94 -6.68931 3.52231 0
M  V30 8370 H 776.208 -7.36764 2.54558 0
M  V30 8371 N 780.437 -1.16799 -1.0581 0
M  V30 8372 C 781.684 -0.952524 -1.78699 0
M  V30 8373 C 782.012 0.51931 -1.87439 0
M  V30 8374 O 781.267 1.40151 -1.36587 0
M  V30 8375 C 781.566 -1.53111 -3.22942 0
M  V30 8376 C 781.232 -3.0261 -3.34273 0
M  V30 8377 C 779.894 -3.43418 -3.37072 0
M  V30 8378 C 782.246 -3.98611 -3.35795 0
M  V30 8379 C 779.574 -4.78838 -3.39015 0
M  V30 8380 C 781.926 -5.33923 -3.39277 0
M  V30 8381 C 780.59 -5.74205 -3.40361 0
M  V30 8382 H 779.86 -0.348553 -0.653905 0
M  V30 8383 H 782.507 -1.45591 -1.244 0
M  V30 8384 H 780.812 -0.949286 -3.80126 0
M  V30 8385 H 782.509 -1.34002 -3.77948 0
M  V30 8386 H 779.099 -2.70075 -3.32803 0
M  V30 8387 H 783.283 -3.68146 -3.32839 0
M  V30 8388 H 778.539 -5.09369 -3.38161 0
M  V30 8389 H 782.713 -6.08094 -3.39403 0
M  V30 8390 H 780.34 -6.79117 -3.4162 0
M  V30 8391 N 781.915 1.24427 -0.967243 0
M  V30 8392 C 782.847 2.24641 -0.454856 0
M  V30 8393 C 783.86 1.56849 0.436152 0
M  V30 8394 O 785.049 1.76846 0.242401 0
M  V30 8395 C 782.149 3.36954 0.362672 0
M  V30 8396 C 781.322 4.34318 -0.518324 0
M  V30 8397 C 780.381 5.25638 0.243122 0
M  V30 8398 O 779.407 5.68043 -0.362791 0
M  V30 8399 N 780.609 5.59897 1.53282 0
M  V30 8400 H 783.374 2.69238 -1.31648 0
M  V30 8401 H 780.935 1.38464 -0.839015 0
M  V30 8402 H 782.927 3.95014 0.880094 0
M  V30 8403 H 781.497 2.91646 1.12522 0
M  V30 8404 H 780.717 3.74953 -1.21672 0
M  V30 8405 H 782.005 4.96338 -1.11919 0
M  V30 8406 H 781.403 5.27373 2.04682 0
M  V30 8407 H 779.96 6.20488 1.99594 0
M  V30 8408 N 783.393 0.737304 1.3929 0
M  V30 8409 C 784.325 0.0592106 2.29124 0
M  V30 8410 C 785.338 -0.701026 1.46934 0
M  V30 8411 O 786.527 -0.544808 1.69983 0
M  V30 8412 C 783.627 -0.940358 3.25592 0
M  V30 8413 C 782.8 -0.241163 4.36735 0
M  V30 8414 C 781.859 -1.14916 5.13498 0
M  V30 8415 O 780.885 -0.625783 5.6575 0
M  V30 8416 N 782.087 -2.47869 5.2492 0
M  V30 8417 H 784.852 0.830647 2.87959 0
M  V30 8418 H 782.413 0.586718 1.50895 0
M  V30 8419 H 784.405 -1.55046 3.73822 0
M  V30 8420 H 782.975 -1.61299 2.67771 0
M  V30 8421 H 782.195 0.549441 3.90352 0
M  V30 8422 H 783.483 0.243299 5.08218 0
M  V30 8423 H 782.881 -2.92864 4.83991 0
M  V30 8424 H 781.438 -3.03969 5.76581 0
M  V30 8425 N 784.871 -1.49948 0.485112 0
M  V30 8426 C 785.834 -2.27351 -0.290546 0
M  V30 8427 C 786.834 -1.32704 -0.908087 0
M  V30 8428 O 788.024 -1.56007 -0.775085 0
M  V30 8429 C 785.156 -3.10135 -1.41524 0
M  V30 8430 H 786.349 -2.97374 0.388454 0
M  V30 8431 H 783.902 -1.54453 0.239586 0
M  V30 8432 H 784.637 -2.44641 -2.12888 0
M  V30 8433 H 784.422 -3.79705 -0.978074 0
M  V30 8434 H 785.912 -3.68638 -1.96204 0
M  V30 8435 N 786.349 -0.21828 -1.56081 0
M  V30 8436 C 787.765 0.137168 -1.59009 0
M  V30 8437 C 787.965 1.59215 -1.23503 0
M  V30 8438 O 787.021 2.33178 -0.968716 0
M  V30 8439 C 788.334 -0.186162 -3.00123 0
M  V30 8440 C 789.882 -0.128135 -3.12738 0
M  V30 8441 C 790.357 -0.425094 -4.56023 0
M  V30 8442 N 791.848 -0.374547 -4.61683 0
M  V30 8443 C 792.583 -0.57786 -5.70481 0
M  V30 8444 N 792.079 -0.842771 -6.87655 0
M  V30 8445 N 793.872 -0.510521 -5.59777 0
M  V30 8446 H 786.023 -1.16746 -1.77437 0
M  V30 8447 H 788.286 -0.467706 -0.824594 0
M  V30 8448 H 787.992 -1.19589 -3.30744 0
M  V30 8449 H 787.866 0.500388 -3.73866 0
M  V30 8450 H 790.253 0.872224 -2.81915 0
M  V30 8451 H 790.334 -0.848112 -2.41331 0
M  V30 8452 H 789.978 -1.42288 -4.87562 0
M  V30 8453 H 789.908 0.316038 -5.25651 0
M  V30 8454 H 792.399 -0.177356 -3.77484 0
M  V30 8455 H 792.712 -0.986095 -7.66483 0
M  V30 8456 H 791.057 -0.879929 -6.89407 0
M  V30 8457 H 794.248 -0.303813 -4.67113 0
M  V30 8458 H 794.421 -0.672378 -6.44502 0
M  V30 8459 N 787.827 1.57504 0.0551401 0
M  V30 8460 C 788.774 2.04825 1.06373 0
M  V30 8461 C 789.744 0.932108 1.37481 0
M  V30 8462 O 790.929 1.20093 1.48265 0
M  V30 8463 C 788.069 2.51091 2.36743 0
M  V30 8464 C 787.182 3.76392 2.12021 0
M  V30 8465 C 786.317 4.11373 3.36074 0
M  V30 8466 C 785.356 5.29666 3.0679 0
M  V30 8467 N 784.493 5.60205 4.2322 0
M  V30 8468 H 789.333 2.90753 0.653216 0
M  V30 8469 H 786.87 1.43776 0.310951 0
M  V30 8470 H 788.828 2.75973 3.12881 0
M  V30 8471 H 787.458 1.68118 2.75565 0
M  V30 8472 H 786.51 3.58751 1.26498 0
M  V30 8473 H 787.822 4.62662 1.86401 0
M  V30 8474 H 786.976 4.37245 4.20597 0
M  V30 8475 H 785.715 3.23704 3.64784 0
M  V30 8476 H 784.72 5.03574 2.20664 0
M  V30 8477 H 785.945 6.18968 2.79385 0
M  V30 8478 H 783.891 4.75495 4.5193 0
M  V30 8479 H 783.808 6.40928 4.00933 0
M  V30 8480 H 785.076 5.90637 5.08692 0
M  V30 8481 N 789.305 -0.326896 1.54172 0
M  V30 8482 C 790.716 -0.901533 1.63491 0
M  V30 8483 C 791.067 -1.88994 0.52684 0
M  V30 8484 O 790.192 -2.137 -0.340794 0
M  V30 8485 C 790.787 -1.64192 2.96355 0
M  V30 8486 C 789.346 -2.16533 3.07881 0
M  V30 8487 C 788.493 -0.98966 2.59039 0
M  V30 8488 H 791.444 -0.104568 1.58355 0
M  V30 8489 H 791.465 -2.50592 2.86328 0
M  V30 8490 H 790.977 -0.922291 3.76982 0
M  V30 8491 H 789.078 -2.91622 2.31922 0
M  V30 8492 H 789.191 -2.41762 4.13628 0
M  V30 8493 H 787.555 -1.36787 2.14852 0
M  V30 8494 H 788.338 -0.284401 3.4212 0
M  V30 8495 N 790.784 -1.46188 -0.588786 0
M  V30 8496 C 792.014 -1.54519 -1.3714 0
M  V30 8497 C 792.422 -0.183075 -1.88312 0
M  V30 8498 O 791.765 0.828815 -1.6394 0
M  V30 8499 C 791.827 -2.48426 -2.59856 0
M  V30 8500 C 791.491 -3.94791 -2.30193 0
M  V30 8501 C 792.488 -4.84173 -1.894 0
M  V30 8502 C 790.173 -4.39872 -2.42525 0
M  V30 8503 C 792.167 -6.16647 -1.61325 0
M  V30 8504 C 789.854 -5.72381 -2.14063 0
M  V30 8505 C 790.852 -6.60589 -1.73527 0
M  V30 8506 O 790.54 -7.9064 -1.4541 0
M  V30 8507 H 790.272 -0.525264 -0.425527 0
M  V30 8508 H 792.826 -1.92242 -0.723344 0
M  V30 8509 H 791.056 -2.05709 -3.27446 0
M  V30 8510 H 792.745 -2.4723 -3.21919 0
M  V30 8511 H 793.511 -4.50603 -1.79393 0
M  V30 8512 H 789.39 -3.71444 -2.7304 0
M  V30 8513 H 792.934 -6.85454 -1.29611 0
M  V30 8514 H 788.831 -6.05501 -2.23693 0
M  V30 8515 H 789.599 -8.02847 -1.59306 0
M  V30 8516 N 792.262 0.832906 -1.33792 0
M  V30 8517 C 793.539 1.57359 -1.16178 0
M  V30 8518 C 793.919 2.09372 0.269532 0
M  V30 8519 O 793.267 1.89993 1.26944 0
M  V30 8520 C 793.477 2.70279 -2.20795 0
M  V30 8521 C 794.825 3.39305 -2.55259 0
M  V30 8522 O 795.849 2.80526 -2.19508 0
M  V30 8523 O 794.708 4.45428 -3.16632 0
M  V30 8524 H 791.802 0.694025 -0.449731 0
M  V30 8525 H 794.348 0.875144 -1.45394 0
M  V30 8526 H 793.12 2.29527 -3.16911 0
M  V30 8527 H 792.743 3.47782 -1.927 0
M  V30 8528 N 793.74 1.17359 1.05189 0
M  V30 8529 C 794.986 0.963413 1.78455 0
M  V30 8530 C 795.319 -0.506703 1.87473 0
M  V30 8531 O 794.594 -1.37611 1.37453 0
M  V30 8532 C 794.877 1.60519 3.22344 0
M  V30 8533 C 794.73 3.14741 3.21338 0
M  V30 8534 C 796.049 1.3091 4.20179 0
M  V30 8535 H 793.168 0.351412 0.647826 0
M  V30 8536 H 795.81 1.44858 1.22948 0
M  V30 8537 H 793.96 1.19265 3.69741 0
M  V30 8538 H 795.632 3.65053 2.82017 0
M  V30 8539 H 793.875 3.4749 2.59679 0
M  V30 8540 H 794.546 3.54775 4.22894 0
M  V30 8541 H 797.022 1.66635 3.81277 0
M  V30 8542 H 795.898 1.784 5.191 0
M  V30 8543 H 796.159 0.229908 4.41502 0
M  V30 8544 N 795.218 -1.23913 0.973828 0
M  V30 8545 C 796.634 -1.44325 0.681363 0
M  V30 8546 C 796.834 -1.86832 -0.754728 0
M  V30 8547 O 795.89 -2.01024 -1.52793 0
M  V30 8548 C 797.203 -2.50017 1.67069 0
M  V30 8549 C 798.751 -2.63838 1.68399 0
M  V30 8550 C 799.226 -3.72734 2.66145 0
M  V30 8551 N 800.717 -3.80169 2.64624 0
M  V30 8552 C 801.452 -4.6397 3.36927 0
M  V30 8553 N 800.948 -5.51911 4.18767 0
M  V30 8554 N 802.741 -4.58106 3.25722 0
M  V30 8555 H 794.892 -0.946204 1.9016 0
M  V30 8556 H 797.155 -0.477374 0.819035 0
M  V30 8557 H 796.861 -2.25686 2.69738 0
M  V30 8558 H 796.735 -3.48287 1.4483 0
M  V30 8559 H 799.122 -2.87524 0.664379 0
M  V30 8560 H 799.203 -1.65906 1.94702 0
M  V30 8561 H 798.847 -3.49797 3.68245 0
M  V30 8562 H 798.777 -4.70193 2.3712 0
M  V30 8563 H 801.268 -3.17319 2.05224 0
M  V30 8564 H 801.581 -6.12828 4.70809 0
M  V30 8565 H 799.926 -5.51556 4.2286 0
M  V30 8566 H 803.117 -3.8842 2.61242 0
M  V30 8567 H 803.29 -5.23188 3.82333 0
M  V30 8568 N 796.696 -0.74468 -1.38897 0
M  V30 8569 C 797.973 -0.222773 -1.94327 0
M  V30 8570 C 798.353 1.27731 -1.68071 0
M  V30 8571 O 797.701 2.04754 -1.01429 0
M  V30 8572 C 797.911 -0.566836 -3.44366 0
M  V30 8573 C 799.259 -0.521531 -4.21385 0
M  V30 8574 O 800.283 -0.504599 -3.52608 0
M  V30 8575 O 799.142 -0.524595 -5.43976 0
M  V30 8576 H 796.236 -0.0439259 -0.825833 0
M  V30 8577 H 798.782 -0.824197 -1.48341 0
M  V30 8578 H 797.554 -1.60321 -3.56949 0
M  V30 8579 H 797.177 0.0630577 -3.9755 0
M  V30 8580 N 798.174 1.49689 -0.493057 0
M  V30 8581 C 799.42 2.02727 0.0543518 0
M  V30 8582 C 799.753 1.37264 1.37376 0
M  V30 8583 O 799.028 0.505644 1.87812 0
M  V30 8584 C 799.311 3.59456 0.215226 0
M  V30 8585 C 799.164 4.35459 -1.12675 0
M  V30 8586 C 800.483 4.29511 0.959586 0
M  V30 8587 H 797.602 0.736773 0.0182786 0
M  V30 8588 H 800.244 1.78792 -0.642924 0
M  V30 8589 H 798.394 3.79981 0.809122 0
M  V30 8590 H 800.066 4.2645 -1.75891 0
M  V30 8591 H 798.309 3.9833 -1.71801 0
M  V30 8592 H 798.98 5.43454 -0.967578 0
M  V30 8593 H 801.456 4.13594 0.455977 0
M  V30 8594 H 800.332 5.38939 1.04098 0
M  V30 8595 H 800.593 3.94202 2.00144 0
M  V30 8596 N 799.652 0.226554 1.55963 0
M  V30 8597 C 800.901 -0.40417 1.97609 0
M  V30 8598 C 801.214 -1.60541 1.1174 0
M  V30 8599 O 802.42 -2.30598 1.43307 0
M  V30 8600 C 800.876 -0.770466 3.51556 0
M  V30 8601 C 800.484 0.408244 4.46136 0
M  V30 8602 C 802.228 -1.36651 4.01904 0
M  V30 8603 C 800.135 0.0192347 5.91397 0
M  V30 8604 H 799.065 -0.15478 0.737943 0
M  V30 8605 H 801.716 0.323558 1.80625 0
M  V30 8606 H 800.098 -1.55575 3.6416 0
M  V30 8607 H 801.272 1.18575 4.45283 0
M  V30 8608 H 799.587 0.917859 4.06158 0
M  V30 8609 H 802.184 -1.67055 5.07934 0
M  V30 8610 H 802.527 -2.28403 3.48049 0
M  V30 8611 H 803.06 -0.644556 3.92543 0
M  V30 8612 H 799.799 0.90336 6.49245 0
M  V30 8613 H 799.319 -0.722485 5.95433 0
M  V30 8614 H 800.998 -0.405711 6.45727 0
M  V30 8615 N 801.13 -1.57531 -0.0467866 0
M  V30 8616 C 802.04 -2.08768 -1.07018 0
M  V30 8617 C 803.056 -1.02245 -1.40791 0
M  V30 8618 O 804.232 -1.33873 -1.50466 0
M  V30 8619 C 801.297 -2.54221 -2.35738 0
M  V30 8620 C 800.358 -3.75152 -2.08709 0
M  V30 8621 C 799.591 -4.18428 -3.31291 0
M  V30 8622 O 799.814 -3.61365 -4.4133 0
M  V30 8623 O 798.748 -5.11018 -3.18032 0
M  V30 8624 H 802.574 -2.96334 -0.664812 0
M  V30 8625 H 800.159 -1.47074 -0.262605 0
M  V30 8626 H 802.041 -2.83866 -3.11445 0
M  V30 8627 H 800.716 -1.69774 -2.75605 0
M  V30 8628 H 799.623 -3.50553 -1.30627 0
M  V30 8629 H 800.956 -4.60528 -1.73708 0
M  V30 8630 N 802.608 0.318715 -1.54344 0
M  V30 8631 C 803.54 1.41364 -1.80413 0
M  V30 8632 C 804.553 1.47627 -0.686294 0
M  V30 8633 O 805.742 1.50264 -0.963486 0
M  V30 8634 C 802.842 2.79867 -1.91123 0
M  V30 8635 C 802.015 2.96749 -3.21339 0
M  V30 8636 C 801.074 4.15642 -3.22689 0
M  V30 8637 O 800.1 4.08571 -3.96306 0
M  V30 8638 N 801.302 5.25416 -2.46817 0
M  V30 8639 H 804.067 1.19363 -2.74905 0
M  V30 8640 H 801.628 0.508722 -1.537 0
M  V30 8641 H 803.62 3.57619 -1.89448 0
M  V30 8642 H 802.19 2.94896 -1.03706 0
M  V30 8643 H 801.41 2.06257 -3.35934 0
M  V30 8644 H 802.698 3.04927 -4.07304 0
M  V30 8645 H 802.096 5.34037 -1.86605 0
M  V30 8646 H 800.653 6.01569 -2.50915 0
M  V30 8647 N 804.086 1.46499 0.581025 0
M  V30 8648 C 805.316 1.55244 1.36319 0
M  V30 8649 C 805.724 0.193059 1.88212 0
M  V30 8650 O 805.067 -0.820109 1.64377 0
M  V30 8651 C 805.129 2.498 2.58535 0
M  V30 8652 C 804.793 3.96007 2.28096 0
M  V30 8653 C 805.79 4.85171 1.8683 0
M  V30 8654 C 803.475 4.41152 2.40189 0
M  V30 8655 C 805.469 6.17493 1.58053 0
M  V30 8656 C 803.156 5.73508 2.11024 0
M  V30 8657 C 804.154 6.615 1.70021 0
M  V30 8658 O 803.842 7.914 1.41215 0
M  V30 8659 H 803.574 0.527513 0.422736 0
M  V30 8660 H 806.128 1.92623 0.713139 0
M  V30 8661 H 804.358 2.07443 3.2635 0
M  V30 8662 H 806.047 2.48934 3.20604 0
M  V30 8663 H 806.813 4.51548 1.77001 0
M  V30 8664 H 802.692 3.72886 2.71066 0
M  V30 8665 H 806.236 6.86131 1.25974 0
M  V30 8666 H 802.133 6.06679 2.20478 0
M  V30 8667 H 802.901 8.03681 1.55046 0
M  V30 8668 N 805.565 -0.825799 1.34232 0
M  V30 8669 C 806.79 -1.61883 1.29648 0
M  V30 8670 C 807.215 -1.87669 -0.127295 0
M  V30 8671 O 806.573 -1.45016 -1.08813 0
M  V30 8672 C 806.621 -2.93846 2.09014 0
M  V30 8673 O 805.725 -3.85778 1.4577 0
M  V30 8674 H 805.066 -0.492454 0.445405 0
M  V30 8675 H 807.596 -1.02641 1.76992 0
M  V30 8676 H 807.606 -3.43435 2.20264 0
M  V30 8677 H 806.281 -2.74401 3.12533 0
M  V30 8678 H 804.858 -3.4429 1.43245 0
M  V30 8679 N 807.043 -1.17915 -1.04565 0
M  V30 8680 C 807.975 -0.859359 -2.1248 0
M  V30 8681 C 808.988 0.140922 -1.62189 0
M  V30 8682 O 810.177 -0.0862361 -1.78292 0
M  V30 8683 C 807.277 -0.261811 -3.37887 0
M  V30 8684 C 806.45 -1.30651 -4.17431 0
M  V30 8685 C 805.509 -0.725575 -5.21174 0
M  V30 8686 O 804.535 -1.39901 -5.51739 0
M  V30 8687 N 805.737 0.479351 -5.78517 0
M  V30 8688 H 808.502 -1.78818 -2.40508 0
M  V30 8689 H 806.063 -1.07885 -1.20716 0
M  V30 8690 H 808.055 0.14028 -4.04457 0
M  V30 8691 H 806.625 0.570929 -3.07342 0
M  V30 8692 H 805.845 -1.88412 -3.46258 0
M  V30 8693 H 807.133 -2.01099 -4.67372 0
M  V30 8694 H 806.531 1.04431 -5.55977 0
M  V30 8695 H 805.088 0.823427 -6.46578 0
M  V30 8696 N 808.521 1.23394 -0.980386 0
M  V30 8697 C 809.769 1.91431 -0.647978 0
M  V30 8698 C 810.09 1.76871 0.821066 0
M  V30 8699 O 809.36 1.14808 1.58732 0
M  V30 8700 H 807.94 0.708516 -0.236673 0
M  V30 8701 H 810.602 1.50019 -1.2442 0
M  V30 8702 H 809.698 2.98854 -0.899592 0
M  V30 8703 N 809.999 0.752036 1.385 0
M  V30 8704 C 810.949 0.0990189 2.27785 0
M  V30 8705 C 811.933 -0.694867 1.45122 0
M  V30 8706 O 813.125 -0.561077 1.67872 0
M  V30 8707 C 810.254 -0.794531 3.33979 0
M  V30 8708 C 809.34 0.00611984 4.241 0
M  V30 8709 N 809.731 1.04174 4.94956 0
M  V30 8710 C 808.029 -0.220934 4.45452 0
M  V30 8711 C 808.73 1.52601 5.61327 0
M  V30 8712 N 807.706 0.84159 5.37046 0
M  V30 8713 H 811.508 0.892208 2.8003 0
M  V30 8714 H 809.022 0.587934 1.51384 0
M  V30 8715 H 811.019 -1.27797 3.96829 0
M  V30 8716 H 809.679 -1.58669 2.83292 0
M  V30 8717 H 810.69 1.42349 4.97953 0
M  V30 8718 H 807.367 -0.986556 4.05676 0
M  V30 8719 H 808.757 2.38857 6.2801 0
M  V30 8720 N 811.477 -1.49425 0.500989 0
M  V30 8721 C 812.407 -2.31971 -0.266775 0
M  V30 8722 C 813.388 -1.40245 -0.962563 0
M  V30 8723 O 814.573 -1.69154 -0.953968 0
M  V30 8724 C 811.703 -3.20757 -1.33163 0
M  V30 8725 C 810.657 -4.21275 -0.75572 0
M  V30 8726 C 809.983 -4.98997 -1.92109 0
M  V30 8727 C 811.283 -5.21686 0.253213 0
M  V30 8728 H 812.977 -2.96408 0.422237 0
M  V30 8729 H 810.523 -1.4254 0.204505 0
M  V30 8730 H 812.476 -3.77315 -1.87646 0
M  V30 8731 H 811.2 -2.54263 -2.04983 0
M  V30 8732 H 809.859 -3.65861 -0.232637 0
M  V30 8733 H 809.507 -4.28951 -2.62698 0
M  V30 8734 H 809.207 -5.67011 -1.54182 0
M  V30 8735 H 810.731 -5.584 -2.47026 0
M  V30 8736 H 812.145 -5.72939 -0.203483 0
M  V30 8737 H 810.542 -5.9759 0.548322 0
M  V30 8738 H 811.612 -4.70596 1.16909 0
M  V30 8739 N 812.955 -0.234822 -1.55841 0
M  V30 8740 C 813.903 0.686145 -2.22249 0
M  V30 8741 C 814.897 1.18948 -1.20614 0
M  V30 8742 O 816.103 1.14777 -1.38659 0
M  V30 8743 H 812.478 0.239724 -0.712767 0
M  V30 8744 H 814.449 0.102762 -2.98223 0
M  V30 8745 C 813.198 1.8776 -2.92646 0
M  V30 8746 H 812.521 1.49943 -3.70617 0
M  V30 8747 H 813.961 2.4995 -3.42493 0
M  V30 8748 C 812.42 2.74127 -1.95847 0
M  V30 8749 O 812.95 3.7329 -1.48384 0
M  V30 8750 N 811.156 2.4044 -1.63209 0
M  V30 8751 H 810.703 1.59854 -2.02001 0
M  V30 8752 H 810.661 2.98504 -0.987063 0
M  V30 8753 N 814.433 1.57553 0.0384317 0
M  V30 8754 C 815.363 2.0898 1.04161 0
M  V30 8755 C 816.344 0.99029 1.38301 0
M  V30 8756 O 817.529 1.26499 1.47349 0
M  V30 8757 C 814.659 2.56145 2.34536 0
M  V30 8758 C 813.613 3.70275 2.14663 0
M  V30 8759 C 812.939 4.03612 3.50715 0
M  V30 8760 C 814.239 4.99067 1.54045 0
M  V30 8761 H 815.933 2.93046 0.613548 0
M  V30 8762 H 813.479 1.40973 0.293684 0
M  V30 8763 H 815.432 2.90741 3.05037 0
M  V30 8764 H 814.156 1.6915 2.79385 0
M  V30 8765 H 812.815 3.36013 1.46597 0
M  V30 8766 H 812.463 3.13698 3.93195 0
M  V30 8767 H 812.163 4.80482 3.38247 0
M  V30 8768 H 813.687 4.40735 4.22593 0
M  V30 8769 H 815.101 5.3168 2.14451 0
M  V30 8770 H 813.498 5.80484 1.52178 0
M  V30 8771 H 814.568 4.8226 0.505259 0
M  V30 8772 N 815.911 -0.310526 1.54511 0
M  V30 8773 C 816.844 -1.40693 1.79668 0
M  V30 8774 C 817.822 -1.49159 0.64734 0
M  V30 8775 O 819.006 -1.66367 0.886239 0
M  V30 8776 C 816.133 -2.78685 1.92491 0
M  V30 8777 C 815.179 -2.87688 3.14861 0
M  V30 8778 S 816.012 -2.50759 4.7316 0
M  V30 8779 C 817.168 -3.90797 4.88906 0
M  V30 8780 H 817.401 -1.19142 2.72383 0
M  V30 8781 H 814.934 -0.508103 1.458 0
M  V30 8782 H 816.892 -3.58168 2.00563 0
M  V30 8783 H 815.553 -2.9751 1.00731 0
M  V30 8784 H 814.746 -3.8888 3.20607 0
M  V30 8785 H 814.348 -2.16189 3.05186 0
M  V30 8786 H 816.64 -4.85693 4.72344 0
M  V30 8787 H 817.583 -3.90027 5.91003 0
M  V30 8788 H 817.991 -3.80357 4.1712 0
M  V30 8789 N 817.389 -1.46805 -0.573248 0
M  V30 8790 C 818.635 -1.5283 -1.33307 0
M  V30 8791 C 818.968 -0.183287 -1.93333 0
M  V30 8792 O 818.243 0.806354 -1.76998 0
M  V30 8793 C 818.526 -2.63414 -2.45531 0
M  V30 8794 C 818.379 -4.07478 -1.90478 0
M  V30 8795 C 819.698 -2.70014 -3.47535 0
M  V30 8796 H 816.817 -0.556371 -0.483343 0
M  V30 8797 H 819.459 -1.78787 -0.643066 0
M  V30 8798 H 817.609 -2.41412 -3.04389 0
M  V30 8799 H 819.281 -4.40795 -1.36004 0
M  V30 8800 H 817.524 -4.16511 -1.21248 0
M  V30 8801 H 818.195 -4.80598 -2.71531 0
M  V30 8802 H 820.671 -2.89817 -2.98572 0
M  V30 8803 H 819.547 -3.49192 -4.23504 0
M  V30 8804 H 819.808 -1.76436 -4.05367 0
M  V30 8805 N 818.867 0.818669 -1.34668 0
M  V30 8806 C 820.283 1.11243 -1.14443 0
M  V30 8807 C 820.483 2.01435 0.0512212 0
M  V30 8808 O 819.539 2.41854 0.725471 0
M  V30 8809 C 820.852 1.75504 -2.4417 0
M  V30 8810 C 822.4 1.8798 -2.50265 0
M  V30 8811 C 822.875 2.55657 -3.80004 0
M  V30 8812 N 824.366 2.63153 -3.81189 0
M  V30 8813 C 825.101 3.16258 -4.78298 0
M  V30 8814 N 824.597 3.69893 -5.85791 0
M  V30 8815 N 826.39 3.14698 -4.65748 0
M  V30 8816 H 818.541 0.218848 -2.1127 0
M  V30 8817 H 820.804 0.159655 -0.934459 0
M  V30 8818 H 820.51 1.16697 -3.31775 0
M  V30 8819 H 820.384 2.75329 -2.57825 0
M  V30 8820 H 822.771 2.45934 -1.63096 0
M  V30 8821 H 822.852 0.870447 -2.40535 0
M  V30 8822 H 822.496 1.98356 -4.67565 0
M  V30 8823 H 822.426 3.57105 -3.87019 0
M  V30 8824 H 824.917 2.2514 -3.03513 0
M  V30 8825 H 825.23 4.08678 -6.55898 0
M  V30 8826 H 823.575 3.68125 -5.89499 0
M  V30 8827 H 826.766 2.72066 -3.80917 0
M  V30 8828 H 826.939 3.5578 -5.41594 0
M  V30 8829 N 820.346 1.18468 1.03938 0
M  V30 8830 C 821.595 0.975193 1.76558 0
M  V30 8831 C 821.908 -0.495978 1.89207 0
M  V30 8832 O 823.114 -0.824009 2.58694 0
M  V30 8833 C 821.57 1.69579 3.17444 0
M  V30 8834 C 821.178 3.20636 3.12884 0
M  V30 8835 C 822.922 1.56917 3.94433 0
M  V30 8836 C 820.829 3.8533 4.48636 0
M  V30 8837 H 819.759 0.361244 0.66183 0
M  V30 8838 H 822.41 1.41854 1.16403 0
M  V30 8839 H 820.792 1.18022 3.78004 0
M  V30 8840 H 821.966 3.79228 2.61768 0
M  V30 8841 H 820.281 3.33454 2.49394 0
M  V30 8842 H 822.878 2.02611 4.94826 0
M  V30 8843 H 823.221 0.521638 4.13019 0
M  V30 8844 H 823.754 2.05762 3.40451 0
M  V30 8845 H 820.493 4.90136 4.35255 0
M  V30 8846 H 820.013 3.31526 4.99851 0
M  V30 8847 H 821.692 3.88269 5.17549 0
M  V30 8848 N 821.824 -1.22873 0.986916 0
M  V30 8849 C 822.771 -2.2458 0.532215 0
M  V30 8850 C 823.741 -1.60375 -0.432322 0
M  V30 8851 O 824.926 -1.87775 -0.338416 0
M  V30 8852 C 822.066 -3.44761 -0.152864 0
M  V30 8853 C 821.179 -4.23501 0.852704 0
M  V30 8854 C 820.314 -5.31011 0.14176 0
M  V30 8855 C 819.353 -6.01464 1.1361 0
M  V30 8856 N 818.49 -7.00631 0.453871 0
M  V30 8857 H 823.33 -2.62838 1.40428 0
M  V30 8858 H 820.867 -1.29185 0.703543 0
M  V30 8859 H 822.825 -4.1333 -0.566926 0
M  V30 8860 H 821.455 -3.07284 -0.988756 0
M  V30 8861 H 820.507 -3.54286 1.38512 0
M  V30 8862 H 821.819 -4.72097 1.61014 0
M  V30 8863 H 820.973 -6.05805 -0.329337 0
M  V30 8864 H 819.712 -4.83373 -0.648229 0
M  V30 8865 H 818.717 -5.25456 1.61789 0
M  V30 8866 H 819.942 -6.5119 1.92686 0
M  V30 8867 H 817.888 -6.55235 -0.316791 0
M  V30 8868 H 817.805 -7.47204 1.14986 0
M  V30 8869 H 819.073 -7.795 0.00537823 0
M  V30 8870 N 823.302 -0.75937 -1.38099 0
M  V30 8871 C 824.212 -0.13774 -2.34195 0
M  V30 8872 C 825.228 0.693985 -1.59561 0
M  V30 8873 O 826.404 0.616792 -1.91723 0
M  V30 8874 C 823.469 0.740535 -3.38699 0
M  V30 8875 C 822.53 -0.106225 -4.29169 0
M  V30 8876 C 821.763 0.730225 -5.28681 0
M  V30 8877 O 821.986 1.96796 -5.35376 0
M  V30 8878 O 820.92 0.145969 -6.01723 0
M  V30 8879 H 824.746 -0.931512 -2.89061 0
M  V30 8880 H 822.331 -0.520345 -1.40046 0
M  V30 8881 H 824.213 1.24232 -4.02672 0
M  V30 8882 H 822.888 1.51271 -2.8618 0
M  V30 8883 H 821.795 -0.654088 -3.68337 0
M  V30 8884 H 823.128 -0.841186 -4.84959 0
M  V30 8885 N 824.78 1.49157 -0.508906 0
M  V30 8886 C 825.71 2.32109 0.254469 0
M  V30 8887 C 826.691 1.40754 0.955111 0
M  V30 8888 O 827.876 1.69658 0.944983 0
M  V30 8889 C 825.006 3.21458 1.3146 0
M  V30 8890 C 823.96 4.2167 0.733368 0
M  V30 8891 C 823.286 5.00009 1.8946 0
M  V30 8892 C 824.586 5.21544 -0.280875 0
M  V30 8893 H 826.28 2.9618 -0.43795 0
M  V30 8894 H 823.826 1.4243 -0.212062 0
M  V30 8895 H 825.779 3.78305 1.85643 0
M  V30 8896 H 824.503 2.55346 2.03632 0
M  V30 8897 H 823.162 3.65979 0.213231 0
M  V30 8898 H 822.81 4.30338 2.60419 0
M  V30 8899 H 822.51 5.67821 1.51173 0
M  V30 8900 H 824.034 5.59702 2.44061 0
M  V30 8901 H 825.448 5.73039 0.173095 0
M  V30 8902 H 823.845 5.97291 -0.580006 0
M  V30 8903 H 824.915 4.69969 -1.19404 0
M  V30 8904 N 826.258 0.243083 1.55714 0
M  V30 8905 C 827.19 -0.690766 2.18543 0
M  V30 8906 C 828.203 -1.14163 1.16064 0
M  V30 8907 O 829.392 -1.06906 1.42946 0
M  V30 8908 C 826.492 -1.95016 2.77168 0
M  V30 8909 C 825.665 -1.65137 4.05029 0
M  V30 8910 C 824.724 -2.75998 4.48009 0
M  V30 8911 O 823.75 -2.43547 5.14464 0
M  V30 8912 N 824.952 -4.05414 4.15476 0
M  V30 8913 H 827.717 -0.153203 2.99308 0
M  V30 8914 H 825.278 0.0628968 1.61778 0
M  V30 8915 H 827.27 -2.68414 3.0288 0
M  V30 8916 H 825.84 -2.39762 2.00582 0
M  V30 8917 H 825.06 -0.752768 3.86946 0
M  V30 8918 H 826.348 -1.42633 4.88399 0
M  V30 8919 H 825.746 -4.34613 3.62116 0
M  V30 8920 H 824.303 -4.75288 4.46032 0
M  V30 8921 N 827.736 -1.57571 -0.0300757 0
M  V30 8922 C 829.152 -1.54869 -0.385703 0
M  V30 8923 C 829.352 -0.969068 -1.76667 0
M  V30 8924 O 828.408 -0.589676 -2.45518 0
M  V30 8925 C 829.721 -2.99313 -0.288482 0
M  V30 8926 C 831.269 -3.10857 -0.365638 0
M  V30 8927 C 831.744 -4.5703 -0.297878 0
M  V30 8928 N 833.235 -4.61825 -0.356703 0
M  V30 8929 C 833.97 -5.72466 -0.327146 0
M  V30 8930 N 833.466 -6.92349 -0.249941 0
M  V30 8931 N 835.259 -5.60836 -0.376801 0
M  V30 8932 H 827.41 -1.936 0.87367 0
M  V30 8933 H 829.673 -0.887924 0.332106 0
M  V30 8934 H 829.379 -3.45443 0.66047 0
M  V30 8935 H 829.253 -3.61332 -1.08253 0
M  V30 8936 H 831.64 -2.64676 -1.30502 0
M  V30 8937 H 831.721 -2.51671 0.457744 0
M  V30 8938 H 831.365 -5.03879 0.637835 0
M  V30 8939 H 831.295 -5.14127 -1.13935 0
M  V30 8940 H 833.786 -3.75571 -0.418926 0
M  V30 8941 H 834.099 -7.7245 -0.23246 0
M  V30 8942 H 832.444 -6.94664 -0.216004 0
M  V30 8943 H 835.635 -4.66073 -0.435101 0
M  V30 8944 H 835.808 -6.47052 -0.350298 0
M  V30 8945 N 829.214 0.302327 -1.54673 0
M  V30 8946 C 830.63 0.647911 -1.45857 0
M  V30 8947 C 830.83 1.90773 -0.64869 0
M  V30 8948 O 829.886 2.52018 -0.155865 0
M  V30 8949 C 831.199 0.802144 -2.89804 0
M  V30 8950 C 832.747 0.898114 -2.99838 0
M  V30 8951 C 833.222 1.08436 -4.44978 0
M  V30 8952 N 834.713 1.15059 -4.48682 0
M  V30 8953 C 835.448 1.31296 -5.58166 0
M  V30 8954 N 834.944 1.4444 -6.77576 0
M  V30 8955 N 836.737 1.34174 -5.45851 0
M  V30 8956 H 828.888 -0.525428 -2.05798 0
M  V30 8957 H 831.151 -0.173423 -0.932002 0
M  V30 8958 H 830.857 -0.0526531 -3.51661 0
M  V30 8959 H 830.731 1.69155 -3.37145 0
M  V30 8960 H 833.118 1.7434 -2.38096 0
M  V30 8961 H 833.199 -0.0152752 -2.55795 0
M  V30 8962 H 832.843 0.243843 -5.07314 0
M  V30 8963 H 832.773 2.01195 -4.8665 0
M  V30 8964 H 835.264 1.0626 -3.62653 0
M  V30 8965 H 835.577 1.56582 -7.56771 0
M  V30 8966 H 833.922 1.41499 -6.80443 0
M  V30 8967 H 837.113 1.23516 -4.5151 0
M  V30 8968 H 837.286 1.46485 -6.31226 0
M  V30 8969 N 830.692 1.47107 0.565454 0
M  V30 8970 C 831.622 1.61846 1.68309 0
M  V30 8971 C 832.603 0.468159 1.63531 0
M  V30 8972 O 833.788 0.696504 1.8128 0
M  V30 8973 C 830.918 1.62474 3.06952 0
M  V30 8974 C 829.872 2.76649 3.26572 0
M  V30 8975 C 829.198 2.62345 4.65917 0
M  V30 8976 C 830.498 4.18319 3.12741 0
M  V30 8977 H 832.192 2.55407 1.5623 0
M  V30 8978 H 829.738 1.22916 0.750179 0
M  V30 8979 H 831.691 1.71378 3.84977 0
M  V30 8980 H 830.415 0.654692 3.19971 0
M  V30 8981 H 829.074 2.67242 2.50952 0
M  V30 8982 H 828.722 1.63386 4.75725 0
M  V30 8983 H 828.422 3.38936 4.79996 0
M  V30 8984 H 829.946 2.73165 5.46089 0
M  V30 8985 H 831.36 4.28745 3.80593 0
M  V30 8986 H 829.757 4.95632 3.38333 0
M  V30 8987 H 830.827 4.37263 2.09592 0
M  V30 8988 N 832.17 -0.811516 1.35101 0
M  V30 8989 C 833.447 -1.55491 1.18667 0
M  V30 8990 C 833.827 -2.09775 -0.236189 0
M  V30 8991 O 833.175 -1.91989 -1.23905 0
M  V30 8992 C 833.385 -2.66732 2.25067 0
M  V30 8993 C 834.733 -3.35201 2.60625 0
M  V30 8994 O 835.757 -2.76998 2.23943 0
M  V30 8995 O 834.616 -4.40334 3.23679 0
M  V30 8996 H 831.71 -0.686783 0.460716 0
M  V30 8997 H 834.256 -0.851903 1.46768 0
M  V30 8998 H 833.028 -2.24457 3.20523 0
M  V30 8999 H 832.651 -3.44673 1.98208 0
M  V30 9000 N 833.648 -1.19017 -1.03309 0
M  V30 9001 C 834.58 -0.881847 -2.11556 0
M  V30 9002 C 835.593 0.123711 -1.62329 0
M  V30 9003 O 836.782 -0.105141 -1.7819 0
M  V30 9004 C 833.882 -0.297634 -3.37591 0
M  V30 9005 C 833.055 -1.35072 -4.16022 0
M  V30 9006 C 832.114 -0.780812 -5.20375 0
M  V30 9007 O 831.14 -1.45745 -5.50224 0
M  V30 9008 N 832.342 0.417964 -5.78993 0
M  V30 9009 H 835.107 -1.81359 -2.38598 0
M  V30 9010 H 832.668 -1.0916 -1.19565 0
M  V30 9011 H 834.66 0.097374 -4.04583 0
M  V30 9012 H 833.23 0.538299 -3.0793 0
M  V30 9013 H 832.45 -1.92074 -3.4424 0
M  V30 9014 H 833.738 -2.06044 -4.65213 0
M  V30 9015 H 833.136 0.985281 -5.57054 0
M  V30 9016 H 831.693 0.754802 -6.47415 0
M  V30 9017 N 835.127 1.22348 -0.993418 0
M  V30 9018 C 836.352 1.95666 -0.687727 0
M  V30 9019 C 836.777 1.72883 0.741161 0
M  V30 9020 O 836.135 1.00837 1.50671 0
M  V30 9021 C 836.183 3.46457 -0.99998 0
M  V30 9022 O 835.287 4.12281 -0.0989386 0
M  V30 9023 H 834.628 0.612102 -0.257346 0
M  V30 9024 H 837.158 1.55428 -1.33054 0
M  V30 9025 H 837.168 3.96976 -0.942035 0
M  V30 9026 H 835.843 3.62365 -2.04118 0
M  V30 9027 H 834.42 3.72295 -0.212413 0
M  V30 9028 N 836.605 0.766683 1.37694 0
M  V30 9029 C 837.854 0.325425 1.99057 0
M  V30 9030 C 838.167 -1.10275 1.61551 0
M  V30 9031 O 839.373 -1.64513 2.1598 0
M  V30 9032 C 837.829 0.530886 3.55963 0
M  V30 9033 C 837.437 1.96899 4.02411 0
M  V30 9034 C 839.181 0.152997 4.24224 0
M  V30 9035 C 837.088 2.12232 5.52007 0
M  V30 9036 H 836.018 0.117929 0.744721 0
M  V30 9037 H 838.669 0.945091 1.5729 0
M  V30 9038 H 837.051 -0.158162 3.95684 0
M  V30 9039 H 838.225 2.69258 3.73948 0
M  V30 9040 H 836.54 2.303 3.46916 0
M  V30 9041 H 839.137 0.24614 5.34133 0
M  V30 9042 H 839.48 -0.896096 4.06541 0
M  V30 9043 H 840.013 0.794398 3.89787 0
M  V30 9044 H 836.752 3.15442 5.7461 0
M  V30 9045 H 836.272 1.4435 5.82171 0
M  V30 9046 H 837.951 1.9185 6.17902 0
M  V30 9047 N 838.083 -1.48885 0.516809 0
M  V30 9048 C 839.331 -2.02088 -0.0220166 0
M  V30 9049 C 839.652 -1.39735 -1.36011 0
M  V30 9050 O 838.922 -0.558119 -1.87781 0
M  V30 9051 H 837.502 -0.746917 -0.0111255 0
M  V30 9052 H 840.164 -1.8274 0.677647 0
M  V30 9053 H 839.26 -3.11786 -0.140067 0
M  V30 9054 N 839.561 -0.251338 -1.55583 0
M  V30 9055 C 840.508 0.646337 -2.21565 0
M  V30 9056 C 841.478 1.16796 -1.18102 0
M  V30 9057 O 842.663 1.22162 -1.46564 0
M  V30 9058 C 839.803 1.83557 -2.92234 0
M  V30 9059 C 838.916 1.35006 -4.10363 0
M  V30 9060 C 838.051 2.4992 -4.68736 0
M  V30 9061 C 837.09 1.98253 -5.79105 0
M  V30 9062 N 836.227 3.06551 -6.31642 0
M  V30 9063 H 841.067 0.0769881 -2.97901 0
M  V30 9064 H 838.604 0.026238 -1.47077 0
M  V30 9065 H 840.562 2.53425 -3.31408 0
M  V30 9066 H 839.192 2.37733 -2.18364 0
M  V30 9067 H 838.244 0.545274 -3.76472 0
M  V30 9068 H 839.556 0.931435 -4.90026 0
M  V30 9069 H 838.71 3.27823 -5.10507 0
M  V30 9070 H 837.449 2.95086 -3.88298 0
M  V30 9071 H 836.454 1.18822 -5.36807 0
M  V30 9072 H 837.679 1.54051 -6.61396 0
M  V30 9073 H 835.625 3.51143 -5.54107 0
M  V30 9074 H 835.542 2.69033 -7.06511 0
M  V30 9075 H 836.81 3.84499 -6.78071 0
M  V30 9076 N 841.039 1.57585 0.0217189 0
M  V30 9077 C 842.45 1.7787 0.567377 0
M  V30 9078 C 842.801 0.883337 1.7519 0
M  V30 9079 O 841.926 0.0800819 2.16252 0
M  V30 9080 C 842.521 3.2257 1.03606 0
M  V30 9081 C 841.08 3.44026 1.52718 0
M  V30 9082 C 840.227 2.73313 0.468545 0
M  V30 9083 H 843.178 1.57377 -0.2045 0
M  V30 9084 H 843.199 3.29488 1.9031 0
M  V30 9085 H 842.711 3.87711 0.173739 0
M  V30 9086 H 840.812 2.8407 2.41111 0
M  V30 9087 H 840.925 4.52659 1.56962 0
M  V30 9088 H 839.289 2.37299 0.925263 0
M  V30 9089 H 840.072 3.41141 -0.384438 0
M  V30 9090 N 842.517 -0.29412 1.54831 0
M  V30 9091 C 843.742 -1.05156 1.78765 0
M  V30 9092 C 844.167 -1.79916 0.548809 0
M  V30 9093 O 843.525 -1.74243 -0.500909 0
M  V30 9094 C 843.573 -2.00242 2.99893 0
M  V30 9095 O 842.677 -3.08662 2.73499 0
M  V30 9096 H 842.018 -0.301737 0.591482 0
M  V30 9097 H 844.548 -0.329449 2.0193 0
M  V30 9098 H 844.558 -2.42583 3.28051 0
M  V30 9099 H 843.233 -1.45235 3.89717 0
M  V30 9100 H 841.81 -2.70786 2.56377 0
M  V30 9101 N 843.995 -1.47404 -0.557645 0
M  V30 9102 C 844.925 -1.62736 -1.67449 0
M  V30 9103 C 845.906 -0.476824 -1.6328 0
M  V30 9104 O 847.091 -0.706108 -1.80908 0
M  V30 9105 C 844.221 -1.641 -3.06086 0
M  V30 9106 C 843.175 -2.78377 -3.25101 0
M  V30 9107 C 842.501 -2.64812 -4.6452 0
M  V30 9108 C 843.801 -4.19971 -3.10518 0
M  V30 9109 H 845.495 -2.56232 -1.54873 0
M  V30 9110 H 843.041 -1.23312 -0.743649 0
M  V30 9111 H 844.994 -1.73417 -3.84063 0
M  V30 9112 H 843.718 -0.671652 -3.19619 0
M  V30 9113 H 842.377 -2.6857 -2.49531 0
M  V30 9114 H 842.025 -1.65906 -4.74852 0
M  V30 9115 H 841.725 -3.41477 -4.78191 0
M  V30 9116 H 843.249 -2.76057 -5.44633 0
M  V30 9117 H 844.663 -4.30757 -3.78313 0
M  V30 9118 H 843.06 -4.97419 -3.35699 0
M  V30 9119 H 844.13 -4.38369 -2.0727 0
M  V30 9120 N 845.473 0.80434 -1.35529 0
M  V30 9121 C 846.72 1.56154 -1.28927 0
M  V30 9122 C 847.048 1.94026 0.135682 0
M  V30 9123 O 846.303 1.61759 1.10148 0
M  V30 9124 C 846.602 2.85988 -2.14349 0
M  V30 9125 C 846.268 2.67323 -3.6311 0
M  V30 9126 C 844.93 2.61941 -4.03659 0
M  V30 9127 C 847.282 2.49699 -4.57493 0
M  V30 9128 C 844.61 2.3688 -5.36754 0
M  V30 9129 C 846.962 2.26168 -5.90788 0
M  V30 9130 C 845.626 2.19209 -6.30479 0
M  V30 9131 H 844.896 0.571407 -0.471779 0
M  V30 9132 H 847.543 0.929193 -1.67446 0
M  V30 9133 H 845.848 3.53612 -1.68718 0
M  V30 9134 H 847.545 3.43697 -2.06576 0
M  V30 9135 H 844.135 2.72361 -3.30934 0
M  V30 9136 H 848.319 2.52869 -4.27049 0
M  V30 9137 H 843.575 2.29964 -5.66504 0
M  V30 9138 H 847.749 2.11522 -6.63499 0
M  V30 9139 H 845.376 1.99553 -7.33541 0
M  V30 9140 N 846.951 1.19563 1.02676 0
M  V30 9141 C 848.2 0.993864 1.75514 0
M  V30 9142 C 848.513 -0.475882 1.89723 0
M  V30 9143 O 849.719 -0.796525 2.59553 0
M  V30 9144 C 848.175 1.72937 3.15628 0
M  V30 9145 C 847.783 3.23937 3.09466 0
M  V30 9146 C 849.527 1.61092 3.92746 0
M  V30 9147 C 847.434 3.90067 4.44524 0
M  V30 9148 H 846.364 0.368244 0.657961 0
M  V30 9149 H 849.015 1.43081 1.14891 0
M  V30 9150 H 847.397 1.22025 3.76731 0
M  V30 9151 H 848.571 3.81983 2.57731 0
M  V30 9152 H 846.886 3.3608 2.45843 0
M  V30 9153 H 849.483 2.07848 4.92649 0
M  V30 9154 H 849.826 0.565415 4.12442 0
M  V30 9155 H 850.359 2.09361 3.3825 0
M  V30 9156 H 847.098 4.94725 4.30032 0
M  V30 9157 H 846.618 3.36809 4.96306 0
M  V30 9158 H 848.297 3.93736 5.13401 0
M  V30 9159 N 848.429 -1.21819 0.999893 0
M  V30 9160 C 849.654 -1.95298 0.698094 0
M  V30 9161 C 850.079 -1.73273 -0.731982 0
M  V30 9162 O 849.437 -1.01634 -1.50134 0
M  V30 9163 C 849.485 -3.45922 1.01834 0
M  V30 9164 O 848.589 -4.12223 0.120801 0
M  V30 9165 H 847.93 -0.610729 0.260588 0
M  V30 9166 H 850.46 -1.5472 1.33876 0
M  V30 9167 H 850.47 -3.96471 0.963074 0
M  V30 9168 H 849.145 -3.61278 2.06037 0
M  V30 9169 H 847.722 -3.72177 0.232153 0
M  V30 9170 N 849.908 -0.773975 -1.37286 0
M  V30 9171 C 851.154 -0.339809 -1.99933 0
M  V30 9172 C 851.487 1.0815 -1.61299 0
M  V30 9173 O 850.762 1.74442 -0.860252 0
M  V30 9174 C 851.045 -0.485919 -3.56806 0
M  V30 9175 C 850.898 -1.9498 -4.05343 0
M  V30 9176 C 852.217 0.108461 -4.39966 0
M  V30 9177 H 849.336 -0.124944 -0.726332 0
M  V30 9178 H 851.978 -0.977433 -1.6293 0
M  V30 9179 H 850.128 0.0569023 -3.88458 0
M  V30 9180 H 851.8 -2.5525 -3.84246 0
M  V30 9181 H 850.043 -2.45784 -3.57453 0
M  V30 9182 H 850.714 -2.00308 -5.14374 0
M  V30 9183 H 853.19 -0.354722 -4.14585 0
M  V30 9184 H 852.066 -0.0238926 -5.48895 0
M  V30 9185 H 852.327 1.19901 -4.25531 0
M  V30 9186 N 851.386 1.48609 -0.524698 0
M  V30 9187 C 852.611 2.07398 0.00952139 0
M  V30 9188 C 853.036 1.37939 1.27884 0
M  V30 9189 O 852.394 0.443633 1.75788 0
M  V30 9190 C 852.442 3.59916 0.221956 0
M  V30 9191 O 851.546 3.91647 1.29175 0
M  V30 9192 H 850.887 0.662981 -0.0367729 0
M  V30 9193 H 853.417 1.91092 -0.7311 0
M  V30 9194 H 853.427 4.05552 0.446236 0
M  V30 9195 H 852.102 4.09876 -0.705306 0
M  V30 9196 H 850.679 3.57796 1.05055 0
M  V30 9197 N 852.864 0.259585 1.55447 0
M  V30 9198 C 853.774 -0.645026 2.25558 0
M  V30 9199 C 854.79 -1.18291 1.27606 0
M  V30 9200 O 855.966 -1.21649 1.6051 0
M  V30 9201 C 853.031 -1.81964 2.9511 0
M  V30 9202 C 852.092 -1.31997 4.08504 0
M  V30 9203 C 851.325 -2.43861 4.74729 0
M  V30 9204 O 851.548 -3.62876 4.40088 0
M  V30 9205 O 850.482 -2.12898 5.6299 0
M  V30 9206 H 854.308 -0.0775399 3.03601 0
M  V30 9207 H 851.893 0.0275859 1.49375 0
M  V30 9208 H 853.775 -2.50485 3.38873 0
M  V30 9209 H 852.45 -2.37451 2.19997 0
M  V30 9210 H 851.357 -0.601676 3.6923 0
M  V30 9211 H 852.69 -0.811045 4.85472 0
M  V30 9212 N 854.342 -1.57594 -0.0133615 0
M  V30 9213 C 855.289 -2.07574 -1.00905 0
M  V30 9214 C 856.259 -0.968231 -1.34961 0
M  V30 9215 O 857.444 -1.23981 -1.45028 0
M  V30 9216 C 854.584 -2.5728 -2.30002 0
M  V30 9217 C 853.697 -3.81881 -2.01967 0
M  V30 9218 C 852.832 -4.20139 -3.25049 0
M  V30 9219 C 851.871 -5.37614 -2.92639 0
M  V30 9220 N 851.008 -5.71229 -4.08218 0
M  V30 9221 H 855.848 -2.92382 -0.575899 0
M  V30 9222 H 853.385 -1.4455 -0.272722 0
M  V30 9223 H 855.343 -2.84171 -3.05454 0
M  V30 9224 H 853.973 -1.75365 -2.71011 0
M  V30 9225 H 853.025 -3.61979 -1.16942 0
M  V30 9226 H 854.337 -4.67441 -1.74069 0
M  V30 9227 H 853.491 -4.48242 -4.08857 0
M  V30 9228 H 852.23 -3.33262 -3.56073 0
M  V30 9229 H 851.235 -5.09248 -2.07235 0
M  V30 9230 H 852.46 -6.26157 -2.62876 0
M  V30 9231 H 850.406 -4.8731 -4.39164 0
M  V30 9232 H 850.323 -6.51333 -3.83799 0
M  V30 9233 H 851.591 -6.03917 -4.92854 0
M  V30 9234 N 855.82 0.285905 -1.54985 0
M  V30 9235 C 857.045 1.04207 -1.7932 0
M  V30 9236 C 857.47 1.79622 -0.558343 0
M  V30 9237 O 856.828 1.74506 0.491661 0
M  V30 9238 C 856.876 1.98648 -3.0095 0
M  V30 9239 O 855.98 3.07207 -2.75132 0
M  V30 9240 H 855.321 0.298596 -0.593074 0
M  V30 9241 H 857.851 0.318736 -2.02102 0
M  V30 9242 H 857.861 2.4084 -3.29333 0
M  V30 9243 H 856.536 1.43167 -3.90482 0
M  V30 9244 H 855.113 2.69423 -2.57809 0
M  V30 9245 N 857.298 1.47698 0.54982 0
M  V30 9246 C 858.245 1.60739 1.65625 0
M  V30 9247 C 859.215 0.450129 1.59884 0
M  V30 9248 O 860.4 0.671123 1.78607 0
M  V30 9249 C 857.54 1.63457 3.03934 0
M  V30 9250 C 856.653 2.90152 3.20056 0
M  V30 9251 C 855.788 2.84157 4.48807 0
M  V30 9252 C 854.827 4.05644 4.58387 0
M  V30 9253 N 853.964 3.97843 5.78503 0
M  V30 9254 H 858.804 2.55234 1.53817 0
M  V30 9255 H 856.341 1.26593 0.749173 0
M  V30 9256 H 858.299 1.63015 3.84034 0
M  V30 9257 H 856.929 0.724689 3.1456 0
M  V30 9258 H 855.981 3.00428 2.33339 0
M  V30 9259 H 857.293 3.80097 3.22998 0
M  V30 9260 H 856.447 2.82006 5.37175 0
M  V30 9261 H 855.186 1.91908 4.48356 0
M  V30 9262 H 854.191 4.08092 3.6843 0
M  V30 9263 H 855.416 4.9903 4.60593 0
M  V30 9264 H 853.362 3.08401 5.78986 0
M  V30 9265 H 853.279 4.81473 5.82855 0
M  V30 9266 H 854.547 3.99719 6.69212 0
M  V30 9267 N 858.776 -0.797141 1.35954 0
M  V30 9268 C 860.053 -1.54224 1.2031 0
M  V30 9269 C 860.433 -2.10013 -0.213926 0
M  V30 9270 O 859.781 -1.93292 -1.21862 0
M  V30 9271 C 859.991 -2.6433 2.27883 0
M  V30 9272 C 861.339 -3.32418 2.64165 0
M  V30 9273 O 862.363 -2.74607 2.26868 0
M  V30 9274 O 861.222 -4.36876 3.28331 0
M  V30 9275 H 858.316 -0.681857 0.467974 0
M  V30 9276 H 860.862 -0.836288 1.47663 0
M  V30 9277 H 859.634 -2.21044 3.22885 0
M  V30 9278 H 859.257 -3.42551 2.01853 0
M  V30 9279 N 860.254 -1.20106 -1.0204 0
M  V30 9280 C 861.67 -0.955099 -1.27867 0
M  V30 9281 C 861.87 0.367595 -1.98119 0
M  V30 9282 O 860.926 1.09705 -2.27423 0
M  V30 9283 C 862.239 -2.13507 -2.11744 0
M  V30 9284 C 863.787 -2.17563 -2.25023 0
M  V30 9285 C 864.262 -3.35035 -3.12275 0
M  V30 9286 N 865.753 -3.35024 -3.19864 0
M  V30 9287 C 866.488 -4.22566 -3.8759 0
M  V30 9288 N 865.984 -5.20278 -4.57474 0
M  V30 9289 N 867.777 -4.10418 -3.84075 0
M  V30 9290 H 859.928 -2.05193 -0.54861 0
M  V30 9291 H 862.191 -0.897689 -0.304728 0
M  V30 9292 H 861.897 -3.09275 -1.67456 0
M  V30 9293 H 861.771 -2.11281 -3.12474 0
M  V30 9294 H 864.158 -1.22359 -2.68537 0
M  V30 9295 H 864.239 -2.23838 -1.23815 0
M  V30 9296 H 863.883 -4.30522 -2.69468 0
M  V30 9297 H 863.813 -3.25996 -4.13563 0
M  V30 9298 H 866.304 -2.64299 -2.701 0
M  V30 9299 H 866.617 -5.83408 -5.06809 0
M  V30 9300 H 864.962 -5.24219 -4.56311 0
M  V30 9301 H 868.153 -3.33353 -3.28623 0
M  V30 9302 H 868.326 -4.78854 -4.36581 0
M  V30 9303 N 861.732 1.21287 -1.00634 0
M  V30 9304 C 862.98 1.90013 -0.688438 0
M  V30 9305 C 863.301 1.78573 0.783365 0
M  V30 9306 O 862.571 1.1815 1.56261 0
M  V30 9307 H 861.151 0.703336 -0.251648 0
M  V30 9308 H 863.813 1.47346 -1.27574 0
M  V30 9309 H 862.909 2.96879 -0.962781 0
M  V30 9310 N 863.21 0.781244 1.36873 0
M  V30 9311 C 864.435 0.360398 2.04245 0
M  V30 9312 C 864.86 -1.01242 1.58529 0
M  V30 9313 O 864.218 -1.65063 0.749936 0
M  V30 9314 C 864.266 0.42329 3.58107 0
M  V30 9315 O 863.37 -0.572796 4.08403 0
M  V30 9316 H 862.711 0.154386 0.645803 0
M  V30 9317 H 865.241 1.06008 1.74996 0
M  V30 9318 H 865.251 0.283967 4.07011 0
M  V30 9319 H 863.926 1.42477 3.90734 0
M  V30 9320 H 862.503 -0.395809 3.70793 0
M  V30 9321 N 864.689 -1.48329 0.532571 0
M  V30 9322 C 865.637 -2.31336 -0.242133 0
M  V30 9323 C 866.631 -1.41391 -0.933006 0
M  V30 9324 O 867.837 -1.58284 -0.857096 0
M  V30 9325 H 864.212 -0.745724 -0.0969536 0
M  V30 9326 H 866.183 -2.94555 0.477504 0
M  V30 9327 C 864.932 -3.23501 -1.27446 0
M  V30 9328 H 864.255 -3.92659 -0.752261 0
M  V30 9329 H 865.695 -3.84461 -1.78789 0
M  V30 9330 C 864.154 -2.45288 -2.30944 0
M  V30 9331 O 864.684 -2.17955 -3.37429 0
M  V30 9332 N 862.89 -2.06737 -2.04226 0
M  V30 9333 H 862.437 -2.29166 -1.17647 0
M  V30 9334 H 862.395 -1.54719 -2.73696 0
M  V30 9335 N 866.167 -0.267825 -1.55308 0
M  V30 9336 C 867.395 0.354587 -2.03839 0
M  V30 9337 C 867.81 1.50007 -1.14644 0
M  V30 9338 O 867.167 1.81752 -0.165055 0
M  V30 9339 C 867.218 0.84254 -3.51544 0
M  V30 9340 O 866.939 -0.257318 -4.37344 0
M  V30 9341 C 868.44 1.53351 -4.15931 0
M  V30 9342 H 865.66 0.0818131 -0.665994 0
M  V30 9343 H 868.204 -0.397795 -2.00594 0
M  V30 9344 H 866.359 1.54503 -3.55257 0
M  V30 9345 H 866.773 0.116593 -5.2437 0
M  V30 9346 H 868.247 1.82643 -5.20908 0
M  V30 9347 H 868.724 2.4626 -3.63666 0
M  V30 9348 H 869.33 0.87506 -4.162 0
M  V30 9349 N 867.645 1.57599 0.00500368 0
M  V30 9350 C 868.894 1.89528 0.690061 0
M  V30 9351 C 869.207 0.869451 1.75214 0
M  V30 9352 O 870.413 1.07879 2.49147 0
M  V30 9353 C 868.869 3.36425 1.27852 0
M  V30 9354 C 868.477 4.47293 0.251531 0
M  V30 9355 C 870.221 3.77471 1.94206 0
M  V30 9356 C 868.128 5.85264 0.8497 0
M  V30 9357 H 867.058 0.707201 0.2615 0
M  V30 9358 H 869.709 1.83418 -0.0547209 0
M  V30 9359 H 868.091 3.37356 2.07381 0
M  V30 9360 H 869.265 4.5787 -0.518796 0
M  V30 9361 H 867.58 4.15235 -0.311281 0
M  V30 9362 H 870.177 4.77884 2.39855 0
M  V30 9363 H 870.52 3.10722 2.77051 0
M  V30 9364 H 871.053 3.78817 1.21419 0
M  V30 9365 H 867.792 6.55472 0.0601408 0
M  V30 9366 H 867.312 5.78361 1.5893 0
M  V30 9367 H 868.991 6.32762 1.34984 0
M  V30 9368 N 869.123 -0.277682 1.55134 0
M  V30 9369 C 870.371 -1.00791 1.75173 0
M  V30 9370 C 870.692 -1.86987 0.553266 0
M  V30 9371 O 869.962 -1.91079 -0.43195 0
M  V30 9372 H 868.542 -0.375129 0.645978 0
M  V30 9373 H 871.204 -0.303041 1.9253 0
M  V30 9374 H 870.3 -1.64756 2.6507 0
M  V30 9375 N 870.601 -1.47988 -0.541979 0
M  V30 9376 C 871.564 -1.61148 -1.62984 0
M  V30 9377 C 872.564 -0.48553 -1.53295 0
M  V30 9378 O 873.754 -0.751012 -1.5718 0
M  V30 9379 C 870.886 -1.57038 -3.02576 0
M  V30 9380 H 872.079 -2.58138 -1.52659 0
M  V30 9381 H 869.632 -1.36405 -0.763106 0
M  V30 9382 H 870.367 -0.614807 -3.18419 0
M  V30 9383 H 870.152 -2.38769 -3.11018 0
M  V30 9384 H 871.642 -1.69416 -3.81691 0
M  V30 9385 N 872.079 0.78992 -1.36375 0
M  V30 9386 C 873.495 1.0879 -1.16777 0
M  V30 9387 C 873.695 2.01498 0.00848236 0
M  V30 9388 O 872.751 2.43338 0.674007 0
M  V30 9389 C 874.064 1.70285 -2.47837 0
M  V30 9390 C 875.612 1.82629 -2.54196 0
M  V30 9391 C 876.087 2.47539 -3.85342 0
M  V30 9392 N 877.578 2.55008 -3.86685 0
M  V30 9393 C 878.313 3.06041 -4.84898 0
M  V30 9394 N 877.809 3.57385 -5.93505 0
M  V30 9395 N 879.602 3.04748 -4.72319 0
M  V30 9396 H 871.753 0.173985 -2.11686 0
M  V30 9397 H 874.016 0.139798 -0.937636 0
M  V30 9398 H 873.722 1.09633 -3.34176 0
M  V30 9399 H 873.596 2.69799 -2.63607 0
M  V30 9400 H 875.983 2.42419 -1.68276 0
M  V30 9401 H 876.064 0.81923 -2.42327 0
M  V30 9402 H 875.708 1.88393 -4.71668 0
M  V30 9403 H 875.638 3.48815 -3.94507 0
M  V30 9404 H 878.129 2.18651 -3.08221 0
M  V30 9405 H 878.442 3.94674 -6.64419 0
M  V30 9406 H 876.787 3.55538 -5.97175 0
M  V30 9407 H 879.978 2.63925 -3.86602 0
M  V30 9408 H 880.151 3.44212 -5.49019 0
M  V30 9409 N 873.557 1.20646 1.01402 0
M  V30 9410 C 874.487 0.98155 2.11867 0
M  V30 9411 C 875.468 -0.0903712 1.6986 0
M  V30 9412 O 876.653 0.0676586 1.94082 0
M  V30 9413 C 873.783 0.535636 3.43145 0
M  V30 9414 C 872.737 1.55109 3.98905 0
M  V30 9415 C 872.063 0.961725 5.2598 0
M  V30 9416 C 873.363 2.93552 4.32001 0
M  V30 9417 H 875.057 1.90544 2.3094 0
M  V30 9418 H 872.603 0.917554 1.10982 0
M  V30 9419 H 874.556 0.365512 4.19812 0
M  V30 9420 H 873.28 -0.423882 3.23838 0
M  V30 9421 H 871.939 1.70862 3.24348 0
M  V30 9422 H 871.587 -0.00580108 5.03 0
M  V30 9423 H 871.287 1.63993 5.64252 0
M  V30 9424 H 872.811 0.802726 6.053 0
M  V30 9425 H 874.225 2.81295 4.99546 0
M  V30 9426 H 872.622 3.58303 4.81393 0
M  V30 9427 H 873.692 3.4508 3.40658 0
M  V30 9428 N 875.035 -1.20752 1.01276 0
M  V30 9429 C 875.983 -2.25432 0.572989 0
M  V30 9430 C 876.977 -1.64935 -0.386354 0
M  V30 9431 O 878.183 -1.7816 -0.256696 0
M  V30 9432 H 874.558 -0.733229 0.166972 0
M  V30 9433 H 876.529 -2.59856 1.46687 0
M  V30 9434 C 875.278 -3.47615 -0.0768249 0
M  V30 9435 H 874.601 -3.94442 0.652354 0
M  V30 9436 H 876.041 -4.22572 -0.3477 0
M  V30 9437 C 874.5 -3.1003 -1.31845 0
M  V30 9438 O 875.03 -3.21216 -2.41211 0
M  V30 9439 N 873.236 -2.64616 -1.20111 0
M  V30 9440 H 872.783 -2.55714 -0.311184 0
M  V30 9441 H 872.741 -2.39838 -2.03286 0
M  V30 9442 N 876.513 -0.788492 -1.36457 0
M  V30 9443 C 877.929 -0.470063 -1.52521 0
M  V30 9444 C 878.129 1.01176 -1.74258 0
M  V30 9445 O 877.185 1.79726 -1.77355 0
M  V30 9446 C 878.498 -1.2997 -2.71161 0
M  V30 9447 C 880.046 -1.2933 -2.85031 0
M  V30 9448 C 880.521 -2.10665 -4.06674 0
M  V30 9449 N 882.012 -2.08107 -4.13819 0
M  V30 9450 C 882.747 -2.6781 -5.07016 0
M  V30 9451 N 882.243 -3.36369 -6.05663 0
M  V30 9452 N 884.036 -2.57549 -4.99625 0
M  V30 9453 H 876.187 -1.7484 -1.20602 0
M  V30 9454 H 878.45 -0.743159 -0.588574 0
M  V30 9455 H 878.156 -2.35051 -2.61618 0
M  V30 9456 H 878.03 -0.940367 -3.6529 0
M  V30 9457 H 880.417 -0.250414 -2.94036 0
M  V30 9458 H 880.498 -1.69239 -1.91812 0
M  V30 9459 H 880.142 -3.14984 -3.98431 0
M  V30 9460 H 880.072 -1.68128 -4.9904 0
M  V30 9461 H 882.563 -1.58208 -3.43189 0
M  V30 9462 H 882.876 -3.79258 -6.73338 0
M  V30 9463 H 881.221 -3.40471 -6.05891 0
M  V30 9464 H 884.412 -2.0359 -4.21508 0
M  V30 9465 H 884.585 -3.0437 -5.72069 0
M  V30 9466 N 877.991 1.48044 -0.54043 0
M  V30 9467 C 879.237 2.02797 -0.0101718 0
M  V30 9468 C 879.57 1.41565 1.32939 0
M  V30 9469 O 878.845 0.565139 1.86109 0
M  V30 9470 C 879.128 3.59959 0.100758 0
M  V30 9471 C 878.981 4.31654 -1.26471 0
M  V30 9472 C 880.3 4.32347 0.822455 0
M  V30 9473 H 877.419 0.736982 -0.00517052 0
M  V30 9474 H 880.061 1.76656 -0.69948 0
M  V30 9475 H 878.211 3.82363 0.687824 0
M  V30 9476 H 879.883 4.20639 -1.89369 0
M  V30 9477 H 878.126 3.92663 -1.84386 0
M  V30 9478 H 878.797 5.401 -1.13998 0
M  V30 9479 H 881.273 4.14835 0.324164 0
M  V30 9480 H 880.149 5.41978 0.868993 0
M  V30 9481 H 880.41 4.00369 1.87501 0
M  V30 9482 N 879.47 0.276058 1.55163 0
M  V30 9483 C 880.38 -0.621066 2.2623 0
M  V30 9484 C 881.396 -1.16931 1.28853 0
M  V30 9485 O 882.572 -1.1994 1.61791 0
M  V30 9486 C 879.637 -1.78824 2.97023 0
M  V30 9487 C 878.698 -1.27657 4.09881 0
M  V30 9488 C 877.931 -2.38812 4.77289 0
M  V30 9489 O 878.154 -3.58188 4.43912 0
M  V30 9490 O 877.088 -2.06915 5.65217 0
M  V30 9491 H 880.914 -0.0453346 3.03666 0
M  V30 9492 H 878.499 0.0434275 1.49337 0
M  V30 9493 H 880.381 -2.46877 3.41511 0
M  V30 9494 H 879.056 -2.35104 2.22503 0
M  V30 9495 H 877.963 -0.56248 3.69847 0
M  V30 9496 H 879.296 -0.759509 4.86305 0
M  V30 9497 N 880.948 -1.576 0.00335426 0
M  V30 9498 C 882.225 -1.81945 -0.718015 0
M  V30 9499 C 882.605 -0.881788 -1.91801 0
M  V30 9500 O 881.953 0.0687118 -2.28397 0
M  V30 9501 C 882.163 -3.30521 -1.12058 0
M  V30 9502 C 883.511 -3.96345 -1.52303 0
M  V30 9503 O 884.535 -3.34864 -1.21428 0
M  V30 9504 O 883.394 -5.04655 -2.09728 0
M  V30 9505 H 880.488 -0.749328 -0.34991 0
M  V30 9506 H 883.034 -1.69675 0.0290654 0
M  V30 9507 H 881.806 -3.90399 -0.265378 0
M  V30 9508 H 881.429 -3.47802 -1.92665 0
M  V30 9509 N 882.426 0.269451 -1.5528 0
M  V30 9510 C 883.373 1.33316 -1.88403 0
M  V30 9511 C 884.343 1.48909 -0.735881 0
M  V30 9512 O 885.528 1.63259 -0.987479 0
M  V30 9513 C 882.668 2.68778 -2.16454 0
M  V30 9514 C 881.781 2.61377 -3.43956 0
M  V30 9515 C 880.916 3.89042 -3.6169 0
M  V30 9516 C 879.955 3.76166 -4.82872 0
M  V30 9517 N 879.092 4.95673 -4.97245 0
M  V30 9518 H 883.932 1.04368 -2.79126 0
M  V30 9519 H 881.469 0.504147 -1.38191 0
M  V30 9520 H 883.427 3.47599 -2.30719 0
M  V30 9521 H 882.057 2.9592 -1.28961 0
M  V30 9522 H 881.109 1.74247 -3.38145 0
M  V30 9523 H 882.421 2.47764 -4.32914 0
M  V30 9524 H 881.575 4.76304 -3.75791 0
M  V30 9525 H 880.314 4.05526 -2.70924 0
M  V30 9526 H 879.319 2.87287 -4.68771 0
M  V30 9527 H 880.544 3.61198 -5.75077 0
M  V30 9528 H 878.49 5.12561 -4.09411 0
M  V30 9529 H 878.407 4.84605 -5.80254 0
M  V30 9530 H 879.675 5.84498 -5.15735 0
M  V30 9531 N 883.904 1.48273 0.534124 0
M  V30 9532 C 885.15 1.56311 1.29208 0
M  V30 9533 C 885.483 0.234481 1.92779 0
M  V30 9534 O 884.758 -0.759143 1.79073 0
M  V30 9535 C 885.041 2.69831 2.3846 0
M  V30 9536 C 884.894 4.12385 1.79608 0
M  V30 9537 C 886.213 2.79133 3.40254 0
M  V30 9538 H 883.332 0.56899 0.468422 0
M  V30 9539 H 885.974 1.80429 0.595438 0
M  V30 9540 H 884.124 2.49397 2.97881 0
M  V30 9541 H 885.796 4.44246 1.24269 0
M  V30 9542 H 884.039 4.19579 1.10162 0
M  V30 9543 H 884.71 4.87629 2.58693 0
M  V30 9544 H 887.186 2.97632 2.90783 0
M  V30 9545 H 886.062 3.60298 4.14097 0
M  V30 9546 H 886.323 1.87122 4.00547 0
M  V30 9547 N 885.382 -0.782676 1.36792 0
M  V30 9548 C 886.61 -1.57162 1.34565 0
M  V30 9549 C 887.025 -1.88664 -0.0715501 0
M  V30 9550 O 886.382 -1.50633 -1.03033 0
M  V30 9551 C 886.433 -2.88854 2.1736 0
M  V30 9552 O 886.154 -2.58707 3.53557 0
M  V30 9553 C 887.655 -3.83132 2.2299 0
M  V30 9554 H 884.875 -0.487245 0.461338 0
M  V30 9555 H 887.419 -0.970905 1.79982 0
M  V30 9556 H 885.574 -3.45377 1.7548 0
M  V30 9557 H 885.988 -3.42961 3.96835 0
M  V30 9558 H 887.462 -4.72575 2.85266 0
M  V30 9559 H 887.939 -4.21472 1.23524 0
M  V30 9560 H 888.545 -3.32541 2.65135 0
M  V30 9561 N 886.86 -1.21182 -1.00761 0
M  V30 9562 C 887.792 -0.926523 -2.09638 0
M  V30 9563 C 888.805 0.0892511 -1.62555 0
M  V30 9564 O 889.994 -0.142915 -1.77927 0
M  V30 9565 C 887.094 -0.369175 -3.36883 0
M  V30 9566 C 886.267 -1.43866 -4.13063 0
M  V30 9567 C 885.326 -0.891015 -5.18601 0
M  V30 9568 O 884.352 -1.57384 -5.47009 0
M  V30 9569 N 885.554 0.295057 -5.7975 0
M  V30 9570 H 888.319 -1.8638 -2.34697 0
M  V30 9571 H 885.88 -1.11671 -1.17223 0
M  V30 9572 H 887.872 0.011534 -4.04698 0
M  V30 9573 H 886.442 0.472861 -3.09003 0
M  V30 9574 H 885.662 -1.99332 -3.40089 0
M  V30 9575 H 886.95 -2.15866 -4.60738 0
M  V30 9576 H 886.348 0.8669 -5.59018 0
M  V30 9577 H 884.905 0.617306 -6.4887 0
M  V30 9578 N 888.338 1.20213 -1.01915 0
M  V30 9579 C 889.268 2.25336 -0.612023 0
M  V30 9580 C 890.249 1.65933 0.374186 0
M  V30 9581 O 891.434 1.92464 0.259053 0
M  V30 9582 C 888.564 3.47267 0.047904 0
M  V30 9583 C 887.518 4.1928 -0.859557 0
M  V30 9584 C 886.844 5.3466 -0.0652655 0
M  V30 9585 C 888.144 4.75143 -2.1688 0
M  V30 9586 H 889.838 2.59645 -1.49079 0
M  V30 9587 H 887.384 1.24808 -0.718263 0
M  V30 9588 H 889.337 4.19991 0.344294 0
M  V30 9589 H 888.061 3.12129 0.961404 0
M  V30 9590 H 886.72 3.48425 -1.13999 0
M  V30 9591 H 886.368 4.95767 0.849964 0
M  V30 9592 H 886.068 5.83772 -0.669618 0
M  V30 9593 H 887.592 6.10187 0.224612 0
M  V30 9594 H 889.006 5.39672 -1.9346 0
M  V30 9595 H 887.403 5.34702 -2.72422 0
M  V30 9596 H 888.473 3.93744 -2.83008 0
M  V30 9597 N 889.816 0.795718 1.36037 0
M  V30 9598 C 891.093 0.294743 1.93367 0
M  V30 9599 C 891.473 -1.21406 1.72696 0
M  V30 9600 O 890.821 -2.00849 1.08959 0
M  V30 9601 C 891.031 0.694254 3.42025 0
M  V30 9602 C 892.379 0.677566 4.19159 0
M  V30 9603 O 893.403 0.635119 3.50492 0
M  V30 9604 O 892.262 0.726127 5.41655 0
M  V30 9605 H 889.356 0.0745459 0.823633 0
M  V30 9606 H 891.902 0.878685 1.4518 0
M  V30 9607 H 890.674 1.73458 3.50753 0
M  V30 9608 H 890.297 0.0845338 3.9751 0
M  V30 9609 N 891.294 -1.47756 0.548274 0
M  V30 9610 C 892.226 -2.27921 -0.24177 0
M  V30 9611 C 893.239 -1.36471 -0.887658 0
M  V30 9612 O 894.428 -1.6137 -0.763016 0
M  V30 9613 C 891.528 -3.10449 -1.35922 0
M  V30 9614 C 890.701 -4.298 -0.811808 0
M  V30 9615 C 889.76 -4.93994 -1.81264 0
M  V30 9616 O 888.786 -5.52657 -1.3623 0
M  V30 9617 N 889.988 -4.87882 -3.14566 0
M  V30 9618 H 892.753 -2.96365 0.445848 0
M  V30 9619 H 890.314 -1.57286 0.383769 0
M  V30 9620 H 892.306 -3.50261 -2.02729 0
M  V30 9621 H 890.876 -2.44306 -1.95021 0
M  V30 9622 H 890.096 -3.94186 0.0327929 0
M  V30 9623 H 891.384 -5.0702 -0.425272 0
M  V30 9624 H 890.782 -4.41405 -3.53805 0
M  V30 9625 H 889.339 -5.3174 -3.76956 0
M  V30 9626 N 892.772 -0.284283 -1.55015 0
M  V30 9627 C 894.188 0.069603 -1.59448 0
M  V30 9628 C 894.388 1.53833 -1.30144 0
M  V30 9629 O 893.444 2.2886 -1.06674 0
M  V30 9630 C 894.757 -0.313287 -2.99064 0
M  V30 9631 C 896.305 -0.260662 -3.11913 0
M  V30 9632 C 896.78 -0.618127 -4.5381 0
M  V30 9633 N 898.271 -0.570026 -4.59679 0
M  V30 9634 C 899.006 -0.8193 -5.67517 0
M  V30 9635 N 898.502 -1.13367 -6.83462 0
M  V30 9636 N 900.295 -0.747482 -5.57108 0
M  V30 9637 H 892.446 -1.24167 -1.72326 0
M  V30 9638 H 894.709 -0.502259 -0.804015 0
M  V30 9639 H 894.415 -1.33509 -3.25374 0
M  V30 9640 H 894.289 0.341369 -3.75652 0
M  V30 9641 H 896.676 0.751869 -2.85361 0
M  V30 9642 H 896.757 -0.949706 -2.37517 0
M  V30 9643 H 896.401 -1.62839 -4.81088 0
M  V30 9644 H 896.331 0.092807 -5.26518 0
M  V30 9645 H 898.822 -0.3373 -3.76392 0
M  V30 9646 H 899.135 -1.3103 -7.61611 0
M  V30 9647 H 897.48 -1.17154 -6.85055 0
M  V30 9648 H 900.671 -0.501658 -4.65404 0
M  V30 9649 H 900.844 -0.945128 -6.4107 0
M  V30 9650 N 894.251 1.57596 -0.0117121 0
M  V30 9651 C 895.181 2.12188 0.9746 0
M  V30 9652 C 896.162 1.03379 1.35081 0
M  V30 9653 O 897.347 1.31123 1.4325 0
M  V30 9654 C 894.477 2.63477 2.26268 0
M  V30 9655 C 893.431 3.76917 2.02774 0
M  V30 9656 C 892.757 4.14566 3.37697 0
M  V30 9657 C 894.057 5.03715 1.38089 0
M  V30 9658 H 895.751 2.9485 0.520007 0
M  V30 9659 H 893.297 1.41836 0.248685 0
M  V30 9660 H 895.25 3.00299 2.95633 0
M  V30 9661 H 893.974 1.77953 2.73862 0
M  V30 9662 H 892.633 3.40507 1.35832 0
M  V30 9663 H 892.281 3.26048 3.83016 0
M  V30 9664 H 891.981 4.91 3.22789 0
M  V30 9665 H 893.505 4.53956 4.08358 0
M  V30 9666 H 894.919 5.38233 1.97428 0
M  V30 9667 H 893.316 5.85032 1.33634 0
M  V30 9668 H 894.386 4.83624 0.351575 0
M  V30 9669 N 895.729 -0.261212 1.5542 0
M  V30 9670 C 896.692 -1.30645 1.8832 0
M  V30 9671 C 897.692 -1.41782 0.758588 0
M  V30 9672 O 898.882 -1.40729 1.02669 0
M  V30 9673 C 896.014 -2.6862 2.09895 0
M  V30 9674 H 897.207 -1.02698 2.81768 0
M  V30 9675 H 894.76 -0.499838 1.48092 0
M  V30 9676 H 895.495 -3.0173 1.18868 0
M  V30 9677 H 895.28 -2.61921 2.91787 0
M  V30 9678 H 896.77 -3.44121 2.36581 0
M  V30 9679 N 897.207 -1.48554 -0.526253 0
M  V30 9680 C 898.137 -1.66252 -1.63959 0
M  V30 9681 C 899.118 -0.511351 -1.62232 0
M  V30 9682 O 900.303 -0.744322 -1.7937 0
M  V30 9683 C 897.433 -1.70556 -3.02536 0
M  V30 9684 C 896.387 -2.8521 -3.19123 0
M  V30 9685 C 895.713 -2.74606 -4.58798 0
M  V30 9686 C 897.013 -4.26463 -3.0154 0
M  V30 9687 H 898.707 -2.59459 -1.49404 0
M  V30 9688 H 896.253 -1.24862 -0.717326 0
M  V30 9689 H 898.206 -1.81524 -3.80298 0
M  V30 9690 H 896.93 -0.739297 -3.18123 0
M  V30 9691 H 895.589 -2.73802 -2.43779 0
M  V30 9692 H 895.237 -1.75941 -4.71226 0
M  V30 9693 H 894.937 -3.51544 -4.70841 0
M  V30 9694 H 896.461 -2.87548 -5.38655 0
M  V30 9695 H 897.875 -4.38685 -3.69091 0
M  V30 9696 H 896.272 -5.04428 -3.25073 0
M  V30 9697 H 897.342 -4.42667 -1.97925 0
M  V30 9698 N 898.685 0.775411 -1.37205 0
M  V30 9699 C 899.934 1.52909 -1.31536 0
M  V30 9700 C 900.247 1.9535 0.0989374 0
M  V30 9701 O 901.453 2.70072 0.278079 0
M  V30 9702 C 899.909 2.761 -2.30861 0
M  V30 9703 C 899.517 2.40773 -3.77799 0
M  V30 9704 C 901.261 3.54052 -2.34195 0
M  V30 9705 C 899.168 3.60444 -4.68865 0
M  V30 9706 H 898.098 0.574061 -0.488845 0
M  V30 9707 H 900.749 0.849642 -1.62645 0
M  V30 9708 H 899.131 3.45916 -1.92764 0
M  V30 9709 H 900.305 1.78764 -4.24712 0
M  V30 9710 H 898.62 1.76004 -3.77375 0
M  V30 9711 H 901.217 4.42992 -2.99437 0
M  V30 9712 H 901.56 3.93649 -1.35449 0
M  V30 9713 H 902.093 2.91229 -2.7098 0
M  V30 9714 H 898.832 3.25932 -5.68725 0
M  V30 9715 H 898.352 4.21571 -4.26659 0
M  V30 9716 H 900.031 4.27302 -4.85821 0
M  V30 9717 N 900.163 1.21714 1.00117 0
M  V30 9718 C 901.391 1.06278 1.77518 0
M  V30 9719 C 901.806 -0.387193 1.84787 0
M  V30 9720 O 901.163 -1.26854 1.31203 0
M  V30 9721 C 901.214 1.65795 3.21239 0
M  V30 9722 O 900.935 3.05119 3.14378 0
M  V30 9723 C 902.436 1.55521 4.15124 0
M  V30 9724 H 899.656 0.373013 0.557765 0
M  V30 9725 H 902.2 1.61133 1.25922 0
M  V30 9726 H 900.355 1.15022 3.69931 0
M  V30 9727 H 900.769 3.33643 4.04701 0
M  V30 9728 H 902.243 2.01902 5.13751 0
M  V30 9729 H 902.72 0.510307 4.36225 0
M  V30 9730 H 903.326 2.0556 3.72324 0
M  V30 9731 N 901.641 -1.19671 1.02551 0
M  V30 9732 C 902.918 -1.85014 0.634771 0
M  V30 9733 C 903.298 -1.91574 -0.886706 0
M  V30 9734 O 902.646 -1.43022 -1.78205 0
M  V30 9735 C 902.856 -3.24167 1.29292 0
M  V30 9736 C 904.204 -4.00363 1.41402 0
M  V30 9737 O 905.228 -3.33553 1.24983 0
M  V30 9738 O 904.087 -5.2003 1.6802 0
M  V30 9739 H 901.181 -0.797147 0.220196 0
M  V30 9740 H 903.727 -1.27188 1.12345 0
M  V30 9741 H 902.499 -3.14208 2.33215 0
M  V30 9742 H 902.122 -3.89634 0.791895 0
M  V30 9743 N 903.119 -0.802921 -1.35613 0
M  V30 9744 C 904.052 -0.156345 -2.27664 0
M  V30 9745 C 905.03 0.675517 -1.47904 0
M  V30 9746 O 906.214 0.643589 -1.77173 0
M  V30 9747 C 903.341 0.78348 -3.29514 0
M  V30 9748 C 902.387 0.0317062 -4.26488 0
M  V30 9749 S 903.22 -1.30183 -5.19435 0
M  V30 9750 C 904.376 -0.366354 -6.24827 0
M  V30 9751 H 904.609 -0.936803 -2.82155 0
M  V30 9752 H 902.142 -0.597799 -1.42358 0
M  V30 9753 H 904.1 1.32023 -3.8869 0
M  V30 9754 H 902.761 1.53729 -2.73909 0
M  V30 9755 H 901.954 0.745364 -4.98458 0
M  V30 9756 H 901.556 -0.43497 -3.71462 0
M  V30 9757 H 903.848 0.44976 -6.76005 0
M  V30 9758 H 904.791 -1.05513 -7.00195 0
M  V30 9759 H 905.199 0.0363203 -5.64488 0
M  V30 9760 N 904.597 1.47463 -0.556102 0
M  V30 9761 C 905.527 2.32801 0.180497 0
M  V30 9762 C 906.508 1.43721 0.909848 0
M  V30 9763 O 907.693 1.72578 0.89053 0
M  V30 9764 C 904.823 3.25478 1.21167 0
M  V30 9765 C 903.777 4.2379 0.598846 0
M  V30 9766 C 903.103 5.05783 1.73457 0
M  V30 9767 C 904.403 5.20387 -0.446659 0
M  V30 9768 H 906.097 2.94636 -0.531956 0
M  V30 9769 H 903.643 1.41683 -0.257267 0
M  V30 9770 H 905.596 3.8402 1.73513 0
M  V30 9771 H 904.32 2.61695 1.95405 0
M  V30 9772 H 902.979 3.66472 0.0966897 0
M  V30 9773 H 902.627 4.38405 2.46596 0
M  V30 9774 H 902.327 5.72343 1.33031 0
M  V30 9775 H 903.851 5.67183 2.26131 0
M  V30 9776 H 905.265 5.73299 -0.00930019 0
M  V30 9777 H 903.662 5.95143 -0.769735 0
M  V30 9778 H 904.732 4.65932 -1.34295 0
M  V30 9779 N 906.075 0.2925 1.54862 0
M  V30 9780 C 907.025 -0.60226 2.19902 0
M  V30 9781 C 908.009 -1.10535 1.16923 0
M  V30 9782 O 909.201 -1.04753 1.42674 0
M  V30 9783 C 906.33 -1.77774 2.93686 0
M  V30 9784 C 905.416 -1.29101 4.03972 0
M  V30 9785 N 905.807 -0.521671 5.03103 0
M  V30 9786 C 904.105 -1.57248 4.17359 0
M  V30 9787 C 904.806 -0.263545 5.81103 0
M  V30 9788 N 903.782 -0.840937 5.37056 0
M  V30 9789 H 907.584 -0.00682274 2.93899 0
M  V30 9790 H 905.098 0.0968604 1.62111 0
M  V30 9791 H 907.095 -2.43021 3.38743 0
M  V30 9792 H 905.755 -2.37696 2.21203 0
M  V30 9793 H 906.766 -0.167364 5.1763 0
M  V30 9794 H 903.443 -2.1798 3.56077 0
M  V30 9795 H 904.833 0.353783 6.70968 0
M  V30 9796 N 907.553 -1.57587 0.0200696 0
M  V30 9797 C 908.485 -2.06555 -0.993359 0
M  V30 9798 C 909.498 -0.987227 -1.29451 0
M  V30 9799 O 910.687 -1.26361 -1.26075 0
M  V30 9800 C 907.787 -2.4675 -2.3231 0
M  V30 9801 C 906.96 -3.77554 -2.20843 0
M  V30 9802 C 906.019 -4.04397 -3.36674 0
M  V30 9803 O 905.045 -4.7478 -3.13963 0
M  V30 9804 N 906.247 -3.53861 -4.60176 0
M  V30 9805 H 909.012 -2.9412 -0.575617 0
M  V30 9806 H 906.573 -1.61038 -0.166889 0
M  V30 9807 H 908.565 -2.61806 -3.08609 0
M  V30 9808 H 907.135 -1.64598 -2.65756 0
M  V30 9809 H 906.355 -3.72382 -1.29327 0
M  V30 9810 H 907.643 -4.63271 -2.10375 0
M  V30 9811 H 907.041 -2.96904 -4.81523 0
M  V30 9812 H 905.598 -3.74213 -5.33674 0
M  V30 9813 N 909.032 0.252966 -1.55557 0
M  V30 9814 C 909.962 1.31691 -1.9282 0
M  V30 9815 C 910.943 1.50516 -0.7924 0
M  V30 9816 O 912.128 1.63225 -1.05219 0
M  V30 9817 C 909.258 2.67281 -2.21762 0
M  V30 9818 C 908.212 2.6316 -3.37536 0
M  V30 9819 C 907.538 4.02488 -3.52005 0
M  V30 9820 C 908.838 2.20675 -4.73392 0
M  V30 9821 H 910.532 1.00751 -2.81939 0
M  V30 9822 H 908.078 0.483219 -1.3565 0
M  V30 9823 H 910.031 3.41842 -2.46419 0
M  V30 9824 H 908.755 2.99845 -1.29463 0
M  V30 9825 H 907.414 1.91057 -3.12878 0
M  V30 9826 H 907.062 4.32307 -2.57137 0
M  V30 9827 H 906.762 4.00621 -4.29857 0
M  V30 9828 H 908.286 4.78758 -3.78977 0
M  V30 9829 H 909.7 2.84965 -4.97461 0
M  V30 9830 H 908.097 2.29931 -5.54303 0
M  V30 9831 H 909.167 1.15831 -4.70862 0
M  V30 9832 N 910.51 1.48831 0.518367 0
M  V30 9833 C 911.44 1.67119 1.63075 0
M  V30 9834 C 912.421 0.519948 1.61958 0
M  V30 9835 O 913.606 0.753824 1.78972 0
M  V30 9836 C 910.736 1.72158 3.01627 0
M  V30 9837 C 909.69 2.86898 3.17606 0
M  V30 9838 C 909.016 2.77035 4.57335 0
M  V30 9839 C 910.316 4.28057 2.99274 0
M  V30 9840 H 912.01 2.60248 1.48025 0
M  V30 9841 H 909.556 1.2524 0.710694 0
M  V30 9842 H 911.509 1.83539 3.7933 0
M  V30 9843 H 910.233 0.756157 3.17726 0
M  V30 9844 H 908.892 2.75091 2.42323 0
M  V30 9845 H 908.54 1.78438 4.70286 0
M  V30 9846 H 908.24 3.54036 4.6897 0
M  V30 9847 H 909.764 2.904 5.37122 0
M  V30 9848 H 911.178 4.40636 3.6676 0
M  V30 9849 H 909.575 5.06145 3.22393 0
M  V30 9850 H 910.645 4.4371 1.95574 0
M  V30 9851 N 911.988 -0.768124 1.37614 0
M  V30 9852 C 913.213 -1.56239 1.36397 0
M  V30 9853 C 913.638 -1.8804 -0.0475839 0
M  V30 9854 O 912.996 -1.495 -1.02564 0
M  V30 9855 C 913.044 -2.84716 2.21289 0
M  V30 9856 O 912.148 -3.79249 1.62001 0
M  V30 9857 H 911.489 -0.473119 0.465891 0
M  V30 9858 H 914.019 -0.950415 1.81186 0
M  V30 9859 H 914.029 -3.33784 2.34632 0
M  V30 9860 H 912.704 -2.60899 3.2389 0
M  V30 9861 H 911.281 -3.37904 1.57719 0
M  V30 9862 N 913.466 -1.22244 -0.994698 0
M  V30 9863 C 914.396 -1.01513 -2.10279 0
M  V30 9864 C 915.377 0.0633365 -1.69982 0
M  V30 9865 O 916.562 -0.0985268 -1.9395 0
M  V30 9866 C 913.692 -0.59016 -3.42249 0
M  V30 9867 C 912.646 -1.61436 -3.96387 0
M  V30 9868 C 911.972 -1.04528 -5.24383 0
M  V30 9869 C 913.272 -3.00388 -4.27276 0
M  V30 9870 H 914.966 -1.94194 -2.2788 0
M  V30 9871 H 912.512 -0.935094 -1.09508 0
M  V30 9872 H 914.465 -0.432254 -4.19177 0
M  V30 9873 H 913.189 0.372308 -3.24471 0
M  V30 9874 H 911.848 -1.76001 -3.21589 0
M  V30 9875 H 911.496 -0.0742225 -5.02945 0
M  V30 9876 H 911.196 -1.72949 -5.61571 0
M  V30 9877 H 912.72 -0.898922 -6.03947 0
M  V30 9878 H 914.134 -2.89207 -4.95007 0
M  V30 9879 H 912.531 -3.65916 -4.75631 0
M  V30 9880 H 913.601 -3.50456 -3.35125 0
M  V30 9881 N 914.944 1.19125 -1.03184 0
M  V30 9882 C 915.894 2.20348 -0.585731 0
M  V30 9883 C 916.878 1.56656 0.367109 0
M  V30 9884 O 918.07 1.76003 0.187598 0
M  V30 9885 C 915.199 3.43249 0.0590006 0
M  V30 9886 C 914.285 4.1408 -0.916457 0
M  V30 9887 N 914.676 4.61051 -2.08005 0
M  V30 9888 C 912.974 4.39809 -0.74054 0
M  V30 9889 C 913.675 5.15477 -2.69552 0
M  V30 9890 N 912.651 5.06456 -1.97493 0
M  V30 9891 H 916.453 2.54346 -1.47259 0
M  V30 9892 H 913.967 1.35232 -0.899225 0
M  V30 9893 H 915.964 4.15013 0.396236 0
M  V30 9894 H 914.624 3.1075 0.941507 0
M  V30 9895 H 915.635 4.55782 -2.45934 0
M  V30 9896 H 912.312 4.17397 0.0926238 0
M  V30 9897 H 913.702 5.62088 -3.68112 0
M  V30 9898 N 916.422 0.810101 1.35185 0
M  V30 9899 C 917.67 0.391343 1.98275 0
M  V30 9900 C 917.991 -1.04592 1.64577 0
M  V30 9901 O 917.261 -1.72417 0.93001 0
M  V30 9902 H 915.841 0.141715 0.733434 0
M  V30 9903 H 918.503 1.03672 1.6504 0
M  V30 9904 H 917.599 0.49991 3.0807 0
M  V30 9905 N 917.9 -1.47166 0.563914 0
M  V30 9906 C 919.148 -2.02056 0.0422873 0
M  V30 9907 C 919.469 -1.43992 -1.31497 0
M  V30 9908 O 918.739 -0.617578 -1.85911 0
M  V30 9909 H 917.319 -0.746893 0.0126427 0
M  V30 9910 H 919.981 -1.80492 0.735441 0
M  V30 9911 H 919.077 -3.12073 -0.0408044 0
M  V30 9912 N 919.378 -0.300708 -1.54705 0
M  V30 9913 C 920.603 0.314073 -2.05008 0
M  V30 9914 C 921.028 1.46759 -1.17657 0
M  V30 9915 O 920.386 1.80398 -0.180598 0
M  V30 9916 C 920.434 0.748243 -3.52752 0
M  V30 9917 O 919.538 1.85305 -3.68424 0
M  V30 9918 H 918.879 0.0610139 -0.661191 0
M  V30 9919 H 921.409 -0.442467 -1.99758 0
M  V30 9920 H 921.419 1.03713 -3.94598 0
M  V30 9921 H 920.094 -0.095573 -4.1579 0
M  V30 9922 H 918.671 1.56473 -3.38483 0
M  V30 9923 N 920.856 1.57574 -0.0284266 0
M  V30 9924 C 922.084 1.96071 0.660575 0
M  V30 9925 C 922.499 0.904881 1.65703 0
M  V30 9926 O 921.856 -0.113379 1.82147 0
M  V30 9927 C 921.907 3.34634 1.36756 0
M  V30 9928 O 921.628 4.36167 0.411041 0
M  V30 9929 C 923.129 3.87758 2.14845 0
M  V30 9930 H 920.349 0.645794 0.182183 0
M  V30 9931 H 922.893 2.04311 -0.0879858 0
M  V30 9932 H 921.048 3.27616 2.06753 0
M  V30 9933 H 921.462 5.16493 0.913 0
M  V30 9934 H 922.936 4.87058 2.59767 0
M  V30 9935 H 923.413 3.21967 2.9872 0
M  V30 9936 H 924.019 3.98043 1.49807 0
M  V30 9937 N 922.334 -0.244713 1.55689 0
M  V30 9938 C 923.745 -0.813603 1.6804 0
M  V30 9939 C 924.096 -1.85936 0.626281 0
M  V30 9940 O 923.221 -2.15206 -0.227038 0
M  V30 9941 C 923.816 -1.48252 3.04642 0
M  V30 9942 C 922.375 -1.99908 3.18926 0
M  V30 9943 C 921.522 -0.850958 2.6392 0
M  V30 9944 H 924.473 -0.0204805 1.58687 0
M  V30 9945 H 924.494 -2.35062 2.99209 0
M  V30 9946 H 924.006 -0.721164 3.81341 0
M  V30 9947 H 922.107 -2.78918 2.47054 0
M  V30 9948 H 922.22 -2.19497 4.25862 0
M  V30 9949 H 920.584 -1.25206 2.21801 0
M  V30 9950 H 921.367 -0.10265 3.43146 0
M  V30 9951 N 923.813 -1.49104 -0.510467 0
M  V30 9952 C 925.061 -1.578 -1.26268 0
M  V30 9953 C 925.382 -0.262349 -1.93227 0
M  V30 9954 O 924.652 0.717624 -1.82283 0
M  V30 9955 H 923.232 -0.581387 -0.46904 0
M  V30 9956 H 925.894 -1.85678 -0.592423 0
M  V30 9957 H 924.99 -2.36919 -2.03165 0
M  V30 9958 N 925.291 0.760815 -1.38019 0
M  V30 9959 C 926.516 1.55513 -1.37224 0
M  V30 9960 C 926.941 1.88062 0.037611 0
M  V30 9961 O 926.299 1.50042 1.0177 0
M  V30 9962 C 926.347 2.83539 -2.22796 0
M  V30 9963 O 925.451 3.78384 -1.64009 0
M  V30 9964 H 924.792 0.470642 -0.468393 0
M  V30 9965 H 927.322 0.940792 -1.81687 0
M  V30 9966 H 927.332 3.32535 -2.36399 0
M  V30 9967 H 926.007 2.59178 -3.25269 0
M  V30 9968 H 924.584 3.37063 -1.59508 0
M  V30 9969 N 926.769 1.22769 0.988202 0
M  V30 9970 C 928.017 1.05301 1.725 0
M  V30 9971 C 928.338 -0.412103 1.90596 0
M  V30 9972 O 927.608 -1.29606 1.46898 0
M  V30 9973 H 926.188 0.386658 0.639144 0
M  V30 9974 H 928.85 1.54359 1.18993 0
M  V30 9975 H 927.946 1.53465 2.71763 0
M  V30 9976 N 928.247 -1.18576 1.03814 0
M  V30 9977 C 929.495 -1.88121 0.738574 0
M  V30 9978 C 929.816 -1.80587 -0.735744 0
M  V30 9979 O 929.086 -1.22251 -1.53074 0
M  V30 9980 H 927.666 -0.696417 0.270208 0
M  V30 9981 H 930.328 -1.43912 1.31435 0
M  V30 9982 H 929.424 -2.94222 1.04115 0
M  V30 9983 N 929.725 -0.817259 -1.34754 0
M  V30 9984 C 931.136 -0.462215 -1.80888 0
M  V30 9985 C 931.487 1.01685 -1.67794 0
M  V30 9986 O 930.612 1.79094 -1.21468 0
M  V30 9987 C 931.207 -0.832204 -3.2842 0
M  V30 9988 C 929.766 -0.52961 -3.72655 0
M  V30 9989 C 928.913 -1.05214 -2.56564 0
M  V30 9990 H 931.864 -1.00795 -1.22581 0
M  V30 9991 H 931.885 -0.133804 -3.80265 0
M  V30 9992 H 931.397 -1.90873 -3.37919 0
M  V30 9993 H 929.498 0.537743 -3.68699 0
M  V30 9994 H 929.611 -1.06971 -4.67005 0
M  V30 9995 H 927.975 -0.473949 -2.50251 0
M  V30 9996 H 928.758 -2.135 -2.68836 0
M  V30 9997 N 931.203 1.46865 -0.571711 0
M  V30 9998 C 932.614 1.86158 -0.142181 0
M  V30 9999 C 932.965 1.47663 1.2919 0
M  V30 10000 O 932.09 0.886393 1.97413 0
M  V30 10001 C 932.685 3.37867 -0.251256 0
M  V30 10002 C 931.244 3.76198 0.123329 0
M  V30 10003 C 930.391 2.70902 -0.592232 0
M  V30 10004 H 933.342 1.38176 -0.780587 0
M  V30 10005 H 933.363 3.76842 0.526331 0
M  V30 10006 H 932.875 3.65853 -1.2951 0
M  V30 10007 H 930.976 3.53829 1.16773 0
M  V30 10008 H 931.089 4.78471 -0.24533 0
M  V30 10009 H 929.453 2.54678 -0.0336927 0
M  V30 10010 H 930.236 3.01729 -1.63751 0
M  V30 10011 N 932.681 0.308908 1.54543 0
M  V30 10012 C 934.097 -0.0442273 1.59539 0
M  V30 10013 C 934.297 -1.51743 1.32575 0
M  V30 10014 O 933.353 -2.27134 1.10302 0
M  V30 10015 C 934.666 0.360826 2.98527 0
M  V30 10016 C 936.214 0.310252 3.11459 0
M  V30 10017 C 936.689 0.690246 4.52769 0
M  V30 10018 N 938.18 0.643084 4.58714 0
M  V30 10019 C 938.915 0.909483 5.66141 0
M  V30 10020 N 938.411 1.24226 6.81572 0
M  V30 10021 N 940.204 0.836018 5.55848 0
M  V30 10022 H 932.355 1.26893 1.70329 0
M  V30 10023 H 934.618 0.514986 0.795923 0
M  V30 10024 H 934.324 1.38669 3.23209 0
M  V30 10025 H 934.198 -0.281563 3.76148 0
M  V30 10026 H 936.585 -0.706375 2.86521 0
M  V30 10027 H 936.666 0.987373 2.35976 0
M  V30 10028 H 936.31 1.70472 4.78437 0
M  V30 10029 H 936.24 -0.00903075 5.26599 0
M  V30 10030 H 938.731 0.397138 3.75807 0
M  V30 10031 H 939.044 1.4313 7.5943 0
M  V30 10032 H 937.389 1.28038 6.83104 0
M  V30 10033 H 940.58 0.575637 4.64547 0
M  V30 10034 H 940.753 1.047 6.39486 0
M  V30 10035 N 934.159 -1.57557 0.0367827 0
M  V30 10036 C 935.069 -2.14148 -0.958017 0
M  V30 10037 C 936.085 -1.09564 -1.35173 0
M  V30 10038 O 937.261 -1.4166 -1.43158 0
M  V30 10039 C 934.326 -2.6636 -2.21931 0
M  V30 10040 C 933.387 -3.85688 -1.8853 0
M  V30 10041 C 932.62 -4.35401 -3.08645 0
M  V30 10042 O 932.843 -3.8425 -4.21554 0
M  V30 10043 O 931.777 -5.27158 -2.90497 0
M  V30 10044 H 935.603 -2.99442 -0.506797 0
M  V30 10045 H 933.188 -1.48259 -0.184275 0
M  V30 10046 H 935.07 -2.99976 -2.9596 0
M  V30 10047 H 933.745 -1.84145 -2.66219 0
M  V30 10048 H 932.652 -3.56985 -1.11861 0
M  V30 10049 H 933.985 -4.69089 -1.49052 0
M  V30 10050 N 935.637 0.236453 -1.55816 0
M  V30 10051 C 936.885 0.96111 -1.77784 0
M  V30 10052 C 937.206 1.85454 -0.602648 0
M  V30 10053 O 936.476 1.92157 0.381137 0
M  V30 10054 H 935.056 0.35787 -0.655697 0
M  V30 10055 H 937.718 0.251888 -1.93265 0
M  V30 10056 H 936.814 1.5767 -2.69345 0
M  V30 10057 N 937.115 1.49373 0.502552 0
M  V30 10058 C 938.363 1.58467 1.25429 0
M  V30 10059 C 938.684 0.272593 1.93085 0
M  V30 10060 O 937.954 -0.707947 1.82661 0
M  V30 10061 H 936.534 0.583866 0.46595 0
M  V30 10062 H 939.196 1.8599 0.582568 0
M  V30 10063 H 938.292 2.37993 2.01906 0
M  V30 10064 N 938.594 -0.753485 1.38421 0
M  V30 10065 C 939.557 -1.84888 1.35459 0
M  V30 10066 C 940.557 -1.58764 0.255083 0
M  V30 10067 O 941.747 -1.66507 0.511978 0
M  V30 10068 C 938.879 -3.22361 1.10888 0
M  V30 10069 H 940.072 -1.88922 2.32913 0
M  V30 10070 H 937.625 -0.955199 1.23716 0
M  V30 10071 H 938.36 -3.23996 0.1404 0
M  V30 10072 H 938.145 -3.42717 1.90492 0
M  V30 10073 H 939.635 -4.02437 1.1151 0
M  V30 10074 N 940.072 -1.23292 -0.981677 0
M  V30 10075 C 941.022 -0.980133 -2.05858 0
M  V30 10076 C 942.006 0.0734044 -1.60732 0
M  V30 10077 O 943.198 -0.138561 -1.76457 0
M  V30 10078 C 940.327 -0.571879 -3.38503 0
M  V30 10079 C 939.413 -1.66075 -3.90231 0
M  V30 10080 N 939.804 -2.89077 -4.15052 0
M  V30 10081 C 938.102 -1.53503 -4.18751 0
M  V30 10082 C 938.803 -3.59567 -4.5726 0
M  V30 10083 N 937.779 -2.87076 -4.61615 0
M  V30 10084 H 941.581 -1.91432 -2.23005 0
M  V30 10085 H 939.095 -1.13211 -1.16434 0
M  V30 10086 H 941.092 -0.372059 -4.15236 0
M  V30 10087 H 939.752 0.355278 -3.2275 0
M  V30 10088 H 940.763 -3.25395 -4.02912 0
M  V30 10089 H 937.44 -0.674891 -4.12009 0
M  V30 10090 H 938.83 -4.65007 -4.84993 0
M  V30 10091 N 941.55 1.18024 -1.04442 0
M  V30 10092 C 942.799 1.8743 -0.745185 0
M  V30 10093 C 943.112 1.81459 0.730206 0
M  V30 10094 O 944.318 2.46263 1.1431 0
M  V30 10095 C 942.774 3.36266 -1.28271 0
M  V30 10096 C 942.382 3.50757 -2.787 0
M  V30 10097 C 944.126 4.11048 -1.06018 0
M  V30 10098 C 942.033 4.93573 -3.25791 0
M  V30 10099 H 940.963 0.702038 -0.27506 0
M  V30 10100 H 943.614 1.33333 -1.26073 0
M  V30 10101 H 941.996 3.89853 -0.695002 0
M  V30 10102 H 943.17 3.07423 -3.43261 0
M  V30 10103 H 941.485 2.89385 -2.99408 0
M  V30 10104 H 944.082 5.16395 -1.38711 0
M  V30 10105 H 944.425 4.163 0.00241716 0
M  V30 10106 H 944.958 3.63644 -1.61269 0
M  V30 10107 H 941.697 4.93491 -4.31447 0
M  V30 10108 H 941.217 5.37607 -2.65968 0
M  V30 10109 H 942.896 5.62307 -3.20031 0
M  V30 10110 N 943.028 0.824394 1.34319 0
M  V30 10111 C 944.256 0.426194 2.02463 0
M  V30 10112 C 944.671 -0.968298 1.62078 0
M  V30 10113 O 944.028 -1.62689 0.82696 0
M  V30 10114 C 944.079 0.520465 3.57734 0
M  V30 10115 O 943.8 1.86 3.96656 0
M  V30 10116 C 945.301 0.117353 4.43145 0
M  V30 10117 H 942.521 0.170864 0.648881 0
M  V30 10118 H 945.065 1.11296 1.71562 0
M  V30 10119 H 943.22 -0.118233 3.8722 0
M  V30 10120 H 943.634 1.83528 4.91343 0
M  V30 10121 H 945.108 0.234395 5.51502 0
M  V30 10122 H 945.585 -0.939271 4.29039 0
M  V30 10123 H 946.191 0.729908 4.1899 0
M  V30 10124 N 944.506 -1.46559 0.579492 0
M  V30 10125 C 945.438 -2.28383 -0.19337 0
M  V30 10126 C 946.451 -1.38324 -0.858511 0
M  V30 10127 O 947.64 -1.62952 -0.728615 0
M  V30 10128 C 944.74 -3.13262 -1.29306 0
M  V30 10129 C 943.913 -4.31426 -0.720459 0
M  V30 10130 C 942.972 -4.97728 -1.70744 0
M  V30 10131 O 941.998 -5.55423 -1.24476 0
M  V30 10132 N 943.2 -4.94445 -3.04146 0
M  V30 10133 H 945.965 -2.95353 0.508611 0
M  V30 10134 H 943.526 -1.56436 0.417046 0
M  V30 10135 H 945.518 -3.54483 -1.95254 0
M  V30 10136 H 944.088 -2.48388 -1.89795 0
M  V30 10137 H 943.308 -3.94028 0.116398 0
M  V30 10138 H 944.596 -5.07808 -0.31763 0
M  V30 10139 H 943.994 -4.4881 -3.44363 0
M  V30 10140 H 942.551 -5.39616 -3.65592 0
M  V30 10141 N 945.984 -0.3171 -1.54377 0
M  V30 10142 C 947.395 0.172287 -1.85903 0
M  V30 10143 C 947.746 1.52141 -1.23885 0
M  V30 10144 O 946.871 2.0949 -0.542476 0
M  V30 10145 C 947.466 0.319392 -3.37291 0
M  V30 10146 C 946.025 0.752998 -3.68791 0
M  V30 10147 C 945.172 -0.129143 -2.76999 0
M  V30 10148 H 948.123 -0.537597 -1.49317 0
M  V30 10149 H 948.144 1.15137 -3.62662 0
M  V30 10150 H 947.656 -0.662671 -3.82401 0
M  V30 10151 H 945.757 1.74504 -3.2921 0
M  V30 10152 H 945.87 0.561228 -4.75801 0
M  V30 10153 H 944.234 0.394242 -2.5163 0
M  V30 10154 H 945.017 -1.10785 -3.24933 0
M  V30 10155 N 947.462 1.57535 -0.0451378 0
M  V30 10156 C 948.702 1.9432 0.633955 0
M  V30 10157 C 949.066 0.922924 1.68363 0
M  V30 10158 O 950.267 1.17751 2.41636 0
M  V30 10159 C 948.538 3.35933 1.21999 0
M  V30 10160 S 950.097 3.94666 1.91793 0
M  V30 10161 H 946.915 0.679798 0.208318 0
M  V30 10162 H 949.517 1.95175 -0.112633 0
M  V30 10163 H 948.221 4.07993 0.443821 0
M  V30 10164 H 947.752 3.38559 2.00353 0
M  V30 10165 H 949.767 3.79401 3.19796 0
M  V30 10166 N 948.94 -0.228186 1.55939 0
M  V30 10167 C 950.188 -0.951668 1.78291 0
M  V30 10168 C 950.509 -1.85132 0.612474 0
M  V30 10169 O 949.779 -1.92356 -0.370942 0
M  V30 10170 H 948.359 -0.354388 0.657585 0
M  V30 10171 H 951.021 -0.241635 1.93396 0
M  V30 10172 H 950.117 -1.56239 2.70177 0
M  V30 10173 N 950.418 -1.49637 -0.494624 0
M  V30 10174 C 951.643 -1.63431 -1.27691 0
M  V30 10175 C 952.068 -0.30813 -1.85559 0
M  V30 10176 O 951.426 0.725083 -1.66169 0
M  V30 10177 C 951.474 -2.71043 -2.3784 0
M  V30 10178 O 950.578 -2.3066 -3.41862 0
M  V30 10179 H 949.919 -0.546804 -0.376698 0
M  V30 10180 H 952.449 -1.95866 -0.591413 0
M  V30 10181 H 952.459 -2.93406 -2.83508 0
M  V30 10182 H 951.134 -3.67306 -1.95088 0
M  V30 10183 H 949.711 -2.18652 -3.02069 0
M  V30 10184 N 951.896 0.746133 -1.38819 0
M  V30 10185 C 953.144 1.50247 -1.35167 0
M  V30 10186 C 953.465 1.94921 0.0553531 0
M  V30 10187 O 952.735 1.68187 1.00449 0
M  V30 10188 H 951.315 0.557337 -0.497377 0
M  V30 10189 H 953.977 0.886472 -1.73573 0
M  V30 10190 H 953.073 2.38986 -2.00728 0
M  V30 10191 N 953.375 1.23811 0.975125 0
M  V30 10192 C 954.623 1.07124 1.71373 0
M  V30 10193 C 954.944 -0.391864 1.91022 0
M  V30 10194 O 954.214 -1.28041 1.48265 0
M  V30 10195 H 952.794 0.393415 0.635007 0
M  V30 10196 H 955.456 1.55612 1.17349 0
M  V30 10197 H 954.552 1.56338 2.7012 0
M  V30 10198 N 954.853 -1.17469 1.05066 0
M  V30 10199 C 956.078 -1.92162 0.780298 0
M  V30 10200 C 956.503 -1.76222 -0.657832 0
M  V30 10201 O 955.861 -1.0791 -1.45688 0
M  V30 10202 C 955.909 -3.41292 1.16414 0
M  V30 10203 O 955.013 -4.1134 0.295531 0
M  V30 10204 H 954.354 -0.599127 0.286257 0
M  V30 10205 H 956.884 -1.48903 1.40318 0
M  V30 10206 H 956.894 -3.92029 1.13036 0
M  V30 10207 H 955.569 -3.52214 2.21175 0
M  V30 10208 H 954.146 -3.70857 0.389797 0
M  V30 10209 N 956.331 -0.831506 -1.3388 0
M  V30 10210 C 957.577 -0.424302 -1.98312 0
M  V30 10211 C 957.91 1.01211 -1.65741 0
M  V30 10212 O 957.185 1.70636 -0.933464 0
M  V30 10213 C 957.468 -0.636815 -3.54424 0
M  V30 10214 C 957.321 -2.11997 -3.96708 0
M  V30 10215 C 958.64 -0.0782411 -4.4003 0
M  V30 10216 H 955.759 -0.155637 -0.720379 0
M  V30 10217 H 958.401 -1.04566 -1.58638 0
M  V30 10218 H 956.551 -0.107907 -3.8835 0
M  V30 10219 H 958.223 -2.71317 -3.73075 0
M  V30 10220 H 956.466 -2.60723 -3.46707 0
M  V30 10221 H 957.137 -2.21944 -5.05416 0
M  V30 10222 H 959.613 -0.530243 -4.12708 0
M  V30 10223 H 958.489 -0.256676 -5.483 0
M  V30 10224 H 958.75 1.01745 -4.30233 0
M  V30 10225 N 957.809 1.4625 -0.587256 0
M  V30 10226 C 959.086 1.95599 -0.00750181 0
M  V30 10227 C 959.466 1.52989 1.45457 0
M  V30 10228 O 958.814 0.782731 2.14676 0
M  V30 10229 C 959.024 3.48513 -0.184309 0
M  V30 10230 C 960.372 4.24565 -0.0544972 0
M  V30 10231 O 961.396 3.5602 -0.113378 0
M  V30 10232 O 960.255 5.46445 0.0774075 0
M  V30 10233 H 957.349 0.825649 0.0472495 0
M  V30 10234 H 959.895 1.56512 -0.655893 0
M  V30 10235 H 958.667 3.72428 -1.20053 0
M  V30 10236 H 958.29 3.9444 0.500301 0
M  V30 10237 N 959.287 0.325282 1.54207 0
M  V30 10238 C 960.698 -0.162426 1.85992 0
M  V30 10239 C 961.049 -1.51482 1.2469 0
M  V30 10240 O 960.174 -2.092 0.553578 0
M  V30 10241 C 960.769 -0.3015 3.37456 0
M  V30 10242 C 959.328 -0.73343 3.69185 0
M  V30 10243 C 958.475 0.143831 2.76927 0
M  V30 10244 H 961.426 0.545508 1.4903 0
M  V30 10245 H 961.447 -1.13212 3.63268 0
M  V30 10246 H 960.959 0.682942 3.82044 0
M  V30 10247 H 959.06 -1.72755 3.30131 0
M  V30 10248 H 959.173 -0.535987 4.76092 0
M  V30 10249 H 957.537 -0.380892 2.51836 0
M  V30 10250 H 958.32 1.12507 3.24341 0
M  V30 10251 N 960.765 -1.57509 0.0534917 0
M  V30 10252 C 961.675 -2.15152 -0.935249 0
M  V30 10253 C 962.691 -1.10991 -1.34003 0
M  V30 10254 O 963.867 -1.43171 -1.41648 0
M  V30 10255 C 960.932 -2.68699 -2.19093 0
M  V30 10256 C 959.993 -3.87666 -1.84428 0
M  V30 10257 C 959.226 -4.3865 -3.0401 0
M  V30 10258 O 959.449 -3.887 -4.17455 0
M  V30 10259 O 958.383 -5.30209 -2.84889 0
M  V30 10260 H 962.209 -2.99962 -0.475009 0
M  V30 10261 H 959.794 -1.48446 -0.16854 0
M  V30 10262 H 961.676 -3.03098 -2.92762 0
M  V30 10263 H 960.351 -1.86958 -2.6425 0
M  V30 10264 H 959.258 -3.58151 -1.08068 0
M  V30 10265 H 960.591 -4.70643 -1.44068 0
M  V30 10266 N 962.243 0.219913 -1.56058 0
M  V30 10267 C 963.173 1.27572 -1.9557 0
M  V30 10268 C 964.154 1.48801 -0.824148 0
M  V30 10269 O 965.339 1.60957 -1.08658 0
M  V30 10270 C 962.469 2.62517 -2.27381 0
M  V30 10271 C 961.423 2.55941 -3.43042 0
M  V30 10272 C 960.749 3.94931 -3.60463 0
M  V30 10273 C 962.049 2.10584 -4.77966 0
M  V30 10274 H 963.743 0.947482 -2.84013 0
M  V30 10275 H 961.289 0.454337 -1.36645 0
M  V30 10276 H 963.242 3.36538 -2.53615 0
M  V30 10277 H 961.966 2.97031 -1.35794 0
M  V30 10278 H 960.625 1.84377 -3.1686 0
M  V30 10279 H 960.273 4.26756 -2.66249 0
M  V30 10280 H 959.973 3.91413 -4.38258 0
M  V30 10281 H 961.497 4.70611 -3.89046 0
M  V30 10282 H 962.911 2.74349 -5.03394 0
M  V30 10283 H 961.308 2.18122 -5.59055 0
M  V30 10284 H 962.378 1.05818 -4.73213 0
M  V30 10285 N 963.721 1.49897 0.486681 0
M  V30 10286 C 964.968 1.60105 1.23986 0
M  V30 10287 C 965.296 0.294228 1.92262 0
M  V30 10288 O 964.551 -0.718876 1.82018 0
M  V30 10289 C 964.85 2.71982 2.31863 0
M  V30 10290 C 964.516 4.13 1.80948 0
M  V30 10291 C 963.178 4.51373 1.66782 0
M  V30 10292 C 965.53 5.01198 1.43004 0
M  V30 10293 C 962.858 5.75701 1.13072 0
M  V30 10294 C 965.21 6.26058 0.90742 0
M  V30 10295 C 963.874 6.63247 0.752269 0
M  V30 10296 H 963.144 0.585866 0.453698 0
M  V30 10297 H 965.791 1.83778 0.538305 0
M  V30 10298 H 964.096 2.42336 3.07865 0
M  V30 10299 H 965.793 2.77087 2.89869 0
M  V30 10300 H 962.383 3.82718 1.92937 0
M  V30 10301 H 966.567 4.72196 1.52789 0
M  V30 10302 H 961.823 6.03202 0.997842 0
M  V30 10303 H 965.997 6.9377 0.604684 0
M  V30 10304 H 963.624 7.59466 0.33392 0
M  V30 10305 N 965.199 -0.738761 1.39212 0
M  V30 10306 C 966.129 -1.86602 1.40364 0
M  V30 10307 C 967.11 -1.67984 0.267495 0
M  V30 10308 O 968.295 -1.88358 0.472765 0
M  V30 10309 C 965.425 -3.24308 1.24265 0
M  V30 10310 C 964.379 -3.57557 2.35239 0
M  V30 10311 C 963.705 -4.94159 2.04233 0
M  V30 10312 C 965.005 -3.60914 3.77543 0
M  V30 10313 H 966.699 -1.85896 2.34698 0
M  V30 10314 H 964.245 -0.892959 1.1297 0
M  V30 10315 H 966.198 -4.02838 1.23692 0
M  V30 10316 H 964.922 -3.25531 0.263974 0
M  V30 10317 H 963.581 -2.81354 2.35022 0
M  V30 10318 H 963.229 -4.91959 1.04813 0
M  V30 10319 H 962.929 -5.17373 2.78567 0
M  V30 10320 H 964.453 -5.7505 2.05303 0
M  V30 10321 H 965.867 -4.29528 3.79709 0
M  V30 10322 H 964.264 -3.95644 4.51205 0
M  V30 10323 H 965.334 -2.60803 4.08791 0
M  V30 10324 N 966.677 -1.24326 -0.968545 0
M  V30 10325 C 968.088 -1.07561 -1.52603 0
M  V30 10326 C 968.439 0.353245 -1.92994 0
M  V30 10327 O 967.564 1.24151 -1.77244 0
M  V30 10328 C 968.159 -1.94634 -2.77314 0
M  V30 10329 C 966.718 -1.82095 -3.29421 0
M  V30 10330 C 965.865 -1.8962 -2.02335 0
M  V30 10331 H 968.816 -1.37815 -0.786932 0
M  V30 10332 H 968.837 -1.47812 -3.50616 0
M  V30 10333 H 968.349 -2.98621 -2.47885 0
M  V30 10334 H 966.45 -0.809376 -3.63703 0
M  V30 10335 H 966.563 -2.66142 -3.98378 0
M  V30 10336 H 964.927 -1.33339 -2.17009 0
M  V30 10337 H 965.71 -2.95185 -1.75273 0
M  V30 10338 N 968.156 1.1691 -1.05688 0
M  V30 10339 C 969.381 1.91745 -0.790478 0
M  V30 10340 C 969.806 1.76568 0.648478 0
M  V30 10341 O 969.164 1.08682 1.45114 0
M  V30 10342 C 969.212 3.4067 -1.18222 0
M  V30 10343 O 968.316 4.11177 -0.317341 0
M  V30 10344 H 967.657 0.5976 -0.28943 0
M  V30 10345 H 970.187 1.48157 -1.41105 0
M  V30 10346 H 970.197 3.91424 -1.15114 0
M  V30 10347 H 968.872 3.51036 -2.2304 0
M  V30 10348 H 967.449 3.70645 -0.409459 0
M  V30 10349 N 969.634 0.838594 1.33437 0
M  V30 10350 C 970.582 0.260158 2.31141 0
M  V30 10351 C 971.576 -0.607706 1.58124 0
M  V30 10352 O 972.782 -0.497298 1.72994 0
M  V30 10353 H 969.157 0.0654031 0.74915 0
M  V30 10354 H 971.128 1.09874 2.77435 0
M  V30 10355 C 969.877 -0.550234 3.43319 0
M  V30 10356 H 969.2 0.108262 3.99653 0
M  V30 10357 H 970.64 -0.920815 4.1388 0
M  V30 10358 C 969.099 -1.729 2.89149 0
M  V30 10359 O 969.629 -2.82769 2.85315 0
M  V30 10360 N 967.835 -1.5508 2.45761 0
M  V30 10361 H 967.382 -0.657055 2.49079 0
M  V30 10362 H 967.34 -2.34099 2.0987 0
M  V30 10363 N 971.112 -1.45937 0.595003 0
M  V30 10364 C 972.34 -2.06698 0.091293 0
M  V30 10365 C 972.755 -1.44176 -1.21897 0
M  V30 10366 O 972.112 -0.551402 -1.73971 0
M  V30 10367 C 972.163 -3.61436 -0.0681801 0
M  V30 10368 O 971.884 -4.21622 1.19023 0
M  V30 10369 C 973.385 -4.39155 -0.604814 0
M  V30 10370 H 970.605 -0.668029 0.0630737 0
M  V30 10371 H 973.149 -1.87376 0.819165 0
M  V30 10372 H 971.304 -3.80143 -0.746324 0
M  V30 10373 H 971.718 -5.14647 1.01187 0
M  V30 10374 H 973.192 -5.47973 -0.665532 0
M  V30 10375 H 973.669 -4.08055 -1.62444 0
M  V30 10376 H 974.275 -4.25282 0.0388658 0
M  V30 10377 N 972.59 -0.333456 -1.54032 0
M  V30 10378 C 973.52 0.52051 -2.27625 0
M  V30 10379 C 974.501 1.1111 -1.28797 0
M  V30 10380 O 975.686 1.13438 -1.57625 0
M  V30 10381 C 972.816 1.67663 -3.04149 0
M  V30 10382 C 971.77 1.21487 -4.10396 0
M  V30 10383 C 971.096 2.45872 -4.74817 0
M  V30 10384 C 972.396 0.322603 -5.21303 0
M  V30 10385 H 974.09 -0.0933823 -2.99254 0
M  V30 10386 H 971.636 -0.0463526 -1.43925 0
M  V30 10387 H 973.589 2.28041 -3.54366 0
M  V30 10388 H 972.313 2.31727 -2.30153 0
M  V30 10389 H 970.972 0.633966 -3.61077 0
M  V30 10390 H 970.62 3.0832 -3.97426 0
M  V30 10391 H 970.32 2.15662 -5.46593 0
M  V30 10392 H 971.844 3.06994 -5.27814 0
M  V30 10393 H 973.258 0.832942 -5.67217 0
M  V30 10394 H 971.655 0.112843 -5.99994 0
M  V30 10395 H 972.725 -0.643954 -4.80605 0
M  V30 10396 N 974.068 1.57479 -0.061844 0
M  V30 10397 C 975.479 1.80627 0.472295 0
M  V30 10398 C 975.83 0.97496 1.70261 0
M  V30 10399 O 974.955 0.1946 2.15523 0
M  V30 10400 C 975.55 3.27608 0.863616 0
M  V30 10401 C 974.109 3.51638 1.34267 0
M  V30 10402 C 973.256 2.75412 0.323009 0
M  V30 10403 H 976.207 1.56072 -0.287634 0
M  V30 10404 H 976.228 3.39113 1.72577 0
M  V30 10405 H 975.74 3.88087 -0.0320226 0
M  V30 10406 H 973.841 2.96452 2.25714 0
M  V30 10407 H 973.954 4.60342 1.32747 0
M  V30 10408 H 972.318 2.4187 0.798175 0
M  V30 10409 H 973.101 3.38623 -0.564729 0
M  V30 10410 N 975.546 -0.211634 1.56173 0
M  V30 10411 C 976.774 -0.951184 1.83739 0
M  V30 10412 C 977.189 -1.7754 0.642252 0
M  V30 10413 O 976.546 -1.78302 -0.389174 0
M  V30 10414 C 976.597 -1.86075 3.09933 0
M  V30 10415 O 976.318 -1.06983 4.24837 0
M  V30 10416 C 977.819 -2.71337 3.50559 0
M  V30 10417 H 975.039 -0.278312 0.61056 0
M  V30 10418 H 977.583 -0.223871 2.03271 0
M  V30 10419 H 975.738 -2.54189 2.92347 0
M  V30 10420 H 976.152 -1.68815 4.9659 0
M  V30 10421 H 977.626 -3.30843 4.41868 0
M  V30 10422 H 978.103 -3.44226 2.72773 0
M  V30 10423 H 978.709 -2.0862 3.70618 0
M  V30 10424 N 977.024 -1.50153 -0.478725 0
M  V30 10425 C 978.254 -1.64266 -1.253 0
M  V30 10426 C 978.662 -0.322256 -1.86435 0
M  V30 10427 O 978.005 0.704925 -1.69636 0
M  V30 10428 C 978.067 -2.67017 -2.40712 0
M  V30 10429 C 977.731 -4.10779 -2.00274 0
M  V30 10430 C 978.728 -4.96889 -1.52963 0
M  V30 10431 C 976.413 -4.5665 -2.09228 0
M  V30 10432 C 978.407 -6.26914 -1.15139 0
M  V30 10433 C 976.094 -5.86683 -1.71015 0
M  V30 10434 C 977.092 -6.71641 -1.24048 0
M  V30 10435 O 976.78 -7.99248 -0.863617 0
M  V30 10436 H 976.512 -0.555382 -0.385392 0
M  V30 10437 H 979.066 -1.97078 -0.578751 0
M  V30 10438 H 977.296 -2.29432 -3.11284 0
M  V30 10439 H 978.985 -2.70428 -3.02694 0
M  V30 10440 H 979.751 -4.62669 -1.45474 0
M  V30 10441 H 975.63 -3.90674 -2.44735 0
M  V30 10442 H 979.174 -6.93179 -0.784089 0
M  V30 10443 H 975.071 -6.20426 -1.78162 0
M  V30 10444 H 975.839 -8.12452 -0.993139 0
M  V30 10445 N 978.502 0.731368 -1.39602 0
M  V30 10446 C 979.412 1.87579 -1.40894 0
M  V30 10447 C 980.428 1.71336 -0.303319 0
M  V30 10448 O 981.604 1.93875 -0.545377 0
M  V30 10449 C 978.669 3.23211 -1.25442 0
M  V30 10450 C 977.73 3.51822 -2.46008 0
M  V30 10451 C 976.963 4.80982 -2.31284 0
M  V30 10452 O 977.186 5.54958 -1.31824 0
M  V30 10453 O 976.12 5.09574 -3.20341 0
M  V30 10454 H 979.946 1.89444 -2.3737 0
M  V30 10455 H 977.531 0.879675 -1.20756 0
M  V30 10456 H 979.413 4.04257 -1.18972 0
M  V30 10457 H 978.088 3.22108 -0.320637 0
M  V30 10458 H 976.995 2.70847 -2.58055 0
M  V30 10459 H 978.328 3.57707 -3.38093 0
M  V30 10460 N 979.98 1.24838 0.961938 0
M  V30 10461 C 980.912 1.00369 2.06055 0
M  V30 10462 C 981.925 -0.0288583 1.62774 0
M  V30 10463 O 983.114 0.208853 1.77274 0
M  V30 10464 C 980.214 0.493953 3.35281 0
M  V30 10465 C 979.387 1.59097 4.07439 0
M  V30 10466 C 978.446 1.08288 5.14937 0
M  V30 10467 O 977.472 1.77577 5.40791 0
M  V30 10468 N 978.674 -0.0796836 5.80445 0
M  V30 10469 H 981.439 1.94962 2.27618 0
M  V30 10470 H 979 1.15945 1.12997 0
M  V30 10471 H 980.992 0.138675 4.04462 0
M  V30 10472 H 979.562 -0.357851 3.10545 0
M  V30 10473 H 978.782 2.11817 3.32456 0
M  V30 10474 H 980.07 2.32817 4.52409 0
M  V30 10475 H 979.468 -0.658827 5.6185 0
M  V30 10476 H 978.025 -0.376057 6.50714 0
M  V30 10477 N 981.458 -1.16348 1.06306 0
M  V30 10478 C 982.388 -2.2291 0.695234 0
M  V30 10479 C 983.369 -1.67208 -0.312343 0
M  V30 10480 O 984.554 -1.93293 -0.187442 0
M  V30 10481 C 981.684 -3.47205 0.0810149 0
M  V30 10482 C 980.638 -4.15801 1.01458 0
M  V30 10483 C 979.964 -5.3405 0.263656 0
M  V30 10484 C 981.264 -4.66766 2.34365 0
M  V30 10485 H 982.958 -2.53934 1.58613 0
M  V30 10486 H 980.504 -1.22056 0.76409 0
M  V30 10487 H 982.457 -4.2098 -0.18818 0
M  V30 10488 H 981.181 -3.15482 -0.844897 0
M  V30 10489 H 979.84 -3.43954 1.26852 0
M  V30 10490 H 979.488 -4.9858 -0.665378 0
M  V30 10491 H 979.188 -5.80885 0.88582 0
M  V30 10492 H 980.712 -6.106 0.00200994 0
M  V30 10493 H 982.126 -5.3212 2.13356 0
M  V30 10494 H 980.523 -5.24223 2.9208 0
M  V30 10495 H 981.593 -3.82969 2.97426 0
M  V30 10496 N 982.937 -0.845659 -1.3299 0
M  V30 10497 C 984.165 -0.45835 -2.01759 0
M  V30 10498 C 984.58 0.94239 -1.63598 0
M  V30 10499 O 983.937 1.61353 -0.852738 0
M  V30 10500 C 983.988 -0.577311 -3.5686 0
M  V30 10501 O 983.709 -1.92287 -3.93646 0
M  V30 10502 C 985.21 -0.187839 -4.42902 0
M  V30 10503 H 982.43 -0.181165 -0.646081 0
M  V30 10504 H 984.974 -1.14011 -1.6977 0
M  V30 10505 H 983.129 0.0566146 -3.87359 0
M  V30 10506 H 983.543 -1.91322 -4.88361 0
M  V30 10507 H 985.017 -0.322105 -5.51059 0
M  V30 10508 H 985.494 0.870896 -4.30479 0
M  V30 10509 H 986.1 -0.796473 -4.17776 0
M  V30 10510 N 984.415 1.45619 -0.602734 0
M  V30 10511 C 985.661 2.02572 -0.0961759 0
M  V30 10512 C 985.994 1.47076 1.26815 0
M  V30 10513 O 985.269 0.643566 1.83544 0
M  V30 10514 C 985.552 3.60062 -0.0520032 0
M  V30 10515 C 985.405 4.25901 -1.44665 0
M  V30 10516 C 986.724 4.35446 0.638342 0
M  V30 10517 H 983.843 0.736099 -0.0364238 0
M  V30 10518 H 986.485 1.7353 -0.773776 0
M  V30 10519 H 984.635 3.84936 0.525032 0
M  V30 10520 H 986.307 4.12228 -2.0704 0
M  V30 10521 H 984.55 3.84489 -2.00874 0
M  V30 10522 H 985.221 5.34779 -1.36803 0
M  V30 10523 H 987.697 4.15837 0.147926 0
M  V30 10524 H 986.573 5.45176 0.63834 0
M  V30 10525 H 986.834 4.07962 1.70351 0
M  V30 10526 N 985.893 0.34162 1.53853 0
M  V30 10527 C 987.304 -0.14269 1.86154 0
M  V30 10528 C 987.655 -1.50151 1.2629 0
M  V30 10529 O 986.78 -2.08601 0.575735 0
M  V30 10530 C 987.375 -0.265691 3.37757 0
M  V30 10531 C 985.934 -0.694231 3.69942 0
M  V30 10532 C 985.081 0.173195 2.76759 0
M  V30 10533 H 988.032 0.561284 1.48443 0
M  V30 10534 H 988.053 -1.09352 3.64448 0
M  V30 10535 H 987.565 0.723424 3.81298 0
M  V30 10536 H 985.666 -1.69244 3.31945 0
M  V30 10537 H 985.779 -0.485461 4.76634 0
M  V30 10538 H 984.143 -0.35416 2.52226 0
M  V30 10539 H 984.926 1.15941 3.23129 0
M  V30 10540 N 987.371 -1.57444 0.0701946 0
M  V30 10541 C 988.787 -1.57009 -0.286431 0
M  V30 10542 C 988.987 -1.07946 -1.70147 0
M  V30 10543 O 988.043 -0.744622 -2.41271 0
M  V30 10544 C 989.356 -3.00542 -0.0975466 0
M  V30 10545 C 990.904 -3.12553 -0.167205 0
M  V30 10546 C 991.379 -4.58 -0.00662047 0
M  V30 10547 N 992.87 -4.63158 -0.0622778 0
M  V30 10548 C 993.605 -5.73388 0.0375831 0
M  V30 10549 N 993.101 -6.92537 0.190873 0
M  V30 10550 N 994.894 -5.62097 -0.0193672 0
M  V30 10551 H 987.045 -1.87651 0.995023 0
M  V30 10552 H 989.308 -0.865006 0.387902 0
M  V30 10553 H 989.014 -3.40543 0.878822 0
M  V30 10554 H 988.888 -3.67485 -0.850547 0
M  V30 10555 H 991.275 -2.72439 -1.13406 0
M  V30 10556 H 991.356 -2.48251 0.616871 0
M  V30 10557 H 991 -4.98803 0.956992 0
M  V30 10558 H 990.93 -5.20332 -0.810081 0
M  V30 10559 H 993.421 -3.77475 -0.179229 0
M  V30 10560 H 993.734 -7.72365 0.25926 0
M  V30 10561 H 992.079 -6.94632 0.226214 0
M  V30 10562 H 995.27 -4.67897 -0.137815 0
M  V30 10563 H 995.443 -6.4797 0.0619121 0
M  V30 10564 N 988.849 0.203349 -1.56283 0
M  V30 10565 C 990.265 0.55384 -1.49682 0
M  V30 10566 C 990.465 1.86261 -0.768701 0
M  V30 10567 O 989.521 2.50517 -0.315824 0
M  V30 10568 C 990.834 0.616216 -2.94318 0
M  V30 10569 C 992.382 0.705611 -3.04943 0
M  V30 10570 C 992.857 0.79917 -4.50974 0
M  V30 10571 N 994.348 0.862916 -4.55091 0
M  V30 10572 C 995.083 0.955334 -5.65386 0
M  V30 10573 N 994.579 1.01057 -6.8539 0
M  V30 10574 N 996.372 0.991884 -5.53279 0
M  V30 10575 H 988.523 -0.655244 -2.0204 0
M  V30 10576 H 990.786 -0.232344 -0.919087 0
M  V30 10577 H 990.492 -0.27619 -3.50614 0
M  V30 10578 H 990.366 1.47371 -3.4722 0
M  V30 10579 H 992.753 1.58845 -2.48701 0
M  V30 10580 H 992.834 -0.177921 -2.5518 0
M  V30 10581 H 992.478 -0.0792841 -5.07838 0
M  V30 10582 H 992.408 1.69838 -4.9846 0
M  V30 10583 H 994.899 0.829812 -3.68677 0
M  V30 10584 H 995.212 1.08137 -7.65197 0
M  V30 10585 H 993.557 0.979384 -6.88065 0
M  V30 10586 H 996.748 0.945514 -4.58451 0
M  V30 10587 H 996.921 1.06045 -6.39264 0
M  V30 10588 N 990.327 1.50405 0.470755 0
M  V30 10589 C 991.575 1.61092 1.2204 0
M  V30 10590 C 991.896 0.313487 1.92464 0
M  V30 10591 O 991.166 -0.669043 1.84121 0
M  V30 10592 H 989.746 0.593618 0.45346 0
M  V30 10593 H 992.408 1.87184 0.542985 0
M  V30 10594 H 991.504 2.42222 1.96812 0
M  V30 10595 N 991.805 -0.723954 1.39988 0
M  V30 10596 C 993.216 -1.30273 1.33738 0
M  V30 10597 C 993.567 -1.96199 0.00690581 0
M  V30 10598 O 992.692 -1.97016 -0.895179 0
M  V30 10599 C 993.287 -2.36889 2.42217 0
M  V30 10600 C 991.846 -2.90412 2.39453 0
M  V30 10601 C 990.993 -1.64103 2.2353 0
M  V30 10602 H 993.944 -0.520672 1.49916 0
M  V30 10603 H 993.965 -3.17538 2.09642 0
M  V30 10604 H 993.477 -1.88878 3.39038 0
M  V30 10605 H 991.578 -3.42674 1.46304 0
M  V30 10606 H 991.691 -3.42775 3.34727 0
M  V30 10607 H 990.055 -1.88855 1.70897 0
M  V30 10608 H 990.838 -1.18128 3.22336 0
M  V30 10609 N 993.283 -1.25346 -0.955304 0
M  V30 10610 C 994.56 -1.00829 -1.67609 0
M  V30 10611 C 994.94 0.465675 -2.059 0
M  V30 10612 O 994.288 1.44287 -1.77182 0
M  V30 10613 C 994.498 -1.94337 -2.89886 0
M  V30 10614 C 995.846 -2.22142 -3.61854 0
M  V30 10615 O 996.87 -1.9209 -2.99967 0
M  V30 10616 O 995.729 -2.73239 -4.73289 0
M  V30 10617 H 992.823 -0.382314 -0.733325 0
M  V30 10618 H 995.369 -1.36498 -1.00829 0
M  V30 10619 H 994.141 -2.93867 -2.58376 0
M  V30 10620 H 993.764 -1.59062 -3.64397 0
M  V30 10621 N 994.761 1.15782 -1.06922 0
M  V30 10622 C 995.671 2.24008 -0.696948 0
M  V30 10623 C 996.687 1.71569 0.289862 0
M  V30 10624 O 997.863 2.00929 0.137585 0
M  V30 10625 C 994.928 3.46568 -0.0957895 0
M  V30 10626 C 993.989 4.14017 -1.13528 0
M  V30 10627 C 993.222 5.30725 -0.562713 0
M  V30 10628 O 993.445 5.66992 0.62259 0
M  V30 10629 O 992.379 5.87572 -1.30549 0
M  V30 10630 H 996.205 2.58174 -1.59938 0
M  V30 10631 H 993.79 1.2342 -0.841889 0
M  V30 10632 H 995.672 4.20731 0.237407 0
M  V30 10633 H 994.347 3.14161 0.780027 0
M  V30 10634 H 993.254 3.41795 -1.52076 0
M  V30 10635 H 994.587 4.50493 -1.98285 0
M  V30 10636 N 996.239 0.8527 1.3254 0
M  V30 10637 C 997.487 0.454224 1.96929 0
M  V30 10638 C 997.808 -0.993034 1.67821 0
M  V30 10639 O 997.078 -1.69371 0.984393 0
M  V30 10640 H 995.658 0.164977 0.728554 0
M  V30 10641 H 998.32 1.0887 1.61658 0
M  V30 10642 H 997.416 0.597667 3.06324 0
M  V30 10643 N 997.718 -1.45297 0.610449 0
M  V30 10644 C 998.943 -2.07101 0.111414 0
M  V30 10645 C 999.368 -1.45161 -1.19625 0
M  V30 10646 O 998.726 -0.545368 -1.72903 0
M  V30 10647 C 998.774 -3.60598 -0.0117372 0
M  V30 10648 O 997.878 -3.98512 -1.06122 0
M  V30 10649 H 997.219 -0.659709 0.075364 0
M  V30 10650 H 999.749 -1.86504 0.841269 0
M  V30 10651 H 999.759 -4.07464 -0.209028 0
M  V30 10652 H 998.434 -4.05067 0.943076 0
M  V30 10653 H 997.011 -3.63312 -0.840158 0
M  V30 10654 O 999.235 -0.491964 -1.53824 0
M  V30 10655 H 999.926 0.0280053 -1.9368 0
M  V30 END ATOM
M  V30 BEGIN BOND
M  V30 END BOND
M  V30 END CTAB
M  END
$$$$
