drugbank_target|P98170 E3 ubiquitin-protein ligase XIAP (DB02628; DB04209; DB04612; DB06184)
 OpenBabel12092119483D

  0  0  0     0  0            999 V3000
M  V30 BEGIN CTAB
M  V30 COUNTS 7806 7900 0 0 0
M  V30 BEGIN ATOM
M  V30 1 H -0.908 1.98254 -0.117106 0
M  V30 2 N 0 1.576 0 0
M  V30 3 C 0.933 2.03868 1.02534 0
M  V30 4 C 1.911 0.928543 1.3348 0
M  V30 5 O 3.095 1.19667 1.45644 0
M  V30 6 C 0.222 2.43627 2.35294 0
M  V30 7 C -0.732 3.65373 2.2001 0
M  V30 8 S 0.101 5.13292 1.52614 0
M  V30 9 C 1.257 5.56322 2.86805 0
M  V30 10 H 1.49 2.90518 0.631377 0
M  V30 11 H -0.977 1.52953 0.210867 0
M  V30 12 H 0.981 2.67203 3.11629 0
M  V30 13 H -0.358 1.57376 2.7183 0
M  V30 14 H -1.165 3.90944 3.18086 0
M  V30 15 H -1.563 3.418 1.51819 0
M  V30 16 H 0.729 5.58782 3.83104 0
M  V30 17 H 1.672 6.56266 2.65933 0
M  V30 18 H 2.08 4.83886 2.90714 0
M  V30 19 N 1.4781 -0.272755 1.55222 0
M  V30 20 C 2.7061 -1.02255 1.79865 0
M  V30 21 C 3.1211 -1.79924 0.572088 0
M  V30 22 O 2.4781 -1.76638 -0.458842 0
M  V30 23 C 2.5291 -1.98094 3.02392 0
M  V30 24 O 2.2501 -1.23572 4.20311 0
M  V30 25 C 3.7511 -2.84884 3.39641 0
M  V30 26 H 0.9711 -0.302057 0.599168 0
M  V30 27 H 3.5151 -0.303465 2.02236 0
M  V30 28 H 1.6701 -2.65465 2.82147 0
M  V30 29 H 2.0841 -1.88172 4.89583 0
M  V30 30 H 3.5581 -3.47927 4.28545 0
M  V30 31 H 4.0351 -3.54665 2.59055 0
M  V30 32 H 4.6411 -2.23003 3.62146 0
M  V30 33 N 2.9562 -1.48159 -0.537278 0
M  V30 34 C 4.2032 -1.55804 -1.29349 0
M  V30 35 C 4.5312 -0.228802 -1.9315 0
M  V30 36 O 3.7862 0.780242 -1.79473 0
M  V30 37 C 4.0852 -2.63956 -2.40961 0
M  V30 38 C 3.7512 -4.0662 -1.94861 0
M  V30 39 C 2.4132 -4.45452 -1.82006 0
M  V30 40 C 4.7652 -4.96055 -1.59933 0
M  V30 41 C 2.0932 -5.71531 -1.32547 0
M  V30 42 C 4.4452 -6.22617 -1.11939 0
M  V30 43 C 3.1092 -6.60312 -0.976951 0
M  V30 44 H 2.3792 -0.570129 -0.473322 0
M  V30 45 H 5.0262 -1.81845 -0.600372 0
M  V30 46 H 3.3312 -2.31747 -3.15912 0
M  V30 47 H 5.0282 -2.67089 -2.99107 0
M  V30 48 H 1.6182 -3.75949 -2.05815 0
M  V30 49 H 5.8022 -4.66738 -1.68728 0
M  V30 50 H 1.0582 -5.99468 -1.202 0
M  V30 51 H 5.2322 -6.91318 -0.839811 0
M  V30 52 H 2.8592 -7.57895 -0.591501 0
M  V30 53 N 4.4343 0.785586 -1.36625 0
M  V30 54 C 5.3823 1.91978 -1.31329 0
M  V30 55 C 6.3763 1.68162 -0.204416 0
M  V30 56 O 7.5823 1.76122 -0.371645 0
M  V30 57 H 3.9573 0.631087 -0.408942 0
M  V30 58 H 5.9283 1.93562 -2.27104 0
M  V30 59 C 4.6773 3.29055 -1.12329 0
M  V30 60 H 4.0003 3.4795 -1.96903 0
M  V30 61 H 5.4403 4.08756 -1.12671 0
M  V30 62 C 3.8993 3.36461 0.171861 0
M  V30 63 O 4.4293 3.84576 1.16035 0
M  V30 64 N 2.6353 2.89782 0.217846 0
M  V30 65 H 2.1823 2.50819 -0.587183 0
M  V30 66 H 2.1403 2.95119 1.08408 0
M  V30 67 N 5.9124 1.20967 1.01018 0
M  V30 68 C 7.1374 1.0503 1.78839 0
M  V30 69 C 7.5624 -0.395752 1.8389 0
M  V30 70 O 6.9204 -1.28529 1.27867 0
M  V30 71 C 6.9684 1.64602 3.2084 0
M  V30 72 O 6.0724 0.887988 4.02726 0
M  V30 73 H 5.4134 0.369987 0.551367 0
M  V30 74 H 7.9434 1.60399 1.27018 0
M  V30 75 H 7.9534 1.68607 3.71532 0
M  V30 76 H 6.6284 2.69841 3.16479 0
M  V30 77 H 5.2054 0.922648 3.61305 0
M  V30 78 N 7.3905 -1.2043 1.01659 0
M  V30 79 C 8.6375 -1.89797 0.705917 0
M  V30 80 C 8.9655 -1.78848 -0.764439 0
M  V30 81 O 8.2205 -1.16694 -1.57102 0
M  V30 82 C 8.5195 -3.40464 1.08714 0
M  V30 83 C 8.1855 -3.71614 2.5537 0
M  V30 84 C 6.8475 -3.79826 2.95441 0
M  V30 85 C 9.1995 -3.85915 3.50313 0
M  V30 86 C 6.5275 -3.99797 4.29394 0
M  V30 87 C 8.8795 -4.07396 4.83954 0
M  V30 88 C 7.5435 -4.13837 5.23732 0
M  V30 89 H 6.8135 -0.694518 0.258313 0
M  V30 90 H 9.4605 -1.42691 1.27717 0
M  V30 91 H 7.7655 -3.89385 0.434309 0
M  V30 92 H 9.4625 -3.92433 0.824461 0
M  V30 93 H 6.0525 -3.65822 2.23321 0
M  V30 94 H 10.2365 -3.78926 3.20513 0
M  V30 95 H 5.4925 -4.03018 4.59768 0
M  V30 96 H 9.6665 -4.17404 5.57447 0
M  V30 97 H 7.2935 -4.29064 6.27541 0
M  V30 98 N 8.8686 -0.792821 -1.36206 0
M  V30 99 C 9.7786 -0.194808 -2.3379 0
M  V30 100 C 10.7946 0.654869 -1.61206 0
M  V30 101 O 11.9706 0.569856 -1.9317 0
M  V30 102 C 9.0356 0.657721 -3.40404 0
M  V30 103 C 8.0966 -0.210849 -4.28782 0
M  V30 104 C 7.3296 0.601086 -5.30304 0
M  V30 105 O 7.5526 1.83682 -5.40016 0
M  V30 106 O 6.4866 -0.000808277 -6.019 0
M  V30 107 H 10.3126 -1.00172 -2.86704 0
M  V30 108 H 7.8976 -0.554341 -1.38735 0
M  V30 109 H 9.7796 1.14375 -4.05581 0
M  V30 110 H 8.4546 1.44247 -2.89784 0
M  V30 111 H 7.3616 -0.743714 -3.66633 0
M  V30 112 H 8.6946 -0.959195 -4.82763 0
M  V30 113 N 10.3467 1.47872 -0.545128 0
M  V30 114 C 11.5947 2.02093 -0.016553 0
M  V30 115 C 11.9157 1.42305 1.3332 0
M  V30 116 O 11.1857 0.593853 1.86682 0
M  V30 117 H 9.7657 0.746993 -0.00313038 0
M  V30 118 H 12.4277 1.81414 -0.712397 0
M  V30 119 H 11.5237 3.11996 0.0805422 0
M  V30 120 N 11.8248 0.280983 1.55075 0
M  V30 121 C 13.0498 -0.340154 2.04592 0
M  V30 122 C 13.4748 -1.48246 1.15779 0
M  V30 123 O 12.8328 -1.80614 0.15761 0
M  V30 124 C 12.8808 -0.793104 3.5177 0
M  V30 125 O 11.9848 -1.89981 3.66034 0
M  V30 126 H 11.3258 -0.0694289 0.66036 0
M  V30 127 H 13.8558 0.416993 2.00306 0
M  V30 128 H 13.8658 -1.08729 3.93245 0
M  V30 129 H 12.5408 0.0426163 4.15878 0
M  V30 130 H 11.1178 -1.60771 3.36463 0
M  V30 131 N 13.3029 -1.57598 0.00835791 0
M  V30 132 C 14.2499 -2.08945 -0.980346 0
M  V30 133 C 15.2199 -0.986738 -1.33614 0
M  V30 134 O 16.4049 -1.25968 -1.43306 0
M  V30 135 C 13.5449 -2.60425 -2.26435 0
M  V30 136 C 12.6579 -3.84628 -1.96685 0
M  V30 137 C 11.7929 -4.24579 -3.19228 0
M  V30 138 C 10.8319 -5.41596 -2.85202 0
M  V30 139 N 9.9689 -5.768 -4.00307 0
M  V30 140 H 14.8089 -2.93148 -0.535551 0
M  V30 141 H 12.3459 -1.44912 -0.252776 0
M  V30 142 H 14.3039 -2.88354 -3.01509 0
M  V30 143 H 12.9339 -1.79083 -2.68568 0
M  V30 144 H 11.9859 -3.63556 -1.11942 0
M  V30 145 H 13.2979 -4.69796 -1.67611 0
M  V30 146 H 12.4519 -4.53834 -4.02641 0
M  V30 147 H 11.1909 -3.38137 -3.51447 0
M  V30 148 H 10.1959 -5.12056 -2.00198 0
M  V30 149 H 11.4209 -6.29721 -2.54222 0
M  V30 150 H 9.3669 -4.93316 -4.32407 0
M  V30 151 H 9.2839 -6.5656 -3.74786 0
M  V30 152 H 10.5519 -6.10652 -4.84484 0
M  V30 153 N 14.781 0.264519 -1.55364 0
M  V30 154 C 16.009 1.013 -1.80405 0
M  V30 155 C 16.424 1.79618 -0.581622 0
M  V30 156 O 15.781 1.76879 0.449468 0
M  V30 157 C 15.832 1.96487 -3.03439 0
M  V30 158 O 15.553 1.21341 -4.20961 0
M  V30 159 C 17.054 2.83079 -3.41147 0
M  V30 160 H 14.274 0.298875 -0.600762 0
M  V30 161 H 16.818 0.292736 -2.02394 0
M  V30 162 H 14.973 2.63965 -2.83551 0
M  V30 163 H 15.387 1.85573 -4.90574 0
M  V30 164 H 16.861 3.4565 -4.30384 0
M  V30 165 H 17.338 3.53286 -2.60932 0
M  V30 166 H 17.944 2.2108 -3.63323 0
M  V30 167 N 16.2591 1.48442 0.529413 0
M  V30 168 C 17.4991 1.58086 1.29569 0
M  V30 169 C 17.8631 0.249302 1.90375 0
M  V30 170 O 19.0641 0.220738 2.67892 0
M  V30 171 C 17.3351 2.68793 2.35552 0
M  V30 172 S 18.8941 2.98207 3.21898 0
M  V30 173 H 15.7121 0.557922 0.440732 0
M  V30 174 H 18.3141 1.85966 0.603059 0
M  V30 175 H 17.0181 3.64102 1.89363 0
M  V30 176 H 16.5491 2.42817 3.09522 0
M  V30 177 H 18.5641 2.37548 4.35644 0
M  V30 178 N 17.7372 -0.778329 1.37039 0
M  V30 179 C 18.9832 -1.53892 1.32079 0
M  V30 180 C 19.3162 -1.9396 -0.0965386 0
M  V30 181 O 18.5912 -1.63568 -1.05242 0
M  V30 182 C 18.8742 -2.80847 2.25382 0
M  V30 183 C 18.7272 -2.47076 3.75864 0
M  V30 184 C 20.0462 -3.82741 2.1725 0
M  V30 185 H 17.1652 -0.558303 0.48111 0
M  V30 186 H 19.8072 -0.893397 1.67685 0
M  V30 187 H 17.9572 -3.35931 1.95148 0
M  V30 188 H 19.6292 -1.97957 4.16666 0
M  V30 189 H 17.8722 -1.79863 3.94755 0
M  V30 190 H 18.5432 -3.37798 4.36574 0
M  V30 191 H 21.0192 -3.37133 2.43887 0
M  V30 192 H 19.8952 -4.69303 2.84686 0
M  V30 193 H 20.1562 -4.2652 1.16331 0
M  V30 194 N 19.2153 -1.21501 -1.00376 0
M  V30 195 C 20.6263 -1.03146 -1.55621 0
M  V30 196 C 20.9773 0.408375 -1.91903 0
M  V30 197 O 20.1023 1.29177 -1.73616 0
M  V30 198 C 20.6973 -1.86612 -2.82775 0
M  V30 199 C 19.2563 -1.72586 -3.34501 0
M  V30 200 C 18.4033 -1.83747 -2.07683 0
M  V30 201 H 21.3543 -1.35505 -0.826081 0
M  V30 202 H 21.3753 -1.3771 -3.54706 0
M  V30 203 H 20.8873 -2.91399 -2.56336 0
M  V30 204 H 18.9883 -0.704877 -3.65872 0
M  V30 205 H 19.1013 -2.54623 -4.05837 0
M  V30 206 H 17.4653 -1.27069 -2.20739 0
M  V30 207 H 18.2483 -2.90044 -1.83655 0
M  V30 208 N 20.6934 1.19889 -1.02296 0
M  V30 209 C 21.6564 2.21116 -0.603351 0
M  V30 210 C 22.6564 1.5738 0.329884 0
M  V30 211 O 23.8464 1.73802 0.117702 0
M  V30 212 C 20.9784 3.40696 0.117992 0
M  V30 213 H 22.1714 2.59754 -1.49893 0
M  V30 214 H 19.7244 1.33463 -0.813468 0
M  V30 215 H 20.4594 3.07569 1.0282 0
M  V30 216 H 20.2444 3.88188 -0.552511 0
M  V30 217 H 21.7344 4.15692 0.398696 0
M  V30 218 N 22.1715 0.800033 1.35784 0
M  V30 219 C 23.4485 0.30088 1.93272 0
M  V30 220 C 23.8285 -1.20857 1.73081 0
M  V30 221 O 23.1765 -2.00502 1.09596 0
M  V30 222 C 23.3865 0.70511 3.41803 0
M  V30 223 C 24.7345 0.690871 4.18942 0
M  V30 224 O 25.7585 0.646244 3.50289 0
M  V30 225 O 24.6175 0.74332 5.41421 0
M  V30 226 H 21.7115 0.0771605 0.823393 0
M  V30 227 H 24.2575 0.88329 1.449 0
M  V30 228 H 23.0295 1.74571 3.50201 0
M  V30 229 H 22.6525 0.0971541 3.97481 0
M  V30 230 N 23.6496 -1.47581 0.552962 0
M  V30 231 C 24.8986 -2.01684 0.0251995 0
M  V30 232 C 25.2116 -1.43317 -1.33115 0
M  V30 233 O 26.4176 -1.89057 -1.94858 0
M  V30 234 C 24.8736 -3.599 -0.00542052 0
M  V30 235 C 24.4816 -4.27257 1.34742 0
M  V30 236 C 26.2256 -4.21768 -0.4808 0
M  V30 237 C 24.1326 -5.77467 1.27614 0
M  V30 238 H 23.0626 -0.753979 0.00565033 0
M  V30 239 H 25.7136 -1.69616 0.70018 0
M  V30 240 H 24.0956 -3.88911 -0.745961 0
M  V30 241 H 25.2696 -4.09893 2.10534 0
M  V30 242 H 23.5846 -3.77358 1.76039 0
M  V30 243 H 26.1816 -5.31838 -0.55246 0
M  V30 244 H 26.5246 -3.88651 -1.49184 0
M  V30 245 H 27.0576 -3.97273 0.204752 0
M  V30 246 H 23.7966 -6.15196 2.26304 0
M  V30 247 H 23.3166 -5.9718 0.55996 0
M  V30 248 H 24.9956 -6.3959 0.976421 0
M  V30 249 N 25.1277 -0.289203 -1.54924 0
M  V30 250 C 26.0757 0.607966 -2.24514 0
M  V30 251 C 27.0697 1.14655 -1.24702 0
M  V30 252 O 28.2757 1.09856 -1.4259 0
M  V30 253 H 24.6507 0.21464 -0.720718 0
M  V30 254 H 26.6217 -0.00164182 -2.984 0
M  V30 255 C 25.3707 1.77406 -2.99036 0
M  V30 256 H 24.6937 1.36884 -3.75637 0
M  V30 257 H 26.1337 2.37814 -3.51028 0
M  V30 258 C 24.5927 2.67107 -2.05318 0
M  V30 259 O 25.1227 3.6787 -1.61353 0
M  V30 260 N 23.3287 2.34582 -1.71521 0
M  V30 261 H 22.8757 1.52688 -2.07471 0
M  V30 262 H 22.8337 2.94867 -1.0909 0
M  V30 263 N 26.6058 1.57591 -0.0167156 0
M  V30 264 C 27.5528 2.09462 0.969251 0
M  V30 265 C 28.5228 0.99381 1.33089 0
M  V30 266 O 29.7078 1.26726 1.42636 0
M  V30 267 C 26.8478 2.61622 2.25051 0
M  V30 268 C 25.9608 3.85666 1.94642 0
M  V30 269 C 25.0958 4.26266 3.16972 0
M  V30 270 C 24.1348 5.43101 2.82326 0
M  V30 271 N 23.2718 5.78915 3.97243 0
M  V30 272 H 28.1118 2.93428 0.519997 0
M  V30 273 H 25.6488 1.45044 0.245087 0
M  V30 274 H 27.6068 2.89949 2.99976 0
M  V30 275 H 26.2368 1.80505 2.67615 0
M  V30 276 H 25.2888 3.64145 1.10013 0
M  V30 277 H 26.6008 4.70678 1.65117 0
M  V30 278 H 25.7548 4.55963 4.00228 0
M  V30 279 H 24.4938 3.39996 3.49648 0
M  V30 280 H 23.4988 5.1311 1.97479 0
M  V30 281 H 24.7238 6.3106 2.50879 0
M  V30 282 H 22.6698 4.95602 4.29785 0
M  V30 283 H 22.5868 6.58539 3.71299 0
M  V30 284 H 23.8548 6.13212 4.81239 0
M  V30 285 N 28.0839 -0.256276 1.55502 0
M  V30 286 C 28.9939 -1.33882 1.92647 0
M  V30 287 C 30.0099 -1.53159 0.825727 0
M  V30 288 O 31.1859 -1.66963 1.12629 0
M  V30 289 C 28.2509 -2.6751 2.20543 0
M  V30 290 C 27.3119 -2.56836 3.43997 0
M  V30 291 C 26.5449 -3.84092 3.70553 0
M  V30 292 O 26.7679 -4.85545 2.99336 0
M  V30 293 O 25.7019 -3.83288 4.64084 0
M  V30 294 H 29.5279 -1.05374 2.84833 0
M  V30 295 H 27.1129 -0.456237 1.42263 0
M  V30 296 H 28.9949 -3.46492 2.39835 0
M  V30 297 H 27.6699 -2.9577 1.31536 0
M  V30 298 H 26.5769 -1.76172 3.30021 0
M  V30 299 H 27.9099 -2.33523 4.33275 0
M  V30 300 N 29.562 -1.4872 -0.521534 0
M  V30 301 C 30.472 -1.66569 -1.65203 0
M  V30 302 C 31.488 -0.548197 -1.65139 0
M  V30 303 O 32.664 -0.820339 -1.83936 0
M  V30 304 C 29.729 -1.70917 -3.01642 0
M  V30 305 C 28.79 -2.94356 -3.12495 0
M  V30 306 C 28.023 -2.98487 -4.42426 0
M  V30 307 O 28.246 -2.10786 -5.30024 0
M  V30 308 O 27.18 -3.90746 -4.57822 0
M  V30 309 H 31.006 -2.62298 -1.5308 0
M  V30 310 H 28.591 -1.3222 -0.695565 0
M  V30 311 H 30.473 -1.7625 -3.82771 0
M  V30 312 H 29.148 -0.783633 -3.14071 0
M  V30 313 H 28.055 -2.94552 -2.3063 0
M  V30 314 H 29.388 -3.86322 -3.04986 0
M  V30 315 N 31.0401 0.771051 -1.3745 0
M  V30 316 C 31.9501 1.91538 -1.35464 0
M  V30 317 C 32.9661 1.72134 -0.254123 0
M  V30 318 O 34.1421 1.95358 -0.489626 0
M  V30 319 C 31.2071 3.26671 -1.16134 0
M  V30 320 C 30.2681 3.58723 -2.35831 0
M  V30 321 C 29.5011 4.87409 -2.17413 0
M  V30 322 O 29.7241 5.58506 -1.15876 0
M  V30 323 O 28.6581 5.18539 -3.05615 0
M  V30 324 H 32.4841 1.96165 -2.31847 0
M  V30 325 H 30.0691 0.9139 -1.18187 0
M  V30 326 H 31.9511 4.07499 -1.07345 0
M  V30 327 H 30.6261 3.22894 -0.228251 0
M  V30 328 H 29.5331 2.78127 -2.50192 0
M  V30 329 H 30.8661 3.67243 -3.27709 0
M  V30 330 N 32.5182 1.22032 0.997298 0
M  V30 331 C 33.7652 1.04222 1.73621 0
M  V30 332 C 34.0932 -0.423264 1.89839 0
M  V30 333 O 33.3482 -1.3302 1.43542 0
M  V30 334 C 33.6472 1.69345 3.14733 0
M  V30 335 C 33.3132 3.19226 3.18442 0
M  V30 336 C 31.9752 3.60124 3.19161 0
M  V30 337 C 34.3272 4.15181 3.15078 0
M  V30 338 C 31.6552 4.95467 3.14212 0
M  V30 339 C 34.0072 5.50495 3.1167 0
M  V30 340 C 32.6712 5.90779 3.10703 0
M  V30 341 H 31.9412 0.381374 0.635323 0
M  V30 342 H 34.5882 1.51732 1.16831 0
M  V30 343 H 32.8932 1.14147 3.74803 0
M  V30 344 H 34.5902 1.53059 3.7064 0
M  V30 345 H 31.1802 2.86659 3.18629 0
M  V30 346 H 35.3642 3.84605 3.13676 0
M  V30 347 H 30.6202 5.25916 3.11805 0
M  V30 348 H 34.7942 6.24576 3.08022 0
M  V30 349 H 32.4212 6.9562 3.06622 0
M  V30 350 N 33.9963 -1.19345 1.0293 0
M  V30 351 C 35.2423 -1.89318 0.727083 0
M  V30 352 C 35.5753 -1.79446 -0.742483 0
M  V30 353 O 34.8503 -1.1871 -1.54072 0
M  V30 354 C 35.1333 -3.40238 1.17942 0
M  V30 355 C 34.9863 -3.58979 2.71024 0
M  V30 356 C 36.3053 -4.33479 0.760548 0
M  V30 357 H 33.4243 -0.687475 0.265606 0
M  V30 358 H 36.0663 -1.40477 1.2793 0
M  V30 359 H 34.2163 -3.81964 0.709608 0
M  V30 360 H 35.8883 -3.26421 3.25955 0
M  V30 361 H 34.1313 -3.02018 3.11396 0
M  V30 362 H 34.8023 -4.64823 2.9773 0
M  V30 363 H 37.2783 -3.99469 1.16464 0
M  V30 364 H 36.1543 -5.37664 1.10493 0
M  V30 365 H 36.4153 -4.40813 -0.337063 0
M  V30 366 N 35.4744 -0.807222 -1.35358 0
M  V30 367 C 36.3844 -0.219594 -2.3357 0
M  V30 368 C 37.4004 0.637734 -1.61892 0
M  V30 369 O 38.5764 0.549336 -1.93763 0
M  V30 370 C 35.6414 0.62158 -3.41083 0
M  V30 371 C 34.7024 -0.256315 -4.28534 0
M  V30 372 C 33.9354 0.544807 -5.30912 0
M  V30 373 O 34.1584 1.77944 -5.41934 0
M  V30 374 O 33.0924 -0.0646478 -6.01865 0
M  V30 375 H 36.9184 -1.03208 -2.85625 0
M  V30 376 H 34.5034 -0.569025 -1.38139 0
M  V30 377 H 36.3854 1.10067 -4.06772 0
M  V30 378 H 35.0604 1.41165 -2.91297 0
M  V30 379 H 33.9674 -0.782559 -3.65823 0
M  V30 380 H 35.3004 -1.01034 -4.81719 0
M  V30 381 N 36.9525 1.47285 -0.560781 0
M  V30 382 C 37.8625 2.33846 0.187954 0
M  V30 383 C 38.8785 1.48412 0.908293 0
M  V30 384 O 40.0545 1.81332 0.876388 0
M  V30 385 C 37.1195 3.25178 1.2025 0
M  V30 386 C 36.1805 4.26504 0.489208 0
M  V30 387 C 35.4135 5.13472 1.45542 0
M  V30 388 O 35.6365 5.02959 2.6905 0
M  V30 389 O 34.5705 5.93902 0.977963 0
M  V30 390 H 38.3965 2.99177 -0.522177 0
M  V30 391 H 35.9815 1.45903 -0.321364 0
M  V30 392 H 37.8635 3.81584 1.78805 0
M  V30 393 H 36.5385 2.6247 1.89449 0
M  V30 394 H 35.4455 3.73847 -0.137627 0
M  V30 395 H 36.7785 4.91935 -0.161399 0
M  V30 396 N 38.4306 0.297415 1.54768 0
M  V30 397 C 39.6776 -0.312913 2.00068 0
M  V30 398 C 40.0056 -1.54171 1.18582 0
M  V30 399 O 39.2606 -1.94108 0.249133 0
M  V30 400 C 39.5596 -0.717561 3.50123 0
M  V30 401 C 39.2256 0.409095 4.4904 0
M  V30 402 C 37.8876 0.718399 4.75807 0
M  V30 403 C 40.2396 1.16717 5.07963 0
M  V30 404 C 37.5676 1.78896 5.5876 0
M  V30 405 C 39.9196 2.22762 5.92081 0
M  V30 406 C 38.5836 2.54303 6.1716 0
M  V30 407 H 37.8536 -0.114503 0.7321 0
M  V30 408 H 40.5006 0.415767 1.86932 0
M  V30 409 H 38.8056 -1.52627 3.60849 0
M  V30 410 H 40.5026 -1.20091 3.82595 0
M  V30 411 H 37.0926 0.157918 4.28309 0
M  V30 412 H 41.2766 0.941466 4.87289 0
M  V30 413 H 36.5326 2.0381 5.7643 0
M  V30 414 H 40.7066 2.81962 6.36765 0
M  V30 415 H 38.3336 3.3739 6.81229 0
M  V30 416 N 39.9087 -1.5758 0.0250728 0
M  V30 417 C 40.8567 -2.11125 -0.97617 0
M  V30 418 C 41.8507 -1.03689 -1.33959 0
M  V30 419 O 43.0567 -1.22128 -1.3223 0
M  V30 420 H 39.4317 -0.674468 -0.332561 0
M  V30 421 H 41.4027 -2.94194 -0.499223 0
M  V30 422 C 40.1517 -2.65017 -2.2508 0
M  V30 423 H 39.4747 -3.47333 -1.9799 0
M  V30 424 H 40.9147 -3.06133 -2.93357 0
M  V30 425 C 39.3737 -1.57574 -2.97779 0
M  V30 426 O 39.9037 -0.973203 -3.89733 0
M  V30 427 N 38.1097 -1.29716 -2.60043 0
M  V30 428 H 37.6567 -1.789 -1.85345 0
M  V30 429 H 37.6147 -0.58051 -3.08994 0
M  V30 430 N 41.3868 0.248026 -1.55636 0
M  V30 431 C 42.8028 0.596483 -1.48035 0
M  V30 432 C 43.0028 1.88386 -0.715039 0
M  V30 433 O 42.0588 2.51319 -0.243944 0
M  V30 434 C 43.3718 0.700258 -2.92433 0
M  V30 435 C 44.9198 0.792659 -3.02797 0
M  V30 436 C 45.3948 0.928005 -4.485 0
M  V30 437 N 46.8858 0.992903 -4.52433 0
M  V30 438 C 47.6208 1.11687 -5.62418 0
M  V30 439 N 47.1168 1.20645 -6.82214 0
M  V30 440 N 48.9098 1.14994 -5.50212 0
M  V30 441 H 41.0608 -0.597109 -2.03834 0
M  V30 442 H 43.3238 -0.205925 -0.925364 0
M  V30 443 H 43.0298 -0.175658 -3.51261 0
M  V30 444 H 42.9038 1.57255 -3.42857 0
M  V30 445 H 45.2908 1.65903 -2.4405 0
M  V30 446 H 45.3718 -0.104762 -2.55585 0
M  V30 447 H 45.0158 0.0661971 -5.07857 0
M  V30 448 H 44.9458 1.84045 -4.93391 0
M  V30 449 H 47.4368 0.935064 -3.66149 0
M  V30 450 H 47.7498 1.30008 -7.61786 0
M  V30 451 H 46.0948 1.17605 -6.84977 0
M  V30 452 H 49.2858 1.07643 -4.55555 0
M  V30 453 H 49.4588 1.24311 -6.35965 0
M  V30 454 N 42.8649 1.48995 0.513639 0
M  V30 455 C 43.7949 1.67636 1.62544 0
M  V30 456 C 44.7759 0.525087 1.61793 0
M  V30 457 O 45.9609 0.759502 1.78732 0
M  V30 458 C 43.0909 1.73114 3.01079 0
M  V30 459 C 42.0449 2.87905 3.16693 0
M  V30 460 C 41.3709 2.78486 4.56453 0
M  V30 461 C 42.6709 4.29005 2.97913 0
M  V30 462 H 44.3649 2.60716 1.47198 0
M  V30 463 H 41.9109 1.25465 0.706714 0
M  V30 464 H 43.8639 1.84742 3.78746 0
M  V30 465 H 42.5879 0.766241 3.17484 0
M  V30 466 H 41.2469 2.75859 2.41448 0
M  V30 467 H 40.8949 1.7993 4.69717 0
M  V30 468 H 40.5949 3.55523 4.67843 0
M  V30 469 H 42.1189 2.92104 5.36197 0
M  V30 470 H 43.5329 4.41798 3.65359 0
M  V30 471 H 41.9299 5.07166 3.20785 0
M  V30 472 H 42.9999 4.44329 1.94165 0
M  V30 473 N 44.343 -0.763751 1.37857 0
M  V30 474 C 45.29 -1.87726 1.34267 0
M  V30 475 C 46.26 -1.64807 0.206879 0
M  V30 476 O 47.445 -1.86613 0.397508 0
M  V30 477 C 44.585 -3.24896 1.16346 0
M  V30 478 C 43.698 -3.59716 2.39225 0
M  V30 479 C 42.833 -4.86137 2.14114 0
M  V30 480 C 41.872 -5.13711 3.32817 0
M  V30 481 N 41.009 -6.31323 3.07206 0
M  V30 482 H 45.849 -1.90129 2.29466 0
M  V30 483 H 43.386 -0.929433 1.14017 0
M  V30 484 H 45.344 -4.04036 1.03975 0
M  V30 485 H 43.974 -3.21847 0.247909 0
M  V30 486 H 43.026 -2.75498 2.62307 0
M  V30 487 H 44.338 -3.76027 3.27728 0
M  V30 488 H 43.492 -5.73198 1.9882 0
M  V30 489 H 42.231 -4.71945 1.22961 0
M  V30 490 H 41.236 -4.25123 3.48641 0
M  V30 491 H 42.461 -5.29807 4.24832 0
M  V30 492 H 40.407 -6.18474 2.1869 0
M  V30 493 H 40.324 -6.48087 3.89254 0
M  V30 494 H 41.592 -7.213 2.95546 0
M  V30 495 N 45.8211 -1.22559 -0.990812 0
M  V30 496 C 47.0491 -1.07779 -1.76611 0
M  V30 497 C 47.4641 0.371513 -1.85109 0
M  V30 498 O 46.8211 1.25737 -1.32274 0
M  V30 499 C 46.8721 -1.68512 -3.19822 0
M  V30 500 O 46.5931 -3.07774 -3.1178 0
M  V30 501 C 48.0941 -1.59035 -4.13791 0
M  V30 502 H 45.3141 -0.377729 -0.554583 0
M  V30 503 H 47.8581 -1.62195 -1.24551 0
M  V30 504 H 46.0131 -1.18154 -3.68942 0
M  V30 505 H 46.4271 -3.37062 -4.01858 0
M  V30 506 H 47.9011 -2.0625 -5.1202 0
M  V30 507 H 48.3781 -0.547273 -4.35777 0
M  V30 508 H 48.9841 -2.08709 -3.70568 0
M  V30 509 N 47.2992 1.18797 -1.03562 0
M  V30 510 C 48.5462 1.8865 -0.736023 0
M  V30 511 C 48.8742 1.80041 0.735889 0
M  V30 512 O 48.1292 1.19179 1.55225 0
M  V30 513 C 48.4282 3.38692 -1.14117 0
M  V30 514 C 48.0942 3.67504 -2.6125 0
M  V30 515 C 46.7562 3.75078 -3.01447 0
M  V30 516 C 49.1082 3.80293 -3.56408 0
M  V30 517 C 46.4362 3.92915 -4.35701 0
M  V30 518 C 48.7882 3.99645 -4.90374 0
M  V30 519 C 47.4522 4.05453 -5.30249 0
M  V30 520 H 46.7222 0.690321 -0.26933 0
M  V30 521 H 49.3692 1.40641 -1.29971 0
M  V30 522 H 47.6742 3.88645 -0.496202 0
M  V30 523 H 49.3712 3.91072 -0.886789 0
M  V30 524 H 45.9612 3.62223 -2.29113 0
M  V30 525 H 50.1452 3.73779 -3.26501 0
M  V30 526 H 45.4012 3.95653 -4.66121 0
M  V30 527 H 49.5752 4.08482 -5.64017 0
M  V30 528 H 47.2022 4.19027 -6.34288 0
M  V30 529 N 48.7773 0.814389 1.34928 0
M  V30 530 C 49.7403 0.235759 2.27984 0
M  V30 531 C 50.7403 -0.581412 1.49921 0
M  V30 532 O 51.9303 -0.398758 1.69575 0
M  V30 533 C 49.0623 -0.670433 3.34242 0
M  V30 534 H 50.2553 1.05659 2.80671 0
M  V30 535 H 47.8083 0.585614 1.44915 0
M  V30 536 H 48.5433 -1.51466 2.86755 0
M  V30 537 H 48.3283 -0.0860822 3.92005 0
M  V30 538 H 49.8183 -1.06935 4.03676 0
M  V30 539 N 50.2554 -1.46986 0.568584 0
M  V30 540 C 51.2034 -2.31858 -0.185649 0
M  V30 541 C 52.1974 -1.43624 -0.898249 0
M  V30 542 O 53.4034 -1.60327 -0.818242 0
M  V30 543 H 49.7784 -0.747866 -0.0787399 0
M  V30 544 H 51.7494 -2.93303 0.549191 0
M  V30 545 C 50.4984 -3.26513 -1.19519 0
M  V30 546 H 49.8214 -3.94377 -0.656285 0
M  V30 547 H 51.2614 -3.88707 -1.6936 0
M  V30 548 C 49.7204 -2.50847 -2.24894 0
M  V30 549 O 50.2504 -2.26119 -3.32014 0
M  V30 550 N 48.4564 -2.11656 -1.99124 0
M  V30 551 H 48.0034 -2.31966 -1.12024 0
M  V30 552 H 47.9614 -1.61347 -2.69842 0
M  V30 553 N 51.7335 -0.305618 -1.54608 0
M  V30 554 C 52.9805 0.302298 -2.00231 0
M  V30 555 C 53.3085 1.5354 -1.19398 0
M  V30 556 O 52.5635 1.93973 -0.259423 0
M  V30 557 C 52.8625 0.698983 -3.50498 0
M  V30 558 C 52.5285 -0.432903 -4.48817 0
M  V30 559 C 51.1905 -0.743622 -4.75419 0
M  V30 560 C 53.5425 -1.19409 -5.07337 0
M  V30 561 C 50.8705 -1.81857 -5.57804 0
M  V30 562 C 53.2225 -2.25899 -5.90891 0
M  V30 563 C 51.8865 -2.57572 -6.15803 0
M  V30 564 H 51.1565 0.110619 -0.732697 0
M  V30 565 H 53.8035 -0.425674 -1.86709 0
M  V30 566 H 52.1085 1.50711 -3.61654 0
M  V30 567 H 53.8055 1.1806 -3.83227 0
M  V30 568 H 50.3955 -0.18063 -4.28219 0
M  V30 569 H 54.5795 -0.967295 -4.86782 0
M  V30 570 H 49.8355 -2.06864 -5.75341 0
M  V30 571 H 54.0095 -2.85335 -6.35261 0
M  V30 572 H 51.6365 -3.40998 -6.7943 0
M  V30 573 N 53.2116 1.57565 -0.0334293 0
M  V30 574 C 54.6226 1.79746 0.504798 0
M  V30 575 C 54.9736 0.944091 1.71992 0
M  V30 576 O 54.0986 0.155694 2.15839 0
M  V30 577 C 54.6936 3.25997 0.922567 0
M  V30 578 C 53.2526 3.49159 1.40588 0
M  V30 579 C 52.3996 2.74785 0.372633 0
M  V30 580 H 55.3506 1.56565 -0.259436 0
M  V30 581 H 55.3716 3.35945 1.78666 0
M  V30 582 H 54.8836 3.88081 0.0379825 0
M  V30 583 H 52.9846 2.92332 2.31025 0
M  V30 584 H 53.0976 4.57873 1.41028 0
M  V30 585 H 51.4616 2.40391 0.841672 0
M  V30 586 H 52.2446 3.39587 -0.503559 0
M  V30 587 N 54.6897 -0.239769 1.55765 0
M  V30 588 C 55.9147 -0.988373 1.82335 0
M  V30 589 C 56.3397 -1.77886 0.611421 0
M  V30 590 O 55.6977 -1.75889 -0.439639 0
M  V30 591 C 55.7457 -1.89627 3.06715 0
M  V30 592 O 54.8497 -2.98904 2.84131 0
M  V30 593 H 54.1907 -0.280858 0.601677 0
M  V30 594 H 56.7207 -0.258597 2.02959 0
M  V30 595 H 56.7307 -2.30957 3.36338 0
M  V30 596 H 55.4057 -1.31511 3.9456 0
M  V30 597 H 53.9827 -2.61651 2.65694 0
M  V30 598 N 56.1678 -1.49265 -0.50573 0
M  V30 599 C 57.4158 -1.582 -1.25766 0
M  V30 600 C 57.7368 -0.268482 -1.93143 0
M  V30 601 O 57.0068 0.711833 -1.8251 0
M  V30 602 H 55.5868 -0.582873 -0.467191 0
M  V30 603 H 58.2488 -1.85865 -0.586525 0
M  V30 604 H 57.3448 -2.37563 -2.02412 0
M  V30 605 N 57.6459 0.756429 -1.3826 0
M  V30 606 C 58.8709 1.55077 -1.37717 0
M  V30 607 C 59.2959 1.88073 0.03164 0
M  V30 608 O 58.6539 1.50364 1.01293 0
M  V30 609 C 58.7019 2.8283 -2.23695 0
M  V30 610 O 57.8059 3.77862 -1.6521 0
M  V30 611 H 57.1469 0.469152 -0.469885 0
M  V30 612 H 59.6769 0.935019 -1.81985 0
M  V30 613 H 59.6869 3.31783 -2.37453 0
M  V30 614 H 58.3619 2.58144 -3.2609 0
M  V30 615 H 56.9389 3.36555 -1.60578 0
M  V30 616 N 59.124 1.23083 0.984299 0
M  V30 617 C 60.535 1.05609 1.5396 0
M  V30 618 C 60.886 -0.377793 1.92528 0
M  V30 619 O 60.011 -1.26398 1.75649 0
M  V30 620 C 60.606 1.91087 2.7977 0
M  V30 621 C 59.165 1.77885 3.31713 0
M  V30 622 C 58.312 1.87028 2.04733 0
M  V30 623 H 61.263 1.36802 0.804419 0
M  V30 624 H 61.284 1.43336 3.5247 0
M  V30 625 H 60.796 2.9544 2.51668 0
M  V30 626 H 58.897 0.762995 3.64704 0
M  V30 627 H 59.01 2.61047 4.01735 0
M  V30 628 H 57.374 1.30565 2.18689 0
M  V30 629 H 58.157 2.92929 1.79017 0
M  V30 630 N 60.6021 -1.18246 1.0419 0
M  V30 631 C 61.8481 -1.88536 0.747122 0
M  V30 632 C 62.1811 -1.80223 -0.723409 0
M  V30 633 O 61.4561 -1.20337 -1.52804 0
M  V30 634 C 61.7391 -3.38968 1.21544 0
M  V30 635 C 61.5921 -3.56084 2.74816 0
M  V30 636 C 62.9111 -4.32648 0.806482 0
M  V30 637 H 60.0301 -0.684619 0.272883 0
M  V30 638 H 62.6721 -1.39113 1.29413 0
M  V30 639 H 60.8221 -3.8119 0.750081 0
M  V30 640 H 62.4941 -3.22946 3.29399 0
M  V30 641 H 60.7371 -2.98699 3.14582 0
M  V30 642 H 61.4081 -4.61639 3.02644 0
M  V30 643 H 63.8841 -3.98211 1.20695 0
M  V30 644 H 62.7601 -5.36462 1.1619 0
M  V30 645 H 63.0211 -4.41146 -0.29029 0
M  V30 646 N 62.0802 -0.821533 -1.34494 0
M  V30 647 C 63.3052 -0.420873 -2.03085 0
M  V30 648 C 63.7302 0.964915 -1.61465 0
M  V30 649 O 63.0882 1.62763 -0.798607 0
M  V30 650 C 63.1362 -0.529414 -3.56693 0
M  V30 651 O 62.2402 0.451302 -4.09923 0
M  V30 652 H 61.5812 -0.173489 -0.640935 0
M  V30 653 H 64.1112 -1.11157 -1.71771 0
M  V30 654 H 64.1212 -0.404671 -4.05988 0
M  V30 655 H 62.7962 -1.54014 -3.86332 0
M  V30 656 H 61.3732 0.285558 -3.71805 0
M  V30 657 N 63.5583 1.46682 -0.576371 0
M  V30 658 C 64.5213 2.28707 0.150239 0
M  V30 659 C 65.5213 1.38035 0.824794 0
M  V30 660 O 66.7113 1.60476 0.677719 0
M  V30 661 C 63.8433 3.18248 1.22192 0
M  V30 662 H 65.0363 2.94423 -0.570521 0
M  V30 663 H 62.5893 1.52688 -0.334078 0
M  V30 664 H 63.3243 2.57265 1.97447 0
M  V30 665 H 63.1093 3.85 0.742812 0
M  V30 666 H 64.5993 3.80001 1.73172 0
M  V30 667 N 65.0364 0.313813 1.54444 0
M  V30 668 C 66.2614 -0.296681 2.05267 0
M  V30 669 C 66.6864 -1.45757 1.18897 0
M  V30 670 O 66.0444 -1.80239 0.195886 0
M  V30 671 C 66.0924 -0.71831 3.53373 0
M  V30 672 O 65.1964 -1.82175 3.69981 0
M  V30 673 H 64.5374 -0.0554061 0.661684 0
M  V30 674 H 67.0674 0.459387 1.99376 0
M  V30 675 H 67.0774 -1.00364 3.95463 0
M  V30 676 H 65.7524 0.130821 4.15694 0
M  V30 677 H 64.3294 -1.53598 3.39797 0
M  V30 678 N 66.5145 -1.57545 0.0417849 0
M  V30 679 C 67.7425 -1.96624 -0.643928 0
M  V30 680 C 68.1575 -0.918897 -1.64929 0
M  V30 681 O 67.5145 0.0979323 -1.82237 0
M  V30 682 C 67.5655 -3.35781 -1.33914 0
M  V30 683 O 67.2865 -4.365 -0.374048 0
M  V30 684 C 68.7875 -3.89566 -2.1155 0
M  V30 685 H 66.0075 -0.647316 -0.176702 0
M  V30 686 H 68.5515 -2.04229 0.105304 0
M  V30 687 H 66.7065 -3.29357 -2.03968 0
M  V30 688 H 67.1205 -5.17248 -0.869179 0
M  V30 689 H 68.5945 -4.89242 -2.55628 0
M  V30 690 H 69.0715 -3.24488 -2.9598 0
M  V30 691 H 69.6775 -3.99298 -1.46427 0
M  V30 692 N 67.9926 0.231505 -1.5589 0
M  V30 693 C 68.9226 1.29022 -1.94617 0
M  V30 694 C 69.9036 1.4941 -0.813067 0
M  V30 695 O 71.0886 1.6176 -1.07459 0
M  V30 696 C 68.2186 2.64199 -2.25424 0
M  V30 697 C 67.1726 2.58484 -3.41131 0
M  V30 698 C 66.4986 3.97599 -3.57518 0
M  V30 699 C 67.7986 2.1413 -4.76388 0
M  V30 700 H 69.4926 0.968563 -2.83301 0
M  V30 701 H 67.0386 0.464479 -1.36303 0
M  V30 702 H 68.9916 3.38413 -2.51107 0
M  V30 703 H 67.7156 2.98032 -1.33583 0
M  V30 704 H 66.3746 1.86727 -3.15481 0
M  V30 705 H 66.0226 4.28723 -2.6307 0
M  V30 706 H 65.7226 3.94659 -4.35337 0
M  V30 707 H 67.2466 4.7349 -3.85538 0
M  V30 708 H 68.6606 2.78083 -5.01341 0
M  V30 709 H 67.0576 2.2227 -5.57419 0
M  V30 710 H 68.1276 1.09331 -4.72414 0
M  V30 711 N 69.4707 1.49531 0.497807 0
M  V30 712 C 70.4337 1.65916 1.58128 0
M  V30 713 C 71.4337 0.530825 1.51786 0
M  V30 714 O 72.6237 0.797342 1.54881 0
M  V30 715 C 69.7557 1.65951 2.9778 0
M  V30 716 H 70.9487 2.62556 1.44929 0
M  V30 717 H 68.5017 1.38611 0.722275 0
M  V30 718 H 69.2367 0.709065 3.16453 0
M  V30 719 H 69.0217 2.47897 3.03792 0
M  V30 720 H 70.5117 1.80673 3.76493 0
M  V30 721 N 70.9488 -0.749086 1.3866 0
M  V30 722 C 72.3648 -1.05276 1.19955 0
M  V30 723 C 72.5648 -2.01435 0.05134 0
M  V30 724 O 71.6208 -2.45232 -0.60147 0
M  V30 725 C 72.9338 -1.62853 2.52783 0
M  V30 726 C 74.4818 -1.75002 2.59506 0
M  V30 727 C 74.9568 -2.35991 3.92521 0
M  V30 728 N 76.4478 -2.43416 3.94085 0
M  V30 729 C 77.1828 -2.91511 4.9377 0
M  V30 730 N 76.6788 -3.39608 6.03853 0
M  V30 731 N 78.4718 -2.90592 4.81157 0
M  V30 732 H 70.6228 -0.111066 2.12109 0
M  V30 733 H 72.8858 -0.111901 0.941373 0
M  V30 734 H 72.5918 -0.99664 3.37283 0
M  V30 735 H 72.4658 -2.61854 2.715 0
M  V30 736 H 74.8528 -2.37317 1.75398 0
M  V30 737 H 74.9338 -0.74693 2.44652 0
M  V30 738 H 74.5778 -1.74308 4.77053 0
M  V30 739 H 74.5078 -3.3695 4.04688 0
M  V30 740 H 76.9988 -2.09405 3.14576 0
M  V30 741 H 77.3118 -3.74775 6.75843 0
M  V30 742 H 75.6568 -3.37653 6.07466 0
M  V30 743 H 78.8478 -2.52332 3.94267 0
M  V30 744 H 79.0208 -3.27762 5.58996 0
M  V30 745 N 72.4269 -1.23603 -0.977757 0
M  V30 746 C 73.3899 -1.02069 -2.05218 0
M  V30 747 C 74.3899 0.0184305 -1.60789 0
M  V30 748 O 75.5799 -0.221569 -1.72785 0
M  V30 749 C 72.7119 -0.544926 -3.36517 0
M  V30 750 H 73.9049 -1.9742 -2.25755 0
M  V30 751 H 71.4579 -1.05684 -1.15155 0
M  V30 752 H 72.1929 0.412241 -3.21669 0
M  V30 753 H 71.9779 -1.2948 -3.70105 0
M  V30 754 H 73.4679 -0.414985 -4.15533 0
M  V30 755 N 73.905 1.17692 -1.04816 0
M  V30 756 C 75.153 1.87488 -0.754497 0
M  V30 757 C 75.474 1.81205 0.720407 0
M  V30 758 O 74.744 1.23544 1.52032 0
M  V30 759 H 73.324 0.694101 -0.276102 0
M  V30 760 H 75.986 1.42793 -1.32651 0
M  V30 761 H 75.082 2.93328 -1.06606 0
M  V30 762 N 75.3831 0.828654 1.34056 0
M  V30 763 C 76.6301 0.419458 1.98108 0
M  V30 764 C 76.9581 -1.01886 1.65679 0
M  V30 765 O 76.2131 -1.72539 0.923512 0
M  V30 766 C 76.5121 0.575226 3.52741 0
M  V30 767 C 76.1781 1.98012 4.05095 0
M  V30 768 C 74.8401 2.36442 4.19104 0
M  V30 769 C 77.1921 2.89824 4.33188 0
M  V30 770 C 74.5201 3.66009 4.58535 0
M  V30 771 C 76.8721 4.1886 4.74066 0
M  V30 772 C 75.5361 4.5726 4.86281 0
M  V30 773 H 74.8061 0.153491 0.724929 0
M  V30 774 H 77.4531 1.05371 1.59904 0
M  V30 775 H 75.7581 -0.142385 3.91541 0
M  V30 776 H 77.4551 0.239057 4.00287 0
M  V30 777 H 74.0451 1.67162 3.94658 0
M  V30 778 H 78.2291 2.61375 4.21897 0
M  V30 779 H 73.4851 3.95579 4.66184 0
M  V30 780 H 77.6591 4.90086 4.94761 0
M  V30 781 H 75.2861 5.57707 5.16592 0
M  V30 782 N 76.8612 -1.46375 0.584142 0
M  V30 783 C 77.7912 -2.33103 -0.136037 0
M  V30 784 C 78.7722 -1.45431 -0.882255 0
M  V30 785 O 79.9572 -1.74246 -0.857434 0
M  V30 786 C 77.0872 -3.27731 -1.14933 0
M  V30 787 C 76.0412 -4.24855 -0.517862 0
M  V30 788 C 75.3672 -5.09001 -1.63773 0
M  V30 789 C 76.6672 -5.19439 0.545886 0
M  V30 790 H 78.3612 -2.93568 0.588086 0
M  V30 791 H 75.9072 -1.41166 0.284259 0
M  V30 792 H 77.8602 -3.87261 -1.66153 0
M  V30 793 H 76.5842 -2.65377 -1.90375 0
M  V30 794 H 75.2432 -3.6659 -0.0267361 0
M  V30 795 H 74.8912 -4.43031 -2.38185 0
M  V30 796 H 74.5912 -5.74777 -1.22085 0
M  V30 797 H 76.1152 -5.71396 -2.15266 0
M  V30 798 H 77.5292 -5.73177 0.118704 0
M  V30 799 H 75.9262 -5.93566 0.88317 0
M  V30 800 H 76.9962 -4.63285 1.43162 0
M  V30 801 N 78.3393 -0.321999 -1.54275 0
M  V30 802 C 79.5693 0.282642 -2.04658 0
M  V30 803 C 79.9773 1.46453 -1.19784 0
M  V30 804 O 79.3203 1.82367 -0.220932 0
M  V30 805 C 79.3823 0.781857 -3.50895 0
M  V30 806 C 79.0463 -0.277517 -4.56157 0
M  V30 807 C 80.0433 -1.11307 -5.07845 0
M  V30 808 C 77.7283 -0.425256 -5.00497 0
M  V30 809 C 79.7223 -2.08211 -6.02434 0
M  V30 810 C 77.4093 -1.39771 -5.94901 0
M  V30 811 C 78.4073 -2.2246 -6.45756 0
M  V30 812 O 78.0953 -3.18054 -7.38307 0
M  V30 813 H 77.8273 0.0622636 -0.673126 0
M  V30 814 H 80.3813 -0.465792 -2.00049 0
M  V30 815 H 78.6113 1.58118 -3.52896 0
M  V30 816 H 80.3003 1.30467 -3.84361 0
M  V30 817 H 81.0663 -1.00991 -4.74369 0
M  V30 818 H 76.9453 0.20847 -4.60528 0
M  V30 819 H 80.4893 -2.72791 -6.42052 0
M  V30 820 H 76.3863 -1.50152 -6.27794 0
M  V30 821 H 77.1543 -3.13275 -7.56175 0
M  V30 822 N 79.8174 1.5752 -0.0501392 0
M  V30 823 C 81.0454 1.96963 0.633492 0
M  V30 824 C 81.4604 0.927631 1.6444 0
M  V30 825 O 80.8174 -0.0882665 1.82286 0
M  V30 826 C 80.8684 3.36487 1.32132 0
M  V30 827 O 80.5894 4.36693 0.350894 0
M  V30 828 C 82.0904 3.90682 2.09481 0
M  V30 829 H 79.3104 0.648244 0.173266 0
M  V30 830 H 81.8544 2.0417 -0.116134 0
M  V30 831 H 80.0094 3.30434 2.02218 0
M  V30 832 H 80.4234 5.17702 0.841735 0
M  V30 833 H 81.8974 4.90591 2.5303 0
M  V30 834 H 82.3744 3.26053 2.94255 0
M  V30 835 H 82.9804 4.00069 1.44307 0
M  V30 836 N 81.2955 -0.223234 1.56011 0
M  V30 837 C 82.5435 -0.946003 1.78592 0
M  V30 838 C 82.8645 -1.84936 0.618349 0
M  V30 839 O 82.1345 -1.92473 -0.364833 0
M  V30 840 H 80.7145 -0.352298 0.658707 0
M  V30 841 H 83.3765 -0.235494 1.93472 0
M  V30 842 H 82.4725 -1.55381 2.70672 0
M  V30 843 N 82.7736 -1.49793 -0.48987 0
M  V30 844 C 83.6836 -1.70036 -1.61632 0
M  V30 845 C 84.6996 -0.583102 -1.63939 0
M  V30 846 O 85.8756 -0.859169 -1.82154 0
M  V30 847 C 82.9406 -1.77277 -2.97949 0
M  V30 848 C 82.0016 -3.00918 -3.06181 0
M  V30 849 C 81.2346 -3.07804 -4.35996 0
M  V30 850 O 81.4576 -2.21982 -5.25433 0
M  V30 851 O 80.3916 -4.00369 -4.49431 0
M  V30 852 H 84.2176 -2.65486 -1.47482 0
M  V30 853 H 81.8026 -1.33666 -0.667362 0
M  V30 854 H 83.6846 -1.84329 -3.78947 0
M  V30 855 H 82.3596 -0.850076 -3.12339 0
M  V30 856 H 81.2666 -2.99377 -2.2433 0
M  V30 857 H 82.5996 -3.92704 -2.96723 0
M  V30 858 N 84.2517 0.741722 -1.39055 0
M  V30 859 C 85.4997 1.49818 -1.35643 0
M  V30 860 C 85.8207 1.94938 0.0491642 0
M  V30 861 O 85.0907 1.68505 0.999141 0
M  V30 862 H 83.6707 0.555755 -0.499144 0
M  V30 863 H 86.3327 0.880957 -1.73854 0
M  V30 864 H 85.4287 2.38348 -2.01486 0
M  V30 865 N 85.7298 1.2412 0.971189 0
M  V30 866 C 87.0068 0.986867 1.6888 0
M  V30 867 C 87.3868 -0.491857 2.0529 0
M  V30 868 O 86.7348 -1.46531 1.75331 0
M  V30 869 C 86.9448 1.9063 2.92338 0
M  V30 870 C 88.2928 2.17515 3.64654 0
M  V30 871 O 89.3168 1.88254 3.02388 0
M  V30 872 O 88.1758 2.6719 4.7673 0
M  V30 873 H 85.2698 0.372944 0.738134 0
M  V30 874 H 87.8158 1.35203 1.02559 0
M  V30 875 H 86.5878 2.90552 2.62097 0
M  V30 876 H 86.2108 1.54408 3.66393 0
M  V30 877 N 87.2079 -1.17134 1.05439 0
M  V30 878 C 88.4359 -1.91372 0.786414 0
M  V30 879 C 88.8509 -1.76955 -0.658202 0
M  V30 880 O 88.2079 -1.10838 -1.44987 0
M  V30 881 C 88.2589 -3.42356 1.1608 0
M  V30 882 O 87.9799 -3.56332 2.54871 0
M  V30 883 C 89.4809 -4.33663 0.919322 0
M  V30 884 H 86.7009 -0.607118 0.285743 0
M  V30 885 H 89.2449 -1.48525 1.40572 0
M  V30 886 H 87.3999 -3.82939 0.586191 0
M  V30 887 H 87.8139 -4.49896 2.69618 0
M  V30 888 H 89.2879 -5.38099 1.231 0
M  V30 889 H 89.7649 -4.38959 -0.145359 0
M  V30 890 H 90.3709 -3.98796 1.47789 0
M  V30 891 N 88.686 -0.835752 -1.33615 0
M  V30 892 C 89.932 -0.430596 -1.98176 0
M  V30 893 C 90.265 1.00684 -1.66061 0
M  V30 894 O 89.54 1.70339 -0.938877 0
M  V30 895 C 89.823 -0.648065 -3.5422 0
M  V30 896 C 89.676 -2.13255 -3.96033 0
M  V30 897 C 90.995 -0.0922113 -4.40003 0
M  V30 898 H 88.114 -0.157924 -0.719881 0
M  V30 899 H 90.756 -1.05069 -1.58305 0
M  V30 900 H 88.906 -0.120237 -3.88314 0
M  V30 901 H 90.578 -2.725 -3.72211 0
M  V30 902 H 88.821 -2.61823 -3.45878 0
M  V30 903 H 89.492 -2.23547 -5.04708 0
M  V30 904 H 91.968 -0.543343 -4.12537 0
M  V30 905 H 90.844 -0.274083 -5.48215 0
M  V30 906 H 91.105 1.00378 -4.30554 0
M  V30 907 N 90.1641 1.46063 -0.591896 0
M  V30 908 C 91.5801 1.57561 -0.254288 0
M  V30 909 C 91.7801 1.58565 1.24336 0
M  V30 910 O 90.8361 1.50753 2.02558 0
M  V30 911 C 92.1491 2.86549 -0.911611 0
M  V30 912 C 93.6971 3.00197 -0.886059 0
M  V30 913 C 94.1721 4.31933 -1.5231 0
M  V30 914 N 95.6631 4.38654 -1.48786 0
M  V30 915 C 96.3981 5.39222 -1.95006 0
M  V30 916 N 95.8941 6.46414 -2.49241 0
M  V30 917 N 97.6871 5.3048 -1.85868 0
M  V30 918 H 89.8381 1.43655 -1.56451 0
M  V30 919 H 92.1011 0.68583 -0.654478 0
M  V30 920 H 91.8071 2.91651 -1.96551 0
M  V30 921 H 91.6811 3.74794 -0.425368 0
M  V30 922 H 94.0681 2.9467 0.159246 0
M  V30 923 H 94.1491 2.13403 -1.41041 0
M  V30 924 H 93.7931 4.38217 -2.56765 0
M  V30 925 H 93.7231 5.17516 -0.973891 0
M  V30 926 H 96.2141 3.61793 -1.09151 0
M  V30 927 H 96.5271 7.19376 -2.82344 0
M  V30 928 H 94.8721 6.47208 -2.53272 0
M  V30 929 H 98.0631 4.45643 -1.43248 0
M  V30 930 H 98.2361 6.08711 -2.22204 0
M  V30 931 N 91.6422 0.330177 1.54103 0
M  V30 932 C 92.8822 -0.270916 2.02597 0
M  V30 933 C 93.2462 -1.48826 1.21304 0
M  V30 934 O 94.4472 -2.16266 1.59633 0
M  V30 935 C 92.7182 -0.590328 3.52491 0
M  V30 936 S 94.2772 -1.17014 4.2291 0
M  V30 937 H 91.0952 -0.0815379 0.706309 0
M  V30 938 H 93.6972 0.464835 1.89893 0
M  V30 939 H 92.4012 0.303691 4.09275 0
M  V30 940 H 91.9322 -1.3561 3.69288 0
M  V30 941 H 93.9472 -2.45662 4.3112 0
M  V30 942 N 93.1203 -1.57491 0.0584922 0
M  V30 943 C 94.3673 -1.92978 -0.613648 0
M  V30 944 C 94.6953 -0.937461 -1.70417 0
M  V30 945 O 93.9503 0.049078 -1.95638 0
M  V30 946 C 94.2493 -3.3513 -1.24188 0
M  V30 947 C 93.9153 -4.50037 -0.278826 0
M  V30 948 C 92.5773 -4.81198 -0.0138447 0
M  V30 949 C 94.9293 -5.19807 0.380777 0
M  V30 950 C 92.2573 -5.79473 0.918052 0
M  V30 951 C 94.6093 -6.19079 1.30091 0
M  V30 952 C 93.2733 -6.48665 1.57449 0
M  V30 953 H 92.5433 -0.706157 -0.22455 0
M  V30 954 H 95.1903 -1.91082 0.126533 0
M  V30 955 H 93.4953 -3.33429 -2.05749 0
M  V30 956 H 95.1923 -3.59871 -1.769 0
M  V30 957 H 91.7823 -4.25726 -0.495539 0
M  V30 958 H 95.9663 -4.95939 0.189158 0
M  V30 959 H 91.2223 -6.00727 1.1374 0
M  V30 960 H 95.3963 -6.7225 1.81804 0
M  V30 961 H 93.0233 -7.24628 2.29822 0
M  V30 962 N 94.5984 0.214957 -1.56127 0
M  V30 963 C 95.8234 0.95924 -1.83884 0
M  V30 964 C 96.2484 1.7689 -0.639644 0
M  V30 965 O 95.6064 1.76566 0.411601 0
M  V30 966 C 95.6544 1.84723 -3.09693 0
M  V30 967 O 94.7584 2.94346 -2.8885 0
M  V30 968 H 94.0994 0.27125 -0.606069 0
M  V30 969 H 96.6294 0.226276 -2.03345 0
M  V30 970 H 96.6394 2.25576 -3.39969 0
M  V30 971 H 95.3144 1.25218 -3.96602 0
M  V30 972 H 93.8914 2.57391 -2.69823 0
M  V30 973 N 96.0765 1.50051 0.48192 0
M  V30 974 C 97.3165 1.62128 1.24474 0
M  V30 975 C 97.6805 0.309742 1.89485 0
M  V30 976 O 98.8815 0.305854 2.67054 0
M  V30 977 C 97.1525 2.76151 2.26882 0
M  V30 978 S 98.7115 3.08297 3.12247 0
M  V30 979 H 95.5295 0.571661 0.422759 0
M  V30 980 H 98.1315 1.87791 0.54359 0
M  V30 981 H 96.8355 3.69942 1.77683 0
M  V30 982 H 96.3665 2.52541 3.0164 0
M  V30 983 H 98.3815 2.51287 4.27866 0
M  V30 984 N 97.5546 -0.734337 1.39446 0
M  V30 985 C 98.5046 -1.83949 1.34709 0
M  V30 986 C 99.4886 -1.59279 0.227851 0
M  V30 987 O 100.681 -1.70771 0.465438 0
M  V30 988 C 97.8096 -3.21884 1.19356 0
M  V30 989 C 96.8956 -3.52381 2.35984 0
M  V30 990 N 97.2866 -3.53811 3.61457 0
M  V30 991 C 95.5846 -3.82747 2.28956 0
M  V30 992 C 96.2856 -3.82122 4.38586 0
M  V30 993 N 95.2616 -3.9993 3.68181 0
M  V30 994 H 99.0636 -1.83361 2.29687 0
M  V30 995 H 96.5776 -0.932609 1.32952 0
M  V30 996 H 98.5746 -4.00998 1.14046 0
M  V30 997 H 97.2346 -3.23711 0.253295 0
M  V30 998 H 98.2456 -3.35107 3.94872 0
M  V30 999 H 94.9226 -3.92175 1.43194 0
M  V30 1000 H 96.3126 -3.89691 5.47349 0
M  V30 1001 N 99.0327 -1.24633 -0.964593 0
M  V30 1002 C 99.9957 -1.0424 -2.04124 0
M  V30 1003 C 100.996 0.00137563 -1.608 0
M  V30 1004 O 102.186 -0.239883 -1.7254 0
M  V30 1005 C 99.3177 -0.580588 -3.3592 0
M  V30 1006 H 100.511 -1.99803 -2.23649 0
M  V30 1007 H 98.0637 -1.06899 -1.14027 0
M  V30 1008 H 98.7987 0.3781 -3.22088 0
M  V30 1009 H 98.5837 -1.33398 -3.6871 0
M  V30 1010 H 100.074 -0.459034 -4.15069 0
M  V30 1011 N 100.511 1.16574 -1.06058 0
M  V30 1012 C 101.474 2.19085 -0.673392 0
M  V30 1013 C 102.474 1.5835 0.279648 0
M  V30 1014 O 103.664 1.74088 0.0623488 0
M  V30 1015 C 100.796 3.40899 0.00954234 0
M  V30 1016 H 101.989 2.54853 -1.58081 0
M  V30 1017 H 99.5418 1.30808 -0.855516 0
M  V30 1018 H 100.277 3.10684 0.929826 0
M  V30 1019 H 100.062 3.86233 -0.67573 0
M  V30 1020 H 101.552 4.1675 0.266245 0
M  V30 1021 N 101.989 0.842826 1.3317 0
M  V30 1022 C 103.235 0.441099 1.97945 0
M  V30 1023 C 103.568 -0.998024 1.66593 0
M  V30 1024 O 102.843 -1.69839 0.947898 0
M  V30 1025 C 103.126 0.666841 3.53872 0
M  V30 1026 C 102.979 2.15352 3.94897 0
M  V30 1027 C 104.298 0.115544 4.39948 0
M  V30 1028 H 101.417 0.161739 0.719034 0
M  V30 1029 H 104.059 1.05907 1.57746 0
M  V30 1030 H 102.209 0.140828 3.88245 0
M  V30 1031 H 103.881 2.7447 3.70761 0
M  V30 1032 H 102.124 2.63653 3.44484 0
M  V30 1033 H 102.795 2.26221 5.03516 0
M  V30 1034 H 105.271 0.565213 4.12243 0
M  V30 1035 H 104.147 0.303152 5.48062 0
M  V30 1036 H 104.408 -0.980935 4.3108 0
M  V30 1037 N 103.467 -1.45747 0.599634 0
M  V30 1038 C 104.744 -1.95585 0.0240846 0
M  V30 1039 C 105.124 -1.54217 -1.44154 0
M  V30 1040 O 104.472 -0.800903 -2.14004 0
M  V30 1041 C 104.682 -3.48344 0.21385 0
M  V30 1042 C 106.03 -4.24504 0.0904902 0
M  V30 1043 O 107.054 -3.55911 0.143558 0
M  V30 1044 O 105.913 -5.46491 -0.0310766 0
M  V30 1045 H 103.007 -0.82602 -0.0402478 0
M  V30 1046 H 105.553 -1.55951 0.669139 0
M  V30 1047 H 104.325 -3.71397 1.23206 0
M  V30 1048 H 103.948 -3.9485 -0.466842 0
M  V30 1049 N 104.945 -0.338344 -1.53925 0
M  V30 1050 C 106.361 0.0137736 -1.59594 0
M  V30 1051 C 106.561 1.49186 -1.35447 0
M  V30 1052 O 105.617 2.24987 -1.14616 0
M  V30 1053 C 106.93 -0.41773 -2.97784 0
M  V30 1054 C 108.478 -0.369633 -3.1081 0
M  V30 1055 C 108.953 -0.776524 -4.51369 0
M  V30 1056 N 110.444 -0.730506 -4.57403 0
M  V30 1057 C 111.179 -1.01736 -5.64303 0
M  V30 1058 N 110.675 -1.3721 -6.79077 0
M  V30 1059 N 112.468 -0.941942 -5.54151 0
M  V30 1060 H 104.619 -1.3012 -1.67876 0
M  V30 1061 H 106.882 -0.530082 -0.78595 0
M  V30 1062 H 106.588 -1.44811 -3.20504 0
M  V30 1063 H 106.462 0.209729 -3.76616 0
M  V30 1064 H 108.849 0.651568 -2.87817 0
M  V30 1065 H 108.93 -1.03223 -2.34049 0
M  V30 1066 H 108.574 -1.79571 -4.75096 0
M  V30 1067 H 108.504 -0.0914649 -5.26521 0
M  V30 1068 H 110.995 -0.468783 -3.74981 0
M  V30 1069 H 111.308 -1.57597 -7.5656 0
M  V30 1070 H 109.653 -1.4105 -6.80536 0
M  V30 1071 H 112.844 -0.664184 -4.63364 0
M  V30 1072 H 113.017 -1.16884 -6.37371 0
M  V30 1073 N 106.423 1.57458 -0.0668435 0
M  V30 1074 C 107.669 1.94401 0.598316 0
M  V30 1075 C 108.024 0.946335 1.67518 0
M  V30 1076 O 107.317 -0.0321442 1.91573 0
M  V30 1077 C 107.511 3.35784 1.22409 0
M  V30 1078 C 107.34 4.49212 0.209367 0
M  V30 1079 C 106.11 5.04887 -0.204218 0
M  V30 1080 C 108.308 5.11335 -0.551431 0
M  V30 1081 N 106.29 6.01854 -1.21016 0
M  V30 1082 C 107.661 6.03754 -1.41 0
M  V30 1083 C 109.716 4.94173 -0.608038 0
M  V30 1084 C 108.419 6.80854 -2.32013 0
M  V30 1085 C 110.445 5.71912 -1.50566 0
M  V30 1086 C 109.807 6.63976 -2.35191 0
M  V30 1087 H 105.906 0.758538 0.190114 0
M  V30 1088 H 108.49 1.94175 -0.142832 0
M  V30 1089 H 106.661 3.36757 1.93518 0
M  V30 1090 H 108.393 3.59976 1.84931 0
M  V30 1091 H 105.148 4.73266 0.177908 0
M  V30 1092 H 105.572 6.55035 -1.71049 0
M  V30 1093 H 110.214 4.22788 0.032022 0
M  V30 1094 H 107.932 7.5152 -2.97057 0
M  V30 1095 H 111.518 5.60656 -1.55423 0
M  V30 1096 H 110.398 7.2308 -3.03522 0
M  V30 1097 N 107.901 -0.206675 1.56239 0
M  V30 1098 C 108.833 -1.27997 1.9013 0
M  V30 1099 C 109.846 -1.42299 0.790883 0
M  V30 1100 O 111.035 -1.42931 1.06925 0
M  V30 1101 C 108.135 -2.65368 2.10792 0
M  V30 1102 C 107.308 -2.72824 3.41886 0
M  V30 1103 C 106.367 -3.9131 3.51799 0
M  V30 1104 O 105.393 -3.78953 4.24716 0
M  V30 1105 N 106.595 -5.06265 2.84035 0
M  V30 1106 H 109.36 -0.992444 2.82791 0
M  V30 1107 H 106.921 -0.396652 1.56966 0
M  V30 1108 H 108.913 -3.43039 2.14724 0
M  V30 1109 H 107.483 -2.86657 1.24685 0
M  V30 1110 H 106.703 -1.81515 3.49923 0
M  V30 1111 H 107.991 -2.74786 4.28217 0
M  V30 1112 H 107.389 -5.19203 2.246 0
M  V30 1113 H 105.946 -5.81925 2.93609 0
M  V30 1114 N 109.379 -1.50304 -0.473955 0
M  V30 1115 C 110.609 -1.64663 -1.24778 0
M  V30 1116 C 111.017 -0.328174 -1.86332 0
M  V30 1117 O 110.36 0.699536 -1.69859 0
M  V30 1118 C 110.422 -2.6778 -2.39863 0
M  V30 1119 C 110.086 -4.11413 -1.98969 0
M  V30 1120 C 111.083 -4.97372 -1.51385 0
M  V30 1121 C 108.768 -4.57312 -2.07777 0
M  V30 1122 C 110.762 -6.27277 -1.13148 0
M  V30 1123 C 108.449 -5.87223 -1.69152 0
M  V30 1124 C 109.447 -6.72031 -1.21915 0
M  V30 1125 O 109.135 -7.99518 -0.838237 0
M  V30 1126 H 108.867 -0.556602 -0.383627 0
M  V30 1127 H 111.421 -1.9726 -0.572491 0
M  V30 1128 H 109.651 -2.30419 -3.10554 0
M  V30 1129 H 111.34 -2.71388 -3.01833 0
M  V30 1130 H 112.106 -4.63128 -1.44004 0
M  V30 1131 H 107.985 -3.91449 -2.43493 0
M  V30 1132 H 111.529 -6.93425 -0.762077 0
M  V30 1133 H 107.426 -6.20989 -1.76191 0
M  V30 1134 H 108.194 -8.12764 -0.967339 0
M  V30 1135 N 110.857 0.726932 -1.39834 0
M  V30 1136 C 112.105 1.4837 -1.37225 0
M  V30 1137 C 112.426 1.94979 0.0284857 0
M  V30 1138 O 111.696 1.69555 0.981213 0
M  V30 1139 H 110.276 0.55043 -0.505011 0
M  V30 1140 H 112.938 0.862468 -1.74778 0
M  V30 1141 H 112.034 2.36198 -2.04003 0
M  V30 1142 N 112.336 1.25143 0.95797 0
M  V30 1143 C 113.613 1.00472 1.67823 0
M  V30 1144 C 113.993 -0.470056 2.058 0
M  V30 1145 O 113.341 -1.44663 1.76875 0
M  V30 1146 C 113.551 1.9372 2.90299 0
M  V30 1147 C 114.899 2.21371 3.62326 0
M  V30 1148 O 115.923 1.91451 3.00375 0
M  V30 1149 O 114.782 2.72231 4.7387 0
M  V30 1150 H 111.876 0.380752 0.734137 0
M  V30 1151 H 114.422 1.36283 1.01119 0
M  V30 1152 H 113.194 2.93316 2.59001 0
M  V30 1153 H 112.817 1.58286 3.64735 0
M  V30 1154 N 113.814 -1.1601 1.06675 0
M  V30 1155 C 115.039 -1.91068 0.806706 0
M  V30 1156 C 115.464 -1.77112 -0.633485 0
M  V30 1157 O 114.822 -1.09908 -1.44187 0
M  V30 1158 C 114.87 -3.39655 1.21106 0
M  V30 1159 O 113.974 -4.10893 0.352189 0
M  V30 1160 H 113.315 -0.595125 0.294486 0
M  V30 1161 H 115.845 -1.46955 1.42356 0
M  V30 1162 H 115.855 -3.90434 1.18428 0
M  V30 1163 H 114.53 -3.49132 2.26008 0
M  V30 1164 H 113.107 -3.70285 0.440868 0
M  V30 1165 N 115.292 -0.849877 -1.32721 0
M  V30 1166 C 116.255 -0.296122 -2.27279 0
M  V30 1167 C 117.255 0.541458 -1.5141 0
M  V30 1168 O 118.445 0.353658 -1.70572 0
M  V30 1169 C 115.577 0.581579 -3.35902 0
M  V30 1170 H 116.77 -1.13064 -2.77771 0
M  V30 1171 H 114.323 -0.62383 -1.43311 0
M  V30 1172 H 115.058 1.43809 -2.9067 0
M  V30 1173 H 114.843 -0.0178814 -3.92096 0
M  V30 1174 H 116.333 0.961951 -4.0637 0
M  V30 1175 N 116.77 1.45427 -0.607355 0
M  V30 1176 C 118.016 2.0254 -0.102607 0
M  V30 1177 C 118.349 1.47478 1.26348 0
M  V30 1178 O 117.624 0.64939 1.83339 0
M  V30 1179 C 117.907 3.60044 -0.0634347 0
M  V30 1180 C 117.76 4.2544 -1.46017 0
M  V30 1181 C 119.079 4.35646 0.624514 0
M  V30 1182 H 116.198 0.73598 -0.0387607 0
M  V30 1183 H 118.84 1.73284 -0.779282 0
M  V30 1184 H 116.99 3.85101 0.512808 0
M  V30 1185 H 118.662 4.11569 -2.08347 0
M  V30 1186 H 116.905 3.83849 -2.02094 0
M  V30 1187 H 117.576 5.34342 -1.385 0
M  V30 1188 H 120.052 4.15882 0.134723 0
M  V30 1189 H 118.928 5.45376 0.621028 0
M  V30 1190 H 119.189 4.08501 1.69055 0
M  V30 1191 N 118.248 0.346503 1.53744 0
M  V30 1192 C 119.496 -0.248612 2.00565 0
M  V30 1193 C 119.817 -1.5083 1.23593 0
M  V30 1194 O 119.087 -1.92858 0.343912 0
M  V30 1195 H 117.667 -0.0948564 0.740953 0
M  V30 1196 H 120.329 0.468341 1.89189 0
M  V30 1197 H 119.425 -0.488994 3.08245 0
M  V30 1198 N 119.726 -1.57421 0.075193 0
M  V30 1199 C 121.142 -1.57099 -0.281444 0
M  V30 1200 C 121.342 -1.08486 -1.69803 0
M  V30 1201 O 120.398 -0.752279 -2.41033 0
M  V30 1202 C 121.711 -3.00571 -0.0880041 0
M  V30 1203 C 123.259 -3.12605 -0.157281 0
M  V30 1204 C 123.734 -4.57999 0.0079207 0
M  V30 1205 N 125.225 -4.63176 -0.0475725 0
M  V30 1206 C 125.96 -5.73373 0.0557876 0
M  V30 1207 N 125.456 -6.92473 0.21286 0
M  V30 1208 N 127.249 -5.621 -0.00152098 0
M  V30 1209 H 119.4 -1.87335 1.00098 0
M  V30 1210 H 121.663 -0.86377 0.390646 0
M  V30 1211 H 121.369 -3.40262 0.889629 0
M  V30 1212 H 121.243 -3.67754 -0.838875 0
M  V30 1213 H 123.63 -2.72798 -1.1254 0
M  V30 1214 H 123.711 -2.48053 0.62475 0
M  V30 1215 H 123.355 -4.98496 0.972824 0
M  V30 1216 H 123.285 -5.20586 -0.793556 0
M  V30 1217 H 125.776 -3.7753 -0.167244 0
M  V30 1218 H 126.089 -7.72279 0.283781 0
M  V30 1219 H 124.434 -6.94556 0.248267 0
M  V30 1220 H 127.625 -4.67938 -0.122958 0
M  V30 1221 H 127.798 -6.47948 0.0824844 0
M  V30 1222 N 121.204 0.198386 -1.56346 0
M  V30 1223 C 122.154 1.2499 -1.90687 0
M  V30 1224 C 123.138 1.41158 -0.772217 0
M  V30 1225 O 124.33 1.43584 -1.03502 0
M  V30 1226 C 121.459 2.59542 -2.24706 0
M  V30 1227 C 120.545 2.47181 -3.44619 0
M  V30 1228 N 120.936 2.04495 -4.62618 0
M  V30 1229 C 119.234 2.78082 -3.48692 0
M  V30 1230 C 119.935 2.03945 -5.44776 0
M  V30 1231 N 118.911 2.45323 -4.85095 0
M  V30 1232 H 122.713 0.911149 -2.7942 0
M  V30 1233 H 120.227 0.40684 -1.57221 0
M  V30 1234 H 122.224 3.3549 -2.47491 0
M  V30 1235 H 120.884 2.94244 -1.37298 0
M  V30 1236 H 121.895 1.75256 -4.87345 0
M  V30 1237 H 118.572 3.17002 -2.71691 0
M  V30 1238 H 119.962 1.72872 -6.4928 0
M  V30 1239 N 122.682 1.50554 0.465978 0
M  V30 1240 C 124.098 1.38093 0.800154 0
M  V30 1241 C 124.298 0.440988 1.96615 0
M  V30 1242 O 123.354 -0.114499 2.5224 0
M  V30 1243 C 124.667 2.79565 1.10742 0
M  V30 1244 C 126.215 2.88516 1.21357 0
M  V30 1245 C 126.69 4.30833 1.55393 0
M  V30 1246 N 128.181 4.33807 1.62375 0
M  V30 1247 C 128.916 5.40927 1.90225 0
M  V30 1248 N 128.412 6.58247 2.16062 0
M  V30 1249 N 130.205 5.28376 1.9177 0
M  V30 1250 H 122.356 2.10237 -0.302366 0
M  V30 1251 H 124.619 0.945203 -0.0727746 0
M  V30 1252 H 124.325 3.50208 0.323661 0
M  V30 1253 H 124.199 3.17125 2.04234 0
M  V30 1254 H 126.586 2.1809 1.98799 0
M  V30 1255 H 126.667 2.54492 0.258321 0
M  V30 1256 H 126.311 5.01799 0.784889 0
M  V30 1257 H 126.241 4.62347 2.52076 0
M  V30 1258 H 128.732 3.49212 1.44427 0
M  V30 1259 H 129.045 7.3569 2.36601 0
M  V30 1260 H 127.39 6.61413 2.13444 0
M  V30 1261 H 130.581 4.35715 1.71085 0
M  V30 1262 H 130.754 6.11944 2.13139 0
M  V30 1263 N 124.16 -0.719506 1.40217 0
M  V30 1264 C 125.107 -1.83359 1.40172 0
M  V30 1265 C 126.077 -1.64065 0.259206 0
M  V30 1266 O 127.262 -1.85254 0.456677 0
M  V30 1267 C 124.402 -3.2103 1.26624 0
M  V30 1268 C 123.515 -3.51923 2.50548 0
M  V30 1269 C 122.65 -4.79079 2.29471 0
M  V30 1270 C 121.689 -5.02863 3.48992 0
M  V30 1271 N 120.826 -6.2123 3.27135 0
M  V30 1272 H 125.666 -1.82733 2.35399 0
M  V30 1273 H 123.203 -0.892688 1.16917 0
M  V30 1274 H 125.161 -4.00524 1.16776 0
M  V30 1275 H 123.791 -3.20895 0.350176 0
M  V30 1276 H 122.843 -2.67014 2.70939 0
M  V30 1277 H 124.155 -3.6541 3.39525 0
M  V30 1278 H 123.309 -5.66582 2.16955 0
M  V30 1279 H 122.048 -4.67794 1.37913 0
M  V30 1280 H 121.053 -4.13816 3.6199 0
M  V30 1281 H 122.278 -5.16023 4.41472 0
M  V30 1282 H 120.224 -6.11204 2.38256 0
M  V30 1283 H 120.141 -6.35375 4.09675 0
M  V30 1284 H 121.409 -7.11532 3.18344 0
M  V30 1285 N 125.638 -1.25649 -0.95132 0
M  V30 1286 C 126.884 -1.10757 -1.69884 0
M  V30 1287 C 127.217 0.350061 -1.91019 0
M  V30 1288 O 126.492 1.25783 -1.48354 0
M  V30 1289 C 126.775 -1.86606 -3.07978 0
M  V30 1290 C 126.628 -3.40217 -2.94232 0
M  V30 1291 C 127.947 -1.65182 -4.07925 0
M  V30 1292 H 125.066 -0.40374 -0.616574 0
M  V30 1293 H 127.708 -1.54521 -1.10558 0
M  V30 1294 H 125.858 -1.49409 -3.58621 0
M  V30 1295 H 127.53 -3.87108 -2.50889 0
M  V30 1296 H 125.773 -3.67759 -2.30078 0
M  V30 1297 H 126.444 -3.88505 -3.92133 0
M  V30 1298 H 128.92 -1.9757 -3.66204 0
M  V30 1299 H 127.796 -2.20683 -5.02583 0
M  V30 1300 H 128.057 -0.593933 -4.38092 0
M  V30 1301 N 127.117 1.15442 -1.07289 0
M  V30 1302 C 128.342 1.90638 -0.816828 0
M  V30 1303 C 128.767 1.77445 0.624083 0
M  V30 1304 O 128.125 1.10671 1.43602 0
M  V30 1305 C 128.173 3.39008 -1.22906 0
M  V30 1306 O 127.277 4.10701 -0.373975 0
M  V30 1307 H 126.618 0.593555 -0.297638 0
M  V30 1308 H 129.148 1.46198 -1.43134 0
M  V30 1309 H 129.158 3.89801 -1.20497 0
M  V30 1310 H 127.833 3.47929 -2.27856 0
M  V30 1311 H 126.41 3.70046 -0.460499 0
M  V30 1312 N 128.595 0.856903 1.32268 0
M  V30 1313 C 130.006 0.515711 1.79436 0
M  V30 1314 C 130.357 -0.966586 1.70738 0
M  V30 1315 O 129.482 -1.75409 1.26731 0
M  V30 1316 C 130.077 0.929335 3.25805 0
M  V30 1317 C 128.636 0.640006 3.70919 0
M  V30 1318 C 127.783 1.12784 2.53328 0
M  V30 1319 H 130.734 1.04389 1.19535 0
M  V30 1320 H 130.755 0.246633 3.797 0
M  V30 1321 H 130.267 2.00821 3.32103 0
M  V30 1322 H 128.368 -0.428051 3.70133 0
M  V30 1323 H 128.481 1.20788 4.63624 0
M  V30 1324 H 126.845 0.548033 2.48734 0
M  V30 1325 H 127.628 2.21387 2.62379 0
M  V30 1326 N 130.073 -1.45103 0.615059 0
M  V30 1327 C 131.021 -2.32331 -0.111791 0
M  V30 1328 C 132.015 -1.46409 -0.852102 0
M  V30 1329 O 133.221 -1.62849 -0.766821 0
M  V30 1330 H 129.596 -0.749993 -0.0549072 0
M  V30 1331 H 131.567 -2.91407 0.642225 0
M  V30 1332 C 130.316 -3.3015 -1.09071 0
M  V30 1333 H 129.639 -3.96265 -0.530485 0
M  V30 1334 H 131.079 -3.93898 -1.56908 0
M  V30 1335 C 129.538 -2.57875 -2.168 0
M  V30 1336 O 130.068 -2.36567 -3.24652 0
M  V30 1337 N 128.274 -2.17884 -1.92289 0
M  V30 1338 H 127.821 -2.35413 -1.04587 0
M  V30 1339 H 127.779 -1.6985 -2.64572 0
M  V30 1340 N 131.551 -0.354651 -1.53558 0
M  V30 1341 C 132.791 0.238651 -2.03002 0
M  V30 1342 C 133.155 1.46878 -1.23656 0
M  V30 1343 O 134.356 2.13699 -1.63053 0
M  V30 1344 C 132.627 0.534175 -3.53386 0
M  V30 1345 S 134.186 1.10271 -4.24719 0
M  V30 1346 H 131.004 0.0702908 -0.707517 0
M  V30 1347 H 133.606 -0.494987 -1.8913 0
M  V30 1348 H 132.31 -0.368765 -4.0874 0
M  V30 1349 H 131.841 1.29718 -3.71398 0
M  V30 1350 H 133.856 2.38772 -4.34974 0
M  V30 1351 N 133.029 1.57378 -0.0835403 0
M  V30 1352 C 134.445 1.57246 0.273109 0
M  V30 1353 C 134.645 1.09385 1.69225 0
M  V30 1354 O 133.701 0.765051 2.40631 0
M  V30 1355 C 135.014 3.00614 0.0720628 0
M  V30 1356 C 136.562 3.12684 0.1407 0
M  V30 1357 C 137.037 4.57989 -0.0322094 0
M  V30 1358 N 138.528 4.63194 0.0230085 0
M  V30 1359 C 139.263 5.73335 -0.0861941 0
M  V30 1360 N 138.759 6.9235 -0.24958 0
M  V30 1361 N 140.552 5.62093 -0.0282886 0
M  V30 1362 H 132.703 1.86801 -1.0109 0
M  V30 1363 H 134.966 0.861687 -0.395222 0
M  V30 1364 H 134.672 3.39786 -0.907662 0
M  V30 1365 H 134.546 3.68193 0.81936 0
M  V30 1366 H 136.933 2.73391 1.11092 0
M  V30 1367 H 137.014 2.47719 -0.637896 0
M  V30 1368 H 136.658 4.97973 -0.999247 0
M  V30 1369 H 136.588 5.21 0.765937 0
M  V30 1370 H 139.079 3.77613 0.14722 0
M  V30 1371 H 139.392 7.72117 -0.324733 0
M  V30 1372 H 137.737 6.94415 -0.285097 0
M  V30 1373 H 140.928 4.67997 0.0981408 0
M  V30 1374 H 141.101 6.47895 -0.116845 0
M  V30 1375 N 134.507 -0.190092 1.56449 0
M  V30 1376 C 135.754 -0.909705 1.80916 0
M  V30 1377 C 136.082 -1.83047 0.657583 0
M  V30 1378 O 135.337 -1.92428 -0.356356 0
M  V30 1379 C 135.636 -1.75382 3.1141 0
M  V30 1380 C 135.302 -0.983606 4.40041 0
M  V30 1381 C 133.964 -0.770967 4.74984 0
M  V30 1382 C 136.316 -0.442024 5.19322 0
M  V30 1383 C 133.644 -0.0053448 5.867 0
M  V30 1384 C 135.996 0.310412 6.31838 0
M  V30 1385 C 134.66 0.534023 6.6536 0
M  V30 1386 H 133.93 -0.332885 0.662019 0
M  V30 1387 H 136.577 -0.175762 1.90692 0
M  V30 1388 H 134.882 -2.55659 2.96893 0
M  V30 1389 H 136.579 -2.31331 3.27547 0
M  V30 1390 H 133.169 -1.15936 4.12622 0
M  V30 1391 H 137.353 -0.593693 4.92736 0
M  V30 1392 H 132.609 0.177825 6.11141 0
M  V30 1393 H 136.783 0.737419 6.92485 0
M  V30 1394 H 134.41 1.12918 7.51767 0
M  V30 1395 N 135.985 -1.50799 -0.457987 0
M  V30 1396 C 137.234 -1.6168 -1.20593 0
M  V30 1397 C 137.547 -0.32888 -1.92815 0
M  V30 1398 O 138.753 -0.316773 -2.69646 0
M  V30 1399 C 137.209 -2.8545 -2.19195 0
M  V30 1400 C 136.817 -4.21168 -1.52715 0
M  V30 1401 C 138.561 -3.05681 -2.94549 0
M  V30 1402 C 136.468 -5.3611 -2.4968 0
M  V30 1403 H 135.398 -0.602134 -0.453818 0
M  V30 1404 H 138.049 -1.77245 -0.475031 0
M  V30 1405 H 136.431 -2.63472 -2.95632 0
M  V30 1406 H 137.605 -4.53449 -0.819775 0
M  V30 1407 H 135.92 -4.06648 -0.895922 0
M  V30 1408 H 138.517 -3.88727 -3.67145 0
M  V30 1409 H 138.86 -2.17929 -3.54701 0
M  V30 1410 H 139.393 -3.27901 -2.25223 0
M  V30 1411 H 136.132 -6.26057 -1.94249 0
M  V30 1412 H 135.652 -5.0823 -3.18532 0
M  V30 1413 H 137.331 -5.6722 -3.11241 0
M  V30 1414 N 137.463 0.71206 -1.40597 0
M  V30 1415 C 138.411 1.84746 -1.41321 0
M  V30 1416 C 139.405 1.66842 -0.293268 0
M  V30 1417 O 140.611 1.73904 -0.464481 0
M  V30 1418 H 136.986 0.608522 -0.441819 0
M  V30 1419 H 138.957 1.81252 -2.37045 0
M  V30 1420 C 137.706 3.22638 -1.29614 0
M  V30 1421 H 137.029 3.37023 -2.15071 0
M  V30 1422 H 138.469 4.02209 -1.3418 0
M  V30 1423 C 136.928 3.36899 -0.00673121 0
M  V30 1424 O 137.458 3.90186 0.954859 0
M  V30 1425 N 135.664 2.9053 0.0639327 0
M  V30 1426 H 135.211 2.47353 -0.719311 0
M  V30 1427 H 135.169 3.0045 0.926118 0
M  V30 1428 N 138.941 1.26152 0.944643 0
M  V30 1429 C 140.189 1.11271 1.6871 0
M  V30 1430 C 140.51 -0.345166 1.91921 0
M  V30 1431 O 139.78 -1.24387 1.51343 0
M  V30 1432 H 138.36 0.408783 0.625224 0
M  V30 1433 H 141.022 1.58427 1.1352 0
M  V30 1434 H 140.118 1.62879 2.66227 0
M  V30 1435 N 140.419 -1.14872 1.07899 0
M  V30 1436 C 141.666 -1.85789 0.805532 0
M  V30 1437 C 141.994 -1.82649 -0.668561 0
M  V30 1438 O 141.249 -1.24858 -1.50695 0
M  V30 1439 C 141.548 -3.34223 1.26609 0
M  V30 1440 C 141.214 -3.57555 2.74709 0
M  V30 1441 C 139.876 -3.63631 3.1516 0
M  V30 1442 C 142.228 -3.66803 3.70277 0
M  V30 1443 C 139.556 -3.76473 4.49983 0
M  V30 1444 C 141.908 -3.8117 5.04869 0
M  V30 1445 C 140.572 -3.85494 5.44932 0
M  V30 1446 H 139.842 -0.679849 0.294765 0
M  V30 1447 H 142.489 -1.3572 1.35101 0
M  V30 1448 H 140.794 -3.86536 0.640103 0
M  V30 1449 H 142.491 -3.87511 1.03132 0
M  V30 1450 H 139.081 -3.5347 2.42398 0
M  V30 1451 H 143.265 -3.61404 3.40149 0
M  V30 1452 H 138.521 -3.7808 4.80484 0
M  V30 1453 H 142.695 -3.87268 5.78789 0
M  V30 1454 H 140.322 -3.95197 6.49403 0
M  V30 1455 N 141.898 -0.863906 -1.31812 0
M  V30 1456 C 143.128 -0.485406 -2.00817 0
M  V30 1457 C 143.536 0.925007 -1.65046 0
M  V30 1458 O 142.879 1.61653 -0.872574 0
M  V30 1459 C 142.941 -0.555589 -3.55181 0
M  V30 1460 C 142.605 -1.92654 -4.14407 0
M  V30 1461 C 143.602 -2.89324 -4.31958 0
M  V30 1462 C 141.287 -2.2262 -4.50273 0
M  V30 1463 C 143.281 -4.14108 -4.84555 0
M  V30 1464 C 140.968 -3.47654 -5.02573 0
M  V30 1465 C 141.966 -4.43214 -5.19664 0
M  V30 1466 O 141.654 -5.66033 -5.70843 0
M  V30 1467 H 141.386 -0.188224 -0.649267 0
M  V30 1468 H 143.94 -1.16514 -1.69156 0
M  V30 1469 H 142.17 0.181037 -3.86276 0
M  V30 1470 H 143.859 -0.19138 -4.05449 0
M  V30 1471 H 144.625 -2.6748 -4.04573 0
M  V30 1472 H 140.504 -1.4902 -4.3625 0
M  V30 1473 H 144.048 -4.88703 -4.9781 0
M  V30 1474 H 139.945 -3.69345 -5.29391 0
M  V30 1475 H 140.713 -5.6812 -5.89222 0
M  V30 1476 N 143.376 1.44774 -0.622745 0
M  V30 1477 C 144.306 2.33382 0.0741861 0
M  V30 1478 C 145.287 1.47719 0.843387 0
M  V30 1479 O 146.472 1.76458 0.810934 0
M  V30 1480 C 143.602 3.30663 1.06204 0
M  V30 1481 C 142.556 4.26079 0.405037 0
M  V30 1482 C 141.882 5.13165 1.5022 0
M  V30 1483 C 143.182 5.1781 -0.683414 0
M  V30 1484 H 144.876 2.91905 -0.665713 0
M  V30 1485 H 142.422 1.40363 -0.321587 0
M  V30 1486 H 144.375 3.9153 1.55827 0
M  V30 1487 H 143.099 2.70331 1.83272 0
M  V30 1488 H 141.758 3.66532 -0.0704683 0
M  V30 1489 H 141.406 4.49191 2.26355 0
M  V30 1490 H 141.106 5.77812 1.06803 0
M  V30 1491 H 142.63 5.76902 2.00041 0
M  V30 1492 H 144.044 5.72661 -0.270631 0
M  V30 1493 H 142.441 5.91015 -1.04023 0
M  V30 1494 H 143.511 4.59326 -1.55395 0
M  V30 1495 N 144.854 0.36279 1.53368 0
M  V30 1496 C 145.764 -0.492994 2.29362 0
M  V30 1497 C 146.78 -1.09507 1.35219 0
M  V30 1498 O 147.956 -1.10662 1.68273 0
M  V30 1499 C 145.021 -1.61855 3.066 0
M  V30 1500 C 144.082 -1.04429 4.16405 0
M  V30 1501 C 143.315 -2.11621 4.89951 0
M  V30 1502 O 143.538 -3.32684 4.63333 0
M  V30 1503 O 142.472 -1.74835 5.75948 0
M  V30 1504 H 146.298 0.125331 3.03441 0
M  V30 1505 H 143.883 0.127253 1.48857 0
M  V30 1506 H 145.765 -2.27302 3.54841 0
M  V30 1507 H 144.44 -2.22233 2.3536 0
M  V30 1508 H 143.347 -0.353819 3.72423 0
M  V30 1509 H 144.68 -0.485113 4.89804 0
M  V30 1510 N 146.332 -1.57332 0.0918853 0
M  V30 1511 C 147.28 -2.15075 -0.885747 0
M  V30 1512 C 148.274 -1.09277 -1.29441 0
M  V30 1513 O 149.48 -1.27627 -1.26931 0
M  V30 1514 H 145.855 -0.687966 -0.303656 0
M  V30 1515 H 147.826 -2.96047 -0.373995 0
M  V30 1516 C 146.575 -2.74325 -2.13638 0
M  V30 1517 H 145.898 -3.55418 -1.8308 0
M  V30 1518 H 147.338 -3.183 -2.80109 0
M  V30 1519 C 145.797 -1.70062 -2.90827 0
M  V30 1520 O 146.327 -1.13763 -3.85254 0
M  V30 1521 N 144.533 -1.40628 -2.54307 0
M  V30 1522 H 144.08 -1.866 -1.7759 0
M  V30 1523 H 144.038 -0.711043 -3.06254 0
M  V30 1524 N 147.81 0.181792 -1.56548 0
M  V30 1525 C 149.035 0.920019 -1.85877 0
M  V30 1526 C 149.46 1.75494 -0.677021 0
M  V30 1527 O 148.818 1.77399 0.374056 0
M  V30 1528 C 148.866 1.78112 -3.13542 0
M  V30 1529 O 147.97 2.88152 -2.95029 0
M  V30 1530 H 147.311 0.258334 -0.611686 0
M  V30 1531 H 149.841 0.183092 -2.03779 0
M  V30 1532 H 149.851 2.18314 -3.44678 0
M  V30 1533 H 148.526 1.16777 -3.99169 0
M  V30 1534 H 147.103 2.51609 -2.75222 0
M  V30 1535 N 149.288 1.51039 0.449983 0
M  V30 1536 C 150.251 1.70863 1.5277 0
M  V30 1537 C 151.251 0.578846 1.5002 0
M  V30 1538 O 152.441 0.846213 1.52266 0
M  V30 1539 C 149.573 1.75341 2.9235 0
M  V30 1540 H 150.766 2.67034 1.36502 0
M  V30 1541 H 148.319 1.40838 0.677812 0
M  V30 1542 H 149.054 0.809383 3.14037 0
M  V30 1543 H 148.839 2.57436 2.95752 0
M  V30 1544 H 150.329 1.92559 3.70555 0
M  V30 1545 N 150.766 -0.704594 1.40972 0
M  V30 1546 C 151.994 -1.49354 1.43182 0
M  V30 1547 C 152.409 -1.88768 0.0345508 0
M  V30 1548 O 151.766 -1.56184 -0.944081 0
M  V30 1549 C 151.817 -2.76187 2.33244 0
M  V30 1550 O 151.538 -2.38436 3.67532 0
M  V30 1551 C 153.039 -3.7 2.44162 0
M  V30 1552 H 150.259 -0.460559 0.487982 0
M  V30 1553 H 152.803 -0.868261 1.85153 0
M  V30 1554 H 150.958 -3.34974 1.94606 0
M  V30 1555 H 151.372 -3.20126 4.15475 0
M  V30 1556 H 152.846 -4.55803 3.11364 0
M  V30 1557 H 153.323 -4.13867 1.47006 0
M  V30 1558 H 153.929 -3.17121 2.83398 0
M  V30 1559 N 152.244 -1.26651 -0.937939 0
M  V30 1560 C 153.176 -1.04283 -2.04102 0
M  V30 1561 C 154.189 -0.00221014 -1.628 0
M  V30 1562 O 155.378 -0.242645 -1.76843 0
M  V30 1563 C 152.478 -0.557846 -3.34277 0
M  V30 1564 C 151.651 -1.66843 -4.04329 0
M  V30 1565 C 150.71 -1.18095 -5.12777 0
M  V30 1566 O 149.736 -1.87865 -5.37304 0
M  V30 1567 N 150.938 -0.0311006 -5.80492 0
M  V30 1568 H 153.703 -1.9927 -2.23856 0
M  V30 1569 H 151.264 -1.1808 -1.10764 0
M  V30 1570 H 153.256 -0.215836 -4.04124 0
M  V30 1571 H 151.826 0.298523 -3.11171 0
M  V30 1572 H 151.046 -2.18123 -3.28353 0
M  V30 1573 H 152.334 -2.41408 -4.47883 0
M  V30 1574 H 151.732 0.551486 -5.63005 0
M  V30 1575 H 150.289 0.251809 -6.51313 0
M  V30 1576 N 153.722 1.14298 -1.08507 0
M  V30 1577 C 154.947 1.8976 -0.837001 0
M  V30 1578 C 155.372 1.78097 0.605228 0
M  V30 1579 O 154.73 1.12188 1.4242 0
M  V30 1580 C 154.778 3.37685 -1.26495 0
M  V30 1581 O 153.882 4.10281 -0.417514 0
M  V30 1582 H 153.223 0.590365 -0.303917 0
M  V30 1583 H 155.753 1.44672 -1.44676 0
M  V30 1584 H 155.763 3.88501 -1.24625 0
M  V30 1585 H 154.438 3.45492 -2.31534 0
M  V30 1586 H 153.015 3.69536 -0.499722 0
M  V30 1587 N 155.201 0.870884 1.31352 0
M  V30 1588 C 156.429 0.49677 2.00848 0
M  V30 1589 C 156.844 -0.910998 1.65367 0
M  V30 1590 O 156.201 -1.59696 0.883374 0
M  V30 1591 C 156.252 0.645308 3.55694 0
M  V30 1592 O 155.973 1.99764 3.89905 0
M  V30 1593 C 157.474 0.272326 4.42463 0
M  V30 1594 H 154.694 0.193462 0.642506 0
M  V30 1595 H 157.238 1.1723 1.67563 0
M  V30 1596 H 155.393 0.0173176 3.87396 0
M  V30 1597 H 155.807 2.00607 4.84621 0
M  V30 1598 H 157.281 0.427208 5.50344 0
M  V30 1599 H 157.758 -0.788587 4.32062 0
M  V30 1600 H 158.364 0.876054 4.1618 0
M  V30 1601 N 156.679 -1.44442 0.630414 0
M  V30 1602 C 157.627 -2.32437 -0.0871428 0
M  V30 1603 C 158.621 -1.47304 -0.836525 0
M  V30 1604 O 159.827 -1.63653 -0.749506 0
M  V30 1605 H 156.202 -0.750533 -0.0469495 0
M  V30 1606 H 158.173 -2.90709 0.673096 0
M  V30 1607 C 156.922 -3.31288 -1.05563 0
M  V30 1608 H 156.245 -3.96805 -0.488426 0
M  V30 1609 H 157.685 -3.9554 -1.52721 0
M  V30 1610 C 156.144 -2.6016 -2.14052 0
M  V30 1611 O 156.674 -2.39997 -3.22124 0
M  V30 1612 N 154.88 -2.19911 -1.89967 0
M  V30 1613 H 154.427 -2.36509 -1.02085 0
M  V30 1614 H 154.385 -1.72646 -2.62756 0
M  V30 1615 N 158.157 -0.370918 -1.53173 0
M  V30 1616 C 159.382 0.220293 -2.06227 0
M  V30 1617 C 159.807 1.41243 -1.24225 0
M  V30 1618 O 159.165 1.79387 -0.262645 0
M  V30 1619 C 159.213 0.586663 -3.55796 0
M  V30 1620 O 158.317 1.68317 -3.76488 0
M  V30 1621 H 157.658 0.0308099 -0.663285 0
M  V30 1622 H 160.188 -0.533068 -1.97534 0
M  V30 1623 H 160.198 0.85617 -3.98916 0
M  V30 1624 H 158.873 -0.285013 -4.14922 0
M  V30 1625 H 157.45 1.40881 -3.45264 0
M  V30 1626 N 159.635 1.57281 -0.100228 0
M  V30 1627 C 160.883 1.94153 0.561157 0
M  V30 1628 C 161.204 0.983157 1.68401 0
M  V30 1629 O 160.474 0.0361132 1.95867 0
M  V30 1630 H 159.054 0.716791 0.210283 0
M  V30 1631 H 161.716 1.94202 -0.164765 0
M  V30 1632 H 160.812 2.96709 0.968008 0
M  V30 1633 N 161.113 -0.173488 1.56642 0
M  V30 1634 C 162.362 -0.888758 1.81063 0
M  V30 1635 C 162.675 -1.83506 0.67712 0
M  V30 1636 O 163.881 -2.59254 0.806206 0
M  V30 1637 C 162.337 -1.63091 3.20826 0
M  V30 1638 C 161.945 -0.728357 4.4204 0
M  V30 1639 C 163.689 -2.33454 3.54541 0
M  V30 1640 C 161.596 -1.47062 5.72823 0
M  V30 1641 H 160.526 -0.335618 0.675186 0
M  V30 1642 H 163.177 -0.141712 1.82952 0
M  V30 1643 H 161.559 -2.42263 3.13248 0
M  V30 1644 H 162.733 0.0262449 4.60793 0
M  V30 1645 H 161.048 -0.134492 4.16183 0
M  V30 1646 H 163.645 -2.89578 4.49498 0
M  V30 1647 H 163.988 -3.08687 2.79317 0
M  V30 1648 H 164.521 -1.61227 3.63663 0
M  V30 1649 H 161.26 -0.760658 6.51072 0
M  V30 1650 H 160.78 -2.1986 5.58052 0
M  V30 1651 H 162.459 -2.01868 6.14702 0
M  V30 1652 N 162.591 -1.51276 -0.441967 0
M  V30 1653 C 163.523 -1.68444 -1.55433 0
M  V30 1654 C 164.536 -0.565187 -1.52674 0
M  V30 1655 O 165.725 -0.839356 -1.57534 0
M  V30 1656 C 162.825 -1.67966 -2.94348 0
M  V30 1657 C 161.998 -2.964 -3.21661 0
M  V30 1658 C 161.057 -2.88171 -4.40277 0
M  V30 1659 O 160.083 -3.62119 -4.39157 0
M  V30 1660 N 161.285 -2.03706 -5.43584 0
M  V30 1661 H 164.05 -2.644 -1.41112 0
M  V30 1662 H 161.611 -1.49104 -0.630838 0
M  V30 1663 H 163.603 -1.60035 -3.71713 0
M  V30 1664 H 162.173 -0.796225 -3.0229 0
M  V30 1665 H 161.393 -3.18234 -2.32638 0
M  V30 1666 H 162.681 -3.81427 -3.36736 0
M  V30 1667 H 162.079 -1.42995 -5.47329 0
M  V30 1668 H 160.636 -2.01658 -6.1982 0
M  V30 1669 N 164.069 0.697108 -1.41344 0
M  V30 1670 C 165.017 1.83237 -1.43272 0
M  V30 1671 C 166.011 1.66522 -0.310947 0
M  V30 1672 O 167.217 1.73402 -0.482899 0
M  V30 1673 H 163.592 0.603802 -0.448249 0
M  V30 1674 H 165.563 1.78727 -2.38954 0
M  V30 1675 C 164.312 3.21245 -1.33029 0
M  V30 1676 H 163.635 3.34723 -2.18633 0
M  V30 1677 H 165.075 4.00763 -1.38439 0
M  V30 1678 C 163.534 3.36873 -0.0424635 0
M  V30 1679 O 164.064 3.91177 0.913421 0
M  V30 1680 N 162.27 2.90581 0.0331145 0
M  V30 1681 H 161.817 2.46577 -0.745506 0
M  V30 1682 H 161.775 3.01416 0.894199 0
M  V30 1683 N 165.547 1.27147 0.931209 0
M  V30 1684 C 166.795 1.13055 1.6752 0
M  V30 1685 C 167.116 -0.324791 1.92276 0
M  V30 1686 O 166.386 -1.22775 1.52654 0
M  V30 1687 H 164.966 0.415391 0.620854 0
M  V30 1688 H 167.628 1.59623 1.11833 0
M  V30 1689 H 166.724 1.65694 2.64485 0
M  V30 1690 N 167.025 -1.13721 1.09112 0
M  V30 1691 C 167.957 -2.1871 0.685467 0
M  V30 1692 C 168.97 -1.60527 -0.271068 0
M  V30 1693 O 170.159 -1.78407 -0.0576148 0
M  V30 1694 C 167.259 -3.38898 -0.0111255 0
M  V30 1695 C 166.432 -4.26597 0.966131 0
M  V30 1696 C 165.491 -5.25324 0.303539 0
M  V30 1697 O 164.517 -5.61213 0.950177 0
M  V30 1698 N 165.719 -5.72779 -0.943651 0
M  V30 1699 H 168.484 -2.54126 1.58871 0
M  V30 1700 H 166.045 -1.29012 0.978143 0
M  V30 1701 H 168.037 -4.02014 -0.465517 0
M  V30 1702 H 166.607 -3.01747 -0.816565 0
M  V30 1703 H 165.827 -3.60306 1.59917 0
M  V30 1704 H 167.115 -4.82048 1.6281 0
M  V30 1705 H 166.513 -5.45762 -1.48862 0
M  V30 1706 H 165.07 -6.37847 -1.34142 0
M  V30 1707 N 168.503 -0.877838 -1.30888 0
M  V30 1708 C 169.733 -0.506678 -2.00291 0
M  V30 1709 C 170.141 0.907449 -1.66018 0
M  V30 1710 O 169.484 1.60719 -0.88967 0
M  V30 1711 C 169.546 -0.59323 -3.54572 0
M  V30 1712 C 169.21 -1.97038 -4.12341 0
M  V30 1713 C 170.207 -2.93889 -4.28865 0
M  V30 1714 C 167.892 -2.27383 -4.47886 0
M  V30 1715 C 169.886 -4.19224 -4.80136 0
M  V30 1716 C 167.573 -3.52965 -4.98857 0
M  V30 1717 C 168.571 -4.48701 -5.14934 0
M  V30 1718 O 168.259 -5.72056 -5.64808 0
M  V30 1719 H 167.991 -0.1951 -0.647234 0
M  V30 1720 H 170.545 -1.18301 -1.6791 0
M  V30 1721 H 168.775 0.140057 -3.86446 0
M  V30 1722 H 170.464 -0.234372 -4.05223 0
M  V30 1723 H 171.23 -2.71756 -4.01714 0
M  V30 1724 H 167.109 -1.53639 -4.34645 0
M  V30 1725 H 170.653 -4.93956 -4.92599 0
M  V30 1726 H 166.55 -3.74939 -5.25443 0
M  V30 1727 H 167.318 -5.74337 -5.83163 0
M  V30 1728 N 169.982 1.44106 -0.638065 0
M  V30 1729 C 170.929 2.30715 0.062701 0
M  V30 1730 C 171.899 1.43882 0.829883 0
M  V30 1731 O 173.084 1.72775 0.809532 0
M  V30 1732 C 170.224 3.29258 1.03358 0
M  V30 1733 C 169.337 4.31192 0.26409 0
M  V30 1734 C 168.472 5.16825 1.22741 0
M  V30 1735 C 167.511 6.10462 0.447475 0
M  V30 1736 N 166.648 6.8877 1.36161 0
M  V30 1737 H 171.488 2.90096 -0.681781 0
M  V30 1738 H 169.025 1.42925 -0.347988 0
M  V30 1739 H 170.983 3.84886 1.60992 0
M  V30 1740 H 169.613 2.71562 1.74511 0
M  V30 1741 H 168.665 3.77981 -0.428295 0
M  V30 1742 H 169.977 4.97619 -0.343052 0
M  V30 1743 H 169.131 5.77004 1.87487 0
M  V30 1744 H 167.87 4.50488 1.86847 0
M  V30 1745 H 166.875 5.49386 -0.213433 0
M  V30 1746 H 168.1 6.78837 -0.188968 0
M  V30 1747 H 166.046 6.25096 1.98975 0
M  V30 1748 H 165.963 7.51663 0.808656 0
M  V30 1749 H 167.231 7.53467 1.99769 0
M  V30 1750 N 171.46 0.379036 1.52974 0
M  V30 1751 C 172.706 -0.206727 2.01744 0
M  V30 1752 C 173.039 -1.47314 1.26539 0
M  V30 1753 O 172.314 -1.91084 0.362903 0
M  V30 1754 C 172.597 -0.485066 3.56818 0
M  V30 1755 C 172.45 0.795919 4.42702 0
M  V30 1756 C 173.769 -1.28003 4.21074 0
M  V30 1757 H 170.888 -0.0736607 0.73331 0
M  V30 1758 H 173.53 0.506581 1.83122 0
M  V30 1759 H 171.68 -1.09272 3.72816 0
M  V30 1760 H 173.352 1.43307 4.38476 0
M  V30 1761 H 171.595 1.41344 4.10127 0
M  V30 1762 H 172.266 0.555947 5.49193 0
M  V30 1763 H 174.742 -0.765867 4.08991 0
M  V30 1764 H 173.618 -1.44352 5.29579 0
M  V30 1765 H 173.879 -2.29236 3.78026 0
M  V30 1766 N 172.938 -1.57226 0.108567 0
M  V30 1767 C 173.848 -2.18292 -0.859401 0
M  V30 1768 C 174.864 -1.15612 -1.30038 0
M  V30 1769 O 176.04 -1.48039 -1.36552 0
M  V30 1770 C 173.105 -2.762 -2.09558 0
M  V30 1771 C 172.166 -3.93881 -1.70752 0
M  V30 1772 C 171.399 -4.49018 -2.88477 0
M  V30 1773 O 171.622 -4.03068 -4.036 0
M  V30 1774 O 170.556 -5.39852 -2.66164 0
M  V30 1775 H 174.382 -3.01441 -0.369769 0
M  V30 1776 H 171.967 -1.48945 -0.1165 0
M  V30 1777 H 173.849 -3.13156 -2.81978 0
M  V30 1778 H 172.524 -1.96089 -2.57548 0
M  V30 1779 H 171.431 -3.61713 -0.954714 0
M  V30 1780 H 172.764 -4.75396 -1.27513 0
M  V30 1781 N 174.416 0.165178 -1.56732 0
M  V30 1782 C 175.364 1.22369 -1.97809 0
M  V30 1783 C 176.358 1.45488 -0.867741 0
M  V30 1784 O 177.564 1.45995 -1.05288 0
M  V30 1785 H 173.939 0.411486 -0.629431 0
M  V30 1786 H 175.91 0.850425 -2.86025 0
M  V30 1787 C 174.659 2.55403 -2.35934 0
M  V30 1788 H 173.982 2.38438 -3.20916 0
M  V30 1789 H 175.422 3.2814 -2.68514 0
M  V30 1790 C 173.881 3.14611 -1.20506 0
M  V30 1791 O 174.411 3.98626 -0.496016 0
M  V30 1792 N 172.617 2.7379 -0.97403 0
M  V30 1793 H 172.164 2.0557 -1.55238 0
M  V30 1794 H 172.122 3.1374 -0.203573 0
M  V30 1795 N 175.894 1.51508 0.433938 0
M  V30 1796 C 177.124 1.67914 1.20369 0
M  V30 1797 C 177.532 0.377461 1.85397 0
M  V30 1798 O 176.875 -0.654255 1.71654 0
M  V30 1799 C 176.937 2.74045 2.32679 0
M  V30 1800 C 176.601 4.16543 1.87991 0
M  V30 1801 C 177.598 5.01211 1.38145 0
M  V30 1802 C 175.283 4.6266 1.95579 0
M  V30 1803 C 177.277 6.30056 0.964774 0
M  V30 1804 C 174.964 5.91501 1.53523 0
M  V30 1805 C 175.962 6.75027 1.04055 0
M  V30 1806 O 175.65 8.01459 0.625964 0
M  V30 1807 H 175.382 0.566578 0.368735 0
M  V30 1808 H 177.936 1.98709 0.51999 0
M  V30 1809 H 176.166 2.38572 3.04336 0
M  V30 1810 H 177.855 2.79295 2.94532 0
M  V30 1811 H 178.621 4.66783 1.31675 0
M  V30 1812 H 174.5 3.97767 2.33029 0
M  V30 1813 H 178.044 6.95202 0.57796 0
M  V30 1814 H 173.941 6.25442 1.59665 0
M  V30 1815 H 174.709 8.15043 0.751509 0
M  V30 1816 N 177.372 -0.689602 1.41712 0
M  V30 1817 C 178.302 -1.81577 1.46806 0
M  V30 1818 C 179.283 -1.66945 0.326105 0
M  V30 1819 O 180.468 -1.86588 0.538377 0
M  V30 1820 C 177.598 -3.19762 1.35535 0
M  V30 1821 C 176.552 -3.49107 2.47605 0
M  V30 1822 C 175.878 -4.86711 2.21397 0
M  V30 1823 C 177.178 -3.47483 3.89939 0
M  V30 1824 H 178.872 -1.7757 2.41058 0
M  V30 1825 H 176.418 -0.852887 1.16025 0
M  V30 1826 H 178.371 -3.98263 1.3771 0
M  V30 1827 H 177.095 -3.24409 0.377708 0
M  V30 1828 H 175.754 -2.72959 2.44722 0
M  V30 1829 H 175.402 -4.8799 1.21961 0
M  V30 1830 H 175.102 -5.0731 2.96497 0
M  V30 1831 H 176.626 -5.67515 2.25297 0
M  V30 1832 H 178.04 -4.1598 3.94505 0
M  V30 1833 H 176.437 -3.79615 4.64771 0
M  V30 1834 H 177.507 -2.46341 4.17665 0
M  V30 1835 N 178.85 -1.27639 -0.924453 0
M  V30 1836 C 180.098 -1.13941 -1.66918 0
M  V30 1837 C 180.419 0.314589 -1.92446 0
M  V30 1838 O 179.689 1.21964 -1.53303 0
M  V30 1839 H 178.269 -0.418678 -0.618642 0
M  V30 1840 H 180.931 -1.60213 -1.10985 0
M  V30 1841 H 180.027 -1.67094 -2.63602 0
M  V30 1842 N 180.328 1.1314 -1.09713 0
M  V30 1843 C 181.553 1.88862 -0.857081 0
M  V30 1844 C 181.978 1.78729 0.586304 0
M  V30 1845 O 181.336 1.13692 1.41222 0
M  V30 1846 C 181.384 3.36325 -1.30069 0
M  V30 1847 O 180.488 4.09815 -0.461007 0
M  V30 1848 H 179.829 0.587108 -0.310162 0
M  V30 1849 H 182.359 1.43129 -1.46203 0
M  V30 1850 H 182.369 3.87157 -1.28738 0
M  V30 1851 H 181.044 3.43017 -2.35185 0
M  V30 1852 H 179.621 3.68986 -0.538888 0
M  V30 1853 N 181.806 0.884767 1.30421 0
M  V30 1854 C 183.222 0.57874 1.48737 0
M  V30 1855 C 183.422 -0.883567 1.81095 0
M  V30 1856 O 182.478 -1.6648 1.89844 0
M  V30 1857 C 183.791 1.49171 2.61091 0
M  V30 1858 C 185.339 1.49532 2.74971 0
M  V30 1859 C 185.814 2.39421 3.90438 0
M  V30 1860 N 187.305 2.37383 3.97748 0
M  V30 1861 C 188.04 3.03647 4.86401 0
M  V30 1862 N 187.536 3.79136 5.79852 0
M  V30 1863 N 189.329 2.9288 4.79768 0
M  V30 1864 H 181.48 1.83075 1.0769 0
M  V30 1865 H 183.743 0.783637 0.533495 0
M  V30 1866 H 183.449 2.53291 2.44001 0
M  V30 1867 H 183.323 1.20113 3.57565 0
M  V30 1868 H 185.71 0.46163 2.91467 0
M  V30 1869 H 185.791 1.8262 1.79119 0
M  V30 1870 H 185.435 3.42874 3.74699 0
M  V30 1871 H 185.365 2.03649 4.85628 0
M  V30 1872 H 187.856 1.82525 3.30897 0
M  V30 1873 H 188.169 4.26789 6.4426 0
M  V30 1874 H 186.514 3.83243 5.79784 0
M  V30 1875 H 189.705 2.33433 4.05742 0
M  V30 1876 H 189.878 3.448 5.4865 0
M  V30 1877 N 183.284 -1.43765 0.645699 0
M  V30 1878 C 184.561 -1.9541 0.0862963 0
M  V30 1879 C 184.941 -1.58725 -1.39175 0
M  V30 1880 O 184.289 -0.868581 -2.11348 0
M  V30 1881 C 184.499 -3.47488 0.324565 0
M  V30 1882 C 185.847 -4.24001 0.225497 0
M  V30 1883 O 186.871 -3.55274 0.256715 0
M  V30 1884 O 185.73 -5.46313 0.142801 0
M  V30 1885 H 182.824 -0.826882 -0.0139483 0
M  V30 1886 H 185.37 -1.53743 0.718415 0
M  V30 1887 H 184.142 -3.67289 1.3496 0
M  V30 1888 H 183.765 -3.96135 -0.340987 0
M  V30 1889 N 184.763 -0.387143 -1.52771 0
M  V30 1890 C 185.713 0.465942 -2.23188 0
M  V30 1891 C 186.697 1.03138 -1.23496 0
M  V30 1892 O 187.889 0.957845 -1.48843 0
M  V30 1893 C 185.018 1.59384 -3.04059 0
M  V30 1894 C 184.104 1.04024 -4.11144 0
M  V30 1895 N 184.495 0.211416 -5.05358 0
M  V30 1896 C 182.793 1.31295 -4.26237 0
M  V30 1897 C 183.494 -0.0941698 -5.81624 0
M  V30 1898 N 182.47 0.509207 -5.4121 0
M  V30 1899 H 186.272 -0.173856 -2.93385 0
M  V30 1900 H 183.786 -0.19633 -1.61209 0
M  V30 1901 H 185.783 2.21738 -3.53041 0
M  V30 1902 H 184.443 2.23648 -2.35397 0
M  V30 1903 H 185.454 -0.151151 -5.17679 0
M  V30 1904 H 182.131 1.95679 -3.68803 0
M  V30 1905 H 183.521 -0.765572 -6.67524 0
M  V30 1906 N 186.241 1.57166 -0.116904 0
M  V30 1907 C 187.488 1.95123 0.541603 0
M  V30 1908 C 187.816 1.00006 1.6682 0
M  V30 1909 O 187.071 0.0235658 1.95686 0
M  V30 1910 C 187.37 3.39508 1.11664 0
M  V30 1911 C 187.036 4.50762 0.111606 0
M  V30 1912 C 185.698 4.80918 -0.164758 0
M  V30 1913 C 188.05 5.18036 -0.573438 0
M  V30 1914 C 185.378 5.75666 -1.13249 0
M  V30 1915 C 187.73 6.13824 -1.52978 0
M  V30 1916 C 186.394 6.42374 -1.81415 0
M  V30 1917 H 185.664 0.714005 0.198187 0
M  V30 1918 H 188.311 1.9048 -0.197365 0
M  V30 1919 H 186.616 3.40835 1.93232 0
M  V30 1920 H 188.313 3.66189 1.63422 0
M  V30 1921 H 184.903 4.27272 0.337192 0
M  V30 1922 H 189.087 4.94896 -0.373092 0
M  V30 1923 H 184.343 5.96092 -1.35958 0
M  V30 1924 H 188.517 6.65039 -2.06629 0
M  V30 1925 H 186.144 7.15599 -2.56557 0
M  V30 1926 N 187.719 -0.156864 1.56817 0
M  V30 1927 C 188.682 -1.17781 1.96622 0
M  V30 1928 C 189.682 -1.36401 0.851555 0
M  V30 1929 O 190.872 -1.33561 1.11836 0
M  V30 1930 C 188.004 -2.54008 2.27361 0
M  V30 1931 H 189.197 -0.836564 2.87996 0
M  V30 1932 H 186.75 -0.39985 1.51099 0
M  V30 1933 H 187.485 -2.9312 1.38748 0
M  V30 1934 H 187.27 -2.41856 3.08623 0
M  V30 1935 H 188.76 -3.27558 2.59029 0
M  V30 1936 N 189.197 -1.51736 -0.425897 0
M  V30 1937 C 190.127 -1.76827 -1.52494 0
M  V30 1938 C 191.108 -0.618524 -1.58456 0
M  V30 1939 O 192.293 -0.862416 -1.74 0
M  V30 1940 C 189.423 -1.90374 -2.90474 0
M  V30 1941 C 188.377 -3.0588 -2.99369 0
M  V30 1942 C 187.703 -3.04625 -4.3944 0
M  V30 1943 C 189.003 -4.45644 -2.72394 0
M  V30 1944 H 190.697 -2.68855 -1.31748 0
M  V30 1945 H 188.243 -1.29372 -0.632362 0
M  V30 1946 H 190.196 -2.0651 -3.6733 0
M  V30 1947 H 188.92 -0.95004 -3.12477 0
M  V30 1948 H 187.579 -2.89467 -2.24954 0
M  V30 1949 H 187.227 -2.0701 -4.58428 0
M  V30 1950 H 186.927 -3.82195 -4.46319 0
M  V30 1951 H 188.451 -3.22869 -5.18255 0
M  V30 1952 H 189.865 -4.62348 -3.38979 0
M  V30 1953 H 188.262 -5.25006 -2.9067 0
M  V30 1954 H 189.332 -4.54893 -1.67929 0
M  V30 1955 N 190.675 0.682077 -1.42076 0
M  V30 1956 C 191.952 1.43755 -1.32642 0
M  V30 1957 C 192.332 2.11063 0.0396611 0
M  V30 1958 O 191.68 2.02701 1.05474 0
M  V30 1959 C 191.89 2.44596 -2.48946 0
M  V30 1960 C 193.238 3.09454 -2.9073 0
M  V30 1961 O 194.262 2.54922 -2.48783 0
M  V30 1962 O 193.121 4.08253 -3.63307 0
M  V30 1963 H 190.215 0.640857 -0.522715 0
M  V30 1964 H 192.761 0.711415 -1.54068 0
M  V30 1965 H 191.533 1.93609 -3.40046 0
M  V30 1966 H 191.156 3.24701 -2.29467 0
M  V30 1967 N 192.153 1.28127 0.917671 0
M  V30 1968 C 193.569 1.05749 1.19538 0
M  V30 1969 C 193.769 -0.202633 2.00479 0
M  V30 1970 O 192.825 -0.905382 2.3571 0
M  V30 1971 C 194.138 2.30273 1.93378 0
M  V30 1972 C 195.686 2.35412 2.06277 0
M  V30 1973 C 196.161 3.59692 2.83524 0
M  V30 1974 N 197.652 3.60309 2.91087 0
M  V30 1975 C 198.387 4.53147 3.51348 0
M  V30 1976 N 197.883 5.563 4.12919 0
M  V30 1977 N 199.676 4.40751 3.48849 0
M  V30 1978 H 191.827 2.09024 0.377184 0
M  V30 1979 H 194.09 0.919798 0.22951 0
M  V30 1980 H 193.796 3.22055 1.41328 0
M  V30 1981 H 193.67 2.36378 2.93947 0
M  V30 1982 H 196.057 1.4413 2.57508 0
M  V30 1983 H 196.138 2.33304 1.04895 0
M  V30 1984 H 195.782 4.51316 2.32973 0
M  V30 1985 H 195.712 3.59054 3.85211 0
M  V30 1986 H 198.203 2.85714 2.47338 0
M  V30 1987 H 198.516 6.2329 4.56869 0
M  V30 1988 H 196.861 5.60131 4.11435 0
M  V30 1989 H 200.052 3.59367 2.99955 0
M  V30 1990 H 200.225 5.13291 3.9552 0
M  V30 1991 N 193.631 -1.12557 1.10312 0
M  V30 1992 C 195.042 -1.65574 0.862678 0
M  V30 1993 C 195.393 -1.86566 -0.607256 0
M  V30 1994 O 194.518 -1.59121 -1.46662 0
M  V30 1995 C 195.113 -3.00776 1.55947 0
M  V30 1996 C 193.672 -3.50748 1.36576 0
M  V30 1997 C 192.819 -2.25797 1.60968 0
M  V30 1998 H 195.77 -0.963552 1.26101 0
M  V30 1999 H 195.791 -3.67185 0.997753 0
M  V30 2000 H 195.303 -2.85465 2.62928 0
M  V30 2001 H 193.404 -3.71245 0.317531 0
M  V30 2002 H 193.517 -4.30289 2.10686 0
M  V30 2003 H 191.881 -2.32841 1.03234 0
M  V30 2004 H 192.664 -2.13043 2.69198 0
M  V30 2005 N 195.109 -0.891671 -1.2995 0
M  V30 2006 C 196.334 -0.527932 -2.00568 0
M  V30 2007 C 196.759 0.877969 -1.66353 0
M  V30 2008 O 196.117 1.58301 -0.883762 0
M  V30 2009 C 196.165 -0.717745 -3.53385 0
M  V30 2010 O 195.269 0.233376 -4.11739 0
M  V30 2011 H 194.61 -0.20722 -0.630837 0
M  V30 2012 H 197.14 -1.20105 -1.65638 0
M  V30 2013 H 197.15 -0.619307 -4.03272 0
M  V30 2014 H 195.825 -1.74276 -3.77625 0
M  V30 2015 H 194.402 0.0880706 -3.72796 0
M  V30 2016 N 196.587 1.43421 -0.653314 0
M  V30 2017 C 197.497 2.34568 0.0388565 0
M  V30 2018 C 198.513 1.53888 0.81207 0
M  V30 2019 O 199.689 1.86539 0.759294 0
M  V30 2020 C 196.754 3.32167 0.993269 0
M  V30 2021 C 195.815 4.28751 0.216977 0
M  V30 2022 C 195.048 5.21688 1.12593 0
M  V30 2023 O 195.271 5.19052 2.36519 0
M  V30 2024 O 194.205 5.98919 0.598284 0
M  V30 2025 H 198.031 2.95251 -0.711386 0
M  V30 2026 H 195.616 1.43564 -0.413502 0
M  V30 2027 H 197.498 3.92183 1.54176 0
M  V30 2028 H 196.173 2.73987 1.72374 0
M  V30 2029 H 195.08 3.72215 -0.375101 0
M  V30 2030 H 196.413 4.89913 -0.473924 0
M  V30 2031 N 198.065 0.39524 1.52563 0
M  V30 2032 C 199.293 -0.184943 2.06072 0
M  V30 2033 C 199.708 -1.40021 1.26647 0
M  V30 2034 O 199.065 -1.79767 0.314672 0
M  V30 2035 C 199.116 -0.549179 3.57304 0
M  V30 2036 O 198.837 0.617813 4.33722 0
M  V30 2037 C 200.338 -1.18459 4.2718 0
M  V30 2038 H 197.558 -0.0265025 0.670476 0
M  V30 2039 H 200.102 0.562184 1.96621 0
M  V30 2040 H 198.257 -1.2462 3.66809 0
M  V30 2041 H 198.671 0.317091 5.23541 0
M  V30 2042 H 200.145 -1.38976 5.34219 0
M  V30 2043 H 200.622 -2.15368 3.82771 0
M  V30 2044 H 201.228 -0.528163 4.22008 0
M  V30 2045 N 199.544 -1.57102 0.125237 0
M  V30 2046 C 200.494 -2.12202 -0.833936 0
M  V30 2047 C 201.478 -1.04433 -1.22403 0
M  V30 2048 O 202.67 -1.30655 -1.19408 0
M  V30 2049 C 199.799 -2.72994 -2.08157 0
M  V30 2050 C 198.885 -3.87852 -1.71556 0
M  V30 2051 N 199.276 -4.9464 -1.05662 0
M  V30 2052 C 197.574 -3.98153 -2.00973 0
M  V30 2053 C 198.275 -5.74953 -0.883376 0
M  V30 2054 N 197.251 -5.24985 -1.41036 0
M  V30 2055 H 201.053 -2.92141 -0.321035 0
M  V30 2056 H 198.567 -1.62217 -0.0770315 0
M  V30 2057 H 200.564 -3.10816 -2.77847 0
M  V30 2058 H 199.224 -1.9452 -2.59985 0
M  V30 2059 H 200.235 -5.12872 -0.719878 0
M  V30 2060 H 196.912 -3.30728 -2.54804 0
M  V30 2061 H 198.302 -6.70904 -0.365675 0
M  V30 2062 N 201.022 0.148545 -1.56898 0
M  V30 2063 C 201.985 1.16736 -1.97244 0
M  V30 2064 C 202.985 1.35947 -0.858777 0
M  V30 2065 O 204.175 1.32966 -1.12542 0
M  V30 2066 C 201.307 2.52798 -2.28705 0
M  V30 2067 H 202.5 0.821279 -2.88435 0
M  V30 2068 H 200.053 0.391831 -1.51309 0
M  V30 2069 H 200.788 2.92381 -1.403 0
M  V30 2070 H 200.573 2.40216 -3.09901 0
M  V30 2071 H 202.063 3.26179 -2.60762 0
M  V30 2072 N 202.5 1.5196 0.417844 0
M  V30 2073 C 203.777 1.56146 1.17803 0
M  V30 2074 C 204.157 0.337275 2.08388 0
M  V30 2075 O 203.505 -0.676447 2.18258 0
M  V30 2076 C 203.715 2.88566 1.96293 0
M  V30 2077 C 205.063 3.41244 2.52662 0
M  V30 2078 O 206.087 2.90247 2.06483 0
M  V30 2079 O 204.946 4.30273 3.36938 0
M  V30 2080 H 202.04 0.628598 0.537395 0
M  V30 2081 H 204.586 1.64283 0.425331 0
M  V30 2082 H 203.358 3.69116 1.2988 0
M  V30 2083 H 202.981 2.83681 2.78587 0
M  V30 2084 N 203.978 -0.674533 1.42435 0
M  V30 2085 C 205.208 -1.46071 1.46105 0
M  V30 2086 C 205.616 -1.89067 0.0709605 0
M  V30 2087 O 204.959 -1.58731 -0.924677 0
M  V30 2088 C 205.021 -2.74145 2.32561 0
M  V30 2089 C 204.685 -2.53224 3.8043 0
M  V30 2090 C 205.682 -2.17809 4.72075 0
M  V30 2091 C 203.367 -2.6821 4.24698 0
M  V30 2092 C 205.361 -1.97648 6.05982 0
M  V30 2093 C 203.048 -2.47665 5.58664 0
M  V30 2094 C 204.046 -2.12437 6.49122 0
M  V30 2095 O 203.734 -1.9209 7.80613 0
M  V30 2096 H 203.466 -0.455959 0.499076 0
M  V30 2097 H 206.02 -0.836193 1.87609 0
M  V30 2098 H 204.25 -3.3908 1.85908 0
M  V30 2099 H 205.939 -3.36028 2.27683 0
M  V30 2100 H 206.705 -2.05826 4.39159 0
M  V30 2101 H 202.584 -2.94609 3.54579 0
M  V30 2102 H 206.128 -1.70075 6.7655 0
M  V30 2103 H 202.025 -2.59244 5.91154 0
M  V30 2104 H 202.793 -2.06686 7.91974 0
M  V30 2105 N 205.456 -1.28612 -0.910864 0
M  V30 2106 C 206.386 -1.15326 -2.03032 0
M  V30 2107 C 207.367 -0.0502924 -1.70026 0
M  V30 2108 O 208.552 -0.227797 -1.92859 0
M  V30 2109 C 205.682 -0.817343 -3.37545 0
M  V30 2110 C 204.636 -1.8754 -3.84724 0
M  V30 2111 C 203.962 -1.39305 -5.16235 0
M  V30 2112 C 205.262 -3.28244 -4.06267 0
M  V30 2113 H 206.956 -2.08975 -2.14406 0
M  V30 2114 H 204.502 -1.00612 -1.03021 0
M  V30 2115 H 206.455 -0.711151 -4.15356 0
M  V30 2116 H 205.179 0.154846 -3.26233 0
M  V30 2117 H 203.838 -1.97079 -3.09121 0
M  V30 2118 H 203.486 -0.409846 -5.01328 0
M  V30 2119 H 203.186 -2.10057 -5.48771 0
M  V30 2120 H 204.71 -1.30014 -5.96598 0
M  V30 2121 H 206.124 -3.21611 -4.74594 0
M  V30 2122 H 204.521 -3.96855 -4.5014 0
M  V30 2123 H 205.591 -3.72048 -3.10979 0
M  V30 2124 N 206.934 1.1197 -1.10907 0
M  V30 2125 C 207.864 2.19928 -0.784473 0
M  V30 2126 C 208.845 1.6833 0.244726 0
M  V30 2127 O 210.03 1.93892 0.109418 0
M  V30 2128 C 207.16 3.46597 -0.220827 0
M  V30 2129 C 206.114 4.11376 -1.18127 0
M  V30 2130 C 205.44 5.32554 -0.478594 0
M  V30 2131 C 206.74 4.56945 -2.52979 0
M  V30 2132 H 208.434 2.47337 -1.68715 0
M  V30 2133 H 205.98 1.18879 -0.812642 0
M  V30 2134 H 207.933 4.21396 0.0184278 0
M  V30 2135 H 206.657 3.1863 0.717113 0
M  V30 2136 H 205.316 3.38564 -1.40606 0
M  V30 2137 H 204.964 5.00856 0.463976 0
M  V30 2138 H 204.664 5.76844 -1.11912 0
M  V30 2139 H 206.188 6.10096 -0.248 0
M  V30 2140 H 207.602 5.23093 -2.3462 0
M  V30 2141 H 205.999 5.1203 -3.12962 0
M  V30 2142 H 207.069 3.70676 -3.12614 0
M  V30 2143 N 208.412 0.89855 1.29475 0
M  V30 2144 C 209.828 0.594483 1.48115 0
M  V30 2145 C 210.028 -0.86431 1.82022 0
M  V30 2146 O 209.084 -1.64457 1.91599 0
M  V30 2147 C 210.397 1.51932 2.59494 0
M  V30 2148 C 211.945 1.5244 2.7337 0
M  V30 2149 C 212.42 2.43548 3.87877 0
M  V30 2150 N 213.911 2.41589 3.95208 0
M  V30 2151 C 214.646 3.08789 4.83153 0
M  V30 2152 N 214.142 3.85265 5.75798 0
M  V30 2153 N 215.935 2.97952 4.76635 0
M  V30 2154 H 208.086 1.84207 1.05742 0
M  V30 2155 H 210.349 0.789251 0.525154 0
M  V30 2156 H 210.055 2.55865 2.41301 0
M  V30 2157 H 209.929 1.23899 3.56271 0
M  V30 2158 H 212.316 0.492518 2.90961 0
M  V30 2159 H 212.397 1.8451 1.77172 0
M  V30 2160 H 212.041 3.46829 3.71041 0
M  V30 2161 H 211.971 2.08788 4.83441 0
M  V30 2162 H 214.462 1.86025 3.28943 0
M  V30 2163 H 214.775 4.33598 6.39697 0
M  V30 2164 H 213.12 3.89371 5.75687 0
M  V30 2165 H 216.311 2.37723 4.03244 0
M  V30 2166 H 216.484 3.50599 5.44962 0
M  V30 2167 N 209.89 -1.43072 0.660911 0
M  V30 2168 C 211.118 -2.06067 0.185422 0
M  V30 2169 C 211.533 -1.49582 -1.15198 0
M  V30 2170 O 210.89 -0.630134 -1.71276 0
M  V30 2171 C 210.941 -3.61371 0.0966523 0
M  V30 2172 O 210.662 -4.15758 1.38119 0
M  V30 2173 C 212.163 -4.41455 -0.403996 0
M  V30 2174 H 209.383 -0.664459 0.0934604 0
M  V30 2175 H 211.927 -1.83447 0.90373 0
M  V30 2176 H 210.082 -3.8315 -0.572259 0
M  V30 2177 H 210.496 -5.09499 1.24542 0
M  V30 2178 H 211.97 -5.50437 -0.415045 0
M  V30 2179 H 212.447 -4.15036 -1.43674 0
M  V30 2180 H 213.053 -4.24663 0.232691 0
M  V30 2181 N 211.368 -0.403325 -1.52352 0
M  V30 2182 C 212.616 0.174003 -2.0135 0
M  V30 2183 C 212.937 1.46139 -1.29106 0
M  V30 2184 O 212.207 1.91448 -0.415253 0
M  V30 2185 H 210.787 0.0672911 -0.743963 0
M  V30 2186 H 213.449 -0.538235 -1.87321 0
M  V30 2187 H 212.545 0.374254 -3.09848 0
M  V30 2188 N 212.846 1.57033 -0.133567 0
M  V30 2189 C 213.778 2.13176 0.841944 0
M  V30 2190 C 214.791 1.07794 1.22001 0
M  V30 2191 O 215.98 1.35117 1.16643 0
M  V30 2192 C 213.08 2.62847 2.13926 0
M  V30 2193 C 212.253 3.92486 1.93064 0
M  V30 2194 C 211.312 4.27605 3.0666 0
M  V30 2195 O 210.338 4.96168 2.78937 0
M  V30 2196 N 211.54 3.861 4.33483 0
M  V30 2197 H 214.305 2.97503 0.362192 0
M  V30 2198 H 211.866 1.61821 0.05042 0
M  V30 2199 H 213.858 2.83363 2.88942 0
M  V30 2200 H 212.428 1.83319 2.53205 0
M  V30 2201 H 211.648 3.80732 1.02159 0
M  V30 2202 H 212.936 4.77225 1.76447 0
M  V30 2203 H 212.334 3.30828 4.58878 0
M  V30 2204 H 210.891 4.11694 5.05323 0
M  V30 2205 N 214.325 -0.140222 1.56975 0
M  V30 2206 C 215.571 -0.852949 1.83991 0
M  V30 2207 C 215.904 -1.80512 0.716187 0
M  V30 2208 O 215.179 -1.92479 -0.279681 0
M  V30 2209 C 215.462 -1.6215 3.21527 0
M  V30 2210 C 215.315 -0.690363 4.4447 0
M  V30 2211 C 216.634 -2.58247 3.56366 0
M  V30 2212 H 213.753 -0.308634 0.669264 0
M  V30 2213 H 216.395 -0.117898 1.89634 0
M  V30 2214 H 214.545 -2.24812 3.16847 0
M  V30 2215 H 216.217 -0.0742264 4.6124 0
M  V30 2216 H 214.46 -0.000396433 4.338 0
M  V30 2217 H 215.131 -1.2643 5.37326 0
M  V30 2218 H 217.607 -2.05701 3.61699 0
M  V30 2219 H 216.483 -3.09067 4.53617 0
M  V30 2220 H 216.744 -3.39923 2.82674 0
M  V30 2221 N 215.803 -1.52179 -0.40978 0
M  V30 2222 C 217.049 -1.66453 -1.15851 0
M  V30 2223 C 217.382 -0.392972 -1.90182 0
M  V30 2224 O 216.657 0.608579 -1.84734 0
M  V30 2225 C 216.94 -2.88612 -2.15349 0
M  V30 2226 C 216.793 -4.25815 -1.44918 0
M  V30 2227 C 218.112 -3.06294 -3.16026 0
M  V30 2228 H 215.231 -0.60575 -0.419805 0
M  V30 2229 H 217.873 -1.84732 -0.444314 0
M  V30 2230 H 216.023 -2.73158 -2.76255 0
M  V30 2231 H 217.695 -4.52995 -0.871365 0
M  V30 2232 H 215.938 -4.27247 -0.751159 0
M  V30 2233 H 216.609 -5.07337 -2.17516 0
M  V30 2234 H 219.085 -3.20641 -2.65195 0
M  V30 2235 H 217.961 -3.93283 -3.8291 0
M  V30 2236 H 218.222 -2.19579 -3.83715 0
M  V30 2237 N 217.281 0.66697 -1.42791 0
M  V30 2238 C 218.558 1.4234 -1.34159 0
M  V30 2239 C 218.938 2.11093 0.0172729 0
M  V30 2240 O 218.286 2.03808 1.03318 0
M  V30 2241 C 218.496 2.41942 -2.51526 0
M  V30 2242 C 219.844 3.06353 -2.93995 0
M  V30 2243 O 220.868 2.52269 -2.51473 0
M  V30 2244 O 219.727 4.04376 -3.67617 0
M  V30 2245 H 216.821 0.635277 -0.529483 0
M  V30 2246 H 219.367 0.695034 -1.54814 0
M  V30 2247 H 218.139 1.89991 -3.42081 0
M  V30 2248 H 217.762 3.22249 -2.32898 0
M  V30 2249 N 218.759 1.29093 0.90403 0
M  V30 2250 C 220.008 1.16187 1.64874 0
M  V30 2251 C 220.321 -0.286742 1.93487 0
M  V30 2252 O 221.527 -0.537062 2.66135 0
M  V30 2253 C 219.983 2.03177 2.97064 0
M  V30 2254 C 219.591 3.52836 2.76062 0
M  V30 2255 C 221.335 1.98984 3.74974 0
M  V30 2256 C 219.242 4.31945 4.03952 0
M  V30 2257 H 218.172 0.431246 0.618501 0
M  V30 2258 H 220.823 1.53699 1.00243 0
M  V30 2259 H 219.205 1.5853 3.62883 0
M  V30 2260 H 220.379 4.05507 2.18863 0
M  V30 2261 H 218.694 3.58656 2.11553 0
M  V30 2262 H 221.291 2.55351 4.69787 0
M  V30 2263 H 221.634 0.968815 4.0487 0
M  V30 2264 H 222.167 2.41652 3.15989 0
M  V30 2265 H 218.906 5.34667 3.79225 0
M  V30 2266 H 218.426 3.84045 4.60727 0
M  V30 2267 H 220.105 4.42379 4.72133 0
M  V30 2268 N 220.237 -1.11381 1.11499 0
M  V30 2269 C 221.462 -1.87475 0.887019 0
M  V30 2270 C 221.887 -1.79639 -0.557796 0
M  V30 2271 O 221.245 -1.15924 -1.39396 0
M  V30 2272 C 221.293 -3.34213 1.35403 0
M  V30 2273 O 220.397 -4.0903 0.526146 0
M  V30 2274 H 219.738 -0.582099 0.319463 0
M  V30 2275 H 222.268 -1.40785 1.48461 0
M  V30 2276 H 222.278 -3.8506 1.34881 0
M  V30 2277 H 220.953 -3.39232 2.40612 0
M  V30 2278 H 219.53 -3.68082 0.597522 0
M  V30 2279 N 221.715 -0.905404 -1.28997 0
M  V30 2280 C 222.992 -0.453513 -1.9027 0
M  V30 2281 C 223.372 1.06721 -1.82137 0
M  V30 2282 O 222.72 1.91159 -1.25182 0
M  V30 2283 C 222.93 -0.974494 -3.35119 0
M  V30 2284 C 224.278 -1.0216 -4.12127 0
M  V30 2285 O 225.302 -0.922557 -3.44046 0
M  V30 2286 O 224.161 -1.17121 -5.33802 0
M  V30 2287 H 221.255 -0.142347 -0.814657 0
M  V30 2288 H 223.801 -0.995642 -1.37423 0
M  V30 2289 H 222.573 -2.01848 -3.35221 0
M  V30 2290 H 222.196 -0.412706 -3.95452 0
M  V30 2291 N 223.193 1.4272 -0.668489 0
M  V30 2292 C 224.421 2.05966 -0.196348 0
M  V30 2293 C 224.836 1.50191 1.14403 0
M  V30 2294 O 224.193 0.639208 1.7094 0
M  V30 2295 C 224.244 3.61314 -0.115815 0
M  V30 2296 O 223.965 4.1502 -1.40322 0
M  V30 2297 C 225.466 4.41663 0.380579 0
M  V30 2298 H 222.686 0.663954 -0.0969829 0
M  V30 2299 H 225.23 1.82966 -0.913446 0
M  V30 2300 H 223.385 3.83448 0.551931 0
M  V30 2301 H 223.799 5.08832 -1.27243 0
M  V30 2302 H 225.273 5.5065 0.385848 0
M  V30 2303 H 225.75 4.15792 1.41471 0
M  V30 2304 H 226.356 4.24534 -0.255209 0
M  V30 2305 N 224.671 0.411399 1.52136 0
M  V30 2306 C 225.92 -0.165009 2.01024 0
M  V30 2307 C 226.233 -1.4603 1.30133 0
M  V30 2308 O 227.439 -2.1181 1.69849 0
M  V30 2309 C 225.895 -0.344618 3.58246 0
M  V30 2310 C 225.503 0.938716 4.38055 0
M  V30 2311 C 227.247 -0.876195 4.15359 0
M  V30 2312 C 225.154 0.726172 5.86925 0
M  V30 2313 H 224.084 -0.0654407 0.751155 0
M  V30 2314 H 226.735 0.537192 1.75461 0
M  V30 2315 H 225.117 -1.10921 3.80148 0
M  V30 2316 H 226.291 1.70963 4.27912 0
M  V30 2317 H 224.606 1.39688 3.92271 0
M  V30 2318 H 227.203 -1.05128 5.24263 0
M  V30 2319 H 227.546 -1.85152 3.7286 0
M  V30 2320 H 228.079 -0.170607 3.97434 0
M  V30 2321 H 224.818 1.67312 6.33788 0
M  V30 2322 H 224.338 -0.00540283 5.998 0
M  V30 2323 H 226.017 0.369231 6.45946 0
M  V30 2324 N 226.149 -1.5696 0.141893 0
M  V30 2325 C 227.379 -2.00031 -0.516828 0
M  V30 2326 C 227.787 -1.02091 -1.59293 0
M  V30 2327 O 227.13 -0.00909657 -1.83698 0
M  V30 2328 C 227.192 -3.39534 -1.1814 0
M  V30 2329 C 226.856 -4.56313 -0.250513 0
M  V30 2330 C 227.853 -5.17295 0.519839 0
M  V30 2331 C 225.538 -5.02061 -0.154907 0
M  V30 2332 C 227.532 -6.2243 1.3733 0
M  V30 2333 C 225.219 -6.07053 0.702161 0
M  V30 2334 C 226.217 -6.67106 1.46487 0
M  V30 2335 O 225.905 -7.70066 2.30767 0
M  V30 2336 H 225.637 -0.661451 -0.139493 0
M  V30 2337 H 228.191 -2.04086 0.231926 0
M  V30 2338 H 226.421 -3.32302 -1.97769 0
M  V30 2339 H 228.11 -3.66745 -1.73933 0
M  V30 2340 H 228.876 -4.82852 0.45598 0
M  V30 2341 H 224.755 -4.5505 -0.7383 0
M  V30 2342 H 228.299 -6.69233 1.96909 0
M  V30 2343 H 224.196 -6.40923 0.76733 0
M  V30 2344 H 224.964 -7.87264 2.23959 0
M  V30 2345 N 227.627 0.131896 -1.57047 0
M  V30 2346 C 229.038 0.690407 -1.73465 0
M  V30 2347 C 229.389 1.8094 -0.758629 0
M  V30 2348 O 228.514 2.16282 0.0713813 0
M  V30 2349 C 229.109 1.25916 -3.14532 0
M  V30 2350 C 227.668 1.76409 -3.32501 0
M  V30 2351 C 226.815 0.658579 -2.69366 0
M  V30 2352 H 229.766 -0.0939144 -1.58422 0
M  V30 2353 H 229.787 2.12892 -3.15369 0
M  V30 2354 H 229.299 0.444515 -3.85546 0
M  V30 2355 H 227.4 2.60391 -2.66509 0
M  V30 2356 H 227.513 1.88241 -4.4057 0
M  V30 2357 H 225.877 1.08899 -2.30246 0
M  V30 2358 H 226.66 -0.14487 -3.42994 0
M  V30 2359 N 229.106 1.52395 0.401703 0
M  V30 2360 C 230.522 1.41363 0.740864 0
M  V30 2361 C 230.722 0.523982 1.94568 0
M  V30 2362 O 229.778 -0.00741204 2.52499 0
M  V30 2363 C 231.091 2.84011 0.987847 0
M  V30 2364 C 232.639 2.93404 1.09011 0
M  V30 2365 C 233.114 4.37036 1.3698 0
M  V30 2366 N 234.605 4.40304 1.43829 0
M  V30 2367 C 235.34 5.48508 1.67112 0
M  V30 2368 N 234.836 6.66819 1.87949 0
M  V30 2369 N 236.629 5.36034 1.69187 0
M  V30 2370 H 228.78 2.08765 -0.391262 0
M  V30 2371 H 231.043 0.941265 -0.112798 0
M  V30 2372 H 230.749 3.51265 0.174835 0
M  V30 2373 H 230.623 3.25502 1.906 0
M  V30 2374 H 233.01 2.26325 1.8937 0
M  V30 2375 H 233.091 2.55359 0.15015 0
M  V30 2376 H 232.735 5.04676 0.571353 0
M  V30 2377 H 232.665 4.72623 2.3224 0
M  V30 2378 H 235.156 3.55024 1.29486 0
M  V30 2379 H 235.469 7.45063 2.05185 0
M  V30 2380 H 233.814 6.6987 1.85199 0
M  V30 2381 H 237.005 4.42579 1.52451 0
M  V30 2382 H 237.178 6.20434 1.86993 0
M  V30 2383 N 230.584 -0.659388 1.43143 0
M  V30 2384 C 231.532 -1.79374 1.4808 0
M  V30 2385 C 232.526 -1.65639 0.354988 0
M  V30 2386 O 233.732 -1.7206 0.528704 0
M  V30 2387 H 230.107 -0.591705 0.4641 0
M  V30 2388 H 232.078 -1.72329 2.43609 0
M  V30 2389 C 230.827 -3.17606 1.41499 0
M  V30 2390 H 230.15 -3.28809 2.27431 0
M  V30 2391 H 231.59 -3.96951 1.49015 0
M  V30 2392 C 230.049 -3.36642 0.131765 0
M  V30 2393 O 230.579 -3.93461 -0.809386 0
M  V30 2394 N 228.785 -2.90567 0.0439396 0
M  V30 2395 H 228.332 -2.44513 0.810619 0
M  V30 2396 H 228.29 -3.03681 -0.813969 0
M  V30 2397 N 232.062 -1.29571 -0.897171 0
M  V30 2398 C 233.473 -1.15964 -1.46319 0
M  V30 2399 C 233.824 0.244267 -1.94674 0
M  V30 2400 O 232.949 1.13998 -1.83939 0
M  V30 2401 C 233.544 -2.09906 -2.65942 0
M  V30 2402 C 232.103 -2.00314 -3.18671 0
M  V30 2403 C 231.25 -2.00687 -1.91363 0
M  V30 2404 H 234.201 -1.42019 -0.708268 0
M  V30 2405 H 234.222 -1.67276 -3.41759 0
M  V30 2406 H 233.734 -3.12075 -2.30718 0
M  V30 2407 H 231.835 -1.01242 -3.58582 0
M  V30 2408 H 231.948 -2.88102 -3.82798 0
M  V30 2409 H 230.312 -1.45319 -2.09175 0
M  V30 2410 H 231.095 -3.04566 -1.58413 0
M  V30 2411 N 233.54 1.10788 -1.12088 0
M  V30 2412 C 234.503 2.15207 -0.788577 0
M  V30 2413 C 235.503 1.59609 0.195317 0
M  V30 2414 O 236.693 1.74174 -0.0300193 0
M  V30 2415 C 233.825 3.4047 -0.171174 0
M  V30 2416 H 235.018 2.46116 -1.71368 0
M  V30 2417 H 232.571 1.26089 -0.923652 0
M  V30 2418 H 233.306 3.15176 0.763832 0
M  V30 2419 H 233.091 3.82109 -0.879514 0
M  V30 2420 H 234.581 4.17576 0.04496 0
M  V30 2421 N 235.018 0.912232 1.28515 0
M  V30 2422 C 235.951 0.343928 2.25593 0
M  V30 2423 C 236.929 -0.550994 1.5298 0
M  V30 2424 O 238.113 -0.494991 1.81885 0
M  V30 2425 C 235.24 -0.508525 3.34861 0
M  V30 2426 C 234.286 0.320808 4.25292 0
M  V30 2427 S 235.119 1.72658 5.06902 0
M  V30 2428 C 236.275 0.881394 6.19663 0
M  V30 2429 H 236.508 1.16674 2.73449 0
M  V30 2430 H 234.041 0.713384 1.36931 0
M  V30 2431 H 235.999 -0.994539 3.9827 0
M  V30 2432 H 234.66 -1.30571 2.85675 0
M  V30 2433 H 233.853 -0.330941 5.02912 0
M  V30 2434 H 233.455 0.74042 3.66598 0
M  V30 2435 H 235.747 0.110359 6.7741 0
M  V30 2436 H 236.69 1.63009 6.89082 0
M  V30 2437 H 237.098 0.430239 5.62858 0
M  V30 2438 N 236.496 -1.42363 0.676048 0
M  V30 2439 C 237.726 -2.05561 0.206967 0
M  V30 2440 C 238.134 -1.50887 -1.14148 0
M  V30 2441 O 237.477 -0.643933 -1.72044 0
M  V30 2442 C 237.539 -3.5944 0.0659508 0
M  V30 2443 C 237.203 -4.36812 1.34331 0
M  V30 2444 C 238.2 -4.67383 2.27704 0
M  V30 2445 C 235.885 -4.76429 1.59125 0
M  V30 2446 C 237.879 -5.36509 3.44147 0
M  V30 2447 C 235.566 -5.45294 2.75857 0
M  V30 2448 C 236.564 -5.75259 3.68193 0
M  V30 2449 O 236.252 -6.42712 4.82883 0
M  V30 2450 H 235.984 -0.668872 0.0979084 0
M  V30 2451 H 238.538 -1.83467 0.923531 0
M  V30 2452 H 236.768 -3.80197 -0.706204 0
M  V30 2453 H 238.457 -4.0427 -0.363418 0
M  V30 2454 H 239.223 -4.37275 2.09799 0
M  V30 2455 H 235.102 -4.52498 0.881258 0
M  V30 2456 H 238.646 -5.59814 4.16238 0
M  V30 2457 H 234.543 -5.7482 2.93688 0
M  V30 2458 H 235.311 -6.61204 4.82444 0
M  V30 2459 N 237.974 -0.419461 -1.51915 0
M  V30 2460 C 239.199 0.154572 -2.06823 0
M  V30 2461 C 239.624 1.3722 -1.28656 0
M  V30 2462 O 238.982 1.78461 -0.319583 0
M  V30 2463 C 239.03 0.473172 -3.57482 0
M  V30 2464 O 238.134 1.56255 -3.81652 0
M  V30 2465 H 237.475 0.0096924 -0.663929 0
M  V30 2466 H 240.005 -0.595642 -1.95738 0
M  V30 2467 H 240.015 0.728825 -4.01438 0
M  V30 2468 H 238.69 -0.416873 -4.13805 0
M  V30 2469 H 237.267 1.29825 -3.49571 0
M  V30 2470 N 239.452 1.56882 -0.150215 0
M  V30 2471 C 240.362 2.20494 0.801222 0
M  V30 2472 C 241.378 1.19019 1.26927 0
M  V30 2473 O 242.554 1.51607 1.32579 0
M  V30 2474 C 239.619 2.81659 2.02161 0
M  V30 2475 C 238.68 3.9827 1.60249 0
M  V30 2476 C 237.913 4.56508 2.7647 0
M  V30 2477 O 238.136 4.13627 3.92771 0
M  V30 2478 O 237.07 5.46719 2.51757 0
M  V30 2479 H 240.896 3.02315 0.289717 0
M  V30 2480 H 238.481 1.49202 0.0769684 0
M  V30 2481 H 240.363 3.20522 2.73576 0
M  V30 2482 H 239.038 2.02849 2.52258 0
M  V30 2483 H 237.945 3.64117 0.858477 0
M  V30 2484 H 239.278 4.78609 1.14864 0
M  V30 2485 N 240.93 -0.123565 1.57115 0
M  V30 2486 C 241.84 -1.17074 2.033 0
M  V30 2487 C 242.856 -1.4561 0.952559 0
M  V30 2488 O 244.032 -1.56817 1.26374 0
M  V30 2489 C 241.097 -2.47857 2.42421 0
M  V30 2490 C 240.158 -2.26758 3.64526 0
M  V30 2491 C 239.391 -3.51305 4.01771 0
M  V30 2492 O 239.614 -4.5843 3.39409 0
M  V30 2493 O 238.548 -3.42578 4.94898 0
M  V30 2494 H 242.374 -0.808555 2.92739 0
M  V30 2495 H 239.959 -0.334027 1.45618 0
M  V30 2496 H 241.841 -3.2492 2.68338 0
M  V30 2497 H 240.516 -2.83558 1.5613 0
M  V30 2498 H 239.423 -1.47569 3.43765 0
M  V30 2499 H 240.756 -1.95963 4.51508 0
M  V30 2500 N 242.408 -1.52605 -0.393616 0
M  V30 2501 C 243.371 -1.76415 -1.46323 0
M  V30 2502 C 244.371 -0.634126 -1.47768 0
M  V30 2503 O 245.561 -0.902142 -1.4902 0
M  V30 2504 C 242.693 -1.8607 -2.85641 0
M  V30 2505 H 243.886 -2.71916 -1.26498 0
M  V30 2506 H 241.439 -1.43257 -0.625073 0
M  V30 2507 H 242.174 -0.925378 -3.10817 0
M  V30 2508 H 241.959 -2.68235 -2.85993 0
M  V30 2509 H 243.449 -2.06179 -3.63153 0
M  V30 2510 N 243.887 0.651787 -1.4349 0
M  V30 2511 C 245.303 0.96762 -1.26922 0
M  V30 2512 C 245.503 2.00602 -0.189982 0
M  V30 2513 O 244.559 2.48793 0.431107 0
M  V30 2514 C 245.872 1.45052 -2.63401 0
M  V30 2515 C 247.42 1.5671 -2.70945 0
M  V30 2516 C 247.895 2.0839 -4.07845 0
M  V30 2517 N 249.386 2.1569 -4.09917 0
M  V30 2518 C 250.121 2.56804 -5.12679 0
M  V30 2519 N 249.617 2.97203 -6.25813 0
M  V30 2520 N 251.41 2.56756 -5.00033 0
M  V30 2521 H 243.561 -0.0353158 -2.12371 0
M  V30 2522 H 245.824 0.0467858 -0.946845 0
M  V30 2523 H 245.53 0.761926 -3.43348 0
M  V30 2524 H 245.404 2.42529 -2.88894 0
M  V30 2525 H 247.791 2.2467 -1.9133 0
M  V30 2526 H 247.872 0.57662 -2.49216 0
M  V30 2527 H 247.516 1.41031 -4.87927 0
M  V30 2528 H 247.446 3.08271 -4.26938 0
M  V30 2529 H 249.937 1.87237 -3.28254 0
M  V30 2530 H 250.25 3.27328 -7.00055 0
M  V30 2531 H 248.595 2.95004 -6.29283 0
M  V30 2532 H 251.786 2.24572 -4.10713 0
M  V30 2533 H 251.959 2.88475 -5.80247 0
M  V30 2534 N 245.365 1.30045 0.890287 0
M  V30 2535 C 246.295 1.18541 2.01172 0
M  V30 2536 C 247.276 0.0773356 1.69924 0
M  V30 2537 O 248.461 0.25845 1.92473 0
M  V30 2538 C 245.591 0.870941 3.36202 0
M  V30 2539 C 244.545 1.93637 3.81692 0
M  V30 2540 C 243.871 1.475 5.13953 0
M  V30 2541 C 245.171 3.34666 4.00994 0
M  V30 2542 H 246.865 2.12359 2.11054 0
M  V30 2543 H 244.411 1.02238 1.01407 0
M  V30 2544 H 246.364 0.777141 4.14172 0
M  V30 2545 H 245.088 -0.102926 3.26438 0
M  V30 2546 H 243.747 2.01972 3.05946 0
M  V30 2547 H 243.395 0.489551 5.00612 0
M  V30 2548 H 243.095 2.1876 5.4536 0
M  V30 2549 H 244.619 1.39489 5.94454 0
M  V30 2550 H 246.033 3.2912 4.69417 0
M  V30 2551 H 244.43 4.03966 4.43769 0
M  V30 2552 H 245.5 3.76949 3.05021 0
M  V30 2553 N 246.843 -1.10192 1.12674 0
M  V30 2554 C 247.79 -2.16606 0.796906 0
M  V30 2555 C 248.76 -1.64394 -0.237476 0
M  V30 2556 O 249.945 -1.90474 -0.111484 0
M  V30 2557 C 247.085 -3.44116 0.26043 0
M  V30 2558 C 246.198 -4.10268 1.35293 0
M  V30 2559 C 245.333 -5.25507 0.775621 0
M  V30 2560 C 244.372 -5.83567 1.84706 0
M  V30 2561 N 243.509 -6.90179 1.28829 0
M  V30 2562 H 248.349 -2.44163 1.70846 0
M  V30 2563 H 245.886 -1.19846 0.85295 0
M  V30 2564 H 247.844 -4.17143 -0.0686814 0
M  V30 2565 H 246.474 -3.16901 -0.614274 0
M  V30 2566 H 245.526 -3.35184 1.79877 0
M  V30 2567 H 246.838 -4.4946 2.16303 0
M  V30 2568 H 245.992 -6.05398 0.397327 0
M  V30 2569 H 244.731 -4.87656 -0.0656581 0
M  V30 2570 H 243.736 -5.02344 2.23452 0
M  V30 2571 H 244.961 -6.23482 2.69161 0
M  V30 2572 H 242.907 -6.54322 0.468881 0
M  V30 2573 H 242.824 -7.28097 2.03497 0
M  V30 2574 H 244.092 -7.73844 0.937311 0
M  V30 2575 N 248.321 -0.919034 -1.28029 0
M  V30 2576 C 249.546 -0.570357 -1.99403 0
M  V30 2577 C 249.971 0.842486 -1.68178 0
M  V30 2578 O 249.329 1.56391 -0.917141 0
M  V30 2579 C 249.377 -0.792541 -3.51783 0
M  V30 2580 O 248.481 0.145988 -4.12142 0
M  V30 2581 H 247.822 -0.220555 -0.6263 0
M  V30 2582 H 250.352 -1.23592 -1.63053 0
M  V30 2583 H 250.362 -0.704708 -4.01868 0
M  V30 2584 H 249.037 -1.82247 -3.73844 0
M  V30 2585 H 247.614 0.00897528 -3.72899 0
M  V30 2586 N 249.799 1.42003 -0.683588 0
M  V30 2587 C 251.046 2.01413 -0.209514 0
M  V30 2588 C 251.374 1.54088 1.1869 0
M  V30 2589 O 250.629 0.737591 1.81268 0
M  V30 2590 C 250.928 3.56827 -0.202357 0
M  V30 2591 C 250.594 4.23617 -1.54464 0
M  V30 2592 C 249.256 4.41577 -1.91215 0
M  V30 2593 C 251.608 4.61178 -2.42826 0
M  V30 2594 C 248.936 4.9437 -3.15935 0
M  V30 2595 C 251.288 5.15355 -3.66867 0
M  V30 2596 C 249.952 5.31528 -4.03776 0
M  V30 2597 H 249.222 0.737023 -0.0766668 0
M  V30 2598 H 251.869 1.70067 -0.880312 0
M  V30 2599 H 250.174 3.87892 0.551969 0
M  V30 2600 H 251.871 4.00588 0.181793 0
M  V30 2601 H 248.461 4.10004 -1.24877 0
M  V30 2602 H 252.645 4.46968 -2.15717 0
M  V30 2603 H 247.901 5.05076 -3.44541 0
M  V30 2604 H 252.075 5.43402 -4.35531 0
M  V30 2605 H 249.702 5.72199 -5.00492 0
M  V30 2606 N 251.277 0.427512 1.51691 0
M  V30 2607 C 252.209 -0.424521 2.25234 0
M  V30 2608 C 253.222 -0.994671 1.2888 0
M  V30 2609 O 254.411 -0.890483 1.54702 0
M  V30 2610 C 251.511 -1.60479 2.98496 0
M  V30 2611 C 250.684 -1.15527 4.21868 0
M  V30 2612 C 249.743 -2.20454 4.77793 0
M  V30 2613 O 248.769 -1.8029 5.39893 0
M  V30 2614 N 249.971 -3.52831 4.60967 0
M  V30 2615 H 252.736 0.205749 2.98993 0
M  V30 2616 H 250.297 0.255867 1.59865 0
M  V30 2617 H 252.289 -2.30276 3.32799 0
M  V30 2618 H 250.859 -2.14061 2.27809 0
M  V30 2619 H 250.079 -0.284736 3.9317 0
M  V30 2620 H 251.367 -0.832173 5.01949 0
M  V30 2621 H 250.765 -3.88201 4.11481 0
M  V30 2622 H 249.322 -4.18551 4.99658 0
M  V30 2623 N 252.755 -1.56801 0.158532 0
M  V30 2624 C 253.703 -2.18638 -0.793729 0
M  V30 2625 C 254.697 -1.14669 -1.24689 0
M  V30 2626 O 255.903 -1.32895 -1.21403 0
M  V30 2627 H 252.278 -0.700226 -0.274204 0
M  V30 2628 H 254.249 -2.97367 -0.248095 0
M  V30 2629 C 252.998 -2.83139 -2.0181 0
M  V30 2630 H 252.321 -3.62863 -1.67841 0
M  V30 2631 H 253.761 -3.29894 -2.66357 0
M  V30 2632 C 252.22 -1.82244 -2.83353 0
M  V30 2633 O 252.75 -1.3 -3.80083 0
M  V30 2634 N 250.956 -1.51288 -2.48114 0
M  V30 2635 H 250.503 -1.93964 -1.69516 0
M  V30 2636 H 250.461 -0.840296 -3.02963 0
M  V30 2637 N 254.233 0.115231 -1.57178 0
M  V30 2638 C 255.479 0.818565 -1.86202 0
M  V30 2639 C 255.834 1.77316 -0.746785 0
M  V30 2640 O 255.127 1.89923 0.25291 0
M  V30 2641 C 255.321 1.60324 -3.19423 0
M  V30 2642 C 255.15 0.726138 -4.43799 0
M  V30 2643 C 253.92 0.379535 -5.03873 0
M  V30 2644 C 256.118 0.0420774 -5.14283 0
M  V30 2645 N 254.1 -0.507841 -6.11796 0
M  V30 2646 C 255.471 -0.704152 -6.15988 0
M  V30 2647 C 257.526 -0.0339486 -4.97888 0
M  V30 2648 C 256.229 -1.51927 -7.03072 0
M  V30 2649 C 258.255 -0.835906 -5.85463 0
M  V30 2650 C 257.617 -1.57031 -6.86673 0
M  V30 2651 H 253.716 0.276343 -0.731545 0
M  V30 2652 H 256.3 0.0821032 -1.94527 0
M  V30 2653 H 254.471 2.31072 -3.12186 0
M  V30 2654 H 256.203 2.2522 -3.36241 0
M  V30 2655 H 252.958 0.722634 -4.68054 0
M  V30 2656 H 253.382 -0.94349 -6.70393 0
M  V30 2657 H 258.024 0.519496 -4.19596 0
M  V30 2658 H 255.742 -2.08386 -7.80769 0
M  V30 2659 H 259.328 -0.89714 -5.74841 0
M  V30 2660 H 258.208 -2.18088 -7.53264 0
M  V30 2661 N 255.711 1.52812 0.385517 0
M  V30 2662 C 257.122 1.5993 0.963293 0
M  V30 2663 C 257.473 0.454302 1.90868 0
M  V30 2664 O 256.598 -0.422132 2.12243 0
M  V30 2665 C 257.193 2.89871 1.75387 0
M  V30 2666 C 255.752 2.99389 2.28129 0
M  V30 2667 C 254.899 2.55071 1.08783 0
M  V30 2668 H 257.85 1.5784 0.164948 0
M  V30 2669 H 257.871 2.76553 2.61341 0
M  V30 2670 H 257.383 3.73186 1.06554 0
M  V30 2671 H 255.484 2.20619 3.00263 0
M  V30 2672 H 255.597 4.04096 2.57377 0
M  V30 2673 H 253.961 2.09473 1.4489 0
M  V30 2674 H 254.744 3.40785 0.414807 0
M  V30 2675 N 257.189 -0.644168 1.43834 0
M  V30 2676 C 258.466 -1.40188 1.36406 0
M  V30 2677 C 258.846 -2.11094 0.0163124 0
M  V30 2678 O 258.194 -2.05426 -1.00062 0
M  V30 2679 C 258.404 -2.3791 2.55343 0
M  V30 2680 C 259.752 -3.01637 2.98832 0
M  V30 2681 O 260.776 -2.48237 2.55455 0
M  V30 2682 O 259.635 -3.98477 3.74003 0
M  V30 2683 H 256.729 -0.626773 0.539523 0
M  V30 2684 H 259.275 -0.670317 1.559 0
M  V30 2685 H 258.047 -1.84525 3.4506 0
M  V30 2686 H 257.67 -3.18503 2.37995 0
M  V30 2687 N 258.668 -1.30515 -0.883378 0
M  V30 2688 C 259.898 -1.22182 -1.66599 0
M  V30 2689 C 260.306 0.217507 -1.87946 0
M  V30 2690 O 259.649 1.1554 -1.42815 0
M  V30 2691 C 259.711 -1.88146 -3.06335 0
M  V30 2692 C 259.375 -3.37476 -3.08154 0
M  V30 2693 C 260.372 -4.33443 -2.87094 0
M  V30 2694 C 258.057 -3.7895 -3.29701 0
M  V30 2695 C 260.051 -5.68858 -2.8754 0
M  V30 2696 C 257.738 -5.14482 -3.29776 0
M  V30 2697 C 258.736 -6.09246 -3.0872 0
M  V30 2698 O 258.424 -7.42302 -3.08615 0
M  V30 2699 H 258.156 -0.423898 -0.52658 0
M  V30 2700 H 260.71 -1.72703 -1.11188 0
M  V30 2701 H 258.94 -1.32157 -3.63416 0
M  V30 2702 H 260.629 -1.7391 -3.66756 0
M  V30 2703 H 261.395 -4.02733 -2.70243 0
M  V30 2704 H 257.274 -3.05631 -3.45124 0
M  V30 2705 H 260.818 -6.428 -2.71024 0
M  V30 2706 H 256.715 -5.44832 -3.46163 0
M  V30 2707 H 257.483 -7.5131 -3.24769 0
M  V30 2708 N 260.146 1.09593 -1.13257 0
M  V30 2709 C 261.109 2.14359 -0.811358 0
M  V30 2710 C 262.109 1.59808 0.178377 0
M  V30 2711 O 263.299 1.74132 -0.0484911 0
M  V30 2712 C 260.431 3.40269 -0.207276 0
M  V30 2713 H 261.624 2.44284 -1.73969 0
M  V30 2714 H 259.177 1.25102 -0.936973 0
M  V30 2715 H 259.912 3.15969 0.73036 0
M  V30 2716 H 259.697 3.81154 -0.919992 0
M  V30 2717 H 261.187 4.176 0.000667944 0
M  V30 2718 N 261.624 0.925811 1.2754 0
M  V30 2719 C 262.574 0.394488 2.24561 0
M  V30 2720 C 263.558 -0.500183 1.52928 0
M  V30 2721 O 264.75 -0.337936 1.73744 0
M  V30 2722 C 261.879 -0.353328 3.41477 0
M  V30 2723 C 260.965 0.557752 4.20416 0
M  V30 2724 N 261.356 1.67674 4.77199 0
M  V30 2725 C 259.654 0.360404 4.44541 0
M  V30 2726 C 260.355 2.24324 5.36706 0
M  V30 2727 N 259.331 1.53305 5.21535 0
M  V30 2728 H 263.133 1.2489 2.66045 0
M  V30 2729 H 260.647 0.779864 1.4245 0
M  V30 2730 H 262.644 -0.7509 4.10082 0
M  V30 2731 H 261.304 -1.20469 3.01525 0
M  V30 2732 H 262.315 2.05915 4.75204 0
M  V30 2733 H 258.992 -0.450454 4.15063 0
M  V30 2734 H 260.382 3.18521 5.91603 0
M  V30 2735 N 263.102 -1.41638 0.69111 0
M  V30 2736 C 264.032 -2.3347 0.037248 0
M  V30 2737 C 265.013 -1.51575 -0.771947 0
M  V30 2738 O 266.198 -1.80126 -0.72582 0
M  V30 2739 C 263.328 -3.35354 -0.903064 0
M  V30 2740 C 262.282 -4.27526 -0.201288 0
M  V30 2741 C 261.608 -5.19747 -1.25565 0
M  V30 2742 C 262.908 -5.13959 0.929689 0
M  V30 2743 H 264.602 -2.88397 0.804227 0
M  V30 2744 H 262.148 -1.38669 0.388189 0
M  V30 2745 H 264.101 -3.98519 -1.36969 0
M  V30 2746 H 262.825 -2.78767 -1.70166 0
M  V30 2747 H 261.484 -3.65779 0.245265 0
M  V30 2748 H 261.132 -4.59479 -2.04666 0
M  V30 2749 H 260.832 -5.8225 -0.791128 0
M  V30 2750 H 262.356 -5.85789 -1.72288 0
M  V30 2751 H 263.77 -5.70718 0.543546 0
M  V30 2752 H 262.167 -5.85379 1.32103 0
M  V30 2753 H 263.237 -4.51389 1.77133 0
M  V30 2754 N 264.58 -0.43555 -1.51462 0
M  V30 2755 C 265.808 0.130242 -2.0649 0
M  V30 2756 C 266.223 1.36614 -1.30315 0
M  V30 2757 O 265.58 1.78869 -0.362223 0
M  V30 2758 C 265.631 0.454253 -3.58635 0
M  V30 2759 O 265.352 -0.73259 -4.31931 0
M  V30 2760 C 266.853 1.07091 -4.3017 0
M  V30 2761 H 264.073 0.00871669 -0.670943 0
M  V30 2762 H 266.617 -0.614117 -1.95061 0
M  V30 2763 H 264.772 1.14851 -3.69984 0
M  V30 2764 H 265.186 -0.455787 -5.22516 0
M  V30 2765 H 266.66 1.24764 -5.37716 0
M  V30 2766 H 267.137 2.05144 -3.88346 0
M  V30 2767 H 267.743 0.416089 -4.2326 0
M  V30 2768 N 266.058 1.56714 -0.166846 0
M  V30 2769 C 267.469 1.83378 0.350646 0
M  V30 2770 C 267.82 1.08646 1.63372 0
M  V30 2771 O 266.945 0.338058 2.13743 0
M  V30 2772 C 267.54 3.32643 0.642963 0
M  V30 2773 C 266.099 3.59818 1.10491 0
M  V30 2774 C 265.246 2.76954 0.138411 0
M  V30 2775 H 268.197 1.53803 -0.391193 0
M  V30 2776 H 268.218 3.49878 1.49551 0
M  V30 2777 H 267.73 3.87007 -0.291055 0
M  V30 2778 H 265.831 3.1086 2.05418 0
M  V30 2779 H 265.944 4.68178 1.01716 0
M  V30 2780 H 264.308 2.4666 0.634911 0
M  V30 2781 H 265.091 3.34097 -0.789549 0
M  V30 2782 N 267.536 -0.106894 1.57237 0
M  V30 2783 C 268.952 -0.46078 1.52804 0
M  V30 2784 C 269.152 -1.81184 0.881746 0
M  V30 2785 O 268.208 -2.48102 0.469224 0
M  V30 2786 C 269.521 -0.434127 2.9755 0
M  V30 2787 C 271.069 -0.516821 3.08704 0
M  V30 2788 C 271.544 -0.520436 4.55033 0
M  V30 2789 N 273.035 -0.58153 4.59535 0
M  V30 2790 C 273.77 -0.605973 5.70189 0
M  V30 2791 N 273.266 -0.587331 6.90306 0
M  V30 2792 N 275.059 -0.649895 5.5833 0
M  V30 2793 H 267.21 0.778203 1.9763 0
M  V30 2794 H 269.473 0.288403 0.903066 0
M  V30 2795 H 269.179 0.491197 3.48253 0
M  V30 2796 H 269.053 -1.25748 3.55622 0
M  V30 2797 H 271.44 -1.43256 2.57995 0
M  V30 2798 H 271.521 0.334449 2.53604 0
M  V30 2799 H 271.165 0.391313 5.0639 0
M  V30 2800 H 271.095 -1.38876 5.07958 0
M  V30 2801 H 273.586 -0.60161 3.73081 0
M  V30 2802 H 273.899 -0.60894 7.70397 0
M  V30 2803 H 272.244 -0.554564 6.92784 0
M  V30 2804 H 275.435 -0.661907 4.63397 0
M  V30 2805 H 275.608 -0.665476 6.44574 0
M  V30 2806 N 269.014 -1.53014 -0.377408 0
M  V30 2807 C 269.924 -1.81557 -1.48574 0
M  V30 2808 C 270.94 -0.703102 -1.59162 0
M  V30 2809 O 272.116 -0.99192 -1.75279 0
M  V30 2810 C 269.181 -1.9889 -2.83978 0
M  V30 2811 C 268.242 -3.22801 -2.83016 0
M  V30 2812 C 267.475 -3.39298 -4.11962 0
M  V30 2813 O 267.698 -2.60345 -5.0752 0
M  V30 2814 O 266.632 -4.32604 -4.18494 0
M  V30 2815 H 270.458 -2.75695 -1.27382 0
M  V30 2816 H 268.043 -1.38248 -0.566373 0
M  V30 2817 H 269.925 -2.11931 -3.6423 0
M  V30 2818 H 268.6 -1.07942 -3.05172 0
M  V30 2819 H 267.507 -3.15193 -2.01505 0
M  V30 2820 H 268.84 -4.13632 -2.66775 0
M  V30 2821 N 270.492 0.636531 -1.44174 0
M  V30 2822 C 271.422 1.76003 -1.53444 0
M  V30 2823 C 272.403 1.65619 -0.387841 0
M  V30 2824 O 273.588 1.84461 -0.607257 0
M  V30 2825 C 270.718 3.14511 -1.4731 0
M  V30 2826 C 269.672 3.39677 -2.60391 0
M  V30 2827 C 268.998 4.78159 -2.39308 0
M  V30 2828 C 270.298 3.32772 -4.02567 0
M  V30 2829 H 271.992 1.68501 -2.47483 0
M  V30 2830 H 269.538 0.809237 -1.19111 0
M  V30 2831 H 271.491 3.92878 -1.52397 0
M  V30 2832 H 270.215 3.22783 -0.49785 0
M  V30 2833 H 268.874 2.63688 -2.54684 0
M  V30 2834 H 268.522 4.83128 -1.39988 0
M  V30 2835 H 268.222 4.95956 -3.15122 0
M  V30 2836 H 269.746 5.58762 -2.46205 0
M  V30 2837 H 271.16 4.01051 -4.09672 0
M  V30 2838 H 269.557 3.62104 -4.7854 0
M  V30 2839 H 270.627 2.30669 -4.2652 0
M  V30 2840 N 271.97 1.30982 0.876444 0
M  V30 2841 C 272.933 1.18054 1.96459 0
M  V30 2842 C 273.933 0.109399 1.60427 0
M  V30 2843 O 275.123 0.358173 1.70478 0
M  V30 2844 C 272.255 0.810616 3.31122 0
M  V30 2845 H 273.448 2.14735 2.09354 0
M  V30 2846 H 271.001 1.145 1.06392 0
M  V30 2847 H 271.736 -0.155322 3.23928 0
M  V30 2848 H 271.521 1.58481 3.58645 0
M  V30 2849 H 273.011 0.743876 4.10921 0
M  V30 2850 N 273.449 -1.08991 1.13837 0
M  V30 2851 C 274.674 -1.85551 0.926585 0
M  V30 2852 C 275.099 -1.80782 -0.519566 0
M  V30 2853 O 274.457 -1.18855 -1.36906 0
M  V30 2854 C 274.505 -3.31266 1.42462 0
M  V30 2855 O 273.609 -4.07822 0.612789 0
M  V30 2856 H 272.95 -0.575192 0.331738 0
M  V30 2857 H 275.48 -1.37604 1.51414 0
M  V30 2858 H 275.49 -3.82112 1.43019 0
M  V30 2859 H 274.165 -3.34052 2.47754 0
M  V30 2860 H 272.742 -3.66731 0.675463 0
M  V30 2861 N 274.927 -0.932562 -1.27047 0
M  V30 2862 C 275.89 -0.440064 -2.24936 0
M  V30 2863 C 276.89 0.444071 -1.54547 0
M  V30 2864 O 278.08 0.244465 -1.72476 0
M  V30 2865 C 275.212 0.36678 -3.38921 0
M  V30 2866 H 276.405 -1.305 -2.70018 0
M  V30 2867 H 273.958 -0.713707 -1.39054 0
M  V30 2868 H 274.693 1.25033 -2.99228 0
M  V30 2869 H 274.478 -0.267204 -3.91188 0
M  V30 2870 H 275.968 0.701567 -4.11665 0
M  V30 2871 N 276.405 1.4127 -0.698611 0
M  V30 2872 C 277.653 2.00782 -0.230409 0
M  V30 2873 C 277.974 1.5562 1.17505 0
M  V30 2874 O 277.244 0.78815 1.79346 0
M  V30 2875 H 275.824 0.742464 -0.0821944 0
M  V30 2876 H 278.486 1.72852 -0.90045 0
M  V30 2877 H 277.582 3.11095 -0.25021 0
M  V30 2878 N 277.883 0.443576 1.51229 0
M  V30 2879 C 278.813 -0.355142 2.30783 0
M  V30 2880 C 279.794 -1.0154 1.36468 0
M  V30 2881 O 280.979 -1.01785 1.65389 0
M  V30 2882 C 278.109 -1.45312 3.15439 0
M  V30 2883 C 277.063 -0.916002 4.18083 0
M  V30 2884 C 276.389 -2.1102 4.91299 0
M  V30 2885 C 277.689 0.0538602 5.22272 0
M  V30 2886 H 279.383 0.308767 2.97804 0
M  V30 2887 H 276.929 0.149937 1.43217 0
M  V30 2888 H 278.882 -2.01914 3.69876 0
M  V30 2889 H 277.606 -2.14541 2.46252 0
M  V30 2890 H 276.265 -0.372145 3.64706 0
M  V30 2891 H 275.913 -2.78882 4.18609 0
M  V30 2892 H 275.613 -1.75717 5.60712 0
M  V30 2893 H 277.137 -2.68164 5.48562 0
M  V30 2894 H 278.551 -0.422069 5.71744 0
M  V30 2895 H 276.948 0.319776 5.99247 0
M  V30 2896 H 278.018 0.98858 4.74716 0
M  V30 2897 N 279.361 -1.56624 0.175154 0
M  V30 2898 C 280.591 -2.01082 -0.474283 0
M  V30 2899 C 280.999 -1.05447 -1.57091 0
M  V30 2900 O 280.342 -0.0480595 -1.83637 0
M  V30 2901 C 280.404 -3.41963 -1.10911 0
M  V30 2902 C 280.068 -4.56742 -0.153666 0
M  V30 2903 C 281.065 -5.16076 0.629448 0
M  V30 2904 C 278.75 -5.02277 -0.0483776 0
M  V30 2905 C 280.744 -6.19377 1.50501 0
M  V30 2906 C 278.431 -6.05427 0.830768 0
M  V30 2907 C 279.429 -6.63849 1.60605 0
M  V30 2908 O 279.117 -7.64998 2.47049 0
M  V30 2909 H 278.849 -0.664261 -0.125432 0
M  V30 2910 H 281.403 -2.03549 0.275163 0
M  V30 2911 H 279.633 -3.36422 -1.90676 0
M  V30 2912 H 281.322 -3.70352 -1.66114 0
M  V30 2913 H 282.088 -4.81776 0.558297 0
M  V30 2914 H 277.967 -4.56513 -0.641611 0
M  V30 2915 H 281.511 -6.64906 2.1106 0
M  V30 2916 H 277.408 -6.39151 0.903107 0
M  V30 2917 H 278.176 -7.82336 2.40607 0
M  V30 2918 N 280.839 0.0985539 -1.57292 0
M  V30 2919 C 282.069 0.815135 -1.8984 0
M  V30 2920 C 282.477 1.7297 -0.766679 0
M  V30 2921 O 281.82 1.81698 0.270483 0
M  V30 2922 C 281.882 1.6842 -3.17608 0
M  V30 2923 C 281.546 0.94182 -4.4719 0
M  V30 2924 C 282.543 0.273212 -5.19182 0
M  V30 2925 C 280.228 0.916927 -4.9386 0
M  V30 2926 C 282.222 -0.410361 -6.36078 0
M  V30 2927 C 279.909 0.229567 -6.10669 0
M  V30 2928 C 280.907 -0.432902 -6.81627 0
M  V30 2929 O 280.595 -1.10925 -7.9621 0
M  V30 2930 H 280.327 0.238501 -0.632529 0
M  V30 2931 H 282.881 0.0812659 -2.05239 0
M  V30 2932 H 281.111 2.46022 -2.98345 0
M  V30 2933 H 282.8 2.27704 -3.36015 0
M  V30 2934 H 283.566 0.283927 -4.84168 0
M  V30 2935 H 279.445 1.42201 -4.3852 0
M  V30 2936 H 282.989 -0.928013 -6.914 0
M  V30 2937 H 278.886 0.216686 -6.45136 0
M  V30 2938 H 279.654 -1.01579 -8.12172 0
M  V30 2939 N 282.317 1.53212 0.369288 0
M  V30 2940 C 283.545 1.73119 1.13303 0
M  V30 2941 C 283.96 0.458455 1.83149 0
M  V30 2942 O 283.317 -0.568403 1.73423 0
M  V30 2943 C 283.368 2.89413 2.16616 0
M  V30 2944 O 283.089 4.11761 1.49614 0
M  V30 2945 C 284.59 3.21161 3.05566 0
M  V30 2946 H 281.81 0.579107 0.338934 0
M  V30 2947 H 284.354 1.99942 0.429338 0
M  V30 2948 H 282.509 2.64994 2.82589 0
M  V30 2949 H 282.923 4.76858 2.18419 0
M  V30 2950 H 284.397 4.05949 3.74045 0
M  V30 2951 H 284.874 2.36369 3.70171 0
M  V30 2952 H 285.48 3.47492 2.45213 0
M  V30 2953 N 283.795 -0.628877 1.44509 0
M  V30 2954 C 285.043 -1.38565 1.4712 0
M  V30 2955 C 285.364 -1.94712 0.105899 0
M  V30 2956 O 284.634 -1.75912 -0.862079 0
M  V30 2957 H 283.214 -0.514333 0.541729 0
M  V30 2958 H 285.876 -0.740018 1.80305 0
M  V30 2959 H 284.972 -2.21583 2.19789 0
M  V30 2960 N 285.273 -1.31445 -0.869486 0
M  V30 2961 C 286.522 -1.20517 -1.61736 0
M  V30 2962 C 286.835 0.235341 -1.94179 0
M  V30 2963 O 288.041 0.466312 -2.67465 0
M  V30 2964 C 286.497 -2.10982 -2.91573 0
M  V30 2965 C 286.105 -3.60032 -2.66611 0
M  V30 2966 C 287.849 -2.08856 -3.69567 0
M  V30 2967 C 285.756 -4.42503 -3.92358 0
M  V30 2968 H 284.686 -0.447493 -0.606849 0
M  V30 2969 H 287.337 -1.56303 -0.96133 0
M  V30 2970 H 285.719 -1.68095 -3.58553 0
M  V30 2971 H 286.893 -4.11167 -2.08035 0
M  V30 2972 H 285.208 -3.64139 -2.0197 0
M  V30 2973 H 287.805 -2.67716 -4.62852 0
M  V30 2974 H 288.148 -1.07582 -4.02159 0
M  V30 2975 H 288.681 -2.49945 -3.09471 0
M  V30 2976 H 285.42 -5.44533 -3.64916 0
M  V30 2977 H 284.94 -3.96125 -4.50383 0
M  V30 2978 H 286.619 -4.54741 -4.60238 0
M  V30 2979 N 286.751 1.08385 -1.14413 0
M  V30 2980 C 287.999 1.80419 -0.910679 0
M  V30 2981 C 288.32 1.86658 0.564243 0
M  V30 2982 O 287.59 1.35985 1.41014 0
M  V30 2983 H 286.17 0.668204 -0.333934 0
M  V30 2984 H 288.832 1.31037 -1.44275 0
M  V30 2985 H 287.928 2.83238 -1.31082 0
M  V30 2986 N 288.23 0.939286 1.26551 0
M  V30 2987 C 289.507 0.5038 1.89001 0
M  V30 2988 C 289.887 -1.01854 1.84903 0
M  V30 2989 O 289.235 -1.87773 1.30206 0
M  V30 2990 C 289.445 1.063 3.32417 0
M  V30 2991 C 290.793 1.13051 4.09273 0
M  V30 2992 O 291.817 1.01345 3.41479 0
M  V30 2993 O 290.676 1.31233 5.30509 0
M  V30 2994 H 287.77 0.163897 0.810597 0
M  V30 2995 H 290.316 1.03173 1.34735 0
M  V30 2996 H 289.088 2.10665 3.29752 0
M  V30 2997 H 288.711 0.517408 3.94219 0
M  V30 2998 N 289.708 -1.40897 0.706093 0
M  V30 2999 C 290.64 -2.29199 0.00815776 0
M  V30 3000 C 291.653 -1.45336 -0.733582 0
M  V30 3001 O 292.842 -1.68727 -0.582537 0
M  V30 3002 C 289.942 -3.23417 -1.01265 0
M  V30 3003 C 289.115 -4.36089 -0.338387 0
M  V30 3004 C 288.174 -5.10811 -1.26326 0
M  V30 3005 O 287.2 -5.64215 -0.751651 0
M  V30 3006 N 288.402 -5.19269 -2.595 0
M  V30 3007 H 291.167 -2.89738 0.766297 0
M  V30 3008 H 288.728 -1.52164 0.55296 0
M  V30 3009 H 290.72 -3.70276 -1.63334 0
M  V30 3010 H 289.29 -2.64112 -1.67223 0
M  V30 3011 H 288.51 -3.91479 0.462352 0
M  V30 3012 H 289.798 -5.08634 0.130031 0
M  V30 3013 H 289.196 -4.77347 -3.03573 0
M  V30 3014 H 287.753 -5.69667 -3.16737 0
M  V30 3015 N 291.186 -0.45159 -1.50991 0
M  V30 3016 C 292.432 0.110237 -2.025 0
M  V30 3017 C 292.765 1.41109 -1.33424 0
M  V30 3018 O 292.04 1.89135 -0.453659 0
M  V30 3019 C 292.323 0.314271 -3.58726 0
M  V30 3020 C 292.176 -1.00623 -4.38401 0
M  V30 3021 C 293.495 1.07767 -4.26702 0
M  V30 3022 H 290.614 0.0385897 -0.735989 0
M  V30 3023 H 293.256 -0.593374 -1.80497 0
M  V30 3024 H 291.406 0.913601 -3.77605 0
M  V30 3025 H 293.078 -1.64064 -4.31139 0
M  V30 3026 H 291.321 -1.6075 -4.02917 0
M  V30 3027 H 291.992 -0.817341 -5.45915 0
M  V30 3028 H 294.468 0.56986 -4.12179 0
M  V30 3029 H 293.344 1.18921 -5.35863 0
M  V30 3030 H 293.605 2.10939 -3.88532 0
M  V30 3031 N 292.664 1.56529 -0.183458 0
M  V30 3032 C 293.596 2.15747 0.773697 0
M  V30 3033 C 294.609 1.1162 1.1851 0
M  V30 3034 O 295.798 1.3876 1.12285 0
M  V30 3035 C 292.898 2.6952 2.05456 0
M  V30 3036 C 292.071 3.98429 1.8048 0
M  V30 3037 C 291.13 4.37145 2.92901 0
M  V30 3038 O 290.156 5.04791 2.6301 0
M  V30 3039 N 291.358 3.99695 4.2098 0
M  V30 3040 H 294.123 2.98505 0.26736 0
M  V30 3041 H 291.684 1.619 -0.0010878 0
M  V30 3042 H 293.676 2.92412 2.79781 0
M  V30 3043 H 292.246 1.91282 2.47245 0
M  V30 3044 H 291.466 3.8379 0.899947 0
M  V30 3045 H 292.754 4.82597 1.61175 0
M  V30 3046 H 292.152 3.4526 4.48121 0
M  V30 3047 H 290.709 4.27562 4.9197 0
M  V30 3048 N 294.142 -0.090211 1.57342 0
M  V30 3049 C 295.382 -0.798365 1.88163 0
M  V30 3050 C 295.746 -1.75662 0.775046 0
M  V30 3051 O 296.947 -2.50849 0.965816 0
M  V30 3052 C 295.218 -1.50376 3.24225 0
M  V30 3053 S 296.777 -2.24952 3.76752 0
M  V30 3054 H 293.595 -0.265883 0.659414 0
M  V30 3055 H 296.197 -0.055264 1.95422 0
M  V30 3056 H 294.901 -0.792286 4.0268 0
M  V30 3057 H 294.432 -2.28666 3.20118 0
M  V30 3058 H 296.447 -3.51173 3.5056 0
M  V30 3059 N 295.62 -1.53406 -0.361157 0
M  V30 3060 C 296.867 -1.69802 -1.10333 0
M  V30 3061 C 297.195 -0.452087 -1.89173 0
M  V30 3062 O 296.45 0.566017 -1.87336 0
M  V30 3063 C 296.749 -2.90211 -2.08596 0
M  V30 3064 C 296.415 -4.26539 -1.46203 0
M  V30 3065 C 295.077 -4.6361 -1.28915 0
M  V30 3066 C 297.429 -5.113 -1.01101 0
M  V30 3067 C 294.757 -5.83075 -0.651157 0
M  V30 3068 C 297.109 -6.31415 -0.387007 0
M  V30 3069 C 295.773 -6.67195 -0.201657 0
M  V30 3070 H 295.043 -0.621351 -0.403737 0
M  V30 3071 H 297.69 -1.87598 -0.384609 0
M  V30 3072 H 295.995 -2.66946 -2.86788 0
M  V30 3073 H 297.692 -3.00091 -2.65982 0
M  V30 3074 H 294.282 -3.97352 -1.60653 0
M  V30 3075 H 298.466 -4.83206 -1.13249 0
M  V30 3076 H 293.722 -6.09385 -0.496006 0
M  V30 3077 H 297.896 -6.96394 -0.0293563 0
M  V30 3078 H 295.523 -7.59628 0.294766 0
M  V30 3079 N 297.098 0.621204 -1.44841 0
M  V30 3080 C 298.338 1.39201 -1.49674 0
M  V30 3081 C 298.702 1.91561 -0.129764 0
M  V30 3082 O 299.903 2.68748 -0.0527814 0
M  V30 3083 C 298.174 2.519 -2.53537 0
M  V30 3084 S 299.733 3.39916 -2.77494 0
M  V30 3085 H 296.551 0.474758 -0.529269 0
M  V30 3086 H 299.153 0.718171 -1.81831 0
M  V30 3087 H 297.857 2.11761 -3.51547 0
M  V30 3088 H 297.388 3.241 -2.22986 0
M  V30 3089 H 299.403 4.49646 -2.0984 0
M  V30 3090 N 298.576 1.31904 0.862503 0
M  V30 3091 C 299.816 1.23324 1.63004 0
M  V30 3092 C 300.18 -0.203724 1.90916 0
M  V30 3093 O 301.381 -0.413132 2.65606 0
M  V30 3094 C 299.652 2.06116 2.91978 0
M  V30 3095 S 301.211 2.14478 3.82812 0
M  V30 3096 H 298.029 0.439117 0.559193 0
M  V30 3097 H 300.631 1.66658 1.02202 0
M  V30 3098 H 299.335 3.09593 2.69407 0
M  V30 3099 H 298.866 1.6353 3.57801 0
M  V30 3100 H 300.881 1.28855 4.79177 0
M  V30 3101 N 300.054 -1.07777 1.14986 0
M  V30 3102 C 301.302 -1.79934 0.920235 0
M  V30 3103 C 301.623 -1.86955 -0.554336 0
M  V30 3104 O 300.893 -1.36731 -1.40291 0
M  V30 3105 H 299.473 -0.666424 0.337473 0
M  V30 3106 H 302.135 -1.3027 1.44968 0
M  V30 3107 H 301.231 -2.82539 1.32583 0
M  V30 3108 N 301.532 -0.945985 -1.26051 0
M  V30 3109 C 302.78 -0.594941 -1.93145 0
M  V30 3110 C 303.101 0.86953 -1.7454 0
M  V30 3111 O 302.371 1.61838 -1.10387 0
M  V30 3112 H 300.951 -0.217044 -0.714773 0
M  V30 3113 H 303.613 -1.20235 -1.53393 0
M  V30 3114 H 302.709 -0.816835 -3.01221 0
M  V30 3115 N 303.011 1.40521 -0.713556 0
M  V30 3116 C 303.958 2.30723 -0.059684 0
M  V30 3117 C 304.928 1.48079 0.752448 0
M  V30 3118 O 306.113 1.76823 0.71681 0
M  V30 3119 C 303.253 3.34274 0.857594 0
M  V30 3120 C 302.366 4.31986 0.0351536 0
M  V30 3121 C 301.501 5.22605 0.951724 0
M  V30 3122 C 300.54 6.11976 0.123253 0
M  V30 3123 N 299.677 6.9502 0.99459 0
M  V30 3124 H 304.517 2.86074 -0.834596 0
M  V30 3125 H 302.054 1.40879 -0.42326 0
M  V30 3126 H 304.012 3.92879 1.40364 0
M  V30 3127 H 302.642 2.8043 1.59871 0
M  V30 3128 H 301.694 3.7518 -0.628052 0
M  V30 3129 H 303.006 4.95101 -0.606347 0
M  V30 3130 H 302.16 5.86131 1.56638 0
M  V30 3131 H 300.899 4.59759 1.62705 0
M  V30 3132 H 299.904 5.47482 -0.50435 0
M  V30 3133 H 301.129 6.76881 -0.548539 0
M  V30 3134 H 299.075 6.34764 1.6556 0
M  V30 3135 H 298.992 7.54892 0.40908 0
M  V30 3136 H 300.26 7.62997 1.59549 0
M  V30 3137 N 304.489 0.459591 1.5075 0
M  V30 3138 C 305.419 -0.330644 2.31147 0
M  V30 3139 C 306.4 -1.00087 1.37538 0
M  V30 3140 O 307.585 -1.00025 1.66459 0
M  V30 3141 C 304.715 -1.41958 3.16962 0
M  V30 3142 C 303.669 -0.871608 4.19031 0
M  V30 3143 C 302.995 -2.05797 4.9351 0
M  V30 3144 C 304.295 0.109251 5.22186 0
M  V30 3145 H 305.989 0.340336 2.97459 0
M  V30 3146 H 303.535 0.165119 1.4305 0
M  V30 3147 H 305.488 -1.9798 3.71997 0
M  V30 3148 H 304.212 -2.11917 2.48513 0
M  V30 3149 H 302.871 -0.333442 3.6508 0
M  V30 3150 H 302.519 -2.74427 4.21544 0
M  V30 3151 H 302.219 -1.6976 5.62544 0
M  V30 3152 H 303.743 -2.62331 5.51375 0
M  V30 3153 H 305.157 -0.361405 5.7216 0
M  V30 3154 H 303.554 0.383316 5.98875 0
M  V30 3155 H 304.624 1.03887 4.73641 0
M  V30 3156 N 305.967 -1.56429 0.191757 0
M  V30 3157 C 306.914 -2.18936 -0.730454 0
M  V30 3158 C 307.884 -1.13557 -1.21219 0
M  V30 3159 O 309.069 -1.41794 -1.27668 0
M  V30 3160 C 306.209 -2.85013 -1.9458 0
M  V30 3161 C 305.322 -4.04909 -1.50574 0
M  V30 3162 C 304.457 -4.58853 -2.67634 0
M  V30 3163 C 303.496 -5.71114 -2.20217 0
M  V30 3164 N 302.633 -6.19478 -3.30442 0
M  V30 3165 H 307.473 -2.97389 -0.190664 0
M  V30 3166 H 305.01 -1.46869 -0.0823694 0
M  V30 3167 H 306.968 -3.21492 -2.65893 0
M  V30 3168 H 305.598 -2.09129 -2.45896 0
M  V30 3169 H 304.65 -3.74115 -0.688605 0
M  V30 3170 H 305.962 -4.86113 -1.11784 0
M  V30 3171 H 305.116 -4.97619 -3.47074 0
M  V30 3172 H 303.855 -3.76749 -3.09696 0
M  V30 3173 H 302.86 -5.31879 -1.3923 0
M  V30 3174 H 304.085 -6.55033 -1.79189 0
M  V30 3175 H 302.031 -5.40297 -3.72041 0
M  V30 3176 H 301.948 -6.95725 -2.9581 0
M  V30 3177 H 303.216 -6.62898 -4.10106 0
M  V30 3178 N 307.445 0.0818655 -1.57387 0
M  V30 3179 C 308.393 1.11712 -2.04018 0
M  V30 3180 C 309.387 1.40683 -0.94364 0
M  V30 3181 O 310.593 1.40209 -1.12878 0
M  V30 3182 H 306.968 0.377542 -0.650358 0
M  V30 3183 H 308.939 0.697614 -2.90131 0
M  V30 3184 C 307.688 2.42537 -2.49141 0
M  V30 3185 H 307.011 2.21092 -3.33104 0
M  V30 3186 H 308.451 3.13446 -2.85531 0
M  V30 3187 C 306.91 3.0778 -1.37014 0
M  V30 3188 O 307.44 3.95436 -0.706621 0
M  V30 3189 N 305.646 2.68242 -1.11779 0
M  V30 3190 H 305.193 1.97052 -1.65917 0
M  V30 3191 H 305.151 3.1222 -0.369594 0
M  V30 3192 N 308.923 1.53595 0.353017 0
M  V30 3193 C 310.169 1.71581 1.09232 0
M  V30 3194 C 310.524 0.468328 1.86613 0
M  V30 3195 O 309.817 -0.538911 1.83865 0
M  V30 3196 C 310.011 2.91313 2.07054 0
M  V30 3197 C 309.84 4.27585 1.39287 0
M  V30 3198 C 308.61 4.92233 1.1417 0
M  V30 3199 C 310.808 5.07656 0.824005 0
M  V30 3200 N 308.79 6.124 0.428841 0
M  V30 3201 C 310.161 6.19531 0.241195 0
M  V30 3202 C 312.216 4.92609 0.723922 0
M  V30 3203 C 310.919 7.18002 -0.431952 0
M  V30 3204 C 312.945 5.91365 0.0645334 0
M  V30 3205 C 312.307 7.02571 -0.507347 0
M  V30 3206 H 308.406 0.680987 0.384422 0
M  V30 3207 H 310.99 1.91013 0.377096 0
M  V30 3208 H 309.161 2.73398 2.75877 0
M  V30 3209 H 310.893 2.98062 2.73753 0
M  V30 3210 H 307.648 4.51612 1.42631 0
M  V30 3211 H 308.072 6.76944 0.0874131 0
M  V30 3212 H 312.714 4.06808 1.15181 0
M  V30 3213 H 310.432 8.03384 -0.871758 0
M  V30 3214 H 314.018 5.81799 -0.0121469 0
M  V30 3215 H 312.898 7.77675 -1.0095 0
M  V30 3216 N 310.401 -0.613514 1.45168 0
M  V30 3217 C 311.311 -1.75296 1.55912 0
M  V30 3218 C 312.327 -1.68244 0.443856 0
M  V30 3219 O 313.503 -1.88706 0.70371 0
M  V30 3220 C 310.568 -3.1174 1.5172 0
M  V30 3221 C 309.629 -3.30291 2.74238 0
M  V30 3222 C 308.862 -4.60226 2.70236 0
M  V30 3223 O 309.085 -5.42168 1.77229 0
M  V30 3224 O 308.019 -4.81361 3.61352 0
M  V30 3225 H 311.845 -1.69183 2.52212 0
M  V30 3226 H 309.43 -0.776886 1.27612 0
M  V30 3227 H 311.312 -3.93044 1.51968 0
M  V30 3228 H 309.987 -3.18357 0.585697 0
M  V30 3229 H 308.894 -2.48598 2.79553 0
M  V30 3230 H 310.227 -3.28547 3.66494 0
M  V30 3231 N 311.879 -1.3236 -0.855495 0
M  V30 3232 C 313.29 -1.2056 -1.42556 0
M  V30 3233 C 313.641 0.182209 -1.95352 0
M  V30 3234 O 312.766 1.08088 -1.87472 0
M  V30 3235 C 313.361 -2.1826 -2.59129 0
M  V30 3236 C 311.92 -2.10351 -3.12137 0
M  V30 3237 C 311.067 -2.06674 -1.84882 0
M  V30 3238 H 314.018 -1.442 -0.662727 0
M  V30 3239 H 314.039 -1.78064 -3.36264 0
M  V30 3240 H 313.551 -3.19257 -2.20673 0
M  V30 3241 H 311.652 -1.12599 -3.55179 0
M  V30 3242 H 311.765 -3.00135 -3.73438 0
M  V30 3243 H 310.129 -1.51901 -2.04446 0
M  V30 3244 H 310.912 -3.09451 -1.48643 0
M  V30 3245 N 313.357 1.07166 -1.15556 0
M  V30 3246 C 314.597 1.81391 -0.94216 0
M  V30 3247 C 314.961 1.84788 0.521272 0
M  V30 3248 O 316.162 2.54904 0.85307 0
M  V30 3249 C 314.433 3.22431 -1.54185 0
M  V30 3250 S 315.992 4.13379 -1.47183 0
M  V30 3251 H 312.81 0.624963 -0.339031 0
M  V30 3252 H 315.412 1.28725 -1.4714 0
M  V30 3253 H 314.116 3.17548 -2.59984 0
M  V30 3254 H 313.647 3.80172 -1.01156 0
M  V30 3255 H 315.662 4.94007 -0.466004 0
M  V30 3256 N 314.835 0.952656 1.25548 0
M  V30 3257 C 316.112 0.523818 1.88456 0
M  V30 3258 C 316.492 -0.998871 1.85973 0
M  V30 3259 O 315.84 -1.86381 1.3219 0
M  V30 3260 C 316.05 1.0982 3.31271 0
M  V30 3261 C 317.398 1.17385 4.08051 0
M  V30 3262 O 318.422 1.04961 3.40384 0
M  V30 3263 O 317.281 1.36852 5.29088 0
M  V30 3264 H 314.375 0.172485 0.808813 0
M  V30 3265 H 316.921 1.04596 1.33633 0
M  V30 3266 H 315.693 2.1415 3.27499 0
M  V30 3267 H 315.316 0.559191 3.93648 0
M  V30 3268 N 316.313 -1.40141 0.720998 0
M  V30 3269 C 317.729 -1.54632 0.395113 0
M  V30 3270 C 317.929 -1.69115 -1.09555 0
M  V30 3271 O 316.985 -1.68377 -1.88163 0
M  V30 3272 C 318.298 -2.77177 1.1659 0
M  V30 3273 C 319.846 -2.91 1.15274 0
M  V30 3274 C 320.321 -4.16465 1.90579 0
M  V30 3275 N 321.812 -4.23476 1.87675 0
M  V30 3276 C 322.547 -5.19475 2.42762 0
M  V30 3277 N 322.043 -6.21348 3.06428 0
M  V30 3278 N 323.836 -5.11592 2.32874 0
M  V30 3279 H 315.987 -1.28986 1.68749 0
M  V30 3280 H 318.25 -0.62412 0.713567 0
M  V30 3281 H 317.956 -2.72771 2.22011 0
M  V30 3282 H 317.83 -3.69442 0.76108 0
M  V30 3283 H 320.217 -2.94907 0.106702 0
M  V30 3284 H 320.298 -1.99838 1.59682 0
M  V30 3285 H 319.942 -4.1332 2.95176 0
M  V30 3286 H 319.872 -5.06646 1.43587 0
M  V30 3287 H 322.363 -3.50497 1.41281 0
M  V30 3288 H 322.676 -6.91034 3.45965 0
M  V30 3289 H 321.021 -6.21777 3.10514 0
M  V30 3290 H 324.212 -4.30936 1.82789 0
M  V30 3291 H 324.385 -5.86233 2.76106 0
M  V30 3292 N 317.792 -0.46758 -1.50504 0
M  V30 3293 C 318.755 0.317059 -2.26996 0
M  V30 3294 C 319.755 0.923513 -1.31635 0
M  V30 3295 O 320.945 0.793239 -1.55091 0
M  V30 3296 C 318.077 1.45134 -3.08462 0
M  V30 3297 H 319.27 -0.353723 -2.97807 0
M  V30 3298 H 316.823 -0.221545 -1.54722 0
M  V30 3299 H 317.558 2.15728 -2.4214 0
M  V30 3300 H 317.343 1.02232 -3.78538 0
M  V30 3301 H 318.833 2.00493 -3.66323 0
M  V30 3302 N 319.27 1.56325 -0.20005 0
M  V30 3303 C 320.516 1.98772 0.431408 0
M  V30 3304 C 320.871 1.0849 1.58895 0
M  V30 3305 O 320.164 0.130331 1.91156 0
M  V30 3306 C 320.358 3.4495 0.935103 0
M  V30 3307 C 320.187 4.49371 -0.172096 0
M  V30 3308 C 318.957 5.0134 -0.631377 0
M  V30 3309 C 321.155 5.04822 -0.982806 0
M  V30 3310 N 319.137 5.89433 -1.71588 0
M  V30 3311 C 320.508 5.89632 -1.91661 0
M  V30 3312 C 322.563 4.87242 -1.02467 0
M  V30 3313 C 321.266 6.58741 -2.88881 0
M  V30 3314 C 323.292 5.57094 -1.98494 0
M  V30 3315 C 322.654 6.41655 -2.90617 0
M  V30 3316 H 318.753 0.771922 0.125144 0
M  V30 3317 H 321.337 1.92266 -0.306883 0
M  V30 3318 H 319.508 3.51946 1.64282 0
M  V30 3319 H 321.24 3.74354 1.53758 0
M  V30 3320 H 317.995 4.73071 -0.223827 0
M  V30 3321 H 318.419 6.38182 -2.25948 0
M  V30 3322 H 323.061 4.21538 -0.326408 0
M  V30 3323 H 320.779 7.23641 -3.5968 0
M  V30 3324 H 324.365 5.45466 -2.0238 0
M  V30 3325 H 323.245 6.94755 -3.63711 0
M  V30 3326 N 320.748 -0.0735177 1.57428 0
M  V30 3327 C 321.973 -0.789787 1.91774 0
M  V30 3328 C 322.398 -1.70413 0.796306 0
M  V30 3329 O 321.756 -1.79555 -0.250961 0
M  V30 3330 C 321.804 -1.5609 3.25067 0
M  V30 3331 O 320.908 -2.67144 3.14178 0
M  V30 3332 H 320.249 -0.215582 0.628029 0
M  V30 3333 H 322.779 -0.0422781 2.04556 0
M  V30 3334 H 322.789 -1.94052 3.58898 0
M  V30 3335 H 321.464 -0.890015 4.06265 0
M  V30 3336 H 320.041 -2.32052 2.91901 0
M  V30 3337 N 322.226 -1.5378 -0.344866 0
M  V30 3338 C 323.136 -1.84667 -1.4469 0
M  V30 3339 C 324.152 -0.736704 -1.57635 0
M  V30 3340 O 325.328 -1.02888 -1.73136 0
M  V30 3341 C 322.393 -2.04869 -2.79696 0
M  V30 3342 C 321.454 -3.28731 -2.76106 0
M  V30 3343 C 320.687 -3.4796 -4.04673 0
M  V30 3344 O 320.91 -2.71052 -5.01883 0
M  V30 3345 O 319.844 -4.41383 -4.09224 0
M  V30 3346 H 323.67 -2.78334 -1.21506 0
M  V30 3347 H 321.255 -1.39418 -0.536921 0
M  V30 3348 H 323.137 -2.19609 -3.59652 0
M  V30 3349 H 321.812 -1.14391 -3.02814 0
M  V30 3350 H 320.719 -3.19396 -1.94774 0
M  V30 3351 H 322.052 -4.19198 -2.57941 0
M  V30 3352 N 323.704 0.605807 -1.45491 0
M  V30 3353 C 324.654 1.71074 -1.50724 0
M  V30 3354 C 325.638 1.5658 -0.37033 0
M  V30 3355 O 326.83 1.65887 -0.617299 0
M  V30 3356 C 323.959 3.0983 -1.47852 0
M  V30 3357 C 323.045 3.29704 -2.66751 0
M  V30 3358 N 323.436 3.19831 -3.91844 0
M  V30 3359 C 321.734 3.60579 -2.62486 0
M  V30 3360 C 322.435 3.41083 -4.71208 0
M  V30 3361 N 321.411 3.65157 -4.02693 0
M  V30 3362 H 325.213 1.61937 -2.45263 0
M  V30 3363 H 322.727 0.80912 -1.40808 0
M  V30 3364 H 324.724 3.89101 -1.49686 0
M  V30 3365 H 323.384 3.20115 -0.543714 0
M  V30 3366 H 324.395 2.98194 -4.23439 0
M  V30 3367 H 321.072 3.7769 -1.77922 0
M  V30 3368 H 322.462 3.38828 -5.80211 0
M  V30 3369 N 325.182 1.32811 0.848464 0
M  V30 3370 C 326.598 1.11937 1.13764 0
M  V30 3371 C 326.798 -0.0960789 2.01271 0
M  V30 3372 O 325.854 -0.779165 2.40178 0
M  V30 3373 C 327.167 2.402 1.809 0
M  V30 3374 C 328.715 2.46016 1.93508 0
M  V30 3375 C 329.19 3.74215 2.64059 0
M  V30 3376 N 330.681 3.75232 2.71579 0
M  V30 3377 C 331.416 4.71134 3.26833 0
M  V30 3378 N 330.912 5.77406 3.8285 0
M  V30 3379 N 332.705 4.58623 3.24995 0
M  V30 3380 H 324.856 2.1073 0.265855 0
M  V30 3381 H 327.119 0.930671 0.180431 0
M  V30 3382 H 326.825 3.29093 1.24058 0
M  V30 3383 H 326.699 2.51628 2.81004 0
M  V30 3384 H 329.086 1.57577 2.49506 0
M  V30 3385 H 329.167 2.38536 0.923811 0
M  V30 3386 H 328.811 4.63031 2.08722 0
M  V30 3387 H 328.741 3.78968 3.65637 0
M  V30 3388 H 331.232 2.98423 2.31845 0
M  V30 3389 H 331.545 6.46632 4.23187 0
M  V30 3390 H 329.89 5.81152 3.81165 0
M  V30 3391 H 333.081 3.74762 2.80484 0
M  V30 3392 H 333.254 5.33535 3.67756 0
M  V30 3393 N 326.66 -1.06551 1.16123 0
M  V30 3394 C 328.076 -1.3142 0.905585 0
M  V30 3395 C 328.276 -1.96571 -0.442964 0
M  V30 3396 O 327.332 -2.23068 -1.18308 0
M  V30 3397 C 328.645 -2.19741 2.05267 0
M  V30 3398 C 330.193 -2.33165 2.08813 0
M  V30 3399 C 330.668 -3.24838 3.22868 0
M  V30 3400 N 332.159 -3.32421 3.22568 0
M  V30 3401 C 332.894 -4.0344 4.0746 0
M  V30 3402 N 332.39 -4.77003 5.02434 0
M  V30 3403 N 334.183 -3.99464 3.95456 0
M  V30 3404 H 326.334 -0.626548 2.02949 0
M  V30 3405 H 328.597 -0.338777 0.8854 0
M  V30 3406 H 328.303 -1.79142 3.02657 0
M  V30 3407 H 328.177 -3.20313 1.99198 0
M  V30 3408 H 330.564 -2.73013 1.12018 0
M  V30 3409 H 330.645 -1.3227 2.18948 0
M  V30 3410 H 330.289 -2.85708 4.19921 0
M  V30 3411 H 330.219 -4.25707 3.0997 0
M  V30 3412 H 332.71 -2.79994 2.53795 0
M  V30 3413 H 333.023 -5.28712 5.63634 0
M  V30 3414 H 331.368 -4.75992 5.06415 0
M  V30 3415 H 334.559 -3.4111 3.20564 0
M  V30 3416 H 334.732 -4.54544 4.61837 0
M  V30 3417 N 328.138 -0.959301 -1.25041 0
M  V30 3418 C 329.088 -0.453888 -2.23436 0
M  V30 3419 C 330.072 0.459461 -1.542 0
M  V30 3420 O 331.264 0.291752 -1.74579 0
M  V30 3421 C 328.393 0.262667 -3.42294 0
M  V30 3422 C 327.479 -0.669022 -4.1879 0
M  V30 3423 N 327.87 -1.80267 -4.72586 0
M  V30 3424 C 326.168 -0.47814 -4.4343 0
M  V30 3425 C 326.869 -2.38475 -5.3057 0
M  V30 3426 N 325.845 -1.67078 -5.17287 0
M  V30 3427 H 329.647 -1.319 -2.6264 0
M  V30 3428 H 327.161 -0.817358 -1.40332 0
M  V30 3429 H 329.158 0.641911 -4.11929 0
M  V30 3430 H 327.818 1.12432 -3.04613 0
M  V30 3431 H 328.829 -2.18442 -4.69578 0
M  V30 3432 H 325.506 0.340249 -4.16111 0
M  V30 3433 H 326.896 -3.34094 -5.8295 0
M  V30 3434 N 329.616 1.39756 -0.72842 0
M  V30 3435 C 330.863 2.00645 -0.273487 0
M  V30 3436 C 331.191 1.57786 1.13727 0
M  V30 3437 O 330.446 0.794886 1.7883 0
M  V30 3438 C 330.745 3.56002 -0.315776 0
M  V30 3439 C 330.411 4.18489 -1.67863 0
M  V30 3440 C 329.073 4.3527 -2.05166 0
M  V30 3441 C 331.425 4.53219 -2.57375 0
M  V30 3442 C 328.753 4.84069 -3.31503 0
M  V30 3443 C 331.105 5.03423 -3.83077 0
M  V30 3444 C 329.769 5.18413 -4.20481 0
M  V30 3445 H 329.039 0.734211 -0.100076 0
M  V30 3446 H 331.686 1.6718 -0.933972 0
M  V30 3447 H 329.991 3.89452 0.428285 0
M  V30 3448 H 331.688 4.00963 0.0542575 0
M  V30 3449 H 328.278 4.05824 -1.37858 0
M  V30 3450 H 332.462 4.39878 -2.29827 0
M  V30 3451 H 327.718 4.93859 -3.60435 0
M  V30 3452 H 331.892 5.2927 -4.52599 0
M  V30 3453 H 329.519 5.55987 -5.18443 0
M  V30 3454 N 331.094 0.475555 1.50254 0
M  V30 3455 C 332.505 0.0215174 1.86688 0
M  V30 3456 C 332.856 -1.38467 1.39001 0
M  V30 3457 O 331.981 -2.02732 0.756894 0
M  V30 3458 C 332.576 0.0322715 3.38785 0
M  V30 3459 C 331.135 -0.366314 3.74613 0
M  V30 3460 C 330.282 0.415832 2.74164 0
M  V30 3461 H 333.233 0.689612 1.42934 0
M  V30 3462 H 333.254 -0.76889 3.7265 0
M  V30 3463 H 332.766 1.05584 3.73462 0
M  V30 3464 H 330.867 -1.39406 3.45538 0
M  V30 3465 H 330.98 -0.064555 4.79057 0
M  V30 3466 H 329.344 -0.131048 2.54363 0
M  V30 3467 H 330.127 1.43899 3.11686 0
M  V30 3468 N 332.573 -1.56217 0.208337 0
M  V30 3469 C 333.521 -2.21053 -0.723769 0
M  V30 3470 C 334.515 -1.18578 -1.20978 0
M  V30 3471 O 335.721 -1.36691 -1.17114 0
M  V30 3472 H 332.096 -0.708595 -0.251788 0
M  V30 3473 H 334.067 -2.98006 -0.153365 0
M  V30 3474 C 332.816 -2.89417 -1.927 0
M  V30 3475 H 332.139 -3.68019 -1.56212 0
M  V30 3476 H 333.579 -3.38201 -2.55727 0
M  V30 3477 C 332.038 -1.91166 -2.77411 0
M  V30 3478 O 332.568 -1.42026 -3.75754 0
M  V30 3479 N 330.774 -1.59105 -2.43175 0
M  V30 3480 H 330.321 -1.99259 -1.63259 0
M  V30 3481 H 330.279 -0.936255 -3.00136 0
M  V30 3482 N 334.051 0.0651679 -1.57465 0
M  V30 3483 C 335.291 0.768329 -1.8941 0
M  V30 3484 C 335.655 1.74406 -0.802894 0
M  V30 3485 O 336.856 2.49281 -1.0056 0
M  V30 3486 C 335.127 1.45199 -3.26576 0
M  V30 3487 S 336.686 2.1893 -3.80283 0
M  V30 3488 H 333.504 0.255359 -0.663561 0
M  V30 3489 H 336.106 0.024167 -1.95485 0
M  V30 3490 H 334.81 0.728123 -4.03889 0
M  V30 3491 H 334.341 2.23545 -3.23715 0
M  V30 3492 H 336.356 3.45551 -3.56102 0
M  V30 3493 N 335.529 1.53961 0.336706 0
M  V30 3494 C 336.776 1.71536 1.07618 0
M  V30 3495 C 337.104 0.482125 1.8843 0
M  V30 3496 O 336.359 -0.536142 1.88213 0
M  V30 3497 C 336.658 2.93493 2.03953 0
M  V30 3498 C 336.324 4.28811 1.39399 0
M  V30 3499 C 334.986 4.65602 1.21523 0
M  V30 3500 C 337.338 5.12844 0.929541 0
M  V30 3501 C 334.666 5.84037 0.558312 0
M  V30 3502 C 337.018 6.31951 0.286505 0
M  V30 3503 C 335.682 6.67432 0.0954869 0
M  V30 3504 H 334.952 0.627696 0.393801 0
M  V30 3505 H 337.599 1.88186 0.354715 0
M  V30 3506 H 335.904 2.71475 2.82504 0
M  V30 3507 H 337.601 3.04285 2.61174 0
M  V30 3508 H 334.191 3.99858 1.54311 0
M  V30 3509 H 338.375 4.84947 1.05548 0
M  V30 3510 H 333.631 6.10097 0.398995 0
M  V30 3511 H 337.805 6.96352 -0.0814376 0
M  V30 3512 H 335.432 7.59063 -0.415579 0
M  V30 3513 N 337.007 -0.598083 1.45811 0
M  V30 3514 C 338.254 -1.35681 1.50323 0
M  V30 3515 C 338.582 -1.9393 0.148739 0
M  V30 3516 O 337.837 -1.76094 -0.853787 0
M  V30 3517 C 338.136 -2.51669 2.53766 0
M  V30 3518 C 337.802 -2.11508 3.98215 0
M  V30 3519 C 336.464 -2.0027 4.37545 0
M  V30 3520 C 338.816 -1.80308 4.89018 0
M  V30 3521 C 336.144 -1.56067 5.65562 0
M  V30 3522 C 338.496 -1.37589 6.17456 0
M  V30 3523 C 337.16 -1.24916 6.55708 0
M  V30 3524 H 336.43 -0.496492 0.550069 0
M  V30 3525 H 339.077 -0.675052 1.79207 0
M  V30 3526 H 337.382 -3.25225 2.18486 0
M  V30 3527 H 339.079 -3.09895 2.54492 0
M  V30 3528 H 335.669 -2.21185 3.67117 0
M  V30 3529 H 339.853 -1.87884 4.59362 0
M  V30 3530 H 335.109 -1.44886 5.93985 0
M  V30 3531 H 339.283 -1.12495 6.87254 0
M  V30 3532 H 336.91 -0.904386 7.54801 0
M  V30 3533 N 338.485 -1.33259 -0.841409 0
M  V30 3534 C 339.731 -1.24757 -1.59886 0
M  V30 3535 C 340.064 0.186913 -1.93298 0
M  V30 3536 O 339.339 1.12757 -1.5848 0
M  V30 3537 C 339.622 -2.12036 -2.91055 0
M  V30 3538 C 339.475 -3.63929 -2.6434 0
M  V30 3539 C 340.794 -1.9916 -3.92458 0
M  V30 3540 H 337.913 -0.454542 -0.580138 0
M  V30 3541 H 340.555 -1.63335 -0.970647 0
M  V30 3542 H 338.705 -1.79265 -3.44669 0
M  V30 3543 H 340.377 -4.06978 -2.17178 0
M  V30 3544 H 338.62 -3.85935 -1.98082 0
M  V30 3545 H 339.291 -4.20341 -3.57796 0
M  V30 3546 H 341.767 -2.27895 -3.48143 0
M  V30 3547 H 340.643 -2.62484 -4.82072 0
M  V30 3548 H 340.904 -0.963082 -4.31482 0
M  V30 3549 N 339.963 1.05934 -1.16686 0
M  V30 3550 C 340.893 2.1546 -0.899949 0
M  V30 3551 C 341.874 1.69391 0.155154 0
M  V30 3552 O 343.059 1.94199 0.00648693 0
M  V30 3553 C 340.189 3.44939 -0.404241 0
M  V30 3554 C 339.143 4.04536 -1.39767 0
M  V30 3555 C 338.469 5.29268 -0.760216 0
M  V30 3556 C 339.769 4.42893 -2.76845 0
M  V30 3557 H 341.463 2.38046 -1.81588 0
M  V30 3558 H 339.009 1.14404 -0.874514 0
M  V30 3559 H 340.962 4.20901 -0.204971 0
M  V30 3560 H 339.686 3.21983 0.547206 0
M  V30 3561 H 338.345 3.30635 -1.58355 0
M  V30 3562 H 337.993 5.02611 0.197831 0
M  V30 3563 H 337.693 5.70101 -1.42332 0
M  V30 3564 H 339.217 6.07924 -0.57105 0
M  V30 3565 H 340.631 5.09921 -2.62019 0
M  V30 3566 H 339.028 4.94721 -3.39663 0
M  V30 3567 H 340.098 3.53584 -3.31823 0
M  V30 3568 N 341.441 0.965919 1.2453 0
M  V30 3569 C 342.689 0.625593 1.92174 0
M  V30 3570 C 343.01 -0.841652 1.75901 0
M  V30 3571 O 342.28 -1.60061 1.12948 0
M  V30 3572 H 340.86 0.228388 0.71123 0
M  V30 3573 H 343.522 1.2266 1.51461 0
M  V30 3574 H 342.618 0.864653 2.99884 0
M  V30 3575 N 342.919 -1.39368 0.735821 0
M  V30 3576 C 344.335 -1.54204 0.411492 0
M  V30 3577 C 344.535 -1.70268 -1.07755 0
M  V30 3578 O 343.591 -1.70364 -1.86366 0
M  V30 3579 C 344.904 -2.75925 1.19523 0
M  V30 3580 C 346.452 -2.89761 1.18354 0
M  V30 3581 C 346.927 -4.14421 1.94986 0
M  V30 3582 N 348.418 -4.21462 1.92156 0
M  V30 3583 C 349.153 -5.16871 2.48258 0
M  V30 3584 N 348.649 -6.18063 3.13001 0
M  V30 3585 N 350.442 -5.09093 2.38287 0
M  V30 3586 H 342.593 -1.27189 1.70108 0
M  V30 3587 H 344.856 -0.616517 0.720147 0
M  V30 3588 H 344.562 -2.70401 2.24892 0
M  V30 3589 H 344.436 -3.68614 0.800222 0
M  V30 3590 H 346.823 -2.94777 0.137975 0
M  V30 3591 H 346.904 -1.98133 1.61793 0
M  V30 3592 H 346.548 -4.10166 2.99543 0
M  V30 3593 H 346.478 -5.05095 1.48953 0
M  V30 3594 H 348.969 -3.48979 1.44991 0
M  V30 3595 H 349.282 -6.87326 3.53275 0
M  V30 3596 H 347.627 -6.18448 3.17091 0
M  V30 3597 H 350.818 -4.28973 1.8735 0
M  V30 3598 H 350.991 -5.83272 2.82308 0
M  V30 3599 N 344.397 -0.483516 -1.5 0
M  V30 3600 C 345.345 0.318061 -2.30415 0
M  V30 3601 C 346.339 0.978988 -1.38247 0
M  V30 3602 O 347.545 0.908673 -1.55381 0
M  V30 3603 H 343.92 0.121419 -0.742133 0
M  V30 3604 H 345.891 -0.380403 -2.95965 0
M  V30 3605 C 344.64 1.38013 -3.19136 0
M  V30 3606 H 343.963 0.880952 -3.89973 0
M  V30 3607 H 345.403 1.91332 -3.78375 0
M  V30 3608 C 343.862 2.38884 -2.37563 0
M  V30 3609 O 344.392 3.44412 -2.06744 0
M  V30 3610 N 342.598 2.10912 -1.99911 0
M  V30 3611 H 342.145 1.25118 -2.25174 0
M  V30 3612 H 342.103 2.78635 -1.45636 0
M  V30 3613 N 345.875 1.56104 -0.216619 0
M  V30 3614 C 346.805 2.23063 0.690296 0
M  V30 3615 C 347.786 1.20072 1.20485 0
M  V30 3616 O 348.971 1.48643 1.24976 0
M  V30 3617 C 346.101 2.90672 1.90072 0
M  V30 3618 C 345.055 4.00092 1.5202 0
M  V30 3619 C 344.381 4.54972 2.80899 0
M  V30 3620 C 345.681 5.17398 0.71391 0
M  V30 3621 H 347.375 2.99109 0.132038 0
M  V30 3622 H 344.921 1.43866 0.0620664 0
M  V30 3623 H 346.874 3.36204 2.54057 0
M  V30 3624 H 345.598 2.12066 2.48386 0
M  V30 3625 H 344.257 3.55283 0.903839 0
M  V30 3626 H 343.905 3.73102 3.37348 0
M  V30 3627 H 343.605 5.28817 2.56176 0
M  V30 3628 H 345.129 5.0322 3.45836 0
M  V30 3629 H 346.543 5.59342 1.25735 0
M  V30 3630 H 344.94 5.97444 0.563951 0
M  V30 3631 H 346.01 4.84088 -0.280527 0
M  V30 3632 N 347.353 -0.0568162 1.57498 0
M  V30 3633 C 348.301 -1.08452 2.05769 0
M  V30 3634 C 349.295 -1.39164 0.965903 0
M  V30 3635 O 350.501 -1.38395 1.15095 0
M  V30 3636 H 346.876 -0.367148 0.656282 0
M  V30 3637 H 348.847 -0.651368 2.91204 0
M  V30 3638 C 347.596 -2.38543 2.52968 0
M  V30 3639 H 346.919 -2.15765 3.36579 0
M  V30 3640 H 348.359 -3.08863 2.90481 0
M  V30 3641 C 346.818 -3.05562 1.41893 0
M  V30 3642 O 347.348 -3.94262 0.769442 0
M  V30 3643 N 345.554 -2.6643 1.16032 0
M  V30 3644 H 345.101 -1.94387 1.6903 0
M  V30 3645 H 345.059 -3.11593 0.419219 0
M  V30 3646 N 348.832 -1.54138 -0.328536 0
M  V30 3647 C 350.081 -1.71318 -1.06456 0
M  V30 3648 C 350.394 -0.491109 -1.89334 0
M  V30 3649 O 351.6 -0.54416 -2.65991 0
M  V30 3650 C 350.056 -3.03 -1.94214 0
M  V30 3651 C 349.664 -4.32595 -1.16471 0
M  V30 3652 C 351.408 -3.29544 -2.67583 0
M  V30 3653 C 349.315 -5.55341 -2.03347 0
M  V30 3654 H 348.245 -0.638429 -0.401155 0
M  V30 3655 H 350.896 -1.80633 -0.323106 0
M  V30 3656 H 349.278 -2.87579 -2.72239 0
M  V30 3657 H 350.452 -4.58766 -0.432525 0
M  V30 3658 H 348.767 -4.12777 -0.548063 0
M  V30 3659 H 351.364 -4.18444 -3.3288 0
M  V30 3660 H 351.707 -2.47206 -3.34955 0
M  V30 3661 H 352.24 -3.45809 -1.96623 0
M  V30 3662 H 348.979 -6.40268 -1.40491 0
M  V30 3663 H 348.499 -5.33397 -2.74313 0
M  V30 3664 H 350.178 -5.91557 -2.62049 0
M  V30 3665 N 350.31 0.590341 -1.46126 0
M  V30 3666 C 351.726 0.912917 -1.30912 0
M  V30 3667 C 351.926 1.99616 -0.274893 0
M  V30 3668 O 350.982 2.50397 0.325197 0
M  V30 3669 C 352.295 1.3375 -2.69317 0
M  V30 3670 C 353.843 1.45077 -2.77348 0
M  V30 3671 C 354.318 1.90904 -4.16317 0
M  V30 3672 N 355.809 1.9811 -4.18696 0
M  V30 3673 C 356.544 2.34828 -5.23109 0
M  V30 3674 N 356.04 2.70393 -6.37856 0
M  V30 3675 N 357.833 2.35317 -5.10473 0
M  V30 3676 H 349.984 -0.125358 -2.1203 0
M  V30 3677 H 352.247 0.00658481 -0.947977 0
M  V30 3678 H 351.953 0.615614 -3.4627 0
M  V30 3679 H 351.827 2.30058 -2.9892 0
M  V30 3680 H 354.214 2.16353 -2.00687 0
M  V30 3681 H 354.295 0.4704 -2.51438 0
M  V30 3682 H 353.939 1.20209 -4.9347 0
M  V30 3683 H 353.869 2.89886 -4.39629 0
M  V30 3684 H 356.36 1.73146 -3.359 0
M  V30 3685 H 356.673 2.97341 -7.13308 0
M  V30 3686 H 355.018 2.68048 -6.41229 0
M  V30 3687 H 358.209 2.0695 -4.19868 0
M  V30 3688 H 358.382 2.63605 -5.9196 0
M  V30 3689 N 351.788 1.33704 0.83433 0
M  V30 3690 C 353.013 1.28615 1.62705 0
M  V30 3691 C 353.438 -0.139242 1.87584 0
M  V30 3692 O 352.796 -1.09734 1.4432 0
M  V30 3693 C 352.844 2.07139 2.95171 0
M  V30 3694 O 351.948 1.4331 3.86699 0
M  V30 3695 H 351.289 0.44226 0.49528 0
M  V30 3696 H 353.819 1.76335 1.03766 0
M  V30 3697 H 353.829 2.18073 3.44831 0
M  V30 3698 H 352.504 3.10779 2.76386 0
M  V30 3699 H 351.081 1.4105 3.45195 0
M  V30 3700 N 353.266 -1.05314 1.17247 0
M  V30 3701 C 354.176 -2.16538 0.90268 0
M  V30 3702 C 355.192 -1.73523 -0.128707 0
M  V30 3703 O 356.368 -2.01337 0.0502701 0
M  V30 3704 C 353.433 -3.44167 0.418356 0
M  V30 3705 C 352.494 -4.01635 1.51618 0
M  V30 3706 C 351.727 -5.23171 1.05487 0
M  V30 3707 O 351.95 -5.70327 -0.0914715 0
M  V30 3708 O 350.884 -5.72848 1.8474 0
M  V30 3709 H 354.71 -2.42145 1.83302 0
M  V30 3710 H 352.295 -1.15037 0.953246 0
M  V30 3711 H 354.177 -4.21112 0.155726 0
M  V30 3712 H 352.852 -3.20063 -0.48385 0
M  V30 3713 H 351.759 -3.26135 1.83268 0
M  V30 3714 H 353.092 -4.30053 2.39405 0
M  V30 3715 N 354.744 -0.972509 -1.24016 0
M  V30 3716 C 355.969 -0.654417 -1.96805 0
M  V30 3717 C 356.394 0.770398 -1.716 0
M  V30 3718 O 355.752 1.52361 -0.982647 0
M  V30 3719 C 355.8 -0.941031 -3.48105 0
M  V30 3720 O 354.904 -0.0289472 -4.1239 0
M  V30 3721 H 354.245 -0.24692 -0.616382 0
M  V30 3722 H 356.775 -1.30396 -1.57664 0
M  V30 3723 H 356.785 -0.87452 -3.98517 0
M  V30 3724 H 355.46 -1.97939 -3.65777 0
M  V30 3725 H 354.037 -0.149192 -3.72601 0
M  V30 3726 N 356.222 1.38976 -0.743202 0
M  V30 3727 C 357.499 1.94351 -0.220705 0
M  V30 3728 C 357.879 1.67935 1.2791 0
M  V30 3729 O 357.227 1.01211 2.04862 0
M  V30 3730 C 357.437 3.44426 -0.563171 0
M  V30 3731 C 358.785 4.2144 -0.517046 0
M  V30 3732 O 359.809 3.52661 -0.500846 0
M  V30 3733 O 358.668 5.44032 -0.518806 0
M  V30 3734 H 355.762 0.825879 -0.043047 0
M  V30 3735 H 358.308 1.48429 -0.822618 0
M  V30 3736 H 357.08 3.5712 -1.59941 0
M  V30 3737 H 356.703 3.97543 0.0672883 0
M  V30 3738 N 357.7 0.491464 1.49741 0
M  V30 3739 C 358.663 -0.280906 2.27472 0
M  V30 3740 C 359.663 -0.902454 1.33088 0
M  V30 3741 O 360.853 -0.768465 1.56334 0
M  V30 3742 C 357.985 -1.40209 3.10732 0
M  V30 3743 H 359.178 0.401056 2.97206 0
M  V30 3744 H 356.731 0.246131 1.5435 0
M  V30 3745 H 357.466 -2.11849 2.45541 0
M  V30 3746 H 357.251 -0.961969 3.80117 0
M  V30 3747 H 358.741 -1.9464 3.69466 0
M  V30 3748 N 359.178 -1.55987 0.224894 0
M  V30 3749 C 360.424 -1.98684 -0.406502 0
M  V30 3750 C 360.757 -1.11248 -1.59177 0
M  V30 3751 O 360.032 -0.170909 -1.93748 0
M  V30 3752 C 360.315 -3.50218 -0.837808 0
M  V30 3753 C 360.168 -4.48426 0.351332 0
M  V30 3754 C 361.487 -4.06243 -1.69278 0
M  V30 3755 H 358.606 -0.722337 -0.146283 0
M  V30 3756 H 361.248 -1.87255 0.321799 0
M  V30 3757 H 359.398 -3.60089 -1.45837 0
M  V30 3758 H 361.07 -4.50562 0.989526 0
M  V30 3759 H 359.313 -4.22159 0.998207 0
M  V30 3760 H 359.984 -5.52 0.00655905 0
M  V30 3761 H 362.46 -3.99337 -1.16914 0
M  V30 3762 H 361.336 -5.12581 -1.96346 0
M  V30 3763 H 361.597 -3.53332 -2.65723 0
M  V30 3764 N 360.656 0.0484629 -1.57525 0
M  V30 3765 C 361.881 0.759177 -1.93006 0
M  V30 3766 C 362.306 1.69125 -0.823317 0
M  V30 3767 O 361.664 1.79931 0.222364 0
M  V30 3768 C 361.712 1.50899 -3.27509 0
M  V30 3769 O 360.816 2.62112 -3.18388 0
M  V30 3770 H 360.157 0.205564 -0.631379 0
M  V30 3771 H 362.687 0.00972959 -2.04598 0
M  V30 3772 H 362.697 1.88317 -3.6194 0
M  V30 3773 H 361.372 0.825269 -4.0763 0
M  V30 3774 H 359.949 2.27379 -2.95556 0
M  V30 3775 N 362.134 1.5431 0.320358 0
M  V30 3776 C 363.359 1.76954 1.08175 0
M  V30 3777 C 363.784 0.518193 1.80821 0
M  V30 3778 O 363.142 -0.530411 1.73368 0
M  V30 3779 C 363.19 2.96451 2.05303 0
M  V30 3780 O 362.294 2.68221 3.13259 0
M  V30 3781 H 361.635 0.586275 0.311733 0
M  V30 3782 H 364.165 2.01342 0.363676 0
M  V30 3783 H 364.175 3.23887 2.48116 0
M  V30 3784 H 362.85 3.87196 1.51829 0
M  V30 3785 H 361.427 2.51744 2.75099 0
M  V30 3786 N 363.613 -0.582584 1.46437 0
M  V30 3787 C 364.89 -1.34276 1.4223 0
M  V30 3788 C 365.27 -2.10835 0.10583 0
M  V30 3789 O 364.618 -2.09485 -0.912596 0
M  V30 3790 C 364.828 -2.26865 2.65204 0
M  V30 3791 C 366.176 -2.88691 3.11356 0
M  V30 3792 O 367.2 -2.37178 2.65753 0
M  V30 3793 O 366.059 -3.82255 3.90568 0
M  V30 3794 H 363.153 -0.603326 0.565621 0
M  V30 3795 H 365.699 -0.603591 1.58603 0
M  V30 3796 H 364.471 -1.69724 3.52576 0
M  V30 3797 H 364.094 -3.08122 2.5129 0
M  V30 3798 N 365.091 -1.34144 -0.827227 0
M  V30 3799 C 366.507 -1.13732 -1.11969 0
M  V30 3800 C 366.707 0.0640463 -2.01398 0
M  V30 3801 O 365.763 0.740856 -2.41387 0
M  V30 3802 C 367.076 -2.43047 -1.77055 0
M  V30 3803 C 368.624 -2.49063 -1.89569 0
M  V30 3804 C 369.099 -3.78369 -2.58072 0
M  V30 3805 N 370.59 -3.79505 -2.65575 0
M  V30 3806 C 371.325 -4.76274 -3.19297 0
M  V30 3807 N 370.821 -5.83424 -3.73616 0
M  V30 3808 N 372.614 -4.63735 -3.17658 0
M  V30 3809 H 364.765 -2.11126 -0.232296 0
M  V30 3810 H 367.028 -0.933424 -0.165602 0
M  V30 3811 H 366.734 -3.31025 -1.18807 0
M  V30 3812 H 366.608 -2.56066 -2.76966 0
M  V30 3813 H 368.995 -1.61527 -2.46968 0
M  V30 3814 H 369.076 -2.39975 -0.885745 0
M  V30 3815 H 368.72 -4.66293 -2.01329 0
M  V30 3816 H 368.65 -3.84737 -3.59562 0
M  V30 3817 H 371.141 -3.02074 -2.27068 0
M  V30 3818 H 371.454 -6.53282 -4.12846 0
M  V30 3819 H 369.799 -5.87143 -3.71871 0
M  V30 3820 H 372.99 -3.79177 -2.74486 0
M  V30 3821 H 373.163 -5.39318 -3.59221 0
M  V30 3822 N 366.569 1.04691 -1.17803 0
M  V30 3823 C 367.517 2.14665 -0.895635 0
M  V30 3824 C 368.511 1.68806 0.141679 0
M  V30 3825 O 369.717 1.79999 -0.00587914 0
M  V30 3826 H 366.092 0.701038 -0.272121 0
M  V30 3827 H 368.063 2.35685 -1.83017 0
M  V30 3828 C 366.812 3.45019 -0.430962 0
M  V30 3829 H 366.135 3.8071 -1.22064 0
M  V30 3830 H 367.575 4.23125 -0.272301 0
M  V30 3831 C 366.034 3.25943 0.852207 0
M  V30 3832 O 366.564 3.5296 1.91786 0
M  V30 3833 N 364.77 2.79304 0.802346 0
M  V30 3834 H 364.317 2.57518 -0.0650788 0
M  V30 3835 H 364.275 2.66921 1.66134 0
M  V30 3836 N 368.047 0.979072 1.23499 0
M  V30 3837 C 369.294 0.647219 1.91878 0
M  V30 3838 C 369.622 -0.819074 1.76413 0
M  V30 3839 O 368.877 -1.60616 1.11808 0
M  V30 3840 C 369.176 0.981932 3.43646 0
M  V30 3841 C 368.842 2.43822 3.79291 0
M  V30 3842 C 367.504 2.83622 3.88731 0
M  V30 3843 C 369.856 3.3828 3.96505 0
M  V30 3844 C 367.184 4.16897 4.12812 0
M  V30 3845 C 369.536 4.71197 4.22085 0
M  V30 3846 C 368.2 5.10758 4.29747 0
M  V30 3847 H 367.47 0.236834 0.702133 0
M  V30 3848 H 370.117 1.23268 1.46551 0
M  V30 3849 H 368.422 0.314365 3.90537 0
M  V30 3850 H 370.119 0.703395 3.94783 0
M  V30 3851 H 366.709 2.11966 3.72516 0
M  V30 3852 H 370.893 3.0871 3.88603 0
M  V30 3853 H 366.149 4.47157 4.16966 0
M  V30 3854 H 370.323 5.44348 4.34348 0
M  V30 3855 H 367.95 6.1405 4.48159 0
M  V30 3856 N 369.525 -1.3858 0.750561 0
M  V30 3857 C 370.936 -1.82927 0.373438 0
M  V30 3858 C 371.287 -1.62634 -1.09748 0
M  V30 3859 O 370.412 -1.12588 -1.84805 0
M  V30 3860 C 371.007 -3.32088 0.671029 0
M  V30 3861 C 369.566 -3.74795 0.34722 0
M  V30 3862 C 368.713 -2.61391 0.92575 0
M  V30 3863 H 371.664 -1.27351 0.946958 0
M  V30 3864 H 371.685 -3.80465 -0.0518269 0
M  V30 3865 H 371.197 -3.46826 1.74164 0
M  V30 3866 H 369.298 -3.65638 -0.716933 0
M  V30 3867 H 369.411 -4.71667 0.840656 0
M  V30 3868 H 367.775 -2.52265 0.351327 0
M  V30 3869 H 368.558 -2.78929 2.00133 0
M  V30 3870 N 371.003 -0.499398 -1.49478 0
M  V30 3871 C 371.951 0.293604 -2.3074 0
M  V30 3872 C 372.945 0.96427 -1.39277 0
M  V30 3873 O 374.151 0.892141 -1.56336 0
M  V30 3874 H 370.526 0.113541 -0.743379 0
M  V30 3875 H 372.497 -0.411772 -2.95545 0
M  V30 3876 C 371.246 1.3462 -3.20582 0
M  V30 3877 H 370.569 0.83954 -3.90886 0
M  V30 3878 H 372.009 1.87308 -3.80384 0
M  V30 3879 C 370.468 2.36351 -2.40083 0
M  V30 3880 O 370.998 3.422 -2.10385 0
M  V30 3881 N 369.204 2.0878 -2.02137 0
M  V30 3882 H 368.751 1.22723 -2.26488 0
M  V30 3883 H 368.709 2.77075 -1.48583 0
M  V30 3884 N 372.481 1.55866 -0.233164 0
M  V30 3885 C 373.706 2.03449 0.402906 0
M  V30 3886 C 374.131 1.11166 1.51736 0
M  V30 3887 O 373.489 0.101996 1.81013 0
M  V30 3888 C 373.537 3.49165 0.9009 0
M  V30 3889 O 372.641 3.60019 2.01147 0
M  V30 3890 H 371.982 0.657913 0.0897025 0
M  V30 3891 H 374.512 2.01493 -0.355201 0
M  V30 3892 H 374.522 3.89716 1.2077 0
M  V30 3893 H 373.197 4.15813 0.0852889 0
M  V30 3894 H 371.774 3.3136 1.71042 0
M  V30 3895 N 373.959 -0.0401083 1.57549 0
M  V30 3896 C 375.187 -0.745196 1.93014 0
M  V30 3897 C 375.602 -1.6948 0.831984 0
M  V30 3898 O 374.959 -1.81482 -0.192463 0
M  V30 3899 C 375.01 -1.51176 3.28372 0
M  V30 3900 O 374.731 -0.600284 4.33968 0
M  V30 3901 C 376.232 -2.315 3.78051 0
M  V30 3902 H 373.452 -0.210088 0.637263 0
M  V30 3903 H 375.996 -0.000924689 2.045 0
M  V30 3904 H 374.151 -2.20801 3.18317 0
M  V30 3905 H 374.565 -1.13669 5.12035 0
M  V30 3906 H 376.039 -2.80697 4.75303 0
M  V30 3907 H 376.516 -3.12436 3.08675 0
M  V30 3908 H 377.122 -1.66971 3.91153 0
M  V30 3909 N 375.437 -1.54477 -0.31217 0
M  V30 3910 C 376.385 -1.85395 -1.40469 0
M  V30 3911 C 377.379 -0.726749 -1.53019 0
M  V30 3912 O 378.585 -0.910582 -1.55269 0
M  V30 3913 H 374.96 -0.587845 -0.46898 0
M  V30 3914 H 376.931 -2.76736 -1.11623 0
M  V30 3915 C 375.68 -2.10811 -2.76503 0
M  V30 3916 H 375.003 -2.97014 -2.67625 0
M  V30 3917 H 376.443 -2.3639 -3.51988 0
M  V30 3918 C 374.902 -0.903165 -3.24568 0
M  V30 3919 O 375.432 -0.118085 -4.01526 0
M  V30 3920 N 373.638 -0.711634 -2.81752 0
M  V30 3921 H 373.185 -1.35171 -2.19286 0
M  V30 3922 H 373.143 0.0930473 -3.14262 0
M  V30 3923 N 376.915 0.57481 -1.46744 0
M  V30 3924 C 377.845 1.69337 -1.60771 0
M  V30 3925 C 378.826 1.63825 -0.457736 0
M  V30 3926 O 380.011 1.8172 -0.684947 0
M  V30 3927 C 377.141 3.0798 -1.60517 0
M  V30 3928 C 376.095 3.28327 -2.74564 0
M  V30 3929 C 375.421 4.67578 -2.59373 0
M  V30 3930 C 376.721 3.15398 -4.16319 0
M  V30 3931 H 378.415 1.57853 -2.54407 0
M  V30 3932 H 375.961 0.75799 -1.22436 0
M  V30 3933 H 377.914 3.86061 -1.68923 0
M  V30 3934 H 376.638 3.20381 -0.634305 0
M  V30 3935 H 375.297 2.52649 -2.65639 0
M  V30 3936 H 374.945 4.76755 -1.60353 0
M  V30 3937 H 374.645 4.82144 -3.35873 0
M  V30 3938 H 376.169 5.47817 -2.69682 0
M  V30 3939 H 377.583 3.83315 -4.26313 0
M  V30 3940 H 375.98 3.41482 -4.93468 0
M  V30 3941 H 377.05 2.12372 -4.3592 0
M  V30 3942 N 378.394 1.34581 0.820102 0
M  V30 3943 C 379.805 1.24298 1.39309 0
M  V30 3944 C 380.156 -0.130351 1.95767 0
M  V30 3945 O 379.281 -1.0308 1.90272 0
M  V30 3946 C 379.876 2.25054 2.53251 0
M  V30 3947 C 378.435 2.18552 3.0645 0
M  V30 3948 C 377.582 2.11503 1.79337 0
M  V30 3949 H 380.533 1.45906 0.624262 0
M  V30 3950 H 380.554 1.86917 3.31425 0
M  V30 3951 H 380.066 3.24996 2.1213 0
M  V30 3952 H 378.167 1.21976 3.52069 0
M  V30 3953 H 378.28 3.0993 3.65349 0
M  V30 3954 H 376.644 1.57268 2.00347 0
M  V30 3955 H 377.427 3.13284 1.40386 0
M  V30 3956 N 379.872 -1.04064 1.18357 0
M  V30 3957 C 381.288 -1.2947 0.933258 0
M  V30 3958 C 381.488 -1.97466 -0.401169 0
M  V30 3959 O 380.544 -2.25528 -1.13549 0
M  V30 3960 C 381.857 -2.15337 2.09882 0
M  V30 3961 C 383.405 -2.28683 2.13712 0
M  V30 3962 C 383.88 -3.17917 3.29686 0
M  V30 3963 N 385.371 -3.25504 3.29547 0
M  V30 3964 C 386.106 -3.94706 4.15926 0
M  V30 3965 N 385.602 -4.66239 5.12439 0
M  V30 3966 N 387.395 -3.90986 4.0384 0
M  V30 3967 H 379.546 -0.583359 2.04232 0
M  V30 3968 H 381.809 -0.319921 0.892387 0
M  V30 3969 H 381.515 -1.72682 3.06389 0
M  V30 3970 H 381.389 -3.16015 2.05947 0
M  V30 3971 H 383.776 -2.70575 1.17784 0
M  V30 3972 H 383.857 -1.27596 2.21705 0
M  V30 3973 H 383.501 -2.76736 4.25887 0
M  V30 3974 H 383.431 -4.19036 3.1893 0
M  V30 3975 H 385.922 -2.74547 2.59677 0
M  V30 3976 H 386.235 -5.16638 5.74722 0
M  V30 3977 H 384.58 -4.65143 5.16398 0
M  V30 3978 H 387.771 -3.34234 3.27727 0
M  V30 3979 H 387.944 -4.44646 4.71375 0
M  V30 3980 N 381.35 -0.985608 -1.22978 0
M  V30 3981 C 382.298 -0.522631 -2.26652 0
M  V30 3982 C 383.292 0.422998 -1.64034 0
M  V30 3983 O 384.498 0.296319 -1.77544 0
M  V30 3984 H 380.873 -0.150597 -0.736766 0
M  V30 3985 H 382.844 -1.40863 -2.63059 0
M  V30 3986 C 381.593 0.154238 -3.47358 0
M  V30 3987 H 380.916 -0.564329 -3.95797 0
M  V30 3988 H 382.356 0.441744 -4.21693 0
M  V30 3989 C 380.815 1.38719 -3.07016 0
M  V30 3990 O 381.345 2.48307 -3.15764 0
M  V30 3991 N 379.551 1.25975 -2.61875 0
M  V30 3992 H 379.098 0.368068 -2.54957 0
M  V30 3993 H 379.056 2.08578 -2.3525 0
M  V30 3994 N 382.828 1.3818 -0.7579 0
M  V30 3995 C 384.239 1.82726 -0.383134 0
M  V30 3996 C 384.59 1.63214 1.08884 0
M  V30 3997 O 383.715 1.13566 1.84205 0
M  V30 3998 C 384.31 3.31728 -0.688631 0
M  V30 3999 C 382.869 3.74606 -0.367091 0
M  V30 4000 C 382.016 2.60896 -0.939599 0
M  V30 4001 H 384.967 1.26847 -0.953699 0
M  V30 4002 H 384.988 3.80487 0.0316492 0
M  V30 4003 H 384.5 3.45898 -1.76001 0
M  V30 4004 H 382.601 3.66013 0.697532 0
M  V30 4005 H 382.714 4.71215 -0.865658 0
M  V30 4006 H 381.078 2.52075 -0.3647 0
M  V30 4007 H 381.861 2.77864 -2.0161 0
M  V30 4008 N 384.306 0.507319 1.49211 0
M  V30 4009 C 385.531 -0.033725 2.07373 0
M  V30 4010 C 385.956 -1.29485 1.36437 0
M  V30 4011 O 385.314 -1.76294 0.423087 0
M  V30 4012 C 385.362 -0.263945 3.59633 0
M  V30 4013 O 384.466 -1.33737 3.90113 0
M  V30 4014 H 383.807 0.0290331 0.663365 0
M  V30 4015 H 386.337 0.708749 1.91932 0
M  V30 4016 H 386.347 -0.493536 4.05004 0
M  V30 4017 H 385.022 0.657424 4.10671 0
M  V30 4018 H 383.599 -1.09224 3.56545 0
M  V30 4019 N 385.784 -1.5574 0.241426 0
M  V30 4020 C 386.717 -2.17168 -0.700935 0
M  V30 4021 C 387.695 -1.12206 -1.1768 0
M  V30 4022 O 388.879 -1.40565 -1.25593 0
M  V30 4023 C 386.006 -2.76796 -1.95196 0
M  V30 4024 C 385.052 -3.94764 -1.61442 0
M  V30 4025 S 385.885 -5.30613 -0.72182 0
M  V30 4026 C 387.041 -5.93691 -1.98197 0
M  V30 4027 H 387.274 -2.96761 -0.178882 0
M  V30 4028 H 384.807 -1.54378 0.0259299 0
M  V30 4029 H 386.765 -3.11787 -2.67019 0
M  V30 4030 H 385.426 -1.9716 -2.44514 0
M  V30 4031 H 384.619 -4.35057 -2.54443 0
M  V30 4032 H 384.221 -3.61022 -0.976672 0
M  V30 4033 H 386.513 -6.10874 -2.92983 0
M  V30 4034 H 387.456 -6.89258 -1.62262 0
M  V30 4035 H 387.864 -5.22709 -2.13156 0
M  V30 4036 N 387.262 0.0317525 -1.57568 0
M  V30 4037 C 388.225 1.01783 -2.0536 0
M  V30 4038 C 389.225 1.29203 -0.957253 0
M  V30 4039 O 390.415 1.24251 -1.22095 0
M  V30 4040 C 387.547 2.35137 -2.46827 0
M  V30 4041 H 388.74 0.605062 -2.93733 0
M  V30 4042 H 386.293 0.278514 -1.53799 0
M  V30 4043 H 387.028 2.81168 -1.61602 0
M  V30 4044 H 386.813 2.16566 -3.26866 0
M  V30 4045 H 388.303 3.05938 -2.84239 0
M  V30 4046 N 388.74 1.54641 0.303973 0
M  V30 4047 C 390.017 1.64455 1.05896 0
M  V30 4048 C 390.397 0.490923 2.05312 0
M  V30 4049 O 389.745 -0.512685 2.22674 0
M  V30 4050 C 389.955 3.02331 1.74347 0
M  V30 4051 C 391.303 3.59045 2.26653 0
M  V30 4052 O 392.327 3.04764 1.84384 0
M  V30 4053 O 391.186 4.54081 3.04093 0
M  V30 4054 H 388.28 0.666729 0.489287 0
M  V30 4055 H 390.826 1.66986 0.302298 0
M  V30 4056 H 389.598 3.77734 1.02142 0
M  V30 4057 H 389.221 3.03565 2.56777 0
M  V30 4058 N 390.218 -0.567019 1.47046 0
M  V30 4059 C 391.448 -1.34831 1.56538 0
M  V30 4060 C 391.856 -1.8802 0.21101 0
M  V30 4061 O 391.199 -1.65152 -0.804387 0
M  V30 4062 C 391.261 -2.56139 2.52256 0
M  V30 4063 C 390.925 -2.24307 3.98165 0
M  V30 4064 C 391.922 -1.82192 4.86931 0
M  V30 4065 C 389.607 -2.35968 4.43423 0
M  V30 4066 C 391.601 -1.52153 6.18973 0
M  V30 4067 C 389.288 -2.05542 5.75496 0
M  V30 4068 C 390.286 -1.63701 6.63092 0
M  V30 4069 O 389.974 -1.33657 7.92711 0
M  V30 4070 H 389.706 -0.417683 0.531523 0
M  V30 4071 H 392.26 -0.694726 1.93294 0
M  V30 4072 H 390.49 -3.24356 2.10548 0
M  V30 4073 H 392.179 -3.18214 2.51982 0
M  V30 4074 H 392.945 -1.72684 4.53217 0
M  V30 4075 H 388.824 -2.67495 3.75456 0
M  V30 4076 H 392.368 -1.19421 6.87302 0
M  V30 4077 H 388.265 -2.14679 6.08755 0
M  V30 4078 H 389.033 -1.4737 8.05124 0
M  V30 4079 N 391.696 -1.35014 -0.812953 0
M  V30 4080 C 392.606 -1.2951 -1.95613 0
M  V30 4081 C 393.622 -0.20107 -1.72834 0
M  V30 4082 O 394.798 -0.42932 -1.96771 0
M  V30 4083 C 391.863 -1.06033 -3.30088 0
M  V30 4084 C 390.924 -2.24688 -3.65805 0
M  V30 4085 C 390.157 -2.02322 -4.93864 0
M  V30 4086 O 390.38 -0.986464 -5.61805 0
M  V30 4087 O 389.314 -2.89525 -5.27692 0
M  V30 4088 H 393.14 -2.25705 -2.03202 0
M  V30 4089 H 390.725 -1.15321 -0.949811 0
M  V30 4090 H 392.607 -0.94763 -4.10607 0
M  V30 4091 H 391.282 -0.128852 -3.23443 0
M  V30 4092 H 390.189 -2.41521 -2.85689 0
M  V30 4093 H 391.522 -3.16261 -3.77147 0
M  V30 4094 N 393.175 1.03435 -1.18907 0
M  V30 4095 C 394.138 2.09756 -0.923844 0
M  V30 4096 C 395.138 1.60528 0.093416 0
M  V30 4097 O 396.328 1.73631 -0.140727 0
M  V30 4098 C 393.46 3.38692 -0.387354 0
M  V30 4099 H 394.653 2.34719 -1.86674 0
M  V30 4100 H 392.206 1.19959 -1.00197 0
M  V30 4101 H 392.941 3.19396 0.561845 0
M  V30 4102 H 392.726 3.75742 -1.12074 0
M  V30 4103 H 394.216 4.17016 -0.220694 0
M  V30 4104 N 394.653 0.992116 1.22453 0
M  V30 4105 C 396.069 0.702713 1.43297 0
M  V30 4106 C 396.269 -0.726909 1.87932 0
M  V30 4107 O 395.325 -1.49792 2.0327 0
M  V30 4108 C 396.638 1.70762 2.47509 0
M  V30 4109 C 398.186 1.72298 2.61309 0
M  V30 4110 C 398.661 2.71649 3.68742 0
M  V30 4111 N 400.152 2.70239 3.76199 0
M  V30 4112 C 400.887 3.43778 4.58917 0
M  V30 4113 N 400.383 4.26914 5.45633 0
M  V30 4114 N 402.176 3.32487 4.5322 0
M  V30 4115 H 394.327 1.91543 0.917871 0
M  V30 4116 H 396.59 0.826031 0.465162 0
M  V30 4117 H 396.296 2.73059 2.21657 0
M  V30 4118 H 396.17 1.49985 3.46099 0
M  V30 4119 H 398.557 0.706989 2.86506 0
M  V30 4120 H 398.638 1.97143 1.62997 0
M  V30 4121 H 398.282 3.73397 3.44292 0
M  V30 4122 H 398.212 2.44074 4.66622 0
M  V30 4123 H 400.703 2.09912 3.14237 0
M  V30 4124 H 401.016 4.79855 6.05771 0
M  V30 4125 H 399.361 4.31002 5.45218 0
M  V30 4126 H 402.552 2.6698 3.84499 0
M  V30 4127 H 402.725 3.90058 5.17454 0
M  V30 4128 N 396.131 -1.37776 0.765217 0
M  V30 4129 C 397.38 -1.99092 0.323307 0
M  V30 4130 C 397.693 -1.61434 -1.10446 0
M  V30 4131 O 398.899 -2.15805 -1.64743 0
M  V30 4132 C 397.355 -3.56019 0.527098 0
M  V30 4133 C 396.963 -4.0262 1.96471 0
M  V30 4134 C 398.707 -4.2424 0.148483 0
M  V30 4135 C 396.614 -5.52233 2.11644 0
M  V30 4136 H 395.544 -0.744846 0.117137 0
M  V30 4137 H 398.195 -1.57391 0.943417 0
M  V30 4138 H 396.577 -3.95667 -0.162372 0
M  V30 4139 H 397.751 -3.74234 2.68859 0
M  V30 4140 H 396.066 -3.47161 2.29931 0
M  V30 4141 H 398.663 -5.34159 0.240456 0
M  V30 4142 H 399.006 -4.06446 -0.900422 0
M  V30 4143 H 399.539 -3.89872 0.79025 0
M  V30 4144 H 396.278 -5.74945 3.1483 0
M  V30 4145 H 395.798 -5.82324 1.4373 0
M  V30 4146 H 397.477 -6.18106 1.91193 0
M  V30 4147 N 397.609 -0.515225 -1.4894 0
M  V30 4148 C 398.856 0.024215 -2.02486 0
M  V30 4149 C 399.184 1.35671 -1.39368 0
M  V30 4150 O 398.439 1.88566 -0.523574 0
M  V30 4151 C 398.738 0.210595 -3.56779 0
M  V30 4152 C 398.404 -1.04569 -4.38607 0
M  V30 4153 C 397.066 -1.39002 -4.60686 0
M  V30 4154 C 399.418 -1.88008 -4.86109 0
M  V30 4155 C 396.746 -2.568 -5.27514 0
M  V30 4156 C 399.098 -3.04972 -5.54234 0
M  V30 4157 C 397.762 -3.39768 -5.74555 0
M  V30 4158 H 397.032 0.00886088 -0.740947 0
M  V30 4159 H 399.679 -0.678263 -1.79086 0
M  V30 4160 H 397.984 0.99572 -3.78936 0
M  V30 4161 H 399.681 0.642659 -3.95817 0
M  V30 4162 H 396.271 -0.767497 -4.21672 0
M  V30 4163 H 400.455 -1.62719 -4.68867 0
M  V30 4164 H 395.711 -2.8398 -5.41447 0
M  V30 4165 H 399.885 -3.69943 -5.90013 0
M  V30 4166 H 397.512 -4.31148 -6.26112 0
M  V30 4167 N 399.087 1.5561 -0.249682 0
M  V30 4168 C 400.315 2.03411 0.378352 0
M  V30 4169 C 400.73 1.12886 1.51335 0
M  V30 4170 O 400.087 0.143833 1.81932 0
M  V30 4171 C 400.138 3.50537 0.88351 0
M  V30 4172 O 399.859 4.37614 -0.20626 0
M  V30 4173 C 401.36 4.14113 1.58195 0
M  V30 4174 H 398.58 0.664994 0.08958 0
M  V30 4175 H 401.124 2.01044 -0.374357 0
M  V30 4176 H 399.279 3.5343 1.58639 0
M  V30 4177 H 399.693 5.24199 0.177782 0
M  V30 4178 H 401.167 5.18741 1.8871 0
M  V30 4179 H 401.644 3.60767 2.50487 0
M  V30 4180 H 402.25 4.15151 0.923573 0
M  V30 4181 N 400.565 -0.0233959 1.57583 0
M  V30 4182 C 401.812 -0.713063 1.8953 0
M  V30 4183 C 402.14 -1.75056 0.847673 0
M  V30 4184 O 401.395 -1.95119 -0.150636 0
M  V30 4185 C 401.694 -1.41428 3.28227 0
M  V30 4186 C 401.36 -0.512222 4.47981 0
M  V30 4187 C 400.022 -0.263785 4.80476 0
M  V30 4188 C 402.374 0.110248 5.21083 0
M  V30 4189 C 399.702 0.615804 5.83459 0
M  V30 4190 C 402.054 0.977573 6.25001 0
M  V30 4191 C 400.718 1.23542 6.55968 0
M  V30 4192 H 399.988 -0.260928 0.69354 0
M  V30 4193 H 402.635 0.0271047 1.91481 0
M  V30 4194 H 400.94 -2.22791 3.22291 0
M  V30 4195 H 402.637 -1.95355 3.50196 0
M  V30 4196 H 399.227 -0.716013 4.22577 0
M  V30 4197 H 403.411 -0.0687137 4.96252 0
M  V30 4198 H 398.667 0.82382 6.05824 0
M  V30 4199 H 402.841 1.46638 6.80786 0
M  V30 4200 H 400.468 1.91871 7.35588 0
M  V30 4201 N 402.043 -1.548 -0.295768 0
M  V30 4202 C 403.291 -1.73985 -1.02828 0
M  V30 4203 C 403.612 -0.531406 -1.87619 0
M  V30 4204 O 402.882 0.454221 -1.90561 0
M  V30 4205 H 401.462 -0.641556 -0.382642 0
M  V30 4206 H 404.124 -1.92163 -0.325489 0
M  V30 4207 H 403.22 -2.63129 -1.67838 0
M  V30 4208 N 403.521 0.559213 -1.47345 0
M  V30 4209 C 404.749 1.34194 -1.57479 0
M  V30 4210 C 405.164 1.87463 -0.224261 0
M  V30 4211 O 404.521 1.64888 0.782185 0
M  V30 4212 C 404.572 2.51324 -2.59843 0
M  V30 4213 O 404.293 2.00256 -3.89653 0
M  V30 4214 C 405.794 3.43563 -2.80142 0
M  V30 4215 H 403.014 0.409136 -0.531835 0
M  V30 4216 H 405.558 0.677609 -1.92947 0
M  V30 4217 H 403.713 3.13699 -2.27314 0
M  V30 4218 H 404.127 2.76708 -4.4557 0
M  V30 4219 H 405.601 4.2217 -3.55635 0
M  V30 4220 H 406.078 3.9698 -1.87892 0
M  V30 4221 H 406.684 2.87005 -3.1386 0
M  V30 4222 N 404.999 1.35443 0.805782 0
M  V30 4223 C 406.245 1.2996 1.56467 0
M  V30 4224 C 406.6 -0.124742 1.91995 0
M  V30 4225 O 405.893 -1.07533 1.58579 0
M  V30 4226 C 406.087 2.14045 2.86216 0
M  V30 4227 C 405.916 3.64512 2.63365 0
M  V30 4228 C 404.686 4.33744 2.59219 0
M  V30 4229 C 406.884 4.58142 2.33688 0
M  V30 4230 N 404.866 5.69953 2.28094 0
M  V30 4231 C 406.237 5.8248 2.12408 0
M  V30 4232 C 408.292 4.46877 2.19558 0
M  V30 4233 C 406.995 6.96818 1.78429 0
M  V30 4234 C 409.021 5.61065 1.86976 0
M  V30 4235 C 408.383 6.84431 1.66532 0
M  V30 4236 H 404.482 0.530817 0.574245 0
M  V30 4237 H 407.066 1.70333 0.943126 0
M  V30 4238 H 405.237 1.75942 3.46264 0
M  V30 4239 H 406.969 2.00075 3.51784 0
M  V30 4240 H 403.724 3.86365 2.73896 0
M  V30 4241 H 404.148 6.41845 2.15323 0
M  V30 4242 H 408.79 3.52102 2.34061 0
M  V30 4243 H 406.508 7.91559 1.62664 0
M  V30 4244 H 410.094 5.54302 1.7675 0
M  V30 4245 H 408.974 7.71294 1.41688 0
M  V30 4246 N 406.477 -1.02803 1.19454 0
M  V30 4247 C 407.726 -1.7562 0.991996 0
M  V30 4248 C 408.039 -1.89672 -0.477901 0
M  V30 4249 O 409.245 -2.59468 -0.799287 0
M  V30 4250 C 407.701 -3.15812 1.72601 0
M  V30 4251 C 407.309 -3.0981 3.23607 0
M  V30 4252 C 409.053 -3.92918 1.60674 0
M  V30 4253 C 406.96 -4.44939 3.89594 0
M  V30 4254 H 405.89 -0.658352 0.367543 0
M  V30 4255 H 408.541 -1.15044 1.42959 0
M  V30 4256 H 406.923 -3.7686 1.21624 0
M  V30 4257 H 408.097 -2.58138 3.81709 0
M  V30 4258 H 406.412 -2.46201 3.35819 0
M  V30 4259 H 409.009 -4.9287 2.07323 0
M  V30 4260 H 409.352 -4.12502 0.561025 0
M  V30 4261 H 409.885 -3.38472 2.09001 0
M  V30 4262 H 406.624 -4.30559 4.94267 0
M  V30 4263 H 406.144 -4.96664 3.36281 0
M  V30 4264 H 407.823 -5.1382 3.93189 0
M  V30 4265 N 407.956 -0.998596 -1.21925 0
M  V30 4266 C 409.186 -0.695276 -1.94549 0
M  V30 4267 C 409.594 0.745079 -1.73911 0
M  V30 4268 O 408.937 1.51507 -1.03881 0
M  V30 4269 C 408.999 -0.928485 -3.47303 0
M  V30 4270 C 408.663 -2.35443 -3.91683 0
M  V30 4271 C 409.66 -3.33428 -3.98901 0
M  V30 4272 C 407.345 -2.69038 -4.24174 0
M  V30 4273 C 409.339 -4.63079 -4.37992 0
M  V30 4274 C 407.026 -3.98906 -4.62944 0
M  V30 4275 C 408.024 -4.95738 -4.69822 0
M  V30 4276 O 407.712 -6.23285 -5.07711 0
M  V30 4277 H 407.444 -0.255902 -0.625692 0
M  V30 4278 H 409.998 -1.33767 -1.5587 0
M  V30 4279 H 408.228 -0.228917 -3.86022 0
M  V30 4280 H 409.917 -0.619539 -4.01144 0
M  V30 4281 H 410.683 -3.08807 -3.73983 0
M  V30 4282 H 406.562 -1.94367 -4.18022 0
M  V30 4283 H 410.106 -5.38658 -4.43275 0
M  V30 4284 H 406.003 -4.23314 -4.87314 0
M  V30 4285 H 406.771 -6.27306 -5.25766 0
M  V30 4286 N 409.434 1.37368 -0.772513 0
M  V30 4287 C 410.659 2.0447 -0.347386 0
M  V30 4288 C 411.084 1.57882 1.0225 0
M  V30 4289 O 410.442 0.73941 1.65537 0
M  V30 4290 C 410.49 3.58369 -0.400479 0
M  V30 4291 O 409.594 4.0803 0.598789 0
M  V30 4292 H 408.935 0.646773 -0.15027 0
M  V30 4293 H 411.465 1.75667 -1.04892 0
M  V30 4294 H 411.475 4.07183 -0.258045 0
M  V30 4295 H 410.15 3.91633 -1.39986 0
M  V30 4296 H 408.727 3.70534 0.419411 0
M  V30 4297 N 410.912 0.523116 1.48665 0
M  V30 4298 C 412.158 -0.0134963 2.02796 0
M  V30 4299 C 412.491 -1.34582 1.40004 0
M  V30 4300 O 411.766 -1.86756 0.543381 0
M  V30 4301 C 412.049 -0.14276 3.59817 0
M  V30 4302 C 411.902 1.21425 4.331 0
M  V30 4303 C 413.221 -0.872856 4.31357 0
M  V30 4304 H 410.34 -0.00343074 0.736992 0
M  V30 4305 H 412.982 0.678816 1.7746 0
M  V30 4306 H 411.132 -0.732401 3.81534 0
M  V30 4307 H 412.804 1.84447 4.2282 0
M  V30 4308 H 411.047 1.79791 3.94788 0
M  V30 4309 H 411.718 1.07687 5.41394 0
M  V30 4310 H 414.194 -0.372555 4.14429 0
M  V30 4311 H 413.07 -0.932185 5.40927 0
M  V30 4312 H 413.331 -1.92161 3.98154 0
M  V30 4313 N 412.39 -1.55475 0.257931 0
M  V30 4314 C 413.338 -2.23244 -0.653076 0
M  V30 4315 C 414.332 -1.22366 -1.17144 0
M  V30 4316 O 415.538 -1.40347 -1.12706 0
M  V30 4317 H 411.913 -0.716247 -0.229117 0
M  V30 4318 H 413.884 -2.98343 -0.0584788 0
M  V30 4319 C 412.633 -2.95401 -1.83395 0
M  V30 4320 H 411.956 -3.72802 -1.44424 0
M  V30 4321 H 413.396 -3.46165 -2.44838 0
M  V30 4322 C 411.855 -1.99895 -2.71189 0
M  V30 4323 O 412.385 -1.53909 -3.71046 0
M  V30 4324 N 410.591 -1.6676 -2.3799 0
M  V30 4325 H 410.138 -2.04352 -1.56837 0
M  V30 4326 H 410.096 -1.03127 -2.97005 0
M  V30 4327 N 413.868 0.0150385 -1.57593 0
M  V30 4328 C 414.815 1.01126 -2.07466 0
M  V30 4329 C 415.785 1.35064 -0.966794 0
M  V30 4330 O 416.97 1.4516 -1.23827 0
M  V30 4331 C 414.11 2.30276 -2.57035 0
M  V30 4332 C 413.223 2.02373 -3.81666 0
M  V30 4333 C 412.358 3.25496 -4.19793 0
M  V30 4334 C 411.397 2.93211 -5.37303 0
M  V30 4335 N 410.534 4.08826 -5.70794 0
M  V30 4336 H 415.374 0.57901 -2.92321 0
M  V30 4337 H 412.911 0.27426 -1.44521 0
M  V30 4338 H 414.869 3.05757 -2.83846 0
M  V30 4339 H 413.499 2.71197 -1.75077 0
M  V30 4340 H 412.551 1.17327 -3.61854 0
M  V30 4341 H 413.863 1.74567 -4.67256 0
M  V30 4342 H 413.017 4.09333 -4.47807 0
M  V30 4343 H 411.756 3.56428 -3.32882 0
M  V30 4344 H 410.761 2.07777 -5.09027 0
M  V30 4345 H 411.986 2.63542 -6.25877 0
M  V30 4346 H 409.932 4.39682 -4.86842 0
M  V30 4347 H 409.849 3.84491 -6.50924 0
M  V30 4348 H 411.117 4.93496 -6.03392 0
M  V30 4349 N 415.346 1.54954 0.287554 0
M  V30 4350 C 416.256 1.8991 1.37736 0
M  V30 4351 C 417.272 0.794701 1.54792 0
M  V30 4352 O 418.448 1.09243 1.69198 0
M  V30 4353 C 415.513 2.15108 2.71899 0
M  V30 4354 C 414.574 3.38752 2.63715 0
M  V30 4355 C 413.807 3.62739 3.91479 0
M  V30 4356 O 414.03 2.89492 4.91478 0
M  V30 4357 O 412.964 4.56267 3.92561 0
M  V30 4358 H 416.79 2.82652 1.11092 0
M  V30 4359 H 414.375 1.41315 0.484807 0
M  V30 4360 H 416.257 2.32806 3.51254 0
M  V30 4361 H 414.932 1.25551 2.9836 0
M  V30 4362 H 413.839 3.26405 1.82786 0
M  V30 4363 H 415.172 4.28483 2.42205 0
M  V30 4364 N 416.824 -0.551391 1.4764 0
M  V30 4365 C 417.756 -1.67333 1.56628 0
M  V30 4366 C 418.769 -1.56398 0.452045 0
M  V30 4367 O 419.958 -1.6325 0.721926 0
M  V30 4368 C 417.058 -3.05841 1.45994 0
M  V30 4369 C 416.231 -3.42472 2.72088 0
M  V30 4370 C 415.29 -4.60168 2.55209 0
M  V30 4371 O 414.316 -4.64458 3.2904 0
M  V30 4372 N 415.518 -5.57024 1.63416 0
M  V30 4373 H 418.283 -1.60066 2.53375 0
M  V30 4374 H 415.844 -0.738169 1.44093 0
M  V30 4375 H 417.836 -3.8242 1.32428 0
M  V30 4376 H 416.406 -3.07302 0.573071 0
M  V30 4377 H 415.626 -2.55284 3.00373 0
M  V30 4378 H 416.914 -3.63723 3.55785 0
M  V30 4379 H 416.312 -5.56319 1.02594 0
M  V30 4380 H 414.869 -6.32906 1.558 0
M  V30 4381 N 418.302 -1.35869 -0.798587 0
M  V30 4382 C 419.232 -1.32118 -1.92528 0
M  V30 4383 C 420.213 -0.194209 -1.68988 0
M  V30 4384 O 421.398 -0.390426 -1.90235 0
M  V30 4385 C 418.528 -1.10047 -3.29404 0
M  V30 4386 C 417.482 -2.19471 -3.67446 0
M  V30 4387 C 416.808 -1.82555 -5.02571 0
M  V30 4388 C 418.108 -3.61495 -3.76987 0
M  V30 4389 H 419.802 -2.26394 -1.95924 0
M  V30 4390 H 417.348 -1.08981 -0.94123 0
M  V30 4391 H 419.301 -1.06061 -4.07835 0
M  V30 4392 H 418.025 -0.122195 -3.26371 0
M  V30 4393 H 416.684 -2.22568 -2.91306 0
M  V30 4394 H 416.332 -0.833249 -4.9605 0
M  V30 4395 H 416.032 -2.5581 -5.28995 0
M  V30 4396 H 417.556 -1.80108 -5.83432 0
M  V30 4397 H 418.97 -3.60676 -4.4563 0
M  V30 4398 H 417.367 -4.33577 -4.14887 0
M  V30 4399 H 418.437 -3.97065 -2.78329 0
M  V30 4400 N 419.78 1.02168 -1.19998 0
M  V30 4401 C 420.743 2.08765 -0.94604 0
M  V30 4402 C 421.743 1.60618 0.0763846 0
M  V30 4403 O 422.933 1.73472 -0.159135 0
M  V30 4404 C 420.065 3.38262 -0.423255 0
M  V30 4405 H 421.258 2.32726 -1.89153 0
M  V30 4406 H 418.811 1.1889 -1.01464 0
M  V30 4407 H 419.546 3.19974 0.527938 0
M  V30 4408 H 419.331 3.74532 -1.16053 0
M  V30 4409 H 420.821 4.16759 -0.264911 0
M  V30 4410 N 421.258 1.00505 1.21394 0
M  V30 4411 C 422.674 0.717873 1.42544 0
M  V30 4412 C 422.874 -0.706936 1.88692 0
M  V30 4413 O 421.93 -1.47627 2.04847 0
M  V30 4414 C 423.243 1.73377 2.45684 0
M  V30 4415 C 424.791 1.75059 2.59467 0
M  V30 4416 C 425.266 2.75545 3.6584 0
M  V30 4417 N 426.757 2.74213 3.73311 0
M  V30 4418 C 427.492 3.48626 4.55245 0
M  V30 4419 N 426.988 4.32678 5.41075 0
M  V30 4420 N 428.781 3.37276 4.49668 0
M  V30 4421 H 420.932 1.92506 0.897503 0
M  V30 4422 H 423.195 0.830919 0.456375 0
M  V30 4423 H 422.901 2.75395 2.18748 0
M  V30 4424 H 422.775 1.53647 3.44489 0
M  V30 4425 H 425.162 0.737337 2.8574 0
M  V30 4426 H 425.243 1.98861 1.60897 0
M  V30 4427 H 424.887 3.77028 3.40313 0
M  V30 4428 H 424.817 2.49009 4.64007 0
M  V30 4429 H 427.308 2.13234 3.11993 0
M  V30 4430 H 427.621 4.86253 6.00648 0
M  V30 4431 H 425.966 4.3676 5.40616 0
M  V30 4432 H 429.157 2.71043 3.81646 0
M  V30 4433 H 429.33 3.95524 5.13288 0
M  V30 4434 N 422.737 -1.36956 0.779787 0
M  V30 4435 C 423.7 -2.2851 0.177662 0
M  V30 4436 C 424.7 -1.48393 -0.619377 0
M  V30 4437 O 425.89 -1.68505 -0.441785 0
M  V30 4438 C 423.022 -3.32428 -0.755279 0
M  V30 4439 H 424.215 -2.83269 0.984823 0
M  V30 4440 H 421.768 -1.46358 0.548544 0
M  V30 4441 H 422.503 -2.82808 -1.58714 0
M  V30 4442 H 422.288 -3.91659 -0.185817 0
M  V30 4443 H 423.778 -4.00824 -1.17174 0
M  V30 4444 N 424.215 -0.530993 -1.48385 0
M  V30 4445 C 425.463 0.00273189 -2.021 0
M  V30 4446 C 425.784 1.34672 -1.41027 0
M  V30 4447 O 425.054 1.8724 -0.576012 0
M  V30 4448 H 423.634 0.00399774 -0.746989 0
M  V30 4449 H 426.296 -0.695054 -1.82085 0
M  V30 4450 H 425.392 0.11031 -3.11905 0
M  V30 4451 N 425.693 1.55336 -0.266172 0
M  V30 4452 C 426.94 1.99397 0.353158 0
M  V30 4453 C 427.268 1.15451 1.56529 0
M  V30 4454 O 426.523 0.209974 1.9457 0
M  V30 4455 C 426.822 3.48606 0.787957 0
M  V30 4456 C 426.488 4.49773 -0.318541 0
M  V30 4457 C 425.15 4.77158 -0.62239 0
M  V30 4458 C 427.502 5.10212 -1.06459 0
M  V30 4459 C 424.83 5.62251 -1.67602 0
M  V30 4460 C 427.182 5.96449 -2.10788 0
M  V30 4461 C 425.846 6.22158 -2.41817 0
M  V30 4462 H 425.116 0.729644 0.12923 0
M  V30 4463 H 427.763 1.87732 -0.37802 0
M  V30 4464 H 426.068 3.57701 1.59866 0
M  V30 4465 H 427.765 3.80098 1.27775 0
M  V30 4466 H 424.355 4.2854 -0.0715925 0
M  V30 4467 H 428.539 4.89086 -0.843098 0
M  V30 4468 H 423.795 5.80419 -1.92155 0
M  V30 4469 H 427.969 6.42317 -2.69076 0
M  V30 4470 H 425.596 6.87888 -3.23596 0
M  V30 4471 N 427.171 -0.0066808 1.57599 0
M  V30 4472 C 428.401 -0.703066 1.94269 0
M  V30 4473 C 428.809 -1.68206 0.866222 0
M  V30 4474 O 428.152 -1.82966 -0.164087 0
M  V30 4475 C 428.214 -1.49616 3.26887 0
M  V30 4476 C 427.878 -0.679494 4.5192 0
M  V30 4477 C 428.875 0.0299508 5.19891 0
M  V30 4478 C 426.56 -0.627433 4.98366 0
M  V30 4479 C 428.554 0.780514 6.32603 0
M  V30 4480 C 426.241 0.126861 6.10968 0
M  V30 4481 C 427.239 0.829574 6.77943 0
M  V30 4482 O 426.927 1.57157 7.88389 0
M  V30 4483 H 426.659 -0.201217 0.645359 0
M  V30 4484 H 429.213 0.0385326 2.05364 0
M  V30 4485 H 427.443 -2.28209 3.12182 0
M  V30 4486 H 429.132 -2.07726 3.48719 0
M  V30 4487 H 429.898 -0.00115963 4.85 0
M  V30 4488 H 425.777 -1.16392 4.46065 0
M  V30 4489 H 429.321 1.32954 6.84813 0
M  V30 4490 H 425.218 0.159815 6.45302 0
M  V30 4491 H 425.986 1.48758 8.04868 0
M  V30 4492 N 428.649 -1.55105 -0.279332 0
M  V30 4493 C 429.612 -1.86783 -1.32834 0
M  V30 4494 C 430.612 -0.74199 -1.42657 0
M  V30 4495 O 431.802 -1.0102 -1.41918 0
M  V30 4496 C 428.934 -2.06746 -2.71052 0
M  V30 4497 H 430.127 -2.8055 -1.05979 0
M  V30 4498 H 427.68 -1.47499 -0.517087 0
M  V30 4499 H 428.415 -1.15339 -3.03097 0
M  V30 4500 H 428.2 -2.88711 -2.65309 0
M  V30 4501 H 429.69 -2.32549 -3.46858 0
M  V30 4502 N 430.127 0.543554 -1.4793 0
M  V30 4503 C 431.057 1.65888 -1.64327 0
M  V30 4504 C 432.038 1.62818 -0.492383 0
M  V30 4505 O 433.223 1.80226 -0.723338 0
M  V30 4506 C 430.353 3.04506 -1.67013 0
M  V30 4507 C 429.307 3.2243 -2.81466 0
M  V30 4508 C 428.633 4.61972 -2.69233 0
M  V30 4509 C 429.933 3.06496 -4.22915 0
M  V30 4510 H 431.627 1.52421 -2.57698 0
M  V30 4511 H 429.173 0.731849 -1.24016 0
M  V30 4512 H 431.126 3.82391 -1.77074 0
M  V30 4513 H 429.85 3.18964 -0.70212 0
M  V30 4514 H 428.509 2.46957 -2.70938 0
M  V30 4515 H 428.157 4.73247 -1.7043 0
M  V30 4516 H 427.857 4.74911 -3.46025 0
M  V30 4517 H 429.381 5.41974 -2.81242 0
M  V30 4518 H 430.795 3.74186 -4.34348 0
M  V30 4519 H 429.192 3.30938 -5.006 0
M  V30 4520 H 430.262 2.03077 -4.40327 0
M  V30 4521 N 431.605 1.3629 0.791371 0
M  V30 4522 C 432.853 1.30154 1.5461 0
M  V30 4523 C 433.174 -0.119409 1.94634 0
M  V30 4524 O 432.444 -1.05924 1.64794 0
M  V30 4525 H 431.024 0.478784 0.573389 0
M  V30 4526 H 433.686 1.70565 0.94306 0
M  V30 4527 H 432.782 1.92762 2.45457 0
M  V30 4528 N 433.083 -1.0153 1.20538 0
M  V30 4529 C 433.993 -2.13557 0.971113 0
M  V30 4530 C 435.009 -1.73845 -0.0734366 0
M  V30 4531 O 436.185 -2.01075 0.114299 0
M  V30 4532 C 433.25 -3.42661 0.527639 0
M  V30 4533 C 432.311 -3.96608 1.64319 0
M  V30 4534 C 431.544 -5.1955 1.22078 0
M  V30 4535 O 431.767 -5.70329 0.0900198 0
M  V30 4536 O 430.701 -5.66681 2.02871 0
M  V30 4537 H 434.527 -2.3619 1.90913 0
M  V30 4538 H 432.112 -1.11946 0.989362 0
M  V30 4539 H 433.994 -4.20404 0.289621 0
M  V30 4540 H 432.669 -3.21441 -0.381779 0
M  V30 4541 H 431.576 -3.20139 1.93551 0
M  V30 4542 H 432.909 -4.22219 2.52966 0
M  V30 4543 N 434.561 -1.01147 -1.20859 0
M  V30 4544 C 435.809 -0.696486 -1.89719 0
M  V30 4545 C 436.13 0.775788 -1.78904 0
M  V30 4546 O 435.4 1.55759 -1.18811 0
M  V30 4547 H 433.98 -0.254628 -0.702263 0
M  V30 4548 H 436.642 -1.28197 -1.46804 0
M  V30 4549 H 435.738 -0.975357 -2.96468 0
M  V30 4550 N 436.039 1.36541 -0.78704 0
M  V30 4551 C 437.316 1.9355 -0.282424 0
M  V30 4552 C 437.696 1.71919 1.22503 0
M  V30 4553 O 437.044 1.07677 2.01539 0
M  V30 4554 C 437.254 3.4246 -0.672462 0
M  V30 4555 C 438.602 4.19582 -0.650863 0
M  V30 4556 O 439.626 3.50889 -0.612789 0
M  V30 4557 O 438.485 5.42106 -0.691623 0
M  V30 4558 H 435.579 0.824091 -0.0693 0
M  V30 4559 H 438.125 1.45736 -0.869423 0
M  V30 4560 H 436.897 3.51851 -1.71221 0
M  V30 4561 H 436.52 3.97556 -0.0592211 0
M  V30 4562 N 437.518 0.538854 1.48102 0
M  V30 4563 C 438.465 -0.219042 2.29758 0
M  V30 4564 C 439.435 -0.925562 1.37922 0
M  V30 4565 O 440.62 -0.924855 1.66886 0
M  V30 4566 C 437.76 -1.25452 3.2149 0
M  V30 4567 C 436.873 -0.555943 4.28408 0
M  V30 4568 C 436.008 -1.57512 5.0731 0
M  V30 4569 C 435.047 -0.860498 6.06021 0
M  V30 4570 N 434.184 -1.82564 6.77949 0
M  V30 4571 H 439.024 0.483449 2.94052 0
M  V30 4572 H 436.561 0.250247 1.44956 0
M  V30 4573 H 438.519 -1.86727 3.7308 0
M  V30 4574 H 437.149 -1.92528 2.591 0
M  V30 4575 H 436.201 0.170938 3.80016 0
M  V30 4576 H 437.513 0.00474616 4.988 0
M  V30 4577 H 436.667 -2.26191 5.62959 0
M  V30 4578 H 435.406 -2.16972 4.36778 0
M  V30 4579 H 434.411 -0.159686 5.49568 0
M  V30 4580 H 435.636 -0.271897 6.78555 0
M  V30 4581 H 433.582 -2.40915 6.10161 0
M  V30 4582 H 433.499 -1.31662 7.44447 0
M  V30 4583 H 434.767 -2.50414 7.38182 0
M  V30 4584 N 438.996 -1.55193 0.274407 0
M  V30 4585 C 440.242 -1.99877 -0.343086 0
M  V30 4586 C 440.575 -1.16256 -1.55558 0
M  V30 4587 O 439.85 -0.232462 -1.93106 0
M  V30 4588 C 440.133 -3.52706 -0.725965 0
M  V30 4589 C 439.986 -4.47081 0.493818 0
M  V30 4590 C 441.305 -4.11422 -1.56268 0
M  V30 4591 H 438.424 -0.726625 -0.123229 0
M  V30 4592 H 441.066 -1.86136 0.38121 0
M  V30 4593 H 439.216 -3.64546 -1.34307 0
M  V30 4594 H 440.888 -4.47186 1.13237 0
M  V30 4595 H 439.131 -4.1877 1.13201 0
M  V30 4596 H 439.802 -5.51699 0.18217 0
M  V30 4597 H 442.278 -4.02855 -1.04151 0
M  V30 4598 H 441.154 -5.18568 -1.79939 0
M  V30 4599 H 441.415 -3.61607 -2.54348 0
M  V30 4600 N 440.474 -0.00167713 -1.576 0
M  V30 4601 C 441.421 0.989195 -2.08527 0
M  V30 4602 C 442.391 1.34031 -0.981065 0
M  V30 4603 O 443.576 1.43839 -1.2536 0
M  V30 4604 C 440.716 2.27537 -2.59463 0
M  V30 4605 C 439.829 1.98314 -3.83791 0
M  V30 4606 C 438.964 3.21025 -4.23222 0
M  V30 4607 C 438.003 2.87495 -5.40382 0
M  V30 4608 N 437.14 4.02749 -5.75098 0
M  V30 4609 H 441.98 0.547973 -2.92919 0
M  V30 4610 H 439.517 0.258917 -1.44803 0
M  V30 4611 H 441.475 3.02729 -2.87073 0
M  V30 4612 H 440.105 2.69325 -1.77943 0
M  V30 4613 H 439.157 1.13482 -3.63078 0
M  V30 4614 H 440.469 1.69601 -4.69081 0
M  V30 4615 H 439.623 4.04561 -4.52123 0
M  V30 4616 H 438.362 3.52877 -3.36644 0
M  V30 4617 H 437.367 2.02367 -5.11202 0
M  V30 4618 H 438.592 2.56889 -6.28637 0
M  V30 4619 H 436.538 4.34494 -4.91478 0
M  V30 4620 H 436.455 3.77566 -6.54966 0
M  V30 4621 H 437.723 4.87068 -6.08592 0
M  V30 4622 N 441.952 1.55251 0.271103 0
M  V30 4623 C 443.192 1.77698 1.01008 0
M  V30 4624 C 443.556 0.567246 1.83429 0
M  V30 4625 O 444.757 0.670013 2.60316 0
M  V30 4626 C 443.028 3.04715 1.86772 0
M  V30 4627 S 444.587 3.48289 2.66909 0
M  V30 4628 H 441.405 0.624343 0.340172 0
M  V30 4629 H 444.007 1.9348 0.280315 0
M  V30 4630 H 442.711 3.90853 1.25149 0
M  V30 4631 H 442.242 2.91604 2.64066 0
M  V30 4632 H 444.257 3.07712 3.89266 0
M  V30 4633 N 443.43 -0.535701 1.48216 0
M  V30 4634 C 444.677 -1.29183 1.55942 0
M  V30 4635 C 445.005 -1.93125 0.230857 0
M  V30 4636 O 444.26 -1.79556 -0.778331 0
M  V30 4637 C 444.559 -2.4068 2.64212 0
M  V30 4638 C 444.225 -1.94428 4.06827 0
M  V30 4639 C 442.887 -1.81532 4.45645 0
M  V30 4640 C 445.239 -1.59405 4.96225 0
M  V30 4641 C 442.567 -1.31939 5.71672 0
M  V30 4642 C 444.919 -1.11276 6.22736 0
M  V30 4643 C 443.583 -0.969924 6.60416 0
M  V30 4644 H 442.853 -0.472715 0.570632 0
M  V30 4645 H 445.5 -0.598437 1.81909 0
M  V30 4646 H 443.805 -3.15666 2.32083 0
M  V30 4647 H 445.502 -2.98822 2.67407 0
M  V30 4648 H 442.092 -2.05415 3.76168 0
M  V30 4649 H 446.276 -1.68231 4.66917 0
M  V30 4650 H 441.532 -1.19562 5.99596 0
M  V30 4651 H 445.706 -0.832453 6.91407 0
M  V30 4652 H 443.333 -0.583436 7.57958 0
M  V30 4653 N 444.908 -1.36708 -0.784132 0
M  V30 4654 C 445.858 -1.2799 -1.88686 0
M  V30 4655 C 446.842 -0.170282 -1.59996 0
M  V30 4656 O 448.034 -0.403571 -1.72338 0
M  V30 4657 C 445.163 -1.07674 -3.25977 0
M  V30 4658 C 444.249 -2.23127 -3.60659 0
M  V30 4659 N 444.64 -3.48467 -3.66612 0
M  V30 4660 C 442.938 -2.15009 -3.90752 0
M  V30 4661 C 443.639 -4.24525 -3.97685 0
M  V30 4662 N 442.615 -3.53524 -4.12943 0
M  V30 4663 H 446.417 -2.22927 -1.91522 0
M  V30 4664 H 443.931 -1.29503 -0.979933 0
M  V30 4665 H 445.928 -0.995151 -4.04849 0
M  V30 4666 H 444.588 -0.13643 -3.24413 0
M  V30 4667 H 445.599 -3.82534 -3.49125 0
M  V30 4668 H 442.276 -1.28963 -3.97083 0
M  V30 4669 H 443.666 -5.32944 -4.0917 0
M  V30 4670 N 446.386 1.0089 -1.21074 0
M  V30 4671 C 447.626 1.76142 -1.03699 0
M  V30 4672 C 447.99 1.87292 0.422587 0
M  V30 4673 O 449.191 2.59068 0.716752 0
M  V30 4674 C 447.462 3.13805 -1.7106 0
M  V30 4675 S 449.021 4.04996 -1.68889 0
M  V30 4676 H 445.839 0.606113 -0.371683 0
M  V30 4677 H 448.441 1.20744 -1.53756 0
M  V30 4678 H 447.145 3.0332 -2.76451 0
M  V30 4679 H 446.676 3.74276 -1.21166 0
M  V30 4680 H 448.691 4.90842 -0.727211 0
M  V30 4681 N 447.864 1.01787 1.20321 0
M  V30 4682 C 449.112 0.706538 1.89347 0
M  V30 4683 C 449.433 -0.766289 1.79313 0
M  V30 4684 O 448.703 -1.55126 1.19635 0
M  V30 4685 H 447.283 0.258348 0.700903 0
M  V30 4686 H 449.945 1.28974 1.46122 0
M  V30 4687 H 449.041 0.991066 2.95946 0
M  V30 4688 N 449.342 -1.36122 0.79427 0
M  V30 4689 C 450.59 -1.98718 0.368177 0
M  V30 4690 C 450.911 -1.63345 -1.06506 0
M  V30 4691 O 450.181 -0.909825 -1.73491 0
M  V30 4692 H 448.761 -0.735038 0.133146 0
M  V30 4693 H 451.423 -1.66239 1.01739 0
M  V30 4694 H 450.519 -3.08633 0.463923 0
M  V30 4695 N 450.82 -0.546701 -1.47814 0
M  V30 4696 C 452.068 -0.0187037 -2.02091 0
M  V30 4697 C 452.389 1.33168 -1.42447 0
M  V30 4698 O 451.659 1.86619 -0.595839 0
M  V30 4699 H 450.239 -0.00392531 -0.74699 0
M  V30 4700 H 452.901 -0.714327 -1.81338 0
M  V30 4701 H 451.997 0.0772219 -3.12004 0
M  V30 4702 N 452.299 1.55045 -0.282633 0
M  V30 4703 C 453.229 2.2579 0.595066 0
M  V30 4704 C 454.21 1.25074 1.15284 0
M  V30 4705 O 455.395 1.5381 1.18559 0
M  V30 4706 C 452.525 2.98472 1.77572 0
M  V30 4707 C 451.479 4.0618 1.34914 0
M  V30 4708 C 450.805 4.66477 2.6135 0
M  V30 4709 C 452.105 5.1996 0.493821 0
M  V30 4710 H 453.799 2.994 0.00505653 0
M  V30 4711 H 451.345 1.44 0.000992001 0
M  V30 4712 H 453.298 3.46677 2.39568 0
M  V30 4713 H 452.022 2.2241 2.39168 0
M  V30 4714 H 450.681 3.58797 0.752338 0
M  V30 4715 H 450.329 3.87074 3.2122 0
M  V30 4716 H 450.029 5.39207 2.33516 0
M  V30 4717 H 451.553 5.17435 3.24181 0
M  V30 4718 H 452.967 5.64172 1.01898 0
M  V30 4719 H 451.364 5.99299 0.310047 0
M  V30 4720 H 452.434 4.82462 -0.485593 0
M  V30 4721 N 453.777 0.010035 1.57597 0
M  V30 4722 C 455.005 -0.683413 1.95287 0
M  V30 4723 C 455.42 -1.66747 0.885481 0
M  V30 4724 O 454.777 -1.82003 -0.134629 0
M  V30 4725 C 454.828 -1.40652 3.33015 0
M  V30 4726 O 454.549 -0.461916 4.35658 0
M  V30 4727 C 456.05 -2.19356 3.85225 0
M  V30 4728 H 453.27 -0.189708 0.643624 0
M  V30 4729 H 455.814 0.0641359 2.04399 0
M  V30 4730 H 453.969 -2.10562 3.2518 0
M  V30 4731 H 454.383 -0.973215 5.15392 0
M  V30 4732 H 455.857 -2.65433 4.83993 0
M  V30 4733 H 456.334 -3.02457 3.18459 0
M  V30 4734 H 456.94 -1.54442 3.96267 0
M  V30 4735 N 455.255 -1.55392 -0.262866 0
M  V30 4736 C 456.532 -1.67204 -1.01499 0
M  V30 4737 C 456.912 -0.545186 -2.03939 0
M  V30 4738 O 456.26 0.453467 -2.23955 0
M  V30 4739 C 456.47 -3.06847 -1.6627 0
M  V30 4740 C 457.818 -3.64928 -2.17054 0
M  V30 4741 O 458.842 -3.09545 -1.76239 0
M  V30 4742 O 457.701 -4.61984 -2.91947 0
M  V30 4743 H 454.795 -0.679467 -0.471438 0
M  V30 4744 H 457.341 -1.67729 -0.257918 0
M  V30 4745 H 456.113 -3.80309 -0.920915 0
M  V30 4746 H 455.736 -3.10266 -2.48638 0
M  V30 4747 N 456.733 0.527833 -1.48498 0
M  V30 4748 C 457.979 1.28295 -1.57836 0
M  V30 4749 C 458.334 1.9077 -0.249943 0
M  V30 4750 O 457.627 1.76421 0.747402 0
M  V30 4751 C 457.821 2.39275 -2.65485 0
M  V30 4752 C 457.65 1.87679 -4.08664 0
M  V30 4753 C 456.42 1.70187 -4.75778 0
M  V30 4754 C 458.618 1.40409 -4.94762 0
M  V30 4755 N 456.6 1.13238 -6.03366 0
M  V30 4756 C 457.971 0.954216 -6.12613 0
M  V30 4757 C 460.026 1.28732 -4.8097 0
M  V30 4758 C 458.729 0.39915 -7.18192 0
M  V30 4759 C 460.755 0.746244 -5.86673 0
M  V30 4760 C 460.117 0.306457 -7.03733 0
M  V30 4761 H 456.216 0.460408 -0.632099 0
M  V30 4762 H 458.8 0.594913 -1.85388 0
M  V30 4763 H 456.971 3.05572 -2.3975 0
M  V30 4764 H 458.703 3.06308 -2.64495 0
M  V30 4765 H 455.458 1.93772 -4.32145 0
M  V30 4766 H 455.882 0.867687 -6.71417 0
M  V30 4767 H 460.524 1.61338 -3.90807 0
M  V30 4768 H 458.242 0.0607678 -8.08077 0
M  V30 4769 H 461.828 0.659041 -5.78055 0
M  V30 4770 H 460.708 -0.105708 -7.84129 0
M  V30 4771 N 458.211 1.37122 0.776871 0
M  V30 4772 C 459.158 1.3247 1.88998 0
M  V30 4773 C 460.128 0.191143 1.64997 0
M  V30 4774 O 461.313 0.379683 1.86984 0
M  V30 4775 C 458.453 1.13241 3.25992 0
M  V30 4776 C 457.566 2.35782 3.61982 0
M  V30 4777 C 456.701 2.09465 4.88158 0
M  V30 4778 C 455.74 3.279 5.16864 0
M  V30 4779 N 454.877 3.01167 6.34226 0
M  V30 4780 H 459.717 2.27642 1.9231 0
M  V30 4781 H 457.254 1.13125 0.94027 0
M  V30 4782 H 459.212 1.00115 4.0501 0
M  V30 4783 H 457.842 0.217186 3.22069 0
M  V30 4784 H 456.894 2.59666 2.77989 0
M  V30 4785 H 458.206 3.24125 3.79137 0
M  V30 4786 H 457.36 1.93341 5.75069 0
M  V30 4787 H 456.099 1.18452 4.73097 0
M  V30 4788 H 455.104 3.44569 4.2843 0
M  V30 4789 H 456.329 4.19757 5.33836 0
M  V30 4790 H 454.275 2.12779 6.20533 0
M  V30 4791 H 454.192 3.83052 6.51772 0
M  V30 4792 H 455.46 2.88649 7.24087 0
M  V30 4793 N 459.689 -1.00246 1.21608 0
M  V30 4794 C 461.1 -1.55511 1.03312 0
M  V30 4795 C 461.451 -1.91946 -0.406332 0
M  V30 4796 O 460.576 -1.73753 -1.28992 0
M  V30 4797 C 461.171 -2.82576 1.86913 0
M  V30 4798 C 459.73 -3.34318 1.72941 0
M  V30 4799 C 458.877 -2.07487 1.83968 0
M  V30 4800 H 461.828 -0.824638 1.35593 0
M  V30 4801 H 461.849 -3.54559 1.38087 0
M  V30 4802 H 461.361 -2.56026 2.91672 0
M  V30 4803 H 459.462 -3.65797 0.70877 0
M  V30 4804 H 459.575 -4.05566 2.55055 0
M  V30 4805 H 457.939 -2.20603 1.27304 0
M  V30 4806 H 458.722 -1.83346 2.9024 0
M  V30 4807 N 461.167 -1.02423 -1.1978 0
M  V30 4808 C 462.392 -0.7373 -1.93852 0
M  V30 4809 C 462.817 0.696923 -1.74713 0
M  V30 4810 O 462.175 1.48056 -1.04638 0
M  V30 4811 C 462.223 -1.08783 -3.438 0
M  V30 4812 O 461.327 -0.20383 -4.11896 0
M  V30 4813 H 460.668 -0.27284 -0.605355 0
M  V30 4814 H 463.198 -1.36966 -1.51992 0
M  V30 4815 H 463.208 -1.04276 -3.9445 0
M  V30 4816 H 461.883 -2.13274 -3.57053 0
M  V30 4817 H 460.46 -0.307091 -3.71633 0
M  V30 4818 N 462.645 1.35699 -0.801477 0
M  V30 4819 C 463.555 2.33661 -0.209691 0
M  V30 4820 C 464.571 1.6162 0.644591 0
M  V30 4821 O 465.747 1.93529 0.557545 0
M  V30 4822 C 462.812 3.40816 0.636033 0
M  V30 4823 C 461.873 4.28639 -0.238147 0
M  V30 4824 C 461.106 5.30676 0.567307 0
M  V30 4825 O 461.329 5.41174 1.8024 0
M  V30 4826 O 460.263 6.01887 -0.0391336 0
M  V30 4827 H 464.089 2.8606 -1.01996 0
M  V30 4828 H 461.674 1.38379 -0.563164 0
M  V30 4829 H 463.556 4.06301 1.11791 0
M  V30 4830 H 462.231 2.90696 1.42399 0
M  V30 4831 H 461.138 3.66152 -0.767044 0
M  V30 4832 H 462.471 4.82143 -0.989915 0
M  V30 4833 N 464.123 0.554532 1.47522 0
M  V30 4834 C 465.4 -0.0360704 1.95567 0
M  V30 4835 C 465.78 -1.48828 1.49711 0
M  V30 4836 O 465.128 -2.16366 0.734717 0
M  V30 4837 C 465.338 0.106631 3.48837 0
M  V30 4838 C 466.686 -0.0400899 4.24581 0
M  V30 4839 O 467.71 0.0340453 3.56184 0
M  V30 4840 O 466.569 -0.199111 5.46137 0
M  V30 4841 H 463.663 -0.0656294 0.824392 0
M  V30 4842 H 466.209 0.620867 1.57935 0
M  V30 4843 H 464.981 1.11727 3.7501 0
M  V30 4844 H 464.604 -0.58804 3.93227 0
M  V30 4845 N 465.601 -1.54893 0.290851 0
M  V30 4846 C 467.012 -1.85584 -0.203816 0
M  V30 4847 C 467.363 -1.21285 -1.54222 0
M  V30 4848 O 466.488 -0.506841 -2.10381 0
M  V30 4849 C 467.083 -3.367 -0.376595 0
M  V30 4850 C 465.642 -3.6746 -0.815485 0
M  V30 4851 C 464.789 -2.77178 0.0821087 0
M  V30 4852 H 467.74 -1.50208 0.512175 0
M  V30 4853 H 467.761 -3.60656 -1.21275 0
M  V30 4854 H 467.273 -3.8347 0.59767 0
M  V30 4855 H 465.374 -3.26201 -1.80066 0
M  V30 4856 H 465.487 -4.7478 -0.641905 0
M  V30 4857 H 463.851 -2.50925 -0.436895 0
M  V30 4858 H 464.634 -3.26767 1.05254 0
M  V30 4859 N 467.08 -0.0183926 -1.57589 0
M  V30 4860 C 468.326 0.657813 -1.92469 0
M  V30 4861 C 468.681 1.70349 -0.894375 0
M  V30 4862 O 467.974 1.91384 0.0910389 0
M  V30 4863 C 468.168 1.32676 -3.31861 0
M  V30 4864 C 467.997 0.347403 -4.48356 0
M  V30 4865 C 466.767 -0.0488653 -5.05276 0
M  V30 4866 C 468.965 -0.393931 -5.12789 0
M  V30 4867 N 466.947 -1.02451 -6.05291 0
M  V30 4868 C 468.318 -1.22367 -6.07804 0
M  V30 4869 C 470.373 -0.455789 -4.95809 0
M  V30 4870 C 469.076 -2.10966 -6.87667 0
M  V30 4871 C 471.102 -1.32908 -5.76272 0
M  V30 4872 C 470.464 -2.14662 -6.70894 0
M  V30 4873 H 466.563 0.21335 -0.752334 0
M  V30 4874 H 469.147 -0.0830547 -1.94523 0
M  V30 4875 H 467.318 2.03782 -3.30647 0
M  V30 4876 H 469.05 1.95913 -3.54119 0
M  V30 4877 H 465.805 0.323356 -4.72495 0
M  V30 4878 H 466.229 -1.50826 -6.59985 0
M  V30 4879 H 470.871 0.162017 -4.22489 0
M  V30 4880 H 468.589 -2.73807 -7.603 0
M  V30 4881 H 472.175 -1.38109 -5.6517 0
M  V30 4882 H 471.055 -2.81143 -7.32071 0
M  V30 4883 N 468.558 1.5553 0.254621 0
M  V30 4884 C 469.468 1.92789 1.33677 0
M  V30 4885 C 470.484 0.827356 1.53071 0
M  V30 4886 O 471.66 1.12807 1.66843 0
M  V30 4887 C 468.725 2.20827 2.67275 0
M  V30 4888 C 467.786 3.4427 2.5647 0
M  V30 4889 C 467.019 3.70961 3.83697 0
M  V30 4890 O 467.242 2.99852 4.85227 0
M  V30 4891 O 466.176 4.64491 3.82794 0
M  V30 4892 H 470.002 2.84945 1.05071 0
M  V30 4893 H 467.587 1.42312 0.454723 0
M  V30 4894 H 469.469 2.40204 3.46237 0
M  V30 4895 H 468.144 1.31851 2.9563 0
M  V30 4896 H 467.051 3.30209 1.75821 0
M  V30 4897 H 468.384 4.33524 2.33062 0
M  V30 4898 N 470.036 -0.519951 1.48776 0
M  V30 4899 C 470.968 -1.63973 1.60142 0
M  V30 4900 C 471.981 -1.55404 0.485117 0
M  V30 4901 O 473.17 -1.61682 0.756391 0
M  V30 4902 C 470.27 -3.02676 1.52449 0
M  V30 4903 C 469.443 -3.36624 2.79291 0
M  V30 4904 C 468.502 -4.54652 2.64912 0
M  V30 4905 O 467.528 -4.57374 3.38818 0
M  V30 4906 N 468.73 -5.53432 1.75195 0
M  V30 4907 H 471.495 -1.54656 2.56713 0
M  V30 4908 H 469.056 -0.707439 1.45626 0
M  V30 4909 H 471.048 -3.79525 1.4051 0
M  V30 4910 H 469.618 -3.06018 0.638125 0
M  V30 4911 H 468.838 -2.48855 3.0572 0
M  V30 4912 H 470.126 -3.56094 3.6342 0
M  V30 4913 H 469.524 -5.54018 1.14371 0
M  V30 4914 H 468.081 -6.29459 1.69189 0
M  V30 4915 N 471.514 -1.37532 -0.769588 0
M  V30 4916 C 472.464 -1.29984 -1.87318 0
M  V30 4917 C 473.448 -0.187242 -1.59807 0
M  V30 4918 O 474.64 -0.421827 -1.719 0
M  V30 4919 C 471.769 -1.11126 -3.24817 0
M  V30 4920 C 470.855 -2.26939 -3.58273 0
M  V30 4921 N 471.246 -3.52336 -3.62895 0
M  V30 4922 C 469.544 -2.19141 -3.8845 0
M  V30 4923 C 470.245 -4.28719 -3.9316 0
M  V30 4924 N 469.221 -3.57884 -4.0917 0
M  V30 4925 H 473.023 -2.24946 -1.89147 0
M  V30 4926 H 470.537 -1.30535 -0.966143 0
M  V30 4927 H 472.534 -1.03803 -4.0377 0
M  V30 4928 H 471.194 -0.17083 -3.2425 0
M  V30 4929 H 472.205 -3.86216 -3.45048 0
M  V30 4930 H 468.882 -1.33167 -3.95693 0
M  V30 4931 H 470.272 -5.37254 -4.03494 0
M  V30 4932 N 472.992 0.995999 -1.22138 0
M  V30 4933 C 473.955 2.06711 -0.990109 0
M  V30 4934 C 474.955 1.60744 0.0422978 0
M  V30 4935 O 476.145 1.73095 -0.195895 0
M  V30 4936 C 473.277 3.37288 -0.49491 0
M  V30 4937 H 474.47 2.28661 -1.94047 0
M  V30 4938 H 472.023 1.16711 -1.03963 0
M  V30 4939 H 472.758 3.21022 0.459948 0
M  V30 4940 H 472.543 3.71986 -1.23971 0
M  V30 4941 H 474.033 4.16103 -0.353253 0
M  V30 4942 N 474.47 1.03057 1.19235 0
M  V30 4943 C 475.417 0.612832 2.22515 0
M  V30 4944 C 476.387 -0.374224 1.61829 0
M  V30 4945 O 477.572 -0.270501 1.88873 0
M  V30 4946 C 474.712 -0.028475 3.45088 0
M  V30 4947 C 473.825 1.00483 4.20151 0
M  V30 4948 C 472.96 0.333102 5.30155 0
M  V30 4949 C 471.999 1.3522 5.96977 0
M  V30 4950 N 471.136 0.70616 6.9854 0
M  V30 4951 H 475.976 1.49812 2.57605 0
M  V30 4952 H 473.513 0.749658 1.26564 0
M  V30 4953 H 475.471 -0.417548 4.15105 0
M  V30 4954 H 474.101 -0.877334 3.10649 0
M  V30 4955 H 473.153 1.51194 3.49062 0
M  V30 4956 H 474.465 1.77929 4.65986 0
M  V30 4957 H 473.619 -0.110725 6.06599 0
M  V30 4958 H 472.358 -0.473547 4.85396 0
M  V30 4959 H 471.363 1.80627 5.19282 0
M  V30 4960 H 472.588 2.16037 6.4382 0
M  V30 4961 H 470.534 -0.0803667 6.55951 0
M  V30 4962 H 470.451 1.41848 7.42573 0
M  V30 4963 H 471.719 0.286391 7.78974 0
M  V30 4964 N 475.948 -1.35272 0.808662 0
M  V30 4965 C 477.194 -1.99434 0.399717 0
M  V30 4966 C 477.549 -1.62992 -1.02232 0
M  V30 4967 O 476.842 -0.884091 -1.69983 0
M  V30 4968 C 477.036 -3.53556 0.522798 0
M  V30 4969 C 476.865 -4.04969 1.95525 0
M  V30 4970 C 475.635 -4.34228 2.58407 0
M  V30 4971 C 477.833 -4.23362 2.92009 0
M  V30 4972 N 475.815 -4.71585 3.93041 0
M  V30 4973 C 477.186 -4.63739 4.11517 0
M  V30 4974 C 479.241 -4.05576 2.88813 0
M  V30 4975 C 477.944 -4.88189 5.28265 0
M  V30 4976 C 479.97 -4.31184 4.04765 0
M  V30 4977 C 479.332 -4.71834 5.23022 0
M  V30 4978 H 475.431 -0.757534 0.19408 0
M  V30 4979 H 478.015 -1.63939 1.05034 0
M  V30 4980 H 476.186 -3.88277 -0.0978471 0
M  V30 4981 H 477.918 -4.04604 0.0882378 0
M  V30 4982 H 474.673 -4.24621 2.09747 0
M  V30 4983 H 475.097 -4.9452 4.62363 0
M  V30 4984 H 479.739 -3.73288 1.98535 0
M  V30 4985 H 477.457 -5.1935 6.19113 0
M  V30 4986 H 481.043 -4.18972 4.03675 0
M  V30 4987 H 479.923 -4.91263 6.11253 0
M  V30 4988 N 477.426 -0.562348 -1.47226 0
M  V30 4989 C 478.656 -0.0451619 -2.06551 0
M  V30 4990 C 479.064 1.25626 -1.41473 0
M  V30 4991 O 478.407 1.76563 -0.507061 0
M  V30 4992 C 478.469 0.216068 -3.5885 0
M  V30 4993 C 478.133 -0.996691 -4.45999 0
M  V30 4994 C 479.13 -1.90358 -4.83797 0
M  V30 4995 C 476.815 -1.21281 -4.87438 0
M  V30 4996 C 478.809 -3.01023 -5.6184 0
M  V30 4997 C 476.496 -2.32255 -5.65244 0
M  V30 4998 C 477.494 -3.21956 -6.02356 0
M  V30 4999 O 477.182 -4.31005 -6.78594 0
M  V30 5000 H 476.914 -0.0451646 -0.67449 0
M  V30 5001 H 479.468 -0.776842 -1.90143 0
M  V30 5002 H 477.698 1.00212 -3.7349 0
M  V30 5003 H 479.387 0.679264 -4.00176 0
M  V30 5004 H 480.153 -1.74868 -4.52378 0
M  V30 5005 H 476.032 -0.523767 -4.58015 0
M  V30 5006 H 479.576 -3.71064 -5.90726 0
M  V30 5007 H 475.473 -2.47715 -5.96077 0
M  V30 5008 H 476.241 -4.29118 -6.96994 0
M  V30 5009 N 478.904 1.54736 -0.299062 0
M  V30 5010 C 480.315 1.8569 0.193971 0
M  V30 5011 C 480.666 1.22101 1.53577 0
M  V30 5012 O 479.791 0.51799 2.10109 0
M  V30 5013 C 480.386 3.36895 0.358733 0
M  V30 5014 C 478.945 3.67887 0.795986 0
M  V30 5015 C 478.092 2.77131 -0.096807 0
M  V30 5016 H 481.043 1.49934 -0.520134 0
M  V30 5017 H 481.064 3.61294 1.19361 0
M  V30 5018 H 480.576 3.83148 -0.617998 0
M  V30 5019 H 478.677 3.27151 1.78334 0
M  V30 5020 H 478.79 4.75114 0.616718 0
M  V30 5021 H 477.154 2.51153 0.423581 0
M  V30 5022 H 477.937 3.26204 -1.06986 0
M  V30 5023 N 480.382 0.0267497 1.57577 0
M  V30 5024 C 481.63 -0.651116 1.91324 0
M  V30 5025 C 481.951 -1.72804 0.90353 0
M  V30 5026 O 481.221 -1.95822 -0.0552946 0
M  V30 5027 H 479.801 -0.243491 0.706202 0
M  V30 5028 H 482.463 0.0739935 1.94759 0
M  V30 5029 H 481.559 -1.10536 2.9187 0
M  V30 5030 N 481.861 -1.55662 -0.24637 0
M  V30 5031 C 483.101 -1.79283 -0.981685 0
M  V30 5032 C 483.465 -0.596356 -1.82504 0
M  V30 5033 O 484.666 -0.711342 -2.59217 0
M  V30 5034 C 482.937 -3.07648 -1.819 0
M  V30 5035 S 484.496 -3.52491 -2.61334 0
M  V30 5036 H 481.314 -0.629676 -0.330196 0
M  V30 5037 H 483.916 -1.93901 -0.249498 0
M  V30 5038 H 482.62 -3.92794 -1.18915 0
M  V30 5039 H 482.151 -2.95768 -2.59393 0
M  V30 5040 H 484.166 -3.13866 -3.84321 0
M  V30 5041 N 483.339 0.512053 -1.4905 0
M  V30 5042 C 484.286 1.6148 -1.64902 0
M  V30 5043 C 485.256 1.58687 -0.490673 0
M  V30 5044 O 486.441 1.76842 -0.71636 0
M  V30 5045 C 483.581 2.99676 -1.71139 0
M  V30 5046 C 482.694 3.12568 -2.98203 0
M  V30 5047 C 481.829 4.4143 -2.95487 0
M  V30 5048 C 480.868 4.47916 -4.17179 0
M  V30 5049 N 480.005 5.68191 -4.12437 0
M  V30 5050 H 484.845 1.47271 -2.59066 0
M  V30 5051 H 482.382 0.716713 -1.28459 0
M  V30 5052 H 484.34 3.79761 -1.72736 0
M  V30 5053 H 482.97 3.12614 -0.804508 0
M  V30 5054 H 482.022 2.25618 -3.06269 0
M  V30 5055 H 483.334 3.1322 -3.88194 0
M  V30 5056 H 482.488 5.29825 -2.95585 0
M  V30 5057 H 481.227 4.43326 -2.03256 0
M  V30 5058 H 480.232 3.57925 -4.17337 0
M  V30 5059 H 481.457 4.47744 -5.1059 0
M  V30 5060 H 479.403 5.7095 -3.23036 0
M  V30 5061 H 479.32 5.70413 -4.96151 0
M  V30 5062 H 480.588 6.58823 -4.16621 0
M  V30 5063 N 484.817 1.37938 0.762283 0
M  V30 5064 C 486.047 1.36685 1.54922 0
M  V30 5065 C 486.455 -0.0474099 1.89141 0
M  V30 5066 O 485.798 -1.02213 1.52638 0
M  V30 5067 C 485.86 2.14963 2.88152 0
M  V30 5068 C 485.524 3.6385 2.76518 0
M  V30 5069 C 486.521 4.57531 2.46904 0
M  V30 5070 C 484.206 4.07095 2.94243 0
M  V30 5071 C 486.2 5.92436 2.35156 0
M  V30 5072 C 483.887 5.42083 2.82116 0
M  V30 5073 C 484.885 6.34567 2.52614 0
M  V30 5074 O 484.573 7.67073 2.40529 0
M  V30 5075 H 484.305 0.469586 0.486276 0
M  V30 5076 H 486.859 1.82012 0.951876 0
M  V30 5077 H 485.089 1.6434 3.50042 0
M  V30 5078 H 486.778 2.06224 3.49609 0
M  V30 5079 H 487.544 4.25428 2.32886 0
M  V30 5080 H 483.423 3.35462 3.16206 0
M  V30 5081 H 486.967 6.64591 2.12049 0
M  V30 5082 H 482.864 5.73785 2.95704 0
M  V30 5083 H 483.632 7.77499 2.55807 0
M  V30 5084 N 486.295 -0.989507 1.22664 0
M  V30 5085 C 487.225 -2.09847 1.02404 0
M  V30 5086 C 488.206 -1.70007 -0.0561303 0
M  V30 5087 O 489.391 -1.93906 0.106748 0
M  V30 5088 C 486.521 -3.41996 0.604663 0
M  V30 5089 C 485.475 -3.95699 1.63115 0
M  V30 5090 C 484.801 -5.23936 1.0675 0
M  V30 5091 C 486.101 -4.25999 3.02196 0
M  V30 5092 H 487.795 -2.27054 1.95158 0
M  V30 5093 H 485.341 -1.09111 0.939727 0
M  V30 5094 H 487.294 -4.1899 0.45002 0
M  V30 5095 H 486.018 -3.24626 -0.35855 0
M  V30 5096 H 484.677 -3.2084 1.77362 0
M  V30 5097 H 484.325 -5.02909 0.0955422 0
M  V30 5098 H 484.025 -5.60833 1.75328 0
M  V30 5099 H 485.549 -6.0356 0.924516 0
M  V30 5100 H 486.963 -4.93777 2.91303 0
M  V30 5101 H 485.36 -4.74076 3.67929 0
M  V30 5102 H 486.43 -3.33636 3.51873 0
M  V30 5103 N 487.773 -1.03688 -1.18687 0
M  V30 5104 C 488.703 -0.645407 -2.24403 0
M  V30 5105 C 489.684 0.349511 -1.66471 0
M  V30 5106 O 490.869 0.230453 -1.92828 0
M  V30 5107 C 487.999 -0.00365337 -3.473 0
M  V30 5108 C 486.953 -0.921705 -4.17958 0
M  V30 5109 C 486.279 -0.144629 -5.34504 0
M  V30 5110 C 487.579 -2.23909 -4.71871 0
M  V30 5111 H 489.273 -1.52917 -2.57404 0
M  V30 5112 H 486.819 -0.736711 -1.23728 0
M  V30 5113 H 488.772 0.281908 -4.20456 0
M  V30 5114 H 487.496 0.914963 -3.13522 0
M  V30 5115 H 486.155 -1.19159 -3.46694 0
M  V30 5116 H 485.803 0.776274 -4.96974 0
M  V30 5117 H 485.503 -0.756206 -5.82714 0
M  V30 5118 H 487.027 0.134004 -6.10453 0
M  V30 5119 H 488.441 -2.0145 -5.36741 0
M  V30 5120 H 486.838 -2.8033 -5.30599 0
M  V30 5121 H 487.908 -2.88822 -3.895 0
M  V30 5122 N 489.251 1.34841 -0.815825 0
M  V30 5123 C 490.161 2.33425 -0.234462 0
M  V30 5124 C 491.177 1.62295 0.627413 0
M  V30 5125 O 492.353 1.94109 0.536987 0
M  V30 5126 C 489.418 3.41471 0.599849 0
M  V30 5127 C 488.479 4.28362 -0.283596 0
M  V30 5128 C 487.712 5.31248 0.51099 0
M  V30 5129 O 487.935 5.43056 1.7449 0
M  V30 5130 O 486.869 6.01812 -0.10297 0
M  V30 5131 H 490.695 2.84962 -1.05024 0
M  V30 5132 H 488.28 1.37774 -0.577809 0
M  V30 5133 H 490.162 4.07464 1.07475 0
M  V30 5134 H 488.837 2.9219 1.39308 0
M  V30 5135 H 487.744 3.65318 -0.805836 0
M  V30 5136 H 489.077 4.81066 -1.041 0
M  V30 5137 N 490.729 0.570148 1.46925 0
M  V30 5138 C 491.661 -0.207909 2.28255 0
M  V30 5139 C 492.674 -0.867301 1.37774 0
M  V30 5140 O 493.863 -0.738976 1.62485 0
M  V30 5141 C 490.963 -1.31298 3.12433 0
M  V30 5142 C 490.136 -0.747915 4.30958 0
M  V30 5143 C 489.195 -1.7391 4.9663 0
M  V30 5144 O 488.221 -1.2801 5.54619 0
M  V30 5145 N 489.423 -3.07288 4.92498 0
M  V30 5146 H 492.188 0.489794 2.95671 0
M  V30 5147 H 489.749 0.407076 1.56699 0
M  V30 5148 H 491.741 -1.97507 3.53232 0
M  V30 5149 H 490.311 -1.91373 2.47175 0
M  V30 5150 H 489.531 0.0913066 3.94094 0
M  V30 5151 H 490.819 -0.349958 5.07595 0
M  V30 5152 H 490.217 -3.47213 4.46609 0
M  V30 5153 H 488.774 -3.69021 5.37277 0
M  V30 5154 N 492.207 -1.54576 0.307264 0
M  V30 5155 C 493.154 -2.23751 -0.56604 0
M  V30 5156 C 494.124 -1.22235 -1.12462 0
M  V30 5157 O 495.309 -1.50873 -1.16799 0
M  V30 5158 C 492.449 -2.98661 -1.72903 0
M  V30 5159 C 491.562 -4.14963 -1.20124 0
M  V30 5160 C 490.697 -4.77441 -2.3286 0
M  V30 5161 C 489.736 -5.85875 -1.77247 0
M  V30 5162 N 488.873 -6.42282 -2.8358 0
M  V30 5163 H 493.713 -2.97984 0.0304578 0
M  V30 5164 H 491.25 -1.47076 0.0268015 0
M  V30 5165 H 493.208 -3.40329 -2.41313 0
M  V30 5166 H 491.838 -2.26793 -2.29706 0
M  V30 5167 H 490.89 -3.78193 -0.409198 0
M  V30 5168 H 492.202 -4.93066 -0.754171 0
M  V30 5169 H 491.356 -5.21993 -3.09205 0
M  V30 5170 H 490.095 -3.98684 -2.80896 0
M  V30 5171 H 489.1 -5.40741 -0.993926 0
M  V30 5172 H 490.325 -6.6652 -1.30107 0
M  V30 5173 H 488.271 -5.66406 -3.30939 0
M  V30 5174 H 488.188 -7.1575 -2.43388 0
M  V30 5175 H 489.456 -6.91492 -3.59804 0
M  V30 5176 N 493.685 -0.035106 -1.57561 0
M  V30 5177 C 494.933 0.64096 -1.91667 0
M  V30 5178 C 495.254 1.72323 -0.912681 0
M  V30 5179 O 494.524 1.95849 0.0449089 0
M  V30 5180 H 493.104 0.239743 -0.707483 0
M  V30 5181 H 495.766 -0.084321 -1.94718 0
M  V30 5182 H 494.862 1.08987 -2.92452 0
M  V30 5183 N 495.163 1.55791 0.238111 0
M  V30 5184 C 496.095 1.87513 1.31802 0
M  V30 5185 C 497.108 0.762053 1.43863 0
M  V30 5186 O 498.297 1.04024 1.45056 0
M  V30 5187 C 495.397 2.05402 2.69561 0
M  V30 5188 C 494.57 3.3632 2.79656 0
M  V30 5189 C 493.629 3.43844 3.98319 0
M  V30 5190 O 492.655 4.16994 3.87433 0
M  V30 5191 N 493.857 2.73777 5.11885 0
M  V30 5192 H 496.622 2.80734 1.04922 0
M  V30 5193 H 494.183 1.56135 0.428196 0
M  V30 5194 H 496.175 2.07769 3.47296 0
M  V30 5195 H 494.745 1.18884 2.89111 0
M  V30 5196 H 493.965 3.46195 1.88528 0
M  V30 5197 H 495.253 4.22594 2.83358 0
M  V30 5198 H 494.651 2.14094 5.23622 0
M  V30 5199 H 493.208 2.81825 5.87723 0
M  V30 5200 N 496.642 -0.504142 1.49319 0
M  V30 5201 C 497.552 -1.63248 1.68486 0
M  V30 5202 C 498.568 -1.64488 0.567432 0
M  V30 5203 O 499.744 -1.82966 0.841749 0
M  V30 5204 C 496.809 -2.99627 1.74426 0
M  V30 5205 C 495.87 -3.09039 2.97982 0
M  V30 5206 C 495.103 -4.38913 3.0363 0
M  V30 5207 O 495.326 -5.27528 2.16958 0
M  V30 5208 O 494.26 -4.53231 3.96062 0
M  V30 5209 H 498.086 -1.50008 2.64067 0
M  V30 5210 H 495.671 -0.680086 1.33023 0
M  V30 5211 H 497.553 -3.80689 1.80705 0
M  V30 5212 H 496.228 -3.13136 0.820233 0
M  V30 5213 H 495.135 -2.27177 2.97223 0
M  V30 5214 H 496.468 -3.00456 3.89855 0
M  V30 5215 N 498.12 -1.38341 -0.754957 0
M  V30 5216 C 499.35 -1.37504 -1.54195 0
M  V30 5217 C 499.758 0.0373787 -1.89163 0
M  V30 5218 O 499.101 1.01402 -1.53178 0
M  V30 5219 C 499.163 -2.16488 -2.87008 0
M  V30 5220 C 498.827 -3.65311 -2.74585 0
M  V30 5221 C 499.824 -4.58834 -2.44474 0
M  V30 5222 C 497.509 -4.08649 -2.9208 0
M  V30 5223 C 499.503 -5.93675 -2.32011 0
M  V30 5224 C 497.19 -5.43571 -2.79237 0
M  V30 5225 C 498.188 -6.35898 -2.49245 0
M  V30 5226 O 497.876 -7.68338 -2.36458 0
M  V30 5227 H 497.608 -0.472159 -0.483779 0
M  V30 5228 H 500.162 -1.82515 -0.94221 0
M  V30 5229 H 498.392 -1.66194 -3.49166 0
M  V30 5230 H 500.081 -2.08076 -3.4851 0
M  V30 5231 H 500.847 -4.26657 -2.30627 0
M  V30 5232 H 496.726 -3.37134 -3.14422 0
M  V30 5233 H 500.27 -6.65706 -2.08522 0
M  V30 5234 H 496.167 -5.75345 -2.92657 0
M  V30 5235 H 496.935 -7.78845 -2.5168 0
M  V30 5236 N 499.598 0.982988 -1.23187 0
M  V30 5237 C 500.847 1.71817 -1.05649 0
M  V30 5238 C 501.16 1.91315 0.407176 0
M  V30 5239 O 502.366 2.62256 0.702436 0
M  V30 5240 C 500.822 3.09188 -1.84203 0
M  V30 5241 C 500.43 2.97586 -3.34882 0
M  V30 5242 C 502.174 3.86684 -1.75146 0
M  V30 5243 C 500.081 4.30173 -4.05839 0
M  V30 5244 H 499.011 0.644258 -0.391724 0
M  V30 5245 H 501.662 1.09659 -1.4713 0
M  V30 5246 H 500.044 3.72087 -1.35527 0
M  V30 5247 H 501.218 2.43793 -3.91026 0
M  V30 5248 H 499.533 2.33567 -3.44725 0
M  V30 5249 H 502.13 4.84836 -2.25473 0
M  V30 5250 H 502.473 4.10136 -0.713737 0
M  V30 5251 H 503.006 3.30482 -2.21419 0
M  V30 5252 H 499.745 4.11918 -5.09906 0
M  V30 5253 H 499.265 4.83841 -3.54482 0
M  V30 5254 H 500.944 4.98873 -4.11989 0
M  V30 5255 N 501.076 1.04316 1.18135 0
M  V30 5256 C 502.024 0.630175 2.23901 0
M  V30 5257 C 503.018 -0.344254 1.65865 0
M  V30 5258 O 504.224 -0.211273 1.78756 0
M  V30 5259 H 500.599 0.185578 0.728742 0
M  V30 5260 H 502.57 1.53253 2.56039 0
M  V30 5261 C 501.319 0.011666 3.47698 0
M  V30 5262 H 500.642 0.752526 3.92654 0
M  V30 5263 H 502.082 -0.240046 4.2332 0
M  V30 5264 C 500.541 -1.23913 3.13285 0
M  V30 5265 O 501.071 -2.32959 3.27251 0
M  V30 5266 N 499.277 -1.13338 2.67587 0
M  V30 5267 H 498.824 -0.246006 2.56423 0
M  V30 5268 H 498.782 -1.97116 2.44934 0
M  V30 5269 N 502.554 -1.34406 0.822964 0
M  V30 5270 C 503.502 -2.31428 0.233165 0
M  V30 5271 C 504.496 -1.57404 -0.626118 0
M  V30 5272 O 505.702 -1.72402 -0.517453 0
M  V30 5273 H 502.077 -0.749863 0.0566557 0
M  V30 5274 H 504.048 -2.78699 1.06628 0
M  V30 5275 C 502.797 -3.42653 -0.590264 0
M  V30 5276 H 502.12 -3.99753 0.0616129 0
M  V30 5277 H 503.56 -4.12778 -0.969054 0
M  V30 5278 C 502.019 -2.87112 -1.76262 0
M  V30 5279 O 502.549 -2.81995 -2.8608 0
M  V30 5280 N 500.755 -2.43934 -1.57938 0
M  V30 5281 H 500.302 -2.48296 -0.686078 0
M  V30 5282 H 500.26 -2.07123 -2.36532 0
M  V30 5283 N 504.032 -0.577932 -1.46621 0
M  V30 5284 C 505.281 -0.0594281 -2.01612 0
M  V30 5285 C 505.594 1.30663 -1.45556 0
M  V30 5286 O 506.8 1.91621 -1.92337 0
M  V30 5287 C 505.256 -0.0556666 -3.59857 0
M  V30 5288 C 504.864 -1.41975 -4.24908 0
M  V30 5289 C 506.608 0.409143 -4.22524 0
M  V30 5290 C 504.515 -1.37397 -5.75218 0
M  V30 5291 H 503.445 -0.0184469 -0.753774 0
M  V30 5292 H 506.096 -0.728869 -1.68404 0
M  V30 5293 H 504.478 0.679843 -3.90121 0
M  V30 5294 H 505.652 -2.17461 -4.0626 0
M  V30 5295 H 503.967 -1.82419 -3.74316 0
M  V30 5296 H 506.564 0.46211 -5.32699 0
M  V30 5297 H 506.907 1.42565 -3.91128 0
M  V30 5298 H 507.44 -0.272152 -3.96868 0
M  V30 5299 H 504.179 -2.36714 -6.11267 0
M  V30 5300 H 503.699 -0.661239 -5.96144 0
M  V30 5301 H 505.378 -1.08484 -6.3784 0
M  V30 5302 N 505.51 1.54411 -0.315457 0
M  V30 5303 C 506.46 2.20772 0.569549 0
M  V30 5304 C 507.444 1.18551 1.08787 0
M  V30 5305 O 508.636 1.44213 1.02624 0
M  V30 5306 C 505.765 2.96293 1.73394 0
M  V30 5307 C 504.851 4.05844 1.2309 0
M  V30 5308 N 505.242 5.03822 0.446927 0
M  V30 5309 C 503.54 4.19648 1.51035 0
M  V30 5310 C 504.241 5.8143 0.17725 0
M  V30 5311 N 503.217 5.38245 0.761118 0
M  V30 5312 H 507.019 2.93877 -0.0368076 0
M  V30 5313 H 504.533 1.61949 -0.120915 0
M  V30 5314 H 506.53 3.42313 2.37965 0
M  V30 5315 H 505.19 2.24708 2.34386 0
M  V30 5316 H 506.201 5.17821 0.0905027 0
M  V30 5317 H 502.878 3.59274 2.1267 0
M  V30 5318 H 504.268 6.70369 -0.45335 0
M  V30 5319 N 506.988 0.0434614 1.5754 0
M  V30 5320 C 507.918 -0.931651 2.14109 0
M  V30 5321 C 508.899 -1.32971 1.06079 0
M  V30 5322 O 510.084 -1.40579 1.33982 0
M  V30 5323 C 507.214 -2.20914 2.67982 0
M  V30 5324 C 506.168 -1.95139 3.80926 0
M  V30 5325 C 505.494 -3.29276 4.21285 0
M  V30 5326 C 506.794 -1.27913 5.06395 0
M  V30 5327 H 508.488 -0.460497 2.95837 0
M  V30 5328 H 506.034 -0.220058 1.42309 0
M  V30 5329 H 507.987 -2.89522 3.06194 0
M  V30 5330 H 506.711 -2.70221 1.83434 0
M  V30 5331 H 505.37 -1.28945 3.43175 0
M  V30 5332 H 505.018 -3.76369 3.33699 0
M  V30 5333 H 504.718 -3.12831 4.97404 0
M  V30 5334 H 506.242 -3.99129 4.62091 0
M  V30 5335 H 507.656 -1.86544 5.42102 0
M  V30 5336 H 506.053 -1.2182 5.87605 0
M  V30 5337 H 507.123 -0.254066 4.84234 0
M  V30 5338 N 508.466 -1.55915 -0.229846 0
M  V30 5339 C 509.694 -1.82617 -0.972562 0
M  V30 5340 C 510.109 -0.621488 -1.78278 0
M  V30 5341 O 509.466 0.409956 -1.77836 0
M  V30 5342 C 509.517 -3.0774 -1.89679 0
M  V30 5343 O 509.238 -4.23559 -1.11934 0
M  V30 5344 C 510.739 -3.47368 -2.75409 0
M  V30 5345 H 507.959 -0.60727 -0.285419 0
M  V30 5346 H 510.503 -2.02996 -0.247579 0
M  V30 5347 H 508.658 -2.89361 -2.57583 0
M  V30 5348 H 509.072 -4.94586 -1.74599 0
M  V30 5349 H 510.546 -4.37977 -3.35977 0
M  V30 5350 H 511.023 -2.68737 -3.47386 0
M  V30 5351 H 511.629 -3.68158 -2.12931 0
M  V30 5352 N 509.944 0.496216 -1.49584 0
M  V30 5353 C 510.894 1.59422 -1.62999 0
M  V30 5354 C 511.878 1.53402 -0.485457 0
M  V30 5355 O 513.07 1.60851 -0.738649 0
M  V30 5356 C 510.199 2.98009 -1.70427 0
M  V30 5357 C 509.285 3.09008 -2.90473 0
M  V30 5358 N 509.676 2.89884 -4.14489 0
M  V30 5359 C 507.974 3.40115 -2.8851 0
M  V30 5360 C 508.675 3.0519 -4.95211 0
M  V30 5361 N 507.651 3.3428 -4.2867 0
M  V30 5362 H 511.453 1.43297 -2.56599 0
M  V30 5363 H 508.967 0.702443 -1.46422 0
M  V30 5364 H 510.964 3.76926 -1.78136 0
M  V30 5365 H 509.624 3.152 -0.77967 0
M  V30 5366 H 510.635 2.65963 -4.44392 0
M  V30 5367 H 507.312 3.63452 -2.05448 0
M  V30 5368 H 508.702 2.94856 -6.03746 0
M  V30 5369 N 511.423 1.38739 0.74761 0
M  V30 5370 C 512.648 1.38702 1.54197 0
M  V30 5371 C 513.073 -0.019664 1.8809 0
M  V30 5372 O 512.431 -1.00333 1.51006 0
M  V30 5373 C 512.479 2.25492 2.814 0
M  V30 5374 O 511.583 1.67613 3.76802 0
M  V30 5375 H 510.924 0.472863 0.466151 0
M  V30 5376 H 513.454 1.82577 0.923413 0
M  V30 5377 H 513.464 2.39561 3.30264 0
M  V30 5378 H 512.139 3.27727 2.56062 0
M  V30 5379 H 510.716 1.62718 3.35526 0
M  V30 5380 N 512.901 -0.976442 1.23707 0
M  V30 5381 C 513.831 -2.08749 1.04624 0
M  V30 5382 C 514.812 -1.70057 -0.0380956 0
M  V30 5383 O 515.997 -1.93782 0.127308 0
M  V30 5384 C 513.127 -3.41335 0.640902 0
M  V30 5385 C 512.081 -3.93947 1.67302 0
M  V30 5386 C 511.407 -5.22774 1.12301 0
M  V30 5387 C 512.707 -4.22769 3.06697 0
M  V30 5388 H 514.401 -2.24972 1.97555 0
M  V30 5389 H 511.947 -1.08108 0.951247 0
M  V30 5390 H 513.9 -4.18489 0.494434 0
M  V30 5391 H 512.624 -3.24988 -0.324099 0
M  V30 5392 H 511.283 -3.18941 1.80755 0
M  V30 5393 H 510.931 -5.0278 0.148877 0
M  V30 5394 H 510.631 -5.58942 1.81267 0
M  V30 5395 H 512.155 -6.02546 0.988479 0
M  V30 5396 H 513.569 -4.90659 2.96524 0
M  V30 5397 H 511.966 -4.70147 3.72937 0
M  V30 5398 H 513.036 -3.29885 3.55392 0
M  V30 5399 N 514.379 -1.04941 -1.1758 0
M  V30 5400 C 515.289 -0.658826 -2.25159 0
M  V30 5401 C 516.305 0.318941 -1.71052 0
M  V30 5402 O 517.481 0.171669 -2.00667 0
M  V30 5403 C 514.546 -0.0369522 -3.4668 0
M  V30 5404 C 513.607 -1.06484 -4.15884 0
M  V30 5405 C 512.84 -0.472551 -5.31604 0
M  V30 5406 O 513.063 0.718736 -5.65854 0
M  V30 5407 O 511.997 -1.20557 -5.89703 0
M  V30 5408 H 515.823 -1.55533 -2.60851 0
M  V30 5409 H 513.408 -0.820819 -1.24832 0
M  V30 5410 H 515.29 0.308784 -4.20267 0
M  V30 5411 H 513.965 0.833238 -3.12792 0
M  V30 5412 H 512.872 -1.46253 -3.44327 0
M  V30 5413 H 514.205 -1.9061 -4.53794 0
M  V30 5414 N 515.857 1.33968 -0.830081 0
M  V30 5415 C 516.767 2.33164 -0.259207 0
M  V30 5416 C 517.783 1.62951 0.610164 0
M  V30 5417 O 518.959 1.94668 0.516369 0
M  V30 5418 C 516.024 3.42088 0.563598 0
M  V30 5419 C 515.085 4.28037 -0.329014 0
M  V30 5420 C 514.318 5.3176 0.454616 0
M  V30 5421 O 514.541 5.44876 1.6872 0
M  V30 5422 O 513.475 6.01669 -0.166794 0
M  V30 5423 H 517.301 2.83832 -1.08041 0
M  V30 5424 H 514.886 1.37154 -0.59239 0
M  V30 5425 H 516.768 4.08581 1.03147 0
M  V30 5426 H 515.443 2.93651 1.36201 0
M  V30 5427 H 514.35 3.64443 -0.844538 0
M  V30 5428 H 515.683 4.79934 -1.09196 0
M  V30 5429 N 517.335 0.585699 1.46312 0
M  V30 5430 C 518.575 0.0751432 2.04262 0
M  V30 5431 C 518.939 -1.26201 1.44697 0
M  V30 5432 O 520.14 -1.86198 1.93865 0
M  V30 5433 C 518.411 0.013478 3.57397 0
M  V30 5434 S 519.97 -0.439068 4.36598 0
M  V30 5435 H 516.788 0.0389228 0.709934 0
M  V30 5436 H 519.39 0.778871 1.79315 0
M  V30 5437 H 518.094 0.990558 3.98266 0
M  V30 5438 H 517.625 -0.712927 3.86886 0
M  V30 5439 H 519.64 -1.6932 4.66417 0
M  V30 5440 N 518.813 -1.54241 0.323641 0
M  V30 5441 C 519.743 -2.27289 -0.534993 0
M  V30 5442 C 520.724 -1.28087 -1.11927 0
M  V30 5443 O 521.909 -1.56899 -1.14439 0
M  V30 5444 C 519.039 -3.03075 -1.69596 0
M  V30 5445 C 517.993 -4.09614 -1.24098 0
M  V30 5446 C 517.319 -4.73242 -2.4889 0
M  V30 5447 C 518.619 -5.21087 -0.355789 0
M  V30 5448 H 520.313 -2.99308 0.0743257 0
M  V30 5449 H 517.859 -1.43952 0.0371874 0
M  V30 5450 H 519.812 -3.52907 -2.30293 0
M  V30 5451 H 518.536 -2.28673 -2.33187 0
M  V30 5452 H 517.195 -3.60666 -0.656945 0
M  V30 5453 H 516.843 -3.95455 -3.10845 0
M  V30 5454 H 516.543 -5.45209 -2.19138 0
M  V30 5455 H 518.067 -5.25848 -3.10348 0
M  V30 5456 H 519.481 -5.66675 -0.869042 0
M  V30 5457 H 517.878 -5.9991 -0.151045 0
M  V30 5458 H 518.948 -4.81005 0.613339 0
M  V30 5459 N 520.291 -0.0518155 -1.57515 0
M  V30 5460 C 521.537 0.622745 -1.93002 0
M  V30 5461 C 521.87 1.70456 -0.930499 0
M  V30 5462 O 521.145 1.94452 0.0434086 0
M  V30 5463 C 521.428 1.21824 -3.38867 0
M  V30 5464 C 521.281 0.144434 -4.49568 0
M  V30 5465 C 522.6 2.12968 -3.8514 0
M  V30 5466 H 519.719 0.22491 -0.701844 0
M  V30 5467 H 522.361 -0.113711 -1.89659 0
M  V30 5468 H 520.511 1.8459 -3.41846 0
M  V30 5469 H 522.183 -0.48753 -4.58717 0
M  V30 5470 H 520.426 -0.527424 -4.30582 0
M  V30 5471 H 521.097 0.601127 -5.48717 0
M  V30 5472 H 523.573 1.60163 -3.8404 0
M  V30 5473 H 522.449 2.51578 -4.87852 0
M  V30 5474 H 522.71 3.03004 -3.21934 0
M  V30 5475 N 521.769 1.56035 0.221574 0
M  V30 5476 C 523.185 1.49026 0.571271 0
M  V30 5477 C 523.385 0.746912 1.87146 0
M  V30 5478 O 522.441 0.286566 2.50869 0
M  V30 5479 C 523.754 2.93579 0.650522 0
M  V30 5480 C 525.302 3.04099 0.741151 0
M  V30 5481 C 525.777 4.5001 0.851747 0
M  V30 5482 N 527.268 4.54053 0.915968 0
M  V30 5483 C 528.003 5.64232 1.02125 0
M  V30 5484 N 527.499 6.84164 1.09049 0
M  V30 5485 N 529.292 5.52084 1.05639 0
M  V30 5486 H 521.443 2.02791 -0.63162 0
M  V30 5487 H 523.706 0.921736 -0.221602 0
M  V30 5488 H 523.412 3.50912 -0.235253 0
M  V30 5489 H 523.286 3.45476 1.51413 0
M  V30 5490 H 525.673 2.4683 1.61737 0
M  V30 5491 H 525.754 2.55371 -0.148128 0
M  V30 5492 H 525.398 5.07896 -0.0200117 0
M  V30 5493 H 525.328 4.96444 1.75644 0
M  V30 5494 H 527.819 3.67683 0.872782 0
M  V30 5495 H 528.132 7.63883 1.1706 0
M  V30 5496 H 526.477 6.86875 1.05962 0
M  V30 5497 H 529.668 4.57317 0.998953 0
M  V30 5498 H 529.841 6.37983 1.13498 0
M  V30 5499 N 523.247 -0.488276 1.49845 0
M  V30 5500 C 524.475 -1.26527 1.63702 0
M  V30 5501 C 524.89 -1.8618 0.313447 0
M  V30 5502 O 524.247 -1.68432 -0.702624 0
M  V30 5503 C 524.298 -2.3864 2.71538 0
M  V30 5504 O 524.019 -1.81437 3.98763 0
M  V30 5505 C 525.52 -3.29805 2.96215 0
M  V30 5506 H 522.74 -0.383295 0.55075 0
M  V30 5507 H 525.284 -0.584779 1.95961 0
M  V30 5508 H 523.439 -3.02496 2.42023 0
M  V30 5509 H 523.853 -2.55135 4.58265 0
M  V30 5510 H 525.327 -4.04722 3.75372 0
M  V30 5511 H 525.804 -3.87563 2.06619 0
M  V30 5512 H 526.41 -2.71703 3.27196 0
M  V30 5513 N 524.725 -1.39134 -0.740242 0
M  V30 5514 C 525.953 -1.39334 -1.5295 0
M  V30 5515 C 526.368 0.0135008 -1.88795 0
M  V30 5516 O 525.725 0.983524 -1.5373 0
M  V30 5517 C 525.776 -2.2614 -2.82034 0
M  V30 5518 O 525.497 -3.61345 -2.47712 0
M  V30 5519 C 526.998 -2.34666 -3.76094 0
M  V30 5520 H 524.218 -0.476103 -0.472828 0
M  V30 5521 H 526.762 -1.82883 -0.9151 0
M  V30 5522 H 524.917 -1.86018 -3.39818 0
M  V30 5523 H 525.331 -4.07194 -3.30595 0
M  V30 5524 H 526.805 -2.99663 -4.63579 0
M  V30 5525 H 527.282 -1.36426 -4.17474 0
M  V30 5526 H 527.888 -2.75236 -3.2423 0
M  V30 5527 N 526.204 0.969867 -1.24223 0
M  V30 5528 C 527.114 2.09806 -1.0497 0
M  V30 5529 C 528.13 1.73998 0.00886455 0
M  V30 5530 O 529.306 2.00513 -0.188848 0
M  V30 5531 C 526.371 3.40467 -0.654452 0
M  V30 5532 C 525.432 3.90236 -1.78926 0
M  V30 5533 C 524.665 5.14662 -1.41277 0
M  V30 5534 O 524.888 5.69602 -0.301632 0
M  V30 5535 O 523.822 5.58761 -2.23763 0
M  V30 5536 H 527.648 2.28942 -1.99548 0
M  V30 5537 H 525.233 1.08197 -1.03023 0
M  V30 5538 H 527.115 4.19039 -0.445452 0
M  V30 5539 H 525.79 3.22636 0.262216 0
M  V30 5540 H 524.697 3.12735 -2.05299 0
M  V30 5541 H 526.03 4.1254 -2.68462 0
M  V30 5542 N 527.682 1.05563 1.17022 0
M  V30 5543 C 528.629 0.659893 2.21165 0
M  V30 5544 C 529.599 -0.339813 1.62587 0
M  V30 5545 O 530.784 -0.230378 1.89404 0
M  V30 5546 C 527.924 0.0447297 3.45071 0
M  V30 5547 C 527.037 1.09372 4.17926 0
M  V30 5548 C 526.172 0.445481 5.29329 0
M  V30 5549 C 525.211 1.47852 5.93975 0
M  V30 5550 N 524.348 0.854172 6.96885 0
M  V30 5551 H 529.188 1.55243 2.54369 0
M  V30 5552 H 526.725 0.776336 1.24946 0
M  V30 5553 H 528.683 -0.329404 4.15898 0
M  V30 5554 H 527.313 -0.811244 3.1244 0
M  V30 5555 H 526.365 1.58564 3.45777 0
M  V30 5556 H 527.677 1.87773 4.62107 0
M  V30 5557 H 526.831 0.0179688 6.06697 0
M  V30 5558 H 525.57 -0.370481 4.86291 0
M  V30 5559 H 524.575 1.91601 5.15334 0
M  V30 5560 H 525.8 2.29645 6.39093 0
M  V30 5561 H 523.746 0.0587882 6.55974 0
M  V30 5562 H 523.663 1.57567 7.39397 0
M  V30 5563 H 524.931 0.451559 7.78191 0
M  V30 5564 N 529.16 -1.33526 0.837174 0
M  V30 5565 C 530.388 -2.02047 0.445494 0
M  V30 5566 C 530.803 -1.62995 -0.952788 0
M  V30 5567 O 530.16 -0.842447 -1.61892 0
M  V30 5568 C 530.211 -3.57221 0.554577 0
M  V30 5569 O 529.932 -3.94863 1.89776 0
M  V30 5570 C 531.433 -4.43012 0.159634 0
M  V30 5571 H 528.653 -0.647221 0.177048 0
M  V30 5572 H 531.197 -1.70492 1.12928 0
M  V30 5573 H 529.352 -3.87315 -0.0812781 0
M  V30 5574 H 529.766 -4.89569 1.88208 0
M  V30 5575 H 531.24 -5.51253 0.28701 0
M  V30 5576 H 531.717 -4.29916 -0.898289 0
M  V30 5577 H 532.323 -4.18274 0.769855 0
M  V30 5578 N 530.638 -0.59345 -1.46 0
M  V30 5579 C 532.049 -0.169801 -1.85926 0
M  V30 5580 C 532.4 1.26984 -1.49565 0
M  V30 5581 O 531.525 1.96076 -0.915602 0
M  V30 5582 C 532.12 -0.301385 -3.37457 0
M  V30 5583 C 530.679 0.0674684 -3.7634 0
M  V30 5584 C 529.826 -0.632383 -2.69993 0
M  V30 5585 H 532.777 -0.801014 -1.37002 0
M  V30 5586 H 532.798 0.470331 -3.77582 0
M  V30 5587 H 532.31 -1.34927 -3.63891 0
M  V30 5588 H 530.411 1.11507 -3.55523 0
M  V30 5589 H 530.524 -0.316332 -4.78055 0
M  V30 5590 H 528.888 -0.0714961 -2.546 0
M  V30 5591 H 529.671 -1.68212 -2.99265 0
M  V30 5592 N 532.116 1.54067 -0.331816 0
M  V30 5593 C 533.341 2.05599 0.272705 0
M  V30 5594 C 533.766 1.2059 1.44359 0
M  V30 5595 O 533.124 0.216907 1.79998 0
M  V30 5596 C 533.172 3.54188 0.677021 0
M  V30 5597 O 532.276 3.72082 1.77844 0
M  V30 5598 H 531.617 0.662286 0.0476801 0
M  V30 5599 H 534.147 1.98826 -0.482624 0
M  V30 5600 H 534.157 3.96608 0.957415 0
M  V30 5601 H 532.832 4.15513 -0.179325 0
M  V30 5602 H 531.409 3.41566 1.49622 0
M  V30 5603 N 533.594 0.0601682 1.57485 0
M  V30 5604 C 534.524 -0.90889 2.15085 0
M  V30 5605 C 535.505 -1.31838 1.07484 0
M  V30 5606 O 536.69 -1.3915 1.35466 0
M  V30 5607 C 533.82 -2.18059 2.7031 0
M  V30 5608 C 532.774 -1.91088 3.82974 0
M  V30 5609 C 532.1 -3.24789 4.24754 0
M  V30 5610 C 533.4 -1.22535 5.07723 0
M  V30 5611 H 535.094 -0.429093 2.96309 0
M  V30 5612 H 532.64 -0.204952 1.42534 0
M  V30 5613 H 534.593 -2.86258 3.09248 0
M  V30 5614 H 533.317 -2.6826 1.8629 0
M  V30 5615 H 531.976 -1.25297 3.44523 0
M  V30 5616 H 531.624 -3.72809 3.37672 0
M  V30 5617 H 531.324 -3.07538 5.00694 0
M  V30 5618 H 532.848 -3.94205 4.66299 0
M  V30 5619 H 534.262 -1.80783 5.4405 0
M  V30 5620 H 532.659 -1.1558 5.88864 0
M  V30 5621 H 533.729 -0.202692 4.84476 0
M  V30 5622 N 535.072 -1.5615 -0.213296 0
M  V30 5623 C 536.3 -1.83638 -0.953139 0
M  V30 5624 C 536.715 -0.640362 -1.77609 0
M  V30 5625 O 536.072 0.391071 -1.78261 0
M  V30 5626 C 536.123 -3.09735 -1.86405 0
M  V30 5627 O 535.844 -4.24723 -1.07435 0
M  V30 5628 C 537.345 -3.5027 -2.71709 0
M  V30 5629 H 534.565 -0.610263 -0.278962 0
M  V30 5630 H 537.109 -2.03247 -0.226035 0
M  V30 5631 H 535.264 -2.92077 -2.545 0
M  V30 5632 H 535.678 -4.9641 -1.69343 0
M  V30 5633 H 537.152 -4.41515 -3.31313 0
M  V30 5634 H 537.629 -2.72406 -3.44516 0
M  V30 5635 H 538.235 -3.70396 -2.09015 0
M  V30 5636 N 536.55 0.480323 -1.50102 0
M  V30 5637 C 537.966 0.813295 -1.37323 0
M  V30 5638 C 538.166 1.97027 -0.422206 0
M  V30 5639 O 537.222 2.5212 0.138563 0
M  V30 5640 C 538.535 1.13404 -2.78496 0
M  V30 5641 C 540.083 1.24104 -2.87345 0
M  V30 5642 C 540.558 1.59497 -4.29331 0
M  V30 5643 N 542.049 1.66507 -4.32238 0
M  V30 5644 C 542.784 1.95378 -5.39087 0
M  V30 5645 N 542.28 2.22333 -6.56155 0
M  V30 5646 N 544.073 1.96803 -5.26522 0
M  V30 5647 H 536.224 -0.282291 -2.10516 0
M  V30 5648 H 538.487 -0.063752 -0.945854 0
M  V30 5649 H 538.193 0.357064 -3.49883 0
M  V30 5650 H 538.067 2.07251 -3.15162 0
M  V30 5651 H 540.454 2.00871 -2.16183 0
M  V30 5652 H 540.535 0.282593 -2.54234 0
M  V30 5653 H 540.179 0.832736 -5.01027 0
M  V30 5654 H 540.109 2.56477 -4.59921 0
M  V30 5655 H 542.6 1.47753 -3.47818 0
M  V30 5656 H 542.913 2.43611 -7.33399 0
M  V30 5657 H 541.258 2.19745 -6.59346 0
M  V30 5658 H 544.449 1.75235 -4.34062 0
M  V30 5659 H 544.622 2.18969 -6.09883 0
M  V30 5660 N 538.028 1.39524 0.732853 0
M  V30 5661 C 539.444 1.21176 1.03868 0
M  V30 5662 C 539.644 0.0748448 2.01361 0
M  V30 5663 O 538.7 -0.57281 2.45917 0
M  V30 5664 C 540.013 2.54667 1.59892 0
M  V30 5665 C 541.561 2.6153 1.71962 0
M  V30 5666 C 542.036 3.95248 2.31394 0
M  V30 5667 N 543.527 3.96899 2.38801 0
M  V30 5668 C 544.262 4.97138 2.85729 0
M  V30 5669 N 543.758 6.07775 3.32537 0
M  V30 5670 N 545.551 4.84516 2.84957 0
M  V30 5671 H 537.702 2.12225 0.086304 0
M  V30 5672 H 539.965 0.942614 0.100907 0
M  V30 5673 H 539.671 3.38423 0.95721 0
M  V30 5674 H 539.545 2.74538 2.58668 0
M  V30 5675 H 541.932 1.78156 2.35254 0
M  V30 5676 H 542.013 2.45507 0.718327 0
M  V30 5677 H 541.657 4.79054 1.68729 0
M  V30 5678 H 541.587 4.08593 3.32204 0
M  V30 5679 H 544.078 3.16998 2.05719 0
M  V30 5680 H 544.391 6.8017 3.66862 0
M  V30 5681 H 542.736 6.11366 3.30541 0
M  V30 5682 H 545.927 3.97185 2.47713 0
M  V30 5683 H 546.1 5.62783 3.21215 0
M  V30 5684 N 539.506 -0.963266 1.24736 0
M  V30 5685 C 540.755 -1.70115 1.08369 0
M  V30 5686 C 541.068 -1.91939 -0.376688 0
M  V30 5687 O 542.274 -2.6334 -0.660624 0
M  V30 5688 C 540.73 -3.06218 1.89099 0
M  V30 5689 C 540.338 -2.92221 3.39574 0
M  V30 5690 C 542.082 -3.83848 1.81275 0
M  V30 5691 C 539.989 -4.23662 4.12631 0
M  V30 5692 H 538.919 -0.637944 0.401924 0
M  V30 5693 H 541.57 -1.07304 1.48856 0
M  V30 5694 H 539.952 -3.69884 1.41429 0
M  V30 5695 H 541.126 -2.37541 3.94856 0
M  V30 5696 H 539.441 -2.28054 3.48397 0
M  V30 5697 H 542.038 -4.81188 2.33158 0
M  V30 5698 H 542.381 -4.08949 0.778895 0
M  V30 5699 H 542.914 -3.26918 2.26649 0
M  V30 5700 H 539.653 -4.03753 5.16395 0
M  V30 5701 H 539.173 -4.78141 3.62135 0
M  V30 5702 H 540.852 -4.92256 4.19873 0
M  V30 5703 N 540.985 -1.06182 -1.16461 0
M  V30 5704 C 542.262 -0.691364 -1.82974 0
M  V30 5705 C 542.642 0.827377 -1.9421 0
M  V30 5706 O 541.99 1.73723 -1.48434 0
M  V30 5707 C 542.2 -1.39199 -3.20038 0
M  V30 5708 C 543.548 -1.53647 -3.95825 0
M  V30 5709 O 544.572 -1.35181 -3.29552 0
M  V30 5710 O 543.431 -1.83932 -5.14618 0
M  V30 5711 H 540.525 -0.244605 -0.789998 0
M  V30 5712 H 543.071 -1.16203 -1.23673 0
M  V30 5713 H 541.843 -2.42766 -3.06888 0
M  V30 5714 H 541.466 -0.911335 -3.87015 0
M  V30 5715 N 542.463 1.3308 -0.844243 0
M  V30 5716 C 543.74 1.92178 -0.364261 0
M  V30 5717 C 544.12 1.76961 1.15101 0
M  V30 5718 O 543.468 1.16128 1.9679 0
M  V30 5719 C 543.678 3.393 -0.817106 0
M  V30 5720 C 545.026 4.16444 -0.828236 0
M  V30 5721 O 546.05 3.47975 -0.761062 0
M  V30 5722 O 544.909 5.38685 -0.920926 0
M  V30 5723 H 542.003 0.820411 -0.10419 0
M  V30 5724 H 544.549 1.41918 -0.930453 0
M  V30 5725 H 543.321 3.44272 -1.85991 0
M  V30 5726 H 542.944 3.96947 -0.227785 0
M  V30 5727 N 543.941 0.601185 1.45683 0
M  V30 5728 C 545.169 0.100054 2.06658 0
M  V30 5729 C 545.584 -1.21285 1.44691 0
M  V30 5730 O 544.941 -1.73735 0.558772 0
M  V30 5731 C 544.992 -0.0528579 3.61461 0
M  V30 5732 O 544.713 1.20809 4.21114 0
M  V30 5733 C 546.214 -0.586193 4.39407 0
M  V30 5734 H 543.434 0.065905 0.667756 0
M  V30 5735 H 545.978 0.827101 1.87028 0
M  V30 5736 H 544.133 -0.730203 3.80456 0
M  V30 5737 H 544.547 1.03368 5.14213 0
M  V30 5738 H 546.021 -0.642297 5.4825 0
M  V30 5739 H 546.498 -1.60713 4.0874 0
M  V30 5740 H 547.104 0.0568935 4.25262 0
M  V30 5741 N 545.419 -1.53889 0.339982 0
M  V30 5742 C 546.668 -2.00035 -0.258604 0
M  V30 5743 C 546.981 -1.23179 -1.51942 0
M  V30 5744 O 548.187 -1.59784 -2.19503 0
M  V30 5745 C 546.643 -3.56249 -0.511359 0
M  V30 5746 C 546.251 -4.41957 0.733349 0
M  V30 5747 C 547.995 -4.1082 -1.069 0
M  V30 5748 C 545.902 -5.89673 0.451591 0
M  V30 5749 H 544.832 -0.747284 -0.10041 0
M  V30 5750 H 547.483 -1.77776 0.454758 0
M  V30 5751 H 545.865 -3.7456 -1.28533 0
M  V30 5752 H 547.039 -4.35421 1.50815 0
M  V30 5753 H 545.354 -3.9836 1.21237 0
M  V30 5754 H 547.951 -5.18789 -1.2947 0
M  V30 5755 H 548.294 -3.63817 -2.02343 0
M  V30 5756 H 548.827 -3.96205 -0.355817 0
M  V30 5757 H 545.566 -6.40903 1.37565 0
M  V30 5758 H 545.086 -5.99122 -0.285193 0
M  V30 5759 H 546.765 -6.46965 0.0675067 0
M  V30 5760 N 546.897 -0.0685191 -1.57451 0
M  V30 5761 C 548.144 0.601348 -1.93365 0
M  V30 5762 C 548.472 1.69816 -0.948294 0
M  V30 5763 O 547.727 1.95666 0.0366199 0
M  V30 5764 C 548.026 1.22051 -3.35914 0
M  V30 5765 C 547.692 0.250165 -4.50205 0
M  V30 5766 C 546.354 -0.0167954 -4.81197 0
M  V30 5767 C 548.706 -0.413867 -5.19554 0
M  V30 5768 C 546.034 -0.95493 -5.78876 0
M  V30 5769 C 548.386 -1.3403 -6.18238 0
M  V30 5770 C 547.05 -1.61576 -6.47649 0
M  V30 5771 H 546.32 0.220049 -0.707573 0
M  V30 5772 H 548.967 -0.138697 -1.90997 0
M  V30 5773 H 547.272 2.03622 -3.34732 0
M  V30 5774 H 548.969 1.74605 -3.6099 0
M  V30 5775 H 545.559 0.468421 -4.26033 0
M  V30 5776 H 549.743 -0.220733 -4.95809 0
M  V30 5777 H 544.999 -1.17563 -5.99991 0
M  V30 5778 H 549.173 -1.86081 -6.71079 0
M  V30 5779 H 546.8 -2.34431 -7.2315 0
M  V30 5780 N 548.375 1.56261 0.205012 0
M  V30 5781 C 549.307 1.90266 1.27795 0
M  V30 5782 C 550.32 0.792397 1.42214 0
M  V30 5783 O 551.509 1.07077 1.42817 0
M  V30 5784 C 548.609 2.11074 2.65143 0
M  V30 5785 C 547.782 3.42176 2.7246 0
M  V30 5786 C 546.841 3.52216 3.90936 0
M  V30 5787 O 545.867 4.25119 3.78501 0
M  V30 5788 N 547.069 2.84573 5.05963 0
M  V30 5789 H 549.834 2.82896 0.989434 0
M  V30 5790 H 547.395 1.57008 0.394981 0
M  V30 5791 H 549.387 2.15089 3.4281 0
M  V30 5792 H 547.957 1.2499 2.86524 0
M  V30 5793 H 547.177 3.50116 1.81142 0
M  V30 5794 H 548.465 4.28509 2.74331 0
M  V30 5795 H 547.863 2.25152 5.18963 0
M  V30 5796 H 546.42 2.94228 5.81613 0
M  V30 5797 N 549.853 -0.472356 1.50355 0
M  V30 5798 C 550.801 -1.59126 1.69651 0
M  V30 5799 C 551.795 -1.59793 0.56237 0
M  V30 5800 O 553.001 -1.63957 0.742832 0
M  V30 5801 H 549.376 -0.528008 0.535454 0
M  V30 5802 H 551.347 -1.40013 2.63513 0
M  V30 5803 C 550.096 -2.97075 1.8067 0
M  V30 5804 H 549.419 -2.9728 2.67329 0
M  V30 5805 H 550.859 -3.74825 1.98197 0
M  V30 5806 C 549.318 -3.32247 0.558016 0
M  V30 5807 O 549.848 -4.00553 -0.303399 0
M  V30 5808 N 548.054 -2.87659 0.412415 0
M  V30 5809 H 547.601 -2.32246 1.11443 0
M  V30 5810 H 547.559 -3.11556 -0.421908 0
M  V30 5811 N 551.331 -1.39911 -0.725443 0
M  V30 5812 C 552.742 -1.33599 -1.30415 0
M  V30 5813 C 553.093 -0.00481792 -1.96199 0
M  V30 5814 O 552.218 0.897275 -1.96921 0
M  V30 5815 C 552.813 -2.41965 -2.37146 0
M  V30 5816 C 551.372 -2.39144 -2.90667 0
M  V30 5817 C 550.519 -2.23355 -1.64341 0
M  V30 5818 H 553.47 -1.4986 -0.522267 0
M  V30 5819 H 553.491 -2.09304 -3.17761 0
M  V30 5820 H 553.003 -3.38837 -1.89238 0
M  V30 5821 H 551.104 -1.4594 -3.4283 0
M  V30 5822 H 551.217 -3.34362 -3.43131 0
M  V30 5823 H 549.581 -1.70696 -1.89037 0
M  V30 5824 H 550.364 -3.2221 -1.18471 0
M  V30 5825 N 552.809 0.956637 -1.25245 0
M  V30 5826 C 553.742 2.05232 -0.99775 0
M  V30 5827 C 554.72 1.62439 0.0723137 0
M  V30 5828 O 555.904 1.88381 -0.066926 0
M  V30 5829 C 553.031 3.34871 -0.507861 0
M  V30 5830 C 552.077 3.96625 -1.56815 0
M  V30 5831 S 552.91 4.32853 -3.15276 0
M  V30 5832 C 554.066 5.65613 -2.68017 0
M  V30 5833 H 554.299 2.26521 -1.9255 0
M  V30 5834 H 551.832 1.09601 -1.08752 0
M  V30 5835 H 553.79 4.09845 -0.231858 0
M  V30 5836 H 552.451 3.11551 0.399356 0
M  V30 5837 H 551.644 4.90087 -1.17604 0
M  V30 5838 H 551.246 3.28124 -1.79473 0
M  V30 5839 H 553.538 6.43635 -2.11518 0
M  V30 5840 H 554.481 6.09693 -3.60112 0
M  V30 5841 H 554.889 5.24751 -2.0808 0
M  V30 5842 N 554.287 1.06798 1.15896 0
M  V30 5843 C 555.533 0.788934 1.86825 0
M  V30 5844 C 555.866 -0.683084 1.8179 0
M  V30 5845 O 555.141 -1.50086 1.23711 0
M  V30 5846 C 555.424 1.29065 3.36176 0
M  V30 5847 C 555.277 2.8268 3.49874 0
M  V30 5848 C 556.596 0.902655 4.30744 0
M  V30 5849 H 553.715 0.288066 0.678371 0
M  V30 5850 H 556.357 1.32479 1.36195 0
M  V30 5851 H 554.507 0.834806 3.79425 0
M  V30 5852 H 556.179 3.36511 3.15528 0
M  V30 5853 H 554.422 3.21157 2.91617 0
M  V30 5854 H 555.093 3.12852 4.54783 0
M  V30 5855 H 557.569 1.29535 3.95424 0
M  V30 5856 H 556.445 1.28111 5.3374 0
M  V30 5857 H 556.706 -0.191951 4.41683 0
M  V30 5858 N 555.766 -1.3263 0.851289 0
M  V30 5859 C 556.698 -2.27824 0.250757 0
M  V30 5860 C 557.711 -1.52285 -0.575598 0
M  V30 5861 O 558.9 -1.73946 -0.400638 0
M  V30 5862 C 556 -3.3232 -0.664571 0
M  V30 5863 C 555.173 -4.37221 0.125187 0
M  V30 5864 C 554.232 -5.21314 -0.715385 0
M  V30 5865 O 553.258 -5.69002 -0.150111 0
M  V30 5866 N 554.46 -5.43823 -2.03069 0
M  V30 5867 H 557.225 -2.79997 1.06873 0
M  V30 5868 H 554.786 -1.45455 0.710943 0
M  V30 5869 H 556.778 -3.85486 -1.23216 0
M  V30 5870 H 555.348 -2.80331 -1.38323 0
M  V30 5871 H 554.568 -3.84384 0.874199 0
M  V30 5872 H 555.856 -5.04399 0.667774 0
M  V30 5873 H 555.254 -5.06803 -2.51332 0
M  V30 5874 H 553.811 -5.99998 -2.54648 0
M  V30 5875 N 557.244 -0.608902 -1.45362 0
M  V30 5876 C 558.154 0.110969 -2.34337 0
M  V30 5877 C 559.17 0.859007 -1.51318 0
M  V30 5878 O 560.346 0.816296 -1.84116 0
M  V30 5879 C 557.411 1.09494 -3.28956 0
M  V30 5880 C 556.472 0.348718 -4.27881 0
M  V30 5881 C 555.705 1.28582 -5.17979 0
M  V30 5882 O 555.928 2.52369 -5.11533 0
M  V30 5883 O 554.862 0.782172 -5.96796 0
M  V30 5884 H 558.688 -0.620258 -2.97299 0
M  V30 5885 H 556.273 -0.36916 -1.44767 0
M  V30 5886 H 558.155 1.66163 -3.87257 0
M  V30 5887 H 556.83 1.80717 -2.68557 0
M  V30 5888 H 555.737 -0.260465 -3.73192 0
M  V30 5889 H 557.07 -0.323049 -4.91139 0
M  V30 5890 N 558.722 1.53707 -0.348139 0
M  V30 5891 C 559.685 2.23812 0.494058 0
M  V30 5892 C 560.685 1.23989 1.02388 0
M  V30 5893 O 561.875 1.48395 0.912396 0
M  V30 5894 C 559.007 2.96133 1.68872 0
M  V30 5895 H 560.2 2.99663 -0.119141 0
M  V30 5896 H 557.753 1.55983 -0.0995539 0
M  V30 5897 H 558.488 2.24481 2.34049 0
M  V30 5898 H 558.273 3.69357 1.31596 0
M  V30 5899 H 559.763 3.49475 2.28597 0
M  V30 5900 N 560.2 0.0768682 1.57412 0
M  V30 5901 C 561.449 -0.590679 1.92857 0
M  V30 5902 C 561.762 -1.70461 0.959293 0
M  V30 5903 O 562.968 -2.43207 1.20675 0
M  V30 5904 C 561.424 -1.10204 3.42612 0
M  V30 5905 C 561.032 -0.0188447 4.47996 0
M  V30 5906 C 562.776 -1.74336 3.87049 0
M  V30 5907 C 560.683 -0.544536 5.88888 0
M  V30 5908 H 559.613 -0.224411 0.71983 0
M  V30 5909 H 562.264 0.149924 1.82887 0
M  V30 5910 H 560.646 -1.89577 3.47673 0
M  V30 5911 H 561.82 0.755936 4.54557 0
M  V30 5912 H 560.135 0.526555 4.13057 0
M  V30 5913 H 562.732 -2.14708 4.89699 0
M  V30 5914 H 563.075 -2.60537 3.24694 0
M  V30 5915 H 563.608 -1.01577 3.84613 0
M  V30 5916 H 560.347 0.280426 6.549 0
M  V30 5917 H 559.867 -1.28673 5.85836 0
M  V30 5918 H 561.546 -1.01933 6.3892 0
M  V30 5919 N 561.678 -1.56367 -0.196722 0
M  V30 5920 C 563.094 -1.49916 -0.54749 0
M  V30 5921 C 563.294 -0.77659 -1.85934 0
M  V30 5922 O 562.35 -0.32644 -2.50381 0
M  V30 5923 C 563.663 -2.94577 -0.603734 0
M  V30 5924 C 565.211 -3.05239 -0.692677 0
M  V30 5925 C 565.686 -4.51308 -0.780046 0
M  V30 5926 N 567.177 -4.55453 -0.843616 0
M  V30 5927 C 567.912 -5.65786 -0.931358 0
M  V30 5928 N 567.408 -6.85812 -0.981503 0
M  V30 5929 N 569.201 -5.53695 -0.968421 0
M  V30 5930 H 561.352 -2.01761 0.663803 0
M  V30 5931 H 563.615 -0.918094 0.236238 0
M  V30 5932 H 563.321 -3.50494 0.29105 0
M  V30 5933 H 563.195 -3.47841 -1.45898 0
M  V30 5934 H 565.582 -2.49372 -1.57789 0
M  V30 5935 H 565.663 -2.55103 0.188736 0
M  V30 5936 H 565.307 -5.078 0.100811 0
M  V30 5937 H 565.237 -4.99176 -1.67724 0
M  V30 5938 H 567.728 -3.69025 -0.814176 0
M  V30 5939 H 568.041 -7.65648 -1.04892 0
M  V30 5940 H 566.386 -6.88474 -0.950208 0
M  V30 5941 H 569.577 -4.58848 -0.926072 0
M  V30 5942 H 569.75 -6.39708 -1.03334 0
M  V30 5943 N 563.156 0.464375 -1.50603 0
M  V30 5944 C 564.089 1.58052 -1.64605 0
M  V30 5945 C 565.067 1.54914 -0.494016 0
M  V30 5946 O 566.251 1.74438 -0.714393 0
M  V30 5947 C 563.378 2.96634 -1.63481 0
M  V30 5948 C 562.424 3.17901 -2.84325 0
M  V30 5949 S 563.257 2.97083 -4.45536 0
M  V30 5950 C 564.413 4.37994 -4.47115 0
M  V30 5951 H 564.646 1.45937 -2.59017 0
M  V30 5952 H 562.179 0.652189 -1.39949 0
M  V30 5953 H 564.137 3.76527 -1.63517 0
M  V30 5954 H 562.798 3.06134 -0.702928 0
M  V30 5955 H 561.991 4.19158 -2.79862 0
M  V30 5956 H 561.593 2.45792 -2.81891 0
M  V30 5957 H 563.885 5.30743 -4.21091 0
M  V30 5958 H 564.828 4.47499 -5.48772 0
M  V30 5959 H 565.236 4.20386 -3.76743 0
M  V30 5960 N 564.634 1.40294 0.718013 0
M  V30 5961 C 565.882 1.38167 1.47494 0
M  V30 5962 C 566.203 -0.01607 1.94993 0
M  V30 5963 O 565.473 -0.970396 1.70177 0
M  V30 5964 H 564.053 0.508505 0.547203 0
M  V30 5965 H 566.715 1.75324 0.851322 0
M  V30 5966 H 565.811 2.05503 2.34894 0
M  V30 5967 N 566.112 -0.949982 1.2575 0
M  V30 5968 C 567.359 -1.69515 1.10774 0
M  V30 5969 C 567.687 -1.91316 -0.350479 0
M  V30 5970 O 566.942 -1.48515 -1.27443 0
M  V30 5971 C 567.241 -3.08039 1.81237 0
M  V30 5972 C 566.907 -3.06023 3.31151 0
M  V30 5973 C 565.569 -3.0518 3.72047 0
M  V30 5974 C 567.921 -2.98998 4.26907 0
M  V30 5975 C 565.249 -2.95067 5.07102 0
M  V30 5976 C 567.601 -2.90426 5.61992 0
M  V30 5977 C 566.265 -2.87922 6.0221 0
M  V30 5978 H 565.535 -0.6203 0.405351 0
M  V30 5979 H 568.182 -1.10953 1.56082 0
M  V30 5980 H 566.487 -3.70172 1.28373 0
M  V30 5981 H 568.184 -3.64526 1.67098 0
M  V30 5982 H 564.774 -3.07453 2.98614 0
M  V30 5983 H 568.958 -2.98764 3.963 0
M  V30 5984 H 564.214 -2.915 5.37436 0
M  V30 5985 H 568.388 -2.83952 6.35881 0
M  V30 5986 H 566.015 -2.79841 7.06819 0
M  V30 5987 N 567.59 -1.07411 -1.15328 0
M  V30 5988 C 568.815 -0.818856 -1.90551 0
M  V30 5989 C 569.24 0.622194 -1.77512 0
M  V30 5990 O 568.598 1.43484 -1.10824 0
M  V30 5991 C 568.646 -1.23267 -3.38877 0
M  V30 5992 O 567.75 -0.378345 -4.10661 0
M  V30 5993 H 567.091 -0.29827 -0.593238 0
M  V30 5994 H 569.621 -1.43289 -1.46046 0
M  V30 5995 H 569.631 -1.20912 -3.89672 0
M  V30 5996 H 568.306 -2.28226 -3.47686 0
M  V30 5997 H 566.883 -0.464437 -3.69996 0
M  V30 5998 N 569.068 1.32177 -0.85831 0
M  V30 5999 C 570.315 1.97125 -0.463484 0
M  V30 6000 C 570.643 1.67907 0.981705 0
M  V30 6001 O 569.898 0.961717 1.70439 0
M  V30 6002 C 570.197 3.51372 -0.653658 0
M  V30 6003 C 569.863 4.00584 -2.06987 0
M  V30 6004 C 568.525 4.13733 -2.4572 0
M  V30 6005 C 570.877 4.26624 -2.99402 0
M  V30 6006 C 568.205 4.50268 -3.76132 0
M  V30 6007 C 570.557 4.64618 -4.29316 0
M  V30 6008 C 569.221 4.75975 -4.67979 0
M  V30 6009 H 568.491 0.72133 -0.169601 0
M  V30 6010 H 571.138 1.57517 -1.08907 0
M  V30 6011 H 569.443 3.91761 0.0551328 0
M  V30 6012 H 571.14 3.99655 -0.328163 0
M  V30 6013 H 567.73 3.90837 -1.75911 0
M  V30 6014 H 571.914 4.1597 -2.70708 0
M  V30 6015 H 567.17 4.57256 -4.05865 0
M  V30 6016 H 571.344 4.83722 -5.00985 0
M  V30 6017 H 568.971 5.04041 -5.69076 0
M  V30 6018 N 570.547 0.616602 1.45037 0
M  V30 6019 C 571.494 -0.0969439 2.30596 0
M  V30 6020 C 572.464 -0.851151 1.42635 0
M  V30 6021 O 573.649 -0.835092 1.71554 0
M  V30 6022 C 570.789 -1.08234 3.27688 0
M  V30 6023 C 569.902 -0.328072 4.30752 0
M  V30 6024 C 569.037 -1.30399 5.14946 0
M  V30 6025 C 568.076 -0.538049 6.09731 0
M  V30 6026 N 567.213 -1.46371 6.86673 0
M  V30 6027 H 572.053 0.63864 2.91076 0
M  V30 6028 H 569.59 0.326733 1.43425 0
M  V30 6029 H 571.548 -1.66688 3.82454 0
M  V30 6030 H 570.178 -1.78523 2.68941 0
M  V30 6031 H 569.23 0.372136 3.78575 0
M  V30 6032 H 570.542 0.269142 4.98073 0
M  V30 6033 H 569.696 -1.96032 5.74157 0
M  V30 6034 H 568.435 -1.93514 4.47665 0
M  V30 6035 H 567.44 0.131852 5.49642 0
M  V30 6036 H 568.665 0.0881732 6.79043 0
M  V30 6037 H 566.611 -2.08233 6.22073 0
M  V30 6038 H 566.528 -0.920152 7.50379 0
M  V30 6039 H 567.796 -2.10932 7.50418 0
M  V30 6040 N 572.025 -1.5352 0.356285 0
M  V30 6041 C 573.302 -1.93405 -0.292223 0
M  V30 6042 C 573.682 -1.28901 -1.67176 0
M  V30 6043 O 573.03 -0.444632 -2.24132 0
M  V30 6044 C 573.24 -3.47223 -0.35175 0
M  V30 6045 C 574.588 -4.20389 -0.596534 0
M  V30 6046 O 575.612 -3.53554 -0.433344 0
M  V30 6047 O 574.471 -5.3881 -0.913589 0
M  V30 6048 H 571.565 -0.808666 -0.173172 0
M  V30 6049 H 574.111 -1.64713 0.408391 0
M  V30 6050 H 572.883 -3.86423 0.615841 0
M  V30 6051 H 572.506 -3.8212 -1.09864 0
M  V30 6052 N 573.503 -0.0852151 -1.57369 0
M  V30 6053 C 574.752 0.580443 -1.93168 0
M  V30 6054 C 575.065 1.6995 -0.968319 0
M  V30 6055 O 576.271 2.42564 -1.21963 0
M  V30 6056 C 574.727 1.08386 -3.43192 0
M  V30 6057 C 574.335 -0.00491388 -4.48 0
M  V30 6058 C 576.079 1.72281 -3.87968 0
M  V30 6059 C 573.986 0.513299 -5.89168 0
M  V30 6060 H 572.916 0.22059 -0.72101 0
M  V30 6061 H 575.567 -0.159621 -1.82804 0
M  V30 6062 H 573.949 1.8773 -3.48674 0
M  V30 6063 H 575.123 -0.780032 -4.5415 0
M  V30 6064 H 573.438 -0.548453 -4.12772 0
M  V30 6065 H 576.035 2.12108 -4.9083 0
M  V30 6066 H 576.378 2.58811 -3.26071 0
M  V30 6067 H 576.911 0.995359 -3.85146 0
M  V30 6068 H 573.65 -0.315153 -6.54742 0
M  V30 6069 H 573.17 1.25564 -5.8651 0
M  V30 6070 H 574.849 0.985433 -6.39451 0
M  V30 6071 N 574.981 1.5647 0.188427 0
M  V30 6072 C 575.928 1.95073 1.23349 0
M  V30 6073 C 576.898 0.812238 1.44886 0
M  V30 6074 O 578.083 1.07095 1.57909 0
M  V30 6075 C 575.223 2.30124 2.57171 0
M  V30 6076 C 574.336 3.57069 2.43157 0
M  V30 6077 C 573.471 3.81411 3.69729 0
M  V30 6078 C 572.51 5.0176 3.50575 0
M  V30 6079 N 571.647 5.22321 4.69175 0
M  V30 6080 H 576.487 2.84171 0.89728 0
M  V30 6081 H 574.024 1.40623 0.431683 0
M  V30 6082 H 575.982 2.48463 3.35145 0
M  V30 6083 H 574.612 1.44159 2.88822 0
M  V30 6084 H 573.664 3.4674 1.56447 0
M  V30 6085 H 574.976 4.452 2.24942 0
M  V30 6086 H 574.13 4.00026 4.56141 0
M  V30 6087 H 572.869 2.91624 3.90905 0
M  V30 6088 H 571.874 4.83061 2.62549 0
M  V30 6089 H 573.099 5.93063 3.30837 0
M  V30 6090 H 571.045 4.35483 4.90602 0
M  V30 6091 H 570.962 6.04643 4.53809 0
M  V30 6092 H 572.23 5.45401 5.56919 0
M  V30 6093 N 576.459 -0.456382 1.50847 0
M  V30 6094 C 577.406 -1.55249 1.70782 0
M  V30 6095 C 578.376 -1.56757 0.549231 0
M  V30 6096 O 579.561 -1.74061 0.7815 0
M  V30 6097 C 576.701 -2.93118 1.82143 0
M  V30 6098 C 575.814 -3.01285 3.09598 0
M  V30 6099 C 574.949 -4.30159 3.11667 0
M  V30 6100 C 573.988 -4.32124 4.33515 0
M  V30 6101 N 573.125 -5.52492 4.3324 0
M  V30 6102 H 577.965 -1.37555 2.64353 0
M  V30 6103 H 575.502 -0.668543 1.3103 0
M  V30 6104 H 577.46 -3.73088 1.86711 0
M  V30 6105 H 576.09 -3.09413 0.919978 0
M  V30 6106 H 575.142 -2.14096 3.14431 0
M  V30 6107 H 576.454 -2.98597 3.99551 0
M  V30 6108 H 575.608 -5.18489 3.15046 0
M  V30 6109 H 574.347 -4.35477 2.1957 0
M  V30 6110 H 573.352 -3.42189 4.30333 0
M  V30 6111 H 574.577 -4.28485 5.26856 0
M  V30 6112 H 572.523 -5.58567 3.44004 0
M  V30 6113 H 572.44 -5.51605 5.16979 0
M  V30 6114 H 573.708 -6.42906 4.40786 0
M  V30 6115 N 577.937 -1.40673 -0.710563 0
M  V30 6116 C 579.186 -1.38525 -1.46607 0
M  V30 6117 C 579.499 0.0077024 -1.95598 0
M  V30 6118 O 580.705 0.151792 -2.71075 0
M  V30 6119 C 579.161 -2.43489 -2.6503 0
M  V30 6120 C 578.769 -3.88619 -2.22888 0
M  V30 6121 C 580.513 -2.50456 -3.42742 0
M  V30 6122 C 578.42 -4.85168 -3.3818 0
M  V30 6123 H 577.35 -0.515092 -0.550632 0
M  V30 6124 H 580.001 -1.66431 -0.772846 0
M  V30 6125 H 578.383 -2.0869 -3.36548 0
M  V30 6126 H 579.557 -4.32588 -1.58758 0
M  V30 6127 H 577.872 -3.85174 -1.58208 0
M  V30 6128 H 580.469 -3.19776 -4.28541 0
M  V30 6129 H 580.812 -1.53665 -3.86902 0
M  V30 6130 H 581.345 -2.84271 -2.78271 0
M  V30 6131 H 578.084 -5.8331 -2.99047 0
M  V30 6132 H 577.604 -4.4586 -4.01209 0
M  V30 6133 H 579.283 -5.05225 -4.04174 0
M  V30 6134 N 579.415 0.9433 -1.26252 0
M  V30 6135 C 580.348 2.04162 -1.01946 0
M  V30 6136 C 581.326 1.62507 0.0550808 0
M  V30 6137 O 582.51 1.883 -0.0869025 0
M  V30 6138 C 579.637 3.34313 -0.54335 0
M  V30 6139 C 578.683 3.94939 -1.61013 0
M  V30 6140 S 579.516 4.29484 -3.19849 0
M  V30 6141 C 580.672 5.62738 -2.74001 0
M  V30 6142 H 580.905 2.24466 -1.94942 0
M  V30 6143 H 578.438 1.08441 -1.09909 0
M  V30 6144 H 580.396 4.09576 -0.275315 0
M  V30 6145 H 579.057 3.11957 0.36629 0
M  V30 6146 H 578.25 4.88812 -1.22795 0
M  V30 6147 H 577.852 3.26202 -1.82943 0
M  V30 6148 H 580.144 6.41356 -2.18333 0
M  V30 6149 H 581.087 6.05839 -3.66558 0
M  V30 6150 H 581.495 5.22514 -2.13634 0
M  V30 6151 N 580.893 1.08022 1.14757 0
M  V30 6152 C 581.803 0.718292 2.23333 0
M  V30 6153 C 582.819 -0.273477 1.71837 0
M  V30 6154 O 583.995 -0.118406 2.01052 0
M  V30 6155 C 581.06 0.128855 3.4646 0
M  V30 6156 C 580.121 1.17473 4.12915 0
M  V30 6157 C 579.354 0.61333 5.30164 0
M  V30 6158 O 579.577 -0.568458 5.6756 0
M  V30 6159 O 578.511 1.3615 5.86299 0
M  V30 6160 H 582.337 1.62394 2.56636 0
M  V30 6161 H 579.922 0.853628 1.22611 0
M  V30 6162 H 581.804 -0.197249 4.20938 0
M  V30 6163 H 580.479 -0.750014 3.14891 0
M  V30 6164 H 579.386 1.5533 3.40328 0
M  V30 6165 H 580.719 2.02574 4.48581 0
M  V30 6166 N 582.371 -1.3172 0.865308 0
M  V30 6167 C 583.281 -2.32394 0.320935 0
M  V30 6168 C 584.297 -1.64511 -0.566746 0
M  V30 6169 O 585.473 -1.95969 -0.464575 0
M  V30 6170 C 582.538 -3.43462 -0.472701 0
M  V30 6171 C 581.599 -4.27015 0.442385 0
M  V30 6172 C 580.832 -5.32779 -0.313469 0
M  V30 6173 O 581.055 -5.49158 -1.54214 0
M  V30 6174 O 579.989 -6.01015 0.326257 0
M  V30 6175 H 583.815 -2.80868 1.15528 0
M  V30 6176 H 581.4 -1.35535 0.628545 0
M  V30 6177 H 583.282 -4.11172 -0.922781 0
M  V30 6178 H 581.957 -2.97159 -1.28367 0
M  V30 6179 H 580.864 -3.62075 0.940866 0
M  V30 6180 H 582.197 -4.76871 1.21882 0
M  V30 6181 N 583.85 -0.624285 -1.44708 0
M  V30 6182 C 584.797 0.0847135 -2.30644 0
M  V30 6183 C 585.767 0.843575 -1.43084 0
M  V30 6184 O 586.952 0.825982 -1.71995 0
M  V30 6185 C 584.091 1.06495 -3.28257 0
M  V30 6186 C 583.205 0.305224 -4.3092 0
M  V30 6187 C 582.34 1.27667 -5.1563 0
M  V30 6188 C 581.379 0.505706 -6.10007 0
M  V30 6189 N 580.516 1.42727 -6.8744 0
M  V30 6190 H 585.356 -0.654068 -2.90733 0
M  V30 6191 H 582.893 -0.334334 -1.4325 0
M  V30 6192 H 584.851 1.64658 -3.83332 0
M  V30 6193 H 583.481 1.77094 -2.69884 0
M  V30 6194 H 582.533 -0.392207 -3.78373 0
M  V30 6195 H 583.845 -0.295553 -4.97924 0
M  V30 6196 H 582.999 1.92984 -5.75189 0
M  V30 6197 H 581.738 1.91137 -4.48685 0
M  V30 6198 H 580.743 -0.160999 -5.49564 0
M  V30 6199 H 581.968 -0.124183 -6.78986 0
M  V30 6200 H 579.913 2.04931 -6.23169 0
M  V30 6201 H 579.831 0.880345 -7.50857 0
M  V30 6202 H 581.099 2.0695 -7.51526 0
M  V30 6203 N 585.328 1.53329 -0.364422 0
M  V30 6204 C 586.577 2.00421 0.226747 0
M  V30 6205 C 586.89 1.25581 1.49963 0
M  V30 6206 O 588.096 1.63256 2.16933 0
M  V30 6207 C 586.552 3.57017 0.454618 0
M  V30 6208 C 586.16 4.40734 -0.803568 0
M  V30 6209 C 587.904 4.12468 1.00351 0
M  V30 6210 C 585.811 5.8888 -0.545345 0
M  V30 6211 H 584.741 0.748787 0.0885082 0
M  V30 6212 H 587.392 1.7703 -0.482983 0
M  V30 6213 H 585.774 3.76558 1.22558 0
M  V30 6214 H 586.948 4.32967 -1.57723 0
M  V30 6215 H 585.263 3.96381 -1.27559 0
M  V30 6216 H 587.86 5.20783 1.212 0
M  V30 6217 H 588.203 3.6699 1.9653 0
M  V30 6218 H 588.736 3.96721 0.29274 0
M  V30 6219 H 585.475 6.38633 -1.47743 0
M  V30 6220 H 584.995 5.99499 0.189842 0
M  V30 6221 H 586.674 6.46776 -0.170425 0
M  V30 6222 N 586.806 0.0935595 1.57322 0
M  V30 6223 C 587.738 -0.895923 2.10964 0
M  V30 6224 C 588.751 -1.24705 1.04654 0
M  V30 6225 O 589.94 -1.20044 1.32105 0
M  V30 6226 C 587.04 -2.20546 2.57318 0
M  V30 6227 C 586.213 -2.0299 3.87445 0
M  V30 6228 C 585.272 -3.17443 4.19662 0
M  V30 6229 O 584.298 -2.91474 4.88909 0
M  V30 6230 N 585.5 -4.43168 3.74943 0
M  V30 6231 H 588.265 -0.437788 2.96485 0
M  V30 6232 H 585.826 -0.0915863 1.61641 0
M  V30 6233 H 587.818 -2.9606 2.75917 0
M  V30 6234 H 586.388 -2.57789 1.76816 0
M  V30 6235 H 585.608 -1.11815 3.78009 0
M  V30 6236 H 586.896 -1.88535 4.7258 0
M  V30 6237 H 586.294 -4.67149 3.19043 0
M  V30 6238 H 584.851 -5.15637 3.987 0
M  V30 6239 N 588.284 -1.56567 -0.180126 0
M  V30 6240 C 589.533 -1.80685 -0.896426 0
M  V30 6241 C 589.846 -0.669335 -1.83791 0
M  V30 6242 O 591.052 -0.795209 -2.59593 0
M  V30 6243 C 589.508 -3.20132 -1.6445 0
M  V30 6244 C 589.116 -4.41727 -0.747088 0
M  V30 6245 C 590.86 -3.53549 -2.34955 0
M  V30 6246 C 588.767 -5.72195 -1.49489 0
M  V30 6247 H 587.697 -0.673758 -0.338477 0
M  V30 6248 H 590.348 -1.8289 -0.149467 0
M  V30 6249 H 588.73 -3.12218 -2.43589 0
M  V30 6250 H 589.904 -4.608 0.00671129 0
M  V30 6251 H 588.219 -4.16122 -0.152134 0
M  V30 6252 H 590.816 -4.48267 -2.91481 0
M  V30 6253 H 591.159 -2.78006 -3.09868 0
M  V30 6254 H 591.692 -3.62976 -1.62768 0
M  V30 6255 H 588.431 -6.50743 -0.788251 0
M  V30 6256 H 587.951 -5.57115 -2.22224 0
M  V30 6257 H 589.63 -6.1384 -2.04472 0
M  V30 6258 N 589.762 0.448376 -1.51087 0
M  V30 6259 C 590.987 1.22605 -1.6728 0
M  V30 6260 C 591.412 1.84524 -0.365045 0
M  V30 6261 O 590.77 1.6832 0.673642 0
M  V30 6262 C 590.818 2.29393 -2.78229 0
M  V30 6263 O 589.922 3.34608 -2.41063 0
M  V30 6264 H 589.263 0.359705 -0.558129 0
M  V30 6265 H 591.793 0.530903 -1.97592 0
M  V30 6266 H 591.803 2.74352 -3.01986 0
M  V30 6267 H 590.478 1.83701 -3.73131 0
M  V30 6268 H 589.055 2.95202 -2.27838 0
M  V30 6269 N 591.24 1.41047 0.703093 0
M  V30 6270 C 592.488 1.39723 1.4602 0
M  V30 6271 C 592.809 0.00461257 1.94999 0
M  V30 6272 O 592.079 -0.952292 1.71196 0
M  V30 6273 H 590.659 0.514281 0.541779 0
M  V30 6274 H 593.321 1.76217 0.832678 0
M  V30 6275 H 592.417 2.07982 2.32701 0
M  V30 6276 N 592.718 -0.936591 1.26751 0
M  V30 6277 C 593.943 -1.72288 1.15462 0
M  V30 6278 C 594.368 -1.85915 -0.285887 0
M  V30 6279 O 593.726 -1.35272 -1.20711 0
M  V30 6280 C 593.774 -3.10503 1.83359 0
M  V30 6281 O 592.878 -3.96745 1.1255 0
M  V30 6282 H 592.219 -0.52843 0.402067 0
M  V30 6283 H 594.749 -1.17271 1.67656 0
M  V30 6284 H 594.759 -3.60867 1.90365 0
M  V30 6285 H 593.434 -2.99901 2.88153 0
M  V30 6286 H 592.011 -3.55191 1.13551 0
M  V30 6287 N 594.196 -1.08629 -1.14182 0
M  V30 6288 C 595.144 -0.71284 -2.21408 0
M  V30 6289 C 596.138 0.282457 -1.67029 0
M  V30 6290 O 597.344 0.144783 -1.79417 0
M  V30 6291 H 593.719 -0.212497 -0.721352 0
M  V30 6292 H 595.69 -1.6265 -2.50175 0
M  V30 6293 C 594.439 -0.140704 -3.47415 0
M  V30 6294 H 593.762 -0.897739 -3.8959 0
M  V30 6295 H 595.202 0.0827677 -4.23919 0
M  V30 6296 C 593.661 1.122 -3.17668 0
M  V30 6297 O 594.191 2.20652 -3.35672 0
M  V30 6298 N 592.397 1.03328 -2.71609 0
M  V30 6299 H 591.944 0.150666 -2.57159 0
M  V30 6300 H 591.902 1.8789 -2.52081 0
M  V30 6301 N 595.674 1.31259 -0.872281 0
M  V30 6302 C 596.904 2.00504 -0.498183 0
M  V30 6303 C 597.312 1.65632 0.914479 0
M  V30 6304 O 596.655 0.882849 1.61095 0
M  V30 6305 C 596.717 3.5482 -0.578194 0
M  V30 6306 C 596.381 4.13172 -1.95289 0
M  V30 6307 C 597.378 4.30107 -2.92069 0
M  V30 6308 C 595.063 4.48846 -2.25483 0
M  V30 6309 C 597.057 4.81908 -4.17185 0
M  V30 6310 C 594.744 5.00349 -3.50847 0
M  V30 6311 C 595.742 5.16831 -4.46514 0
M  V30 6312 O 595.43 5.67228 -5.69656 0
M  V30 6313 H 595.162 0.648055 -0.192354 0
M  V30 6314 H 597.716 1.6841 -1.17589 0
M  V30 6315 H 595.946 3.86383 0.156438 0
M  V30 6316 H 597.635 4.05318 -0.217192 0
M  V30 6317 H 598.401 4.02862 -2.7005 0
M  V30 6318 H 594.28 4.35292 -1.51795 0
M  V30 6319 H 597.824 4.94688 -4.91863 0
M  V30 6320 H 593.721 5.27028 -3.72708 0
M  V30 6321 H 594.489 5.85592 -5.7186 0
M  V30 6322 N 597.152 0.631951 1.44375 0
M  V30 6323 C 598.099 -0.0724807 2.30686 0
M  V30 6324 C 599.069 -0.835975 1.43529 0
M  V30 6325 O 600.254 -0.816849 1.7243 0
M  V30 6326 C 597.394 -1.04753 3.28817 0
M  V30 6327 C 596.507 -0.282367 4.31076 0
M  V30 6328 C 595.642 -1.2493 5.163 0
M  V30 6329 C 594.681 -0.473349 6.10267 0
M  V30 6330 N 593.818 -1.39079 6.88187 0
M  V30 6331 H 598.658 0.669477 2.90383 0
M  V30 6332 H 596.195 0.341927 1.43071 0
M  V30 6333 H 598.153 -1.62623 3.842 0
M  V30 6334 H 596.783 -1.75661 2.70819 0
M  V30 6335 H 595.835 0.412268 3.78159 0
M  V30 6336 H 597.147 0.321955 4.9776 0
M  V30 6337 H 596.301 -1.89931 5.76204 0
M  V30 6338 H 595.04 -1.88755 4.49692 0
M  V30 6339 H 594.045 0.190142 5.49471 0
M  V30 6340 H 595.27 0.16019 6.78911 0
M  V30 6341 H 593.216 -2.01623 6.24247 0
M  V30 6342 H 593.133 -0.840513 7.51313 0
M  V30 6343 H 594.401 -2.02961 7.52613 0
M  V30 6344 N 598.631 -1.53133 0.372548 0
M  V30 6345 C 599.856 -2.0625 -0.218098 0
M  V30 6346 C 600.281 -1.24375 -1.41111 0
M  V30 6347 O 599.639 -0.264554 -1.79359 0
M  V30 6348 C 599.687 -3.55858 -0.582876 0
M  V30 6349 O 598.791 -3.76667 -1.67917 0
M  V30 6350 H 598.132 -0.663317 -0.030104 0
M  V30 6351 H 600.662 -1.97477 0.535169 0
M  V30 6352 H 600.672 -3.99007 -0.851925 0
M  V30 6353 H 599.347 -4.14892 0.289428 0
M  V30 6354 H 597.924 -3.45413 -1.40513 0
M  V30 6355 N 600.109 -0.101901 -1.5727 0
M  V30 6356 C 601.039 0.851544 -2.17419 0
M  V30 6357 C 602.02 1.28942 -1.10941 0
M  V30 6358 O 603.205 1.35509 -1.39107 0
M  V30 6359 C 600.335 2.10816 -2.75996 0
M  V30 6360 C 599.289 1.80867 -3.87906 0
M  V30 6361 C 598.615 3.13413 -4.33216 0
M  V30 6362 C 599.915 1.0903 -5.10793 0
M  V30 6363 H 601.609 0.350381 -2.97343 0
M  V30 6364 H 599.155 0.16709 -1.43027 0
M  V30 6365 H 601.108 2.77959 -3.16729 0
M  V30 6366 H 599.832 2.63227 -1.93337 0
M  V30 6367 H 598.491 1.16119 -3.47724 0
M  V30 6368 H 598.139 3.63725 -3.47438 0
M  V30 6369 H 597.839 2.94155 -5.08671 0
M  V30 6370 H 599.363 3.81704 -4.76586 0
M  V30 6371 H 600.777 1.66295 -5.48652 0
M  V30 6372 H 599.174 0.99927 -5.91722 0
M  V30 6373 H 600.244 0.0741704 -4.84843 0
M  V30 6374 N 601.587 1.56661 0.17182 0
M  V30 6375 C 602.497 1.99604 1.2327 0
M  V30 6376 C 603.513 0.907333 1.4847 0
M  V30 6377 O 604.689 1.21492 1.60629 0
M  V30 6378 C 601.754 2.34685 2.55194 0
M  V30 6379 C 600.815 3.57381 2.3786 0
M  V30 6380 C 600.048 3.90779 3.63494 0
M  V30 6381 O 600.271 3.25152 4.6865 0
M  V30 6382 O 599.205 4.84129 3.57634 0
M  V30 6383 H 603.031 2.90114 0.898192 0
M  V30 6384 H 600.616 1.44522 0.378647 0
M  V30 6385 H 602.498 2.5822 3.33017 0
M  V30 6386 H 601.173 1.47336 2.88225 0
M  V30 6387 H 600.08 3.39064 1.5807 0
M  V30 6388 H 601.413 4.45268 2.09754 0
M  V30 6389 N 603.065 -0.440357 1.51323 0
M  V30 6390 C 604.311 -1.19181 1.64085 0
M  V30 6391 C 604.644 -1.90936 0.354575 0
M  V30 6392 O 603.919 -1.8347 -0.645675 0
M  V30 6393 C 604.202 -2.2112 2.84215 0
M  V30 6394 C 604.055 -1.53468 4.22809 0
M  V30 6395 C 605.374 -3.22133 2.99864 0
M  V30 6396 H 602.493 -0.431924 0.597169 0
M  V30 6397 H 605.135 -0.481443 1.83799 0
M  V30 6398 H 603.285 -2.81703 2.67537 0
M  V30 6399 H 604.957 -0.962455 4.51148 0
M  V30 6400 H 603.2 -0.837086 4.25647 0
M  V30 6401 H 603.871 -2.27694 5.02852 0
M  V30 6402 H 606.347 -2.71601 3.15233 0
M  V30 6403 H 605.223 -3.90756 3.85488 0
M  V30 6404 H 605.484 -3.88061 2.11804 0
M  V30 6405 N 604.543 -1.41418 -0.695603 0
M  V30 6406 C 605.473 -1.46035 -1.82197 0
M  V30 6407 C 606.454 -0.319025 -1.67082 0
M  V30 6408 O 607.639 -0.530462 -1.86815 0
M  V30 6409 C 604.769 -1.34179 -3.20333 0
M  V30 6410 C 603.723 -2.46123 -3.50154 0
M  V30 6411 C 603.049 -2.19332 -4.87645 0
M  V30 6412 C 604.349 -3.88463 -3.49133 0
M  V30 6413 H 606.043 -2.40303 -1.78591 0
M  V30 6414 H 603.589 -1.15663 -0.857797 0
M  V30 6415 H 605.542 -1.36021 -3.98844 0
M  V30 6416 H 604.266 -0.363952 -3.24566 0
M  V30 6417 H 602.925 -2.43563 -2.73994 0
M  V30 6418 H 602.573 -1.19891 -4.88503 0
M  V30 6419 H 602.273 -2.94344 -5.08562 0
M  V30 6420 H 603.797 -2.22889 -5.68465 0
M  V30 6421 H 605.211 -3.92738 -4.17648 0
M  V30 6422 H 603.608 -4.63158 -3.81582 0
M  V30 6423 H 604.678 -4.16617 -2.48109 0
M  V30 6424 N 606.021 0.929856 -1.27246 0
M  V30 6425 C 607.267 1.6798 -1.13625 0
M  V30 6426 C 607.6 1.91586 0.317589 0
M  V30 6427 O 606.875 1.50467 1.23247 0
M  V30 6428 C 607.158 3.04766 -1.91806 0
M  V30 6429 C 607.011 2.88415 -3.45162 0
M  V30 6430 C 608.33 4.05063 -1.72082 0
M  V30 6431 H 605.449 0.609632 -0.414147 0
M  V30 6432 H 608.091 1.0792 -1.56376 0
M  V30 6433 H 606.241 3.56034 -1.55474 0
M  V30 6434 H 607.913 2.44282 -3.91311 0
M  V30 6435 H 606.156 2.23802 -3.71611 0
M  V30 6436 H 606.827 3.85482 -3.95105 0
M  V30 6437 H 609.303 3.62798 -2.03757 0
M  V30 6438 H 608.179 4.98765 -2.29182 0
M  V30 6439 H 608.44 4.37021 -0.668206 0
M  V30 6440 N 607.499 1.09233 1.13605 0
M  V30 6441 C 608.462 0.733553 2.17144 0
M  V30 6442 C 609.462 -0.235873 1.59061 0
M  V30 6443 O 610.652 -0.0143167 1.74194 0
M  V30 6444 C 607.784 0.084471 3.40795 0
M  V30 6445 H 608.977 1.65049 2.50397 0
M  V30 6446 H 606.53 0.891264 1.28399 0
M  V30 6447 H 607.265 -0.843795 3.1313 0
M  V30 6448 H 607.05 0.781985 3.84223 0
M  V30 6449 H 608.54 -0.151216 4.17326 0
M  V30 6450 N 608.977 -1.30795 0.87923 0
M  V30 6451 C 610.254 -1.91145 0.415086 0
M  V30 6452 C 610.634 -1.7995 -1.10368 0
M  V30 6453 O 609.982 -1.21305 -1.93642 0
M  V30 6454 C 610.192 -3.37014 0.906778 0
M  V30 6455 C 611.54 -4.14101 0.938358 0
M  V30 6456 O 612.564 -3.45834 0.853053 0
M  V30 6457 O 611.423 -5.36054 1.06342 0
M  V30 6458 H 608.517 -0.81736 0.125905 0
M  V30 6459 H 611.063 -1.39401 0.967753 0
M  V30 6460 H 609.835 -3.3922 1.95053 0
M  V30 6461 H 609.458 -3.96204 0.332948 0
M  V30 6462 N 610.455 -0.639598 -1.44038 0
M  V30 6463 C 611.385 0.0469443 -2.33453 0
M  V30 6464 C 612.366 0.82609 -1.48694 0
M  V30 6465 O 613.551 0.790285 -1.77393 0
M  V30 6466 C 610.681 1.02338 -3.3188 0
M  V30 6467 C 609.635 0.355284 -4.26523 0
M  V30 6468 C 608.961 1.44221 -5.14883 0
M  V30 6469 C 610.261 -0.743798 -5.16977 0
M  V30 6470 H 611.955 -0.699735 -2.91108 0
M  V30 6471 H 609.501 -0.337946 -1.39978 0
M  V30 6472 H 611.454 1.51247 -3.93322 0
M  V30 6473 H 610.178 1.80105 -2.72451 0
M  V30 6474 H 608.837 -0.113239 -3.66425 0
M  V30 6475 H 608.485 2.21097 -4.51802 0
M  V30 6476 H 608.185 1.00052 -5.79019 0
M  V30 6477 H 609.709 1.93295 -5.79197 0
M  V30 6478 H 611.123 -0.337444 -5.72306 0
M  V30 6479 H 609.52 -1.10914 -5.89761 0
M  V30 6480 H 610.59 -1.60745 -4.57481 0
M  V30 6481 N 611.933 1.52934 -0.380664 0
M  V30 6482 C 613.179 2.01765 0.20458 0
M  V30 6483 C 613.512 1.26696 1.47179 0
M  V30 6484 O 612.787 0.364936 1.91046 0
M  V30 6485 C 613.07 3.56869 0.481269 0
M  V30 6486 C 612.923 4.42617 -0.800629 0
M  V30 6487 C 614.242 4.2121 1.27554 0
M  V30 6488 H 611.361 0.733388 0.0728803 0
M  V30 6489 H 614.003 1.83068 -0.50853 0
M  V30 6490 H 612.153 3.72932 1.08875 0
M  V30 6491 H 613.825 4.38323 -1.43773 0
M  V30 6492 H 612.068 4.09977 -1.4178 0
M  V30 6493 H 612.739 5.49134 -0.561791 0
M  V30 6494 H 615.215 4.09072 0.761514 0
M  V30 6495 H 614.091 5.29732 1.43788 0
M  V30 6496 H 614.352 3.78269 2.28833 0
M  V30 6497 N 613.412 0.11024 1.57214 0
M  V30 6498 C 614.36 -0.860586 2.16094 0
M  V30 6499 C 615.354 -1.28156 1.1078 0
M  V30 6500 O 616.56 -1.25433 1.29099 0
M  V30 6501 H 612.935 -0.295606 0.691463 0
M  V30 6502 H 614.906 -0.33942 2.96463 0
M  V30 6503 C 613.655 -2.10421 2.768 0
M  V30 6504 H 612.978 -1.7892 3.5753 0
M  V30 6505 H 614.418 -2.76375 3.21547 0
M  V30 6506 C 612.877 -2.88823 1.73444 0
M  V30 6507 O 613.407 -3.839 1.18251 0
M  V30 6508 N 611.613 -2.52649 1.43586 0
M  V30 6509 H 611.16 -1.754 1.8866 0
M  V30 6510 H 611.118 -3.05403 0.746735 0
M  V30 6511 N 614.89 -1.56749 -0.16351 0
M  V30 6512 C 615.853 -1.96121 -1.18613 0
M  V30 6513 C 616.853 -0.845765 -1.36761 0
M  V30 6514 O 618.043 -1.11268 -1.34033 0
M  V30 6515 C 615.175 -2.26282 -2.54969 0
M  V30 6516 H 616.368 -2.87639 -0.848764 0
M  V30 6517 H 613.921 -1.50928 -0.406251 0
M  V30 6518 H 614.656 -1.37504 -2.93706 0
M  V30 6519 H 614.441 -3.07595 -2.43162 0
M  V30 6520 H 615.931 -2.57638 -3.28653 0
M  V30 6521 N 616.368 0.432326 -1.51554 0
M  V30 6522 C 617.3 1.54357 -1.6943 0
M  V30 6523 C 618.313 1.52311 -0.574897 0
M  V30 6524 O 619.502 1.56997 -0.849369 0
M  V30 6525 C 616.602 2.93273 -1.69836 0
M  V30 6526 C 615.775 3.19768 -2.98442 0
M  V30 6527 C 614.834 4.38433 -2.90969 0
M  V30 6528 O 613.86 4.36842 -3.64908 0
M  V30 6529 N 615.062 5.42276 -2.07163 0
M  V30 6530 H 617.827 1.39426 -2.65293 0
M  V30 6531 H 615.388 0.621331 -1.49503 0
M  V30 6532 H 617.38 3.70687 -1.62399 0
M  V30 6533 H 615.95 3.01777 -0.815456 0
M  V30 6534 H 615.17 2.30607 -3.19709 0
M  V30 6535 H 616.458 3.343 -3.83563 0
M  V30 6536 H 615.856 5.46407 -1.46477 0
M  V30 6537 H 614.413 6.18524 -2.05601 0
M  V30 6538 N 617.846 1.41785 0.688094 0
M  V30 6539 C 618.793 1.44221 1.80191 0
M  V30 6540 C 619.763 0.295688 1.63447 0
M  V30 6541 O 620.948 0.49783 1.84191 0
M  V30 6542 C 618.088 1.33743 3.1813 0
M  V30 6543 C 617.201 2.58325 3.46254 0
M  V30 6544 C 616.336 2.40086 4.73848 0
M  V30 6545 C 615.375 3.60107 4.94964 0
M  V30 6546 N 614.512 3.40892 6.13789 0
M  V30 6547 H 619.352 2.39411 1.77444 0
M  V30 6548 H 616.889 1.18876 0.866423 0
M  V30 6549 H 618.847 1.25669 3.97823 0
M  V30 6550 H 617.477 0.42157 3.20035 0
M  V30 6551 H 616.529 2.7682 2.60912 0
M  V30 6552 H 617.841 3.4758 3.57756 0
M  V30 6553 H 616.995 2.29522 5.61609 0
M  V30 6554 H 615.734 1.483 4.64606 0
M  V30 6555 H 614.739 3.71118 4.05649 0
M  V30 6556 H 615.964 4.52857 5.06061 0
M  V30 6557 H 613.91 2.51812 6.05745 0
M  V30 6558 H 613.827 4.23727 6.26092 0
M  V30 6559 H 615.095 3.34114 7.04264 0
M  V30 6560 N 619.324 -0.923095 1.27737 0
M  V30 6561 C 620.601 -1.64989 1.05062 0
M  V30 6562 C 620.981 -2.07018 -0.413124 0
M  V30 6563 O 620.329 -1.80797 -1.39731 0
M  V30 6564 C 620.539 -2.84847 2.01652 0
M  V30 6565 C 621.887 -3.56083 2.31279 0
M  V30 6566 O 622.911 -2.94981 1.99662 0
M  V30 6567 O 621.77 -4.66182 2.85196 0
M  V30 6568 H 618.864 -0.723357 0.400853 0
M  V30 6569 H 621.41 -0.973224 1.3902 0
M  V30 6570 H 620.182 -2.50814 3.00347 0
M  V30 6571 H 619.805 -3.60231 1.68284 0
M  V30 6572 N 620.802 -1.09834 -1.13024 0
M  V30 6573 C 622.027 -0.85909 -1.88771 0
M  V30 6574 C 622.452 0.584402 -1.78791 0
M  V30 6575 O 621.81 1.41101 -1.13842 0
M  V30 6576 C 621.858 -1.30427 -3.36186 0
M  V30 6577 O 620.962 -0.465368 -4.09766 0
M  V30 6578 H 620.303 -0.310786 -0.586778 0
M  V30 6579 H 622.833 -1.46355 -1.42973 0
M  V30 6580 H 622.843 -1.2915 -3.8702 0
M  V30 6581 H 621.518 -2.3555 -3.42767 0
M  V30 6582 H 620.095 -0.542814 -3.68928 0
M  V30 6583 N 622.28 1.30327 -0.886154 0
M  V30 6584 C 623.213 2.26241 -0.298407 0
M  V30 6585 C 624.191 1.51839 0.581704 0
M  V30 6586 O 625.375 1.80851 0.531536 0
M  V30 6587 C 622.502 3.33768 0.575888 0
M  V30 6588 C 621.548 4.25852 -0.235057 0
M  V30 6589 S 622.381 5.10277 -1.62411 0
M  V30 6590 C 623.537 6.21313 -0.756368 0
M  V30 6591 H 623.77 2.75744 -1.11141 0
M  V30 6592 H 621.303 1.38341 -0.685651 0
M  V30 6593 H 623.261 3.96186 1.07458 0
M  V30 6594 H 621.922 2.82986 1.363 0
M  V30 6595 H 621.115 5.02143 0.432198 0
M  V30 6596 H 620.717 3.68015 -0.666409 0
M  V30 6597 H 623.009 6.77495 0.0261451 0
M  V30 6598 H 623.952 6.92226 -1.49093 0
M  V30 6599 H 624.36 5.63611 -0.316749 0
M  V30 6600 N 623.758 0.647228 1.43697 0
M  V30 6601 C 624.69 -0.0866232 2.29036 0
M  V30 6602 C 625.703 -0.793051 1.42178 0
M  V30 6603 O 626.892 -0.651807 1.66174 0
M  V30 6604 C 623.992 -1.14552 3.18953 0
M  V30 6605 C 623.165 -0.518422 4.34317 0
M  V30 6606 C 622.224 -1.4734 5.05151 0
M  V30 6607 O 621.25 -0.984312 5.60625 0
M  V30 6608 N 622.452 -2.8075 5.08094 0
M  V30 6609 H 625.217 0.645834 2.92659 0
M  V30 6610 H 622.778 0.489567 1.54321 0
M  V30 6611 H 624.77 -1.78505 3.63205 0
M  V30 6612 H 623.34 -1.78001 2.56971 0
M  V30 6613 H 622.56 0.300079 3.93056 0
M  V30 6614 H 623.848 -0.080401 5.08736 0
M  V30 6615 H 623.246 -3.23052 4.64386 0
M  V30 6616 H 621.803 -3.40022 5.56083 0
M  V30 6617 N 625.236 -1.5273 0.388769 0
M  V30 6618 C 626.513 -1.93981 -0.251133 0
M  V30 6619 C 626.893 -1.32418 -1.64404 0
M  V30 6620 O 626.241 -0.492074 -2.23139 0
M  V30 6621 C 626.451 -3.47891 -0.27802 0
M  V30 6622 C 627.799 -4.21559 -0.507229 0
M  V30 6623 O 628.823 -3.54394 -0.358252 0
M  V30 6624 O 627.682 -5.40626 -0.799094 0
M  V30 6625 H 624.776 -0.812157 -0.15598 0
M  V30 6626 H 627.322 -1.63809 0.443237 0
M  V30 6627 H 626.094 -3.8503 0.697669 0
M  V30 6628 H 625.717 -3.84364 -1.01733 0
M  V30 6629 N 626.714 -0.118576 -1.57153 0
M  V30 6630 C 627.624 0.845484 -2.18835 0
M  V30 6631 C 628.64 1.29299 -1.16438 0
M  V30 6632 O 629.816 1.35607 -1.48905 0
M  V30 6633 C 626.881 2.07795 -2.77529 0
M  V30 6634 C 625.942 1.6824 -3.9496 0
M  V30 6635 C 625.175 2.85612 -4.50845 0
M  V30 6636 O 625.398 4.01025 -4.05629 0
M  V30 6637 O 624.332 2.62721 -5.41536 0
M  V30 6638 H 628.158 0.350568 -3.0167 0
M  V30 6639 H 625.743 0.107013 -1.49016 0
M  V30 6640 H 627.625 2.79978 -3.14945 0
M  V30 6641 H 626.3 2.56294 -1.97725 0
M  V30 6642 H 625.207 0.931663 -3.62313 0
M  V30 6643 H 626.54 1.24484 -4.76198 0
M  V30 6644 N 628.193 1.56834 0.155195 0
M  V30 6645 C 629.418 1.87412 0.888337 0
M  V30 6646 C 629.843 0.70671 1.74319 0
M  V30 6647 O 629.201 -0.343892 1.78009 0
M  V30 6648 C 629.249 3.1652 1.72765 0
M  V30 6649 O 628.353 2.99877 2.83103 0
M  V30 6650 H 627.694 0.615983 0.247914 0
M  V30 6651 H 630.224 2.04061 0.148478 0
M  V30 6652 H 630.234 3.48334 2.12433 0
M  V30 6653 H 628.909 4.01094 1.09985 0
M  V30 6654 H 627.486 2.79453 2.46902 0
M  V30 6655 N 629.671 -0.424282 1.51781 0
M  V30 6656 C 630.896 -1.19928 1.6921 0
M  V30 6657 C 631.321 -1.8392 0.394355 0
M  V30 6658 O 630.679 -1.69371 -0.646778 0
M  V30 6659 C 630.727 -2.24937 2.81843 0
M  V30 6660 O 629.831 -3.3073 2.46356 0
M  V30 6661 H 629.172 -0.35078 0.563781 0
M  V30 6662 H 631.702 -0.499401 1.98412 0
M  V30 6663 H 631.712 -2.69512 3.06312 0
M  V30 6664 H 630.387 -1.77742 3.76006 0
M  V30 6665 H 628.964 -2.9154 2.32505 0
M  V30 6666 N 631.149 -1.42148 -0.680565 0
M  V30 6667 C 632.081 -1.41119 -1.80605 0
M  V30 6668 C 633.094 -0.311099 -1.598 0
M  V30 6669 O 634.283 -0.573813 -1.69026 0
M  V30 6670 C 631.383 -1.18204 -3.17618 0
M  V30 6671 C 630.556 -2.40537 -3.65322 0
M  V30 6672 C 629.615 -2.13254 -4.8105 0
M  V30 6673 O 628.641 -2.8641 -4.91892 0
M  V30 6674 N 629.843 -1.13208 -5.69354 0
M  V30 6675 H 632.608 -2.38128 -1.81975 0
M  V30 6676 H 630.169 -1.36953 -0.863446 0
M  V30 6677 H 632.161 -0.97878 -3.92686 0
M  V30 6678 H 630.731 -0.29738 -3.11182 0
M  V30 6679 H 629.951 -2.76468 -2.80996 0
M  V30 6680 H 631.239 -3.22012 -3.93936 0
M  V30 6681 H 630.637 -0.526893 -5.63241 0
M  V30 6682 H 629.194 -0.988699 -6.44258 0
M  V30 6683 N 632.627 0.916307 -1.28225 0
M  V30 6684 C 633.855 1.69901 -1.18073 0
M  V30 6685 C 634.27 1.86988 0.260968 0
M  V30 6686 O 633.627 1.39505 1.17663 0
M  V30 6687 C 633.678 3.09254 -1.87201 0
M  V30 6688 O 633.399 2.92959 -3.2574 0
M  V30 6689 C 634.9 4.0362 -1.83319 0
M  V30 6690 H 632.12 0.531181 -0.409985 0
M  V30 6691 H 634.664 1.14703 -1.69303 0
M  V30 6692 H 632.819 3.61277 -1.39848 0
M  V30 6693 H 633.233 3.81139 -3.60324 0
M  V30 6694 H 634.707 4.98873 -2.36282 0
M  V30 6695 H 635.184 4.3176 -0.805007 0
M  V30 6696 H 635.79 3.57524 -2.3034 0
M  V30 6697 N 634.105 1.10431 1.1244 0
M  V30 6698 C 635.33 0.869089 1.88313 0
M  V30 6699 C 635.755 -0.574912 1.79099 0
M  V30 6700 O 635.113 -1.40496 1.14589 0
M  V30 6701 C 635.161 1.32208 3.3549 0
M  V30 6702 O 634.265 0.487092 4.09513 0
M  V30 6703 H 633.606 0.313894 0.585121 0
M  V30 6704 H 636.136 1.47111 1.42195 0
M  V30 6705 H 636.146 1.31201 3.86329 0
M  V30 6706 H 634.821 2.37364 3.41513 0
M  V30 6707 H 633.398 0.562372 3.68635 0
M  V30 6708 N 635.583 -1.29855 0.893053 0
M  V30 6709 C 636.513 -2.3035 0.382249 0
M  V30 6710 C 637.494 -1.61328 -0.539203 0
M  V30 6711 O 638.679 -1.88882 -0.451342 0
M  V30 6712 C 635.809 -3.45024 -0.396983 0
M  V30 6713 C 634.763 -4.258 0.433437 0
M  V30 6714 C 634.089 -5.32605 -0.472889 0
M  V30 6715 C 635.389 -4.94549 1.67984 0
M  V30 6716 H 637.083 -2.73325 1.22205 0
M  V30 6717 H 634.629 -1.314 0.589073 0
M  V30 6718 H 636.582 -4.14398 -0.765024 0
M  V30 6719 H 635.306 -3.00875 -1.2705 0
M  V30 6720 H 633.965 -3.58125 0.783723 0
M  V30 6721 H 633.613 -4.84702 -1.34435 0
M  V30 6722 H 633.313 -5.87547 0.0789958 0
M  V30 6723 H 634.837 -6.04832 -0.837269 0
M  V30 6724 H 636.251 -5.56395 1.38192 0
M  V30 6725 H 634.648 -5.59393 2.17254 0
M  V30 6726 H 635.718 -4.20215 2.41965 0
M  V30 6727 N 637.061 -0.65484 -1.43351 0
M  V30 6728 C 637.993 0.0744757 -2.29079 0
M  V30 6729 C 639.006 0.7855 -1.42596 0
M  V30 6730 O 640.195 0.642986 -1.66517 0
M  V30 6731 C 637.295 1.12859 -3.19556 0
M  V30 6732 C 636.468 0.495381 -4.34586 0
M  V30 6733 C 635.527 1.44659 -5.05925 0
M  V30 6734 O 634.553 0.954567 -5.61139 0
M  V30 6735 N 635.755 2.78051 -5.09576 0
M  V30 6736 H 638.52 -0.661346 -2.92312 0
M  V30 6737 H 636.081 -0.497744 -1.54059 0
M  V30 6738 H 638.073 1.76577 -3.64147 0
M  V30 6739 H 636.643 1.76636 -2.57912 0
M  V30 6740 H 635.863 -0.32092 -3.92892 0
M  V30 6741 H 637.151 0.0534203 -5.08772 0
M  V30 6742 H 636.549 3.20584 -4.66093 0
M  V30 6743 H 635.106 3.37068 -5.57878 0
M  V30 6744 N 638.539 1.52521 -0.396863 0
M  V30 6745 C 639.486 2.26671 0.434624 0
M  V30 6746 C 640.456 1.28584 1.05144 0
M  V30 6747 O 641.641 1.57426 1.07804 0
M  V30 6748 C 638.781 3.08234 1.55196 0
M  V30 6749 C 637.894 4.21261 0.957262 0
M  V30 6750 C 637.029 4.90205 2.04627 0
M  V30 6751 C 636.068 5.95213 1.42787 0
M  V30 6752 N 635.205 6.57723 2.45651 0
M  V30 6753 H 640.045 2.973 -0.204139 0
M  V30 6754 H 637.582 1.46669 -0.112505 0
M  V30 6755 H 639.54 3.53819 2.2106 0
M  V30 6756 H 638.17 2.398 2.16092 0
M  V30 6757 H 637.222 3.79935 0.188005 0
M  V30 6758 H 638.534 4.96624 0.465416 0
M  V30 6759 H 637.688 5.39133 2.78246 0
M  V30 6760 H 636.427 4.14383 2.57174 0
M  V30 6761 H 635.432 5.45616 0.676968 0
M  V30 6762 H 636.657 6.72972 0.910255 0
M  V30 6763 H 634.603 5.84737 2.97353 0
M  V30 6764 H 634.52 7.28723 2.01243 0
M  V30 6765 H 635.788 7.11293 3.18876 0
M  V30 6766 N 640.017 0.126909 1.57088 0
M  V30 6767 C 640.927 -0.833867 2.1928 0
M  V30 6768 C 641.943 -1.2868 1.17122 0
M  V30 6769 O 643.119 -1.34815 1.49622 0
M  V30 6770 C 640.184 -2.0632 2.78627 0
M  V30 6771 C 639.245 -1.66143 3.95847 0
M  V30 6772 C 638.478 -2.83217 4.52354 0
M  V30 6773 O 638.701 -3.98868 4.0775 0
M  V30 6774 O 637.635 -2.59846 5.42922 0
M  V30 6775 H 641.461 -0.334564 3.01852 0
M  V30 6776 H 639.046 -0.0991091 1.49071 0
M  V30 6777 H 640.928 -2.78304 3.16425 0
M  V30 6778 H 639.603 -2.55242 1.99082 0
M  V30 6779 H 638.51 -0.912435 3.62802 0
M  V30 6780 H 639.843 -1.21957 4.76852 0
M  V30 6781 N 641.495 -1.56914 -0.146875 0
M  V30 6782 C 642.744 -1.82546 -0.857898 0
M  V30 6783 C 643.057 -0.708169 -1.8233 0
M  V30 6784 O 644.263 -0.850093 -2.57848 0
M  V30 6785 C 642.719 -3.23548 -1.57623 0
M  V30 6786 C 642.327 -4.43212 -0.653224 0
M  V30 6787 C 644.071 -3.58453 -2.27402 0
M  V30 6788 C 641.978 -5.75237 -1.37318 0
M  V30 6789 H 640.908 -0.680786 -0.32411 0
M  V30 6790 H 643.559 -1.83166 -0.110639 0
M  V30 6791 H 641.941 -3.17315 -2.36912 0
M  V30 6792 H 643.115 -4.60682 0.104452 0
M  V30 6793 H 641.43 -4.16351 -0.0638336 0
M  V30 6794 H 644.027 -4.54349 -2.81907 0
M  V30 6795 H 644.37 -2.84516 -3.03901 0
M  V30 6796 H 644.903 -3.66347 -1.55032 0
M  V30 6797 H 641.642 -6.52269 -0.650041 0
M  V30 6798 H 641.162 -5.61703 -2.10357 0
M  V30 6799 H 642.841 -6.18039 -1.91406 0
M  V30 6800 N 642.974 0.416227 -1.52004 0
M  V30 6801 C 644.199 1.19029 -1.69843 0
M  V30 6802 C 644.624 1.83708 -0.404103 0
M  V30 6803 O 643.982 1.69711 0.637787 0
M  V30 6804 C 644.03 2.23439 -2.83032 0
M  V30 6805 O 643.134 3.29419 -2.48106 0
M  V30 6806 H 642.475 0.347785 -0.565634 0
M  V30 6807 H 645.005 0.488871 -1.98674 0
M  V30 6808 H 645.015 2.67884 -3.07737 0
M  V30 6809 H 643.69 1.75745 -3.76944 0
M  V30 6810 H 642.267 2.90303 -2.34048 0
M  V30 6811 N 644.452 1.42507 0.673017 0
M  V30 6812 C 645.68 1.46473 1.46128 0
M  V30 6813 C 646.095 0.0765912 1.88645 0
M  V30 6814 O 645.452 -0.909057 1.58248 0
M  V30 6815 C 645.503 2.39339 2.70923 0
M  V30 6816 O 645.224 3.72752 2.3019 0
M  V30 6817 C 646.725 2.52343 3.64469 0
M  V30 6818 H 643.945 0.49812 0.449575 0
M  V30 6819 H 646.489 1.87041 0.826802 0
M  V30 6820 H 644.644 2.02019 3.30556 0
M  V30 6821 H 645.058 4.22503 3.10791 0
M  V30 6822 H 646.532 3.2144 4.48754 0
M  V30 6823 H 647.009 1.56189 4.1049 0
M  V30 6824 H 647.615 2.90392 3.10729 0
M  V30 6825 N 645.93 -0.909495 1.28709 0
M  V30 6826 C 646.84 -2.04558 1.14861 0
M  V30 6827 C 647.856 -1.73842 0.0741621 0
M  V30 6828 O 649.032 -1.99383 0.2843 0
M  V30 6829 C 646.097 -3.36957 0.816148 0
M  V30 6830 C 645.158 -3.81255 1.97341 0
M  V30 6831 C 644.391 -5.07335 1.65671 0
M  V30 6832 O 644.614 -5.67514 0.573053 0
M  V30 6833 O 643.548 -5.47449 2.50167 0
M  V30 6834 H 647.374 -2.19161 2.10243 0
M  V30 6835 H 644.959 -1.03159 1.08068 0
M  V30 6836 H 646.841 -4.16436 0.644873 0
M  V30 6837 H 645.516 -3.2352 -0.107983 0
M  V30 6838 H 644.423 -3.02584 2.19986 0
M  V30 6839 H 645.756 -3.99261 2.87839 0
M  V30 6840 N 647.408 -1.11026 -1.11852 0
M  V30 6841 C 648.318 -0.777252 -2.2135 0
M  V30 6842 C 649.334 0.227821 -1.72502 0
M  V30 6843 O 650.51 0.0650587 -2.01295 0
M  V30 6844 C 647.575 -0.220668 -3.45997 0
M  V30 6845 C 646.636 -1.2838 -4.09655 0
M  V30 6846 C 645.869 -0.753678 -5.28352 0
M  V30 6847 O 646.092 0.417779 -5.68868 0
M  V30 6848 O 645.026 -1.51647 -5.82483 0
M  V30 6849 H 648.852 -1.69141 -2.5224 0
M  V30 6850 H 646.437 -0.885836 -1.20305 0
M  V30 6851 H 648.319 0.0855756 -4.21313 0
M  V30 6852 H 646.994 0.666262 -3.16769 0
M  V30 6853 H 645.901 -1.64299 -3.3609 0
M  V30 6854 H 647.234 -2.14396 -4.43052 0
M  V30 6855 N 648.886 1.2938 -0.899927 0
M  V30 6856 C 649.818 2.26737 -0.335139 0
M  V30 6857 C 650.831 1.54316 0.518681 0
M  V30 6858 O 652.02 1.75313 0.335803 0
M  V30 6859 C 649.12 3.34558 0.540774 0
M  V30 6860 C 648.293 4.36455 -0.287372 0
M  V30 6861 C 647.352 5.2361 0.52141 0
M  V30 6862 O 646.378 5.69167 -0.0611735 0
M  V30 6863 N 647.58 5.50985 1.82745 0
M  V30 6864 H 650.345 2.75838 -1.17191 0
M  V30 6865 H 647.906 1.42716 -0.764438 0
M  V30 6866 H 649.898 3.89794 1.08825 0
M  V30 6867 H 648.468 2.85272 1.27823 0
M  V30 6868 H 647.688 3.80875 -1.01626 0
M  V30 6869 H 648.976 5.01573 -0.854518 0
M  V30 6870 H 648.374 5.15781 2.32349 0
M  V30 6871 H 646.931 6.09036 2.32204 0
M  V30 6872 N 650.364 0.662433 1.43002 0
M  V30 6873 C 651.294 -0.00979809 2.33498 0
M  V30 6874 C 652.275 -0.802329 1.49989 0
M  V30 6875 O 653.46 -0.761964 1.78627 0
M  V30 6876 C 650.59 -0.970446 3.33466 0
M  V30 6877 C 649.544 -0.287383 4.27034 0
M  V30 6878 C 648.87 -1.36012 5.17112 0
M  V30 6879 C 650.17 0.82595 5.15728 0
M  V30 6880 H 651.864 0.745959 2.89958 0
M  V30 6881 H 649.41 0.360172 1.39423 0
M  V30 6882 H 651.363 -1.44971 3.95679 0
M  V30 6883 H 650.087 -1.75748 2.75282 0
M  V30 6884 H 648.746 0.17152 3.66199 0
M  V30 6885 H 648.394 -2.13882 4.55262 0
M  V30 6886 H 648.094 -0.908276 5.80538 0
M  V30 6887 H 649.618 -1.84056 5.82199 0
M  V30 6888 H 651.032 0.42845 5.71697 0
M  V30 6889 H 649.429 1.20282 5.87922 0
M  V30 6890 H 650.499 1.68003 4.54866 0
M  V30 6891 N 651.842 -1.52309 0.404946 0
M  V30 6892 C 653.258 -1.59503 0.0556255 0
M  V30 6893 C 653.458 -1.41805 -1.43156 0
M  V30 6894 O 652.514 -1.2429 -2.19792 0
M  V30 6895 C 653.827 -2.95687 0.546801 0
M  V30 6896 C 655.375 -3.08909 0.504413 0
M  V30 6897 C 655.85 -4.47566 0.97203 0
M  V30 6898 N 657.341 -4.53795 0.928679 0
M  V30 6899 C 658.076 -5.59346 1.26174 0
M  V30 6900 N 657.572 -6.72469 1.66604 0
M  V30 6901 N 659.365 -5.49532 1.18198 0
M  V30 6902 H 651.516 -1.6206 1.37296 0
M  V30 6903 H 653.779 -0.762161 0.563751 0
M  V30 6904 H 653.485 -3.13905 1.58609 0
M  V30 6905 H 653.359 -3.77172 -0.0457905 0
M  V30 6906 H 655.746 -2.90378 -0.525819 0
M  V30 6907 H 655.827 -2.2934 1.13301 0
M  V30 6908 H 655.471 -4.6684 2.00057 0
M  V30 6909 H 655.401 -5.25625 0.320292 0
M  V30 6910 H 657.892 -3.72588 0.631369 0
M  V30 6911 H 658.205 -7.48993 1.9034 0
M  V30 6912 H 656.55 -6.73761 1.70504 0
M  V30 6913 H 659.741 -4.60038 0.865011 0
M  V30 6914 H 659.914 -6.31687 1.44485 0
M  V30 6915 N 653.32 -0.135238 -1.57019 0
M  V30 6916 C 654.736 0.221262 -1.58059 0
M  V30 6917 C 654.936 1.65538 -1.14889 0
M  V30 6918 O 653.992 2.37985 -0.843751 0
M  V30 6919 C 655.305 -0.0268114 -3.00688 0
M  V30 6920 C 656.853 0.0378206 -3.12977 0
M  V30 6921 C 657.328 -0.182769 -4.57635 0
M  V30 6922 N 658.819 -0.129292 -4.6302 0
M  V30 6923 C 659.554 -0.274648 -5.72742 0
M  V30 6924 N 659.05 -0.477075 -6.91155 0
M  V30 6925 N 660.843 -0.213077 -5.61696 0
M  V30 6926 H 652.994 -1.07177 -1.83376 0
M  V30 6927 H 655.257 -0.423338 -0.848227 0
M  V30 6928 H 654.963 -1.01889 -3.36618 0
M  V30 6929 H 654.837 0.697863 -3.70688 0
M  V30 6930 H 657.224 1.02043 -2.76896 0
M  V30 6931 H 657.305 -0.718996 -2.45487 0
M  V30 6932 H 656.949 -1.16243 -4.94419 0
M  V30 6933 H 656.879 0.59423 -5.23237 0
M  V30 6934 H 659.37 0.0229896 -3.77893 0
M  V30 6935 H 659.683 -0.578413 -7.70632 0
M  V30 6936 H 658.028 -0.513252 -6.93102 0
M  V30 6937 H 661.219 -0.0557796 -4.68067 0
M  V30 6938 H 661.392 -0.329796 -6.4716 0
M  V30 6939 N 654.798 1.5699 0.138552 0
M  V30 6940 C 655.728 2.01933 1.17241 0
M  V30 6941 C 656.709 0.90033 1.44319 0
M  V30 6942 O 657.894 1.16872 1.55095 0
M  V30 6943 C 655.024 2.40711 2.50351 0
M  V30 6944 C 653.978 3.55874 2.37776 0
M  V30 6945 C 653.304 3.80491 3.75674 0
M  V30 6946 C 654.604 4.8826 1.85472 0
M  V30 6947 H 656.298 2.88551 0.798672 0
M  V30 6948 H 653.844 1.3882 0.382743 0
M  V30 6949 H 655.797 2.70754 3.22909 0
M  V30 6950 H 654.521 1.5104 2.89576 0
M  V30 6951 H 653.18 3.2601 1.67669 0
M  V30 6952 H 652.828 2.88057 4.12349 0
M  V30 6953 H 652.528 4.57998 3.68119 0
M  V30 6954 H 654.052 4.12967 4.49767 0
M  V30 6955 H 655.466 5.16965 2.4783 0
M  V30 6956 H 653.863 5.69631 1.88787 0
M  V30 6957 H 654.933 4.78071 0.810935 0
M  V30 6958 N 656.276 -0.40816 1.52223 0
M  V30 6959 C 657.208 -1.51642 1.71864 0
M  V30 6960 C 658.221 -1.51378 0.599056 0
M  V30 6961 O 659.41 -1.55626 0.874239 0
M  V30 6962 C 656.51 -2.90534 1.74481 0
M  V30 6963 C 655.683 -3.14979 3.03491 0
M  V30 6964 C 654.742 -4.33749 2.97907 0
M  V30 6965 O 653.768 -4.30982 3.71811 0
M  V30 6966 N 654.97 -5.38912 2.15764 0
M  V30 6967 H 657.735 -1.35188 2.67478 0
M  V30 6968 H 655.296 -0.597468 1.50472 0
M  V30 6969 H 657.288 -3.68056 1.68275 0
M  V30 6970 H 655.858 -3.00441 0.863363 0
M  V30 6971 H 655.078 -2.25492 3.23337 0
M  V30 6972 H 656.366 -3.28156 3.88833 0
M  V30 6973 H 655.764 -5.44008 1.55152 0
M  V30 6974 H 654.321 -6.15174 2.15415 0
M  V30 6975 N 657.755 -1.42862 -0.66545 0
M  V30 6976 C 658.665 -1.49491 -1.80803 0
M  V30 6977 C 659.681 -0.382914 -1.69734 0
M  V30 6978 O 660.857 -0.635223 -1.9112 0
M  V30 6979 C 657.922 -1.40383 -3.17007 0
M  V30 6980 C 656.983 -2.62152 -3.39963 0
M  V30 6981 C 656.216 -2.53469 -4.69669 0
M  V30 6982 O 656.439 -1.57568 -5.48205 0
M  V30 6983 O 655.373 -3.43763 -4.94075 0
M  V30 6984 H 659.199 -2.45949 -1.78165 0
M  V30 6985 H 656.784 -1.24728 -0.822387 0
M  V30 6986 H 658.666 -1.377 -3.98267 0
M  V30 6987 H 657.341 -0.470546 -3.20262 0
M  V30 6988 H 656.248 -2.70409 -2.58515 0
M  V30 6989 H 657.581 -3.54411 -3.41546 0
M  V30 6990 N 659.233 0.902656 -1.29189 0
M  V30 6991 C 660.143 2.03946 -1.15944 0
M  V30 6992 C 661.159 1.738 -0.0833803 0
M  V30 6993 O 662.335 1.9923 -0.29487 0
M  V30 6994 C 659.4 3.36519 -0.834006 0
M  V30 6995 C 658.461 3.80203 -1.9936 0
M  V30 6996 C 657.694 5.06449 -1.68359 0
M  V30 6997 O 657.917 5.67202 -0.603141 0
M  V30 6998 O 656.851 5.46114 -2.53067 0
M  V30 6999 H 660.677 2.18043 -2.11403 0
M  V30 7000 H 658.262 1.02584 -1.08613 0
M  V30 7001 H 660.144 4.16089 -0.666949 0
M  V30 7002 H 658.819 3.23573 0.0908245 0
M  V30 7003 H 657.726 3.01413 -2.21588 0
M  V30 7004 H 659.059 3.97729 -2.89952 0
M  V30 7005 N 660.711 1.11618 1.11262 0
M  V30 7006 C 661.658 0.7762 2.17356 0
M  V30 7007 C 662.628 -0.253152 1.6416 0
M  V30 7008 O 663.813 -0.129655 1.90359 0
M  V30 7009 C 660.953 0.227581 3.44349 0
M  V30 7010 C 660.066 1.31372 4.1154 0
M  V30 7011 C 659.201 0.72544 5.26223 0
M  V30 7012 C 658.24 1.7913 5.85302 0
M  V30 7013 N 657.377 1.22237 6.91377 0
M  V30 7014 H 662.217 1.68508 2.45783 0
M  V30 7015 H 659.754 0.841475 1.20655 0
M  V30 7016 H 661.712 -0.108483 4.17059 0
M  V30 7017 H 660.342 -0.644486 3.16301 0
M  V30 7018 H 659.394 1.7667 3.36885 0
M  V30 7019 H 660.706 2.12005 4.51504 0
M  V30 7020 H 659.86 0.339541 6.05749 0
M  V30 7021 H 658.599 -0.112188 4.87571 0
M  V30 7022 H 657.604 2.18648 5.04453 0
M  V30 7023 H 658.829 2.63199 6.26022 0
M  V30 7024 H 656.775 0.406423 6.5474 0
M  V30 7025 H 656.692 1.9654 7.30006 0
M  V30 7026 H 657.96 0.863426 7.74703 0
M  V30 7027 N 662.189 -1.289 0.906776 0
M  V30 7028 C 663.119 -2.29932 0.406659 0
M  V30 7029 C 664.1 -1.6189 -0.522061 0
M  V30 7030 O 665.285 -1.8935 -0.431283 0
M  V30 7031 C 662.415 -3.45425 -0.360366 0
M  V30 7032 C 661.369 -4.25316 0.478574 0
M  V30 7033 C 660.695 -5.33076 -0.416373 0
M  V30 7034 C 661.995 -4.92739 1.7322 0
M  V30 7035 H 663.689 -2.72013 1.25097 0
M  V30 7036 H 661.235 -1.30768 0.602977 0
M  V30 7037 H 663.188 -4.15186 -0.721029 0
M  V30 7038 H 661.912 -3.02206 -1.23852 0
M  V30 7039 H 660.571 -3.57273 0.821662 0
M  V30 7040 H 660.219 -4.86101 -1.29287 0
M  V30 7041 H 659.919 -5.8743 0.141309 0
M  V30 7042 H 661.443 -6.05686 -0.773072 0
M  V30 7043 H 662.857 -5.54898 1.44086 0
M  V30 7044 H 661.254 -5.57057 2.23175 0
M  V30 7045 H 662.324 -4.17625 2.46408 0
M  V30 7046 N 663.667 -0.670007 -1.42649 0
M  V30 7047 C 664.907 -0.194106 -2.03476 0
M  V30 7048 C 665.271 1.1755 -1.51809 0
M  V30 7049 O 666.472 1.74579 -2.04391 0
M  V30 7050 C 664.743 -0.221828 -3.56711 0
M  V30 7051 S 666.302 0.183772 -4.38415 0
M  V30 7052 H 663.12 -0.0802478 -0.706457 0
M  V30 7053 H 665.722 -0.882092 -1.74469 0
M  V30 7054 H 664.426 -1.22107 -3.91814 0
M  V30 7055 H 663.957 0.486149 -3.90385 0
M  V30 7056 H 665.972 1.41839 -4.75496 0
M  V30 7057 N 665.145 1.52092 -0.413018 0
M  V30 7058 C 666.092 2.27119 0.410558 0
M  V30 7059 C 667.062 1.29692 1.03774 0
M  V30 7060 O 668.247 1.58561 1.06128 0
M  V30 7061 C 665.387 3.09863 1.51918 0
M  V30 7062 C 664.5 4.22252 0.912528 0
M  V30 7063 C 663.635 4.92348 1.99417 0
M  V30 7064 C 662.674 5.96694 1.36466 0
M  V30 7065 N 661.811 6.60292 2.38661 0
M  V30 7066 H 666.651 2.97067 -0.235661 0
M  V30 7067 H 664.188 1.46542 -0.128055 0
M  V30 7068 H 666.146 3.56144 2.17295 0
M  V30 7069 H 664.776 2.42078 2.13537 0
M  V30 7070 H 663.828 3.80113 0.147697 0
M  V30 7071 H 665.14 4.9709 0.412717 0
M  V30 7072 H 664.294 5.42054 2.72512 0
M  V30 7073 H 663.033 4.17087 2.52764 0
M  V30 7074 H 662.038 5.46304 0.61906 0
M  V30 7075 H 663.263 6.73899 0.838827 0
M  V30 7076 H 661.209 5.87858 2.91134 0
M  V30 7077 H 661.126 7.30816 1.93503 0
M  V30 7078 H 662.394 7.14635 3.11314 0
M  V30 7079 N 666.623 0.143563 1.56945 0
M  V30 7080 C 667.872 -0.50835 1.95189 0
M  V30 7081 C 668.185 -1.66239 1.03073 0
M  V30 7082 O 669.391 -2.3787 1.30882 0
M  V30 7083 C 667.847 -0.955735 3.46978 0
M  V30 7084 C 667.455 0.171183 4.47673 0
M  V30 7085 C 669.199 -1.57763 3.94095 0
M  V30 7086 C 667.106 -0.294279 5.90667 0
M  V30 7087 H 666.036 -0.193679 0.728701 0
M  V30 7088 H 668.687 0.227357 1.82086 0
M  V30 7089 H 667.069 -1.7466 3.55401 0
M  V30 7090 H 668.243 0.948049 4.50942 0
M  V30 7091 H 666.558 0.701273 4.10452 0
M  V30 7092 H 669.155 -1.93745 4.98364 0
M  V30 7093 H 669.498 -2.46531 3.35452 0
M  V30 7094 H 670.031 -0.851728 3.88575 0
M  V30 7095 H 666.77 0.557939 6.53121 0
M  V30 7096 H 666.29 -1.0371 5.90766 0
M  V30 7097 H 667.969 -0.747426 6.42668 0
M  V30 7098 N 668.101 -1.57061 -0.130224 0
M  V30 7099 C 669.341 -1.86071 -0.845993 0
M  V30 7100 C 669.705 -0.73009 -1.77577 0
M  V30 7101 O 670.906 -0.901663 -2.53226 0
M  V30 7102 C 669.177 -3.20293 -1.58579 0
M  V30 7103 S 670.736 -3.70905 -2.34467 0
M  V30 7104 H 667.554 -0.652434 -0.282579 0
M  V30 7105 H 670.156 -1.95218 -0.10498 0
M  V30 7106 H 668.86 -4.00533 -0.894509 0
M  V30 7107 H 668.391 -3.14195 -2.36739 0
M  V30 7108 H 670.406 -3.41509 -3.59981 0
M  V30 7109 N 669.579 0.400081 -1.52437 0
M  V30 7110 C 670.512 1.50929 -1.7116 0
M  V30 7111 C 671.49 1.52679 -0.559275 0
M  V30 7112 O 672.674 1.71251 -0.787735 0
M  V30 7113 C 669.801 2.89433 -1.75915 0
M  V30 7114 C 668.847 3.05556 -2.97553 0
M  V30 7115 S 669.68 2.77919 -4.57735 0
M  V30 7116 C 670.836 4.18636 -4.6529 0
M  V30 7117 H 671.069 1.3482 -2.64973 0
M  V30 7118 H 668.602 0.592245 -1.4259 0
M  V30 7119 H 670.56 3.69253 -1.7934 0
M  V30 7120 H 669.221 3.02877 -0.832137 0
M  V30 7121 H 668.414 4.0691 -2.97388 0
M  V30 7122 H 668.016 2.33615 -2.92062 0
M  V30 7123 H 670.308 5.12406 -4.43223 0
M  V30 7124 H 671.251 4.23821 -5.67258 0
M  V30 7125 H 671.659 4.04029 -3.94234 0
M  V30 7126 N 671.057 1.43213 0.657864 0
M  V30 7127 C 672.334 1.35063 1.41483 0
M  V30 7128 C 672.714 -0.0038314 2.111 0
M  V30 7129 O 672.062 -1.02018 2.04462 0
M  V30 7130 C 672.272 2.53061 2.40335 0
M  V30 7131 C 673.62 2.9594 3.04474 0
M  V30 7132 O 674.644 2.53074 2.50663 0
M  V30 7133 O 673.503 3.70184 4.02027 0
M  V30 7134 H 670.597 0.533517 0.631893 0
M  V30 7135 H 673.143 1.55253 0.685162 0
M  V30 7136 H 671.915 3.43283 1.87809 0
M  V30 7137 H 671.538 2.34945 3.20759 0
M  V30 7138 N 672.536 -0.895792 1.29666 0
M  V30 7139 C 673.952 -1.17726 1.07763 0
M  V30 7140 C 674.152 -2.00794 -0.168576 0
M  V30 7141 O 673.208 -2.37213 -0.865244 0
M  V30 7142 C 674.521 -1.89441 2.33522 0
M  V30 7143 C 676.069 -2.02251 2.3888 0
M  V30 7144 C 676.544 -2.77378 3.64452 0
M  V30 7145 N 678.035 -2.8493 3.65198 0
M  V30 7146 C 678.77 -3.43606 4.59045 0
M  V30 7147 N 678.266 -4.03417 5.63228 0
M  V30 7148 N 680.059 -3.41317 4.46608 0
M  V30 7149 H 672.21 -0.341652 2.09634 0
M  V30 7150 H 674.473 -0.213865 0.923561 0
M  V30 7151 H 674.179 -1.35842 3.24407 0
M  V30 7152 H 674.053 -2.89893 2.41334 0
M  V30 7153 H 676.44 -2.55025 1.4848 0
M  V30 7154 H 676.521 -1.0092 2.3505 0
M  V30 7155 H 676.165 -2.25279 4.55205 0
M  V30 7156 H 676.095 -3.79062 3.65541 0
M  V30 7157 H 678.586 -2.42453 2.89871 0
M  V30 7158 H 678.899 -4.46224 6.30955 0
M  V30 7159 H 677.244 -4.01868 5.67033 0
M  V30 7160 H 680.435 -2.93812 3.64407 0
M  V30 7161 H 680.608 -3.86751 5.1993 0
M  V30 7162 N 674.014 -1.12206 -1.10668 0
M  V30 7163 C 674.962 -0.782918 -2.19028 0
M  V30 7164 C 675.956 0.229175 -1.67843 0
M  V30 7165 O 677.162 0.0876295 -1.79787 0
M  V30 7166 H 673.537 -0.235339 -0.714227 0
M  V30 7167 H 675.508 -1.70527 -2.44874 0
M  V30 7168 C 674.257 -0.25116 -3.46792 0
M  V30 7169 H 673.58 -1.02123 -3.86537 0
M  V30 7170 H 675.02 -0.0521409 -4.23968 0
M  V30 7171 C 673.479 1.02037 -3.21076 0
M  V30 7172 O 674.009 2.09862 -3.42522 0
M  V30 7173 N 672.215 0.946348 -2.74759 0
M  V30 7174 H 671.762 0.068777 -2.57508 0
M  V30 7175 H 671.72 1.79775 -2.57931 0
M  V30 7176 N 675.492 1.28418 -0.913599 0
M  V30 7177 C 676.741 1.94265 -0.542572 0
M  V30 7178 C 677.054 1.72709 0.918207 0
M  V30 7179 O 678.26 2.32778 1.39738 0
M  V30 7180 C 676.716 3.47956 -0.919507 0
M  V30 7181 C 676.324 3.78291 -2.4 0
M  V30 7182 C 678.068 4.19962 -0.619057 0
M  V30 7183 C 675.975 5.2529 -2.71707 0
M  V30 7184 H 674.905 0.727213 -0.199192 0
M  V30 7185 H 677.556 1.45931 -1.11249 0
M  V30 7186 H 675.938 3.9502 -0.278372 0
M  V30 7187 H 677.112 3.42035 -3.08786 0
M  V30 7188 H 675.427 3.19456 -2.67089 0
M  V30 7189 H 678.024 5.28178 -0.832623 0
M  V30 7190 H 678.367 4.13935 0.443126 0
M  V30 7191 H 678.9 3.78674 -1.21865 0
M  V30 7192 H 675.639 5.36394 -3.76778 0
M  V30 7193 H 675.159 5.62743 -2.07559 0
M  V30 7194 H 676.838 5.93027 -2.58703 0
M  V30 7195 N 676.97 0.677563 1.42291 0
M  V30 7196 C 677.933 0.0101085 2.29198 0
M  V30 7197 C 678.933 -0.726219 1.43467 0
M  V30 7198 O 680.123 -0.563807 1.64824 0
M  V30 7199 C 677.255 -0.996316 3.26016 0
M  V30 7200 H 678.448 0.775071 2.89711 0
M  V30 7201 H 676.001 0.440065 1.49977 0
M  V30 7202 H 676.736 -1.78967 2.70446 0
M  V30 7203 H 676.521 -0.471687 3.89253 0
M  V30 7204 H 678.011 -1.46167 3.91184 0
M  V30 7205 N 678.448 -1.51871 0.421078 0
M  V30 7206 C 679.697 -2.01125 -0.152206 0
M  V30 7207 C 680.01 -1.3106 -1.45199 0
M  V30 7208 O 681.216 -1.71195 -2.10724 0
M  V30 7209 C 679.672 -3.58458 -0.3218 0
M  V30 7210 C 679.28 -4.37448 0.96659 0
M  V30 7211 C 681.024 -4.15908 -0.84973 0
M  V30 7212 C 678.931 -5.86451 0.763529 0
M  V30 7213 H 677.861 -0.751556 -0.0606565 0
M  V30 7214 H 680.512 -1.75115 0.548354 0
M  V30 7215 H 678.894 -3.80847 -1.08498 0
M  V30 7216 H 680.068 -4.26814 1.73684 0
M  V30 7217 H 678.383 -3.91373 1.42183 0
M  V30 7218 H 680.98 -5.24922 -1.01788 0
M  V30 7219 H 681.323 -3.74031 -1.82774 0
M  V30 7220 H 681.856 -3.97535 -0.145297 0
M  V30 7221 H 678.595 -6.3271 1.71344 0
M  V30 7222 H 678.115 -5.99791 0.0327889 0
M  V30 7223 H 679.794 -6.45697 0.410354 0
M  V30 7224 N 679.926 -0.151884 -1.56866 0
M  V30 7225 C 681.172 0.498742 -1.96572 0
M  V30 7226 C 681.505 1.64194 -1.03702 0
M  V30 7227 O 680.78 1.94334 -0.0803432 0
M  V30 7228 C 681.063 1.00027 -3.45929 0
M  V30 7229 C 680.916 -0.141767 -4.49577 0
M  V30 7230 C 682.235 1.88044 -3.97904 0
M  V30 7231 H 679.354 0.17982 -0.714726 0
M  V30 7232 H 681.996 -0.234097 -1.88552 0
M  V30 7233 H 680.146 1.62476 -3.52894 0
M  V30 7234 H 681.818 -0.778269 -4.54687 0
M  V30 7235 H 680.061 -0.80019 -4.26356 0
M  V30 7236 H 680.732 0.250947 -5.51429 0
M  V30 7237 H 683.208 1.35416 -3.93449 0
M  V30 7238 H 682.084 2.20043 -5.02864 0
M  V30 7239 H 682.345 2.81916 -3.40552 0
M  V30 7240 N 681.404 1.57128 0.121893 0
M  V30 7241 C 682.651 1.847 0.830188 0
M  V30 7242 C 682.979 0.736543 1.80015 0
M  V30 7243 O 682.234 -0.272358 1.93796 0
M  V30 7244 C 682.533 3.1874 1.61677 0
M  V30 7245 C 682.199 4.43901 0.791361 0
M  V30 7246 C 680.861 4.77887 0.563731 0
M  V30 7247 C 683.213 5.20753 0.215823 0
M  V30 7248 C 680.541 5.86168 -0.249737 0
M  V30 7249 C 682.893 6.29891 -0.584821 0
M  V30 7250 C 681.557 6.6241 -0.822794 0
M  V30 7251 H 680.827 0.675866 0.303787 0
M  V30 7252 H 683.474 1.91276 0.0926894 0
M  V30 7253 H 681.779 3.07728 2.42509 0
M  V30 7254 H 683.476 3.37295 2.16872 0
M  V30 7255 H 680.066 4.17272 0.978867 0
M  V30 7256 H 684.25 4.94851 0.378907 0
M  V30 7257 H 679.506 6.0979 -0.44336 0
M  V30 7258 H 683.68 6.88624 -1.03779 0
M  V30 7259 H 681.307 7.46147 -1.45496 0
M  V30 7260 N 682.882 -0.391992 1.52647 0
M  V30 7261 C 684.128 -1.139 1.67793 0
M  V30 7262 C 684.461 -1.89711 0.41514 0
M  V30 7263 O 683.736 -1.85431 -0.586979 0
M  V30 7264 C 684.019 -2.11966 2.91105 0
M  V30 7265 C 683.872 -1.39939 4.27478 0
M  V30 7266 C 685.191 -3.1243 3.09961 0
M  V30 7267 H 682.31 -0.412707 0.610608 0
M  V30 7268 H 684.952 -0.422725 1.85238 0
M  V30 7269 H 683.102 -2.73048 2.76364 0
M  V30 7270 H 684.774 -0.818439 4.53982 0
M  V30 7271 H 683.017 -0.701246 4.28095 0
M  V30 7272 H 683.688 -2.1158 5.09841 0
M  V30 7273 H 686.164 -2.61435 3.23714 0
M  V30 7274 H 685.04 -3.78294 3.97725 0
M  V30 7275 H 685.301 -3.81127 2.24042 0
M  V30 7276 N 684.36 -1.4356 -0.65026 0
M  V30 7277 C 685.771 -1.40324 -1.2315 0
M  V30 7278 C 686.122 -0.108812 -1.95898 0
M  V30 7279 O 685.247 0.79163 -2.01401 0
M  V30 7280 C 685.842 -2.54195 -2.23987 0
M  V30 7281 C 684.401 -2.54215 -2.77582 0
M  V30 7282 C 683.548 -2.31752 -1.5227 0
M  V30 7283 H 686.499 -1.52418 -0.442095 0
M  V30 7284 H 686.52 -2.25854 -3.0622 0
M  V30 7285 H 686.032 -3.48392 -1.71011 0
M  V30 7286 H 684.133 -1.63907 -3.34612 0
M  V30 7287 H 684.246 -3.52081 -3.24925 0
M  V30 7288 H 682.61 -1.80476 -1.79723 0
M  V30 7289 H 683.393 -3.28037 -1.01225 0
M  V30 7290 N 685.838 0.888903 -1.30139 0
M  V30 7291 C 687.078 1.65456 -1.20015 0
M  V30 7292 C 687.442 1.90467 0.242148 0
M  V30 7293 O 688.643 2.6472 0.466561 0
M  V30 7294 C 686.914 2.96071 -2.00191 0
M  V30 7295 S 688.473 3.87055 -2.06721 0
M  V30 7296 H 685.291 0.567927 -0.427761 0
M  V30 7297 H 687.893 1.05539 -1.64565 0
M  V30 7298 H 686.597 2.7559 -3.04103 0
M  V30 7299 H 686.128 3.61023 -1.56288 0
M  V30 7300 H 688.143 4.81676 -1.19174 0
M  V30 7301 N 687.317 1.12792 1.10072 0
M  V30 7302 C 688.565 0.883796 1.81751 0
M  V30 7303 C 688.886 -0.591891 1.858 0
M  V30 7304 O 688.156 -1.43017 1.33876 0
M  V30 7305 H 686.736 0.323978 0.673088 0
M  V30 7306 H 689.398 1.42314 1.33164 0
M  V30 7307 H 688.494 1.26863 2.85153 0
M  V30 7308 N 688.795 -1.27931 0.920396 0
M  V30 7309 C 689.745 -2.24727 0.384966 0
M  V30 7310 C 690.729 -1.52715 -0.506661 0
M  V30 7311 O 691.921 -1.73599 -0.345298 0
M  V30 7312 C 689.05 -3.41324 -0.3678 0
M  V30 7313 C 688.136 -4.20649 0.539925 0
M  V30 7314 N 688.527 -4.77906 1.6565 0
M  V30 7315 C 686.825 -4.4469 0.341557 0
M  V30 7316 C 687.526 -5.37652 2.22047 0
M  V30 7317 N 686.502 -5.2218 1.51093 0
M  V30 7318 H 690.304 -2.66572 1.23761 0
M  V30 7319 H 687.818 -1.42779 0.773819 0
M  V30 7320 H 689.815 -4.0976 -0.768277 0
M  V30 7321 H 688.475 -3.01012 -1.21746 0
M  V30 7322 H 689.486 -4.76073 2.03899 0
M  V30 7323 H 686.163 -4.14868 -0.468045 0
M  V30 7324 H 687.553 -5.92948 3.1601 0
M  V30 7325 N 690.273 -0.685099 -1.4193 0
M  V30 7326 C 691.203 -0.0273506 -2.33484 0
M  V30 7327 C 692.184 0.778366 -1.51246 0
M  V30 7328 O 693.369 0.733449 -1.79817 0
M  V30 7329 C 690.499 0.917272 -3.34968 0
M  V30 7330 C 689.453 0.21941 -4.27437 0
M  V30 7331 C 688.779 1.27768 -5.1921 0
M  V30 7332 C 690.079 -0.907894 -5.14349 0
M  V30 7333 H 691.773 -0.791994 -2.88735 0
M  V30 7334 H 689.319 -0.382308 -1.38832 0
M  V30 7335 H 691.272 1.38657 -3.97935 0
M  V30 7336 H 689.996 1.71346 -2.78043 0
M  V30 7337 H 688.655 -0.229757 -3.65879 0
M  V30 7338 H 688.303 2.06612 -4.58607 0
M  V30 7339 H 688.003 0.815803 -5.81909 0
M  V30 7340 H 689.527 1.7477 -5.85054 0
M  V30 7341 H 690.941 -0.519348 -5.70943 0
M  V30 7342 H 689.338 -1.2962 -5.85934 0
M  V30 7343 H 690.408 -1.75218 -4.52136 0
M  V30 7344 N 691.751 1.51645 -0.429126 0
M  V30 7345 C 692.997 2.02314 0.140286 0
M  V30 7346 C 693.33 1.31314 1.43074 0
M  V30 7347 O 692.605 0.425531 1.89788 0
M  V30 7348 C 692.888 3.5822 0.36749 0
M  V30 7349 C 692.741 4.39846 -0.941039 0
M  V30 7350 C 694.06 4.25055 1.14089 0
M  V30 7351 H 691.179 0.735335 0.0495112 0
M  V30 7352 H 693.821 1.81358 -0.566514 0
M  V30 7353 H 691.971 3.76207 0.969556 0
M  V30 7354 H 693.643 4.33527 -1.57646 0
M  V30 7355 H 691.886 4.05259 -1.54751 0
M  V30 7356 H 692.557 5.47069 -0.73621 0
M  V30 7357 H 695.033 4.11288 0.630986 0
M  V30 7358 H 693.909 5.34038 1.26863 0
M  V30 7359 H 694.17 3.85358 2.16683 0
M  V30 7360 N 693.229 0.160201 1.56784 0
M  V30 7361 C 694.457 -0.494165 2.00912 0
M  V30 7362 C 694.872 -1.57548 1.04038 0
M  V30 7363 O 694.229 -1.82457 0.0394581 0
M  V30 7364 C 694.28 -1.08271 3.44905 0
M  V30 7365 O 694.001 -0.0445704 4.38077 0
M  V30 7366 C 695.502 -1.8164 4.04378 0
M  V30 7367 H 692.722 -0.127498 0.658776 0
M  V30 7368 H 695.266 0.258665 2.02858 0
M  V30 7369 H 693.421 -1.78609 3.4377 0
M  V30 7370 H 693.835 -0.477544 5.22322 0
M  V30 7371 H 695.309 -2.18094 5.07089 0
M  V30 7372 H 695.786 -2.70727 3.45838 0
M  V30 7373 H 696.392 -1.15969 4.09184 0
M  V30 7374 N 694.707 -1.5719 -0.113559 0
M  V30 7375 C 695.947 -1.86958 -0.82621 0
M  V30 7376 C 696.311 -0.748884 -1.76793 0
M  V30 7377 O 697.512 -0.92847 -2.52256 0
M  V30 7378 C 695.783 -3.21957 -1.55173 0
M  V30 7379 S 697.342 -3.73371 -2.3052 0
M  V30 7380 H 694.16 -0.655394 -0.275643 0
M  V30 7381 H 696.762 -1.95318 -0.0842684 0
M  V30 7382 H 695.466 -4.01459 -0.851977 0
M  V30 7383 H 694.997 -3.16688 -2.33393 0
M  V30 7384 H 697.012 -3.45308 -3.56338 0
M  V30 7385 N 696.185 0.383891 -1.52853 0
M  V30 7386 C 697.132 1.46924 -1.77995 0
M  V30 7387 C 698.102 1.53958 -0.623396 0
M  V30 7388 O 699.287 1.70134 -0.863657 0
M  V30 7389 C 696.427 2.84093 -1.95921 0
M  V30 7390 C 695.54 2.86171 -3.23621 0
M  V30 7391 C 694.675 4.14799 -3.31836 0
M  V30 7392 C 693.714 4.10948 -4.53639 0
M  V30 7393 N 692.851 5.31192 -4.59107 0
M  V30 7394 H 697.691 1.24786 -2.70615 0
M  V30 7395 H 695.228 0.605265 -1.34071 0
M  V30 7396 H 697.186 3.63755 -2.04299 0
M  V30 7397 H 695.816 3.04671 -1.06656 0
M  V30 7398 H 694.868 1.9885 -3.24288 0
M  V30 7399 H 696.18 2.79194 -4.13343 0
M  V30 7400 H 695.334 5.02867 -3.39425 0
M  V30 7401 H 694.073 4.24505 -2.40097 0
M  V30 7402 H 693.078 3.21268 -4.46169 0
M  V30 7403 H 694.303 4.0286 -5.467 0
M  V30 7404 H 692.249 5.41518 -3.70262 0
M  V30 7405 H 692.166 5.26311 -5.42708 0
M  V30 7406 H 693.434 6.21143 -4.70958 0
M  V30 7407 N 697.663 1.43903 0.642637 0
M  V30 7408 C 698.595 1.45857 1.768 0
M  V30 7409 C 699.608 0.353358 1.58919 0
M  V30 7410 O 700.797 0.618426 1.67445 0
M  V30 7411 C 697.897 1.26583 3.14372 0
M  V30 7412 C 697.07 2.50139 3.58817 0
M  V30 7413 C 696.129 2.25933 4.75227 0
M  V30 7414 O 695.155 2.99351 4.84125 0
M  V30 7415 N 696.357 1.28263 5.66153 0
M  V30 7416 H 699.122 2.42869 1.75598 0
M  V30 7417 H 696.683 1.39194 0.826832 0
M  V30 7418 H 698.675 1.08255 3.89953 0
M  V30 7419 H 697.245 0.37978 3.10284 0
M  V30 7420 H 696.465 2.83821 2.73568 0
M  V30 7421 H 697.753 3.32344 3.8526 0
M  V30 7422 H 697.151 0.676041 5.61646 0
M  V30 7423 H 695.708 1.15916 6.4141 0
M  V30 7424 N 699.141 -0.881989 1.30609 0
M  V30 7425 C 700.381 -1.64817 1.20891 0
M  V30 7426 C 700.745 -1.90593 -0.232043 0
M  V30 7427 O 701.946 -2.64964 -0.452516 0
M  V30 7428 C 700.217 -2.95006 2.01758 0
M  V30 7429 S 701.776 -3.85953 2.08771 0
M  V30 7430 H 698.594 -0.565651 0.430767 0
M  V30 7431 H 701.196 -1.04665 1.65122 0
M  V30 7432 H 699.9 -2.73973 3.0556 0
M  V30 7433 H 699.431 -3.60189 1.582 0
M  V30 7434 H 701.446 -4.81037 1.21727 0
M  V30 7435 N 700.619 -1.13374 -1.09472 0
M  V30 7436 C 701.582 -0.813639 -2.14272 0
M  V30 7437 C 702.582 0.176677 -1.59826 0
M  V30 7438 O 703.772 -0.0503441 -1.74127 0
M  V30 7439 C 700.904 -0.210897 -3.40247 0
M  V30 7440 H 702.097 -1.74229 -2.44099 0
M  V30 7441 H 699.65 -0.938304 -1.25002 0
M  V30 7442 H 700.385 0.726998 -3.16046 0
M  V30 7443 H 700.17 -0.924048 -3.81056 0
M  V30 7444 H 701.66 -0.00377603 -4.176 0
M  V30 7445 N 702.098 1.27442 -0.927168 0
M  V30 7446 C 703.008 2.30599 -0.431448 0
M  V30 7447 C 704.024 1.67028 0.48761 0
M  V30 7448 O 705.2 1.97962 0.370546 0
M  V30 7449 C 702.265 3.45327 0.308292 0
M  V30 7450 C 701.326 4.24418 -0.645615 0
M  V30 7451 C 700.559 5.33667 0.0589164 0
M  V30 7452 O 700.782 5.5589 1.27838 0
M  V30 7453 O 699.716 5.98774 -0.612638 0
M  V30 7454 H 703.542 2.75036 -1.28797 0
M  V30 7455 H 701.127 1.32382 -0.692495 0
M  V30 7456 H 703.009 4.15107 0.725555 0
M  V30 7457 H 701.684 3.02945 1.14043 0
M  V30 7458 H 700.591 3.57174 -1.11255 0
M  V30 7459 H 701.924 4.70512 -1.44496 0
M  V30 7460 N 703.576 0.692616 1.41565 0
M  V30 7461 C 704.539 0.0344174 2.29174 0
M  V30 7462 C 705.539 -0.710961 1.44229 0
M  V30 7463 O 706.729 -0.546293 1.65412 0
M  V30 7464 C 703.861 -0.961682 3.27054 0
M  V30 7465 H 705.054 0.805755 2.88873 0
M  V30 7466 H 702.607 0.455947 1.49502 0
M  V30 7467 H 703.342 -1.76089 2.72329 0
M  V30 7468 H 703.127 -0.430375 3.89731 0
M  V30 7469 H 704.617 -1.4201 3.92712 0
M  V30 7470 N 705.054 -1.51416 0.437162 0
M  V30 7471 C 706.3 -2.02386 -0.129555 0
M  V30 7472 C 706.633 -1.32071 -1.42376 0
M  V30 7473 O 705.908 -0.43559 -1.8956 0
M  V30 7474 C 706.191 -3.5841 -0.348487 0
M  V30 7475 C 706.044 -4.39341 0.964352 0
M  V30 7476 C 707.363 -4.25654 -1.11834 0
M  V30 7477 H 704.482 -0.735587 -0.0456109 0
M  V30 7478 H 707.124 -1.81055 0.576124 0
M  V30 7479 H 705.274 -3.76716 -0.949592 0
M  V30 7480 H 706.946 -4.32685 1.59942 0
M  V30 7481 H 705.189 -4.04432 1.56898 0
M  V30 7482 H 705.86 -5.4667 0.765212 0
M  V30 7483 H 708.336 -4.11617 -0.609165 0
M  V30 7484 H 707.212 -5.34704 -1.24029 0
M  V30 7485 H 707.473 -3.86502 -2.14636 0
M  V30 7486 N 706.532 -0.168513 -1.56696 0
M  V30 7487 C 707.809 0.523367 -1.88468 0
M  V30 7488 C 708.189 1.81503 -1.07796 0
M  V30 7489 O 707.537 2.27859 -0.171045 0
M  V30 7490 C 707.747 0.767991 -3.40445 0
M  V30 7491 C 709.095 1.09924 -4.10124 0
M  V30 7492 O 710.119 0.856625 -3.45746 0
M  V30 7493 O 708.978 1.55681 -5.23856 0
M  V30 7494 H 706.072 0.269447 -0.781874 0
M  V30 7495 H 708.618 -0.206739 -1.68436 0
M  V30 7496 H 707.39 -0.145254 -3.9103 0
M  V30 7497 H 707.013 1.55151 -3.66079 0
M  V30 7498 N 708.01 1.57248 0.105221 0
M  V30 7499 C 708.957 2.01338 1.12835 0
M  V30 7500 C 709.927 0.887897 1.40377 0
M  V30 7501 O 711.112 1.15315 1.5201 0
M  V30 7502 C 708.252 2.43432 2.44611 0
M  V30 7503 C 707.365 3.69457 2.23888 0
M  V30 7504 C 706.5 4.00473 3.48991 0
M  V30 7505 C 705.539 5.19638 3.23485 0
M  V30 7506 N 704.676 5.46457 4.40828 0
M  V30 7507 H 709.516 2.88527 0.745386 0
M  V30 7508 H 707.053 1.42714 0.356535 0
M  V30 7509 H 709.011 2.65879 3.21503 0
M  V30 7510 H 707.641 1.59266 2.80774 0
M  V30 7511 H 706.693 3.54545 1.37847 0
M  V30 7512 H 708.005 4.56497 2.01026 0
M  V30 7513 H 707.159 4.23642 4.34295 0
M  V30 7514 H 705.898 3.11935 3.74897 0
M  V30 7515 H 704.903 4.96299 2.36574 0
M  V30 7516 H 706.128 6.09766 2.98935 0
M  V30 7517 H 704.074 4.60876 4.66829 0
M  V30 7518 H 703.991 6.27849 4.2112 0
M  V30 7519 H 705.259 5.74155 5.27225 0
M  V30 7520 N 709.488 -0.375779 1.53054 0
M  V30 7521 C 710.728 -1.12828 1.70438 0
M  V30 7522 C 711.092 -1.86854 0.441527 0
M  V30 7523 O 712.293 -2.64261 0.491908 0
M  V30 7524 C 710.564 -2.07009 2.91345 0
M  V30 7525 S 712.123 -2.89917 3.29383 0
M  V30 7526 H 708.941 -0.381736 0.599832 0
M  V30 7527 H 711.543 -0.4109 1.91133 0
M  V30 7528 H 710.247 -1.51371 3.81464 0
M  V30 7529 H 709.778 -2.83236 2.73022 0
M  V30 7530 H 711.793 -4.0924 2.80601 0
M  V30 7531 N 710.966 -1.44241 -0.634997 0
M  V30 7532 C 712.377 -1.41622 -1.21655 0
M  V30 7533 C 712.728 -0.129584 -1.95772 0
M  V30 7534 O 711.853 0.770225 -2.02229 0
M  V30 7535 C 712.448 -2.56557 -2.21278 0
M  V30 7536 C 711.007 -2.57145 -2.7487 0
M  V30 7537 C 710.154 -2.33354 -1.49804 0
M  V30 7538 H 713.105 -1.52878 -0.425905 0
M  V30 7539 H 713.126 -2.29089 -3.03807 0
M  V30 7540 H 712.638 -3.50186 -1.67306 0
M  V30 7541 H 710.739 -1.67447 -3.32855 0
M  V30 7542 H 710.852 -3.55507 -3.21172 0
M  V30 7543 H 709.216 -1.82372 -1.77799 0
M  V30 7544 H 709.999 -3.29092 -0.977402 0
M  V30 7545 N 712.444 0.87505 -1.31075 0
M  V30 7546 C 713.377 1.98471 -1.12625 0
M  V30 7547 C 714.355 1.6257 -0.0311379 0
M  V30 7548 O 715.539 1.87574 -0.186594 0
M  V30 7549 C 712.666 3.30963 -0.719799 0
M  V30 7550 C 711.712 3.85849 -1.81722 0
M  V30 7551 S 712.545 4.11926 -3.42165 0
M  V30 7552 C 713.701 5.47423 -3.03445 0
M  V30 7553 H 713.934 2.13817 -2.06566 0
M  V30 7554 H 711.467 1.02463 -1.15502 0
M  V30 7555 H 713.425 4.07541 -0.492035 0
M  V30 7556 H 712.086 3.1346 0.200413 0
M  V30 7557 H 711.279 4.81616 -1.48533 0
M  V30 7558 H 710.881 3.16046 -1.99977 0
M  V30 7559 H 713.173 6.28881 -2.52023 0
M  V30 7560 H 714.116 5.85557 -3.98157 0
M  V30 7561 H 714.524 5.10455 -2.41031 0
M  V30 7562 N 713.922 1.13953 1.08869 0
M  V30 7563 C 715.162 0.915128 1.8277 0
M  V30 7564 C 715.526 -0.548647 1.83994 0
M  V30 7565 O 716.727 -0.890817 2.5361 0
M  V30 7566 C 714.998 1.49382 3.24684 0
M  V30 7567 S 716.557 1.4103 4.15519 0
M  V30 7568 H 713.375 0.329716 0.629927 0
M  V30 7569 H 715.977 1.45213 1.30895 0
M  V30 7570 H 714.681 2.55241 3.21372 0
M  V30 7571 H 714.212 0.955008 3.81632 0
M  V30 7572 H 716.227 0.392617 4.94644 0
M  V30 7573 N 715.4 -1.26948 0.933913 0
M  V30 7574 C 716.63 -1.97898 0.593279 0
M  V30 7575 C 717.038 -1.69806 -0.834412 0
M  V30 7576 O 716.381 -0.958704 -1.56699 0
M  V30 7577 C 716.443 -3.51657 0.746825 0
M  V30 7578 C 716.107 -4.03384 2.14779 0
M  V30 7579 C 717.104 -4.15682 3.12257 0
M  V30 7580 C 714.789 -4.37577 2.46641 0
M  V30 7581 C 716.783 -4.61455 4.39702 0
M  V30 7582 C 714.47 -4.8304 3.7432 0
M  V30 7583 C 715.468 -4.94939 4.70664 0
M  V30 7584 O 715.156 -5.39403 5.96071 0
M  V30 7585 H 714.888 -0.63814 0.223055 0
M  V30 7586 H 717.442 -1.62608 1.2549 0
M  V30 7587 H 715.672 -3.8669 0.0280889 0
M  V30 7588 H 717.361 -4.03821 0.410328 0
M  V30 7589 H 718.127 -3.89519 2.88964 0
M  V30 7590 H 714.006 -4.27554 1.72391 0
M  V30 7591 H 717.55 -4.70658 5.14905 0
M  V30 7592 H 713.447 -5.08646 3.97429 0
M  V30 7593 H 714.215 -5.57641 5.99148 0
M  V30 7594 N 716.879 -0.700114 -1.41195 0
M  V30 7595 C 718.107 -0.242179 -2.05478 0
M  V30 7596 C 718.522 1.11029 -1.52702 0
M  V30 7597 O 717.879 1.69473 -0.677127 0
M  V30 7598 C 717.93 -0.196271 -3.60967 0
M  V30 7599 O 717.651 -1.49532 -4.11791 0
M  V30 7600 C 719.152 0.282102 -4.42401 0
M  V30 7601 H 716.372 -0.111749 -0.661629 0
M  V30 7602 H 718.916 -0.953975 -1.80885 0
M  V30 7603 H 717.071 0.46638 -3.84582 0
M  V30 7604 H 717.485 -1.38545 -5.05871 0
M  V30 7605 H 718.959 0.263093 -5.51373 0
M  V30 7606 H 719.436 1.32174 -4.1884 0
M  V30 7607 H 720.042 -0.349712 -4.2386 0
M  V30 7608 N 718.357 1.51182 -0.445186 0
M  V30 7609 C 719.603 2.02452 0.11882 0
M  V30 7610 C 719.936 1.32824 1.41673 0
M  V30 7611 O 719.211 0.445637 1.89326 0
M  V30 7612 C 719.494 3.5859 0.329475 0
M  V30 7613 C 719.347 4.38823 -0.987638 0
M  V30 7614 C 720.666 4.26241 1.09575 0
M  V30 7615 H 717.785 0.735819 0.0417092 0
M  V30 7616 H 720.427 1.80747 -0.585718 0
M  V30 7617 H 718.577 3.77214 0.9296 0
M  V30 7618 H 720.249 4.3183 -1.62235 0
M  V30 7619 H 718.492 4.03594 -1.59041 0
M  V30 7620 H 719.163 5.46257 -0.794192 0
M  V30 7621 H 721.639 4.11934 0.587328 0
M  V30 7622 H 720.515 5.35354 1.21191 0
M  V30 7623 H 720.776 3.87635 2.12584 0
M  V30 7624 N 719.835 0.176821 1.56605 0
M  V30 7625 C 721.084 -0.466833 1.96223 0
M  V30 7626 C 721.397 -1.64015 1.06576 0
M  V30 7627 O 722.603 -2.3504 1.35898 0
M  V30 7628 C 721.059 -0.881921 3.48927 0
M  V30 7629 C 720.667 0.266102 4.47209 0
M  V30 7630 C 722.411 -1.49368 3.97353 0
M  V30 7631 C 720.318 -0.168923 5.91159 0
M  V30 7632 H 719.248 -0.178178 0.732645 0
M  V30 7633 H 721.899 0.265929 1.81563 0
M  V30 7634 H 720.281 -1.67082 3.59026 0
M  V30 7635 H 721.455 1.04349 4.4883 0
M  V30 7636 H 719.77 0.788178 4.08872 0
M  V30 7637 H 722.367 -1.8313 5.02362 0
M  V30 7638 H 722.71 -2.3936 3.40606 0
M  V30 7639 H 723.243 -0.769114 3.90294 0
M  V30 7640 H 719.982 0.696351 6.51791 0
M  V30 7641 H 719.502 -0.911552 5.92833 0
M  V30 7642 H 721.181 -0.610938 6.44109 0
M  V30 7643 N 721.313 -1.57302 -0.09688 0
M  V30 7644 C 722.541 -1.90202 -0.814295 0
M  V30 7645 C 722.956 -0.770344 -1.72369 0
M  V30 7646 O 722.313 0.257764 -1.8067 0
M  V30 7647 C 722.364 -3.22708 -1.62916 0
M  V30 7648 O 722.085 -4.31522 -0.756343 0
M  V30 7649 C 723.586 -3.69459 -2.44979 0
M  V30 7650 H 720.806 -0.629275 -0.232925 0
M  V30 7651 H 723.35 -2.04364 -0.0746482 0
M  V30 7652 H 721.505 -3.1015 -2.32133 0
M  V30 7653 H 721.919 -5.07604 -1.32054 0
M  V30 7654 H 723.393 -4.64875 -2.9765 0
M  V30 7655 H 723.87 -2.97211 -3.23361 0
M  V30 7656 H 724.476 -3.84879 -1.80964 0
M  V30 7657 N 722.791 0.367657 -1.53252 0
M  V30 7658 C 724.038 1.11052 -1.69333 0
M  V30 7659 C 724.366 1.89363 -0.444064 0
M  V30 7660 O 723.621 1.87094 0.573953 0
M  V30 7661 C 723.92 2.09825 -2.89324 0
M  V30 7662 C 723.586 1.4801 -4.25915 0
M  V30 7663 C 722.248 1.30879 -4.6306 0
M  V30 7664 C 724.6 1.03268 -5.10867 0
M  V30 7665 C 721.928 0.675868 -5.82794 0
M  V30 7666 C 724.28 0.41377 -6.31245 0
M  V30 7667 C 722.944 0.229939 -6.67104 0
M  V30 7668 H 722.214 0.406367 -0.619634 0
M  V30 7669 H 724.861 0.392558 -1.87433 0
M  V30 7670 H 723.166 2.87917 -2.65728 0
M  V30 7671 H 724.863 2.67252 -2.98961 0
M  V30 7672 H 721.453 1.62336 -3.96667 0
M  V30 7673 H 725.637 1.15297 -4.82722 0
M  V30 7674 H 720.893 0.521833 -6.09169 0
M  V30 7675 H 725.067 0.0588768 -6.96375 0
M  V30 7676 H 722.694 -0.262562 -7.59746 0
M  V30 7677 N 724.269 1.44576 0.627338 0
M  V30 7678 C 725.216 1.51734 1.73912 0
M  V30 7679 C 726.186 0.364745 1.62046 0
M  V30 7680 O 727.371 0.575503 1.81914 0
M  V30 7681 C 724.511 1.47116 3.12171 0
M  V30 7682 C 723.624 2.72778 3.34986 0
M  V30 7683 C 722.759 2.59968 4.63239 0
M  V30 7684 C 721.798 3.80776 4.79245 0
M  V30 7685 N 720.935 3.66618 5.98778 0
M  V30 7686 H 725.775 2.46722 1.6713 0
M  V30 7687 H 723.312 1.22444 0.815224 0
M  V30 7688 H 725.27 1.42429 3.92135 0
M  V30 7689 H 723.9 0.556928 3.17959 0
M  V30 7690 H 722.952 2.87637 2.48936 0
M  V30 7691 H 724.264 3.62441 3.42692 0
M  V30 7692 H 723.418 2.53135 5.51369 0
M  V30 7693 H 722.157 1.67872 4.57898 0
M  V30 7694 H 721.162 3.87989 3.89544 0
M  V30 7695 H 722.387 4.73913 4.86398 0
M  V30 7696 H 720.333 2.77277 5.9452 0
M  V30 7697 H 720.25 4.499 6.07557 0
M  V30 7698 H 721.518 3.63684 6.89459 0
M  V30 7699 N 725.747 -0.868086 1.31537 0
M  V30 7700 C 726.679 -1.98165 1.15166 0
M  V30 7701 C 727.692 -1.6255 0.0902335 0
M  V30 7702 O 728.881 -1.75272 0.33791 0
M  V30 7703 C 725.981 -3.30772 0.737776 0
M  V30 7704 C 725.154 -3.94716 1.88462 0
M  V30 7705 C 724.213 -5.05641 1.45648 0
M  V30 7706 O 723.239 -5.2636 2.16642 0
M  V30 7707 N 724.441 -5.79474 0.34493 0
M  V30 7708 H 727.206 -2.12754 2.11083 0
M  V30 7709 H 724.767 -1.04217 1.23897 0
M  V30 7710 H 726.759 -4.02366 0.434032 0
M  V30 7711 H 725.329 -3.1233 -0.129834 0
M  V30 7712 H 724.549 -3.16079 2.35558 0
M  V30 7713 H 725.837 -4.34175 2.65273 0
M  V30 7714 H 725.235 -5.65164 -0.246259 0
M  V30 7715 H 723.792 -6.51722 0.100728 0
M  V30 7716 N 727.225 -1.14528 -1.08264 0
M  V30 7717 C 728.172 -0.833556 -2.15222 0
M  V30 7718 C 729.142 0.209539 -1.64773 0
M  V30 7719 O 730.327 0.0791388 -1.90636 0
M  V30 7720 C 727.467 -0.318799 -3.43624 0
M  V30 7721 C 726.58 -1.42237 -4.07913 0
M  V30 7722 C 725.715 -0.864704 -5.24115 0
M  V30 7723 C 724.754 -1.94585 -5.80347 0
M  V30 7724 N 723.891 -1.40525 -6.87893 0
M  V30 7725 H 728.731 -1.74965 -2.41228 0
M  V30 7726 H 726.268 -0.873169 -1.18381 0
M  V30 7727 H 728.226 -0.00213088 -4.172 0
M  V30 7728 H 726.856 0.560397 -3.17898 0
M  V30 7729 H 725.908 -1.8554 -3.32083 0
M  V30 7730 H 727.22 -2.23901 -4.45724 0
M  V30 7731 H 726.374 -0.500025 -6.04636 0
M  V30 7732 H 725.113 -0.0171219 -4.87697 0
M  V30 7733 H 724.118 -2.31946 -4.98479 0
M  V30 7734 H 725.343 -2.79704 -6.18823 0
M  V30 7735 H 723.289 -0.579873 -6.53432 0
M  V30 7736 H 723.206 -2.15825 -7.24538 0
M  V30 7737 H 724.474 -1.06852 -7.72142 0
M  V30 7738 N 728.703 1.26451 -0.940633 0
M  V30 7739 C 729.952 1.93071 -0.583656 0
M  V30 7740 C 730.265 1.74618 0.881366 0
M  V30 7741 O 731.471 2.35689 1.34769 0
M  V30 7742 C 729.927 3.45927 -0.993106 0
M  V30 7743 C 729.535 3.73115 -2.4797 0
M  V30 7744 C 731.279 4.18554 -0.707998 0
M  V30 7745 C 729.186 5.19408 -2.82788 0
M  V30 7746 H 728.116 0.722824 -0.214572 0
M  V30 7747 H 730.767 1.43538 -1.1432 0
M  V30 7748 H 729.149 3.94341 -0.362099 0
M  V30 7749 H 730.323 3.35408 -3.15971 0
M  V30 7750 H 728.638 3.13719 -2.73805 0
M  V30 7751 H 731.235 5.26293 -0.94447 0
M  V30 7752 H 731.578 4.14782 0.355225 0
M  V30 7753 H 732.111 3.76003 -1.2987 0
M  V30 7754 H 728.85 5.28281 -3.88071 0
M  V30 7755 H 728.37 5.58214 -2.19449 0
M  V30 7756 H 730.049 5.87407 -2.71224 0
M  V30 7757 N 730.181 0.707592 1.40822 0
M  V30 7758 C 731.428 0.243671 2.01029 0
M  V30 7759 C 731.756 -1.16057 1.5608 0
M  V30 7760 O 731.011 -1.7999 0.768251 0
M  V30 7761 C 731.31 0.262892 3.56432 0
M  V30 7762 C 730.976 1.61632 4.20935 0
M  V30 7763 C 729.638 1.98682 4.38268 0
M  V30 7764 C 731.99 2.50619 4.5699 0
M  V30 7765 C 729.318 3.2428 4.88937 0
M  V30 7766 C 731.67 3.75562 5.09054 0
M  V30 7767 C 730.334 4.12739 5.24598 0
M  V30 7768 H 729.604 0.0891654 0.735616 0
M  V30 7769 H 732.251 0.909051 1.68548 0
M  V30 7770 H 730.556 -0.486052 3.88773 0
M  V30 7771 H 732.253 -0.113775 4.00839 0
M  V30 7772 H 728.843 1.31818 4.07826 0
M  V30 7773 H 733.027 2.23272 4.43242 0
M  V30 7774 H 728.283 3.53064 4.99155 0
M  V30 7775 H 732.457 4.44692 5.35931 0
M  V30 7776 H 730.084 5.10132 5.63622 0
M  V30 7777 N 731.66 -1.50943 0.453197 0
M  V30 7778 C 732.593 -2.24742 -0.395787 0
M  V30 7779 C 733.571 -1.27316 -1.01141 0
M  V30 7780 O 734.755 -1.56494 -1.05081 0
M  V30 7781 C 731.882 -3.00999 -1.55298 0
M  V30 7782 C 730.928 -4.13207 -1.0565 0
M  V30 7783 S 731.761 -5.35498 0.01435 0
M  V30 7784 C 732.917 -6.15298 -1.14714 0
M  V30 7785 H 733.15 -2.96403 0.23071 0
M  V30 7786 H 730.683 -1.52557 0.237874 0
M  V30 7787 H 732.641 -3.45529 -2.2163 0
M  V30 7788 H 731.302 -2.28896 -2.15094 0
M  V30 7789 H 730.495 -4.65901 -1.9223 0
M  V30 7790 H 730.097 -3.7102 -0.471182 0
M  V30 7791 H 732.389 -6.45346 -2.06239 0
M  V30 7792 H 733.332 -7.05019 -0.659842 0
M  V30 7793 H 733.74 -5.47046 -1.39288 0
M  V30 7794 N 733.138 -0.185124 -1.56509 0
M  V30 7795 C 734.363 0.465278 -2.02114 0
M  V30 7796 C 734.788 1.55083 -1.06447 0
M  V30 7797 O 734.146 1.81241 -0.0462852 0
M  V30 7798 C 734.194 1.00784 -3.46229 0
M  V30 7799 O 733.298 2.12123 -3.53663 0
M  V30 7800 H 732.639 0.109891 -0.654843 0
M  V30 7801 H 735.169 -0.293072 -2.0249 0
M  V30 7802 H 735.179 1.32697 -3.85818 0
M  V30 7803 H 733.854 0.213113 -4.15354 0
M  V30 7804 H 732.431 1.8115 -3.25943 0
M  V30 7805 O 734.655 1.6143 -0.0476879 0
M  V30 7806 H 735.346 1.85363 0.562176 0
M  V30 END ATOM
M  V30 BEGIN BOND
M  V30 END BOND
M  V30 END CTAB
M  END
$$$$
