drugbank_target|P51164 Potassium-transporting ATPase subunit beta (DB05351)
 OpenBabel12092119353D

  0  0  0     0  0            999 V3000
M  V30 BEGIN CTAB
M  V30 COUNTS 4634 4704 0 0 0
M  V30 BEGIN ATOM
M  V30 1 H -0.908 1.98254 -0.117106 0
M  V30 2 N 0 1.576 0 0
M  V30 3 C 0.933 2.03868 1.02534 0
M  V30 4 C 1.911 0.928543 1.3348 0
M  V30 5 O 3.095 1.19667 1.45644 0
M  V30 6 C 0.222 2.43627 2.35294 0
M  V30 7 C -0.732 3.65373 2.2001 0
M  V30 8 S 0.101 5.13292 1.52614 0
M  V30 9 C 1.257 5.56322 2.86805 0
M  V30 10 H 1.49 2.90518 0.631377 0
M  V30 11 H -0.977 1.52953 0.210867 0
M  V30 12 H 0.981 2.67203 3.11629 0
M  V30 13 H -0.358 1.57376 2.7183 0
M  V30 14 H -1.165 3.90944 3.18086 0
M  V30 15 H -1.563 3.418 1.51819 0
M  V30 16 H 0.729 5.58782 3.83104 0
M  V30 17 H 1.672 6.56266 2.65933 0
M  V30 18 H 2.08 4.83886 2.90714 0
M  V30 19 N 1.4781 -0.272755 1.55222 0
M  V30 20 C 2.4411 -1.32041 1.87344 0
M  V30 21 C 3.4411 -1.42342 0.74803 0
M  V30 22 O 4.6311 -1.41488 1.0162 0
M  V30 23 C 1.7631 -2.70173 2.07893 0
M  V30 24 H 2.9561 -1.04789 2.80997 0
M  V30 25 H 0.5091 -0.51083 1.47717 0
M  V30 26 H 1.2441 -3.02605 1.16622 0
M  V30 27 H 1.0291 -2.64082 2.89833 0
M  V30 28 H 2.5191 -3.45869 2.34017 0
M  V30 29 N 2.9562 -1.48159 -0.537278 0
M  V30 30 C 3.9192 -1.61665 -1.62472 0
M  V30 31 C 4.9192 -0.490395 -1.5314 0
M  V30 32 O 6.1092 -0.755998 -1.5694 0
M  V30 33 C 3.2412 -1.57997 -3.02076 0
M  V30 34 H 4.4342 -2.58621 -1.51839 0
M  V30 35 H 1.9872 -1.36647 -0.758771 0
M  V30 36 H 2.7222 -0.624913 -3.18222 0
M  V30 37 H 2.5072 -2.39755 -3.10258 0
M  V30 38 H 3.9972 -1.70627 -3.81151 0
M  V30 39 N 4.4343 0.785586 -1.36625 0
M  V30 40 C 5.3643 1.91259 -1.33949 0
M  V30 41 C 6.3453 1.68795 -0.210325 0
M  V30 42 O 7.5303 1.89854 -0.408561 0
M  V30 43 C 4.6603 3.28339 -1.13186 0
M  V30 44 C 3.6143 3.65335 -2.22967 0
M  V30 45 C 2.9403 5.00806 -1.87342 0
M  V30 46 C 4.2403 3.7352 -3.65075 0
M  V30 47 H 5.9343 1.93755 -2.28253 0
M  V30 48 H 3.4803 0.930788 -1.09874 0
M  V30 49 H 5.4333 4.06804 -1.09948 0
M  V30 50 H 4.1573 3.2624 -0.153332 0
M  V30 51 H 2.8163 2.89169 -2.25337 0
M  V30 52 H 2.4643 4.95233 -0.880545 0
M  V30 53 H 2.1643 5.26529 -2.60846 0
M  V30 54 H 3.6883 5.81687 -1.85667 0
M  V30 55 H 5.1023 4.42168 -3.64911 0
M  V30 56 H 3.4993 4.10731 -4.37516 0
M  V30 57 H 4.5693 2.74527 -3.99703 0
M  V30 58 N 5.9124 1.20967 1.01018 0
M  V30 59 C 6.8444 0.922059 2.09835 0
M  V30 60 C 7.8574 -0.0927106 1.62536 0
M  V30 61 O 9.0464 0.139127 1.77957 0
M  V30 62 C 6.1464 0.362004 3.36961 0
M  V30 63 C 5.3194 1.42986 4.13369 0
M  V30 64 C 4.3784 0.879976 5.1879 0
M  V30 65 O 3.4044 1.56219 5.47343 0
M  V30 66 N 4.6064 -0.307396 5.79686 0
M  V30 67 H 7.3714 1.8588 2.35093 0
M  V30 68 H 4.9324 1.11422 1.1746 0
M  V30 69 H 6.9244 -0.0201474 4.04695 0
M  V30 70 H 5.4944 -0.479437 3.08902 0
M  V30 71 H 4.7144 1.98608 3.40512 0
M  V30 72 H 6.0024 2.14885 4.61196 0
M  V30 73 H 5.4004 -0.878796 5.58832 0
M  V30 74 H 3.9574 -0.631115 6.48737 0
M  V30 75 N 7.3905 -1.2043 1.01659 0
M  V30 76 C 8.3005 -2.2689 0.596484 0
M  V30 77 C 9.3165 -1.70107 -0.36599 0
M  V30 78 O 10.4925 -2.00117 -0.226942 0
M  V30 79 C 7.5575 -3.4665 -0.0586659 0
M  V30 80 C 6.6185 -4.18662 0.949751 0
M  V30 81 C 5.8515 -5.32705 0.32577 0
M  V30 82 O 6.0745 -5.63656 -0.874509 0
M  V30 83 O 5.0085 -5.92803 1.04249 0
M  V30 84 H 8.8345 -2.65041 1.4828 0
M  V30 85 H 6.4195 -1.27048 0.786082 0
M  V30 86 H 8.3015 -4.19256 -0.424564 0
M  V30 87 H 6.9765 -3.10375 -0.91918 0
M  V30 88 H 5.8835 -3.48229 1.36702 0
M  V30 89 H 7.2165 -4.58878 1.78023 0
M  V30 90 N 8.8686 -0.792821 -1.36206 0
M  V30 91 C 9.8156 -0.191653 -2.30003 0
M  V30 92 C 10.7856 0.666453 -1.52143 0
M  V30 93 O 11.9706 0.61442 -1.80636 0
M  V30 94 C 9.1106 0.664848 -3.38635 0
M  V30 95 C 8.2236 -0.212175 -4.31479 0
M  V30 96 C 7.3586 0.651022 -5.27196 0
M  V30 97 C 6.3976 -0.227247 -6.11678 0
M  V30 98 N 5.5346 0.595127 -6.99573 0
M  V30 99 H 10.3746 -0.996978 -2.80828 0
M  V30 100 H 7.9116 -0.503206 -1.38225 0
M  V30 101 H 9.8696 1.17645 -4.00269 0
M  V30 102 H 8.4996 1.43557 -2.89122 0
M  V30 103 H 7.5516 -0.841777 -3.70969 0
M  V30 104 H 8.8636 -0.888751 -4.90818 0
M  V30 105 H 8.0176 1.2283 -5.94136 0
M  V30 106 H 6.7566 1.36121 -4.68319 0
M  V30 107 H 5.7616 -0.816904 -5.43697 0
M  V30 108 H 6.9866 -0.93509 -6.72631 0
M  V30 109 H 4.9326 1.28955 -6.432 0
M  V30 110 H 4.8496 -0.0236952 -7.55996 0
M  V30 111 H 6.1176 1.15613 -7.70879 0
M  V30 112 N 10.3467 1.47872 -0.545128 0
M  V30 113 C 11.2937 2.29849 0.2093 0
M  V30 114 C 12.2637 1.38313 0.919707 0
M  V30 115 O 13.4487 1.67277 0.917772 0
M  V30 116 C 10.5887 3.22019 1.24088 0
M  V30 117 C 9.7017 4.2864 0.537778 0
M  V30 118 C 8.8367 5.07973 1.5536 0
M  V30 119 C 7.8757 6.06381 0.8348 0
M  V30 120 N 7.0127 6.78717 1.79688 0
M  V30 121 H 11.8527 2.93845 -0.49591 0
M  V30 122 H 9.3897 1.44848 -0.256389 0
M  V30 123 H 11.3477 3.73868 1.85144 0
M  V30 124 H 9.9777 2.59914 1.91428 0
M  V30 125 H 9.0297 3.7994 -0.187046 0
M  V30 126 H 10.3417 4.98793 -0.0258907 0
M  V30 127 H 9.4957 5.63912 2.23803 0
M  V30 128 H 8.2347 4.37693 2.15118 0
M  V30 129 H 7.2397 5.49631 0.136388 0
M  V30 130 H 8.4647 6.78665 0.24313 0
M  V30 131 H 6.4107 6.11177 2.38326 0
M  V30 132 H 6.3277 7.44998 1.28505 0
M  V30 133 H 7.5957 7.39237 2.47282 0
M  V30 134 N 11.8248 0.280983 1.55075 0
M  V30 135 C 13.0528 -0.337293 2.04132 0
M  V30 136 C 13.4678 -1.4903 1.15912 0
M  V30 137 O 12.8248 -1.81606 0.180459 0
M  V30 138 C 12.8758 -0.812706 3.52246 0
M  V30 139 O 12.5968 0.294387 4.3711 0
M  V30 140 C 14.0978 -1.4982 4.17216 0
M  V30 141 H 11.3178 -0.0761638 0.666663 0
M  V30 142 H 13.8618 0.414787 2.00249 0
M  V30 143 H 12.0168 -1.51486 3.56554 0
M  V30 144 H 12.4308 -0.0721325 5.2445 0
M  V30 145 H 13.9048 -1.7822 5.22438 0
M  V30 146 H 14.3818 -2.43168 3.65741 0
M  V30 147 H 14.9878 -0.839742 4.16927 0
M  V30 148 N 13.3029 -1.57598 0.00835791 0
M  V30 149 C 14.5429 -1.92788 -0.679136 0
M  V30 150 C 14.9069 -0.883378 -1.70471 0
M  V30 151 O 16.1079 -1.12079 -2.44319 0
M  V30 152 C 14.3789 -3.32994 -1.29807 0
M  V30 153 S 15.9379 -3.90082 -2.00952 0
M  V30 154 H 12.7559 -0.67475 -0.224127 0
M  V30 155 H 15.3579 -1.95385 0.0670497 0
M  V30 156 H 14.0619 -4.06846 -0.538922 0
M  V30 157 H 13.5929 -3.33791 -2.082 0
M  V30 158 H 15.6079 -3.71834 -3.28563 0
M  V30 159 N 14.781 0.264519 -1.55364 0
M  V30 160 C 16.029 0.993021 -1.76021 0
M  V30 161 C 16.35 1.86511 -0.569099 0
M  V30 162 O 15.62 1.91438 0.415735 0
M  V30 163 H 14.2 0.369639 -0.649135 0
M  V30 164 H 16.862 0.286707 -1.9278 0
M  V30 165 H 15.958 1.62502 -2.66457 0
M  V30 166 N 16.2591 1.48442 0.529413 0
M  V30 167 C 17.1911 1.59095 1.64989 0
M  V30 168 C 18.2041 0.475212 1.5571 0
M  V30 169 O 19.3931 0.746081 1.6216 0
M  V30 170 C 16.4931 1.50518 3.0364 0
M  V30 171 C 15.6661 2.77142 3.38395 0
M  V30 172 C 14.7251 2.62012 4.56329 0
M  V30 173 O 13.7511 3.35898 4.59522 0
M  V30 174 N 14.9531 1.71667 5.54536 0
M  V30 175 H 17.7181 2.55723 1.56287 0
M  V30 176 H 15.2791 1.45173 0.716697 0
M  V30 177 H 17.2711 1.38091 3.80412 0
M  V30 178 H 15.8411 0.618627 3.06418 0
M  V30 179 H 15.0611 3.0413 2.50796 0
M  V30 180 H 16.3491 3.61146 3.58401 0
M  V30 181 H 15.7471 1.10841 5.54735 0
M  V30 182 H 14.3041 1.65178 6.30523 0
M  V30 183 N 17.7372 -0.778329 1.37039 0
M  V30 184 C 19.1532 -1.07796 1.17695 0
M  V30 185 C 19.3532 -2.01498 0.00860115 0
M  V30 186 O 18.4092 -2.43901 -0.653352 0
M  V30 187 C 19.7222 -1.68178 2.49272 0
M  V30 188 C 21.2702 -1.80467 2.55735 0
M  V30 189 C 21.7452 -2.44263 3.87427 0
M  V30 190 N 23.2362 -2.51721 3.88833 0
M  V30 191 C 23.9712 -3.01919 4.87476 0
M  V30 192 N 23.4672 -3.5234 5.96513 0
M  V30 193 N 25.2602 -3.00733 4.74885 0
M  V30 194 H 17.4112 -0.156032 2.11826 0
M  V30 195 H 19.6742 -0.131844 0.938787 0
M  V30 196 H 19.3802 -1.06796 3.35093 0
M  V30 197 H 19.2542 -2.67554 2.65885 0
M  V30 198 H 21.6412 -2.40984 1.70325 0
M  V30 199 H 21.7222 -0.798656 2.43013 0
M  V30 200 H 21.3662 -1.84388 4.73248 0
M  V30 201 H 21.2962 -3.45458 3.9745 0
M  V30 202 H 23.7872 -2.1603 3.10063 0
M  V30 203 H 24.1002 -3.89027 6.67741 0
M  V30 204 H 22.4452 -3.50462 6.00168 0
M  V30 205 H 25.6362 -2.60638 3.88826 0
M  V30 206 H 25.8092 -3.39545 5.51918 0
M  V30 207 N 19.2153 -1.21501 -1.00376 0
M  V30 208 C 20.1483 -0.918669 -2.08892 0
M  V30 209 C 21.1263 0.134277 -1.62045 0
M  V30 210 O 22.3103 0.00504255 -1.88499 0
M  V30 211 C 19.4373 -0.379645 -3.36566 0
M  V30 212 C 18.4833 -1.41559 -4.02323 0
M  V30 213 S 19.3163 -2.98521 -4.44574 0
M  V30 214 C 20.4723 -2.46228 -5.75433 0
M  V30 215 H 20.7053 -1.83761 -2.33707 0
M  V30 216 H 18.2383 -1.04489 -1.13673 0
M  V30 217 H 20.1963 -0.0752195 -4.10431 0
M  V30 218 H 18.8573 0.518008 -3.09799 0
M  V30 219 H 18.0503 -0.988076 -4.9422 0
M  V30 220 H 17.6523 -1.66815 -3.34737 0
M  V30 221 H 19.9443 -1.86791 -6.51241 0
M  V30 222 H 20.8873 -3.36572 -6.22997 0
M  V30 223 H 21.2953 -1.87894 -5.32312 0
M  V30 224 N 20.6934 1.19889 -1.02296 0
M  V30 225 C 21.6034 2.26571 -0.608508 0
M  V30 226 C 22.6194 1.70299 0.356964 0
M  V30 227 O 23.7954 2.00235 0.216326 0
M  V30 228 C 20.8604 3.46677 0.0402814 0
M  V30 229 C 19.9214 4.18153 -0.97194 0
M  V30 230 C 19.1544 5.32525 -0.354016 0
M  V30 231 O 19.3774 5.64112 0.844604 0
M  V30 232 O 18.3114 5.92242 -1.07391 0
M  V30 233 H 22.1374 2.64251 -1.49684 0
M  V30 234 H 19.7224 1.26629 -0.792809 0
M  V30 235 H 21.6044 4.19475 0.402324 0
M  V30 236 H 20.2794 3.10858 0.902707 0
M  V30 237 H 19.1864 3.47499 -1.38546 0
M  V30 238 H 20.5194 4.57927 -1.80454 0
M  V30 239 N 22.1715 0.800033 1.35784 0
M  V30 240 C 23.0815 0.207204 2.33683 0
M  V30 241 C 24.0975 -0.64631 1.61551 0
M  V30 242 O 25.2735 -0.559604 1.93469 0
M  V30 243 C 22.3385 -0.639659 3.40748 0
M  V30 244 C 21.3995 0.233585 4.28664 0
M  V30 245 C 20.6325 -0.572954 5.30616 0
M  V30 246 O 20.8555 -1.80816 5.40982 0
M  V30 247 O 19.7895 0.0327285 6.01891 0
M  V30 248 H 23.6155 1.01692 2.86169 0
M  V30 249 H 21.2005 0.561691 1.38439 0
M  V30 250 H 23.0825 -1.12223 4.06182 0
M  V30 251 H 21.7575 -1.42708 2.90544 0
M  V30 252 H 20.6645 0.763147 3.66233 0
M  V30 253 H 21.9975 0.984784 4.82248 0
M  V30 254 N 23.6496 -1.47581 0.552962 0
M  V30 255 C 24.8966 -2.02482 0.0273243 0
M  V30 256 C 25.2246 -1.42776 -1.32081 0
M  V30 257 O 24.4796 -0.571393 -1.87173 0
M  V30 258 C 24.7786 -3.57199 -0.119728 0
M  V30 259 C 24.4446 -4.35804 1.15697 0
M  V30 260 C 23.1066 -4.57 1.50681 0
M  V30 261 C 25.4586 -4.81167 2.00319 0
M  V30 262 C 22.7866 -5.20807 2.70142 0
M  V30 263 C 25.1386 -5.46293 3.18978 0
M  V30 264 C 23.8026 -5.65722 3.54281 0
M  V30 265 H 23.0726 -0.740933 0.00999866 0
M  V30 266 H 25.7196 -1.77302 0.72362 0
M  V30 267 H 24.0246 -3.81348 -0.89896 0
M  V30 268 H 25.7216 -3.97324 -0.541718 0
M  V30 269 H 22.3116 -4.19582 0.874561 0
M  V30 270 H 26.4956 -4.64574 1.74599 0
M  V30 271 H 21.7516 -5.34045 2.97668 0
M  V30 272 H 25.9256 -5.80407 3.84838 0
M  V30 273 H 23.5526 -6.14936 4.46942 0
M  V30 274 N 25.1277 -0.289203 -1.54924 0
M  V30 275 C 26.0597 0.625583 -2.20497 0
M  V30 276 C 27.0727 1.10667 -1.19402 0
M  V30 277 O 28.2617 1.02615 -1.46056 0
M  V30 278 C 25.3617 1.86702 -2.82835 0
M  V30 279 C 24.5347 1.5304 -4.09753 0
M  V30 280 C 23.5937 2.62576 -4.56005 0
M  V30 281 O 22.6197 2.28167 -5.21468 0
M  V30 282 N 23.8217 3.92901 -4.27328 0
M  V30 283 H 26.5867 0.0642801 -2.99631 0
M  V30 284 H 24.1477 -0.110896 -1.6152 0
M  V30 285 H 26.1397 2.59304 -3.10715 0
M  V30 286 H 24.7097 2.33702 -2.07611 0
M  V30 287 H 23.9297 0.637564 -3.8901 0
M  V30 288 H 25.2177 1.28072 -4.92418 0
M  V30 289 H 24.6157 4.23671 -3.74859 0
M  V30 290 H 23.1727 4.61837 -4.59946 0
M  V30 291 N 26.6058 1.57591 -0.0167156 0
M  V30 292 C 28.0218 1.55946 0.339557 0
M  V30 293 C 28.2218 1.02109 1.73713 0
M  V30 294 O 27.2778 0.662303 2.43659 0
M  V30 295 C 28.5908 3.00037 0.199499 0
M  V30 296 C 30.1388 3.11805 0.273193 0
M  V30 297 C 30.6138 4.57713 0.162068 0
M  V30 298 N 32.1048 4.6268 0.219444 0
M  V30 299 C 32.8398 5.73185 0.157054 0
M  V30 300 N 32.3358 6.92786 0.0442936 0
M  V30 301 N 34.1288 5.61707 0.21014 0
M  V30 302 H 26.2798 1.90921 -0.930758 0
M  V30 303 H 28.5428 0.877674 -0.358319 0
M  V30 304 H 28.2488 3.4333 -0.76273 0
M  V30 305 H 28.1228 3.64387 0.974786 0
M  V30 306 H 30.5098 2.68433 1.22587 0
M  V30 307 H 30.5908 2.50201 -0.532256 0
M  V30 308 H 30.2348 5.01763 -0.78714 0
M  V30 309 H 30.1648 5.17283 0.986222 0
M  V30 310 H 32.6558 3.76649 0.307246 0
M  V30 311 H 32.9688 7.728 0.00304069 0
M  V30 312 H 31.3138 6.94999 0.00968457 0
M  V30 313 H 34.5048 4.6716 0.296546 0
M  V30 314 H 34.6778 6.47807 0.158054 0
M  V30 315 N 28.0839 -0.256276 1.55502 0
M  V30 316 C 29.3139 -1.00196 1.80677 0
M  V30 317 C 29.7219 -1.79805 0.588797 0
M  V30 318 O 29.0649 -1.78055 -0.451883 0
M  V30 319 C 29.1269 -1.99515 2.99055 0
M  V30 320 C 28.7909 -1.38688 4.35448 0
M  V30 321 C 29.7879 -0.794079 5.138 0
M  V30 322 C 27.4729 -1.40906 4.82132 0
M  V30 323 C 29.4669 -0.231562 6.36979 0
M  V30 324 C 27.1539 -0.842684 6.05262 0
M  V30 325 C 28.1519 -0.254953 6.82524 0
M  V30 326 O 27.8399 0.3027 8.0333 0
M  V30 327 H 27.5719 -0.300919 0.60533 0
M  V30 328 H 30.1259 -0.287307 2.03381 0
M  V30 329 H 28.3559 -2.74785 2.72084 0
M  V30 330 H 30.0449 -2.60349 3.11405 0
M  V30 331 H 30.8109 -0.769519 4.78856 0
M  V30 332 H 26.6899 -1.85591 4.21992 0
M  V30 333 H 30.2339 0.227816 6.97228 0
M  V30 334 H 26.1309 -0.86454 6.39684 0
M  V30 335 H 26.8989 0.193662 8.18271 0
M  V30 336 N 29.562 -1.4872 -0.521534 0
M  V30 337 C 30.802 -1.58771 -1.28729 0
M  V30 338 C 31.166 -0.259394 -1.9024 0
M  V30 339 O 32.367 -0.234942 -2.67771 0
M  V30 340 C 30.638 -2.70039 -2.34124 0
M  V30 341 S 32.197 -2.9991 -3.20312 0
M  V30 342 H 29.015 -0.560251 -0.437767 0
M  V30 343 H 31.617 -1.86283 -0.593188 0
M  V30 344 H 30.321 -3.65101 -1.87429 0
M  V30 345 H 29.852 -2.44455 -3.08229 0
M  V30 346 H 31.867 -2.39855 -4.34378 0
M  V30 347 N 31.0401 0.771051 -1.3745 0
M  V30 348 C 32.2861 1.53109 -1.339 0
M  V30 349 C 32.6411 1.9225 0.0758401 0
M  V30 350 O 31.9341 1.61264 1.03463 0
M  V30 351 C 32.1281 2.80676 -2.2126 0
M  V30 352 C 31.9571 2.54003 -3.71096 0
M  V30 353 C 30.7271 2.48097 -4.402 0
M  V30 354 C 32.9251 2.21953 -4.63941 0
M  V30 355 N 30.9071 2.13515 -5.75573 0
M  V30 356 C 32.2781 1.97516 -5.87697 0
M  V30 357 C 34.3331 2.08114 -4.5232 0
M  V30 358 C 33.0361 1.60638 -7.01133 0
M  V30 359 C 35.0621 1.72636 -5.65642 0
M  V30 360 C 34.4241 1.4906 -6.88448 0
M  V30 361 H 30.5231 0.56055 -0.54526 0
M  V30 362 H 33.1071 0.899472 -1.72678 0
M  V30 363 H 31.2781 3.41674 -1.84698 0
M  V30 364 H 33.0101 3.46578 -2.08963 0
M  V30 365 H 29.7651 2.63974 -3.93211 0
M  V30 366 H 30.1891 1.98919 -6.47117 0
M  V30 367 H 34.8311 2.25024 -3.57944 0
M  V30 368 H 32.5491 1.42467 -7.95443 0
M  V30 369 H 36.1351 1.62586 -5.58621 0
M  V30 370 H 35.0151 1.22014 -7.7465 0
M  V30 371 N 32.5182 1.22032 0.997298 0
M  V30 372 C 33.4662 0.983634 2.10778 0
M  V30 373 C 34.4602 -0.0717564 1.69248 0
M  V30 374 O 35.6662 0.080304 1.79821 0
M  V30 375 H 32.0412 0.300877 0.689186 0
M  V30 376 H 34.0122 1.92606 2.27916 0
M  V30 377 C 32.7612 0.57326 3.42942 0
M  V30 378 H 32.0842 1.37702 3.75338 0
M  V30 379 H 33.5242 0.447031 4.21637 0
M  V30 380 C 31.9832 -0.7167 3.29188 0
M  V30 381 O 32.5132 -1.77027 3.60589 0
M  V30 382 N 30.7192 -0.686167 2.82383 0
M  V30 383 H 30.2662 0.171507 2.57028 0
M  V30 384 H 30.2242 -1.54955 2.73562 0
M  V30 385 N 33.9963 -1.19345 1.0293 0
M  V30 386 C 35.4073 -1.70725 0.755633 0
M  V30 387 C 35.7583 -1.82326 -0.724676 0
M  V30 388 O 34.8833 -1.49471 -1.56484 0
M  V30 389 C 35.4783 -3.10084 1.36503 0
M  V30 390 C 34.0373 -3.58723 1.13994 0
M  V30 391 C 33.1843 -2.35577 1.46283 0
M  V30 392 H 36.1353 -1.0418 1.19718 0
M  V30 393 H 36.1563 -3.72787 0.762217 0
M  V30 394 H 35.6683 -3.01609 2.44241 0
M  V30 395 H 33.7693 -3.72512 0.0807901 0
M  V30 396 H 33.8823 -4.42816 1.82894 0
M  V30 397 H 32.2463 -2.38935 0.88217 0
M  V30 398 H 33.0293 -2.29731 2.55105 0
M  V30 399 N 35.4744 -0.807222 -1.35358 0
M  V30 400 C 36.7514 -0.311126 -1.9311 0
M  V30 401 C 37.1314 1.19937 -1.73719 0
M  V30 402 O 36.4794 1.99918 -1.10657 0
M  V30 403 C 36.6894 -0.723226 -3.41424 0
M  V30 404 C 38.0374 -0.713078 -4.18569 0
M  V30 405 O 39.0614 -0.664811 -3.49941 0
M  V30 406 O 37.9204 -0.772022 -5.41019 0
M  V30 407 H 35.0144 -0.081526 -0.822972 0
M  V30 408 H 37.5604 -0.890962 -1.4443 0
M  V30 409 H 36.3324 -1.76426 -3.4927 0
M  V30 410 H 35.9554 -0.118232 -3.97424 0
M  V30 411 N 36.9525 1.47285 -0.560781 0
M  V30 412 C 38.1805 2.06855 -0.0430262 0
M  V30 413 C 38.5955 1.41291 1.25229 0
M  V30 414 O 37.9525 0.510648 1.7521 0
M  V30 415 C 38.0035 3.61178 0.152518 0
M  V30 416 O 37.7245 4.24285 -1.0915 0
M  V30 417 C 39.2255 4.37624 0.707145 0
M  V30 418 H 36.4455 0.669319 -0.0474652 0
M  V30 419 H 38.9895 1.89237 -0.77521 0
M  V30 420 H 37.1445 3.78298 0.834843 0
M  V30 421 H 37.5585 5.16868 -0.891482 0
M  V30 422 H 39.0325 5.46271 0.793244 0
M  V30 423 H 39.5095 4.04152 1.71923 0
M  V30 424 H 40.1155 4.25257 0.0604027 0
M  V30 425 N 38.4306 0.297415 1.54768 0
M  V30 426 C 39.6786 -0.312295 1.99673 0
M  V30 427 C 39.9996 -1.54686 1.18732 0
M  V30 428 O 39.2696 -1.93854 0.282382 0
M  V30 429 H 37.8496 -0.118381 0.73756 0
M  V30 430 H 40.5116 0.407915 1.90583 0
M  V30 431 H 39.6076 -0.586813 3.06534 0
M  V30 432 N 39.9087 -1.5758 0.0250728 0
M  V30 433 C 40.8407 -2.06869 -0.986796 0
M  V30 434 C 41.8537 -0.991332 -1.29137 0
M  V30 435 O 43.0427 -1.26761 -1.25674 0
M  V30 436 C 40.1427 -2.47486 -2.31525 0
M  V30 437 C 39.3157 -3.78253 -2.19643 0
M  V30 438 C 38.3747 -4.05464 -3.35388 0
M  V30 439 O 37.4007 -4.75774 -3.12454 0
M  V30 440 N 38.6027 -3.55321 -4.59051 0
M  V30 441 H 41.3677 -2.94302 -0.566276 0
M  V30 442 H 38.9287 -1.6109 -0.161776 0
M  V30 443 H 40.9207 -2.62785 -3.07776 0
M  V30 444 H 39.4907 -1.65441 -2.65232 0
M  V30 445 H 38.7107 -3.7279 -1.28144 0
M  V30 446 H 39.9987 -4.63936 -2.08903 0
M  V30 447 H 39.3967 -2.98431 -4.80578 0
M  V30 448 H 37.9537 -3.75905 -5.32483 0
M  V30 449 N 41.3868 0.248026 -1.55636 0
M  V30 450 C 42.3198 1.3334 -1.85191 0
M  V30 451 C 43.2978 1.46429 -0.706906 0
M  V30 452 O 44.4818 1.62662 -0.952544 0
M  V30 453 C 41.6088 2.70703 -2.03562 0
M  V30 454 C 40.6548 2.7477 -3.26196 0
M  V30 455 S 41.4878 2.31493 -4.82878 0
M  V30 456 C 42.6438 3.70783 -5.04253 0
M  V30 457 H 42.8768 1.08072 -2.76962 0
M  V30 458 H 40.4098 0.448952 -1.47729 0
M  V30 459 H 42.3678 3.49798 -2.1483 0
M  V30 460 H 41.0288 2.9321 -1.12635 0
M  V30 461 H 40.2218 3.75648 -3.36013 0
M  V30 462 H 39.8238 2.03719 -3.13647 0
M  V30 463 H 42.1158 4.6627 -4.91527 0
M  V30 464 H 43.0588 3.65901 -6.06236 0
M  V30 465 H 43.4668 3.63244 -4.32105 0
M  V30 466 N 42.8649 1.48995 0.513639 0
M  V30 467 C 43.7949 1.67636 1.62544 0
M  V30 468 C 44.7759 0.525087 1.61793 0
M  V30 469 O 45.9609 0.759502 1.78732 0
M  V30 470 C 43.0909 1.73114 3.01079 0
M  V30 471 C 42.0449 2.87905 3.16693 0
M  V30 472 C 41.3709 2.78486 4.56453 0
M  V30 473 C 42.6709 4.29005 2.97913 0
M  V30 474 H 44.3649 2.60716 1.47198 0
M  V30 475 H 41.9109 1.25465 0.706714 0
M  V30 476 H 43.8639 1.84742 3.78746 0
M  V30 477 H 42.5879 0.766241 3.17484 0
M  V30 478 H 41.2469 2.75859 2.41448 0
M  V30 479 H 40.8949 1.7993 4.69717 0
M  V30 480 H 40.5949 3.55523 4.67843 0
M  V30 481 H 42.1189 2.92104 5.36197 0
M  V30 482 H 43.5329 4.41798 3.65359 0
M  V30 483 H 41.9299 5.07166 3.20785 0
M  V30 484 H 42.9999 4.44329 1.94165 0
M  V30 485 N 44.343 -0.763751 1.37857 0
M  V30 486 C 45.591 -1.51957 1.33243 0
M  V30 487 C 45.912 -1.94835 -0.0801709 0
M  V30 488 O 45.182 -1.66894 -1.02582 0
M  V30 489 H 43.762 -0.563626 0.49024 0
M  V30 490 H 46.424 -0.908504 1.7243 0
M  V30 491 H 45.52 -2.41523 1.97669 0
M  V30 492 N 45.8211 -1.22559 -0.990812 0
M  V30 493 C 47.2371 -0.985996 -1.255 0
M  V30 494 C 47.4371 0.319173 -1.98956 0
M  V30 495 O 46.4931 1.04127 -2.3003 0
M  V30 496 C 47.8061 -2.18607 -2.06474 0
M  V30 497 C 49.3541 -2.22985 -2.19651 0
M  V30 498 C 49.8291 -3.4255 -3.04012 0
M  V30 499 N 51.3201 -3.42725 -3.11599 0
M  V30 500 C 52.0551 -4.31892 -3.7717 0
M  V30 501 N 51.5511 -5.31279 -4.44651 0
M  V30 502 N 53.3441 -4.19662 -3.73952 0
M  V30 503 H 45.4951 -2.06469 -0.49841 0
M  V30 504 H 47.7581 -0.904853 -0.282747 0
M  V30 505 H 47.4641 -3.13267 -1.59865 0
M  V30 506 H 47.3381 -2.18838 -3.07229 0
M  V30 507 H 49.7251 -1.28871 -2.65474 0
M  V30 508 H 49.8061 -2.26791 -1.18319 0
M  V30 509 H 49.4501 -4.36965 -2.58889 0
M  V30 510 H 49.3801 -3.35984 -4.0549 0
M  V30 511 H 51.8711 -2.70807 -2.63575 0
M  V30 512 H 52.1841 -5.95593 -4.92431 0
M  V30 513 H 50.5291 -5.3519 -4.43392 0
M  V30 514 H 53.7201 -3.41268 -3.20396 0
M  V30 515 H 53.8931 -4.89358 -4.24774 0
M  V30 516 N 47.2992 1.18797 -1.03562 0
M  V30 517 C 48.5272 1.92599 -0.755869 0
M  V30 518 C 48.9422 1.75886 0.686271 0
M  V30 519 O 48.2992 1.08517 1.46732 0
M  V30 520 C 48.3502 3.44159 -1.10619 0
M  V30 521 O 48.0712 3.60341 -2.4917 0
M  V30 522 C 49.5722 4.3507 -0.850214 0
M  V30 523 H 46.7922 0.611587 -0.276048 0
M  V30 524 H 49.3362 1.50742 -1.38192 0
M  V30 525 H 47.4912 3.83823 -0.525194 0
M  V30 526 H 47.9052 4.54128 -2.62427 0
M  V30 527 H 49.3792 5.39989 -1.14523 0
M  V30 528 H 49.8562 4.38673 0.215176 0
M  V30 529 H 50.4622 4.01097 -1.41426 0
M  V30 530 N 48.7773 0.814389 1.34928 0
M  V30 531 C 49.7073 0.244827 2.32213 0
M  V30 532 C 50.6883 -0.634024 1.57842 0
M  V30 533 O 51.8733 -0.562676 1.8587 0
M  V30 534 C 49.0033 -0.601106 3.42058 0
M  V30 535 C 47.9573 0.179896 4.27622 0
M  V30 536 C 47.2833 -0.788237 5.28858 0
M  V30 537 C 48.5833 1.38329 5.03649 0
M  V30 538 H 50.2773 1.05763 2.80097 0
M  V30 539 H 47.8233 0.510029 1.34665 0
M  V30 540 H 49.7763 -1.00968 4.09125 0
M  V30 541 H 48.5003 -1.44688 2.92802 0
M  V30 542 H 47.1593 0.569739 3.62146 0
M  V30 543 H 46.8073 -1.62973 4.75866 0
M  V30 544 H 46.5073 -0.269942 5.8698 0
M  V30 545 H 48.0313 -1.19485 5.98795 0
M  V30 546 H 49.4453 1.04918 5.63618 0
M  V30 547 H 47.8423 1.83662 5.71304 0
M  V30 548 H 48.9123 2.16592 4.33839 0
M  V30 549 N 50.2554 -1.46986 0.568584 0
M  V30 550 C 51.4804 -2.07335 0.0520528 0
M  V30 551 C 51.9054 -1.41675 -1.23733 0
M  V30 552 O 51.2634 -0.495623 -1.74394 0
M  V30 553 C 51.3114 -3.60417 -0.11501 0
M  V30 554 O 50.4154 -3.95309 -1.17492 0
M  V30 555 H 49.7564 -0.661597 0.0564385 0
M  V30 556 H 52.2864 -1.88837 0.787507 0
M  V30 557 H 52.2964 -4.06698 -0.325644 0
M  V30 558 H 50.9714 -4.07601 0.826675 0
M  V30 559 H 49.5484 -3.60757 -0.943869 0
M  V30 560 N 51.7335 -0.305618 -1.54608 0
M  V30 561 C 53.1495 0.0476228 -1.59529 0
M  V30 562 C 53.3495 1.52025 -1.32252 0
M  V30 563 O 52.4055 2.27368 -1.09818 0
M  V30 564 C 53.7185 -0.354471 -2.98603 0
M  V30 565 C 55.2665 -0.303622 -3.11524 0
M  V30 566 C 55.7415 -0.680608 -4.52915 0
M  V30 567 N 57.2325 -0.63332 -4.5885 0
M  V30 568 C 57.9675 -0.897432 -5.66334 0
M  V30 569 N 57.4635 -1.22775 -6.81834 0
M  V30 570 N 59.2565 -0.824186 -5.56025 0
M  V30 571 H 51.4075 -1.2653 -1.70599 0
M  V30 572 H 53.6705 -0.513291 -0.797017 0
M  V30 573 H 53.3765 -1.3798 -3.23503 0
M  V30 574 H 53.2505 0.289568 -3.76087 0
M  V30 575 H 55.6375 0.712472 -2.8637 0
M  V30 576 H 55.7185 -0.982348 -2.36185 0
M  V30 577 H 55.3625 -1.69453 -4.78799 0
M  V30 578 H 55.2925 0.0202385 -5.26596 0
M  V30 579 H 57.7835 -0.389138 -3.75891 0
M  V30 580 H 58.0965 -1.41513 -7.59733 0
M  V30 581 H 56.4415 -1.26583 -6.83375 0
M  V30 582 H 59.6325 -0.565748 -4.64669 0
M  V30 583 H 59.8055 -1.03338 -6.39707 0
M  V30 584 N 53.2116 1.57565 -0.0334293 0
M  V30 585 C 54.4576 1.93088 0.639417 0
M  V30 586 C 54.8126 0.910589 1.69488 0
M  V30 587 O 54.1056 -0.0727725 1.91462 0
M  V30 588 C 54.2996 3.33112 1.29504 0
M  V30 589 C 54.1286 4.48667 0.304604 0
M  V30 590 C 52.8986 5.05207 -0.0970777 0
M  V30 591 C 55.0966 5.1239 -0.442845 0
M  V30 592 N 53.0786 6.04286 -1.08223 0
M  V30 593 C 54.4496 6.06609 -1.28161 0
M  V30 594 C 56.5046 4.95352 -0.50308 0
M  V30 595 C 55.2076 6.85622 -2.17519 0
M  V30 596 C 57.2336 5.74978 -1.38401 0
M  V30 597 C 56.5956 6.68816 -2.21054 0
M  V30 598 H 52.6946 0.754335 0.206161 0
M  V30 599 H 55.2786 1.94435 -0.101613 0
M  V30 600 H 53.4496 3.32576 2.00618 0
M  V30 601 H 55.1816 3.55972 1.92525 0
M  V30 602 H 51.9366 4.72782 0.278255 0
M  V30 603 H 52.3606 6.58516 -1.57117 0
M  V30 604 H 57.0026 4.22625 0.121694 0
M  V30 605 H 54.7206 7.57652 -2.81049 0
M  V30 606 H 58.3066 5.63826 -1.43496 0
M  V30 607 H 57.1866 7.29355 -2.88116 0
M  V30 608 N 54.6897 -0.239769 1.55765 0
M  V30 609 C 55.9357 -0.968234 1.78194 0
M  V30 610 C 56.2687 -1.84701 0.599938 0
M  V30 611 O 55.5437 -1.9031 -0.401524 0
M  V30 612 C 55.8267 -1.8227 3.10564 0
M  V30 613 C 55.6797 -0.971633 4.3918 0
M  V30 614 C 56.9987 -2.80388 3.39221 0
M  V30 615 H 54.1177 -0.350572 0.648281 0
M  V30 616 H 56.7597 -0.238259 1.885 0
M  V30 617 H 54.9097 -2.44507 3.01908 0
M  V30 618 H 56.5817 -0.367408 4.59835 0
M  V30 619 H 54.8247 -0.276276 4.32919 0
M  V30 620 H 55.4957 -1.60346 5.28198 0
M  V30 621 H 57.9717 -2.28287 3.47885 0
M  V30 622 H 56.8477 -3.3729 4.33044 0
M  V30 623 H 57.1087 -3.57212 2.60484 0
M  V30 624 N 56.1678 -1.49265 -0.50573 0
M  V30 625 C 57.4138 -1.59723 -1.25937 0
M  V30 626 C 57.7688 -0.278236 -1.90378 0
M  V30 627 O 57.0618 0.72113 -1.77511 0
M  V30 628 C 57.2558 -2.69008 -2.35308 0
M  V30 629 C 57.0848 -4.11405 -1.81592 0
M  V30 630 C 55.8548 -4.78252 -1.63105 0
M  V30 631 C 58.0528 -4.96792 -1.33048 0
M  V30 632 N 56.0348 -6.0498 -1.04269 0
M  V30 633 C 57.4058 -6.13962 -0.863168 0
M  V30 634 C 59.4608 -4.82828 -1.21577 0
M  V30 635 C 58.1638 -7.18705 -0.292489 0
M  V30 636 C 60.1898 -5.87716 -0.65907 0
M  V30 637 C 59.5518 -7.0411 -0.201954 0
M  V30 638 H 55.6508 -0.638864 -0.450973 0
M  V30 639 H 58.2348 -1.86251 -0.567326 0
M  V30 640 H 56.4058 -2.4426 -3.01979 0
M  V30 641 H 58.1378 -2.69013 -3.02348 0
M  V30 642 H 54.8928 -4.34974 -1.87336 0
M  V30 643 H 55.3168 -6.72631 -0.767919 0
M  V30 644 H 59.9588 -3.93159 -1.55518 0
M  V30 645 H 57.6768 -8.08078 0.0591987 0
M  V30 646 H 61.2628 -5.7897 -0.573156 0
M  V30 647 H 60.1428 -7.83885 0.222101 0
M  V30 648 N 57.6459 0.756429 -1.3826 0
M  V30 649 C 58.8949 1.51082 -1.3363 0
M  V30 650 C 59.2079 1.95467 0.0720068 0
M  V30 651 O 60.4139 2.7043 0.240834 0
M  V30 652 C 58.8699 2.72893 -2.34644 0
M  V30 653 C 58.4779 2.35544 -3.81081 0
M  V30 654 C 60.2219 3.50791 -2.39052 0
M  V30 655 C 58.1289 3.53948 -4.73787 0
M  V30 656 H 57.0589 0.56727 -0.49671 0
M  V30 657 H 59.7099 0.827147 -1.638 0
M  V30 658 H 58.0919 3.43227 -1.97513 0
M  V30 659 H 59.2659 1.72894 -4.27135 0
M  V30 660 H 57.5809 1.70786 -3.79764 0
M  V30 661 H 60.1779 4.38823 -3.05513 0
M  V30 662 H 60.5209 3.91745 -1.40861 0
M  V30 663 H 61.0539 2.87467 -2.74968 0
M  V30 664 H 57.7929 3.18064 -5.73163 0
M  V30 665 H 57.3129 4.15651 -4.32428 0
M  V30 666 H 58.9919 4.20566 -4.91663 0
M  V30 667 N 59.124 1.23083 0.984299 0
M  V30 668 C 60.349 1.088 1.76571 0
M  V30 669 C 60.774 -0.356657 1.84688 0
M  V30 670 O 60.132 -1.25788 1.30565 0
M  V30 671 C 60.18 1.71371 3.17277 0
M  V30 672 O 59.284 0.973213 4.00752 0
M  V30 673 H 58.625 0.381599 0.543395 0
M  V30 674 H 61.155 1.63057 1.23587 0
M  V30 675 H 61.165 1.76449 3.67872 0
M  V30 676 H 59.84 2.76493 3.10684 0
M  V30 677 H 58.417 0.999078 3.59267 0
M  V30 678 N 60.6021 -1.18246 1.0419 0
M  V30 679 C 61.5321 -2.24127 0.654914 0
M  V30 680 C 62.5131 -1.66617 -0.342451 0
M  V30 681 O 63.6981 -1.92924 -0.222277 0
M  V30 682 C 60.8281 -3.47295 0.0183757 0
M  V30 683 C 59.7821 -4.17563 0.939414 0
M  V30 684 C 59.1081 -5.34438 0.167286 0
M  V30 685 C 60.4081 -4.70917 2.25908 0
M  V30 686 H 62.1021 -2.56753 1.54007 0
M  V30 687 H 59.6481 -1.23414 0.74195 0
M  V30 688 H 61.6011 -4.20572 -0.264082 0
M  V30 689 H 60.3251 -3.13907 -0.901664 0
M  V30 690 H 58.9841 -3.46186 1.20628 0
M  V30 691 H 58.6321 -4.97298 -0.7552 0
M  V30 692 H 58.3321 -5.82388 0.780901 0
M  V30 693 H 59.8561 -6.10504 -0.108125 0
M  V30 694 H 61.2701 -5.35882 2.03724 0
M  V30 695 H 59.6671 -5.29406 2.82577 0
M  V30 696 H 60.7371 -3.88272 2.9047 0
M  V30 697 N 62.0802 -0.821533 -1.34494 0
M  V30 698 C 63.3102 -0.421272 -2.02259 0
M  V30 699 C 63.7182 0.977047 -1.6202 0
M  V30 700 O 63.0612 1.64348 -0.820703 0
M  V30 701 C 63.1232 -0.44231 -3.56769 0
M  V30 702 C 62.7872 -1.79372 -4.20327 0
M  V30 703 C 63.7842 -2.75435 -4.40944 0
M  V30 704 C 61.4692 -2.08182 -4.57127 0
M  V30 705 C 63.4632 -3.98482 -4.97484 0
M  V30 706 C 61.1502 -3.31489 -5.13379 0
M  V30 707 C 62.1482 -4.26457 -5.33501 0
M  V30 708 O 61.8362 -5.47585 -5.88562 0
M  V30 709 H 61.5682 -0.167473 -0.654927 0
M  V30 710 H 64.1222 -1.11073 -1.72777 0
M  V30 711 H 62.3522 0.303836 -3.85505 0
M  V30 712 H 64.0412 -0.0622925 -4.05852 0
M  V30 713 H 64.8072 -2.54473 -4.12878 0
M  V30 714 H 60.6862 -1.35066 -4.4077 0
M  V30 715 H 64.2302 -4.72618 -5.13106 0
M  V30 716 H 60.1272 -3.52316 -5.40873 0
M  V30 717 H 60.8952 -5.49086 -6.06998 0
M  V30 718 N 63.5583 1.46682 -0.576371 0
M  V30 719 C 64.7883 2.06498 -0.0648694 0
M  V30 720 C 65.1963 1.42665 1.24271 0
M  V30 721 O 64.5393 0.523886 1.76071 0
M  V30 722 C 64.6013 3.5904 0.181816 0
M  V30 723 C 64.2653 4.45028 -1.0392 0
M  V30 724 C 65.2623 4.81959 -1.94966 0
M  V30 725 C 62.9473 4.86259 -1.25927 0
M  V30 726 C 64.9413 5.58942 -3.06371 0
M  V30 727 C 62.6283 5.63002 -2.37638 0
M  V30 728 C 63.6263 5.99257 -3.2769 0
M  V30 729 O 63.3143 6.7445 -4.37461 0
M  V30 730 H 63.0463 0.674028 -0.0515987 0
M  V30 731 H 65.6003 1.89393 -0.794951 0
M  V30 732 H 63.8303 3.74429 0.966436 0
M  V30 733 H 65.5193 4.00806 0.641047 0
M  V30 734 H 66.2853 4.50689 -1.79177 0
M  V30 735 H 62.1643 4.57494 -0.567448 0
M  V30 736 H 65.7083 5.87158 -3.76684 0
M  V30 737 H 61.6053 5.93686 -2.53392 0
M  V30 738 H 62.3733 6.92867 -4.35749 0
M  V30 739 N 65.0364 0.313813 1.54444 0
M  V30 740 C 66.2824 -0.292108 2.00685 0
M  V30 741 C 66.6154 -1.52548 1.20177 0
M  V30 742 O 65.8904 -1.92452 0.281531 0
M  V30 743 C 66.1734 -0.635968 3.5444 0
M  V30 744 C 66.0264 0.607437 4.4568 0
M  V30 745 C 67.3454 -1.45747 4.15266 0
M  V30 746 H 64.4644 -0.104697 0.729526 0
M  V30 747 H 67.1064 0.428457 1.85106 0
M  V30 748 H 65.2564 -1.24986 3.67846 0
M  V30 749 H 66.9284 1.24581 4.44159 0
M  V30 750 H 65.1714 1.23822 4.15753 0
M  V30 751 H 65.8424 0.322515 5.51057 0
M  V30 752 H 68.3184 -0.938645 4.05375 0
M  V30 753 H 67.1944 -1.66683 5.2298 0
M  V30 754 H 67.4554 -2.45063 3.67963 0
M  V30 755 N 66.5145 -1.57545 0.0417849 0
M  V30 756 C 67.4775 -2.09885 -0.92093 0
M  V30 757 C 68.4775 -1.01648 -1.24596 0
M  V30 758 O 69.6675 -1.27759 -1.1842 0
M  V30 759 C 66.7995 -2.57527 -2.23367 0
M  V30 760 H 67.9925 -2.96236 -0.467382 0
M  V30 761 H 65.5455 -1.5493 -0.206467 0
M  V30 762 H 66.2805 -1.74542 -2.73323 0
M  V30 763 H 66.0655 -3.36613 -2.01083 0
M  V30 764 H 67.5555 -2.98201 -2.92346 0
M  V30 765 N 67.9926 0.231505 -1.5589 0
M  V30 766 C 69.2396 0.957352 -1.78441 0
M  V30 767 C 69.5676 1.84726 -0.60882 0
M  V30 768 O 68.8226 1.91416 0.40725 0
M  V30 769 C 69.1216 1.83577 -3.0665 0
M  V30 770 C 68.7876 1.09993 -4.37278 0
M  V30 771 C 67.4496 0.896629 -4.72773 0
M  V30 772 C 69.8016 0.579558 -5.17968 0
M  V30 773 C 67.1296 0.160896 -5.86479 0
M  V30 774 C 69.4816 -0.142783 -6.32439 0
M  V30 775 C 68.1456 -0.357427 -6.66542 0
M  V30 776 H 67.4156 0.35032 -0.65296 0
M  V30 777 H 70.0626 0.226259 -1.90159 0
M  V30 778 H 68.3676 2.63441 -2.90011 0
M  V30 779 H 70.0646 2.39934 -3.21298 0
M  V30 780 H 66.6546 1.26835 -4.09403 0
M  V30 781 H 70.8386 0.724125 -4.90989 0
M  V30 782 H 66.0946 -0.0157293 -6.11398 0
M  V30 783 H 70.2686 -0.553559 -6.94196 0
M  V30 784 H 67.8956 -0.929466 -7.54497 0
M  V30 785 N 69.4707 1.49531 0.497807 0
M  V30 786 C 70.7007 1.62657 1.27382 0
M  V30 787 C 71.1087 0.298488 1.86831 0
M  V30 788 O 70.4517 -0.72647 1.68725 0
M  V30 789 C 70.5137 2.6393 2.44093 0
M  V30 790 C 70.1777 4.08195 2.05489 0
M  V30 791 C 71.1747 4.949 1.59279 0
M  V30 792 C 68.8597 4.53948 2.15026 0
M  V30 793 C 70.8537 6.25397 1.23113 0
M  V30 794 C 68.5407 5.84458 1.78473 0
M  V30 795 C 69.5387 6.70006 1.32591 0
M  V30 796 O 69.2267 7.98083 0.965327 0
M  V30 797 H 68.9587 0.550429 0.392434 0
M  V30 798 H 71.5127 1.96325 0.603801 0
M  V30 799 H 69.7427 2.25449 3.14181 0
M  V30 800 H 71.4317 2.66552 3.06113 0
M  V30 801 H 72.1977 4.60779 1.51354 0
M  V30 802 H 68.0767 3.87525 2.4969 0
M  V30 803 H 71.6207 6.92125 0.872299 0
M  V30 804 H 67.5177 6.18107 1.86048 0
M  V30 805 H 68.2857 8.11122 1.09652 0
M  V30 806 N 70.9488 -0.749086 1.3866 0
M  V30 807 C 72.1948 -1.51056 1.35314 0
M  V30 808 C 72.5278 -1.94121 -0.0553751 0
M  V30 809 O 71.8028 -1.65763 -1.01749 0
M  V30 810 C 72.0858 -2.76003 2.31288 0
M  V30 811 C 71.9388 -2.39047 3.8102 0
M  V30 812 C 73.2578 -3.78046 2.2532 0
M  V30 813 H 70.3768 -0.547972 0.492844 0
M  V30 814 H 73.0188 -0.857628 1.69543 0
M  V30 815 H 71.1688 -3.31716 2.02229 0
M  V30 816 H 72.8408 -1.89074 4.20771 0
M  V30 817 H 71.0838 -1.71449 3.98482 0
M  V30 818 H 71.7548 -3.28462 4.4364 0
M  V30 819 H 74.2308 -3.31884 2.50983 0
M  V30 820 H 73.1068 -4.63159 2.94576 0
M  V30 821 H 73.3678 -4.23957 1.25352 0
M  V30 822 N 72.4269 -1.23603 -0.977757 0
M  V30 823 C 73.6729 -1.07129 -1.72195 0
M  V30 824 C 74.0059 0.390501 -1.90233 0
M  V30 825 O 73.2809 1.28902 -1.45653 0
M  V30 826 C 73.5639 -1.80031 -3.11867 0
M  V30 827 C 73.4169 -3.33899 -3.01383 0
M  V30 828 C 74.7359 -1.56492 -4.11337 0
M  V30 829 H 71.8549 -0.390571 -0.624999 0
M  V30 830 H 74.4969 -1.52142 -1.13811 0
M  V30 831 H 72.6469 -1.41768 -3.6171 0
M  V30 832 H 74.3189 -3.81699 -2.59043 0
M  V30 833 H 72.5619 -3.62796 -2.37827 0
M  V30 834 H 73.2329 -3.801 -4.00285 0
M  V30 835 H 75.7089 -1.89757 -3.70313 0
M  V30 836 H 74.5849 -2.09973 -5.07151 0
M  V30 837 H 74.8459 -0.500874 -4.39254 0
M  V30 838 N 73.905 1.17692 -1.04816 0
M  V30 839 C 74.838 2.20436 -0.590173 0
M  V30 840 C 75.816 1.58115 0.379244 0
M  V30 841 O 77 1.86228 0.291762 0
M  V30 842 C 74.127 3.38424 0.136817 0
M  V30 843 C 73.173 4.19176 -0.787023 0
M  V30 844 S 74.006 4.84815 -2.27409 0
M  V30 845 C 75.162 6.06195 -1.55817 0
M  V30 846 H 75.395 2.58944 -1.46067 0
M  V30 847 H 72.928 1.28246 -0.859784 0
M  V30 848 H 74.886 4.06798 0.550076 0
M  V30 849 H 73.547 2.98312 0.983299 0
M  V30 850 H 72.74 5.03499 -0.224681 0
M  V30 851 H 72.342 3.56219 -1.13947 0
M  V30 852 H 74.634 6.72078 -0.855387 0
M  V30 853 H 75.577 6.6695 -2.37873 0
M  V30 854 H 75.985 5.54701 -1.04722 0
M  V30 855 N 75.3831 0.828654 1.34056 0
M  V30 856 C 76.6111 0.43262 2.02326 0
M  V30 857 C 77.0261 -0.963147 1.62385 0
M  V30 858 O 76.3831 -1.62425 0.832121 0
M  V30 859 C 76.4341 0.53182 3.57567 0
M  V30 860 O 76.1551 1.87258 3.96063 0
M  V30 861 C 77.6561 0.131422 4.43105 0
M  V30 862 H 74.8761 0.172923 0.648335 0
M  V30 863 H 77.4201 1.1184 1.71208 0
M  V30 864 H 75.5751 -0.105938 3.87255 0
M  V30 865 H 75.9891 1.85087 4.90758 0
M  V30 866 H 77.4631 0.251904 5.51425 0
M  V30 867 H 77.9401 -0.925645 4.29335 0
M  V30 868 H 78.5461 0.743207 4.18756 0
M  V30 869 N 76.8612 -1.46375 0.584142 0
M  V30 870 C 78.1092 -2.01978 0.0701287 0
M  V30 871 C 78.4302 -1.4579 -1.295 0
M  V30 872 O 77.7002 -0.64314 -1.85042 0
M  V30 873 H 76.2802 -0.746648 0.0229345 0
M  V30 874 H 78.9422 -1.79461 0.760245 0
M  V30 875 H 78.0382 -3.121 0.0022064 0
M  V30 876 N 78.3393 -0.321999 -1.54275 0
M  V30 877 C 79.2693 0.537411 -2.27231 0
M  V30 878 C 80.2503 1.12064 -1.27968 0
M  V30 879 O 81.4353 1.14606 -1.56777 0
M  V30 880 C 78.5653 1.69919 -3.02894 0
M  V30 881 C 77.5193 1.24534 -4.09482 0
M  V30 882 C 76.8453 2.49394 -4.72977 0
M  V30 883 C 78.1453 0.361335 -5.21049 0
M  V30 884 H 79.8393 -0.0711406 -2.99315 0
M  V30 885 H 77.3853 -0.0356555 -1.43956 0
M  V30 886 H 79.3383 2.30668 -3.52662 0
M  V30 887 H 78.0623 2.33431 -2.28424 0
M  V30 888 H 76.7213 0.660782 -3.60596 0
M  V30 889 H 76.3693 3.11265 -3.95124 0
M  V30 890 H 76.0693 2.19718 -5.44975 0
M  V30 891 H 77.5933 3.10908 -5.25517 0
M  V30 892 H 79.0073 0.875072 -5.66582 0
M  V30 893 H 77.4043 0.157428 -5.99893 0
M  V30 894 H 78.4743 -0.60822 -4.8107 0
M  V30 895 N 79.8174 1.5752 -0.0501392 0
M  V30 896 C 81.0644 1.9265 0.623874 0
M  V30 897 C 81.3924 0.928411 1.70912 0
M  V30 898 O 80.6474 -0.0594525 1.9561 0
M  V30 899 C 80.9464 3.34467 1.25963 0
M  V30 900 C 80.6124 4.49883 0.302689 0
M  V30 901 C 79.2744 4.81184 0.0393636 0
M  V30 902 C 81.6264 5.20002 -0.353205 0
M  V30 903 C 78.9544 5.79951 -0.887308 0
M  V30 904 C 81.3064 6.1976 -1.26806 0
M  V30 905 C 79.9704 6.49491 -1.54007 0
M  V30 906 H 79.2404 0.704957 0.228292 0
M  V30 907 H 81.8874 1.91146 -0.116398 0
M  V30 908 H 80.1924 3.32333 2.07514 0
M  V30 909 H 81.8894 3.58928 1.78806 0
M  V30 910 H 78.4794 4.25457 0.518109 0
M  V30 911 H 82.6634 4.96033 -0.162854 0
M  V30 912 H 77.9194 6.01322 -1.10553 0
M  V30 913 H 82.0934 6.73205 -1.78236 0
M  V30 914 H 79.7204 7.25837 -2.25976 0
M  V30 915 N 81.2955 -0.223234 1.56011 0
M  V30 916 C 82.2585 -1.26014 1.9145 0
M  V30 917 C 83.2585 -1.3989 0.792937 0
M  V30 918 O 84.4485 -1.38184 1.0607 0
M  V30 919 C 81.5805 -2.63422 2.16383 0
M  V30 920 H 82.7735 -0.95796 2.84189 0
M  V30 921 H 80.3265 -0.463576 1.49267 0
M  V30 922 H 81.0615 -2.98741 1.2619 0
M  V30 923 H 80.8465 -2.54728 2.98088 0
M  V30 924 H 82.3365 -3.38249 2.44903 0
M  V30 925 N 82.7736 -1.49793 -0.48987 0
M  V30 926 C 83.7036 -1.70201 -1.59856 0
M  V30 927 C 84.6846 -0.55076 -1.60937 0
M  V30 928 O 85.8696 -0.787841 -1.77501 0
M  V30 929 C 82.9996 -1.77882 -2.98287 0
M  V30 930 C 81.9536 -2.92907 -3.12073 0
M  V30 931 C 81.2796 -2.85712 -4.51965 0
M  V30 932 C 82.5796 -4.3369 -2.91051 0
M  V30 933 H 84.2736 -2.63025 -1.43032 0
M  V30 934 H 81.8196 -1.26574 -0.686664 0
M  V30 935 H 83.7726 -1.90744 -3.75759 0
M  V30 936 H 82.4966 -0.816653 -3.16225 0
M  V30 937 H 81.1556 -2.79665 -2.37029 0
M  V30 938 H 80.8036 -1.8738 -4.66795 0
M  V30 939 H 80.5036 -3.62921 -4.62128 0
M  V30 940 H 82.0276 -3.00598 -5.31482 0
M  V30 941 H 83.4416 -4.47555 -3.58284 0
M  V30 942 H 81.8386 -5.12205 -3.12675 0
M  V30 943 H 82.9086 -4.47362 -1.87071 0
M  V30 944 N 84.2517 0.741722 -1.39055 0
M  V30 945 C 85.4917 1.51385 -1.37338 0
M  V30 946 C 85.8557 1.91972 0.0330513 0
M  V30 947 O 87.0567 2.68229 0.175174 0
M  V30 948 C 85.3277 2.72481 -2.31276 0
M  V30 949 S 86.8867 3.62211 -2.47687 0
M  V30 950 H 83.7047 0.517906 -0.487129 0
M  V30 951 H 86.3067 0.86969 -1.7509 0
M  V30 952 H 85.0107 2.40793 -3.32336 0
M  V30 953 H 84.5417 3.41832 -1.94716 0
M  V30 954 H 86.5567 4.65812 -1.70978 0
M  V30 955 N 85.7298 1.2412 0.971189 0
M  V30 956 C 86.6598 1.05508 2.08304 0
M  V30 957 C 87.6408 -0.0308864 1.70072 0
M  V30 958 O 88.8258 0.135521 1.93727 0
M  V30 959 C 85.9558 0.655365 3.4106 0
M  V30 960 C 84.9098 1.68971 3.93234 0
M  V30 961 C 84.2358 1.14516 5.22293 0
M  V30 962 C 85.5358 3.08487 4.21465 0
M  V30 963 H 87.2298 1.98507 2.24132 0
M  V30 964 H 84.7758 0.955821 1.07704 0
M  V30 965 H 86.7288 0.51217 4.18276 0
M  V30 966 H 85.4528 -0.31032 3.25122 0
M  V30 967 H 84.1118 1.82106 3.18171 0
M  V30 968 H 83.7598 0.170189 5.02712 0
M  V30 969 H 83.4598 1.83635 5.58168 0
M  V30 970 H 84.9838 1.01401 6.02121 0
M  V30 971 H 86.3978 2.98601 4.89398 0
M  V30 972 H 84.7948 3.74926 4.68562 0
M  V30 973 H 85.8648 3.56787 3.28376 0
M  V30 974 N 87.2079 -1.17134 1.05439 0
M  V30 975 C 88.4379 -1.91094 0.785274 0
M  V30 976 C 88.8459 -1.77198 -0.663142 0
M  V30 977 O 88.1889 -1.10835 -1.46497 0
M  V30 978 C 88.2509 -3.42594 1.08949 0
M  V30 979 C 87.9149 -3.80274 2.53458 0
M  V30 980 C 88.9119 -3.82912 3.51673 0
M  V30 981 C 86.5969 -4.11162 2.88532 0
M  V30 982 C 88.5909 -4.15913 4.83006 0
M  V30 983 C 86.2779 -4.43831 4.20068 0
M  V30 984 C 87.2759 -4.46185 5.17115 0
M  V30 985 O 86.9639 -4.78083 6.46291 0
M  V30 986 H 86.6959 -0.613073 0.284811 0
M  V30 987 H 89.2499 -1.49461 1.40893 0
M  V30 988 H 87.4799 -3.84534 0.408741 0
M  V30 989 H 89.1689 -3.97817 0.805991 0
M  V30 990 H 89.9349 -3.5917 3.25917 0
M  V30 991 H 85.8139 -4.085 2.13656 0
M  V30 992 H 89.3579 -4.17665 5.5875 0
M  V30 993 H 85.2549 -4.67037 4.45586 0
M  V30 994 H 86.0229 -4.9593 6.51149 0
M  V30 995 N 88.686 -0.835752 -1.33615 0
M  V30 996 C 89.932 -0.430596 -1.98176 0
M  V30 997 C 90.265 1.00684 -1.66061 0
M  V30 998 O 89.54 1.70339 -0.938877 0
M  V30 999 C 89.823 -0.648065 -3.5422 0
M  V30 1000 C 89.676 -2.13255 -3.96033 0
M  V30 1001 C 90.995 -0.0922113 -4.40003 0
M  V30 1002 H 88.114 -0.157924 -0.719881 0
M  V30 1003 H 90.756 -1.05069 -1.58305 0
M  V30 1004 H 88.906 -0.120237 -3.88314 0
M  V30 1005 H 90.578 -2.725 -3.72211 0
M  V30 1006 H 88.821 -2.61823 -3.45878 0
M  V30 1007 H 89.492 -2.23547 -5.04708 0
M  V30 1008 H 91.968 -0.543343 -4.12537 0
M  V30 1009 H 90.844 -0.274083 -5.48215 0
M  V30 1010 H 91.105 1.00378 -4.30554 0
M  V30 1011 N 90.1641 1.46063 -0.591896 0
M  V30 1012 C 91.0941 2.33172 0.123673 0
M  V30 1013 C 92.0751 1.45897 0.87453 0
M  V30 1014 O 93.2601 1.74698 0.848181 0
M  V30 1015 C 90.3901 3.28336 1.13194 0
M  V30 1016 C 89.3441 4.25124 0.495324 0
M  V30 1017 C 88.6701 5.09863 1.61071 0
M  V30 1018 C 89.9701 5.19143 -0.573425 0
M  V30 1019 H 91.6641 2.93252 -0.603646 0
M  V30 1020 H 89.2101 1.41014 -0.291741 0
M  V30 1021 H 91.1631 3.88137 1.64097 0
M  V30 1022 H 89.8871 2.66383 1.88965 0
M  V30 1023 H 88.5461 3.66599 0.00729452 0
M  V30 1024 H 88.1941 4.44288 2.35832 0
M  V30 1025 H 87.8941 5.75417 1.19035 0
M  V30 1026 H 89.4181 5.72529 2.12233 0
M  V30 1027 H 90.8321 5.73106 -0.1491 0
M  V30 1028 H 89.2291 5.93089 -0.914636 0
M  V30 1029 H 90.2991 4.62519 -1.45617 0
M  V30 1030 N 91.6422 0.330177 1.54103 0
M  V30 1031 C 92.5752 -0.575477 2.20825 0
M  V30 1032 C 93.5532 -1.11064 1.18758 0
M  V30 1033 O 94.7372 -1.17341 1.47524 0
M  V30 1034 C 91.8642 -1.79032 2.87516 0
M  V30 1035 C 90.9102 -1.38581 4.03358 0
M  V30 1036 S 91.7432 -0.416911 5.33875 0
M  V30 1037 C 92.8992 -1.63889 6.04062 0
M  V30 1038 H 93.1322 -0.00872114 2.97299 0
M  V30 1039 H 90.6652 0.114254 1.53977 0
M  V30 1040 H 92.6232 -2.48734 3.2656 0
M  V30 1041 H 91.2842 -2.32827 2.10832 0
M  V30 1042 H 90.4772 -2.29123 4.48908 0
M  V30 1043 H 90.0792 -0.768419 3.66021 0
M  V30 1044 H 92.3712 -2.57536 6.26643 0
M  V30 1045 H 93.3142 -1.22542 6.97416 0
M  V30 1046 H 93.7222 -1.82887 5.34053 0
M  V30 1047 N 93.1203 -1.57491 0.0584922 0
M  V30 1048 C 94.0523 -2.08916 -0.942694 0
M  V30 1049 C 95.0653 -1.0185 -1.27006 0
M  V30 1050 O 96.2543 -1.29398 -1.22957 0
M  V30 1051 C 93.3543 -2.52341 -2.26224 0
M  V30 1052 C 92.5273 -3.82827 -2.1157 0
M  V30 1053 C 91.5863 -4.12487 -3.26712 0
M  V30 1054 O 90.6123 -4.82295 -3.02292 0
M  V30 1055 N 91.8143 -3.64978 -4.5141 0
M  V30 1056 H 94.5793 -2.95437 -0.503722 0
M  V30 1057 H 92.1403 -1.61397 -0.12757 0
M  V30 1058 H 94.1323 -2.69254 -3.02133 0
M  V30 1059 H 92.7023 -1.7103 -2.61663 0
M  V30 1060 H 91.9223 -3.75425 -1.20208 0
M  V30 1061 H 93.2103 -4.68263 -1.99015 0
M  V30 1062 H 92.6083 -3.08558 -4.7414 0
M  V30 1063 H 91.1653 -3.87115 -5.2439 0
M  V30 1064 N 94.5984 0.214957 -1.56127 0
M  V30 1065 C 95.8264 0.955092 -1.83536 0
M  V30 1066 C 96.2414 1.77677 -0.638472 0
M  V30 1067 O 95.5984 1.78219 0.392968 0
M  V30 1068 C 95.6494 1.86734 -3.09536 0
M  V30 1069 O 95.3704 1.07887 -4.24608 0
M  V30 1070 C 96.8714 2.72082 -3.4998 0
M  V30 1071 H 94.0914 0.279611 -0.609966 0
M  V30 1072 H 96.6354 0.228197 -2.03223 0
M  V30 1073 H 94.7904 2.5481 -2.91806 0
M  V30 1074 H 95.2044 1.69872 -4.9623 0
M  V30 1075 H 96.6784 3.31782 -4.41163 0
M  V30 1076 H 97.1554 3.44806 -2.7204 0
M  V30 1077 H 97.7614 2.09409 -3.70173 0
M  V30 1078 N 96.0765 1.50051 0.48192 0
M  V30 1079 C 97.3225 1.60736 1.2366 0
M  V30 1080 C 97.6555 0.301786 1.91841 0
M  V30 1081 O 96.9305 -0.696025 1.8162 0
M  V30 1082 C 97.2135 2.78009 2.28874 0
M  V30 1083 C 97.0665 4.18416 1.65069 0
M  V30 1084 C 98.3855 2.90867 3.30279 0
M  V30 1085 H 95.5045 0.585031 0.448228 0
M  V30 1086 H 98.1465 1.82402 0.531946 0
M  V30 1087 H 96.2965 2.59667 2.88973 0
M  V30 1088 H 97.9685 4.48322 1.0865 0
M  V30 1089 H 96.2115 4.23177 0.954148 0
M  V30 1090 H 96.8825 4.96381 2.41474 0
M  V30 1091 H 99.3585 3.07623 2.80191 0
M  V30 1092 H 98.2345 3.74566 4.01238 0
M  V30 1093 H 98.4955 2.01021 3.93755 0
M  V30 1094 N 97.5546 -0.734337 1.39446 0
M  V30 1095 C 98.8316 -1.48579 1.27215 0
M  V30 1096 C 99.2116 -2.1077 -0.117968 0
M  V30 1097 O 98.5596 -1.98646 -1.12924 0
M  V30 1098 C 98.7696 -2.53667 2.39696 0
M  V30 1099 C 100.118 -3.20031 2.79044 0
M  V30 1100 O 101.142 -2.6398 2.39151 0
M  V30 1101 O 100.001 -4.21455 3.47905 0
M  V30 1102 H 97.0946 -0.659816 0.49857 0
M  V30 1103 H 99.6406 -0.768106 1.51322 0
M  V30 1104 H 98.4126 -2.06096 3.32626 0
M  V30 1105 H 98.0356 -3.32994 2.17258 0
M  V30 1106 N 99.0327 -1.24633 -0.964593 0
M  V30 1107 C 100.444 -1.08045 -1.5226 0
M  V30 1108 C 100.795 0.347116 -1.93105 0
M  V30 1109 O 99.9197 1.23588 -1.77637 0
M  V30 1110 C 100.515 -1.95514 -2.76695 0
M  V30 1111 C 99.0737 -1.8314 -3.28841 0
M  V30 1112 C 98.2207 -1.90262 -2.01732 0
M  V30 1113 H 101.172 -1.38064 -0.782553 0
M  V30 1114 H 101.193 -1.48925 -3.50145 0
M  V30 1115 H 100.705 -2.99407 -2.46936 0
M  V30 1116 H 98.8057 -0.82092 -3.63444 0
M  V30 1117 H 98.9187 -2.67406 -3.97531 0
M  V30 1118 H 97.2827 -1.34027 -2.16584 0
M  V30 1119 H 98.0657 -2.9574 -1.74334 0
M  V30 1120 N 100.511 1.16574 -1.06058 0
M  V30 1121 C 101.741 1.90675 -0.795397 0
M  V30 1122 C 102.149 1.77547 0.653735 0
M  V30 1123 O 101.492 1.11611 1.45907 0
M  V30 1124 C 101.554 3.42011 -1.10764 0
M  V30 1125 C 101.218 3.78924 -2.55471 0
M  V30 1126 C 102.215 3.81042 -3.53699 0
M  V30 1127 C 99.8998 4.09626 -2.90708 0
M  V30 1128 C 101.894 4.13346 -4.85205 0
M  V30 1129 C 99.5808 4.41597 -4.22416 0
M  V30 1130 C 100.579 4.43436 -5.19474 0
M  V30 1131 O 100.267 4.74649 -6.48817 0
M  V30 1132 H 99.9988 0.611554 -0.288058 0
M  V30 1133 H 102.553 1.48711 -1.41683 0
M  V30 1134 H 100.783 3.84312 -0.429128 0
M  V30 1135 H 102.472 3.97384 -0.827077 0
M  V30 1136 H 103.238 3.57437 -3.27817 0
M  V30 1137 H 99.1168 4.07361 -2.15819 0
M  V30 1138 H 102.661 4.14696 -5.60957 0
M  V30 1139 H 98.5578 4.64667 -4.48056 0
M  V30 1140 H 99.3258 4.9247 -6.5377 0
M  V30 1141 N 101.989 0.842826 1.3317 0
M  V30 1142 C 103.217 0.454055 2.01856 0
M  V30 1143 C 103.632 -0.94587 1.63397 0
M  V30 1144 O 102.989 -1.61534 0.849302 0
M  V30 1145 C 103.04 0.569715 3.56982 0
M  V30 1146 O 102.761 1.91448 3.94055 0
M  V30 1147 C 104.262 0.178412 4.42941 0
M  V30 1148 H 101.482 0.17979 0.646465 0
M  V30 1149 H 104.026 1.1365 1.70012 0
M  V30 1150 H 102.181 -0.0648587 3.87346 0
M  V30 1151 H 102.595 1.90282 4.88767 0
M  V30 1152 H 104.069 0.310376 5.51127 0
M  V30 1153 H 104.546 -0.880056 4.30293 0
M  V30 1154 H 105.152 0.787579 4.17944 0
M  V30 1155 N 103.467 -1.45747 0.599634 0
M  V30 1156 C 104.878 -1.85853 0.177681 0
M  V30 1157 C 105.229 -1.50102 -1.26348 0
M  V30 1158 O 104.354 -0.923905 -1.95686 0
M  V30 1159 C 104.949 -3.37326 0.315688 0
M  V30 1160 C 103.508 -3.76365 -0.0515144 0
M  V30 1161 C 102.655 -2.69722 0.643822 0
M  V30 1162 H 105.606 -1.36661 0.806814 0
M  V30 1163 H 105.627 -3.77778 -0.454321 0
M  V30 1164 H 105.139 -3.63315 1.36468 0
M  V30 1165 H 103.24 -3.55993 -1.09999 0
M  V30 1166 H 103.353 -4.77916 0.336594 0
M  V30 1167 H 101.717 -2.54567 0.0822881 0
M  V30 1168 H 102.5 -2.98549 1.6948 0
M  V30 1169 N 104.945 -0.338344 -1.53925 0
M  V30 1170 C 106.222 0.314774 -1.93051 0
M  V30 1171 C 106.602 1.68669 -1.26941 0
M  V30 1172 O 105.95 2.24636 -0.418445 0
M  V30 1173 C 106.16 0.392249 -3.46789 0
M  V30 1174 C 107.508 0.645554 -4.19664 0
M  V30 1175 O 108.532 0.474575 -3.53024 0
M  V30 1176 O 107.391 0.976408 -5.37707 0
M  V30 1177 H 104.485 0.182598 -0.80659 0
M  V30 1178 H 107.031 -0.389141 -1.65178 0
M  V30 1179 H 105.803 -0.570702 -3.87116 0
M  V30 1180 H 105.426 1.14316 -3.80812 0
M  V30 1181 N 106.423 1.57458 -0.0668435 0
M  V30 1182 C 107.653 1.97337 0.611677 0
M  V30 1183 C 108.061 0.943744 1.63982 0
M  V30 1184 O 107.404 -0.0785584 1.83532 0
M  V30 1185 C 107.466 3.33511 1.34205 0
M  V30 1186 C 107.13 4.54598 0.467941 0
M  V30 1187 C 108.127 5.19186 -0.272439 0
M  V30 1188 C 105.812 5.0075 0.39427 0
M  V30 1189 C 107.806 6.28274 -1.07476 0
M  V30 1190 C 105.493 6.09711 -0.411729 0
M  V30 1191 C 106.491 6.73335 -1.14492 0
M  V30 1192 O 106.179 7.80199 -1.93763 0
M  V30 1193 H 105.911 0.654042 0.170893 0
M  V30 1194 H 108.465 2.04961 -0.134289 0
M  V30 1195 H 106.695 3.22487 2.13398 0
M  V30 1196 H 108.384 3.58029 1.91233 0
M  V30 1197 H 109.15 4.84477 -0.225086 0
M  V30 1198 H 105.029 4.51009 0.954569 0
M  V30 1199 H 108.573 6.77866 -1.64755 0
M  V30 1200 H 104.47 6.43854 -0.460664 0
M  V30 1201 H 105.238 7.97053 -1.86142 0
M  V30 1202 N 107.901 -0.206675 1.56239 0
M  V30 1203 C 108.833 -1.27997 1.9013 0
M  V30 1204 C 109.846 -1.42299 0.790883 0
M  V30 1205 O 111.035 -1.42931 1.06925 0
M  V30 1206 C 108.135 -2.65368 2.10792 0
M  V30 1207 C 107.308 -2.72824 3.41886 0
M  V30 1208 C 106.367 -3.9131 3.51799 0
M  V30 1209 O 105.393 -3.78953 4.24716 0
M  V30 1210 N 106.595 -5.06265 2.84035 0
M  V30 1211 H 109.36 -0.992444 2.82791 0
M  V30 1212 H 106.921 -0.396652 1.56966 0
M  V30 1213 H 108.913 -3.43039 2.14724 0
M  V30 1214 H 107.483 -2.86657 1.24685 0
M  V30 1215 H 106.703 -1.81515 3.49923 0
M  V30 1216 H 107.991 -2.74786 4.28217 0
M  V30 1217 H 107.389 -5.19203 2.246 0
M  V30 1218 H 105.946 -5.81925 2.93609 0
M  V30 1219 N 109.379 -1.50304 -0.473955 0
M  V30 1220 C 110.656 -1.51667 -1.23518 0
M  V30 1221 C 111.036 -0.259701 -2.09496 0
M  V30 1222 O 110.384 0.756986 -2.15597 0
M  V30 1223 C 110.594 -2.81082 -2.06868 0
M  V30 1224 C 111.942 -3.31631 -2.65153 0
M  V30 1225 O 112.966 -2.82384 -2.17113 0
M  V30 1226 O 111.825 -4.17471 -3.52675 0
M  V30 1227 H 108.919 -0.60822 -0.560355 0
M  V30 1228 H 111.465 -1.62592 -0.486011 0
M  V30 1229 H 110.237 -3.64041 -1.4349 0
M  V30 1230 H 109.86 -2.73146 -2.88924 0
M  V30 1231 N 110.857 0.726932 -1.39834 0
M  V30 1232 C 111.789 1.85147 -1.35104 0
M  V30 1233 C 112.802 1.60736 -0.258392 0
M  V30 1234 O 113.991 1.70821 -0.517931 0
M  V30 1235 C 111.091 3.21332 -1.07697 0
M  V30 1236 C 110.264 3.73033 -2.28396 0
M  V30 1237 C 109.323 4.87802 -1.97322 0
M  V30 1238 O 108.349 5.01043 -2.70083 0
M  V30 1239 N 109.551 5.72768 -0.944273 0
M  V30 1240 H 112.316 1.89706 -2.32017 0
M  V30 1241 H 109.877 0.908006 -1.3404 0
M  V30 1242 H 111.869 3.95691 -0.849144 0
M  V30 1243 H 110.439 3.11992 -0.194909 0
M  V30 1244 H 109.659 2.89934 -2.6708 0
M  V30 1245 H 110.947 4.0431 -3.08887 0
M  V30 1246 H 110.345 5.64669 -0.341427 0
M  V30 1247 H 108.902 6.4716 -0.776346 0
M  V30 1248 N 112.336 1.25143 0.95797 0
M  V30 1249 C 113.266 1.07711 2.07173 0
M  V30 1250 C 114.247 -0.0128462 1.70095 0
M  V30 1251 O 115.432 0.156061 1.93572 0
M  V30 1252 C 112.562 0.691503 3.40346 0
M  V30 1253 C 111.516 1.73132 3.9142 0
M  V30 1254 C 110.842 1.20049 5.21049 0
M  V30 1255 C 112.142 3.1294 4.1817 0
M  V30 1256 H 113.836 2.00873 2.22014 0
M  V30 1257 H 111.382 0.967191 1.06684 0
M  V30 1258 H 113.335 0.556505 4.17709 0
M  V30 1259 H 112.059 -0.275819 3.25433 0
M  V30 1260 H 110.718 1.8547 3.16222 0
M  V30 1261 H 110.366 0.223499 5.02503 0
M  V30 1262 H 110.066 1.89545 5.56189 0
M  V30 1263 H 111.59 1.07782 6.01012 0
M  V30 1264 H 113.004 3.03775 4.86203 0
M  V30 1265 H 111.401 3.79875 4.64559 0
M  V30 1266 H 112.471 3.6025 3.24573 0
M  V30 1267 N 113.814 -1.1601 1.06675 0
M  V30 1268 C 115.23 -1.38622 0.790948 0
M  V30 1269 C 115.43 -1.92109 -0.607965 0
M  V30 1270 O 114.486 -2.12239 -1.36787 0
M  V30 1271 C 115.799 -2.36347 1.85905 0
M  V30 1272 C 117.347 -2.50023 1.88301 0
M  V30 1273 C 117.822 -3.51033 2.94176 0
M  V30 1274 N 119.313 -3.58563 2.93235 0
M  V30 1275 C 120.048 -4.36521 3.71803 0
M  V30 1276 N 119.544 -5.17869 4.602 0
M  V30 1277 N 121.337 -4.31541 3.60178 0
M  V30 1278 H 113.488 -0.796294 1.96908 0
M  V30 1279 H 115.751 -0.412597 0.853503 0
M  V30 1280 H 115.457 -2.04147 2.86386 0
M  V30 1281 H 115.331 -3.36042 1.71334 0
M  V30 1282 H 117.718 -2.81524 0.884769 0
M  V30 1283 H 117.799 -1.5035 2.06951 0
M  V30 1284 H 117.443 -3.20268 3.94196 0
M  V30 1285 H 117.373 -4.50445 2.72776 0
M  V30 1286 H 119.864 -3.00496 2.29152 0
M  V30 1287 H 120.177 -5.74578 5.16797 0
M  V30 1288 H 118.522 -5.17199 4.64253 0
M  V30 1289 H 121.713 -3.67051 2.90502 0
M  V30 1290 H 121.886 -4.9205 4.21653 0
M  V30 1291 N 115.292 -0.849877 -1.32721 0
M  V30 1292 C 116.517 -0.463856 -2.02146 0
M  V30 1293 C 116.942 0.930449 -1.63476 0
M  V30 1294 O 116.3 1.61033 -0.832952 0
M  V30 1295 C 116.348 -0.604955 -3.55489 0
M  V30 1296 O 115.452 0.36425 -4.10788 0
M  V30 1297 H 114.793 -0.187046 -0.637111 0
M  V30 1298 H 117.323 -1.14775 -1.69375 0
M  V30 1299 H 117.333 -0.490696 -4.05038 0
M  V30 1300 H 116.008 -1.62174 -3.82978 0
M  V30 1301 H 114.585 0.206628 -3.72327 0
M  V30 1302 N 116.77 1.45427 -0.607355 0
M  V30 1303 C 118.181 1.85756 -0.187535 0
M  V30 1304 C 118.532 1.5077 1.25551 0
M  V30 1305 O 117.657 0.93427 1.95193 0
M  V30 1306 C 118.252 3.37154 -0.333572 0
M  V30 1307 C 116.811 3.76387 0.0315542 0
M  V30 1308 C 115.958 2.69377 -0.658117 0
M  V30 1309 H 118.909 1.36231 -0.81405 0
M  V30 1310 H 118.93 3.78014 0.43428 0
M  V30 1311 H 118.442 3.62586 -1.38393 0
M  V30 1312 H 116.543 3.56571 1.0811 0
M  V30 1313 H 116.656 4.77731 -0.361935 0
M  V30 1314 H 115.02 2.5452 -0.0957873 0
M  V30 1315 H 115.803 2.97646 -1.7106 0
M  V30 1316 N 118.248 0.346503 1.53744 0
M  V30 1317 C 119.496 -0.248612 2.00565 0
M  V30 1318 C 119.817 -1.5083 1.23593 0
M  V30 1319 O 119.087 -1.92858 0.343912 0
M  V30 1320 H 117.667 -0.0948564 0.740953 0
M  V30 1321 H 120.329 0.468341 1.89189 0
M  V30 1322 H 119.425 -0.488994 3.08245 0
M  V30 1323 N 119.726 -1.57421 0.075193 0
M  V30 1324 C 120.972 -1.93905 -0.594025 0
M  V30 1325 C 121.305 -0.955701 -1.69056 0
M  V30 1326 O 120.58 0.0145373 -1.94495 0
M  V30 1327 C 120.863 -3.40638 -1.1678 0
M  V30 1328 C 120.716 -4.49733 -0.0776792 0
M  V30 1329 C 122.035 -3.88259 -2.07228 0
M  V30 1330 H 119.154 -0.705105 -0.214466 0
M  V30 1331 H 121.796 -1.8947 0.141854 0
M  V30 1332 H 119.946 -3.44549 -1.79494 0
M  V30 1333 H 121.618 -4.57942 0.555573 0
M  V30 1334 H 119.861 -4.29751 0.591286 0
M  V30 1335 H 120.532 -5.49549 -0.519603 0
M  V30 1336 H 123.008 -3.86376 -1.54445 0
M  V30 1337 H 121.884 -4.91533 -2.44308 0
M  V30 1338 H 122.145 -3.26396 -2.98191 0
M  V30 1339 N 121.204 0.198386 -1.56346 0
M  V30 1340 C 122.432 0.935572 -1.84539 0
M  V30 1341 C 122.847 1.76989 -0.657281 0
M  V30 1342 O 122.204 1.78626 0.374043 0
M  V30 1343 C 122.255 1.8344 -3.11499 0
M  V30 1344 O 121.976 1.03377 -4.25728 0
M  V30 1345 C 123.477 2.68355 -3.52846 0
M  V30 1346 H 120.697 0.273126 -0.612897 0
M  V30 1347 H 123.241 0.20663 -2.03453 0
M  V30 1348 H 121.396 2.51701 -2.94492 0
M  V30 1349 H 121.81 1.64599 -4.98003 0
M  V30 1350 H 123.284 3.27085 -4.44657 0
M  V30 1351 H 123.761 3.41901 -2.75681 0
M  V30 1352 H 124.367 2.05471 -3.72373 0
M  V30 1353 N 122.682 1.50554 0.465978 0
M  V30 1354 C 123.612 1.72722 1.57128 0
M  V30 1355 C 124.593 0.576294 1.6004 0
M  V30 1356 O 125.778 0.81598 1.76225 0
M  V30 1357 C 122.908 1.82605 2.95419 0
M  V30 1358 C 121.862 2.97835 3.07373 0
M  V30 1359 C 121.188 2.92867 4.47363 0
M  V30 1360 C 122.488 4.38265 2.84114 0
M  V30 1361 H 124.182 2.65267 1.38829 0
M  V30 1362 H 121.728 1.2765 0.666441 0
M  V30 1363 H 123.681 1.96698 3.72677 0
M  V30 1364 H 122.405 0.866858 3.14886 0
M  V30 1365 H 121.064 2.83401 2.3255 0
M  V30 1366 H 120.712 1.94783 4.63755 0
M  V30 1367 H 120.412 3.70227 4.56296 0
M  V30 1368 H 121.936 3.09015 5.26633 0
M  V30 1369 H 123.35 4.53198 3.51118 0
M  V30 1370 H 121.747 5.17115 3.04487 0
M  V30 1371 H 122.817 4.50281 1.7993 0
M  V30 1372 N 124.16 -0.719506 1.40217 0
M  V30 1373 C 125.576 -1.02707 1.22161 0
M  V30 1374 C 125.776 -2.0128 0.0940557 0
M  V30 1375 O 124.832 -2.46452 -0.549318 0
M  V30 1376 C 126.145 -1.57454 2.56181 0
M  V30 1377 C 127.693 -1.69458 2.63159 0
M  V30 1378 C 128.168 -2.27611 3.97438 0
M  V30 1379 N 129.659 -2.35002 3.99159 0
M  V30 1380 C 130.394 -2.80972 4.99842 0
M  V30 1381 N 129.89 -3.26723 6.10921 0
M  V30 1382 N 131.683 -2.80321 4.87213 0
M  V30 1383 H 123.834 -0.0660492 2.12297 0
M  V30 1384 H 126.097 -0.0919077 0.943534 0
M  V30 1385 H 125.803 -0.924873 3.39321 0
M  V30 1386 H 125.677 -2.56036 2.76993 0
M  V30 1387 H 128.064 -2.33543 1.80393 0
M  V30 1388 H 128.145 -0.694867 2.46181 0
M  V30 1389 H 127.789 -1.6415 4.80643 0
M  V30 1390 H 127.719 -3.2829 4.11744 0
M  V30 1391 H 130.21 -2.02685 3.18947 0
M  V30 1392 H 130.523 -3.60355 6.8364 0
M  V30 1393 H 128.868 -3.24692 6.14492 0
M  V30 1394 H 132.059 -2.43912 3.9953 0
M  V30 1395 H 132.232 -3.15831 5.65822 0
M  V30 1396 N 125.638 -1.25649 -0.95132 0
M  V30 1397 C 127.049 -1.09654 -1.51106 0
M  V30 1398 C 127.4 0.326615 -1.93462 0
M  V30 1399 O 126.525 1.21697 -1.78938 0
M  V30 1400 C 127.12 -1.98437 -2.74605 0
M  V30 1401 C 125.679 -1.86618 -3.2688 0
M  V30 1402 C 124.826 -1.9239 -1.99703 0
M  V30 1403 H 127.777 -1.38887 -0.767865 0
M  V30 1404 H 127.798 -1.5263 -3.48546 0
M  V30 1405 H 127.31 -3.02009 -2.43746 0
M  V30 1406 H 125.411 -0.859421 -3.62553 0
M  V30 1407 H 125.524 -2.71607 -3.94673 0
M  V30 1408 H 123.888 -1.36317 -2.15151 0
M  V30 1409 H 124.671 -2.97573 -1.71188 0
M  V30 1410 N 127.117 1.15442 -1.07289 0
M  V30 1411 C 128.394 1.82306 -0.708792 0
M  V30 1412 C 128.774 1.94991 0.808807 0
M  V30 1413 O 128.122 1.50085 1.72298 0
M  V30 1414 C 128.332 3.18695 -1.42247 0
M  V30 1415 C 129.68 3.94341 -1.57417 0
M  V30 1416 O 130.704 3.28247 -1.38319 0
M  V30 1417 O 129.563 5.12839 -1.88834 0
M  V30 1418 H 126.657 0.787628 -0.252132 0
M  V30 1419 H 129.203 1.22559 -1.17377 0
M  V30 1420 H 127.975 3.04557 -2.45684 0
M  V30 1421 H 127.598 3.86128 -0.948223 0
M  V30 1422 N 128.595 0.856903 1.32268 0
M  V30 1423 C 129.841 0.462069 1.97466 0
M  V30 1424 C 130.174 -0.980298 1.67642 0
M  V30 1425 O 129.449 -1.68824 0.965858 0
M  V30 1426 C 129.732 0.704336 3.53145 0
M  V30 1427 C 129.585 2.19529 3.9259 0
M  V30 1428 C 130.904 0.1622 4.39801 0
M  V30 1429 H 128.023 0.169357 0.717278 0
M  V30 1430 H 130.665 1.07574 1.56614 0
M  V30 1431 H 128.815 0.181999 3.88073 0
M  V30 1432 H 130.487 2.78387 3.67829 0
M  V30 1433 H 128.73 2.67292 3.41668 0
M  V30 1434 H 129.401 2.31549 5.01088 0
M  V30 1435 H 131.877 0.608905 4.11621 0
M  V30 1436 H 130.753 0.361265 5.4771 0
M  V30 1437 H 131.014 -0.935158 4.32096 0
M  V30 1438 N 130.073 -1.45103 0.615059 0
M  V30 1439 C 131.303 -2.06254 0.119596 0
M  V30 1440 C 131.711 -1.4591 -1.20445 0
M  V30 1441 O 131.054 -0.570384 -1.7462 0
M  V30 1442 C 131.116 -3.59396 -0.0865591 0
M  V30 1443 C 130.78 -4.42116 1.15683 0
M  V30 1444 C 131.777 -4.7662 2.07676 0
M  V30 1445 C 129.462 -4.82749 1.38775 0
M  V30 1446 C 131.456 -5.50622 3.21082 0
M  V30 1447 C 129.143 -5.56504 2.52481 0
M  V30 1448 C 130.141 -5.90358 3.43463 0
M  V30 1449 O 129.829 -6.62615 4.55189 0
M  V30 1450 H 129.561 -0.672423 0.0694512 0
M  V30 1451 H 132.115 -1.87219 0.844885 0
M  V30 1452 H 130.345 -3.76859 -0.866823 0
M  V30 1453 H 132.034 -4.02365 -0.534555 0
M  V30 1454 H 132.8 -4.4578 1.91063 0
M  V30 1455 H 128.679 -4.55829 0.688545 0
M  V30 1456 H 132.223 -5.76965 3.92119 0
M  V30 1457 H 128.12 -5.86759 2.69043 0
M  V30 1458 H 128.888 -6.81071 4.53966 0
M  V30 1459 N 131.551 -0.354651 -1.53558 0
M  V30 1460 C 132.799 0.237972 -2.00694 0
M  V30 1461 C 133.12 1.50173 -1.24391 0
M  V30 1462 O 132.39 1.92673 -0.354135 0
M  V30 1463 H 130.97 0.0909256 -0.741446 0
M  V30 1464 H 133.632 -0.478368 -1.88938 0
M  V30 1465 H 132.728 0.47264 -3.085 0
M  V30 1466 N 133.029 1.57378 -0.0835403 0
M  V30 1467 C 133.939 2.16897 0.894021 0
M  V30 1468 C 134.955 1.13528 1.31861 0
M  V30 1469 O 136.131 1.45848 1.3889 0
M  V30 1470 C 133.196 2.72831 2.13925 0
M  V30 1471 C 132.257 3.91115 1.76997 0
M  V30 1472 C 131.49 4.44371 2.95584 0
M  V30 1473 O 131.713 3.96596 4.09961 0
M  V30 1474 O 130.647 5.35549 2.74719 0
M  V30 1475 H 134.473 3.00814 0.417679 0
M  V30 1476 H 132.058 1.48741 0.140181 0
M  V30 1477 H 133.94 3.0863 2.86924 0
M  V30 1478 H 132.615 1.91967 2.60635 0
M  V30 1479 H 131.522 3.60148 1.01214 0
M  V30 1480 H 132.855 4.73307 1.3506 0
M  V30 1481 N 134.507 -0.190092 1.56449 0
M  V30 1482 C 135.454 -1.23557 1.94942 0
M  V30 1483 C 136.424 -1.44972 0.810696 0
M  V30 1484 O 137.609 -1.58023 1.06927 0
M  V30 1485 C 134.749 -2.57416 2.2985 0
M  V30 1486 C 133.862 -2.43537 3.5681 0
M  V30 1487 C 132.997 -3.70134 3.81017 0
M  V30 1488 C 132.036 -3.51109 5.01387 0
M  V30 1489 N 131.173 -4.6973 5.21822 0
M  V30 1490 H 136.013 -0.900304 2.84075 0
M  V30 1491 H 133.55 -0.43318 1.40577 0
M  V30 1492 H 135.508 -3.35409 2.48106 0
M  V30 1493 H 134.138 -2.88975 1.43852 0
M  V30 1494 H 133.19 -1.56816 3.46573 0
M  V30 1495 H 134.502 -2.25415 4.4496 0
M  V30 1496 H 133.656 -4.56566 3.9954 0
M  V30 1497 H 132.395 -3.91215 2.91207 0
M  V30 1498 H 131.4 -2.63063 4.82782 0
M  V30 1499 H 132.625 -3.31468 5.9271 0
M  V30 1500 H 130.571 -4.91065 4.34961 0
M  V30 1501 H 130.488 -4.54452 6.0416 0
M  V30 1502 H 131.756 -5.57499 5.44808 0
M  V30 1503 N 135.985 -1.50799 -0.457987 0
M  V30 1504 C 137.233 -1.62121 -1.2067 0
M  V30 1505 C 137.554 -0.329793 -1.92191 0
M  V30 1506 O 136.824 0.653409 -1.84682 0
M  V30 1507 H 135.404 -0.597441 -0.448411 0
M  V30 1508 H 138.066 -1.87637 -0.527096 0
M  V30 1509 H 137.162 -2.43882 -1.94751 0
M  V30 1510 N 137.463 0.71206 -1.40597 0
M  V30 1511 C 138.393 1.83889 -1.43899 0
M  V30 1512 C 139.374 1.67442 -0.299504 0
M  V30 1513 O 140.559 1.87421 -0.508624 0
M  V30 1514 C 137.689 3.21877 -1.30431 0
M  V30 1515 C 136.643 3.53002 -2.42019 0
M  V30 1516 C 135.969 4.90172 -2.13626 0
M  V30 1517 C 137.269 3.53643 -3.84362 0
M  V30 1518 H 138.963 1.81383 -2.38203 0
M  V30 1519 H 136.509 0.871237 -1.14654 0
M  V30 1520 H 138.462 4.00404 -1.31357 0
M  V30 1521 H 137.186 3.24968 -0.326049 0
M  V30 1522 H 135.845 2.76818 -2.40349 0
M  V30 1523 H 135.493 4.89869 -1.14182 0
M  V30 1524 H 135.193 5.11962 -2.88389 0
M  V30 1525 H 136.717 5.71028 -2.1624 0
M  V30 1526 H 138.131 4.22203 -3.87837 0
M  V30 1527 H 136.528 3.86961 -4.58673 0
M  V30 1528 H 137.598 2.52954 -4.13693 0
M  V30 1529 N 138.941 1.26152 0.944643 0
M  V30 1530 C 139.851 1.09176 2.07648 0
M  V30 1531 C 140.867 0.0261935 1.7398 0
M  V30 1532 O 142.043 0.229208 2.00091 0
M  V30 1533 C 139.108 0.722915 3.39079 0
M  V30 1534 C 138.169 1.86752 3.86552 0
M  V30 1535 C 137.402 1.51617 5.11711 0
M  V30 1536 O 137.625 0.416331 5.68879 0
M  V30 1537 O 136.559 2.34975 5.54139 0
M  V30 1538 H 140.385 2.0412 2.24875 0
M  V30 1539 H 137.97 1.05182 1.061 0
M  V30 1540 H 139.852 0.529787 4.18056 0
M  V30 1541 H 138.527 -0.197159 3.23099 0
M  V30 1542 H 137.434 2.11558 3.08535 0
M  V30 1543 H 138.767 2.76719 4.07047 0
M  V30 1544 N 140.419 -1.14872 1.07899 0
M  V30 1545 C 141.668 -1.85135 0.800499 0
M  V30 1546 C 141.981 -1.83547 -0.676014 0
M  V30 1547 O 143.187 -2.49548 -1.06948 0
M  V30 1548 C 141.643 -3.3231 1.38197 0
M  V30 1549 C 141.251 -3.42329 2.8899 0
M  V30 1550 C 142.995 -4.0772 1.18174 0
M  V30 1551 C 140.902 -4.83684 3.403 0
M  V30 1552 H 139.832 -0.693563 0.29578 0
M  V30 1553 H 142.483 -1.29532 1.29976 0
M  V30 1554 H 140.865 -3.87618 0.810431 0
M  V30 1555 H 142.039 -2.97097 3.52236 0
M  V30 1556 H 140.354 -2.80369 3.07867 0
M  V30 1557 H 142.951 -5.12049 1.5398 0
M  V30 1558 H 143.294 -4.16124 0.12117 0
M  V30 1559 H 143.827 -3.58696 1.71994 0
M  V30 1560 H 140.566 -4.80465 4.45907 0
M  V30 1561 H 140.086 -5.29474 2.81811 0
M  V30 1562 H 141.765 -5.52558 3.36584 0
M  V30 1563 N 141.898 -0.863906 -1.31812 0
M  V30 1564 C 143.144 -0.472535 -1.97218 0
M  V30 1565 C 143.477 0.971394 -1.68159 0
M  V30 1566 O 142.752 1.68309 -0.974798 0
M  V30 1567 C 143.035 -0.723054 -3.52766 0
M  V30 1568 C 142.888 -2.21608 -3.91421 0
M  V30 1569 C 144.207 -0.185522 -4.39709 0
M  V30 1570 H 141.326 -0.173158 -0.71637 0
M  V30 1571 H 143.968 -1.08403 -1.56041 0
M  V30 1572 H 142.118 -0.202577 -3.87971 0
M  V30 1573 H 143.79 -2.80334 -3.66347 0
M  V30 1574 H 142.033 -2.691 -3.40246 0
M  V30 1575 H 142.704 -2.34203 -4.99853 0
M  V30 1576 H 145.18 -0.630726 -4.11292 0
M  V30 1577 H 144.056 -0.390306 -5.47511 0
M  V30 1578 H 144.317 0.912229 -4.32586 0
M  V30 1579 N 143.376 1.44774 -0.622745 0
M  V30 1580 C 144.606 2.06187 -0.130532 0
M  V30 1581 C 145.014 1.46547 1.19669 0
M  V30 1582 O 144.357 0.579636 1.74316 0
M  V30 1583 C 144.419 3.59437 0.0674983 0
M  V30 1584 C 144.083 4.41496 -1.18026 0
M  V30 1585 C 145.08 4.75512 -2.102 0
M  V30 1586 C 142.765 4.82007 -1.41333 0
M  V30 1587 C 144.759 5.48912 -3.23998 0
M  V30 1588 C 142.446 5.55157 -2.55429 0
M  V30 1589 C 143.444 5.88528 -3.46589 0
M  V30 1590 O 143.132 6.60191 -4.58697 0
M  V30 1591 H 142.864 0.672045 -0.0730162 0
M  V30 1592 H 145.418 1.86768 -0.854802 0
M  V30 1593 H 143.648 3.77314 0.846825 0
M  V30 1594 H 145.337 4.02642 0.513209 0
M  V30 1595 H 146.103 4.4476 -1.93425 0
M  V30 1596 H 141.982 4.55457 -0.712709 0
M  V30 1597 H 145.526 5.74877 -3.95174 0
M  V30 1598 H 141.423 5.85324 -2.72151 0
M  V30 1599 H 142.191 6.78654 -4.57571 0
M  V30 1600 N 144.854 0.36279 1.53368 0
M  V30 1601 C 145.802 -0.500155 2.27159 0
M  V30 1602 C 146.796 -1.08575 1.3003 0
M  V30 1603 O 148.002 -1.02927 1.47668 0
M  V30 1604 H 144.377 -0.180009 0.730138 0
M  V30 1605 H 146.348 0.14401 2.98052 0
M  V30 1606 C 145.097 -1.62937 3.07159 0
M  V30 1607 H 144.42 -1.18806 3.8174 0
M  V30 1608 H 145.86 -2.20795 3.61975 0
M  V30 1609 C 144.319 -2.57007 2.17829 0
M  V30 1610 O 144.849 -3.59752 1.78721 0
M  V30 1611 N 143.055 -2.26131 1.82518 0
M  V30 1612 H 142.602 -1.42616 2.14519 0
M  V30 1613 H 142.56 -2.89327 1.23034 0
M  V30 1614 N 146.332 -1.57332 0.0918853 0
M  V30 1615 C 147.578 -1.94524 -0.573425 0
M  V30 1616 C 147.911 -0.973578 -1.68033 0
M  V30 1617 O 147.186 -0.00609226 -1.94499 0
M  V30 1618 C 147.469 -3.41858 -1.13161 0
M  V30 1619 C 147.322 -4.4979 -0.0299747 0
M  V30 1620 C 148.641 -3.90435 -2.03098 0
M  V30 1621 H 145.76 -0.70734 -0.206975 0
M  V30 1622 H 148.402 -1.89309 0.161942 0
M  V30 1623 H 146.552 -3.46433 -1.7583 0
M  V30 1624 H 148.224 -4.57327 0.604112 0
M  V30 1625 H 146.467 -4.291 0.636833 0
M  V30 1626 H 147.138 -5.50069 -0.461287 0
M  V30 1627 H 149.614 -3.87992 -1.50338 0
M  V30 1628 H 148.49 -4.94097 -2.39081 0
M  V30 1629 H 148.751 -3.29541 -2.94712 0
M  V30 1630 N 147.81 0.181792 -1.56548 0
M  V30 1631 C 149.035 0.920019 -1.85877 0
M  V30 1632 C 149.46 1.75494 -0.677021 0
M  V30 1633 O 148.818 1.77399 0.374056 0
M  V30 1634 C 148.866 1.78112 -3.13542 0
M  V30 1635 O 147.97 2.88152 -2.95029 0
M  V30 1636 H 147.311 0.258334 -0.611686 0
M  V30 1637 H 149.841 0.183092 -2.03779 0
M  V30 1638 H 149.851 2.18314 -3.44678 0
M  V30 1639 H 148.526 1.16777 -3.99169 0
M  V30 1640 H 147.103 2.51609 -2.75222 0
M  V30 1641 N 149.288 1.51039 0.449983 0
M  V30 1642 C 150.565 1.53612 1.21089 0
M  V30 1643 C 150.945 0.292997 2.09057 0
M  V30 1644 O 150.293 -0.72259 2.16774 0
M  V30 1645 C 150.503 2.84337 2.0237 0
M  V30 1646 C 151.851 3.35807 2.59843 0
M  V30 1647 O 152.875 2.85802 2.12593 0
M  V30 1648 O 151.734 4.23029 3.45989 0
M  V30 1649 H 148.828 0.617057 0.550608 0
M  V30 1650 H 151.374 1.63344 0.460082 0
M  V30 1651 H 150.146 3.66278 1.37681 0
M  V30 1652 H 149.769 2.77708 2.84542 0
M  V30 1653 N 150.766 -0.704594 1.40972 0
M  V30 1654 C 151.714 -1.83994 1.42299 0
M  V30 1655 C 152.708 -1.66684 0.302111 0
M  V30 1656 O 153.914 -1.73655 0.473697 0
M  V30 1657 H 150.289 -0.606171 0.44504 0
M  V30 1658 H 152.26 -1.79992 2.38003 0
M  V30 1659 C 151.009 -3.21946 1.31323 0
M  V30 1660 H 150.332 -3.35878 2.16855 0
M  V30 1661 H 151.772 -4.01491 1.36311 0
M  V30 1662 C 150.231 -3.36891 0.0245977 0
M  V30 1663 O 150.761 -3.90687 -0.934153 0
M  V30 1664 N 148.967 -2.90559 -0.0485243 0
M  V30 1665 H 148.514 -2.46968 0.732419 0
M  V30 1666 H 148.472 -3.00937 -0.910171 0
M  V30 1667 N 152.244 -1.26651 -0.937939 0
M  V30 1668 C 153.66 -1.03834 -1.21205 0
M  V30 1669 C 153.86 0.234502 -2.00131 0
M  V30 1670 O 152.916 0.942767 -2.3424 0
M  V30 1671 C 154.229 -2.27167 -1.97017 0
M  V30 1672 C 155.777 -2.32101 -2.09996 0
M  V30 1673 C 156.252 -3.55136 -2.8921 0
M  V30 1674 N 157.743 -3.55632 -2.96783 0
M  V30 1675 C 158.478 -4.475 -3.58512 0
M  V30 1676 N 157.974 -5.4966 -4.21717 0
M  V30 1677 N 159.767 -4.35145 -3.55816 0
M  V30 1678 H 151.918 -2.08398 -0.410391 0
M  V30 1679 H 154.181 -0.916031 -0.244114 0
M  V30 1680 H 153.887 -3.19765 -1.46434 0
M  V30 1681 H 153.761 -2.31672 -2.97671 0
M  V30 1682 H 156.148 -1.40015 -2.59769 0
M  V30 1683 H 156.229 -2.31605 -1.08594 0
M  V30 1684 H 155.873 -4.47553 -2.40123 0
M  V30 1685 H 155.803 -3.5288 -3.90875 0
M  V30 1686 H 158.294 -2.81743 -2.51852 0
M  V30 1687 H 158.607 -6.15943 -4.66727 0
M  V30 1688 H 156.952 -5.53514 -4.20294 0
M  V30 1689 H 160.143 -3.5455 -3.05634 0
M  V30 1690 H 160.316 -5.06934 -4.03636 0
M  V30 1691 N 153.722 1.14298 -1.08507 0
M  V30 1692 C 154.95 1.89219 -0.836876 0
M  V30 1693 C 155.365 1.78638 0.611054 0
M  V30 1694 O 154.722 1.14643 1.41998 0
M  V30 1695 C 154.773 3.39158 -1.25116 0
M  V30 1696 O 154.494 3.49449 -2.64229 0
M  V30 1697 C 155.995 4.31073 -1.03398 0
M  V30 1698 H 153.215 0.599328 -0.301739 0
M  V30 1699 H 155.759 1.44746 -1.44461 0
M  V30 1700 H 153.914 3.81251 -0.687514 0
M  V30 1701 H 154.328 4.42589 -2.81452 0
M  V30 1702 H 155.802 5.34646 -1.37323 0
M  V30 1703 H 156.279 4.3919 0.0289259 0
M  V30 1704 H 156.885 3.94738 -1.58311 0
M  V30 1705 N 155.201 0.870884 1.31352 0
M  V30 1706 C 156.447 0.492314 1.97352 0
M  V30 1707 C 156.802 -0.945174 1.67583 0
M  V30 1708 O 156.095 -1.65674 0.962423 0
M  V30 1709 C 156.289 0.687157 3.50732 0
M  V30 1710 C 156.118 2.14203 3.95407 0
M  V30 1711 C 154.888 2.78382 4.21701 0
M  V30 1712 C 157.086 3.1144 4.09279 0
M  V30 1713 N 155.068 4.14611 4.52737 0
M  V30 1714 C 156.439 4.32702 4.44037 0
M  V30 1715 C 158.494 3.07418 3.91661 0
M  V30 1716 C 157.197 5.50463 4.63015 0
M  V30 1717 C 159.223 4.24438 4.11833 0
M  V30 1718 C 158.585 5.44463 4.46923 0
M  V30 1719 H 154.684 0.229206 0.747655 0
M  V30 1720 H 157.268 1.12568 1.5886 0
M  V30 1721 H 155.439 0.083384 3.8831 0
M  V30 1722 H 157.171 0.276883 4.03752 0
M  V30 1723 H 153.926 2.29326 4.14375 0
M  V30 1724 H 154.35 4.84928 4.72413 0
M  V30 1725 H 158.992 2.15732 3.6362 0
M  V30 1726 H 156.71 6.42666 4.89904 0
M  V30 1727 H 160.296 4.2278 3.99685 0
M  V30 1728 H 159.176 6.33504 4.62214 0
M  V30 1729 N 156.679 -1.44442 0.630414 0
M  V30 1730 C 157.642 -2.29107 -0.0652523 0
M  V30 1731 C 158.642 -1.41002 -0.772995 0
M  V30 1732 O 159.832 -1.62881 -0.617692 0
M  V30 1733 C 156.964 -3.22564 -1.10296 0
M  V30 1734 H 158.157 -2.92103 0.679401 0
M  V30 1735 H 155.71 -1.51343 0.390517 0
M  V30 1736 H 156.445 -2.64416 -1.87762 0
M  V30 1737 H 156.23 -3.87491 -0.59941 0
M  V30 1738 H 157.72 -3.86167 -1.5895 0
M  V30 1739 N 158.157 -0.370918 -1.53173 0
M  V30 1740 C 159.434 0.273754 -1.93675 0
M  V30 1741 C 159.814 1.65938 -1.3049 0
M  V30 1742 O 159.162 2.23698 -0.465999 0
M  V30 1743 C 159.372 0.318602 -3.47543 0
M  V30 1744 C 160.72 0.556392 -4.20939 0
M  V30 1745 O 161.744 0.399587 -3.53952 0
M  V30 1746 O 160.603 0.862133 -5.39657 0
M  V30 1747 H 157.697 0.165448 -0.810281 0
M  V30 1748 H 160.243 -0.42409 -1.64315 0
M  V30 1749 H 159.015 -0.652687 -3.85818 0
M  V30 1750 H 158.638 1.06212 -3.83151 0
M  V30 1751 N 159.635 1.57281 -0.100228 0
M  V30 1752 C 160.565 2.17328 0.853857 0
M  V30 1753 C 161.546 1.10804 1.2906 0
M  V30 1754 O 162.731 1.38963 1.35657 0
M  V30 1755 C 159.861 2.75772 2.11109 0
M  V30 1756 C 158.815 3.87713 1.81279 0
M  V30 1757 C 158.141 4.32882 3.13874 0
M  V30 1758 C 159.441 5.10677 1.09574 0
M  V30 1759 H 161.135 2.97305 0.353545 0
M  V30 1760 H 158.681 1.43009 0.168612 0
M  V30 1761 H 160.634 3.16433 2.78296 0
M  V30 1762 H 159.358 1.93057 2.63432 0
M  V30 1763 H 158.017 3.476 1.16489 0
M  V30 1764 H 157.665 3.47051 3.64095 0
M  V30 1765 H 157.365 5.08358 2.94696 0
M  V30 1766 H 158.889 4.7618 3.82211 0
M  V30 1767 H 160.303 5.48474 1.66879 0
M  V30 1768 H 158.7 5.91615 1.00557 0
M  V30 1769 H 159.77 4.84835 0.0793299 0
M  V30 1770 N 161.113 -0.173488 1.56642 0
M  V30 1771 C 162.341 -0.906095 1.86004 0
M  V30 1772 C 162.756 -1.75921 0.685355 0
M  V30 1773 O 162.113 -1.79198 -0.345578 0
M  V30 1774 C 162.164 -1.78462 3.14378 0
M  V30 1775 O 161.885 -0.965914 4.27319 0
M  V30 1776 C 163.386 -2.62707 3.57071 0
M  V30 1777 H 160.606 -0.263341 0.617165 0
M  V30 1778 H 163.15 -0.174236 2.03756 0
M  V30 1779 H 161.305 -2.46984 2.98459 0
M  V30 1780 H 161.719 -1.56655 5.00559 0
M  V30 1781 H 163.193 -3.19969 4.49804 0
M  V30 1782 H 163.67 -3.37472 2.81086 0
M  V30 1783 H 164.276 -1.99521 3.75595 0
M  V30 1784 N 162.591 -1.51276 -0.441967 0
M  V30 1785 C 163.523 -1.68444 -1.55433 0
M  V30 1786 C 164.536 -0.565187 -1.52674 0
M  V30 1787 O 165.725 -0.839356 -1.57534 0
M  V30 1788 C 162.825 -1.67966 -2.94348 0
M  V30 1789 C 161.998 -2.964 -3.21661 0
M  V30 1790 C 161.057 -2.88171 -4.40277 0
M  V30 1791 O 160.083 -3.62119 -4.39157 0
M  V30 1792 N 161.285 -2.03706 -5.43584 0
M  V30 1793 H 164.05 -2.644 -1.41112 0
M  V30 1794 H 161.611 -1.49104 -0.630838 0
M  V30 1795 H 163.603 -1.60035 -3.71713 0
M  V30 1796 H 162.173 -0.796225 -3.0229 0
M  V30 1797 H 161.393 -3.18234 -2.32638 0
M  V30 1798 H 162.681 -3.81427 -3.36736 0
M  V30 1799 H 162.079 -1.42995 -5.47329 0
M  V30 1800 H 160.636 -2.01658 -6.1982 0
M  V30 1801 N 164.069 0.697108 -1.41344 0
M  V30 1802 C 165.297 1.48593 -1.43972 0
M  V30 1803 C 165.712 1.88747 -0.0445612 0
M  V30 1804 O 165.069 1.56682 0.935785 0
M  V30 1805 C 165.12 2.74946 -2.34706 0
M  V30 1806 O 164.841 2.36484 -3.68791 0
M  V30 1807 C 166.342 3.687 -2.46121 0
M  V30 1808 H 163.562 0.457964 -0.490418 0
M  V30 1809 H 166.106 0.858429 -1.8561 0
M  V30 1810 H 164.261 3.33937 -1.9638 0
M  V30 1811 H 164.675 3.17918 -4.17167 0
M  V30 1812 H 166.149 4.54145 -3.13777 0
M  V30 1813 H 166.626 4.13081 -1.49199 0
M  V30 1814 H 167.232 3.15613 -2.85076 0
M  V30 1815 N 165.547 1.27147 0.931209 0
M  V30 1816 C 166.477 1.12081 2.04842 0
M  V30 1817 C 167.458 0.0232364 1.70084 0
M  V30 1818 O 168.643 0.197085 1.93197 0
M  V30 1819 C 165.773 0.76354 3.38803 0
M  V30 1820 C 164.727 1.81396 3.87659 0
M  V30 1821 C 164.053 1.31075 5.18385 0
M  V30 1822 C 165.353 3.21739 4.11438 0
M  V30 1823 H 167.047 2.05537 2.17703 0
M  V30 1824 H 164.593 0.989603 1.04608 0
M  V30 1825 H 166.546 0.644982 4.16435 0
M  V30 1826 H 165.27 -0.206727 3.25945 0
M  V30 1827 H 163.929 1.92136 3.12217 0
M  V30 1828 H 163.577 0.330037 5.01916 0
M  V30 1829 H 163.277 2.013 5.52044 0
M  V30 1830 H 164.801 1.20506 5.98591 0
M  V30 1831 H 166.215 3.14019 4.79651 0
M  V30 1832 H 164.612 3.89644 4.56397 0
M  V30 1833 H 165.682 3.67054 3.16859 0
M  V30 1834 N 167.025 -1.13721 1.09112 0
M  V30 1835 C 167.975 -2.17082 0.697091 0
M  V30 1836 C 168.959 -1.58321 -0.286923 0
M  V30 1837 O 170.151 -1.7673 -0.0978008 0
M  V30 1838 C 167.28 -3.43105 0.115729 0
M  V30 1839 C 166.366 -4.0888 1.12596 0
M  V30 1840 N 166.757 -4.4987 2.31195 0
M  V30 1841 C 165.055 -4.35471 0.963366 0
M  V30 1842 C 165.756 -5.01094 2.95431 0
M  V30 1843 N 164.732 -4.95751 2.23006 0
M  V30 1844 H 168.534 -2.46524 1.6001 0
M  V30 1845 H 166.048 -1.30481 0.966869 0
M  V30 1846 H 168.045 -4.16491 -0.184555 0
M  V30 1847 H 166.705 -3.15138 -0.78217 0
M  V30 1848 H 167.716 -4.42678 2.68806 0
M  V30 1849 H 164.393 -4.17328 0.119878 0
M  V30 1850 H 165.783 -5.4263 3.96236 0
M  V30 1851 N 168.503 -0.877838 -1.30888 0
M  V30 1852 C 169.466 -0.344265 -2.266 0
M  V30 1853 C 170.466 0.50922 -1.52524 0
M  V30 1854 O 171.656 0.317398 -1.71284 0
M  V30 1855 C 168.788 0.510198 -3.37061 0
M  V30 1856 H 169.981 -1.1893 -2.7531 0
M  V30 1857 H 167.534 -0.654088 -1.41956 0
M  V30 1858 H 168.269 1.37612 -2.93655 0
M  V30 1859 H 168.054 -0.101047 -3.9197 0
M  V30 1860 H 169.544 0.875537 -4.08319 0
M  V30 1861 N 169.982 1.44106 -0.638065 0
M  V30 1862 C 171.229 2.01978 -0.14533 0
M  V30 1863 C 171.557 1.50234 1.23532 0
M  V30 1864 O 170.812 0.679548 1.83523 0
M  V30 1865 C 171.111 3.5729 -0.0887327 0
M  V30 1866 C 170.777 4.28317 -1.40909 0
M  V30 1867 C 169.439 4.47437 -1.77069 0
M  V30 1868 C 171.791 4.6867 -2.28031 0
M  V30 1869 C 169.119 5.04171 -3.00047 0
M  V30 1870 C 171.471 5.26766 -3.50286 0
M  V30 1871 C 170.135 5.44104 -3.86661 0
M  V30 1872 H 169.405 0.739089 -0.0531801 0
M  V30 1873 H 172.052 1.72781 -0.825761 0
M  V30 1874 H 170.357 3.8594 0.675095 0
M  V30 1875 H 172.054 3.99807 0.309145 0
M  V30 1876 H 168.644 4.1377 -1.1177 0
M  V30 1877 H 172.828 4.53604 -2.01388 0
M  V30 1878 H 168.084 5.15782 -3.28298 0
M  V30 1879 H 172.258 5.56983 -4.18023 0
M  V30 1880 H 169.885 5.87832 -4.82034 0
M  V30 1881 N 171.46 0.379036 1.52974 0
M  V30 1882 C 172.39 -0.452706 2.29069 0
M  V30 1883 C 173.371 -1.07237 1.32039 0
M  V30 1884 O 174.556 -1.08708 1.60923 0
M  V30 1885 C 171.686 -1.5856 3.08992 0
M  V30 1886 C 170.64 -1.0925 4.13822 0
M  V30 1887 C 169.966 -2.31668 4.81907 0
M  V30 1888 C 171.266 -0.167702 5.22031 0
M  V30 1889 H 172.96 0.182181 2.98845 0
M  V30 1890 H 170.506 0.0890592 1.43724 0
M  V30 1891 H 172.459 -2.1742 3.6098 0
M  V30 1892 H 171.183 -2.24792 2.36931 0
M  V30 1893 H 169.842 -0.526494 3.628 0
M  V30 1894 H 169.49 -2.96386 4.06404 0
M  V30 1895 H 169.19 -1.9934 5.52754 0
M  V30 1896 H 170.714 -2.91189 5.36695 0
M  V30 1897 H 172.128 -0.664186 5.6944 0
M  V30 1898 H 170.525 0.0653265 6.00064 0
M  V30 1899 H 171.595 0.786347 4.78482 0
M  V30 1900 N 172.938 -1.57226 0.108567 0
M  V30 1901 C 173.901 -2.13602 -0.831082 0
M  V30 1902 C 174.901 -1.06841 -1.20173 0
M  V30 1903 O 176.091 -1.32666 -1.12895 0
M  V30 1904 C 173.223 -2.66769 -2.12243 0
M  V30 1905 H 174.416 -2.97951 -0.341317 0
M  V30 1906 H 171.969 -1.55667 -0.14057 0
M  V30 1907 H 172.704 -1.85977 -2.65675 0
M  V30 1908 H 172.489 -3.44839 -1.86625 0
M  V30 1909 H 173.979 -3.10332 -2.79435 0
M  V30 1910 N 174.416 0.165178 -1.56732 0
M  V30 1911 C 175.664 0.879068 -1.8198 0
M  V30 1912 C 175.985 1.82514 -0.686561 0
M  V30 1913 O 175.255 1.93694 0.293146 0
M  V30 1914 H 173.835 0.327608 -0.671329 0
M  V30 1915 H 176.497 0.163526 -1.94213 0
M  V30 1916 H 175.593 1.45228 -2.76252 0
M  V30 1917 N 175.894 1.51508 0.433938 0
M  V30 1918 C 177.124 1.67914 1.20369 0
M  V30 1919 C 177.532 0.377461 1.85397 0
M  V30 1920 O 176.875 -0.654255 1.71654 0
M  V30 1921 C 176.937 2.74045 2.32679 0
M  V30 1922 C 176.601 4.16543 1.87991 0
M  V30 1923 C 177.598 5.01211 1.38145 0
M  V30 1924 C 175.283 4.6266 1.95579 0
M  V30 1925 C 177.277 6.30056 0.964774 0
M  V30 1926 C 174.964 5.91501 1.53523 0
M  V30 1927 C 175.962 6.75027 1.04055 0
M  V30 1928 O 175.65 8.01459 0.625964 0
M  V30 1929 H 175.382 0.566578 0.368735 0
M  V30 1930 H 177.936 1.98709 0.51999 0
M  V30 1931 H 176.166 2.38572 3.04336 0
M  V30 1932 H 177.855 2.79295 2.94532 0
M  V30 1933 H 178.621 4.66783 1.31675 0
M  V30 1934 H 174.5 3.97767 2.33029 0
M  V30 1935 H 178.044 6.95202 0.57796 0
M  V30 1936 H 173.941 6.25442 1.59665 0
M  V30 1937 H 174.709 8.15043 0.751509 0
M  V30 1938 N 177.372 -0.689602 1.41712 0
M  V30 1939 C 178.597 -1.48329 1.44959 0
M  V30 1940 C 179.022 -1.8801 0.0581283 0
M  V30 1941 O 178.38 -1.55026 -0.940035 0
M  V30 1942 C 178.428 -2.71835 2.36935 0
M  V30 1943 O 177.532 -3.69549 1.8305 0
M  V30 1944 H 176.873 -0.446199 0.491734 0
M  V30 1945 H 179.403 -0.847127 1.86239 0
M  V30 1946 H 179.413 -3.20076 2.53013 0
M  V30 1947 H 178.088 -2.42291 3.38035 0
M  V30 1948 H 176.665 -3.2851 1.76452 0
M  V30 1949 N 178.85 -1.27639 -0.924453 0
M  V30 1950 C 180.261 -1.12834 -1.48746 0
M  V30 1951 C 180.612 0.285505 -1.94112 0
M  V30 1952 O 179.737 1.17874 -1.81479 0
M  V30 1953 C 180.332 -2.04217 -2.70334 0
M  V30 1954 C 178.891 -1.93509 -3.22848 0
M  V30 1955 C 178.038 -1.96583 -1.95577 0
M  V30 1956 H 180.989 -1.40484 -0.738233 0
M  V30 1957 H 181.01 -1.59989 -3.4523 0
M  V30 1958 H 180.522 -3.07111 -2.37285 0
M  V30 1959 H 178.623 -0.936131 -3.60649 0
M  V30 1960 H 178.736 -2.79917 -3.88823 0
M  V30 1961 H 177.1 -1.4085 -2.12211 0
M  V30 1962 H 177.883 -3.01137 -1.64837 0
M  V30 1963 N 180.328 1.1314 -1.09713 0
M  V30 1964 C 181.291 2.16831 -0.742751 0
M  V30 1965 C 182.291 1.59159 0.229129 0
M  V30 1966 O 183.481 1.74199 0.00693237 0
M  V30 1967 C 180.613 3.40756 -0.0989168 0
M  V30 1968 H 181.806 2.49695 -1.66109 0
M  V30 1969 H 179.359 1.2802 -0.896699 0
M  V30 1970 H 180.094 3.13485 0.830514 0
M  V30 1971 H 179.879 3.83888 -0.798265 0
M  V30 1972 H 181.369 4.17386 0.133524 0
M  V30 1973 N 181.806 0.884767 1.30421 0
M  V30 1974 C 182.769 0.356277 2.26414 0
M  V30 1975 C 183.769 -0.501124 1.52792 0
M  V30 1976 O 184.959 -0.30831 1.7145 0
M  V30 1977 C 182.091 -0.492316 3.37326 0
M  V30 1978 H 183.284 1.20389 2.74675 0
M  V30 1979 H 180.837 0.661607 1.41607 0
M  V30 1980 H 181.572 -1.36052 2.94381 0
M  V30 1981 H 181.357 0.121832 3.91911 0
M  V30 1982 H 182.847 -0.853871 4.08777 0
M  V30 1983 N 183.284 -1.43765 0.645699 0
M  V30 1984 C 184.216 -2.29027 -0.0890605 0
M  V30 1985 C 185.229 -1.42093 -0.794563 0
M  V30 1986 O 186.418 -1.66104 -0.653575 0
M  V30 1987 C 183.518 -3.18831 -1.14891 0
M  V30 1988 C 182.691 -4.34261 -0.523043 0
M  V30 1989 C 181.75 -5.04994 -1.47878 0
M  V30 1990 O 180.776 -5.6052 -0.990277 0
M  V30 1991 N 181.978 -5.07795 -2.81291 0
M  V30 1992 H 184.743 -2.92727 0.64272 0
M  V30 1993 H 182.304 -1.54373 0.487924 0
M  V30 1994 H 184.296 -3.63015 -1.78892 0
M  V30 1995 H 182.866 -2.56782 -1.78275 0
M  V30 1996 H 182.086 -3.93088 0.295896 0
M  V30 1997 H 183.374 -5.08728 -0.0858147 0
M  V30 1998 H 182.772 -4.64042 -3.23546 0
M  V30 1999 H 181.329 -5.55721 -3.40614 0
M  V30 2000 N 184.763 -0.387143 -1.52771 0
M  V30 2001 C 185.673 0.456442 -2.30117 0
M  V30 2002 C 186.689 1.07342 -1.36944 0
M  V30 2003 O 187.865 1.07971 -1.70013 0
M  V30 2004 C 184.93 1.56957 -3.09136 0
M  V30 2005 C 183.991 0.977916 -4.18014 0
M  V30 2006 C 183.224 2.038 -4.93256 0
M  V30 2007 O 183.447 3.25271 -4.68567 0
M  V30 2008 O 182.381 1.6565 -5.78657 0
M  V30 2009 H 186.207 -0.17359 -3.03203 0
M  V30 2010 H 183.792 -0.150919 -1.48636 0
M  V30 2011 H 185.674 2.21628 -3.58412 0
M  V30 2012 H 184.349 2.18461 -2.38865 0
M  V30 2013 H 183.256 0.294525 -3.72939 0
M  V30 2014 H 184.589 0.407128 -4.90513 0
M  V30 2015 N 186.241 1.57166 -0.116904 0
M  V30 2016 C 187.518 1.86645 0.585049 0
M  V30 2017 C 187.898 1.0177 1.84949 0
M  V30 2018 O 187.246 0.0960379 2.28298 0
M  V30 2019 C 187.456 3.37736 0.879507 0
M  V30 2020 C 188.804 4.06289 1.23348 0
M  V30 2021 O 189.828 3.42743 0.969836 0
M  V30 2022 O 188.687 5.18455 1.7282 0
M  V30 2023 H 185.781 0.772593 0.295007 0
M  V30 2024 H 188.327 1.69025 -0.151249 0
M  V30 2025 H 187.099 3.91296 -0.0166136 0
M  V30 2026 H 186.722 3.6078 1.67103 0
M  V30 2027 N 187.719 -0.156864 1.56817 0
M  V30 2028 C 188.944 -0.890331 1.87318 0
M  V30 2029 C 189.369 -1.74394 0.704855 0
M  V30 2030 O 188.727 -1.77972 -0.345786 0
M  V30 2031 C 188.775 -1.73102 3.16336 0
M  V30 2032 O 187.879 -2.83422 2.99576 0
M  V30 2033 H 187.22 -0.24857 0.615718 0
M  V30 2034 H 189.75 -0.150649 2.04045 0
M  V30 2035 H 189.76 -2.12803 3.48107 0
M  V30 2036 H 188.435 -1.10412 4.00976 0
M  V30 2037 H 187.012 -2.47199 2.7919 0
M  V30 2038 N 189.197 -1.51736 -0.425897 0
M  V30 2039 C 190.446 -1.64201 -1.17136 0
M  V30 2040 C 190.759 -0.369705 -1.92074 0
M  V30 2041 O 191.965 -0.373898 -2.68913 0
M  V30 2042 C 190.421 -2.90035 -2.13091 0
M  V30 2043 C 190.029 -4.24312 -1.43747 0
M  V30 2044 C 191.773 -3.1186 -2.87999 0
M  V30 2045 C 189.68 -5.41285 -2.38253 0
M  V30 2046 H 188.61 -0.611624 -0.440944 0
M  V30 2047 H 191.261 -1.78212 -0.437328 0
M  V30 2048 H 189.643 -2.69684 -2.89977 0
M  V30 2049 H 190.817 -4.55086 -0.723408 0
M  V30 2050 H 189.132 -4.08456 -0.809465 0
M  V30 2051 H 191.729 -3.96427 -3.58817 0
M  V30 2052 H 192.072 -2.25403 -3.49999 0
M  V30 2053 H 192.605 -3.32605 -2.18217 0
M  V30 2054 H 189.344 -6.30037 -1.80925 0
M  V30 2055 H 188.864 -5.14872 -3.0768 0
M  V30 2056 H 190.543 -5.73694 -2.99139 0
M  V30 2057 N 190.675 0.682077 -1.42076 0
M  V30 2058 C 191.623 1.81707 -1.45208 0
M  V30 2059 C 192.617 1.66183 -0.328591 0
M  V30 2060 O 193.823 1.7288 -0.501264 0
M  V30 2061 H 190.198 0.599014 -0.454628 0
M  V30 2062 H 192.169 1.76183 -2.40836 0
M  V30 2063 C 190.918 3.19816 -1.36428 0
M  V30 2064 H 190.241 3.32385 -2.22171 0
M  V30 2065 H 191.681 3.99272 -1.42681 0
M  V30 2066 C 190.14 3.36809 -0.078191 0
M  V30 2067 O 190.67 3.92124 0.87188 0
M  V30 2068 N 188.876 2.906 0.00229266 0
M  V30 2069 H 188.423 2.45772 -0.771616 0
M  V30 2070 H 188.381 3.02347 0.862179 0
M  V30 2071 N 192.153 1.28127 0.917671 0
M  V30 2072 C 193.393 1.163 1.68088 0
M  V30 2073 C 193.757 -0.284515 1.8988 0
M  V30 2074 O 194.958 -0.525413 2.63615 0
M  V30 2075 C 193.229 1.93546 3.00457 0
M  V30 2076 S 194.788 1.98048 3.91564 0
M  V30 2077 H 191.606 0.415005 0.577315 0
M  V30 2078 H 194.208 1.62173 1.09179 0
M  V30 2079 H 192.912 2.97888 2.82295 0
M  V30 2080 H 192.443 1.48207 3.64415 0
M  V30 2081 H 194.458 1.08415 4.84211 0
M  V30 2082 N 193.631 -1.12557 1.10312 0
M  V30 2083 C 194.859 -1.87864 0.866873 0
M  V30 2084 C 195.274 -1.79588 -0.582557 0
M  V30 2085 O 194.631 -1.16887 -1.40156 0
M  V30 2086 C 194.682 -3.37125 1.30496 0
M  V30 2087 O 194.403 -3.45201 2.69755 0
M  V30 2088 C 195.904 -4.29373 1.10243 0
M  V30 2089 H 193.124 -0.594452 0.311236 0
M  V30 2090 H 195.668 -1.42429 1.46745 0
M  V30 2091 H 193.823 -3.80109 0.748081 0
M  V30 2092 H 194.237 -4.38056 2.88457 0
M  V30 2093 H 195.711 -5.32394 1.45811 0
M  V30 2094 H 196.188 -4.39181 0.0409492 0
M  V30 2095 H 196.794 -3.92169 1.64571 0
M  V30 2096 N 195.109 -0.891671 -1.2995 0
M  V30 2097 C 196.334 -0.527932 -2.00568 0
M  V30 2098 C 196.759 0.877969 -1.66353 0
M  V30 2099 O 196.117 1.58301 -0.883762 0
M  V30 2100 C 196.165 -0.717745 -3.53385 0
M  V30 2101 O 195.269 0.233376 -4.11739 0
M  V30 2102 H 194.61 -0.20722 -0.630837 0
M  V30 2103 H 197.14 -1.20105 -1.65638 0
M  V30 2104 H 197.15 -0.619307 -4.03272 0
M  V30 2105 H 195.825 -1.74276 -3.77625 0
M  V30 2106 H 194.402 0.0880706 -3.72796 0
M  V30 2107 N 196.587 1.43421 -0.653314 0
M  V30 2108 C 197.497 2.34568 0.0388565 0
M  V30 2109 C 198.513 1.53888 0.81207 0
M  V30 2110 O 199.689 1.86539 0.759294 0
M  V30 2111 C 196.754 3.32167 0.993269 0
M  V30 2112 C 195.815 4.28751 0.216977 0
M  V30 2113 C 195.048 5.21688 1.12593 0
M  V30 2114 O 195.271 5.19052 2.36519 0
M  V30 2115 O 194.205 5.98919 0.598284 0
M  V30 2116 H 198.031 2.95251 -0.711386 0
M  V30 2117 H 195.616 1.43564 -0.413502 0
M  V30 2118 H 197.498 3.92183 1.54176 0
M  V30 2119 H 196.173 2.73987 1.72374 0
M  V30 2120 H 195.08 3.72215 -0.375101 0
M  V30 2121 H 196.413 4.89913 -0.473924 0
M  V30 2122 N 198.065 0.39524 1.52563 0
M  V30 2123 C 198.997 -0.472201 2.24283 0
M  V30 2124 C 200.01 -1.02178 1.26742 0
M  V30 2125 O 201.199 -0.923097 1.52778 0
M  V30 2126 C 198.299 -1.66775 2.95024 0
M  V30 2127 C 197.472 -1.2445 4.19322 0
M  V30 2128 C 196.531 -2.30539 4.7301 0
M  V30 2129 O 195.557 -1.91702 5.35947 0
M  V30 2130 N 196.759 -3.6253 4.53379 0
M  V30 2131 H 199.524 0.142282 2.99362 0
M  V30 2132 H 197.085 0.2219 1.60372 0
M  V30 2133 H 199.077 -2.37283 3.27839 0
M  V30 2134 H 197.647 -2.18845 2.23217 0
M  V30 2135 H 196.867 -0.368069 3.92478 0
M  V30 2136 H 198.155 -0.938457 5.0007 0
M  V30 2137 H 197.553 -3.96841 4.03154 0
M  V30 2138 H 196.11 -4.29055 4.90668 0
M  V30 2139 N 199.544 -1.57102 0.125237 0
M  V30 2140 C 200.774 -1.99472 -0.538015 0
M  V30 2141 C 201.182 -1.00395 -1.60366 0
M  V30 2142 O 200.525 0.0103875 -1.83697 0
M  V30 2143 C 200.587 -3.38262 -1.21734 0
M  V30 2144 C 200.251 -4.56021 -0.298897 0
M  V30 2145 C 201.248 -5.17817 0.464943 0
M  V30 2146 C 198.933 -5.01869 -0.208149 0
M  V30 2147 C 200.927 -6.23852 1.3072 0
M  V30 2148 C 198.614 -6.07763 0.637736 0
M  V30 2149 C 199.612 -6.68622 1.39403 0
M  V30 2150 O 199.3 -7.7247 2.22586 0
M  V30 2151 H 199.032 -0.659934 -0.146501 0
M  V30 2152 H 201.586 -2.04321 0.210267 0
M  V30 2153 H 199.816 -3.30185 -2.01282 0
M  V30 2154 H 201.505 -3.6488 -1.77813 0
M  V30 2155 H 202.271 -4.83308 0.404741 0
M  V30 2156 H 198.15 -4.54241 -0.786522 0
M  V30 2157 H 201.694 -6.71284 1.898 0
M  V30 2158 H 197.591 -6.41701 0.699309 0
M  V30 2159 H 198.359 -7.89595 2.15596 0
M  V30 2160 N 201.022 0.148545 -1.56898 0
M  V30 2161 C 202.269 0.861418 -1.83264 0
M  V30 2162 C 202.597 1.81239 -0.705883 0
M  V30 2163 O 201.852 1.93305 0.305212 0
M  V30 2164 C 202.151 1.67064 -3.1595 0
M  V30 2165 C 201.817 0.866591 -4.42494 0
M  V30 2166 C 200.479 0.644762 -4.76861 0
M  V30 2167 C 202.831 0.30418 -5.20312 0
M  V30 2168 C 200.159 -0.15021 -5.86508 0
M  V30 2169 C 202.511 -0.477824 -6.30793 0
M  V30 2170 C 201.175 -0.710244 -6.63711 0
M  V30 2171 H 200.445 0.315215 -0.670612 0
M  V30 2172 H 203.092 0.125142 -1.91091 0
M  V30 2173 H 201.397 2.47698 -3.03567 0
M  V30 2174 H 203.094 2.22566 -3.33565 0
M  V30 2175 H 199.684 1.04955 -4.15551 0
M  V30 2176 H 203.868 0.462844 -4.94137 0
M  V30 2177 H 199.124 -0.339796 -6.10455 0
M  V30 2178 H 203.298 -0.92076 -6.90286 0
M  V30 2179 H 200.925 -1.3281 -7.48509 0
M  V30 2180 N 202.5 1.5196 0.417844 0
M  V30 2181 C 203.747 1.65591 1.16559 0
M  V30 2182 C 204.075 0.381565 1.90721 0
M  V30 2183 O 203.33 -0.635156 1.85106 0
M  V30 2184 C 203.629 2.82269 2.19223 0
M  V30 2185 C 203.295 4.20819 1.61933 0
M  V30 2186 C 201.957 4.58506 1.46033 0
M  V30 2187 C 204.309 5.07196 1.20008 0
M  V30 2188 C 201.637 5.80257 0.867113 0
M  V30 2189 C 203.989 6.29544 0.621086 0
M  V30 2190 C 202.653 6.65987 0.449144 0
M  V30 2191 H 201.923 0.605939 0.42652 0
M  V30 2192 H 204.57 1.86041 0.45397 0
M  V30 2193 H 202.875 2.56118 2.96498 0
M  V30 2194 H 204.572 2.90012 2.76936 0
M  V30 2195 H 201.162 3.91116 1.7529 0
M  V30 2196 H 205.346 4.7867 1.31105 0
M  V30 2197 H 200.602 6.07124 0.721833 0
M  V30 2198 H 204.776 6.95805 0.287798 0
M  V30 2199 H 202.403 7.60199 -0.012632 0
M  V30 2200 N 203.978 -0.674533 1.42435 0
M  V30 2201 C 204.91 -1.80005 1.41883 0
M  V30 2202 C 205.923 -1.59667 0.31787 0
M  V30 2203 O 207.112 -1.68781 0.580973 0
M  V30 2204 C 204.212 -3.17114 1.19549 0
M  V30 2205 C 203.385 -3.64299 2.42084 0
M  V30 2206 C 202.444 -4.80142 2.15291 0
M  V30 2207 O 201.47 -4.90673 2.88493 0
M  V30 2208 N 202.672 -5.68869 1.1562 0
M  V30 2209 H 205.437 -1.80964 2.38898 0
M  V30 2210 H 202.998 -0.857633 1.37318 0
M  V30 2211 H 204.99 -3.92267 0.995417 0
M  V30 2212 H 203.56 -3.11053 0.310569 0
M  V30 2213 H 202.78 -2.79822 2.77657 0
M  V30 2214 H 204.068 -3.92567 3.23679 0
M  V30 2215 H 203.466 -5.63012 0.550765 0
M  V30 2216 H 202.023 -6.43833 1.016 0
M  V30 2217 N 205.456 -1.28612 -0.910864 0
M  V30 2218 C 206.366 -1.14643 -2.0468 0
M  V30 2219 C 207.382 -0.0723121 -1.7385 0
M  V30 2220 O 208.558 -0.282178 -1.99413 0
M  V30 2221 C 205.623 -0.812561 -3.37044 0
M  V30 2222 C 204.684 -1.96935 -3.81465 0
M  V30 2223 C 203.917 -1.65131 -5.07511 0
M  V30 2224 O 204.14 -0.567013 -5.67575 0
M  V30 2225 O 203.074 -2.49585 -5.47714 0
M  V30 2226 H 206.9 -2.1001 -2.19384 0
M  V30 2227 H 204.485 -1.07958 -1.03274 0
M  V30 2228 H 206.367 -0.640441 -4.16505 0
M  V30 2229 H 205.042 0.111426 -3.23508 0
M  V30 2230 H 203.949 -2.19664 -3.02818 0
M  V30 2231 H 205.282 -2.87414 -3.99567 0
M  V30 2232 N 206.934 1.1197 -1.10907 0
M  V30 2233 C 208.159 1.87942 -0.877064 0
M  V30 2234 C 208.584 1.79341 0.567314 0
M  V30 2235 O 207.942 1.15184 1.40009 0
M  V30 2236 C 207.99 3.34926 -1.33629 0
M  V30 2237 O 207.094 4.09303 -0.504447 0
M  V30 2238 H 206.435 0.583785 -0.316371 0
M  V30 2239 H 208.965 1.4157 -1.47712 0
M  V30 2240 H 208.975 3.8577 -1.32837 0
M  V30 2241 H 207.65 3.40504 -2.3881 0
M  V30 2242 H 206.227 3.68393 -0.577993 0
M  V30 2243 N 208.412 0.89855 1.29475 0
M  V30 2244 C 209.659 0.523882 1.95606 0
M  V30 2245 C 209.987 -0.929608 1.70847 0
M  V30 2246 O 209.242 -1.67401 1.01367 0
M  V30 2247 C 209.541 0.761398 3.49195 0
M  V30 2248 C 209.207 2.19207 3.94029 0
M  V30 2249 C 207.869 2.58326 4.05982 0
M  V30 2250 C 210.221 3.12379 4.17216 0
M  V30 2251 C 207.549 3.898 4.38489 0
M  V30 2252 C 209.901 4.43401 4.51197 0
M  V30 2253 C 208.565 4.82394 4.61359 0
M  V30 2254 H 207.835 0.191702 0.715773 0
M  V30 2255 H 210.482 1.13699 1.54094 0
M  V30 2256 H 208.787 0.0653622 3.91745 0
M  V30 2257 H 210.484 0.450904 3.98457 0
M  V30 2258 H 207.074 1.87846 3.85242 0
M  V30 2259 H 211.258 2.83371 4.07449 0
M  V30 2260 H 206.514 4.19734 4.44559 0
M  V30 2261 H 210.688 5.15623 4.68087 0
M  V30 2262 H 208.315 5.84306 4.86303 0
M  V30 2263 N 209.89 -1.43072 0.660911 0
M  V30 2264 C 211.306 -1.56169 0.329173 0
M  V30 2265 C 211.506 -1.64317 -1.16629 0
M  V30 2266 O 210.562 -1.60245 -1.95135 0
M  V30 2267 C 211.875 -2.81873 1.04729 0
M  V30 2268 C 213.423 -2.95627 1.02828 0
M  V30 2269 C 213.898 -4.24174 1.72744 0
M  V30 2270 N 215.389 -4.31055 1.69545 0
M  V30 2271 C 216.124 -5.29304 2.20511 0
M  V30 2272 N 215.62 -6.33786 2.79799 0
M  V30 2273 N 217.413 -5.21008 2.10966 0
M  V30 2274 H 209.564 -1.36027 1.63127 0
M  V30 2275 H 211.827 -0.653823 0.686454 0
M  V30 2276 H 211.533 -2.81942 2.10242 0
M  V30 2277 H 211.407 -3.72338 0.603702 0
M  V30 2278 H 213.794 -2.95094 -0.0184742 0
M  V30 2279 H 213.875 -2.06431 1.51063 0
M  V30 2280 H 213.519 -4.25467 2.7738 0
M  V30 2281 H 213.449 -5.1228 1.2197 0
M  V30 2282 H 215.94 -3.56174 1.26288 0
M  V30 2283 H 216.253 -7.05086 3.16344 0
M  V30 2284 H 214.598 -6.34387 2.83863 0
M  V30 2285 H 217.789 -4.38301 1.64347 0
M  V30 2286 H 217.962 -5.97416 2.50993 0
M  V30 2287 N 211.368 -0.403325 -1.52352 0
M  V30 2288 C 212.331 0.413051 -2.25447 0
M  V30 2289 C 213.331 0.978513 -1.276 0
M  V30 2290 O 214.521 0.858305 -1.51587 0
M  V30 2291 C 211.653 1.58087 -3.02029 0
M  V30 2292 H 212.846 -0.227094 -2.99039 0
M  V30 2293 H 210.399 -0.155722 -1.55522 0
M  V30 2294 H 211.134 2.25804 -2.32772 0
M  V30 2295 H 210.919 1.18195 -3.73861 0
M  V30 2296 H 212.409 2.1585 -3.57489 0
M  V30 2297 N 212.846 1.57033 -0.133567 0
M  V30 2298 C 214.257 1.82593 0.389464 0
M  V30 2299 C 214.608 1.05156 1.6564 0
M  V30 2300 O 213.733 0.292644 2.14412 0
M  V30 2301 C 214.328 3.31204 0.713377 0
M  V30 2302 C 212.887 3.57393 1.18098 0
M  V30 2303 C 212.034 2.76598 0.197126 0
M  V30 2304 H 214.985 1.54598 -0.358481 0
M  V30 2305 H 215.006 3.46627 1.56939 0
M  V30 2306 H 214.518 3.87537 -0.2089 0
M  V30 2307 H 212.619 3.06433 2.11966 0
M  V30 2308 H 212.732 4.65915 1.11624 0
M  V30 2309 H 211.096 2.45257 0.687088 0
M  V30 2310 H 211.879 3.35697 -0.718504 0
M  V30 2311 N 214.325 -0.140222 1.56975 0
M  V30 2312 C 215.273 -1.19207 1.99731 0
M  V30 2313 C 216.267 -1.44089 0.890777 0
M  V30 2314 O 217.473 -1.44301 1.07597 0
M  V30 2315 H 213.848 -0.40142 0.635898 0
M  V30 2316 H 215.819 -0.804813 2.87342 0
M  V30 2317 C 214.568 -2.51617 2.39967 0
M  V30 2318 H 213.891 -2.33303 3.24669 0
M  V30 2319 H 215.331 -3.23827 2.73701 0
M  V30 2320 C 213.79 -3.12654 1.25496 0
M  V30 2321 O 214.32 -3.97786 0.559371 0
M  V30 2322 N 212.526 -2.72206 1.01746 0
M  V30 2323 H 212.073 -2.03074 1.58489 0
M  V30 2324 H 212.031 -3.13377 0.253461 0
M  V30 2325 N 215.803 -1.52179 -0.40978 0
M  V30 2326 C 216.753 -1.71857 -1.49831 0
M  V30 2327 C 217.737 -0.572469 -1.50372 0
M  V30 2328 O 218.929 -0.829509 -1.56359 0
M  V30 2329 C 216.058 -1.87206 -2.87765 0
M  V30 2330 C 215.144 -3.07685 -2.91875 0
M  V30 2331 N 215.535 -4.30403 -2.65683 0
M  V30 2332 C 213.833 -3.07505 -3.23043 0
M  V30 2333 C 214.534 -5.11868 -2.76344 0
M  V30 2334 N 213.51 -4.47101 -3.09195 0
M  V30 2335 H 217.312 -2.64381 -1.28375 0
M  V30 2336 H 214.826 -1.50203 -0.617479 0
M  V30 2337 H 216.823 -1.99419 -3.66111 0
M  V30 2338 H 215.483 -0.958814 -3.10221 0
M  V30 2339 H 216.494 -4.58887 -2.4009 0
M  V30 2340 H 213.171 -2.25915 -3.51096 0
M  V30 2341 H 214.561 -6.19634 -2.59814 0
M  V30 2342 N 217.281 0.66697 -1.42791 0
M  V30 2343 C 218.509 1.45505 -1.47091 0
M  V30 2344 C 218.924 1.8861 -0.0845873 0
M  V30 2345 O 218.281 1.58632 0.90234 0
M  V30 2346 C 218.332 2.69906 -2.40485 0
M  V30 2347 O 218.053 2.28608 -3.73725 0
M  V30 2348 C 219.554 3.63396 -2.53886 0
M  V30 2349 H 216.774 0.447459 -0.500022 0
M  V30 2350 H 219.318 0.818866 -1.8739 0
M  V30 2351 H 217.473 3.29696 -2.03419 0
M  V30 2352 H 217.887 3.08997 -4.23817 0
M  V30 2353 H 219.361 4.47387 -3.2334 0
M  V30 2354 H 219.838 4.09824 -1.57927 0
M  V30 2355 H 220.444 3.09495 -2.91706 0
M  V30 2356 N 218.759 1.29093 0.90403 0
M  V30 2357 C 219.706 1.13853 2.00764 0
M  V30 2358 C 220.676 0.0330084 1.66067 0
M  V30 2359 O 221.861 0.199733 1.89752 0
M  V30 2360 C 219.001 0.816537 3.35301 0
M  V30 2361 C 218.114 2.00206 3.82807 0
M  V30 2362 C 217.249 1.61983 5.059 0
M  V30 2363 C 216.288 2.77143 5.45764 0
M  V30 2364 N 215.425 2.39346 6.60044 0
M  V30 2365 H 220.265 2.08276 2.13132 0
M  V30 2366 H 217.802 1.03648 1.04381 0
M  V30 2367 H 219.76 0.610557 4.12708 0
M  V30 2368 H 218.39 -0.090779 3.22672 0
M  V30 2369 H 217.442 2.31988 3.01473 0
M  V30 2370 H 218.754 2.86512 4.08304 0
M  V30 2371 H 217.908 1.37649 5.90879 0
M  V30 2372 H 216.647 0.728202 4.82233 0
M  V30 2373 H 215.652 3.02165 4.59322 0
M  V30 2374 H 216.877 3.66964 5.71414 0
M  V30 2375 H 214.823 1.52665 6.37989 0
M  V30 2376 H 214.74 3.19185 6.85315 0
M  V30 2377 H 216.008 2.1832 7.48303 0
M  V30 2378 N 220.237 -1.11381 1.11499 0
M  V30 2379 C 221.484 -1.83132 0.864231 0
M  V30 2380 C 221.812 -1.84683 -0.610114 0
M  V30 2381 O 221.067 -1.29589 -1.46646 0
M  V30 2382 C 221.366 -3.30026 1.37177 0
M  V30 2383 C 221.032 -3.48634 2.85946 0
M  V30 2384 C 219.694 -3.53421 3.26569 0
M  V30 2385 C 222.046 -3.54837 3.81759 0
M  V30 2386 C 219.374 -3.61967 4.61733 0
M  V30 2387 C 221.726 -3.64915 5.1674 0
M  V30 2388 C 220.39 -3.67962 5.5692 0
M  V30 2389 H 219.66 -0.670127 0.316245 0
M  V30 2390 H 222.307 -1.31354 1.3935 0
M  V30 2391 H 220.612 -3.84304 0.762753 0
M  V30 2392 H 222.309 -3.84034 1.15408 0
M  V30 2393 H 218.899 -3.45579 2.53521 0
M  V30 2394 H 223.083 -3.50399 3.51474 0
M  V30 2395 H 218.339 -3.62603 4.92269 0
M  V30 2396 H 222.513 -3.68658 5.90816 0
M  V30 2397 H 220.14 -3.74336 6.61647 0
M  V30 2398 N 221.715 -0.905404 -1.28997 0
M  V30 2399 C 222.94 -0.549175 -1.99997 0
M  V30 2400 C 223.365 0.860276 -1.67275 0
M  V30 2401 O 222.723 1.57355 -0.900502 0
M  V30 2402 C 222.771 -0.755185 -3.52604 0
M  V30 2403 O 221.875 0.189692 -4.11964 0
M  V30 2404 H 221.216 -0.213899 -0.628604 0
M  V30 2405 H 223.746 -1.21856 -1.64354 0
M  V30 2406 H 223.756 -0.662045 -4.02593 0
M  V30 2407 H 222.431 -1.78271 -3.75755 0
M  V30 2408 H 221.008 0.0485257 -3.72868 0
M  V30 2409 N 223.193 1.4272 -0.668489 0
M  V30 2410 C 224.433 2.03497 -0.19194 0
M  V30 2411 C 224.797 1.51684 1.17712 0
M  V30 2412 O 225.998 2.04205 1.74796 0
M  V30 2413 C 224.269 3.56734 -0.218032 0
M  V30 2414 S 225.828 4.38395 0.188438 0
M  V30 2415 H 222.646 0.706542 -0.0794959 0
M  V30 2416 H 225.248 1.74563 -0.880235 0
M  V30 2417 H 223.952 3.91943 -1.2169 0
M  V30 2418 H 223.483 3.90333 0.490303 0
M  V30 2419 H 225.498 4.75345 1.42345 0
M  V30 2420 N 224.671 0.411399 1.52136 0
M  V30 2421 C 225.618 -0.412975 2.27075 0
M  V30 2422 C 226.588 -1.03912 1.29582 0
M  V30 2423 O 227.773 -1.06296 1.58448 0
M  V30 2424 C 224.913 -1.52247 3.09701 0
M  V30 2425 C 224.026 -0.917021 4.22155 0
M  V30 2426 C 223.161 -1.9994 4.92135 0
M  V30 2427 C 222.2 -1.37101 5.96548 0
M  V30 2428 N 221.337 -2.39364 6.60038 0
M  V30 2429 H 226.177 0.232499 2.97092 0
M  V30 2430 H 223.714 0.126496 1.46555 0
M  V30 2431 H 225.672 -2.17674 3.55913 0
M  V30 2432 H 224.302 -2.13794 2.41851 0
M  V30 2433 H 223.354 -0.151742 3.80097 0
M  V30 2434 H 224.666 -0.418006 4.97045 0
M  V30 2435 H 223.82 -2.73088 5.41763 0
M  V30 2436 H 222.559 -2.53208 4.16818 0
M  V30 2437 H 221.564 -0.624873 5.46237 0
M  V30 2438 H 222.789 -0.845998 6.7381 0
M  V30 2439 H 220.735 -2.91759 5.87548 0
M  V30 2440 H 220.652 -1.9428 7.3061 0
M  V30 2441 H 221.92 -3.12074 7.14304 0
M  V30 2442 N 226.149 -1.5696 0.141893 0
M  V30 2443 C 227.396 -1.9596 -0.510492 0
M  V30 2444 C 227.724 -1.02648 -1.65208 0
M  V30 2445 O 226.979 -0.0546947 -1.95624 0
M  V30 2446 C 227.278 -3.41242 -1.06249 0
M  V30 2447 C 226.944 -4.50882 -0.0398791 0
M  V30 2448 C 225.606 -4.80595 0.241247 0
M  V30 2449 C 227.958 -5.17058 0.65578 0
M  V30 2450 C 225.286 -5.73792 1.22393 0
M  V30 2451 C 227.638 -6.11313 1.62724 0
M  V30 2452 C 226.302 -6.39407 1.91612 0
M  V30 2453 H 225.572 -0.717068 -0.186802 0
M  V30 2454 H 228.219 -1.90142 0.227643 0
M  V30 2455 H 226.524 -3.43866 -1.87785 0
M  V30 2456 H 228.221 -3.68742 -1.57576 0
M  V30 2457 H 224.811 -4.27754 -0.269174 0
M  V30 2458 H 228.995 -4.94239 0.451779 0
M  V30 2459 H 224.251 -5.93853 1.45424 0
M  V30 2460 H 228.425 -6.61668 2.17183 0
M  V30 2461 H 226.052 -7.11427 2.6791 0
M  V30 2462 N 227.627 0.131896 -1.57047 0
M  V30 2463 C 228.855 0.856461 -1.88341 0
M  V30 2464 C 229.27 1.74042 -0.731757 0
M  V30 2465 O 228.627 1.80051 0.297945 0
M  V30 2466 C 228.678 1.70064 -3.18999 0
M  V30 2467 O 228.399 0.852278 -4.2973 0
M  V30 2468 C 229.9 2.53148 -3.63911 0
M  V30 2469 H 227.12 0.246885 -0.62393 0
M  V30 2470 H 229.664 0.120152 -2.04147 0
M  V30 2471 H 227.819 2.38984 -3.04902 0
M  V30 2472 H 228.233 1.43329 -5.04537 0
M  V30 2473 H 229.707 3.07931 -4.58129 0
M  V30 2474 H 230.184 3.29901 -2.89935 0
M  V30 2475 H 230.79 1.89492 -3.80753 0
M  V30 2476 N 229.106 1.52395 0.401703 0
M  V30 2477 C 230.069 1.75636 1.47257 0
M  V30 2478 C 231.069 0.62628 1.48103 0
M  V30 2479 O 232.259 0.894227 1.49497 0
M  V30 2480 C 229.391 1.84553 2.86624 0
M  V30 2481 H 230.584 2.71241 1.27938 0
M  V30 2482 H 228.137 1.42923 0.632662 0
M  V30 2483 H 228.872 0.908882 3.11303 0
M  V30 2484 H 228.657 2.66715 2.87412 0
M  V30 2485 H 230.147 2.04251 3.64241 0
M  V30 2486 N 230.584 -0.659388 1.43143 0
M  V30 2487 C 231.861 -1.41627 1.34912 0
M  V30 2488 C 232.241 -2.11099 -0.00607785 0
M  V30 2489 O 231.589 -2.04353 -1.02236 0
M  V30 2490 C 231.799 -2.40604 2.52805 0
M  V30 2491 C 233.147 -3.04789 2.95616 0
M  V30 2492 O 234.171 -2.50932 2.52807 0
M  V30 2493 O 233.03 -4.02421 3.69756 0
M  V30 2494 H 230.124 -0.63246 0.532844 0
M  V30 2495 H 232.67 -0.686814 1.5518 0
M  V30 2496 H 231.442 -1.88174 3.43083 0
M  V30 2497 H 231.065 -3.21009 2.34604 0
M  V30 2498 N 232.062 -1.29571 -0.897171 0
M  V30 2499 C 232.995 -1.0924 -2.00354 0
M  V30 2500 C 233.973 -0.00354011 -1.626 0
M  V30 2501 O 235.157 -0.15473 -1.87864 0
M  V30 2502 C 232.284 -0.66352 -3.32137 0
M  V30 2503 C 231.33 -1.75146 -3.88878 0
M  V30 2504 S 232.163 -3.35124 -4.17674 0
M  V30 2505 C 233.319 -2.9411 -5.52494 0
M  V30 2506 H 233.552 -2.02907 -2.17292 0
M  V30 2507 H 231.085 -1.13746 -1.04408 0
M  V30 2508 H 233.043 -0.422791 -4.08317 0
M  V30 2509 H 231.704 0.253588 -3.13075 0
M  V30 2510 H 230.897 -1.40337 -4.84068 0
M  V30 2511 H 230.499 -1.94584 -3.19395 0
M  V30 2512 H 232.791 -2.41312 -6.33068 0
M  V30 2513 H 233.734 -3.88161 -5.9223 0
M  V30 2514 H 234.142 -2.32332 -5.14473 0
M  V30 2515 N 233.54 1.10788 -1.12088 0
M  V30 2516 C 234.47 2.19083 -0.807755 0
M  V30 2517 C 235.451 1.6858 0.226859 0
M  V30 2518 O 236.636 1.93997 0.0888475 0
M  V30 2519 C 233.766 3.46344 -0.257576 0
M  V30 2520 C 232.72 4.101 -1.22483 0
M  V30 2521 C 232.046 5.32016 -0.535052 0
M  V30 2522 C 233.346 4.54236 -2.57811 0
M  V30 2523 H 235.04 2.45534 -1.71328 0
M  V30 2524 H 232.586 1.1801 -0.825205 0
M  V30 2525 H 234.539 4.21392 -0.0262679 0
M  V30 2526 H 233.263 3.19373 0.683278 0
M  V30 2527 H 231.922 3.37054 -1.44189 0
M  V30 2528 H 231.57 5.01319 0.410827 0
M  V30 2529 H 231.27 5.75625 -1.18024 0
M  V30 2530 H 232.794 6.09799 -0.312695 0
M  V30 2531 H 234.208 5.20575 -2.40155 0
M  V30 2532 H 232.605 5.08682 -3.18375 0
M  V30 2533 H 233.675 3.6734 -3.16528 0
M  V30 2534 N 235.018 0.912232 1.28515 0
M  V30 2535 C 235.95 0.35676 2.26406 0
M  V30 2536 C 236.963 -0.503933 1.54804 0
M  V30 2537 O 238.152 -0.319059 1.75625 0
M  V30 2538 C 235.252 -0.508825 3.35058 0
M  V30 2539 C 234.425 0.329007 4.36161 0
M  V30 2540 C 233.484 -0.471422 5.24084 0
M  V30 2541 O 232.51 0.115482 5.69083 0
M  V30 2542 N 233.712 -1.77479 5.52704 0
M  V30 2543 H 236.477 1.19818 2.74707 0
M  V30 2544 H 234.038 0.778022 1.4198 0
M  V30 2545 H 236.03 -1.051 3.90815 0
M  V30 2546 H 234.6 -1.25095 2.86478 0
M  V30 2547 H 233.82 1.05256 3.79888 0
M  V30 2548 H 235.108 0.90234 5.00735 0
M  V30 2549 H 234.506 -2.27417 5.17975 0
M  V30 2550 H 233.063 -2.26382 6.11224 0
M  V30 2551 N 236.496 -1.42363 0.676048 0
M  V30 2552 C 237.444 -2.32596 -0.0131507 0
M  V30 2553 C 238.438 -1.49891 -0.789238 0
M  V30 2554 O 239.644 -1.65955 -0.697061 0
M  V30 2555 H 236.019 -0.751647 -0.0230481 0
M  V30 2556 H 237.99 -2.88421 0.765243 0
M  V30 2557 C 236.739 -3.34479 -0.949702 0
M  V30 2558 H 236.062 -3.98158 -0.361938 0
M  V30 2559 H 237.502 -4.00199 -1.4006 0
M  V30 2560 C 235.961 -2.66838 -2.05667 0
M  V30 2561 O 236.491 -2.50124 -3.14326 0
M  V30 2562 N 234.697 -2.25843 -1.82875 0
M  V30 2563 H 234.244 -2.39637 -0.945085 0
M  V30 2564 H 234.202 -1.80918 -2.5713 0
M  V30 2565 N 237.974 -0.419461 -1.51915 0
M  V30 2566 C 239.214 0.152336 -2.03832 0
M  V30 2567 C 239.578 1.41501 -1.29775 0
M  V30 2568 O 240.779 2.06591 -1.7197 0
M  V30 2569 C 239.05 0.383812 -3.55333 0
M  V30 2570 S 240.609 0.921577 -4.29013 0
M  V30 2571 H 237.427 0.0402193 -0.709862 0
M  V30 2572 H 240.029 -0.574758 -1.8686 0
M  V30 2573 H 238.733 -0.541794 -4.06808 0
M  V30 2574 H 238.264 1.13849 -3.76566 0
M  V30 2575 H 240.279 2.20108 -4.4471 0
M  V30 2576 N 239.452 1.56882 -0.150215 0
M  V30 2577 C 240.677 2.01027 0.510184 0
M  V30 2578 C 241.102 1.02966 1.57415 0
M  V30 2579 O 240.46 0.00590158 1.81299 0
M  V30 2580 C 240.508 3.43899 1.08472 0
M  V30 2581 O 239.612 3.4885 2.19948 0
M  V30 2582 H 238.953 0.652233 0.124451 0
M  V30 2583 H 241.483 2.03093 -0.247894 0
M  V30 2584 H 241.493 3.82766 1.41259 0
M  V30 2585 H 240.168 4.14776 0.305582 0
M  V30 2586 H 238.745 3.21827 1.88366 0
M  V30 2587 N 240.93 -0.123565 1.57115 0
M  V30 2588 C 242.178 -0.83051 1.84247 0
M  V30 2589 C 242.499 -1.80629 0.73471 0
M  V30 2590 O 241.769 -1.94403 -0.241688 0
M  V30 2591 H 240.349 -0.309694 0.679778 0
M  V30 2592 H 243.011 -0.111976 1.94578 0
M  V30 2593 H 242.107 -1.37852 2.80006 0
M  V30 2594 N 242.408 -1.52605 -0.393616 0
M  V30 2595 C 243.338 -1.80022 -1.48709 0
M  V30 2596 C 244.319 -0.651995 -1.57108 0
M  V30 2597 O 245.504 -0.89913 -1.72132 0
M  V30 2598 C 242.634 -1.96492 -2.86371 0
M  V30 2599 C 241.588 -3.12161 -2.92813 0
M  V30 2600 C 240.914 -3.13877 -4.3288 0
M  V30 2601 C 242.214 -4.51322 -2.6288 0
M  V30 2602 H 243.908 -2.71589 -1.26015 0
M  V30 2603 H 241.454 -1.30684 -0.604778 0
M  V30 2604 H 243.407 -2.14255 -3.62867 0
M  V30 2605 H 242.131 -1.01611 -3.10391 0
M  V30 2606 H 240.79 -2.94173 -2.18764 0
M  V30 2607 H 240.438 -2.16687 -4.53933 0
M  V30 2608 H 240.138 -3.91576 -4.38112 0
M  V30 2609 H 241.662 -3.33789 -5.1129 0
M  V30 2610 H 243.076 -4.69435 -3.29096 0
M  V30 2611 H 241.473 -5.31053 -2.79468 0
M  V30 2612 H 242.543 -4.58353 -1.58242 0
M  V30 2613 N 243.887 0.651787 -1.4349 0
M  V30 2614 C 244.85 1.74647 -1.48429 0
M  V30 2615 C 245.85 1.56513 -0.368817 0
M  V30 2616 O 247.04 1.62385 -0.630623 0
M  V30 2617 C 244.172 3.13533 -1.33827 0
M  V30 2618 H 245.365 1.71649 -2.4592 0
M  V30 2619 H 242.918 0.863573 -1.30277 0
M  V30 2620 H 243.653 3.22142 -0.37349 0
M  V30 2621 H 243.438 3.28101 -2.14691 0
M  V30 2622 H 244.928 3.93356 -1.40218 0
M  V30 2623 N 245.365 1.30045 0.890287 0
M  V30 2624 C 246.642 1.09227 1.62262 0
M  V30 2625 C 247.022 -0.360305 2.08002 0
M  V30 2626 O 246.37 -1.35084 1.84295 0
M  V30 2627 C 246.58 2.08835 2.79623 0
M  V30 2628 C 247.928 2.40266 3.50082 0
M  V30 2629 O 248.952 2.07104 2.89804 0
M  V30 2630 O 247.811 2.96967 4.58773 0
M  V30 2631 H 244.905 0.419132 0.712922 0
M  V30 2632 H 247.451 1.41451 0.937529 0
M  V30 2633 H 246.223 3.06633 2.43089 0
M  V30 2634 H 245.846 1.77397 3.55832 0
M  V30 2635 N 246.843 -1.10192 1.12674 0
M  V30 2636 C 248.254 -1.63707 0.897604 0
M  V30 2637 C 248.605 -1.87812 -0.567546 0
M  V30 2638 O 247.73 -1.62196 -1.43253 0
M  V30 2639 C 248.325 -2.974 1.62292 0
M  V30 2640 C 246.884 -3.47772 1.43986 0
M  V30 2641 C 246.031 -2.22332 1.65722 0
M  V30 2642 H 248.982 -0.936587 1.28116 0
M  V30 2643 H 249.003 -3.64986 1.07541 0
M  V30 2644 H 248.515 -2.79824 2.68924 0
M  V30 2645 H 246.616 -3.70487 0.396206 0
M  V30 2646 H 246.729 -4.25723 2.19765 0
M  V30 2647 H 245.093 -2.30599 1.08149 0
M  V30 2648 H 245.876 -2.07285 2.73657 0
M  V30 2649 N 248.321 -0.919034 -1.28029 0
M  V30 2650 C 249.269 -0.401753 -2.29104 0
M  V30 2651 C 250.263 0.509354 -1.61561 0
M  V30 2652 O 251.469 0.390014 -1.75724 0
M  V30 2653 H 247.844 -0.111331 -0.743713 0
M  V30 2654 H 249.815 -1.2672 -2.70156 0
M  V30 2655 C 248.564 0.338148 -3.46052 0
M  V30 2656 H 247.887 -0.353732 -3.98232 0
M  V30 2657 H 249.327 0.664653 -4.18758 0
M  V30 2658 C 247.786 1.54798 -2.99231 0
M  V30 2659 O 248.316 2.64696 -3.02157 0
M  V30 2660 N 246.522 1.3968 -2.54829 0
M  V30 2661 H 246.069 0.502698 -2.52647 0
M  V30 2662 H 246.027 2.20755 -2.23863 0
M  V30 2663 N 249.799 1.42003 -0.683588 0
M  V30 2664 C 251.046 2.01413 -0.209514 0
M  V30 2665 C 251.374 1.54088 1.1869 0
M  V30 2666 O 250.629 0.737591 1.81268 0
M  V30 2667 C 250.928 3.56827 -0.202357 0
M  V30 2668 C 250.594 4.23617 -1.54464 0
M  V30 2669 C 249.256 4.41577 -1.91215 0
M  V30 2670 C 251.608 4.61178 -2.42826 0
M  V30 2671 C 248.936 4.9437 -3.15935 0
M  V30 2672 C 251.288 5.15355 -3.66867 0
M  V30 2673 C 249.952 5.31528 -4.03776 0
M  V30 2674 H 249.222 0.737023 -0.0766668 0
M  V30 2675 H 251.869 1.70067 -0.880312 0
M  V30 2676 H 250.174 3.87892 0.551969 0
M  V30 2677 H 251.871 4.00588 0.181793 0
M  V30 2678 H 248.461 4.10004 -1.24877 0
M  V30 2679 H 252.645 4.46968 -2.15717 0
M  V30 2680 H 247.901 5.05076 -3.44541 0
M  V30 2681 H 252.075 5.43402 -4.35531 0
M  V30 2682 H 249.702 5.72199 -5.00492 0
M  V30 2683 N 251.277 0.427512 1.51691 0
M  V30 2684 C 252.525 -0.141948 2.01601 0
M  V30 2685 C 252.846 -1.44067 1.31414 0
M  V30 2686 O 252.116 -1.90763 0.445658 0
M  V30 2687 H 250.696 -0.0554468 0.744939 0
M  V30 2688 H 253.358 0.567968 1.86441 0
M  V30 2689 H 252.454 -0.324913 3.10404 0
M  V30 2690 N 252.755 -1.56801 0.158532 0
M  V30 2691 C 254.002 -1.9649 -0.489679 0
M  V30 2692 C 254.33 -1.04394 -1.6411 0
M  V30 2693 O 253.585 -0.0754401 -1.95555 0
M  V30 2694 C 253.884 -3.4235 -1.02623 0
M  V30 2695 C 253.55 -4.50899 0.00794526 0
M  V30 2696 C 252.212 -4.80312 0.292207 0
M  V30 2697 C 254.564 -5.16333 0.710584 0
M  V30 2698 C 251.892 -5.72461 1.28472 0
M  V30 2699 C 254.244 -6.09553 1.69199 0
M  V30 2700 C 252.908 -6.37339 1.98383 0
M  V30 2701 H 252.178 -0.719009 -0.179186 0
M  V30 2702 H 254.825 -1.8989 0.247798 0
M  V30 2703 H 253.13 -3.45838 -1.84128 0
M  V30 2704 H 254.827 -3.70393 -1.53656 0
M  V30 2705 H 251.417 -4.28015 -0.22379 0
M  V30 2706 H 255.601 -4.93732 0.504174 0
M  V30 2707 H 250.857 -5.92278 1.51714 0
M  V30 2708 H 255.031 -6.59327 2.24189 0
M  V30 2709 H 252.658 -7.08546 2.7544 0
M  V30 2710 N 254.233 0.115231 -1.57178 0
M  V30 2711 C 255.143 1.15994 -2.03918 0
M  V30 2712 C 256.159 1.45103 -0.960268 0
M  V30 2713 O 257.335 1.56144 -1.27204 0
M  V30 2714 C 254.4 2.46568 -2.43732 0
M  V30 2715 C 253.461 2.24822 -3.65723 0
M  V30 2716 C 252.694 3.4917 -4.03629 0
M  V30 2717 O 252.917 4.56623 -3.41835 0
M  V30 2718 O 251.851 3.39949 -4.96708 0
M  V30 2719 H 255.677 0.793019 -2.93164 0
M  V30 2720 H 253.262 0.3263 -1.45793 0
M  V30 2721 H 255.144 3.23492 -2.70057 0
M  V30 2722 H 253.819 2.82726 -1.57631 0
M  V30 2723 H 252.726 1.45744 -3.44542 0
M  V30 2724 H 254.059 1.93566 -4.52541 0
M  V30 2725 N 255.711 1.52812 0.385517 0
M  V30 2726 C 256.621 1.80766 1.49535 0
M  V30 2727 C 257.637 0.694651 1.59532 0
M  V30 2728 O 258.813 0.982611 1.75803 0
M  V30 2729 C 255.878 1.97381 2.85029 0
M  V30 2730 C 254.939 3.21295 2.84724 0
M  V30 2731 C 254.172 3.37108 4.13756 0
M  V30 2732 O 254.395 2.5765 5.08893 0
M  V30 2733 O 253.329 4.30378 4.20783 0
M  V30 2734 H 257.155 2.75015 1.28842 0
M  V30 2735 H 254.74 1.37946 0.573697 0
M  V30 2736 H 256.622 2.09996 3.65349 0
M  V30 2737 H 255.297 1.06322 3.05741 0
M  V30 2738 H 254.204 3.1412 2.03174 0
M  V30 2739 H 255.537 4.12212 2.68965 0
M  V30 2740 N 257.189 -0.644168 1.43834 0
M  V30 2741 C 258.437 -1.40117 1.45642 0
M  V30 2742 C 258.758 -1.94814 0.0852413 0
M  V30 2743 O 258.028 -1.74988 -0.880688 0
M  V30 2744 H 256.608 -0.52005 0.536243 0
M  V30 2745 H 259.27 -0.7591 1.7951 0
M  V30 2746 H 258.366 -2.23902 2.17427 0
M  V30 2747 N 258.668 -1.30515 -0.883378 0
M  V30 2748 C 259.615 -1.17032 -1.98927 0
M  V30 2749 C 260.585 -0.0594241 -1.65994 0
M  V30 2750 O 261.77 -0.229895 -1.8941 0
M  V30 2751 C 258.91 -0.869777 -3.33959 0
M  V30 2752 C 258.023 -2.06271 -3.79574 0
M  V30 2753 C 257.158 -1.70011 -5.03259 0
M  V30 2754 C 256.197 -2.8579 -5.41286 0
M  V30 2755 N 255.334 -2.49816 -6.56153 0
M  V30 2756 H 260.174 -2.1164 -2.09792 0
M  V30 2757 H 257.711 -1.05296 -1.02719 0
M  V30 2758 H 259.669 -0.676138 -4.11685 0
M  V30 2759 H 258.299 0.0394332 -3.22776 0
M  V30 2760 H 257.351 -2.36755 -2.97744 0
M  V30 2761 H 258.663 -2.92971 -4.03694 0
M  V30 2762 H 257.817 -1.47032 -5.88614 0
M  V30 2763 H 256.556 -0.804829 -4.81013 0
M  V30 2764 H 255.561 -3.09434 -4.54456 0
M  V30 2765 H 256.786 -3.76008 -5.65504 0
M  V30 2766 H 254.732 -1.62795 -6.35479 0
M  V30 2767 H 254.649 -3.30048 -6.8015 0
M  V30 2768 H 255.917 -2.30197 -7.44735 0
M  V30 2769 N 260.146 1.09593 -1.13257 0
M  V30 2770 C 261.557 1.63229 -0.906274 0
M  V30 2771 C 261.908 1.8811 0.557578 0
M  V30 2772 O 261.033 1.62953 1.42391 0
M  V30 2773 C 261.628 2.96535 -1.63867 0
M  V30 2774 C 260.187 3.47003 -1.45828 0
M  V30 2775 C 259.334 2.2145 -1.66898 0
M  V30 2776 H 262.285 0.92978 -1.28611 0
M  V30 2777 H 262.306 3.64411 -1.09476 0
M  V30 2778 H 261.818 2.78394 -2.70404 0
M  V30 2779 H 259.919 3.70272 -0.415848 0
M  V30 2780 H 260.032 4.24551 -2.2202 0
M  V30 2781 H 258.396 2.30022 -1.09371 0
M  V30 2782 H 259.179 2.0583 -2.74752 0
M  V30 2783 N 261.624 0.925811 1.2754 0
M  V30 2784 C 262.864 0.572521 1.96218 0
M  V30 2785 C 263.228 -0.869719 1.71172 0
M  V30 2786 O 264.429 -1.33119 2.33523 0
M  V30 2787 C 262.7 0.887325 3.4621 0
M  V30 2788 S 264.259 0.642266 4.34074 0
M  V30 2789 H 261.077 0.211403 0.678845 0
M  V30 2790 H 263.679 1.19384 1.54815 0
M  V30 2791 H 262.383 1.93469 3.61936 0
M  V30 2792 H 261.914 0.255123 3.92572 0
M  V30 2793 H 263.929 -0.500822 4.93666 0
M  V30 2794 N 263.102 -1.41638 0.69111 0
M  V30 2795 C 264.349 -2.01299 0.220193 0
M  V30 2796 C 264.677 -1.54715 -1.17871 0
M  V30 2797 O 263.932 -0.747193 -1.80874 0
M  V30 2798 C 264.231 -3.56714 0.221277 0
M  V30 2799 C 263.897 -4.22792 1.56709 0
M  V30 2800 C 262.559 -4.40557 1.93554 0
M  V30 2801 C 264.911 -4.59883 2.45268 0
M  V30 2802 C 262.239 -4.92688 3.18552 0
M  V30 2803 C 264.591 -5.13403 3.69595 0
M  V30 2804 C 263.255 -5.29379 4.06589 0
M  V30 2805 H 262.525 -0.736606 0.0805743 0
M  V30 2806 H 265.172 -1.69598 0.889319 0
M  V30 2807 H 263.477 -3.8818 -0.531391 0
M  V30 2808 H 265.174 -4.00678 -0.160547 0
M  V30 2809 H 261.764 -4.09336 1.2705 0
M  V30 2810 H 265.948 -4.45817 2.18084 0
M  V30 2811 H 261.204 -5.03242 3.47214 0
M  V30 2812 H 265.378 -5.41084 4.38407 0
M  V30 2813 H 263.005 -5.69537 5.03519 0
M  V30 2814 N 264.58 -0.43555 -1.51462 0
M  V30 2815 C 265.829 0.133007 -2.01261 0
M  V30 2816 C 266.142 1.43942 -1.32439 0
M  V30 2817 O 267.348 2.09081 -1.73198 0
M  V30 2818 C 265.804 0.287581 -3.58749 0
M  V30 2819 C 265.412 -1.00829 -4.36506 0
M  V30 2820 C 267.156 0.810004 -4.167 0
M  V30 2821 C 265.063 -0.819454 -5.85695 0
M  V30 2822 H 263.993 0.0534822 -0.752101 0
M  V30 2823 H 266.644 -0.565038 -1.74584 0
M  V30 2824 H 265.026 1.04859 -3.81865 0
M  V30 2825 H 266.2 -1.77749 -4.25138 0
M  V30 2826 H 264.515 -1.45911 -3.89999 0
M  V30 2827 H 267.112 0.967743 -5.2587 0
M  V30 2828 H 267.455 1.79196 -3.75758 0
M  V30 2829 H 267.988 0.107357 -3.97655 0
M  V30 2830 H 264.727 -1.77374 -6.31046 0
M  V30 2831 H 264.247 -0.0900208 -5.99732 0
M  V30 2832 H 265.926 -0.471949 -6.45276 0
M  V30 2833 N 266.058 1.56714 -0.166846 0
M  V30 2834 C 267.307 1.95922 0.479318 0
M  V30 2835 C 267.62 1.05529 1.6469 0
M  V30 2836 O 268.826 1.34399 2.35901 0
M  V30 2837 C 267.282 3.48359 0.90412 0
M  V30 2838 C 266.89 4.47369 -0.237621 0
M  V30 2839 C 268.634 3.96394 1.51896 0
M  V30 2840 C 266.541 5.91039 0.206561 0
M  V30 2841 H 265.471 0.731495 0.18284 0
M  V30 2842 H 268.122 1.81728 -0.254363 0
M  V30 2843 H 266.504 3.57955 1.69365 0
M  V30 2844 H 267.678 4.49485 -1.01489 0
M  V30 2845 H 265.993 4.09366 -0.762128 0
M  V30 2846 H 268.59 5.01186 1.86325 0
M  V30 2847 H 268.933 3.39075 2.41524 0
M  V30 2848 H 269.466 3.89796 0.79395 0
M  V30 2849 H 266.205 6.52221 -0.654834 0
M  V30 2850 H 265.725 5.9224 0.949282 0
M  V30 2851 H 267.404 6.43707 0.651939 0
M  V30 2852 N 267.536 -0.106894 1.57237 0
M  V30 2853 C 268.483 -1.13049 2.01217 0
M  V30 2854 C 269.453 -1.40471 0.886403 0
M  V30 2855 O 270.638 -1.52133 1.15153 0
M  V30 2856 C 267.778 -2.4487 2.43172 0
M  V30 2857 C 266.891 -2.24281 3.69218 0
M  V30 2858 C 266.026 -3.49417 4.00101 0
M  V30 2859 C 265.065 -3.24038 5.19294 0
M  V30 2860 N 264.202 -4.41409 5.45988 0
M  V30 2861 H 269.042 -0.748456 2.88448 0
M  V30 2862 H 266.579 -0.358054 1.42676 0
M  V30 2863 H 268.537 -3.21786 2.65537 0
M  V30 2864 H 267.167 -2.80944 1.58967 0
M  V30 2865 H 266.219 -1.38224 3.54398 0
M  V30 2866 H 267.531 -2.01512 4.56283 0
M  V30 2867 H 266.685 -4.34746 4.2318 0
M  V30 2868 H 265.424 -3.75229 3.11535 0
M  V30 2869 H 264.429 -2.37102 4.96047 0
M  V30 2870 H 265.654 -2.99584 6.09447 0
M  V30 2871 H 263.6 -4.67319 4.60379 0
M  V30 2872 H 263.517 -4.21788 6.274 0
M  V30 2873 H 264.785 -5.27836 5.73593 0
M  V30 2874 N 269.014 -1.53014 -0.377408 0
M  V30 2875 C 269.947 -1.73382 -1.48371 0
M  V30 2876 C 270.925 -0.581879 -1.51832 0
M  V30 2877 O 272.109 -0.81307 -1.70063 0
M  V30 2878 C 269.236 -1.80192 -2.8679 0
M  V30 2879 C 268.282 -3.02056 -3.01105 0
M  V30 2880 S 269.115 -4.61811 -2.71093 0
M  V30 2881 C 270.271 -4.71453 -4.11683 0
M  V30 2882 H 270.504 -2.66946 -1.30872 0
M  V30 2883 H 268.037 -1.43453 -0.571012 0
M  V30 2884 H 269.995 -1.84802 -3.6655 0
M  V30 2885 H 268.656 -0.877008 -3.01608 0
M  V30 2886 H 267.849 -3.03396 -4.02451 0
M  V30 2887 H 267.451 -2.95498 -2.29253 0
M  V30 2888 H 269.743 -4.50781 -5.0577 0
M  V30 2889 H 270.686 -5.73487 -4.15353 0
M  V30 2890 H 271.094 -4.00189 -3.98132 0
M  V30 2891 N 270.492 0.636531 -1.44174 0
M  V30 2892 C 271.44 1.76995 -1.50915 0
M  V30 2893 C 272.434 1.65053 -0.381295 0
M  V30 2894 O 273.64 1.71197 -0.55601 0
M  V30 2895 H 270.015 0.584247 -0.473455 0
M  V30 2896 H 271.986 1.68432 -2.4632 0
M  V30 2897 C 270.735 3.15314 -1.46534 0
M  V30 2898 H 270.058 3.25149 -2.32633 0
M  V30 2899 H 271.498 3.9453 -1.55312 0
M  V30 2900 C 269.957 3.3639 -0.185305 0
M  V30 2901 O 270.487 3.94699 0.746688 0
M  V30 2902 N 268.693 2.9046 -0.0901606 0
M  V30 2903 H 268.24 2.43193 -0.849416 0
M  V30 2904 H 268.198 3.04937 0.765553 0
M  V30 2905 N 271.97 1.30982 0.876444 0
M  V30 2906 C 273.386 1.09498 1.16113 0
M  V30 2907 C 273.586 -0.13875 2.01022 0
M  V30 2908 O 272.642 -0.829935 2.38471 0
M  V30 2909 C 273.955 2.36308 1.85954 0
M  V30 2910 C 275.503 2.41856 1.98683 0
M  V30 2911 C 275.978 3.6853 2.71937 0
M  V30 2912 N 277.469 3.69387 2.79477 0
M  V30 2913 C 278.204 4.64096 3.36753 0
M  V30 2914 N 277.7 5.69155 3.95012 0
M  V30 2915 N 279.493 4.51626 3.3465 0
M  V30 2916 H 271.644 2.10118 0.310494 0
M  V30 2917 H 273.907 0.926634 0.200131 0
M  V30 2918 H 273.613 3.26388 1.31011 0
M  V30 2919 H 273.487 2.4561 2.86278 0
M  V30 2920 H 275.874 1.52249 2.52793 0
M  V30 2921 H 275.955 2.36523 0.9742 0
M  V30 2922 H 275.599 4.58499 2.18496 0
M  V30 2923 H 275.529 3.71127 3.73593 0
M  V30 2924 H 278.02 2.93438 2.38123 0
M  V30 2925 H 278.333 6.3751 4.36808 0
M  V30 2926 H 276.678 5.72937 3.93406 0
M  V30 2927 H 279.869 3.68728 2.8837 0
M  V30 2928 H 280.042 5.25614 3.7899 0
M  V30 2929 N 273.449 -1.08991 1.13837 0
M  V30 2930 C 274.698 -1.80631 0.897509 0
M  V30 2931 C 275.011 -1.86872 -0.57777 0
M  V30 2932 O 276.217 -2.54866 -0.935701 0
M  V30 2933 C 274.673 -3.24517 1.55618 0
M  V30 2934 C 274.281 -3.26529 3.0673 0
M  V30 2935 C 276.025 -4.00882 1.3962 0
M  V30 2936 C 273.932 -4.64965 3.65461 0
M  V30 2937 H 272.862 -0.67691 0.332129 0
M  V30 2938 H 275.513 -1.2246 1.3666 0
M  V30 2939 H 273.895 -3.82778 1.01476 0
M  V30 2940 H 275.069 -2.78008 3.67489 0
M  V30 2941 H 273.384 -2.63656 3.22296 0
M  V30 2942 H 275.981 -5.03167 1.80906 0
M  V30 2943 H 276.324 -4.14896 0.341578 0
M  V30 2944 H 276.857 -3.49075 1.90766 0
M  V30 2945 H 273.596 -4.56153 4.70749 0
M  V30 2946 H 273.116 -5.13792 3.09481 0
M  V30 2947 H 274.795 -5.3394 3.654 0
M  V30 2948 N 274.927 -0.932562 -1.27047 0
M  V30 2949 C 276.173 -0.576412 -1.94436 0
M  V30 2950 C 276.506 0.880891 -1.73072 0
M  V30 2951 O 275.781 1.62905 -1.06264 0
M  V30 2952 C 276.064 -0.909031 -3.48437 0
M  V30 2953 C 275.917 -2.42044 -3.79123 0
M  V30 2954 C 277.236 -0.418341 -4.38107 0
M  V30 2955 H 274.355 -0.210888 -0.706184 0
M  V30 2956 H 276.997 -1.16522 -1.50075 0
M  V30 2957 H 275.147 -0.407947 -3.86352 0
M  V30 2958 H 276.819 -2.99359 -3.50973 0
M  V30 2959 H 275.062 -2.86758 -3.25503 0
M  V30 2960 H 275.733 -2.6037 -4.86736 0
M  V30 2961 H 278.209 -0.847856 -4.0737 0
M  V30 2962 H 277.085 -0.679981 -5.44672 0
M  V30 2963 H 277.346 0.681642 -4.36814 0
M  V30 2964 N 276.405 1.4127 -0.698611 0
M  V30 2965 C 277.352 2.30773 -0.0352094 0
M  V30 2966 C 278.322 1.47273 0.768111 0
M  V30 2967 O 279.507 1.76053 0.735524 0
M  V30 2968 C 276.647 3.33346 0.893 0
M  V30 2969 C 275.76 4.31924 0.0809695 0
M  V30 2970 C 274.895 5.21566 1.0071 0
M  V30 2971 C 273.934 6.11811 0.188155 0
M  V30 2972 N 273.071 6.93926 1.06825 0
M  V30 2973 H 277.911 2.86943 -0.804207 0
M  V30 2974 H 275.448 1.4132 -0.408294 0
M  V30 2975 H 277.406 3.91368 1.44523 0
M  V30 2976 H 276.036 2.78719 1.62836 0
M  V30 2977 H 275.088 3.75825 -0.588224 0
M  V30 2978 H 276.4 4.95716 -0.553801 0
M  V30 2979 H 275.554 5.84437 1.62845 0
M  V30 2980 H 274.293 4.58008 1.67572 0
M  V30 2981 H 273.298 5.47986 -0.446254 0
M  V30 2982 H 274.523 6.77425 -0.476716 0
M  V30 2983 H 272.469 6.32973 1.72283 0
M  V30 2984 H 272.386 7.54416 0.489123 0
M  V30 2985 H 273.654 7.61262 1.67632 0
M  V30 2986 N 277.883 0.443576 1.51229 0
M  V30 2987 C 279.13 -0.120796 2.02139 0
M  V30 2988 C 279.458 -1.42166 1.32736 0
M  V30 2989 O 278.713 -1.90849 0.43301 0
M  V30 2990 C 279.012 -0.380579 3.55368 0
M  V30 2991 C 278.678 0.83523 4.43097 0
M  V30 2992 C 277.34 1.16864 4.66794 0
M  V30 2993 C 279.692 1.64601 4.94526 0
M  V30 2994 C 277.02 2.31339 5.39165 0
M  V30 2995 C 279.372 2.78181 5.68153 0
M  V30 2996 C 278.036 3.11969 5.90112 0
M  V30 2997 H 277.306 -0.0442023 0.73968 0
M  V30 2998 H 279.953 0.592046 1.82118 0
M  V30 2999 H 278.258 -1.17538 3.73754 0
M  V30 3000 H 279.955 -0.830777 3.923 0
M  V30 3001 H 276.545 0.565437 4.24854 0
M  V30 3002 H 280.729 1.40163 4.76097 0
M  V30 3003 H 275.985 2.57823 5.5438 0
M  V30 3004 H 280.159 3.41371 6.06992 0
M  V30 3005 H 277.786 4.00784 6.45969 0
M  V30 3006 N 279.361 -1.56624 0.175154 0
M  V30 3007 C 280.291 -2.21155 -0.749195 0
M  V30 3008 C 281.272 -1.16836 -1.23626 0
M  V30 3009 O 282.457 -1.45277 -1.28873 0
M  V30 3010 C 279.587 -2.8553 -1.97711 0
M  V30 3011 C 278.541 -3.95921 -1.62575 0
M  V30 3012 C 277.867 -4.47365 -2.92864 0
M  V30 3013 C 279.167 -5.15323 -0.850838 0
M  V30 3014 H 280.861 -2.98653 -0.211295 0
M  V30 3015 H 278.407 -1.43651 -0.100188 0
M  V30 3016 H 280.36 -3.2935 -2.62881 0
M  V30 3017 H 279.084 -2.05406 -2.53921 0
M  V30 3018 H 277.743 -3.52762 -0.997719 0
M  V30 3019 H 277.391 -3.64027 -3.47122 0
M  V30 3020 H 277.091 -5.21839 -2.70106 0
M  V30 3021 H 278.615 -4.93873 -3.59056 0
M  V30 3022 H 280.029 -5.55812 -1.40521 0
M  V30 3023 H 278.426 -5.95739 -0.722154 0
M  V30 3024 H 279.496 -4.84661 0.152082 0
M  V30 3025 N 280.839 0.0985539 -1.57292 0
M  V30 3026 C 282.25 0.653457 -1.74891 0
M  V30 3027 C 282.601 1.7929 -0.796838 0
M  V30 3028 O 281.726 2.16385 0.0254886 0
M  V30 3029 C 282.321 1.19216 -3.17133 0
M  V30 3030 C 280.88 1.69316 -3.36168 0
M  V30 3031 C 280.027 0.601294 -2.70702 0
M  V30 3032 H 282.978 -0.127497 -1.58187 0
M  V30 3033 H 282.999 2.06154 -3.19814 0
M  V30 3034 H 282.511 0.362635 -3.86402 0
M  V30 3035 H 280.612 2.5468 -2.71972 0
M  V30 3036 H 280.725 1.78853 -4.44464 0
M  V30 3037 H 279.089 1.0399 -2.32504 0
M  V30 3038 H 279.872 -0.217592 -3.4261 0
M  V30 3039 N 282.317 1.53212 0.369288 0
M  V30 3040 C 283.542 1.73423 1.1375 0
M  V30 3041 C 283.967 0.460404 1.82378 0
M  V30 3042 O 283.325 -0.585298 1.71592 0
M  V30 3043 C 283.373 2.89769 2.1463 0
M  V30 3044 O 282.477 2.58119 3.21634 0
M  V30 3045 H 281.818 0.576061 0.330227 0
M  V30 3046 H 284.348 2.00083 0.427547 0
M  V30 3047 H 284.358 3.15829 2.58294 0
M  V30 3048 H 283.033 3.8217 1.64071 0
M  V30 3049 H 281.61 2.42864 2.82969 0
M  V30 3050 N 283.795 -0.628877 1.44509 0
M  V30 3051 C 284.743 -1.76193 1.51852 0
M  V30 3052 C 285.737 -1.64849 0.390042 0
M  V30 3053 O 286.943 -1.709 0.565082 0
M  V30 3054 H 283.318 -0.581728 0.476547 0
M  V30 3055 H 285.289 -1.67123 2.47209 0
M  V30 3056 C 284.038 -3.14533 1.48204 0
M  V30 3057 H 283.361 -3.23911 2.34354 0
M  V30 3058 H 284.801 -3.93701 1.57402 0
M  V30 3059 C 283.26 -3.36287 0.203142 0
M  V30 3060 O 283.79 -3.9509 -0.725745 0
M  V30 3061 N 281.996 -2.90408 0.105563 0
M  V30 3062 H 281.543 -2.42739 0.862301 0
M  V30 3063 H 281.501 -3.05339 -0.749371 0
M  V30 3064 N 285.273 -1.31445 -0.869486 0
M  V30 3065 C 286.521 -1.20918 -1.61936 0
M  V30 3066 C 286.842 0.232683 -1.93607 0
M  V30 3067 O 286.112 1.15352 -1.58338 0
M  V30 3068 H 284.692 -0.44454 -0.600328 0
M  V30 3069 H 287.354 -1.64776 -1.0409 0
M  V30 3070 H 286.45 -1.78124 -2.56278 0
M  V30 3071 N 286.751 1.08385 -1.14413 0
M  V30 3072 C 287.976 1.85057 -0.936413 0
M  V30 3073 C 288.401 1.81055 0.509971 0
M  V30 3074 O 287.759 1.1958 1.36273 0
M  V30 3075 C 287.807 3.30505 -1.44217 0
M  V30 3076 O 286.911 4.07491 -0.634409 0
M  V30 3077 H 286.252 0.573425 -0.334784 0
M  V30 3078 H 288.782 1.36799 -1.52142 0
M  V30 3079 H 288.792 3.81348 -1.45043 0
M  V30 3080 H 287.467 3.32734 -2.49522 0
M  V30 3081 H 286.044 3.66368 -0.694902 0
M  V30 3082 N 288.23 0.939286 1.26551 0
M  V30 3083 C 289.193 0.451987 2.24699 0
M  V30 3084 C 290.193 -0.435869 1.5478 0
M  V30 3085 O 291.383 -0.235314 1.72603 0
M  V30 3086 C 288.515 -0.348801 3.39111 0
M  V30 3087 H 289.708 1.3193 2.69322 0
M  V30 3088 H 287.261 0.721072 1.38673 0
M  V30 3089 H 287.996 -1.23444 2.99887 0
M  V30 3090 H 287.781 0.287945 3.91041 0
M  V30 3091 H 289.271 -0.679726 4.12031 0
M  V30 3092 N 289.708 -1.40897 0.706093 0
M  V30 3093 C 291.119 -1.84023 0.315052 0
M  V30 3094 C 291.47 -1.5906 -1.14866 0
M  V30 3095 O 290.595 -1.06651 -1.88293 0
M  V30 3096 C 291.19 -3.34055 0.565038 0
M  V30 3097 C 289.749 -3.7571 0.227806 0
M  V30 3098 C 288.896 -2.64204 0.842122 0
M  V30 3099 H 291.847 -1.303 0.905963 0
M  V30 3100 H 291.868 -3.80107 -0.172843 0
M  V30 3101 H 291.38 -3.52192 1.63042 0
M  V30 3102 H 289.481 -3.63172 -0.832895 0
M  V30 3103 H 289.594 -4.74103 0.690174 0
M  V30 3104 H 287.958 -2.53255 0.270893 0
M  V30 3105 H 288.741 -2.85155 1.91158 0
M  V30 3106 N 291.186 -0.45159 -1.50991 0
M  V30 3107 C 292.602 -0.104647 -1.59257 0
M  V30 3108 C 292.802 1.38728 -1.4614 0
M  V30 3109 O 291.858 2.15866 -1.30989 0
M  V30 3110 C 293.171 -0.637468 -2.93865 0
M  V30 3111 C 294.719 -0.599166 -3.07212 0
M  V30 3112 C 295.194 -1.1092 -4.44366 0
M  V30 3113 N 296.685 -1.06778 -4.50725 0
M  V30 3114 C 297.42 -1.43314 -5.55201 0
M  V30 3115 N 296.916 -1.87204 -6.67028 0
M  V30 3116 N 298.709 -1.3504 -5.45638 0
M  V30 3117 H 290.86 -1.42214 -1.57762 0
M  V30 3118 H 293.123 -0.586921 -0.744465 0
M  V30 3119 H 292.829 -1.68187 -3.08879 0
M  V30 3120 H 292.703 -0.0702139 -3.77135 0
M  V30 3121 H 295.09 0.436277 -2.91857 0
M  V30 3122 H 295.171 -1.20299 -2.25747 0
M  V30 3123 H 294.815 -2.14318 -4.60467 0
M  V30 3124 H 294.745 -0.481773 -5.24392 0
M  V30 3125 H 297.236 -0.745643 -3.70471 0
M  V30 3126 H 297.549 -2.13282 -7.42786 0
M  V30 3127 H 295.894 -1.91142 -6.68199 0
M  V30 3128 H 299.085 -1.00607 -4.57161 0
M  V30 3129 H 299.258 -1.63841 -6.26945 0
M  V30 3130 N 292.664 1.56529 -0.183458 0
M  V30 3131 C 293.91 1.97537 0.459036 0
M  V30 3132 C 294.243 1.06989 1.62071 0
M  V30 3133 O 293.518 0.11948 1.94133 0
M  V30 3134 C 293.801 3.47874 0.930368 0
M  V30 3135 C 293.654 4.492 -0.232317 0
M  V30 3136 C 294.973 4.01612 1.79989 0
M  V30 3137 H 292.092 0.718204 0.165383 0
M  V30 3138 H 294.734 1.88042 -0.272038 0
M  V30 3139 H 292.884 3.56095 1.55333 0
M  V30 3140 H 294.556 4.53027 -0.86972 0
M  V30 3141 H 292.799 4.24657 -0.885928 0
M  V30 3142 H 293.47 5.51823 0.139796 0
M  V30 3143 H 295.946 3.96097 1.27461 0
M  V30 3144 H 294.822 5.07195 2.09867 0
M  V30 3145 H 295.083 3.46163 2.74998 0
M  V30 3146 N 294.142 -0.090211 1.57342 0
M  V30 3147 C 295.419 -0.824761 1.77361 0
M  V30 3148 C 295.799 -1.96698 0.76637 0
M  V30 3149 O 295.147 -2.27586 -0.204179 0
M  V30 3150 C 295.357 -1.31481 3.23286 0
M  V30 3151 C 296.705 -1.75563 3.86604 0
M  V30 3152 O 297.729 -1.41093 3.27065 0
M  V30 3153 O 296.588 -2.39317 4.91314 0
M  V30 3154 H 293.682 -0.393776 0.727234 0
M  V30 3155 H 296.228 -0.0717138 1.69548 0
M  V30 3156 H 295 -0.496671 3.88135 0
M  V30 3157 H 294.623 -2.12973 3.35751 0
M  V30 3158 N 295.62 -1.53406 -0.361157 0
M  V30 3159 C 296.86 -1.71507 -1.11197 0
M  V30 3160 C 297.224 -0.459337 -1.86425 0
M  V30 3161 O 298.425 -0.517102 -2.63779 0
M  V30 3162 C 296.696 -2.93307 -2.0422 0
M  V30 3163 S 298.255 -3.32135 -2.86761 0
M  V30 3164 H 295.073 -0.603448 -0.375995 0
M  V30 3165 H 297.675 -1.91516 -0.392642 0
M  V30 3166 H 296.379 -3.82891 -1.47724 0
M  V30 3167 H 295.91 -2.75712 -2.80618 0
M  V30 3168 H 297.925 -2.84493 -4.06544 0
M  V30 3169 N 297.098 0.621204 -1.44841 0
M  V30 3170 C 298.061 1.71459 -1.521 0
M  V30 3171 C 299.061 1.55696 -0.401933 0
M  V30 3172 O 300.251 1.61011 -0.664925 0
M  V30 3173 C 297.383 3.10624 -1.40447 0
M  V30 3174 H 298.576 1.66394 -2.49506 0
M  V30 3175 H 296.129 0.835745 -1.3208 0
M  V30 3176 H 296.864 3.21277 -0.441737 0
M  V30 3177 H 296.649 3.23473 -2.21602 0
M  V30 3178 H 298.139 3.90293 -1.4853 0
M  V30 3179 N 298.576 1.31904 0.862503 0
M  V30 3180 C 299.823 1.22017 1.61611 0
M  V30 3181 C 300.151 -0.21991 1.93253 0
M  V30 3182 O 299.406 -1.17076 1.56817 0
M  V30 3183 C 299.705 2.01713 2.95037 0
M  V30 3184 C 299.371 3.51145 2.82857 0
M  V30 3185 C 298.033 3.91889 2.79243 0
M  V30 3186 C 300.385 4.46204 2.69353 0
M  V30 3187 C 297.713 5.25947 2.59993 0
M  V30 3188 C 300.065 5.80397 2.5164 0
M  V30 3189 C 298.729 6.20352 2.46413 0
M  V30 3190 H 297.999 0.44649 0.591378 0
M  V30 3191 H 300.646 1.63248 1.00111 0
M  V30 3192 H 298.951 1.53185 3.60613 0
M  V30 3193 H 300.648 1.91437 3.52353 0
M  V30 3194 H 297.238 3.1878 2.86491 0
M  V30 3195 H 301.422 4.15652 2.71196 0
M  V30 3196 H 296.678 5.5597 2.54376 0
M  V30 3197 H 300.852 6.53676 2.40169 0
M  V30 3198 H 298.479 7.24172 2.31256 0
M  V30 3199 N 300.054 -1.07777 1.14986 0
M  V30 3200 C 300.984 -2.16865 0.865557 0
M  V30 3201 C 301.965 -1.69123 -0.182083 0
M  V30 3202 O 303.15 -1.94164 -0.0373815 0
M  V30 3203 C 300.28 -3.45539 0.349313 0
M  V30 3204 C 299.234 -4.06708 1.33313 0
M  V30 3205 C 298.56 -5.30411 0.675918 0
M  V30 3206 C 299.86 -4.47241 2.69764 0
M  V30 3207 H 301.554 -2.40905 1.77778 0
M  V30 3208 H 299.1 -1.15781 0.856203 0
M  V30 3209 H 301.053 -4.21174 0.137983 0
M  V30 3210 H 299.777 -3.21072 -0.598362 0
M  V30 3211 H 298.436 -3.33112 1.53075 0
M  V30 3212 H 298.084 -5.02232 -0.277767 0
M  V30 3213 H 297.784 -5.72293 1.33244 0
M  V30 3214 H 299.308 -6.08755 0.474262 0
M  V30 3215 H 300.722 -5.14025 2.53873 0
M  V30 3216 H 299.119 -5.00062 3.3175 0
M  V30 3217 H 300.189 -3.58818 3.26156 0
M  V30 3218 N 301.532 -0.945985 -1.26051 0
M  V30 3219 C 302.809 -0.513816 -1.88731 0
M  V30 3220 C 303.189 1.00872 -1.8544 0
M  V30 3221 O 302.537 1.8708 -1.312 0
M  V30 3222 C 302.747 -1.08062 -3.31849 0
M  V30 3223 C 304.095 -1.1522 -4.08668 0
M  V30 3224 O 305.119 -1.03155 -3.40936 0
M  V30 3225 O 303.978 -1.34044 -5.29806 0
M  V30 3226 H 301.072 -0.168193 -0.809716 0
M  V30 3227 H 303.618 -1.03886 -1.34186 0
M  V30 3228 H 302.39 -2.1241 -3.2863 0
M  V30 3229 H 302.013 -0.538307 -3.93939 0
M  V30 3230 N 303.011 1.40521 -0.713556 0
M  V30 3231 C 303.943 2.29191 -0.0203126 0
M  V30 3232 C 304.956 1.45723 0.725864 0
M  V30 3233 O 306.145 1.69033 0.573581 0
M  V30 3234 C 303.245 3.2395 0.995486 0
M  V30 3235 C 302.418 4.36262 0.315256 0
M  V30 3236 C 301.477 5.11474 1.23616 0
M  V30 3237 O 300.503 5.64606 0.721719 0
M  V30 3238 N 301.705 5.20638 2.56743 0
M  V30 3239 H 304.47 2.89327 -0.781652 0
M  V30 3240 H 302.031 1.51869 -0.561022 0
M  V30 3241 H 304.023 3.71137 1.61368 0
M  V30 3242 H 302.593 2.64995 1.6582 0
M  V30 3243 H 301.813 3.91228 -0.483106 0
M  V30 3244 H 303.101 5.08558 -0.157004 0
M  V30 3245 H 302.499 4.7895 3.01037 0
M  V30 3246 H 301.056 5.71339 3.13712 0
M  V30 3247 N 304.489 0.459591 1.5075 0
M  V30 3248 C 305.9 0.00171547 1.867 0
M  V30 3249 C 306.251 -1.39934 1.37525 0
M  V30 3250 O 305.376 -2.03523 0.735349 0
M  V30 3251 C 305.971 -0.00366298 3.388 0
M  V30 3252 C 304.53 -0.406026 3.74204 0
M  V30 3253 C 303.677 0.38673 2.7459 0
M  V30 3254 H 306.628 0.674413 1.43657 0
M  V30 3255 H 306.649 -0.808371 3.71814 0
M  V30 3256 H 306.161 1.01617 3.74561 0
M  V30 3257 H 304.262 -1.43063 3.4404 0
M  V30 3258 H 304.375 -0.115362 4.78961 0
M  V30 3259 H 302.739 -0.158019 2.54209 0
M  V30 3260 H 303.522 1.40585 3.13194 0
M  V30 3261 N 305.967 -1.56429 0.191757 0
M  V30 3262 C 307.383 -1.58754 -0.164137 0
M  V30 3263 C 307.583 -1.20782 -1.61288 0
M  V30 3264 O 306.639 -0.928999 -2.34789 0
M  V30 3265 C 307.952 -3.00396 0.135195 0
M  V30 3266 C 309.5 -3.1291 0.0750351 0
M  V30 3267 C 309.975 -4.56679 0.347632 0
M  V30 3268 N 311.466 -4.62252 0.296131 0
M  V30 3269 C 312.201 -5.71379 0.480948 0
M  V30 3270 N 311.697 -6.88986 0.725933 0
M  V30 3271 N 313.49 -5.60563 0.415435 0
M  V30 3272 H 305.641 -1.79393 1.13718 0
M  V30 3273 H 307.904 -0.832414 0.453643 0
M  V30 3274 H 307.61 -3.32726 1.13958 0
M  V30 3275 H 307.484 -3.72963 -0.563773 0
M  V30 3276 H 309.871 -2.80394 -0.919948 0
M  V30 3277 H 309.952 -2.42736 0.807029 0
M  V30 3278 H 309.596 -4.89907 1.33992 0
M  V30 3279 H 309.526 -5.25039 -0.405212 0
M  V30 3280 H 312.017 -3.7773 0.113259 0
M  V30 3281 H 312.33 -7.68046 0.855857 0
M  V30 3282 H 310.675 -6.90801 0.762788 0
M  V30 3283 H 313.866 -4.67561 0.224486 0
M  V30 3284 H 314.039 -6.45551 0.562889 0
M  V30 3285 N 307.445 0.0818655 -1.57387 0
M  V30 3286 C 308.355 1.11642 -2.06333 0
M  V30 3287 C 309.371 1.43033 -0.99083 0
M  V30 3288 O 310.547 1.53411 -1.30488 0
M  V30 3289 C 307.612 2.41342 -2.48907 0
M  V30 3290 C 306.673 2.17014 -3.7041 0
M  V30 3291 C 305.906 3.4053 -4.10944 0
M  V30 3292 O 306.129 4.4927 -3.51444 0
M  V30 3293 O 305.063 3.29336 -5.03807 0
M  V30 3294 H 308.889 0.730657 -2.9478 0
M  V30 3295 H 306.474 0.295301 -1.46452 0
M  V30 3296 H 308.356 3.17691 -2.76858 0
M  V30 3297 H 307.031 2.79319 -1.63593 0
M  V30 3298 H 305.938 1.38403 -3.47556 0
M  V30 3299 H 307.271 1.83923 -4.56545 0
M  V30 3300 N 308.923 1.53595 0.353017 0
M  V30 3301 C 309.853 1.83902 1.43883 0
M  V30 3302 C 310.834 0.693421 1.55324 0
M  V30 3303 O 312.019 0.944452 1.69687 0
M  V30 3304 C 309.149 2.04016 2.8106 0
M  V30 3305 C 308.103 3.19814 2.84434 0
M  V30 3306 C 307.429 3.25244 4.24406 0
M  V30 3307 C 308.729 4.58133 2.50822 0
M  V30 3308 H 310.423 2.74835 1.1877 0
M  V30 3309 H 307.969 1.32242 0.569917 0
M  V30 3310 H 309.922 2.238 3.57059 0
M  V30 3311 H 308.646 1.09804 3.07588 0
M  V30 3312 H 307.305 2.9987 2.10887 0
M  V30 3313 H 306.953 2.28646 4.48029 0
M  V30 3314 H 306.653 4.03054 4.27576 0
M  V30 3315 H 308.177 3.47228 5.0226 0
M  V30 3316 H 309.591 4.77995 3.16534 0
M  V30 3317 H 307.988 5.38276 2.6529 0
M  V30 3318 H 309.058 4.62387 1.46034 0
M  V30 3319 N 310.401 -0.613514 1.45168 0
M  V30 3320 C 311.649 -1.36997 1.48581 0
M  V30 3321 C 311.97 -1.94589 0.126545 0
M  V30 3322 O 311.24 -1.76816 -0.843372 0
M  V30 3323 H 309.82 -0.508558 0.547154 0
M  V30 3324 H 312.482 -0.720853 1.81079 0
M  V30 3325 H 311.578 -2.1924 2.22127 0
M  V30 3326 N 311.879 -1.3236 -0.855495 0
M  V30 3327 C 312.811 -1.17052 -1.97057 0
M  V30 3328 C 313.824 -0.10574 -1.62456 0
M  V30 3329 O 315.013 -0.354619 -1.74942 0
M  V30 3330 C 312.113 -0.769305 -3.30053 0
M  V30 3331 C 311.286 -1.9222 -3.929 0
M  V30 3332 C 310.345 -1.50466 -5.04228 0
M  V30 3333 O 309.371 -2.21655 -5.24269 0
M  V30 3334 N 310.573 -0.400209 -5.79119 0
M  V30 3335 H 313.338 -2.13103 -2.1073 0
M  V30 3336 H 310.899 -1.24885 -1.0303 0
M  V30 3337 H 312.891 -0.472407 -4.01933 0
M  V30 3338 H 311.461 0.100025 -3.1244 0
M  V30 3339 H 310.681 -2.38563 -3.13817 0
M  V30 3340 H 311.969 -2.69403 -4.31624 0
M  V30 3341 H 311.367 0.192319 -5.65373 0
M  V30 3342 H 309.924 -0.162912 -6.51596 0
M  V30 3343 N 313.357 1.07166 -1.15556 0
M  V30 3344 C 314.768 1.6127 -0.940693 0
M  V30 3345 C 315.119 1.89251 0.517551 0
M  V30 3346 O 314.244 1.65937 1.38903 0
M  V30 3347 C 314.839 2.92993 -1.7012 0
M  V30 3348 C 313.398 3.43832 -1.53156 0
M  V30 3349 C 312.545 2.1786 -1.71558 0
M  V30 3350 H 315.496 0.90229 -1.30554 0
M  V30 3351 H 315.517 3.62007 -1.17181 0
M  V30 3352 H 315.029 2.72596 -2.76248 0
M  V30 3353 H 313.13 3.69307 -0.494294 0
M  V30 3354 H 313.243 4.19747 -2.30975 0
M  V30 3355 H 311.607 2.2765 -1.14225 0
M  V30 3356 H 312.39 1.99956 -2.79056 0
M  V30 3357 N 314.835 0.952656 1.25548 0
M  V30 3358 C 315.765 0.489287 2.28316 0
M  V30 3359 C 316.746 -0.463359 1.63667 0
M  V30 3360 O 317.931 -0.36274 1.90782 0
M  V30 3361 C 315.061 -0.235603 3.465 0
M  V30 3362 C 314.015 0.631593 4.23314 0
M  V30 3363 C 313.341 -0.223923 5.34231 0
M  V30 3364 C 314.641 1.90871 4.86174 0
M  V30 3365 H 316.335 1.34822 2.67326 0
M  V30 3366 H 313.881 0.649728 1.28509 0
M  V30 3367 H 315.834 -0.570882 4.17515 0
M  V30 3368 H 314.558 -1.12877 3.06474 0
M  V30 3369 H 313.217 0.949929 3.54079 0
M  V30 3370 H 312.865 -1.11678 4.90446 0
M  V30 3371 H 312.565 0.35299 5.86539 0
M  V30 3372 H 314.089 -0.554214 6.0808 0
M  V30 3373 H 315.503 1.63997 5.49343 0
M  V30 3374 H 313.9 2.43112 5.4865 0
M  V30 3375 H 314.97 2.61304 4.08471 0
M  V30 3376 N 316.313 -1.40141 0.720998 0
M  V30 3377 C 317.245 -2.29177 0.0324669 0
M  V30 3378 C 318.258 -1.46105 -0.718126 0
M  V30 3379 O 319.447 -1.69335 -0.564608 0
M  V30 3380 C 316.547 -3.24473 -0.978292 0
M  V30 3381 C 315.72 -4.36423 -0.292115 0
M  V30 3382 C 314.779 -5.12122 -1.20901 0
M  V30 3383 O 313.805 -5.64981 -0.691766 0
M  V30 3384 N 315.007 -5.21992 -2.53978 0
M  V30 3385 H 317.772 -2.88909 0.796984 0
M  V30 3386 H 315.333 -1.51569 0.569068 0
M  V30 3387 H 317.325 -3.71987 -1.59398 0
M  V30 3388 H 315.895 -2.65871 -1.64413 0
M  V30 3389 H 315.115 -3.90967 0.503847 0
M  V30 3390 H 316.403 -5.08467 0.183971 0
M  V30 3391 H 315.801 -4.8054 -2.98493 0
M  V30 3392 H 314.358 -5.72995 -3.10677 0
M  V30 3393 N 317.792 -0.46758 -1.50504 0
M  V30 3394 C 319.038 0.0887532 -2.02606 0
M  V30 3395 C 319.371 1.39686 -1.34913 0
M  V30 3396 O 318.646 1.88644 -0.473694 0
M  V30 3397 C 318.929 0.276206 -3.59039 0
M  V30 3398 C 318.782 -1.05267 -4.37309 0
M  V30 3399 C 320.101 1.03235 -4.27821 0
M  V30 3400 H 317.22 0.0307814 -0.736357 0
M  V30 3401 H 319.862 -0.612485 -1.79857 0
M  V30 3402 H 318.012 0.8735 -3.78553 0
M  V30 3403 H 319.684 -1.68628 -4.29374 0
M  V30 3404 H 317.927 -1.65015 -4.01189 0
M  V30 3405 H 318.598 -0.875197 -5.45018 0
M  V30 3406 H 321.074 0.526111 -4.12761 0
M  V30 3407 H 319.95 1.1323 -5.37094 0
M  V30 3408 H 320.211 2.06806 -3.90748 0
M  V30 3409 N 319.27 1.56325 -0.20005 0
M  V30 3410 C 320.217 2.1932 0.718833 0
M  V30 3411 C 321.187 1.14198 1.20615 0
M  V30 3412 O 322.372 1.42469 1.26914 0
M  V30 3413 C 319.512 2.86041 1.93066 0
M  V30 3414 C 318.625 4.05702 1.48425 0
M  V30 3415 C 317.76 4.60266 2.65196 0
M  V30 3416 C 316.799 5.72273 2.17185 0
M  V30 3417 N 315.936 6.21221 3.27152 0
M  V30 3418 H 320.776 2.97486 0.17489 0
M  V30 3419 H 318.313 1.46911 0.0745794 0
M  V30 3420 H 320.271 3.22897 2.64184 0
M  V30 3421 H 318.901 2.1043 2.44783 0
M  V30 3422 H 317.953 3.74475 0.668755 0
M  V30 3423 H 319.265 4.86699 1.09204 0
M  V30 3424 H 318.419 4.99453 3.4443 0
M  V30 3425 H 317.158 3.78386 3.07693 0
M  V30 3426 H 316.163 5.3261 1.36407 0
M  V30 3427 H 317.388 6.55974 1.75713 0
M  V30 3428 H 315.334 5.42263 3.69171 0
M  V30 3429 H 315.251 6.97284 2.92116 0
M  V30 3430 H 316.519 6.65063 4.06585 0
M  V30 3431 N 320.748 -0.0735177 1.57428 0
M  V30 3432 C 321.978 -0.78483 1.91112 0
M  V30 3433 C 322.386 -1.71729 0.7941 0
M  V30 3434 O 321.729 -1.82105 -0.241542 0
M  V30 3435 C 321.791 -1.63346 3.20247 0
M  V30 3436 C 321.455 -0.870557 4.48632 0
M  V30 3437 C 322.452 -0.19058 5.19551 0
M  V30 3438 C 320.137 -0.838242 4.95256 0
M  V30 3439 C 322.131 0.511503 6.35344 0
M  V30 3440 C 319.818 -0.132386 6.10957 0
M  V30 3441 C 320.816 0.541288 6.80852 0
M  V30 3442 O 320.504 1.23578 7.94345 0
M  V30 3443 H 320.236 -0.228408 0.636244 0
M  V30 3444 H 322.79 -0.0486039 2.05342 0
M  V30 3445 H 321.02 -2.41245 3.02222 0
M  V30 3446 H 322.709 -2.22329 3.39595 0
M  V30 3447 H 323.475 -0.206864 4.84559 0
M  V30 3448 H 319.354 -1.35206 4.40727 0
M  V30 3449 H 322.898 1.03789 6.89836 0
M  V30 3450 H 318.795 -0.114023 6.45399 0
M  V30 3451 H 319.563 1.14487 8.10454 0
M  V30 3452 N 322.226 -1.5378 -0.344866 0
M  V30 3453 C 323.456 -1.74646 -1.10374 0
M  V30 3454 C 323.864 -0.48491 -1.8288 0
M  V30 3455 O 323.207 0.553062 -1.75177 0
M  V30 3456 C 323.269 -2.87145 -2.16306 0
M  V30 3457 C 322.933 -4.26795 -1.63386 0
M  V30 3458 C 323.93 -5.08412 -1.08688 0
M  V30 3459 C 321.615 -4.73276 -1.68272 0
M  V30 3460 C 323.609 -6.34609 -0.595792 0
M  V30 3461 C 321.296 -5.99446 -1.18776 0
M  V30 3462 C 322.294 -6.79946 -0.645215 0
M  V30 3463 O 321.982 -8.03745 -0.157626 0
M  V30 3464 H 321.714 -0.587112 -0.335075 0
M  V30 3465 H 324.268 -2.01403 -0.403252 0
M  V30 3466 H 322.498 -2.55909 -2.89909 0
M  V30 3467 H 324.187 -2.95992 -2.77747 0
M  V30 3468 H 324.953 -4.73666 -1.04236 0
M  V30 3469 H 320.832 -4.10677 -2.09442 0
M  V30 3470 H 324.376 -6.97389 -0.171654 0
M  V30 3471 H 320.273 -6.33687 -1.22928 0
M  V30 3472 H 321.041 -8.18038 -0.275037 0
M  V30 3473 N 323.704 0.605807 -1.45491 0
M  V30 3474 C 325.115 1.18777 -1.44045 0
M  V30 3475 C 325.466 1.95471 -0.169001 0
M  V30 3476 O 324.591 2.0374 0.729324 0
M  V30 3477 C 325.186 2.16064 -2.60963 0
M  V30 3478 C 323.745 2.69633 -2.62631 0
M  V30 3479 C 322.892 1.45072 -2.36325 0
M  V30 3480 H 325.843 0.395017 -1.53705 0
M  V30 3481 H 325.864 2.9913 -2.35163 0
M  V30 3482 H 325.376 1.60217 -3.53486 0
M  V30 3483 H 323.477 3.29414 -1.74119 0
M  V30 3484 H 323.59 3.13944 -3.61906 0
M  V30 3485 H 321.954 1.74089 -1.85917 0
M  V30 3486 H 322.737 0.910899 -3.30995 0
M  V30 3487 N 325.182 1.32811 0.848464 0
M  V30 3488 C 326.593 1.21315 1.41914 0
M  V30 3489 C 326.944 -0.171847 1.95446 0
M  V30 3490 O 326.069 -1.07093 1.88043 0
M  V30 3491 C 326.664 2.19631 2.57968 0
M  V30 3492 C 325.223 2.12003 3.11017 0
M  V30 3493 C 324.37 2.07651 1.83783 0
M  V30 3494 H 327.321 1.44549 0.655071 0
M  V30 3495 H 327.342 1.79845 3.35315 0
M  V30 3496 H 326.854 3.20423 2.18976 0
M  V30 3497 H 324.955 1.14481 3.54577 0
M  V30 3498 H 325.068 3.02111 3.71841 0
M  V30 3499 H 323.432 1.52983 2.03638 0
M  V30 3500 H 324.215 3.10235 1.47 0
M  V30 3501 N 326.66 -1.06551 1.16123 0
M  V30 3502 C 327.608 -2.16063 0.861371 0
M  V30 3503 C 328.602 -1.6856 -0.168517 0
M  V30 3504 O 329.808 -1.79986 -0.0227579 0
M  V30 3505 H 326.183 -0.705278 0.260934 0
M  V30 3506 H 328.154 -2.38567 1.79244 0
M  V30 3507 C 326.903 -3.45661 0.376018 0
M  V30 3508 H 326.226 -3.82604 1.15992 0
M  V30 3509 H 327.666 -4.23504 0.204951 0
M  V30 3510 C 326.125 -3.24546 -0.903954 0
M  V30 3511 O 326.655 -3.49865 -1.97377 0
M  V30 3512 N 324.861 -2.77992 -0.846679 0
M  V30 3513 H 324.408 -2.57589 0.0241017 0
M  V30 3514 H 324.366 -2.64244 -1.70359 0
M  V30 3515 N 328.138 -0.959301 -1.25041 0
M  V30 3516 C 329.386 -0.615393 -1.92503 0
M  V30 3517 C 329.707 0.850969 -1.75452 0
M  V30 3518 O 328.977 1.60658 -1.12098 0
M  V30 3519 H 327.557 -0.224613 -0.712431 0
M  V30 3520 H 330.219 -1.21855 -1.5211 0
M  V30 3521 H 329.315 -0.848738 -3.00338 0
M  V30 3522 N 329.616 1.39756 -0.72842 0
M  V30 3523 C 330.844 2.04948 -0.283528 0
M  V30 3524 C 331.259 1.54908 1.0793 0
M  V30 3525 O 330.616 0.711135 1.68075 0
M  V30 3526 C 330.667 3.60498 -0.268957 0
M  V30 3527 O 330.388 4.08695 -1.57798 0
M  V30 3528 C 331.889 4.4288 0.192912 0
M  V30 3529 H 329.109 0.659243 -0.125056 0
M  V30 3530 H 331.653 1.78927 -0.990226 0
M  V30 3531 H 329.808 3.85444 0.388801 0
M  V30 3532 H 330.222 5.02977 -1.48709 0
M  V30 3533 H 331.696 5.51791 0.151952 0
M  V30 3534 H 332.173 4.21418 1.23708 0
M  V30 3535 H 332.779 4.23069 -0.435039 0
M  V30 3536 N 331.094 0.475555 1.50254 0
M  V30 3537 C 332.341 -0.0778919 2.0235 0
M  V30 3538 C 332.669 -1.39319 1.35722 0
M  V30 3539 O 331.924 -1.89888 0.473395 0
M  V30 3540 C 332.223 -0.305114 3.56095 0
M  V30 3541 C 331.889 0.92903 4.41225 0
M  V30 3542 C 330.551 1.26739 4.6421 0
M  V30 3543 C 332.903 1.75054 4.90923 0
M  V30 3544 C 330.231 2.42724 5.34137 0
M  V30 3545 C 332.583 2.9017 5.62125 0
M  V30 3546 C 331.247 3.24416 5.83362 0
M  V30 3547 H 330.517 -0.0285027 0.740452 0
M  V30 3548 H 333.164 0.630543 1.80821 0
M  V30 3549 H 331.469 -1.09584 3.76163 0
M  V30 3550 H 333.166 -0.747377 3.93974 0
M  V30 3551 H 329.756 0.655428 4.23559 0
M  V30 3552 H 333.94 1.50231 4.73016 0
M  V30 3553 H 329.196 2.69525 5.48786 0
M  V30 3554 H 333.37 3.54169 5.99614 0
M  V30 3555 H 330.997 4.14396 6.37323 0
M  V30 3556 N 332.573 -1.56217 0.208337 0
M  V30 3557 C 333.798 -2.02782 -0.435222 0
M  V30 3558 C 334.223 -1.08738 -1.53485 0
M  V30 3559 O 333.581 -0.0731855 -1.81152 0
M  V30 3560 C 333.629 -3.47687 -0.956335 0
M  V30 3561 O 332.733 -3.56773 -2.06849 0
M  V30 3562 H 332.074 -0.656403 -0.100158 0
M  V30 3563 H 334.604 -2.02033 0.3231 0
M  V30 3564 H 334.614 -3.87745 -1.26955 0
M  V30 3565 H 333.289 -4.15624 -0.15143 0
M  V30 3566 H 331.866 -3.28597 -1.76292 0
M  V30 3567 N 334.051 0.0651679 -1.57465 0
M  V30 3568 C 334.981 1.07693 -2.07182 0
M  V30 3569 C 335.962 1.39962 -0.966673 0
M  V30 3570 O 337.147 1.49475 -1.2398 0
M  V30 3571 C 334.277 2.3885 -2.52127 0
M  V30 3572 C 333.231 2.20917 -3.66579 0
M  V30 3573 C 332.557 3.57515 -3.97601 0
M  V30 3574 C 333.857 1.62493 -4.9638 0
M  V30 3575 H 335.551 0.663199 -2.91962 0
M  V30 3576 H 333.097 0.317569 -1.40455 0
M  V30 3577 H 335.05 3.09928 -2.85522 0
M  V30 3578 H 333.774 2.82215 -1.64384 0
M  V30 3579 H 332.433 1.52279 -3.33477 0
M  V30 3580 H 332.081 3.98463 -3.06979 0
M  V30 3581 H 331.781 3.46353 -4.74672 0
M  V30 3582 H 333.305 4.30013 -4.33499 0
M  V30 3583 H 334.719 2.23445 -5.27963 0
M  V30 3584 H 333.116 1.62009 -5.77818 0
M  V30 3585 H 334.186 0.587041 -4.81333 0
M  V30 3586 N 335.529 1.53961 0.336706 0
M  V30 3587 C 336.479 1.7881 1.41461 0
M  V30 3588 C 337.463 0.643561 1.47469 0
M  V30 3589 O 338.655 0.903166 1.52223 0
M  V30 3590 C 335.784 2.00722 2.78506 0
M  V30 3591 C 334.87 3.2126 2.76862 0
M  V30 3592 N 335.261 4.42588 2.44845 0
M  V30 3593 C 333.559 3.22568 3.08004 0
M  V30 3594 C 334.26 5.2447 2.51607 0
M  V30 3595 N 333.236 4.61344 2.87511 0
M  V30 3596 H 337.038 2.70205 1.15615 0
M  V30 3597 H 334.552 1.52978 0.545112 0
M  V30 3598 H 336.549 2.1666 3.5618 0
M  V30 3599 H 335.209 1.10573 3.05293 0
M  V30 3600 H 336.22 4.69819 2.17922 0
M  V30 3601 H 332.897 2.42409 3.39918 0
M  V30 3602 H 334.287 6.31324 2.29955 0
M  V30 3603 N 337.007 -0.598083 1.45811 0
M  V30 3604 C 338.237 -1.38121 1.53643 0
M  V30 3605 C 338.645 -1.88425 0.171081 0
M  V30 3606 O 337.988 -1.63409 -0.839237 0
M  V30 3607 C 338.05 -2.61432 2.46766 0
M  V30 3608 C 337.714 -2.32702 3.93318 0
M  V30 3609 C 338.711 -1.92479 4.82957 0
M  V30 3610 C 336.396 -2.45321 4.38318 0
M  V30 3611 C 338.39 -1.65248 6.15607 0
M  V30 3612 C 336.077 -2.17703 5.71007 0
M  V30 3613 C 337.075 -1.7773 6.5947 0
M  V30 3614 O 336.763 -1.50441 7.89698 0
M  V30 3615 H 336.495 -0.428863 0.522544 0
M  V30 3616 H 339.049 -0.73557 1.91777 0
M  V30 3617 H 337.279 -3.28749 2.0362 0
M  V30 3618 H 338.968 -3.23487 2.45175 0
M  V30 3619 H 339.734 -1.82258 4.49452 0
M  V30 3620 H 335.613 -2.75399 3.69697 0
M  V30 3621 H 339.157 -1.33973 6.84614 0
M  V30 3622 H 335.054 -2.27544 6.04065 0
M  V30 3623 H 335.822 -1.64415 8.01817 0
M  V30 3624 N 338.485 -1.33259 -0.841409 0
M  V30 3625 C 339.732 -1.24572 -1.5965 0
M  V30 3626 C 340.06 0.189137 -1.93578 0
M  V30 3627 O 339.315 1.14566 -1.5866 0
M  V30 3628 C 339.614 -2.06381 -2.9179 0
M  V30 3629 C 339.28 -3.556 -2.77235 0
M  V30 3630 C 337.942 -3.96282 -2.72973 0
M  V30 3631 C 340.294 -4.50433 -2.62221 0
M  V30 3632 C 337.622 -5.30017 -2.51592 0
M  V30 3633 C 339.974 -5.84327 -2.42374 0
M  V30 3634 C 338.638 -6.24194 -2.36512 0
M  V30 3635 H 337.908 -0.455842 -0.5842 0
M  V30 3636 H 340.555 -1.6482 -0.975016 0
M  V30 3637 H 338.86 -1.58903 -3.5813 0
M  V30 3638 H 340.557 -1.97019 -3.49263 0
M  V30 3639 H 337.147 -3.23298 -2.81384 0
M  V30 3640 H 341.331 -4.19914 -2.64549 0
M  V30 3641 H 336.587 -5.59947 -2.45499 0
M  V30 3642 H 340.761 -6.57414 -2.29739 0
M  V30 3643 H 338.388 -7.27759 -2.19706 0
M  V30 3644 N 339.963 1.05934 -1.16686 0
M  V30 3645 C 341.374 1.60263 -0.957745 0
M  V30 3646 C 341.725 1.89789 0.49745 0
M  V30 3647 O 340.85 1.67401 1.37135 0
M  V30 3648 C 341.445 2.91172 -1.73218 0
M  V30 3649 C 340.004 3.42188 -1.56794 0
M  V30 3650 C 339.151 2.16028 -1.73859 0
M  V30 3651 H 342.102 0.888392 -1.31504 0
M  V30 3652 H 342.123 3.60744 -1.21014 0
M  V30 3653 H 341.635 2.6965 -2.79124 0
M  V30 3654 H 339.736 3.68762 -0.533437 0
M  V30 3655 H 339.849 4.17273 -2.35414 0
M  V30 3656 H 338.213 2.26426 -1.16633 0
M  V30 3657 H 338.996 1.96985 -2.81161 0
M  V30 3658 N 341.441 0.965919 1.2453 0
M  V30 3659 C 342.671 0.643451 1.96324 0
M  V30 3660 C 343.079 -0.790927 1.71875 0
M  V30 3661 O 342.422 -1.54208 0.998273 0
M  V30 3662 C 342.484 0.836078 3.49643 0
M  V30 3663 C 342.148 2.24975 3.97788 0
M  V30 3664 C 343.145 3.22735 4.07601 0
M  V30 3665 C 340.83 2.57697 4.31158 0
M  V30 3666 C 342.824 4.51303 4.50116 0
M  V30 3667 C 340.511 3.86492 4.73357 0
M  V30 3668 C 341.509 4.83107 4.828 0
M  V30 3669 O 341.197 6.09605 5.24058 0
M  V30 3670 H 340.929 0.239223 0.632257 0
M  V30 3671 H 343.483 1.29587 1.59362 0
M  V30 3672 H 341.713 0.12649 3.86493 0
M  V30 3673 H 343.402 0.512965 4.02646 0
M  V30 3674 H 344.168 2.98783 3.82039 0
M  V30 3675 H 340.047 1.83216 4.23028 0
M  V30 3676 H 343.591 5.26716 4.57401 0
M  V30 3677 H 339.488 4.10245 4.98366 0
M  V30 3678 H 340.256 6.13146 5.42213 0
M  V30 3679 N 342.919 -1.39368 0.735821 0
M  V30 3680 C 344.149 -2.04498 0.293967 0
M  V30 3681 C 344.557 -1.55593 -1.07645 0
M  V30 3682 O 343.9 -0.716324 -1.69158 0
M  V30 3683 C 343.962 -3.58836 0.218342 0
M  V30 3684 C 343.626 -4.30721 1.52736 0
M  V30 3685 C 344.623 -4.57305 2.47322 0
M  V30 3686 C 342.308 -4.69251 1.79189 0
M  V30 3687 C 344.302 -5.21429 3.66593 0
M  V30 3688 C 341.989 -5.33104 2.98737 0
M  V30 3689 C 342.987 -5.59125 3.9226 0
M  V30 3690 O 342.675 -6.21653 5.09708 0
M  V30 3691 H 342.407 -0.664118 0.126189 0
M  V30 3692 H 344.961 -1.79385 1.00051 0
M  V30 3693 H 343.191 -3.8285 -0.544314 0
M  V30 3694 H 344.88 -4.05447 -0.191626 0
M  V30 3695 H 345.646 -4.27983 2.28156 0
M  V30 3696 H 341.525 -4.48354 1.07239 0
M  V30 3697 H 345.069 -5.41656 4.39607 0
M  V30 3698 H 340.966 -5.61846 3.17803 0
M  V30 3699 H 341.734 -6.40146 5.10054 0
M  V30 3700 N 344.397 -0.483516 -1.5 0
M  V30 3701 C 345.645 0.067027 -2.01989 0
M  V30 3702 C 345.966 1.3909 -1.36671 0
M  V30 3703 O 345.236 1.88978 -0.516152 0
M  V30 3704 H 343.816 0.0277606 -0.746484 0
M  V30 3705 H 346.478 -0.636773 -1.84204 0
M  V30 3706 H 345.574 0.209484 -3.11396 0
M  V30 3707 N 345.875 1.56104 -0.216619 0
M  V30 3708 C 346.822 2.2007 0.695531 0
M  V30 3709 C 347.792 1.15471 1.19397 0
M  V30 3710 O 348.977 1.43807 1.25396 0
M  V30 3711 C 346.117 2.88073 1.90021 0
M  V30 3712 C 345.23 4.07253 1.44113 0
M  V30 3713 C 344.365 4.63052 2.603 0
M  V30 3714 C 343.404 5.74545 2.11103 0
M  V30 3715 N 342.541 6.24656 3.20545 0
M  V30 3716 H 347.381 2.97655 0.143327 0
M  V30 3717 H 344.918 1.46982 0.0589934 0
M  V30 3718 H 346.876 3.25681 2.60745 0
M  V30 3719 H 345.506 2.13015 2.42538 0
M  V30 3720 H 344.558 3.75164 0.628999 0
M  V30 3721 H 345.87 4.8783 1.04036 0
M  V30 3722 H 345.024 5.03078 3.39113 0
M  V30 3723 H 343.763 3.81628 3.03663 0
M  V30 3724 H 342.768 5.34027 1.3075 0
M  V30 3725 H 343.993 6.57801 1.68746 0
M  V30 3726 H 341.939 5.46148 3.63399 0
M  V30 3727 H 341.856 7.00343 2.84704 0
M  V30 3728 H 343.124 6.69338 3.99508 0
M  V30 3729 N 347.353 -0.0568162 1.57498 0
M  V30 3730 C 348.3 -1.06591 2.04712 0
M  V30 3731 C 349.27 -1.3758 0.930644 0
M  V30 3732 O 350.455 -1.48392 1.19935 0
M  V30 3733 C 347.595 -2.3701 2.50839 0
M  V30 3734 C 346.708 -2.12421 3.76167 0
M  V30 3735 C 345.843 -3.36511 4.11015 0
M  V30 3736 C 344.882 -3.07353 5.2934 0
M  V30 3737 N 344.019 -4.23816 5.59754 0
M  V30 3738 H 348.859 -0.65631 2.90683 0
M  V30 3739 H 346.396 -0.312481 1.43743 0
M  V30 3740 H 348.354 -3.13175 2.7564 0
M  V30 3741 H 346.984 -2.75744 1.67825 0
M  V30 3742 H 346.036 -1.2688 3.58616 0
M  V30 3743 H 347.348 -1.86894 4.62463 0
M  V30 3744 H 346.502 -4.21062 4.36797 0
M  V30 3745 H 345.241 -3.65128 3.23315 0
M  V30 3746 H 344.246 -2.212 5.03339 0
M  V30 3747 H 345.471 -2.80043 6.1867 0
M  V30 3748 H 343.417 -4.52436 4.75014 0
M  V30 3749 H 343.334 -4.01614 6.40501 0
M  V30 3750 H 344.602 -5.0932 5.90096 0
M  V30 3751 N 348.832 -1.54138 -0.328536 0
M  V30 3752 C 349.795 -1.82462 -1.38709 0
M  V30 3753 C 350.795 -0.696229 -1.44946 0
M  V30 3754 O 351.985 -0.964535 -1.4506 0
M  V30 3755 C 349.117 -1.98018 -2.77492 0
M  V30 3756 H 350.31 -2.77037 -1.14851 0
M  V30 3757 H 347.863 -1.45779 -0.563751 0
M  V30 3758 H 348.598 -1.05637 -3.06613 0
M  V30 3759 H 348.383 -2.80124 -2.74359 0
M  V30 3760 H 349.873 -2.21396 -3.54081 0
M  V30 3761 N 350.31 0.590341 -1.46126 0
M  V30 3762 C 351.242 1.71427 -1.52136 0
M  V30 3763 C 352.255 1.57542 -0.41042 0
M  V30 3764 O 353.444 1.65106 -0.678389 0
M  V30 3765 C 350.544 3.09605 -1.37834 0
M  V30 3766 C 349.717 3.49566 -2.62912 0
M  V30 3767 C 348.776 4.66773 -2.42918 0
M  V30 3768 O 347.802 4.73019 -3.1661 0
M  V30 3769 N 349.004 5.61161 -1.4859 0
M  V30 3770 H 351.769 1.66728 -2.49042 0
M  V30 3771 H 349.33 0.776113 -1.42085 0
M  V30 3772 H 351.322 3.85796 -1.22243 0
M  V30 3773 H 349.892 3.08714 -0.491393 0
M  V30 3774 H 349.112 2.63158 -2.93499 0
M  V30 3775 H 350.4 3.73028 -3.46017 0
M  V30 3776 H 349.798 5.58844 -0.87808 0
M  V30 3777 H 348.355 6.36814 -1.38965 0
M  V30 3778 N 351.788 1.33704 0.83433 0
M  V30 3779 C 353.199 1.22813 1.4062 0
M  V30 3780 C 353.55 -0.151107 1.95617 0
M  V30 3781 O 352.675 -1.05092 1.89168 0
M  V30 3782 C 353.27 2.22355 2.55624 0
M  V30 3783 C 351.829 2.1529 3.08751 0
M  V30 3784 C 350.976 2.09589 1.8157 0
M  V30 3785 H 353.927 1.45236 0.639702 0
M  V30 3786 H 353.948 1.83391 3.33389 0
M  V30 3787 H 353.46 3.22728 2.15566 0
M  V30 3788 H 351.561 1.18235 3.53343 0
M  V30 3789 H 351.674 3.06038 3.68616 0
M  V30 3790 H 350.038 1.55134 2.02004 0
M  V30 3791 H 350.821 3.11777 1.43701 0
M  V30 3792 N 353.266 -1.05314 1.17247 0
M  V30 3793 C 354.216 -2.11313 0.856196 0
M  V30 3794 C 355.2 -1.60013 -0.168694 0
M  V30 3795 O 356.392 -1.76968 0.0335624 0
M  V30 3796 C 353.521 -3.41301 0.369917 0
M  V30 3797 C 352.607 -3.99401 1.42616 0
M  V30 3798 N 352.998 -4.31481 2.63928 0
M  V30 3799 C 351.296 -4.27126 1.28373 0
M  V30 3800 C 351.997 -4.77799 3.31787 0
M  V30 3801 N 350.973 -4.77843 2.59166 0
M  V30 3802 H 354.775 -2.33976 1.77856 0
M  V30 3803 H 352.289 -1.2295 1.06099 0
M  V30 3804 H 354.286 -4.16713 0.124897 0
M  V30 3805 H 352.946 -3.20072 -0.546253 0
M  V30 3806 H 353.957 -4.21519 3.00902 0
M  V30 3807 H 350.634 -4.15289 0.429111 0
M  V30 3808 H 352.024 -5.11743 4.35395 0
M  V30 3809 N 354.744 -0.972509 -1.24016 0
M  V30 3810 C 355.974 -0.653853 -1.9598 0
M  V30 3811 C 356.382 0.781801 -1.72292 0
M  V30 3812 O 355.725 1.53677 -1.00644 0
M  V30 3813 C 355.787 -0.854608 -3.49194 0
M  V30 3814 C 355.451 -2.27082 -3.96589 0
M  V30 3815 C 356.448 -3.24892 -4.05883 0
M  V30 3816 C 354.133 -2.5998 -4.29786 0
M  V30 3817 C 356.127 -4.53684 -4.47716 0
M  V30 3818 C 353.814 -3.88997 -4.71301 0
M  V30 3819 C 354.812 -4.85661 -4.80232 0
M  V30 3820 O 354.5 -6.12376 -5.20818 0
M  V30 3821 H 354.232 -0.242572 -0.630979 0
M  V30 3822 H 356.786 -1.30431 -1.58673 0
M  V30 3823 H 355.016 -0.146985 -3.86421 0
M  V30 3824 H 356.705 -0.534311 -4.02368 0
M  V30 3825 H 357.471 -3.00805 -3.80449 0
M  V30 3826 H 353.35 -1.85457 -4.22051 0
M  V30 3827 H 356.894 -5.29135 -4.54601 0
M  V30 3828 H 352.791 -4.12882 -4.96184 0
M  V30 3829 H 353.559 -6.16013 -5.38953 0
M  V30 3830 N 356.222 1.38976 -0.743202 0
M  V30 3831 C 357.447 2.05161 -0.303936 0
M  V30 3832 C 357.872 1.55677 1.05576 0
M  V30 3833 O 357.23 0.704131 1.67068 0
M  V30 3834 C 357.278 3.59138 -0.324373 0
M  V30 3835 O 356.382 4.06668 0.685204 0
M  V30 3836 H 355.723 0.649815 -0.136518 0
M  V30 3837 H 358.253 1.77852 -1.01142 0
M  V30 3838 H 358.263 4.07639 -0.171618 0
M  V30 3839 H 356.938 3.94515 -1.31647 0
M  V30 3840 H 355.515 3.69561 0.497913 0
M  V30 3841 N 357.7 0.491464 1.49741 0
M  V30 3842 C 358.648 -0.305837 2.30581 0
M  V30 3843 C 359.642 -0.971642 1.38764 0
M  V30 3844 O 360.848 -0.90042 1.5586 0
M  V30 3845 H 357.223 -0.117482 0.742767 0
M  V30 3846 H 359.194 0.396093 2.95759 0
M  V30 3847 C 357.943 -1.36319 3.19863 0
M  V30 3848 H 357.266 -0.860258 3.90435 0
M  V30 3849 H 358.706 -1.89323 3.79385 0
M  V30 3850 C 357.165 -2.37621 2.38826 0
M  V30 3851 O 357.695 -3.43311 2.08567 0
M  V30 3852 N 355.901 -2.09849 2.01026 0
M  V30 3853 H 355.448 -1.23922 2.25834 0
M  V30 3854 H 355.406 -2.77859 1.47112 0
M  V30 3855 N 359.178 -1.55987 0.224894 0
M  V30 3856 C 360.589 -1.84553 -0.282345 0
M  V30 3857 C 360.94 -1.14634 -1.59227 0
M  V30 3858 O 360.065 -0.417155 -2.12341 0
M  V30 3859 C 360.66 -3.348 -0.519062 0
M  V30 3860 C 359.219 -3.63671 -0.970604 0
M  V30 3861 C 358.366 -2.77277 -0.0355261 0
M  V30 3862 H 361.317 -1.52245 0.448006 0
M  V30 3863 H 361.338 -3.55187 -1.36463 0
M  V30 3864 H 360.85 -3.8566 0.43449 0
M  V30 3865 H 358.951 -3.1827 -1.9374 0
M  V30 3866 H 359.064 -4.71631 -0.842698 0
M  V30 3867 H 357.428 -2.48846 -0.542927 0
M  V30 3868 H 358.211 -3.30937 0.913003 0
M  V30 3869 N 360.656 0.0484629 -1.57525 0
M  V30 3870 C 361.586 1.0549 -2.08313 0
M  V30 3871 C 362.567 1.38929 -0.981463 0
M  V30 3872 O 363.752 1.48151 -1.25558 0
M  V30 3873 C 360.882 2.36162 -2.54646 0
M  V30 3874 C 359.836 2.17016 -3.68901 0
M  V30 3875 C 359.162 3.53278 -4.01371 0
M  V30 3876 C 360.462 1.57219 -4.98076 0
M  V30 3877 H 362.156 0.632195 -2.92649 0
M  V30 3878 H 359.702 0.302654 -1.40784 0
M  V30 3879 H 361.655 3.06882 -2.88793 0
M  V30 3880 H 360.379 2.80456 -1.67368 0
M  V30 3881 H 359.038 1.48733 -3.35073 0
M  V30 3882 H 358.686 3.95185 -3.11188 0
M  V30 3883 H 358.386 3.41299 -4.78318 0
M  V30 3884 H 359.91 4.25391 -4.38035 0
M  V30 3885 H 361.324 2.17832 -5.30304 0
M  V30 3886 H 359.721 1.55871 -5.79503 0
M  V30 3887 H 360.791 0.535956 -4.81929 0
M  V30 3888 N 362.134 1.5431 0.320358 0
M  V30 3889 C 363.38 1.72924 1.05949 0
M  V30 3890 C 363.713 0.503185 1.87568 0
M  V30 3891 O 362.988 -0.499839 1.87968 0
M  V30 3892 C 363.271 3.00676 1.98156 0
M  V30 3893 C 363.124 4.3354 1.19845 0
M  V30 3894 C 364.443 3.24198 2.9763 0
M  V30 3895 H 361.562 0.629195 0.383774 0
M  V30 3896 H 364.204 1.87008 0.335854 0
M  V30 3897 H 362.354 2.888 2.59859 0
M  V30 3898 H 364.026 4.57305 0.605773 0
M  V30 3899 H 362.269 4.309 0.500784 0
M  V30 3900 H 362.94 5.19156 1.87567 0
M  V30 3901 H 365.416 3.35557 2.4605 0
M  V30 3902 H 364.292 4.14938 3.59329 0
M  V30 3903 H 364.553 2.41577 3.7026 0
M  V30 3904 N 363.613 -0.582584 1.46437 0
M  V30 3905 C 364.576 -1.67366 1.56592 0
M  V30 3906 C 365.576 -1.54575 0.443072 0
M  V30 3907 O 366.766 -1.59191 0.707381 0
M  V30 3908 C 363.898 -3.06791 1.48634 0
M  V30 3909 H 365.091 -1.5972 2.5383 0
M  V30 3910 H 362.644 -0.800432 1.34249 0
M  V30 3911 H 363.379 -3.19993 0.526763 0
M  V30 3912 H 363.164 -3.17484 2.30101 0
M  V30 3913 H 364.654 -3.86218 1.58826 0
M  V30 3914 N 365.091 -1.34144 -0.827227 0
M  V30 3915 C 366.054 -1.25264 -1.91942 0
M  V30 3916 C 367.054 -0.168866 -1.59911 0
M  V30 3917 O 368.244 -0.421198 -1.69031 0
M  V30 3918 C 365.376 -0.932952 -3.27885 0
M  V30 3919 H 366.569 -2.22357 -2.0124 0
M  V30 3920 H 364.122 -1.1837 -1.0207 0
M  V30 3921 H 364.857 0.0349917 -3.24281 0
M  V30 3922 H 364.642 -1.71682 -3.52516 0
M  V30 3923 H 366.132 -0.895874 -4.07877 0
M  V30 3924 N 366.569 1.04691 -1.17803 0
M  V30 3925 C 367.516 2.12557 -0.899343 0
M  V30 3926 C 368.486 1.65339 0.158771 0
M  V30 3927 O 369.671 1.90789 0.0204797 0
M  V30 3928 C 366.811 3.42481 -0.424315 0
M  V30 3929 C 365.924 4.03346 -1.54713 0
M  V30 3930 C 365.059 5.21208 -1.02546 0
M  V30 3931 C 364.098 5.74089 -2.12339 0
M  V30 3932 N 363.235 6.83247 -1.61612 0
M  V30 3933 H 368.075 2.35734 -1.823 0
M  V30 3934 H 365.612 1.1564 -0.909159 0
M  V30 3935 H 367.57 4.16996 -0.130421 0
M  V30 3936 H 366.2 3.19471 0.462377 0
M  V30 3937 H 365.252 3.2622 -1.95664 0
M  V30 3938 H 366.564 4.38628 -2.37501 0
M  V30 3939 H 365.718 6.02812 -0.685718 0
M  V30 3940 H 364.457 4.87414 -0.167084 0
M  V30 3941 H 363.462 4.91111 -2.47165 0
M  V30 3942 H 364.687 6.0993 -2.98601 0
M  V30 3943 H 362.633 6.5134 -0.780533 0
M  V30 3944 H 362.55 7.17559 -2.38003 0
M  V30 3945 H 363.818 7.68491 -1.30545 0
M  V30 3946 N 368.047 0.979072 1.23499 0
M  V30 3947 C 368.977 0.537606 2.27227 0
M  V30 3948 C 369.958 -0.428539 1.64613 0
M  V30 3949 O 371.143 -0.322191 1.91509 0
M  V30 3950 C 368.273 -0.162052 3.46922 0
M  V30 3951 C 367.227 0.721242 4.21879 0
M  V30 3952 C 366.553 -0.110555 5.34586 0
M  V30 3953 C 367.853 2.01141 4.82016 0
M  V30 3954 H 369.547 1.40462 2.64406 0
M  V30 3955 H 367.093 0.67684 1.27102 0
M  V30 3956 H 369.046 -0.482192 4.18632 0
M  V30 3957 H 367.77 -1.06351 3.08799 0
M  V30 3958 H 366.429 1.02482 3.51984 0
M  V30 3959 H 366.077 -1.0125 4.92704 0
M  V30 3960 H 365.777 0.477325 5.85658 0
M  V30 3961 H 367.301 -0.425107 6.09118 0
M  V30 3962 H 368.715 1.75612 5.45741 0
M  V30 3963 H 367.112 2.54695 5.43369 0
M  V30 3964 H 368.182 2.69909 4.02836 0
M  V30 3965 N 369.525 -1.3858 0.750561 0
M  V30 3966 C 370.455 -2.33102 0.136237 0
M  V30 3967 C 371.436 -1.54713 -0.706965 0
M  V30 3968 O 372.621 -1.83043 -0.648769 0
M  V30 3969 C 369.751 -3.38882 -0.760017 0
M  V30 3970 C 368.705 -4.27995 -0.0197785 0
M  V30 3971 C 368.031 -5.24605 -1.03408 0
M  V30 3972 C 369.331 -5.09554 1.14684 0
M  V30 3973 H 371.025 -2.84726 0.925822 0
M  V30 3974 H 368.571 -1.36898 0.446654 0
M  V30 3975 H 370.524 -4.0397 -1.19943 0
M  V30 3976 H 369.248 -2.85734 -1.58189 0
M  V30 3977 H 367.907 -3.64409 0.400184 0
M  V30 3978 H 367.555 -4.67746 -1.84994 0
M  V30 3979 H 367.255 -5.85081 -0.543464 0
M  V30 3980 H 368.779 -5.9257 -1.47288 0
M  V30 3981 H 370.193 -5.67899 0.785118 0
M  V30 3982 H 368.59 -5.7925 1.56812 0
M  V30 3983 H 369.66 -4.4347 1.96118 0
M  V30 3984 N 371.003 -0.499398 -1.49478 0
M  V30 3985 C 371.951 0.293604 -2.3074 0
M  V30 3986 C 372.945 0.96427 -1.39277 0
M  V30 3987 O 374.151 0.892141 -1.56336 0
M  V30 3988 H 370.526 0.113541 -0.743379 0
M  V30 3989 H 372.497 -0.411772 -2.95545 0
M  V30 3990 C 371.246 1.3462 -3.20582 0
M  V30 3991 H 370.569 0.83954 -3.90886 0
M  V30 3992 H 372.009 1.87308 -3.80384 0
M  V30 3993 C 370.468 2.36351 -2.40083 0
M  V30 3994 O 370.998 3.422 -2.10385 0
M  V30 3995 N 369.204 2.0878 -2.02137 0
M  V30 3996 H 368.751 1.22723 -2.26488 0
M  V30 3997 H 368.709 2.77075 -1.48583 0
M  V30 3998 N 372.481 1.55866 -0.233164 0
M  V30 3999 C 373.73 1.97779 0.39579 0
M  V30 4000 C 374.043 1.12419 1.60066 0
M  V30 4001 O 375.249 1.44283 2.29988 0
M  V30 4002 C 373.705 3.5188 0.755556 0
M  V30 4003 C 373.313 4.45959 -0.427152 0
M  V30 4004 C 375.057 4.02479 1.34946 0
M  V30 4005 C 372.964 5.91383 -0.0443043 0
M  V30 4006 H 371.894 0.738592 0.15165 0
M  V30 4007 H 374.545 1.80486 -0.331212 0
M  V30 4008 H 372.927 3.64816 1.5403 0
M  V30 4009 H 374.101 4.44776 -1.20462 0
M  V30 4010 H 372.416 4.05765 -0.935068 0
M  V30 4011 H 375.013 5.08637 1.649 0
M  V30 4012 H 375.356 3.49014 2.26925 0
M  V30 4013 H 375.889 3.92813 0.62791 0
M  V30 4014 H 372.628 6.48857 -0.930874 0
M  V30 4015 H 372.148 5.95734 0.697238 0
M  V30 4016 H 373.827 6.45893 0.378334 0
M  V30 4017 N 373.959 -0.0401083 1.57549 0
M  V30 4018 C 375.37 -0.588097 1.77196 0
M  V30 4019 C 375.721 -1.76209 0.862832 0
M  V30 4020 O 374.846 -2.16331 0.0548389 0
M  V30 4021 C 375.441 -1.07363 3.21339 0
M  V30 4022 C 374 -1.56723 3.42221 0
M  V30 4023 C 373.147 -0.50041 2.72747 0
M  V30 4024 H 376.098 0.186119 1.57605 0
M  V30 4025 H 376.119 -1.94143 3.27244 0
M  V30 4026 H 375.631 -0.218975 3.87482 0
M  V30 4027 H 373.732 -2.4441 2.81237 0
M  V30 4028 H 373.845 -1.62234 4.50796 0
M  V30 4029 H 372.209 -0.952894 2.36203 0
M  V30 4030 H 372.992 0.344599 3.41566 0
M  V30 4031 N 375.437 -1.54477 -0.31217 0
M  V30 4032 C 376.853 -1.45442 -0.657185 0
M  V30 4033 C 377.053 -0.63653 -1.91182 0
M  V30 4034 O 376.109 -0.139815 -2.52113 0
M  V30 4035 C 377.422 -2.89287 -0.82058 0
M  V30 4036 C 378.97 -2.9926 -0.917188 0
M  V30 4037 C 379.445 -4.44279 -1.11267 0
M  V30 4038 N 380.936 -4.4794 -1.17914 0
M  V30 4039 C 381.671 -5.57318 -1.34848 0
M  V30 4040 N 381.167 -6.76642 -1.48752 0
M  V30 4041 N 382.96 -5.44986 -1.37647 0
M  V30 4042 H 375.111 -2.06129 0.512313 0
M  V30 4043 H 377.374 -0.933088 0.167485 0
M  V30 4044 H 377.08 -3.51687 0.0302604 0
M  V30 4045 H 376.954 -3.36061 -1.71298 0
M  V30 4046 H 379.341 -2.36981 -1.75852 0
M  V30 4047 H 379.422 -2.558 -0.00101257 0
M  V30 4048 H 379.066 -5.07149 -0.27614 0
M  V30 4049 H 378.996 -4.85359 -2.04289 0
M  V30 4050 H 381.487 -3.61969 -1.08567 0
M  V30 4051 H 381.8 -7.55758 -1.61397 0
M  V30 4052 H 380.145 -6.79529 -1.45828 0
M  V30 4053 H 383.336 -4.50715 -1.26388 0
M  V30 4054 H 383.509 -6.3028 -1.50501 0
M  V30 4055 N 376.915 0.57481 -1.46744 0
M  V30 4056 C 377.863 1.70435 -1.58286 0
M  V30 4057 C 378.857 1.63287 -0.450956 0
M  V30 4058 O 380.063 1.68685 -0.628121 0
M  V30 4059 H 376.438 0.56364 -0.497809 0
M  V30 4060 H 378.409 1.57833 -2.53242 0
M  V30 4061 C 377.158 3.08815 -1.59776 0
M  V30 4062 H 376.481 3.1499 -2.46214 0
M  V30 4063 H 377.921 3.87588 -1.71905 0
M  V30 4064 C 376.38 3.35301 -0.327812 0
M  V30 4065 O 376.91 3.97511 0.57861 0
M  V30 4066 N 375.116 2.89816 -0.213274 0
M  V30 4067 H 374.663 2.39371 -0.951798 0
M  V30 4068 H 374.621 3.0791 0.63553 0
M  V30 4069 N 378.394 1.34581 0.820102 0
M  V30 4070 C 379.357 1.2628 1.91275 0
M  V30 4071 C 380.357 0.177344 1.59819 0
M  V30 4072 O 381.547 0.430156 1.68806 0
M  V30 4073 C 378.679 0.950327 3.27386 0
M  V30 4074 H 379.872 2.23421 2.00057 0
M  V30 4075 H 377.425 1.1891 1.0144 0
M  V30 4076 H 378.16 -0.0177938 3.24295 0
M  V30 4077 H 377.945 1.73549 3.51601 0
M  V30 4078 H 379.435 0.917492 4.07396 0
M  V30 4079 N 379.872 -1.04064 1.18357 0
M  V30 4080 C 380.782 -2.15569 0.925596 0
M  V30 4081 C 381.798 -1.7365 -0.110295 0
M  V30 4082 O 382.974 -2.01273 0.0716218 0
M  V30 4083 C 380.039 -3.43704 0.454836 0
M  V30 4084 C 379.1 -4.00004 1.55869 0
M  V30 4085 C 378.333 -5.22023 1.1103 0
M  V30 4086 O 378.556 -5.70392 -0.0309756 0
M  V30 4087 O 377.49 -5.70856 1.90805 0
M  V30 4088 H 381.316 -2.40187 1.8586 0
M  V30 4089 H 378.901 -1.1402 0.965394 0
M  V30 4090 H 380.783 -4.20923 0.200382 0
M  V30 4091 H 379.458 -3.20559 -0.449876 0
M  V30 4092 H 378.365 -3.24172 1.86716 0
M  V30 4093 H 379.698 -4.2749 2.43953 0
M  V30 4094 N 381.35 -0.985608 -1.22978 0
M  V30 4095 C 382.596 -0.65836 -1.91816 0
M  V30 4096 C 382.929 0.806692 -1.76653 0
M  V30 4097 O 382.204 1.58252 -1.13078 0
M  V30 4098 C 382.487 -1.056 -3.44268 0
M  V30 4099 C 382.34 -2.57906 -3.68516 0
M  V30 4100 C 383.659 -0.603781 -4.35939 0
M  V30 4101 H 380.778 -0.24065 -0.696604 0
M  V30 4102 H 383.42 -1.22783 -1.44998 0
M  V30 4103 H 381.57 -0.571445 -3.84274 0
M  V30 4104 H 383.242 -3.13976 -3.3796 0
M  V30 4105 H 381.485 -3.00305 -3.13048 0
M  V30 4106 H 382.156 -2.80779 -4.75255 0
M  V30 4107 H 384.632 -1.01987 -4.03408 0
M  V30 4108 H 383.508 -0.910383 -5.41298 0
M  V30 4109 H 383.769 0.495761 -4.39312 0
M  V30 4110 N 382.828 1.3818 -0.7579 0
M  V30 4111 C 383.791 2.28764 -0.141286 0
M  V30 4112 C 384.791 1.47388 0.642907 0
M  V30 4113 O 385.981 1.67781 0.468536 0
M  V30 4114 C 383.113 3.31184 0.808069 0
M  V30 4115 H 384.306 2.848 -0.939633 0
M  V30 4116 H 381.859 1.47212 -0.525191 0
M  V30 4117 H 382.594 2.80247 1.63193 0
M  V30 4118 H 382.379 3.91314 0.248104 0
M  V30 4119 H 383.869 3.98909 1.23536 0
M  V30 4120 N 384.306 0.507319 1.49211 0
M  V30 4121 C 385.555 -0.0368315 2.01666 0
M  V30 4122 C 385.868 -1.37459 1.39156 0
M  V30 4123 O 387.074 -2.00579 1.82976 0
M  V30 4124 C 385.53 -0.116089 3.59713 0
M  V30 4125 C 385.138 1.2154 4.31198 0
M  V30 4126 C 386.882 -0.610268 4.2009 0
M  V30 4127 C 384.789 1.09796 5.81119 0
M  V30 4128 H 383.719 -0.0175376 0.753796 0
M  V30 4129 H 386.37 0.647691 1.71689 0
M  V30 4130 H 384.752 -0.8652 3.86433 0
M  V30 4131 H 385.926 1.9783 4.16173 0
M  V30 4132 H 384.241 1.64352 3.82593 0
M  V30 4133 H 386.838 -0.715742 5.29888 0
M  V30 4134 H 387.181 -1.61064 3.8388 0
M  V30 4135 H 387.714 0.0824916 3.97714 0
M  V30 4136 H 384.453 2.0728 6.21864 0
M  V30 4137 H 383.973 0.376058 5.9862 0
M  V30 4138 H 385.652 0.779281 6.4229 0
M  V30 4139 N 385.784 -1.5574 0.241426 0
M  V30 4140 C 387.03 -1.99104 -0.385406 0
M  V30 4141 C 387.363 -1.1293 -1.57988 0
M  V30 4142 O 386.638 -0.191449 -1.93555 0
M  V30 4143 C 386.921 -3.51087 -0.800616 0
M  V30 4144 C 386.774 -4.48028 0.398874 0
M  V30 4145 C 388.093 -4.08015 -1.64959 0
M  V30 4146 H 385.212 -0.723848 -0.138614 0
M  V30 4147 H 387.854 -1.86903 0.341642 0
M  V30 4148 H 386.004 -3.61615 -1.4201 0
M  V30 4149 H 387.676 -4.49487 1.03726 0
M  V30 4150 H 385.919 -4.21077 1.04293 0
M  V30 4151 H 386.59 -5.51962 0.0651056 0
M  V30 4152 H 389.066 -4.00555 -1.12672 0
M  V30 4153 H 387.942 -5.14635 -1.90898 0
M  V30 4154 H 388.203 -3.56131 -2.61961 0
M  V30 4155 N 387.262 0.0317525 -1.57568 0
M  V30 4156 C 388.502 0.727979 -1.90997 0
M  V30 4157 C 388.866 1.72664 -0.839708 0
M  V30 4158 O 390.067 2.47092 -1.05825 0
M  V30 4159 C 388.338 1.38239 -3.29583 0
M  V30 4160 S 389.897 2.10814 -3.84841 0
M  V30 4161 H 386.715 0.241226 -0.668828 0
M  V30 4162 H 389.317 -0.0173037 -1.95492 0
M  V30 4163 H 388.021 0.642288 -4.05343 0
M  V30 4164 H 387.552 2.16628 -3.28384 0
M  V30 4165 H 389.567 3.3792 -3.63352 0
M  V30 4166 N 388.74 1.54641 0.303973 0
M  V30 4167 C 389.687 1.85386 1.37479 0
M  V30 4168 C 390.657 0.702528 1.50512 0
M  V30 4169 O 391.842 0.950867 1.65418 0
M  V30 4170 C 388.982 2.10413 2.73533 0
M  V30 4171 C 388.095 3.38049 2.68974 0
M  V30 4172 C 387.23 3.52934 3.97002 0
M  V30 4173 C 386.269 4.74373 3.86829 0
M  V30 4174 N 385.406 4.8608 5.06627 0
M  V30 4175 H 390.246 2.76732 1.1056 0
M  V30 4176 H 387.783 1.37034 0.534805 0
M  V30 4177 H 389.741 2.22919 3.52652 0
M  V30 4178 H 388.371 1.22338 2.98719 0
M  V30 4179 H 387.423 3.3418 1.81736 0
M  V30 4180 H 388.735 4.27288 2.57346 0
M  V30 4181 H 387.889 3.65088 4.84557 0
M  V30 4182 H 386.628 2.61824 4.1146 0
M  V30 4183 H 385.633 4.62255 2.97658 0
M  V30 4184 H 386.858 5.66888 3.73918 0
M  V30 4185 H 384.804 3.97891 5.21554 0
M  V30 4186 H 384.721 5.69315 4.9741 0
M  V30 4187 H 385.989 5.02587 5.95841 0
M  V30 4188 N 390.218 -0.567019 1.47046 0
M  V30 4189 C 391.464 -1.32658 1.53394 0
M  V30 4190 C 391.797 -1.93254 0.19148 0
M  V30 4191 O 391.072 -1.77338 -0.798844 0
M  V30 4192 C 391.355 -2.44412 2.64452 0
M  V30 4193 C 391.208 -1.88749 4.08282 0
M  V30 4194 C 392.527 -3.46387 2.71485 0
M  V30 4195 H 389.646 -0.48098 0.558415 0
M  V30 4196 H 392.288 -0.635481 1.79058 0
M  V30 4197 H 390.438 -3.03363 2.427 0
M  V30 4198 H 392.11 -1.34134 4.41368 0
M  V30 4199 H 390.353 -1.19481 4.17021 0
M  V30 4200 H 391.024 -2.69491 4.81745 0
M  V30 4201 H 393.5 -2.9734 2.91081 0
M  V30 4202 H 392.376 -4.2202 3.50985 0
M  V30 4203 H 392.637 -4.04616 1.78153 0
M  V30 4204 N 391.696 -1.35014 -0.812953 0
M  V30 4205 C 392.629 -1.21761 -1.93001 0
M  V30 4206 C 393.607 -0.10694 -1.62248 0
M  V30 4207 O 394.791 -0.273891 -1.865 0
M  V30 4208 C 391.918 -0.873404 -3.27245 0
M  V30 4209 C 390.964 -1.99523 -3.76952 0
M  V30 4210 S 391.797 -3.61009 -3.95516 0
M  V30 4211 C 392.953 -3.28651 -5.32672 0
M  V30 4212 H 393.186 -2.16315 -2.03948 0
M  V30 4213 H 390.719 -1.20156 -0.969631 0
M  V30 4214 H 392.677 -0.68161 -4.04802 0
M  V30 4215 H 391.338 0.053971 -3.14054 0
M  V30 4216 H 390.531 -1.70838 -4.74163 0
M  V30 4217 H 390.133 -2.14503 -3.06373 0
M  V30 4218 H 392.425 -2.81085 -6.1644 0
M  V30 4219 H 393.368 -4.25039 -5.66346 0
M  V30 4220 H 393.776 -2.6458 -4.98656 0
M  V30 4221 N 393.175 1.03435 -1.18907 0
M  V30 4222 C 394.138 2.09756 -0.923844 0
M  V30 4223 C 395.138 1.60528 0.093416 0
M  V30 4224 O 396.328 1.73631 -0.140727 0
M  V30 4225 C 393.46 3.38692 -0.387354 0
M  V30 4226 H 394.653 2.34719 -1.86674 0
M  V30 4227 H 392.206 1.19959 -1.00197 0
M  V30 4228 H 392.941 3.19396 0.561845 0
M  V30 4229 H 392.726 3.75742 -1.12074 0
M  V30 4230 H 394.216 4.17016 -0.220694 0
M  V30 4231 N 394.653 0.992116 1.22453 0
M  V30 4232 C 395.563 0.55065 2.28046 0
M  V30 4233 C 396.579 -0.400189 1.69335 0
M  V30 4234 O 397.755 -0.267215 1.99619 0
M  V30 4235 C 394.82 -0.128496 3.46462 0
M  V30 4236 C 393.881 0.865208 4.20491 0
M  V30 4237 C 393.114 0.218377 5.33253 0
M  V30 4238 O 393.337 -0.987894 5.6178 0
M  V30 4239 O 392.271 0.922845 5.94783 0
M  V30 4240 H 396.097 1.4291 2.67975 0
M  V30 4241 H 393.682 0.760326 1.28606 0
M  V30 4242 H 395.564 -0.508947 4.18315 0
M  V30 4243 H 394.239 -0.981526 3.0846 0
M  V30 4244 H 393.146 1.29658 3.50913 0
M  V30 4245 H 394.479 1.68741 4.62371 0
M  V30 4246 N 396.131 -1.37776 0.765217 0
M  V30 4247 C 397.081 -2.2768 0.12075 0
M  V30 4248 C 398.065 -1.45778 -0.680988 0
M  V30 4249 O 399.257 -1.684 -0.545033 0
M  V30 4250 C 396.386 -3.34722 -0.762626 0
M  V30 4251 C 395.472 -4.24074 0.0465881 0
M  V30 4252 N 395.863 -4.93939 1.08892 0
M  V30 4253 C 394.161 -4.45643 -0.178418 0
M  V30 4254 C 394.862 -5.59845 1.57951 0
M  V30 4255 N 393.838 -5.36218 0.892797 0
M  V30 4256 H 397.64 -2.79166 0.918889 0
M  V30 4257 H 395.154 -1.50816 0.602353 0
M  V30 4258 H 397.151 -3.98031 -1.24005 0
M  V30 4259 H 395.811 -2.84793 -1.55959 0
M  V30 4260 H 396.822 -4.96572 1.47095 0
M  V30 4261 H 393.499 -4.06599 -0.9478 0
M  V30 4262 H 394.889 -6.25703 2.44838 0
M  V30 4263 N 397.609 -0.515225 -1.4894 0
M  V30 4264 C 398.855 0.0242508 -2.02785 0
M  V30 4265 C 399.188 1.35323 -1.39289 0
M  V30 4266 O 398.463 1.87041 -0.533469 0
M  V30 4267 C 398.746 0.16184 -3.59736 0
M  V30 4268 C 398.599 -1.19127 -4.33738 0
M  V30 4269 C 399.918 0.895719 -4.30888 0
M  V30 4270 H 397.037 0.00733914 -0.736963 0
M  V30 4271 H 399.679 -0.669395 -1.77818 0
M  V30 4272 H 397.829 0.752624 -3.8114 0
M  V30 4273 H 399.501 -1.82202 -4.23792 0
M  V30 4274 H 397.744 -1.77695 -3.95736 0
M  V30 4275 H 398.415 -1.04815 -5.41957 0
M  V30 4276 H 400.891 0.394528 -4.14225 0
M  V30 4277 H 399.767 0.960859 -5.40425 0
M  V30 4278 H 400.028 1.9427 -3.97129 0
M  V30 4279 N 399.087 1.5561 -0.249682 0
M  V30 4280 C 400.315 2.03411 0.378352 0
M  V30 4281 C 400.73 1.12886 1.51335 0
M  V30 4282 O 400.087 0.143833 1.81932 0
M  V30 4283 C 400.138 3.50537 0.88351 0
M  V30 4284 O 399.859 4.37614 -0.20626 0
M  V30 4285 C 401.36 4.14113 1.58195 0
M  V30 4286 H 398.58 0.664994 0.08958 0
M  V30 4287 H 401.124 2.01044 -0.374357 0
M  V30 4288 H 399.279 3.5343 1.58639 0
M  V30 4289 H 399.693 5.24199 0.177782 0
M  V30 4290 H 401.167 5.18741 1.8871 0
M  V30 4291 H 401.644 3.60767 2.50487 0
M  V30 4292 H 402.25 4.15151 0.923573 0
M  V30 4293 N 400.565 -0.0233959 1.57583 0
M  V30 4294 C 401.812 -0.713063 1.8953 0
M  V30 4295 C 402.14 -1.75056 0.847673 0
M  V30 4296 O 401.395 -1.95119 -0.150636 0
M  V30 4297 C 401.694 -1.41428 3.28227 0
M  V30 4298 C 401.36 -0.512222 4.47981 0
M  V30 4299 C 400.022 -0.263785 4.80476 0
M  V30 4300 C 402.374 0.110248 5.21083 0
M  V30 4301 C 399.702 0.615804 5.83459 0
M  V30 4302 C 402.054 0.977573 6.25001 0
M  V30 4303 C 400.718 1.23542 6.55968 0
M  V30 4304 H 399.988 -0.260928 0.69354 0
M  V30 4305 H 402.635 0.0271047 1.91481 0
M  V30 4306 H 400.94 -2.22791 3.22291 0
M  V30 4307 H 402.637 -1.95355 3.50196 0
M  V30 4308 H 399.227 -0.716013 4.22577 0
M  V30 4309 H 403.411 -0.0687137 4.96252 0
M  V30 4310 H 398.667 0.82382 6.05824 0
M  V30 4311 H 402.841 1.46638 6.80786 0
M  V30 4312 H 400.468 1.91871 7.35588 0
M  V30 4313 N 402.043 -1.548 -0.295768 0
M  V30 4314 C 402.991 -1.86874 -1.38495 0
M  V30 4315 C 403.985 -0.742938 -1.52239 0
M  V30 4316 O 405.191 -0.926999 -1.54294 0
M  V30 4317 H 401.566 -0.592786 -0.462719 0
M  V30 4318 H 403.537 -2.77904 -1.08682 0
M  V30 4319 C 402.286 -2.13732 -2.74252 0
M  V30 4320 H 401.609 -2.99835 -2.64459 0
M  V30 4321 H 403.049 -2.4011 -3.49461 0
M  V30 4322 C 401.508 -0.937539 -3.23592 0
M  V30 4323 O 402.038 -0.160665 -4.01379 0
M  V30 4324 N 400.244 -0.741478 -2.80981 0
M  V30 4325 H 399.791 -1.37489 -2.1784 0
M  V30 4326 H 399.749 0.0597103 -3.14343 0
M  V30 4327 N 403.521 0.559213 -1.47345 0
M  V30 4328 C 404.469 1.68747 -1.60085 0
M  V30 4329 C 405.463 1.628 -0.46825 0
M  V30 4330 O 406.669 1.68009 -0.645977 0
M  V30 4331 H 403.044 0.558329 -0.503759 0
M  V30 4332 H 405.015 1.55138 -2.54902 0
M  V30 4333 C 403.764 3.07103 -1.63042 0
M  V30 4334 H 403.087 3.12361 -2.49541 0
M  V30 4335 H 404.527 3.85743 -1.76006 0
M  V30 4336 C 402.986 3.34935 -0.363357 0
M  V30 4337 O 403.516 3.98102 0.536416 0
M  V30 4338 N 401.722 2.89574 -0.244 0
M  V30 4339 H 401.269 2.38348 -0.977133 0
M  V30 4340 H 401.227 3.08566 0.602836 0
M  V30 4341 N 404.999 1.35443 0.805782 0
M  V30 4342 C 406.41 1.25768 1.37983 0
M  V30 4343 C 406.761 -0.10958 1.95894 0
M  V30 4344 O 405.886 -1.01056 1.91355 0
M  V30 4345 C 406.481 2.27727 2.5085 0
M  V30 4346 C 405.04 2.2179 3.04115 0
M  V30 4347 C 404.187 2.13393 1.77084 0
M  V30 4348 H 407.138 1.4656 0.608752 0
M  V30 4349 H 407.159 1.90422 3.29424 0
M  V30 4350 H 406.671 3.27227 2.08671 0
M  V30 4351 H 404.772 1.25703 3.50756 0
M  V30 4352 H 404.885 3.13788 3.62042 0
M  V30 4353 H 403.249 1.59384 1.98668 0
M  V30 4354 H 404.032 3.14755 1.37056 0
M  V30 4355 N 406.477 -1.02803 1.19454 0
M  V30 4356 C 407.427 -2.0945 0.900827 0
M  V30 4357 C 408.411 -1.60335 -0.134715 0
M  V30 4358 O 409.603 -1.76857 0.0710924 0
M  V30 4359 C 406.732 -3.4044 0.442229 0
M  V30 4360 C 405.818 -3.96286 1.51056 0
M  V30 4361 N 406.209 -4.25785 2.73021 0
M  V30 4362 C 404.507 -4.24307 1.37404 0
M  V30 4363 C 405.208 -4.70654 3.41848 0
M  V30 4364 N 404.184 -4.72238 2.69243 0
M  V30 4365 H 407.986 -2.3015 1.82779 0
M  V30 4366 H 405.5 -1.20672 1.08683 0
M  V30 4367 H 407.497 -4.16354 0.21326 0
M  V30 4368 H 406.157 -3.21159 -0.478238 0
M  V30 4369 H 407.168 -4.15041 3.09776 0
M  V30 4370 H 403.845 -4.14285 0.517103 0
M  V30 4371 H 405.235 -5.02392 4.46152 0
M  V30 4372 N 407.956 -0.998596 -1.21925 0
M  V30 4373 C 409.233 -0.593401 -1.86382 0
M  V30 4374 C 409.613 0.92916 -1.89552 0
M  V30 4375 O 408.961 1.81347 -1.39017 0
M  V30 4376 C 409.171 -1.22039 -3.26967 0
M  V30 4377 C 410.519 -1.32449 -4.03413 0
M  V30 4378 O 411.543 -1.17522 -3.36254 0
M  V30 4379 O 410.402 -1.56395 -5.23644 0
M  V30 4380 H 407.496 -0.202385 -0.801854 0
M  V30 4381 H 410.042 -1.09484 -1.29659 0
M  V30 4382 H 408.814 -2.26158 -3.19325 0
M  V30 4383 H 408.437 -0.704906 -3.91301 0
M  V30 4384 N 409.434 1.37368 -0.772513 0
M  V30 4385 C 410.845 1.8231 -0.402493 0
M  V30 4386 C 411.196 1.6436 1.07146 0
M  V30 4387 O 410.321 1.15514 1.82991 0
M  V30 4388 C 410.916 3.30979 -0.723776 0
M  V30 4389 C 409.475 3.74195 -0.406802 0
M  V30 4390 C 408.622 2.59885 -0.967218 0
M  V30 4391 H 411.573 1.25829 -0.967099 0
M  V30 4392 H 411.594 3.80499 -0.00870832 0
M  V30 4393 H 411.106 3.44011 -1.7966 0
M  V30 4394 H 409.207 3.66732 0.658673 0
M  V30 4395 H 409.32 4.7027 -0.915588 0
M  V30 4396 H 407.684 2.51674 -0.391416 0
M  V30 4397 H 408.467 2.7571 -2.04546 0
M  V30 4398 N 410.912 0.523116 1.48665 0
M  V30 4399 C 412.142 -0.00961724 2.06598 0
M  V30 4400 C 412.55 -1.29333 1.38093 0
M  V30 4401 O 411.893 -1.77846 0.46007 0
M  V30 4402 C 411.955 -0.311135 3.58151 0
M  V30 4403 C 411.619 0.878092 4.48485 0
M  V30 4404 C 412.616 1.77464 4.88674 0
M  V30 4405 C 410.301 1.08315 4.90483 0
M  V30 4406 C 412.295 2.86021 5.69623 0
M  V30 4407 C 409.982 2.17187 5.71203 0
M  V30 4408 C 410.98 3.05873 6.10681 0
M  V30 4409 O 410.668 4.12862 6.89783 0
M  V30 4410 H 410.4 0.0272658 0.67545 0
M  V30 4411 H 412.954 0.726156 1.92136 0
M  V30 4412 H 411.184 -1.10079 3.70701 0
M  V30 4413 H 412.873 -0.785125 3.98234 0
M  V30 4414 H 413.639 1.62813 4.56855 0
M  V30 4415 H 409.518 0.402149 4.59243 0
M  V30 4416 H 413.062 3.55272 6.00356 0
M  V30 4417 H 408.959 2.31824 6.02435 0
M  V30 4418 H 409.727 4.10487 7.08126 0
M  V30 4419 N 412.39 -1.55475 0.257931 0
M  V30 4420 C 413.3 -2.2549 -0.647425 0
M  V30 4421 C 414.316 -1.2748 -1.18427 0
M  V30 4422 O 415.492 -1.6038 -1.2182 0
M  V30 4423 C 412.557 -2.94916 -1.82278 0
M  V30 4424 C 411.618 -4.08363 -1.32432 0
M  V30 4425 C 410.851 -4.74469 -2.44366 0
M  V30 4426 O 411.074 -4.39701 -3.63344 0
M  V30 4427 O 410.008 -5.62763 -2.13497 0
M  V30 4428 H 413.834 -3.03593 -0.0807707 0
M  V30 4429 H 411.419 -1.49377 0.0259962 0
M  V30 4430 H 413.301 -3.38606 -2.50846 0
M  V30 4431 H 411.976 -2.19744 -2.37685 0
M  V30 4432 H 410.883 -3.69166 -0.605605 0
M  V30 4433 H 412.216 -4.85385 -0.816211 0
M  V30 4434 N 413.868 0.0150385 -1.57593 0
M  V30 4435 C 415.116 0.701613 -1.8953 0
M  V30 4436 C 415.437 1.75139 -0.857396 0
M  V30 4437 O 414.707 1.95607 0.107194 0
M  V30 4438 H 413.287 0.26213 -0.699498 0
M  V30 4439 H 415.949 -0.0223304 -1.94887 0
M  V30 4440 H 415.045 1.18236 -2.88837 0
M  V30 4441 N 415.346 1.54954 0.287554 0
M  V30 4442 C 416.293 1.86834 1.35505 0
M  V30 4443 C 417.263 0.718452 1.49758 0
M  V30 4444 O 418.448 0.968358 1.644 0
M  V30 4445 C 415.588 2.13303 2.71286 0
M  V30 4446 C 414.701 3.40883 2.65373 0
M  V30 4447 C 413.836 3.57125 3.93236 0
M  V30 4448 C 412.875 4.78449 3.81776 0
M  V30 4449 N 412.012 4.91426 5.01443 0
M  V30 4450 H 416.852 2.77889 1.07619 0
M  V30 4451 H 414.389 1.37593 0.520241 0
M  V30 4452 H 416.347 2.26646 3.50267 0
M  V30 4453 H 414.977 1.25499 2.97405 0
M  V30 4454 H 414.029 3.36088 1.78182 0
M  V30 4455 H 415.341 4.29993 2.52799 0
M  V30 4456 H 414.495 3.70207 4.80658 0
M  V30 4457 H 413.234 2.66173 4.0866 0
M  V30 4458 H 412.239 4.65386 2.92738 0
M  V30 4459 H 413.464 5.70822 3.67884 0
M  V30 4460 H 411.41 4.03401 5.17304 0
M  V30 4461 H 411.327 5.74559 4.91343 0
M  V30 4462 H 412.595 5.08879 5.90477 0
M  V30 4463 N 416.824 -0.551391 1.4764 0
M  V30 4464 C 418.07 -1.31024 1.54792 0
M  V30 4465 C 418.403 -1.9304 0.211967 0
M  V30 4466 O 417.678 -1.78175 -0.77999 0
M  V30 4467 C 417.961 -2.41593 2.67029 0
M  V30 4468 C 417.814 -1.84408 4.10261 0
M  V30 4469 C 419.133 -3.43488 2.75143 0
M  V30 4470 H 416.252 -0.475031 0.563485 0
M  V30 4471 H 418.894 -0.616454 1.79722 0
M  V30 4472 H 417.044 -3.00772 2.45904 0
M  V30 4473 H 418.716 -1.29445 4.42766 0
M  V30 4474 H 416.959 -1.15051 4.18265 0
M  V30 4475 H 417.63 -2.64367 4.84576 0
M  V30 4476 H 420.106 -2.94236 2.94218 0
M  V30 4477 H 418.982 -4.18274 3.55441 0
M  V30 4478 H 419.243 -4.02703 1.82435 0
M  V30 4479 N 418.302 -1.35869 -0.798587 0
M  V30 4480 C 419.212 -1.31578 -1.94228 0
M  V30 4481 C 420.228 -0.21939 -1.72611 0
M  V30 4482 O 421.404 -0.450167 -1.96305 0
M  V30 4483 C 418.469 -1.09528 -3.28944 0
M  V30 4484 C 417.53 -2.28556 -3.63402 0
M  V30 4485 C 416.763 -2.07549 -4.9169 0
M  V30 4486 O 416.986 -1.046 -5.60727 0
M  V30 4487 O 415.92 -2.95106 -5.24591 0
M  V30 4488 H 419.746 -2.27847 -2.00796 0
M  V30 4489 H 417.331 -1.16322 -0.937526 0
M  V30 4490 H 419.213 -0.991127 -4.09579 0
M  V30 4491 H 417.888 -0.16315 -3.23289 0
M  V30 4492 H 416.795 -2.44538 -2.83112 0
M  V30 4493 H 418.128 -3.20244 -3.73771 0
M  V30 4494 N 419.78 1.02168 -1.19998 0
M  V30 4495 C 421.027 1.75685 -1.00702 0
M  V30 4496 C 421.355 1.88947 0.461426 0
M  V30 4497 O 420.61 1.40832 1.35885 0
M  V30 4498 C 420.909 3.18081 -1.62969 0
M  V30 4499 C 420.575 3.24809 -3.12746 0
M  V30 4500 C 419.237 3.26352 -3.53621 0
M  V30 4501 C 421.589 3.23379 -4.08749 0
M  V30 4502 C 418.917 3.2413 -4.89036 0
M  V30 4503 C 421.269 3.22698 -5.44104 0
M  V30 4504 C 419.933 3.22542 -5.84399 0
M  V30 4505 H 419.203 0.642877 -0.368496 0
M  V30 4506 H 421.85 1.19865 -1.49348 0
M  V30 4507 H 420.155 3.77027 -1.06573 0
M  V30 4508 H 421.852 3.73648 -1.45561 0
M  V30 4509 H 418.442 3.2434 -2.80181 0
M  V30 4510 H 422.626 3.21361 -3.78207 0
M  V30 4511 H 417.882 3.22338 -5.19527 0
M  V30 4512 H 422.056 3.20543 -6.18244 0
M  V30 4513 H 419.683 3.20575 -6.89301 0
M  V30 4514 N 421.258 1.00505 1.21394 0
M  V30 4515 C 422.205 0.565496 2.23765 0
M  V30 4516 C 423.175 -0.408466 1.60999 0
M  V30 4517 O 424.36 -0.310503 1.88257 0
M  V30 4518 C 421.5 -0.101667 3.4495 0
M  V30 4519 C 420.613 0.915479 4.22188 0
M  V30 4520 C 419.748 0.220574 5.30742 0
M  V30 4521 C 418.787 1.22527 5.99711 0
M  V30 4522 N 417.924 0.557831 6.9988 0
M  V30 4523 H 422.764 1.44314 2.60725 0
M  V30 4524 H 420.301 0.722643 1.28126 0
M  V30 4525 H 422.259 -0.505504 4.14126 0
M  V30 4526 H 420.889 -0.94303 3.08718 0
M  V30 4527 H 419.941 1.43756 3.52191 0
M  V30 4528 H 421.253 1.68005 4.69655 0
M  V30 4529 H 420.407 -0.239368 6.06228 0
M  V30 4530 H 419.146 -0.576401 4.84282 0
M  V30 4531 H 418.151 1.69571 5.22997 0
M  V30 4532 H 419.376 2.02332 6.48258 0
M  V30 4533 H 417.322 -0.219486 6.55633 0
M  V30 4534 H 417.239 1.26065 7.45415 0
M  V30 4535 H 418.507 0.121095 7.79406 0
M  V30 4536 N 422.737 -1.36956 0.779787 0
M  V30 4537 C 423.667 -2.32761 0.185651 0
M  V30 4538 C 424.648 -1.56177 -0.673989 0
M  V30 4539 O 425.833 -1.84378 -0.609797 0
M  V30 4540 C 422.963 -3.40418 -0.687964 0
M  V30 4541 C 421.917 -4.27941 0.0710102 0
M  V30 4542 C 421.243 -5.26681 -0.922573 0
M  V30 4543 C 422.543 -5.07006 1.25467 0
M  V30 4544 H 424.237 -2.82698 0.986008 0
M  V30 4545 H 421.783 -1.3592 0.475592 0
M  V30 4546 H 423.736 -4.06423 -1.11348 0
M  V30 4547 H 422.46 -2.89025 -1.52093 0
M  V30 4548 H 421.119 -3.63478 0.47739 0
M  V30 4549 H 420.767 -4.71565 -1.7503 0
M  V30 4550 H 420.467 -5.86103 -0.419237 0
M  V30 4551 H 421.991 -5.9556 -1.34686 0
M  V30 4552 H 423.405 -5.66105 0.905401 0
M  V30 4553 H 421.802 -5.75793 1.69063 0
M  V30 4554 H 422.872 -4.3921 2.05481 0
M  V30 4555 N 424.215 -0.530993 -1.48385 0
M  V30 4556 C 425.162 0.231223 -2.29639 0
M  V30 4557 C 426.132 0.932864 -1.37429 0
M  V30 4558 O 427.317 0.933692 -1.66394 0
M  V30 4559 C 424.457 1.27155 -3.2082 0
M  V30 4560 C 423.57 0.578655 -4.28107 0
M  V30 4561 C 422.705 1.602 -5.06467 0
M  V30 4562 C 421.744 0.892625 -6.05556 0
M  V30 4563 N 420.881 1.86157 -6.76971 0
M  V30 4564 H 425.721 -0.467848 -2.94305 0
M  V30 4565 H 423.258 -0.242556 -1.45086 0
M  V30 4566 H 425.216 1.88703 -3.72085 0
M  V30 4567 H 423.846 1.939 -2.58075 0
M  V30 4568 H 422.898 -0.150782 -3.80101 0
M  V30 4569 H 424.21 0.0217065 -4.98795 0
M  V30 4570 H 423.364 2.29173 -5.61751 0
M  V30 4571 H 422.103 2.19285 -4.35621 0
M  V30 4572 H 421.108 0.188829 -5.49476 0
M  V30 4573 H 422.333 0.307878 -6.78402 0
M  V30 4574 H 420.279 2.44147 -6.08875 0
M  V30 4575 H 420.196 1.35608 -7.43738 0
M  V30 4576 H 421.464 2.54325 -7.36844 0
M  V30 4577 N 425.693 1.55336 -0.266172 0
M  V30 4578 C 426.942 1.98574 0.353749 0
M  V30 4579 C 427.255 1.15789 1.57646 0
M  V30 4580 O 428.461 1.49129 2.26876 0
M  V30 4581 C 426.917 3.53403 0.680747 0
M  V30 4582 C 426.525 4.44953 -0.52165 0
M  V30 4583 C 428.269 4.05251 1.26379 0
M  V30 4584 C 426.176 5.91156 -0.169736 0
M  V30 4585 H 425.106 0.741643 0.135949 0
M  V30 4586 H 427.757 1.79743 -0.369421 0
M  V30 4587 H 426.139 3.68001 1.46257 0
M  V30 4588 H 427.313 4.42121 -1.29869 0
M  V30 4589 H 425.628 4.03691 -1.02093 0
M  V30 4590 H 428.225 5.12021 1.54074 0
M  V30 4591 H 428.568 3.53749 2.19471 0
M  V30 4592 H 429.101 3.94057 0.544447 0
M  V30 4593 H 425.84 6.46736 -1.0683 0
M  V30 4594 H 425.36 5.97079 0.570717 0
M  V30 4595 H 427.039 6.4655 0.241245 0
M  V30 4596 N 427.171 -0.0066808 1.57599 0
M  V30 4597 C 428.081 -1.01671 2.11424 0
M  V30 4598 C 429.097 -1.38143 1.05795 0
M  V30 4599 O 430.273 -1.47011 1.37658 0
M  V30 4600 C 427.338 -2.29192 2.60139 0
M  V30 4601 C 426.399 -1.99094 3.80342 0
M  V30 4602 C 425.632 -3.20535 4.26724 0
M  V30 4603 O 425.855 -4.3199 3.72479 0
M  V30 4604 O 424.789 -3.04924 5.18946 0
M  V30 4605 H 428.615 -0.589181 2.9793 0
M  V30 4606 H 426.2 -0.225091 1.47695 0
M  V30 4607 H 428.082 -3.0412 2.917 0
M  V30 4608 H 426.757 -2.71195 1.76733 0
M  V30 4609 H 425.664 -1.21663 3.53764 0
M  V30 4610 H 426.997 -1.61931 4.648 0
M  V30 4611 N 428.649 -1.55105 -0.279332 0
M  V30 4612 C 429.596 -1.8755 -1.34513 0
M  V30 4613 C 430.566 -0.726384 -1.49375 0
M  V30 4614 O 431.751 -0.977063 -1.63884 0
M  V30 4615 C 428.891 -2.14738 -2.70151 0
M  V30 4616 C 428.004 -3.42285 -2.63562 0
M  V30 4617 C 427.139 -3.59206 -3.91337 0
M  V30 4618 C 426.178 -4.80467 -3.79233 0
M  V30 4619 N 425.315 -4.94079 -4.98829 0
M  V30 4620 H 430.155 -2.78456 -1.06143 0
M  V30 4621 H 427.692 -1.37867 -0.512936 0
M  V30 4622 H 429.65 -2.28501 -3.49061 0
M  V30 4623 H 428.28 -1.27075 -2.96735 0
M  V30 4624 H 427.332 -3.37029 -1.76397 0
M  V30 4625 H 428.644 -4.31328 -2.50515 0
M  V30 4626 H 427.798 -3.72751 -4.78687 0
M  V30 4627 H 426.537 -2.68337 -4.07243 0
M  V30 4628 H 425.542 -4.66932 -2.90266 0
M  V30 4629 H 426.767 -5.72765 -3.64852 0
M  V30 4630 H 424.713 -4.06139 -5.15158 0
M  V30 4631 H 424.63 -5.77156 -4.8829 0
M  V30 4632 H 425.898 -5.12003 -5.8777 0
M  V30 4633 O 430.166 0.425144 -1.55804 0
M  V30 4634 H 430.857 1.07829 -1.60912 0
M  V30 END ATOM
M  V30 BEGIN BOND
M  V30 END BOND
M  V30 END CTAB
M  END
$$$$
