drugbank_target|Q9X266 L-allo-threonine aldolase (DB02824; DB03576; DB04083)
 OpenBabel12092120253D

  0  0  0     0  0            999 V3000
M  V30 BEGIN CTAB
M  V30 COUNTS 5295 5336 0 0 0
M  V30 BEGIN ATOM
M  V30 1 H -0.908 1.98254 -0.117106 0
M  V30 2 N 0 1.576 0 0
M  V30 3 C 0.933 2.03868 1.02534 0
M  V30 4 C 1.911 0.928543 1.3348 0
M  V30 5 O 3.095 1.19667 1.45644 0
M  V30 6 C 0.222 2.43627 2.35294 0
M  V30 7 C -0.732 3.65373 2.2001 0
M  V30 8 S 0.101 5.13292 1.52614 0
M  V30 9 C 1.257 5.56322 2.86805 0
M  V30 10 H 1.49 2.90518 0.631377 0
M  V30 11 H -0.977 1.52953 0.210867 0
M  V30 12 H 0.981 2.67203 3.11629 0
M  V30 13 H -0.358 1.57376 2.7183 0
M  V30 14 H -1.165 3.90944 3.18086 0
M  V30 15 H -1.563 3.418 1.51819 0
M  V30 16 H 0.729 5.58782 3.83104 0
M  V30 17 H 1.672 6.56266 2.65933 0
M  V30 18 H 2.08 4.83886 2.90714 0
M  V30 19 N 1.4781 -0.272755 1.55222 0
M  V30 20 C 2.7271 -1.00211 1.75045 0
M  V30 21 C 3.0401 -1.87441 0.559046 0
M  V30 22 O 4.2461 -2.63856 0.639698 0
M  V30 23 C 2.7021 -1.83165 3.09804 0
M  V30 24 C 2.3101 -1.008 4.36513 0
M  V30 25 C 4.0541 -2.55529 3.38977 0
M  V30 26 C 1.9611 -1.83194 5.62311 0
M  V30 27 H 0.8911 -0.377878 0.652476 0
M  V30 28 H 3.5421 -0.257776 1.8168 0
M  V30 29 H 1.9241 -2.61694 2.97207 0
M  V30 30 H 3.0981 -0.266855 4.60027 0
M  V30 31 H 1.4131 -0.398897 4.14485 0
M  V30 32 H 4.0101 -3.17578 4.30172 0
M  V30 33 H 4.3531 -3.25825 2.59121 0
M  V30 34 H 4.8861 -1.84029 3.52673 0
M  V30 35 H 1.6251 -1.17318 6.44916 0
M  V30 36 H 1.1451 -2.54905 5.4294 0
M  V30 37 H 2.8241 -2.40552 6.00619 0
M  V30 38 N 2.9562 -1.48159 -0.537278 0
M  V30 39 C 4.2332 -1.46291 -1.29839 0
M  V30 40 C 4.6132 -0.170613 -2.10409 0
M  V30 41 O 3.9612 0.847746 -2.12192 0
M  V30 42 C 4.1712 -2.72055 -2.18603 0
M  V30 43 C 5.5192 -3.20087 -2.7898 0
M  V30 44 O 6.5432 -2.72921 -2.28894 0
M  V30 45 O 5.4022 -4.02138 -3.70064 0
M  V30 46 H 2.4962 -0.583906 -0.585647 0
M  V30 47 H 5.0422 -1.60384 -0.554534 0
M  V30 48 H 3.8142 -3.57628 -1.58801 0
M  V30 49 H 3.4372 -2.60646 -3.00249 0
M  V30 50 N 4.4343 0.785586 -1.36625 0
M  V30 51 C 5.3643 1.91259 -1.33949 0
M  V30 52 C 6.3453 1.68795 -0.210325 0
M  V30 53 O 7.5303 1.89854 -0.408561 0
M  V30 54 C 4.6603 3.28339 -1.13186 0
M  V30 55 C 3.6143 3.65335 -2.22967 0
M  V30 56 C 2.9403 5.00806 -1.87342 0
M  V30 57 C 4.2403 3.7352 -3.65075 0
M  V30 58 H 5.9343 1.93755 -2.28253 0
M  V30 59 H 3.4803 0.930788 -1.09874 0
M  V30 60 H 5.4333 4.06804 -1.09948 0
M  V30 61 H 4.1573 3.2624 -0.153332 0
M  V30 62 H 2.8163 2.89169 -2.25337 0
M  V30 63 H 2.4643 4.95233 -0.880545 0
M  V30 64 H 2.1643 5.26529 -2.60846 0
M  V30 65 H 3.6883 5.81687 -1.85667 0
M  V30 66 H 5.1023 4.42168 -3.64911 0
M  V30 67 H 3.4993 4.10731 -4.37516 0
M  V30 68 H 4.5693 2.74527 -3.99703 0
M  V30 69 N 5.9124 1.20967 1.01018 0
M  V30 70 C 7.3284 0.965905 1.27053 0
M  V30 71 C 7.5284 -0.350785 1.98423 0
M  V30 72 O 6.5844 -1.07773 2.28344 0
M  V30 73 C 7.8974 2.15294 2.09926 0
M  V30 74 C 9.4454 2.19463 2.23171 0
M  V30 75 C 9.9204 3.3767 3.09424 0
M  V30 76 N 11.4114 3.37724 3.17012 0
M  V30 77 C 12.1464 4.25837 3.83993 0
M  V30 78 N 11.6424 5.24138 4.53047 0
M  V30 79 N 13.4354 4.1366 3.80581 0
M  V30 80 H 5.5864 2.0565 0.531194 0
M  V30 81 H 7.8494 0.90024 0.297106 0
M  V30 82 H 7.5554 3.10684 1.64828 0
M  V30 83 H 7.4294 2.13923 3.10672 0
M  V30 84 H 9.8164 1.24632 2.6749 0
M  V30 85 H 9.8974 2.2488 1.21912 0
M  V30 86 H 9.5414 4.32791 2.65808 0
M  V30 87 H 9.4714 3.29491 4.10784 0
M  V30 88 H 11.9624 2.6658 2.6785 0
M  V30 89 H 12.2754 5.87684 5.01844 0
M  V30 90 H 10.6204 5.28068 4.5185 0
M  V30 91 H 13.8114 3.36127 3.25785 0
M  V30 92 H 13.9844 4.82538 4.32505 0
M  V30 93 N 7.3905 -1.2043 1.01659 0
M  V30 94 C 8.6155 -1.94318 0.724942 0
M  V30 95 C 9.0405 -1.74266 -0.708034 0
M  V30 96 O 8.3985 -1.03694 -1.48719 0
M  V30 97 C 8.4465 -3.44486 1.06591 0
M  V30 98 O 7.5505 -4.12017 0.177599 0
M  V30 99 H 6.8915 -0.60708 0.26898 0
M  V30 100 H 9.4215 -1.52861 1.35995 0
M  V30 101 H 9.4315 -3.95106 1.01762 0
M  V30 102 H 8.1065 -3.58404 2.10997 0
M  V30 103 H 6.6835 -3.71821 0.283421 0
M  V30 104 N 8.8686 -0.792821 -1.36206 0
M  V30 105 C 10.1456 -0.290627 -1.93429 0
M  V30 106 C 10.5256 1.21773 -1.72437 0
M  V30 107 O 9.8736 2.0108 -1.08531 0
M  V30 108 C 10.0836 -0.686973 -3.42172 0
M  V30 109 C 11.4316 -0.668643 -4.19302 0
M  V30 110 O 12.4556 -0.627658 -3.50626 0
M  V30 111 O 11.3146 -0.714597 -5.41808 0
M  V30 112 H 8.4086 -0.0727927 -0.82379 0
M  V30 113 H 10.9546 -0.875593 -1.45367 0
M  V30 114 H 9.7266 -1.72711 -3.51122 0
M  V30 115 H 9.3496 -0.0760733 -3.97527 0
M  V30 116 N 10.3467 1.47872 -0.545128 0
M  V30 117 C 11.5747 2.06889 -0.021084 0
M  V30 118 C 11.9897 1.39955 1.2672 0
M  V30 119 O 11.3467 0.492036 1.75742 0
M  V30 120 C 11.3977 3.60996 0.190817 0
M  V30 121 O 11.1187 4.25419 -1.04644 0
M  V30 122 C 12.6197 4.36849 0.753521 0
M  V30 123 H 9.8397 0.669785 -0.0403635 0
M  V30 124 H 12.3837 1.90049 -0.755095 0
M  V30 125 H 10.5387 3.77391 0.87492 0
M  V30 126 H 10.9527 5.17785 -0.836611 0
M  V30 127 H 12.4267 5.45399 0.851139 0
M  V30 128 H 12.9037 4.02306 1.762 0
M  V30 129 H 13.5097 4.25169 0.105503 0
M  V30 130 N 11.8248 0.280983 1.55075 0
M  V30 131 C 13.0708 -0.33461 2.00021 0
M  V30 132 C 13.4038 -1.55063 1.16915 0
M  V30 133 O 12.6788 -1.93006 0.240646 0
M  V30 134 C 12.9618 -0.711007 3.53011 0
M  V30 135 C 12.8148 0.512766 4.46868 0
M  V30 136 C 14.1338 -1.54522 4.12081 0
M  V30 137 H 11.2528 -0.120147 0.727141 0
M  V30 138 H 13.8948 0.389097 1.85973 0
M  V30 139 H 12.0448 -1.32761 3.65112 0
M  V30 140 H 13.7168 1.15131 4.46702 0
M  V30 141 H 11.9598 1.14975 4.18286 0
M  V30 142 H 12.6308 0.205556 5.51617 0
M  V30 143 H 15.1068 -1.02442 4.03293 0
M  V30 144 H 13.9828 -1.77739 5.19327 0
M  V30 145 H 14.2438 -2.52813 3.62682 0
M  V30 146 N 13.3029 -1.57598 0.00835791 0
M  V30 147 C 14.5309 -1.95214 -0.68549 0
M  V30 148 C 14.9459 -0.883706 -1.66841 0
M  V30 149 O 14.3029 0.136565 -1.81988 0
M  V30 150 C 14.3539 -3.32865 -1.41007 0
M  V30 151 O 14.0749 -4.35609 -0.466552 0
M  V30 152 C 15.5759 -3.84991 -2.19765 0
M  V30 153 H 12.7959 -0.643422 -0.190392 0
M  V30 154 H 15.3399 -2.04406 0.0619607 0
M  V30 155 H 13.4949 -3.24956 -2.10908 0
M  V30 156 H 13.9089 -5.15288 -0.978699 0
M  V30 157 H 15.3829 -4.8371 -2.65948 0
M  V30 158 H 15.8599 -3.18137 -3.02796 0
M  V30 159 H 16.4659 -3.96103 -1.54864 0
M  V30 160 N 14.781 0.264519 -1.55364 0
M  V30 161 C 15.728 1.32717 -1.88825 0
M  V30 162 C 16.698 1.48675 -0.740605 0
M  V30 163 O 17.883 1.62945 -0.992657 0
M  V30 164 C 15.023 2.68089 -2.17307 0
M  V30 165 C 14.136 2.60284 -3.44785 0
M  V30 166 C 13.271 3.87892 -3.62924 0
M  V30 167 C 12.31 3.74631 -4.84064 0
M  V30 168 N 11.447 4.94092 -4.98816 0
M  V30 169 H 16.287 1.03481 -2.79456 0
M  V30 170 H 13.824 0.499757 -1.3835 0
M  V30 171 H 15.782 3.46864 -2.31821 0
M  V30 172 H 14.412 2.95509 -1.299 0
M  V30 173 H 13.464 1.73173 -3.38697 0
M  V30 174 H 14.776 2.46388 -4.33698 0
M  V30 175 H 13.93 4.75109 -3.77302 0
M  V30 176 H 12.669 4.04664 -2.7221 0
M  V30 177 H 11.674 2.85797 -4.69681 0
M  V30 178 H 12.899 3.5937 -5.76221 0
M  V30 179 H 10.845 5.11259 -4.11036 0
M  V30 180 H 10.762 4.8276 -5.81789 0
M  V30 181 H 12.03 5.82857 -5.17588 0
M  V30 182 N 16.2591 1.48442 0.529413 0
M  V30 183 C 17.6701 1.5002 1.11134 0
M  V30 184 C 18.0211 0.27031 1.94329 0
M  V30 185 O 17.1461 -0.622507 2.07253 0
M  V30 186 C 17.7411 2.71834 2.02217 0
M  V30 187 C 16.3001 2.76283 2.55627 0
M  V30 188 C 15.4471 2.43542 1.326 0
M  V30 189 H 18.3981 1.5555 0.314641 0
M  V30 190 H 18.4191 2.50384 2.8651 0
M  V30 191 H 17.9311 3.61331 1.41639 0
M  V30 192 H 16.0321 1.90995 3.19924 0
M  V30 193 H 16.1451 3.77725 2.94721 0
M  V30 194 H 14.5091 1.94709 1.64196 0
M  V30 195 H 15.2921 3.3528 0.737734 0
M  V30 196 N 17.7372 -0.778329 1.37039 0
M  V30 197 C 18.9652 -1.56734 1.35063 0
M  V30 198 C 19.3802 -1.88686 -0.0655597 0
M  V30 199 O 18.7372 -1.5096 -1.02554 0
M  V30 200 C 18.7882 -2.88163 2.18276 0
M  V30 201 O 18.5092 -2.57583 3.54376 0
M  V30 202 C 20.0102 -3.82422 2.24206 0
M  V30 203 H 17.2302 -0.485778 0.462883 0
M  V30 204 H 19.7742 -0.965185 1.8029 0
M  V30 205 H 17.9292 -3.44818 1.76576 0
M  V30 206 H 18.3432 -3.41699 3.97922 0
M  V30 207 H 19.8172 -4.71667 2.86765 0
M  V30 208 H 20.2942 -4.21078 1.24861 0
M  V30 209 H 20.9002 -3.31697 2.6619 0
M  V30 210 N 19.2153 -1.21501 -1.00376 0
M  V30 211 C 20.1253 -0.991447 -2.12621 0
M  V30 212 C 21.1413 0.0568446 -1.73907 0
M  V30 213 O 22.3173 -0.13348 -2.00957 0
M  V30 214 C 19.3823 -0.560312 -3.42142 0
M  V30 215 C 18.4433 -1.68096 -3.95022 0
M  V30 216 C 17.6763 -1.2703 -5.18362 0
M  V30 217 O 17.8993 -0.144438 -5.70217 0
M  V30 218 O 16.8333 -2.08269 -5.64719 0
M  V30 219 H 20.6593 -1.93158 -2.34358 0
M  V30 220 H 18.2443 -0.999999 -1.10997 0
M  V30 221 H 20.1263 -0.329724 -4.20108 0
M  V30 222 H 18.8013 0.351089 -3.2179 0
M  V30 223 H 17.7083 -1.96597 -3.18278 0
M  V30 224 H 19.0413 -2.56983 -4.19786 0
M  V30 225 N 20.6934 1.19889 -1.02296 0
M  V30 226 C 21.6034 2.26571 -0.608508 0
M  V30 227 C 22.6194 1.70299 0.356964 0
M  V30 228 O 23.7954 2.00235 0.216326 0
M  V30 229 C 20.8604 3.46677 0.0402814 0
M  V30 230 C 19.9214 4.18153 -0.97194 0
M  V30 231 C 19.1544 5.32525 -0.354016 0
M  V30 232 O 19.3774 5.64112 0.844604 0
M  V30 233 O 18.3114 5.92242 -1.07391 0
M  V30 234 H 22.1374 2.64251 -1.49684 0
M  V30 235 H 19.7224 1.26629 -0.792809 0
M  V30 236 H 21.6044 4.19475 0.402324 0
M  V30 237 H 20.2794 3.10858 0.902707 0
M  V30 238 H 19.1864 3.47499 -1.38546 0
M  V30 239 H 20.5194 4.57927 -1.80454 0
M  V30 240 N 22.1715 0.800033 1.35784 0
M  V30 241 C 23.1045 0.151499 2.27697 0
M  V30 242 C 24.0825 -0.678663 1.4776 0
M  V30 243 O 25.2665 -0.647358 1.77035 0
M  V30 244 C 22.3935 -0.790492 3.29346 0
M  V30 245 C 21.4395 -0.0407832 4.26481 0
M  V30 246 S 22.2725 1.29077 5.19711 0
M  V30 247 C 23.4285 0.353055 6.24903 0
M  V30 248 H 23.6615 0.930796 2.82353 0
M  V30 249 H 21.1945 0.594767 1.42485 0
M  V30 250 H 23.1525 -1.3285 3.88409 0
M  V30 251 H 21.8135 -1.54312 2.73581 0
M  V30 252 H 21.0065 -0.755971 4.98298 0
M  V30 253 H 20.6085 0.427063 3.71554 0
M  V30 254 H 22.9005 -0.464147 6.75908 0
M  V30 255 H 23.8435 1.04023 7.00418 0
M  V30 256 H 24.2515 -0.0483344 5.64479 0
M  V30 257 N 23.6496 -1.47581 0.552962 0
M  V30 258 C 25.0656 -1.5818 0.212424 0
M  V30 259 C 25.2656 -1.55213 -1.28496 0
M  V30 260 O 24.3216 -1.45329 -2.06484 0
M  V30 261 C 25.6346 -2.88865 0.835318 0
M  V30 262 C 27.1826 -3.0244 0.806156 0
M  V30 263 C 27.6576 -4.35819 1.40804 0
M  V30 264 N 29.1486 -4.42444 1.37103 0
M  V30 265 C 29.8836 -5.44202 1.80641 0
M  V30 266 N 29.3796 -6.52795 2.32015 0
M  V30 267 N 31.1726 -5.35222 1.71738 0
M  V30 268 H 23.3236 -1.47753 1.52587 0
M  V30 269 H 25.5866 -0.702941 0.636064 0
M  V30 270 H 25.2926 -2.9676 1.88749 0
M  V30 271 H 25.1666 -3.7579 0.325848 0
M  V30 272 H 27.5536 -2.94144 -0.237317 0
M  V30 273 H 27.6346 -2.17068 1.35334 0
M  V30 274 H 27.2786 -4.44871 2.45056 0
M  V30 275 H 27.2086 -5.19916 0.836338 0
M  V30 276 H 29.6996 -3.6456 0.995202 0
M  V30 277 H 30.0126 -7.26609 2.63171 0
M  V30 278 H 28.3576 -6.53696 2.36023 0
M  V30 279 H 31.5486 -4.49284 1.31382 0
M  V30 280 H 31.7216 -6.14389 2.05987 0
M  V30 281 N 25.1277 -0.289203 -1.54924 0
M  V30 282 C 26.0747 0.592115 -2.23075 0
M  V30 283 C 27.0447 1.13881 -1.20915 0
M  V30 284 O 28.2297 1.18551 -1.495 0
M  V30 285 C 25.3697 1.76376 -2.96623 0
M  V30 286 C 24.4827 1.24959 -4.13533 0
M  V30 287 C 23.6177 2.38416 -4.74691 0
M  V30 288 C 22.6567 1.84072 -5.83767 0
M  V30 289 N 21.7937 2.91057 -6.38929 0
M  V30 290 H 26.6337 0.00432038 -2.98 0
M  V30 291 H 24.1707 -0.00963529 -1.47097 0
M  V30 292 H 26.1287 2.45268 -3.3749 0
M  V30 293 H 24.7587 2.32337 -2.24097 0
M  V30 294 H 23.8107 0.453307 -3.77689 0
M  V30 295 H 25.1227 0.811662 -4.92152 0
M  V30 296 H 24.2767 3.15276 -5.18349 0
M  V30 297 H 23.0157 2.8553 -3.95378 0
M  V30 298 H 22.0207 1.05697 -5.39545 0
M  V30 299 H 23.2457 1.37877 -6.64956 0
M  V30 300 H 21.1917 3.37526 -5.62505 0
M  V30 301 H 21.1087 2.51724 -7.12861 0
M  V30 302 H 22.3767 3.6785 -6.87246 0
M  V30 303 N 26.6058 1.57591 -0.0167156 0
M  V30 304 C 27.5688 2.08393 0.954204 0
M  V30 305 C 28.5688 0.996531 1.26198 0
M  V30 306 O 29.7588 1.25858 1.20438 0
M  V30 307 C 26.8908 2.5394 2.27436 0
M  V30 308 H 28.0838 2.95455 0.514451 0
M  V30 309 H 25.6368 1.54582 0.231089 0
M  V30 310 H 26.3718 1.70171 2.76066 0
M  V30 311 H 26.1568 3.33371 2.06412 0
M  V30 312 H 27.6468 2.93512 2.97053 0
M  V30 313 N 28.0839 -0.256276 1.55502 0
M  V30 314 C 29.0169 -1.34321 1.84481 0
M  V30 315 C 29.9949 -1.46802 0.699131 0
M  V30 316 O 31.1789 -1.63165 0.943904 0
M  V30 317 C 28.3059 -2.71779 2.02123 0
M  V30 318 C 27.3519 -2.76496 3.24734 0
M  V30 319 S 28.1849 -2.3405 4.81644 0
M  V30 320 C 29.3409 -3.73452 5.02279 0
M  V30 321 H 29.5739 -1.09539 2.76385 0
M  V30 322 H 27.1069 -0.45678 1.47489 0
M  V30 323 H 29.0649 -3.50932 2.12972 0
M  V30 324 H 27.7259 -2.93803 1.11078 0
M  V30 325 H 26.9189 -3.77424 3.34016 0
M  V30 326 H 26.5209 -2.05379 3.12563 0
M  V30 327 H 28.8129 -4.6887 4.89047 0
M  V30 328 H 29.7559 -3.6911 6.04287 0
M  V30 329 H 30.1639 -3.6553 4.30172 0
M  V30 330 N 29.562 -1.4872 -0.521534 0
M  V30 331 C 30.525 -1.63379 -1.60748 0
M  V30 332 C 31.525 -0.50661 -1.52611 0
M  V30 333 O 32.715 -0.772601 -1.5613 0
M  V30 334 C 29.847 -1.61192 -3.00383 0
M  V30 335 H 31.04 -2.60217 -1.49087 0
M  V30 336 H 28.593 -1.37444 -0.744235 0
M  V30 337 H 29.328 -0.65863 -3.17541 0
M  V30 338 H 29.113 -2.43032 -3.07698 0
M  V30 339 H 30.603 -1.7466 -3.7932 0
M  V30 340 N 31.0401 0.771051 -1.3745 0
M  V30 341 C 31.9721 1.89352 -1.29146 0
M  V30 342 C 32.9851 1.61477 -0.207124 0
M  V30 343 O 34.1741 1.72382 -0.463324 0
M  V30 344 C 31.2741 3.24596 -0.974195 0
M  V30 345 C 30.4471 3.80111 -2.16413 0
M  V30 346 C 29.5061 4.93832 -1.81703 0
M  V30 347 O 28.5321 5.09382 -2.54006 0
M  V30 348 N 29.7341 5.75483 -0.761573 0
M  V30 349 H 32.4991 1.96991 -2.25864 0
M  V30 350 H 30.0601 0.950191 -1.31084 0
M  V30 351 H 32.0521 3.98193 -0.722828 0
M  V30 352 H 30.6221 3.12454 -0.0955527 0
M  V30 353 H 29.8421 2.98284 -2.57721 0
M  V30 354 H 31.1301 4.13932 -2.95867 0
M  V30 355 H 30.5281 5.65469 -0.161609 0
M  V30 356 H 29.0851 6.49302 -0.570064 0
M  V30 357 N 32.5182 1.22032 0.997298 0
M  V30 358 C 33.4812 0.987909 2.06816 0
M  V30 359 C 34.4812 -0.0440084 1.6074 0
M  V30 360 O 35.6712 0.194053 1.73116 0
M  V30 361 C 32.8032 0.49132 3.37341 0
M  V30 362 H 33.9962 1.93803 2.28868 0
M  V30 363 H 31.5492 1.03838 1.16822 0
M  V30 364 H 32.2842 -0.463364 3.20973 0
M  V30 365 H 32.0692 1.23575 3.72118 0
M  V30 366 H 33.5592 0.348824 4.16141 0
M  V30 367 N 33.9963 -1.19345 1.0293 0
M  V30 368 C 34.9063 -2.26245 0.620515 0
M  V30 369 C 35.9223 -1.70486 -0.347928 0
M  V30 370 O 37.0983 -2.00347 -0.205704 0
M  V30 371 C 34.1633 -3.46693 -0.0218957 0
M  V30 372 C 33.2243 -4.17632 0.994102 0
M  V30 373 C 32.4573 -5.32329 0.382253 0
M  V30 374 O 32.6803 -5.64552 -0.814676 0
M  V30 375 O 31.6143 -5.91664 1.10531 0
M  V30 376 H 35.4403 -2.63453 1.51083 0
M  V30 377 H 33.0253 -1.26207 0.799513 0
M  V30 378 H 34.9073 -4.19683 -0.380072 0
M  V30 379 H 33.5823 -3.11333 -0.886209 0
M  V30 380 H 32.4893 -3.4676 1.40387 0
M  V30 381 H 33.8223 -4.56964 1.8288 0
M  V30 382 N 35.4744 -0.807222 -1.35358 0
M  V30 383 C 36.7204 -0.388463 -1.99045 0
M  V30 384 C 37.0534 1.04184 -1.63888 0
M  V30 385 O 36.3284 1.72292 -0.902535 0
M  V30 386 C 36.6114 -0.572783 -3.55515 0
M  V30 387 C 36.4644 -2.04807 -4.00468 0
M  V30 388 C 37.7834 0.00114064 -4.401 0
M  V30 389 H 34.9024 -0.142619 -0.723069 0
M  V30 390 H 37.5444 -1.01687 -1.60498 0
M  V30 391 H 35.6944 -0.0378425 -3.88482 0
M  V30 392 H 37.3664 -2.64544 -3.77908 0
M  V30 393 H 35.6094 -2.54427 -3.51353 0
M  V30 394 H 36.2804 -2.12792 -5.09337 0
M  V30 395 H 38.7564 -0.455716 -4.13597 0
M  V30 396 H 37.6324 -0.157737 -5.48673 0
M  V30 397 H 37.8934 1.09488 -4.28328 0
M  V30 398 N 36.9525 1.47285 -0.560781 0
M  V30 399 C 38.2005 2.02064 -0.0379868 0
M  V30 400 C 38.5215 1.43711 1.31803 0
M  V30 401 O 37.7915 0.61362 1.86042 0
M  V30 402 H 36.3715 0.746918 -0.0110531 0
M  V30 403 H 39.0335 1.80648 -0.731598 0
M  V30 404 H 38.1295 3.12064 0.0474463 0
M  V30 405 N 38.4306 0.297415 1.54768 0
M  V30 406 C 39.7076 -0.365847 1.92148 0
M  V30 407 C 40.0876 -1.71975 1.22424 0
M  V30 408 O 39.4356 -2.25666 0.358739 0
M  V30 409 C 39.6456 -0.484056 3.45627 0
M  V30 410 C 40.9936 -0.756594 4.17805 0
M  V30 411 O 42.0176 -0.568007 3.51642 0
M  V30 412 O 40.8766 -1.11863 5.34929 0
M  V30 413 H 37.9706 -0.203919 0.801465 0
M  V30 414 H 40.5166 0.34521 1.66152 0
M  V30 415 H 39.2886 0.467865 3.88493 0
M  V30 416 H 38.9116 -1.24372 3.77647 0
M  V30 417 N 39.9087 -1.5758 0.0250728 0
M  V30 418 C 41.1857 -1.82917 -0.692873 0
M  V30 419 C 41.5657 -0.908137 -1.90568 0
M  V30 420 O 40.9137 0.0372298 -2.2847 0
M  V30 421 C 41.1237 -3.32034 -1.07492 0
M  V30 422 C 42.4717 -3.98406 -1.46826 0
M  V30 423 O 43.4957 -3.36505 -1.16801 0
M  V30 424 O 42.3547 -5.07497 -2.02754 0
M  V30 425 H 39.4487 -0.754079 -0.33955 0
M  V30 426 H 41.9947 -1.69619 0.0524456 0
M  V30 427 H 40.7667 -3.90728 -0.211552 0
M  V30 428 H 40.3897 -3.50424 -1.87854 0
M  V30 429 N 41.3868 0.248026 -1.55636 0
M  V30 430 C 42.6328 0.97767 -1.77678 0
M  V30 431 C 42.9658 1.85016 -0.590135 0
M  V30 432 O 42.2408 1.90095 0.411611 0
M  V30 433 C 42.5238 1.83914 -3.09593 0
M  V30 434 C 42.3768 0.99491 -4.38659 0
M  V30 435 C 43.6958 2.82183 -3.37729 0
M  V30 436 H 40.8148 0.354005 -0.646413 0
M  V30 437 H 43.4568 0.248253 -1.88371 0
M  V30 438 H 41.6068 2.46104 -3.00608 0
M  V30 439 H 43.2788 0.391789 -4.59633 0
M  V30 440 H 41.5218 0.299231 -4.32767 0
M  V30 441 H 42.1928 1.63145 -5.2734 0
M  V30 442 H 44.6688 2.30129 -3.4667 0
M  V30 443 H 43.5448 3.39582 -4.31249 0
M  V30 444 H 43.8058 3.58588 -2.58586 0
M  V30 445 N 42.8649 1.48995 0.513639 0
M  V30 446 C 44.0949 1.61297 1.291 0
M  V30 447 C 44.5029 0.278656 1.87137 0
M  V30 448 O 43.8459 -0.744325 1.67945 0
M  V30 449 C 43.9079 2.61326 2.46879 0
M  V30 450 C 43.5719 4.05993 2.09807 0
M  V30 451 C 44.5689 4.93183 1.64519 0
M  V30 452 C 42.2539 4.51642 2.19829 0
M  V30 453 C 44.2479 6.24056 1.2974 0
M  V30 454 C 41.9349 5.82532 1.84662 0
M  V30 455 C 42.9329 6.68562 1.3969 0
M  V30 456 O 42.6209 7.97014 1.04992 0
M  V30 457 H 42.3529 0.546236 0.39825 0
M  V30 458 H 44.9069 1.95673 0.62459 0
M  V30 459 H 43.1369 2.22104 3.16554 0
M  V30 460 H 44.8259 2.6329 3.08923 0
M  V30 461 H 45.5919 4.59147 1.56233 0
M  V30 462 H 41.4709 3.84855 2.53786 0
M  V30 463 H 45.0149 6.91161 0.945659 0
M  V30 464 H 40.9119 6.16099 1.92594 0
M  V30 465 H 41.6799 8.09913 1.18249 0
M  V30 466 N 44.343 -0.763751 1.37857 0
M  V30 467 C 45.591 -1.51957 1.33243 0
M  V30 468 C 45.912 -1.94835 -0.0801709 0
M  V30 469 O 45.182 -1.66894 -1.02582 0
M  V30 470 H 43.762 -0.563626 0.49024 0
M  V30 471 H 46.424 -0.908504 1.7243 0
M  V30 472 H 45.52 -2.41523 1.97669 0
M  V30 473 N 45.8211 -1.22559 -0.990812 0
M  V30 474 C 46.7311 -1.01394 -2.11557 0
M  V30 475 C 47.7471 0.0383962 -1.73958 0
M  V30 476 O 48.9231 -0.154787 -2.00804 0
M  V30 477 C 45.9881 -0.596569 -3.41529 0
M  V30 478 C 45.0491 -1.72276 -3.93217 0
M  V30 479 C 44.2821 -1.32521 -5.16985 0
M  V30 480 O 44.5051 -0.204909 -5.70032 0
M  V30 481 O 43.4391 -2.14247 -5.62478 0
M  V30 482 H 47.2651 -1.95633 -2.32296 0
M  V30 483 H 44.8501 -1.01172 -1.0993 0
M  V30 484 H 46.7321 -0.374263 -4.19735 0
M  V30 485 H 45.4071 0.316939 -3.22145 0
M  V30 486 H 44.3141 -1.99961 -3.16174 0
M  V30 487 H 45.6471 -2.61421 -4.17037 0
M  V30 488 N 47.2992 1.18797 -1.03562 0
M  V30 489 C 48.5762 1.84469 -0.650434 0
M  V30 490 C 48.9562 1.92319 0.870433 0
M  V30 491 O 48.3042 1.44528 1.76986 0
M  V30 492 C 48.5142 3.2306 -1.32036 0
M  V30 493 C 49.8622 3.9915 -1.44792 0
M  V30 494 O 50.8862 3.32481 -1.27806 0
M  V30 495 O 49.7452 5.18587 -1.72423 0
M  V30 496 H 46.8392 0.795251 -0.226946 0
M  V30 497 H 49.3852 1.26231 -1.13419 0
M  V30 498 H 48.1572 3.1222 -2.3587 0
M  V30 499 H 47.7802 3.88949 -0.8249 0
M  V30 500 N 48.7773 0.814389 1.34928 0
M  V30 501 C 50.1883 0.458364 1.80986 0
M  V30 502 C 50.5393 -1.02042 1.67577 0
M  V30 503 O 49.6643 -1.79352 1.21086 0
M  V30 504 C 50.2593 0.825212 3.28597 0
M  V30 505 C 48.8183 0.521677 3.72767 0
M  V30 506 C 47.9653 1.04668 2.56788 0
M  V30 507 H 50.9163 1.00533 1.22795 0
M  V30 508 H 50.9373 0.12571 3.80292 0
M  V30 509 H 50.4493 1.90154 3.38324 0
M  V30 510 H 48.5503 -0.545589 3.68584 0
M  V30 511 H 48.6633 1.05977 4.67232 0
M  V30 512 H 47.0273 0.468622 2.50352 0
M  V30 513 H 47.8103 2.12927 2.6929 0
M  V30 514 N 50.2554 -1.46986 0.568584 0
M  V30 515 C 51.4834 -2.0683 0.0539956 0
M  V30 516 C 51.8984 -1.41953 -1.24478 0
M  V30 517 O 51.2554 -0.519933 -1.74937 0
M  V30 518 C 51.3064 -3.61254 -0.133362 0
M  V30 519 O 51.0274 -4.237 1.11399 0
M  V30 520 C 52.5284 -4.37992 -0.683927 0
M  V30 521 H 49.7484 -0.669058 0.0510141 0
M  V30 522 H 52.2924 -1.88824 0.785234 0
M  V30 523 H 50.4474 -3.78735 -0.81477 0
M  V30 524 H 50.8614 -5.16388 0.91888 0
M  V30 525 H 52.3354 -5.46684 -0.764263 0
M  V30 526 H 52.8124 -4.05058 -1.69778 0
M  V30 527 H 53.4184 -4.25283 -0.0378494 0
M  V30 528 N 51.7335 -0.305618 -1.54608 0
M  V30 529 C 52.9825 0.303098 -1.9941 0
M  V30 530 C 53.2955 1.54648 -1.19764 0
M  V30 531 O 54.5015 2.23007 -1.54855 0
M  V30 532 C 52.9575 0.590588 -3.55021 0
M  V30 533 C 52.5655 -0.634719 -4.43481 0
M  V30 534 C 54.3095 1.16025 -4.08336 0
M  V30 535 C 52.2165 -0.320126 -5.90533 0
M  V30 536 H 51.1465 0.117031 -0.744862 0
M  V30 537 H 53.7975 -0.415045 -1.78745 0
M  V30 538 H 52.1795 1.36845 -3.71604 0
M  V30 539 H 53.3535 -1.41079 -4.38672 0
M  V30 540 H 51.6685 -1.12333 -4.00962 0
M  V30 541 H 54.2655 1.40994 -5.15776 0
M  V30 542 H 54.6085 2.10397 -3.5922 0
M  V30 543 H 55.1415 0.443985 -3.95315 0
M  V30 544 H 51.8805 -1.23254 -6.43808 0
M  V30 545 H 51.4005 0.418579 -5.98338 0
M  V30 546 H 53.0795 0.0766241 -6.46955 0
M  V30 547 N 53.2116 1.57565 -0.0334293 0
M  V30 548 C 54.1596 2.1164 0.96496 0
M  V30 549 C 55.1536 1.04398 1.33407 0
M  V30 550 O 56.3596 1.22828 1.3158 0
M  V30 551 H 52.7346 0.676222 0.32898 0
M  V30 552 H 54.7056 2.94455 0.483614 0
M  V30 553 C 53.4546 2.66207 2.23672 0
M  V30 554 H 52.7776 3.48378 1.96145 0
M  V30 555 H 54.2176 3.07685 2.9173 0
M  V30 556 C 52.6766 1.59151 2.96939 0
M  V30 557 O 53.2066 0.993858 3.89211 0
M  V30 558 N 51.4126 1.31093 2.59351 0
M  V30 559 H 50.9596 1.7988 1.84393 0
M  V30 560 H 50.9176 0.596889 3.08682 0
M  V30 561 N 54.6897 -0.239769 1.55765 0
M  V30 562 C 55.5997 -1.31831 1.94056 0
M  V30 563 C 56.6157 -1.52275 0.841925 0
M  V30 564 O 57.7917 -1.65759 1.14394 0
M  V30 565 C 54.8567 -2.65156 2.23368 0
M  V30 566 C 53.9177 -2.53173 3.46701 0
M  V30 567 C 53.1507 -3.8014 3.74606 0
M  V30 568 O 53.3737 -4.82343 3.04469 0
M  V30 569 O 52.3077 -3.78344 4.68123 0
M  V30 570 H 56.1337 -1.02347 2.85935 0
M  V30 571 H 53.7187 -0.441123 1.42739 0
M  V30 572 H 55.6007 -3.43929 2.43497 0
M  V30 573 H 54.2757 -2.94358 1.34666 0
M  V30 574 H 53.1827 -1.72662 3.31871 0
M  V30 575 H 54.5157 -2.28915 4.35728 0
M  V30 576 N 56.1678 -1.49265 -0.50573 0
M  V30 577 C 57.0978 -1.68495 -1.61653 0
M  V30 578 C 58.0788 -0.53366 -1.61512 0
M  V30 579 O 59.2638 -0.76897 -1.78327 0
M  V30 580 C 56.3938 -1.74709 -3.00157 0
M  V30 581 C 55.3478 -2.89581 -3.15162 0
M  V30 582 C 54.6738 -2.80903 -4.5497 0
M  V30 583 C 55.9738 -4.30578 -2.95634 0
M  V30 584 H 57.6678 -2.61493 -1.45814 0
M  V30 585 H 55.2138 -1.25838 -0.70005 0
M  V30 586 H 57.1668 -1.86748 -3.77761 0
M  V30 587 H 55.8908 -0.783067 -3.17074 0
M  V30 588 H 54.5498 -2.77136 -2.39982 0
M  V30 589 H 54.1978 -1.82419 -4.68756 0
M  V30 590 H 53.8978 -3.57999 -4.65951 0
M  V30 591 H 55.4218 -2.94944 -5.34641 0
M  V30 592 H 56.8358 -4.4373 -3.63011 0
M  V30 593 H 55.2328 -5.0886 -3.18091 0
M  V30 594 H 56.3028 -4.45352 -1.91806 0
M  V30 595 N 57.6459 0.756429 -1.3826 0
M  V30 596 C 58.5559 1.9009 -1.37488 0
M  V30 597 C 59.5719 1.71855 -0.272366 0
M  V30 598 O 60.7479 1.94827 -0.510318 0
M  V30 599 C 57.8129 3.25421 -1.19592 0
M  V30 600 C 56.8739 3.56202 -2.39622 0
M  V30 601 C 56.1069 4.85075 -2.2257 0
M  V30 602 O 56.3299 5.57246 -1.21793 0
M  V30 603 O 55.2639 5.15269 -3.11098 0
M  V30 604 H 59.0899 1.93695 -2.33914 0
M  V30 605 H 56.6749 0.901313 -1.1915 0
M  V30 606 H 58.5569 4.06337 -1.11661 0
M  V30 607 H 57.2319 3.22634 -0.262486 0
M  V30 608 H 56.1389 2.75458 -2.53128 0
M  V30 609 H 57.4719 3.63747 -3.31586 0
M  V30 610 N 59.124 1.23083 0.984299 0
M  V30 611 C 60.54 0.992637 1.24975 0
M  V30 612 C 60.74 -0.308618 1.99123 0
M  V30 613 O 59.796 -1.02905 2.30579 0
M  V30 614 C 61.109 2.19698 2.05312 0
M  V30 615 C 62.657 2.24147 2.18465 0
M  V30 616 C 63.132 3.44157 3.02192 0
M  V30 617 N 64.623 3.44372 3.09777 0
M  V30 618 C 65.358 4.33886 3.74874 0
M  V30 619 N 64.854 5.3363 4.41827 0
M  V30 620 N 66.647 4.21639 3.71721 0
M  V30 621 H 58.798 2.06731 0.487453 0
M  V30 622 H 61.061 0.906339 0.277944 0
M  V30 623 H 60.767 3.1411 1.58201 0
M  V30 624 H 60.641 2.20465 3.06064 0
M  V30 625 H 63.028 1.30277 2.64786 0
M  V30 626 H 63.109 2.27415 1.17115 0
M  V30 627 H 62.753 4.38332 2.56568 0
M  V30 628 H 62.683 3.3813 4.03702 0
M  V30 629 H 65.174 2.72201 2.62135 0
M  V30 630 H 65.487 5.98196 4.89266 0
M  V30 631 H 63.832 5.37534 4.40548 0
M  V30 632 H 67.023 3.42962 3.18582 0
M  V30 633 H 67.196 4.91604 4.22173 0
M  V30 634 N 60.6021 -1.18246 1.0419 0
M  V30 635 C 61.5321 -2.24127 0.654914 0
M  V30 636 C 62.5131 -1.66617 -0.342451 0
M  V30 637 O 63.6981 -1.92924 -0.222277 0
M  V30 638 C 60.8281 -3.47295 0.0183757 0
M  V30 639 C 59.7821 -4.17563 0.939414 0
M  V30 640 C 59.1081 -5.34438 0.167286 0
M  V30 641 C 60.4081 -4.70917 2.25908 0
M  V30 642 H 62.1021 -2.56753 1.54007 0
M  V30 643 H 59.6481 -1.23414 0.74195 0
M  V30 644 H 61.6011 -4.20572 -0.264082 0
M  V30 645 H 60.3251 -3.13907 -0.901664 0
M  V30 646 H 58.9841 -3.46186 1.20628 0
M  V30 647 H 58.6321 -4.97298 -0.7552 0
M  V30 648 H 58.3321 -5.82388 0.780901 0
M  V30 649 H 59.8561 -6.10504 -0.108125 0
M  V30 650 H 61.2701 -5.35882 2.03724 0
M  V30 651 H 59.6671 -5.29406 2.82577 0
M  V30 652 H 60.7371 -3.88272 2.9047 0
M  V30 653 N 62.0802 -0.821533 -1.34494 0
M  V30 654 C 63.0432 -0.247847 -2.27856 0
M  V30 655 C 64.0432 0.573453 -1.50227 0
M  V30 656 O 65.2332 0.389759 -1.69784 0
M  V30 657 C 62.3652 0.652698 -3.34593 0
M  V30 658 H 63.5582 -1.07146 -2.80107 0
M  V30 659 H 61.1112 -0.593291 -1.44602 0
M  V30 660 H 61.8462 1.49943 -2.87555 0
M  V30 661 H 61.6312 0.065292 -3.92046 0
M  V30 662 H 63.1212 1.04793 -4.04238 0
M  V30 663 N 63.5583 1.46682 -0.576371 0
M  V30 664 C 64.5213 2.28707 0.150239 0
M  V30 665 C 65.5213 1.38035 0.824794 0
M  V30 666 O 66.7113 1.60476 0.677719 0
M  V30 667 C 63.8433 3.18248 1.22192 0
M  V30 668 H 65.0363 2.94423 -0.570521 0
M  V30 669 H 62.5893 1.52688 -0.334078 0
M  V30 670 H 63.3243 2.57265 1.97447 0
M  V30 671 H 63.1093 3.85 0.742812 0
M  V30 672 H 64.5993 3.80001 1.73172 0
M  V30 673 N 65.0364 0.313813 1.54444 0
M  V30 674 C 65.9464 -0.565714 2.27677 0
M  V30 675 C 66.9624 -1.13754 1.31666 0
M  V30 676 O 68.1384 -1.15959 1.64668 0
M  V30 677 C 65.2034 -1.71528 3.01296 0
M  V30 678 C 64.2644 -1.17624 4.12872 0
M  V30 679 C 63.4974 -2.27102 4.8297 0
M  V30 680 O 63.7204 -3.47256 4.52514 0
M  V30 681 O 62.6544 -1.9307 5.70094 0
M  V30 682 H 66.4804 0.0287296 3.03686 0
M  V30 683 H 64.0654 0.0798312 1.49187 0
M  V30 684 H 65.9474 -2.38476 3.4743 0
M  V30 685 H 64.6224 -2.29608 2.2817 0
M  V30 686 H 63.5294 -0.472124 3.71109 0
M  V30 687 H 64.8624 -0.640695 4.88012 0
M  V30 688 N 66.5145 -1.57545 0.0417849 0
M  V30 689 C 67.7425 -1.96624 -0.643928 0
M  V30 690 C 68.1575 -0.918897 -1.64929 0
M  V30 691 O 67.5145 0.0979323 -1.82237 0
M  V30 692 C 67.5655 -3.35781 -1.33914 0
M  V30 693 O 67.2865 -4.365 -0.374048 0
M  V30 694 C 68.7875 -3.89566 -2.1155 0
M  V30 695 H 66.0075 -0.647316 -0.176702 0
M  V30 696 H 68.5515 -2.04229 0.105304 0
M  V30 697 H 66.7065 -3.29357 -2.03968 0
M  V30 698 H 67.1205 -5.17248 -0.869179 0
M  V30 699 H 68.5945 -4.89242 -2.55628 0
M  V30 700 H 69.0715 -3.24488 -2.9598 0
M  V30 701 H 69.6775 -3.99298 -1.46427 0
M  V30 702 N 67.9926 0.231505 -1.5589 0
M  V30 703 C 69.2396 0.957352 -1.78441 0
M  V30 704 C 69.5676 1.84726 -0.60882 0
M  V30 705 O 68.8226 1.91416 0.40725 0
M  V30 706 C 69.1216 1.83577 -3.0665 0
M  V30 707 C 68.7876 1.09993 -4.37278 0
M  V30 708 C 67.4496 0.896629 -4.72773 0
M  V30 709 C 69.8016 0.579558 -5.17968 0
M  V30 710 C 67.1296 0.160896 -5.86479 0
M  V30 711 C 69.4816 -0.142783 -6.32439 0
M  V30 712 C 68.1456 -0.357427 -6.66542 0
M  V30 713 H 67.4156 0.35032 -0.65296 0
M  V30 714 H 70.0626 0.226259 -1.90159 0
M  V30 715 H 68.3676 2.63441 -2.90011 0
M  V30 716 H 70.0646 2.39934 -3.21298 0
M  V30 717 H 66.6546 1.26835 -4.09403 0
M  V30 718 H 70.8386 0.724125 -4.90989 0
M  V30 719 H 66.0946 -0.0157293 -6.11398 0
M  V30 720 H 70.2686 -0.553559 -6.94196 0
M  V30 721 H 67.8956 -0.929466 -7.54497 0
M  V30 722 N 69.4707 1.49531 0.497807 0
M  V30 723 C 70.7187 1.58865 1.24926 0
M  V30 724 C 71.0397 0.278721 1.92998 0
M  V30 725 O 70.3097 -0.702144 1.82885 0
M  V30 726 H 68.8897 0.585343 0.464094 0
M  V30 727 H 71.5517 1.86174 0.57666 0
M  V30 728 H 70.6477 2.38633 2.01149 0
M  V30 729 N 70.9488 -0.749086 1.3866 0
M  V30 730 C 71.8958 -1.86291 1.36251 0
M  V30 731 C 72.8658 -1.64578 0.224347 0
M  V30 732 O 74.0508 -1.86181 0.417279 0
M  V30 733 C 71.1908 -3.23644 1.19786 0
M  V30 734 C 70.3038 -3.57158 2.43027 0
M  V30 735 C 69.4388 -4.83838 2.19258 0
M  V30 736 C 68.4778 -5.10152 3.38247 0
M  V30 737 N 67.6148 -6.28029 3.13884 0
M  V30 738 H 72.4548 -1.87685 2.3147 0
M  V30 739 H 69.9918 -0.917287 1.14997 0
M  V30 740 H 71.9498 -4.0291 1.08254 0
M  V30 741 H 70.5798 -3.21566 0.282031 0
M  V30 742 H 69.6318 -2.72701 2.65214 0
M  V30 743 H 70.9438 -3.7253 3.31697 0
M  V30 744 H 70.0978 -5.71057 2.04888 0
M  V30 745 H 68.8368 -4.70614 1.2796 0
M  V30 746 H 67.8418 -4.21401 3.53131 0
M  V30 747 H 69.0668 -5.25271 4.30427 0
M  V30 748 H 67.0128 -6.1612 2.25238 0
M  V30 749 H 66.9298 -6.43922 3.96106 0
M  V30 750 H 68.1978 -7.18124 3.03179 0
M  V30 751 N 72.4269 -1.23603 -0.977757 0
M  V30 752 C 73.3369 -1.03632 -2.1047 0
M  V30 753 C 74.3529 0.0199435 -1.73989 0
M  V30 754 O 75.5289 -0.176076 -2.00629 0
M  V30 755 C 72.5939 -0.63276 -3.40877 0
M  V30 756 C 71.6549 -1.76437 -3.91367 0
M  V30 757 C 70.8879 -1.37997 -5.15551 0
M  V30 758 O 71.1109 -0.265357 -5.69782 0
M  V30 759 O 70.0449 -2.20201 -5.60174 0
M  V30 760 H 73.8709 -1.98086 -2.30208 0
M  V30 761 H 71.4559 -1.02332 -1.08851 0
M  V30 762 H 73.3379 -0.418761 -4.19314 0
M  V30 763 H 72.0129 0.282754 -3.22463 0
M  V30 764 H 70.9199 -2.03304 -3.14036 0
M  V30 765 H 72.2529 -2.6583 -4.14241 0
M  V30 766 N 73.905 1.17692 -1.04816 0
M  V30 767 C 74.868 2.19787 -0.650117 0
M  V30 768 C 75.868 1.58044 0.296427 0
M  V30 769 O 77.058 1.74012 0.0808097 0
M  V30 770 C 74.19 3.40869 0.0456987 0
M  V30 771 H 75.383 2.56516 -1.5537 0
M  V30 772 H 72.936 1.31708 -0.841594 0
M  V30 773 H 73.671 3.09681 0.962726 0
M  V30 774 H 73.456 3.86928 -0.634727 0
M  V30 775 H 74.946 4.16445 0.310432 0
M  V30 776 N 75.3831 0.828654 1.34056 0
M  V30 777 C 76.3461 0.259927 2.27721 0
M  V30 778 C 77.3461 -0.565478 1.50529 0
M  V30 779 O 78.5361 -0.38075 1.69988 0
M  V30 780 C 75.6681 -0.634944 3.34935 0
M  V30 781 H 76.8611 1.0863 2.79534 0
M  V30 782 H 74.4141 0.600951 1.44285 0
M  V30 783 H 75.1491 -1.48416 2.88346 0
M  V30 784 H 74.9341 -0.0444999 3.92075 0
M  V30 785 H 76.4241 -1.02648 4.04788 0
M  V30 786 N 76.8612 -1.46375 0.584142 0
M  V30 787 C 77.7912 -2.33103 -0.136037 0
M  V30 788 C 78.7722 -1.45431 -0.882255 0
M  V30 789 O 79.9572 -1.74246 -0.857434 0
M  V30 790 C 77.0872 -3.27731 -1.14933 0
M  V30 791 C 76.0412 -4.24855 -0.517862 0
M  V30 792 C 75.3672 -5.09001 -1.63773 0
M  V30 793 C 76.6672 -5.19439 0.545886 0
M  V30 794 H 78.3612 -2.93568 0.588086 0
M  V30 795 H 75.9072 -1.41166 0.284259 0
M  V30 796 H 77.8602 -3.87261 -1.66153 0
M  V30 797 H 76.5842 -2.65377 -1.90375 0
M  V30 798 H 75.2432 -3.6659 -0.0267361 0
M  V30 799 H 74.8912 -4.43031 -2.38185 0
M  V30 800 H 74.5912 -5.74777 -1.22085 0
M  V30 801 H 76.1152 -5.71396 -2.15266 0
M  V30 802 H 77.5292 -5.73177 0.118704 0
M  V30 803 H 75.9262 -5.93566 0.88317 0
M  V30 804 H 76.9962 -4.63285 1.43162 0
M  V30 805 N 78.3393 -0.321999 -1.54275 0
M  V30 806 C 79.5863 0.281044 -2.0054 0
M  V30 807 C 79.9143 1.52265 -1.21019 0
M  V30 808 O 79.1693 1.93687 -0.279982 0
M  V30 809 C 79.4683 0.661769 -3.5122 0
M  V30 810 C 79.1343 -0.480482 -4.48333 0
M  V30 811 C 77.7963 -0.794005 -4.74604 0
M  V30 812 C 80.1483 -1.24783 -5.06042 0
M  V30 813 C 77.4763 -1.87763 -5.55844 0
M  V30 814 C 79.8283 -2.32153 -5.88462 0
M  V30 815 C 78.4923 -2.64089 -6.13036 0
M  V30 816 H 77.7623 0.102841 -0.733829 0
M  V30 817 H 80.4093 -0.445453 -1.86247 0
M  V30 818 H 78.7143 1.46867 -3.63232 0
M  V30 819 H 80.4113 1.13989 -3.84457 0
M  V30 820 H 77.0013 -0.226039 -4.28004 0
M  V30 821 H 81.1853 -1.01887 -4.85729 0
M  V30 822 H 76.4413 -2.12954 -5.73115 0
M  V30 823 H 80.6153 -2.92057 -6.32199 0
M  V30 824 H 78.2423 -3.48185 -6.75775 0
M  V30 825 N 79.8174 1.5752 -0.0501392 0
M  V30 826 C 81.0634 1.92936 0.624798 0
M  V30 827 C 81.3964 0.928685 1.70555 0
M  V30 828 O 80.6714 -0.0454779 1.94447 0
M  V30 829 C 80.9544 3.38737 1.22185 0
M  V30 830 C 80.8074 4.49552 0.149218 0
M  V30 831 C 82.1264 3.84913 2.13378 0
M  V30 832 H 79.2454 0.701604 0.225657 0
M  V30 833 H 81.8874 1.89671 -0.111693 0
M  V30 834 H 80.0374 3.4165 1.84953 0
M  V30 835 H 81.7094 4.58768 -0.482648 0
M  V30 836 H 79.9524 4.30638 -0.522841 0
M  V30 837 H 80.6234 5.48653 0.606966 0
M  V30 838 H 83.0994 3.8387 1.60572 0
M  V30 839 H 81.9754 4.87584 2.52097 0
M  V30 840 H 82.2364 3.21611 3.03346 0
M  V30 841 N 81.2955 -0.223234 1.56011 0
M  V30 842 C 82.7065 -0.790368 1.69145 0
M  V30 843 C 83.0575 -1.85055 0.651845 0
M  V30 844 O 82.1825 -2.15498 -0.197359 0
M  V30 845 C 82.7775 -1.4404 3.06656 0
M  V30 846 C 81.3365 -1.95494 3.2165 0
M  V30 847 C 80.4835 -0.814506 2.65068 0
M  V30 848 H 83.4345 0.00139011 1.587 0
M  V30 849 H 83.4555 -2.30916 3.0242 0
M  V30 850 H 82.9675 -0.668543 3.82298 0
M  V30 851 H 81.0685 -2.75487 2.50874 0
M  V30 852 H 81.1815 -2.13607 4.28846 0
M  V30 853 H 79.5455 -1.22137 2.23505 0
M  V30 854 H 80.3285 -0.0553515 3.43255 0
M  V30 855 N 82.7736 -1.49793 -0.48987 0
M  V30 856 C 83.9986 -1.63836 -1.27172 0
M  V30 857 C 84.4236 -0.31402 -1.8546 0
M  V30 858 O 83.7816 0.719803 -1.66399 0
M  V30 859 C 83.8296 -2.71797 -2.36978 0
M  V30 860 O 82.9336 -2.31744 -3.41128 0
M  V30 861 H 82.2746 -0.547997 -0.37496 0
M  V30 862 H 84.8046 -1.96053 -0.585191 0
M  V30 863 H 84.8146 -2.94305 -2.82575 0
M  V30 864 H 83.4896 -3.67923 -1.93921 0
M  V30 865 H 82.0666 -2.1961 -3.01373 0
M  V30 866 N 84.2517 0.741722 -1.39055 0
M  V30 867 C 85.4997 1.49818 -1.35643 0
M  V30 868 C 85.8207 1.94938 0.0491642 0
M  V30 869 O 85.0907 1.68505 0.999141 0
M  V30 870 H 83.6707 0.555755 -0.499144 0
M  V30 871 H 86.3327 0.880957 -1.73854 0
M  V30 872 H 85.4287 2.38348 -2.01486 0
M  V30 873 N 85.7298 1.2412 0.971189 0
M  V30 874 C 86.9578 1.10575 1.74874 0
M  V30 875 C 87.3728 -0.342017 1.85676 0
M  V30 876 O 86.7298 -1.23617 1.34258 0
M  V30 877 C 86.7808 1.73579 3.171 0
M  V30 878 O 86.5018 3.12695 3.06844 0
M  V30 879 C 88.0028 1.65598 4.11208 0
M  V30 880 H 85.2228 0.386504 0.548503 0
M  V30 881 H 87.7668 1.64156 1.21955 0
M  V30 882 H 85.9218 1.24009 3.67016 0
M  V30 883 H 86.3358 3.43412 3.96445 0
M  V30 884 H 87.8098 2.1437 5.08674 0
M  V30 885 H 88.2868 0.616532 4.34851 0
M  V30 886 H 88.8928 2.14578 3.67201 0
M  V30 887 N 87.2079 -1.17134 1.05439 0
M  V30 888 C 88.1409 -2.2012 0.601855 0
M  V30 889 C 89.1189 -1.58314 -0.370854 0
M  V30 890 O 90.3029 -1.8638 -0.281882 0
M  V30 891 C 87.4299 -3.38491 -0.118868 0
M  V30 892 C 86.4759 -4.18752 0.809242 0
M  V30 893 S 87.3089 -4.83602 2.29977 0
M  V30 894 C 88.4649 -6.0536 1.59029 0
M  V30 895 H 88.6979 -2.58165 1.47438 0
M  V30 896 H 86.2309 -1.27788 0.866573 0
M  V30 897 H 88.1889 -4.07084 -0.528495 0
M  V30 898 H 86.8499 -2.98829 -0.967465 0
M  V30 899 H 86.0429 -5.03373 0.251379 0
M  V30 900 H 85.6449 -3.5561 1.15835 0
M  V30 901 H 87.9369 -6.71615 0.891017 0
M  V30 902 H 88.8799 -6.65679 2.41407 0
M  V30 903 H 89.2879 -5.54138 1.07663 0
M  V30 904 N 88.686 -0.835752 -1.33615 0
M  V30 905 C 89.934 -0.429109 -1.97492 0
M  V30 906 C 90.255 1.01433 -1.66543 0
M  V30 907 O 89.525 1.70611 -0.962744 0
M  V30 908 H 88.105 -0.155686 -0.730596 0
M  V30 909 H 90.767 -1.06802 -1.63031 0
M  V30 910 H 89.863 -0.55861 -3.0706 0
M  V30 911 N 90.1641 1.46063 -0.591896 0
M  V30 912 C 91.1121 2.32124 0.148739 0
M  V30 913 C 92.1061 1.45035 0.875286 0
M  V30 914 O 93.3121 1.61609 0.792632 0
M  V30 915 H 89.6871 0.749024 0.066832 0
M  V30 916 H 91.6581 2.92392 -0.595783 0
M  V30 917 C 90.4071 3.28373 1.1431 0
M  V30 918 H 89.7301 3.95371 0.59346 0
M  V30 919 H 91.1701 3.91352 1.63155 0
M  V30 920 C 89.6291 2.54393 2.20875 0
M  V30 921 O 90.1591 2.31373 3.28374 0
M  V30 922 N 88.3651 2.14797 1.95731 0
M  V30 923 H 87.9121 2.33719 1.08319 0
M  V30 924 H 87.8701 1.65619 2.67241 0
M  V30 925 N 91.6422 0.330177 1.54103 0
M  V30 926 C 92.5742 -0.566902 2.22079 0
M  V30 927 C 93.5872 -1.07462 1.22294 0
M  V30 928 O 94.7762 -0.987065 1.48726 0
M  V30 929 C 91.8762 -1.79138 2.87685 0
M  V30 930 C 91.0492 -1.42123 4.13666 0
M  V30 931 C 90.1082 -2.50394 4.62806 0
M  V30 932 O 89.1342 -2.14261 5.27334 0
M  V30 933 N 90.3362 -3.81433 4.37595 0
M  V30 934 H 93.1012 0.0151844 2.99696 0
M  V30 935 H 90.6622 0.153681 1.61169 0
M  V30 936 H 92.6542 -2.50975 3.1748 0
M  V30 937 H 91.2242 -2.28115 2.13734 0
M  V30 938 H 90.4442 -0.534201 3.90564 0
M  V30 939 H 91.7322 -1.14971 4.9564 0
M  V30 940 H 91.1302 -4.13584 3.8596 0
M  V30 941 H 89.6872 -4.4948 4.72029 0
M  V30 942 N 93.1203 -1.57491 0.0584922 0
M  V30 943 C 94.3663 -1.93264 -0.614558 0
M  V30 944 C 94.6993 -0.937717 -1.7006 0
M  V30 945 O 93.9743 0.0351652 -1.94468 0
M  V30 946 C 94.2573 -3.3938 -1.20386 0
M  V30 947 C 94.1103 -4.49625 -0.125375 0
M  V30 948 C 95.4293 -3.86039 -2.11334 0
M  V30 949 H 92.5483 -0.702791 -0.221933 0
M  V30 950 H 95.1903 -1.8961 0.12175 0
M  V30 951 H 93.3403 -3.42626 -1.83139 0
M  V30 952 H 95.0123 -4.58506 0.506971 0
M  V30 953 H 93.2553 -4.30354 0.545672 0
M  V30 954 H 93.9263 -5.48967 -0.577861 0
M  V30 955 H 96.4023 -3.84716 -1.58534 0
M  V30 956 H 95.2783 -4.88914 -2.49507 0
M  V30 957 H 95.5393 -3.23215 -3.01636 0
M  V30 958 N 94.5984 0.214957 -1.56127 0
M  V30 959 C 95.8234 0.95924 -1.83884 0
M  V30 960 C 96.2484 1.7689 -0.639644 0
M  V30 961 O 95.6064 1.76566 0.411601 0
M  V30 962 C 95.6544 1.84723 -3.09693 0
M  V30 963 O 94.7584 2.94346 -2.8885 0
M  V30 964 H 94.0994 0.27125 -0.606069 0
M  V30 965 H 96.6294 0.226276 -2.03345 0
M  V30 966 H 96.6394 2.25576 -3.39969 0
M  V30 967 H 95.3144 1.25218 -3.96602 0
M  V30 968 H 93.8914 2.57391 -2.69823 0
M  V30 969 N 96.0765 1.50051 0.48192 0
M  V30 970 C 97.3255 1.59741 1.23149 0
M  V30 971 C 97.6385 0.298163 1.93314 0
M  V30 972 O 98.8445 0.273835 2.70116 0
M  V30 973 C 97.3005 2.81926 2.23708 0
M  V30 974 C 96.9085 4.18685 1.59396 0
M  V30 975 C 98.6525 3.00956 2.99375 0
M  V30 976 C 96.5595 5.3207 2.58178 0
M  V30 977 H 95.4895 0.594838 0.46334 0
M  V30 978 H 98.1405 1.76467 0.503169 0
M  V30 979 H 96.5225 2.58736 2.99786 0
M  V30 980 H 97.6965 4.52088 0.891811 0
M  V30 981 H 96.0115 4.05171 0.960503 0
M  V30 982 H 98.6085 3.82836 3.73283 0
M  V30 983 H 98.9515 2.12258 3.58123 0
M  V30 984 H 99.4845 3.24277 2.30411 0
M  V30 985 H 96.2235 6.22888 2.04184 0
M  V30 986 H 95.7435 5.03098 3.26577 0
M  V30 987 H 97.4225 5.62196 3.20225 0
M  V30 988 N 97.5546 -0.734337 1.39446 0
M  V30 989 C 98.4876 -1.85715 1.32609 0
M  V30 990 C 99.4656 -1.6137 0.199636 0
M  V30 991 O 100.65 -1.84626 0.380195 0
M  V30 992 C 97.7766 -3.21709 1.05929 0
M  V30 993 C 96.8226 -3.64913 2.20773 0
M  V30 994 S 97.6556 -3.74203 3.83056 0
M  V30 995 C 98.8116 -5.12986 3.58603 0
M  V30 996 H 99.0446 -1.91232 2.27635 0
M  V30 997 H 96.5776 -0.899263 1.25509 0
M  V30 998 H 98.5356 -4.00236 0.912203 0
M  V30 999 H 97.1966 -3.13848 0.125883 0
M  V30 1000 H 96.3896 -4.63606 1.97699 0
M  V30 1001 H 95.9916 -2.93593 2.31688 0
M  V30 1002 H 98.2836 -5.99339 3.15909 0
M  V30 1003 H 99.2266 -5.41088 4.5676 0
M  V30 1004 H 99.6346 -4.82694 2.9269 0
M  V30 1005 N 99.0327 -1.24633 -0.964593 0
M  V30 1006 C 99.9957 -1.0424 -2.04124 0
M  V30 1007 C 100.996 0.00137563 -1.608 0
M  V30 1008 O 102.186 -0.239883 -1.7254 0
M  V30 1009 C 99.3177 -0.580588 -3.3592 0
M  V30 1010 H 100.511 -1.99803 -2.23649 0
M  V30 1011 H 98.0637 -1.06899 -1.14027 0
M  V30 1012 H 98.7987 0.3781 -3.22088 0
M  V30 1013 H 98.5837 -1.33398 -3.6871 0
M  V30 1014 H 100.074 -0.459034 -4.15069 0
M  V30 1015 N 100.511 1.16574 -1.06058 0
M  V30 1016 C 101.461 2.18854 -0.63929 0
M  V30 1017 C 102.445 1.57505 0.328798 0
M  V30 1018 O 103.637 1.76408 0.144623 0
M  V30 1019 C 100.766 3.43291 -0.0247203 0
M  V30 1020 C 99.8518 4.11722 -1.01716 0
M  V30 1021 N 100.243 4.55841 -2.19186 0
M  V30 1022 C 98.5408 4.37872 -0.847569 0
M  V30 1023 C 99.2418 5.08751 -2.82042 0
M  V30 1024 N 98.2178 5.01489 -2.09784 0
M  V30 1025 H 102.02 2.5068 -1.53417 0
M  V30 1026 H 99.5338 1.32999 -0.931935 0
M  V30 1027 H 101.531 4.15856 0.294915 0
M  V30 1028 H 100.191 3.12954 0.865448 0
M  V30 1029 H 101.202 4.49649 -2.56975 0
M  V30 1030 H 97.8788 4.17499 -0.00918848 0
M  V30 1031 H 99.2688 5.52944 -3.81709 0
M  V30 1032 N 101.989 0.842826 1.3317 0
M  V30 1033 C 103.217 0.454055 2.01856 0
M  V30 1034 C 103.632 -0.94587 1.63397 0
M  V30 1035 O 102.989 -1.61534 0.849302 0
M  V30 1036 C 103.04 0.569715 3.56982 0
M  V30 1037 O 102.761 1.91448 3.94055 0
M  V30 1038 C 104.262 0.178412 4.42941 0
M  V30 1039 H 101.482 0.17979 0.646465 0
M  V30 1040 H 104.026 1.1365 1.70012 0
M  V30 1041 H 102.181 -0.0648587 3.87346 0
M  V30 1042 H 102.595 1.90282 4.88767 0
M  V30 1043 H 104.069 0.310376 5.51127 0
M  V30 1044 H 104.546 -0.880056 4.30293 0
M  V30 1045 H 105.152 0.787579 4.17944 0
M  V30 1046 N 103.467 -1.45747 0.599634 0
M  V30 1047 C 104.399 -2.28628 -0.161879 0
M  V30 1048 C 105.412 -1.39494 -0.839367 0
M  V30 1049 O 106.601 -1.63941 -0.706089 0
M  V30 1050 C 103.701 -3.15014 -1.24976 0
M  V30 1051 C 102.874 -4.32378 -0.660935 0
M  V30 1052 C 101.933 -5.00033 -1.63869 0
M  V30 1053 O 100.959 -5.57085 -1.1681 0
M  V30 1054 N 102.161 -4.98589 -2.97303 0
M  V30 1055 H 104.926 -2.94624 0.549265 0
M  V30 1056 H 102.487 -1.55847 0.438565 0
M  V30 1057 H 104.479 -3.5714 -1.9035 0
M  V30 1058 H 103.049 -2.5098 -1.86354 0
M  V30 1059 H 102.269 -3.9383 0.170688 0
M  V30 1060 H 103.557 -5.08197 -0.247619 0
M  V30 1061 H 102.955 -4.53514 -3.38145 0
M  V30 1062 H 101.512 -5.44603 -3.58121 0
M  V30 1063 N 104.945 -0.338344 -1.53925 0
M  V30 1064 C 106.361 0.0137736 -1.59594 0
M  V30 1065 C 106.561 1.49186 -1.35447 0
M  V30 1066 O 105.617 2.24987 -1.14616 0
M  V30 1067 C 106.93 -0.41773 -2.97784 0
M  V30 1068 C 108.478 -0.369633 -3.1081 0
M  V30 1069 C 108.953 -0.776524 -4.51369 0
M  V30 1070 N 110.444 -0.730506 -4.57403 0
M  V30 1071 C 111.179 -1.01736 -5.64303 0
M  V30 1072 N 110.675 -1.3721 -6.79077 0
M  V30 1073 N 112.468 -0.941942 -5.54151 0
M  V30 1074 H 104.619 -1.3012 -1.67876 0
M  V30 1075 H 106.882 -0.530082 -0.78595 0
M  V30 1076 H 106.588 -1.44811 -3.20504 0
M  V30 1077 H 106.462 0.209729 -3.76616 0
M  V30 1078 H 108.849 0.651568 -2.87817 0
M  V30 1079 H 108.93 -1.03223 -2.34049 0
M  V30 1080 H 108.574 -1.79571 -4.75096 0
M  V30 1081 H 108.504 -0.0914649 -5.26521 0
M  V30 1082 H 110.995 -0.468783 -3.74981 0
M  V30 1083 H 111.308 -1.57597 -7.5656 0
M  V30 1084 H 109.653 -1.4105 -6.80536 0
M  V30 1085 H 112.844 -0.664184 -4.63364 0
M  V30 1086 H 113.017 -1.16884 -6.37371 0
M  V30 1087 N 106.423 1.57458 -0.0668435 0
M  V30 1088 C 107.671 1.92919 0.602214 0
M  V30 1089 C 107.992 0.947215 1.70449 0
M  V30 1090 O 107.262 -0.00544117 1.95899 0
M  V30 1091 H 105.842 0.71217 0.22544 0
M  V30 1092 H 108.504 1.94508 -0.123535 0
M  V30 1093 H 107.6 2.94589 1.03073 0
M  V30 1094 N 107.901 -0.206675 1.56239 0
M  V30 1095 C 109.178 -0.954051 1.70755 0
M  V30 1096 C 109.558 -2.01841 0.618353 0
M  V30 1097 O 108.906 -2.25444 -0.372434 0
M  V30 1098 C 109.116 -1.551 3.12642 0
M  V30 1099 C 110.464 -2.03757 3.72516 0
M  V30 1100 O 111.488 -1.64965 3.15698 0
M  V30 1101 O 110.347 -2.75103 4.72208 0
M  V30 1102 H 107.441 -0.446636 0.696021 0
M  V30 1103 H 109.987 -0.197283 1.68549 0
M  V30 1104 H 108.759 -0.783212 3.83382 0
M  V30 1105 H 108.382 -2.37291 3.19028 0
M  V30 1106 N 109.379 -1.50304 -0.473955 0
M  V30 1107 C 110.289 -1.7174 -1.5982 0
M  V30 1108 C 111.305 -0.600457 -1.63311 0
M  V30 1109 O 112.481 -0.878441 -1.81233 0
M  V30 1110 C 109.546 -1.80427 -2.96052 0
M  V30 1111 C 108.607 -3.04148 -3.02972 0
M  V30 1112 C 107.84 -3.12411 -4.32706 0
M  V30 1113 O 108.063 -2.27542 -5.23049 0
M  V30 1114 O 106.997 -4.05113 -4.45159 0
M  V30 1115 H 110.823 -2.67035 -1.44657 0
M  V30 1116 H 108.408 -1.34366 -0.653148 0
M  V30 1117 H 110.29 -1.88338 -3.7697 0
M  V30 1118 H 108.965 -0.883156 -3.11419 0
M  V30 1119 H 107.872 -3.0174 -2.21142 0
M  V30 1120 H 109.205 -3.95829 -2.92541 0
M  V30 1121 N 110.857 0.726932 -1.39834 0
M  V30 1122 C 112.103 1.48884 -1.377 0
M  V30 1123 C 112.436 1.94185 0.0244852 0
M  V30 1124 O 111.711 1.67361 0.990986 0
M  V30 1125 C 111.994 2.72288 -2.3565 0
M  V30 1126 C 111.847 2.32956 -3.84775 0
M  V30 1127 C 113.166 3.74414 -2.31306 0
M  V30 1128 H 110.285 0.540062 -0.5015 0
M  V30 1129 H 112.927 0.830547 -1.70886 0
M  V30 1130 H 111.077 3.28457 -2.07481 0
M  V30 1131 H 112.749 1.82356 -4.23726 0
M  V30 1132 H 110.992 1.65088 -4.01159 0
M  V30 1133 H 111.663 3.21362 -4.4881 0
M  V30 1134 H 114.139 3.27849 -2.56231 0
M  V30 1135 H 113.015 4.58414 -3.01907 0
M  V30 1136 H 113.276 4.21909 -1.32081 0
M  V30 1137 N 112.336 1.25143 0.95797 0
M  V30 1138 C 113.585 1.0909 1.69654 0
M  V30 1139 C 113.898 -0.368548 1.92097 0
M  V30 1140 O 115.104 -0.649455 2.63618 0
M  V30 1141 C 113.56 1.90395 3.05414 0
M  V30 1142 C 113.168 3.4081 2.90779 0
M  V30 1143 C 114.912 1.82901 3.83076 0
M  V30 1144 C 112.819 4.14423 4.21909 0
M  V30 1145 H 111.749 0.404625 0.636235 0
M  V30 1146 H 114.4 1.4931 1.06672 0
M  V30 1147 H 112.782 1.42996 3.69281 0
M  V30 1148 H 113.956 3.95859 2.35865 0
M  V30 1149 H 112.271 3.49361 2.26575 0
M  V30 1150 H 114.868 2.35196 4.80195 0
M  V30 1151 H 115.211 0.796224 4.08615 0
M  V30 1152 H 115.744 2.28033 3.25954 0
M  V30 1153 H 112.483 5.18102 4.01561 0
M  V30 1154 H 112.003 3.64159 4.76601 0
M  V30 1155 H 113.682 4.21956 4.90471 0
M  V30 1156 N 113.814 -1.1601 1.06675 0
M  V30 1157 C 114.744 -2.22688 0.702307 0
M  V30 1158 C 115.725 -1.67306 -0.307032 0
M  V30 1159 O 116.91 -1.93352 -0.181305 0
M  V30 1160 C 114.04 -3.47178 0.092038 0
M  V30 1161 C 112.994 -4.15477 1.02777 0
M  V30 1162 C 112.32 -5.33963 0.28061 0
M  V30 1163 C 113.62 -4.66019 2.35846 0
M  V30 1164 H 115.314 -2.53429 1.59419 0
M  V30 1165 H 112.86 -1.21813 0.767961 0
M  V30 1166 H 114.813 -4.21037 -0.174814 0
M  V30 1167 H 113.537 -3.15749 -0.834877 0
M  V30 1168 H 112.196 -3.43549 1.27944 0
M  V30 1169 H 111.844 -4.98788 -0.649545 0
M  V30 1170 H 111.544 -5.806 0.904258 0
M  V30 1171 H 113.068 -6.10596 0.021396 0
M  V30 1172 H 114.482 -5.3144 2.15045 0
M  V30 1173 H 112.879 -5.23293 2.93743 0
M  V30 1174 H 113.949 -3.82023 2.98641 0
M  V30 1175 N 115.292 -0.849877 -1.32721 0
M  V30 1176 C 116.202 -0.293791 -2.32753 0
M  V30 1177 C 117.218 0.585906 -1.63839 0
M  V30 1178 O 118.394 0.487413 -1.95413 0
M  V30 1179 C 115.459 0.512752 -3.42887 0
M  V30 1180 C 114.52 -0.39252 -4.27502 0
M  V30 1181 C 113.753 0.375625 -5.32377 0
M  V30 1182 O 113.976 1.60613 -5.4732 0
M  V30 1183 O 112.91 -0.256094 -6.01355 0
M  V30 1184 H 116.736 -1.12242 -2.82197 0
M  V30 1185 H 114.321 -0.612685 -1.36259 0
M  V30 1186 H 116.203 0.970704 -4.10067 0
M  V30 1187 H 114.878 1.31826 -2.95641 0
M  V30 1188 H 113.785 -0.898547 -3.63149 0
M  V30 1189 H 115.118 -1.16309 -4.7826 0
M  V30 1190 N 116.77 1.45427 -0.607355 0
M  V30 1191 C 117.733 2.28974 0.101693 0
M  V30 1192 C 118.733 1.39754 0.795329 0
M  V30 1193 O 119.923 1.61878 0.643527 0
M  V30 1194 C 117.055 3.20768 1.15414 0
M  V30 1195 H 118.248 2.93147 -0.632844 0
M  V30 1196 H 115.801 1.51945 -0.366391 0
M  V30 1197 H 116.536 2.61395 1.91945 0
M  V30 1198 H 116.321 3.86489 0.66098 0
M  V30 1199 H 117.811 3.83589 1.65073 0
M  V30 1200 N 118.248 0.346503 1.53744 0
M  V30 1201 C 119.525 -0.304532 1.93215 0
M  V30 1202 C 119.905 -1.67993 1.27834 0
M  V30 1203 O 119.253 -2.24411 0.430352 0
M  V30 1204 C 119.463 -0.373852 3.46992 0
M  V30 1205 C 120.811 -0.62329 4.2 0
M  V30 1206 O 121.835 -0.455847 3.53271 0
M  V30 1207 O 120.694 -0.947879 5.38217 0
M  V30 1208 H 117.788 -0.178318 0.807547 0
M  V30 1209 H 120.334 0.397895 1.64969 0
M  V30 1210 H 119.106 0.591224 3.86808 0
M  V30 1211 H 118.729 -1.12294 3.81413 0
M  V30 1212 N 119.726 -1.57421 0.075193 0
M  V30 1213 C 120.951 -1.98364 -0.605515 0
M  V30 1214 C 121.376 -0.953383 -1.62149 0
M  V30 1215 O 120.734 0.0806053 -1.81121 0
M  V30 1216 C 120.782 -3.38332 -1.24756 0
M  V30 1217 O 119.886 -3.37959 -2.36342 0
M  V30 1218 H 119.227 -0.645553 -0.155428 0
M  V30 1219 H 121.757 -2.04044 0.150714 0
M  V30 1220 H 121.767 -3.75591 -1.5936 0
M  V30 1221 H 120.442 -4.12846 -0.503129 0
M  V30 1222 H 119.019 -3.12474 -2.03506 0
M  V30 1223 N 121.204 0.198386 -1.56346 0
M  V30 1224 C 122.154 1.2499 -1.90687 0
M  V30 1225 C 123.138 1.41158 -0.772217 0
M  V30 1226 O 124.33 1.43584 -1.03502 0
M  V30 1227 C 121.459 2.59542 -2.24706 0
M  V30 1228 C 120.545 2.47181 -3.44619 0
M  V30 1229 N 120.936 2.04495 -4.62618 0
M  V30 1230 C 119.234 2.78082 -3.48692 0
M  V30 1231 C 119.935 2.03945 -5.44776 0
M  V30 1232 N 118.911 2.45323 -4.85095 0
M  V30 1233 H 122.713 0.911149 -2.7942 0
M  V30 1234 H 120.227 0.40684 -1.57221 0
M  V30 1235 H 122.224 3.3549 -2.47491 0
M  V30 1236 H 120.884 2.94244 -1.37298 0
M  V30 1237 H 121.895 1.75256 -4.87345 0
M  V30 1238 H 118.572 3.17002 -2.71691 0
M  V30 1239 H 119.962 1.72872 -6.4928 0
M  V30 1240 N 122.682 1.50554 0.465978 0
M  V30 1241 C 123.931 1.61038 1.21448 0
M  V30 1242 C 124.244 0.31865 1.92987 0
M  V30 1243 O 125.45 0.302469 2.6981 0
M  V30 1244 C 123.906 2.84283 2.20706 0
M  V30 1245 C 123.514 4.20352 1.54946 0
M  V30 1246 C 125.258 3.04115 2.96166 0
M  V30 1247 C 123.165 5.34778 2.5252 0
M  V30 1248 H 122.095 0.599718 0.457005 0
M  V30 1249 H 124.746 1.7699 0.484424 0
M  V30 1250 H 123.128 2.61901 2.97025 0
M  V30 1251 H 124.302 4.53008 0.843811 0
M  V30 1252 H 122.617 4.06167 0.917475 0
M  V30 1253 H 125.214 3.86774 3.69202 0
M  V30 1254 H 125.557 2.16045 3.55852 0
M  V30 1255 H 126.09 3.26702 2.26959 0
M  V30 1256 H 122.829 6.25018 1.97566 0
M  V30 1257 H 122.349 5.06534 3.21222 0
M  V30 1258 H 124.028 5.65561 3.14245 0
M  V30 1259 N 124.16 -0.719506 1.40217 0
M  V30 1260 C 125.407 -1.47933 1.38283 0
M  V30 1261 C 125.735 -1.94493 -0.0161536 0
M  V30 1262 O 124.99 -1.68224 -0.999956 0
M  V30 1263 C 125.289 -2.72271 2.31524 0
M  V30 1264 C 124.955 -2.44496 3.78857 0
M  V30 1265 C 123.617 -2.36631 4.18998 0
M  V30 1266 C 125.969 -2.21104 4.71977 0
M  V30 1267 C 123.297 -2.03437 5.503 0
M  V30 1268 C 125.649 -1.89423 6.03574 0
M  V30 1269 C 124.313 -1.80038 6.42762 0
M  V30 1270 H 123.583 -0.541325 0.506012 0
M  V30 1271 H 126.23 -0.824502 1.72842 0
M  V30 1272 H 124.535 -3.42572 1.90137 0
M  V30 1273 H 126.232 -3.30348 2.27313 0
M  V30 1274 H 122.822 -2.51503 3.47051 0
M  V30 1275 H 127.006 -2.26139 4.41786 0
M  V30 1276 H 122.262 -1.94705 5.79569 0
M  V30 1277 H 126.436 -1.70336 6.75247 0
M  V30 1278 H 124.063 -1.54083 7.44421 0
M  V30 1279 N 125.638 -1.25649 -0.95132 0
M  V30 1280 C 126.884 -1.11766 -1.69941 0
M  V30 1281 C 127.239 0.33735 -1.89419 0
M  V30 1282 O 126.532 1.24491 -1.45645 0
M  V30 1283 C 126.726 -1.80909 -3.08231 0
M  V30 1284 C 126.555 -3.32984 -3.02245 0
M  V30 1285 C 125.325 -4.02247 -3.05819 0
M  V30 1286 C 127.523 -4.29332 -2.83157 0
M  V30 1287 N 125.505 -5.41072 -2.90024 0
M  V30 1288 C 126.876 -5.55265 -2.75828 0
M  V30 1289 C 128.931 -4.19707 -2.67863 0
M  V30 1290 C 127.634 -6.72671 -2.54767 0
M  V30 1291 C 129.66 -5.36809 -2.48173 0
M  V30 1292 C 129.022 -6.61683 -2.41567 0
M  V30 1293 H 125.121 -0.463708 -0.629682 0
M  V30 1294 H 127.705 -1.58796 -1.12659 0
M  V30 1295 H 125.876 -1.36369 -3.63673 0
M  V30 1296 H 127.608 -1.59739 -3.71841 0
M  V30 1297 H 124.363 -3.53531 -3.15139 0
M  V30 1298 H 124.787 -6.13938 -2.85323 0
M  V30 1299 H 129.429 -3.23907 -2.71743 0
M  V30 1300 H 127.147 -7.68577 -2.49629 0
M  V30 1301 H 130.733 -5.31224 -2.37259 0
M  V30 1302 H 129.613 -7.50768 -2.26531 0
M  V30 1303 N 127.117 1.15442 -1.07289 0
M  V30 1304 C 128.347 1.89821 -0.815576 0
M  V30 1305 C 128.755 1.7823 0.634867 0
M  V30 1306 O 128.098 1.13152 1.44715 0
M  V30 1307 C 128.16 3.40817 -1.14385 0
M  V30 1308 C 127.824 3.76193 -2.59476 0
M  V30 1309 C 128.821 3.77269 -3.57721 0
M  V30 1310 C 126.506 4.0652 -2.95037 0
M  V30 1311 C 128.5 4.08176 -4.89562 0
M  V30 1312 C 126.187 4.37092 -4.27076 0
M  V30 1313 C 127.185 4.37902 -5.24148 0
M  V30 1314 O 126.873 4.67741 -6.53815 0
M  V30 1315 H 126.605 0.608465 -0.294528 0
M  V30 1316 H 129.159 1.472 -1.43252 0
M  V30 1317 H 127.389 3.83835 -0.469865 0
M  V30 1318 H 129.078 3.96485 -0.869179 0
M  V30 1319 H 129.844 3.5394 -3.3159 0
M  V30 1320 H 125.723 4.05049 -2.20128 0
M  V30 1321 H 129.267 4.08723 -5.65324 0
M  V30 1322 H 125.164 4.59889 -4.5296 0
M  V30 1323 H 125.932 4.85509 -6.58957 0
M  V30 1324 N 128.595 0.856903 1.32268 0
M  V30 1325 C 129.505 0.306131 2.32594 0
M  V30 1326 C 130.521 -0.577209 1.64147 0
M  V30 1327 O 131.697 -0.477043 1.95669 0
M  V30 1328 C 128.762 -0.494561 3.43154 0
M  V30 1329 C 127.823 0.415186 4.27288 0
M  V30 1330 C 127.056 -0.347387 5.32568 0
M  V30 1331 O 127.279 -1.57708 5.48165 0
M  V30 1332 O 126.213 0.287982 6.01211 0
M  V30 1333 H 130.039 1.13737 2.81598 0
M  V30 1334 H 127.624 0.619902 1.35932 0
M  V30 1335 H 129.506 -0.948944 4.10576 0
M  V30 1336 H 128.181 -1.30257 2.96336 0
M  V30 1337 H 127.088 0.917793 3.62667 0
M  V30 1338 H 128.421 1.18844 4.77637 0
M  V30 1339 N 130.073 -1.45103 0.615059 0
M  V30 1340 C 131.319 -2.02483 0.113347 0
M  V30 1341 C 131.652 -1.48146 -1.25564 0
M  V30 1342 O 130.927 -0.659104 -1.82992 0
M  V30 1343 C 131.21 -3.60005 0.0825278 0
M  V30 1344 C 131.063 -4.2466 1.48271 0
M  V30 1345 C 132.382 -4.35972 -0.601401 0
M  V30 1346 H 129.501 -0.735764 0.0426632 0
M  V30 1347 H 132.143 -1.72868 0.788461 0
M  V30 1348 H 130.293 -3.85367 -0.492378 0
M  V30 1349 H 131.965 -4.10458 2.10527 0
M  V30 1350 H 130.208 -3.82772 2.04127 0
M  V30 1351 H 130.879 -5.336 1.41332 0
M  V30 1352 H 133.355 -4.15947 -0.112666 0
M  V30 1353 H 132.231 -5.45697 -0.592097 0
M  V30 1354 H 132.492 -4.09391 -1.66887 0
M  V30 1355 N 131.551 -0.354651 -1.53558 0
M  V30 1356 C 132.799 0.237972 -2.00694 0
M  V30 1357 C 133.12 1.50173 -1.24391 0
M  V30 1358 O 132.39 1.92673 -0.354135 0
M  V30 1359 H 130.97 0.0909256 -0.741446 0
M  V30 1360 H 133.632 -0.478368 -1.88938 0
M  V30 1361 H 132.728 0.47264 -3.085 0
M  V30 1362 N 133.029 1.57378 -0.0835403 0
M  V30 1363 C 133.992 2.12252 0.864959 0
M  V30 1364 C 134.992 1.04916 1.21858 0
M  V30 1365 O 136.182 1.30853 1.14991 0
M  V30 1366 C 133.314 2.63358 2.16461 0
M  V30 1367 H 134.507 2.97371 0.388676 0
M  V30 1368 H 132.06 1.55423 0.165317 0
M  V30 1369 H 132.795 1.81727 2.686 0
M  V30 1370 H 132.58 3.41826 1.92087 0
M  V30 1371 H 134.07 3.05847 2.84337 0
M  V30 1372 N 134.507 -0.190092 1.56449 0
M  V30 1373 C 135.44 -1.26375 1.90012 0
M  V30 1374 C 136.418 -1.43705 0.760765 0
M  V30 1375 O 137.602 -1.59014 1.01226 0
M  V30 1376 C 134.729 -2.62962 2.13468 0
M  V30 1377 C 133.775 -2.62474 3.36169 0
M  V30 1378 S 134.608 -2.13412 4.91137 0
M  V30 1379 C 135.764 -3.51812 5.17667 0
M  V30 1380 H 135.997 -0.977181 2.80782 0
M  V30 1381 H 133.53 -0.393814 1.49293 0
M  V30 1382 H 135.488 -3.41583 2.27664 0
M  V30 1383 H 134.149 -2.88828 1.23439 0
M  V30 1384 H 133.342 -3.62918 3.49723 0
M  V30 1385 H 132.944 -1.91937 3.20992 0
M  V30 1386 H 135.236 -4.47706 5.08494 0
M  V30 1387 H 136.179 -3.43148 6.19399 0
M  V30 1388 H 136.587 -3.46956 4.45288 0
M  V30 1389 N 135.985 -1.50799 -0.457987 0
M  V30 1390 C 136.948 -1.7005 -1.53674 0
M  V30 1391 C 137.948 -0.570881 -1.50325 0
M  V30 1392 O 139.138 -0.838126 -1.52712 0
M  V30 1393 C 136.27 -1.73788 -2.93276 0
M  V30 1394 H 137.463 -2.66306 -1.37917 0
M  V30 1395 H 135.016 -1.40477 -0.685271 0
M  V30 1396 H 135.751 -0.792717 -3.14462 0
M  V30 1397 H 135.536 -2.55864 -2.97113 0
M  V30 1398 H 137.026 -1.90591 -3.71571 0
M  V30 1399 N 137.463 0.71206 -1.40597 0
M  V30 1400 C 138.709 1.47416 -1.39271 0
M  V30 1401 C 139.042 1.942 0.00388791 0
M  V30 1402 O 138.317 1.68403 0.973179 0
M  V30 1403 C 138.6 2.69774 -2.38525 0
M  V30 1404 C 138.453 2.28861 -3.87224 0
M  V30 1405 C 139.772 3.71939 -2.35264 0
M  V30 1406 H 136.891 0.534713 -0.5072 0
M  V30 1407 H 139.533 0.812375 -1.71757 0
M  V30 1408 H 137.683 3.26238 -2.10953 0
M  V30 1409 H 139.355 1.77852 -4.25636 0
M  V30 1410 H 137.598 1.60824 -4.02887 0
M  V30 1411 H 138.269 3.16584 -4.52193 0
M  V30 1412 H 140.745 3.25113 -2.59694 0
M  V30 1413 H 139.621 4.55186 -3.06753 0
M  V30 1414 H 139.882 4.20484 -1.36549 0
M  V30 1415 N 138.941 1.26152 0.944643 0
M  V30 1416 C 139.871 1.09902 2.06019 0
M  V30 1417 C 140.852 0.00519538 1.70099 0
M  V30 1418 O 142.037 0.176583 1.93396 0
M  V30 1419 C 139.167 0.727562 3.39594 0
M  V30 1420 C 138.121 1.77274 3.89561 0
M  V30 1421 C 137.447 1.25569 5.19747 0
M  V30 1422 C 138.747 3.17357 4.14827 0
M  V30 1423 H 140.441 2.03217 2.19871 0
M  V30 1424 H 137.987 0.978452 1.05652 0
M  V30 1425 H 139.94 0.600777 4.17095 0
M  V30 1426 H 138.664 -0.241287 3.25707 0
M  V30 1427 H 137.323 1.88814 3.14237 0
M  V30 1428 H 136.971 0.276783 5.02238 0
M  V30 1429 H 136.671 1.95433 5.54148 0
M  V30 1430 H 138.195 1.1415 5.99835 0
M  V30 1431 H 139.609 3.08914 4.82954 0
M  V30 1432 H 138.006 3.84781 4.60504 0
M  V30 1433 H 139.076 3.63673 3.20734 0
M  V30 1434 N 140.419 -1.14872 1.07899 0
M  V30 1435 C 141.644 -1.90202 0.826926 0
M  V30 1436 C 142.069 -1.77774 -0.614664 0
M  V30 1437 O 141.427 -1.11431 -1.43013 0
M  V30 1438 C 141.475 -3.38352 1.24702 0
M  V30 1439 O 140.579 -4.10497 0.39575 0
M  V30 1440 H 139.92 -0.591968 0.300782 0
M  V30 1441 H 142.45 -1.45437 1.43907 0
M  V30 1442 H 142.46 -3.89156 1.22563 0
M  V30 1443 H 141.135 -3.46715 2.29698 0
M  V30 1444 H 139.712 -3.69796 0.480117 0
M  V30 1445 N 141.898 -0.863906 -1.31812 0
M  V30 1446 C 143.146 -0.470904 -1.96537 0
M  V30 1447 C 143.467 0.978771 -1.68657 0
M  V30 1448 O 142.737 1.6853 -0.998717 0
M  V30 1449 H 141.317 -0.171148 -0.72713 0
M  V30 1450 H 143.979 -1.10236 -1.60729 0
M  V30 1451 H 143.075 -0.623616 -3.05806 0
M  V30 1452 N 143.376 1.44774 -0.622745 0
M  V30 1453 C 144.622 2.0242 -0.124083 0
M  V30 1454 C 144.955 1.4881 1.24777 0
M  V30 1455 O 144.23 0.668799 1.8264 0
M  V30 1456 C 144.513 3.59957 -0.101619 0
M  V30 1457 C 144.366 4.23867 -1.50521 0
M  V30 1458 C 145.685 4.36284 0.578272 0
M  V30 1459 H 142.804 0.735528 -0.0465645 0
M  V30 1460 H 145.446 1.72447 -0.797617 0
M  V30 1461 H 143.596 3.85623 0.471934 0
M  V30 1462 H 145.268 4.09336 -2.12701 0
M  V30 1463 H 143.511 3.81684 -2.06154 0
M  V30 1464 H 144.182 5.32843 -1.4416 0
M  V30 1465 H 146.658 4.16001 0.0906057 0
M  V30 1466 H 145.534 5.46004 0.563149 0
M  V30 1467 H 145.795 4.10271 1.64713 0
M  V30 1468 N 144.854 0.36279 1.53368 0
M  V30 1469 C 145.787 -0.528507 2.21996 0
M  V30 1470 C 146.765 -1.0852 1.21087 0
M  V30 1471 O 147.949 -1.14186 1.4998 0
M  V30 1472 C 145.076 -1.72893 2.91249 0
M  V30 1473 C 144.122 -1.29994 4.06207 0
M  V30 1474 S 144.955 -0.303575 5.34639 0
M  V30 1475 C 146.111 -1.51039 6.07403 0
M  V30 1476 H 146.344 0.0543423 2.9725 0
M  V30 1477 H 143.877 0.146889 1.537 0
M  V30 1478 H 145.835 -2.41751 3.31763 0
M  V30 1479 H 144.496 -2.28303 2.15724 0
M  V30 1480 H 143.689 -2.19549 4.53667 0
M  V30 1481 H 143.291 -0.690608 3.67569 0
M  V30 1482 H 145.583 -2.44186 6.31965 0
M  V30 1483 H 146.526 -1.07721 6.99858 0
M  V30 1484 H 146.934 -1.71518 5.37812 0
M  V30 1485 N 146.332 -1.57332 0.0918853 0
M  V30 1486 C 147.743 -1.81496 -0.437739 0
M  V30 1487 C 148.094 -1.00727 -1.6837 0
M  V30 1488 O 147.219 -0.235694 -2.15113 0
M  V30 1489 C 147.814 -3.29197 -0.800939 0
M  V30 1490 C 146.373 -3.54136 -1.27532 0
M  V30 1491 C 145.52 -2.75979 -0.270392 0
M  V30 1492 H 148.471 -1.55494 0.317366 0
M  V30 1493 H 148.492 -3.42344 -1.66074 0
M  V30 1494 H 148.004 -3.87955 0.106078 0
M  V30 1495 H 146.105 -3.00705 -2.20016 0
M  V30 1496 H 146.218 -4.62792 -1.23938 0
M  V30 1497 H 144.582 -2.43349 -0.751872 0
M  V30 1498 H 145.365 -3.37484 0.629248 0
M  V30 1499 N 147.81 0.181792 -1.56548 0
M  V30 1500 C 148.76 1.22961 -1.92002 0
M  V30 1501 C 149.744 1.40331 -0.787146 0
M  V30 1502 O 150.936 1.42478 -1.05019 0
M  V30 1503 C 148.065 2.57144 -2.27446 0
M  V30 1504 C 147.151 2.43512 -3.47222 0
M  V30 1505 N 147.542 1.99577 -4.64761 0
M  V30 1506 C 145.84 2.74368 -3.51622 0
M  V30 1507 C 146.541 1.98156 -5.46909 0
M  V30 1508 N 145.517 2.40164 -4.8767 0
M  V30 1509 H 149.319 0.881462 -2.8037 0
M  V30 1510 H 146.833 0.390141 -1.57644 0
M  V30 1511 H 148.83 3.32847 -2.51035 0
M  V30 1512 H 147.49 2.92771 -1.40411 0
M  V30 1513 H 148.501 1.70078 -4.89177 0
M  V30 1514 H 145.178 3.14102 -2.75038 0
M  V30 1515 H 146.568 1.65975 -6.51077 0
M  V30 1516 N 149.288 1.51039 0.449983 0
M  V30 1517 C 150.699 1.557 1.03026 0
M  V30 1518 C 151.05 0.372939 1.92623 0
M  V30 1519 O 150.175 -0.511771 2.10261 0
M  V30 1520 C 150.77 2.82171 1.87523 0
M  V30 1521 C 149.329 2.89444 2.40622 0
M  V30 1522 C 148.476 2.50228 1.19504 0
M  V30 1523 H 151.427 1.56999 0.231745 0
M  V30 1524 H 151.448 2.65219 2.72835 0
M  V30 1525 H 150.96 3.68331 1.22286 0
M  V30 1526 H 149.061 2.07685 3.0935 0
M  V30 1527 H 149.174 3.92816 2.74285 0
M  V30 1528 H 147.538 2.03139 1.53644 0
M  V30 1529 H 148.321 3.38719 0.558972 0
M  V30 1530 N 150.766 -0.704594 1.40972 0
M  V30 1531 C 152.012 -1.46675 1.40051 0
M  V30 1532 C 152.345 -1.94199 0.00641102 0
M  V30 1533 O 151.62 -1.68916 -0.964235 0
M  V30 1534 C 151.903 -2.68505 2.39952 0
M  V30 1535 C 151.756 -2.26805 3.88432 0
M  V30 1536 C 153.075 -3.70686 2.37233 0
M  V30 1537 H 150.194 -0.532015 0.510028 0
M  V30 1538 H 152.836 -0.803255 1.72185 0
M  V30 1539 H 150.986 -3.25114 2.1268 0
M  V30 1540 H 152.658 -1.75592 4.26574 0
M  V30 1541 H 150.901 -1.58685 4.03734 0
M  V30 1542 H 151.572 -3.14181 4.53866 0
M  V30 1543 H 154.048 -3.23731 2.61415 0
M  V30 1544 H 152.924 -4.53553 3.09162 0
M  V30 1545 H 153.185 -4.19754 1.38777 0
M  V30 1546 N 152.244 -1.26651 -0.937939 0
M  V30 1547 C 153.655 -1.1125 -1.49934 0
M  V30 1548 C 154.006 0.306077 -1.93798 0
M  V30 1549 O 153.131 1.19792 -1.80219 0
M  V30 1550 C 153.726 -2.01339 -2.72485 0
M  V30 1551 C 152.285 -1.90074 -3.24883 0
M  V30 1552 C 151.432 -1.94498 -1.97651 0
M  V30 1553 H 154.383 -1.39693 -0.753091 0
M  V30 1554 H 154.404 -1.56319 -3.46907 0
M  V30 1555 H 153.916 -3.04577 -2.40529 0
M  V30 1556 H 152.017 -0.897827 -3.61621 0
M  V30 1557 H 152.13 -2.75778 -3.9177 0
M  V30 1558 H 150.494 -1.38591 -2.13693 0
M  V30 1559 H 151.277 -2.99372 -1.68022 0
M  V30 1560 N 153.722 1.14298 -1.08507 0
M  V30 1561 C 154.97 1.84993 -0.813763 0
M  V30 1562 C 155.291 1.83405 0.662393 0
M  V30 1563 O 154.561 1.28319 1.48024 0
M  V30 1564 H 153.141 0.684966 -0.298045 0
M  V30 1565 H 155.803 1.385 -1.37126 0
M  V30 1566 H 154.899 2.89788 -1.15884 0
M  V30 1567 N 155.201 0.870884 1.31352 0
M  V30 1568 C 156.148 0.325425 2.28494 0
M  V30 1569 C 157.118 -0.576615 1.5577 0
M  V30 1570 O 158.303 -0.508059 1.83911 0
M  V30 1571 C 155.443 -0.466283 3.41935 0
M  V30 1572 C 154.556 0.463378 4.29508 0
M  V30 1573 C 153.691 -0.342544 5.30094 0
M  V30 1574 C 152.73 0.583486 6.09313 0
M  V30 1575 N 151.867 -0.186244 7.01853 0
M  V30 1576 H 156.707 1.15901 2.74538 0
M  V30 1577 H 154.244 0.58294 1.35056 0
M  V30 1578 H 156.202 -0.941085 4.06447 0
M  V30 1579 H 154.832 -1.26456 2.97 0
M  V30 1580 H 153.884 1.05663 3.65431 0
M  V30 1581 H 155.196 1.1734 4.84802 0
M  V30 1582 H 154.35 -0.879816 6.00287 0
M  V30 1583 H 153.089 -1.08585 4.75458 0
M  V30 1584 H 152.094 1.13251 5.3801 0
M  V30 1585 H 153.319 1.32566 6.66035 0
M  V30 1586 H 151.265 -0.912348 6.49625 0
M  V30 1587 H 151.182 0.464422 7.54572 0
M  V30 1588 H 152.45 -0.704716 7.76308 0
M  V30 1589 N 156.679 -1.44442 0.630414 0
M  V30 1590 C 157.627 -2.32437 -0.0871428 0
M  V30 1591 C 158.621 -1.47304 -0.836525 0
M  V30 1592 O 159.827 -1.63653 -0.749506 0
M  V30 1593 H 156.202 -0.750533 -0.0469495 0
M  V30 1594 H 158.173 -2.90709 0.673096 0
M  V30 1595 C 156.922 -3.31288 -1.05563 0
M  V30 1596 H 156.245 -3.96805 -0.488426 0
M  V30 1597 H 157.685 -3.9554 -1.52721 0
M  V30 1598 C 156.144 -2.6016 -2.14052 0
M  V30 1599 O 156.674 -2.39997 -3.22124 0
M  V30 1600 N 154.88 -2.19911 -1.89967 0
M  V30 1601 H 154.427 -2.36509 -1.02085 0
M  V30 1602 H 154.385 -1.72646 -2.62756 0
M  V30 1603 N 158.157 -0.370918 -1.53173 0
M  V30 1604 C 159.405 0.216673 -2.00935 0
M  V30 1605 C 159.726 1.48845 -1.25977 0
M  V30 1606 O 158.996 1.92286 -0.374551 0
M  V30 1607 H 157.576 0.0830565 -0.742368 0
M  V30 1608 H 160.238 -0.49838 -1.8842 0
M  V30 1609 H 159.334 0.439893 -3.08984 0
M  V30 1610 N 159.635 1.57281 -0.100228 0
M  V30 1611 C 160.598 2.13158 0.842398 0
M  V30 1612 C 161.598 1.06202 1.20738 0
M  V30 1613 O 162.788 1.32066 1.13597 0
M  V30 1614 C 159.92 2.65639 2.13655 0
M  V30 1615 H 161.113 2.97766 0.357114 0
M  V30 1616 H 158.666 1.5559 0.148823 0
M  V30 1617 H 159.401 1.84566 2.66657 0
M  V30 1618 H 159.186 3.43844 1.88451 0
M  V30 1619 H 160.676 3.08846 2.81077 0
M  V30 1620 N 161.113 -0.173488 1.56642 0
M  V30 1621 C 162.046 -1.24353 1.91342 0
M  V30 1622 C 163.024 -1.4289 0.775965 0
M  V30 1623 O 164.208 -1.57932 1.02907 0
M  V30 1624 C 161.335 -2.60683 2.16245 0
M  V30 1625 C 160.381 -2.58894 3.38934 0
M  V30 1626 S 161.214 -2.0819 4.93373 0
M  V30 1627 C 162.37 -3.46302 5.21369 0
M  V30 1628 H 162.603 -0.947345 2.81803 0
M  V30 1629 H 160.136 -0.377958 1.49703 0
M  V30 1630 H 162.094 -3.39149 2.31275 0
M  V30 1631 H 160.755 -2.87502 1.26496 0
M  V30 1632 H 159.948 -3.59188 3.53553 0
M  V30 1633 H 159.55 -1.88522 3.2301 0
M  V30 1634 H 161.842 -4.42287 5.13214 0
M  V30 1635 H 162.785 -3.3656 6.23003 0
M  V30 1636 H 163.193 -3.42214 4.48943 0
M  V30 1637 N 162.591 -1.51276 -0.441967 0
M  V30 1638 C 163.868 -1.54252 -1.20273 0
M  V30 1639 C 164.248 -0.30408 -2.08898 0
M  V30 1640 O 163.596 0.711084 -2.17154 0
M  V30 1641 C 163.806 -2.85406 -2.00859 0
M  V30 1642 C 165.154 -3.37181 -2.58059 0
M  V30 1643 O 166.178 -2.86925 -2.11074 0
M  V30 1644 O 165.037 -4.24858 -3.43741 0
M  V30 1645 H 162.131 -0.619969 -0.547328 0
M  V30 1646 H 164.677 -1.63586 -0.451413 0
M  V30 1647 H 163.449 -3.67003 -1.35736 0
M  V30 1648 H 163.072 -2.79213 -2.83065 0
M  V30 1649 N 164.069 0.697108 -1.41344 0
M  V30 1650 C 165.48 1.27697 -1.36199 0
M  V30 1651 C 165.831 1.9615 -0.0443463 0
M  V30 1652 O 164.956 1.98689 0.857419 0
M  V30 1653 C 165.551 2.32223 -2.46694 0
M  V30 1654 C 164.11 2.8579 -2.44952 0
M  V30 1655 C 163.257 1.59807 -2.26621 0
M  V30 1656 H 166.208 0.491968 -1.50882 0
M  V30 1657 H 166.229 3.1348 -2.15664 0
M  V30 1658 H 165.741 1.82373 -3.42581 0
M  V30 1659 H 163.842 3.3982 -1.52817 0
M  V30 1660 H 163.955 3.36325 -3.41207 0
M  V30 1661 H 162.319 1.8556 -1.7447 0
M  V30 1662 H 163.102 1.11956 -3.24532 0
M  V30 1663 N 165.547 1.27147 0.931209 0
M  V30 1664 C 166.824 1.0401 1.65654 0
M  V30 1665 C 167.204 -0.426297 2.06751 0
M  V30 1666 O 166.552 -1.40879 1.79904 0
M  V30 1667 C 166.762 1.99834 2.86125 0
M  V30 1668 C 168.11 2.29007 3.57549 0
M  V30 1669 O 169.134 1.97779 2.96246 0
M  V30 1670 O 167.993 2.82222 4.67989 0
M  V30 1671 H 165.087 0.396239 0.725895 0
M  V30 1672 H 167.633 1.38397 0.982056 0
M  V30 1673 H 166.405 2.98744 2.52721 0
M  V30 1674 H 166.028 1.65987 3.61295 0
M  V30 1675 N 167.025 -1.13721 1.09112 0
M  V30 1676 C 168.302 -1.81155 0.737706 0
M  V30 1677 C 168.682 -1.96253 -0.777683 0
M  V30 1678 O 168.03 -1.52807 -1.69889 0
M  V30 1679 C 168.24 -3.16392 1.47299 0
M  V30 1680 C 169.588 -3.91787 1.63671 0
M  V30 1681 O 170.612 -3.26005 1.43524 0
M  V30 1682 O 169.471 -5.0977 1.96969 0
M  V30 1683 H 166.565 -0.783518 0.26463 0
M  V30 1684 H 169.111 -1.20676 1.19312 0
M  V30 1685 H 167.883 -3.0061 2.50498 0
M  V30 1686 H 167.506 -3.8457 1.00953 0
M  V30 1687 N 168.503 -0.877838 -1.30888 0
M  V30 1688 C 169.749 -0.493426 -1.96706 0
M  V30 1689 C 170.082 0.953504 -1.6918 0
M  V30 1690 O 169.357 1.67266 -0.992594 0
M  V30 1691 C 169.64 -0.760429 -3.51979 0
M  V30 1692 C 169.493 -2.25747 -3.89048 0
M  V30 1693 C 170.812 -0.232148 -4.39487 0
M  V30 1694 H 167.931 -0.180746 -0.714493 0
M  V30 1695 H 170.573 -1.10052 -1.54882 0
M  V30 1696 H 168.723 -0.243715 -3.87735 0
M  V30 1697 H 170.395 -2.84204 -3.63354 0
M  V30 1698 H 168.638 -2.72694 -3.37373 0
M  V30 1699 H 169.309 -2.39491 -4.97341 0
M  V30 1700 H 171.785 -0.674314 -4.106 0
M  V30 1701 H 170.661 -0.448355 -5.47066 0
M  V30 1702 H 170.922 0.866297 -4.33529 0
M  V30 1703 N 169.982 1.44106 -0.638065 0
M  V30 1704 C 171.398 1.56672 -0.304286 0
M  V30 1705 C 171.598 1.6244 1.19228 0
M  V30 1706 O 170.654 1.57121 1.9766 0
M  V30 1707 C 171.967 2.83503 -1.00231 0
M  V30 1708 C 173.515 2.97226 -0.981116 0
M  V30 1709 C 173.99 4.26868 -1.65974 0
M  V30 1710 N 175.481 4.33698 -1.62666 0
M  V30 1711 C 176.216 5.32745 -2.12063 0
M  V30 1712 N 175.712 6.38157 -2.6968 0
M  V30 1713 N 177.505 5.24299 -2.02651 0
M  V30 1714 H 169.656 1.38605 -1.60942 0
M  V30 1715 H 171.919 0.664661 -0.675965 0
M  V30 1716 H 171.625 2.85251 -2.0573 0
M  V30 1717 H 171.499 3.73251 -0.54439 0
M  V30 1718 H 173.886 2.95027 0.0654188 0
M  V30 1719 H 173.967 2.08808 -1.47759 0
M  V30 1720 H 173.611 4.29826 -2.70576 0
M  V30 1721 H 173.541 5.14156 -1.13804 0
M  V30 1722 H 176.032 3.58138 -1.20606 0
M  V30 1723 H 176.345 7.10029 -3.05087 0
M  V30 1724 H 174.69 6.38823 -2.73734 0
M  V30 1725 H 177.881 4.4086 -1.57353 0
M  V30 1726 H 178.054 6.01334 -2.41457 0
M  V30 1727 N 171.46 0.379036 1.52974 0
M  V30 1728 C 172.407 -0.461048 2.26148 0
M  V30 1729 C 173.377 -1.06637 1.27349 0
M  V30 1730 O 174.562 -1.09633 1.56157 0
M  V30 1731 C 171.702 -1.58782 3.06402 0
M  V30 1732 C 170.815 -1.00636 4.20115 0
M  V30 1733 C 169.95 -2.10334 4.87784 0
M  V30 1734 C 168.989 -1.49724 5.93506 0
M  V30 1735 N 168.126 -2.5331 6.54812 0
M  V30 1736 H 172.966 0.169429 2.97518 0
M  V30 1737 H 170.503 0.0953806 1.4679 0
M  V30 1738 H 172.461 -2.25174 3.51215 0
M  V30 1739 H 171.091 -2.18876 2.37261 0
M  V30 1740 H 170.143 -0.232332 3.7969 0
M  V30 1741 H 171.455 -0.523343 4.96047 0
M  V30 1742 H 170.609 -2.84519 5.35849 0
M  V30 1743 H 169.348 -2.61992 4.11353 0
M  V30 1744 H 168.353 -0.740598 5.44789 0
M  V30 1745 H 169.578 -0.988732 6.71864 0
M  V30 1746 H 167.524 -3.04156 5.81227 0
M  V30 1747 H 167.441 -2.09734 7.26325 0
M  V30 1748 H 168.709 -3.27155 7.07524 0
M  V30 1749 N 172.938 -1.57226 0.108567 0
M  V30 1750 C 173.901 -2.13602 -0.831082 0
M  V30 1751 C 174.901 -1.06841 -1.20173 0
M  V30 1752 O 176.091 -1.32666 -1.12895 0
M  V30 1753 C 173.223 -2.66769 -2.12243 0
M  V30 1754 H 174.416 -2.97951 -0.341317 0
M  V30 1755 H 171.969 -1.55667 -0.14057 0
M  V30 1756 H 172.704 -1.85977 -2.65675 0
M  V30 1757 H 172.489 -3.44839 -1.86625 0
M  V30 1758 H 173.979 -3.10332 -2.79435 0
M  V30 1759 N 174.416 0.165178 -1.56732 0
M  V30 1760 C 175.665 0.879143 -1.81532 0
M  V30 1761 C 175.978 1.83144 -0.686842 0
M  V30 1762 O 177.184 2.58823 -0.819944 0
M  V30 1763 C 175.64 1.61388 -3.21686 0
M  V30 1764 C 175.248 0.704904 -4.4242 0
M  V30 1765 C 176.992 2.3157 -3.55774 0
M  V30 1766 C 174.899 1.44022 -5.73595 0
M  V30 1767 H 173.829 0.332033 -0.676957 0
M  V30 1768 H 176.48 0.132008 -1.83025 0
M  V30 1769 H 174.862 2.40599 -3.14529 0
M  V30 1770 H 176.036 -0.0506815 -4.60772 0
M  V30 1771 H 174.351 0.112419 -4.16248 0
M  V30 1772 H 176.948 2.8719 -4.51028 0
M  V30 1773 H 177.291 3.07201 -2.8095 0
M  V30 1774 H 177.824 1.59297 -3.64513 0
M  V30 1775 H 174.563 0.72612 -6.51466 0
M  V30 1776 H 174.083 2.16898 -5.5921 0
M  V30 1777 H 175.762 1.98606 -6.15764 0
M  V30 1778 N 175.894 1.51508 0.433938 0
M  V30 1779 C 177.31 1.39759 0.770682 0
M  V30 1780 C 177.51 0.482594 1.95636 0
M  V30 1781 O 176.566 -0.0609691 2.52426 0
M  V30 1782 C 177.879 2.81851 1.04787 0
M  V30 1783 C 179.427 2.91025 1.1521 0
M  V30 1784 C 179.902 4.34032 1.46219 0
M  V30 1785 N 181.393 4.37154 1.53136 0
M  V30 1786 C 182.128 5.4484 1.78709 0
M  V30 1787 N 181.624 6.62682 2.02051 0
M  V30 1788 N 183.417 5.32324 1.80519 0
M  V30 1789 H 175.568 2.09548 -0.346892 0
M  V30 1790 H 177.831 0.943446 -0.0928074 0
M  V30 1791 H 177.537 3.50815 0.249304 0
M  V30 1792 H 177.411 3.21386 1.97461 0
M  V30 1793 H 179.798 2.22257 1.94128 0
M  V30 1794 H 179.879 2.54983 0.204281 0
M  V30 1795 H 179.523 5.03351 0.678274 0
M  V30 1796 H 179.453 4.6759 2.42212 0
M  V30 1797 H 181.944 3.52197 1.36987 0
M  V30 1798 H 182.257 7.40543 2.20943 0
M  V30 1799 H 180.602 6.65791 1.99366 0
M  V30 1800 H 183.793 4.39246 1.61805 0
M  V30 1801 H 183.966 6.16328 2.00111 0
M  V30 1802 N 177.372 -0.689602 1.41712 0
M  V30 1803 C 178.783 -1.26973 1.36875 0
M  V30 1804 C 179.134 -1.96124 0.054748 0
M  V30 1805 O 178.259 -1.99141 -0.84687 0
M  V30 1806 C 178.854 -2.30912 2.47922 0
M  V30 1807 C 177.413 -2.84486 2.46464 0
M  V30 1808 C 176.56 -1.58603 2.27465 0
M  V30 1809 H 179.511 -0.48396 1.51141 0
M  V30 1810 H 179.532 -3.12331 2.17323 0
M  V30 1811 H 179.044 -1.80554 3.43543 0
M  V30 1812 H 177.145 -3.39005 1.54617 0
M  V30 1813 H 177.258 -3.34511 3.42986 0
M  V30 1814 H 175.622 -1.84632 1.75451 0
M  V30 1815 H 176.405 -1.10233 3.25121 0
M  V30 1816 N 178.85 -1.27639 -0.924453 0
M  V30 1817 C 180.266 -1.05113 -1.20097 0
M  V30 1818 C 180.466 0.213262 -2.00368 0
M  V30 1819 O 179.522 0.91787 -2.35226 0
M  V30 1820 C 180.835 -2.29244 -1.94596 0
M  V30 1821 C 182.383 -2.34315 -2.07522 0
M  V30 1822 C 182.858 -3.58183 -2.85427 0
M  V30 1823 N 184.349 -3.5876 -2.92994 0
M  V30 1824 C 185.084 -4.51277 -3.53746 0
M  V30 1825 N 184.58 -5.54102 -4.15863 0
M  V30 1826 N 186.373 -4.38894 -3.51181 0
M  V30 1827 H 178.524 -2.08821 -0.388264 0
M  V30 1828 H 180.787 -0.918568 -0.234385 0
M  V30 1829 H 180.493 -3.21301 -1.43034 0
M  V30 1830 H 180.367 -2.34816 -2.95197 0
M  V30 1831 H 182.754 -1.42762 -2.58269 0
M  V30 1832 H 182.835 -2.32744 -1.06131 0
M  V30 1833 H 182.479 -4.50074 -2.35363 0
M  V30 1834 H 182.409 -3.57006 -3.8711 0
M  V30 1835 H 184.9 -2.84398 -2.4885 0
M  V30 1836 H 185.213 -6.20859 -4.60168 0
M  V30 1837 H 183.558 -5.57941 -4.144 0
M  V30 1838 H 186.749 -3.57772 -3.01856 0
M  V30 1839 H 186.922 -5.11186 -3.98237 0
M  V30 1840 N 180.328 1.1314 -1.09713 0
M  V30 1841 C 181.276 2.20717 -0.733934 0
M  V30 1842 C 182.27 1.6729 0.266506 0
M  V30 1843 O 183.476 1.79547 0.127656 0
M  V30 1844 H 179.851 0.719292 -0.21937 0
M  V30 1845 H 181.822 2.48611 -1.6503 0
M  V30 1846 C 180.571 3.47265 -0.173849 0
M  V30 1847 H 179.894 3.88716 -0.934873 0
M  V30 1848 H 181.334 4.23979 0.0423126 0
M  V30 1849 C 179.793 3.18724 1.09164 0
M  V30 1850 O 180.323 3.37762 2.17439 0
M  V30 1851 N 178.529 2.72583 1.00732 0
M  V30 1852 H 178.076 2.57291 0.126121 0
M  V30 1853 H 178.034 2.53862 1.85476 0
M  V30 1854 N 181.806 0.884767 1.30421 0
M  V30 1855 C 183.055 0.499164 1.95426 0
M  V30 1856 C 183.368 -0.95645 1.70621 0
M  V30 1857 O 184.574 -1.44889 2.29607 0
M  V30 1858 C 183.03 0.84177 3.49917 0
M  V30 1859 C 182.638 2.31514 3.83543 0
M  V30 1860 C 184.382 0.525355 4.21237 0
M  V30 1861 C 182.289 2.59939 5.31212 0
M  V30 1862 H 181.219 0.182944 0.73147 0
M  V30 1863 H 183.87 1.07971 1.48373 0
M  V30 1864 H 182.252 0.190311 3.95542 0
M  V30 1865 H 183.426 3.0109 3.48829 0
M  V30 1866 H 181.741 2.59907 3.25326 0
M  V30 1867 H 184.338 0.714762 5.29901 0
M  V30 1868 H 184.681 -0.535222 4.12845 0
M  V30 1869 H 185.214 1.134 3.81294 0
M  V30 1870 H 181.953 3.64736 5.44654 0
M  V30 1871 H 181.473 1.94972 5.67227 0
M  V30 1872 H 183.152 2.45429 5.98643 0
M  V30 1873 N 183.284 -1.43765 0.645699 0
M  V30 1874 C 184.234 -2.27884 -0.0726442 0
M  V30 1875 C 185.218 -1.39483 -0.802086 0
M  V30 1876 O 186.41 -1.63174 -0.685791 0
M  V30 1877 C 183.539 -3.27055 -1.04356 0
M  V30 1878 C 182.625 -4.22944 -0.312985 0
M  V30 1879 N 183.016 -5.01391 0.666386 0
M  V30 1880 C 181.314 -4.42528 -0.55546 0
M  V30 1881 C 182.015 -5.71217 1.09935 0
M  V30 1882 N 180.991 -5.41856 0.435137 0
M  V30 1883 H 184.793 -2.85949 0.678988 0
M  V30 1884 H 182.307 -1.55378 0.472368 0
M  V30 1885 H 184.304 -3.86089 -1.57292 0
M  V30 1886 H 182.964 -2.70551 -1.79534 0
M  V30 1887 H 183.975 -5.07252 1.04481 0
M  V30 1888 H 180.652 -3.97104 -1.28899 0
M  V30 1889 H 182.042 -6.44202 1.90929 0
M  V30 1890 N 184.763 -0.387143 -1.52771 0
M  V30 1891 C 186.01 0.195735 -2.01552 0
M  V30 1892 C 186.338 1.46995 -1.27369 0
M  V30 1893 O 185.593 1.92325 -0.361879 0
M  V30 1894 C 185.892 0.512209 -3.53711 0
M  V30 1895 C 185.558 -0.670202 -4.45891 0
M  V30 1896 C 184.22 -0.994586 -4.70809 0
M  V30 1897 C 186.572 -1.46134 -5.00294 0
M  V30 1898 C 183.9 -2.11169 -5.4738 0
M  V30 1899 C 186.252 -2.56903 -5.78086 0
M  V30 1900 C 184.916 -2.89852 -6.01284 0
M  V30 1901 H 184.186 0.0716246 -0.73753 0
M  V30 1902 H 186.833 -0.524046 -1.8419 0
M  V30 1903 H 185.138 1.31329 -3.69134 0
M  V30 1904 H 186.835 0.975804 -3.88946 0
M  V30 1905 H 183.425 -0.407366 -4.2666 0
M  V30 1906 H 187.609 -1.22397 -4.80971 0
M  V30 1907 H 182.865 -2.3707 -5.63567 0
M  V30 1908 H 187.039 -3.18608 -6.19243 0
M  V30 1909 H 184.666 -3.76533 -6.60399 0
M  V30 1910 N 186.241 1.57166 -0.116904 0
M  V30 1911 C 187.652 1.82169 0.408809 0
M  V30 1912 C 188.003 1.03393 1.66746 0
M  V30 1913 O 187.128 0.269886 2.1471 0
M  V30 1914 C 187.723 3.30429 0.748466 0
M  V30 1915 C 186.282 3.5612 1.21882 0
M  V30 1916 C 185.429 2.76374 0.226452 0
M  V30 1917 H 188.38 1.5497 -0.342063 0
M  V30 1918 H 188.401 3.44943 1.60607 0
M  V30 1919 H 187.913 3.87737 -0.167784 0
M  V30 1920 H 186.014 3.04168 2.15204 0
M  V30 1921 H 186.127 4.64705 1.16559 0
M  V30 1922 H 184.491 2.44515 0.713063 0
M  V30 1923 H 185.274 3.3644 -0.682859 0
M  V30 1924 N 187.719 -0.156864 1.56817 0
M  V30 1925 C 189.135 -0.50916 1.5126 0
M  V30 1926 C 189.335 -1.83897 0.823658 0
M  V30 1927 O 188.391 -2.49469 0.390055 0
M  V30 1928 C 189.704 -0.52857 2.96018 0
M  V30 1929 C 191.252 -0.614771 3.06903 0
M  V30 1930 C 191.727 -0.664938 4.53147 0
M  V30 1931 N 193.218 -0.727433 4.57452 0
M  V30 1932 C 193.953 -0.787067 5.67973 0
M  V30 1933 N 193.449 -0.806649 6.88088 0
M  V30 1934 N 195.242 -0.827195 5.5598 0
M  V30 1935 H 187.393 0.714935 2.00006 0
M  V30 1936 H 189.656 0.259526 0.911784 0
M  V30 1937 H 189.362 0.380154 3.49639 0
M  V30 1938 H 189.236 -1.36998 3.51442 0
M  V30 1939 H 191.623 -1.51392 2.53307 0
M  V30 1940 H 191.704 0.253597 2.5454 0
M  V30 1941 H 191.348 0.230011 5.07379 0
M  V30 1942 H 191.278 -1.54966 5.03282 0
M  V30 1943 H 193.769 -0.719998 3.70978 0
M  V30 1944 H 194.082 -0.853727 7.6807 0
M  V30 1945 H 192.427 -0.774687 6.90669 0
M  V30 1946 H 195.618 -0.808998 4.61056 0
M  V30 1947 H 195.791 -0.870206 6.4213 0
M  V30 1948 N 189.197 -1.51736 -0.425897 0
M  V30 1949 C 190.425 -1.68794 -1.1965 0
M  V30 1950 C 190.84 -0.390164 -1.84725 0
M  V30 1951 O 190.197 0.632376 -1.71194 0
M  V30 1952 C 190.248 -2.81174 -2.27208 0
M  V30 1953 O 189.969 -4.05925 -1.64793 0
M  V30 1954 C 191.47 -3.09599 -3.17275 0
M  V30 1955 H 188.69 -0.566128 -0.360194 0
M  V30 1956 H 191.234 -1.98211 -0.503249 0
M  V30 1957 H 189.389 -2.54324 -2.9223 0
M  V30 1958 H 189.803 -4.68423 -2.35967 0
M  V30 1959 H 191.277 -3.91786 -3.88854 0
M  V30 1960 H 191.754 -2.22468 -3.78688 0
M  V30 1961 H 192.36 -3.38151 -2.57941 0
M  V30 1962 N 190.675 0.682077 -1.42076 0
M  V30 1963 C 191.9 1.47558 -1.45744 0
M  V30 1964 C 192.325 1.87977 -0.0680981 0
M  V30 1965 O 191.683 1.55522 0.9318 0
M  V30 1966 C 191.731 2.70575 -2.38373 0
M  V30 1967 O 190.835 3.68573 -1.85007 0
M  V30 1968 H 190.176 0.443585 -0.494093 0
M  V30 1969 H 192.706 0.837238 -1.86686 0
M  V30 1970 H 192.716 3.18729 -2.54707 0
M  V30 1971 H 191.391 2.40495 -3.39315 0
M  V30 1972 H 189.968 3.2757 -1.78192 0
M  V30 1973 N 192.153 1.28127 0.917671 0
M  V30 1974 C 193.083 1.14248 2.03641 0
M  V30 1975 C 194.064 0.0412748 1.7005 0
M  V30 1976 O 195.249 0.217566 1.92977 0
M  V30 1977 C 192.379 0.799431 3.37974 0
M  V30 1978 C 191.333 1.85497 3.85713 0
M  V30 1979 C 190.659 1.36565 5.16966 0
M  V30 1980 C 191.959 3.26085 4.08002 0
M  V30 1981 H 193.653 2.07835 2.15511 0
M  V30 1982 H 191.199 1.00064 1.03553 0
M  V30 1983 H 193.152 0.689114 4.15727 0
M  V30 1984 H 191.876 -0.172145 3.26146 0
M  V30 1985 H 190.535 1.95437 3.10161 0
M  V30 1986 H 190.183 0.383253 5.01538 0
M  V30 1987 H 189.883 2.07143 5.49878 0
M  V30 1988 H 191.407 1.26848 5.97279 0
M  V30 1989 H 192.821 3.19089 4.76293 0
M  V30 1990 H 191.218 3.94462 4.52238 0
M  V30 1991 H 192.288 3.70394 3.12948 0
M  V30 1992 N 193.631 -1.12557 1.10312 0
M  V30 1993 C 194.88 -1.83395 0.839588 0
M  V30 1994 C 195.193 -1.84939 -0.636929 0
M  V30 1995 O 196.399 -2.51761 -1.01631 0
M  V30 1996 C 194.855 -3.29303 1.45215 0
M  V30 1997 C 194.463 -3.36122 2.96186 0
M  V30 1998 C 196.207 -4.05121 1.26796 0
M  V30 1999 C 194.114 -4.76357 3.50483 0
M  V30 2000 H 193.044 -0.687133 0.310425 0
M  V30 2001 H 195.695 -1.26746 1.32694 0
M  V30 2002 H 194.077 -3.85812 0.892469 0
M  V30 2003 H 195.251 -2.89559 3.58458 0
M  V30 2004 H 193.566 -2.73776 3.13745 0
M  V30 2005 H 196.163 -5.08668 1.64806 0
M  V30 2006 H 196.506 -4.15773 0.209409 0
M  V30 2007 H 197.039 -3.54967 1.79563 0
M  V30 2008 H 193.778 -4.70899 4.55998 0
M  V30 2009 H 193.298 -5.23377 2.92978 0
M  V30 2010 H 194.977 -5.45294 3.48228 0
M  V30 2011 N 195.109 -0.891671 -1.2995 0
M  V30 2012 C 196.072 -0.36828 -2.26222 0
M  V30 2013 C 197.072 0.493014 -1.53056 0
M  V30 2014 O 198.262 0.299213 -1.71611 0
M  V30 2015 C 195.394 0.47442 -3.37583 0
M  V30 2016 H 196.587 -1.21844 -2.74033 0
M  V30 2017 H 194.14 -0.669107 -1.41254 0
M  V30 2018 H 194.875 1.34489 -2.95099 0
M  V30 2019 H 194.66 -0.142615 -3.91841 0
M  V30 2020 H 196.15 0.83218 -4.09224 0
M  V30 2021 N 196.587 1.43421 -0.653314 0
M  V30 2022 C 197.836 2.01032 -0.164076 0
M  V30 2023 C 198.149 1.52147 1.22926 0
M  V30 2024 O 199.355 2.02031 1.81371 0
M  V30 2025 C 197.811 3.59082 -0.24252 0
M  V30 2026 C 197.419 4.1696 -1.63855 0
M  V30 2027 C 199.163 4.24079 0.18911 0
M  V30 2028 C 197.07 5.67304 -1.67092 0
M  V30 2029 H 196 0.751798 -0.0575769 0
M  V30 2030 H 198.651 1.6439 -0.815362 0
M  V30 2031 H 197.033 3.93125 0.476276 0
M  V30 2032 H 198.207 3.94416 -2.38271 0
M  V30 2033 H 196.522 3.64335 -2.01616 0
M  V30 2034 H 199.119 5.34381 0.184775 0
M  V30 2035 H 199.462 3.98005 1.22056 0
M  V30 2036 H 199.995 3.94918 -0.477938 0
M  V30 2037 H 196.734 5.98145 -2.68146 0
M  V30 2038 H 196.254 5.91904 -0.970014 0
M  V30 2039 H 197.933 6.31344 -1.4147 0
M  V30 2040 N 198.065 0.39524 1.52563 0
M  V30 2041 C 198.975 -0.444232 2.30356 0
M  V30 2042 C 199.991 -1.06615 1.37511 0
M  V30 2043 O 201.167 -1.07067 1.70583 0
M  V30 2044 C 198.232 -1.55315 3.09964 0
M  V30 2045 C 197.293 -0.955734 4.18526 0
M  V30 2046 C 196.526 -2.01181 4.9433 0
M  V30 2047 O 196.749 -3.22781 4.70285 0
M  V30 2048 O 195.683 -1.62579 5.79527 0
M  V30 2049 H 199.509 0.189667 3.03107 0
M  V30 2050 H 197.094 0.1588 1.48554 0
M  V30 2051 H 198.976 -2.19724 3.59582 0
M  V30 2052 H 197.651 -2.17191 2.4002 0
M  V30 2053 H 196.558 -0.274743 3.7309 0
M  V30 2054 H 197.891 -0.381109 4.90722 0
M  V30 2055 N 199.544 -1.57102 0.125237 0
M  V30 2056 C 200.492 -2.16905 -0.839927 0
M  V30 2057 C 201.486 -1.11998 -1.27094 0
M  V30 2058 O 202.692 -1.3029 -1.24195 0
M  V30 2059 H 199.067 -0.694252 -0.288995 0
M  V30 2060 H 201.038 -2.96774 -0.311115 0
M  V30 2061 C 199.787 -2.78795 -2.07771 0
M  V30 2062 H 199.11 -3.59221 -1.755 0
M  V30 2063 H 200.55 -3.2417 -2.73295 0
M  V30 2064 C 199.009 -1.76193 -2.87155 0
M  V30 2065 O 199.539 -1.21909 -3.82755 0
M  V30 2066 N 197.745 -1.45991 -2.51267 0
M  V30 2067 H 197.292 -1.90325 -1.73592 0
M  V30 2068 H 197.25 -0.775844 -3.04677 0
M  V30 2069 N 201.022 0.148545 -1.56898 0
M  V30 2070 C 202.25 0.876389 -1.87422 0
M  V30 2071 C 202.665 1.74809 -0.713256 0
M  V30 2072 O 202.022 1.79725 0.317025 0
M  V30 2073 C 202.073 1.73438 -3.17178 0
M  V30 2074 O 201.794 0.897809 -4.28802 0
M  V30 2075 C 203.295 2.56993 -3.61205 0
M  V30 2076 H 200.515 0.253489 -0.621277 0
M  V30 2077 H 203.059 0.141798 -2.04008 0
M  V30 2078 H 201.214 2.42205 -3.0235 0
M  V30 2079 H 201.628 1.48672 -5.02988 0
M  V30 2080 H 203.102 3.12773 -4.54838 0
M  V30 2081 H 203.579 3.32958 -2.86419 0
M  V30 2082 H 204.185 1.9352 -3.78722 0
M  V30 2083 N 202.5 1.5196 0.417844 0
M  V30 2084 C 203.45 1.7106 1.5074 0
M  V30 2085 C 204.434 0.564487 1.50673 0
M  V30 2086 O 205.626 0.821206 1.56797 0
M  V30 2087 C 202.755 1.85677 2.88754 0
M  V30 2088 C 201.841 3.06133 2.93502 0
M  V30 2089 N 202.232 4.28987 2.67962 0
M  V30 2090 C 200.53 3.05787 3.24669 0
M  V30 2091 C 201.231 5.10395 2.79055 0
M  V30 2092 N 200.207 4.45455 3.11561 0
M  V30 2093 H 204.009 2.63696 1.29775 0
M  V30 2094 H 201.523 1.49873 0.625436 0
M  V30 2095 H 203.52 1.97475 3.67164 0
M  V30 2096 H 202.18 0.942348 3.10725 0
M  V30 2097 H 203.191 4.57607 2.4252 0
M  V30 2098 H 199.868 2.2405 3.52289 0
M  V30 2099 H 201.258 6.18247 2.63097 0
M  V30 2100 N 203.978 -0.674533 1.42435 0
M  V30 2101 C 204.926 -1.80934 1.46169 0
M  V30 2102 C 205.92 -1.66006 0.3374 0
M  V30 2103 O 207.126 -1.72611 0.510425 0
M  V30 2104 H 203.501 -0.596594 0.457798 0
M  V30 2105 H 205.472 -1.74903 2.41767 0
M  V30 2106 C 204.221 -3.19088 1.38123 0
M  V30 2107 H 203.544 -3.31203 2.23931 0
M  V30 2108 H 204.984 -3.9851 1.44797 0
M  V30 2109 C 203.443 -3.36763 0.0960517 0
M  V30 2110 O 203.973 -3.92581 -0.851073 0
M  V30 2111 N 202.179 -2.90597 0.0131186 0
M  V30 2112 H 201.726 -2.45359 0.784639 0
M  V30 2113 H 201.684 -3.028 -0.846133 0
M  V30 2114 N 205.456 -1.28612 -0.910864 0
M  V30 2115 C 206.872 -1.06381 -1.18976 0
M  V30 2116 C 207.072 0.191998 -2.00583 0
M  V30 2117 O 206.128 0.892869 -2.36187 0
M  V30 2118 C 207.441 -2.31295 -1.92154 0
M  V30 2119 C 208.989 -2.36503 -2.05025 0
M  V30 2120 C 209.464 -3.61191 -2.81612 0
M  V30 2121 N 210.955 -3.61847 -2.89172 0
M  V30 2122 C 211.69 -4.55004 -3.4894 0
M  V30 2123 N 211.186 -5.58482 -4.09963 0
M  V30 2124 N 212.979 -4.42594 -3.46506 0
M  V30 2125 H 205.13 -2.09221 -0.366094 0
M  V30 2126 H 207.393 -0.921003 -0.224629 0
M  V30 2127 H 207.099 -3.228 -1.39618 0
M  V30 2128 H 206.973 -2.37934 -2.9269 0
M  V30 2129 H 209.36 -1.45494 -2.5674 0
M  V30 2130 H 209.441 -2.33857 -1.03657 0
M  V30 2131 H 209.085 -4.52545 -2.30576 0
M  V30 2132 H 209.015 -3.61092 -3.83302 0
M  V30 2133 H 211.506 -2.87022 -2.45819 0
M  V30 2134 H 211.819 -6.25704 -4.53557 0
M  V30 2135 H 210.164 -5.62305 -4.08459 0
M  V30 2136 H 213.355 -3.60953 -2.98045 0
M  V30 2137 H 213.528 -5.15381 -3.92793 0
M  V30 2138 N 206.934 1.1197 -1.10907 0
M  V30 2139 C 208.159 1.87942 -0.877064 0
M  V30 2140 C 208.584 1.79341 0.567314 0
M  V30 2141 O 207.942 1.15184 1.40009 0
M  V30 2142 C 207.99 3.34926 -1.33629 0
M  V30 2143 O 207.094 4.09303 -0.504447 0
M  V30 2144 H 206.435 0.583785 -0.316371 0
M  V30 2145 H 208.965 1.4157 -1.47712 0
M  V30 2146 H 208.975 3.8577 -1.32837 0
M  V30 2147 H 207.65 3.40504 -2.3881 0
M  V30 2148 H 206.227 3.68393 -0.577993 0
M  V30 2149 N 208.412 0.89855 1.29475 0
M  V30 2150 C 209.66 0.522847 1.9522 0
M  V30 2151 C 209.981 -0.93371 1.71192 0
M  V30 2152 O 209.251 -1.65823 1.04305 0
M  V30 2153 H 207.831 0.190366 0.722336 0
M  V30 2154 H 210.493 1.14459 1.5775 0
M  V30 2155 H 209.589 0.704476 3.04045 0
M  V30 2156 N 209.89 -1.43072 0.660911 0
M  V30 2157 C 211.138 -2.01323 0.177094 0
M  V30 2158 C 211.459 -1.5245 -1.2159 0
M  V30 2159 O 210.729 -0.740322 -1.81373 0
M  V30 2160 H 209.309 -0.744382 0.0624804 0
M  V30 2161 H 211.971 -1.75179 0.854305 0
M  V30 2162 H 211.067 -3.11649 0.167641 0
M  V30 2163 N 211.368 -0.403325 -1.52352 0
M  V30 2164 C 212.784 -0.0539281 -1.59509 0
M  V30 2165 C 212.984 1.43307 -1.41652 0
M  V30 2166 O 212.04 2.19924 -1.24056 0
M  V30 2167 C 213.353 -0.543654 -2.95745 0
M  V30 2168 C 214.901 -0.501125 -3.08962 0
M  V30 2169 C 215.376 -0.967267 -4.47669 0
M  V30 2170 N 216.867 -0.923849 -4.53893 0
M  V30 2171 C 217.602 -1.25578 -5.5948 0
M  V30 2172 N 217.098 -1.65889 -6.72646 0
M  V30 2173 N 218.891 -1.17613 -5.49658 0
M  V30 2174 H 211.042 -1.37123 -1.62206 0
M  V30 2175 H 213.305 -0.56294 -0.76276 0
M  V30 2176 H 213.011 -1.58275 -3.14073 0
M  V30 2177 H 212.885 0.0498042 -3.77167 0
M  V30 2178 H 215.272 0.528909 -2.90321 0
M  V30 2179 H 215.353 -1.13056 -2.2946 0
M  V30 2180 H 214.997 -1.9956 -4.67053 0
M  V30 2181 H 214.927 -0.314698 -5.25659 0
M  V30 2182 H 217.418 -0.627403 -3.72655 0
M  V30 2183 H 217.731 -1.89543 -7.49195 0
M  V30 2184 H 216.076 -1.69787 -6.73942 0
M  V30 2185 H 219.267 -0.860115 -4.6013 0
M  V30 2186 H 219.44 -1.43812 -6.3184 0
M  V30 2187 N 212.846 1.57033 -0.133567 0
M  V30 2188 C 214.092 1.95976 0.521649 0
M  V30 2189 C 214.425 1.01779 1.65393 0
M  V30 2190 O 213.7 0.0576581 1.94415 0
M  V30 2191 C 213.983 3.44738 1.04057 0
M  V30 2192 C 213.836 4.49711 -0.0892897 0
M  V30 2193 C 215.155 3.95682 1.92675 0
M  V30 2194 H 212.274 0.712579 0.188149 0
M  V30 2195 H 214.916 1.88813 -0.212076 0
M  V30 2196 H 213.066 3.50973 1.66583 0
M  V30 2197 H 214.738 4.55565 -0.725152 0
M  V30 2198 H 212.981 4.27261 -0.750378 0
M  V30 2199 H 213.652 5.51099 0.315284 0
M  V30 2200 H 216.128 3.91841 1.39998 0
M  V30 2201 H 215.004 5.00262 2.25897 0
M  V30 2202 H 215.265 3.37239 2.85872 0
M  V30 2203 N 214.325 -0.140222 1.56975 0
M  V30 2204 C 215.571 -0.852949 1.83991 0
M  V30 2205 C 215.904 -1.80512 0.716187 0
M  V30 2206 O 215.179 -1.92479 -0.279681 0
M  V30 2207 C 215.462 -1.6215 3.21527 0
M  V30 2208 C 215.315 -0.690363 4.4447 0
M  V30 2209 C 216.634 -2.58247 3.56366 0
M  V30 2210 H 213.753 -0.308634 0.669264 0
M  V30 2211 H 216.395 -0.117898 1.89634 0
M  V30 2212 H 214.545 -2.24812 3.16847 0
M  V30 2213 H 216.217 -0.0742264 4.6124 0
M  V30 2214 H 214.46 -0.000396433 4.338 0
M  V30 2215 H 215.131 -1.2643 5.37326 0
M  V30 2216 H 217.607 -2.05701 3.61699 0
M  V30 2217 H 216.483 -3.09067 4.53617 0
M  V30 2218 H 216.744 -3.39923 2.82674 0
M  V30 2219 N 215.803 -1.52179 -0.40978 0
M  V30 2220 C 217.214 -1.58377 -0.988615 0
M  V30 2221 C 217.565 -0.423879 -1.91566 0
M  V30 2222 O 216.69 0.455844 -2.11544 0
M  V30 2223 C 217.285 -2.87044 -1.79976 0
M  V30 2224 C 215.844 -2.95722 -2.32863 0
M  V30 2225 C 214.991 -2.53309 -1.12828 0
M  V30 2226 H 217.942 -1.57558 -0.190039 0
M  V30 2227 H 217.963 -2.7236 -2.65707 0
M  V30 2228 H 217.475 -3.71444 -1.12478 0
M  V30 2229 H 215.576 -2.15814 -3.03735 0
M  V30 2230 H 215.689 -3.99951 -2.63773 0
M  V30 2231 H 214.053 -2.07142 -1.48204 0
M  V30 2232 H 214.836 -3.40082 -0.46897 0
M  V30 2233 N 217.281 0.66697 -1.42791 0
M  V30 2234 C 218.211 1.79218 -1.49677 0
M  V30 2235 C 219.192 1.66405 -0.352623 0
M  V30 2236 O 220.377 1.85708 -0.567993 0
M  V30 2237 C 217.507 3.17565 -1.40605 0
M  V30 2238 C 216.461 3.45124 -2.53127 0
M  V30 2239 C 215.787 4.83127 -2.29112 0
M  V30 2240 C 217.087 3.41236 -3.95418 0
M  V30 2241 H 218.781 1.73713 -2.43853 0
M  V30 2242 H 216.327 0.83432 -1.17367 0
M  V30 2243 H 218.28 3.96022 -1.44029 0
M  V30 2244 H 217.004 3.23767 -0.429271 0
M  V30 2245 H 215.663 2.69031 -2.49034 0
M  V30 2246 H 215.311 4.85988 -1.29709 0
M  V30 2247 H 215.011 5.02528 -3.04531 0
M  V30 2248 H 216.535 5.63859 -2.34297 0
M  V30 2249 H 217.949 4.09651 -4.01073 0
M  V30 2250 H 216.346 3.72173 -4.70752 0
M  V30 2251 H 217.416 2.39665 -4.21532 0
M  V30 2252 N 218.759 1.29093 0.90403 0
M  V30 2253 C 219.669 1.15727 2.0407 0
M  V30 2254 C 220.685 0.0815308 1.73809 0
M  V30 2255 O 221.861 0.292749 1.99261 0
M  V30 2256 C 218.926 0.830424 3.36608 0
M  V30 2257 C 217.987 1.98955 3.80415 0
M  V30 2258 C 217.22 1.6782 5.06628 0
M  V30 2259 O 217.443 0.597105 5.67266 0
M  V30 2260 O 216.377 2.52486 5.46383 0
M  V30 2261 H 220.203 2.11171 2.18267 0
M  V30 2262 H 217.788 1.08504 1.027 0
M  V30 2263 H 219.67 0.662521 4.16159 0
M  V30 2264 H 218.345 -0.0942678 3.23563 0
M  V30 2265 H 217.252 2.21267 3.01648 0
M  V30 2266 H 218.585 2.89529 3.98037 0
M  V30 2267 N 220.237 -1.11381 1.11499 0
M  V30 2268 C 221.185 -2.19522 0.768956 0
M  V30 2269 C 222.179 -1.67693 -0.239857 0
M  V30 2270 O 223.385 -1.79727 -0.0990755 0
M  V30 2271 H 219.76 -0.715711 0.230786 0
M  V30 2272 H 221.731 -2.45954 1.68964 0
M  V30 2273 C 220.48 -3.46945 0.229073 0
M  V30 2274 H 219.803 -3.8718 0.996596 0
M  V30 2275 H 221.243 -4.23993 0.0251441 0
M  V30 2276 C 219.702 -3.2042 -1.04079 0
M  V30 2277 O 220.232 -3.41178 -2.12038 0
M  V30 2278 N 218.438 -2.74151 -0.963823 0
M  V30 2279 H 217.985 -2.57459 -0.0851722 0
M  V30 2280 H 217.943 -2.56781 -1.81414 0
M  V30 2281 N 221.715 -0.905404 -1.28997 0
M  V30 2282 C 222.964 -0.530191 -1.94607 0
M  V30 2283 C 223.277 0.929185 -1.72121 0
M  V30 2284 O 224.483 1.41218 -2.31883 0
M  V30 2285 C 222.939 -0.897333 -3.48534 0
M  V30 2286 C 222.547 -2.37587 -3.79811 0
M  V30 2287 C 224.291 -0.592304 -4.20347 0
M  V30 2288 C 222.198 -2.68357 -5.27009 0
M  V30 2289 H 221.128 -0.194558 -0.728466 0
M  V30 2290 H 223.779 -1.10318 -1.46636 0
M  V30 2291 H 222.161 -0.253214 -3.9519 0
M  V30 2292 H 223.335 -3.06602 -3.43994 0
M  V30 2293 H 221.65 -2.6505 -3.2115 0
M  V30 2294 H 224.247 -0.798975 -5.28697 0
M  V30 2295 H 224.59 0.469474 -4.13644 0
M  V30 2296 H 225.123 -1.19452 -3.79442 0
M  V30 2297 H 221.862 -3.73355 -5.38782 0
M  V30 2298 H 221.382 -2.03971 -5.64053 0
M  V30 2299 H 223.061 -2.54922 -5.94663 0
M  V30 2300 N 223.193 1.4272 -0.668489 0
M  V30 2301 C 224.14 2.30796 0.0137489 0
M  V30 2302 C 225.11 1.4561 0.799177 0
M  V30 2303 O 226.295 1.74453 0.772702 0
M  V30 2304 C 223.435 3.31377 0.963507 0
M  V30 2305 C 222.548 4.31655 0.172569 0
M  V30 2306 C 221.683 5.19312 1.1175 0
M  V30 2307 C 220.722 6.11274 0.317886 0
M  V30 2308 N 219.859 6.91504 1.2152 0
M  V30 2309 H 224.699 2.88585 -0.743161 0
M  V30 2310 H 222.236 1.42154 -0.378226 0
M  V30 2311 H 224.194 3.88214 1.52792 0
M  V30 2312 H 222.824 2.75202 1.68712 0
M  V30 2313 H 221.876 3.76988 -0.508374 0
M  V30 2314 H 223.188 4.96779 -0.448527 0
M  V30 2315 H 222.342 5.80851 1.75206 0
M  V30 2316 H 221.081 4.5435 1.77249 0
M  V30 2317 H 220.086 5.48809 -0.329918 0
M  V30 2318 H 221.311 6.78283 -0.332917 0
M  V30 2319 H 219.257 6.29176 1.85671 0
M  V30 2320 H 219.174 7.53209 0.649036 0
M  V30 2321 H 220.442 7.57535 1.83742 0
M  V30 2322 N 224.671 0.411399 1.52136 0
M  V30 2323 C 225.581 -0.419774 2.30814 0
M  V30 2324 C 226.597 -1.0515 1.38634 0
M  V30 2325 O 227.773 -1.05252 1.71709 0
M  V30 2326 C 224.838 -1.52019 3.11594 0
M  V30 2327 C 223.899 -0.91129 4.19516 0
M  V30 2328 C 223.132 -1.95927 4.96436 0
M  V30 2329 O 223.355 -3.17775 4.73683 0
M  V30 2330 O 222.289 -1.56423 5.81219 0
M  V30 2331 H 226.115 0.221805 3.02889 0
M  V30 2332 H 223.7 0.174547 1.48377 0
M  V30 2333 H 225.582 -2.15898 3.61892 0
M  V30 2334 H 224.257 -2.14633 2.42311 0
M  V30 2335 H 223.164 -0.235157 3.7336 0
M  V30 2336 H 224.497 -0.32904 4.91099 0
M  V30 2337 N 226.149 -1.5696 0.141893 0
M  V30 2338 C 227.398 -1.95135 -0.510427 0
M  V30 2339 C 227.711 -1.02896 -1.66348 0
M  V30 2340 O 228.917 -1.30629 -2.38009 0
M  V30 2341 C 227.373 -3.46876 -0.959427 0
M  V30 2342 C 226.981 -4.47691 0.166419 0
M  V30 2343 C 228.725 -3.93927 -1.58183 0
M  V30 2344 C 226.632 -5.90636 -0.300565 0
M  V30 2345 H 225.562 -0.728494 -0.194454 0
M  V30 2346 H 228.213 -1.8211 0.22542 0
M  V30 2347 H 226.595 -3.55215 -1.75038 0
M  V30 2348 H 227.769 -4.51043 0.94325 0
M  V30 2349 H 226.084 -4.10527 0.696905 0
M  V30 2350 H 228.681 -4.98158 -1.94275 0
M  V30 2351 H 229.024 -3.3519 -2.46888 0
M  V30 2352 H 229.557 -3.88484 -0.855863 0
M  V30 2353 H 226.296 -6.5318 0.550989 0
M  V30 2354 H 225.816 -5.90655 -1.04338 0
M  V30 2355 H 227.495 -6.42588 -0.754265 0
M  V30 2356 N 227.627 0.131896 -1.57047 0
M  V30 2357 C 228.867 0.847972 -1.85981 0
M  V30 2358 C 229.231 1.77655 -0.7282 0
M  V30 2359 O 230.432 2.53322 -0.898968 0
M  V30 2360 C 228.703 1.58919 -3.20124 0
M  V30 2361 S 230.262 2.34862 -3.70655 0
M  V30 2362 H 227.08 0.283273 -0.652133 0
M  V30 2363 H 229.682 0.107057 -1.95207 0
M  V30 2364 H 228.386 0.898771 -4.00438 0
M  V30 2365 H 227.917 2.37073 -3.13942 0
M  V30 2366 H 229.932 3.60344 -3.41126 0
M  V30 2367 N 229.106 1.52395 0.401703 0
M  V30 2368 C 230.334 1.70676 1.16949 0
M  V30 2369 C 230.749 0.419503 1.8408 0
M  V30 2370 O 230.106 -0.605061 1.72178 0
M  V30 2371 C 230.157 2.84753 2.22706 0
M  V30 2372 O 229.878 4.08495 1.58314 0
M  V30 2373 C 231.379 3.14608 3.12309 0
M  V30 2374 H 228.599 0.571787 0.351142 0
M  V30 2375 H 231.143 1.98987 0.471652 0
M  V30 2376 H 229.298 2.58941 2.88147 0
M  V30 2377 H 229.712 4.72117 2.28485 0
M  V30 2378 H 231.186 3.97923 3.82572 0
M  V30 2379 H 231.663 2.28464 3.75101 0
M  V30 2380 H 232.269 3.42212 2.52529 0
M  V30 2381 N 230.584 -0.659388 1.43143 0
M  V30 2382 C 231.833 -1.41518 1.43721 0
M  V30 2383 C 232.146 -1.95499 0.0628176 0
M  V30 2384 O 233.352 -2.71446 -0.0539683 0
M  V30 2385 C 231.808 -2.5608 2.52885 0
M  V30 2386 C 231.416 -2.08733 3.96402 0
M  V30 2387 C 233.16 -3.3349 2.62649 0
M  V30 2388 C 231.067 -3.20469 4.97045 0
M  V30 2389 H 229.997 -0.531705 0.534608 0
M  V30 2390 H 232.648 -0.712343 1.69109 0
M  V30 2391 H 231.03 -3.28805 2.20688 0
M  V30 2392 H 232.204 -1.43059 4.3803 0
M  V30 2393 H 230.519 -1.44219 3.90627 0
M  V30 2394 H 233.116 -4.16734 3.35017 0
M  V30 2395 H 233.459 -3.8111 1.67513 0
M  V30 2396 H 233.992 -2.67842 2.94118 0
M  V30 2397 H 230.731 -2.77824 5.93712 0
M  V30 2398 H 230.251 -3.84874 4.60034 0
M  V30 2399 H 231.93 -3.85698 5.19467 0
M  V30 2400 N 232.062 -1.29571 -0.897171 0
M  V30 2401 C 233.025 -1.14913 -1.98312 0
M  V30 2402 C 234.025 -0.0838629 -1.60581 0
M  V30 2403 O 235.215 -0.331006 -1.71026 0
M  V30 2404 C 232.347 -0.757835 -3.3237 0
M  V30 2405 H 233.54 -2.11377 -2.12743 0
M  V30 2406 H 231.093 -1.12793 -1.08201 0
M  V30 2407 H 231.828 0.206837 -3.2364 0
M  V30 2408 H 231.613 -1.52755 -3.61121 0
M  V30 2409 H 233.103 -0.678408 -4.12053 0
M  V30 2410 N 233.54 1.10788 -1.12088 0
M  V30 2411 C 234.487 2.17025 -0.785407 0
M  V30 2412 C 235.457 1.64265 0.246191 0
M  V30 2413 O 236.642 1.90412 0.121584 0
M  V30 2414 C 233.782 3.44249 -0.242177 0
M  V30 2415 C 232.895 4.1098 -1.33115 0
M  V30 2416 C 232.03 5.25911 -0.747741 0
M  V30 2417 C 231.069 5.84538 -1.81609 0
M  V30 2418 N 230.206 6.90853 -1.25167 0
M  V30 2419 H 235.046 2.45066 -1.69548 0
M  V30 2420 H 232.583 1.20297 -0.846582 0
M  V30 2421 H 234.541 4.17101 0.0908026 0
M  V30 2422 H 233.171 3.16571 0.631072 0
M  V30 2423 H 232.223 3.36133 -1.78097 0
M  V30 2424 H 233.535 4.50601 -2.13917 0
M  V30 2425 H 232.689 6.056 -0.365216 0
M  V30 2426 H 231.428 4.87614 0.0915188 0
M  V30 2427 H 230.433 5.03522 -2.20785 0
M  V30 2428 H 231.658 6.249 -2.6585 0
M  V30 2429 H 229.604 6.54562 -0.434174 0
M  V30 2430 H 229.521 7.29166 -1.99633 0
M  V30 2431 H 230.789 7.7433 -0.896259 0
M  V30 2432 N 235.018 0.912232 1.28515 0
M  V30 2433 C 235.928 0.404506 2.31086 0
M  V30 2434 C 236.944 -0.50707 1.66448 0
M  V30 2435 O 238.12 -0.393624 1.97516 0
M  V30 2436 C 235.185 -0.348572 3.44943 0
M  V30 2437 C 234.246 0.59604 4.25142 0
M  V30 2438 C 233.479 -0.121194 5.33562 0
M  V30 2439 O 233.702 -1.34317 5.5436 0
M  V30 2440 O 232.636 0.542716 5.99448 0
M  V30 2441 H 236.462 1.25579 2.76521 0
M  V30 2442 H 234.047 0.676998 1.33181 0
M  V30 2443 H 235.929 -0.77395 4.14232 0
M  V30 2444 H 234.604 -1.17571 3.01594 0
M  V30 2445 H 233.511 1.07079 3.58448 0
M  V30 2446 H 234.844 1.38995 4.72167 0
M  V30 2447 N 236.496 -1.42363 0.676048 0
M  V30 2448 C 237.446 -2.27987 -0.0242903 0
M  V30 2449 C 238.43 -1.41153 -0.772319 0
M  V30 2450 O 239.622 -1.64592 -0.651025 0
M  V30 2451 C 236.751 -3.29195 -0.973953 0
M  V30 2452 C 235.837 -4.23512 -0.223202 0
M  V30 2453 N 236.228 -4.99865 0.772589 0
M  V30 2454 C 234.526 -4.43606 -0.461469 0
M  V30 2455 C 235.227 -5.68757 1.22027 0
M  V30 2456 N 234.203 -5.40811 0.549975 0
M  V30 2457 H 238.005 -2.84445 0.73949 0
M  V30 2458 H 235.519 -1.54341 0.50522 0
M  V30 2459 H 237.516 -3.89339 -1.49067 0
M  V30 2460 H 236.176 -2.74298 -1.73755 0
M  V30 2461 H 237.187 -5.04921 1.15217 0
M  V30 2462 H 233.864 -3.99749 -1.20446 0
M  V30 2463 H 235.254 -6.40007 2.0455 0
M  V30 2464 N 237.974 -0.419461 -1.51915 0
M  V30 2465 C 239.222 0.152637 -2.01523 0
M  V30 2466 C 239.543 1.44762 -1.30649 0
M  V30 2467 O 238.813 1.90997 -0.435535 0
M  V30 2468 H 237.393 0.0593966 -0.744635 0
M  V30 2469 H 240.055 -0.558073 -1.86739 0
M  V30 2470 H 239.151 0.341369 -3.10227 0
M  V30 2471 N 239.452 1.56882 -0.150215 0
M  V30 2472 C 240.701 1.95403 0.500071 0
M  V30 2473 C 241.014 1.03777 1.658 0
M  V30 2474 O 242.22 1.31889 2.37313 0
M  V30 2475 C 240.676 3.4738 0.941018 0
M  V30 2476 C 240.284 4.47596 -0.190158 0
M  V30 2477 C 242.028 3.9476 1.56091 0
M  V30 2478 C 239.935 5.90787 0.269237 0
M  V30 2479 H 238.865 0.729515 0.190588 0
M  V30 2480 H 241.516 1.81988 -0.235074 0
M  V30 2481 H 239.898 3.56138 1.73152 0
M  V30 2482 H 241.072 4.50536 -0.967157 0
M  V30 2483 H 239.387 4.10151 -0.718666 0
M  V30 2484 H 241.984 4.99181 1.9163 0
M  V30 2485 H 242.327 3.36494 2.45107 0
M  V30 2486 H 242.86 3.88932 0.835249 0
M  V30 2487 H 239.599 6.52879 -0.585621 0
M  V30 2488 H 239.119 5.912 1.01204 0
M  V30 2489 H 240.798 6.42979 0.720176 0
M  V30 2490 N 240.93 -0.123565 1.57115 0
M  V30 2491 C 241.878 -1.17082 2.00984 0
M  V30 2492 C 242.872 -1.43136 0.906009 0
M  V30 2493 O 244.078 -1.43152 1.09121 0
M  V30 2494 H 240.453 -0.394653 0.64012 0
M  V30 2495 H 242.424 -0.774292 2.88179 0
M  V30 2496 C 241.173 -2.49057 2.42623 0
M  V30 2497 H 240.496 -2.29846 3.27125 0
M  V30 2498 H 241.936 -3.20906 2.7712 0
M  V30 2499 C 240.395 -3.11305 1.28805 0
M  V30 2500 O 240.925 -3.97171 0.60153 0
M  V30 2501 N 239.131 -2.71111 1.04628 0
M  V30 2502 H 238.678 -2.01382 1.60634 0
M  V30 2503 H 238.636 -3.1309 0.286685 0
M  V30 2504 N 242.408 -1.52605 -0.393616 0
M  V30 2505 C 243.654 -1.67672 -1.14079 0
M  V30 2506 C 243.987 -0.413121 -1.89755 0
M  V30 2507 O 243.262 0.588952 -1.85369 0
M  V30 2508 C 243.545 -2.9088 -2.12276 0
M  V30 2509 C 243.398 -4.27329 -1.40394 0
M  V30 2510 C 244.717 -3.09628 -3.12759 0
M  V30 2511 H 241.836 -0.610168 -0.413356 0
M  V30 2512 H 244.478 -1.85193 -0.424696 0
M  V30 2513 H 242.628 -2.76073 -2.73342 0
M  V30 2514 H 244.3 -4.53894 -0.82327 0
M  V30 2515 H 242.543 -4.2802 -0.705801 0
M  V30 2516 H 243.214 -5.09615 -2.12123 0
M  V30 2517 H 245.69 -3.23436 -2.61779 0
M  V30 2518 H 244.566 -3.97322 -3.78717 0
M  V30 2519 H 244.827 -2.23637 -3.81365 0
M  V30 2520 N 243.887 0.651787 -1.4349 0
M  V30 2521 C 244.837 1.75783 -1.45205 0
M  V30 2522 C 245.821 1.57679 -0.320328 0
M  V30 2523 O 247.013 1.67767 -0.564211 0
M  V30 2524 C 244.142 3.14377 -1.3792 0
M  V30 2525 C 243.228 3.38023 -2.56127 0
M  V30 2526 N 243.619 3.32135 -3.81471 0
M  V30 2527 C 241.917 3.68747 -2.50882 0
M  V30 2528 C 242.618 3.55902 -4.60118 0
M  V30 2529 N 241.594 3.77783 -3.90872 0
M  V30 2530 H 245.396 1.69657 -2.39987 0
M  V30 2531 H 242.91 0.853508 -1.38163 0
M  V30 2532 H 244.907 3.93666 -1.37231 0
M  V30 2533 H 243.567 3.21683 -0.441596 0
M  V30 2534 H 244.578 3.11515 -4.13738 0
M  V30 2535 H 241.255 3.8316 -1.65816 0
M  V30 2536 H 242.645 3.57116 -5.69138 0
M  V30 2537 N 245.365 1.30045 0.890287 0
M  V30 2538 C 246.614 1.17929 1.63633 0
M  V30 2539 C 246.927 -0.266204 1.9378 0
M  V30 2540 O 248.133 -0.508804 2.6669 0
M  V30 2541 C 246.589 2.06317 2.94892 0
M  V30 2542 C 246.197 3.55745 2.72305 0
M  V30 2543 C 247.941 2.0295 3.72843 0
M  V30 2544 C 245.848 4.36205 3.99348 0
M  V30 2545 H 244.778 0.437782 0.613892 0
M  V30 2546 H 247.429 1.54754 0.986075 0
M  V30 2547 H 245.811 1.6237 3.61182 0
M  V30 2548 H 246.985 4.07805 2.1455 0
M  V30 2549 H 245.3 3.6088 2.07737 0
M  V30 2550 H 247.897 2.60319 4.67053 0
M  V30 2551 H 248.24 1.0117 4.0382 0
M  V30 2552 H 248.773 2.4499 3.13408 0
M  V30 2553 H 245.512 5.38659 3.73533 0
M  V30 2554 H 245.032 3.8891 4.56628 0
M  V30 2555 H 246.711 4.47362 4.67415 0
M  V30 2556 N 246.843 -1.10192 1.12674 0
M  V30 2557 C 248.12 -1.78717 0.794965 0
M  V30 2558 C 248.5 -1.98628 -0.714853 0
M  V30 2559 O 247.848 -1.58135 -1.64941 0
M  V30 2560 C 248.058 -3.11546 1.5729 0
M  V30 2561 C 249.406 -3.86382 1.76052 0
M  V30 2562 O 250.43 -3.21274 1.53823 0
M  V30 2563 O 249.289 -5.03246 2.13087 0
M  V30 2564 H 246.383 -0.774702 0.289423 0
M  V30 2565 H 248.929 -1.16819 1.23091 0
M  V30 2566 H 247.701 -2.92489 2.59935 0
M  V30 2567 H 247.324 -3.81164 1.13137 0
M  V30 2568 N 248.321 -0.919034 -1.28029 0
M  V30 2569 C 249.569 -0.553838 -1.94363 0
M  V30 2570 C 249.89 0.906357 -1.72656 0
M  V30 2571 O 249.16 1.64143 -1.0693 0
M  V30 2572 H 247.74 -0.201834 -0.719216 0
M  V30 2573 H 250.402 -1.16954 -1.55909 0
M  V30 2574 H 249.498 -0.752758 -3.02886 0
M  V30 2575 N 249.799 1.42003 -0.683588 0
M  V30 2576 C 250.762 2.29191 -0.0198243 0
M  V30 2577 C 251.762 1.43773 0.72013 0
M  V30 2578 O 252.952 1.65061 0.556815 0
M  V30 2579 C 250.084 3.26435 0.982487 0
M  V30 2580 H 251.277 2.8938 -0.787345 0
M  V30 2581 H 248.83 1.49789 -0.446418 0
M  V30 2582 H 249.565 2.71203 1.77819 0
M  V30 2583 H 249.35 3.89449 0.455182 0
M  V30 2584 H 250.84 3.918 1.44508 0
M  V30 2585 N 251.277 0.427512 1.51691 0
M  V30 2586 C 252.693 0.0792977 1.59403 0
M  V30 2587 C 252.893 -1.41035 1.43914 0
M  V30 2588 O 251.949 -2.17922 1.27539 0
M  V30 2589 C 253.262 0.590636 2.94842 0
M  V30 2590 C 254.81 0.550215 3.08126 0
M  V30 2591 C 255.285 1.03836 4.46074 0
M  V30 2592 N 256.776 0.995943 4.52366 0
M  V30 2593 C 257.511 1.34463 5.57411 0
M  V30 2594 N 257.007 1.76569 6.69922 0
M  V30 2595 N 258.8 1.26343 5.47717 0
M  V30 2596 H 250.951 1.39687 1.60004 0
M  V30 2597 H 253.214 0.575003 0.753708 0
M  V30 2598 H 252.92 1.63251 3.11516 0
M  V30 2599 H 252.794 0.0102061 3.77199 0
M  V30 2600 H 255.181 -0.482654 2.91126 0
M  V30 2601 H 255.262 1.16693 2.27632 0
M  V30 2602 H 254.906 2.06965 4.63819 0
M  V30 2603 H 254.836 0.398286 5.25092 0
M  V30 2604 H 257.327 0.68661 3.7161 0
M  V30 2605 H 257.64 2.01438 7.46085 0
M  V30 2606 H 255.985 1.80488 6.71155 0
M  V30 2607 H 259.176 0.933209 4.58703 0
M  V30 2608 H 259.349 1.53846 6.29472 0
M  V30 2609 N 252.755 -1.56801 0.158532 0
M  V30 2610 C 254.004 -1.95665 -0.489702 0
M  V30 2611 C 254.317 -1.04654 -1.65248 0
M  V30 2612 O 255.523 -1.33146 -2.3661 0
M  V30 2613 C 253.979 -3.47874 -0.922582 0
M  V30 2614 C 253.587 -4.47489 0.213893 0
M  V30 2615 C 255.331 -3.95583 -1.53996 0
M  V30 2616 C 253.238 -5.90921 -0.237903 0
M  V30 2617 H 252.168 -0.730516 -0.186716 0
M  V30 2618 H 254.819 -1.81861 0.244722 0
M  V30 2619 H 253.201 -3.57051 -1.71261 0
M  V30 2620 H 254.375 -4.50017 0.991036 0
M  V30 2621 H 252.69 -4.09764 0.740407 0
M  V30 2622 H 255.287 -5.0019 -1.8898 0
M  V30 2623 H 255.63 -3.37789 -2.43319 0
M  V30 2624 H 256.163 -3.8937 -0.814611 0
M  V30 2625 H 252.902 -6.52559 0.620236 0
M  V30 2626 H 252.422 -5.91729 -0.980676 0
M  V30 2627 H 254.101 -6.43352 -0.686067 0
M  V30 2628 N 254.233 0.115231 -1.57178 0
M  V30 2629 C 255.48 0.822351 -1.8505 0
M  V30 2630 C 255.808 1.79701 -0.744168 0
M  V30 2631 O 255.063 1.93909 0.26414 0
M  V30 2632 C 255.362 1.60324 -3.19423 0
M  V30 2633 C 255.028 0.772536 -4.44233 0
M  V30 2634 C 253.69 0.543468 -4.78121 0
M  V30 2635 C 256.042 0.193746 -5.2084 0
M  V30 2636 C 253.37 -0.274583 -5.86057 0
M  V30 2637 C 255.722 -0.611517 -6.29637 0
M  V30 2638 C 254.386 -0.850867 -6.62055 0
M  V30 2639 H 253.656 0.30092 -0.677147 0
M  V30 2640 H 256.303 0.0845802 -1.91313 0
M  V30 2641 H 254.608 2.41203 -3.08753 0
M  V30 2642 H 256.305 2.1544 -3.38211 0
M  V30 2643 H 252.895 0.96117 -4.17683 0
M  V30 2644 H 257.079 0.357926 -4.95008 0
M  V30 2645 H 252.335 -0.469206 -6.09597 0
M  V30 2646 H 256.509 -1.06697 -6.88178 0
M  V30 2647 H 254.136 -1.48657 -7.45523 0
M  V30 2648 N 255.711 1.52812 0.385517 0
M  V30 2649 C 256.659 1.78482 1.49155 0
M  V30 2650 C 257.653 0.652914 1.56312 0
M  V30 2651 O 258.859 0.835464 1.59436 0
M  V30 2652 H 255.234 0.5648 0.496493 0
M  V30 2653 H 257.205 2.71095 1.24699 0
M  V30 2654 C 255.954 1.97378 2.86247 0
M  V30 2655 H 255.277 2.83907 2.81491 0
M  V30 2656 H 256.717 2.19327 3.62866 0
M  V30 2657 C 255.176 0.74728 3.28508 0
M  V30 2658 O 255.706 -0.0736232 4.01633 0
M  V30 2659 N 253.912 0.576396 2.84826 0
M  V30 2660 H 253.459 1.24555 2.25486 0
M  V30 2661 H 253.417 -0.24288 3.1346 0
M  V30 2662 N 257.189 -0.644168 1.43834 0
M  V30 2663 C 258.152 -1.73857 1.49353 0
M  V30 2664 C 259.152 -1.56315 0.377112 0
M  V30 2665 O 260.342 -1.62048 0.639226 0
M  V30 2666 C 257.474 -3.12819 1.35488 0
M  V30 2667 H 258.667 -1.70342 2.46827 0
M  V30 2668 H 256.22 -0.856652 1.30733 0
M  V30 2669 H 256.955 -3.2194 0.390569 0
M  V30 2670 H 256.74 -3.26958 2.16428 0
M  V30 2671 H 258.23 -3.92606 1.42302 0
M  V30 2672 N 258.668 -1.30515 -0.883378 0
M  V30 2673 C 259.893 -1.22487 -1.67367 0
M  V30 2674 C 260.318 0.208767 -1.86938 0
M  V30 2675 O 259.676 1.15015 -1.40148 0
M  V30 2676 C 259.724 -1.96041 -3.02655 0
M  V30 2677 O 258.828 -1.28859 -3.91751 0
M  V30 2678 H 258.169 -0.423573 -0.511353 0
M  V30 2679 H 260.699 -1.72362 -1.10239 0
M  V30 2680 H 260.709 -2.05124 -3.52687 0
M  V30 2681 H 259.384 -3.00307 -2.8773 0
M  V30 2682 H 257.961 -1.28141 -3.50192 0
M  V30 2683 N 260.146 1.09593 -1.13257 0
M  V30 2684 C 261.395 1.81105 -0.887917 0
M  V30 2685 C 261.708 1.86563 0.587672 0
M  V30 2686 O 262.914 2.54367 0.949204 0
M  V30 2687 C 261.37 3.25338 -1.53895 0
M  V30 2688 C 260.978 3.28151 -3.04994 0
M  V30 2689 C 262.722 4.01617 -1.37492 0
M  V30 2690 C 260.629 4.66897 -3.6299 0
M  V30 2691 H 259.559 0.678661 -0.328534 0
M  V30 2692 H 262.21 1.23183 -1.36008 0
M  V30 2693 H 260.592 3.8331 -0.994446 0
M  V30 2694 H 261.766 2.79953 -3.66009 0
M  V30 2695 H 260.081 2.65361 -3.20893 0
M  V30 2696 H 262.678 5.04119 -1.78235 0
M  V30 2697 H 263.021 4.15072 -0.31957 0
M  V30 2698 H 263.554 3.50082 -1.88912 0
M  V30 2699 H 260.293 4.58643 -4.68323 0
M  V30 2700 H 259.813 5.15426 -3.06752 0
M  V30 2701 H 261.492 5.3587 -3.62563 0
M  V30 2702 N 261.624 0.925811 1.2754 0
M  V30 2703 C 262.587 0.428129 2.25166 0
M  V30 2704 C 263.587 -0.452261 1.54309 0
M  V30 2705 O 264.777 -0.253608 1.72344 0
M  V30 2706 C 261.909 -0.384749 3.38722 0
M  V30 2707 H 263.102 1.29066 2.70706 0
M  V30 2708 H 260.655 0.706323 1.3943 0
M  V30 2709 H 261.39 -1.26618 2.98561 0
M  V30 2710 H 261.175 0.246454 3.91325 0
M  V30 2711 H 262.665 -0.723389 4.11287 0
M  V30 2712 N 263.102 -1.41638 0.69111 0
M  V30 2713 C 264.327 -2.06148 0.227583 0
M  V30 2714 C 264.752 -1.51652 -1.11281 0
M  V30 2715 O 264.11 -0.64164 -1.69566 0
M  V30 2716 C 264.158 -3.60095 0.190858 0
M  V30 2717 O 263.262 -4.03845 -0.835664 0
M  V30 2718 H 262.603 -0.654434 0.112306 0
M  V30 2719 H 265.133 -1.81484 0.944714 0
M  V30 2720 H 265.143 -4.07995 0.020207 0
M  V30 2721 H 263.818 -3.99129 1.16915 0
M  V30 2722 H 262.395 -3.67458 -0.63473 0
M  V30 2723 N 264.58 -0.43555 -1.51462 0
M  V30 2724 C 265.828 0.131254 -2.01673 0
M  V30 2725 C 266.149 1.43368 -1.32177 0
M  V30 2726 O 265.419 1.90524 -0.455769 0
M  V30 2727 H 263.999 0.0514954 -0.745223 0
M  V30 2728 H 266.661 -0.577847 -1.86137 0
M  V30 2729 H 265.757 0.308446 -3.10572 0
M  V30 2730 N 266.058 1.56714 -0.166846 0
M  V30 2731 C 267.304 1.97039 0.479962 0
M  V30 2732 C 267.637 1.05264 1.63197 0
M  V30 2733 O 266.912 0.0988833 1.94248 0
M  V30 2734 C 267.195 3.46867 0.967212 0
M  V30 2735 C 267.048 4.49421 -0.18466 0
M  V30 2736 C 268.367 3.9968 1.84238 0
M  V30 2737 H 265.486 0.71641 0.172992 0
M  V30 2738 H 268.128 1.8832 -0.252079 0
M  V30 2739 H 266.278 3.54428 1.59101 0
M  V30 2740 H 267.95 4.53924 -0.821621 0
M  V30 2741 H 266.193 4.25573 -0.840837 0
M  V30 2742 H 266.864 5.51644 0.198317 0
M  V30 2743 H 269.34 3.94723 1.31655 0
M  V30 2744 H 268.216 5.04941 2.15234 0
M  V30 2745 H 268.477 3.43226 2.78654 0
M  V30 2746 N 267.536 -0.106894 1.57237 0
M  V30 2747 C 268.947 -0.662723 1.74542 0
M  V30 2748 C 269.298 -1.7971 0.787319 0
M  V30 2749 O 268.423 -2.16368 -0.0369636 0
M  V30 2750 C 269.018 -1.20896 3.16496 0
M  V30 2751 C 267.577 -1.71096 3.35266 0
M  V30 2752 C 266.724 -0.615642 2.7038 0
M  V30 2753 H 269.675 0.119106 1.58252 0
M  V30 2754 H 269.696 -2.07847 3.18716 0
M  V30 2755 H 269.208 -0.383122 3.86204 0
M  V30 2756 H 267.309 -2.56119 2.70618 0
M  V30 2757 H 267.422 -1.81208 4.43509 0
M  V30 2758 H 265.786 -1.05222 2.31949 0
M  V30 2759 H 266.569 0.199419 3.4272 0
M  V30 2760 N 269.014 -1.53014 -0.377408 0
M  V30 2761 C 270.26 -1.68872 -1.12294 0
M  V30 2762 C 270.593 -0.433224 -1.89306 0
M  V30 2763 O 269.868 0.569258 -1.85983 0
M  V30 2764 C 270.151 -2.93115 -2.09179 0
M  V30 2765 C 270.004 -4.28794 -1.35853 0
M  V30 2766 C 271.323 -3.12928 -3.09458 0
M  V30 2767 H 268.442 -0.614518 -0.406862 0
M  V30 2768 H 271.084 -1.85633 -0.40503 0
M  V30 2769 H 269.234 -2.78956 -2.70399 0
M  V30 2770 H 270.906 -4.54742 -0.775082 0
M  V30 2771 H 269.149 -4.28744 -0.660364 0
M  V30 2772 H 269.82 -5.11837 -2.06706 0
M  V30 2773 H 272.296 -3.26194 -2.58334 0
M  V30 2774 H 271.172 -4.01316 -3.74482 0
M  V30 2775 H 271.433 -2.27669 -3.78971 0
M  V30 2776 N 270.492 0.636531 -1.44174 0
M  V30 2777 C 271.439 1.74875 -1.50624 0
M  V30 2778 C 272.409 1.62275 -0.35442 0
M  V30 2779 O 273.594 1.82276 -0.563908 0
M  V30 2780 C 270.734 3.13102 -1.45125 0
M  V30 2781 C 269.847 3.36717 -2.7064 0
M  V30 2782 C 268.982 4.64885 -2.57013 0
M  V30 2783 C 268.021 4.8166 -3.77717 0
M  V30 2784 N 267.158 6.01101 -3.62798 0
M  V30 2785 H 271.998 1.68697 -2.45653 0
M  V30 2786 H 269.535 0.823004 -1.21922 0
M  V30 2787 H 271.493 3.93034 -1.39929 0
M  V30 2788 H 270.123 3.18308 -0.536671 0
M  V30 2789 H 269.175 2.50763 -2.86046 0
M  V30 2790 H 270.487 3.44993 -3.60252 0
M  V30 2791 H 269.641 5.52969 -2.49619 0
M  V30 2792 H 268.38 4.58957 -1.64953 0
M  V30 2793 H 267.385 3.92007 -3.85501 0
M  V30 2794 H 268.61 4.89406 -4.70807 0
M  V30 2795 H 266.556 5.96273 -2.73486 0
M  V30 2796 H 266.473 6.10409 -4.46023 0
M  V30 2797 H 267.741 6.91761 -3.59286 0
M  V30 2798 N 271.97 1.30982 0.876444 0
M  V30 2799 C 272.88 1.2003 2.01569 0
M  V30 2800 C 273.896 0.11838 1.73597 0
M  V30 2801 O 275.072 0.33495 1.98595 0
M  V30 2802 C 272.137 0.901637 3.34771 0
M  V30 2803 C 271.198 2.06979 3.76109 0
M  V30 2804 C 270.431 1.78529 5.02954 0
M  V30 2805 O 270.654 0.717296 5.65872 0
M  V30 2806 O 269.588 2.64019 5.40905 0
M  V30 2807 H 273.414 2.15753 2.13739 0
M  V30 2808 H 270.999 1.10658 1.00375 0
M  V30 2809 H 272.881 0.750645 4.1466 0
M  V30 2810 H 271.556 -0.0256141 3.2369 0
M  V30 2811 H 270.463 2.27616 2.96887 0
M  V30 2812 H 271.796 2.97907 3.91807 0
M  V30 2813 N 273.449 -1.08991 1.13837 0
M  V30 2814 C 274.679 -1.84743 0.924859 0
M  V30 2815 C 275.087 -1.81629 -0.529874 0
M  V30 2816 O 274.43 -1.21397 -1.37872 0
M  V30 2817 C 274.492 -3.33568 1.34061 0
M  V30 2818 C 274.156 -3.60425 2.80968 0
M  V30 2819 C 275.153 -3.55771 3.79108 0
M  V30 2820 C 272.838 -3.88627 3.18236 0
M  V30 2821 C 274.832 -3.78939 5.12527 0
M  V30 2822 C 272.519 -4.11449 4.51833 0
M  V30 2823 C 273.517 -4.06598 5.48787 0
M  V30 2824 O 273.205 -4.28826 6.79973 0
M  V30 2825 H 272.937 -0.590258 0.329502 0
M  V30 2826 H 275.491 -1.38598 1.51591 0
M  V30 2827 H 273.721 -3.80442 0.692853 0
M  V30 2828 H 275.41 -3.90743 1.09886 0
M  V30 2829 H 276.176 -3.34005 3.51661 0
M  V30 2830 H 272.055 -3.91526 2.43369 0
M  V30 2831 H 275.599 -3.75068 5.88192 0
M  V30 2832 H 271.496 -4.32698 4.79002 0
M  V30 2833 H 272.264 -4.46264 6.86142 0
M  V30 2834 N 274.927 -0.932562 -1.27047 0
M  V30 2835 C 275.89 -0.440064 -2.24936 0
M  V30 2836 C 276.89 0.444071 -1.54547 0
M  V30 2837 O 278.08 0.244465 -1.72476 0
M  V30 2838 C 275.212 0.36678 -3.38921 0
M  V30 2839 H 276.405 -1.305 -2.70018 0
M  V30 2840 H 273.958 -0.713707 -1.39054 0
M  V30 2841 H 274.693 1.25033 -2.99228 0
M  V30 2842 H 274.478 -0.267204 -3.91188 0
M  V30 2843 H 275.968 0.701567 -4.11665 0
M  V30 2844 N 276.405 1.4127 -0.698611 0
M  V30 2845 C 277.653 2.00782 -0.230409 0
M  V30 2846 C 277.974 1.5562 1.17505 0
M  V30 2847 O 277.244 0.78815 1.79346 0
M  V30 2848 H 275.824 0.742464 -0.0821944 0
M  V30 2849 H 278.486 1.72852 -0.90045 0
M  V30 2850 H 277.582 3.11095 -0.25021 0
M  V30 2851 N 277.883 0.443576 1.51229 0
M  V30 2852 C 279.113 -0.119117 2.06256 0
M  V30 2853 C 279.521 -1.36471 1.31043 0
M  V30 2854 O 278.864 -1.80034 0.365151 0
M  V30 2855 C 278.926 -0.500546 3.55998 0
M  V30 2856 C 278.59 0.639125 4.52509 0
M  V30 2857 C 279.587 1.51311 4.97394 0
M  V30 2858 C 277.272 0.821632 4.95535 0
M  V30 2859 C 279.266 2.55425 5.83984 0
M  V30 2860 C 276.953 1.86603 5.81913 0
M  V30 2861 C 277.951 2.73072 6.26036 0
M  V30 2862 O 277.639 3.75718 7.10698 0
M  V30 2863 H 277.371 -0.00857665 0.675946 0
M  V30 2864 H 279.925 0.623288 1.95715 0
M  V30 2865 H 278.155 -1.29575 3.64345 0
M  V30 2866 H 279.844 -0.995116 3.93513 0
M  V30 2867 H 280.61 1.38367 4.64844 0
M  V30 2868 H 276.489 0.158149 4.60729 0
M  V30 2869 H 280.033 3.22949 6.18344 0
M  V30 2870 H 275.93 1.99564 6.13876 0
M  V30 2871 H 276.698 3.72374 7.2889 0
M  V30 2872 N 279.361 -1.56624 0.175154 0
M  V30 2873 C 280.324 -2.16934 -0.739738 0
M  V30 2874 C 281.324 -1.11842 -1.15533 0
M  V30 2875 O 282.514 -1.37335 -1.07167 0
M  V30 2876 C 279.646 -2.75531 -2.00738 0
M  V30 2877 H 280.839 -2.99131 -0.214639 0
M  V30 2878 H 278.392 -1.56123 -0.0744197 0
M  V30 2879 H 279.127 -1.97078 -2.57548 0
M  V30 2880 H 278.912 -3.52444 -1.71831 0
M  V30 2881 H 280.402 -3.21904 -2.66021 0
M  V30 2882 N 280.839 0.0985539 -1.57292 0
M  V30 2883 C 282.116 0.834155 -1.76921 0
M  V30 2884 C 282.496 1.97101 -0.755928 0
M  V30 2885 O 281.844 2.27474 0.216245 0
M  V30 2886 C 282.054 1.33194 -3.22584 0
M  V30 2887 C 283.402 1.77611 -3.85668 0
M  V30 2888 O 284.426 1.42825 -3.26312 0
M  V30 2889 O 283.285 2.4192 -4.90038 0
M  V30 2890 H 280.379 0.397628 -0.725135 0
M  V30 2891 H 282.925 0.0807044 -1.69508 0
M  V30 2892 H 281.697 0.517248 -3.87866 0
M  V30 2893 H 281.32 2.1475 -3.34616 0
M  V30 2894 N 282.317 1.53212 0.369288 0
M  V30 2895 C 283.542 1.73423 1.1375 0
M  V30 2896 C 283.967 0.460404 1.82378 0
M  V30 2897 O 283.325 -0.585298 1.71592 0
M  V30 2898 C 283.373 2.89769 2.1463 0
M  V30 2899 O 282.477 2.58119 3.21634 0
M  V30 2900 H 281.818 0.576061 0.330227 0
M  V30 2901 H 284.348 2.00083 0.427547 0
M  V30 2902 H 284.358 3.15829 2.58294 0
M  V30 2903 H 283.033 3.8217 1.64071 0
M  V30 2904 H 281.61 2.42864 2.82969 0
M  V30 2905 N 283.795 -0.628877 1.44509 0
M  V30 2906 C 285.041 -1.39045 1.47629 0
M  V30 2907 C 285.374 -1.93892 0.109343 0
M  V30 2908 O 284.649 -1.7379 -0.87334 0
M  V30 2909 C 284.932 -2.55408 2.53848 0
M  V30 2910 C 284.785 -2.05896 3.99909 0
M  V30 2911 C 286.104 -3.5759 2.56549 0
M  V30 2912 H 283.223 -0.504232 0.537512 0
M  V30 2913 H 285.865 -0.710854 1.76201 0
M  V30 2914 H 284.015 -3.13384 2.29615 0
M  V30 2915 H 285.687 -1.52734 4.35282 0
M  V30 2916 H 283.93 -1.37061 4.11578 0
M  V30 2917 H 284.601 -2.89681 4.69882 0
M  V30 2918 H 287.077 -3.09419 2.78207 0
M  V30 2919 H 285.953 -4.36527 3.32769 0
M  V30 2920 H 286.214 -4.11808 1.60832 0
M  V30 2921 N 285.273 -1.31445 -0.869486 0
M  V30 2922 C 286.206 -1.13465 -1.97992 0
M  V30 2923 C 287.184 -0.0380291 -1.62556 0
M  V30 2924 O 288.368 -0.194544 -1.87493 0
M  V30 2925 C 285.495 -0.733822 -3.30655 0
M  V30 2926 C 284.541 -1.83356 -3.85075 0
M  V30 2927 S 285.374 -3.43909 -4.10472 0
M  V30 2928 C 286.53 -3.05763 -5.46132 0
M  V30 2929 H 286.763 -2.07471 -2.1294 0
M  V30 2930 H 284.296 -1.15936 -1.01972 0
M  V30 2931 H 286.254 -0.509306 -4.07328 0
M  V30 2932 H 284.915 0.187123 -3.13542 0
M  V30 2933 H 284.108 -1.50574 -4.80982 0
M  V30 2934 H 283.71 -2.01315 -3.15195 0
M  V30 2935 H 286.002 -2.54686 -6.27807 0
M  V30 2936 H 286.945 -4.00635 -5.83864 0
M  V30 2937 H 287.353 -2.43192 -5.09429 0
M  V30 2938 N 286.751 1.08385 -1.14413 0
M  V30 2939 C 287.998 1.80776 -0.912482 0
M  V30 2940 C 288.326 1.86236 0.560934 0
M  V30 2941 O 287.581 1.33431 1.43159 0
M  V30 2942 C 287.88 3.26273 -1.45879 0
M  V30 2943 C 287.546 3.4093 -2.95089 0
M  V30 2944 C 286.208 3.44638 -3.35824 0
M  V30 2945 C 288.56 3.44591 -3.91033 0
M  V30 2946 C 285.888 3.49597 -4.71167 0
M  V30 2947 C 288.24 3.51086 -5.26233 0
M  V30 2948 C 286.904 3.53067 -5.6648 0
M  V30 2949 H 286.174 0.661507 -0.333901 0
M  V30 2950 H 288.821 1.27613 -1.42784 0
M  V30 2951 H 287.126 3.82146 -0.864376 0
M  V30 2952 H 288.823 3.80839 -1.2555 0
M  V30 2953 H 285.413 3.38736 -2.62594 0
M  V30 2954 H 289.597 3.40957 -3.60641 0
M  V30 2955 H 284.853 3.49424 -5.0171 0
M  V30 2956 H 289.027 3.52864 -6.00383 0
M  V30 2957 H 286.654 3.56662 -6.71339 0
M  V30 2958 N 288.23 0.939286 1.26551 0
M  V30 2959 C 289.47 0.5933 1.956 0
M  V30 2960 C 289.834 -0.851515 1.72085 0
M  V30 2961 O 291.035 -1.30634 2.34921 0
M  V30 2962 C 289.306 0.923996 3.45249 0
M  V30 2963 S 290.865 0.688269 4.33369 0
M  V30 2964 H 287.683 0.218591 0.676564 0
M  V30 2965 H 290.285 1.2102 1.5354 0
M  V30 2966 H 288.989 1.97297 3.59864 0
M  V30 2967 H 288.52 0.296746 3.92279 0
M  V30 2968 H 290.535 -0.448434 4.9417 0
M  V30 2969 N 289.708 -1.40897 0.706093 0
M  V30 2970 C 290.638 -2.33418 0.0620085 0
M  V30 2971 C 291.619 -1.52385 -0.755827 0
M  V30 2972 O 292.804 -1.80886 -0.706674 0
M  V30 2973 C 289.934 -3.36293 -0.867445 0
M  V30 2974 C 288.888 -4.27716 -0.155932 0
M  V30 2975 C 288.214 -5.2105 -1.20046 0
M  V30 2976 C 289.514 -5.12944 0.984149 0
M  V30 2977 H 291.208 -2.87527 0.83477 0
M  V30 2978 H 288.754 -1.38249 0.402875 0
M  V30 2979 H 290.707 -3.99949 -1.32735 0
M  V30 2980 H 289.431 -2.80556 -1.67199 0
M  V30 2981 H 288.09 -3.65498 0.284047 0
M  V30 2982 H 287.738 -4.61624 -1.99781 0
M  V30 2983 H 287.438 -5.83056 -0.729328 0
M  V30 2984 H 288.962 -5.87584 -1.66066 0
M  V30 2985 H 290.376 -5.70109 0.604048 0
M  V30 2986 H 288.773 -5.83945 1.38304 0
M  V30 2987 H 289.843 -4.49485 1.81911 0
M  V30 2988 N 291.186 -0.45159 -1.50991 0
M  V30 2989 C 292.411 0.110667 -2.07105 0
M  V30 2990 C 292.836 1.3446 -1.31538 0
M  V30 2991 O 292.194 1.77743 -0.357365 0
M  V30 2992 C 292.242 0.397238 -3.58405 0
M  V30 2993 O 291.346 1.48124 -3.84881 0
M  V30 2994 H 290.687 -0.00439271 -0.663985 0
M  V30 2995 H 293.217 -0.637026 -1.9443 0
M  V30 2996 H 293.227 0.64351 -4.02893 0
M  V30 2997 H 291.902 -0.504553 -4.12828 0
M  V30 2998 H 290.479 1.22381 -3.52246 0
M  V30 2999 N 292.664 1.56529 -0.183458 0
M  V30 3000 C 293.611 2.18546 0.742055 0
M  V30 3001 C 294.581 1.12912 1.2182 0
M  V30 3002 O 295.766 1.41115 1.28418 0
M  V30 3003 C 292.906 2.83977 1.96089 0
M  V30 3004 C 292.019 4.04105 1.52719 0
M  V30 3005 C 291.154 4.57427 2.70063 0
M  V30 3006 C 290.193 5.69938 2.23243 0
M  V30 3007 N 289.33 6.17717 3.33722 0
M  V30 3008 H 294.17 2.97284 0.206432 0
M  V30 3009 H 291.707 1.46823 0.0901571 0
M  V30 3010 H 293.665 3.20077 2.67594 0
M  V30 3011 H 292.295 2.07822 2.47002 0
M  V30 3012 H 291.347 3.73745 0.708436 0
M  V30 3013 H 292.659 4.85513 1.1436 0
M  V30 3014 H 291.813 4.95772 3.49708 0
M  V30 3015 H 290.552 3.75101 3.11689 0
M  V30 3016 H 289.557 5.31133 1.42048 0
M  V30 3017 H 290.782 6.54073 1.82661 0
M  V30 3018 H 288.728 5.38317 3.74902 0
M  V30 3019 H 288.645 6.94146 2.99495 0
M  V30 3020 H 289.913 6.60713 4.13616 0
M  V30 3021 N 294.142 -0.090211 1.57342 0
M  V30 3022 C 295.39 -0.791241 1.85967 0
M  V30 3023 C 295.711 -1.7903 0.772859 0
M  V30 3024 O 294.981 -1.94872 -0.200398 0
M  V30 3025 H 293.561 -0.295205 0.686195 0
M  V30 3026 H 296.223 -0.0706782 1.94772 0
M  V30 3027 H 295.319 -1.31882 2.82867 0
M  V30 3028 N 295.62 -1.53406 -0.361157 0
M  V30 3029 C 296.55 -1.83136 -1.44857 0
M  V30 3030 C 297.531 -0.685174 -1.5569 0
M  V30 3031 O 298.716 -0.93544 -1.70186 0
M  V30 3032 C 295.846 -2.02522 -2.82138 0
M  V30 3033 C 294.8 -3.18302 -2.86126 0
M  V30 3034 C 294.126 -3.22989 -4.26125 0
M  V30 3035 C 295.426 -4.56796 -2.53248 0
M  V30 3036 H 297.12 -2.74201 -1.20226 0
M  V30 3037 H 294.666 -1.31938 -0.576922 0
M  V30 3038 H 296.619 -2.21904 -3.58241 0
M  V30 3039 H 295.343 -1.08172 -3.08166 0
M  V30 3040 H 294.002 -2.98747 -2.12475 0
M  V30 3041 H 293.65 -2.26267 -4.49235 0
M  V30 3042 H 293.35 -4.00781 -4.29708 0
M  V30 3043 H 294.874 -3.44559 -5.04094 0
M  V30 3044 H 296.288 -4.7631 -3.19064 0
M  V30 3045 H 294.685 -5.36862 -2.68141 0
M  V30 3046 H 295.755 -4.61606 -1.48484 0
M  V30 3047 N 297.098 0.621204 -1.44841 0
M  V30 3048 C 298.338 1.39201 -1.49674 0
M  V30 3049 C 298.702 1.91561 -0.129764 0
M  V30 3050 O 299.903 2.68748 -0.0527814 0
M  V30 3051 C 298.174 2.519 -2.53537 0
M  V30 3052 S 299.733 3.39916 -2.77494 0
M  V30 3053 H 296.551 0.474758 -0.529269 0
M  V30 3054 H 299.153 0.718171 -1.81831 0
M  V30 3055 H 297.857 2.11761 -3.51547 0
M  V30 3056 H 297.388 3.241 -2.22986 0
M  V30 3057 H 299.403 4.49646 -2.0984 0
M  V30 3058 N 298.576 1.31904 0.862503 0
M  V30 3059 C 299.539 1.20131 1.95195 0
M  V30 3060 C 300.539 0.126409 1.60302 0
M  V30 3061 O 301.729 0.376234 1.70089 0
M  V30 3062 C 298.861 0.845691 3.30244 0
M  V30 3063 H 300.054 2.16943 2.07064 0
M  V30 3064 H 297.607 1.15622 1.05172 0
M  V30 3065 H 298.342 -0.120957 3.24074 0
M  V30 3066 H 298.127 1.62276 3.56944 0
M  V30 3067 H 299.617 0.787418 4.10109 0
M  V30 3068 N 300.054 -1.07777 1.14986 0
M  V30 3069 C 301.465 -1.61766 0.932127 0
M  V30 3070 C 301.816 -1.88974 -0.527581 0
M  V30 3071 O 300.941 -1.65198 -1.39781 0
M  V30 3072 C 301.536 -2.93891 1.68563 0
M  V30 3073 C 300.095 -3.44639 1.5133 0
M  V30 3074 C 299.242 -2.18767 1.704 0
M  V30 3075 H 302.193 -0.909201 1.30074 0
M  V30 3076 H 302.214 -3.62623 1.15259 0
M  V30 3077 H 301.726 -2.74057 2.74799 0
M  V30 3078 H 299.827 -3.69564 0.474702 0
M  V30 3079 H 299.94 -4.20966 2.28746 0
M  V30 3080 H 298.304 -2.28253 1.13016 0
M  V30 3081 H 299.087 -2.01433 2.77992 0
M  V30 3082 N 301.532 -0.945985 -1.26051 0
M  V30 3083 C 302.778 -0.597002 -1.93814 0
M  V30 3084 C 303.111 0.862484 -1.73997 0
M  V30 3085 O 302.386 1.61769 -1.07986 0
M  V30 3086 C 302.669 -0.945937 -3.47454 0
M  V30 3087 C 302.522 -2.46052 -3.76535 0
M  V30 3088 C 303.841 -0.464785 -4.37639 0
M  V30 3089 H 300.96 -0.218366 -0.703907 0
M  V30 3090 H 303.602 -1.18107 -1.48831 0
M  V30 3091 H 301.752 -0.448902 -3.85898 0
M  V30 3092 H 303.424 -3.03065 -3.47778 0
M  V30 3093 H 301.667 -2.90194 -3.22444 0
M  V30 3094 H 302.338 -2.65517 -4.83947 0
M  V30 3095 H 304.814 -0.891016 -4.06448 0
M  V30 3096 H 303.69 -0.737712 -5.4392 0
M  V30 3097 H 303.951 0.635274 -4.37512 0
M  V30 3098 N 303.011 1.40521 -0.713556 0
M  V30 3099 C 304.259 2.00527 -0.251692 0
M  V30 3100 C 304.58 1.56857 1.15848 0
M  V30 3101 O 303.85 0.807127 1.785 0
M  V30 3102 H 302.43 0.741551 -0.0900646 0
M  V30 3103 H 305.092 1.71887 -0.918733 0
M  V30 3104 H 304.188 3.10813 -0.283192 0
M  V30 3105 N 304.489 0.459591 1.5075 0
M  V30 3106 C 305.714 -0.0996819 2.0716 0
M  V30 3107 C 306.139 -1.33761 1.32249 0
M  V30 3108 O 305.497 -1.77551 0.366786 0
M  V30 3109 C 305.545 -0.378226 3.58611 0
M  V30 3110 O 304.649 -1.46081 3.85661 0
M  V30 3111 H 303.99 0.00791392 0.663953 0
M  V30 3112 H 306.52 0.647329 1.9409 0
M  V30 3113 H 306.53 -0.622135 4.03229 0
M  V30 3114 H 305.205 0.526439 4.12555 0
M  V30 3115 H 303.782 -1.20511 3.5289 0
M  V30 3116 N 305.967 -1.56429 0.191757 0
M  V30 3117 C 307.213 -1.97777 -0.448554 0
M  V30 3118 C 307.546 -1.07847 -1.61501 0
M  V30 3119 O 306.821 -0.129774 -1.94067 0
M  V30 3120 C 307.104 -3.48362 -0.911906 0
M  V30 3121 C 306.957 -4.4907 0.256136 0
M  V30 3122 C 308.276 -4.02561 -1.77857 0
M  V30 3123 H 305.395 -0.719071 -0.161572 0
M  V30 3124 H 308.037 -1.87896 0.282007 0
M  V30 3125 H 306.187 -3.56914 -1.53442 0
M  V30 3126 H 307.859 -4.5256 0.893733 0
M  V30 3127 H 306.102 -4.24181 0.908436 0
M  V30 3128 H 306.773 -5.51889 -0.11053 0
M  V30 3129 H 309.249 -3.96767 -1.25359 0
M  V30 3130 H 308.125 -5.08301 -2.07174 0
M  V30 3131 H 308.386 -3.47616 -2.73158 0
M  V30 3132 N 307.445 0.0818655 -1.57387 0
M  V30 3133 C 308.691 0.784074 -1.8703 0
M  V30 3134 C 309.024 1.77729 -0.782689 0
M  V30 3135 O 308.299 1.93384 0.208051 0
M  V30 3136 C 308.582 1.50105 -3.27323 0
M  V30 3137 C 308.435 0.524925 -4.46727 0
M  V30 3138 C 309.754 2.44843 -3.65705 0
M  V30 3139 H 306.873 0.283582 -0.680257 0
M  V30 3140 H 309.515 0.0474352 -1.89941 0
M  V30 3141 H 307.665 2.12897 -3.24972 0
M  V30 3142 H 309.337 -0.0970111 -4.61198 0
M  V30 3143 H 307.58 -0.160606 -4.33503 0
M  V30 3144 H 308.251 1.064 -5.41648 0
M  V30 3145 H 310.727 1.92135 -3.69085 0
M  V30 3146 H 309.603 2.92018 -4.64776 0
M  V30 3147 H 309.864 3.29197 -2.95096 0
M  V30 3148 N 308.923 1.53595 0.353017 0
M  V30 3149 C 310.169 1.70638 1.09593 0
M  V30 3150 C 310.502 0.463286 1.88593 0
M  V30 3151 O 309.777 -0.539597 1.86865 0
M  V30 3152 C 310.06 2.96406 2.04489 0
M  V30 3153 C 309.913 4.30901 1.29014 0
M  V30 3154 C 311.232 3.17812 3.0444 0
M  V30 3155 H 308.351 0.620913 0.397034 0
M  V30 3156 H 310.993 1.86254 0.375446 0
M  V30 3157 H 309.143 2.83223 2.65927 0
M  V30 3158 H 310.815 4.55917 0.702638 0
M  V30 3159 H 309.058 4.29741 0.592071 0
M  V30 3160 H 309.729 5.1506 1.98537 0
M  V30 3161 H 312.205 3.30263 2.53112 0
M  V30 3162 H 311.081 4.07223 3.6805 0
M  V30 3163 H 311.342 2.33669 3.75301 0
M  V30 3164 N 310.401 -0.613514 1.45168 0
M  V30 3165 C 311.649 -1.36997 1.48581 0
M  V30 3166 C 311.97 -1.94589 0.126545 0
M  V30 3167 O 311.24 -1.76816 -0.843372 0
M  V30 3168 H 309.82 -0.508558 0.547154 0
M  V30 3169 H 312.482 -0.720853 1.81079 0
M  V30 3170 H 311.578 -2.1924 2.22127 0
M  V30 3171 N 311.879 -1.3236 -0.855495 0
M  V30 3172 C 313.156 -1.13491 -1.59309 0
M  V30 3173 C 313.536 0.30503 -2.08885 0
M  V30 3174 O 312.884 1.30151 -1.87811 0
M  V30 3175 C 313.094 -2.16176 -2.73987 0
M  V30 3176 C 314.442 -2.49463 -3.43589 0
M  V30 3177 O 315.466 -2.14715 -2.84211 0
M  V30 3178 O 314.325 -3.09027 -4.50738 0
M  V30 3179 H 311.419 -0.437887 -0.701559 0
M  V30 3180 H 313.965 -1.43887 -0.899696 0
M  V30 3181 H 312.737 -3.1297 -2.34873 0
M  V30 3182 H 312.36 -1.86769 -3.51003 0
M  V30 3183 N 313.357 1.07166 -1.15556 0
M  V30 3184 C 314.773 1.31899 -0.898603 0
M  V30 3185 C 314.973 1.96333 0.453383 0
M  V30 3186 O 314.029 2.22438 1.19489 0
M  V30 3187 C 315.342 2.20826 -2.04099 0
M  V30 3188 C 316.89 2.34269 -2.07574 0
M  V30 3189 C 317.365 3.26546 -3.21141 0
M  V30 3190 N 318.856 3.34127 -3.20801 0
M  V30 3191 C 319.591 4.05595 -4.05315 0
M  V30 3192 N 319.087 4.79661 -4.99897 0
M  V30 3193 N 320.88 4.01555 -3.93332 0
M  V30 3194 H 313.031 0.637302 -2.02613 0
M  V30 3195 H 315.294 0.343468 -0.883591 0
M  V30 3196 H 315 1.80744 -3.01703 0
M  V30 3197 H 314.874 3.21364 -1.97496 0
M  V30 3198 H 317.261 2.73603 -1.10568 0
M  V30 3199 H 317.342 1.33429 -2.18244 0
M  V30 3200 H 316.986 2.87931 -4.184 0
M  V30 3201 H 316.916 4.27345 -3.07708 0
M  V30 3202 H 319.407 2.81336 -2.52306 0
M  V30 3203 H 319.72 5.31694 -5.60822 0
M  V30 3204 H 318.065 4.78671 -5.03884 0
M  V30 3205 H 321.256 3.42806 -3.18751 0
M  V30 3206 H 321.429 4.56987 -4.5942 0
M  V30 3207 N 314.835 0.952656 1.25548 0
M  V30 3208 C 316.112 0.523818 1.88456 0
M  V30 3209 C 316.492 -0.998871 1.85973 0
M  V30 3210 O 315.84 -1.86381 1.3219 0
M  V30 3211 C 316.05 1.0982 3.31271 0
M  V30 3212 C 317.398 1.17385 4.08051 0
M  V30 3213 O 318.422 1.04961 3.40384 0
M  V30 3214 O 317.281 1.36852 5.29088 0
M  V30 3215 H 314.375 0.172485 0.808813 0
M  V30 3216 H 316.921 1.04596 1.33633 0
M  V30 3217 H 315.693 2.1415 3.27499 0
M  V30 3218 H 315.316 0.559191 3.93648 0
M  V30 3219 N 316.313 -1.40141 0.720998 0
M  V30 3220 C 317.56 -2.00787 0.262842 0
M  V30 3221 C 317.888 -1.5718 -1.14563 0
M  V30 3222 O 317.143 -0.785391 -1.79249 0
M  V30 3223 C 317.442 -3.56165 0.296892 0
M  V30 3224 C 317.108 -4.19373 1.65641 0
M  V30 3225 C 315.77 -4.36352 2.02855 0
M  V30 3226 C 318.122 -4.54578 2.54968 0
M  V30 3227 C 315.45 -4.8582 3.28931 0
M  V30 3228 C 317.802 -5.05447 3.80402 0
M  V30 3229 C 316.466 -5.20635 4.17726 0
M  V30 3230 H 315.736 -0.734731 0.0961807 0
M  V30 3231 H 318.383 -1.67673 0.925093 0
M  V30 3232 H 316.688 -3.8922 -0.448932 0
M  V30 3233 H 318.385 -4.00929 -0.0755208 0
M  V30 3234 H 314.975 -4.06549 1.35704 0
M  V30 3235 H 319.159 -4.41091 2.27491 0
M  V30 3236 H 314.415 -4.95764 3.57811 0
M  V30 3237 H 318.589 -5.31663 4.49786 0
M  V30 3238 H 316.216 -5.58728 5.15487 0
M  V30 3239 N 317.792 -0.46758 -1.50504 0
M  V30 3240 C 319.041 0.0902868 -2.01498 0
M  V30 3241 C 319.354 1.411 -1.35463 0
M  V30 3242 O 320.56 2.0536 -1.77594 0
M  V30 3243 C 319.016 0.21142 -3.59278 0
M  V30 3244 C 318.624 -1.10065 -4.34269 0
M  V30 3245 C 320.368 0.721433 -4.18325 0
M  V30 3246 C 318.275 -0.943505 -5.83825 0
M  V30 3247 H 317.205 0.037517 -0.753066 0
M  V30 3248 H 319.856 -0.601943 -1.73346 0
M  V30 3249 H 318.238 0.967352 -3.84003 0
M  V30 3250 H 319.412 -1.86726 -4.21272 0
M  V30 3251 H 317.727 -1.5415 -3.86816 0
M  V30 3252 H 320.324 0.85598 -5.27804 0
M  V30 3253 H 320.667 1.71186 -3.79475 0
M  V30 3254 H 321.2 0.0229843 -3.97793 0
M  V30 3255 H 317.939 -1.90719 -6.27141 0
M  V30 3256 H 317.459 -0.217213 -5.99407 0
M  V30 3257 H 319.138 -0.608715 -6.4413 0
M  V30 3258 N 319.27 1.56325 -0.20005 0
M  V30 3259 C 320.18 2.22931 0.730668 0
M  V30 3260 C 321.196 1.22997 1.23076 0
M  V30 3261 O 322.372 1.55748 1.27689 0
M  V30 3262 C 319.437 2.87948 1.93098 0
M  V30 3263 C 318.498 4.03166 1.47497 0
M  V30 3264 C 317.731 4.65073 2.61807 0
M  V30 3265 O 317.954 4.25913 3.79413 0
M  V30 3266 O 316.888 5.54452 2.34237 0
M  V30 3267 H 320.714 3.03084 0.193391 0
M  V30 3268 H 318.299 1.49371 0.0294621 0
M  V30 3269 H 320.181 3.29063 2.6324 0
M  V30 3270 H 318.856 2.10771 2.45677 0
M  V30 3271 H 317.763 3.66664 0.742201 0
M  V30 3272 H 319.096 4.82022 0.995796 0
M  V30 3273 N 320.748 -0.0735177 1.57428 0
M  V30 3274 C 322.164 -0.428264 1.53747 0
M  V30 3275 C 322.364 -1.79272 0.91998 0
M  V30 3276 O 321.42 -2.47051 0.521745 0
M  V30 3277 C 322.733 -0.370914 2.98404 0
M  V30 3278 C 324.281 -0.451224 3.0973 0
M  V30 3279 C 324.756 -0.4238 4.56035 0
M  V30 3280 N 326.247 -0.483925 4.60665 0
M  V30 3281 C 326.982 -0.484891 5.71346 0
M  V30 3282 N 326.478 -0.440775 6.91396 0
M  V30 3283 N 328.271 -0.531319 5.59583 0
M  V30 3284 H 320.422 0.819949 1.95935 0
M  V30 3285 H 322.685 0.307493 0.896745 0
M  V30 3286 H 322.391 0.564956 3.47133 0
M  V30 3287 H 322.265 -1.18176 3.5821 0
M  V30 3288 H 324.652 -1.37752 2.60976 0
M  V30 3289 H 324.733 0.388167 2.52838 0
M  V30 3290 H 324.377 0.498638 5.05446 0
M  V30 3291 H 324.307 -1.2807 5.10789 0
M  V30 3292 H 326.798 -0.522338 3.74273 0
M  V30 3293 H 327.111 -0.44539 7.71515 0
M  V30 3294 H 325.456 -0.40749 6.93804 0
M  V30 3295 H 328.647 -0.563464 4.64696 0
M  V30 3296 H 328.82 -0.528603 6.4584 0
M  V30 3297 N 322.226 -1.5378 -0.344866 0
M  V30 3298 C 323.189 -1.80981 -1.40637 0
M  V30 3299 C 324.189 -0.680816 -1.45676 0
M  V30 3300 O 325.379 -0.949095 -1.46075 0
M  V30 3301 C 322.511 -1.95063 -2.79577 0
M  V30 3302 H 323.704 -2.75803 -1.17783 0
M  V30 3303 H 321.257 -1.45173 -0.579181 0
M  V30 3304 H 321.992 -1.02379 -3.07716 0
M  V30 3305 H 321.777 -2.77198 -2.77315 0
M  V30 3306 H 323.267 -2.17629 -3.56409 0
M  V30 3307 N 323.704 0.605807 -1.45491 0
M  V30 3308 C 325.12 0.926751 -1.29936 0
M  V30 3309 C 325.32 1.99896 -0.253706 0
M  V30 3310 O 324.376 2.50038 0.351737 0
M  V30 3311 C 325.689 1.36599 -2.67883 0
M  V30 3312 C 327.237 1.4801 -2.75793 0
M  V30 3313 C 327.712 1.95309 -4.14268 0
M  V30 3314 N 329.203 2.0254 -4.16571 0
M  V30 3315 C 329.938 2.40363 -5.20589 0
M  V30 3316 N 329.434 2.77143 -6.34952 0
M  V30 3317 N 331.227 2.40718 -5.07948 0
M  V30 3318 H 323.378 -0.102862 -2.12151 0
M  V30 3319 H 325.641 0.016639 -0.947854 0
M  V30 3320 H 325.347 0.652306 -3.45598 0
M  V30 3321 H 325.221 2.33215 -2.96463 0
M  V30 3322 H 327.608 2.1847 -1.98381 0
M  V30 3323 H 327.689 0.497041 -2.50925 0
M  V30 3324 H 327.333 1.25436 -4.92167 0
M  V30 3325 H 327.263 2.94532 -4.3653 0
M  V30 3326 H 329.754 1.76699 -3.34045 0
M  V30 3327 H 330.067 3.0489 -7.10114 0
M  V30 3328 H 328.412 2.74834 -6.3835 0
M  V30 3329 H 331.603 2.11392 -4.1765 0
M  V30 3330 H 331.776 2.69869 -5.89131 0
M  V30 3331 N 325.182 1.32811 0.848464 0
M  V30 3332 C 326.129 1.22265 1.95755 0
M  V30 3333 C 327.099 0.103413 1.65778 0
M  V30 3334 O 328.284 0.280033 1.88734 0
M  V30 3335 C 325.424 0.958014 3.31536 0
M  V30 3336 C 324.537 2.16262 3.73971 0
M  V30 3337 C 323.672 1.83295 4.98575 0
M  V30 3338 C 322.711 3.00041 5.33518 0
M  V30 3339 N 321.848 2.67125 6.49299 0
M  V30 3340 H 326.688 2.17128 2.04107 0
M  V30 3341 H 324.225 1.07982 0.998913 0
M  V30 3342 H 326.183 0.785052 4.09747 0
M  V30 3343 H 324.813 0.046159 3.22767 0
M  V30 3344 H 323.865 2.44565 2.91362 0
M  V30 3345 H 325.177 3.03572 3.95785 0
M  V30 3346 H 324.331 1.62586 5.84509 0
M  V30 3347 H 323.07 0.932078 4.7871 0
M  V30 3348 H 322.075 3.21374 4.46093 0
M  V30 3349 H 323.3 3.90869 5.55336 0
M  V30 3350 H 321.246 1.79586 6.3094 0
M  V30 3351 H 321.163 3.47965 6.71161 0
M  V30 3352 H 322.431 2.49861 7.3837 0
M  V30 3353 N 326.66 -1.06551 1.16123 0
M  V30 3354 C 327.623 -2.12132 0.867906 0
M  V30 3355 C 328.623 -1.60224 -0.135944 0
M  V30 3356 O 329.813 -1.73943 0.0946422 0
M  V30 3357 C 326.945 -3.396 0.297419 0
M  V30 3358 H 328.138 -2.39586 1.80385 0
M  V30 3359 H 325.691 -1.22574 0.969812 0
M  V30 3360 H 326.426 -3.17794 -0.64633 0
M  V30 3361 H 326.211 -3.78581 1.02073 0
M  V30 3362 H 327.701 -4.17455 0.110052 0
M  V30 3363 N 328.138 -0.959301 -1.25041 0
M  V30 3364 C 329.554 -0.664474 -1.4511 0
M  V30 3365 C 329.754 0.776481 -1.85938 0
M  V30 3366 O 328.81 1.55128 -1.99227 0
M  V30 3367 C 330.123 -1.64139 -2.5195 0
M  V30 3368 C 331.671 -1.65309 -2.65786 0
M  V30 3369 C 332.146 -2.61777 -3.75815 0
M  V30 3370 N 333.637 -2.60169 -3.83231 0
M  V30 3371 C 334.372 -3.31489 -4.6787 0
M  V30 3372 N 333.868 -4.12298 -5.56761 0
M  V30 3373 N 335.661 -3.20354 -4.61876 0
M  V30 3374 H 327.812 -1.89043 -0.968332 0
M  V30 3375 H 330.075 -0.813408 -0.4869 0
M  V30 3376 H 329.781 -2.67086 -2.28819 0
M  V30 3377 H 329.655 -1.40756 -3.49954 0
M  V30 3378 H 332.042 -0.630778 -2.8828 0
M  V30 3379 H 332.123 -1.92753 -1.68167 0
M  V30 3380 H 331.767 -3.64137 -3.54071 0
M  V30 3381 H 331.697 -2.31616 -4.72929 0
M  V30 3382 H 334.188 -2.01507 -3.19692 0
M  V30 3383 H 334.501 -4.63625 -6.18281 0
M  V30 3384 H 332.846 -4.16395 -5.56454 0
M  V30 3385 H 336.037 -2.56692 -3.91442 0
M  V30 3386 H 336.21 -3.76201 -5.27614 0
M  V30 3387 N 329.616 1.39756 -0.72842 0
M  V30 3388 C 330.563 2.30647 -0.0841519 0
M  V30 3389 C 331.533 1.48869 0.7367 0
M  V30 3390 O 332.718 1.77574 0.698015 0
M  V30 3391 C 329.858 3.35165 0.822091 0
M  V30 3392 C 328.971 4.31999 -0.0106663 0
M  V30 3393 C 328.106 5.23585 0.896241 0
M  V30 3394 C 327.145 6.12072 0.0583381 0
M  V30 3395 N 326.282 6.96035 0.920818 0
M  V30 3396 H 331.122 2.85173 -0.864891 0
M  V30 3397 H 328.659 1.40422 -0.438179 0
M  V30 3398 H 330.617 3.94345 1.36189 0
M  V30 3399 H 329.247 2.8211 1.56888 0
M  V30 3400 H 328.299 3.74492 -0.66781 0
M  V30 3401 H 329.611 4.9443 -0.658825 0
M  V30 3402 H 328.765 5.87759 1.50412 0
M  V30 3403 H 327.504 4.61459 1.57819 0
M  V30 3404 H 326.509 5.46916 -0.562389 0
M  V30 3405 H 327.734 6.76261 -0.6203 0
M  V30 3406 H 325.68 6.36485 1.58818 0
M  V30 3407 H 325.597 7.55284 0.32899 0
M  V30 3408 H 326.865 7.64646 1.51447 0
M  V30 3409 N 331.094 0.475555 1.50254 0
M  V30 3410 C 332.027 -0.362381 2.25304 0
M  V30 3411 C 333.005 -0.992393 1.28803 0
M  V30 3412 O 334.189 -1.02746 1.58036 0
M  V30 3413 C 331.316 -1.50813 3.03271 0
M  V30 3414 C 330.362 -0.995044 4.1473 0
M  V30 3415 S 331.195 0.0938436 5.35418 0
M  V30 3416 C 332.351 -1.05567 6.16933 0
M  V30 3417 H 332.584 0.274686 2.96028 0
M  V30 3418 H 330.117 0.260495 1.52187 0
M  V30 3419 H 332.075 -2.16476 3.48781 0
M  V30 3420 H 330.736 -2.11672 2.32064 0
M  V30 3421 H 329.929 -1.85293 4.68703 0
M  V30 3422 H 329.531 -0.416052 3.71679 0
M  V30 3423 H 331.823 -1.96636 6.48337 0
M  V30 3424 H 332.766 -0.555109 7.05921 0
M  V30 3425 H 333.174 -1.31151 5.49053 0
M  V30 3426 N 332.573 -1.56217 0.208337 0
M  V30 3427 C 333.503 -2.22694 -0.702116 0
M  V30 3428 C 334.484 -1.19432 -1.2112 0
M  V30 3429 O 335.669 -1.47978 -1.25762 0
M  V30 3430 C 332.799 -2.8966 -1.9161 0
M  V30 3431 C 331.753 -3.9928 -1.5414 0
M  V30 3432 C 331.079 -4.53476 -2.83308 0
M  V30 3433 C 332.379 -5.17012 -0.741339 0
M  V30 3434 H 334.073 -2.99034 -0.147898 0
M  V30 3435 H 331.619 -1.43831 -0.0696951 0
M  V30 3436 H 333.572 -3.34852 -2.55836 0
M  V30 3437 H 332.296 -2.10746 -2.49507 0
M  V30 3438 H 330.955 -3.54799 -0.922668 0
M  V30 3439 H 330.603 -3.71308 -3.39322 0
M  V30 3440 H 330.303 -5.27451 -2.58976 0
M  V30 3441 H 331.827 -5.01378 -3.485 0
M  V30 3442 H 333.241 -5.58667 -1.28699 0
M  V30 3443 H 331.638 -5.97137 -0.595627 0
M  V30 3444 H 332.708 -4.8423 0.254851 0
M  V30 3445 N 334.051 0.0651679 -1.57465 0
M  V30 3446 C 335.299 0.761555 -1.87202 0
M  V30 3447 C 335.62 1.77778 -0.801243 0
M  V30 3448 O 334.89 1.95166 0.16937 0
M  V30 3449 H 333.47 0.284251 -0.690804 0
M  V30 3450 H 336.132 0.0396827 -1.9486 0
M  V30 3451 H 335.228 1.27365 -2.84929 0
M  V30 3452 N 335.529 1.53961 0.336706 0
M  V30 3453 C 336.777 1.71197 1.07405 0
M  V30 3454 C 337.098 0.481475 1.88962 0
M  V30 3455 O 336.368 -0.504585 1.8929 0
M  V30 3456 H 334.948 0.631185 0.399517 0
M  V30 3457 H 337.61 1.91232 0.376323 0
M  V30 3458 H 336.706 2.58587 1.74755 0
M  V30 3459 N 337.007 -0.598083 1.45811 0
M  V30 3460 C 338.255 -1.35413 1.50026 0
M  V30 3461 C 338.576 -1.94444 0.147177 0
M  V30 3462 O 337.846 -1.77701 -0.824571 0
M  V30 3463 H 336.426 -0.502727 0.552517 0
M  V30 3464 H 339.088 -0.701606 1.81834 0
M  V30 3465 H 338.184 -2.16871 2.2444 0
M  V30 3466 N 338.485 -1.33259 -0.841409 0
M  V30 3467 C 339.418 -1.1764 -1.95541 0
M  V30 3468 C 340.396 -0.072501 -1.62438 0
M  V30 3469 O 341.58 -0.23427 -1.87039 0
M  V30 3470 C 338.707 -0.803794 -3.29024 0
M  V30 3471 C 337.753 -1.91482 -3.81099 0
M  V30 3472 S 338.586 -3.52538 -4.03085 0
M  V30 3473 C 339.742 -3.17279 -5.39523 0
M  V30 3474 H 339.975 -2.11941 -2.08491 0
M  V30 3475 H 337.508 -1.18072 -0.9949 0
M  V30 3476 H 339.466 -0.595592 -4.06156 0
M  V30 3477 H 338.127 0.120574 -3.13868 0
M  V30 3478 H 337.32 -1.60742 -4.7768 0
M  V30 3479 H 336.922 -2.07956 -3.10854 0
M  V30 3480 H 339.214 -2.67946 -6.22263 0
M  V30 3481 H 340.157 -4.1293 -5.75234 0
M  V30 3482 H 340.565 -2.53943 -5.04156 0
M  V30 3483 N 339.963 1.05934 -1.16686 0
M  V30 3484 C 341.379 1.30938 -0.912542 0
M  V30 3485 C 341.579 1.96803 0.432533 0
M  V30 3486 O 340.635 2.23693 1.17123 0
M  V30 3487 C 341.948 2.18649 -2.06429 0
M  V30 3488 C 343.496 2.32055 -2.10047 0
M  V30 3489 C 343.971 3.23122 -3.24586 0
M  V30 3490 N 345.462 3.30706 -3.24327 0
M  V30 3491 C 346.197 4.01273 -4.09594 0
M  V30 3492 N 345.693 4.74332 -5.04956 0
M  V30 3493 N 347.486 3.97361 -3.97569 0
M  V30 3494 H 339.637 0.615777 -2.03278 0
M  V30 3495 H 341.9 0.334077 -0.887185 0
M  V30 3496 H 341.606 1.77534 -3.03603 0
M  V30 3497 H 341.48 3.19252 -2.00894 0
M  V30 3498 H 343.867 2.72415 -1.13464 0
M  V30 3499 H 343.948 1.31107 -2.19647 0
M  V30 3500 H 343.592 2.83477 -4.2143 0
M  V30 3501 H 343.522 4.24057 -3.12223 0
M  V30 3502 H 346.013 2.78644 -2.55276 0
M  V30 3503 H 346.326 5.25716 -5.6643 0
M  V30 3504 H 344.671 4.733 -5.08933 0
M  V30 3505 H 347.862 3.39405 -3.22369 0
M  V30 3506 H 348.035 4.52089 -4.64241 0
M  V30 3507 N 341.441 0.965919 1.2453 0
M  V30 3508 C 342.373 0.452465 2.2469 0
M  V30 3509 C 343.386 -0.437821 1.56802 0
M  V30 3510 O 344.575 -0.244283 1.76821 0
M  V30 3511 C 341.675 -0.366258 3.36915 0
M  V30 3512 C 340.848 0.513701 4.34373 0
M  V30 3513 C 339.907 -0.248716 5.25612 0
M  V30 3514 O 338.933 0.356745 5.68081 0
M  V30 3515 N 340.135 -1.53877 5.59734 0
M  V30 3516 H 342.9 1.31361 2.69378 0
M  V30 3517 H 340.461 0.837541 1.38553 0
M  V30 3518 H 342.453 -0.884297 3.94921 0
M  V30 3519 H 341.023 -1.12832 2.91526 0
M  V30 3520 H 340.243 1.21273 3.75082 0
M  V30 3521 H 341.531 1.11391 4.96457 0
M  V30 3522 H 340.929 -2.05243 5.27154 0
M  V30 3523 H 339.486 -2.00254 6.20275 0
M  V30 3524 N 342.919 -1.39368 0.735821 0
M  V30 3525 C 343.882 -2.2896 0.104874 0
M  V30 3526 C 344.882 -1.46347 -0.666274 0
M  V30 3527 O 346.072 -1.67014 -0.49517 0
M  V30 3528 C 343.204 -3.29857 -0.860656 0
M  V30 3529 H 344.397 -2.86259 0.894205 0
M  V30 3530 H 341.95 -1.48029 0.501704 0
M  V30 3531 H 342.685 -2.77615 -1.67631 0
M  V30 3532 H 342.47 -3.9087 -0.310327 0
M  V30 3533 H 343.96 -3.96893 -1.29867 0
M  V30 3534 N 344.397 -0.483516 -1.5 0
M  V30 3535 C 345.645 0.067027 -2.01989 0
M  V30 3536 C 345.966 1.3909 -1.36671 0
M  V30 3537 O 345.236 1.88978 -0.516152 0
M  V30 3538 H 343.816 0.0277606 -0.746484 0
M  V30 3539 H 346.478 -0.636773 -1.84204 0
M  V30 3540 H 345.574 0.209484 -3.11396 0
M  V30 3541 N 345.875 1.56104 -0.216619 0
M  V30 3542 C 347.121 1.98466 0.417033 0
M  V30 3543 C 347.454 1.10403 1.59765 0
M  V30 3544 O 346.729 0.160632 1.93836 0
M  V30 3545 C 347.012 3.49769 0.85637 0
M  V30 3546 C 346.865 4.48606 -0.327546 0
M  V30 3547 C 348.184 4.05339 1.7143 0
M  V30 3548 H 345.303 0.721551 0.150112 0
M  V30 3549 H 347.945 1.87423 -0.311864 0
M  V30 3550 H 346.095 3.5931 1.47745 0
M  V30 3551 H 347.767 4.5108 -0.965618 0
M  V30 3552 H 346.01 4.22682 -0.975805 0
M  V30 3553 H 346.681 5.51995 0.0227149 0
M  V30 3554 H 349.157 3.98712 1.19031 0
M  V30 3555 H 348.033 5.11533 1.99061 0
M  V30 3556 H 348.294 3.51918 2.67593 0
M  V30 3557 N 347.353 -0.0568162 1.57498 0
M  V30 3558 C 348.283 -1.06593 2.0775 0
M  V30 3559 C 349.264 -1.39448 0.974082 0
M  V30 3560 O 350.449 -1.48815 1.24771 0
M  V30 3561 C 347.579 -2.37509 2.5339 0
M  V30 3562 C 346.533 -2.1897 3.67745 0
M  V30 3563 C 345.859 -3.55402 3.99492 0
M  V30 3564 C 347.159 -1.59859 4.97235 0
M  V30 3565 H 348.853 -0.647706 2.9231 0
M  V30 3566 H 346.399 -0.310116 1.40621 0
M  V30 3567 H 348.352 -3.08409 2.87162 0
M  V30 3568 H 347.076 -2.8134 1.65878 0
M  V30 3569 H 345.735 -1.50508 3.3428 0
M  V30 3570 H 345.383 -3.9683 3.09088 0
M  V30 3571 H 345.083 -3.43831 4.76502 0
M  V30 3572 H 346.607 -4.27708 4.35773 0
M  V30 3573 H 348.021 -2.20642 5.29141 0
M  V30 3574 H 346.418 -1.58942 5.78669 0
M  V30 3575 H 347.488 -0.561506 4.81638 0
M  V30 3576 N 348.832 -1.54138 -0.328536 0
M  V30 3577 C 349.795 -1.82462 -1.38709 0
M  V30 3578 C 350.795 -0.696229 -1.44946 0
M  V30 3579 O 351.985 -0.964535 -1.4506 0
M  V30 3580 C 349.117 -1.98018 -2.77492 0
M  V30 3581 H 350.31 -2.77037 -1.14851 0
M  V30 3582 H 347.863 -1.45779 -0.563751 0
M  V30 3583 H 348.598 -1.05637 -3.06613 0
M  V30 3584 H 348.383 -2.80124 -2.74359 0
M  V30 3585 H 349.873 -2.21396 -3.54081 0
M  V30 3586 N 350.31 0.590341 -1.46126 0
M  V30 3587 C 351.273 1.68194 -1.55703 0
M  V30 3588 C 352.273 1.54808 -0.434868 0
M  V30 3589 O 353.463 1.59564 -0.698928 0
M  V30 3590 C 350.595 3.07575 -1.47005 0
M  V30 3591 H 351.788 1.61064 -2.52979 0
M  V30 3592 H 349.341 0.807541 -1.33823 0
M  V30 3593 H 350.076 3.20268 -0.509785 0
M  V30 3594 H 349.861 3.187 -2.28414 0
M  V30 3595 H 351.351 3.87055 -1.56776 0
M  V30 3596 N 351.788 1.33704 0.83433 0
M  V30 3597 C 352.751 1.24244 1.92603 0
M  V30 3598 C 353.751 0.160383 1.59998 0
M  V30 3599 O 354.941 0.412228 1.69252 0
M  V30 3600 C 352.073 0.91555 3.28376 0
M  V30 3601 H 353.266 2.21287 2.02416 0
M  V30 3602 H 350.819 1.17827 1.02696 0
M  V30 3603 H 351.554 -0.0521886 3.24258 0
M  V30 3604 H 351.339 1.69811 3.53422 0
M  V30 3605 H 352.829 0.874231 4.08347 0
M  V30 3606 N 353.266 -1.05314 1.17247 0
M  V30 3607 C 354.514 -1.77941 0.958194 0
M  V30 3608 C 354.835 -1.88089 -0.514556 0
M  V30 3609 O 354.105 -1.39676 -1.37359 0
M  V30 3610 H 352.685 -0.659116 0.351533 0
M  V30 3611 H 355.347 -1.27166 1.47699 0
M  V30 3612 H 354.443 -2.79663 1.38546 0
M  V30 3613 N 354.744 -0.972509 -1.24016 0
M  V30 3614 C 355.993 -0.632603 -1.91523 0
M  V30 3615 C 356.306 0.836641 -1.76804 0
M  V30 3616 O 357.512 1.28728 -2.39043 0
M  V30 3617 C 355.968 -1.08082 -3.43287 0
M  V30 3618 C 355.576 -2.57386 -3.66683 0
M  V30 3619 C 357.32 -0.814288 -4.16617 0
M  V30 3620 C 355.227 -2.95915 -5.12043 0
M  V30 3621 H 354.157 -0.232898 -0.717129 0
M  V30 3622 H 356.808 -1.17936 -1.40582 0
M  V30 3623 H 355.19 -0.462339 -3.93292 0
M  V30 3624 H 356.364 -3.24405 -3.27258 0
M  V30 3625 H 354.679 -2.81701 -3.06649 0
M  V30 3626 H 357.276 -1.0781 -5.23718 0
M  V30 3627 H 357.619 0.24955 -4.15551 0
M  V30 3628 H 358.152 -1.39397 -3.72577 0
M  V30 3629 H 354.891 -4.0139 -5.18234 0
M  V30 3630 H 354.411 -2.33584 -5.52448 0
M  V30 3631 H 356.09 -2.86086 -5.80314 0
M  V30 3632 N 356.222 1.38976 -0.743202 0
M  V30 3633 C 357.471 1.99581 -0.291592 0
M  V30 3634 C 357.784 1.59656 1.13001 0
M  V30 3635 O 358.99 2.13157 1.68156 0
M  V30 3636 C 357.446 3.56813 -0.470391 0
M  V30 3637 C 357.054 4.05695 -1.90041 0
M  V30 3638 C 358.798 4.24423 -0.0809709 0
M  V30 3639 C 356.705 5.5553 -2.02832 0
M  V30 3640 H 355.635 0.746615 -0.105272 0
M  V30 3641 H 358.286 1.58872 -0.918258 0
M  V30 3642 H 356.668 3.95359 0.225299 0
M  V30 3643 H 357.842 3.78464 -2.62872 0
M  V30 3644 H 356.157 3.50775 -2.24379 0
M  V30 3645 H 358.754 5.34474 -0.155445 0
M  V30 3646 H 359.097 4.04962 0.96497 0
M  V30 3647 H 359.63 3.9108 -0.728124 0
M  V30 3648 H 356.369 5.79881 -3.05643 0
M  V30 3649 H 355.889 5.84537 -1.34448 0
M  V30 3650 H 357.568 6.21069 -1.81335 0
M  V30 3651 N 357.7 0.491464 1.49741 0
M  V30 3652 C 358.663 -0.280906 2.27472 0
M  V30 3653 C 359.663 -0.902454 1.33088 0
M  V30 3654 O 360.853 -0.768465 1.56334 0
M  V30 3655 C 357.985 -1.40209 3.10732 0
M  V30 3656 H 359.178 0.401056 2.97206 0
M  V30 3657 H 356.731 0.246131 1.5435 0
M  V30 3658 H 357.466 -2.11849 2.45541 0
M  V30 3659 H 357.251 -0.961969 3.80117 0
M  V30 3660 H 358.741 -1.9464 3.69466 0
M  V30 3661 N 359.178 -1.55987 0.224894 0
M  V30 3662 C 360.108 -2.23426 -0.678457 0
M  V30 3663 C 361.089 -1.20709 -1.19847 0
M  V30 3664 O 362.274 -1.49304 -1.24186 0
M  V30 3665 C 359.404 -2.91676 -1.88527 0
M  V30 3666 C 358.358 -4.00893 -1.49896 0
M  V30 3667 C 357.684 -4.56455 -2.78483 0
M  V30 3668 C 358.984 -5.17769 -0.686461 0
M  V30 3669 H 360.678 -2.99175 -0.116173 0
M  V30 3670 H 358.224 -1.43897 -0.054436 0
M  V30 3671 H 360.177 -3.37547 -2.5227 0
M  V30 3672 H 358.901 -2.1338 -2.47258 0
M  V30 3673 H 357.56 -3.55758 -0.884985 0
M  V30 3674 H 357.208 -3.74886 -3.35365 0
M  V30 3675 H 356.908 -5.30169 -2.53368 0
M  V30 3676 H 358.432 -5.05047 -3.43162 0
M  V30 3677 H 359.846 -5.60001 -1.22767 0
M  V30 3678 H 358.243 -5.97735 -0.532259 0
M  V30 3679 H 359.313 -4.83932 0.306196 0
M  V30 3680 N 360.656 0.0484629 -1.57525 0
M  V30 3681 C 361.884 0.755421 -1.92616 0
M  V30 3682 C 362.299 1.69919 -0.822984 0
M  V30 3683 O 361.656 1.81378 0.202085 0
M  V30 3684 C 361.707 1.52915 -3.27566 0
M  V30 3685 O 361.428 0.62329 -4.33644 0
M  V30 3686 C 362.929 2.33502 -3.76818 0
M  V30 3687 H 360.149 0.213465 -0.63614 0
M  V30 3688 H 362.693 0.0117698 -2.04497 0
M  V30 3689 H 360.848 2.22486 -3.17142 0
M  V30 3690 H 361.262 1.16383 -5.11425 0
M  V30 3691 H 362.736 2.83214 -4.73808 0
M  V30 3692 H 363.213 3.14068 -3.07014 0
M  V30 3693 H 363.819 1.69043 -3.90262 0
M  V30 3694 N 362.134 1.5431 0.320358 0
M  V30 3695 C 363.081 1.83918 1.39438 0
M  V30 3696 C 364.051 0.686525 1.51248 0
M  V30 3697 O 365.236 0.933269 1.66417 0
M  V30 3698 C 362.376 2.075 2.75749 0
M  V30 3699 C 361.489 3.35177 2.72544 0
M  V30 3700 C 360.624 3.48704 4.00723 0
M  V30 3701 C 359.663 4.70244 3.91838 0
M  V30 3702 N 358.8 4.80679 5.11754 0
M  V30 3703 H 363.64 2.75544 1.13489 0
M  V30 3704 H 361.177 1.36459 0.549309 0
M  V30 3705 H 363.135 2.19166 3.54996 0
M  V30 3706 H 361.765 1.19163 3 0
M  V30 3707 H 360.817 3.32233 1.85271 0
M  V30 3708 H 362.129 4.24534 2.61863 0
M  V30 3709 H 361.283 3.59928 4.88402 0
M  V30 3710 H 360.022 2.57445 4.14214 0
M  V30 3711 H 359.027 4.59072 3.02544 0
M  V30 3712 H 360.252 5.6289 3.7991 0
M  V30 3713 H 358.198 3.92337 5.25745 0
M  V30 3714 H 358.115 5.64007 5.0342 0
M  V30 3715 H 359.383 4.96239 6.01138 0
M  V30 3716 N 363.613 -0.582584 1.46437 0
M  V30 3717 C 364.546 -1.70633 1.51524 0
M  V30 3718 C 365.524 -1.58349 0.369351 0
M  V30 3719 O 366.708 -1.79563 0.573516 0
M  V30 3720 C 363.835 -3.08687 1.39392 0
M  V30 3721 C 362.881 -3.3949 2.58164 0
M  V30 3722 S 363.714 -3.31548 4.20519 0
M  V30 3723 C 364.87 -4.72139 4.10896 0
M  V30 3724 H 365.103 -1.66058 2.46601 0
M  V30 3725 H 362.636 -0.761337 1.34324 0
M  V30 3726 H 364.594 -3.8833 1.33079 0
M  V30 3727 H 363.255 -3.10751 0.457436 0
M  V30 3728 H 362.448 -4.40071 2.45669 0
M  V30 3729 H 362.05 -2.67415 2.61468 0
M  V30 3730 H 364.342 -5.62527 3.77584 0
M  V30 3731 H 365.285 -4.89692 5.11476 0
M  V30 3732 H 365.693 -4.48995 3.42146 0
M  V30 3733 N 365.091 -1.34144 -0.827227 0
M  V30 3734 C 366.337 -1.26446 -1.58554 0
M  V30 3735 C 366.67 0.1664 -1.93486 0
M  V30 3736 O 365.945 1.1107 -1.59667 0
M  V30 3737 C 366.228 -2.15111 -2.8879 0
M  V30 3738 C 366.081 -3.66712 -2.60465 0
M  V30 3739 C 367.4 -2.03311 -3.90324 0
M  V30 3740 H 364.519 -0.46067 -0.575284 0
M  V30 3741 H 367.161 -1.64356 -0.953269 0
M  V30 3742 H 365.311 -1.8291 -3.42748 0
M  V30 3743 H 366.983 -4.09259 -2.1285 0
M  V30 3744 H 365.226 -3.88014 -1.93978 0
M  V30 3745 H 365.897 -4.24112 -3.53317 0
M  V30 3746 H 368.373 -2.31574 -3.45706 0
M  V30 3747 H 367.249 -2.67582 -4.79261 0
M  V30 3748 H 367.51 -1.00879 -4.30437 0
M  V30 3749 N 366.569 1.04691 -1.17803 0
M  V30 3750 C 367.846 1.7472 -0.879328 0
M  V30 3751 C 368.226 2.01812 0.619271 0
M  V30 3752 O 367.574 1.65824 1.57209 0
M  V30 3753 C 367.784 3.03686 -1.71976 0
M  V30 3754 C 369.132 3.77542 -1.94286 0
M  V30 3755 O 370.156 3.13569 -1.68976 0
M  V30 3756 O 369.015 4.92506 -2.36855 0
M  V30 3757 H 366.109 0.760011 -0.326056 0
M  V30 3758 H 368.655 1.10813 -1.28525 0
M  V30 3759 H 367.427 2.79754 -2.73594 0
M  V30 3760 H 367.05 3.75332 -1.31194 0
M  V30 3761 N 368.047 0.979072 1.23499 0
M  V30 3762 C 369.463 0.687475 1.44034 0
M  V30 3763 C 369.663 -0.746801 1.8715 0
M  V30 3764 O 368.719 -1.51939 2.0167 0
M  V30 3765 C 370.032 1.68127 2.49307 0
M  V30 3766 C 371.58 1.69516 2.63122 0
M  V30 3767 C 372.055 2.67723 3.71603 0
M  V30 3768 N 373.546 2.66233 3.79044 0
M  V30 3769 C 374.281 3.38891 4.62537 0
M  V30 3770 N 373.777 4.21103 5.50131 0
M  V30 3771 N 375.57 3.27661 4.56721 0
M  V30 3772 H 367.721 1.90559 0.938135 0
M  V30 3773 H 369.984 0.821051 0.473897 0
M  V30 3774 H 369.69 2.70693 2.2454 0
M  V30 3775 H 369.564 1.46306 3.4767 0
M  V30 3776 H 371.951 0.676561 2.8724 0
M  V30 3777 H 372.032 1.95404 1.65079 0
M  V30 3778 H 371.676 3.69724 3.48233 0
M  V30 3779 H 371.606 2.39111 4.69184 0
M  V30 3780 H 374.097 2.06568 3.16446 0
M  V30 3781 H 374.41 4.73403 6.10827 0
M  V30 3782 H 372.755 4.25195 5.49759 0
M  V30 3783 H 375.946 2.62887 3.87309 0
M  V30 3784 H 376.119 3.84547 5.21562 0
M  V30 3785 N 369.525 -1.3858 0.750561 0
M  V30 3786 C 370.455 -2.33102 0.136237 0
M  V30 3787 C 371.436 -1.54713 -0.706965 0
M  V30 3788 O 372.621 -1.83043 -0.648769 0
M  V30 3789 C 369.751 -3.38882 -0.760017 0
M  V30 3790 C 368.705 -4.27995 -0.0197785 0
M  V30 3791 C 368.031 -5.24605 -1.03408 0
M  V30 3792 C 369.331 -5.09554 1.14684 0
M  V30 3793 H 371.025 -2.84726 0.925822 0
M  V30 3794 H 368.571 -1.36898 0.446654 0
M  V30 3795 H 370.524 -4.0397 -1.19943 0
M  V30 3796 H 369.248 -2.85734 -1.58189 0
M  V30 3797 H 367.907 -3.64409 0.400184 0
M  V30 3798 H 367.555 -4.67746 -1.84994 0
M  V30 3799 H 367.255 -5.85081 -0.543464 0
M  V30 3800 H 368.779 -5.9257 -1.47288 0
M  V30 3801 H 370.193 -5.67899 0.785118 0
M  V30 3802 H 368.59 -5.7925 1.56812 0
M  V30 3803 H 369.66 -4.4347 1.96118 0
M  V30 3804 N 371.003 -0.499398 -1.49478 0
M  V30 3805 C 371.95 0.279881 -2.29097 0
M  V30 3806 C 372.92 0.961805 -1.3542 0
M  V30 3807 O 374.105 0.968777 -1.64376 0
M  V30 3808 C 371.245 1.33932 -3.18051 0
M  V30 3809 C 370.358 0.669333 -4.26783 0
M  V30 3810 C 369.493 1.70907 -5.02955 0
M  V30 3811 C 368.532 1.02087 -6.03527 0
M  V30 3812 N 367.669 2.00474 -6.7287 0
M  V30 3813 H 372.509 -0.405317 -2.95231 0
M  V30 3814 H 370.046 -0.211726 -1.45568 0
M  V30 3815 H 372.004 1.96553 -3.67998 0
M  V30 3816 H 370.634 1.9933 -2.53904 0
M  V30 3817 H 369.686 -0.0701234 -3.80335 0
M  V30 3818 H 370.998 0.127503 -4.98637 0
M  V30 3819 H 370.152 2.41037 -5.56764 0
M  V30 3820 H 368.891 2.28476 -4.30871 0
M  V30 3821 H 367.896 0.305338 -5.48951 0
M  V30 3822 H 369.121 0.451708 -6.77596 0
M  V30 3823 H 367.067 2.57007 -6.03559 0
M  V30 3824 H 366.984 1.51353 -7.40694 0
M  V30 3825 H 368.252 2.69897 -7.31284 0
M  V30 3826 N 372.481 1.55866 -0.233164 0
M  V30 3827 C 373.391 2.24431 0.683217 0
M  V30 3828 C 374.407 1.2558 1.2044 0
M  V30 3829 O 375.583 1.58422 1.24356 0
M  V30 3830 C 372.648 2.91979 1.86947 0
M  V30 3831 C 371.709 4.06204 1.38912 0
M  V30 3832 C 370.942 4.70522 2.51883 0
M  V30 3833 O 371.165 4.33865 3.70293 0
M  V30 3834 O 370.099 5.59296 2.22423 0
M  V30 3835 H 373.925 3.03426 0.129059 0
M  V30 3836 H 371.51 1.494 -0.0022283 0
M  V30 3837 H 373.392 3.34573 2.56201 0
M  V30 3838 H 372.067 2.15935 2.41151 0
M  V30 3839 H 370.974 3.68155 0.664259 0
M  V30 3840 H 372.307 4.84025 0.893328 0
M  V30 3841 N 373.959 -0.0401083 1.57549 0
M  V30 3842 C 375.236 -0.767917 1.79896 0
M  V30 3843 C 375.616 -1.9416 0.82856 0
M  V30 3844 O 374.964 -2.2812 -0.131671 0
M  V30 3845 C 375.174 -1.2113 3.27305 0
M  V30 3846 C 376.522 -1.63175 3.91994 0
M  V30 3847 O 377.546 -1.30616 3.31388 0
M  V30 3848 O 376.405 -2.23565 4.98679 0
M  V30 3849 H 373.499 -0.370441 0.739393 0
M  V30 3850 H 376.045 -0.017737 1.69691 0
M  V30 3851 H 374.817 -0.372937 3.89519 0
M  V30 3852 H 374.44 -2.02183 3.42356 0
M  V30 3853 N 375.437 -1.54477 -0.31217 0
M  V30 3854 C 376.387 -1.81037 -1.38598 0
M  V30 3855 C 377.371 -0.666941 -1.46426 0
M  V30 3856 O 378.563 -0.927269 -1.50767 0
M  V30 3857 C 375.692 -2.05127 -2.75277 0
M  V30 3858 C 374.778 -3.25624 -2.71716 0
M  V30 3859 N 375.169 -4.46428 -2.37773 0
M  V30 3860 C 373.467 -3.27427 -3.02833 0
M  V30 3861 C 374.168 -5.28406 -2.43232 0
M  V30 3862 N 373.144 -4.6586 -2.80135 0
M  V30 3863 H 376.946 -2.7201 -1.11301 0
M  V30 3864 H 374.46 -1.53826 -0.520705 0
M  V30 3865 H 376.457 -2.22299 -3.52688 0
M  V30 3866 H 375.117 -1.15416 -3.03495 0
M  V30 3867 H 376.128 -4.73227 -2.1042 0
M  V30 3868 H 372.805 -2.47786 -3.36018 0
M  V30 3869 H 374.195 -6.34903 -2.19882 0
M  V30 3870 N 376.915 0.57481 -1.46744 0
M  V30 3871 C 377.825 1.711 -1.60505 0
M  V30 3872 C 378.841 1.67008 -0.488307 0
M  V30 3873 O 380.017 1.86774 -0.753495 0
M  V30 3874 C 377.082 3.07608 -1.59932 0
M  V30 3875 C 376.143 3.22904 -2.82898 0
M  V30 3876 C 375.376 4.529 -2.82343 0
M  V30 3877 O 375.599 5.37278 -1.91542 0
M  V30 3878 O 374.533 4.71611 -3.73987 0
M  V30 3879 H 378.359 1.62436 -2.56609 0
M  V30 3880 H 375.944 0.742779 -1.29627 0
M  V30 3881 H 377.826 3.88877 -1.62336 0
M  V30 3882 H 376.501 3.16692 -0.669898 0
M  V30 3883 H 375.408 2.41099 -2.86046 0
M  V30 3884 H 376.741 3.18715 -3.75076 0
M  V30 3885 N 378.394 1.34581 0.820102 0
M  V30 3886 C 379.342 1.26401 1.95258 0
M  V30 3887 C 380.336 0.161553 1.68628 0
M  V30 3888 O 381.542 0.326703 1.7701 0
M  V30 3889 H 377.917 0.392749 0.64129 0
M  V30 3890 H 379.888 2.22105 1.99279 0
M  V30 3891 C 378.637 1.03919 3.31807 0
M  V30 3892 H 377.96 1.87984 3.52848 0
M  V30 3893 H 379.4 1.02232 4.11491 0
M  V30 3894 C 377.859 -0.257433 3.35915 0
M  V30 3895 O 378.389 -1.25784 3.81499 0
M  V30 3896 N 376.595 -0.291524 2.89134 0
M  V30 3897 H 376.142 0.523161 2.52232 0
M  V30 3898 H 376.1 -1.15883 2.92264 0
M  V30 3899 N 379.872 -1.04064 1.18357 0
M  V30 3900 C 380.835 -2.10243 0.912707 0
M  V30 3901 C 381.835 -1.60477 -0.101928 0
M  V30 3902 O 383.025 -1.73703 0.131517 0
M  V30 3903 C 380.157 -3.38893 0.369387 0
M  V30 3904 H 381.35 -2.35706 1.85426 0
M  V30 3905 H 378.903 -1.20489 0.995594 0
M  V30 3906 H 379.638 -3.19094 -0.578776 0
M  V30 3907 H 379.423 -3.76331 1.1008 0
M  V30 3908 H 380.913 -4.17128 0.198575 0
M  V30 3909 N 381.35 -0.985608 -1.22978 0
M  V30 3910 C 382.766 -0.695104 -1.43668 0
M  V30 3911 C 382.966 0.736866 -1.87543 0
M  V30 3912 O 382.022 1.50868 -2.02473 0
M  V30 3913 C 383.335 -1.69447 -2.48412 0
M  V30 3914 C 384.883 -1.70909 -2.62219 0
M  V30 3915 C 385.358 -2.6969 -3.70178 0
M  V30 3916 N 386.849 -2.6824 -3.77626 0
M  V30 3917 C 387.584 -3.41339 -4.60733 0
M  V30 3918 N 387.08 -4.24015 -5.4789 0
M  V30 3919 N 388.873 -3.30079 -4.54977 0
M  V30 3920 H 381.024 -1.91054 -0.928016 0
M  V30 3921 H 383.287 -0.823553 -0.469536 0
M  V30 3922 H 382.993 -2.7188 -2.23102 0
M  V30 3923 H 382.867 -1.48147 -3.46889 0
M  V30 3924 H 385.254 -0.691785 -2.86877 0
M  V30 3925 H 385.335 -1.96276 -1.6404 0
M  V30 3926 H 384.979 -3.71566 -3.46268 0
M  V30 3927 H 384.909 -2.41595 -4.67909 0
M  V30 3928 H 387.4 -2.08243 -3.15346 0
M  V30 3929 H 387.713 -4.76636 -6.08308 0
M  V30 3930 H 386.058 -4.28104 -5.47496 0
M  V30 3931 H 389.249 -2.64937 -3.85909 0
M  V30 3932 H 389.422 -3.87308 -5.19516 0
M  V30 3933 N 382.828 1.3818 -0.7579 0
M  V30 3934 C 384.075 2.00019 -0.315985 0
M  V30 3935 C 384.403 1.60163 1.10355 0
M  V30 3936 O 383.658 0.83264 1.77103 0
M  V30 3937 C 383.957 3.55252 -0.391218 0
M  V30 3938 C 383.623 4.14834 -1.76702 0
M  V30 3939 C 382.285 4.30821 -2.14353 0
M  V30 3940 C 384.637 4.47658 -2.66931 0
M  V30 3941 C 381.965 4.76928 -3.41696 0
M  V30 3942 C 384.317 4.95184 -3.93669 0
M  V30 3943 C 382.981 5.09377 -4.31383 0
M  V30 3944 H 382.251 0.731923 -0.115627 0
M  V30 3945 H 384.898 1.65161 -0.969223 0
M  V30 3946 H 383.203 3.90273 0.34558 0
M  V30 3947 H 384.9 4.00988 -0.030805 0
M  V30 3948 H 381.49 4.02808 -1.46435 0
M  V30 3949 H 385.674 4.34904 -2.39106 0
M  V30 3950 H 380.93 4.86103 -3.70829 0
M  V30 3951 H 385.104 5.19551 -4.63724 0
M  V30 3952 H 382.731 5.44865 -5.30119 0
M  V30 3953 N 384.306 0.507319 1.49211 0
M  V30 3954 C 385.236 -0.256939 2.32082 0
M  V30 3955 C 386.217 -0.956609 1.40652 0
M  V30 3956 O 387.402 -0.946788 1.69557 0
M  V30 3957 C 384.532 -1.31802 3.21318 0
M  V30 3958 C 383.486 -0.737855 4.21592 0
M  V30 3959 C 382.812 -1.89992 4.99807 0
M  V30 3960 C 384.112 0.275325 5.21574 0
M  V30 3961 H 385.806 0.434798 2.96226 0
M  V30 3962 H 383.352 0.210546 1.42452 0
M  V30 3963 H 385.305 -1.86045 3.78107 0
M  V30 3964 H 384.029 -2.03903 2.5513 0
M  V30 3965 H 382.688 -0.217126 3.65956 0
M  V30 3966 H 382.336 -2.60877 4.30061 0
M  V30 3967 H 382.036 -1.51777 5.6766 0
M  V30 3968 H 383.56 -2.44657 5.59442 0
M  V30 3969 H 384.974 -0.179193 5.7302 0
M  V30 3970 H 383.371 0.573649 5.97352 0
M  V30 3971 H 384.441 1.18903 4.70096 0
M  V30 3972 N 385.784 -1.5574 0.241426 0
M  V30 3973 C 386.747 -2.19877 -0.647063 0
M  V30 3974 C 387.747 -1.16642 -1.10686 0
M  V30 3975 O 388.937 -1.41757 -1.01245 0
M  V30 3976 C 386.069 -2.83797 -1.88871 0
M  V30 3977 H 387.262 -2.99772 -0.087574 0
M  V30 3978 H 384.815 -1.56298 -0.00813574 0
M  V30 3979 H 385.55 -2.07824 -2.48957 0
M  V30 3980 H 385.335 -3.59414 -1.56728 0
M  V30 3981 H 386.825 -3.32898 -2.52129 0
M  V30 3982 N 387.262 0.0317525 -1.57568 0
M  V30 3983 C 388.192 1.03274 -2.0942 0
M  V30 3984 C 389.173 1.3788 -0.996143 0
M  V30 3985 O 390.358 1.46811 -1.27122 0
M  V30 3986 C 387.488 2.33448 -2.57137 0
M  V30 3987 C 386.442 2.13091 -3.71182 0
M  V30 3988 C 385.768 3.49001 -4.05095 0
M  V30 3989 C 387.068 1.51928 -4.99715 0
M  V30 3990 H 388.762 0.60112 -2.93303 0
M  V30 3991 H 386.308 0.287705 -1.41097 0
M  V30 3992 H 388.261 3.03802 -2.92032 0
M  V30 3993 H 386.985 2.78665 -1.70333 0
M  V30 3994 H 385.644 1.45171 -3.36632 0
M  V30 3995 H 385.292 3.91862 -3.15362 0
M  V30 3996 H 384.992 3.36207 -4.81911 0
M  V30 3997 H 386.516 4.20721 -4.42522 0
M  V30 3998 H 387.93 2.12196 -5.32584 0
M  V30 3999 H 386.327 1.49716 -5.81124 0
M  V30 4000 H 387.397 0.484811 -4.8247 0
M  V30 4001 N 388.74 1.54641 0.303973 0
M  V30 4002 C 389.687 1.85386 1.37479 0
M  V30 4003 C 390.657 0.702528 1.50512 0
M  V30 4004 O 391.842 0.950867 1.65418 0
M  V30 4005 C 388.982 2.10413 2.73533 0
M  V30 4006 C 388.095 3.38049 2.68974 0
M  V30 4007 C 387.23 3.52934 3.97002 0
M  V30 4008 C 386.269 4.74373 3.86829 0
M  V30 4009 N 385.406 4.8608 5.06627 0
M  V30 4010 H 390.246 2.76732 1.1056 0
M  V30 4011 H 387.783 1.37034 0.534805 0
M  V30 4012 H 389.741 2.22919 3.52652 0
M  V30 4013 H 388.371 1.22338 2.98719 0
M  V30 4014 H 387.423 3.3418 1.81736 0
M  V30 4015 H 388.735 4.27288 2.57346 0
M  V30 4016 H 387.889 3.65088 4.84557 0
M  V30 4017 H 386.628 2.61824 4.1146 0
M  V30 4018 H 385.633 4.62255 2.97658 0
M  V30 4019 H 386.858 5.66888 3.73918 0
M  V30 4020 H 384.804 3.97891 5.21554 0
M  V30 4021 H 384.721 5.69315 4.9741 0
M  V30 4022 H 385.989 5.02587 5.95841 0
M  V30 4023 N 390.218 -0.567019 1.47046 0
M  V30 4024 C 391.148 -1.68482 1.61667 0
M  V30 4025 C 392.129 -1.6358 0.466418 0
M  V30 4026 O 393.314 -1.81354 0.694574 0
M  V30 4027 C 390.444 -3.07124 1.62148 0
M  V30 4028 C 389.398 -3.26867 2.76301 0
M  V30 4029 C 388.724 -4.66196 2.61849 0
M  V30 4030 C 390.024 -3.13186 4.17986 0
M  V30 4031 H 391.718 -1.56502 2.5524 0
M  V30 4032 H 389.264 -0.751486 1.22836 0
M  V30 4033 H 391.217 -3.8516 1.70968 0
M  V30 4034 H 389.941 -3.2004 0.651287 0
M  V30 4035 H 388.6 -2.51237 2.66975 0
M  V30 4036 H 388.248 -4.75898 1.62879 0
M  V30 4037 H 387.948 -4.80356 3.38425 0
M  V30 4038 H 389.472 -5.46379 2.72584 0
M  V30 4039 H 390.886 -3.81049 4.2834 0
M  V30 4040 H 389.283 -3.3886 4.95272 0
M  V30 4041 H 390.353 -2.10057 4.3704 0
M  V30 4042 N 391.696 -1.35014 -0.812953 0
M  V30 4043 C 392.643 -1.27412 -1.92444 0
M  V30 4044 C 393.613 -0.14733 -1.65445 0
M  V30 4045 O 394.798 -0.329974 -1.87925 0
M  V30 4046 C 391.938 -1.04558 -3.28879 0
M  V30 4047 C 391.051 -2.26101 -3.68106 0
M  V30 4048 C 390.186 -1.96449 -4.9354 0
M  V30 4049 C 389.225 -3.14081 -5.25376 0
M  V30 4050 N 388.362 -2.84246 -6.41988 0
M  V30 4051 H 393.202 -2.22463 -1.98278 0
M  V30 4052 H 390.739 -1.10593 -0.969933 0
M  V30 4053 H 392.697 -0.893413 -4.07522 0
M  V30 4054 H 391.327 -0.131719 -3.22531 0
M  V30 4055 H 390.379 -2.52204 -2.84775 0
M  V30 4056 H 391.691 -3.13959 -3.87597 0
M  V30 4057 H 390.845 -1.78026 -5.79993 0
M  V30 4058 H 389.584 -1.05867 -4.76071 0
M  V30 4059 H 388.589 -3.33089 -4.37415 0
M  V30 4060 H 389.814 -4.05455 -5.44778 0
M  V30 4061 H 387.76 -1.96252 -6.25956 0
M  V30 4062 H 387.677 -3.65637 -6.61699 0
M  V30 4063 H 388.945 -2.6935 -7.31485 0
M  V30 4064 N 393.175 1.03435 -1.18907 0
M  V30 4065 C 394.085 2.15075 -0.937015 0
M  V30 4066 C 395.101 1.73706 0.101085 0
M  V30 4067 O 396.277 2.01232 -0.0822948 0
M  V30 4068 C 393.342 3.43458 -0.473057 0
M  V30 4069 C 392.403 3.99172 -1.57989 0
M  V30 4070 C 391.636 5.21427 -1.13797 0
M  V30 4071 O 391.859 5.704 0.000725941 0
M  V30 4072 O 390.793 5.69837 -1.9383 0
M  V30 4073 H 394.619 2.39198 -1.87131 0
M  V30 4074 H 392.204 1.13506 -0.971427 0
M  V30 4075 H 394.086 4.20811 -0.222702 0
M  V30 4076 H 392.761 3.20793 0.432869 0
M  V30 4077 H 391.668 3.23178 -1.88433 0
M  V30 4078 H 393.001 4.2619 -2.46217 0
M  V30 4079 N 394.653 0.992116 1.22453 0
M  V30 4080 C 395.902 0.662992 1.90492 0
M  V30 4081 C 396.215 -0.808407 1.78113 0
M  V30 4082 O 397.421 -1.24908 2.41061 0
M  V30 4083 C 395.877 1.1353 3.41524 0
M  V30 4084 C 395.485 2.63187 3.62542 0
M  V30 4085 C 397.229 0.880465 4.15269 0
M  V30 4086 C 395.136 3.04024 5.0727 0
M  V30 4087 H 394.066 0.244278 0.713333 0
M  V30 4088 H 396.717 1.20157 1.38688 0
M  V30 4089 H 395.099 0.52485 3.92506 0
M  V30 4090 H 396.273 3.2957 3.22056 0
M  V30 4091 H 394.588 2.86543 3.02129 0
M  V30 4092 H 397.185 1.16128 5.21937 0
M  V30 4093 H 397.528 -0.183408 4.15896 0
M  V30 4094 H 398.061 1.45307 3.70312 0
M  V30 4095 H 394.8 4.09584 5.11782 0
M  V30 4096 H 394.32 2.42343 5.48662 0
M  V30 4097 H 395.999 2.95282 5.75689 0
M  V30 4098 N 396.131 -1.37776 0.765217 0
M  V30 4099 C 397.379 -1.99454 0.325943 0
M  V30 4100 C 397.7 -1.61049 -1.09947 0
M  V30 4101 O 396.97 -0.872821 -1.75381 0
M  V30 4102 H 395.55 -0.737697 0.117525 0
M  V30 4103 H 398.212 -1.68359 0.981895 0
M  V30 4104 H 397.308 -3.09547 0.398353 0
M  V30 4105 N 397.609 -0.515225 -1.4894 0
M  V30 4106 C 398.839 0.0205735 -2.0659 0
M  V30 4107 C 399.247 1.30064 -1.37405 0
M  V30 4108 O 398.59 1.78087 -0.450632 0
M  V30 4109 C 398.652 0.330124 -3.57981 0
M  V30 4110 C 398.316 -0.854295 -4.48944 0
M  V30 4111 C 399.313 -1.7487 -4.89609 0
M  V30 4112 C 396.998 -1.05712 -4.9105 0
M  V30 4113 C 398.992 -2.82996 -5.71132 0
M  V30 4114 C 396.679 -2.14154 -5.72347 0
M  V30 4115 C 397.677 -3.0263 -6.12294 0
M  V30 4116 O 397.365 -4.09198 -6.91962 0
M  V30 4117 H 397.097 -0.0236833 -0.675585 0
M  V30 4118 H 399.651 -0.715956 -1.92518 0
M  V30 4119 H 397.881 1.12044 -3.70112 0
M  V30 4120 H 399.57 0.806233 -3.97812 0
M  V30 4121 H 400.336 -1.60388 -4.57712 0
M  V30 4122 H 396.215 -0.377788 -4.59449 0
M  V30 4123 H 399.759 -3.52083 -6.02232 0
M  V30 4124 H 395.656 -2.28626 -6.03656 0
M  V30 4125 H 396.424 -4.06726 -7.10293 0
M  V30 4126 N 399.087 1.5561 -0.249682 0
M  V30 4127 C 400.312 2.03865 0.381305 0
M  V30 4128 C 400.737 1.12769 1.50548 0
M  V30 4129 O 400.095 0.121189 1.80895 0
M  V30 4130 C 400.143 3.50101 0.863816 0
M  V30 4131 O 399.247 3.62132 1.97318 0
M  V30 4132 H 398.588 0.658827 0.0827194 0
M  V30 4133 H 401.118 2.01105 -0.376552 0
M  V30 4134 H 401.128 3.90975 1.1663 0
M  V30 4135 H 399.803 4.1588 0.0411816 0
M  V30 4136 H 398.38 3.33155 1.67517 0
M  V30 4137 N 400.565 -0.0233959 1.57583 0
M  V30 4138 C 401.811 -0.714119 1.89811 0
M  V30 4139 C 402.144 -1.74702 0.848113 0
M  V30 4140 O 401.419 -1.94023 -0.136135 0
M  V30 4141 C 401.702 -1.37853 3.32669 0
M  V30 4142 C 401.555 -0.358764 4.48367 0
M  V30 4143 C 402.874 -2.31101 3.7454 0
M  V30 4144 H 399.993 -0.25814 0.690314 0
M  V30 4145 H 402.635 0.0230927 1.89986 0
M  V30 4146 H 400.785 -2.00689 3.3265 0
M  V30 4147 H 402.457 0.268115 4.6052 0
M  V30 4148 H 400.7 0.321387 4.32608 0
M  V30 4149 H 401.371 -0.862242 5.45224 0
M  V30 4150 H 403.847 -1.78304 3.75961 0
M  V30 4151 H 402.723 -2.74567 4.75294 0
M  V30 4152 H 402.984 -3.18018 3.0711 0
M  V30 4153 N 402.043 -1.548 -0.295768 0
M  V30 4154 C 402.991 -1.86874 -1.38495 0
M  V30 4155 C 403.985 -0.742938 -1.52239 0
M  V30 4156 O 405.191 -0.926999 -1.54294 0
M  V30 4157 H 401.566 -0.592786 -0.462719 0
M  V30 4158 H 403.537 -2.77904 -1.08682 0
M  V30 4159 C 402.286 -2.13732 -2.74252 0
M  V30 4160 H 401.609 -2.99835 -2.64459 0
M  V30 4161 H 403.049 -2.4011 -3.49461 0
M  V30 4162 C 401.508 -0.937539 -3.23592 0
M  V30 4163 O 402.038 -0.160665 -4.01379 0
M  V30 4164 N 400.244 -0.741478 -2.80981 0
M  V30 4165 H 399.791 -1.37489 -2.1784 0
M  V30 4166 H 399.749 0.0597103 -3.14343 0
M  V30 4167 N 403.521 0.559213 -1.47345 0
M  V30 4168 C 404.932 1.14134 -1.47751 0
M  V30 4169 C 405.283 1.94834 -0.231103 0
M  V30 4170 O 404.408 2.05957 0.664137 0
M  V30 4171 C 405.003 2.07653 -2.67705 0
M  V30 4172 C 403.562 2.61141 -2.71076 0
M  V30 4173 C 402.709 1.3748 -2.40821 0
M  V30 4174 H 405.66 0.345917 -1.54884 0
M  V30 4175 H 405.681 2.91497 -2.44561 0
M  V30 4176 H 405.193 1.4889 -3.58404 0
M  V30 4177 H 403.294 3.23707 -1.84511 0
M  V30 4178 H 403.407 3.02272 -3.7171 0
M  V30 4179 H 401.771 1.68086 -1.91362 0
M  V30 4180 H 402.554 0.805135 -3.33725 0
M  V30 4181 N 404.999 1.35443 0.805782 0
M  V30 4182 C 405.909 1.30546 1.94923 0
M  V30 4183 C 406.925 0.210233 1.72725 0
M  V30 4184 O 408.101 0.43975 1.9654 0
M  V30 4185 C 405.166 1.07782 3.29521 0
M  V30 4186 C 404.227 2.26625 3.64609 0
M  V30 4187 C 403.46 2.04938 4.92784 0
M  V30 4188 O 403.683 1.01624 5.61274 0
M  V30 4189 O 402.617 2.9232 5.26149 0
M  V30 4190 H 406.443 2.26779 2.02002 0
M  V30 4191 H 404.028 1.15823 0.943682 0
M  V30 4192 H 405.91 0.969392 4.10098 0
M  V30 4193 H 404.585 0.146003 3.23371 0
M  V30 4194 H 403.492 2.43033 2.84404 0
M  V30 4195 H 404.825 3.18257 3.75464 0
M  V30 4196 N 406.477 -1.02803 1.19454 0
M  V30 4197 C 407.754 -1.73299 0.907013 0
M  V30 4198 C 408.134 -2.02772 -0.587086 0
M  V30 4199 O 407.482 -1.68304 -1.54551 0
M  V30 4200 C 407.692 -3.00912 1.76785 0
M  V30 4201 C 409.04 -3.74403 2.00268 0
M  V30 4202 O 410.064 -3.10841 1.73943 0
M  V30 4203 O 408.923 -4.88675 2.4466 0
M  V30 4204 H 406.017 -0.754727 0.338106 0
M  V30 4205 H 408.563 -1.08754 1.30271 0
M  V30 4206 H 407.335 -2.75366 2.7801 0
M  V30 4207 H 406.958 -3.73197 1.37149 0
M  V30 4208 N 407.956 -0.998596 -1.21925 0
M  V30 4209 C 409.202 -0.678667 -1.91107 0
M  V30 4210 C 409.535 0.78791 -1.77498 0
M  V30 4211 O 408.81 1.57043 -1.1475 0
M  V30 4212 C 409.093 -1.09245 -3.43129 0
M  V30 4213 C 408.946 -2.61801 -3.6576 0
M  V30 4214 C 410.265 -0.649984 -4.35274 0
M  V30 4215 H 407.384 -0.248025 -0.694012 0
M  V30 4216 H 410.026 -1.24314 -1.43688 0
M  V30 4217 H 408.176 -0.612171 -3.83647 0
M  V30 4218 H 409.848 -3.17543 -3.34611 0
M  V30 4219 H 408.091 -3.03609 -3.09845 0
M  V30 4220 H 408.762 -2.85804 -4.7225 0
M  V30 4221 H 411.238 -1.0626 -4.02303 0
M  V30 4222 H 410.114 -0.967743 -5.40302 0
M  V30 4223 H 410.375 0.449139 -4.39813 0
M  V30 4224 N 409.434 1.37368 -0.772513 0
M  V30 4225 C 410.381 2.30262 -0.157488 0
M  V30 4226 C 411.351 1.51137 0.688965 0
M  V30 4227 O 412.536 1.79704 0.641168 0
M  V30 4228 C 409.676 3.37611 0.715045 0
M  V30 4229 C 408.789 4.31746 -0.148098 0
M  V30 4230 C 407.924 5.26171 0.729213 0
M  V30 4231 C 406.963 6.11948 -0.136418 0
M  V30 4232 N 406.1 6.98613 0.698914 0
M  V30 4233 H 410.94 2.82277 -0.955179 0
M  V30 4234 H 408.477 1.38957 -0.482631 0
M  V30 4235 H 410.435 3.98479 1.23575 0
M  V30 4236 H 409.065 2.86959 1.47833 0
M  V30 4237 H 408.117 3.72178 -0.786613 0
M  V30 4238 H 409.429 4.92084 -0.81579 0
M  V30 4239 H 408.583 5.92247 1.31637 0
M  V30 4240 H 407.322 4.66246 1.43059 0
M  V30 4241 H 406.327 5.4485 -0.736102 0
M  V30 4242 H 407.552 6.73945 -0.835134 0
M  V30 4243 H 405.498 6.41215 1.38489 0
M  V30 4244 H 405.415 7.55948 0.0885358 0
M  V30 4245 H 406.683 7.69077 1.27044 0
M  V30 4246 N 410.912 0.523116 1.48665 0
M  V30 4247 C 412.14 -0.0096312 2.06898 0
M  V30 4248 C 412.555 -1.28784 1.38059 0
M  V30 4249 O 411.912 -1.76453 0.465893 0
M  V30 4250 C 411.963 -0.244386 3.60673 0
M  V30 4251 O 411.684 0.983172 4.26925 0
M  V30 4252 C 413.185 -0.818289 4.35682 0
M  V30 4253 H 410.405 0.0304161 0.67031 0
M  V30 4254 H 412.949 0.726799 1.91149 0
M  V30 4255 H 411.104 -0.930847 3.76051 0
M  V30 4256 H 411.518 0.759653 5.1897 0
M  V30 4257 H 412.992 -0.93201 5.44075 0
M  V30 4258 H 413.469 -1.82153 3.99646 0
M  V30 4259 H 414.075 -0.168609 4.24966 0
M  V30 4260 N 412.39 -1.55475 0.257931 0
M  V30 4261 C 413.338 -2.23244 -0.653076 0
M  V30 4262 C 414.332 -1.22366 -1.17144 0
M  V30 4263 O 415.538 -1.40347 -1.12706 0
M  V30 4264 H 411.913 -0.716247 -0.229117 0
M  V30 4265 H 413.884 -2.98343 -0.0584788 0
M  V30 4266 C 412.633 -2.95401 -1.83395 0
M  V30 4267 H 411.956 -3.72802 -1.44424 0
M  V30 4268 H 413.396 -3.46165 -2.44838 0
M  V30 4269 C 411.855 -1.99895 -2.71189 0
M  V30 4270 O 412.385 -1.53909 -3.71046 0
M  V30 4271 N 410.591 -1.6676 -2.3799 0
M  V30 4272 H 410.138 -2.04352 -1.56837 0
M  V30 4273 H 410.096 -1.03127 -2.97005 0
M  V30 4274 N 413.868 0.0150385 -1.57593 0
M  V30 4275 C 414.801 1.04475 -2.0288 0
M  V30 4276 C 415.779 1.3436 -0.915764 0
M  V30 4277 O 416.963 1.46779 -1.18271 0
M  V30 4278 C 414.09 2.37608 -2.41371 0
M  V30 4279 C 413.136 2.23487 -3.63257 0
M  V30 4280 S 413.969 1.57505 -5.11813 0
M  V30 4281 C 415.125 2.921 -5.5356 0
M  V30 4282 H 415.358 0.65907 -2.89903 0
M  V30 4283 H 412.891 0.225452 -1.52745 0
M  V30 4284 H 414.849 3.14165 -2.64217 0
M  V30 4285 H 413.51 2.7332 -1.54775 0
M  V30 4286 H 412.703 3.21802 -3.87891 0
M  V30 4287 H 412.305 1.55074 -3.40335 0
M  V30 4288 H 414.597 3.88419 -5.55101 0
M  V30 4289 H 415.54 2.72184 -6.53698 0
M  V30 4290 H 415.948 2.95318 -4.8109 0
M  V30 4291 N 415.346 1.54954 0.287554 0
M  V30 4292 C 416.592 1.75132 1.02257 0
M  V30 4293 C 416.925 0.542858 1.86458 0
M  V30 4294 O 416.2 -0.459856 1.88986 0
M  V30 4295 C 416.483 3.04812 1.91733 0
M  V30 4296 C 416.336 4.35985 1.10622 0
M  V30 4297 C 417.655 3.30438 2.90687 0
M  V30 4298 H 414.774 0.637194 0.370341 0
M  V30 4299 H 417.416 1.87678 0.296111 0
M  V30 4300 H 415.566 2.94247 2.53675 0
M  V30 4301 H 417.238 4.58487 0.508636 0
M  V30 4302 H 415.481 4.31865 0.409271 0
M  V30 4303 H 416.152 5.23017 1.76513 0
M  V30 4304 H 418.628 3.40701 2.38877 0
M  V30 4305 H 417.504 4.22467 3.50447 0
M  V30 4306 H 417.765 2.49377 3.65053 0
M  V30 4307 N 416.824 -0.551391 1.4764 0
M  V30 4308 C 418.073 -1.30467 1.53822 0
M  V30 4309 C 418.386 -1.94495 0.207661 0
M  V30 4310 O 419.592 -2.71099 0.147533 0
M  V30 4311 C 418.048 -2.36616 2.71184 0
M  V30 4312 C 417.656 -1.78754 4.10793 0
M  V30 4313 C 419.4 -3.13088 2.86663 0
M  V30 4314 C 417.307 -2.82717 5.19447 0
M  V30 4315 H 416.237 -0.490584 0.572576 0
M  V30 4316 H 418.888 -0.58494 1.73927 0
M  V30 4317 H 417.27 -3.11529 2.4447 0
M  V30 4318 H 418.444 -1.10173 4.47435 0
M  V30 4319 H 416.759 -1.14846 4.00249 0
M  V30 4320 H 419.356 -3.90736 3.65007 0
M  V30 4321 H 419.699 -3.67635 1.95321 0
M  V30 4322 H 420.232 -2.45288 3.13175 0
M  V30 4323 H 416.971 -2.33018 6.12685 0
M  V30 4324 H 416.491 -3.4969 4.87316 0
M  V30 4325 H 418.17 -3.46102 5.46646 0
M  V30 4326 N 418.302 -1.35869 -0.798587 0
M  V30 4327 C 419.232 -1.32118 -1.92528 0
M  V30 4328 C 420.213 -0.194209 -1.68988 0
M  V30 4329 O 421.398 -0.390426 -1.90235 0
M  V30 4330 C 418.528 -1.10047 -3.29404 0
M  V30 4331 C 417.482 -2.19471 -3.67446 0
M  V30 4332 C 416.808 -1.82555 -5.02571 0
M  V30 4333 C 418.108 -3.61495 -3.76987 0
M  V30 4334 H 419.802 -2.26394 -1.95924 0
M  V30 4335 H 417.348 -1.08981 -0.94123 0
M  V30 4336 H 419.301 -1.06061 -4.07835 0
M  V30 4337 H 418.025 -0.122195 -3.26371 0
M  V30 4338 H 416.684 -2.22568 -2.91306 0
M  V30 4339 H 416.332 -0.833249 -4.9605 0
M  V30 4340 H 416.032 -2.5581 -5.28995 0
M  V30 4341 H 417.556 -1.80108 -5.83432 0
M  V30 4342 H 418.97 -3.60676 -4.4563 0
M  V30 4343 H 417.367 -4.33577 -4.14887 0
M  V30 4344 H 418.437 -3.97065 -2.78329 0
M  V30 4345 N 419.78 1.02168 -1.19998 0
M  V30 4346 C 421.196 1.27969 -0.953737 0
M  V30 4347 C 421.396 1.98079 0.369703 0
M  V30 4348 O 420.452 2.27306 1.09947 0
M  V30 4349 C 421.765 2.11971 -2.13281 0
M  V30 4350 C 423.313 2.25255 -2.17323 0
M  V30 4351 C 423.788 3.12632 -3.34702 0
M  V30 4352 N 425.279 3.2022 -3.34684 0
M  V30 4353 C 426.014 3.88039 -4.22153 0
M  V30 4354 N 425.51 4.58027 -5.19791 0
M  V30 4355 N 427.303 3.84511 -4.10009 0
M  V30 4356 H 419.454 0.550794 -2.05134 0
M  V30 4357 H 421.717 0.305683 -0.897364 0
M  V30 4358 H 421.423 1.67785 -3.09097 0
M  V30 4359 H 421.297 3.12699 -2.10949 0
M  V30 4360 H 423.684 2.68667 -1.22073 0
M  V30 4361 H 423.765 1.24053 -2.23706 0
M  V30 4362 H 423.409 2.69926 -4.30235 0
M  V30 4363 H 423.339 4.13909 -3.25556 0
M  V30 4364 H 425.83 2.70382 -2.64012 0
M  V30 4365 H 426.143 5.07429 -5.82868 0
M  V30 4366 H 424.488 4.56869 -5.23733 0
M  V30 4367 H 427.679 3.28978 -3.33003 0
M  V30 4368 H 427.852 4.3709 -4.78389 0
M  V30 4369 N 421.258 1.00505 1.21394 0
M  V30 4370 C 422.486 0.706609 1.9446 0
M  V30 4371 C 422.901 -0.73081 1.74082 0
M  V30 4372 O 422.258 -1.49446 1.04747 0
M  V30 4373 C 422.309 1.01824 3.46863 0
M  V30 4374 O 422.03 2.39919 3.66566 0
M  V30 4375 C 423.531 0.739216 4.37093 0
M  V30 4376 H 420.751 0.260394 0.618414 0
M  V30 4377 H 423.295 1.34311 1.54211 0
M  V30 4378 H 421.45 0.427343 3.85036 0
M  V30 4379 H 421.864 2.50784 4.6066 0
M  V30 4380 H 423.338 1.00744 5.42729 0
M  V30 4381 H 423.815 -0.326746 4.37983 0
M  V30 4382 H 424.421 1.31173 4.04566 0
M  V30 4383 N 422.737 -1.36956 0.779787 0
M  V30 4384 C 424.014 -1.93697 0.272156 0
M  V30 4385 C 424.394 -1.71267 -1.23413 0
M  V30 4386 O 423.742 -1.06607 -2.02107 0
M  V30 4387 C 423.952 -3.42812 0.654291 0
M  V30 4388 C 425.3 -4.19921 0.628602 0
M  V30 4389 O 426.324 -3.51209 0.594172 0
M  V30 4390 O 425.183 -5.42465 0.662864 0
M  V30 4391 H 422.277 -0.824447 0.0649286 0
M  V30 4392 H 424.823 -1.46196 0.861682 0
M  V30 4393 H 423.595 -3.52754 1.69353 0
M  V30 4394 H 423.218 -3.97582 0.0381369 0
M  V30 4395 N 424.215 -0.530993 -1.48385 0
M  V30 4396 C 425.163 0.244595 -2.3131 0
M  V30 4397 C 426.157 0.93451 -1.41291 0
M  V30 4398 O 427.363 0.85878 -1.58193 0
M  V30 4399 H 423.738 0.0977472 -0.74562 0
M  V30 4400 H 425.709 -0.474369 -2.94605 0
M  V30 4401 C 424.458 1.2779 -3.23365 0
M  V30 4402 H 423.781 0.756439 -3.92579 0
M  V30 4403 H 425.221 1.79198 -3.84271 0
M  V30 4404 C 423.68 2.31205 -2.45042 0
M  V30 4405 O 424.21 3.37661 -2.17596 0
M  V30 4406 N 422.416 2.04446 -2.0652 0
M  V30 4407 H 421.963 1.17891 -2.2904 0
M  V30 4408 H 421.921 2.73861 -1.54427 0
M  V30 4409 N 425.693 1.55336 -0.266172 0
M  V30 4410 C 426.623 2.25146 0.618981 0
M  V30 4411 C 427.604 1.23845 1.16604 0
M  V30 4412 O 428.789 1.52544 1.20183 0
M  V30 4413 C 425.919 2.96572 1.80728 0
M  V30 4414 C 424.873 4.04726 1.39215 0
M  V30 4415 C 424.199 4.63678 2.66283 0
M  V30 4416 C 425.499 5.19407 0.548942 0
M  V30 4417 H 427.193 2.99377 0.0368116 0
M  V30 4418 H 424.739 1.43991 0.0162651 0
M  V30 4419 H 426.692 3.44116 2.43232 0
M  V30 4420 H 425.416 2.19861 2.41514 0
M  V30 4421 H 424.075 3.57979 0.790351 0
M  V30 4422 H 423.723 3.83646 3.25308 0
M  V30 4423 H 423.423 5.367 2.39222 0
M  V30 4424 H 424.947 5.13967 3.29651 0
M  V30 4425 H 426.361 5.63059 1.07876 0
M  V30 4426 H 424.758 5.98936 0.373593 0
M  V30 4427 H 425.828 4.8295 -0.434394 0
M  V30 4428 N 427.171 -0.0066808 1.57599 0
M  V30 4429 C 428.118 -1.00024 2.08 0
M  V30 4430 C 429.088 -1.34549 0.973943 0
M  V30 4431 O 430.273 -1.44502 1.24595 0
M  V30 4432 C 427.413 -2.2891 2.58252 0
M  V30 4433 C 426.526 -2.00346 3.82734 0
M  V30 4434 C 425.661 -3.23265 4.21513 0
M  V30 4435 C 424.7 -2.90357 5.3885 0
M  V30 4436 N 423.837 -4.05793 5.72954 0
M  V30 4437 H 428.677 -0.563499 2.92624 0
M  V30 4438 H 426.214 -0.266592 1.44664 0
M  V30 4439 H 428.172 -3.04247 2.85464 0
M  V30 4440 H 426.802 -2.70265 1.76512 0
M  V30 4441 H 425.854 -1.15406 3.62471 0
M  V30 4442 H 427.166 -1.72086 4.68175 0
M  V30 4443 H 426.32 -4.06953 4.49971 0
M  V30 4444 H 425.059 -3.54657 3.34768 0
M  V30 4445 H 424.064 -2.05075 5.10122 0
M  V30 4446 H 425.289 -2.60219 6.27266 0
M  V30 4447 H 423.235 -4.37094 4.89167 0
M  V30 4448 H 423.152 -3.81034 6.52954 0
M  V30 4449 H 424.42 -4.90289 6.06001 0
M  V30 4450 N 428.649 -1.55105 -0.279332 0
M  V30 4451 C 429.895 -1.75672 -1.01327 0
M  V30 4452 C 430.228 -0.552739 -1.86168 0
M  V30 4453 O 429.503 0.449827 -1.89227 0
M  V30 4454 C 429.786 -3.05825 -1.90114 0
M  V30 4455 C 429.639 -4.36565 -1.08309 0
M  V30 4456 C 430.958 -3.31975 -2.8893 0
M  V30 4457 H 428.077 -0.639149 -0.366957 0
M  V30 4458 H 430.719 -1.87833 -0.286154 0
M  V30 4459 H 428.869 -2.95588 -2.52111 0
M  V30 4460 H 430.541 -4.58751 -0.484314 0
M  V30 4461 H 428.784 -4.32076 -0.386362 0
M  V30 4462 H 429.455 -5.23946 -1.73737 0
M  V30 4463 H 431.931 -3.41963 -2.37067 0
M  V30 4464 H 430.807 -4.2432 -3.48201 0
M  V30 4465 H 431.068 -2.51309 -3.63725 0
M  V30 4466 N 430.127 0.543554 -1.4793 0
M  V30 4467 C 431.075 1.67039 -1.61866 0
M  V30 4468 C 432.069 1.62294 -0.48549 0
M  V30 4469 O 433.275 1.67315 -0.66376 0
M  V30 4470 H 429.65 0.552954 -0.509652 0
M  V30 4471 H 431.621 1.52426 -2.56533 0
M  V30 4472 C 430.37 3.05357 -1.6629 0
M  V30 4473 H 429.693 3.09696 -2.5284 0
M  V30 4474 H 431.133 3.83855 -1.80088 0
M  V30 4475 C 429.592 3.34531 -0.398861 0
M  V30 4476 O 430.122 3.98649 0.494162 0
M  V30 4477 N 428.328 2.89299 -0.2747 0
M  V30 4478 H 427.875 2.37298 -1.00236 0
M  V30 4479 H 427.833 3.09188 0.570075 0
M  V30 4480 N 431.605 1.3629 0.791371 0
M  V30 4481 C 432.568 1.30309 1.88553 0
M  V30 4482 C 433.568 0.211204 1.59407 0
M  V30 4483 O 434.758 0.465865 1.67855 0
M  V30 4484 C 431.89 1.01956 3.25297 0
M  V30 4485 H 433.083 2.27614 1.95273 0
M  V30 4486 H 430.636 1.21035 0.988953 0
M  V30 4487 H 431.371 0.050998 3.2426 0
M  V30 4488 H 431.156 1.80968 3.4784 0
M  V30 4489 H 432.646 1.0037 4.05359 0
M  V30 4490 N 433.083 -1.0153 1.20538 0
M  V30 4491 C 434.033 -2.08482 0.922991 0
M  V30 4492 C 435.017 -1.60469 -0.117702 0
M  V30 4493 O 436.209 -1.76772 0.0898465 0
M  V30 4494 C 433.338 -3.39952 0.478312 0
M  V30 4495 C 432.424 -3.94662 1.5525 0
M  V30 4496 N 432.815 -4.22866 2.77521 0
M  V30 4497 C 431.113 -4.22825 1.41897 0
M  V30 4498 C 431.814 -4.67002 3.4682 0
M  V30 4499 N 430.79 -4.69356 2.74237 0
M  V30 4500 H 434.592 -2.28199 1.85209 0
M  V30 4501 H 432.106 -1.19512 1.09957 0
M  V30 4502 H 434.103 -4.16105 0.257408 0
M  V30 4503 H 432.763 -3.21648 -0.444148 0
M  V30 4504 H 433.774 -4.11732 3.1416 0
M  V30 4505 H 430.451 -4.13714 0.561015 0
M  V30 4506 H 431.841 -4.97632 4.51455 0
M  V30 4507 N 434.561 -1.01147 -1.20859 0
M  V30 4508 C 435.809 -0.696486 -1.89719 0
M  V30 4509 C 436.13 0.775788 -1.78904 0
M  V30 4510 O 435.4 1.55759 -1.18811 0
M  V30 4511 H 433.98 -0.254628 -0.702263 0
M  V30 4512 H 436.642 -1.28197 -1.46804 0
M  V30 4513 H 435.738 -0.975357 -2.96468 0
M  V30 4514 N 436.039 1.36541 -0.78704 0
M  V30 4515 C 437.286 1.99304 -0.358341 0
M  V30 4516 C 437.614 1.62467 1.06933 0
M  V30 4517 O 436.869 0.870019 1.75297 0
M  V30 4518 C 437.168 3.54343 -0.466485 0
M  V30 4519 C 436.834 4.10993 -1.85461 0
M  V30 4520 C 435.496 4.26177 -2.23443 0
M  V30 4521 C 437.848 4.41895 -2.76366 0
M  V30 4522 C 435.176 4.69573 -3.51736 0
M  V30 4523 C 437.528 4.86722 -4.04084 0
M  V30 4524 C 436.192 5.00112 -4.42091 0
M  V30 4525 H 435.462 0.729306 -0.131126 0
M  V30 4526 H 438.109 1.63068 -1.00404 0
M  V30 4527 H 436.414 3.90918 0.262719 0
M  V30 4528 H 438.111 4.00833 -0.115854 0
M  V30 4529 H 434.701 3.99612 -1.54946 0
M  V30 4530 H 438.885 4.29735 -2.48277 0
M  V30 4531 H 434.141 4.78127 -3.81057 0
M  V30 4532 H 438.315 5.09598 -4.7464 0
M  V30 4533 H 435.942 5.33498 -5.41557 0
M  V30 4534 N 437.518 0.538854 1.48102 0
M  V30 4535 C 438.767 0.0059532 2.01699 0
M  V30 4536 C 439.08 -1.34476 1.42041 0
M  V30 4537 O 440.286 -1.96653 1.87189 0
M  V30 4538 C 438.742 -0.0397627 3.59878 0
M  V30 4539 C 438.35 1.30659 4.28523 0
M  V30 4540 C 440.094 -0.521024 4.2129 0
M  V30 4541 C 438.001 1.22098 5.78659 0
M  V30 4542 H 436.931 -0.00154456 0.753998 0
M  V30 4543 H 439.582 0.683963 1.70277 0
M  V30 4544 H 437.964 -0.783037 3.88181 0
M  V30 4545 H 439.138 2.06613 4.11883 0
M  V30 4546 H 437.453 1.7243 3.79021 0
M  V30 4547 H 440.05 -0.603184 5.31287 0
M  V30 4548 H 440.393 -1.52885 3.8721 0
M  V30 4549 H 440.926 0.166834 3.9745 0
M  V30 4550 H 437.665 2.20424 6.17328 0
M  V30 4551 H 437.185 0.50295 5.97688 0
M  V30 4552 H 438.864 0.915345 6.40492 0
M  V30 4553 N 438.996 -1.55193 0.274407 0
M  V30 4554 C 439.906 -2.26164 -0.623473 0
M  V30 4555 C 440.922 -1.28729 -1.17068 0
M  V30 4556 O 442.098 -1.61663 -1.20112 0
M  V30 4557 C 439.163 -2.96833 -1.7914 0
M  V30 4558 C 438.224 -4.09745 -1.28093 0
M  V30 4559 C 437.457 -4.77034 -2.3932 0
M  V30 4560 O 437.68 -4.4353 -3.5866 0
M  V30 4561 O 436.614 -5.64996 -2.07516 0
M  V30 4562 H 440.44 -3.03661 -0.0485661 0
M  V30 4563 H 438.025 -1.49341 0.0418382 0
M  V30 4564 H 439.907 -3.41248 -2.4724 0
M  V30 4565 H 438.582 -2.22253 -2.35341 0
M  V30 4566 H 437.489 -3.69787 -0.566416 0
M  V30 4567 H 438.822 -4.86224 -0.764683 0
M  V30 4568 N 440.474 -0.00167713 -1.576 0
M  V30 4569 C 441.437 0.974046 -2.07473 0
M  V30 4570 C 442.437 1.27143 -0.984444 0
M  V30 4571 O 443.627 1.21633 -1.24703 0
M  V30 4572 C 440.759 2.29849 -2.51759 0
M  V30 4573 H 441.952 0.54262 -2.9495 0
M  V30 4574 H 439.505 0.245829 -1.54355 0
M  V30 4575 H 440.24 2.77677 -1.67529 0
M  V30 4576 H 440.025 2.09584 -3.31386 0
M  V30 4577 H 441.515 2.9984 -2.90664 0
M  V30 4578 N 441.952 1.55251 0.271103 0
M  V30 4579 C 442.882 1.9127 1.33933 0
M  V30 4580 C 443.863 0.77478 1.5143 0
M  V30 4581 O 445.048 1.03307 1.64442 0
M  V30 4582 C 442.178 2.18627 2.69851 0
M  V30 4583 C 441.132 3.34442 2.67081 0
M  V30 4584 C 440.458 3.47284 4.06569 0
M  V30 4585 C 441.758 4.70784 2.26185 0
M  V30 4586 H 443.452 2.80744 1.04035 0
M  V30 4587 H 440.998 1.35077 0.499017 0
M  V30 4588 H 442.951 2.42413 3.44694 0
M  V30 4589 H 441.675 1.25955 3.01335 0
M  V30 4590 H 440.334 3.10627 1.94695 0
M  V30 4591 H 439.982 2.52074 4.35279 0
M  V30 4592 H 439.682 4.25152 4.0561 0
M  V30 4593 H 441.206 3.73363 4.83148 0
M  V30 4594 H 442.62 4.94102 2.90751 0
M  V30 4595 H 441.017 5.51582 2.36384 0
M  V30 4596 H 442.087 4.69478 1.21319 0
M  V30 4597 N 443.43 -0.535701 1.48216 0
M  V30 4598 C 444.846 -0.863701 1.3421 0
M  V30 4599 C 445.046 -1.98458 0.34879 0
M  V30 4600 O 444.102 -2.51432 -0.23204 0
M  V30 4601 C 445.415 -1.23662 2.74095 0
M  V30 4602 C 446.963 -1.34683 2.82541 0
M  V30 4603 C 447.438 -1.75322 4.23115 0
M  V30 4604 N 448.929 -1.82434 4.2576 0
M  V30 4605 C 449.664 -2.15252 5.31464 0
M  V30 4606 N 449.16 -2.46533 6.47452 0
M  V30 4607 N 450.953 -2.16209 5.18855 0
M  V30 4608 H 443.104 0.203965 2.11418 0
M  V30 4609 H 445.367 0.0286033 0.947568 0
M  V30 4610 H 445.073 -0.486674 3.48316 0
M  V30 4611 H 444.947 -2.18805 3.07253 0
M  V30 4612 H 447.334 -2.08756 2.08579 0
M  V30 4613 H 447.415 -0.376756 2.5301 0
M  V30 4614 H 447.059 -1.01812 4.97591 0
M  V30 4615 H 446.989 -2.7337 4.50085 0
M  V30 4616 H 449.48 -1.6056 3.42095 0
M  V30 4617 H 449.793 -2.70662 7.23852 0
M  V30 4618 H 448.138 -2.44065 6.50736 0
M  V30 4619 H 451.329 -1.91224 4.2726 0
M  V30 4620 H 451.502 -2.41453 6.01335 0
M  V30 4621 N 444.908 -1.36708 -0.784132 0
M  V30 4622 C 445.856 -1.31533 -1.91838 0
M  V30 4623 C 446.85 -0.206205 -1.6814 0
M  V30 4624 O 448.056 -0.373519 -1.76082 0
M  V30 4625 H 444.431 -0.409613 -0.630651 0
M  V30 4626 H 446.402 -2.2731 -1.9332 0
M  V30 4627 C 445.151 -1.12679 -3.28936 0
M  V30 4628 H 444.474 -1.97274 -3.4774 0
M  V30 4629 H 445.914 -1.13106 -4.08636 0
M  V30 4630 C 444.373 0.168281 -3.36479 0
M  V30 4631 O 444.903 1.15625 -3.84699 0
M  V30 4632 N 443.109 0.214762 -2.89805 0
M  V30 4633 H 442.656 -0.589852 -2.50756 0
M  V30 4634 H 442.614 1.08094 -2.95234 0
M  V30 4635 N 446.386 1.0089 -1.21074 0
M  V30 4636 C 447.611 1.78727 -1.05221 0
M  V30 4637 C 448.036 1.83932 0.393795 0
M  V30 4638 O 447.394 1.28004 1.28393 0
M  V30 4639 C 447.442 3.20665 -1.64944 0
M  V30 4640 O 446.546 4.02632 -0.892273 0
M  V30 4641 H 445.887 0.550973 -0.370574 0
M  V30 4642 H 448.417 1.26847 -1.60534 0
M  V30 4643 H 448.427 3.71352 -1.69002 0
M  V30 4644 H 447.102 3.16191 -2.70177 0
M  V30 4645 H 445.679 3.61207 -0.926492 0
M  V30 4646 N 447.864 1.01787 1.20321 0
M  V30 4647 C 449.112 0.706538 1.89347 0
M  V30 4648 C 449.433 -0.766289 1.79313 0
M  V30 4649 O 448.703 -1.55126 1.19635 0
M  V30 4650 H 447.283 0.258348 0.700903 0
M  V30 4651 H 449.945 1.28974 1.46122 0
M  V30 4652 H 449.041 0.991066 2.95946 0
M  V30 4653 N 449.342 -1.36122 0.79427 0
M  V30 4654 C 450.588 -1.99406 0.369452 0
M  V30 4655 C 450.921 -1.62886 -1.05743 0
M  V30 4656 O 450.196 -0.886053 -1.73145 0
M  V30 4657 C 450.479 -3.56046 0.538833 0
M  V30 4658 C 450.332 -4.02404 2.00976 0
M  V30 4659 C 451.651 -4.40079 -0.0431359 0
M  V30 4660 H 448.77 -0.724397 0.135712 0
M  V30 4661 H 451.412 -1.61461 1.00151 0
M  V30 4662 H 449.562 -3.885 0.000771004 0
M  V30 4663 H 451.234 -3.80415 2.60926 0
M  V30 4664 H 449.477 -3.53765 2.51063 0
M  V30 4665 H 450.148 -5.11344 2.07922 0
M  V30 4666 H 452.624 -4.14013 0.416228 0
M  V30 4667 H 451.5 -5.48799 0.105374 0
M  V30 4668 H 451.761 -4.27264 -1.13571 0
M  V30 4669 N 450.82 -0.546701 -1.47814 0
M  V30 4670 C 451.75 0.195317 -2.32682 0
M  V30 4671 C 452.731 0.918981 -1.43139 0
M  V30 4672 O 453.916 0.901501 -1.72008 0
M  V30 4673 C 451.046 1.23237 -3.247 0
M  V30 4674 C 450 0.625818 -4.234 0
M  V30 4675 C 449.326 1.76674 -5.04669 0
M  V30 4676 C 450.626 -0.413515 -5.2066 0
M  V30 4677 H 452.32 -0.513184 -2.94969 0
M  V30 4678 H 449.866 -0.248241 -1.41844 0
M  V30 4679 H 451.819 1.75955 -3.82907 0
M  V30 4680 H 450.543 1.97067 -2.60446 0
M  V30 4681 H 449.202 0.120023 -3.66403 0
M  V30 4682 H 448.85 2.49383 -4.36826 0
M  V30 4683 H 448.55 1.36673 -5.71484 0
M  V30 4684 H 450.074 2.29738 -5.65732 0
M  V30 4685 H 451.488 0.0272042 -5.73294 0
M  V30 4686 H 449.885 -0.731825 -5.95621 0
M  V30 4687 H 450.955 -1.31325 -4.66778 0
M  V30 4688 N 452.299 1.55045 -0.282633 0
M  V30 4689 C 453.262 2.21515 0.588539 0
M  V30 4690 C 454.262 1.19535 1.07554 0
M  V30 4691 O 455.452 1.44391 0.974514 0
M  V30 4692 C 452.584 2.88704 1.8128 0
M  V30 4693 H 453.777 2.99899 0.00806397 0
M  V30 4694 H 451.33 1.56265 -0.0333067 0
M  V30 4695 H 452.065 2.14352 2.43359 0
M  V30 4696 H 451.85 3.63443 1.47144 0
M  V30 4697 H 453.34 3.39465 2.43214 0
M  V30 4698 N 453.777 0.010035 1.57597 0
M  V30 4699 C 454.725 -0.996272 2.10184 0
M  V30 4700 C 455.719 -1.34942 1.02406 0
M  V30 4701 O 456.925 -1.33389 1.20861 0
M  V30 4702 H 453.3 -0.338982 0.671264 0
M  V30 4703 H 455.271 -0.527272 2.93705 0
M  V30 4704 C 454.02 -2.27599 2.62857 0
M  V30 4705 H 453.343 -2.01295 3.45428 0
M  V30 4706 H 454.783 -2.96265 3.0332 0
M  V30 4707 C 453.242 -2.99269 1.54725 0
M  V30 4708 O 453.772 -3.90644 0.93597 0
M  V30 4709 N 451.978 -2.61269 1.27228 0
M  V30 4710 H 451.525 -1.87043 1.77123 0
M  V30 4711 H 451.483 -3.09534 0.550999 0
M  V30 4712 N 455.255 -1.55392 -0.262866 0
M  V30 4713 C 456.218 -1.88181 -1.30846 0
M  V30 4714 C 457.218 -0.757079 -1.41862 0
M  V30 4715 O 458.408 -1.02519 -1.40838 0
M  V30 4716 C 455.54 -2.09609 -2.68844 0
M  V30 4717 H 456.733 -2.81659 -1.02997 0
M  V30 4718 H 454.286 -1.48039 -0.501414 0
M  V30 4719 H 455.021 -1.18547 -3.01856 0
M  V30 4720 H 454.806 -2.91508 -2.62231 0
M  V30 4721 H 456.296 -2.36215 -3.44372 0
M  V30 4722 N 456.733 0.527833 -1.48498 0
M  V30 4723 C 457.979 1.28545 -1.56857 0
M  V30 4724 C 458.312 1.92678 -0.242651 0
M  V30 4725 O 457.587 1.79394 0.751545 0
M  V30 4726 C 457.87 2.37314 -2.70839 0
M  V30 4727 C 457.723 1.77858 -4.13142 0
M  V30 4728 C 459.042 3.39068 -2.80573 0
M  V30 4729 H 456.161 0.466006 -0.570971 0
M  V30 4730 H 458.803 0.587784 -1.8068 0
M  V30 4731 H 456.953 2.96821 -2.50658 0
M  V30 4732 H 458.625 1.22385 -4.44769 0
M  V30 4733 H 456.868 1.08383 -4.20042 0
M  V30 4734 H 457.539 2.56624 -4.88721 0
M  V30 4735 H 460.015 2.89518 -2.98862 0
M  V30 4736 H 458.891 4.12566 -3.6205 0
M  V30 4737 H 459.152 3.9975 -1.88818 0
M  V30 4738 N 458.211 1.37122 0.776871 0
M  V30 4739 C 459.436 1.354 1.57104 0
M  V30 4740 C 459.861 -0.0595562 1.88006 0
M  V30 4741 O 459.219 -1.03514 1.48844 0
M  V30 4742 C 459.267 2.19472 2.8612 0
M  V30 4743 O 458.371 1.59582 3.80273 0
M  V30 4744 H 457.712 0.462869 0.476076 0
M  V30 4745 H 460.242 1.80577 0.961932 0
M  V30 4746 H 460.252 2.32502 3.35271 0
M  V30 4747 H 458.927 3.22222 2.62956 0
M  V30 4748 H 457.504 1.55564 3.38902 0
M  V30 4749 N 459.689 -1.00246 1.21608 0
M  V30 4750 C 460.966 -1.71336 0.943568 0
M  V30 4751 C 461.346 -2.03972 -0.543943 0
M  V30 4752 O 460.694 -1.71545 -1.50946 0
M  V30 4753 C 460.904 -2.97094 1.83128 0
M  V30 4754 C 462.252 -3.70071 2.08165 0
M  V30 4755 O 463.276 -3.07081 1.80498 0
M  V30 4756 O 462.135 -4.83376 2.54971 0
M  V30 4757 H 459.229 -0.747386 0.354039 0
M  V30 4758 H 461.775 -1.05967 1.32549 0
M  V30 4759 H 460.547 -2.69407 2.83788 0
M  V30 4760 H 460.17 -3.70204 1.45034 0
M  V30 4761 N 461.167 -1.02423 -1.1978 0
M  V30 4762 C 462.395 -0.737456 -1.93311 0
M  V30 4763 C 462.81 0.703023 -1.75223 0
M  V30 4764 O 462.167 1.47761 -1.07112 0
M  V30 4765 C 462.218 -1.0733 -3.45199 0
M  V30 4766 O 461.939 -2.4572 -3.62702 0
M  V30 4767 C 463.44 -0.80866 -4.35862 0
M  V30 4768 H 460.66 -0.2702 -0.614193 0
M  V30 4769 H 463.204 -1.36747 -1.52054 0
M  V30 4770 H 461.359 -0.488545 -3.84307 0
M  V30 4771 H 461.773 -2.58081 -4.56612 0
M  V30 4772 H 463.247 -1.09365 -5.41057 0
M  V30 4773 H 463.724 0.257025 -4.38447 0
M  V30 4774 H 464.33 -1.37592 -4.02428 0
M  V30 4775 N 462.645 1.35699 -0.801477 0
M  V30 4776 C 463.555 2.33661 -0.209691 0
M  V30 4777 C 464.571 1.6162 0.644591 0
M  V30 4778 O 465.747 1.93529 0.557545 0
M  V30 4779 C 462.812 3.40816 0.636033 0
M  V30 4780 C 461.873 4.28639 -0.238147 0
M  V30 4781 C 461.106 5.30676 0.567307 0
M  V30 4782 O 461.329 5.41174 1.8024 0
M  V30 4783 O 460.263 6.01887 -0.0391336 0
M  V30 4784 H 464.089 2.8606 -1.01996 0
M  V30 4785 H 461.674 1.38379 -0.563164 0
M  V30 4786 H 463.556 4.06301 1.11791 0
M  V30 4787 H 462.231 2.90696 1.42399 0
M  V30 4788 H 461.138 3.66152 -0.767044 0
M  V30 4789 H 462.471 4.82143 -0.989915 0
M  V30 4790 N 464.123 0.554532 1.47522 0
M  V30 4791 C 465.372 0.0273458 2.01681 0
M  V30 4792 C 465.685 -1.32962 1.43459 0
M  V30 4793 O 466.891 -1.94657 1.89265 0
M  V30 4794 C 465.347 -0.00159057 3.599 0
M  V30 4795 C 464.955 1.35197 4.27113 0
M  V30 4796 C 466.699 -0.476311 4.21819 0
M  V30 4797 C 464.606 1.28229 5.77331 0
M  V30 4798 H 463.536 0.00645269 0.753972 0
M  V30 4799 H 466.187 0.701985 1.69542 0
M  V30 4800 H 464.569 -0.741821 3.8899 0
M  V30 4801 H 465.743 2.1097 4.09668 0
M  V30 4802 H 464.058 1.76441 3.77171 0
M  V30 4803 H 466.655 -0.5468 5.31897 0
M  V30 4804 H 466.998 -1.4877 3.8881 0
M  V30 4805 H 467.531 0.20898 3.97251 0
M  V30 4806 H 464.27 2.26959 6.14955 0
M  V30 4807 H 463.79 0.566314 5.97121 0
M  V30 4808 H 465.469 0.983226 6.39485 0
M  V30 4809 N 465.601 -1.54893 0.290851 0
M  V30 4810 C 467.017 -1.59476 -0.0628432 0
M  V30 4811 C 467.217 -1.30795 -1.5328 0
M  V30 4812 O 466.273 -1.07644 -2.28406 0
M  V30 4813 C 467.586 -2.98928 0.325962 0
M  V30 4814 C 469.134 -3.11799 0.273882 0
M  V30 4815 C 469.609 -4.53544 0.637359 0
M  V30 4816 N 471.1 -4.59433 0.589507 0
M  V30 4817 C 471.835 -5.67164 0.84335 0
M  V30 4818 N 471.331 -6.82975 1.16263 0
M  V30 4819 N 473.124 -5.56786 0.771091 0
M  V30 4820 H 465.275 -1.71798 1.24896 0
M  V30 4821 H 467.538 -0.801879 0.505663 0
M  V30 4822 H 467.244 -3.24805 1.34887 0
M  V30 4823 H 467.118 -3.75793 -0.325441 0
M  V30 4824 H 469.505 -2.85677 -0.739765 0
M  V30 4825 H 469.586 -2.37112 0.959766 0
M  V30 4826 H 469.23 -4.80394 1.64877 0
M  V30 4827 H 469.16 -5.26553 -0.0704866 0
M  V30 4828 H 471.651 -3.76245 0.353252 0
M  V30 4829 H 471.964 -7.61048 1.34257 0
M  V30 4830 H 470.309 -6.84552 1.20057 0
M  V30 4831 H 473.5 -4.65187 0.521383 0
M  V30 4832 H 473.673 -6.40664 0.972295 0
M  V30 4833 N 467.08 -0.0183926 -1.57589 0
M  V30 4834 C 468.01 0.965596 -2.12599 0
M  V30 4835 C 468.991 1.34641 -1.0395 0
M  V30 4836 O 470.176 1.42693 -1.31729 0
M  V30 4837 C 467.306 2.25149 -2.64434 0
M  V30 4838 C 466.26 2.01175 -3.77773 0
M  V30 4839 C 465.586 3.35937 -4.15994 0
M  V30 4840 C 466.886 1.35953 -5.04296 0
M  V30 4841 H 468.58 0.507504 -2.95067 0
M  V30 4842 H 466.126 0.242671 -1.41941 0
M  V30 4843 H 468.079 2.94357 -3.01549 0
M  V30 4844 H 466.803 2.73105 -1.79112 0
M  V30 4845 H 465.462 1.34388 -3.4108 0
M  V30 4846 H 465.11 3.81631 -3.27669 0
M  V30 4847 H 464.81 3.20705 -4.92364 0
M  V30 4848 H 466.334 4.0643 -4.55683 0
M  V30 4849 H 467.748 1.95144 -5.39065 0
M  V30 4850 H 466.145 1.31152 -5.85593 0
M  V30 4851 H 467.215 0.331071 -4.83768 0
M  V30 4852 N 468.558 1.5553 0.254621 0
M  V30 4853 C 469.804 1.77262 0.985193 0
M  V30 4854 C 470.137 0.582286 1.85265 0
M  V30 4855 O 469.412 -0.419666 1.89919 0
M  V30 4856 C 469.695 3.0881 1.85225 0
M  V30 4857 C 469.548 4.38233 1.0135 0
M  V30 4858 C 470.867 3.3653 2.83612 0
M  V30 4859 H 467.986 0.644906 0.356742 0
M  V30 4860 H 470.628 1.88264 0.256236 0
M  V30 4861 H 468.778 2.99562 2.47376 0
M  V30 4862 H 470.45 4.59463 0.411269 0
M  V30 4863 H 468.693 4.32636 0.317574 0
M  V30 4864 H 469.364 5.26644 1.65379 0
M  V30 4865 H 471.84 3.45691 2.31596 0
M  V30 4866 H 470.716 4.29805 3.41407 0
M  V30 4867 H 470.977 2.57064 3.59681 0
M  V30 4868 N 470.036 -0.519951 1.48776 0
M  V30 4869 C 471.264 -1.29971 1.60982 0
M  V30 4870 C 471.679 -1.86803 0.273885 0
M  V30 4871 O 471.036 -1.66904 -0.738193 0
M  V30 4872 C 471.087 -2.44346 2.66415 0
M  V30 4873 O 470.808 -1.89855 3.94825 0
M  V30 4874 C 472.309 -3.36014 2.89153 0
M  V30 4875 H 469.529 -0.394891 0.542496 0
M  V30 4876 H 472.073 -0.626214 1.94676 0
M  V30 4877 H 470.228 -3.07562 2.35552 0
M  V30 4878 H 470.642 -2.64798 4.5275 0
M  V30 4879 H 472.116 -4.12593 3.66703 0
M  V30 4880 H 472.593 -3.91859 1.98351 0
M  V30 4881 H 473.199 -2.78582 3.21359 0
M  V30 4882 N 471.514 -1.37532 -0.769588 0
M  V30 4883 C 472.464 -1.29984 -1.87318 0
M  V30 4884 C 473.448 -0.187242 -1.59807 0
M  V30 4885 O 474.64 -0.421827 -1.719 0
M  V30 4886 C 471.769 -1.11126 -3.24817 0
M  V30 4887 C 470.855 -2.26939 -3.58273 0
M  V30 4888 N 471.246 -3.52336 -3.62895 0
M  V30 4889 C 469.544 -2.19141 -3.8845 0
M  V30 4890 C 470.245 -4.28719 -3.9316 0
M  V30 4891 N 469.221 -3.57884 -4.0917 0
M  V30 4892 H 473.023 -2.24946 -1.89147 0
M  V30 4893 H 470.537 -1.30535 -0.966143 0
M  V30 4894 H 472.534 -1.03803 -4.0377 0
M  V30 4895 H 471.194 -0.17083 -3.2425 0
M  V30 4896 H 472.205 -3.86216 -3.45048 0
M  V30 4897 H 468.882 -1.33167 -3.95693 0
M  V30 4898 H 470.272 -5.37254 -4.03494 0
M  V30 4899 N 472.992 0.995999 -1.22138 0
M  V30 4900 C 473.939 2.08551 -0.988687 0
M  V30 4901 C 474.909 1.65864 0.0885021 0
M  V30 4902 O 476.094 1.90704 -0.0604589 0
M  V30 4903 C 473.234 3.40374 -0.569191 0
M  V30 4904 C 472.347 3.96421 -1.71681 0
M  V30 4905 C 471.482 5.1639 -1.2456 0
M  V30 4906 C 470.521 5.64567 -2.36497 0
M  V30 4907 N 469.658 6.75777 -1.90445 0
M  V30 4908 H 474.498 2.2779 -1.92135 0
M  V30 4909 H 472.035 1.1168 -0.957388 0
M  V30 4910 H 473.993 4.16068 -0.307166 0
M  V30 4911 H 472.623 3.21145 0.326462 0
M  V30 4912 H 471.675 3.17628 -2.09324 0
M  V30 4913 H 472.987 4.2816 -2.55891 0
M  V30 4914 H 472.141 5.99362 -0.940774 0
M  V30 4915 H 470.88 4.86266 -0.373662 0
M  V30 4916 H 469.885 4.80185 -2.67772 0
M  V30 4917 H 471.11 5.96716 -3.24202 0
M  V30 4918 H 469.056 6.47443 -1.05609 0
M  V30 4919 H 468.973 7.06818 -2.68223 0
M  V30 4920 H 470.241 7.62262 -1.63022 0
M  V30 4921 N 474.47 1.03057 1.19235 0
M  V30 4922 C 475.747 0.642608 1.84743 0
M  V30 4923 C 476.127 -0.878577 1.91948 0
M  V30 4924 O 475.475 -1.77597 1.43776 0
M  V30 4925 C 475.685 1.30665 3.23616 0
M  V30 4926 C 477.033 1.43098 3.9976 0
M  V30 4927 O 478.057 1.26396 3.3302 0
M  V30 4928 O 476.916 1.70223 5.19313 0
M  V30 4929 H 474.01 0.223573 0.796206 0
M  V30 4930 H 476.556 1.12883 1.26711 0
M  V30 4931 H 475.328 2.34544 3.13217 0
M  V30 4932 H 474.951 0.808405 3.89295 0
M  V30 4933 N 475.948 -1.35272 0.808662 0
M  V30 4934 C 477.194 -1.99003 0.390581 0
M  V30 4935 C 477.527 -1.63999 -1.0401 0
M  V30 4936 O 476.802 -0.904368 -1.72196 0
M  V30 4937 C 477.085 -3.55454 0.576566 0
M  V30 4938 C 476.938 -4.00249 2.05233 0
M  V30 4939 C 478.257 -4.401 0.00354277 0
M  V30 4940 H 475.376 -0.722917 0.143388 0
M  V30 4941 H 478.018 -1.6039 1.01858 0
M  V30 4942 H 476.168 -3.88477 0.0419766 0
M  V30 4943 H 477.84 -3.77626 2.64946 0
M  V30 4944 H 476.083 -3.51082 2.54801 0
M  V30 4945 H 476.754 -5.0911 2.13333 0
M  V30 4946 H 479.23 -4.13548 0.460117 0
M  V30 4947 H 478.106 -5.48656 0.163575 0
M  V30 4948 H 478.367 -4.28444 -1.09032 0
M  V30 4949 N 477.426 -0.562348 -1.47226 0
M  V30 4950 C 478.651 -0.0432632 -2.07355 0
M  V30 4951 C 479.076 1.24332 -1.41149 0
M  V30 4952 O 478.434 1.74603 -0.488226 0
M  V30 4953 C 478.482 0.130288 -3.60365 0
M  V30 4954 O 477.586 1.19166 -3.94808 0
M  V30 4955 H 476.927 -0.0536334 -0.66183 0
M  V30 4956 H 479.457 -0.779495 -1.89169 0
M  V30 4957 H 479.467 0.342881 -4.06557 0
M  V30 4958 H 478.142 -0.809389 -4.07948 0
M  V30 4959 H 476.719 0.959153 -3.60354 0
M  V30 4960 N 478.904 1.54736 -0.299062 0
M  V30 4961 C 480.32 1.59507 0.0543849 0
M  V30 4962 C 480.52 1.31606 1.52585 0
M  V30 4963 O 479.576 1.08853 2.27832 0
M  V30 4964 C 480.889 2.98751 -0.34181 0
M  V30 4965 C 482.437 3.1165 -0.290414 0
M  V30 4966 C 482.912 4.53199 -0.661402 0
M  V30 4967 N 484.403 4.59114 -0.613863 0
M  V30 4968 C 485.138 5.66709 -0.873417 0
M  V30 4969 N 484.634 6.82349 -1.19884 0
M  V30 4970 N 486.427 5.56369 -0.800608 0
M  V30 4971 H 478.578 1.71133 -1.25806 0
M  V30 4972 H 480.841 0.799186 -0.509908 0
M  V30 4973 H 480.547 3.24085 -1.36608 0
M  V30 4974 H 480.421 3.75961 0.305508 0
M  V30 4975 H 482.808 2.86066 0.724605 0
M  V30 4976 H 482.889 2.366 -0.972327 0
M  V30 4977 H 482.533 4.79513 -1.67422 0
M  V30 4978 H 482.463 5.26583 0.0425612 0
M  V30 4979 H 484.954 3.76053 -0.3732 0
M  V30 4980 H 485.267 7.60326 -1.38291 0
M  V30 4981 H 483.612 6.83906 -1.23685 0
M  V30 4982 H 486.803 4.64904 -0.546045 0
M  V30 4983 H 486.976 6.40139 -1.00626 0
M  V30 4984 N 480.382 0.0267497 1.57577 0
M  V30 4985 C 481.33 -0.973923 2.11229 0
M  V30 4986 C 482.324 -1.33849 1.03831 0
M  V30 4987 O 483.53 -1.321 1.22269 0
M  V30 4988 H 479.905 -0.331844 0.674821 0
M  V30 4989 H 481.876 -0.496092 2.94247 0
M  V30 4990 C 480.625 -2.24798 2.65257 0
M  V30 4991 H 479.948 -1.9762 3.47543 0
M  V30 4992 H 481.388 -2.93031 3.06445 0
M  V30 4993 C 479.847 -2.97611 1.57891 0
M  V30 4994 O 480.377 -3.89629 0.97735 0
M  V30 4995 N 478.583 -2.59905 1.29992 0
M  V30 4996 H 478.13 -1.85154 1.79097 0
M  V30 4997 H 478.088 -3.08932 0.583798 0
M  V30 4998 N 481.861 -1.55662 -0.24637 0
M  V30 4999 C 483.138 -1.68272 -0.997198 0
M  V30 5000 C 483.518 -0.566785 -2.03349 0
M  V30 5001 O 482.866 0.429688 -2.24424 0
M  V30 5002 C 483.076 -3.08594 -1.63006 0
M  V30 5003 C 484.424 -3.6721 -2.13171 0
M  V30 5004 O 485.448 -3.11397 -1.72946 0
M  V30 5005 O 484.307 -4.65054 -2.87031 0
M  V30 5006 H 481.401 -0.684429 -0.464205 0
M  V30 5007 H 483.947 -1.67993 -0.240114 0
M  V30 5008 H 482.719 -3.81264 -0.880527 0
M  V30 5009 H 482.342 -3.12886 -2.45333 0
M  V30 5010 N 483.339 0.512053 -1.4905 0
M  V30 5011 C 484.588 1.26343 -1.57227 0
M  V30 5012 C 484.901 1.93876 -0.259155 0
M  V30 5013 O 486.107 2.70612 -0.219358 0
M  V30 5014 C 484.563 2.29343 -2.77362 0
M  V30 5015 C 484.171 1.67799 -4.15388 0
M  V30 5016 C 485.915 3.05378 -2.94864 0
M  V30 5017 C 483.822 2.68845 -5.2676 0
M  V30 5018 H 482.752 0.475231 -0.585382 0
M  V30 5019 H 485.403 0.53862 -1.75417 0
M  V30 5020 H 483.785 3.04938 -2.52643 0
M  V30 5021 H 484.959 0.982715 -4.50199 0
M  V30 5022 H 483.274 1.04194 -4.03153 0
M  V30 5023 H 485.871 3.80921 -3.75238 0
M  V30 5024 H 486.214 3.62327 -2.05 0
M  V30 5025 H 486.747 2.36898 -3.19569 0
M  V30 5026 H 483.486 2.16692 -6.18647 0
M  V30 5027 H 483.006 3.36647 -4.96416 0
M  V30 5028 H 484.685 3.31487 -5.5563 0
M  V30 5029 N 484.817 1.37938 0.762283 0
M  V30 5030 C 485.727 1.36681 1.90671 0
M  V30 5031 C 486.743 0.265078 1.71969 0
M  V30 5032 O 487.919 0.502055 1.95042 0
M  V30 5033 C 484.984 1.18211 3.25925 0
M  V30 5034 C 484.045 2.3811 3.57214 0
M  V30 5035 C 483.278 2.20512 4.86014 0
M  V30 5036 O 483.501 1.19429 5.57757 0
M  V30 5037 O 482.435 3.08911 5.16583 0
M  V30 5038 H 486.261 2.33091 1.94685 0
M  V30 5039 H 483.846 1.18767 0.906356 0
M  V30 5040 H 485.728 1.09937 4.06807 0
M  V30 5041 H 484.403 0.248807 3.22742 0
M  V30 5042 H 483.31 2.51958 2.76529 0
M  V30 5043 H 484.643 3.30041 3.65149 0
M  V30 5044 N 486.295 -0.989507 1.22664 0
M  V30 5045 C 487.205 -2.11449 1.01619 0
M  V30 5046 C 488.221 -1.73962 -0.036545 0
M  V30 5047 O 489.397 -2.00788 0.156924 0
M  V30 5048 C 486.462 -3.41465 0.600204 0
M  V30 5049 C 485.523 -3.93033 1.72695 0
M  V30 5050 C 484.756 -5.16844 1.33071 0
M  V30 5051 O 484.979 -5.7001 0.210975 0
M  V30 5052 O 483.913 -5.6225 2.14845 0
M  V30 5053 H 487.739 -2.32088 1.9588 0
M  V30 5054 H 485.324 -1.09823 1.01289 0
M  V30 5055 H 487.206 -4.19695 0.37873 0
M  V30 5056 H 485.881 -3.22178 -0.313511 0
M  V30 5057 H 484.788 -3.15961 2.00298 0
M  V30 5058 H 486.121 -4.16758 2.61865 0
M  V30 5059 N 487.773 -1.03688 -1.18687 0
M  V30 5060 C 488.736 -0.629115 -2.20397 0
M  V30 5061 C 489.736 0.311495 -1.57754 0
M  V30 5062 O 490.926 0.0974107 -1.73927 0
M  V30 5063 C 488.058 0.0782231 -3.4081 0
M  V30 5064 H 489.251 -1.52915 -2.57987 0
M  V30 5065 H 486.804 -0.828988 -1.32505 0
M  V30 5066 H 487.539 0.992233 -3.08748 0
M  V30 5067 H 487.324 -0.597776 -3.87517 0
M  V30 5068 H 488.814 0.350156 -4.16129 0
M  V30 5069 N 489.251 1.34841 -0.815825 0
M  V30 5070 C 490.181 2.32187 -0.247298 0
M  V30 5071 C 491.162 1.5791 0.632344 0
M  V30 5072 O 492.347 1.8593 0.560698 0
M  V30 5073 C 489.477 3.42122 0.597466 0
M  V30 5074 C 488.431 4.27602 -0.184446 0
M  V30 5075 C 487.757 5.28942 0.782609 0
M  V30 5076 C 489.057 5.03502 -1.38865 0
M  V30 5077 H 490.751 2.79985 -1.06061 0
M  V30 5078 H 488.297 1.34611 -0.511461 0
M  V30 5079 H 490.25 4.09232 1.00533 0
M  V30 5080 H 488.974 2.92956 1.44376 0
M  V30 5081 H 487.633 3.62085 -0.573592 0
M  V30 5082 H 487.281 4.7604 1.62466 0
M  V30 5083 H 486.981 5.87008 0.263695 0
M  V30 5084 H 488.505 5.98922 1.18848 0
M  V30 5085 H 489.919 5.63506 -1.05518 0
M  V30 5086 H 488.316 5.71108 -1.8427 0
M  V30 5087 H 489.386 4.33608 -2.17054 0
M  V30 5088 N 490.729 0.570148 1.46925 0
M  V30 5089 C 491.677 -0.183181 2.31878 0
M  V30 5090 C 492.671 -0.896721 1.43719 0
M  V30 5091 O 493.877 -0.816536 1.60414 0
M  V30 5092 H 490.252 -0.077944 0.74795 0
M  V30 5093 H 492.223 0.552312 2.93244 0
M  V30 5094 C 490.972 -1.19172 3.2664 0
M  V30 5095 H 490.295 -0.652088 3.94446 0
M  V30 5096 H 491.735 -1.68946 3.88887 0
M  V30 5097 C 490.194 -2.24627 2.51086 0
M  V30 5098 O 490.724 -3.31773 2.26472 0
M  V30 5099 N 488.93 -1.98898 2.11867 0
M  V30 5100 H 488.477 -1.11777 2.32086 0
M  V30 5101 H 488.435 -2.6967 1.61634 0
M  V30 5102 N 492.207 -1.54576 0.307264 0
M  V30 5103 C 493.456 -1.99442 -0.300976 0
M  V30 5104 C 493.769 -1.19928 -1.5452 0
M  V30 5105 O 494.975 -1.55092 -2.22842 0
M  V30 5106 C 493.431 -3.55084 -0.586809 0
M  V30 5107 C 493.039 -4.43413 0.639438 0
M  V30 5108 C 494.783 -4.0846 -1.1559 0
M  V30 5109 C 492.69 -5.90499 0.326411 0
M  V30 5110 H 491.62 -0.744986 -0.116238 0
M  V30 5111 H 494.271 -1.787 0.416947 0
M  V30 5112 H 492.653 -3.71749 -1.36449 0
M  V30 5113 H 493.827 -4.38522 1.41545 0
M  V30 5114 H 492.142 -4.00842 1.1276 0
M  V30 5115 H 494.739 -5.15926 -1.40445 0
M  V30 5116 H 495.082 -3.59443 -2.10015 0
M  V30 5117 H 495.615 -3.95362 -0.439778 0
M  V30 5118 H 492.354 -6.43676 1.23939 0
M  V30 5119 H 491.874 -5.98382 -0.412212 0
M  V30 5120 H 493.553 -6.46962 -0.0697393 0
M  V30 5121 N 493.685 -0.035106 -1.57561 0
M  V30 5122 C 494.932 0.642229 -1.92046 0
M  V30 5123 C 495.26 1.7179 -0.91206 0
M  V30 5124 O 494.515 1.95544 0.0781153 0
M  V30 5125 C 494.814 1.29149 -3.3325 0
M  V30 5126 C 494.48 0.345604 -4.49574 0
M  V30 5127 C 493.142 0.0852775 -4.81124 0
M  V30 5128 C 495.494 -0.303569 -5.20315 0
M  V30 5129 C 492.822 -0.831927 -5.80772 0
M  V30 5130 C 495.174 -1.20886 -6.20942 0
M  V30 5131 C 493.838 -1.47802 -6.50931 0
M  V30 5132 H 493.108 0.235008 -0.702746 0
M  V30 5133 H 495.755 -0.0981529 -1.91248 0
M  V30 5134 H 494.06 2.10676 -3.30337 0
M  V30 5135 H 495.757 1.82223 -3.57205 0
M  V30 5136 H 492.347 0.558683 -4.24943 0
M  V30 5137 H 496.531 -0.115515 -4.96166 0
M  V30 5138 H 491.787 -1.0481 -6.02349 0
M  V30 5139 H 495.961 -1.71804 -6.74875 0
M  V30 5140 H 493.588 -2.19039 -7.2796 0
M  V30 5141 N 495.163 1.55791 0.238111 0
M  V30 5142 C 496.073 1.94196 1.31625 0
M  V30 5143 C 497.089 0.843545 1.52185 0
M  V30 5144 O 498.265 1.1457 1.65637 0
M  V30 5145 C 495.33 2.2365 2.64918 0
M  V30 5146 C 494.391 3.46971 2.52804 0
M  V30 5147 C 493.624 3.7501 3.79741 0
M  V30 5148 O 493.847 3.04982 4.82019 0
M  V30 5149 O 492.781 4.68525 3.77846 0
M  V30 5150 H 496.607 2.86044 1.02043 0
M  V30 5151 H 494.192 1.42786 0.439603 0
M  V30 5152 H 496.074 2.43863 3.4367 0
M  V30 5153 H 494.749 1.34979 2.94215 0
M  V30 5154 H 493.656 3.32055 1.72309 0
M  V30 5155 H 494.989 4.35971 2.28451 0
M  V30 5156 N 496.642 -0.504142 1.49319 0
M  V30 5157 C 497.589 -1.60603 1.65756 0
M  V30 5158 C 498.559 -1.58425 0.499082 0
M  V30 5159 O 499.744 -1.76459 0.725728 0
M  V30 5160 C 496.884 -2.98764 1.72726 0
M  V30 5161 C 495.997 -3.10982 2.99857 0
M  V30 5162 C 495.132 -4.39857 2.97824 0
M  V30 5163 C 494.171 -4.45697 4.19548 0
M  V30 5164 N 493.308 -5.65995 4.15444 0
M  V30 5165 H 498.148 -1.45895 2.59843 0
M  V30 5166 H 495.685 -0.709891 1.28837 0
M  V30 5167 H 497.643 -3.78839 1.74747 0
M  V30 5168 H 496.273 -3.12183 0.821075 0
M  V30 5169 H 495.325 -2.23991 3.07461 0
M  V30 5170 H 496.637 -3.11157 3.89849 0
M  V30 5171 H 495.791 -5.2825 2.98391 0
M  V30 5172 H 494.53 -4.42242 2.05604 0
M  V30 5173 H 493.535 -3.55707 4.19229 0
M  V30 5174 H 494.76 -4.4503 5.12957 0
M  V30 5175 H 492.706 -5.69229 3.26059 0
M  V30 5176 H 492.623 -5.67773 4.99169 0
M  V30 5177 H 493.891 -6.56604 4.20109 0
M  V30 5178 N 498.12 -1.38341 -0.754957 0
M  V30 5179 C 499.05 -1.38176 -1.88227 0
M  V30 5180 C 500.031 -0.247873 -1.68284 0
M  V30 5181 O 501.216 -0.45075 -1.88896 0
M  V30 5182 C 498.346 -1.20471 -3.25736 0
M  V30 5183 C 497.3 -2.3105 -3.60278 0
M  V30 5184 C 496.626 -1.98452 -4.96509 0
M  V30 5185 C 497.926 -3.73305 -3.65295 0
M  V30 5186 H 499.62 -2.32512 -1.88622 0
M  V30 5187 H 497.166 -1.1192 -0.906082 0
M  V30 5188 H 499.119 -1.18982 -4.04254 0
M  V30 5189 H 497.843 -0.225965 -3.25817 0
M  V30 5190 H 496.502 -2.31723 -2.84078 0
M  V30 5191 H 496.15 -0.990641 -4.93148 0
M  V30 5192 H 495.85 -2.7251 -5.20588 0
M  V30 5193 H 497.374 -1.98578 -5.77407 0
M  V30 5194 H 498.788 -3.7467 -4.3393 0
M  V30 5195 H 497.185 -4.46557 -4.00883 0
M  V30 5196 H 498.255 -4.05719 -2.65556 0
M  V30 5197 N 499.598 0.982988 -1.23187 0
M  V30 5198 C 500.845 1.72392 -1.06241 0
M  V30 5199 C 501.173 1.9032 0.40108 0
M  V30 5200 O 500.428 1.45084 1.31336 0
M  V30 5201 C 500.727 3.12736 -1.73006 0
M  V30 5202 C 500.393 3.14695 -3.22921 0
M  V30 5203 C 499.055 3.14937 -3.63824 0
M  V30 5204 C 501.407 3.10211 -4.1883 0
M  V30 5205 C 498.735 3.08408 -4.99101 0
M  V30 5206 C 501.087 3.05224 -5.54095 0
M  V30 5207 C 499.751 3.03787 -5.94365 0
M  V30 5208 H 499.021 0.630829 -0.388762 0
M  V30 5209 H 501.668 1.15053 -1.53085 0
M  V30 5210 H 499.973 3.73446 -1.18514 0
M  V30 5211 H 501.67 3.68828 -1.57374 0
M  V30 5212 H 498.26 3.15262 -2.90358 0
M  V30 5213 H 502.444 3.09166 -3.8824 0
M  V30 5214 H 497.7 3.05646 -5.29519 0
M  V30 5215 H 501.874 3.00712 -6.28128 0
M  V30 5216 H 499.501 2.98483 -6.99151 0
M  V30 5217 N 501.076 1.04316 1.18135 0
M  V30 5218 C 502.492 0.762858 1.40188 0
M  V30 5219 C 502.692 -0.646547 1.90846 0
M  V30 5220 O 501.748 -1.41036 2.0944 0
M  V30 5221 C 503.061 1.81106 2.40044 0
M  V30 5222 C 504.609 1.83226 2.53766 0
M  V30 5223 C 505.084 2.87044 3.56889 0
M  V30 5224 N 506.575 2.85951 3.64398 0
M  V30 5225 C 507.31 3.62932 4.43923 0
M  V30 5226 N 506.806 4.49672 5.27036 0
M  V30 5227 N 508.599 3.51411 4.38711 0
M  V30 5228 H 500.75 1.95264 0.835805 0
M  V30 5229 H 503.013 0.845017 0.429709 0
M  V30 5230 H 502.719 2.82214 2.09876 0
M  V30 5231 H 502.593 1.64529 3.39426 0
M  V30 5232 H 504.98 0.827869 2.8325 0
M  V30 5233 H 505.061 2.03879 1.54489 0
M  V30 5234 H 504.705 3.87663 3.28145 0
M  V30 5235 H 504.635 2.63645 4.5585 0
M  V30 5236 H 507.126 2.23051 3.05052 0
M  V30 5237 H 507.439 5.05116 5.84874 0
M  V30 5238 H 505.784 4.53738 5.26447 0
M  V30 5239 H 508.975 2.83047 3.72829 0
M  V30 5240 H 509.148 4.11654 5.00445 0
M  V30 5241 N 502.554 -1.34406 0.822964 0
M  V30 5242 C 503.501 -2.29519 0.24284 0
M  V30 5243 C 504.471 -1.5359 -0.632397 0
M  V30 5244 O 505.656 -1.8196 -0.57403 0
M  V30 5245 C 502.796 -3.40032 -0.58925 0
M  V30 5246 C 501.909 -4.30899 0.308236 0
M  V30 5247 C 501.044 -5.28515 -0.533425 0
M  V30 5248 C 500.083 -6.1102 0.363444 0
M  V30 5249 N 499.22 -7.00725 -0.439147 0
M  V30 5250 H 504.06 -2.78537 1.05929 0
M  V30 5251 H 501.597 -1.3707 0.533872 0
M  V30 5252 H 503.555 -4.0279 -1.087 0
M  V30 5253 H 502.185 -2.92248 -1.37081 0
M  V30 5254 H 501.237 -3.69002 0.924203 0
M  V30 5255 H 502.549 -4.88717 0.997862 0
M  V30 5256 H 501.703 -5.96725 -1.09565 0
M  V30 5257 H 500.442 -4.71235 -1.25656 0
M  V30 5258 H 499.447 -5.41743 0.937812 0
M  V30 5259 H 500.672 -6.70381 1.08469 0
M  V30 5260 H 498.618 -6.45913 -1.14595 0
M  V30 5261 H 498.535 -7.55756 0.19209 0
M  V30 5262 H 499.803 -7.73263 -0.984124 0
M  V30 5263 N 504.032 -0.577932 -1.46621 0
M  V30 5264 C 505.279 -0.0616879 -2.02406 0
M  V30 5265 C 505.607 1.29638 -1.44997 0
M  V30 5266 O 504.862 1.86176 -0.60308 0
M  V30 5267 C 505.161 0.0590832 -3.57351 0
M  V30 5268 C 504.827 -1.23077 -4.33777 0
M  V30 5269 C 503.489 -1.58416 -4.54376 0
M  V30 5270 C 505.841 -2.08457 -4.77698 0
M  V30 5271 C 503.169 -2.78943 -5.16147 0
M  V30 5272 C 505.521 -3.28204 -5.408 0
M  V30 5273 C 504.185 -3.63832 -5.59627 0
M  V30 5274 H 503.455 -0.0225732 -0.740656 0
M  V30 5275 H 506.102 -0.753609 -1.76048 0
M  V30 5276 H 504.407 0.834104 -3.82818 0
M  V30 5277 H 506.104 0.474202 -3.98186 0
M  V30 5278 H 502.694 -0.945652 -4.18038 0
M  V30 5279 H 506.878 -1.82459 -4.61544 0
M  V30 5280 H 502.134 -3.06689 -5.28916 0
M  V30 5281 H 506.308 -3.94634 -5.73792 0
M  V30 5282 H 503.935 -4.57315 -6.07262 0
M  V30 5283 N 505.51 1.54411 -0.315457 0
M  V30 5284 C 506.735 2.05299 0.294496 0
M  V30 5285 C 507.16 1.19052 1.4563 0
M  V30 5286 O 506.518 0.197804 1.80218 0
M  V30 5287 C 506.566 3.5345 0.714549 0
M  V30 5288 O 505.67 3.70175 1.81781 0
M  V30 5289 H 505.011 0.661743 0.0547019 0
M  V30 5290 H 507.541 1.99327 -0.461508 0
M  V30 5291 H 507.551 3.9557 0.999426 0
M  V30 5292 H 506.226 4.1568 -0.135244 0
M  V30 5293 H 504.803 3.3996 1.53236 0
M  V30 5294 O 507.027 0.182621 1.60464 0
M  V30 5295 H 507.718 -0.405074 1.89417 0
M  V30 END ATOM
M  V30 BEGIN BOND
M  V30 END BOND
M  V30 END CTAB
M  END
$$$$
