drugbank_target|Q14722 Voltage-gated potassium channel subunit beta-1 (DB00228; DB01069; DB01110)
 OpenBabel12092121213D

  0  0  0     0  0            999 V3000
M  V30 BEGIN CTAB
M  V30 COUNTS 6572 6630 0 0 0
M  V30 BEGIN ATOM
M  V30 1 H -0.908 1.98254 -0.117106 0
M  V30 2 N 0 1.576 0 0
M  V30 3 C 0.933 2.03868 1.02534 0
M  V30 4 C 1.911 0.928543 1.3348 0
M  V30 5 O 3.095 1.19667 1.45644 0
M  V30 6 C 0.222 2.43627 2.35294 0
M  V30 7 C -0.732 3.65373 2.2001 0
M  V30 8 S 0.101 5.13292 1.52614 0
M  V30 9 C 1.257 5.56322 2.86805 0
M  V30 10 H 1.49 2.90518 0.631377 0
M  V30 11 H -0.977 1.52953 0.210867 0
M  V30 12 H 0.981 2.67203 3.11629 0
M  V30 13 H -0.358 1.57376 2.7183 0
M  V30 14 H -1.165 3.90944 3.18086 0
M  V30 15 H -1.563 3.418 1.51819 0
M  V30 16 H 0.729 5.58782 3.83104 0
M  V30 17 H 1.672 6.56266 2.65933 0
M  V30 18 H 2.08 4.83886 2.90714 0
M  V30 19 N 1.4781 -0.272755 1.55222 0
M  V30 20 C 2.4081 -1.34136 1.91127 0
M  V30 21 C 3.3891 -1.51513 0.773168 0
M  V30 22 O 4.5741 -1.64552 1.03132 0
M  V30 23 C 1.7041 -2.70083 2.1834 0
M  V30 24 C 0.6581 -2.67437 3.34158 0
M  V30 25 C -0.0159 -4.06938 3.46851 0
M  V30 26 C 1.2841 -2.26686 4.70543 0
M  V30 27 H 2.9781 -1.04333 2.80633 0
M  V30 28 H 0.5241 -0.500454 1.35024 0
M  V30 29 H 2.4771 -3.44952 2.42046 0
M  V30 30 H 1.2011 -3.01469 1.25634 0
M  V30 31 H -0.1399 -1.95026 3.1042 0
M  V30 32 H -0.4919 -4.35547 2.51611 0
M  V30 33 H -0.7919 -4.06062 4.2472 0
M  V30 34 H 0.7321 -4.83545 3.72849 0
M  V30 35 H 2.1461 -2.91277 4.93792 0
M  V30 36 H 0.5431 -2.36971 5.5133 0
M  V30 37 H 1.6131 -1.21818 4.69349 0
M  V30 38 N 2.9562 -1.48159 -0.537278 0
M  V30 39 C 3.9192 -1.61665 -1.62472 0
M  V30 40 C 4.9192 -0.490395 -1.5314 0
M  V30 41 O 6.1092 -0.755998 -1.5694 0
M  V30 42 C 3.2412 -1.57997 -3.02076 0
M  V30 43 H 4.4342 -2.58621 -1.51839 0
M  V30 44 H 1.9872 -1.36647 -0.758771 0
M  V30 45 H 2.7222 -0.624913 -3.18222 0
M  V30 46 H 2.5072 -2.39755 -3.10258 0
M  V30 47 H 3.9972 -1.70627 -3.81151 0
M  V30 48 N 4.4343 0.785586 -1.36625 0
M  V30 49 C 5.3973 1.87999 -1.31107 0
M  V30 50 C 6.3973 1.59316 -0.217959 0
M  V30 51 O 7.5873 1.67656 -0.472977 0
M  V30 52 C 4.7193 3.24861 -1.03334 0
M  V30 53 H 5.9123 1.94307 -2.2844 0
M  V30 54 H 3.4653 0.983813 -1.21453 0
M  V30 55 H 4.2003 3.24235 -0.0647432 0
M  V30 56 H 3.9853 3.4707 -1.82441 0
M  V30 57 H 5.4753 4.04929 -1.02088 0
M  V30 58 N 5.9124 1.20967 1.01018 0
M  V30 59 C 7.3284 0.965905 1.27053 0
M  V30 60 C 7.5284 -0.350785 1.98423 0
M  V30 61 O 6.5844 -1.07773 2.28344 0
M  V30 62 C 7.8974 2.15294 2.09926 0
M  V30 63 C 9.4454 2.19463 2.23171 0
M  V30 64 C 9.9204 3.3767 3.09424 0
M  V30 65 N 11.4114 3.37724 3.17012 0
M  V30 66 C 12.1464 4.25837 3.83993 0
M  V30 67 N 11.6424 5.24138 4.53047 0
M  V30 68 N 13.4354 4.1366 3.80581 0
M  V30 69 H 5.5864 2.0565 0.531194 0
M  V30 70 H 7.8494 0.90024 0.297106 0
M  V30 71 H 7.5554 3.10684 1.64828 0
M  V30 72 H 7.4294 2.13923 3.10672 0
M  V30 73 H 9.8164 1.24632 2.6749 0
M  V30 74 H 9.8974 2.2488 1.21912 0
M  V30 75 H 9.5414 4.32791 2.65808 0
M  V30 76 H 9.4714 3.29491 4.10784 0
M  V30 77 H 11.9624 2.6658 2.6785 0
M  V30 78 H 12.2754 5.87684 5.01844 0
M  V30 79 H 10.6204 5.28068 4.5185 0
M  V30 80 H 13.8114 3.36127 3.25785 0
M  V30 81 H 13.9844 4.82538 4.32505 0
M  V30 82 N 7.3905 -1.2043 1.01659 0
M  V30 83 C 8.6185 -1.93777 0.725132 0
M  V30 84 C 9.0335 -1.74772 -0.714166 0
M  V30 85 O 8.3905 -1.06169 -1.4844 0
M  V30 86 C 8.4415 -3.45876 1.05129 0
M  V30 87 O 8.1625 -3.6426 2.43406 0
M  V30 88 C 9.6635 -4.36368 0.780891 0
M  V30 89 H 6.8835 -0.615901 0.266284 0
M  V30 90 H 9.4275 -1.52922 1.35776 0
M  V30 91 H 7.5825 -3.8461 0.464065 0
M  V30 92 H 7.9965 -4.58246 2.55169 0
M  V30 93 H 9.4705 -5.41743 1.05918 0
M  V30 94 H 9.9475 -4.38275 -0.284937 0
M  V30 95 H 10.5535 -4.03296 1.35027 0
M  V30 96 N 8.8686 -0.792821 -1.36206 0
M  V30 97 C 10.1166 -0.366062 -1.98757 0
M  V30 98 C 10.4376 1.0668 -1.63231 0
M  V30 99 O 9.7076 1.73587 -0.907978 0
M  V30 100 H 8.2876 -0.132364 -0.735179 0
M  V30 101 H 10.9496 -1.01562 -1.66347 0
M  V30 102 H 10.0456 -0.460638 -3.08682 0
M  V30 103 N 10.3467 1.47872 -0.545128 0
M  V30 104 C 11.3097 2.28337 0.198717 0
M  V30 105 C 12.3097 1.36255 0.853888 0
M  V30 106 O 13.4997 1.59003 0.711606 0
M  V30 107 C 10.6317 3.15585 1.28915 0
M  V30 108 H 11.8247 2.95567 -0.507941 0
M  V30 109 H 9.3777 1.53362 -0.301616 0
M  V30 110 H 10.1127 2.53019 2.02859 0
M  V30 111 H 9.8977 3.83337 0.824309 0
M  V30 112 H 11.3877 3.76243 1.81194 0
M  V30 113 N 11.8248 0.280983 1.55075 0
M  V30 114 C 12.7878 -0.590896 2.21452 0
M  V30 115 C 13.7878 -1.07682 1.19421 0
M  V30 116 O 14.9778 -0.97605 1.44288 0
M  V30 117 C 12.1098 -1.81587 2.88511 0
M  V30 118 H 13.3028 -0.0112554 2.99898 0
M  V30 119 H 10.8558 0.0316438 1.56268 0
M  V30 120 H 11.5908 -2.43587 2.14093 0
M  V30 121 H 11.3758 -1.4753 3.63287 0
M  V30 122 H 12.8658 -2.43575 3.39206 0
M  V30 123 N 13.3029 -1.57598 0.00835791 0
M  V30 124 C 14.5509 -1.90551 -0.6734 0
M  V30 125 C 14.8719 -0.883301 -1.73847 0
M  V30 126 O 14.1419 0.0781442 -1.95744 0
M  V30 127 H 12.7219 -0.703312 -0.251717 0
M  V30 128 H 15.3839 -1.94833 0.0512592 0
M  V30 129 H 14.4799 -2.9056 -1.13935 0
M  V30 130 N 14.781 0.264519 -1.55364 0
M  V30 131 C 16.006 1.01726 -1.80739 0
M  V30 132 C 16.431 1.78836 -0.583044 0
M  V30 133 O 15.789 1.75167 0.467566 0
M  V30 134 C 15.837 1.94482 -3.03659 0
M  V30 135 O 14.941 3.03386 -2.7934 0
M  V30 136 H 14.282 0.290395 -0.597132 0
M  V30 137 H 16.812 0.290854 -2.02522 0
M  V30 138 H 16.822 2.36278 -3.32621 0
M  V30 139 H 15.497 1.37772 -3.92418 0
M  V30 140 H 14.074 2.65844 -2.61498 0
M  V30 141 N 16.2591 1.48442 0.529413 0
M  V30 142 C 17.1911 1.59095 1.64989 0
M  V30 143 C 18.2041 0.475212 1.5571 0
M  V30 144 O 19.3931 0.746081 1.6216 0
M  V30 145 C 16.4931 1.50518 3.0364 0
M  V30 146 C 15.6661 2.77142 3.38395 0
M  V30 147 C 14.7251 2.62012 4.56329 0
M  V30 148 O 13.7511 3.35898 4.59522 0
M  V30 149 N 14.9531 1.71667 5.54536 0
M  V30 150 H 17.7181 2.55723 1.56287 0
M  V30 151 H 15.2791 1.45173 0.716697 0
M  V30 152 H 17.2711 1.38091 3.80412 0
M  V30 153 H 15.8411 0.618627 3.06418 0
M  V30 154 H 15.0611 3.0413 2.50796 0
M  V30 155 H 16.3491 3.61146 3.58401 0
M  V30 156 H 15.7471 1.10841 5.54735 0
M  V30 157 H 14.3041 1.65178 6.30523 0
M  V30 158 N 17.7372 -0.778329 1.37039 0
M  V30 159 C 18.9862 -1.53189 1.3121 0
M  V30 160 C 19.2992 -1.95328 -0.103095 0
M  V30 161 O 20.5052 -2.70012 -0.283826 0
M  V30 162 C 18.9612 -2.76591 2.30272 0
M  V30 163 C 18.5692 -2.41577 3.77286 0
M  V30 164 C 20.3132 -3.5455 2.33441 0
M  V30 165 C 18.2202 -3.61441 4.68096 0
M  V30 166 H 17.1502 -0.5751 0.487622 0
M  V30 167 H 19.8012 -0.853101 1.62464 0
M  V30 168 H 18.1832 -3.46326 1.92027 0
M  V30 169 H 19.3572 -1.79668 4.2433 0
M  V30 170 H 17.6722 -1.76806 3.76999 0
M  V30 171 H 20.2692 -4.43628 2.98493 0
M  V30 172 H 20.6122 -3.93936 1.34611 0
M  V30 173 H 21.1452 -2.91805 2.7036 0
M  V30 174 H 17.8842 -3.27142 5.6803 0
M  V30 175 H 17.4042 -4.22478 4.25761 0
M  V30 176 H 19.0832 -4.28335 4.8491 0
M  V30 177 N 19.2153 -1.21501 -1.00376 0
M  V30 178 C 20.4403 -1.05977 -1.78279 0
M  V30 179 C 20.8653 0.385994 -1.84097 0
M  V30 180 O 20.2233 1.27849 -1.28547 0
M  V30 181 C 20.2713 -1.66302 -3.19963 0
M  V30 182 O 19.3753 -0.909333 -4.0225 0
M  V30 183 H 18.7163 -0.372906 -0.549397 0
M  V30 184 H 21.2463 -1.6107 -1.26165 0
M  V30 185 H 21.2563 -1.70574 -3.70632 0
M  V30 186 H 19.9313 -2.71515 -3.15043 0
M  V30 187 H 18.5083 -0.941795 -3.60811 0
M  V30 188 N 20.6934 1.19889 -1.02296 0
M  V30 189 C 21.6034 2.26571 -0.608508 0
M  V30 190 C 22.6194 1.70299 0.356964 0
M  V30 191 O 23.7954 2.00235 0.216326 0
M  V30 192 C 20.8604 3.46677 0.0402814 0
M  V30 193 C 19.9214 4.18153 -0.97194 0
M  V30 194 C 19.1544 5.32525 -0.354016 0
M  V30 195 O 19.3774 5.64112 0.844604 0
M  V30 196 O 18.3114 5.92242 -1.07391 0
M  V30 197 H 22.1374 2.64251 -1.49684 0
M  V30 198 H 19.7224 1.26629 -0.792809 0
M  V30 199 H 21.6044 4.19475 0.402324 0
M  V30 200 H 20.2794 3.10858 0.902707 0
M  V30 201 H 19.1864 3.47499 -1.38546 0
M  V30 202 H 20.5194 4.57927 -1.80454 0
M  V30 203 N 22.1715 0.800033 1.35784 0
M  V30 204 C 23.0815 0.207204 2.33683 0
M  V30 205 C 24.0975 -0.64631 1.61551 0
M  V30 206 O 25.2735 -0.559604 1.93469 0
M  V30 207 C 22.3385 -0.639659 3.40748 0
M  V30 208 C 21.3995 0.233585 4.28664 0
M  V30 209 C 20.6325 -0.572954 5.30616 0
M  V30 210 O 20.8555 -1.80816 5.40982 0
M  V30 211 O 19.7895 0.0327285 6.01891 0
M  V30 212 H 23.6155 1.01692 2.86169 0
M  V30 213 H 21.2005 0.561691 1.38439 0
M  V30 214 H 23.0825 -1.12223 4.06182 0
M  V30 215 H 21.7575 -1.42708 2.90544 0
M  V30 216 H 20.6645 0.763147 3.66233 0
M  V30 217 H 21.9975 0.984784 4.82248 0
M  V30 218 N 23.6496 -1.47581 0.552962 0
M  V30 219 C 24.5976 -2.31648 -0.21023 0
M  V30 220 C 25.5916 -1.42663 -0.913432 0
M  V30 221 O 26.7976 -1.5945 -0.835201 0
M  V30 222 H 23.1726 -0.746989 -0.0866676 0
M  V30 223 H 25.1436 -2.93869 0.518051 0
M  V30 224 C 23.8926 -3.25226 -1.22976 0
M  V30 225 H 23.2156 -3.93658 -0.698077 0
M  V30 226 H 24.6556 -3.86889 -1.73473 0
M  V30 227 C 23.1146 -2.48448 -2.27542 0
M  V30 228 O 23.6446 -2.22585 -3.34393 0
M  V30 229 N 21.8506 -2.09532 -2.01357 0
M  V30 230 H 21.3976 -2.30765 -1.14478 0
M  V30 231 H 21.3556 -1.58476 -2.71538 0
M  V30 232 N 25.1277 -0.289203 -1.54924 0
M  V30 233 C 26.3557 0.326463 -2.04308 0
M  V30 234 C 26.7707 1.48413 -1.16701 0
M  V30 235 O 26.1277 1.81507 -0.190087 0
M  V30 236 C 26.1787 0.794014 -3.52672 0
M  V30 237 O 25.8997 -0.317564 -4.36948 0
M  V30 238 C 27.4007 1.47605 -4.18004 0
M  V30 239 H 24.6207 0.0726272 -0.667058 0
M  V30 240 H 27.1647 -0.425401 -2.00026 0
M  V30 241 H 25.3197 1.49593 -3.57352 0
M  V30 242 H 25.7337 0.0443186 -5.24481 0
M  V30 243 H 27.2077 1.75447 -5.23376 0
M  V30 244 H 27.6847 2.41224 -3.67025 0
M  V30 245 H 28.2907 0.81762 -4.17367 0
M  V30 246 N 26.6058 1.57591 -0.0167156 0
M  V30 247 C 27.5528 2.09462 0.969251 0
M  V30 248 C 28.5228 0.99381 1.33089 0
M  V30 249 O 29.7078 1.26726 1.42636 0
M  V30 250 C 26.8478 2.61622 2.25051 0
M  V30 251 C 25.9608 3.85666 1.94642 0
M  V30 252 C 25.0958 4.26266 3.16972 0
M  V30 253 C 24.1348 5.43101 2.82326 0
M  V30 254 N 23.2718 5.78915 3.97243 0
M  V30 255 H 28.1118 2.93428 0.519997 0
M  V30 256 H 25.6488 1.45044 0.245087 0
M  V30 257 H 27.6068 2.89949 2.99976 0
M  V30 258 H 26.2368 1.80505 2.67615 0
M  V30 259 H 25.2888 3.64145 1.10013 0
M  V30 260 H 26.6008 4.70678 1.65117 0
M  V30 261 H 25.7548 4.55963 4.00228 0
M  V30 262 H 24.4938 3.39996 3.49648 0
M  V30 263 H 23.4988 5.1311 1.97479 0
M  V30 264 H 24.7238 6.3106 2.50879 0
M  V30 265 H 22.6698 4.95602 4.29785 0
M  V30 266 H 22.5868 6.58539 3.71299 0
M  V30 267 H 23.8548 6.13212 4.81239 0
M  V30 268 N 28.0839 -0.256276 1.55502 0
M  V30 269 C 29.0139 -1.32102 1.92539 0
M  V30 270 C 29.9949 -1.50684 0.789194 0
M  V30 271 O 31.1799 -1.63449 1.04872 0
M  V30 272 C 28.3099 -2.67752 2.21192 0
M  V30 273 C 27.2639 -2.63878 3.36975 0
M  V30 274 C 26.5899 -4.03236 3.51147 0
M  V30 275 C 27.8899 -2.21682 4.72921 0
M  V30 276 H 29.5839 -1.01351 2.81724 0
M  V30 277 H 27.1299 -0.486105 1.35547 0
M  V30 278 H 29.0829 -3.42365 2.45691 0
M  V30 279 H 27.8069 -3.0012 1.28824 0
M  V30 280 H 26.4659 -1.91722 3.12471 0
M  V30 281 H 26.1139 -4.32854 2.56216 0
M  V30 282 H 25.8139 -4.01535 4.29003 0
M  V30 283 H 27.3379 -4.79563 3.77957 0
M  V30 284 H 28.7519 -2.86023 4.96854 0
M  V30 285 H 27.1489 -2.3111 5.53812 0
M  V30 286 H 28.2189 -1.16833 4.70615 0
M  V30 287 N 29.562 -1.4872 -0.521534 0
M  V30 288 C 30.978 -1.35028 -0.850855 0
M  V30 289 C 31.178 -0.367712 -1.98116 0
M  V30 290 O 30.234 0.208037 -2.51642 0
M  V30 291 C 31.547 -2.75263 -1.21041 0
M  V30 292 C 33.095 -2.83813 -1.31981 0
M  V30 293 C 33.57 -4.24769 -1.71276 0
M  V30 294 N 35.061 -4.27482 -1.78363 0
M  V30 295 C 35.796 -5.33494 -2.1017 0
M  V30 296 N 35.292 -6.49775 -2.40343 0
M  V30 297 N 37.085 -5.20894 -2.11248 0
M  V30 298 H 29.236 -2.11214 0.22413 0
M  V30 299 H 31.499 -0.947252 0.0376439 0
M  V30 300 H 31.205 -3.48765 -0.453415 0
M  V30 301 H 31.079 -3.09327 -2.15863 0
M  V30 302 H 33.466 -2.10561 -2.06756 0
M  V30 303 H 33.547 -2.53358 -0.352596 0
M  V30 304 H 33.191 -4.9854 -0.970588 0
M  V30 305 H 33.121 -4.52673 -2.69062 0
M  V30 306 H 35.612 -3.43611 -1.57288 0
M  V30 307 H 35.925 -7.26402 -2.63743 0
M  V30 308 H 34.27 -6.53035 -2.37844 0
M  V30 309 H 37.461 -4.29065 -1.87139 0
M  V30 310 H 37.634 -6.03612 -2.35704 0
M  V30 311 N 31.0401 0.771051 -1.3745 0
M  V30 312 C 32.4561 1.07171 -1.18265 0
M  V30 313 C 32.6561 2.01491 -0.019287 0
M  V30 314 O 31.7121 2.44244 0.640408 0
M  V30 315 C 33.0251 1.66854 -2.50161 0
M  V30 316 C 34.5731 1.79109 -2.56689 0
M  V30 317 C 35.0481 2.42205 -3.88717 0
M  V30 318 N 36.5391 2.49655 -3.90162 0
M  V30 319 C 37.2741 2.9933 -4.8907 0
M  V30 320 N 36.7701 3.49172 -5.98374 0
M  V30 321 N 38.5631 2.9821 -4.76474 0
M  V30 322 H 30.7141 0.144796 -2.11906 0
M  V30 323 H 32.9771 0.126863 -0.939473 0
M  V30 324 H 32.6831 1.05017 -3.35655 0
M  V30 325 H 32.5571 2.6614 -2.673 0
M  V30 326 H 34.9441 2.40077 -1.71601 0
M  V30 327 H 35.0251 0.785757 -2.43433 0
M  V30 328 H 34.6691 1.81875 -4.74219 0
M  V30 329 H 34.5991 3.43345 -3.99276 0
M  V30 330 H 37.0901 2.14383 -3.11205 0
M  V30 331 H 37.4031 3.8548 -6.69795 0
M  V30 332 H 35.7481 3.47275 -6.02018 0
M  V30 333 H 38.9391 2.58572 -3.90203 0
M  V30 334 H 39.1121 3.36613 -5.53711 0
M  V30 335 N 32.5182 1.22032 0.997298 0
M  V30 336 C 33.4502 0.944263 2.08845 0
M  V30 337 C 34.4632 -0.0754663 1.62625 0
M  V30 338 O 35.6522 0.157994 1.77799 0
M  V30 339 C 32.7522 0.397723 3.36558 0
M  V30 340 C 31.9252 1.47362 4.11829 0
M  V30 341 C 30.9842 0.934951 5.17827 0
M  V30 342 O 30.0102 1.62016 5.45655 0
M  V30 343 N 31.2122 -0.245895 5.79979 0
M  V30 344 H 33.9772 1.88363 2.33109 0
M  V30 345 H 31.5382 1.12661 1.16272 0
M  V30 346 H 33.5302 0.0227771 4.04694 0
M  V30 347 H 32.1002 -0.446646 3.09393 0
M  V30 348 H 31.3202 2.02208 3.38386 0
M  V30 349 H 32.6082 2.19764 4.58891 0
M  V30 350 H 32.0062 -0.819475 5.59733 0
M  V30 351 H 30.5632 -0.562272 6.4937 0
M  V30 352 N 33.9963 -1.19345 1.0293 0
M  V30 353 C 35.2213 -1.93538 0.745511 0
M  V30 354 C 35.6463 -1.75007 -0.689511 0
M  V30 355 O 35.0043 -1.05265 -1.47611 0
M  V30 356 C 35.0523 -3.43336 1.10239 0
M  V30 357 O 34.1563 -4.11806 0.221289 0
M  V30 358 H 33.4973 -0.604193 0.275404 0
M  V30 359 H 36.0273 -1.5141 1.37609 0
M  V30 360 H 36.0373 -3.94004 1.05947 0
M  V30 361 H 34.7123 -3.56146 2.14786 0
M  V30 362 H 33.2893 -3.715 0.322842 0
M  V30 363 N 35.4744 -0.807222 -1.35358 0
M  V30 364 C 36.7224 -0.387122 -1.98358 0
M  V30 365 C 37.0434 1.04942 -1.64354 0
M  V30 366 O 36.3134 1.72615 -0.926339 0
M  V30 367 H 34.8934 -0.140154 -0.733734 0
M  V30 368 H 37.5554 -1.0332 -1.6526 0
M  V30 369 H 36.6514 -0.493352 -3.08176 0
M  V30 370 N 36.9525 1.47285 -0.560781 0
M  V30 371 C 38.1995 2.02464 -0.038062 0
M  V30 372 C 38.5275 1.43474 1.31322 0
M  V30 373 O 37.7825 0.581311 1.86867 0
M  V30 374 C 38.0815 3.57258 0.100784 0
M  V30 375 C 37.7475 4.35184 -1.18007 0
M  V30 376 C 36.4095 4.56194 -1.53103 0
M  V30 377 C 38.7615 4.80098 -2.02867 0
M  V30 378 C 36.0895 5.19367 -2.729 0
M  V30 379 C 38.4415 5.44593 -3.21871 0
M  V30 380 C 37.1055 5.63835 -3.57276 0
M  V30 381 H 36.3755 0.740869 -0.0139279 0
M  V30 382 H 39.0225 1.76916 -0.733012 0
M  V30 383 H 37.3275 3.81819 0.878724 0
M  V30 384 H 39.0245 3.97606 0.520639 0
M  V30 385 H 35.6145 4.19113 -0.8968 0
M  V30 386 H 39.7985 4.63642 -1.7706 0
M  V30 387 H 35.0545 5.32459 -3.00496 0
M  V30 388 H 39.2285 5.78358 -3.87911 0
M  V30 389 H 36.8555 6.12557 -4.50197 0
M  V30 390 N 38.4306 0.297415 1.54768 0
M  V30 391 C 39.6556 -0.318435 2.04941 0
M  V30 392 C 40.0806 -1.4701 1.17345 0
M  V30 393 O 39.4386 -1.80436 0.176758 0
M  V30 394 C 39.4866 -0.755749 3.52592 0
M  V30 395 O 38.5906 -1.86088 3.68028 0
M  V30 396 H 37.9316 -0.062421 0.661059 0
M  V30 397 H 40.4616 0.438215 1.99852 0
M  V30 398 H 40.4716 -1.04552 3.94376 0
M  V30 399 H 39.1466 0.0867233 4.1581 0
M  V30 400 H 37.7236 -1.57193 3.38149 0
M  V30 401 N 39.9087 -1.5758 0.0250728 0
M  V30 402 C 41.1547 -1.91917 -0.655413 0
M  V30 403 C 41.4877 -0.901433 -1.72011 0
M  V30 404 O 40.7627 0.0764069 -1.9435 0
M  V30 405 C 41.0457 -3.36751 -1.27558 0
M  V30 406 C 40.8987 -4.49258 -0.220719 0
M  V30 407 C 42.2177 -3.81469 -2.19475 0
M  V30 408 H 39.3367 -0.697925 -0.23679 0
M  V30 409 H 41.9787 -1.89825 0.0815036 0
M  V30 410 H 40.1287 -3.38664 -1.90365 0
M  V30 411 H 41.8007 -4.59478 0.409601 0
M  V30 412 H 40.0437 -4.31415 0.454264 0
M  V30 413 H 40.7147 -5.47618 -0.694175 0
M  V30 414 H 43.1907 -3.81266 -1.66659 0
M  V30 415 H 42.0667 -4.83512 -2.59822 0
M  V30 416 H 42.3277 -3.16744 -3.08424 0
M  V30 417 N 41.3868 0.248026 -1.55636 0
M  V30 418 C 42.3498 1.29044 -1.89421 0
M  V30 419 C 43.3498 1.41134 -0.770581 0
M  V30 420 O 44.5398 1.39854 -1.03858 0
M  V30 421 C 41.6718 2.66831 -2.12165 0
M  V30 422 H 42.8648 1.00305 -2.82629 0
M  V30 423 H 40.4178 0.487265 -1.48511 0
M  V30 424 H 41.1528 3.00711 -1.21422 0
M  V30 425 H 40.9378 2.59438 -2.93997 0
M  V30 426 H 42.4278 3.42103 -2.3949 0
M  V30 427 N 42.8649 1.48995 0.513639 0
M  V30 428 C 44.1129 1.57531 1.26604 0
M  V30 429 C 44.4339 0.258236 1.93283 0
M  V30 430 O 43.7039 -0.721502 1.8213 0
M  V30 431 H 42.2839 0.580387 0.470276 0
M  V30 432 H 44.9459 1.85552 0.596373 0
M  V30 433 H 44.0419 2.36486 2.03669 0
M  V30 434 N 44.343 -0.763751 1.37857 0
M  V30 435 C 45.29 -1.87726 1.34267 0
M  V30 436 C 46.26 -1.64807 0.206879 0
M  V30 437 O 47.445 -1.86613 0.397508 0
M  V30 438 C 44.585 -3.24896 1.16346 0
M  V30 439 C 43.698 -3.59716 2.39225 0
M  V30 440 C 42.833 -4.86137 2.14114 0
M  V30 441 C 41.872 -5.13711 3.32817 0
M  V30 442 N 41.009 -6.31323 3.07206 0
M  V30 443 H 45.849 -1.90129 2.29466 0
M  V30 444 H 43.386 -0.929433 1.14017 0
M  V30 445 H 45.344 -4.04036 1.03975 0
M  V30 446 H 43.974 -3.21847 0.247909 0
M  V30 447 H 43.026 -2.75498 2.62307 0
M  V30 448 H 44.338 -3.76027 3.27728 0
M  V30 449 H 43.492 -5.73198 1.9882 0
M  V30 450 H 42.231 -4.71945 1.22961 0
M  V30 451 H 41.236 -4.25123 3.48641 0
M  V30 452 H 42.461 -5.29807 4.24832 0
M  V30 453 H 40.407 -6.18474 2.1869 0
M  V30 454 H 40.324 -6.48087 3.89254 0
M  V30 455 H 41.592 -7.213 2.95546 0
M  V30 456 N 45.8211 -1.22559 -0.990812 0
M  V30 457 C 47.0981 -0.959875 -1.70428 0
M  V30 458 C 47.4781 0.524455 -2.04481 0
M  V30 459 O 46.8261 1.49302 -1.72977 0
M  V30 460 C 47.0361 -1.85955 -2.95333 0
M  V30 461 C 48.3841 -2.11687 -3.68068 0
M  V30 462 O 49.4081 -1.8342 -3.05345 0
M  V30 463 O 48.2671 -2.59572 -4.80921 0
M  V30 464 H 45.3611 -0.361154 -0.743974 0
M  V30 465 H 47.9071 -1.33554 -1.04697 0
M  V30 466 H 46.6791 -2.86346 -2.66687 0
M  V30 467 H 46.3021 -1.4856 -3.68803 0
M  V30 468 N 47.2992 1.18797 -1.03562 0
M  V30 469 C 48.2462 2.22253 -0.622259 0
M  V30 470 C 49.2162 1.61987 0.36736 0
M  V30 471 O 50.4012 1.88986 0.262492 0
M  V30 472 C 47.5412 3.45097 0.0138462 0
M  V30 473 C 46.6542 4.19722 -1.02263 0
M  V30 474 C 45.7892 5.30009 -0.355573 0
M  V30 475 C 44.8282 5.96399 -1.37749 0
M  V30 476 N 43.9652 6.98234 -0.735766 0
M  V30 477 H 48.8052 2.56968 -1.50903 0
M  V30 478 H 46.3422 1.26245 -0.755017 0
M  V30 479 H 48.3002 4.15279 0.399948 0
M  V30 480 H 46.9302 3.11018 0.864158 0
M  V30 481 H 45.9822 3.48418 -1.52673 0
M  V30 482 H 47.2942 4.65227 -1.79903 0
M  V30 483 H 46.4482 6.0664 0.0850095 0
M  V30 484 H 45.1872 4.85592 0.452967 0
M  V30 485 H 44.1922 5.18512 -1.82826 0
M  V30 486 H 45.4172 6.42899 -2.18764 0
M  V30 487 H 43.3632 6.55979 0.0525597 0
M  V30 488 H 43.2802 7.41965 -1.44995 0
M  V30 489 H 44.5482 7.78845 -0.31941 0
M  V30 490 N 48.7773 0.814389 1.34928 0
M  V30 491 C 50.0023 0.410097 2.03305 0
M  V30 492 C 50.4273 -0.973464 1.60951 0
M  V30 493 O 49.7853 -1.63185 0.789964 0
M  V30 494 C 49.8333 0.51049 3.56968 0
M  V30 495 O 48.9373 -0.473035 4.09678 0
M  V30 496 H 48.2783 0.170088 0.641846 0
M  V30 497 H 50.8083 1.10244 1.72358 0
M  V30 498 H 50.8183 0.383135 4.06197 0
M  V30 499 H 49.4933 1.51963 3.87144 0
M  V30 500 H 48.0703 -0.305272 3.71648 0
M  V30 501 N 50.2554 -1.46986 0.568584 0
M  V30 502 C 51.6664 -1.86188 0.138219 0
M  V30 503 C 52.0174 -1.47388 -1.29504 0
M  V30 504 O 51.1424 -0.88219 -1.97602 0
M  V30 505 C 51.7374 -3.3792 0.244065 0
M  V30 506 C 50.2964 -3.76171 -0.131335 0
M  V30 507 C 49.4434 -2.71027 0.586465 0
M  V30 508 H 52.3944 -1.38342 0.777645 0
M  V30 509 H 52.4154 -3.76729 -0.534351 0
M  V30 510 H 51.9274 -3.66128 1.28731 0
M  V30 511 H 50.0284 -3.5358 -1.17526 0
M  V30 512 H 50.1414 -4.78523 0.235146 0
M  V30 513 H 48.5054 -2.54684 0.0282722 0
M  V30 514 H 49.2884 -3.02077 1.63109 0
M  V30 515 N 51.7335 -0.305618 -1.54608 0
M  V30 516 C 52.6805 0.568421 -2.23691 0
M  V30 517 C 53.6505 1.12592 -1.22116 0
M  V30 518 O 54.8355 1.16959 -1.50749 0
M  V30 519 C 51.9755 1.7322 -2.98477 0
M  V30 520 C 51.0885 1.20566 -4.14835 0
M  V30 521 C 50.2235 2.33368 -4.77193 0
M  V30 522 C 49.2625 1.7787 -5.85686 0
M  V30 523 N 48.3995 2.84263 -6.4198 0
M  V30 524 H 53.2395 -0.0272867 -2.97988 0
M  V30 525 H 50.7765 -0.0252363 -1.47078 0
M  V30 526 H 52.7345 2.41675 -3.40072 0
M  V30 527 H 51.3645 2.29947 -2.26548 0
M  V30 528 H 50.4165 0.413223 -3.78149 0
M  V30 529 H 51.7285 0.759417 -4.92985 0
M  V30 530 H 50.8825 3.09761 -5.21664 0
M  V30 531 H 49.6215 2.8132 -3.98385 0
M  V30 532 H 48.6265 0.99968 -5.40635 0
M  V30 533 H 49.8515 1.30816 -6.66381 0
M  V30 534 H 47.7975 3.31541 -5.66053 0
M  V30 535 H 47.7145 2.44149 -7.15491 0
M  V30 536 H 48.9825 3.6054 -6.91109 0
M  V30 537 N 53.2116 1.57565 -0.0334293 0
M  V30 538 C 54.1586 2.10478 0.946981 0
M  V30 539 C 55.1286 1.00787 1.32027 0
M  V30 540 O 56.3136 1.28232 1.41284 0
M  V30 541 C 53.4536 2.63994 2.22263 0
M  V30 542 C 52.5666 3.87709 1.90541 0
M  V30 543 C 51.7016 4.29604 3.12433 0
M  V30 544 C 50.7406 5.46065 2.76549 0
M  V30 545 N 49.8776 5.83096 3.9108 0
M  V30 546 H 54.7176 2.93963 0.488846 0
M  V30 547 H 52.2546 1.45296 0.22969 0
M  V30 548 H 54.2126 2.93114 2.96884 0
M  V30 549 H 52.8426 1.83333 2.65685 0
M  V30 550 H 51.8946 3.65291 1.06144 0
M  V30 551 H 53.2066 4.72403 1.60116 0
M  V30 552 H 52.3606 4.60182 3.9537 0
M  V30 553 H 51.0996 3.43685 3.46023 0
M  V30 554 H 50.1046 5.15176 1.92026 0
M  V30 555 H 51.3296 6.33685 2.44171 0
M  V30 556 H 49.2756 5.00132 4.24504 0
M  V30 557 H 49.1926 6.6244 3.64293 0
M  V30 558 H 50.4606 6.18282 4.74708 0
M  V30 559 N 54.6897 -0.239769 1.55765 0
M  V30 560 C 55.6527 -1.28038 1.90103 0
M  V30 561 C 56.6527 -1.40723 0.778055 0
M  V30 562 O 57.8427 -1.39301 1.04599 0
M  V30 563 C 54.9747 -2.65702 2.13577 0
M  V30 564 H 56.1677 -0.988048 2.83157 0
M  V30 565 H 53.7207 -0.479382 1.48767 0
M  V30 566 H 54.4557 -3.00063 1.23015 0
M  V30 567 H 54.2407 -2.57875 2.95369 0
M  V30 568 H 55.7307 -3.40828 2.41301 0
M  V30 569 N 56.1678 -1.49265 -0.50573 0
M  V30 570 C 57.3928 -1.62478 -1.28902 0
M  V30 571 C 57.8178 -0.294332 -1.85783 0
M  V30 572 O 57.1758 0.737412 -1.65626 0
M  V30 573 C 57.2238 -2.69268 -2.39848 0
M  V30 574 O 56.3278 -2.28113 -3.43567 0
M  V30 575 H 55.6688 -0.54399 -0.380751 0
M  V30 576 H 58.1988 -1.95421 -0.605952 0
M  V30 577 H 58.2088 -2.91291 -2.85681 0
M  V30 578 H 56.8838 -3.65846 -1.97812 0
M  V30 579 H 55.4608 -2.16401 -3.03685 0
M  V30 580 N 57.6459 0.756429 -1.3826 0
M  V30 581 C 58.5559 1.9009 -1.37488 0
M  V30 582 C 59.5719 1.71855 -0.272366 0
M  V30 583 O 60.7479 1.94827 -0.510318 0
M  V30 584 C 57.8129 3.25421 -1.19592 0
M  V30 585 C 56.8739 3.56202 -2.39622 0
M  V30 586 C 56.1069 4.85075 -2.2257 0
M  V30 587 O 56.3299 5.57246 -1.21793 0
M  V30 588 O 55.2639 5.15269 -3.11098 0
M  V30 589 H 59.0899 1.93695 -2.33914 0
M  V30 590 H 56.6749 0.901313 -1.1915 0
M  V30 591 H 58.5569 4.06337 -1.11661 0
M  V30 592 H 57.2319 3.22634 -0.262486 0
M  V30 593 H 56.1389 2.75458 -2.53128 0
M  V30 594 H 57.4719 3.63747 -3.31586 0
M  V30 595 N 59.124 1.23083 0.984299 0
M  V30 596 C 60.072 1.00593 2.09723 0
M  V30 597 C 61.066 -0.0538014 1.69315 0
M  V30 598 O 62.272 0.0993719 1.79725 0
M  V30 599 H 58.647 0.30817 0.685956 0
M  V30 600 H 60.618 1.95012 2.2586 0
M  V30 601 C 59.367 0.609601 3.42314 0
M  V30 602 H 58.69 1.41675 3.73856 0
M  V30 603 H 60.13 0.491726 4.21139 0
M  V30 604 C 58.589 -0.681745 3.2993 0
M  V30 605 O 59.119 -1.73192 3.62446 0
M  V30 606 N 57.325 -0.656178 2.83095 0
M  V30 607 H 56.872 0.198759 2.56832 0
M  V30 608 H 56.83 -1.52044 2.75191 0
M  V30 609 N 60.6021 -1.18246 1.0419 0
M  V30 610 C 61.5651 -2.20128 0.638452 0
M  V30 611 C 62.5651 -1.57885 -0.304805 0
M  V30 612 O 63.7551 -1.73967 -0.0900369 0
M  V30 613 C 60.8871 -3.4084 -0.0637751 0
M  V30 614 H 62.0801 -2.57336 1.54007 0
M  V30 615 H 59.6331 -1.32152 0.834598 0
M  V30 616 H 60.3681 -3.09166 -0.979136 0
M  V30 617 H 60.1531 -3.8726 0.614198 0
M  V30 618 H 61.6431 -4.16274 -0.332512 0
M  V30 619 N 62.0802 -0.821533 -1.34494 0
M  V30 620 C 63.0272 -0.240397 -2.29545 0
M  V30 621 C 63.9972 0.634031 -1.53523 0
M  V30 622 O 65.1822 0.575966 -1.81899 0
M  V30 623 C 62.3222 0.592869 -3.39969 0
M  V30 624 C 61.4352 -0.30365 -4.30932 0
M  V30 625 C 60.5702 0.539049 -5.28458 0
M  V30 626 C 59.6092 -0.356942 -6.11058 0
M  V30 627 N 58.7462 0.446603 -7.00678 0
M  V30 628 H 63.5862 -1.05632 -2.7865 0
M  V30 629 H 61.1232 -0.532413 -1.37127 0
M  V30 630 H 63.0812 1.09129 -4.02675 0
M  V30 631 H 61.7112 1.37392 -2.92102 0
M  V30 632 H 60.7632 -0.920276 -3.691 0
M  V30 633 H 62.0752 -0.992661 -4.88823 0
M  V30 634 H 61.2292 1.102 -5.96608 0
M  V30 635 H 59.9682 1.26157 -4.71101 0
M  V30 636 H 58.9732 -0.932047 -5.41842 0
M  V30 637 H 60.1982 -1.07755 -6.70497 0
M  V30 638 H 58.1442 1.15282 -6.45791 0
M  V30 639 H 58.0612 -0.184048 -7.55776 0
M  V30 640 H 59.3292 0.992352 -7.73158 0
M  V30 641 N 63.5583 1.46682 -0.576371 0
M  V30 642 C 64.8353 1.95599 0.00703437 0
M  V30 643 C 65.2153 1.51904 1.46589 0
M  V30 644 O 64.5633 0.766755 2.15251 0
M  V30 645 C 64.7733 3.4864 -0.158404 0
M  V30 646 C 66.1213 4.24594 -0.0229439 0
M  V30 647 O 67.1453 3.56094 -0.0869173 0
M  V30 648 O 66.0043 5.46373 0.118015 0
M  V30 649 H 63.0983 0.825275 0.053384 0
M  V30 650 H 65.6443 1.56996 -0.644244 0
M  V30 651 H 64.4163 3.7331 -1.17282 0
M  V30 652 H 64.0393 3.94057 0.5296 0
M  V30 653 N 65.0364 0.313813 1.54444 0
M  V30 654 C 66.2614 -0.296681 2.05267 0
M  V30 655 C 66.6864 -1.45757 1.18897 0
M  V30 656 O 66.0444 -1.80239 0.195886 0
M  V30 657 C 66.0924 -0.71831 3.53373 0
M  V30 658 O 65.1964 -1.82175 3.69981 0
M  V30 659 H 64.5374 -0.0554061 0.661684 0
M  V30 660 H 67.0674 0.459387 1.99376 0
M  V30 661 H 67.0774 -1.00364 3.95463 0
M  V30 662 H 65.7524 0.130821 4.15694 0
M  V30 663 H 64.3294 -1.53598 3.39797 0
M  V30 664 N 66.5145 -1.57545 0.0417849 0
M  V30 665 C 67.7395 -1.97035 -0.647455 0
M  V30 666 C 68.1645 -0.918775 -1.64135 0
M  V30 667 O 67.5225 0.119006 -1.80909 0
M  V30 668 C 67.5705 -3.35609 -1.31905 0
M  V30 669 O 66.6745 -3.3287 -2.43457 0
M  V30 670 H 66.0155 -0.64211 -0.169086 0
M  V30 671 H 68.5455 -2.04318 0.107399 0
M  V30 672 H 68.5555 -3.72126 -1.67291 0
M  V30 673 H 67.2305 -4.11685 -0.590586 0
M  V30 674 H 65.8075 -3.08087 -2.10088 0
M  V30 675 N 67.9926 0.231505 -1.5589 0
M  V30 676 C 68.9226 1.29022 -1.94617 0
M  V30 677 C 69.9036 1.4941 -0.813067 0
M  V30 678 O 71.0886 1.6176 -1.07459 0
M  V30 679 C 68.2186 2.64199 -2.25424 0
M  V30 680 C 67.1726 2.58484 -3.41131 0
M  V30 681 C 66.4986 3.97599 -3.57518 0
M  V30 682 C 67.7986 2.1413 -4.76388 0
M  V30 683 H 69.4926 0.968563 -2.83301 0
M  V30 684 H 67.0386 0.464479 -1.36303 0
M  V30 685 H 68.9916 3.38413 -2.51107 0
M  V30 686 H 67.7156 2.98032 -1.33583 0
M  V30 687 H 66.3746 1.86727 -3.15481 0
M  V30 688 H 66.0226 4.28723 -2.6307 0
M  V30 689 H 65.7226 3.94659 -4.35337 0
M  V30 690 H 67.2466 4.7349 -3.85538 0
M  V30 691 H 68.6606 2.78083 -5.01341 0
M  V30 692 H 67.0576 2.2227 -5.57419 0
M  V30 693 H 68.1276 1.09331 -4.72414 0
M  V30 694 N 69.4707 1.49531 0.497807 0
M  V30 695 C 70.6957 1.63159 1.28039 0
M  V30 696 C 71.1207 0.30418 1.85624 0
M  V30 697 O 70.4787 -0.728618 1.66015 0
M  V30 698 C 70.5267 2.70537 2.38416 0
M  V30 699 O 69.6307 2.29931 3.42353 0
M  V30 700 H 68.9717 0.546001 0.377861 0
M  V30 701 H 71.5017 1.9574 0.59558 0
M  V30 702 H 71.5117 2.92802 2.84132 0
M  V30 703 H 70.1867 3.6689 1.95869 0
M  V30 704 H 68.7637 2.18009 3.02533 0
M  V30 705 N 70.9488 -0.749086 1.3866 0
M  V30 706 C 72.3598 -1.32664 1.31366 0
M  V30 707 C 72.7108 -1.96179 -0.028484 0
M  V30 708 O 71.8358 -1.9537 -0.93057 0
M  V30 709 C 72.4308 -2.41219 2.37905 0
M  V30 710 C 70.9898 -2.94684 2.34176 0
M  V30 711 C 70.1368 -1.68108 2.20533 0
M  V30 712 H 73.0878 -0.547628 1.48952 0
M  V30 713 H 73.1088 -3.21268 2.0388 0
M  V30 714 H 72.6208 -1.94962 3.35576 0
M  V30 715 H 70.7218 -3.45258 1.401 0
M  V30 716 H 70.8348 -3.48757 3.2849 0
M  V30 717 H 69.1988 -1.91907 1.67463 0
M  V30 718 H 69.9818 -1.23923 3.20153 0
M  V30 719 N 72.4269 -1.23603 -0.977757 0
M  V30 720 C 73.6519 -1.09735 -1.75991 0
M  V30 721 C 74.0769 0.346858 -1.84874 0
M  V30 722 O 73.4349 1.25093 -1.3123 0
M  V30 723 C 73.4829 -1.73051 -3.16363 0
M  V30 724 O 72.5869 -0.994452 -4.0023 0
M  V30 725 H 71.9279 -0.384476 -0.541364 0
M  V30 726 H 74.4579 -1.6371 -1.2272 0
M  V30 727 H 74.4679 -1.78398 -3.66931 0
M  V30 728 H 73.1429 -2.78137 -3.09213 0
M  V30 729 H 71.7199 -1.01812 -3.58732 0
M  V30 730 N 73.905 1.17692 -1.04816 0
M  V30 731 C 75.153 1.87488 -0.754497 0
M  V30 732 C 75.474 1.81205 0.720407 0
M  V30 733 O 74.744 1.23544 1.52032 0
M  V30 734 H 73.324 0.694101 -0.276102 0
M  V30 735 H 75.986 1.42793 -1.32651 0
M  V30 736 H 75.082 2.93328 -1.06606 0
M  V30 737 N 75.3831 0.828654 1.34056 0
M  V30 738 C 76.2931 0.256725 2.33191 0
M  V30 739 C 77.3091 -0.611898 1.62886 0
M  V30 740 O 78.4851 -0.51844 1.94613 0
M  V30 741 C 75.5501 -0.567238 3.42028 0
M  V30 742 C 74.6111 0.324458 4.28072 0
M  V30 743 C 73.8441 -0.460274 5.31712 0
M  V30 744 O 74.0671 -1.693 5.44696 0
M  V30 745 O 73.0011 0.160391 6.01686 0
M  V30 746 H 76.8271 1.07739 2.83947 0
M  V30 747 H 74.4121 0.59093 1.37217 0
M  V30 748 H 76.2941 -1.03582 4.08471 0
M  V30 749 H 74.9691 -1.36513 2.93506 0
M  V30 750 H 73.8761 0.840659 3.64532 0
M  V30 751 H 75.2091 1.08685 4.8005 0
M  V30 752 N 76.8612 -1.46375 0.584142 0
M  V30 753 C 78.0862 -2.07268 0.0740405 0
M  V30 754 C 78.5112 -1.42979 -1.22223 0
M  V30 755 O 77.8692 -0.514092 -1.73859 0
M  V30 756 C 77.9172 -3.60518 -0.0767769 0
M  V30 757 O 77.0212 -3.96533 -1.13292 0
M  V30 758 H 76.3622 -0.660961 0.0634524 0
M  V30 759 H 78.8922 -1.87991 0.807492 0
M  V30 760 H 78.9022 -4.07021 -0.282489 0
M  V30 761 H 77.5772 -4.06702 0.86986 0
M  V30 762 H 76.1542 -3.61738 -0.905553 0
M  V30 763 N 78.3393 -0.321999 -1.54275 0
M  V30 764 C 79.2713 0.578671 -2.21775 0
M  V30 765 C 80.2843 1.08109 -1.21722 0
M  V30 766 O 81.4733 0.994938 -1.482 0
M  V30 767 C 78.5733 1.80661 -2.86731 0
M  V30 768 C 77.7463 1.44314 -4.12907 0
M  V30 769 C 76.8053 2.52845 -4.61472 0
M  V30 770 O 75.8313 2.17054 -5.2619 0
M  V30 771 N 77.0333 3.83748 -4.35566 0
M  V30 772 H 79.7983 0.000709447 -2.997 0
M  V30 773 H 77.3593 -0.145132 -1.61248 0
M  V30 774 H 79.3513 2.52655 -3.16145 0
M  V30 775 H 77.9213 2.29245 -2.12521 0
M  V30 776 H 77.1413 0.554906 -3.90275 0
M  V30 777 H 78.4293 1.17598 -4.95023 0
M  V30 778 H 77.8273 4.15625 -3.83761 0
M  V30 779 H 76.3843 4.51977 -4.69638 0
M  V30 780 N 79.8174 1.5752 -0.0501392 0
M  V30 781 C 80.7474 2.14502 0.922566 0
M  V30 782 C 81.7284 1.06642 1.3252 0
M  V30 783 O 82.9134 1.34577 1.4001 0
M  V30 784 C 80.0434 2.68916 2.19776 0
M  V30 785 C 78.9974 3.8175 1.93523 0
M  V30 786 C 78.3234 4.22677 3.27487 0
M  V30 787 C 79.6234 5.06932 1.25765 0
M  V30 788 H 81.3174 2.9603 0.447952 0
M  V30 789 H 78.8634 1.42401 0.214024 0
M  V30 790 H 80.8164 3.07419 2.88222 0
M  V30 791 H 79.5404 1.84578 2.69441 0
M  V30 792 H 78.1994 3.43718 1.27489 0
M  V30 793 H 77.8474 3.35291 3.74952 0
M  V30 794 H 77.5474 4.98725 3.1072 0
M  V30 795 H 79.0714 4.63779 3.97166 0
M  V30 796 H 80.4854 5.42888 1.84244 0
M  V30 797 H 78.8824 5.88116 1.19328 0
M  V30 798 H 79.9524 4.84337 0.233536 0
M  V30 799 N 81.2955 -0.223234 1.56011 0
M  V30 800 C 82.7115 -0.572856 1.48965 0
M  V30 801 C 82.9115 -1.87225 0.74492 0
M  V30 802 O 81.9675 -2.50899 0.283896 0
M  V30 803 C 83.2805 -0.653646 2.9351 0
M  V30 804 C 84.8285 -0.744386 3.0402 0
M  V30 805 C 85.3035 -0.856535 4.49919 0
M  V30 806 N 86.7945 -0.9208 4.53955 0
M  V30 807 C 87.5295 -1.02726 5.64123 0
M  V30 808 N 87.0255 -1.09777 6.84047 0
M  V30 809 N 88.8185 -1.06226 5.51971 0
M  V30 810 H 80.9695 0.629462 2.02858 0
M  V30 811 H 83.2325 0.220621 0.921971 0
M  V30 812 H 82.9385 0.231518 3.50937 0
M  V30 813 H 82.8125 -1.51781 3.45315 0
M  V30 814 H 85.1995 -1.61999 2.46658 0
M  V30 815 H 85.2805 0.14541 2.55386 0
M  V30 816 H 84.9245 0.0146069 5.07898 0
M  V30 817 H 84.8545 -1.76172 4.96257 0
M  V30 818 H 87.3455 -0.876694 3.6759 0
M  V30 819 H 87.6585 -1.17872 7.63758 0
M  V30 820 H 86.0035 -1.06693 6.86762 0
M  V30 821 H 89.1945 -1.00382 4.5721 0
M  V30 822 H 89.3675 -1.14177 6.37862 0
M  V30 823 N 82.7736 -1.49793 -0.48987 0
M  V30 824 C 83.7366 -1.66752 -1.57246 0
M  V30 825 C 84.7366 -0.538867 -1.51502 0
M  V30 826 O 85.9266 -0.805545 -1.54456 0
M  V30 827 C 83.0586 -1.67528 -2.96896 0
M  V30 828 H 84.2516 -2.63321 -1.43534 0
M  V30 829 H 81.8046 -1.38992 -0.714914 0
M  V30 830 H 82.5396 -0.725837 -3.16073 0
M  V30 831 H 82.3246 -2.49504 -3.02473 0
M  V30 832 H 83.8146 -1.82667 -3.7553 0
M  V30 833 N 84.2517 0.741722 -1.39055 0
M  V30 834 C 85.6677 1.04638 -1.20512 0
M  V30 835 C 85.8677 2.01405 -0.0620218 0
M  V30 836 O 84.9237 2.45547 0.588457 0
M  V30 837 C 86.2367 1.6151 -2.53643 0
M  V30 838 C 87.7847 1.73623 -2.6043 0
M  V30 839 C 88.2597 2.33906 -3.93767 0
M  V30 840 N 89.7507 2.41323 -3.9537 0
M  V30 841 C 90.4857 2.88888 -4.95309 0
M  V30 842 N 89.9817 3.36401 -6.05645 0
M  V30 843 N 91.7747 2.88037 -4.82692 0
M  V30 844 H 83.9257 0.0998155 -2.12165 0
M  V30 845 H 86.1887 0.106907 -0.941953 0
M  V30 846 H 85.8947 0.978739 -3.37807 0
M  V30 847 H 85.7687 2.60411 -2.72885 0
M  V30 848 H 88.1557 2.36384 -1.76655 0
M  V30 849 H 88.2367 0.733945 -2.45045 0
M  V30 850 H 87.8807 1.71776 -4.7797 0
M  V30 851 H 87.8107 3.34799 -4.06469 0
M  V30 852 H 90.3017 2.07734 -3.15682 0
M  V30 853 H 90.6147 3.71186 -6.77821 0
M  V30 854 H 88.9597 3.34427 -6.09248 0
M  V30 855 H 92.1507 2.50237 -3.95599 0
M  V30 856 H 92.3237 3.24792 -5.60726 0
M  V30 857 N 85.7298 1.2412 0.971189 0
M  V30 858 C 86.6618 0.988349 2.06795 0
M  V30 859 C 87.6748 -0.0409541 1.62748 0
M  V30 860 O 88.8638 0.195673 1.77424 0
M  V30 861 C 85.9638 0.469023 3.35639 0
M  V30 862 C 85.1368 1.56065 4.08611 0
M  V30 863 C 84.1958 1.04458 5.15728 0
M  V30 864 O 83.2218 1.73553 5.42096 0
M  V30 865 N 84.4238 -0.122817 5.8037 0
M  V30 866 H 87.1888 1.93265 2.29061 0
M  V30 867 H 84.7498 1.15102 1.13856 0
M  V30 868 H 86.7418 0.108613 4.04554 0
M  V30 869 H 85.3118 -0.380919 3.1027 0
M  V30 870 H 84.5318 2.09341 3.34021 0
M  V30 871 H 85.8198 2.29449 4.54126 0
M  V30 872 H 85.2178 -0.700563 5.61345 0
M  V30 873 H 83.7748 -0.424404 6.50417 0
M  V30 874 N 87.2079 -1.17134 1.05439 0
M  V30 875 C 88.1379 -2.2342 0.678649 0
M  V30 876 C 89.1189 -1.66971 -0.32476 0
M  V30 877 O 90.3039 -1.93149 -0.201802 0
M  V30 878 C 87.4339 -3.47256 0.0552099 0
M  V30 879 C 86.3879 -4.16543 0.98365 0
M  V30 880 C 85.7139 -5.34231 0.223961 0
M  V30 881 C 87.0139 -4.68495 2.3089 0
M  V30 882 H 88.7079 -2.55105 1.56722 0
M  V30 883 H 86.2539 -1.2262 0.754998 0
M  V30 884 H 88.2069 -4.20828 -0.21946 0
M  V30 885 H 86.9309 -3.14846 -0.868319 0
M  V30 886 H 85.5899 -3.44887 1.24293 0
M  V30 887 H 85.2379 -4.98071 -0.702412 0
M  V30 888 H 84.9379 -5.81527 0.842627 0
M  V30 889 H 86.4619 -6.10585 -0.0433671 0
M  V30 890 H 87.8759 -5.33691 2.09396 0
M  V30 891 H 86.2729 -5.26379 2.88176 0
M  V30 892 H 87.3429 -3.85169 2.94572 0
M  V30 893 N 88.686 -0.835752 -1.33615 0
M  V30 894 C 89.649 -0.272 -2.2758 0
M  V30 895 C 90.649 0.557487 -1.50827 0
M  V30 896 O 91.839 0.37173 -1.70188 0
M  V30 897 C 88.971 0.617173 -3.35267 0
M  V30 898 H 90.164 -1.10111 -2.78954 0
M  V30 899 H 87.717 -0.608594 -1.43965 0
M  V30 900 H 88.452 1.46884 -2.89129 0
M  V30 901 H 88.237 0.0237066 -3.92093 0
M  V30 902 H 89.727 1.005 -4.05326 0
M  V30 903 N 90.1641 1.46063 -0.591896 0
M  V30 904 C 91.0941 2.33172 0.123673 0
M  V30 905 C 92.0751 1.45897 0.87453 0
M  V30 906 O 93.2601 1.74698 0.848181 0
M  V30 907 C 90.3901 3.28336 1.13194 0
M  V30 908 C 89.3441 4.25124 0.495324 0
M  V30 909 C 88.6701 5.09863 1.61071 0
M  V30 910 C 89.9701 5.19143 -0.573425 0
M  V30 911 H 91.6641 2.93252 -0.603646 0
M  V30 912 H 89.2101 1.41014 -0.291741 0
M  V30 913 H 91.1631 3.88137 1.64097 0
M  V30 914 H 89.8871 2.66383 1.88965 0
M  V30 915 H 88.5461 3.66599 0.00729452 0
M  V30 916 H 88.1941 4.44288 2.35832 0
M  V30 917 H 87.8941 5.75417 1.19035 0
M  V30 918 H 89.4181 5.72529 2.12233 0
M  V30 919 H 90.8321 5.73106 -0.1491 0
M  V30 920 H 89.2291 5.93089 -0.914636 0
M  V30 921 H 90.2991 4.62519 -1.45617 0
M  V30 922 N 91.6422 0.330177 1.54103 0
M  V30 923 C 92.5722 -0.525353 2.27513 0
M  V30 924 C 93.5532 -1.11383 1.2856 0
M  V30 925 O 94.7382 -1.13773 1.57383 0
M  V30 926 C 91.8682 -1.6831 3.03791 0
M  V30 927 C 90.8222 -1.2236 4.10137 0
M  V30 928 C 90.1482 -2.46882 4.74293 0
M  V30 929 C 91.4482 -0.333697 5.21233 0
M  V30 930 H 93.1422 0.087013 2.99274 0
M  V30 931 H 90.6882 0.0432893 1.43935 0
M  V30 932 H 92.6412 -2.28795 3.5388 0
M  V30 933 H 91.3652 -2.32216 2.29659 0
M  V30 934 H 90.0242 -0.64165 3.60941 0
M  V30 935 H 89.6722 -3.09165 3.96769 0
M  V30 936 H 89.3722 -2.16825 5.46133 0
M  V30 937 H 90.8962 -3.08117 5.27159 0
M  V30 938 H 92.3102 -0.845013 5.67038 0
M  V30 939 H 90.7072 -0.125612 5.99969 0
M  V30 940 H 91.7772 0.633724 4.80741 0
M  V30 941 N 93.1203 -1.57491 0.0584922 0
M  V30 942 C 94.5363 -1.56792 -0.298091 0
M  V30 943 C 94.7363 -1.06679 -1.70944 0
M  V30 944 O 93.7923 -0.726672 -2.41818 0
M  V30 945 C 95.1053 -3.00461 -0.119879 0
M  V30 946 C 96.6533 -3.1242 -0.190428 0
M  V30 947 C 97.1283 -4.57982 -0.0406567 0
M  V30 948 N 98.6193 -4.63099 -0.0966958 0
M  V30 949 C 99.3543 -5.734 -0.00502943 0
M  V30 950 N 98.8503 -6.9266 0.139402 0
M  V30 951 N 100.643 -5.62067 -0.0611391 0
M  V30 952 H 92.7943 -1.88386 0.98105 0
M  V30 953 H 95.0573 -0.867865 0.381463 0
M  V30 954 H 94.7633 -3.41187 0.85349 0
M  V30 955 H 94.6373 -3.66843 -0.877833 0
M  V30 956 H 97.0243 -2.71589 -1.15427 0
M  V30 957 H 97.1053 -2.48702 0.598405 0
M  V30 958 H 96.7493 -4.995 0.919897 0
M  V30 959 H 96.6793 -5.19715 -0.848727 0
M  V30 960 H 99.1703 -3.77331 -0.207277 0
M  V30 961 H 99.4833 -7.72536 0.201855 0
M  V30 962 H 97.8283 -6.94781 0.174586 0
M  V30 963 H 101.019 -4.67782 -0.172583 0
M  V30 964 H 101.192 -6.47999 0.0137562 0
M  V30 965 N 94.5984 0.214957 -1.56127 0
M  V30 966 C 95.5084 1.28727 -1.96129 0
M  V30 967 C 96.5244 1.50916 -0.866044 0
M  V30 968 O 97.7004 1.63918 -1.17016 0
M  V30 969 C 94.7654 2.61569 -2.27558 0
M  V30 970 C 93.8264 2.47625 -3.50685 0
M  V30 971 C 93.0594 3.74132 -3.80606 0
M  V30 972 O 93.2824 4.77438 -3.12104 0
M  V30 973 O 92.2164 3.70849 -4.74083 0
M  V30 974 H 96.0424 0.977855 -2.87527 0
M  V30 975 H 93.6274 0.418358 -1.43423 0
M  V30 976 H 95.5094 3.40012 -2.48938 0
M  V30 977 H 94.1844 2.92178 -1.39332 0
M  V30 978 H 93.0914 1.67361 -3.34576 0
M  V30 979 H 94.4244 2.21954 -4.39315 0
M  V30 980 N 96.0765 1.50051 0.48192 0
M  V30 981 C 97.3225 1.60736 1.2366 0
M  V30 982 C 97.6555 0.301786 1.91841 0
M  V30 983 O 96.9305 -0.696025 1.8162 0
M  V30 984 C 97.2135 2.78009 2.28874 0
M  V30 985 C 97.0665 4.18416 1.65069 0
M  V30 986 C 98.3855 2.90867 3.30279 0
M  V30 987 H 95.5045 0.585031 0.448228 0
M  V30 988 H 98.1465 1.82402 0.531946 0
M  V30 989 H 96.2965 2.59667 2.88973 0
M  V30 990 H 97.9685 4.48322 1.0865 0
M  V30 991 H 96.2115 4.23177 0.954148 0
M  V30 992 H 96.8825 4.96381 2.41474 0
M  V30 993 H 99.3585 3.07623 2.80191 0
M  V30 994 H 98.2345 3.74566 4.01238 0
M  V30 995 H 98.4955 2.01021 3.93755 0
M  V30 996 N 97.5546 -0.734337 1.39446 0
M  V30 997 C 98.4646 -1.87879 1.40495 0
M  V30 998 C 99.4806 -1.714 0.299672 0
M  V30 999 O 100.657 -1.93991 0.541249 0
M  V30 1000 C 97.7216 -3.23477 1.24754 0
M  V30 1001 C 96.7826 -3.52344 2.45259 0
M  V30 1002 C 96.0156 -4.81473 2.30259 0
M  V30 1003 O 96.2386 -5.55237 1.30643 0
M  V30 1004 O 95.1726 -5.10254 3.19256 0
M  V30 1005 H 98.9986 -1.89949 2.36966 0
M  V30 1006 H 96.5836 -0.882243 1.20569 0
M  V30 1007 H 98.4656 -4.04509 1.18111 0
M  V30 1008 H 97.1406 -3.22176 0.313781 0
M  V30 1009 H 96.0476 -2.71396 2.57478 0
M  V30 1010 H 97.3806 -3.58426 3.37331 0
M  V30 1011 N 99.0327 -1.24633 -0.964593 0
M  V30 1012 C 99.9657 -0.984662 -2.05863 0
M  V30 1013 C 100.944 0.0826554 -1.6239 0
M  V30 1014 O 102.128 -0.0549296 -1.8842 0
M  V30 1015 C 99.2547 -0.486529 -3.35187 0
M  V30 1016 C 98.3007 -1.54286 -3.97615 0
M  V30 1017 S 99.1337 -3.12513 -4.34851 0
M  V30 1018 C 100.29 -2.6441 -5.67308 0
M  V30 1019 H 100.523 -1.91104 -2.27743 0
M  V30 1020 H 98.0557 -1.08052 -1.10291 0
M  V30 1021 H 100.014 -0.205757 -4.09984 0
M  V30 1022 H 98.6747 0.419186 -3.1129 0
M  V30 1023 H 97.8677 -1.14481 -4.90826 0
M  V30 1024 H 97.4697 -1.7738 -3.2926 0
M  V30 1025 H 99.7617 -2.07416 -6.44969 0
M  V30 1026 H 100.705 -3.56222 -6.11973 0
M  V30 1027 H 101.113 -2.04734 -5.26065 0
M  V30 1028 N 100.511 1.16574 -1.06058 0
M  V30 1029 C 101.459 2.22941 -0.663343 0
M  V30 1030 C 102.453 1.66358 0.319593 0
M  V30 1031 O 103.659 1.7905 0.184713 0
M  V30 1032 H 100.034 0.725907 -0.196376 0
M  V30 1033 H 102.005 2.53736 -1.57037 0
M  V30 1034 C 100.754 3.47642 -0.0632808 0
M  V30 1035 H 100.077 3.91493 -0.810733 0
M  V30 1036 H 101.517 4.2363 0.177177 0
M  V30 1037 C 99.9758 3.1509 1.19248 0
M  V30 1038 O 100.506 3.30673 2.28075 0
M  V30 1039 N 98.7118 2.6924 1.09353 0
M  V30 1040 H 98.2588 2.5676 0.207912 0
M  V30 1041 H 98.2168 2.47833 1.93458 0
M  V30 1042 N 101.989 0.842826 1.3317 0
M  V30 1043 C 103.235 0.450342 1.98352 0
M  V30 1044 C 103.59 -0.980508 1.65541 0
M  V30 1045 O 102.883 -1.67678 0.927065 0
M  V30 1046 C 103.077 0.612607 3.52111 0
M  V30 1047 C 102.906 2.05768 3.99862 0
M  V30 1048 C 101.676 2.69374 4.27511 0
M  V30 1049 C 103.874 3.02688 4.15794 0
M  V30 1050 N 101.856 4.04915 4.61429 0
M  V30 1051 C 103.227 4.23186 4.53115 0
M  V30 1052 C 105.282 2.99041 3.98094 0
M  V30 1053 C 103.985 5.40518 4.74587 0
M  V30 1054 C 106.011 4.15607 4.20743 0
M  V30 1055 C 105.373 5.3486 4.58371 0
M  V30 1056 H 101.472 0.213296 0.752349 0
M  V30 1057 H 104.056 1.09173 1.61212 0
M  V30 1058 H 102.227 0.000998822 3.884 0
M  V30 1059 H 103.959 0.191179 4.04248 0
M  V30 1060 H 100.714 2.20485 4.19146 0
M  V30 1061 H 101.138 4.74798 4.82593 0
M  V30 1062 H 105.78 2.0797 3.68114 0
M  V30 1063 H 103.498 6.3213 5.03425 0
M  V30 1064 H 107.084 4.14207 4.08563 0
M  V30 1065 H 105.964 6.23558 4.75547 0
M  V30 1066 N 103.467 -1.45747 0.599634 0
M  V30 1067 C 104.697 -2.06369 0.0977132 0
M  V30 1068 C 105.105 -1.44624 -1.21985 0
M  V30 1069 O 104.448 -0.551831 -1.75216 0
M  V30 1070 C 104.51 -3.59284 -0.124673 0
M  V30 1071 C 104.174 -4.43318 1.10987 0
M  V30 1072 C 105.171 -4.78796 2.02609 0
M  V30 1073 C 102.856 -4.84194 1.33647 0
M  V30 1074 C 104.85 -5.53997 3.15224 0
M  V30 1075 C 102.537 -5.5915 2.46565 0
M  V30 1076 C 103.535 -5.93968 3.37182 0
M  V30 1077 O 103.223 -6.67405 4.48136 0
M  V30 1078 H 102.955 -0.673122 0.0623153 0
M  V30 1079 H 105.509 -1.88104 0.824981 0
M  V30 1080 H 103.739 -3.75919 -0.906745 0
M  V30 1081 H 105.428 -4.01775 -0.577201 0
M  V30 1082 H 106.194 -4.47781 1.86325 0
M  V30 1083 H 102.073 -4.56534 0.64016 0
M  V30 1084 H 105.617 -5.81091 3.85978 0
M  V30 1085 H 101.514 -5.89579 2.62805 0
M  V30 1086 H 102.282 -6.85847 4.46717 0
M  V30 1087 N 104.945 -0.338344 -1.53925 0
M  V30 1088 C 105.875 0.51328 -2.27789 0
M  V30 1089 C 106.856 1.107 -1.29149 0
M  V30 1090 O 108.041 1.12937 -1.57984 0
M  V30 1091 C 105.171 1.66697 -3.04679 0
M  V30 1092 C 104.125 1.20183 -4.1078 0
M  V30 1093 C 103.451 2.44363 -4.75595 0
M  V30 1094 C 104.751 0.30605 -5.21403 0
M  V30 1095 H 106.445 -0.102883 -2.99223 0
M  V30 1096 H 103.991 -0.0509219 -1.4391 0
M  V30 1097 H 105.944 2.26915 -3.55088 0
M  V30 1098 H 104.668 2.30995 -2.30887 0
M  V30 1099 H 103.327 0.622499 -3.61276 0
M  V30 1100 H 102.975 3.07057 -3.98403 0
M  V30 1101 H 102.675 2.13925 -5.47275 0
M  V30 1102 H 104.199 3.05317 -5.28786 0
M  V30 1103 H 105.613 0.814929 -5.67478 0
M  V30 1104 H 104.01 0.0937929 -6.00027 0
M  V30 1105 H 105.08 -0.65921 -4.80398 0
M  V30 1106 N 106.423 1.57458 -0.0668435 0
M  V30 1107 C 107.37 2.12439 0.902122 0
M  V30 1108 C 108.34 1.03565 1.2986 0
M  V30 1109 O 109.525 1.312 1.38532 0
M  V30 1110 C 106.665 2.6865 2.16614 0
M  V30 1111 C 105.778 3.91663 1.82274 0
M  V30 1112 C 104.913 4.36134 3.0325 0
M  V30 1113 C 103.952 5.51808 2.64904 0
M  V30 1114 N 103.089 5.9126 3.78624 0
M  V30 1115 H 107.929 2.94934 0.426382 0
M  V30 1116 H 105.466 1.4575 0.198819 0
M  V30 1117 H 107.424 2.99346 2.90599 0
M  V30 1118 H 106.054 1.88928 2.61737 0
M  V30 1119 H 105.106 3.6746 0.983719 0
M  V30 1120 H 106.418 4.75693 1.50059 0
M  V30 1121 H 105.572 4.68465 3.85519 0
M  V30 1122 H 104.311 3.50948 3.38655 0
M  V30 1123 H 103.316 5.19133 1.81055 0
M  V30 1124 H 104.541 6.38722 2.30675 0
M  V30 1125 H 102.487 5.09024 4.138 0
M  V30 1126 H 102.404 6.70018 3.5016 0
M  V30 1127 H 103.672 6.28212 4.61486 0
M  V30 1128 N 107.901 -0.206675 1.56239 0
M  V30 1129 C 108.831 -1.25909 1.96645 0
M  V30 1130 C 109.812 -1.48097 0.836734 0
M  V30 1131 O 110.997 -1.6003 1.10019 0
M  V30 1132 C 108.127 -2.6058 2.29599 0
M  V30 1133 C 107.081 -2.53024 3.452 0
M  V30 1134 C 106.407 -3.91861 3.63798 0
M  V30 1135 C 107.707 -2.06524 4.79734 0
M  V30 1136 H 109.401 -0.923369 2.84806 0
M  V30 1137 H 106.947 -0.442735 1.37025 0
M  V30 1138 H 108.9 -3.34375 2.56459 0
M  V30 1139 H 107.624 -2.95869 1.38307 0
M  V30 1140 H 106.283 -1.81684 3.18412 0
M  V30 1141 H 105.931 -4.24483 2.69857 0
M  V30 1142 H 105.631 -3.87683 4.4156 0
M  V30 1143 H 107.155 -4.67296 3.93022 0
M  V30 1144 H 108.569 -2.70072 5.05702 0
M  V30 1145 H 106.966 -2.13374 5.60885 0
M  V30 1146 H 108.036 -1.01802 4.74093 0
M  V30 1147 N 109.379 -1.50304 -0.473955 0
M  V30 1148 C 110.619 -1.62786 -1.23612 0
M  V30 1149 C 110.983 -0.319786 -1.89318 0
M  V30 1150 O 112.184 -0.320012 -2.66888 0
M  V30 1151 C 110.455 -2.77351 -2.25414 0
M  V30 1152 S 112.014 -3.09948 -3.10608 0
M  V30 1153 H 108.832 -0.573895 -0.419721 0
M  V30 1154 H 111.434 -1.88076 -0.533623 0
M  V30 1155 H 110.138 -3.70879 -1.75719 0
M  V30 1156 H 109.669 -2.54137 -3.00296 0
M  V30 1157 H 111.684 -2.53553 -4.26527 0
M  V30 1158 N 110.857 0.726932 -1.39834 0
M  V30 1159 C 112.134 1.47902 -1.28001 0
M  V30 1160 C 112.514 2.1083 0.106789 0
M  V30 1161 O 111.862 1.99242 1.11869 0
M  V30 1162 C 112.072 2.52392 -2.41038 0
M  V30 1163 C 113.42 3.18546 -2.80737 0
M  V30 1164 O 114.444 2.62708 -2.40547 0
M  V30 1165 O 113.303 4.19604 -3.50135 0
M  V30 1166 H 110.397 0.657163 -0.502062 0
M  V30 1167 H 112.943 0.760071 -1.51727 0
M  V30 1168 H 111.715 2.04329 -3.33715 0
M  V30 1169 H 111.338 3.31837 -2.19021 0
M  V30 1170 N 112.336 1.25143 0.95797 0
M  V30 1171 C 113.266 1.07711 2.07173 0
M  V30 1172 C 114.247 -0.0128462 1.70095 0
M  V30 1173 O 115.432 0.156061 1.93572 0
M  V30 1174 C 112.562 0.691503 3.40346 0
M  V30 1175 C 111.516 1.73132 3.9142 0
M  V30 1176 C 110.842 1.20049 5.21049 0
M  V30 1177 C 112.142 3.1294 4.1817 0
M  V30 1178 H 113.836 2.00873 2.22014 0
M  V30 1179 H 111.382 0.967191 1.06684 0
M  V30 1180 H 113.335 0.556505 4.17709 0
M  V30 1181 H 112.059 -0.275819 3.25433 0
M  V30 1182 H 110.718 1.8547 3.16222 0
M  V30 1183 H 110.366 0.223499 5.02503 0
M  V30 1184 H 110.066 1.89545 5.56189 0
M  V30 1185 H 111.59 1.07782 6.01012 0
M  V30 1186 H 113.004 3.03775 4.86203 0
M  V30 1187 H 111.401 3.79875 4.64559 0
M  V30 1188 H 112.471 3.6025 3.24573 0
M  V30 1189 N 113.814 -1.1601 1.06675 0
M  V30 1190 C 115.039 -1.91068 0.806706 0
M  V30 1191 C 115.464 -1.77112 -0.633485 0
M  V30 1192 O 114.822 -1.09908 -1.44187 0
M  V30 1193 C 114.87 -3.39655 1.21106 0
M  V30 1194 O 113.974 -4.10893 0.352189 0
M  V30 1195 H 113.315 -0.595125 0.294486 0
M  V30 1196 H 115.845 -1.46955 1.42356 0
M  V30 1197 H 115.855 -3.90434 1.18428 0
M  V30 1198 H 114.53 -3.49132 2.26008 0
M  V30 1199 H 113.107 -3.70285 0.440868 0
M  V30 1200 N 115.292 -0.849877 -1.32721 0
M  V30 1201 C 116.517 -0.463856 -2.02146 0
M  V30 1202 C 116.942 0.930449 -1.63476 0
M  V30 1203 O 116.3 1.61033 -0.832952 0
M  V30 1204 C 116.348 -0.604955 -3.55489 0
M  V30 1205 O 115.452 0.36425 -4.10788 0
M  V30 1206 H 114.793 -0.187046 -0.637111 0
M  V30 1207 H 117.323 -1.14775 -1.69375 0
M  V30 1208 H 117.333 -0.490696 -4.05038 0
M  V30 1209 H 116.008 -1.62174 -3.82978 0
M  V30 1210 H 114.585 0.206628 -3.72327 0
M  V30 1211 N 116.77 1.45427 -0.607355 0
M  V30 1212 C 117.68 2.34325 0.113463 0
M  V30 1213 C 118.696 1.51226 0.860617 0
M  V30 1214 O 119.872 1.84029 0.818255 0
M  V30 1215 C 116.937 3.28839 1.09844 0
M  V30 1216 C 115.998 4.27844 0.353271 0
M  V30 1217 C 115.231 5.17842 1.29133 0
M  V30 1218 O 115.454 5.11264 2.52913 0
M  V30 1219 O 114.388 5.96713 0.788523 0
M  V30 1220 H 118.214 2.97364 -0.617094 0
M  V30 1221 H 115.799 1.44807 -0.367619 0
M  V30 1222 H 117.681 3.8708 1.66575 0
M  V30 1223 H 116.356 2.68365 1.81003 0
M  V30 1224 H 115.263 3.7322 -0.256494 0
M  V30 1225 H 116.596 4.91173 -0.317822 0
M  V30 1226 N 118.248 0.346503 1.53744 0
M  V30 1227 C 119.198 -0.524953 2.21874 0
M  V30 1228 C 120.182 -1.06376 1.20718 0
M  V30 1229 O 121.374 -0.996972 1.46251 0
M  V30 1230 C 118.503 -1.6739 2.99726 0
M  V30 1231 C 117.589 -1.14888 4.08242 0
M  V30 1232 N 117.98 -0.345329 5.0462 0
M  V30 1233 C 116.278 -1.4255 4.22606 0
M  V30 1234 C 116.979 -0.0600706 5.81669 0
M  V30 1235 N 115.955 -0.65252 5.39669 0
M  V30 1236 H 119.757 0.0960091 2.93743 0
M  V30 1237 H 117.271 0.15352 1.61673 0
M  V30 1238 H 119.268 -2.3102 3.47038 0
M  V30 1239 H 117.928 -2.29811 2.29384 0
M  V30 1240 H 118.939 0.0138439 5.17898 0
M  V30 1241 H 115.616 -2.05389 3.63486 0
M  V30 1242 H 117.006 0.588321 6.69319 0
M  V30 1243 N 119.726 -1.57421 0.075193 0
M  V30 1244 C 120.954 -1.97946 -0.602076 0
M  V30 1245 C 121.369 -0.953674 -1.62943 0
M  V30 1246 O 120.726 0.0592551 -1.82404 0
M  V30 1247 C 120.777 -3.38546 -1.26762 0
M  V30 1248 O 120.498 -4.37195 -0.281376 0
M  V30 1249 C 121.999 -3.93966 -2.03239 0
M  V30 1250 H 119.219 -0.650918 -0.162931 0
M  V30 1251 H 121.763 -2.03959 0.148601 0
M  V30 1252 H 119.918 -3.33609 -1.96936 0
M  V30 1253 H 120.332 -5.18975 -0.759267 0
M  V30 1254 H 121.806 -4.94555 -2.45193 0
M  V30 1255 H 122.283 -3.30693 -2.8903 0
M  V30 1256 H 122.889 -4.02315 -1.37924 0
M  V30 1257 N 121.204 0.198386 -1.56346 0
M  V30 1258 C 122.432 0.935572 -1.84539 0
M  V30 1259 C 122.847 1.76989 -0.657281 0
M  V30 1260 O 122.204 1.78626 0.374043 0
M  V30 1261 C 122.255 1.8344 -3.11499 0
M  V30 1262 O 121.976 1.03377 -4.25728 0
M  V30 1263 C 123.477 2.68355 -3.52846 0
M  V30 1264 H 120.697 0.273126 -0.612897 0
M  V30 1265 H 123.241 0.20663 -2.03453 0
M  V30 1266 H 121.396 2.51701 -2.94492 0
M  V30 1267 H 121.81 1.64599 -4.98003 0
M  V30 1268 H 123.284 3.27085 -4.44657 0
M  V30 1269 H 123.761 3.41901 -2.75681 0
M  V30 1270 H 124.367 2.05471 -3.72373 0
M  V30 1271 N 122.682 1.50554 0.465978 0
M  V30 1272 C 123.928 1.62038 1.21949 0
M  V30 1273 C 124.261 0.322116 1.9151 0
M  V30 1274 O 123.536 -0.676723 1.82348 0
M  V30 1275 C 123.819 2.80421 2.25912 0
M  V30 1276 C 123.672 4.20144 1.60622 0
M  V30 1277 C 124.991 2.94354 3.27176 0
M  V30 1278 H 122.11 0.589752 0.441998 0
M  V30 1279 H 124.752 1.82956 0.51257 0
M  V30 1280 H 122.902 2.62717 2.86203 0
M  V30 1281 H 124.574 4.49449 1.03889 0
M  V30 1282 H 122.817 4.24165 0.909211 0
M  V30 1283 H 123.488 4.98914 2.36196 0
M  V30 1284 H 125.964 3.10578 2.76913 0
M  V30 1285 H 124.84 3.788 3.97242 0
M  V30 1286 H 125.101 2.05186 3.916 0
M  V30 1287 N 124.16 -0.719506 1.40217 0
M  V30 1288 C 125.4 -1.49181 1.39729 0
M  V30 1289 C 125.764 -1.92 -0.00250614 0
M  V30 1290 O 126.965 -2.68473 -0.132479 0
M  V30 1291 C 125.236 -2.68767 2.35582 0
M  V30 1292 S 126.795 -3.58224 2.53418 0
M  V30 1293 H 123.613 -0.510091 0.495307 0
M  V30 1294 H 126.215 -0.841724 1.76452 0
M  V30 1295 H 124.919 -2.35475 3.36124 0
M  V30 1296 H 124.45 -3.38691 2.0013 0
M  V30 1297 H 126.465 -4.63033 1.78367 0
M  V30 1298 N 125.638 -1.25649 -0.95132 0
M  V30 1299 C 126.866 -1.13343 -1.73092 0
M  V30 1300 C 127.281 0.312434 -1.86197 0
M  V30 1301 O 126.638 1.21465 -1.36207 0
M  V30 1302 C 126.689 -1.78602 -3.14299 0
M  V30 1303 O 126.41 -3.17537 -3.01831 0
M  V30 1304 C 127.911 -1.72119 -4.08522 0
M  V30 1305 H 125.131 -0.395181 -0.542285 0
M  V30 1306 H 127.675 -1.66076 -1.19328 0
M  V30 1307 H 125.83 -1.29832 -3.64996 0
M  V30 1308 H 126.244 -3.49676 -3.90931 0
M  V30 1309 H 127.718 -2.22435 -5.052 0
M  V30 1310 H 128.195 -0.685635 -4.33815 0
M  V30 1311 H 128.801 -2.20393 -3.63741 0
M  V30 1312 N 127.117 1.15442 -1.07289 0
M  V30 1313 C 128.345 1.90096 -0.81676 0
M  V30 1314 C 128.76 1.7798 0.629966 0
M  V30 1315 O 128.117 1.1313 1.43206 0
M  V30 1316 C 128.168 3.40466 -1.21512 0
M  V30 1317 O 127.889 3.52232 -2.60508 0
M  V30 1318 C 129.39 4.32145 -0.988198 0
M  V30 1319 H 126.61 0.602495 -0.295366 0
M  V30 1320 H 129.154 1.4627 -1.42918 0
M  V30 1321 H 127.309 3.81958 -0.647039 0
M  V30 1322 H 127.723 4.45549 -2.76742 0
M  V30 1323 H 129.197 5.36072 -1.31645 0
M  V30 1324 H 129.674 4.39135 0.0755063 0
M  V30 1325 H 130.28 3.96395 -1.54115 0
M  V30 1326 N 128.595 0.856903 1.32268 0
M  V30 1327 C 129.843 0.460474 1.96784 0
M  V30 1328 C 130.164 -0.987701 1.68135 0
M  V30 1329 O 129.434 -1.69058 0.989765 0
M  V30 1330 H 128.014 0.167289 0.728027 0
M  V30 1331 H 130.676 1.09383 1.61312 0
M  V30 1332 H 129.772 0.60739 3.06133 0
M  V30 1333 N 130.073 -1.45103 0.615059 0
M  V30 1334 C 131.006 -2.27717 -0.148408 0
M  V30 1335 C 131.984 -1.37584 -0.866572 0
M  V30 1336 O 133.168 -1.67017 -0.87393 0
M  V30 1337 C 130.295 -3.16136 -1.21557 0
M  V30 1338 C 129.341 -4.22263 -0.599712 0
M  V30 1339 S 130.174 -5.3215 0.598081 0
M  V30 1340 C 131.33 -6.24137 -0.469484 0
M  V30 1341 H 131.563 -2.92121 0.552483 0
M  V30 1342 H 129.096 -1.49054 0.402778 0
M  V30 1343 H 131.054 -3.67633 -1.82638 0
M  V30 1344 H 129.715 -2.50982 -1.88857 0
M  V30 1345 H 128.908 -4.84081 -1.4029 0
M  V30 1346 H 128.51 -3.73945 -0.063876 0
M  V30 1347 H 130.802 -6.63984 -1.34652 0
M  V30 1348 H 131.745 -7.0801 0.112725 0
M  V30 1349 H 132.153 -5.58971 -0.788168 0
M  V30 1350 N 131.551 -0.354651 -1.53558 0
M  V30 1351 C 132.962 0.126902 -1.86268 0
M  V30 1352 C 133.313 1.49075 -1.27558 0
M  V30 1353 O 132.438 2.08105 -0.5934 0
M  V30 1354 C 133.033 0.237046 -3.3797 0
M  V30 1355 C 131.592 0.662842 -3.70518 0
M  V30 1356 C 130.739 -0.196652 -2.76602 0
M  V30 1357 H 133.69 -0.573849 -1.47962 0
M  V30 1358 H 133.711 1.06259 -3.65362 0
M  V30 1359 H 133.223 -0.755725 -3.80671 0
M  V30 1360 H 131.324 1.66424 -3.33367 0
M  V30 1361 H 131.437 0.445034 -4.77029 0
M  V30 1362 H 129.801 0.332763 -2.52517 0
M  V30 1363 H 130.584 -1.18676 -3.22135 0
M  V30 1364 N 133.029 1.57378 -0.0835403 0
M  V30 1365 C 133.979 2.09916 0.889905 0
M  V30 1366 C 134.963 1.01151 1.25129 0
M  V30 1367 O 136.155 1.27443 1.2283 0
M  V30 1368 C 133.284 2.67379 2.15322 0
M  V30 1369 C 132.37 3.83167 1.81779 0
M  V30 1370 N 132.761 4.91665 1.18739 0
M  V30 1371 C 131.059 3.92685 2.11459 0
M  V30 1372 C 131.76 5.72409 1.0355 0
M  V30 1373 N 130.736 5.21062 1.54906 0
M  V30 1374 H 134.538 2.91188 0.398378 0
M  V30 1375 H 132.052 1.61956 0.120013 0
M  V30 1376 H 134.049 3.0334 2.8599 0
M  V30 1377 H 132.709 1.87558 2.65051 0
M  V30 1378 H 133.72 5.10784 0.855604 0
M  V30 1379 H 130.397 3.23856 2.63483 0
M  V30 1380 H 131.787 6.69699 0.543425 0
M  V30 1381 N 134.507 -0.190092 1.56449 0
M  V30 1382 C 135.923 -0.54113 1.50146 0
M  V30 1383 C 136.123 -1.85603 0.784465 0
M  V30 1384 O 135.179 -2.5024 0.337051 0
M  V30 1385 C 136.492 -0.591241 2.9483 0
M  V30 1386 C 138.04 -0.679732 3.0553 0
M  V30 1387 C 138.515 -0.760908 4.51635 0
M  V30 1388 N 140.006 -0.824302 4.55806 0
M  V30 1389 C 140.741 -0.907365 5.66175 0
M  V30 1390 N 140.237 -0.952422 6.86222 0
M  V30 1391 N 142.03 -0.94494 5.541 0
M  V30 1392 H 134.181 0.67235 2.01478 0
M  V30 1393 H 136.444 0.240127 0.917084 0
M  V30 1394 H 136.15 0.305905 3.50367 0
M  V30 1395 H 136.024 -1.44422 3.48457 0
M  V30 1396 H 138.411 -1.56731 2.50039 0
M  V30 1397 H 138.492 0.199549 2.5502 0
M  V30 1398 H 138.136 0.122336 5.07753 0
M  V30 1399 H 138.066 -1.65606 4.99882 0
M  V30 1400 H 140.557 -0.798526 3.69367 0
M  V30 1401 H 140.87 -1.01645 7.66086 0
M  V30 1402 H 139.215 -0.921014 6.8887 0
M  V30 1403 H 142.406 -0.906612 4.59236 0
M  V30 1404 H 142.579 -1.00622 6.4014 0
M  V30 1405 N 135.985 -1.50799 -0.457987 0
M  V30 1406 C 136.933 -1.71162 -1.575 0
M  V30 1407 C 137.927 -0.577592 -1.59249 0
M  V30 1408 O 139.133 -0.758443 -1.63241 0
M  V30 1409 H 135.508 -0.540468 -0.522875 0
M  V30 1410 H 137.479 -2.64837 -1.37492 0
M  V30 1411 C 136.228 -1.83496 -2.95338 0
M  V30 1412 H 135.551 -2.70153 -2.94716 0
M  V30 1413 H 136.991 -2.01765 -3.72917 0
M  V30 1414 C 135.45 -0.589694 -3.31699 0
M  V30 1415 O 135.98 0.265163 -4.00824 0
M  V30 1416 N 134.186 -0.439845 -2.87252 0
M  V30 1417 H 133.733 -1.13655 -2.31172 0
M  V30 1418 H 133.691 0.392159 -3.11945 0
M  V30 1419 N 137.463 0.71206 -1.40597 0
M  V30 1420 C 138.393 1.83889 -1.43899 0
M  V30 1421 C 139.374 1.67442 -0.299504 0
M  V30 1422 O 140.559 1.87421 -0.508624 0
M  V30 1423 C 137.689 3.21877 -1.30431 0
M  V30 1424 C 136.643 3.53002 -2.42019 0
M  V30 1425 C 135.969 4.90172 -2.13626 0
M  V30 1426 C 137.269 3.53643 -3.84362 0
M  V30 1427 H 138.963 1.81383 -2.38203 0
M  V30 1428 H 136.509 0.871237 -1.14654 0
M  V30 1429 H 138.462 4.00404 -1.31357 0
M  V30 1430 H 137.186 3.24968 -0.326049 0
M  V30 1431 H 135.845 2.76818 -2.40349 0
M  V30 1432 H 135.493 4.89869 -1.14182 0
M  V30 1433 H 135.193 5.11962 -2.88389 0
M  V30 1434 H 136.717 5.71028 -2.1624 0
M  V30 1435 H 138.131 4.22203 -3.87837 0
M  V30 1436 H 136.528 3.86961 -4.58673 0
M  V30 1437 H 137.598 2.52954 -4.13693 0
M  V30 1438 N 138.941 1.26152 0.944643 0
M  V30 1439 C 140.189 1.11271 1.6871 0
M  V30 1440 C 140.51 -0.345166 1.91921 0
M  V30 1441 O 139.78 -1.24387 1.51343 0
M  V30 1442 H 138.36 0.408783 0.625224 0
M  V30 1443 H 141.022 1.58427 1.1352 0
M  V30 1444 H 140.118 1.62879 2.66227 0
M  V30 1445 N 140.419 -1.14872 1.07899 0
M  V30 1446 C 141.366 -2.19791 0.704319 0
M  V30 1447 C 142.336 -1.63238 -0.306987 0
M  V30 1448 O 143.521 -1.8983 -0.192171 0
M  V30 1449 C 140.661 -3.44911 0.114244 0
M  V30 1450 C 139.774 -4.15637 1.1777 0
M  V30 1451 C 138.909 -5.28324 0.552037 0
M  V30 1452 C 137.948 -5.90875 1.59789 0
M  V30 1453 N 137.085 -6.95022 0.994404 0
M  V30 1454 H 141.925 -2.5119 1.60336 0
M  V30 1455 H 139.462 -1.23356 0.801352 0
M  V30 1456 H 141.42 -4.16477 -0.245544 0
M  V30 1457 H 140.05 -3.14011 -0.74813 0
M  V30 1458 H 139.102 -3.42512 1.65499 0
M  V30 1459 H 140.414 -4.5823 1.97046 0
M  V30 1460 H 139.568 -6.06538 0.1402 0
M  V30 1461 H 138.307 -4.86939 -0.272431 0
M  V30 1462 H 137.312 -5.11369 2.01945 0
M  V30 1463 H 138.537 -6.34337 2.42474 0
M  V30 1464 H 136.483 -6.55722 0.190939 0
M  V30 1465 H 136.4 -7.36073 1.72432 0
M  V30 1466 H 137.668 -7.77123 0.608253 0
M  V30 1467 N 141.898 -0.863906 -1.31812 0
M  V30 1468 C 143.123 -0.48527 -2.01643 0
M  V30 1469 C 143.548 0.913058 -1.64453 0
M  V30 1470 O 142.906 1.6014 -0.849985 0
M  V30 1471 C 142.954 -0.642625 -3.54828 0
M  V30 1472 O 142.058 0.320659 -4.11151 0
M  V30 1473 H 141.399 -0.193793 -0.635091 0
M  V30 1474 H 143.929 -1.16565 -1.68148 0
M  V30 1475 H 143.939 -0.533628 -4.04495 0
M  V30 1476 H 142.614 -1.66227 -3.81237 0
M  V30 1477 H 141.191 0.167126 -3.72525 0
M  V30 1478 N 143.376 1.44774 -0.622745 0
M  V30 1479 C 144.624 2.01721 -0.123655 0
M  V30 1480 C 144.945 1.49172 1.25589 0
M  V30 1481 O 144.215 0.691974 1.83272 0
M  V30 1482 H 142.795 0.745777 -0.0427225 0
M  V30 1483 H 145.457 1.77382 -0.807559 0
M  V30 1484 H 144.553 3.11984 -0.0849534 0
M  V30 1485 N 144.854 0.36279 1.53368 0
M  V30 1486 C 145.784 -0.476976 2.28576 0
M  V30 1487 C 146.765 -1.08631 1.30894 0
M  V30 1488 O 147.95 -1.10409 1.59761 0
M  V30 1489 C 145.08 -1.61828 3.07293 0
M  V30 1490 C 144.034 -1.13633 4.1264 0
M  V30 1491 C 143.36 -2.36766 4.79423 0
M  V30 1492 C 144.66 -0.223061 5.21823 0
M  V30 1493 H 146.354 0.150474 2.99022 0
M  V30 1494 H 143.9 0.0738103 1.43811 0
M  V30 1495 H 145.853 -2.21237 3.58653 0
M  V30 1496 H 144.577 -2.27292 2.34533 0
M  V30 1497 H 143.236 -0.564945 3.62221 0
M  V30 1498 H 142.884 -3.0068 4.03238 0
M  V30 1499 H 142.584 -2.05192 5.50609 0
M  V30 1500 H 144.108 -2.96865 5.33576 0
M  V30 1501 H 145.522 -0.724545 5.68703 0
M  V30 1502 H 143.919 0.001678 6.001 0
M  V30 1503 H 144.989 0.735553 4.79289 0
M  V30 1504 N 146.332 -1.57332 0.0918853 0
M  V30 1505 C 147.748 -1.57389 -0.264766 0
M  V30 1506 C 147.948 -1.10281 -1.68643 0
M  V30 1507 O 147.004 -0.777801 -2.40222 0
M  V30 1508 C 148.317 -3.00648 -0.0561195 0
M  V30 1509 C 149.865 -3.12754 -0.124116 0
M  V30 1510 C 150.34 -4.57965 0.0564972 0
M  V30 1511 N 151.831 -4.632 0.00155611 0
M  V30 1512 C 152.566 -5.73281 0.116598 0
M  V30 1513 N 152.062 -6.92208 0.286294 0
M  V30 1514 N 153.855 -5.6207 0.0580973 0
M  V30 1515 H 146.006 -1.86262 1.02079 0
M  V30 1516 H 148.269 -0.859579 0.399786 0
M  V30 1517 H 147.975 -3.393 0.925669 0
M  V30 1518 H 147.849 -3.68623 -0.799823 0
M  V30 1519 H 150.236 -2.73976 -1.09641 0
M  V30 1520 H 150.317 -2.47377 0.651024 0
M  V30 1521 H 149.961 -4.97436 1.02564 0
M  V30 1522 H 149.891 -5.21399 -0.738297 0
M  V30 1523 H 152.382 -3.77686 -0.127192 0
M  V30 1524 H 152.695 -7.71934 0.365676 0
M  V30 1525 H 151.04 -6.94254 0.32192 0
M  V30 1526 H 154.231 -4.68043 -0.0733204 0
M  V30 1527 H 154.404 -6.47824 0.151203 0
M  V30 1528 N 147.81 0.181792 -1.56548 0
M  V30 1529 C 149.056 0.901431 -1.81665 0
M  V30 1530 C 149.389 1.82347 -0.668075 0
M  V30 1531 O 148.664 1.91669 0.330615 0
M  V30 1532 C 148.947 1.70618 -3.17115 0
M  V30 1533 C 148.8 0.807964 -4.42484 0
M  V30 1534 C 150.119 2.67605 -3.49393 0
M  V30 1535 H 147.238 0.32627 -0.660846 0
M  V30 1536 H 149.88 0.168134 -1.89255 0
M  V30 1537 H 148.03 2.33133 -3.10775 0
M  V30 1538 H 149.702 0.19649 -4.60881 0
M  V30 1539 H 147.945 0.115411 -4.33646 0
M  V30 1540 H 148.616 1.40632 -5.33785 0
M  V30 1541 H 151.092 2.15218 -3.56118 0
M  V30 1542 H 149.968 3.20985 -4.45264 0
M  V30 1543 H 150.229 3.47298 -2.73563 0
M  V30 1544 N 149.288 1.51039 0.449983 0
M  V30 1545 C 150.513 1.6715 1.22783 0
M  V30 1546 C 150.938 0.363081 1.84563 0
M  V30 1547 O 150.296 -0.675433 1.68249 0
M  V30 1548 C 150.344 2.77985 2.29689 0
M  V30 1549 O 149.448 2.40707 3.34864 0
M  V30 1550 H 148.789 0.557746 0.360299 0
M  V30 1551 H 151.319 1.97535 0.533005 0
M  V30 1552 H 151.329 3.01693 2.74673 0
M  V30 1553 H 150.004 3.72935 1.84098 0
M  V30 1554 H 148.581 2.27523 2.95445 0
M  V30 1555 N 150.766 -0.704594 1.40972 0
M  V30 1556 C 152.006 -1.47691 1.41304 0
M  V30 1557 C 152.37 -1.91992 0.0178582 0
M  V30 1558 O 153.571 -2.68599 -0.103996 0
M  V30 1559 C 151.842 -2.66254 2.38419 0
M  V30 1560 S 153.401 -3.55516 2.57204 0
M  V30 1561 H 150.219 -0.504808 0.500689 0
M  V30 1562 H 152.821 -0.822962 1.77335 0
M  V30 1563 H 151.525 -2.31897 3.38603 0
M  V30 1564 H 151.056 -3.3655 2.03711 0
M  V30 1565 H 153.071 -4.61115 1.83268 0
M  V30 1566 N 152.244 -1.26651 -0.937939 0
M  V30 1567 C 153.174 -1.10993 -2.05433 0
M  V30 1568 C 154.155 -0.0142161 -1.70094 0
M  V30 1569 O 155.34 -0.186837 -1.93299 0
M  V30 1570 C 152.47 -0.745561 -3.39203 0
M  V30 1571 C 151.424 -1.79337 -3.88616 0
M  V30 1572 C 150.75 -1.28324 -5.19073 0
M  V30 1573 C 152.05 -3.19553 -4.13138 0
M  V30 1574 H 153.744 -2.0438 -2.1879 0
M  V30 1575 H 151.29 -0.984041 -1.05131 0
M  V30 1576 H 153.243 -0.622888 -4.16771 0
M  V30 1577 H 151.967 0.22401 -3.25831 0
M  V30 1578 H 150.626 -1.90477 -3.13231 0
M  V30 1579 H 150.274 -0.303414 -5.02084 0
M  V30 1580 H 149.974 -1.98369 -5.53103 0
M  V30 1581 H 151.498 -1.1733 -5.99221 0
M  V30 1582 H 152.912 -3.11471 -4.81309 0
M  V30 1583 H 151.309 -3.87218 -4.58457 0
M  V30 1584 H 152.379 -3.65368 -3.18801 0
M  V30 1585 N 153.722 1.14298 -1.08507 0
M  V30 1586 C 154.97 1.84993 -0.813763 0
M  V30 1587 C 155.291 1.83405 0.662393 0
M  V30 1588 O 154.561 1.28319 1.48024 0
M  V30 1589 H 153.141 0.684966 -0.298045 0
M  V30 1590 H 155.803 1.385 -1.37126 0
M  V30 1591 H 154.899 2.89788 -1.15884 0
M  V30 1592 N 155.201 0.870884 1.31352 0
M  V30 1593 C 156.131 0.343096 2.30966 0
M  V30 1594 C 157.112 -0.566507 1.60389 0
M  V30 1595 O 158.297 -0.483336 1.88089 0
M  V30 1596 C 155.427 -0.455487 3.443 0
M  V30 1597 C 154.381 0.361103 4.26474 0
M  V30 1598 C 153.707 -0.563221 5.31725 0
M  V30 1599 C 155.007 1.59566 4.97329 0
M  V30 1600 H 156.701 1.17548 2.75359 0
M  V30 1601 H 154.247 0.566686 1.32381 0
M  V30 1602 H 156.2 -0.83525 4.13039 0
M  V30 1603 H 154.924 -1.32139 2.98675 0
M  V30 1604 H 153.583 0.722825 3.59403 0
M  V30 1605 H 153.231 -1.42643 4.82351 0
M  V30 1606 H 152.931 -0.0207409 5.87596 0
M  V30 1607 H 154.455 -0.939808 6.03324 0
M  V30 1608 H 155.869 1.28728 5.58661 0
M  V30 1609 H 154.266 2.07728 5.63 0
M  V30 1610 H 155.336 2.34798 4.24262 0
M  V30 1611 N 156.679 -1.44442 0.630414 0
M  V30 1612 C 157.927 -2.01653 0.134351 0
M  V30 1613 C 158.248 -1.49836 -1.24796 0
M  V30 1614 O 157.518 -0.701684 -1.82902 0
M  V30 1615 H 156.098 -0.74554 0.0466769 0
M  V30 1616 H 158.76 -1.76952 0.816955 0
M  V30 1617 H 157.856 -3.11935 0.101498 0
M  V30 1618 N 158.157 -0.370918 -1.53173 0
M  V30 1619 C 159.385 0.217704 -2.05751 0
M  V30 1620 C 159.8 1.42018 -1.24404 0
M  V30 1621 O 159.157 1.80245 -0.286033 0
M  V30 1622 C 159.208 0.605954 -3.56385 0
M  V30 1623 O 158.929 -0.548734 -4.3465 0
M  V30 1624 C 160.43 1.2524 -4.25241 0
M  V30 1625 H 157.65 0.0371659 -0.66997 0
M  V30 1626 H 160.194 -0.530832 -1.9749 0
M  V30 1627 H 158.349 1.3044 -3.6478 0
M  V30 1628 H 158.763 -0.23376 -5.23979 0
M  V30 1629 H 160.237 1.47458 -5.3194 0
M  V30 1630 H 160.714 2.2143 -3.79296 0
M  V30 1631 H 161.32 0.595233 -4.21114 0
M  V30 1632 N 159.635 1.57281 -0.100228 0
M  V30 1633 C 160.881 1.95626 0.556946 0
M  V30 1634 C 161.236 0.981655 1.65473 0
M  V30 1635 O 160.529 0.00849847 1.91598 0
M  V30 1636 C 160.723 3.38305 1.15259 0
M  V30 1637 C 160.552 4.49555 0.114035 0
M  V30 1638 C 159.322 5.0434 -0.311266 0
M  V30 1639 C 161.52 5.10051 -0.659768 0
M  V30 1640 N 159.502 5.99152 -1.33755 0
M  V30 1641 C 160.873 6.00628 -1.53774 0
M  V30 1642 C 162.928 4.92772 -0.712723 0
M  V30 1643 C 161.631 6.7578 -2.46403 0
M  V30 1644 C 163.657 5.6859 -1.62663 0
M  V30 1645 C 163.019 6.58838 -2.49222 0
M  V30 1646 H 159.118 0.7624 0.173982 0
M  V30 1647 H 161.702 1.93829 -0.183988 0
M  V30 1648 H 159.873 3.40786 1.86332 0
M  V30 1649 H 161.605 3.63817 1.77254 0
M  V30 1650 H 158.36 4.73537 0.0774812 0
M  V30 1651 H 158.784 6.5126 -1.84905 0
M  V30 1652 H 163.426 4.22761 -0.0576648 0
M  V30 1653 H 161.144 7.4505 -3.12931 0
M  V30 1654 H 164.73 5.57233 -1.67281 0
M  V30 1655 H 163.61 7.16479 -3.18791 0
M  V30 1656 N 161.113 -0.173488 1.56642 0
M  V30 1657 C 162.359 -0.891784 1.8214 0
M  V30 1658 C 162.692 -1.8199 0.677736 0
M  V30 1659 O 161.967 -1.91842 -0.320446 0
M  V30 1660 C 162.25 -1.68933 3.18015 0
M  V30 1661 C 162.103 -0.784487 4.42906 0
M  V30 1662 C 163.422 -2.65748 3.50808 0
M  V30 1663 H 160.541 -0.322761 0.662567 0
M  V30 1664 H 163.183 -0.158095 1.89341 0
M  V30 1665 H 161.333 -2.31482 3.12007 0
M  V30 1666 H 163.005 -0.172046 4.60979 0
M  V30 1667 H 161.248 -0.0924117 4.33702 0
M  V30 1668 H 161.919 -1.37799 5.34524 0
M  V30 1669 H 164.395 -2.13327 3.57255 0
M  V30 1670 H 163.271 -3.18619 4.4696 0
M  V30 1671 H 163.532 -3.45842 2.75401 0
M  V30 1672 N 162.591 -1.51276 -0.441967 0
M  V30 1673 C 163.819 -1.67516 -1.21434 0
M  V30 1674 C 164.234 -0.37055 -1.85128 0
M  V30 1675 O 163.591 0.650498 -1.70513 0
M  V30 1676 C 163.642 -2.78748 -2.30177 0
M  V30 1677 O 163.363 -4.04154 -1.69089 0
M  V30 1678 C 164.864 -3.06217 -3.20541 0
M  V30 1679 H 162.084 -0.562276 -0.366178 0
M  V30 1680 H 164.628 -1.97666 -0.524244 0
M  V30 1681 H 162.783 -2.5121 -2.94911 0
M  V30 1682 H 163.197 -4.65894 -2.40922 0
M  V30 1683 H 164.671 -3.8764 -3.92987 0
M  V30 1684 H 165.148 -2.18439 -3.81026 0
M  V30 1685 H 165.754 -3.35397 -2.61513 0
M  V30 1686 N 164.069 0.697108 -1.41344 0
M  V30 1687 C 165.316 1.45714 -1.40619 0
M  V30 1688 C 165.644 1.94494 -0.0147907 0
M  V30 1689 O 164.899 1.69794 0.973066 0
M  V30 1690 C 165.198 2.68553 -2.35826 0
M  V30 1691 C 164.864 2.38438 -3.82698 0
M  V30 1692 C 163.526 2.29936 -4.22709 0
M  V30 1693 C 165.878 2.13567 -4.75435 0
M  V30 1694 C 163.206 1.94656 -5.53467 0
M  V30 1695 C 165.558 1.79797 -6.06511 0
M  V30 1696 C 164.222 1.69789 -6.45545 0
M  V30 1697 H 163.492 0.533206 -0.51456 0
M  V30 1698 H 166.139 0.796901 -1.74131 0
M  V30 1699 H 164.444 3.39503 -1.95563 0
M  V30 1700 H 166.141 3.2669 -2.32539 0
M  V30 1701 H 162.731 2.4595 -3.51008 0
M  V30 1702 H 166.915 2.19082 -4.45328 0
M  V30 1703 H 162.171 1.8546 -5.82593 0
M  V30 1704 H 166.345 1.59572 -6.77872 0
M  V30 1705 H 163.972 1.4222 -7.46778 0
M  V30 1706 N 165.547 1.27147 0.931209 0
M  V30 1707 C 166.795 1.13055 1.6752 0
M  V30 1708 C 167.116 -0.324791 1.92276 0
M  V30 1709 O 166.386 -1.22775 1.52654 0
M  V30 1710 H 164.966 0.415391 0.620854 0
M  V30 1711 H 167.628 1.59623 1.11833 0
M  V30 1712 H 166.724 1.65694 2.64485 0
M  V30 1713 N 167.025 -1.13721 1.09112 0
M  V30 1714 C 168.273 -1.84559 0.823562 0
M  V30 1715 C 168.594 -1.83754 -0.652658 0
M  V30 1716 O 167.864 -1.29102 -1.47342 0
M  V30 1717 H 166.444 -0.683376 0.301673 0
M  V30 1718 H 169.106 -1.37771 1.37859 0
M  V30 1719 H 168.202 -2.8917 1.17419 0
M  V30 1720 N 168.503 -0.877838 -1.30888 0
M  V30 1721 C 169.435 -0.296607 -2.27273 0
M  V30 1722 C 170.448 0.544799 -1.53414 0
M  V30 1723 O 171.637 0.365511 -1.74718 0
M  V30 1724 C 168.737 0.597481 -3.33592 0
M  V30 1725 C 167.91 -0.213251 -4.3688 0
M  V30 1726 C 166.969 0.610208 -5.2265 0
M  V30 1727 O 165.995 0.035441 -5.69189 0
M  V30 1728 N 167.197 1.92071 -5.47804 0
M  V30 1729 H 169.962 -1.12492 -2.77787 0
M  V30 1730 H 167.523 -0.740105 -1.43993 0
M  V30 1731 H 169.515 1.15425 -3.87891 0
M  V30 1732 H 168.085 1.32647 -2.83061 0
M  V30 1733 H 167.305 -0.951466 -3.82545 0
M  V30 1734 H 168.593 -0.769262 -5.02951 0
M  V30 1735 H 167.991 2.4107 -5.11763 0
M  V30 1736 H 166.548 2.42508 -6.05007 0
M  V30 1737 N 169.982 1.44106 -0.638065 0
M  V30 1738 C 171.231 2.01194 -0.142744 0
M  V30 1739 C 171.544 1.50835 1.24532 0
M  V30 1740 O 172.75 2.00096 1.83504 0
M  V30 1741 C 171.206 3.59319 -0.20442 0
M  V30 1742 C 170.814 4.18674 -1.59423 0
M  V30 1743 C 172.558 4.23854 0.234079 0
M  V30 1744 C 170.465 5.69045 -1.61065 0
M  V30 1745 H 169.395 0.752367 -0.0495998 0
M  V30 1746 H 172.046 1.65246 -0.797881 0
M  V30 1747 H 170.428 3.92598 0.517946 0
M  V30 1748 H 171.602 3.96921 -2.34074 0
M  V30 1749 H 169.917 3.66453 -1.97741 0
M  V30 1750 H 172.514 5.34155 0.241443 0
M  V30 1751 H 172.857 3.96688 1.2627 0
M  V30 1752 H 173.39 3.95403 -0.436025 0
M  V30 1753 H 170.129 6.00956 -2.61787 0
M  V30 1754 H 169.649 5.929 -0.90718 0
M  V30 1755 H 171.328 6.32809 -1.34766 0
M  V30 1756 N 171.46 0.379036 1.52974 0
M  V30 1757 C 172.685 -0.209353 2.06341 0
M  V30 1758 C 173.11 -1.40583 1.24972 0
M  V30 1759 O 172.468 -1.79246 0.272155 0
M  V30 1760 C 172.516 -0.567786 3.56102 0
M  V30 1761 O 171.62 -1.66318 3.77375 0
M  V30 1762 H 170.961 -0.0272919 0.663439 0
M  V30 1763 H 173.491 0.543536 1.97248 0
M  V30 1764 H 173.501 -0.835003 3.99364 0
M  V30 1765 H 172.176 0.307013 4.14765 0
M  V30 1766 H 170.753 -1.39048 3.46006 0
M  V30 1767 N 172.938 -1.57226 0.108567 0
M  V30 1768 C 174.215 -1.86333 -0.594939 0
M  V30 1769 C 174.595 -1.00788 -1.85486 0
M  V30 1770 O 173.943 -0.0839293 -2.28346 0
M  V30 1771 C 174.153 -3.37265 -0.897405 0
M  V30 1772 C 175.501 -4.05629 -1.25501 0
M  V30 1773 O 176.525 -3.42224 -0.987998 0
M  V30 1774 O 175.384 -5.17531 -1.75567 0
M  V30 1775 H 172.478 -0.771018 -0.2991 0
M  V30 1776 H 175.024 -1.69102 0.142283 0
M  V30 1777 H 173.796 -3.913 -0.00413806 0
M  V30 1778 H 173.419 -3.59889 -1.69014 0
M  V30 1779 N 174.416 0.165178 -1.56732 0
M  V30 1780 C 175.326 1.22423 -2.00125 0
M  V30 1781 C 176.342 1.48084 -0.913619 0
M  V30 1782 O 177.518 1.60112 -1.22172 0
M  V30 1783 C 174.583 2.54197 -2.35764 0
M  V30 1784 C 173.644 2.36343 -3.58386 0
M  V30 1785 C 172.877 3.61834 -3.92316 0
M  V30 1786 O 173.1 4.67267 -3.27135 0
M  V30 1787 O 172.034 3.55579 -4.85641 0
M  V30 1788 H 175.86 0.885886 -2.90492 0
M  V30 1789 H 173.445 0.372518 -1.44681 0
M  V30 1790 H 175.327 3.3192 -2.59629 0
M  V30 1791 H 174.002 2.87598 -1.48557 0
M  V30 1792 H 172.909 1.56632 -3.39731 0
M  V30 1793 H 174.242 2.07865 -4.46154 0
M  V30 1794 N 175.894 1.51508 0.433938 0
M  V30 1795 C 177.14 1.64588 1.18484 0
M  V30 1796 C 177.473 0.362666 1.90784 0
M  V30 1797 O 176.748 -0.637892 1.83742 0
M  V30 1798 C 177.031 2.85149 2.19913 0
M  V30 1799 C 176.884 4.23456 1.51674 0
M  V30 1800 C 178.203 3.01227 3.20858 0
M  V30 1801 H 175.322 0.598994 0.429389 0
M  V30 1802 H 177.964 1.84002 0.473647 0
M  V30 1803 H 176.114 2.68729 2.80566 0
M  V30 1804 H 177.786 4.51552 0.943322 0
M  V30 1805 H 176.029 4.25998 0.819035 0
M  V30 1806 H 176.7 5.03812 2.2556 0
M  V30 1807 H 179.176 3.16382 2.70263 0
M  V30 1808 H 178.052 3.87141 3.89118 0
M  V30 1809 H 178.313 2.13447 3.8716 0
M  V30 1810 N 177.372 -0.689602 1.41712 0
M  V30 1811 C 178.335 -1.78521 1.43746 0
M  V30 1812 C 179.335 -1.57436 0.327191 0
M  V30 1813 O 180.525 -1.64 0.587348 0
M  V30 1814 C 177.657 -3.16971 1.25467 0
M  V30 1815 H 178.85 -1.78108 2.41283 0
M  V30 1816 H 176.403 -0.89781 1.27942 0
M  V30 1817 H 177.138 -3.23019 0.287948 0
M  V30 1818 H 176.923 -3.33678 2.05917 0
M  V30 1819 H 178.413 -3.96935 1.2974 0
M  V30 1820 N 178.85 -1.27639 -0.924453 0
M  V30 1821 C 179.76 -1.12466 -2.05885 0
M  V30 1822 C 180.776 -0.053869 -1.73917 0
M  V30 1823 O 181.952 -0.261012 -1.99702 0
M  V30 1824 C 179.017 -0.776768 -3.37886 0
M  V30 1825 C 178.078 -1.92878 -3.83532 0
M  V30 1826 C 177.311 -1.59739 -5.09234 0
M  V30 1827 O 177.534 -0.506782 -5.68144 0
M  V30 1828 O 176.468 -2.43761 -5.50331 0
M  V30 1829 H 180.294 -2.07671 -2.21599 0
M  V30 1830 H 177.879 -1.06857 -1.04413 0
M  V30 1831 H 179.761 -0.596229 -4.17161 0
M  V30 1832 H 178.436 0.145732 -3.23372 0
M  V30 1833 H 177.343 -2.1644 -3.0513 0
M  V30 1834 H 178.676 -2.8316 -4.02593 0
M  V30 1835 N 180.328 1.1314 -1.09713 0
M  V30 1836 C 181.744 1.36477 -0.827423 0
M  V30 1837 C 181.944 1.93654 0.556817 0
M  V30 1838 O 181 2.15791 1.31112 0
M  V30 1839 C 182.313 2.31334 -1.92106 0
M  V30 1840 C 183.861 2.44943 -1.94864 0
M  V30 1841 C 184.336 3.4311 -3.0338 0
M  V30 1842 N 185.827 3.50662 -3.02639 0
M  V30 1843 C 186.562 4.2651 -3.83246 0
M  V30 1844 N 186.058 5.05485 -4.73768 0
M  V30 1845 N 187.851 4.2184 -3.71493 0
M  V30 1846 H 180.002 0.743807 -1.9895 0
M  V30 1847 H 182.265 0.389823 -0.864143 0
M  V30 1848 H 181.971 1.96483 -2.91698 0
M  V30 1849 H 181.845 3.31381 -1.80184 0
M  V30 1850 H 184.232 2.79079 -0.959099 0
M  V30 1851 H 184.313 1.4481 -2.10864 0
M  V30 1852 H 183.957 3.09704 -4.02549 0
M  V30 1853 H 183.887 4.43055 -2.84622 0
M  V30 1854 H 186.378 2.94315 -2.37039 0
M  V30 1855 H 186.691 5.60675 -5.3185 0
M  V30 1856 H 185.036 5.04708 -4.77802 0
M  V30 1857 H 188.227 3.5922 -3.00131 0
M  V30 1858 H 188.4 4.80697 -4.3455 0
M  V30 1859 N 181.806 0.884767 1.30421 0
M  V30 1860 C 182.736 0.367574 2.30589 0
M  V30 1861 C 183.717 -0.549464 1.60981 0
M  V30 1862 O 184.902 -0.46336 1.88591 0
M  V30 1863 C 182.032 -0.418944 3.44764 0
M  V30 1864 C 180.986 0.406316 4.26067 0
M  V30 1865 C 180.312 -0.506793 5.32293 0
M  V30 1866 C 181.612 1.64832 4.95608 0
M  V30 1867 H 183.306 1.20462 2.74097 0
M  V30 1868 H 180.852 0.580695 1.31772 0
M  V30 1869 H 182.805 -0.791395 4.13902 0
M  V30 1870 H 181.529 -1.28964 3.0006 0
M  V30 1871 H 180.188 0.760903 3.58617 0
M  V30 1872 H 179.836 -1.37519 4.83836 0
M  V30 1873 H 179.536 0.0415828 5.87585 0
M  V30 1874 H 181.06 -0.875764 6.04287 0
M  V30 1875 H 182.474 1.34646 5.57264 0
M  V30 1876 H 180.871 2.13688 5.60765 0
M  V30 1877 H 181.941 2.39284 4.21748 0
M  V30 1878 N 183.284 -1.43765 0.645699 0
M  V30 1879 C 184.217 -2.2798 -0.100072 0
M  V30 1880 C 185.195 -1.39391 -0.837194 0
M  V30 1881 O 186.379 -1.68833 -0.838306 0
M  V30 1882 C 183.506 -3.18643 -1.14823 0
M  V30 1883 C 182.552 -4.2344 -0.510009 0
M  V30 1884 S 183.385 -5.30761 0.710824 0
M  V30 1885 C 184.541 -6.24992 -0.33699 0
M  V30 1886 H 184.774 -2.90884 0.614322 0
M  V30 1887 H 182.307 -1.48166 0.434304 0
M  V30 1888 H 184.265 -3.71424 -1.74799 0
M  V30 1889 H 182.926 -2.54932 -1.8349 0
M  V30 1890 H 182.119 -4.86948 -1.29991 0
M  V30 1891 H 181.721 -3.73997 0.0154577 0
M  V30 1892 H 184.013 -6.66691 -1.20537 0
M  V30 1893 H 184.956 -7.07612 0.262879 0
M  V30 1894 H 185.364 -5.60517 -0.669425 0
M  V30 1895 N 184.763 -0.387143 -1.52771 0
M  V30 1896 C 185.991 0.195869 -2.05971 0
M  V30 1897 C 186.406 1.40691 -1.25903 0
M  V30 1898 O 185.763 1.79931 -0.305134 0
M  V30 1899 C 185.814 0.56812 -3.57008 0
M  V30 1900 O 185.535 -0.594803 -4.34043 0
M  V30 1901 C 187.036 1.20723 -4.26545 0
M  V30 1902 H 184.256 0.0300578 -0.670326 0
M  V30 1903 H 186.8 -0.551749 -1.96916 0
M  V30 1904 H 184.955 1.26564 -3.66143 0
M  V30 1905 H 185.369 -0.289322 -5.23701 0
M  V30 1906 H 186.843 1.41807 -5.33474 0
M  V30 1907 H 187.32 2.17395 -3.81623 0
M  V30 1908 H 187.926 0.550535 -4.21722 0
M  V30 1909 N 186.241 1.57166 -0.116904 0
M  V30 1910 C 187.49 1.94298 0.541407 0
M  V30 1911 C 187.803 1.00236 1.67964 0
M  V30 1912 O 189.009 1.26826 2.40057 0
M  V30 1913 C 187.465 3.45306 1.01449 0
M  V30 1914 C 187.073 4.47899 -0.0951738 0
M  V30 1915 C 188.817 3.91361 1.6443 0
M  V30 1916 C 186.724 5.90083 0.394491 0
M  V30 1917 H 185.654 0.725308 0.206019 0
M  V30 1918 H 188.305 1.82446 -0.196419 0
M  V30 1919 H 186.687 3.52385 1.80667 0
M  V30 1920 H 187.861 4.52486 -0.871374 0
M  V30 1921 H 186.176 4.11583 -0.631505 0
M  V30 1922 H 188.773 4.95004 2.02176 0
M  V30 1923 H 189.116 3.3122 2.52189 0
M  V30 1924 H 189.649 3.87073 0.917559 0
M  V30 1925 H 186.388 6.53974 -0.447004 0
M  V30 1926 H 185.908 5.88921 1.13722 0
M  V30 1927 H 187.587 6.41307 0.856399 0
M  V30 1928 N 187.719 -0.156864 1.56817 0
M  V30 1929 C 188.682 -1.17781 1.96622 0
M  V30 1930 C 189.682 -1.36401 0.851555 0
M  V30 1931 O 190.872 -1.33561 1.11836 0
M  V30 1932 C 188.004 -2.54008 2.27361 0
M  V30 1933 H 189.197 -0.836564 2.87996 0
M  V30 1934 H 186.75 -0.39985 1.51099 0
M  V30 1935 H 187.485 -2.9312 1.38748 0
M  V30 1936 H 187.27 -2.41856 3.08623 0
M  V30 1937 H 188.76 -3.27558 2.59029 0
M  V30 1938 N 189.197 -1.51736 -0.425897 0
M  V30 1939 C 190.427 -1.68549 -1.19476 0
M  V30 1940 C 190.835 -0.387288 -1.85194 0
M  V30 1941 O 190.178 0.645142 -1.71999 0
M  V30 1942 C 190.24 -2.75275 -2.31223 0
M  V30 1943 C 189.904 -4.17534 -1.8578 0
M  V30 1944 C 190.901 -5.01936 -1.35485 0
M  V30 1945 C 188.586 -4.6369 -1.93123 0
M  V30 1946 C 190.58 -6.30559 -0.931347 0
M  V30 1947 C 188.267 -5.92307 -1.50384 0
M  V30 1948 C 189.265 -6.75569 -1.00473 0
M  V30 1949 O 188.953 -8.0178 -0.583452 0
M  V30 1950 H 188.685 -0.568525 -0.365725 0
M  V30 1951 H 191.239 -1.98982 -0.509444 0
M  V30 1952 H 189.469 -2.40182 -3.03067 0
M  V30 1953 H 191.158 -2.80853 -2.93047 0
M  V30 1954 H 191.924 -4.67475 -1.29197 0
M  V30 1955 H 187.803 -3.98997 -2.30916 0
M  V30 1956 H 191.347 -6.95498 -0.541084 0
M  V30 1957 H 187.244 -6.2628 -1.56346 0
M  V30 1958 H 188.012 -8.1543 -0.708275 0
M  V30 1959 N 190.675 0.682077 -1.42076 0
M  V30 1960 C 191.585 1.82535 -1.47371 0
M  V30 1961 C 192.601 1.7017 -0.363079 0
M  V30 1962 O 193.777 1.91848 -0.612875 0
M  V30 1963 C 190.842 3.18624 -1.36674 0
M  V30 1964 C 189.903 3.42999 -2.58167 0
M  V30 1965 C 189.136 4.72595 -2.4797 0
M  V30 1966 O 189.359 5.50006 -1.5116 0
M  V30 1967 O 188.293 4.98054 -3.37974 0
M  V30 1968 H 192.119 1.81023 -2.43853 0
M  V30 1969 H 189.704 0.836887 -1.2376 0
M  V30 1970 H 191.586 3.99847 -1.33043 0
M  V30 1971 H 190.261 3.20789 -0.433138 0
M  V30 1972 H 189.168 2.61653 -2.67373 0
M  V30 1973 H 190.501 3.45659 -3.50401 0
M  V30 1974 N 192.153 1.28127 0.917671 0
M  V30 1975 C 193.378 1.18007 1.70555 0
M  V30 1976 C 193.803 -0.258257 1.86319 0
M  V30 1977 O 193.161 -1.1869 1.37049 0
M  V30 1978 C 193.209 1.87948 3.07746 0
M  V30 1979 O 192.313 1.18427 3.9503 0
M  V30 1980 H 191.654 0.409867 0.522403 0
M  V30 1981 H 194.184 1.69379 1.1477 0
M  V30 1982 H 194.194 1.95701 3.58001 0
M  V30 1983 H 192.869 2.92573 2.95591 0
M  V30 1984 H 191.446 1.18811 3.53466 0
M  V30 1985 N 193.631 -1.12557 1.10312 0
M  V30 1986 C 194.879 -1.83675 0.843091 0
M  V30 1987 C 195.2 -1.84435 -0.633131 0
M  V30 1988 O 194.47 -1.30657 -1.45964 0
M  V30 1989 H 193.05 -0.680138 0.308904 0
M  V30 1990 H 195.712 -1.36301 1.39313 0
M  V30 1991 H 194.808 -2.87908 1.2048 0
M  V30 1992 N 195.109 -0.891671 -1.2995 0
M  V30 1993 C 196.355 -0.514261 -1.96171 0
M  V30 1994 C 196.688 0.935506 -1.70182 0
M  V30 1995 O 195.963 1.66204 -1.01028 0
M  V30 1996 C 196.246 -0.797719 -3.51153 0
M  V30 1997 C 196.099 -2.2986 -3.86632 0
M  V30 1998 C 197.418 -0.278749 -4.39216 0
M  V30 1999 H 194.537 -0.188314 -0.712535 0
M  V30 2000 H 197.179 -1.11689 -1.53706 0
M  V30 2001 H 195.329 -0.284826 -3.87455 0
M  V30 2002 H 197.001 -2.88042 -3.60319 0
M  V30 2003 H 195.244 -2.76257 -3.34462 0
M  V30 2004 H 195.915 -2.44753 -4.94773 0
M  V30 2005 H 198.391 -0.717825 -4.09862 0
M  V30 2006 H 197.267 -0.506353 -5.46559 0
M  V30 2007 H 197.528 0.820266 -4.34424 0
M  V30 2008 N 196.587 1.43421 -0.653314 0
M  V30 2009 C 197.535 2.32546 0.0501531 0
M  V30 2010 C 198.529 1.48617 0.812985 0
M  V30 2011 O 199.735 1.64825 0.723375 0
M  V30 2012 H 196.11 0.751185 0.0350032 0
M  V30 2013 H 198.081 2.89602 -0.719261 0
M  V30 2014 C 196.83 3.32925 1.00279 0
M  V30 2015 H 196.153 3.97532 0.425236 0
M  V30 2016 H 197.593 3.9792 1.46409 0
M  V30 2017 C 196.052 2.63532 2.09886 0
M  V30 2018 O 196.582 2.45092 3.18265 0
M  V30 2019 N 194.788 2.22905 1.86445 0
M  V30 2020 H 194.335 2.38103 0.98309 0
M  V30 2021 H 194.293 1.76805 2.59976 0
M  V30 2022 N 198.065 0.39524 1.52563 0
M  V30 2023 C 198.995 -0.428384 2.29537 0
M  V30 2024 C 199.976 -1.05831 1.33169 0
M  V30 2025 O 201.161 -1.06995 1.62067 0
M  V30 2026 C 198.291 -1.55274 3.10656 0
M  V30 2027 C 197.245 -1.04855 4.14957 0
M  V30 2028 C 196.571 -2.26543 4.84337 0
M  V30 2029 C 197.871 -0.112324 5.22179 0
M  V30 2030 H 199.565 0.213867 2.98635 0
M  V30 2031 H 197.111 0.104298 1.43622 0
M  V30 2032 H 199.064 -2.1358 3.63265 0
M  V30 2033 H 197.788 -2.22266 2.39302 0
M  V30 2034 H 196.447 -0.487985 3.63338 0
M  V30 2035 H 196.095 -2.92059 4.09525 0
M  V30 2036 H 195.795 -1.93466 5.54837 0
M  V30 2037 H 197.319 -2.85481 5.39753 0
M  V30 2038 H 198.733 -0.603752 5.70112 0
M  V30 2039 H 197.13 0.128968 5.99961 0
M  V30 2040 H 198.2 0.837052 4.77621 0
M  V30 2041 N 199.544 -1.57102 0.125237 0
M  V30 2042 C 200.791 -1.95407 -0.531248 0
M  V30 2043 C 201.119 -1.0089 -1.66287 0
M  V30 2044 O 200.374 -0.0339431 -1.95671 0
M  V30 2045 C 200.673 -3.40096 -1.09862 0
M  V30 2046 C 200.339 -4.50815 -0.0876989 0
M  V30 2047 C 199.001 -4.80824 0.19026 0
M  V30 2048 C 201.353 -5.17724 0.600902 0
M  V30 2049 C 198.681 -5.75058 1.163 0
M  V30 2050 C 201.033 -6.13005 1.56231 0
M  V30 2051 C 199.697 -6.41403 1.8482 0
M  V30 2052 H 198.967 -0.715046 -0.194397 0
M  V30 2053 H 201.614 -1.90373 0.207463 0
M  V30 2054 H 199.919 -3.41855 -1.91422 0
M  V30 2055 H 201.616 -3.6705 -1.61478 0
M  V30 2056 H 198.206 -4.27444 -0.314528 0
M  V30 2057 H 202.39 -4.94691 0.399333 0
M  V30 2058 H 197.646 -5.95362 1.39117 0
M  V30 2059 H 201.82 -6.63934 2.10153 0
M  V30 2060 H 199.447 -7.14229 2.60349 0
M  V30 2061 N 201.022 0.148545 -1.56898 0
M  V30 2062 C 202.299 0.890019 -1.74178 0
M  V30 2063 C 202.679 1.99407 -0.692839 0
M  V30 2064 O 202.027 2.26671 0.288505 0
M  V30 2065 C 202.237 1.43389 -3.18183 0
M  V30 2066 C 203.585 1.89791 -3.79822 0
M  V30 2067 O 204.609 1.53134 -3.21603 0
M  V30 2068 O 203.468 2.57387 -4.82093 0
M  V30 2069 H 200.562 0.420496 -0.712118 0
M  V30 2070 H 203.108 0.134591 -1.69165 0
M  V30 2071 H 201.88 0.640383 -3.86024 0
M  V30 2072 H 201.503 2.25287 -3.27615 0
M  V30 2073 N 202.5 1.5196 0.417844 0
M  V30 2074 C 203.728 1.69426 1.18753 0
M  V30 2075 C 204.143 0.399955 1.84515 0
M  V30 2076 O 203.5 -0.623288 1.71527 0
M  V30 2077 C 203.551 2.82375 2.25714 0
M  V30 2078 O 203.272 4.06793 1.62638 0
M  V30 2079 C 204.773 3.11277 3.15628 0
M  V30 2080 H 201.993 0.568031 0.357186 0
M  V30 2081 H 204.537 1.98475 0.49273 0
M  V30 2082 H 202.692 2.5587 2.90877 0
M  V30 2083 H 203.106 4.69667 2.3348 0
M  V30 2084 H 204.58 3.93843 3.86771 0
M  V30 2085 H 205.057 2.24473 3.77503 0
M  V30 2086 H 205.663 3.39515 2.56144 0
M  V30 2087 N 203.978 -0.674533 1.42435 0
M  V30 2088 C 204.941 -1.76986 1.45632 0
M  V30 2089 C 205.941 -1.5708 0.343871 0
M  V30 2090 O 207.131 -1.63367 0.604709 0
M  V30 2091 C 204.263 -3.15623 1.28822 0
M  V30 2092 H 205.456 -1.75539 2.43158 0
M  V30 2093 H 203.009 -0.884189 1.28887 0
M  V30 2094 H 203.744 -3.22696 0.322193 0
M  V30 2095 H 203.529 -3.31475 2.09444 0
M  V30 2096 H 205.019 -3.95537 1.33942 0
M  V30 2097 N 205.456 -1.28612 -0.910864 0
M  V30 2098 C 206.366 -1.14643 -2.0468 0
M  V30 2099 C 207.382 -0.0723121 -1.7385 0
M  V30 2100 O 208.558 -0.282178 -1.99413 0
M  V30 2101 C 205.623 -0.812561 -3.37044 0
M  V30 2102 C 204.684 -1.96935 -3.81465 0
M  V30 2103 C 203.917 -1.65131 -5.07511 0
M  V30 2104 O 204.14 -0.567013 -5.67575 0
M  V30 2105 O 203.074 -2.49585 -5.47714 0
M  V30 2106 H 206.9 -2.1001 -2.19384 0
M  V30 2107 H 204.485 -1.07958 -1.03274 0
M  V30 2108 H 206.367 -0.640441 -4.16505 0
M  V30 2109 H 205.042 0.111426 -3.23508 0
M  V30 2110 H 203.949 -2.19664 -3.02818 0
M  V30 2111 H 205.282 -2.87414 -3.99567 0
M  V30 2112 N 206.934 1.1197 -1.10907 0
M  V30 2113 C 208.18 1.8386 -0.855773 0
M  V30 2114 C 208.513 1.84134 0.617103 0
M  V30 2115 O 207.788 1.29041 1.45529 0
M  V30 2116 C 208.071 3.31305 -1.411 0
M  V30 2117 C 207.924 3.39456 -2.9511 0
M  V30 2118 C 209.243 4.2721 -1.05736 0
M  V30 2119 H 206.362 0.667545 -0.312334 0
M  V30 2120 H 209.004 1.31331 -1.37303 0
M  V30 2121 H 207.154 3.76169 -0.97105 0
M  V30 2122 H 208.826 3.03191 -3.47668 0
M  V30 2123 H 207.069 2.79849 -3.31462 0
M  V30 2124 H 207.74 4.43209 -3.29044 0
M  V30 2125 H 210.216 3.90497 -1.43706 0
M  V30 2126 H 209.092 5.28775 -1.47269 0
M  V30 2127 H 209.353 4.42088 0.0325958 0
M  V30 2128 N 208.412 0.89855 1.29475 0
M  V30 2129 C 209.642 0.538479 1.99459 0
M  V30 2130 C 210.05 -0.880922 1.67441 0
M  V30 2131 O 209.393 -1.59283 0.915127 0
M  V30 2132 C 209.455 0.649564 3.53583 0
M  V30 2133 C 209.119 2.03573 4.09154 0
M  V30 2134 C 210.116 3.00675 4.24135 0
M  V30 2135 C 207.801 2.3448 4.44212 0
M  V30 2136 C 209.795 4.26809 4.73405 0
M  V30 2137 C 207.482 3.60857 4.93179 0
M  V30 2138 C 208.48 4.56836 5.0773 0
M  V30 2139 O 208.168 5.80969 5.55635 0
M  V30 2140 H 207.9 0.205372 0.644048 0
M  V30 2141 H 210.454 1.20958 1.66007 0
M  V30 2142 H 208.684 -0.0785592 3.8662 0
M  V30 2143 H 210.373 0.29881 4.04799 0
M  V30 2144 H 211.139 2.78112 3.97339 0
M  V30 2145 H 207.018 1.60534 4.32145 0
M  V30 2146 H 210.562 5.0173 4.84678 0
M  V30 2147 H 206.459 3.83251 5.19412 0
M  V30 2148 H 207.227 5.83542 5.73952 0
M  V30 2149 N 209.89 -1.43072 0.660911 0
M  V30 2150 C 210.853 -2.29194 -0.0166406 0
M  V30 2151 C 211.853 -1.42609 -0.742912 0
M  V30 2152 O 213.043 -1.64155 -0.583004 0
M  V30 2153 C 210.175 -3.24831 -1.0343 0
M  V30 2154 H 211.368 -2.90596 0.741208 0
M  V30 2155 H 208.921 -1.5048 0.422532 0
M  V30 2156 H 209.656 -2.68339 -1.82111 0
M  V30 2157 H 209.441 -3.88676 -0.517082 0
M  V30 2158 H 210.931 -3.89451 -1.50723 0
M  V30 2159 N 211.368 -0.403325 -1.52352 0
M  V30 2160 C 212.331 0.413051 -2.25447 0
M  V30 2161 C 213.331 0.978513 -1.276 0
M  V30 2162 O 214.521 0.858305 -1.51587 0
M  V30 2163 C 211.653 1.58087 -3.02029 0
M  V30 2164 H 212.846 -0.227094 -2.99039 0
M  V30 2165 H 210.399 -0.155722 -1.55522 0
M  V30 2166 H 211.134 2.25804 -2.32772 0
M  V30 2167 H 210.919 1.18195 -3.73861 0
M  V30 2168 H 212.409 2.1585 -3.57489 0
M  V30 2169 N 212.846 1.57033 -0.133567 0
M  V30 2170 C 214.094 1.953 0.519848 0
M  V30 2171 C 214.415 1.01866 1.66278 0
M  V30 2172 O 213.685 0.0776513 1.95746 0
M  V30 2173 H 212.265 0.721091 0.195032 0
M  V30 2174 H 214.927 1.93809 -0.205921 0
M  V30 2175 H 214.023 2.98695 0.904854 0
M  V30 2176 N 214.325 -0.140222 1.56975 0
M  V30 2177 C 215.272 -1.17292 1.98774 0
M  V30 2178 C 216.242 -1.4232 0.856408 0
M  V30 2179 O 217.427 -1.54541 1.119 0
M  V30 2180 C 214.567 -2.49973 2.37923 0
M  V30 2181 C 213.68 -2.32062 3.64378 0
M  V30 2182 C 212.815 -3.57825 3.926 0
M  V30 2183 C 211.854 -3.3498 5.12303 0
M  V30 2184 N 210.991 -4.52891 5.36502 0
M  V30 2185 H 215.831 -0.809472 2.86795 0
M  V30 2186 H 213.368 -0.388237 1.41884 0
M  V30 2187 H 215.326 -3.27346 2.58652 0
M  V30 2188 H 213.956 -2.84252 1.52972 0
M  V30 2189 H 213.008 -1.45711 3.51387 0
M  V30 2190 H 214.32 -2.11145 4.51906 0
M  V30 2191 H 213.474 -4.43624 4.13863 0
M  V30 2192 H 212.213 -3.81753 3.03506 0
M  V30 2193 H 211.218 -2.4757 4.90906 0
M  V30 2194 H 212.443 -3.12444 6.02956 0
M  V30 2195 H 210.389 -4.76979 4.50363 0
M  V30 2196 H 210.306 -4.35001 6.18312 0
M  V30 2197 H 211.574 -5.39884 5.62268 0
M  V30 2198 N 215.803 -1.52179 -0.40978 0
M  V30 2199 C 216.766 -1.74853 -1.48186 0
M  V30 2200 C 217.766 -0.618417 -1.48433 0
M  V30 2201 O 218.956 -0.886286 -1.49969 0
M  V30 2202 C 216.088 -1.8303 -2.87598 0
M  V30 2203 H 217.281 -2.70559 -1.29374 0
M  V30 2204 H 214.834 -1.42586 -0.640233 0
M  V30 2205 H 215.569 -0.89236 -3.11781 0
M  V30 2206 H 215.354 -2.65187 -2.88822 0
M  V30 2207 H 216.844 -2.02316 -3.65319 0
M  V30 2208 N 217.281 0.66697 -1.42791 0
M  V30 2209 C 218.191 1.80962 -1.49299 0
M  V30 2210 C 219.207 1.69775 -0.381108 0
M  V30 2211 O 220.383 1.91188 -0.633188 0
M  V30 2212 C 217.448 3.17156 -1.40045 0
M  V30 2213 C 216.509 3.40242 -2.6179 0
M  V30 2214 C 215.742 4.69939 -2.52969 0
M  V30 2215 O 215.965 5.48372 -1.56985 0
M  V30 2216 O 214.899 4.94441 -3.43237 0
M  V30 2217 H 218.725 1.78427 -2.45759 0
M  V30 2218 H 216.31 0.823713 -1.24641 0
M  V30 2219 H 218.192 3.98413 -1.37276 0
M  V30 2220 H 216.867 3.20312 -0.467138 0
M  V30 2221 H 215.774 2.58802 -2.70134 0
M  V30 2222 H 217.107 3.41923 -3.54047 0
M  V30 2223 N 218.759 1.29093 0.90403 0
M  V30 2224 C 220.005 1.16986 1.65656 0
M  V30 2225 C 220.338 -0.278925 1.92186 0
M  V30 2226 O 219.613 -1.2019 1.5292 0
M  V30 2227 C 219.896 1.97908 3.0084 0
M  V30 2228 C 219.749 3.50903 2.81403 0
M  V30 2229 C 221.068 1.80208 4.01513 0
M  V30 2230 H 218.187 0.426346 0.601164 0
M  V30 2231 H 220.829 1.58518 1.04747 0
M  V30 2232 H 218.979 1.62616 3.52829 0
M  V30 2233 H 220.651 3.96153 2.36348 0
M  V30 2234 H 218.894 3.76045 2.1627 0
M  V30 2235 H 219.565 4.02791 3.77443 0
M  V30 2236 H 222.041 2.11025 3.58619 0
M  V30 2237 H 220.917 2.39184 4.94047 0
M  V30 2238 H 221.178 0.756119 4.35586 0
M  V30 2239 N 220.237 -1.11381 1.11499 0
M  V30 2240 C 221.486 -1.82494 0.858993 0
M  V30 2241 C 221.799 -1.85605 -0.617278 0
M  V30 2242 O 223.005 -2.52824 -0.989552 0
M  V30 2243 C 221.461 -3.27745 1.48699 0
M  V30 2244 C 221.069 -3.32961 2.99735 0
M  V30 2245 C 222.813 -4.03754 1.31085 0
M  V30 2246 C 220.72 -4.72612 3.55516 0
M  V30 2247 H 219.65 -0.683802 0.317696 0
M  V30 2248 H 222.301 -1.25331 1.34031 0
M  V30 2249 H 220.683 -3.84844 0.933339 0
M  V30 2250 H 221.857 -2.85741 3.61509 0
M  V30 2251 H 220.172 -2.70433 3.16631 0
M  V30 2252 H 222.769 -5.06891 1.70192 0
M  V30 2253 H 223.112 -4.15527 0.253496 0
M  V30 2254 H 223.645 -3.53043 1.83318 0
M  V30 2255 H 220.384 -4.66036 4.60967 0
M  V30 2256 H 219.904 -5.2024 2.98513 0
M  V30 2257 H 221.583 -5.4157 3.53992 0
M  V30 2258 N 221.715 -0.905404 -1.28997 0
M  V30 2259 C 222.645 -0.404212 -2.29975 0
M  V30 2260 C 223.626 0.523784 -1.61835 0
M  V30 2261 O 224.811 0.433298 -1.89304 0
M  V30 2262 C 221.941 0.364042 -3.45387 0
M  V30 2263 C 220.895 -0.474048 -4.25367 0
M  V30 2264 C 220.221 0.422045 -5.33032 0
M  V30 2265 C 221.521 -1.72696 -4.92923 0
M  V30 2266 H 223.215 -1.24807 -2.72146 0
M  V30 2267 H 220.761 -0.601585 -1.30832 0
M  V30 2268 H 222.714 0.725447 -4.15109 0
M  V30 2269 H 221.438 1.24174 -3.02074 0
M  V30 2270 H 220.097 -0.81786 -3.57361 0
M  V30 2271 H 219.745 1.29804 -4.85963 0
M  V30 2272 H 219.445 -0.135057 -5.87445 0
M  V30 2273 H 220.969 0.779517 -6.05604 0
M  V30 2274 H 222.383 -1.43495 -5.55051 0
M  V30 2275 H 220.78 -2.22582 -5.57295 0
M  V30 2276 H 221.85 -2.45964 -4.17887 0
M  V30 2277 N 223.193 1.4272 -0.668489 0
M  V30 2278 C 224.441 2.01226 -0.187769 0
M  V30 2279 C 224.762 1.53092 1.2078 0
M  V30 2280 O 224.032 0.74993 1.80977 0
M  V30 2281 H 222.612 0.744041 -0.0664272 0
M  V30 2282 H 225.274 1.74723 -0.863583 0
M  V30 2283 H 224.37 3.11556 -0.184166 0
M  V30 2284 N 224.671 0.411399 1.52136 0
M  V30 2285 C 225.896 -0.165538 2.06738 0
M  V30 2286 C 226.321 -1.379 1.27926 0
M  V30 2287 O 225.679 -1.78628 0.310114 0
M  V30 2288 C 225.727 -0.492124 3.57226 0
M  V30 2289 O 224.831 -1.58276 3.80818 0
M  V30 2290 H 224.172 -0.0132132 0.663869 0
M  V30 2291 H 226.702 0.585253 1.96051 0
M  V30 2292 H 226.712 -0.750104 4.01045 0
M  V30 2293 H 225.387 0.394922 4.14021 0
M  V30 2294 H 223.964 -1.31677 3.48877 0
M  V30 2295 N 226.149 -1.5696 0.141893 0
M  V30 2296 C 227.398 -1.95135 -0.510427 0
M  V30 2297 C 227.711 -1.02896 -1.66348 0
M  V30 2298 O 228.917 -1.30629 -2.38009 0
M  V30 2299 C 227.373 -3.46876 -0.959427 0
M  V30 2300 C 226.981 -4.47691 0.166419 0
M  V30 2301 C 228.725 -3.93927 -1.58183 0
M  V30 2302 C 226.632 -5.90636 -0.300565 0
M  V30 2303 H 225.562 -0.728494 -0.194454 0
M  V30 2304 H 228.213 -1.8211 0.22542 0
M  V30 2305 H 226.595 -3.55215 -1.75038 0
M  V30 2306 H 227.769 -4.51043 0.94325 0
M  V30 2307 H 226.084 -4.10527 0.696905 0
M  V30 2308 H 228.681 -4.98158 -1.94275 0
M  V30 2309 H 229.024 -3.3519 -2.46888 0
M  V30 2310 H 229.557 -3.88484 -0.855863 0
M  V30 2311 H 226.296 -6.5318 0.550989 0
M  V30 2312 H 225.816 -5.90655 -1.04338 0
M  V30 2313 H 227.495 -6.42588 -0.754265 0
M  V30 2314 N 227.627 0.131896 -1.57047 0
M  V30 2315 C 228.876 0.84044 -1.83356 0
M  V30 2316 C 229.189 1.81646 -0.725535 0
M  V30 2317 O 230.395 2.57025 -0.874659 0
M  V30 2318 C 228.851 1.54528 -3.25037 0
M  V30 2319 C 228.459 0.610902 -4.43815 0
M  V30 2320 C 230.203 2.23972 -3.60606 0
M  V30 2321 C 228.11 1.31823 -5.76521 0
M  V30 2322 H 227.04 0.317599 -0.683847 0
M  V30 2323 H 229.691 0.0931561 -1.83263 0
M  V30 2324 H 228.073 2.33873 -3.19561 0
M  V30 2325 H 229.247 -0.148407 -4.60561 0
M  V30 2326 H 227.562 0.0241016 -4.16393 0
M  V30 2327 H 230.159 2.77558 -4.57018 0
M  V30 2328 H 230.502 3.01173 -2.87403 0
M  V30 2329 H 231.035 1.51529 -3.6781 0
M  V30 2330 H 227.774 0.587771 -6.52859 0
M  V30 2331 H 227.294 2.04987 -5.63685 0
M  V30 2332 H 228.973 1.855 -6.19838 0
M  V30 2333 N 229.106 1.52395 0.401703 0
M  V30 2334 C 230.053 1.76268 1.48991 0
M  V30 2335 C 231.023 0.605386 1.54675 0
M  V30 2336 O 232.208 0.843742 1.7113 0
M  V30 2337 C 229.348 1.92592 2.86361 0
M  V30 2338 C 228.461 3.20259 2.89928 0
M  V30 2339 C 227.596 3.26972 4.18644 0
M  V30 2340 C 226.635 4.48812 4.16214 0
M  V30 2341 N 225.772 4.52877 5.36514 0
M  V30 2342 H 230.612 2.6914 1.27935 0
M  V30 2343 H 228.149 1.33355 0.620871 0
M  V30 2344 H 230.107 2.0004 3.66115 0
M  V30 2345 H 228.737 1.03093 3.05895 0
M  V30 2346 H 227.789 3.21945 2.02621 0
M  V30 2347 H 229.101 4.10056 2.83999 0
M  V30 2348 H 228.255 3.33533 5.06794 0
M  V30 2349 H 226.994 2.35126 4.27278 0
M  V30 2350 H 225.999 4.4239 3.26453 0
M  V30 2351 H 227.224 5.41961 4.09213 0
M  V30 2352 H 225.17 3.63917 5.45802 0
M  V30 2353 H 225.087 5.36529 5.32609 0
M  V30 2354 H 226.355 4.63676 6.26597 0
M  V30 2355 N 230.584 -0.659388 1.43143 0
M  V30 2356 C 231.531 -1.77249 1.47822 0
M  V30 2357 C 232.501 -1.62818 0.328558 0
M  V30 2358 O 233.686 -1.83151 0.534838 0
M  V30 2359 C 230.826 -3.15371 1.40126 0
M  V30 2360 C 229.939 -3.4098 2.65249 0
M  V30 2361 C 229.074 -4.68915 2.49584 0
M  V30 2362 C 228.113 -4.87608 3.70006 0
M  V30 2363 N 227.25 -6.06796 3.53189 0
M  V30 2364 H 232.09 -1.72584 2.42938 0
M  V30 2365 H 229.627 -0.842297 1.20598 0
M  V30 2366 H 231.585 -3.9521 1.33659 0
M  V30 2367 H 230.215 -3.19121 0.485964 0
M  V30 2368 H 229.267 -2.55282 2.8202 0
M  V30 2369 H 230.579 -3.50681 3.54717 0
M  V30 2370 H 229.733 -5.56871 2.4079 0
M  V30 2371 H 228.472 -4.61524 1.5763 0
M  V30 2372 H 227.477 -3.9809 3.79215 0
M  V30 2373 H 228.702 -4.96834 4.62961 0
M  V30 2374 H 226.648 -6.00549 2.63965 0
M  V30 2375 H 226.565 -6.17428 4.36255 0
M  V30 2376 H 227.833 -6.9739 3.48236 0
M  V30 2377 N 232.062 -1.29571 -0.897171 0
M  V30 2378 C 233.009 -1.14916 -2.00158 0
M  V30 2379 C 233.979 -0.0418149 -1.66047 0
M  V30 2380 O 235.164 -0.209793 -1.89643 0
M  V30 2381 C 232.304 -0.834307 -3.34863 0
M  V30 2382 C 231.417 -2.02234 -3.8174 0
M  V30 2383 C 230.552 -1.64664 -5.05034 0
M  V30 2384 C 229.591 -2.80033 -5.44286 0
M  V30 2385 N 228.728 -2.42843 -6.58765 0
M  V30 2386 H 233.568 -2.09403 -2.12025 0
M  V30 2387 H 231.105 -1.042 -1.0383 0
M  V30 2388 H 233.063 -0.632436 -4.12379 0
M  V30 2389 H 231.693 0.0736656 -3.22716 0
M  V30 2390 H 230.745 -2.33583 -3.00238 0
M  V30 2391 H 232.057 -2.88673 -4.06779 0
M  V30 2392 H 231.211 -1.4078 -5.9014 0
M  V30 2393 H 229.95 -0.753766 -4.8184 0
M  V30 2394 H 228.955 -3.04596 -4.57713 0
M  V30 2395 H 230.18 -3.69989 -5.6946 0
M  V30 2396 H 228.126 -1.56046 -6.3717 0
M  V30 2397 H 228.043 -3.22815 -6.83613 0
M  V30 2398 H 229.311 -2.22285 -7.47134 0
M  V30 2399 N 233.54 1.10788 -1.12088 0
M  V30 2400 C 234.788 1.8231 -0.872205 0
M  V30 2401 C 235.109 1.85419 0.603709 0
M  V30 2402 O 234.379 1.32963 1.43867 0
M  V30 2403 H 232.959 0.675137 -0.319686 0
M  V30 2404 H 235.621 1.34068 -1.41463 0
M  V30 2405 H 234.717 2.85955 -1.25045 0
M  V30 2406 N 235.018 0.912232 1.28515 0
M  V30 2407 C 236.264 0.554851 1.95686 0
M  V30 2408 C 236.619 -0.89138 1.70506 0
M  V30 2409 O 235.912 -1.62529 1.01464 0
M  V30 2410 C 236.106 0.798392 3.48368 0
M  V30 2411 C 235.935 2.26674 3.88393 0
M  V30 2412 C 234.705 2.91657 4.12631 0
M  V30 2413 C 236.903 3.24303 3.99164 0
M  V30 2414 N 234.885 4.28805 4.39317 0
M  V30 2415 C 236.256 4.4661 4.30046 0
M  V30 2416 C 238.311 3.19723 3.81683 0
M  V30 2417 C 237.014 5.64915 4.45268 0
M  V30 2418 C 239.04 4.37325 3.98121 0
M  V30 2419 C 238.402 5.58406 4.29375 0
M  V30 2420 H 234.501 0.252876 0.739985 0
M  V30 2421 H 237.085 1.17565 1.55199 0
M  V30 2422 H 235.256 0.20688 3.87849 0
M  V30 2423 H 236.988 0.405193 4.02666 0
M  V30 2424 H 233.743 2.42393 4.06869 0
M  V30 2425 H 234.167 4.99712 4.56746 0
M  V30 2426 H 238.809 2.27191 3.56573 0
M  V30 2427 H 236.527 6.57927 4.6921 0
M  V30 2428 H 240.113 4.35282 3.86033 0
M  V30 2429 H 238.993 6.47889 4.41825 0
M  V30 2430 N 236.496 -1.42363 0.676048 0
M  V30 2431 C 237.912 -1.55811 0.345718 0
M  V30 2432 C 238.112 -1.65544 -1.14879 0
M  V30 2433 O 237.168 -1.62306 -1.93424 0
M  V30 2434 C 238.481 -2.80746 1.07713 0
M  V30 2435 C 240.029 -2.9452 1.05958 0
M  V30 2436 C 240.504 -4.22318 1.77233 0
M  V30 2437 N 241.995 -4.29233 1.74108 0
M  V30 2438 C 242.73 -5.26935 2.26113 0
M  V30 2439 N 242.226 -6.30783 2.86505 0
M  V30 2440 N 244.019 -5.18741 2.1648 0
M  V30 2441 H 236.17 -1.34289 1.6456 0
M  V30 2442 H 238.433 -0.646506 0.69335 0
M  V30 2443 H 238.139 -2.79696 2.13221 0
M  V30 2444 H 238.013 -3.71676 0.64316 0
M  V30 2445 H 240.4 -2.95097 0.0128255 0
M  V30 2446 H 240.481 -2.04817 1.53244 0
M  V30 2447 H 240.125 -4.22502 2.81877 0
M  V30 2448 H 240.055 -5.10958 1.27396 0
M  V30 2449 H 242.546 -3.54814 1.30059 0
M  V30 2450 H 242.859 -7.01691 3.23805 0
M  V30 2451 H 241.204 -6.31341 2.90575 0
M  V30 2452 H 244.395 -4.36533 1.68987 0
M  V30 2453 H 244.568 -5.94721 2.57316 0
M  V30 2454 N 237.974 -0.419461 -1.51915 0
M  V30 2455 C 239.39 -0.0708431 -1.59443 0
M  V30 2456 C 239.59 1.41796 -1.43164 0
M  V30 2457 O 238.646 2.18596 -1.26381 0
M  V30 2458 C 239.959 -0.574991 -2.95151 0
M  V30 2459 C 241.507 -0.533867 -3.08413 0
M  V30 2460 C 241.982 -1.01469 -4.46618 0
M  V30 2461 N 243.473 -0.971939 -4.52888 0
M  V30 2462 C 244.208 -1.31505 -5.58116 0
M  V30 2463 N 243.704 -1.73014 -6.70849 0
M  V30 2464 N 245.497 -1.23436 -5.48379 0
M  V30 2465 H 237.648 -1.38836 -1.60743 0
M  V30 2466 H 239.911 -0.570998 -0.756747 0
M  V30 2467 H 239.617 -1.61597 -3.12377 0
M  V30 2468 H 239.491 0.00979777 -3.77199 0
M  V30 2469 H 241.878 0.498086 -2.90866 0
M  V30 2470 H 241.959 -1.15484 -2.28248 0
M  V30 2471 H 241.603 -2.04502 -4.6491 0
M  V30 2472 H 241.533 -0.370433 -5.25295 0
M  V30 2473 H 244.024 -0.666893 -3.71969 0
M  V30 2474 H 244.337 -1.97479 -7.47143 0
M  V30 2475 H 242.682 -1.76926 -6.72103 0
M  V30 2476 H 245.873 -0.908869 -4.59192 0
M  V30 2477 H 246.046 -1.50506 -6.30279 0
M  V30 2478 N 239.452 1.56882 -0.150215 0
M  V30 2479 C 240.677 2.01027 0.510184 0
M  V30 2480 C 241.102 1.02966 1.57415 0
M  V30 2481 O 240.46 0.00590158 1.81299 0
M  V30 2482 C 240.508 3.43899 1.08472 0
M  V30 2483 O 239.612 3.4885 2.19948 0
M  V30 2484 H 238.953 0.652233 0.124451 0
M  V30 2485 H 241.483 2.03093 -0.247894 0
M  V30 2486 H 241.493 3.82766 1.41259 0
M  V30 2487 H 240.168 4.14776 0.305582 0
M  V30 2488 H 238.745 3.21827 1.88366 0
M  V30 2489 N 240.93 -0.123565 1.57115 0
M  V30 2490 C 242.155 -0.850398 1.89164 0
M  V30 2491 C 242.58 -1.7286 0.741688 0
M  V30 2492 O 241.938 -1.78665 -0.307958 0
M  V30 2493 C 241.986 -1.66353 3.19936 0
M  V30 2494 O 241.09 -2.77004 3.0552 0
M  V30 2495 H 240.431 -0.235454 0.620852 0
M  V30 2496 H 242.961 -0.107335 2.04318 0
M  V30 2497 H 242.971 -2.05372 3.52543 0
M  V30 2498 H 241.646 -1.01881 4.03228 0
M  V30 2499 H 240.223 -2.41221 2.84371 0
M  V30 2500 N 242.408 -1.52605 -0.393616 0
M  V30 2501 C 243.338 -1.80022 -1.48709 0
M  V30 2502 C 244.319 -0.651995 -1.57108 0
M  V30 2503 O 245.504 -0.89913 -1.72132 0
M  V30 2504 C 242.634 -1.96492 -2.86371 0
M  V30 2505 C 241.588 -3.12161 -2.92813 0
M  V30 2506 C 240.914 -3.13877 -4.3288 0
M  V30 2507 C 242.214 -4.51322 -2.6288 0
M  V30 2508 H 243.908 -2.71589 -1.26015 0
M  V30 2509 H 241.454 -1.30684 -0.604778 0
M  V30 2510 H 243.407 -2.14255 -3.62867 0
M  V30 2511 H 242.131 -1.01611 -3.10391 0
M  V30 2512 H 240.79 -2.94173 -2.18764 0
M  V30 2513 H 240.438 -2.16687 -4.53933 0
M  V30 2514 H 240.138 -3.91576 -4.38112 0
M  V30 2515 H 241.662 -3.33789 -5.1129 0
M  V30 2516 H 243.076 -4.69435 -3.29096 0
M  V30 2517 H 241.473 -5.31053 -2.79468 0
M  V30 2518 H 242.543 -4.58353 -1.58242 0
M  V30 2519 N 243.887 0.651787 -1.4349 0
M  V30 2520 C 245.133 1.41376 -1.45398 0
M  V30 2521 C 245.466 1.94041 -0.0784823 0
M  V30 2522 O 244.741 1.72379 0.900878 0
M  V30 2523 C 245.024 2.59414 -2.49752 0
M  V30 2524 C 244.877 2.12232 -3.96582 0
M  V30 2525 C 246.196 3.61626 -2.50827 0
M  V30 2526 H 243.315 0.512719 -0.529422 0
M  V30 2527 H 245.957 0.738796 -1.75048 0
M  V30 2528 H 244.107 3.16997 -2.246 0
M  V30 2529 H 245.779 1.59639 -4.32797 0
M  V30 2530 H 244.022 1.43592 -4.09346 0
M  V30 2531 H 244.693 2.9712 -4.65214 0
M  V30 2532 H 247.169 3.13805 -2.7325 0
M  V30 2533 H 246.045 4.41766 -3.25783 0
M  V30 2534 H 246.306 4.14314 -1.5426 0
M  V30 2535 N 245.365 1.30045 0.890287 0
M  V30 2536 C 246.614 1.17929 1.63633 0
M  V30 2537 C 246.927 -0.266204 1.9378 0
M  V30 2538 O 248.133 -0.508804 2.6669 0
M  V30 2539 C 246.589 2.06317 2.94892 0
M  V30 2540 C 246.197 3.55745 2.72305 0
M  V30 2541 C 247.941 2.0295 3.72843 0
M  V30 2542 C 245.848 4.36205 3.99348 0
M  V30 2543 H 244.778 0.437782 0.613892 0
M  V30 2544 H 247.429 1.54754 0.986075 0
M  V30 2545 H 245.811 1.6237 3.61182 0
M  V30 2546 H 246.985 4.07805 2.1455 0
M  V30 2547 H 245.3 3.6088 2.07737 0
M  V30 2548 H 247.897 2.60319 4.67053 0
M  V30 2549 H 248.24 1.0117 4.0382 0
M  V30 2550 H 248.773 2.4499 3.13408 0
M  V30 2551 H 245.512 5.38659 3.73533 0
M  V30 2552 H 245.032 3.8891 4.56628 0
M  V30 2553 H 246.711 4.47362 4.67415 0
M  V30 2554 N 246.843 -1.10192 1.12674 0
M  V30 2555 C 248.071 -1.85983 0.906527 0
M  V30 2556 C 248.486 -1.80783 -0.544333 0
M  V30 2557 O 247.843 -1.19834 -1.37645 0
M  V30 2558 C 247.894 -3.34281 1.37618 0
M  V30 2559 O 247.615 -3.39401 2.77017 0
M  V30 2560 C 249.116 -4.26938 1.19325 0
M  V30 2561 H 246.336 -0.587716 0.323775 0
M  V30 2562 H 248.88 -1.39284 1.49734 0
M  V30 2563 H 247.035 -3.78436 0.828539 0
M  V30 2564 H 247.449 -4.31838 2.97684 0
M  V30 2565 H 248.923 -5.29181 1.57071 0
M  V30 2566 H 249.4 -4.38995 0.134097 0
M  V30 2567 H 250.006 -3.8859 1.72852 0
M  V30 2568 N 248.321 -0.919034 -1.28029 0
M  V30 2569 C 249.549 -0.570971 -1.98866 0
M  V30 2570 C 249.964 0.848996 -1.68634 0
M  V30 2571 O 249.321 1.56307 -0.942036 0
M  V30 2572 C 249.372 -0.776876 -3.53054 0
M  V30 2573 O 249.093 -2.14097 -3.82222 0
M  V30 2574 C 250.594 -0.436356 -4.41147 0
M  V30 2575 H 247.814 -0.217175 -0.634883 0
M  V30 2576 H 250.358 -1.23368 -1.63097 0
M  V30 2577 H 248.513 -0.161085 -3.87065 0
M  V30 2578 H 248.927 -2.18455 -4.76841 0
M  V30 2579 H 250.401 -0.63117 -5.4838 0
M  V30 2580 H 250.878 0.627686 -4.34692 0
M  V30 2581 H 251.484 -1.02991 -4.12641 0
M  V30 2582 N 249.799 1.42003 -0.683588 0
M  V30 2583 C 250.746 2.30798 -0.0107309 0
M  V30 2584 C 251.716 1.4645 0.783688 0
M  V30 2585 O 252.901 1.75263 0.754156 0
M  V30 2586 C 250.041 3.3238 0.928306 0
M  V30 2587 C 249.154 4.31814 0.126776 0
M  V30 2588 C 248.289 5.20468 1.06236 0
M  V30 2589 C 247.328 6.11577 0.253035 0
M  V30 2590 N 246.465 6.92754 1.14179 0
M  V30 2591 H 251.305 2.8778 -0.773727 0
M  V30 2592 H 248.842 1.41745 -0.393283 0
M  V30 2593 H 250.8 3.89813 1.48666 0
M  V30 2594 H 249.43 2.76976 1.65783 0
M  V30 2595 H 248.482 3.76427 -0.54833 0
M  V30 2596 H 249.794 4.96276 -0.501192 0
M  V30 2597 H 248.948 5.82677 1.69035 0
M  V30 2598 H 247.687 4.56204 1.7242 0
M  V30 2599 H 246.692 5.48428 -0.388108 0
M  V30 2600 H 247.917 6.77892 -0.404839 0
M  V30 2601 H 245.863 6.3111 1.78987 0
M  V30 2602 H 245.78 7.53855 0.569111 0
M  V30 2603 H 247.048 7.59441 1.75697 0
M  V30 2604 N 251.277 0.427512 1.51691 0
M  V30 2605 C 252.207 -0.3796 2.30394 0
M  V30 2606 C 253.188 -1.02982 1.35384 0
M  V30 2607 O 254.373 -1.03534 1.643 0
M  V30 2608 C 251.503 -1.48649 3.1388 0
M  V30 2609 C 250.457 -0.960294 4.17088 0
M  V30 2610 C 249.783 -2.16219 4.89033 0
M  V30 2611 C 251.083 -0.00153679 5.223 0
M  V30 2612 H 252.777 0.277164 2.98114 0
M  V30 2613 H 250.323 0.134739 1.43368 0
M  V30 2614 H 252.276 -2.05826 3.67714 0
M  V30 2615 H 251 -2.1714 2.43962 0
M  V30 2616 H 249.659 -0.410806 3.64291 0
M  V30 2617 H 249.307 -2.83307 4.15628 0
M  V30 2618 H 249.007 -1.81654 5.58816 0
M  V30 2619 H 250.531 -2.73968 5.45687 0
M  V30 2620 H 251.945 -0.482687 5.71264 0
M  V30 2621 H 250.342 0.256199 5.99553 0
M  V30 2622 H 251.412 0.938174 4.75738 0
M  V30 2623 N 252.755 -1.56801 0.158532 0
M  V30 2624 C 253.985 -2.00568 -0.495583 0
M  V30 2625 C 254.393 -1.03774 -1.58201 0
M  V30 2626 O 253.736 -0.0285797 -1.83678 0
M  V30 2627 C 253.798 -3.40768 -1.14532 0
M  V30 2628 C 253.462 -4.56553 -0.202101 0
M  V30 2629 C 254.459 -5.16714 0.574675 0
M  V30 2630 C 252.144 -5.02197 -0.101648 0
M  V30 2631 C 254.138 -6.20939 1.43924 0
M  V30 2632 C 251.825 -6.06274 0.766508 0
M  V30 2633 C 252.823 -6.65515 1.53555 0
M  V30 2634 O 252.511 -7.67575 2.38922 0
M  V30 2635 H 252.243 -0.662893 -0.13247 0
M  V30 2636 H 254.797 -2.03829 0.253559 0
M  V30 2637 H 253.027 -3.34381 -1.94233 0
M  V30 2638 H 254.716 -3.6857 -1.70033 0
M  V30 2639 H 255.482 -4.82341 0.507167 0
M  V30 2640 H 251.361 -4.55807 -0.689994 0
M  V30 2641 H 254.905 -6.67107 2.03996 0
M  V30 2642 H 250.802 -6.40073 0.835266 0
M  V30 2643 H 251.57 -7.84844 2.32296 0
M  V30 2644 N 254.233 0.115231 -1.57178 0
M  V30 2645 C 255.479 0.818565 -1.86202 0
M  V30 2646 C 255.834 1.77316 -0.746785 0
M  V30 2647 O 255.127 1.89923 0.25291 0
M  V30 2648 C 255.321 1.60324 -3.19423 0
M  V30 2649 C 255.15 0.726138 -4.43799 0
M  V30 2650 C 253.92 0.379535 -5.03873 0
M  V30 2651 C 256.118 0.0420774 -5.14283 0
M  V30 2652 N 254.1 -0.507841 -6.11796 0
M  V30 2653 C 255.471 -0.704152 -6.15988 0
M  V30 2654 C 257.526 -0.0339486 -4.97888 0
M  V30 2655 C 256.229 -1.51927 -7.03072 0
M  V30 2656 C 258.255 -0.835906 -5.85463 0
M  V30 2657 C 257.617 -1.57031 -6.86673 0
M  V30 2658 H 253.716 0.276343 -0.731545 0
M  V30 2659 H 256.3 0.0821032 -1.94527 0
M  V30 2660 H 254.471 2.31072 -3.12186 0
M  V30 2661 H 256.203 2.2522 -3.36241 0
M  V30 2662 H 252.958 0.722634 -4.68054 0
M  V30 2663 H 253.382 -0.94349 -6.70393 0
M  V30 2664 H 258.024 0.519496 -4.19596 0
M  V30 2665 H 255.742 -2.08386 -7.80769 0
M  V30 2666 H 259.328 -0.89714 -5.74841 0
M  V30 2667 H 258.208 -2.18088 -7.53264 0
M  V30 2668 N 255.711 1.52812 0.385517 0
M  V30 2669 C 256.959 1.67694 1.12797 0
M  V30 2670 C 257.28 0.421115 1.90399 0
M  V30 2671 O 256.55 -0.564551 1.87589 0
M  V30 2672 H 255.13 0.618155 0.419396 0
M  V30 2673 H 257.792 1.89938 0.436972 0
M  V30 2674 H 256.888 2.52896 1.82894 0
M  V30 2675 N 257.189 -0.644168 1.43834 0
M  V30 2676 C 258.437 -1.40117 1.45642 0
M  V30 2677 C 258.758 -1.94814 0.0852413 0
M  V30 2678 O 258.028 -1.74988 -0.880688 0
M  V30 2679 H 256.608 -0.52005 0.536243 0
M  V30 2680 H 259.27 -0.7591 1.7951 0
M  V30 2681 H 258.366 -2.23902 2.17427 0
M  V30 2682 N 258.668 -1.30515 -0.883378 0
M  V30 2683 C 259.615 -1.17032 -1.98927 0
M  V30 2684 C 260.585 -0.0594241 -1.65994 0
M  V30 2685 O 261.77 -0.229895 -1.8941 0
M  V30 2686 C 258.91 -0.869777 -3.33959 0
M  V30 2687 C 258.023 -2.06271 -3.79574 0
M  V30 2688 C 257.158 -1.70011 -5.03259 0
M  V30 2689 C 256.197 -2.8579 -5.41286 0
M  V30 2690 N 255.334 -2.49816 -6.56153 0
M  V30 2691 H 260.174 -2.1164 -2.09792 0
M  V30 2692 H 257.711 -1.05296 -1.02719 0
M  V30 2693 H 259.669 -0.676138 -4.11685 0
M  V30 2694 H 258.299 0.0394332 -3.22776 0
M  V30 2695 H 257.351 -2.36755 -2.97744 0
M  V30 2696 H 258.663 -2.92971 -4.03694 0
M  V30 2697 H 257.817 -1.47032 -5.88614 0
M  V30 2698 H 256.556 -0.804829 -4.81013 0
M  V30 2699 H 255.561 -3.09434 -4.54456 0
M  V30 2700 H 256.786 -3.76008 -5.65504 0
M  V30 2701 H 254.732 -1.62795 -6.35479 0
M  V30 2702 H 254.649 -3.30048 -6.8015 0
M  V30 2703 H 255.917 -2.30197 -7.44735 0
M  V30 2704 N 260.146 1.09593 -1.13257 0
M  V30 2705 C 261.109 2.14359 -0.811358 0
M  V30 2706 C 262.109 1.59808 0.178377 0
M  V30 2707 O 263.299 1.74132 -0.0484911 0
M  V30 2708 C 260.431 3.40269 -0.207276 0
M  V30 2709 H 261.624 2.44284 -1.73969 0
M  V30 2710 H 259.177 1.25102 -0.936973 0
M  V30 2711 H 259.912 3.15969 0.73036 0
M  V30 2712 H 259.697 3.81154 -0.919992 0
M  V30 2713 H 261.187 4.176 0.000667944 0
M  V30 2714 N 261.624 0.925811 1.2754 0
M  V30 2715 C 262.534 0.428993 2.30644 0
M  V30 2716 C 263.55 -0.489387 1.66976 0
M  V30 2717 O 264.726 -0.372653 1.97922 0
M  V30 2718 C 261.791 -0.311967 3.45294 0
M  V30 2719 C 260.852 0.641098 4.24486 0
M  V30 2720 C 260.085 -0.0645955 5.33661 0
M  V30 2721 O 260.308 -1.28429 5.55754 0
M  V30 2722 O 259.242 0.606265 5.98839 0
M  V30 2723 H 263.068 1.28504 2.75173 0
M  V30 2724 H 260.653 0.691086 1.32455 0
M  V30 2725 H 262.535 -0.729972 4.15029 0
M  V30 2726 H 261.21 -1.14365 3.02824 0
M  V30 2727 H 260.117 1.10874 3.57292 0
M  V30 2728 H 261.45 1.43995 4.70666 0
M  V30 2729 N 263.102 -1.41638 0.69111 0
M  V30 2730 C 264.33 -2.05628 0.22909 0
M  V30 2731 C 264.745 -1.51992 -1.11999 0
M  V30 2732 O 264.102 -0.666322 -1.69901 0
M  V30 2733 C 264.153 -3.61084 0.173283 0
M  V30 2734 O 263.874 -4.12735 1.46907 0
M  V30 2735 C 265.375 -4.42213 -0.310266 0
M  V30 2736 H 262.595 -0.662327 0.107534 0
M  V30 2737 H 265.139 -1.81489 0.942438 0
M  V30 2738 H 263.294 -3.84278 -0.490858 0
M  V30 2739 H 263.708 -5.06743 1.35322 0
M  V30 2740 H 265.182 -5.51194 -0.298196 0
M  V30 2741 H 265.659 -4.1799 -1.34838 0
M  V30 2742 H 266.265 -4.24074 0.322716 0
M  V30 2743 N 264.58 -0.43555 -1.51462 0
M  V30 2744 C 265.49 0.383001 -2.31453 0
M  V30 2745 C 266.506 1.02931 -1.4029 0
M  V30 2746 O 267.682 1.02507 -1.73362 0
M  V30 2747 C 264.747 1.47043 -3.13973 0
M  V30 2748 C 263.808 0.844433 -4.20913 0
M  V30 2749 C 263.041 1.88004 -4.9949 0
M  V30 2750 O 263.264 3.10199 -4.78678 0
M  V30 2751 O 262.198 1.47157 -5.83634 0
M  V30 2752 H 266.024 -0.269964 -3.02498 0
M  V30 2753 H 263.609 -0.19813 -1.4808 0
M  V30 2754 H 265.491 2.10113 -3.65281 0
M  V30 2755 H 264.166 2.10751 -2.45695 0
M  V30 2756 H 263.073 0.175729 -3.73687 0
M  V30 2757 H 264.406 0.250869 -4.9156 0
M  V30 2758 N 266.058 1.56714 -0.166846 0
M  V30 2759 C 267.474 1.58473 0.189372 0
M  V30 2760 C 267.674 1.18201 1.63189 0
M  V30 2761 O 266.73 0.891528 2.36237 0
M  V30 2762 C 268.043 3.00573 -0.0873872 0
M  V30 2763 C 269.591 3.1299 -0.0252443 0
M  V30 2764 C 270.066 4.57174 -0.274934 0
M  V30 2765 N 271.557 4.62665 -0.222553 0
M  V30 2766 C 272.292 5.72072 -0.389985 0
M  V30 2767 N 271.788 6.90054 -0.616229 0
M  V30 2768 N 273.581 5.61153 -0.326202 0
M  V30 2769 H 265.732 1.8118 -1.10849 0
M  V30 2770 H 267.995 0.839525 -0.440342 0
M  V30 2771 H 267.701 3.34497 -1.0865 0
M  V30 2772 H 267.575 3.72019 0.623037 0
M  V30 2773 H 269.962 2.78895 0.96444 0
M  V30 2774 H 270.043 2.43989 -0.768309 0
M  V30 2775 H 269.687 4.91976 -1.26181 0
M  V30 2776 H 269.617 5.24328 0.48869 0
M  V30 2777 H 272.108 3.77863 -0.0531512 0
M  V30 2778 H 272.421 7.69311 -0.733559 0
M  V30 2779 H 270.766 6.91927 -0.652791 0
M  V30 2780 H 273.957 4.67859 -0.150072 0
M  V30 2781 H 274.13 6.46364 -0.460116 0
M  V30 2782 N 267.536 -0.106894 1.57237 0
M  V30 2783 C 268.784 -0.810921 1.85117 0
M  V30 2784 C 269.105 -1.7984 0.753827 0
M  V30 2785 O 268.375 -1.94649 -0.221056 0
M  V30 2786 H 266.955 -0.302466 0.683025 0
M  V30 2787 H 269.617 -0.0913324 1.94686 0
M  V30 2788 H 268.713 -1.34875 2.81452 0
M  V30 2789 N 269.014 -1.53014 -0.377408 0
M  V30 2790 C 269.944 -1.81589 -1.46791 0
M  V30 2791 C 270.925 -0.668622 -1.56408 0
M  V30 2792 O 272.11 -0.917337 -1.71168 0
M  V30 2793 C 269.24 -1.99519 -2.8427 0
M  V30 2794 C 268.194 -3.15249 -2.89486 0
M  V30 2795 C 267.52 -3.18451 -4.29527 0
M  V30 2796 C 268.82 -4.54084 -2.58079 0
M  V30 2797 H 270.514 -2.7291 -1.23127 0
M  V30 2798 H 268.06 -1.31319 -0.590883 0
M  V30 2799 H 270.013 -2.18092 -3.60575 0
M  V30 2800 H 268.737 -1.04897 -3.09296 0
M  V30 2801 H 267.396 -2.96477 -2.15631 0
M  V30 2802 H 267.044 -2.2149 -4.5161 0
M  V30 2803 H 266.744 -3.962 -4.33934 0
M  V30 2804 H 268.268 -3.39193 -5.07721 0
M  V30 2805 H 269.682 -4.72899 -3.24098 0
M  V30 2806 H 268.079 -5.33987 -2.7382 0
M  V30 2807 H 269.149 -4.60006 -1.53372 0
M  V30 2808 N 270.492 0.636531 -1.44174 0
M  V30 2809 C 271.717 1.42847 -1.50364 0
M  V30 2810 C 272.142 1.87665 -0.127867 0
M  V30 2811 O 271.5 1.58408 0.88185 0
M  V30 2812 C 271.548 2.62854 -2.4686 0
M  V30 2813 O 270.652 3.62501 -1.9664 0
M  V30 2814 H 269.993 0.427642 -0.507955 0
M  V30 2815 H 272.523 0.777422 -1.89255 0
M  V30 2816 H 272.533 3.10465 -2.64718 0
M  V30 2817 H 271.208 2.29578 -3.46795 0
M  V30 2818 H 269.785 3.21735 -1.88523 0
M  V30 2819 N 271.97 1.30982 0.876444 0
M  V30 2820 C 273.386 1.09498 1.16113 0
M  V30 2821 C 273.586 -0.13875 2.01022 0
M  V30 2822 O 272.642 -0.829935 2.38471 0
M  V30 2823 C 273.955 2.36308 1.85954 0
M  V30 2824 C 275.503 2.41856 1.98683 0
M  V30 2825 C 275.978 3.6853 2.71937 0
M  V30 2826 N 277.469 3.69387 2.79477 0
M  V30 2827 C 278.204 4.64096 3.36753 0
M  V30 2828 N 277.7 5.69155 3.95012 0
M  V30 2829 N 279.493 4.51626 3.3465 0
M  V30 2830 H 271.644 2.10118 0.310494 0
M  V30 2831 H 273.907 0.926634 0.200131 0
M  V30 2832 H 273.613 3.26388 1.31011 0
M  V30 2833 H 273.487 2.4561 2.86278 0
M  V30 2834 H 275.874 1.52249 2.52793 0
M  V30 2835 H 275.955 2.36523 0.9742 0
M  V30 2836 H 275.599 4.58499 2.18496 0
M  V30 2837 H 275.529 3.71127 3.73593 0
M  V30 2838 H 278.02 2.93438 2.38123 0
M  V30 2839 H 278.333 6.3751 4.36808 0
M  V30 2840 H 276.678 5.72937 3.93406 0
M  V30 2841 H 279.869 3.68728 2.8837 0
M  V30 2842 H 280.042 5.25614 3.7899 0
M  V30 2843 N 273.449 -1.08991 1.13837 0
M  V30 2844 C 274.396 -2.15748 0.819835 0
M  V30 2845 C 275.366 -1.64636 -0.220026 0
M  V30 2846 O 276.551 -1.90582 -0.0912757 0
M  V30 2847 C 273.691 -3.4382 0.296913 0
M  V30 2848 C 272.804 -4.0881 1.39636 0
M  V30 2849 C 271.939 -5.24655 0.831314 0
M  V30 2850 C 270.978 -5.81575 1.90886 0
M  V30 2851 N 270.115 -6.88774 1.36142 0
M  V30 2852 H 274.955 -2.42338 1.73426 0
M  V30 2853 H 272.492 -1.18935 0.865613 0
M  V30 2854 H 274.45 -4.17193 -0.0244339 0
M  V30 2855 H 273.08 -3.17535 -0.580628 0
M  V30 2856 H 272.132 -3.33258 1.83422 0
M  V30 2857 H 273.444 -4.47141 2.21058 0
M  V30 2858 H 272.598 -6.04942 0.461515 0
M  V30 2859 H 271.337 -4.87698 -0.013932 0
M  V30 2860 H 270.342 -4.99946 2.28767 0
M  V30 2861 H 271.567 -6.20592 2.75758 0
M  V30 2862 H 269.513 -6.53788 0.538254 0
M  V30 2863 H 269.43 -7.25898 2.11208 0
M  V30 2864 H 270.698 -7.72806 1.01933 0
M  V30 2865 N 274.927 -0.932562 -1.27047 0
M  V30 2866 C 275.877 -0.406392 -2.24349 0
M  V30 2867 C 276.861 0.492066 -1.53191 0
M  V30 2868 O 278.053 0.328717 -1.73921 0
M  V30 2869 C 275.182 0.335214 -3.41659 0
M  V30 2870 C 274.268 -0.58004 -4.20115 0
M  V30 2871 N 274.659 -1.70203 -4.76303 0
M  V30 2872 C 272.957 -0.383974 -4.44344 0
M  V30 2873 C 273.658 -2.27167 -5.35509 0
M  V30 2874 N 272.634 -1.56068 -5.20715 0
M  V30 2875 H 276.436 -1.26299 -2.65378 0
M  V30 2876 H 273.95 -0.787408 -1.42034 0
M  V30 2877 H 275.947 0.729142 -4.10474 0
M  V30 2878 H 274.607 1.18868 -3.0216 0
M  V30 2879 H 275.618 -2.08433 -4.74106 0
M  V30 2880 H 272.295 0.428436 -4.15296 0
M  V30 2881 H 273.685 -3.21654 -5.89905 0
M  V30 2882 N 276.405 1.4127 -0.698611 0
M  V30 2883 C 277.654 2.00408 -0.227949 0
M  V30 2884 C 277.967 1.55981 1.18023 0
M  V30 2885 O 279.173 2.07699 1.74852 0
M  V30 2886 C 277.629 3.58129 -0.356636 0
M  V30 2887 C 277.237 4.11536 -1.77037 0
M  V30 2888 C 278.981 4.24466 0.0540969 0
M  V30 2889 C 276.888 5.61701 -1.85055 0
M  V30 2890 H 275.818 0.749586 -0.0814657 0
M  V30 2891 H 278.469 1.61713 -0.867249 0
M  V30 2892 H 276.851 3.94442 0.350965 0
M  V30 2893 H 278.025 3.86636 -2.50698 0
M  V30 2894 H 276.34 3.57736 -2.13105 0
M  V30 2895 H 278.937 5.34698 0.0146723 0
M  V30 2896 H 279.28 4.01687 1.09332 0
M  V30 2897 H 279.813 3.93198 -0.603337 0
M  V30 2898 H 276.552 5.89312 -2.8704 0
M  V30 2899 H 276.072 5.88519 -1.15783 0
M  V30 2900 H 277.751 6.26524 -1.61484 0
M  V30 2901 N 277.883 0.443576 1.51229 0
M  V30 2902 C 279.132 -0.122332 2.01329 0
M  V30 2903 C 279.445 -1.43237 1.33201 0
M  V30 2904 O 280.651 -2.0816 1.74304 0
M  V30 2905 C 279.107 -0.268551 3.58897 0
M  V30 2906 C 278.715 1.03142 4.35965 0
M  V30 2907 C 280.459 -0.787894 4.17124 0
M  V30 2908 C 278.366 0.850504 5.85252 0
M  V30 2909 H 277.296 -0.0494929 0.752374 0
M  V30 2910 H 279.947 0.574289 1.74282 0
M  V30 2911 H 278.329 -1.02832 3.82415 0
M  V30 2912 H 279.503 1.80001 4.24189 0
M  V30 2913 H 277.818 1.47977 3.89219 0
M  V30 2914 H 280.415 -0.939841 5.26375 0
M  V30 2915 H 280.758 -1.77201 3.76703 0
M  V30 2916 H 281.291 -0.0862669 3.97706 0
M  V30 2917 H 278.03 1.80718 6.30096 0
M  V30 2918 H 277.55 0.121825 5.99676 0
M  V30 2919 H 279.229 0.506163 6.45017 0
M  V30 2920 N 279.361 -1.56624 0.175154 0
M  V30 2921 C 280.271 -2.21741 -0.766042 0
M  V30 2922 C 281.287 -1.21023 -1.25018 0
M  V30 2923 O 282.463 -1.53697 -1.3015 0
M  V30 2924 C 279.528 -2.84839 -1.97655 0
M  V30 2925 C 278.589 -4.00769 -1.53892 0
M  V30 2926 C 277.822 -4.60849 -2.69173 0
M  V30 2927 O 278.045 -4.19823 -3.86141 0
M  V30 2928 O 276.979 -5.50655 -2.43028 0
M  V30 2929 H 280.805 -3.02738 -0.241585 0
M  V30 2930 H 278.39 -1.49305 -0.053222 0
M  V30 2931 H 280.272 -3.24834 -2.68442 0
M  V30 2932 H 278.947 -2.06836 -2.48999 0
M  V30 2933 H 277.854 -3.65436 -0.80044 0
M  V30 2934 H 279.187 -4.80376 -1.07236 0
M  V30 2935 N 280.839 0.0985539 -1.57292 0
M  V30 2936 C 282.087 0.801092 -1.85545 0
M  V30 2937 C 282.408 1.79438 -0.763353 0
M  V30 2938 O 281.678 1.94763 0.21073 0
M  V30 2939 H 280.258 0.29884 -0.684619 0
M  V30 2940 H 282.92 0.0810064 -1.94732 0
M  V30 2941 H 282.016 1.3338 -2.82163 0
M  V30 2942 N 282.317 1.53212 0.369288 0
M  V30 2943 C 283.247 1.82365 1.45826 0
M  V30 2944 C 284.228 0.676907 1.56051 0
M  V30 2945 O 285.413 0.926401 1.70679 0
M  V30 2946 C 282.543 2.01023 2.83208 0
M  V30 2947 C 281.497 3.1678 2.8781 0
M  V30 2948 C 280.823 3.20724 4.27832 0
M  V30 2949 C 282.123 4.55447 2.55667 0
M  V30 2950 H 283.817 2.73559 1.21678 0
M  V30 2951 H 281.363 1.3163 0.583911 0
M  V30 2952 H 283.316 2.20001 3.59413 0
M  V30 2953 H 282.04 1.06536 3.08736 0
M  V30 2954 H 280.699 2.97616 2.14056 0
M  V30 2955 H 280.347 2.23882 4.50429 0
M  V30 2956 H 280.047 3.98496 4.31827 0
M  V30 2957 H 281.571 3.41881 5.05915 0
M  V30 2958 H 282.985 4.74611 3.21586 0
M  V30 2959 H 281.382 5.35432 2.70984 0
M  V30 2960 H 282.452 4.60812 1.5093 0
M  V30 2961 N 283.795 -0.628877 1.44509 0
M  V30 2962 C 284.742 -1.74074 1.51549 0
M  V30 2963 C 285.712 -1.62084 0.363021 0
M  V30 2964 O 286.897 -1.81975 0.573567 0
M  V30 2965 C 284.037 -3.12328 1.46784 0
M  V30 2966 C 283.15 -3.35277 2.72422 0
M  V30 2967 C 282.285 -4.63515 2.59475 0
M  V30 2968 C 281.324 -4.7965 3.80266 0
M  V30 2969 N 280.461 -5.99168 3.65981 0
M  V30 2970 H 285.301 -1.67392 2.46544 0
M  V30 2971 H 282.838 -0.816527 1.22357 0
M  V30 2972 H 284.796 -3.92286 1.42012 0
M  V30 2973 H 283.426 -3.18018 0.553544 0
M  V30 2974 H 282.478 -2.49242 2.87372 0
M  V30 2975 H 283.79 -3.43078 3.62076 0
M  V30 2976 H 282.944 -5.51638 2.52548 0
M  V30 2977 H 281.683 -4.58076 1.67384 0
M  V30 2978 H 280.688 -3.89957 3.87574 0
M  V30 2979 H 281.913 -4.86902 4.73395 0
M  V30 2980 H 279.859 -5.94814 2.76644 0
M  V30 2981 H 279.776 -6.08035 4.49254 0
M  V30 2982 H 281.044 -6.89846 3.6295 0
M  V30 2983 N 285.273 -1.31445 -0.869486 0
M  V30 2984 C 286.521 -1.20918 -1.61936 0
M  V30 2985 C 286.842 0.232683 -1.93607 0
M  V30 2986 O 286.112 1.15352 -1.58338 0
M  V30 2987 H 284.692 -0.44454 -0.600328 0
M  V30 2988 H 287.354 -1.64776 -1.0409 0
M  V30 2989 H 286.45 -1.78124 -2.56278 0
M  V30 2990 N 286.751 1.08385 -1.14413 0
M  V30 2991 C 287.976 1.85057 -0.936413 0
M  V30 2992 C 288.401 1.81055 0.509971 0
M  V30 2993 O 287.759 1.1958 1.36273 0
M  V30 2994 C 287.807 3.30505 -1.44217 0
M  V30 2995 O 286.911 4.07491 -0.634409 0
M  V30 2996 H 286.252 0.573425 -0.334784 0
M  V30 2997 H 288.782 1.36799 -1.52142 0
M  V30 2998 H 288.792 3.81348 -1.45043 0
M  V30 2999 H 287.467 3.32734 -2.49522 0
M  V30 3000 H 286.044 3.66368 -0.694902 0
M  V30 3001 N 288.23 0.939286 1.26551 0
M  V30 3002 C 289.16 0.465044 2.28822 0
M  V30 3003 C 290.141 -0.480692 1.63167 0
M  V30 3004 O 291.326 -0.382955 1.90387 0
M  V30 3005 C 288.456 -0.27234 3.46231 0
M  V30 3006 C 287.41 0.58666 4.2396 0
M  V30 3007 C 286.736 -0.280573 5.33963 0
M  V30 3008 C 288.036 1.85704 4.88171 0
M  V30 3009 H 289.73 1.31979 2.68741 0
M  V30 3010 H 287.276 0.636061 1.29191 0
M  V30 3011 H 289.229 -0.615133 4.16886 0
M  V30 3012 H 287.953 -1.16121 3.0526 0
M  V30 3013 H 286.612 0.91232 3.55067 0
M  V30 3014 H 286.26 -1.16874 4.89234 0
M  V30 3015 H 285.96 0.29076 5.8688 0
M  V30 3016 H 287.484 -0.618678 6.07458 0
M  V30 3017 H 288.898 1.58161 5.51052 0
M  V30 3018 H 287.295 2.37279 5.51197 0
M  V30 3019 H 288.365 2.56957 4.11219 0
M  V30 3020 N 289.708 -1.40897 0.706093 0
M  V30 3021 C 290.64 -2.29199 0.00815776 0
M  V30 3022 C 291.653 -1.45336 -0.733582 0
M  V30 3023 O 292.842 -1.68727 -0.582537 0
M  V30 3024 C 289.942 -3.23417 -1.01265 0
M  V30 3025 C 289.115 -4.36089 -0.338387 0
M  V30 3026 C 288.174 -5.10811 -1.26326 0
M  V30 3027 O 287.2 -5.64215 -0.751651 0
M  V30 3028 N 288.402 -5.19269 -2.595 0
M  V30 3029 H 291.167 -2.89738 0.766297 0
M  V30 3030 H 288.728 -1.52164 0.55296 0
M  V30 3031 H 290.72 -3.70276 -1.63334 0
M  V30 3032 H 289.29 -2.64112 -1.67223 0
M  V30 3033 H 288.51 -3.91479 0.462352 0
M  V30 3034 H 289.798 -5.08634 0.130031 0
M  V30 3035 H 289.196 -4.77347 -3.03573 0
M  V30 3036 H 287.753 -5.69667 -3.16737 0
M  V30 3037 N 291.186 -0.45159 -1.50991 0
M  V30 3038 C 292.602 -0.104647 -1.59257 0
M  V30 3039 C 292.802 1.38728 -1.4614 0
M  V30 3040 O 291.858 2.15866 -1.30989 0
M  V30 3041 C 293.171 -0.637468 -2.93865 0
M  V30 3042 C 294.719 -0.599166 -3.07212 0
M  V30 3043 C 295.194 -1.1092 -4.44366 0
M  V30 3044 N 296.685 -1.06778 -4.50725 0
M  V30 3045 C 297.42 -1.43314 -5.55201 0
M  V30 3046 N 296.916 -1.87204 -6.67028 0
M  V30 3047 N 298.709 -1.3504 -5.45638 0
M  V30 3048 H 290.86 -1.42214 -1.57762 0
M  V30 3049 H 293.123 -0.586921 -0.744465 0
M  V30 3050 H 292.829 -1.68187 -3.08879 0
M  V30 3051 H 292.703 -0.0702139 -3.77135 0
M  V30 3052 H 295.09 0.436277 -2.91857 0
M  V30 3053 H 295.171 -1.20299 -2.25747 0
M  V30 3054 H 294.815 -2.14318 -4.60467 0
M  V30 3055 H 294.745 -0.481773 -5.24392 0
M  V30 3056 H 297.236 -0.745643 -3.70471 0
M  V30 3057 H 297.549 -2.13282 -7.42786 0
M  V30 3058 H 295.894 -1.91142 -6.68199 0
M  V30 3059 H 299.085 -1.00607 -4.57161 0
M  V30 3060 H 299.258 -1.63841 -6.26945 0
M  V30 3061 N 292.664 1.56529 -0.183458 0
M  V30 3062 C 293.594 2.21549 0.737456 0
M  V30 3063 C 294.575 1.17489 1.23005 0
M  V30 3064 O 295.76 1.45959 1.281 0
M  V30 3065 C 292.89 2.86575 1.96194 0
M  V30 3066 C 291.844 3.96778 1.60473 0
M  V30 3067 C 291.17 4.48911 2.90487 0
M  V30 3068 C 292.47 5.15767 0.823497 0
M  V30 3069 H 294.164 2.98761 0.195453 0
M  V30 3070 H 291.71 1.43702 0.0925686 0
M  V30 3071 H 293.663 3.30739 2.61131 0
M  V30 3072 H 292.387 2.06749 2.52828 0
M  V30 3073 H 291.046 3.53286 0.978997 0
M  V30 3074 H 290.694 3.65862 3.45186 0
M  V30 3075 H 290.394 5.23265 2.67335 0
M  V30 3076 H 291.918 4.95771 3.56432 0
M  V30 3077 H 293.332 5.56549 1.37571 0
M  V30 3078 H 291.729 5.96114 0.690551 0
M  V30 3079 H 292.799 4.84574 -0.177782 0
M  V30 3080 N 294.142 -0.090211 1.57342 0
M  V30 3081 C 295.074 -1.13541 1.99101 0
M  V30 3082 C 296.087 -1.3604 0.894258 0
M  V30 3083 O 297.276 -1.34606 1.17233 0
M  V30 3084 C 294.376 -2.49001 2.29895 0
M  V30 3085 C 293.549 -2.46712 3.61182 0
M  V30 3086 C 292.608 -3.64136 3.79857 0
M  V30 3087 O 291.634 -3.46405 4.51655 0
M  V30 3088 N 292.836 -4.83802 3.20806 0
M  V30 3089 H 295.601 -0.779942 2.89373 0
M  V30 3090 H 293.162 -0.279125 1.59476 0
M  V30 3091 H 295.154 -3.26166 2.39578 0
M  V30 3092 H 293.724 -2.76619 1.45605 0
M  V30 3093 H 292.944 -1.55058 3.62423 0
M  V30 3094 H 294.232 -2.42265 4.4742 0
M  V30 3095 H 293.63 -5.01112 2.62494 0
M  V30 3096 H 292.187 -5.58543 3.35966 0
M  V30 3097 N 295.62 -1.53406 -0.361157 0
M  V30 3098 C 296.55 -1.83136 -1.44857 0
M  V30 3099 C 297.531 -0.685174 -1.5569 0
M  V30 3100 O 298.716 -0.93544 -1.70186 0
M  V30 3101 C 295.846 -2.02522 -2.82138 0
M  V30 3102 C 294.8 -3.18302 -2.86126 0
M  V30 3103 C 294.126 -3.22989 -4.26125 0
M  V30 3104 C 295.426 -4.56796 -2.53248 0
M  V30 3105 H 297.12 -2.74201 -1.20226 0
M  V30 3106 H 294.666 -1.31938 -0.576922 0
M  V30 3107 H 296.619 -2.21904 -3.58241 0
M  V30 3108 H 295.343 -1.08172 -3.08166 0
M  V30 3109 H 294.002 -2.98747 -2.12475 0
M  V30 3110 H 293.65 -2.26267 -4.49235 0
M  V30 3111 H 293.35 -4.00781 -4.29708 0
M  V30 3112 H 294.874 -3.44559 -5.04094 0
M  V30 3113 H 296.288 -4.7631 -3.19064 0
M  V30 3114 H 294.685 -5.36862 -2.68141 0
M  V30 3115 H 295.755 -4.61606 -1.48484 0
M  V30 3116 N 297.098 0.621204 -1.44841 0
M  V30 3117 C 298.008 1.7612 -1.5498 0
M  V30 3118 C 299.024 1.68477 -0.434927 0
M  V30 3119 O 300.2 1.89076 -0.693693 0
M  V30 3120 C 297.265 3.1254 -1.50065 0
M  V30 3121 C 296.326 3.31741 -2.72482 0
M  V30 3122 C 295.559 4.61653 -2.67792 0
M  V30 3123 O 295.782 5.431 -1.74352 0
M  V30 3124 O 294.716 4.83271 -3.58794 0
M  V30 3125 H 298.542 1.70518 -2.51311 0
M  V30 3126 H 296.127 0.783643 -1.27198 0
M  V30 3127 H 298.009 3.93844 -1.49882 0
M  V30 3128 H 296.684 3.18663 -0.568806 0
M  V30 3129 H 295.591 2.50077 -2.7823 0
M  V30 3130 H 296.924 3.30486 -3.64746 0
M  V30 3131 N 298.576 1.31904 0.862503 0
M  V30 3132 C 299.806 1.24817 1.64634 0
M  V30 3133 C 300.214 -0.187579 1.88268 0
M  V30 3134 O 299.557 -1.13253 1.44635 0
M  V30 3135 C 299.619 1.92996 3.03303 0
M  V30 3136 C 299.283 3.42336 3.02746 0
M  V30 3137 C 300.28 4.37956 2.80162 0
M  V30 3138 C 297.965 3.84147 3.2363 0
M  V30 3139 C 299.959 5.73361 2.78453 0
M  V30 3140 C 297.646 5.19663 3.21549 0
M  V30 3141 C 298.644 6.14081 2.98988 0
M  V30 3142 O 298.332 7.47118 2.96766 0
M  V30 3143 H 298.064 0.432222 0.519769 0
M  V30 3144 H 300.618 1.7445 1.08427 0
M  V30 3145 H 298.848 1.37922 3.61268 0
M  V30 3146 H 300.537 1.79723 3.63943 0
M  V30 3147 H 301.303 4.06981 2.63802 0
M  V30 3148 H 297.182 3.11083 3.40218 0
M  V30 3149 H 300.726 6.4703 2.60763 0
M  V30 3150 H 296.623 5.5027 3.37451 0
M  V30 3151 H 297.391 7.56382 3.12775 0
M  V30 3152 N 300.054 -1.07777 1.14986 0
M  V30 3153 C 301.3 -1.80557 0.923422 0
M  V30 3154 C 301.633 -1.86298 -0.548337 0
M  V30 3155 O 300.908 -1.34354 -1.40639 0
M  V30 3156 C 301.191 -3.25839 1.53299 0
M  V30 3157 C 301.044 -3.28269 3.07505 0
M  V30 3158 C 302.363 -4.22991 1.21518 0
M  V30 3159 H 299.482 -0.655493 0.336894 0
M  V30 3160 H 302.124 -1.26144 1.42083 0
M  V30 3161 H 300.274 -3.72306 1.10999 0
M  V30 3162 H 301.946 -2.90079 3.58681 0
M  V30 3163 H 300.189 -2.67355 3.4162 0
M  V30 3164 H 300.86 -4.30691 3.45266 0
M  V30 3165 H 303.336 -3.84894 1.581 0
M  V30 3166 H 302.212 -5.22945 1.66793 0
M  V30 3167 H 302.473 -4.41904 0.131505 0
M  V30 3168 N 301.532 -0.945985 -1.26051 0
M  V30 3169 C 302.809 -0.513816 -1.88731 0
M  V30 3170 C 303.189 1.00872 -1.8544 0
M  V30 3171 O 302.537 1.8708 -1.312 0
M  V30 3172 C 302.747 -1.08062 -3.31849 0
M  V30 3173 C 304.095 -1.1522 -4.08668 0
M  V30 3174 O 305.119 -1.03155 -3.40936 0
M  V30 3175 O 303.978 -1.34044 -5.29806 0
M  V30 3176 H 301.072 -0.168193 -0.809716 0
M  V30 3177 H 303.618 -1.03886 -1.34186 0
M  V30 3178 H 302.39 -2.1241 -3.2863 0
M  V30 3179 H 302.013 -0.538307 -3.93939 0
M  V30 3180 N 303.011 1.40521 -0.713556 0
M  V30 3181 C 304.257 2.01221 -0.252564 0
M  V30 3182 C 304.59 1.56444 1.1506 0
M  V30 3183 O 303.865 0.783597 1.78017 0
M  V30 3184 C 304.148 3.58582 -0.330332 0
M  V30 3185 C 304.001 4.13437 -1.77173 0
M  V30 3186 C 305.32 4.39079 0.299641 0
M  V30 3187 H 302.439 0.731077 -0.0932471 0
M  V30 3188 H 305.081 1.67026 -0.905673 0
M  V30 3189 H 303.231 3.87844 0.225737 0
M  V30 3190 H 304.903 3.9498 -2.38303 0
M  V30 3191 H 303.146 3.67801 -2.3001 0
M  V30 3192 H 303.817 5.22597 -1.77755 0
M  V30 3193 H 306.293 4.15735 -0.174139 0
M  V30 3194 H 305.169 5.4848 0.214771 0
M  V30 3195 H 305.43 4.19915 1.38288 0
M  V30 3196 N 304.489 0.459591 1.5075 0
M  V30 3197 C 305.735 -0.0994966 2.02556 0
M  V30 3198 C 306.068 -1.40399 1.3417 0
M  V30 3199 O 305.343 -1.88892 0.463683 0
M  V30 3200 C 305.626 -0.295242 3.58888 0
M  V30 3201 C 305.479 1.02947 4.37861 0
M  V30 3202 C 306.798 -1.05502 4.27267 0
M  V30 3203 H 303.917 -0.034686 0.736183 0
M  V30 3204 H 306.559 0.602938 1.8018 0
M  V30 3205 H 304.709 -0.893563 3.78084 0
M  V30 3206 H 306.381 1.66348 4.30263 0
M  V30 3207 H 304.624 1.62885 4.02058 0
M  V30 3208 H 305.295 0.846281 5.45474 0
M  V30 3209 H 307.771 -0.547993 4.12476 0
M  V30 3210 H 306.647 -1.16077 5.36486 0
M  V30 3211 H 306.908 -2.08875 3.89645 0
M  V30 3212 N 305.967 -1.56429 0.191757 0
M  V30 3213 C 307.214 -1.97485 -0.447891 0
M  V30 3214 C 307.542 -1.07852 -1.61859 0
M  V30 3215 O 306.797 -0.116903 -1.95351 0
M  V30 3216 C 307.096 -3.44449 -0.953384 0
M  V30 3217 C 306.762 -4.50781 0.103586 0
M  V30 3218 C 305.424 -4.79584 0.394023 0
M  V30 3219 C 307.776 -5.1471 0.819946 0
M  V30 3220 C 305.104 -5.69607 1.40585 0
M  V30 3221 C 307.456 -6.05827 1.8209 0
M  V30 3222 C 306.12 -6.32987 2.11857 0
M  V30 3223 H 305.39 -0.722648 -0.163895 0
M  V30 3224 H 308.037 -1.89322 0.28802 0
M  V30 3225 H 306.342 -3.49666 -1.76751 0
M  V30 3226 H 308.039 -3.73569 -1.45765 0
M  V30 3227 H 304.629 -4.28394 -0.132951 0
M  V30 3228 H 308.813 -4.92552 0.608789 0
M  V30 3229 H 304.069 -5.88926 1.64243 0
M  V30 3230 H 308.243 -6.54424 2.38123 0
M  V30 3231 H 305.87 -7.02544 2.90407 0
M  V30 3232 N 307.445 0.0818655 -1.57387 0
M  V30 3233 C 308.408 1.08265 -2.02018 0
M  V30 3234 C 309.408 1.32183 -0.915664 0
M  V30 3235 O 310.598 1.28073 -1.18081 0
M  V30 3236 C 307.73 2.42871 -2.39221 0
M  V30 3237 H 308.923 0.698204 -2.91659 0
M  V30 3238 H 306.476 0.327303 -1.52835 0
M  V30 3239 H 307.211 2.86167 -1.52575 0
M  V30 3240 H 306.996 2.26855 -3.19811 0
M  V30 3241 H 308.486 3.14826 -2.74362 0
M  V30 3242 N 308.923 1.53595 0.353017 0
M  V30 3243 C 309.871 1.81605 1.45335 0
M  V30 3244 C 310.865 0.685923 1.54892 0
M  V30 3245 O 312.071 0.869095 1.57628 0
M  V30 3246 H 308.446 0.575204 0.484401 0
M  V30 3247 H 310.417 2.73679 1.18921 0
M  V30 3248 C 309.166 2.03406 2.81995 0
M  V30 3249 H 308.489 2.89814 2.75405 0
M  V30 3250 H 309.929 2.26975 3.58132 0
M  V30 3251 C 308.388 0.816794 3.26849 0
M  V30 3252 O 308.918 0.0115856 4.01698 0
M  V30 3253 N 307.124 0.636682 2.8354 0
M  V30 3254 H 306.671 1.2931 2.22793 0
M  V30 3255 H 306.629 -0.176336 3.13905 0
M  V30 3256 N 310.401 -0.613514 1.45168 0
M  V30 3257 C 311.817 -0.933629 1.29443 0
M  V30 3258 C 312.017 -2.00028 0.243101 0
M  V30 3259 O 311.073 -2.49848 -0.364992 0
M  V30 3260 C 312.386 -1.38018 2.67155 0
M  V30 3261 C 313.934 -1.49471 2.75004 0
M  V30 3262 C 314.409 -1.97503 4.13227 0
M  V30 3263 N 315.9 -2.04746 4.15491 0
M  V30 3264 C 316.635 -2.43121 5.19307 0
M  V30 3265 N 316.131 -2.80506 6.33473 0
M  V30 3266 N 317.924 -2.43408 5.06664 0
M  V30 3267 H 310.075 0.0916097 2.12202 0
M  V30 3268 H 312.338 -0.0216655 0.947752 0
M  V30 3269 H 312.044 -0.670625 3.45247 0
M  V30 3270 H 311.918 -2.34784 2.95222 0
M  V30 3271 H 314.305 -2.19519 1.9722 0
M  V30 3272 H 314.386 -0.510342 2.50657 0
M  V30 3273 H 314.03 -1.28045 4.91495 0
M  V30 3274 H 313.96 -2.96843 4.34962 0
M  V30 3275 H 316.451 -1.78468 3.33103 0
M  V30 3276 H 316.764 -3.08652 7.08487 0
M  V30 3277 H 315.109 -2.78216 6.36884 0
M  V30 3278 H 318.3 -2.13604 4.16523 0
M  V30 3279 H 318.473 -2.72989 5.87691 0
M  V30 3280 N 311.879 -1.3236 -0.855495 0
M  V30 3281 C 313.29 -1.2056 -1.42556 0
M  V30 3282 C 313.641 0.182209 -1.95352 0
M  V30 3283 O 312.766 1.08088 -1.87472 0
M  V30 3284 C 313.361 -2.1826 -2.59129 0
M  V30 3285 C 311.92 -2.10351 -3.12137 0
M  V30 3286 C 311.067 -2.06674 -1.84882 0
M  V30 3287 H 314.018 -1.442 -0.662727 0
M  V30 3288 H 314.039 -1.78064 -3.36264 0
M  V30 3289 H 313.551 -3.19257 -2.20673 0
M  V30 3290 H 311.652 -1.12599 -3.55179 0
M  V30 3291 H 311.765 -3.00135 -3.73438 0
M  V30 3292 H 310.129 -1.51901 -2.04446 0
M  V30 3293 H 310.912 -3.09451 -1.48643 0
M  V30 3294 N 313.357 1.07166 -1.15556 0
M  V30 3295 C 314.634 1.76546 -0.842069 0
M  V30 3296 C 315.014 2.00453 0.661939 0
M  V30 3297 O 314.362 1.62452 1.60691 0
M  V30 3298 C 314.572 3.07266 -1.65495 0
M  V30 3299 C 315.92 3.81578 -1.86234 0
M  V30 3300 O 316.944 3.17083 -1.62287 0
M  V30 3301 O 315.803 4.97419 -2.26355 0
M  V30 3302 H 312.897 0.766756 -0.309862 0
M  V30 3303 H 315.443 1.13514 -1.26145 0
M  V30 3304 H 314.215 2.85494 -2.67598 0
M  V30 3305 H 313.838 3.7803 -1.23203 0
M  V30 3306 N 314.835 0.952656 1.25548 0
M  V30 3307 C 316.06 0.623025 1.97821 0
M  V30 3308 C 316.485 -0.7976 1.70352 0
M  V30 3309 O 315.843 -1.53905 0.958283 0
M  V30 3310 C 315.891 0.885532 3.49558 0
M  V30 3311 O 314.995 -0.0366641 4.12384 0
M  V30 3312 H 314.336 0.237082 0.620232 0
M  V30 3313 H 316.866 1.27871 1.59719 0
M  V30 3314 H 316.876 0.811009 3.99858 0
M  V30 3315 H 315.551 1.92094 3.6888 0
M  V30 3316 H 314.128 0.0898954 3.72792 0
M  V30 3317 N 316.313 -1.40141 0.720998 0
M  V30 3318 C 317.261 -2.3252 0.0608547 0
M  V30 3319 C 318.255 -1.52326 -0.741152 0
M  V30 3320 O 319.461 -1.68089 -0.643911 0
M  V30 3321 H 315.836 -0.751999 0.000876664 0
M  V30 3322 H 317.807 -2.8584 0.856614 0
M  V30 3323 C 316.556 -3.37331 -0.842809 0
M  V30 3324 H 315.879 -3.99108 -0.235084 0
M  V30 3325 H 317.319 -4.04452 -1.27257 0
M  V30 3326 C 315.778 -2.73246 -1.97074 0
M  V30 3327 O 316.308 -2.59998 -3.06209 0
M  V30 3328 N 314.514 -2.31547 -1.75597 0
M  V30 3329 H 314.061 -2.42522 -0.868368 0
M  V30 3330 H 314.019 -1.89007 -2.51244 0
M  V30 3331 N 317.792 -0.46758 -1.50504 0
M  V30 3332 C 319.02 0.0864133 -2.06719 0
M  V30 3333 C 319.435 1.33819 -1.33184 0
M  V30 3334 O 318.792 1.78061 -0.400083 0
M  V30 3335 C 318.843 0.378079 -3.59517 0
M  V30 3336 O 318.564 -0.824044 -4.3028 0
M  V30 3337 C 320.065 0.979426 -4.32345 0
M  V30 3338 H 317.285 -0.00551697 -0.670977 0
M  V30 3339 H 319.829 -0.655354 -1.93715 0
M  V30 3340 H 317.984 1.06977 -3.72337 0
M  V30 3341 H 318.398 -0.566518 -5.21432 0
M  V30 3342 H 319.872 1.1333 -5.40241 0
M  V30 3343 H 320.349 1.9686 -3.9261 0
M  V30 3344 H 320.955 0.326216 -4.24047 0
M  V30 3345 N 319.27 1.56325 -0.20005 0
M  V30 3346 C 320.681 1.8408 0.31167 0
M  V30 3347 C 321.032 1.12087 1.61031 0
M  V30 3348 O 320.157 0.38332 2.12978 0
M  V30 3349 C 320.752 3.33932 0.57226 0
M  V30 3350 C 319.311 3.6208 1.02834 0
M  V30 3351 C 318.458 2.77186 0.079634 0
M  V30 3352 H 321.409 1.52939 -0.423729 0
M  V30 3353 H 321.43 3.52971 1.42096 0
M  V30 3354 H 320.942 3.86303 -0.37308 0
M  V30 3355 H 319.043 3.15147 1.98778 0
M  V30 3356 H 319.156 4.7023 0.917624 0
M  V30 3357 H 317.52 2.47951 0.582448 0
M  V30 3358 H 318.303 3.32347 -0.860238 0
M  V30 3359 N 320.748 -0.0735177 1.57428 0
M  V30 3360 C 321.681 -1.11932 1.98863 0
M  V30 3361 C 322.659 -1.37666 0.865266 0
M  V30 3362 O 323.843 -1.51068 1.12742 0
M  V30 3363 C 320.97 -2.46403 2.32386 0
M  V30 3364 C 320.016 -2.36815 3.54713 0
M  V30 3365 S 320.849 -1.76392 5.05614 0
M  V30 3366 C 322.005 -3.12444 5.42337 0
M  V30 3367 H 322.238 -0.766212 2.87257 0
M  V30 3368 H 319.771 -0.281987 1.51803 0
M  V30 3369 H 321.729 -3.23755 2.52375 0
M  V30 3370 H 320.39 -2.78876 1.44524 0
M  V30 3371 H 319.583 -3.35977 3.7568 0
M  V30 3372 H 319.185 -1.67598 3.34345 0
M  V30 3373 H 321.477 -4.08753 5.40303 0
M  V30 3374 H 322.42 -2.96258 6.43146 0
M  V30 3375 H 322.828 -3.1297 4.69798 0
M  V30 3376 N 322.226 -1.5378 -0.344866 0
M  V30 3377 C 323.136 -1.84667 -1.4469 0
M  V30 3378 C 324.152 -0.736704 -1.57635 0
M  V30 3379 O 325.328 -1.02888 -1.73136 0
M  V30 3380 C 322.393 -2.04869 -2.79696 0
M  V30 3381 C 321.454 -3.28731 -2.76106 0
M  V30 3382 C 320.687 -3.4796 -4.04673 0
M  V30 3383 O 320.91 -2.71052 -5.01883 0
M  V30 3384 O 319.844 -4.41383 -4.09224 0
M  V30 3385 H 323.67 -2.78334 -1.21506 0
M  V30 3386 H 321.255 -1.39418 -0.536921 0
M  V30 3387 H 323.137 -2.19609 -3.59652 0
M  V30 3388 H 321.812 -1.14391 -3.02814 0
M  V30 3389 H 320.719 -3.19396 -1.94774 0
M  V30 3390 H 322.052 -4.19198 -2.57941 0
M  V30 3391 N 323.704 0.605807 -1.45491 0
M  V30 3392 C 324.614 1.74466 -1.56839 0
M  V30 3393 C 325.63 1.68006 -0.452772 0
M  V30 3394 O 326.806 1.8833 -0.713708 0
M  V30 3395 C 323.871 3.10931 -1.53371 0
M  V30 3396 C 322.932 3.28832 -2.75986 0
M  V30 3397 C 322.165 4.58787 -2.72673 0
M  V30 3398 O 322.388 5.4122 -1.80102 0
M  V30 3399 O 321.322 4.79438 -3.63899 0
M  V30 3400 H 325.148 1.67843 -2.53106 0
M  V30 3401 H 322.733 0.770108 -1.28022 0
M  V30 3402 H 324.615 3.92233 -1.54051 0
M  V30 3403 H 323.29 3.18042 -0.602572 0
M  V30 3404 H 322.197 2.47112 -2.80867 0
M  V30 3405 H 323.53 3.26599 -3.68231 0
M  V30 3406 N 325.182 1.32811 0.848464 0
M  V30 3407 C 326.431 1.23075 1.59798 0
M  V30 3408 C 326.744 -0.204419 1.94529 0
M  V30 3409 O 327.95 -0.423701 2.68173 0
M  V30 3410 C 326.406 2.15594 2.88179 0
M  V30 3411 C 326.014 3.64228 2.60849 0
M  V30 3412 C 327.758 2.14709 3.66197 0
M  V30 3413 C 325.665 4.48689 3.85269 0
M  V30 3414 H 324.595 0.457091 0.599653 0
M  V30 3415 H 327.246 1.57813 0.936342 0
M  V30 3416 H 325.628 1.73778 3.55833 0
M  V30 3417 H 326.802 4.14424 2.01467 0
M  V30 3418 H 325.117 3.67306 1.96151 0
M  V30 3419 H 327.714 2.75046 4.58534 0
M  V30 3420 H 328.057 1.13966 4.00397 0
M  V30 3421 H 328.59 2.54837 3.05455 0
M  V30 3422 H 325.329 5.5027 3.56207 0
M  V30 3423 H 324.849 4.03241 4.44024 0
M  V30 3424 H 326.528 4.62006 4.52946 0
M  V30 3425 N 326.66 -1.06551 1.16123 0
M  V30 3426 C 327.906 -1.79567 0.94252 0
M  V30 3427 C 328.239 -1.86869 -0.528547 0
M  V30 3428 O 327.514 -1.35838 -1.39206 0
M  V30 3429 C 327.797 -3.24195 1.56747 0
M  V30 3430 C 327.65 -3.24989 3.10969 0
M  V30 3431 C 328.969 -4.21678 1.25998 0
M  V30 3432 H 326.088 -0.651883 0.343828 0
M  V30 3433 H 328.73 -1.2463 1.43413 0
M  V30 3434 H 326.88 -3.71107 1.14942 0
M  V30 3435 H 328.552 -2.86258 3.61737 0
M  V30 3436 H 326.795 -2.63716 3.44436 0
M  V30 3437 H 327.466 -4.27005 3.49815 0
M  V30 3438 H 329.942 -3.83196 1.62174 0
M  V30 3439 H 328.818 -5.21146 1.7233 0
M  V30 3440 H 329.079 -4.4174 0.178367 0
M  V30 3441 N 328.138 -0.959301 -1.25041 0
M  V30 3442 C 329.554 -0.664474 -1.4511 0
M  V30 3443 C 329.754 0.776481 -1.85938 0
M  V30 3444 O 328.81 1.55128 -1.99227 0
M  V30 3445 C 330.123 -1.64139 -2.5195 0
M  V30 3446 C 331.671 -1.65309 -2.65786 0
M  V30 3447 C 332.146 -2.61777 -3.75815 0
M  V30 3448 N 333.637 -2.60169 -3.83231 0
M  V30 3449 C 334.372 -3.31489 -4.6787 0
M  V30 3450 N 333.868 -4.12298 -5.56761 0
M  V30 3451 N 335.661 -3.20354 -4.61876 0
M  V30 3452 H 327.812 -1.89043 -0.968332 0
M  V30 3453 H 330.075 -0.813408 -0.4869 0
M  V30 3454 H 329.781 -2.67086 -2.28819 0
M  V30 3455 H 329.655 -1.40756 -3.49954 0
M  V30 3456 H 332.042 -0.630778 -2.8828 0
M  V30 3457 H 332.123 -1.92753 -1.68167 0
M  V30 3458 H 331.767 -3.64137 -3.54071 0
M  V30 3459 H 331.697 -2.31616 -4.72929 0
M  V30 3460 H 334.188 -2.01507 -3.19692 0
M  V30 3461 H 334.501 -4.63625 -6.18281 0
M  V30 3462 H 332.846 -4.16395 -5.56454 0
M  V30 3463 H 336.037 -2.56692 -3.91442 0
M  V30 3464 H 336.21 -3.76201 -5.27614 0
M  V30 3465 N 329.616 1.39756 -0.72842 0
M  V30 3466 C 330.579 2.29012 -0.0927297 0
M  V30 3467 C 331.579 1.45992 0.674025 0
M  V30 3468 O 332.769 1.66749 0.50402 0
M  V30 3469 C 329.901 3.29396 0.878137 0
M  V30 3470 H 331.094 2.86729 -0.879011 0
M  V30 3471 H 328.647 1.48293 -0.493847 0
M  V30 3472 H 329.382 2.76722 1.69101 0
M  V30 3473 H 329.167 3.907 0.331051 0
M  V30 3474 H 330.657 3.96199 1.3197 0
M  V30 3475 N 331.094 0.475555 1.50254 0
M  V30 3476 C 332.027 -0.362381 2.25304 0
M  V30 3477 C 333.005 -0.992393 1.28803 0
M  V30 3478 O 334.189 -1.02746 1.58036 0
M  V30 3479 C 331.316 -1.50813 3.03271 0
M  V30 3480 C 330.362 -0.995044 4.1473 0
M  V30 3481 S 331.195 0.0938436 5.35418 0
M  V30 3482 C 332.351 -1.05567 6.16933 0
M  V30 3483 H 332.584 0.274686 2.96028 0
M  V30 3484 H 330.117 0.260495 1.52187 0
M  V30 3485 H 332.075 -2.16476 3.48781 0
M  V30 3486 H 330.736 -2.11672 2.32064 0
M  V30 3487 H 329.929 -1.85293 4.68703 0
M  V30 3488 H 329.531 -0.416052 3.71679 0
M  V30 3489 H 331.823 -1.96636 6.48337 0
M  V30 3490 H 332.766 -0.555109 7.05921 0
M  V30 3491 H 333.174 -1.31151 5.49053 0
M  V30 3492 N 332.573 -1.56217 0.208337 0
M  V30 3493 C 333.801 -2.02337 -0.43215 0
M  V30 3494 C 334.216 -1.08834 -1.54275 0
M  V30 3495 O 333.573 -0.0955462 -1.8225 0
M  V30 3496 C 333.624 -3.48072 -0.976138 0
M  V30 3497 O 333.345 -4.38007 0.0901621 0
M  V30 3498 C 334.846 -4.09773 -1.69119 0
M  V30 3499 H 332.066 -0.662385 -0.10718 0
M  V30 3500 H 334.61 -2.01966 0.320923 0
M  V30 3501 H 332.765 -3.49099 -1.67954 0
M  V30 3502 H 333.179 -5.23543 -0.316701 0
M  V30 3503 H 334.653 -5.13556 -2.02397 0
M  V30 3504 H 335.13 -3.53999 -2.59964 0
M  V30 3505 H 335.736 -4.12556 -1.03332 0
M  V30 3506 N 334.051 0.0651679 -1.57465 0
M  V30 3507 C 335.001 1.0838 -2.00594 0
M  V30 3508 C 335.985 1.34106 -0.889071 0
M  V30 3509 O 337.177 1.34295 -1.15299 0
M  V30 3510 C 334.306 2.39565 -2.45894 0
M  V30 3511 C 333.392 2.17085 -3.64328 0
M  V30 3512 N 333.783 1.64553 -4.78285 0
M  V30 3513 C 332.081 2.4753 -3.71006 0
M  V30 3514 C 332.782 1.57042 -5.60101 0
M  V30 3515 N 331.758 2.03328 -5.04141 0
M  V30 3516 H 335.56 0.671062 -2.86136 0
M  V30 3517 H 333.074 0.27213 -1.60104 0
M  V30 3518 H 335.071 3.13308 -2.75034 0
M  V30 3519 H 333.731 2.81549 -1.61741 0
M  V30 3520 H 334.742 1.33323 -5.00445 0
M  V30 3521 H 331.419 2.92835 -2.9758 0
M  V30 3522 H 332.809 1.17223 -6.61595 0
M  V30 3523 N 335.529 1.53961 0.336706 0
M  V30 3524 C 336.775 1.7179 1.07777 0
M  V30 3525 C 337.108 0.483263 1.88091 0
M  V30 3526 O 336.383 -0.519747 1.87427 0
M  V30 3527 C 336.666 2.98558 2.01334 0
M  V30 3528 C 336.519 4.32245 1.24437 0
M  V30 3529 C 337.838 3.21023 3.01052 0
M  V30 3530 H 334.957 0.625089 0.390426 0
M  V30 3531 H 337.599 1.86641 0.35567 0
M  V30 3532 H 335.749 2.86028 2.62908 0
M  V30 3533 H 337.421 4.56637 0.654243 0
M  V30 3534 H 335.664 4.30344 0.546458 0
M  V30 3535 H 336.335 5.17137 1.93063 0
M  V30 3536 H 338.811 3.32929 2.49595 0
M  V30 3537 H 337.687 4.11104 3.6371 0
M  V30 3538 H 337.948 2.37637 3.72802 0
M  V30 3539 N 337.007 -0.598083 1.45811 0
M  V30 3540 C 338.256 -1.35295 1.49594 0
M  V30 3541 C 338.569 -1.95057 0.145679 0
M  V30 3542 O 339.775 -2.71431 0.0612099 0
M  V30 3543 C 338.231 -2.45124 2.63519 0
M  V30 3544 C 337.839 -1.91732 4.04899 0
M  V30 3545 C 339.583 -3.2205 2.76558 0
M  V30 3546 C 337.49 -2.991 5.1019 0
M  V30 3547 H 336.42 -0.508552 0.556679 0
M  V30 3548 H 339.071 -0.639977 1.71978 0
M  V30 3549 H 337.453 -3.19149 2.34435 0
M  V30 3550 H 338.627 -1.24352 4.43704 0
M  V30 3551 H 336.942 -1.27522 3.96393 0
M  V30 3552 H 339.539 -4.0215 3.52391 0
M  V30 3553 H 339.882 -3.73663 1.83526 0
M  V30 3554 H 340.415 -2.55127 3.05213 0
M  V30 3555 H 337.154 -2.52393 6.04961 0
M  V30 3556 H 336.674 -3.65017 4.75944 0
M  V30 3557 H 338.353 -3.63318 5.35359 0
M  V30 3558 N 338.485 -1.33259 -0.841409 0
M  V30 3559 C 339.433 -1.23279 -1.97244 0
M  V30 3560 C 340.427 -0.134706 -1.68864 0
M  V30 3561 O 341.633 -0.298501 -1.77508 0
M  V30 3562 H 338.008 -0.382497 -0.647457 0
M  V30 3563 H 339.979 -2.18906 -2.02787 0
M  V30 3564 C 338.728 -0.986268 -3.33419 0
M  V30 3565 H 338.051 -1.82347 -3.55794 0
M  V30 3566 H 339.491 -0.956728 -4.13065 0
M  V30 3567 C 337.95 0.310842 -3.35463 0
M  V30 3568 O 338.48 1.31838 -3.79449 0
M  V30 3569 N 336.686 0.337485 -2.88634 0
M  V30 3570 H 336.233 -0.482967 -2.53032 0
M  V30 3571 H 336.191 1.20518 -2.90384 0
M  V30 3572 N 339.963 1.05934 -1.16686 0
M  V30 3573 C 340.895 2.13468 -0.834503 0
M  V30 3574 C 341.908 1.62013 0.15984 0
M  V30 3575 O 343.097 1.7838 -0.0654228 0
M  V30 3576 C 340.197 3.3817 -0.222361 0
M  V30 3577 C 339.37 4.18928 -1.25771 0
M  V30 3578 C 338.429 5.21985 -0.664703 0
M  V30 3579 O 337.455 5.53334 -1.33453 0
M  V30 3580 N 338.657 5.77919 0.546834 0
M  V30 3581 H 341.422 2.42578 -1.75999 0
M  V30 3582 H 338.983 1.21967 -1.06469 0
M  V30 3583 H 340.975 4.04266 0.187472 0
M  V30 3584 H 339.545 3.06655 0.606758 0
M  V30 3585 H 338.765 3.48433 -1.84358 0
M  V30 3586 H 340.053 4.69687 -1.95631 0
M  V30 3587 H 339.451 5.54721 1.10912 0
M  V30 3588 H 338.008 6.45573 0.898829 0
M  V30 3589 N 341.441 0.965919 1.2453 0
M  V30 3590 C 342.689 0.625593 1.92174 0
M  V30 3591 C 343.01 -0.841652 1.75901 0
M  V30 3592 O 342.28 -1.60061 1.12948 0
M  V30 3593 H 340.86 0.228388 0.71123 0
M  V30 3594 H 343.522 1.2266 1.51461 0
M  V30 3595 H 342.618 0.864653 2.99884 0
M  V30 3596 N 342.919 -1.39368 0.735821 0
M  V30 3597 C 343.852 -2.28155 0.0451175 0
M  V30 3598 C 344.83 -1.44433 -0.746852 0
M  V30 3599 O 346.014 -1.73823 -0.729237 0
M  V30 3600 C 343.141 -3.253 -0.943266 0
M  V30 3601 C 342.187 -4.25826 -0.239685 0
M  V30 3602 S 343.02 -5.25166 1.04693 0
M  V30 3603 C 344.176 -6.2587 0.0611639 0
M  V30 3604 H 344.409 -2.86388 0.79807 0
M  V30 3605 H 341.942 -1.45104 0.527653 0
M  V30 3606 H 343.9 -3.81789 -1.50824 0
M  V30 3607 H 342.561 -2.66085 -1.66906 0
M  V30 3608 H 341.754 -4.94229 -0.987596 0
M  V30 3609 H 341.356 -3.73141 0.253274 0
M  V30 3610 H 343.648 -6.73007 -0.778941 0
M  V30 3611 H 344.591 -7.04508 0.712362 0
M  V30 3612 H 344.999 -5.63639 -0.311602 0
M  V30 3613 N 344.397 -0.483516 -1.5 0
M  V30 3614 C 345.36 0.292965 -2.2732 0
M  V30 3615 C 346.36 0.909499 -1.32608 0
M  V30 3616 O 347.55 0.776745 -1.55924 0
M  V30 3617 C 344.682 1.41854 -3.09984 0
M  V30 3618 H 345.875 -0.385289 -2.97415 0
M  V30 3619 H 343.428 -0.237942 -1.54478 0
M  V30 3620 H 344.163 2.13148 -2.44414 0
M  V30 3621 H 343.948 0.982114 -3.79601 0
M  V30 3622 H 345.438 1.96597 -3.68429 0
M  V30 3623 N 345.875 1.56104 -0.216619 0
M  V30 3624 C 346.808 2.16026 0.735395 0
M  V30 3625 C 347.786 1.1032 1.1945 0
M  V30 3626 O 348.97 1.38549 1.27814 0
M  V30 3627 C 346.097 2.73656 1.99575 0
M  V30 3628 C 345.143 3.92146 1.67702 0
M  V30 3629 S 345.976 5.29397 0.806145 0
M  V30 3630 C 347.132 5.90463 2.07617 0
M  V30 3631 H 347.365 2.96439 0.226072 0
M  V30 3632 H 344.898 1.544 -0.00136639 0
M  V30 3633 H 346.856 3.075 2.71945 0
M  V30 3634 H 345.517 1.93245 2.47619 0
M  V30 3635 H 344.71 4.30954 2.61332 0
M  V30 3636 H 344.312 3.59423 1.03398 0
M  V30 3637 H 346.604 6.06136 3.02664 0
M  V30 3638 H 347.547 6.86589 1.73207 0
M  V30 3639 H 347.955 5.19252 2.21445 0
M  V30 3640 N 347.353 -0.0568162 1.57498 0
M  V30 3641 C 348.583 -0.764515 1.91934 0
M  V30 3642 C 348.991 -1.70877 0.81227 0
M  V30 3643 O 348.334 -1.82351 -0.222213 0
M  V30 3644 C 348.396 -1.5994 3.21962 0
M  V30 3645 C 348.06 -0.822925 4.4953 0
M  V30 3646 C 349.057 -0.135464 5.19723 0
M  V30 3647 C 346.742 -0.785666 4.96117 0
M  V30 3648 C 348.736 0.578861 6.34766 0
M  V30 3649 C 346.423 -0.0675784 6.11063 0
M  V30 3650 C 347.421 0.613471 6.80239 0
M  V30 3651 O 347.109 1.31996 7.92989 0
M  V30 3652 H 346.841 -0.221647 0.63863 0
M  V30 3653 H 349.395 -0.0268218 2.05382 0
M  V30 3654 H 347.625 -2.38026 3.04763 0
M  V30 3655 H 349.314 -2.18715 3.41934 0
M  V30 3656 H 350.08 -0.155458 4.84751 0
M  V30 3657 H 345.959 -1.30524 4.42136 0
M  V30 3658 H 349.503 1.111 6.88696 0
M  V30 3659 H 345.4 -0.0455636 6.45484 0
M  V30 3660 H 346.168 1.23077 8.09194 0
M  V30 3661 N 348.832 -1.54138 -0.328536 0
M  V30 3662 C 350.078 -1.73297 -1.06488 0
M  V30 3663 C 350.433 -0.497958 -1.85844 0
M  V30 3664 O 349.726 0.509591 -1.84699 0
M  V30 3665 C 349.92 -2.9457 -2.02393 0
M  V30 3666 C 349.749 -4.29747 -1.32467 0
M  V30 3667 C 348.519 -4.93987 -1.06324 0
M  V30 3668 C 350.717 -5.08903 -0.743137 0
M  V30 3669 N 348.699 -6.13005 -0.331359 0
M  V30 3670 C 350.07 -6.19836 -0.142602 0
M  V30 3671 C 352.125 -4.93699 -0.64546 0
M  V30 3672 C 350.828 -7.17224 0.546125 0
M  V30 3673 C 352.854 -5.91393 0.0295558 0
M  V30 3674 C 352.216 -7.01674 0.619056 0
M  V30 3675 H 348.315 -0.687017 -0.373539 0
M  V30 3676 H 350.899 -1.91589 -0.346659 0
M  V30 3677 H 349.07 -2.77752 -2.71493 0
M  V30 3678 H 350.802 -3.0238 -2.68977 0
M  V30 3679 H 347.557 -4.53824 -1.35428 0
M  V30 3680 H 347.981 -6.76997 0.0202939 0
M  V30 3681 H 352.623 -4.08589 -1.08695 0
M  V30 3682 H 350.341 -8.01896 0.999459 0
M  V30 3683 H 353.927 -5.81706 0.104705 0
M  V30 3684 H 352.807 -7.75971 1.13309 0
M  V30 3685 N 350.31 0.590341 -1.46126 0
M  V30 3686 C 351.558 1.34616 -1.50742 0
M  V30 3687 C 351.879 1.94363 -0.157486 0
M  V30 3688 O 351.149 1.78136 0.815136 0
M  V30 3689 H 349.729 0.499789 -0.555175 0
M  V30 3690 H 352.391 0.691953 -1.82203 0
M  V30 3691 H 351.487 2.15678 -2.25587 0
M  V30 3692 N 351.788 1.33704 0.83433 0
M  V30 3693 C 353.016 1.28467 1.62185 0
M  V30 3694 C 353.431 -0.143526 1.88254 0
M  V30 3695 O 352.788 -1.08709 1.4659 0
M  V30 3696 C 352.839 2.06174 2.96942 0
M  V30 3697 O 352.56 3.43422 2.72016 0
M  V30 3698 C 354.061 2.08201 3.91366 0
M  V30 3699 H 351.281 0.4424 0.504503 0
M  V30 3700 H 353.825 1.76145 1.03891 0
M  V30 3701 H 351.98 1.62167 3.51825 0
M  V30 3702 H 352.394 3.83453 3.57861 0
M  V30 3703 H 353.868 2.67017 4.83121 0
M  V30 3704 H 354.345 1.07343 4.2588 0
M  V30 3705 H 354.951 2.52246 3.42421 0
M  V30 3706 N 353.266 -1.05314 1.17247 0
M  V30 3707 C 354.491 -1.82509 0.985148 0
M  V30 3708 C 354.916 -1.82343 -0.461788 0
M  V30 3709 O 354.274 -1.23151 -1.33055 0
M  V30 3710 C 354.322 -3.26566 1.52929 0
M  V30 3711 O 353.426 -4.05666 0.742225 0
M  V30 3712 H 352.767 -0.564347 0.349869 0
M  V30 3713 H 355.297 -1.32718 1.55715 0
M  V30 3714 H 355.307 -3.77369 1.55103 0
M  V30 3715 H 353.982 -3.26001 2.58256 0
M  V30 3716 H 352.559 -3.64397 0.791794 0
M  V30 3717 N 354.744 -0.972509 -1.24016 0
M  V30 3718 C 356.16 -0.679827 -1.44397 0
M  V30 3719 C 356.36 0.756716 -1.86751 0
M  V30 3720 O 355.416 1.53007 -2.00861 0
M  V30 3721 C 356.729 -1.66803 -2.50195 0
M  V30 3722 C 358.277 -1.68119 -2.64017 0
M  V30 3723 C 358.752 -2.65748 -3.73017 0
M  V30 3724 N 360.243 -2.64219 -3.8045 0
M  V30 3725 C 360.978 -3.36433 -4.64328 0
M  V30 3726 N 360.474 -4.1818 -5.52356 0
M  V30 3727 N 362.267 -3.25235 -4.58453 0
M  V30 3728 H 354.418 -1.90059 -0.948228 0
M  V30 3729 H 356.681 -0.818527 -0.478245 0
M  V30 3730 H 356.387 -2.69498 -2.25973 0
M  V30 3731 H 356.261 -1.4446 -3.48441 0
M  V30 3732 H 358.648 -0.661319 -2.87594 0
M  V30 3733 H 358.729 -1.94525 -1.66113 0
M  V30 3734 H 358.373 -3.67872 -3.50189 0
M  V30 3735 H 358.303 -2.36619 -4.70446 0
M  V30 3736 H 360.794 -2.04887 -3.17537 0
M  V30 3737 H 361.107 -4.70157 -6.13329 0
M  V30 3738 H 359.452 -4.22273 -5.52006 0
M  V30 3739 H 362.643 -2.60829 -3.88698 0
M  V30 3740 H 362.816 -3.81776 -5.23594 0
M  V30 3741 N 356.222 1.38976 -0.743202 0
M  V30 3742 C 357.468 2.01114 -0.304109 0
M  V30 3743 C 357.823 1.57929 1.09892 0
M  V30 3744 O 357.116 0.801983 1.74008 0
M  V30 3745 C 357.31 3.55647 -0.353517 0
M  V30 3746 C 357.139 4.13837 -1.75981 0
M  V30 3747 C 355.909 4.46062 -2.37395 0
M  V30 3748 C 358.107 4.36812 -2.71477 0
M  V30 3749 N 356.089 4.898 -3.70093 0
M  V30 3750 C 357.46 4.82844 -3.88923 0
M  V30 3751 C 359.515 4.18893 -2.69134 0
M  V30 3752 C 358.218 5.12837 -5.04371 0
M  V30 3753 C 360.244 4.50005 -3.83731 0
M  V30 3754 C 359.606 4.96251 -4.99914 0
M  V30 3755 H 355.705 0.765931 -0.157716 0
M  V30 3756 H 358.289 1.68763 -0.970931 0
M  V30 3757 H 356.46 3.87368 0.282987 0
M  V30 3758 H 358.192 4.04564 0.104904 0
M  V30 3759 H 354.947 4.34145 -1.89248 0
M  V30 3760 H 355.371 5.16016 -4.38242 0
M  V30 3761 H 360.013 3.82335 -1.80499 0
M  V30 3762 H 357.731 5.48297 -5.9363 0
M  V30 3763 H 361.317 4.37755 -3.83225 0
M  V30 3764 H 360.197 5.19867 -5.87118 0
M  V30 3765 N 357.7 0.491464 1.49741 0
M  V30 3766 C 358.925 -0.0557177 2.07325 0
M  V30 3767 C 359.35 -1.30925 1.35056 0
M  V30 3768 O 358.708 -1.76733 0.404365 0
M  V30 3769 C 358.756 -0.302074 3.59333 0
M  V30 3770 O 357.86 -1.37868 3.88672 0
M  V30 3771 H 357.201 0.0219956 0.663636 0
M  V30 3772 H 359.731 0.688352 1.92673 0
M  V30 3773 H 359.741 -0.536464 4.04458 0
M  V30 3774 H 358.416 0.61383 4.11345 0
M  V30 3775 H 356.993 -1.12999 3.55367 0
M  V30 3776 N 359.178 -1.55987 0.224894 0
M  V30 3777 C 360.141 -2.19178 -0.670348 0
M  V30 3778 C 361.141 -1.15461 -1.11917 0
M  V30 3779 O 362.331 -1.40675 -1.02743 0
M  V30 3780 C 359.463 -2.81777 -1.9187 0
M  V30 3781 H 360.656 -2.99662 -0.119364 0
M  V30 3782 H 358.209 -1.5628 -0.0247128 0
M  V30 3783 H 358.944 -2.05172 -2.51147 0
M  V30 3784 H 358.729 -3.57732 -1.60531 0
M  V30 3785 H 360.219 -3.30205 -2.55645 0
M  V30 3786 N 360.656 0.0484629 -1.57525 0
M  V30 3787 C 361.589 1.08755 -2.00618 0
M  V30 3788 C 362.567 1.36272 -0.887058 0
M  V30 3789 O 363.751 1.49255 -1.15131 0
M  V30 3790 C 360.878 2.42675 -2.36277 0
M  V30 3791 C 359.924 2.31142 -3.58435 0
M  V30 3792 S 360.757 1.68326 -5.08357 0
M  V30 3793 C 361.913 3.03776 -5.47239 0
M  V30 3794 H 362.146 0.720415 -2.88439 0
M  V30 3795 H 359.679 0.257801 -1.52233 0
M  V30 3796 H 361.637 3.19699 -2.57494 0
M  V30 3797 H 360.298 2.76541 -1.48942 0
M  V30 3798 H 359.491 3.29957 -3.80978 0
M  V30 3799 H 359.093 1.62258 -3.36969 0
M  V30 3800 H 361.385 4.00106 -5.46737 0
M  V30 3801 H 362.328 2.85988 -6.47778 0
M  V30 3802 H 362.736 3.05456 -4.74718 0
M  V30 3803 N 362.134 1.5431 0.320358 0
M  V30 3804 C 363.044 1.86946 1.41734 0
M  V30 3805 C 364.06 0.761689 1.56443 0
M  V30 3806 O 365.236 1.05629 1.71477 0
M  V30 3807 C 362.301 2.09293 2.76401 0
M  V30 3808 C 361.362 3.33082 2.70841 0
M  V30 3809 C 360.595 3.54353 3.99086 0
M  V30 3810 O 360.818 2.79002 4.97508 0
M  V30 3811 O 359.752 4.47838 4.0215 0
M  V30 3812 H 363.578 2.80232 1.17062 0
M  V30 3813 H 361.163 1.40255 0.514673 0
M  V30 3814 H 363.045 2.25303 3.56113 0
M  V30 3815 H 361.72 1.19194 3.00956 0
M  V30 3816 H 360.627 3.22454 1.89668 0
M  V30 3817 H 361.96 4.23249 2.5124 0
M  V30 3818 N 363.613 -0.582584 1.46437 0
M  V30 3819 C 364.862 -1.337 1.5102 0
M  V30 3820 C 365.175 -1.94891 0.166359 0
M  V30 3821 O 366.381 -2.71351 0.0899954 0
M  V30 3822 C 364.837 -2.42315 2.66104 0
M  V30 3823 C 364.445 -1.87427 4.06909 0
M  V30 3824 C 366.189 -3.19099 2.79958 0
M  V30 3825 C 364.096 -2.93672 5.13333 0
M  V30 3826 H 363.026 -0.502619 0.562041 0
M  V30 3827 H 365.677 -0.621701 1.72647 0
M  V30 3828 H 364.059 -3.16645 2.37807 0
M  V30 3829 H 365.233 -1.19639 4.44998 0
M  V30 3830 H 363.548 -1.2331 3.97723 0
M  V30 3831 H 366.145 -3.9839 3.56636 0
M  V30 3832 H 366.488 -3.71695 1.87479 0
M  V30 3833 H 367.021 -2.51875 3.07902 0
M  V30 3834 H 363.76 -2.45962 6.07604 0
M  V30 3835 H 363.28 -3.59948 4.79789 0
M  V30 3836 H 364.959 -3.5762 5.39182 0
M  V30 3837 N 365.091 -1.34144 -0.827227 0
M  V30 3838 C 366.024 -1.19707 -1.94282 0
M  V30 3839 C 367.002 -0.0897256 -1.62352 0
M  V30 3840 O 368.186 -0.254095 -1.8678 0
M  V30 3841 C 365.313 -0.838646 -3.28153 0
M  V30 3842 C 364.359 -1.95514 -3.79047 0
M  V30 3843 S 365.192 -3.56793 -3.99323 0
M  V30 3844 C 366.348 -3.22983 -5.36127 0
M  V30 3845 H 366.581 -2.1414 -2.06231 0
M  V30 3846 H 364.114 -1.19121 -0.982321 0
M  V30 3847 H 366.072 -0.638637 -4.05502 0
M  V30 3848 H 364.733 0.0872776 -3.13979 0
M  V30 3849 H 363.926 -1.658 -4.75948 0
M  V30 3850 H 363.528 -2.11241 -3.08631 0
M  V30 3851 H 365.82 -2.74531 -6.19386 0
M  V30 3852 H 366.763 -4.19008 -5.70822 0
M  V30 3853 H 367.171 -2.59276 -5.01434 0
M  V30 3854 N 366.569 1.04691 -1.17803 0
M  V30 3855 C 367.479 2.16057 -0.914151 0
M  V30 3856 C 368.495 1.73589 0.119503 0
M  V30 3857 O 369.671 2.01308 -0.0609468 0
M  V30 3858 C 366.736 3.4394 -0.436603 0
M  V30 3859 C 365.797 4.00825 -1.53746 0
M  V30 3860 C 365.03 5.22604 -1.0826 0
M  V30 3861 O 365.253 5.70367 0.0612244 0
M  V30 3862 O 364.187 5.7186 -1.87775 0
M  V30 3863 H 368.013 2.41169 -1.84584 0
M  V30 3864 H 365.598 1.1453 -0.959334 0
M  V30 3865 H 367.48 4.21024 -0.178057 0
M  V30 3866 H 366.155 3.20316 0.466869 0
M  V30 3867 H 365.062 3.25158 -1.84995 0
M  V30 3868 H 366.395 4.28778 -2.41683 0
M  V30 3869 N 368.047 0.979072 1.23499 0
M  V30 3870 C 369.01 0.523244 2.23147 0
M  V30 3871 C 370.01 -0.386406 1.56088 0
M  V30 3872 O 371.2 -0.180283 1.73265 0
M  V30 3873 C 368.332 -0.240739 3.40049 0
M  V30 3874 H 369.525 1.40432 2.64989 0
M  V30 3875 H 367.078 0.764824 1.36309 0
M  V30 3876 H 367.813 -1.13841 3.03662 0
M  V30 3877 H 367.598 0.412207 3.89927 0
M  V30 3878 H 369.088 -0.548297 4.13985 0
M  V30 3879 N 369.525 -1.3858 0.750561 0
M  V30 3880 C 370.755 -2.04175 0.31564 0
M  V30 3881 C 371.163 -1.56726 -1.05989 0
M  V30 3882 O 370.506 -0.734225 -1.68389 0
M  V30 3883 C 370.568 -3.58585 0.256389 0
M  V30 3884 C 370.232 -4.29077 1.57296 0
M  V30 3885 C 371.229 -4.54656 2.52159 0
M  V30 3886 C 368.914 -4.67324 1.84156 0
M  V30 3887 C 370.908 -5.17512 3.72103 0
M  V30 3888 C 368.595 -5.29905 3.04374 0
M  V30 3889 C 369.593 -5.54933 3.98168 0
M  V30 3890 O 369.281 -6.16212 5.16273 0
M  V30 3891 H 369.013 -0.662742 0.133226 0
M  V30 3892 H 371.567 -1.78313 1.01948 0
M  V30 3893 H 369.797 -3.83406 -0.503677 0
M  V30 3894 H 371.486 -4.05628 -0.148612 0
M  V30 3895 H 372.252 -4.25539 2.32683 0
M  V30 3896 H 368.131 -4.47191 1.11988 0
M  V30 3897 H 371.675 -5.36963 4.45327 0
M  V30 3898 H 367.572 -5.58444 3.23745 0
M  V30 3899 H 368.34 -6.34701 5.16815 0
M  V30 3900 N 371.003 -0.499398 -1.49478 0
M  V30 3901 C 372.228 0.044722 -2.07352 0
M  V30 3902 C 372.653 1.30207 -1.35749 0
M  V30 3903 O 372.011 1.76516 -0.413732 0
M  V30 3904 C 372.059 0.283013 -3.59488 0
M  V30 3905 O 371.163 1.35804 -3.89398 0
M  V30 3906 H 370.504 -0.0255147 -0.66351 0
M  V30 3907 H 373.034 -0.698561 -1.92305 0
M  V30 3908 H 373.044 0.515007 -4.04737 0
M  V30 3909 H 371.719 -0.635636 -4.11014 0
M  V30 3910 H 370.296 1.11113 -3.55961 0
M  V30 3911 N 372.481 1.55866 -0.233164 0
M  V30 3912 C 373.727 1.98897 0.395959 0
M  V30 3913 C 374.06 1.12091 1.58585 0
M  V30 3914 O 373.335 0.181182 1.93654 0
M  V30 3915 C 373.618 3.50658 0.819224 0
M  V30 3916 C 373.471 4.48233 -0.375109 0
M  V30 3917 C 374.79 4.07135 1.67121 0
M  V30 3918 H 371.909 0.723102 0.142451 0
M  V30 3919 H 374.551 1.87082 -0.331725 0
M  V30 3920 H 372.701 3.60857 1.43925 0
M  V30 3921 H 374.373 4.50031 -1.01341 0
M  V30 3922 H 372.616 4.21624 -1.02058 0
M  V30 3923 H 373.287 5.51988 -0.0358328 0
M  V30 3924 H 375.763 3.99952 1.14795 0
M  V30 3925 H 374.639 5.13615 1.93625 0
M  V30 3926 H 374.9 3.54736 2.63846 0
M  V30 3927 N 373.959 -0.0401083 1.57549 0
M  V30 3928 C 374.922 -1.02871 2.04817 0
M  V30 3929 C 375.922 -1.29708 0.950388 0
M  V30 3930 O 377.112 -1.24897 1.21435 0
M  V30 3931 C 374.244 -2.36443 2.45576 0
M  V30 3932 H 375.437 -0.620631 2.93408 0
M  V30 3933 H 372.99 -0.286667 1.53649 0
M  V30 3934 H 373.725 -2.82021 1.60108 0
M  V30 3935 H 373.51 -2.18296 3.25713 0
M  V30 3936 H 375 -3.07441 2.82612 0
M  V30 3937 N 375.437 -1.54477 -0.31217 0
M  V30 3938 C 376.853 -1.45442 -0.657185 0
M  V30 3939 C 377.053 -0.63653 -1.91182 0
M  V30 3940 O 376.109 -0.139815 -2.52113 0
M  V30 3941 C 377.422 -2.89287 -0.82058 0
M  V30 3942 C 378.97 -2.9926 -0.917188 0
M  V30 3943 C 379.445 -4.44279 -1.11267 0
M  V30 3944 N 380.936 -4.4794 -1.17914 0
M  V30 3945 C 381.671 -5.57318 -1.34848 0
M  V30 3946 N 381.167 -6.76642 -1.48752 0
M  V30 3947 N 382.96 -5.44986 -1.37647 0
M  V30 3948 H 375.111 -2.06129 0.512313 0
M  V30 3949 H 377.374 -0.933088 0.167485 0
M  V30 3950 H 377.08 -3.51687 0.0302604 0
M  V30 3951 H 376.954 -3.36061 -1.71298 0
M  V30 3952 H 379.341 -2.36981 -1.75852 0
M  V30 3953 H 379.422 -2.558 -0.00101257 0
M  V30 3954 H 379.066 -5.07149 -0.27614 0
M  V30 3955 H 378.996 -4.85359 -2.04289 0
M  V30 3956 H 381.487 -3.61969 -1.08567 0
M  V30 3957 H 381.8 -7.55758 -1.61397 0
M  V30 3958 H 380.145 -6.79529 -1.45828 0
M  V30 3959 H 383.336 -4.50715 -1.26388 0
M  V30 3960 H 383.509 -6.3028 -1.50501 0
M  V30 3961 N 376.915 0.57481 -1.46744 0
M  V30 3962 C 377.847 1.69804 -1.53946 0
M  V30 3963 C 378.86 1.57098 -0.427106 0
M  V30 3964 O 380.049 1.64378 -0.695863 0
M  V30 3965 C 377.149 3.08125 -1.4111 0
M  V30 3966 C 376.322 3.46757 -2.66605 0
M  V30 3967 C 375.381 4.6417 -2.47855 0
M  V30 3968 O 374.407 4.69634 -3.21609 0
M  V30 3969 N 375.609 5.59553 -1.54534 0
M  V30 3970 H 378.374 1.64077 -2.50796 0
M  V30 3971 H 375.935 0.761 -1.429 0
M  V30 3972 H 377.927 3.84478 -1.26328 0
M  V30 3973 H 376.497 3.08175 -0.524109 0
M  V30 3974 H 375.717 2.6003 -2.96274 0
M  V30 3975 H 377.005 3.69337 -3.49954 0
M  V30 3976 H 376.403 5.57881 -0.937304 0
M  V30 3977 H 374.96 6.35304 -1.45711 0
M  V30 3978 N 378.394 1.34581 0.820102 0
M  V30 3979 C 379.641 1.27096 1.57648 0
M  V30 3980 C 379.969 -0.158317 1.93855 0
M  V30 3981 O 379.224 -1.12028 1.60463 0
M  V30 3982 C 379.523 2.10997 2.8847 0
M  V30 3983 C 379.189 3.59966 2.71543 0
M  V30 3984 C 377.851 4.00575 2.66634 0
M  V30 3985 C 380.203 4.54548 2.55021 0
M  V30 3986 C 377.531 5.33953 2.43128 0
M  V30 3987 C 379.883 5.88109 2.33047 0
M  V30 3988 C 378.547 6.27878 2.26552 0
M  V30 3989 H 377.817 0.465078 0.576874 0
M  V30 3990 H 380.464 1.6635 0.948671 0
M  V30 3991 H 378.769 1.6458 3.55557 0
M  V30 3992 H 380.466 2.0255 3.46084 0
M  V30 3993 H 377.056 3.27733 2.76205 0
M  V30 3994 H 381.24 4.24069 2.57835 0
M  V30 3995 H 376.496 5.63781 2.3656 0
M  V30 3996 H 380.67 6.60985 2.19251 0
M  V30 3997 H 378.297 7.31162 2.081 0
M  V30 3998 N 379.872 -1.04064 1.18357 0
M  V30 3999 C 380.82 -2.14187 0.907007 0
M  V30 4000 C 381.814 -1.68879 -0.132725 0
M  V30 4001 O 383.02 -1.79993 0.0154248 0
M  V30 4002 H 379.395 -0.699585 0.275835 0
M  V30 4003 H 381.366 -2.34711 1.84264 0
M  V30 4004 C 380.115 -3.44785 0.449254 0
M  V30 4005 H 379.438 -3.80058 1.24081 0
M  V30 4006 H 380.878 -4.22974 0.294737 0
M  V30 4007 C 379.337 -3.26391 -0.834909 0
M  V30 4008 O 379.867 -3.53973 -1.89911 0
M  V30 4009 N 378.073 -2.79726 -0.787523 0
M  V30 4010 H 377.62 -2.5748 0.0787347 0
M  V30 4011 H 377.578 -2.67798 -1.64716 0
M  V30 4012 N 381.35 -0.985608 -1.22978 0
M  V30 4013 C 382.283 -0.47487 -2.23204 0
M  V30 4014 C 383.261 0.460865 -1.55932 0
M  V30 4015 O 384.445 0.388105 -1.84461 0
M  V30 4016 C 381.572 0.312427 -3.37256 0
M  V30 4017 C 380.618 -0.568219 -4.22698 0
M  V30 4018 S 381.451 -2.01919 -4.95973 0
M  V30 4019 C 382.607 -1.24118 -6.1347 0
M  V30 4020 H 382.84 -1.32419 -2.66181 0
M  V30 4021 H 380.373 -0.792005 -1.32539 0
M  V30 4022 H 382.331 0.760645 -4.03391 0
M  V30 4023 H 380.992 1.13693 -2.92801 0
M  V30 4024 H 380.185 0.0371657 -5.03986 0
M  V30 4025 H 379.787 -0.952897 -3.61657 0
M  V30 4026 H 382.079 -0.505121 -6.75614 0
M  V30 4027 H 383.022 -2.02907 -6.78406 0
M  V30 4028 H 383.43 -0.757669 -5.59392 0
M  V30 4029 N 382.828 1.3818 -0.7579 0
M  V30 4030 C 384.077 1.99261 -0.312744 0
M  V30 4031 C 384.39 1.60846 1.11301 0
M  V30 4032 O 385.596 2.14929 1.65885 0
M  V30 4033 C 384.052 3.56294 -0.50821 0
M  V30 4034 C 383.66 4.03657 -1.94333 0
M  V30 4035 C 385.404 4.24313 -0.125982 0
M  V30 4036 C 383.311 5.53347 -2.08712 0
M  V30 4037 H 382.241 0.745456 -0.113185 0
M  V30 4038 H 384.892 1.57889 -0.935056 0
M  V30 4039 H 383.274 3.95575 0.183353 0
M  V30 4040 H 384.448 3.75655 -2.66871 0
M  V30 4041 H 382.763 3.48376 -2.28086 0
M  V30 4042 H 385.36 5.34279 -0.212125 0
M  V30 4043 H 385.703 4.05962 0.921964 0
M  V30 4044 H 386.236 3.90285 -0.769563 0
M  V30 4045 H 382.975 5.76607 -3.11777 0
M  V30 4046 H 382.495 5.83078 -1.4064 0
M  V30 4047 H 384.174 6.19111 -1.87912 0
M  V30 4048 N 384.306 0.507319 1.49211 0
M  V30 4049 C 385.717 0.0611118 1.866 0
M  V30 4050 C 386.068 -1.35488 1.41907 0
M  V30 4051 O 385.193 -2.0108 0.799726 0
M  V30 4052 C 385.788 0.104125 3.3864 0
M  V30 4053 C 384.347 -0.28677 3.75306 0
M  V30 4054 C 383.494 0.473893 2.73221 0
M  V30 4055 H 386.445 0.719775 1.41439 0
M  V30 4056 H 386.466 -0.689672 3.74198 0
M  V30 4057 H 385.978 1.13482 3.71138 0
M  V30 4058 H 384.079 -1.32046 3.48417 0
M  V30 4059 H 384.192 0.0370745 4.79086 0
M  V30 4060 H 382.556 -0.0770644 2.54583 0
M  V30 4061 H 383.339 1.50478 3.08563 0
M  V30 4062 N 385.784 -1.5574 0.241426 0
M  V30 4063 C 387.195 -1.84842 -0.262755 0
M  V30 4064 C 387.546 -1.16317 -1.58003 0
M  V30 4065 O 386.671 -0.439653 -2.11887 0
M  V30 4066 C 387.266 -3.35332 -0.483523 0
M  V30 4067 C 385.825 -3.6468 -0.931977 0
M  V30 4068 C 384.972 -2.77299 -0.0061151 0
M  V30 4069 H 387.923 -1.51761 0.464129 0
M  V30 4070 H 387.944 -3.56615 -1.32688 0
M  V30 4071 H 387.456 -3.85178 0.47537 0
M  V30 4072 H 385.557 -3.20307 -1.90353 0
M  V30 4073 H 385.67 -4.72498 -0.792628 0
M  V30 4074 H 384.034 -2.49408 -0.516503 0
M  V30 4075 H 384.817 -3.2995 0.948052 0
M  V30 4076 N 387.262 0.0317525 -1.57568 0
M  V30 4077 C 388.508 0.724175 -1.8943 0
M  V30 4078 C 388.841 1.75149 -0.838836 0
M  V30 4079 O 388.116 1.93948 0.146422 0
M  V30 4080 C 388.399 1.39615 -3.31933 0
M  V30 4081 C 388.252 0.382537 -4.4817 0
M  V30 4082 C 389.571 2.33084 -3.73309 0
M  V30 4083 H 386.69 0.261797 -0.688935 0
M  V30 4084 H 389.332 -0.013017 -1.89996 0
M  V30 4085 H 387.482 2.02451 -3.31581 0
M  V30 4086 H 389.154 -0.243689 -4.60656 0
M  V30 4087 H 387.397 -0.29844 -4.32772 0
M  V30 4088 H 388.068 0.891145 -5.44759 0
M  V30 4089 H 390.544 1.80295 -3.7501 0
M  V30 4090 H 389.42 2.77084 -4.73831 0
M  V30 4091 H 389.681 3.19643 -3.05419 0
M  V30 4092 N 388.74 1.54641 0.303973 0
M  V30 4093 C 389.98 1.75516 1.04755 0
M  V30 4094 C 390.344 0.528211 1.84591 0
M  V30 4095 O 391.545 0.614645 2.61678 0
M  V30 4096 C 389.816 3.00685 1.93193 0
M  V30 4097 S 391.375 3.42549 2.74237 0
M  V30 4098 H 388.193 0.616987 0.353339 0
M  V30 4099 H 390.795 1.92842 0.321292 0
M  V30 4100 H 389.499 3.8811 1.33411 0
M  V30 4101 H 389.03 2.85937 2.70191 0
M  V30 4102 H 391.045 2.99386 3.95705 0
M  V30 4103 N 390.218 -0.567019 1.47046 0
M  V30 4104 C 391.128 -1.70247 1.6141 0
M  V30 4105 C 392.144 -1.66746 0.497157 0
M  V30 4106 O 393.32 -1.86371 0.763389 0
M  V30 4107 C 390.385 -3.06756 1.61561 0
M  V30 4108 C 389.446 -3.21399 2.84607 0
M  V30 4109 C 388.679 -4.51396 2.84741 0
M  V30 4110 O 388.902 -5.36255 1.94388 0
M  V30 4111 O 387.836 -4.69621 3.76483 0
M  V30 4112 H 391.662 -1.61073 2.57467 0
M  V30 4113 H 389.247 -0.735894 1.30019 0
M  V30 4114 H 391.129 -3.8801 1.64396 0
M  V30 4115 H 389.804 -3.16333 0.686684 0
M  V30 4116 H 388.711 -2.39579 2.8732 0
M  V30 4117 H 390.044 -3.16721 3.76761 0
M  V30 4118 N 391.696 -1.35014 -0.812953 0
M  V30 4119 C 392.628 -1.23262 -1.93233 0
M  V30 4120 C 393.641 -0.157371 -1.62038 0
M  V30 4121 O 394.83 -0.410096 -1.73725 0
M  V30 4122 C 391.93 -0.87392 -3.27438 0
M  V30 4123 C 391.103 -2.04622 -3.86586 0
M  V30 4124 C 390.162 -1.66432 -4.99186 0
M  V30 4125 O 389.188 -2.38222 -5.16951 0
M  V30 4126 N 390.39 -0.584248 -5.77552 0
M  V30 4127 H 393.155 -2.19699 -2.03844 0
M  V30 4128 H 390.716 -1.281 -0.99005 0
M  V30 4129 H 392.708 -0.600039 -4.00227 0
M  V30 4130 H 391.278 0.00057392 -3.126 0
M  V30 4131 H 390.498 -2.48427 -3.06068 0
M  V30 4132 H 391.786 -2.82999 -4.22835 0
M  V30 4133 H 391.184 0.0123526 -5.65699 0
M  V30 4134 H 389.741 -0.37013 -6.50748 0
M  V30 4135 N 393.175 1.03435 -1.18907 0
M  V30 4136 C 394.138 2.09756 -0.923844 0
M  V30 4137 C 395.138 1.60528 0.093416 0
M  V30 4138 O 396.328 1.73631 -0.140727 0
M  V30 4139 C 393.46 3.38692 -0.387354 0
M  V30 4140 H 394.653 2.34719 -1.86674 0
M  V30 4141 H 392.206 1.19959 -1.00197 0
M  V30 4142 H 392.941 3.19396 0.561845 0
M  V30 4143 H 392.726 3.75742 -1.12074 0
M  V30 4144 H 394.216 4.17016 -0.220694 0
M  V30 4145 N 394.653 0.992116 1.22453 0
M  V30 4146 C 395.563 0.55065 2.28046 0
M  V30 4147 C 396.579 -0.400189 1.69335 0
M  V30 4148 O 397.755 -0.267215 1.99619 0
M  V30 4149 C 394.82 -0.128496 3.46462 0
M  V30 4150 C 393.881 0.865208 4.20491 0
M  V30 4151 C 393.114 0.218377 5.33253 0
M  V30 4152 O 393.337 -0.987894 5.6178 0
M  V30 4153 O 392.271 0.922845 5.94783 0
M  V30 4154 H 396.097 1.4291 2.67975 0
M  V30 4155 H 393.682 0.760326 1.28606 0
M  V30 4156 H 395.564 -0.508947 4.18315 0
M  V30 4157 H 394.239 -0.981526 3.0846 0
M  V30 4158 H 393.146 1.29658 3.50913 0
M  V30 4159 H 394.479 1.68741 4.62371 0
M  V30 4160 N 396.131 -1.37776 0.765217 0
M  V30 4161 C 397.361 -2.03828 0.337277 0
M  V30 4162 C 397.769 -1.57841 -1.04321 0
M  V30 4163 O 397.112 -0.752043 -1.67601 0
M  V30 4164 C 397.174 -3.58292 0.294407 0
M  V30 4165 C 396.838 -4.27384 1.61838 0
M  V30 4166 C 397.835 -4.51956 2.56967 0
M  V30 4167 C 395.52 -4.65345 1.89102 0
M  V30 4168 C 397.514 -5.13536 3.77571 0
M  V30 4169 C 395.201 -5.26647 3.09978 0
M  V30 4170 C 396.199 -5.50679 4.04032 0
M  V30 4171 O 395.887 -6.10702 5.2278 0
M  V30 4172 H 395.619 -0.661292 0.140248 0
M  V30 4173 H 398.173 -1.77222 1.03834 0
M  V30 4174 H 396.403 -3.83918 -0.462983 0
M  V30 4175 H 398.092 -4.05763 -0.105581 0
M  V30 4176 H 398.858 -4.23048 2.37183 0
M  V30 4177 H 394.737 -4.45978 1.16725 0
M  V30 4178 H 398.281 -5.3221 4.50997 0
M  V30 4179 H 394.178 -5.54979 3.29649 0
M  V30 4180 H 394.946 -6.29183 5.23517 0
M  V30 4181 N 397.609 -0.515225 -1.4894 0
M  V30 4182 C 398.559 0.275113 -2.26334 0
M  V30 4183 C 399.543 0.923007 -1.31793 0
M  V30 4184 O 400.735 0.828254 -1.56426 0
M  V30 4185 C 397.864 1.33041 -3.16473 0
M  V30 4186 C 396.95 0.688051 -4.18481 0
M  V30 4187 N 397.341 -0.217638 -5.05332 0
M  V30 4188 C 395.639 0.94699 -4.3583 0
M  V30 4189 C 396.34 -0.58676 -5.78733 0
M  V30 4190 N 395.316 0.0486966 -5.43578 0
M  V30 4191 H 399.118 -0.421876 -2.90856 0
M  V30 4192 H 396.632 -0.332249 -1.58965 0
M  V30 4193 H 398.629 1.9102 -3.70563 0
M  V30 4194 H 397.289 2.02894 -2.53504 0
M  V30 4195 H 398.3 -0.589343 -5.14536 0
M  V30 4196 H 394.977 1.63719 -3.8406 0
M  V30 4197 H 396.367 -1.32855 -6.58634 0
M  V30 4198 N 399.087 1.5561 -0.249682 0
M  V30 4199 C 400.017 2.24477 0.642826 0
M  V30 4200 C 400.998 1.22601 1.17911 0
M  V30 4201 O 402.183 1.5126 1.21795 0
M  V30 4202 C 399.313 2.94638 1.83863 0
M  V30 4203 C 398.267 4.03227 1.435 0
M  V30 4204 C 397.593 4.60828 2.71186 0
M  V30 4205 C 398.893 5.18796 0.604002 0
M  V30 4206 H 400.587 2.99321 0.0685625 0
M  V30 4207 H 398.133 1.43965 0.0315363 0
M  V30 4208 H 400.086 3.41517 2.46868 0
M  V30 4209 H 398.81 2.17287 2.43832 0
M  V30 4210 H 397.469 3.57121 0.828275 0
M  V30 4211 H 397.117 3.80174 3.29358 0
M  V30 4212 H 396.817 5.34132 2.44901 0
M  V30 4213 H 398.341 5.10442 3.35084 0
M  V30 4214 H 399.755 5.61883 1.13842 0
M  V30 4215 H 398.152 5.98506 0.437097 0
M  V30 4216 H 399.222 4.83384 -0.383147 0
M  V30 4217 N 400.565 -0.0233959 1.57583 0
M  V30 4218 C 401.812 -0.713063 1.8953 0
M  V30 4219 C 402.14 -1.75056 0.847673 0
M  V30 4220 O 401.395 -1.95119 -0.150636 0
M  V30 4221 C 401.694 -1.41428 3.28227 0
M  V30 4222 C 401.36 -0.512222 4.47981 0
M  V30 4223 C 400.022 -0.263785 4.80476 0
M  V30 4224 C 402.374 0.110248 5.21083 0
M  V30 4225 C 399.702 0.615804 5.83459 0
M  V30 4226 C 402.054 0.977573 6.25001 0
M  V30 4227 C 400.718 1.23542 6.55968 0
M  V30 4228 H 399.988 -0.260928 0.69354 0
M  V30 4229 H 402.635 0.0271047 1.91481 0
M  V30 4230 H 400.94 -2.22791 3.22291 0
M  V30 4231 H 402.637 -1.95355 3.50196 0
M  V30 4232 H 399.227 -0.716013 4.22577 0
M  V30 4233 H 403.411 -0.0687137 4.96252 0
M  V30 4234 H 398.667 0.82382 6.05824 0
M  V30 4235 H 402.841 1.46638 6.80786 0
M  V30 4236 H 400.468 1.91871 7.35588 0
M  V30 4237 N 402.043 -1.548 -0.295768 0
M  V30 4238 C 402.975 -1.82492 -1.3867 0
M  V30 4239 C 403.988 -0.708134 -1.46592 0
M  V30 4240 O 405.177 -0.985686 -1.48817 0
M  V30 4241 C 402.277 -1.95256 -2.76999 0
M  V30 4242 C 401.45 -3.25709 -2.91946 0
M  V30 4243 C 400.509 -3.28824 -4.10806 0
M  V30 4244 O 399.535 -4.02328 -4.02643 0
M  V30 4245 N 400.737 -2.5459 -5.21694 0
M  V30 4246 H 403.502 -2.76646 -1.15269 0
M  V30 4247 H 401.063 -1.54438 -0.485849 0
M  V30 4248 H 403.055 -1.94736 -3.54768 0
M  V30 4249 H 401.625 -1.08072 -2.93324 0
M  V30 4250 H 400.845 -3.38959 -2.01247 0
M  V30 4251 H 402.133 -4.11786 -2.98847 0
M  V30 4252 H 401.531 -1.94512 -5.31208 0
M  V30 4253 H 400.088 -2.59818 -5.97778 0
M  V30 4254 N 403.521 0.559213 -1.47345 0
M  V30 4255 C 404.937 0.884943 -1.32819 0
M  V30 4256 C 405.137 1.98988 -0.317173 0
M  V30 4257 O 404.193 2.51031 0.272011 0
M  V30 4258 C 405.506 1.28007 -2.72093 0
M  V30 4259 C 407.054 1.39161 -2.80363 0
M  V30 4260 C 407.529 1.82031 -4.20272 0
M  V30 4261 N 409.02 1.89185 -4.22804 0
M  V30 4262 C 409.755 2.2368 -5.27973 0
M  V30 4263 N 409.251 2.56802 -6.43447 0
M  V30 4264 N 411.044 2.24436 -5.15349 0
M  V30 4265 H 403.195 -0.170304 -2.11716 0
M  V30 4266 H 405.458 -0.0135247 -0.947904 0
M  V30 4267 H 405.164 0.542027 -3.47498 0
M  V30 4268 H 405.038 2.23665 -3.03733 0
M  V30 4269 H 407.425 2.12048 -2.05231 0
M  V30 4270 H 407.506 0.41696 -2.52379 0
M  V30 4271 H 407.15 1.09715 -4.95908 0
M  V30 4272 H 407.08 2.80495 -4.45679 0
M  V30 4273 H 409.571 1.65982 -3.39497 0
M  V30 4274 H 409.884 2.82144 -7.19454 0
M  V30 4275 H 408.229 2.54387 -6.46771 0
M  V30 4276 H 411.42 1.97998 -4.24163 0
M  V30 4277 H 411.593 2.50989 -5.97418 0
M  V30 4278 N 404.999 1.35443 0.805782 0
M  V30 4279 C 405.909 1.30546 1.94923 0
M  V30 4280 C 406.925 0.210233 1.72725 0
M  V30 4281 O 408.101 0.43975 1.9654 0
M  V30 4282 C 405.166 1.07782 3.29521 0
M  V30 4283 C 404.227 2.26625 3.64609 0
M  V30 4284 C 403.46 2.04938 4.92784 0
M  V30 4285 O 403.683 1.01624 5.61274 0
M  V30 4286 O 402.617 2.9232 5.26149 0
M  V30 4287 H 406.443 2.26779 2.02002 0
M  V30 4288 H 404.028 1.15823 0.943682 0
M  V30 4289 H 405.91 0.969392 4.10098 0
M  V30 4290 H 404.585 0.146003 3.23371 0
M  V30 4291 H 403.492 2.43033 2.84404 0
M  V30 4292 H 404.825 3.18257 3.75464 0
M  V30 4293 N 406.477 -1.02803 1.19454 0
M  V30 4294 C 407.424 -2.11099 0.933046 0
M  V30 4295 C 408.394 -1.65571 -0.132447 0
M  V30 4296 O 409.579 -1.90797 0.00987576 0
M  V30 4297 C 406.719 -3.41763 0.478747 0
M  V30 4298 C 405.832 -4.00833 1.6111 0
M  V30 4299 C 404.967 -5.19511 1.10825 0
M  V30 4300 C 404.006 -5.70639 2.21445 0
M  V30 4301 N 403.143 -6.80589 1.72461 0
M  V30 4302 H 407.983 -2.32804 1.86028 0
M  V30 4303 H 405.52 -1.14179 0.927441 0
M  V30 4304 H 407.478 -4.16736 0.196745 0
M  V30 4305 H 406.108 -3.20166 -0.411493 0
M  V30 4306 H 405.16 -3.23066 2.00829 0
M  V30 4307 H 406.472 -4.34794 2.4445 0
M  V30 4308 H 405.626 -6.01645 0.781533 0
M  V30 4309 H 404.365 -4.87086 0.244606 0
M  V30 4310 H 403.37 -4.87116 2.54947 0
M  V30 4311 H 404.595 -6.05102 3.08267 0
M  V30 4312 H 402.541 -6.50016 0.884056 0
M  V30 4313 H 402.458 -7.13681 2.49389 0
M  V30 4314 H 403.726 -7.66317 1.42755 0
M  V30 4315 N 407.956 -0.998596 -1.21925 0
M  V30 4316 C 409.202 -0.678667 -1.91107 0
M  V30 4317 C 409.535 0.78791 -1.77498 0
M  V30 4318 O 408.81 1.57043 -1.1475 0
M  V30 4319 C 409.093 -1.09245 -3.43129 0
M  V30 4320 C 408.946 -2.61801 -3.6576 0
M  V30 4321 C 410.265 -0.649984 -4.35274 0
M  V30 4322 H 407.384 -0.248025 -0.694012 0
M  V30 4323 H 410.026 -1.24314 -1.43688 0
M  V30 4324 H 408.176 -0.612171 -3.83647 0
M  V30 4325 H 409.848 -3.17543 -3.34611 0
M  V30 4326 H 408.091 -3.03609 -3.09845 0
M  V30 4327 H 408.762 -2.85804 -4.7225 0
M  V30 4328 H 411.238 -1.0626 -4.02303 0
M  V30 4329 H 410.114 -0.967743 -5.40302 0
M  V30 4330 H 410.375 0.449139 -4.39813 0
M  V30 4331 N 409.434 1.37368 -0.772513 0
M  V30 4332 C 410.344 2.34053 -0.160081 0
M  V30 4333 C 411.36 1.60216 0.678728 0
M  V30 4334 O 412.536 1.92303 0.59847 0
M  V30 4335 C 409.601 3.3939 0.708182 0
M  V30 4336 C 408.662 4.29048 -0.147172 0
M  V30 4337 C 407.895 5.29354 0.679744 0
M  V30 4338 O 408.118 5.3723 1.91678 0
M  V30 4339 O 407.052 6.01835 0.0885444 0
M  V30 4340 H 410.878 2.88159 -0.959053 0
M  V30 4341 H 408.463 1.39543 -0.533685 0
M  V30 4342 H 410.345 4.03839 1.20384 0
M  V30 4343 H 409.02 2.8761 1.48533 0
M  V30 4344 H 407.927 3.67697 -0.689205 0
M  V30 4345 H 409.26 4.84134 -0.887423 0
M  V30 4346 N 410.912 0.523116 1.48665 0
M  V30 4347 C 412.158 -0.0134963 2.02796 0
M  V30 4348 C 412.491 -1.34582 1.40004 0
M  V30 4349 O 411.766 -1.86756 0.543381 0
M  V30 4350 C 412.049 -0.14276 3.59817 0
M  V30 4351 C 411.902 1.21425 4.331 0
M  V30 4352 C 413.221 -0.872856 4.31357 0
M  V30 4353 H 410.34 -0.00343074 0.736992 0
M  V30 4354 H 412.982 0.678816 1.7746 0
M  V30 4355 H 411.132 -0.732401 3.81534 0
M  V30 4356 H 412.804 1.84447 4.2282 0
M  V30 4357 H 411.047 1.79791 3.94788 0
M  V30 4358 H 411.718 1.07687 5.41394 0
M  V30 4359 H 414.194 -0.372555 4.14429 0
M  V30 4360 H 413.07 -0.932185 5.40927 0
M  V30 4361 H 413.331 -1.92161 3.98154 0
M  V30 4362 N 412.39 -1.55475 0.257931 0
M  V30 4363 C 413.322 -2.19192 -0.669881 0
M  V30 4364 C 414.335 -1.17148 -1.1305 0
M  V30 4365 O 415.524 -1.43959 -1.05537 0
M  V30 4366 C 412.624 -2.79016 -1.92363 0
M  V30 4367 C 411.797 -4.06586 -1.61265 0
M  V30 4368 C 410.856 -4.50622 -2.7171 0
M  V30 4369 O 409.882 -5.16765 -2.38627 0
M  V30 4370 N 411.084 -4.19325 -4.01431 0
M  V30 4371 H 413.849 -2.99441 -0.124635 0
M  V30 4372 H 411.41 -1.6171 0.0783311 0
M  V30 4373 H 413.402 -3.05427 -2.65511 0
M  V30 4374 H 411.972 -2.0286 -2.37837 0
M  V30 4375 H 411.192 -3.87646 -0.715811 0
M  V30 4376 H 412.48 -4.89737 -1.37967 0
M  V30 4377 H 411.878 -3.66247 -4.31138 0
M  V30 4378 H 410.435 -4.50547 -4.7101 0
M  V30 4379 N 413.868 0.0150385 -1.57593 0
M  V30 4380 C 414.798 1.01047 -2.10503 0
M  V30 4381 C 415.779 1.36816 -1.01071 0
M  V30 4382 O 416.964 1.45455 -1.28672 0
M  V30 4383 C 414.094 2.30708 -2.59598 0
M  V30 4384 C 413.048 2.09142 -3.73421 0
M  V30 4385 C 412.374 3.44685 -4.08774 0
M  V30 4386 C 413.674 1.46619 -5.01298 0
M  V30 4387 H 415.368 0.569978 -2.93925 0
M  V30 4388 H 412.914 0.272724 -1.41394 0
M  V30 4389 H 414.867 3.00687 -2.95238 0
M  V30 4390 H 413.591 2.76843 -1.73279 0
M  V30 4391 H 412.25 1.41592 -3.38153 0
M  V30 4392 H 411.898 3.88495 -3.195 0
M  V30 4393 H 411.598 3.31077 -4.8545 0
M  V30 4394 H 413.122 4.16004 -4.4696 0
M  V30 4395 H 414.536 2.06535 -5.34805 0
M  V30 4396 H 412.933 1.43544 -5.82679 0
M  V30 4397 H 414.003 0.433611 -4.82957 0
M  V30 4398 N 415.346 1.54954 0.287554 0
M  V30 4399 C 416.757 1.65732 0.859634 0
M  V30 4400 C 417.108 0.574767 1.87592 0
M  V30 4401 O 416.233 -0.286299 2.14498 0
M  V30 4402 C 416.828 3.00438 1.56597 0
M  V30 4403 C 415.387 3.13292 2.08627 0
M  V30 4404 C 414.534 2.61473 0.923416 0
M  V30 4405 H 417.485 1.5857 0.0642338 0
M  V30 4406 H 417.506 2.92613 2.43224 0
M  V30 4407 H 417.018 3.79207 0.826053 0
M  V30 4408 H 415.119 2.39268 2.85625 0
M  V30 4409 H 415.232 4.19647 2.31157 0
M  V30 4410 H 413.596 2.18264 1.31275 0
M  V30 4411 H 414.379 3.42733 0.197241 0
M  V30 4412 N 416.824 -0.551391 1.4764 0
M  V30 4413 C 417.734 -1.68525 1.63207 0
M  V30 4414 C 418.75 -1.6621 0.514815 0
M  V30 4415 O 419.926 -1.85551 0.783113 0
M  V30 4416 C 416.991 -3.05025 1.64805 0
M  V30 4417 C 416.052 -3.18362 2.88 0
M  V30 4418 C 415.285 -4.4835 2.89513 0
M  V30 4419 O 415.508 -5.34163 2.00065 0
M  V30 4420 O 414.442 -4.65602 3.81443 0
M  V30 4421 H 418.268 -1.58333 2.59161 0
M  V30 4422 H 415.853 -0.722063 1.30792 0
M  V30 4423 H 417.735 -3.86245 1.68502 0
M  V30 4424 H 416.41 -3.15587 0.720197 0
M  V30 4425 H 415.317 -2.36518 2.89845 0
M  V30 4426 H 416.65 -3.12707 3.80099 0
M  V30 4427 N 418.302 -1.35869 -0.798587 0
M  V30 4428 C 419.232 -1.32118 -1.92528 0
M  V30 4429 C 420.213 -0.194209 -1.68988 0
M  V30 4430 O 421.398 -0.390426 -1.90235 0
M  V30 4431 C 418.528 -1.10047 -3.29404 0
M  V30 4432 C 417.482 -2.19471 -3.67446 0
M  V30 4433 C 416.808 -1.82555 -5.02571 0
M  V30 4434 C 418.108 -3.61495 -3.76987 0
M  V30 4435 H 419.802 -2.26394 -1.95924 0
M  V30 4436 H 417.348 -1.08981 -0.94123 0
M  V30 4437 H 419.301 -1.06061 -4.07835 0
M  V30 4438 H 418.025 -0.122195 -3.26371 0
M  V30 4439 H 416.684 -2.22568 -2.91306 0
M  V30 4440 H 416.332 -0.833249 -4.9605 0
M  V30 4441 H 416.032 -2.5581 -5.28995 0
M  V30 4442 H 417.556 -1.80108 -5.83432 0
M  V30 4443 H 418.97 -3.60676 -4.4563 0
M  V30 4444 H 417.367 -4.33577 -4.14887 0
M  V30 4445 H 418.437 -3.97065 -2.78329 0
M  V30 4446 N 419.78 1.02168 -1.19998 0
M  V30 4447 C 421.01 1.79036 -1.031 0
M  V30 4448 C 421.418 1.84409 0.423078 0
M  V30 4449 O 420.761 1.29228 1.30559 0
M  V30 4450 C 420.823 3.25185 -1.53281 0
M  V30 4451 C 420.487 3.43431 -3.01503 0
M  V30 4452 C 421.484 3.33063 -3.99206 0
M  V30 4453 C 419.169 3.69412 -3.40353 0
M  V30 4454 C 421.163 3.48413 -5.33748 0
M  V30 4455 C 418.85 3.84406 -4.75053 0
M  V30 4456 C 419.848 3.7391 -5.71559 0
M  V30 4457 O 419.536 3.88452 -7.03818 0
M  V30 4458 H 419.268 0.570043 -0.363355 0
M  V30 4459 H 421.822 1.29524 -1.59414 0
M  V30 4460 H 420.052 3.75756 -0.913483 0
M  V30 4461 H 421.741 3.83671 -1.32481 0
M  V30 4462 H 422.507 3.12934 -3.70537 0
M  V30 4463 H 418.386 3.76671 -2.65782 0
M  V30 4464 H 421.93 3.40137 -6.09059 0
M  V30 4465 H 417.827 4.04035 -5.03415 0
M  V30 4466 H 418.595 4.055 -7.10993 0
M  V30 4467 N 421.258 1.00505 1.21394 0
M  V30 4468 C 422.208 0.536503 2.21598 0
M  V30 4469 C 423.192 -0.401914 1.55799 0
M  V30 4470 O 424.384 -0.226757 1.75541 0
M  V30 4471 C 421.513 -0.135446 3.43033 0
M  V30 4472 C 420.599 0.823992 4.16018 0
M  V30 4473 N 420.99 1.97683 4.6557 0
M  V30 4474 C 419.288 0.642387 4.4135 0
M  V30 4475 C 419.989 2.58003 5.21354 0
M  V30 4476 N 418.965 1.86162 5.1073 0
M  V30 4477 H 422.767 1.41557 2.57563 0
M  V30 4478 H 420.281 0.868878 1.37202 0
M  V30 4479 H 422.278 -0.488584 4.14027 0
M  V30 4480 H 420.938 -1.01049 3.08576 0
M  V30 4481 H 421.949 2.3572 4.61147 0
M  V30 4482 H 418.626 -0.185578 4.17087 0
M  V30 4483 H 420.016 3.555 5.70149 0
M  V30 4484 N 422.737 -1.36956 0.779787 0
M  V30 4485 C 423.684 -2.30175 0.169697 0
M  V30 4486 C 424.654 -1.51501 -0.68094 0
M  V30 4487 O 425.839 -1.80042 -0.631629 0
M  V30 4488 C 422.979 -3.37985 -0.697131 0
M  V30 4489 C 422.092 -4.31661 0.170992 0
M  V30 4490 C 421.227 -5.2655 -0.701298 0
M  V30 4491 C 420.266 -6.11867 0.168869 0
M  V30 4492 N 419.403 -6.98973 -0.661855 0
M  V30 4493 H 424.243 -2.81767 0.970135 0
M  V30 4494 H 421.78 -1.38699 0.489994 0
M  V30 4495 H 423.738 -3.99128 -1.2146 0
M  V30 4496 H 422.368 -2.87739 -1.46309 0
M  V30 4497 H 421.42 -3.71756 0.80634 0
M  V30 4498 H 422.732 -4.91644 0.841875 0
M  V30 4499 H 421.886 -5.92937 -1.28494 0
M  V30 4500 H 420.625 -4.66998 -1.40584 0
M  V30 4501 H 419.63 -5.44452 0.764986 0
M  V30 4502 H 420.855 -6.73493 0.870863 0
M  V30 4503 H 418.801 -6.41941 -1.35086 0
M  V30 4504 H 418.718 -7.55984 -0.0484447 0
M  V30 4505 H 419.986 -7.6974 -1.22963 0
M  V30 4506 N 424.215 -0.530993 -1.48385 0
M  V30 4507 C 425.464 0.00474348 -2.01699 0
M  V30 4508 C 425.777 1.35227 -1.41325 0
M  V30 4509 O 426.983 1.97643 -1.86144 0
M  V30 4510 C 425.439 0.0588473 -3.59852 0
M  V30 4511 C 425.047 -1.28385 -4.2921 0
M  V30 4512 C 426.791 0.543358 -4.21008 0
M  V30 4513 C 424.698 -1.19028 -5.79298 0
M  V30 4514 H 423.628 0.00554317 -0.75398 0
M  V30 4515 H 426.279 -0.674924 -1.70637 0
M  V30 4516 H 424.661 0.803612 -3.8776 0
M  V30 4517 H 425.835 -2.04426 -4.12973 0
M  V30 4518 H 424.15 -1.70418 -3.7993 0
M  V30 4519 H 426.747 0.631351 -5.3096 0
M  V30 4520 H 427.09 1.54937 -3.86394 0
M  V30 4521 H 427.623 -0.145754 -3.97533 0
M  V30 4522 H 424.362 -2.17147 -6.18488 0
M  V30 4523 H 423.882 -0.471246 -5.97946 0
M  V30 4524 H 425.561 -0.881365 -6.40969 0
M  V30 4525 N 425.693 1.55336 -0.266172 0
M  V30 4526 C 426.941 1.99003 0.35246 0
M  V30 4527 C 427.262 1.15591 1.57047 0
M  V30 4528 O 426.532 0.243268 1.94384 0
M  V30 4529 H 425.112 0.735025 0.133217 0
M  V30 4530 H 427.774 1.91367 -0.369434 0
M  V30 4531 H 426.87 3.05289 0.648453 0
M  V30 4532 N 427.171 -0.0066808 1.57599 0
M  V30 4533 C 428.417 -0.693947 1.90558 0
M  V30 4534 C 428.75 -1.73792 0.866594 0
M  V30 4535 O 428.025 -1.94156 -0.115548 0
M  V30 4536 C 428.308 -1.34317 3.34112 0
M  V30 4537 C 428.161 -0.311189 4.48722 0
M  V30 4538 C 429.48 -2.27116 3.7697 0
M  V30 4539 H 426.599 -0.250803 0.693013 0
M  V30 4540 H 429.241 0.043242 1.89951 0
M  V30 4541 H 427.391 -1.9715 3.3476 0
M  V30 4542 H 429.063 0.316944 4.6021 0
M  V30 4543 H 427.306 0.367253 4.32243 0
M  V30 4544 H 427.977 -0.804366 5.46108 0
M  V30 4545 H 430.453 -1.74306 3.77831 0
M  V30 4546 H 429.329 -2.69511 4.78179 0
M  V30 4547 H 429.59 -3.14743 3.10466 0
M  V30 4548 N 428.649 -1.55105 -0.279332 0
M  V30 4549 C 429.897 -1.75066 -1.00977 0
M  V30 4550 C 430.218 -0.551276 -1.87045 0
M  V30 4551 O 429.488 0.433984 -1.91032 0
M  V30 4552 H 428.068 -0.645578 -0.375816 0
M  V30 4553 H 430.73 -1.92497 -0.305089 0
M  V30 4554 H 429.826 -2.64894 -1.65038 0
M  V30 4555 N 430.127 0.543554 -1.4793 0
M  V30 4556 C 431.09 1.63156 -1.60975 0
M  V30 4557 C 432.09 1.53346 -0.483899 0
M  V30 4558 O 433.28 1.5726 -0.749339 0
M  V30 4559 C 430.412 3.02743 -1.56716 0
M  V30 4560 H 431.605 1.52934 -2.57975 0
M  V30 4561 H 429.158 0.764557 -1.36324 0
M  V30 4562 H 429.893 3.18484 -0.611418 0
M  V30 4563 H 429.678 3.11272 -2.38438 0
M  V30 4564 H 431.168 3.81871 -1.6901 0
M  V30 4565 N 431.605 1.3629 0.791371 0
M  V30 4566 C 432.538 1.24816 1.9104 0
M  V30 4567 C 433.516 0.132739 1.62057 0
M  V30 4568 O 434.7 0.303527 1.8604 0
M  V30 4569 C 431.827 0.925355 3.25814 0
M  V30 4570 C 430.873 2.05495 3.7373 0
M  V30 4571 S 431.706 3.67255 3.89723 0
M  V30 4572 C 432.862 3.37084 5.27376 0
M  V30 4573 H 433.095 2.19533 2.00481 0
M  V30 4574 H 430.628 1.21684 0.950393 0
M  V30 4575 H 432.586 0.745924 4.03666 0
M  V30 4576 H 431.247 -0.00400098 3.141 0
M  V30 4577 H 430.44 1.7836 4.71385 0
M  V30 4578 H 430.042 2.1935 3.02922 0
M  V30 4579 H 432.334 2.90856 6.1189 0
M  V30 4580 H 433.277 4.33995 5.59512 0
M  V30 4581 H 433.685 2.7248 4.94383 0
M  V30 4582 N 433.083 -1.0153 1.20538 0
M  V30 4583 C 434.311 -1.78746 1.04199 0
M  V30 4584 C 434.726 -1.84323 -0.408733 0
M  V30 4585 O 434.083 -1.29714 -1.28377 0
M  V30 4586 C 434.134 -3.23152 1.62035 0
M  V30 4587 O 433.855 -3.17918 3.0143 0
M  V30 4588 C 435.356 -4.16911 1.50666 0
M  V30 4589 H 432.576 -0.56208 0.366479 0
M  V30 4590 H 435.12 -1.27794 1.59653 0
M  V30 4591 H 433.275 -3.71248 1.10697 0
M  V30 4592 H 433.689 -4.08567 3.28897 0
M  V30 4593 H 435.163 -5.16072 1.95892 0
M  V30 4594 H 435.64 -4.36791 0.459363 0
M  V30 4595 H 436.246 -3.74698 2.01201 0
M  V30 4596 N 434.561 -1.01147 -1.20859 0
M  V30 4597 C 435.807 -0.708598 -1.90658 0
M  V30 4598 C 436.162 0.753069 -1.7705 0
M  V30 4599 O 435.455 1.53952 -1.14059 0
M  V30 4600 C 435.649 -1.0727 -3.40922 0
M  V30 4601 C 435.478 -2.56821 -3.69152 0
M  V30 4602 C 434.248 -3.23524 -3.8815 0
M  V30 4603 C 436.446 -3.54997 -3.72131 0
M  V30 4604 N 434.428 -4.62359 -4.03853 0
M  V30 4605 C 435.799 -4.79371 -3.93196 0
M  V30 4606 C 437.854 -3.49042 -3.55069 0
M  V30 4607 C 436.557 -5.98512 -3.98969 0
M  V30 4608 C 438.583 -4.67579 -3.6211 0
M  V30 4609 C 437.945 -5.9076 -3.83643 0
M  V30 4610 H 434.044 -0.31088 -0.71755 0
M  V30 4611 H 436.628 -1.29526 -1.45366 0
M  V30 4612 H 434.799 -0.51443 -3.84978 0
M  V30 4613 H 436.531 -0.723891 -3.98173 0
M  V30 4614 H 433.286 -2.73958 -3.86321 0
M  V30 4615 H 433.71 -5.34427 -4.15592 0
M  V30 4616 H 438.352 -2.54808 -3.37391 0
M  V30 4617 H 436.07 -6.93132 -4.15444 0
M  V30 4618 H 439.656 -4.64581 -3.50222 0
M  V30 4619 H 438.536 -6.8095 -3.88944 0
M  V30 4620 N 436.039 1.36541 -0.78704 0
M  V30 4621 C 437.264 2.0409 -0.369053 0
M  V30 4622 C 437.689 1.58957 1.00569 0
M  V30 4623 O 437.047 0.756926 1.64743 0
M  V30 4624 C 437.095 3.57924 -0.438466 0
M  V30 4625 O 436.199 4.08642 0.555479 0
M  V30 4626 H 435.54 0.645142 -0.157122 0
M  V30 4627 H 438.07 1.74545 -1.06749 0
M  V30 4628 H 438.08 4.06887 -0.301218 0
M  V30 4629 H 436.755 3.90127 -1.44132 0
M  V30 4630 H 435.332 3.70958 0.380088 0
M  V30 4631 N 437.518 0.538854 1.48102 0
M  V30 4632 C 438.929 0.100679 1.86428 0
M  V30 4633 C 439.28 -1.32447 1.44749 0
M  V30 4634 O 438.405 -1.99339 0.842199 0
M  V30 4635 C 439 0.175933 3.38343 0
M  V30 4636 C 437.559 -0.207098 3.7583 0
M  V30 4637 C 436.706 0.531741 2.72154 0
M  V30 4638 H 439.657 0.749614 1.3988 0
M  V30 4639 H 439.678 -0.610144 3.75576 0
M  V30 4640 H 439.19 1.21328 3.68648 0
M  V30 4641 H 437.291 -1.24626 3.5114 0
M  V30 4642 H 437.404 0.138687 4.78899 0
M  V30 4643 H 435.768 -0.0230462 2.5469 0
M  V30 4644 H 436.551 1.56989 3.05302 0
M  V30 4645 N 438.996 -1.55193 0.274407 0
M  V30 4646 C 439.926 -2.25471 -0.607032 0
M  V30 4647 C 440.907 -1.24461 -1.15946 0
M  V30 4648 O 442.092 -1.53179 -1.19373 0
M  V30 4649 C 439.222 -2.97526 -1.79153 0
M  V30 4650 C 438.176 -4.05459 -1.37067 0
M  V30 4651 C 437.502 -4.65084 -2.6382 0
M  V30 4652 C 438.802 -5.19691 -0.521389 0
M  V30 4653 H 440.496 -2.99393 -0.0209343 0
M  V30 4654 H 438.042 -1.43997 -0.00862866 0
M  V30 4655 H 439.995 -3.45402 -2.41404 0
M  V30 4656 H 438.719 -2.21138 -2.40344 0
M  V30 4657 H 437.378 -3.58393 -0.771355 0
M  V30 4658 H 437.026 -3.85365 -3.23268 0
M  V30 4659 H 436.726 -5.37961 -2.36372 0
M  V30 4660 H 438.25 -5.15708 -3.26921 0
M  V30 4661 H 439.664 -5.63623 -1.04889 0
M  V30 4662 H 438.061 -5.99126 -0.341825 0
M  V30 4663 H 439.131 -4.82713 0.46 0
M  V30 4664 N 440.474 -0.00167713 -1.576 0
M  V30 4665 C 441.437 0.974046 -2.07473 0
M  V30 4666 C 442.437 1.27143 -0.984444 0
M  V30 4667 O 443.627 1.21633 -1.24703 0
M  V30 4668 C 440.759 2.29849 -2.51759 0
M  V30 4669 H 441.952 0.54262 -2.9495 0
M  V30 4670 H 439.505 0.245829 -1.54355 0
M  V30 4671 H 440.24 2.77677 -1.67529 0
M  V30 4672 H 440.025 2.09584 -3.31386 0
M  V30 4673 H 441.515 2.9984 -2.90664 0
M  V30 4674 N 441.952 1.55251 0.271103 0
M  V30 4675 C 443.192 1.77698 1.01008 0
M  V30 4676 C 443.556 0.567246 1.83429 0
M  V30 4677 O 444.757 0.670013 2.60316 0
M  V30 4678 C 443.028 3.04715 1.86772 0
M  V30 4679 S 444.587 3.48289 2.66909 0
M  V30 4680 H 441.405 0.624343 0.340172 0
M  V30 4681 H 444.007 1.9348 0.280315 0
M  V30 4682 H 442.711 3.90853 1.25149 0
M  V30 4683 H 442.242 2.91604 2.64066 0
M  V30 4684 H 444.257 3.07712 3.89266 0
M  V30 4685 N 443.43 -0.535701 1.48216 0
M  V30 4686 C 444.678 -1.28928 1.55634 0
M  V30 4687 C 444.999 -1.93645 0.229514 0
M  V30 4688 O 444.269 -1.81038 -0.74846 0
M  V30 4689 H 442.849 -0.47884 0.573342 0
M  V30 4690 H 445.511 -0.623853 1.84646 0
M  V30 4691 H 444.607 -2.07157 2.33436 0
M  V30 4692 N 444.908 -1.36708 -0.784132 0
M  V30 4693 C 446.157 -1.30559 -1.53744 0
M  V30 4694 C 446.47 0.111374 -1.95283 0
M  V30 4695 O 447.676 0.29527 -2.6989 0
M  V30 4696 C 446.132 -2.29098 -2.77565 0
M  V30 4697 C 445.74 -3.76258 -2.43174 0
M  V30 4698 C 447.484 -2.31936 -3.55536 0
M  V30 4699 C 445.391 -4.6656 -3.63422 0
M  V30 4700 H 444.321 -0.48518 -0.577162 0
M  V30 4701 H 446.972 -1.62101 -0.859981 0
M  V30 4702 H 445.354 -1.90557 -3.47137 0
M  V30 4703 H 446.528 -4.23565 -1.81465 0
M  V30 4704 H 444.843 -3.76246 -1.78403 0
M  V30 4705 H 447.44 -2.9661 -4.44889 0
M  V30 4706 H 447.783 -1.3294 -3.94503 0
M  V30 4707 H 448.316 -2.6912 -2.92949 0
M  V30 4708 H 445.055 -5.66638 -3.29547 0
M  V30 4709 H 444.575 -4.23966 -4.24279 0
M  V30 4710 H 446.254 -4.8309 -4.30387 0
M  V30 4711 N 446.386 1.0089 -1.21074 0
M  V30 4712 C 447.635 1.74019 -1.01981 0
M  V30 4713 C 447.948 1.90408 0.447665 0
M  V30 4714 O 449.154 2.60707 0.757906 0
M  V30 4715 C 447.61 3.13026 -1.77603 0
M  V30 4716 C 447.218 3.04623 -3.28495 0
M  V30 4717 C 448.962 3.90312 -1.66904 0
M  V30 4718 C 446.869 4.38685 -3.96623 0
M  V30 4719 H 445.799 0.652422 -0.377971 0
M  V30 4720 H 448.45 1.12755 -1.44771 0
M  V30 4721 H 446.832 3.74878 -1.27604 0
M  V30 4722 H 448.006 2.52032 -3.85767 0
M  V30 4723 H 446.321 2.40827 -3.39693 0
M  V30 4724 H 448.918 4.8951 -2.15138 0
M  V30 4725 H 449.261 4.11558 -0.62658 0
M  V30 4726 H 449.794 3.35104 -2.14359 0
M  V30 4727 H 446.533 4.22641 -5.01054 0
M  V30 4728 H 446.053 4.91252 -3.4414 0
M  V30 4729 H 447.732 5.075 -4.01314 0
M  V30 4730 N 447.864 1.01787 1.20321 0
M  V30 4731 C 449.089 0.727009 1.9424 0
M  V30 4732 C 449.514 -0.706179 1.74341 0
M  V30 4733 O 448.872 -1.48609 1.03852 0
M  V30 4734 C 448.92 1.06958 3.44372 0
M  V30 4735 O 448.024 0.181983 4.11998 0
M  V30 4736 H 447.365 0.269626 0.606793 0
M  V30 4737 H 449.895 1.36158 1.52716 0
M  V30 4738 H 449.905 1.02182 3.94997 0
M  V30 4739 H 448.58 2.11378 3.58179 0
M  V30 4740 H 447.157 0.287378 3.71791 0
M  V30 4741 N 449.342 -1.36122 0.79427 0
M  V30 4742 C 450.59 -1.98718 0.368177 0
M  V30 4743 C 450.911 -1.63345 -1.06506 0
M  V30 4744 O 450.181 -0.909825 -1.73491 0
M  V30 4745 H 448.761 -0.735038 0.133146 0
M  V30 4746 H 451.423 -1.66239 1.01739 0
M  V30 4747 H 450.519 -3.08633 0.463923 0
M  V30 4748 N 450.82 -0.546701 -1.47814 0
M  V30 4749 C 451.767 0.206854 -2.29871 0
M  V30 4750 C 452.737 0.918235 -1.38411 0
M  V30 4751 O 453.922 0.915991 -1.67375 0
M  V30 4752 C 451.062 1.23746 -3.22151 0
M  V30 4753 C 450.175 0.533216 -4.28697 0
M  V30 4754 C 449.31 1.5482 -5.08138 0
M  V30 4755 C 448.349 0.828347 -6.06469 0
M  V30 4756 N 447.486 1.78966 -6.78908 0
M  V30 4757 H 452.326 -0.499037 -2.93792 0
M  V30 4758 H 449.863 -0.25793 -1.44821 0
M  V30 4759 H 451.821 1.84746 -3.74065 0
M  V30 4760 H 450.451 1.91151 -2.60117 0
M  V30 4761 H 449.503 -0.191089 -3.7992 0
M  V30 4762 H 450.815 -0.0311987 -4.9879 0
M  V30 4763 H 449.969 2.23202 -5.6415 0
M  V30 4764 H 448.708 2.14652 -4.37922 0
M  V30 4765 H 447.713 0.130539 -5.49645 0
M  V30 4766 H 448.938 0.235907 -6.7869 0
M  V30 4767 H 446.884 2.37675 -6.1143 0
M  V30 4768 H 446.801 1.27712 -7.45135 0
M  V30 4769 H 448.069 2.46496 -7.395 0
M  V30 4770 N 452.299 1.55045 -0.282633 0
M  V30 4771 C 453.529 2.03872 0.334635 0
M  V30 4772 C 453.937 1.16018 1.49454 0
M  V30 4773 O 453.28 0.174449 1.8287 0
M  V30 4774 C 453.342 3.48791 0.870905 0
M  V30 4775 C 453.006 4.56715 -0.161338 0
M  V30 4776 C 454.003 5.10513 -0.983466 0
M  V30 4777 C 451.688 5.01417 -0.297745 0
M  V30 4778 C 453.682 6.07538 -1.92811 0
M  V30 4779 C 451.369 5.98265 -1.24586 0
M  V30 4780 C 452.367 6.51208 -2.05954 0
M  V30 4781 O 452.055 7.46162 -2.99162 0
M  V30 4782 H 451.787 0.671324 0.0793742 0
M  V30 4783 H 454.341 2.01169 -0.41473 0
M  V30 4784 H 452.571 3.48758 1.67047 0
M  V30 4785 H 454.26 3.80916 1.40207 0
M  V30 4786 H 455.026 4.76785 -0.888856 0
M  V30 4787 H 450.905 4.59849 0.325604 0
M  V30 4788 H 454.449 6.48787 -2.56363 0
M  V30 4789 H 450.346 6.31412 -1.34126 0
M  V30 4790 H 451.114 7.63903 -2.93929 0
M  V30 4791 N 453.777 0.010035 1.57597 0
M  V30 4792 C 455.025 -0.671371 1.90623 0
M  V30 4793 C 455.346 -1.73753 0.885151 0
M  V30 4794 O 454.616 -1.95752 -0.0760611 0
M  V30 4795 H 453.196 -0.250968 0.703579 0
M  V30 4796 H 455.858 0.0533325 1.94827 0
M  V30 4797 H 454.954 -1.13626 2.90681 0
M  V30 4798 N 455.255 -1.55392 -0.262866 0
M  V30 4799 C 456.203 -1.8977 -1.345 0
M  V30 4800 C 457.197 -0.775063 -1.50629 0
M  V30 4801 O 458.403 -0.959519 -1.52293 0
M  V30 4802 H 454.778 -0.602467 -0.450041 0
M  V30 4803 H 456.749 -2.80147 -1.02762 0
M  V30 4804 C 455.498 -2.19501 -2.69657 0
M  V30 4805 H 454.821 -3.05378 -2.5804 0
M  V30 4806 H 456.261 -2.47469 -3.44289 0
M  V30 4807 C 454.72 -1.00597 -3.21531 0
M  V30 4808 O 455.25 -0.245768 -4.00947 0
M  V30 4809 N 453.456 -0.800911 -2.79345 0
M  V30 4810 H 453.003 -1.42079 -2.14875 0
M  V30 4811 H 452.961 -0.00697996 -3.14399 0
M  V30 4812 N 456.733 0.527833 -1.48498 0
M  V30 4813 C 457.981 1.28101 -1.56316 0
M  V30 4814 C 458.302 1.9352 -0.239781 0
M  V30 4815 O 457.572 1.81433 0.738849 0
M  V30 4816 H 456.152 0.475793 -0.575873 0
M  V30 4817 H 458.814 0.614052 -1.84974 0
M  V30 4818 H 457.91 2.05916 -2.34532 0
M  V30 4819 N 458.211 1.37122 0.776871 0
M  V30 4820 C 459.457 1.32243 1.53752 0
M  V30 4821 C 459.79 -0.0944745 1.9397 0
M  V30 4822 O 459.065 -1.05068 1.6368 0
M  V30 4823 C 459.348 2.25681 2.80607 0
M  V30 4824 C 459.201 3.76127 2.46676 0
M  V30 4825 C 460.52 2.17657 3.82509 0
M  V30 4826 H 457.639 0.481704 0.557791 0
M  V30 4827 H 460.281 1.6778 0.891612 0
M  V30 4828 H 458.431 1.95505 3.35723 0
M  V30 4829 H 460.103 4.16877 1.97513 0
M  V30 4830 H 458.346 3.94946 1.79443 0
M  V30 4831 H 459.017 4.36933 3.37333 0
M  V30 4832 H 461.493 2.44245 3.36873 0
M  V30 4833 H 460.369 2.85185 4.69 0
M  V30 4834 H 460.63 1.16785 4.26396 0
M  V30 4835 N 459.689 -1.00246 1.21608 0
M  V30 4836 C 461.1 -1.55511 1.03312 0
M  V30 4837 C 461.451 -1.91946 -0.406332 0
M  V30 4838 O 460.576 -1.73753 -1.28992 0
M  V30 4839 C 461.171 -2.82576 1.86913 0
M  V30 4840 C 459.73 -3.34318 1.72941 0
M  V30 4841 C 458.877 -2.07487 1.83968 0
M  V30 4842 H 461.828 -0.824638 1.35593 0
M  V30 4843 H 461.849 -3.54559 1.38087 0
M  V30 4844 H 461.361 -2.56026 2.91672 0
M  V30 4845 H 459.462 -3.65797 0.70877 0
M  V30 4846 H 459.575 -4.05566 2.55055 0
M  V30 4847 H 457.939 -2.20603 1.27304 0
M  V30 4848 H 458.722 -1.83346 2.9024 0
M  V30 4849 N 461.167 -1.02423 -1.1978 0
M  V30 4850 C 462.077 -0.610919 -2.26506 0
M  V30 4851 C 463.093 0.355152 -1.70337 0
M  V30 4852 O 464.269 0.214195 -2.00258 0
M  V30 4853 C 461.334 0.0365921 -3.46681 0
M  V30 4854 C 460.395 -0.976389 -4.18049 0
M  V30 4855 C 459.628 -0.359683 -5.32487 0
M  V30 4856 O 459.851 0.838601 -5.64202 0
M  V30 4857 O 458.785 -1.08022 -5.92127 0
M  V30 4858 H 462.611 -1.49965 -2.64091 0
M  V30 4859 H 460.196 -0.794156 -1.26545 0
M  V30 4860 H 462.078 0.39786 -4.19518 0
M  V30 4861 H 460.753 0.899398 -3.10954 0
M  V30 4862 H 459.66 -1.38916 -3.47352 0
M  V30 4863 H 460.993 -1.80941 -4.57735 0
M  V30 4864 N 462.645 1.35699 -0.801477 0
M  V30 4865 C 463.87 2.03687 -0.390678 0
M  V30 4866 C 464.295 1.60015 0.988778 0
M  V30 4867 O 463.653 0.774357 1.63931 0
M  V30 4868 C 463.701 3.57439 -0.476404 0
M  V30 4869 O 462.805 4.09208 0.512106 0
M  V30 4870 H 462.146 0.64344 -0.163956 0
M  V30 4871 H 464.676 1.73403 -1.08594 0
M  V30 4872 H 464.686 4.06544 -0.344357 0
M  V30 4873 H 463.361 3.88576 -1.48262 0
M  V30 4874 H 461.938 3.7134 0.340721 0
M  V30 4875 N 464.123 0.554532 1.47522 0
M  V30 4876 C 465.348 0.0322661 2.07375 0
M  V30 4877 C 465.773 -1.25079 1.40488 0
M  V30 4878 O 465.131 -1.74859 0.47896 0
M  V30 4879 C 465.179 -0.149397 3.6029 0
M  V30 4880 O 464.283 -1.21259 3.9417 0
M  V30 4881 H 463.624 0.0501228 0.662106 0
M  V30 4882 H 466.154 0.769452 1.8958 0
M  V30 4883 H 466.164 -0.364437 4.06369 0
M  V30 4884 H 464.839 0.787743 4.08372 0
M  V30 4885 H 463.416 -0.97825 3.5984 0
M  V30 4886 N 465.601 -1.54893 0.290851 0
M  V30 4887 C 467.017 -1.59476 -0.0628432 0
M  V30 4888 C 467.217 -1.30795 -1.5328 0
M  V30 4889 O 466.273 -1.07644 -2.28406 0
M  V30 4890 C 467.586 -2.98928 0.325962 0
M  V30 4891 C 469.134 -3.11799 0.273882 0
M  V30 4892 C 469.609 -4.53544 0.637359 0
M  V30 4893 N 471.1 -4.59433 0.589507 0
M  V30 4894 C 471.835 -5.67164 0.84335 0
M  V30 4895 N 471.331 -6.82975 1.16263 0
M  V30 4896 N 473.124 -5.56786 0.771091 0
M  V30 4897 H 465.275 -1.71798 1.24896 0
M  V30 4898 H 467.538 -0.801879 0.505663 0
M  V30 4899 H 467.244 -3.24805 1.34887 0
M  V30 4900 H 467.118 -3.75793 -0.325441 0
M  V30 4901 H 469.505 -2.85677 -0.739765 0
M  V30 4902 H 469.586 -2.37112 0.959766 0
M  V30 4903 H 469.23 -4.80394 1.64877 0
M  V30 4904 H 469.16 -5.26553 -0.0704866 0
M  V30 4905 H 471.651 -3.76245 0.353252 0
M  V30 4906 H 471.964 -7.61048 1.34257 0
M  V30 4907 H 470.309 -6.84552 1.20057 0
M  V30 4908 H 473.5 -4.65187 0.521383 0
M  V30 4909 H 473.673 -6.40664 0.972295 0
M  V30 4910 N 467.08 -0.0183926 -1.57589 0
M  V30 4911 C 468.043 0.951986 -2.08494 0
M  V30 4912 C 469.043 1.26092 -0.997874 0
M  V30 4913 O 470.233 1.20304 -1.25987 0
M  V30 4914 C 467.365 2.27165 -2.54182 0
M  V30 4915 H 468.558 0.511307 -2.95509 0
M  V30 4916 H 466.111 0.229444 -1.54607 0
M  V30 4917 H 466.846 2.75884 -1.70465 0
M  V30 4918 H 466.631 2.06057 -3.33591 0
M  V30 4919 H 468.121 2.9674 -2.93828 0
M  V30 4920 N 468.558 1.5553 0.254621 0
M  V30 4921 C 469.783 1.81383 1.00573 0
M  V30 4922 C 470.208 0.594419 1.78461 0
M  V30 4923 O 469.566 -0.456403 1.75461 0
M  V30 4924 C 469.614 3.04892 1.92545 0
M  V30 4925 O 468.718 2.81266 3.01601 0
M  V30 4926 H 468.059 0.598969 0.286587 0
M  V30 4927 H 470.589 2.02703 0.277952 0
M  V30 4928 H 470.599 3.34119 2.34155 0
M  V30 4929 H 469.274 3.93287 1.3527 0
M  V30 4930 H 467.851 2.63185 2.64174 0
M  V30 4931 N 470.036 -0.519951 1.48776 0
M  V30 4932 C 470.966 -1.63253 1.66945 0
M  V30 4933 C 471.947 -1.62014 0.518224 0
M  V30 4934 O 473.132 -1.79053 0.751919 0
M  V30 4935 C 470.262 -3.0181 1.71836 0
M  V30 4936 C 469.216 -3.17911 2.8656 0
M  V30 4937 C 468.542 -4.5763 2.76548 0
M  V30 4938 C 469.842 -2.99729 4.27738 0
M  V30 4939 H 471.536 -1.48302 2.6009 0
M  V30 4940 H 469.082 -0.712026 1.25165 0
M  V30 4941 H 471.035 -3.79525 1.83135 0
M  V30 4942 H 469.759 -3.17806 0.752775 0
M  V30 4943 H 468.418 -2.42616 2.74833 0
M  V30 4944 H 468.066 -4.70476 1.77937 0
M  V30 4945 H 467.766 -4.69346 3.53536 0
M  V30 4946 H 469.29 -5.37431 2.89828 0
M  V30 4947 H 470.704 -3.67228 4.40246 0
M  V30 4948 H 469.101 -3.22932 5.05801 0
M  V30 4949 H 470.171 -1.96047 4.43502 0
M  V30 4950 N 471.514 -1.37532 -0.769588 0
M  V30 4951 C 472.461 -1.3347 -1.88293 0
M  V30 4952 C 473.431 -0.199891 -1.64893 0
M  V30 4953 O 474.616 -0.389594 -1.8678 0
M  V30 4954 C 471.756 -1.14968 -3.25387 0
M  V30 4955 C 470.869 -2.37698 -3.60727 0
M  V30 4956 C 470.004 -2.12051 -4.8704 0
M  V30 4957 C 469.043 -3.30636 -5.15117 0
M  V30 4958 N 468.18 -3.04527 -6.3262 0
M  V30 4959 H 473.02 -2.28658 -1.911 0
M  V30 4960 H 470.557 -1.13622 -0.934257 0
M  V30 4961 H 472.515 -1.02261 -4.04473 0
M  V30 4962 H 471.145 -0.234263 -3.21949 0
M  V30 4963 H 470.197 -2.61137 -2.76608 0
M  V30 4964 H 471.509 -3.26131 -3.77413 0
M  V30 4965 H 470.663 -1.96388 -5.74035 0
M  V30 4966 H 469.402 -1.20959 -4.72462 0
M  V30 4967 H 468.407 -3.46836 -4.26597 0
M  V30 4968 H 469.632 -4.22582 -5.31603 0
M  V30 4969 H 467.578 -2.16067 -6.19396 0
M  V30 4970 H 467.495 -3.86503 -6.49732 0
M  V30 4971 H 468.763 -2.92485 -7.22546 0
M  V30 4972 N 472.992 0.995999 -1.22138 0
M  V30 4973 C 474.232 1.75032 -1.05561 0
M  V30 4974 C 474.596 1.87729 0.402698 0
M  V30 4975 O 475.797 2.59813 0.689234 0
M  V30 4976 C 474.068 3.11973 -1.74379 0
M  V30 4977 S 475.627 4.03182 -1.73175 0
M  V30 4978 H 472.445 0.602137 -0.37809 0
M  V30 4979 H 475.047 1.19107 -1.55028 0
M  V30 4980 H 473.751 3.00371 -2.79652 0
M  V30 4981 H 473.282 3.7297 -1.25128 0
M  V30 4982 H 475.297 4.90043 -0.77923 0
M  V30 4983 N 474.47 1.03057 1.19235 0
M  V30 4984 C 475.7 0.746613 1.92638 0
M  V30 4985 C 476.108 -0.698708 1.75826 0
M  V30 4986 O 475.451 -1.487 1.07861 0
M  V30 4987 C 475.513 1.02024 3.44719 0
M  V30 4988 C 475.177 2.45745 3.85303 0
M  V30 4989 C 476.174 3.43887 3.8992 0
M  V30 4990 C 473.859 2.8019 4.16892 0
M  V30 4991 C 475.853 4.74529 4.2556 0
M  V30 4992 C 473.54 4.1104 4.52205 0
M  V30 4993 C 474.538 5.0802 4.56513 0
M  V30 4994 O 474.226 6.36527 4.91008 0
M  V30 4995 H 473.958 0.272401 0.618687 0
M  V30 4996 H 476.512 1.37853 1.52269 0
M  V30 4997 H 474.742 0.331184 3.85279 0
M  V30 4998 H 476.431 0.725677 3.9936 0
M  V30 4999 H 477.197 3.18614 3.65664 0
M  V30 5000 H 473.076 2.05382 4.12722 0
M  V30 5001 H 476.62 5.50222 4.28838 0
M  V30 5002 H 472.517 4.36086 4.7592 0
M  V30 5003 H 473.285 6.41025 5.08949 0
M  V30 5004 N 475.948 -1.35272 0.808662 0
M  V30 5005 C 476.88 -2.28507 0.178149 0
M  V30 5006 C 477.893 -1.50377 -0.623754 0
M  V30 5007 O 479.082 -1.72583 -0.455774 0
M  V30 5008 C 476.182 -3.30038 -0.769959 0
M  V30 5009 C 475.355 -4.37398 -0.0139749 0
M  V30 5010 C 474.414 -5.18775 -0.880875 0
M  V30 5011 O 473.44 -5.68236 -0.331059 0
M  V30 5012 N 474.642 -5.37087 -2.20267 0
M  V30 5013 H 477.407 -2.83255 0.979106 0
M  V30 5014 H 474.968 -1.47643 0.664308 0
M  V30 5015 H 476.96 -3.81371 -1.35418 0
M  V30 5016 H 475.53 -2.75789 -1.47171 0
M  V30 5017 H 474.75 -3.86971 0.751468 0
M  V30 5018 H 476.038 -5.06268 0.506965 0
M  V30 5019 H 475.436 -4.9855 -2.67328 0
M  V30 5020 H 473.993 -5.91593 -2.73608 0
M  V30 5021 N 477.426 -0.562348 -1.47226 0
M  V30 5022 C 478.672 -0.0485293 -2.03342 0
M  V30 5023 C 479.027 1.28898 -1.42839 0
M  V30 5024 O 478.32 1.82719 -0.576563 0
M  V30 5025 C 478.514 0.0969817 -3.57268 0
M  V30 5026 C 478.343 -1.22487 -4.32697 0
M  V30 5027 C 477.113 -1.79357 -4.72397 0
M  V30 5028 C 479.311 -2.14332 -4.67511 0
M  V30 5029 N 477.293 -3.05493 -5.32491 0
M  V30 5030 C 478.664 -3.25049 -5.27961 0
M  V30 5031 C 480.719 -2.14263 -4.4944 0
M  V30 5032 C 479.422 -4.35804 -5.72248 0
M  V30 5033 C 481.448 -3.24033 -4.94729 0
M  V30 5034 C 480.81 -4.3347 -5.55233 0
M  V30 5035 H 476.909 -0.0600464 -0.779691 0
M  V30 5036 H 479.493 -0.750769 -1.79643 0
M  V30 5037 H 477.664 0.768353 -3.80724 0
M  V30 5038 H 479.396 0.613333 -4.00025 0
M  V30 5039 H 476.151 -1.33093 -4.54514 0
M  V30 5040 H 476.575 -3.698 -5.67077 0
M  V30 5041 H 481.217 -1.30935 -4.02015 0
M  V30 5042 H 478.935 -5.19888 -6.18661 0
M  V30 5043 H 482.521 -3.25073 -4.82513 0
M  V30 5044 H 481.401 -5.17008 -5.89638 0
M  V30 5045 N 478.904 1.54736 -0.299062 0
M  V30 5046 C 479.834 2.26409 0.571085 0
M  V30 5047 C 480.815 1.2629 1.13951 0
M  V30 5048 O 482 1.55059 1.16921 0
M  V30 5049 C 479.13 3.00338 1.74396 0
M  V30 5050 C 478.084 4.07588 1.30599 0
M  V30 5051 C 477.41 4.69222 2.56387 0
M  V30 5052 C 478.71 5.20455 0.438645 0
M  V30 5053 H 480.404 2.99388 -0.0266991 0
M  V30 5054 H 477.95 1.43993 -0.0142812 0
M  V30 5055 H 479.903 3.49198 2.35878 0
M  V30 5056 H 478.627 2.24934 2.36796 0
M  V30 5057 H 477.286 3.59575 0.71424 0
M  V30 5058 H 476.934 3.9046 3.17097 0
M  V30 5059 H 476.634 5.41653 2.27784 0
M  V30 5060 H 478.158 5.20844 3.18675 0
M  V30 5061 H 479.572 5.65221 0.959085 0
M  V30 5062 H 477.969 5.99594 0.246466 0
M  V30 5063 H 479.039 4.8192 -0.536738 0
M  V30 5064 N 480.382 0.0267497 1.57577 0
M  V30 5065 C 481.329 -0.955894 2.10075 0
M  V30 5066 C 482.299 -1.32453 1.00226 0
M  V30 5067 O 483.484 -1.41826 1.27632 0
M  V30 5068 C 480.624 -2.2338 2.6305 0
M  V30 5069 C 479.737 -1.92183 3.86898 0
M  V30 5070 C 478.872 -3.14251 4.28275 0
M  V30 5071 C 477.911 -2.78862 5.44888 0
M  V30 5072 N 477.048 -3.93548 5.81433 0
M  V30 5073 H 481.888 -0.501303 2.93753 0
M  V30 5074 H 479.425 -0.235847 1.45197 0
M  V30 5075 H 481.383 -2.98124 2.91853 0
M  V30 5076 H 480.013 -2.6646 1.82205 0
M  V30 5077 H 479.065 -1.07692 3.64838 0
M  V30 5078 H 480.377 -1.62117 4.7172 0
M  V30 5079 H 479.531 -3.97317 4.58502 0
M  V30 5080 H 478.27 -3.47476 3.42215 0
M  V30 5081 H 477.275 -1.94208 5.14357 0
M  V30 5082 H 478.5 -2.46855 6.32645 0
M  V30 5083 H 476.446 -4.2662 4.98328 0
M  V30 5084 H 476.363 -3.67098 6.6089 0
M  V30 5085 H 477.631 -4.77325 6.16264 0
M  V30 5086 N 481.861 -1.55662 -0.24637 0
M  V30 5087 C 482.771 -1.93495 -1.32653 0
M  V30 5088 C 483.787 -0.835462 -1.5263 0
M  V30 5089 O 484.963 -1.1369 -1.66242 0
M  V30 5090 C 482.028 -2.22242 -2.66101 0
M  V30 5091 C 481.089 -3.45625 -2.54641 0
M  V30 5092 C 480.322 -3.72991 -3.81724 0
M  V30 5093 O 480.545 -3.02421 -4.8363 0
M  V30 5094 O 479.479 -4.66515 -3.80325 0
M  V30 5095 H 483.305 -2.85498 -1.03559 0
M  V30 5096 H 480.89 -1.42551 -0.44717 0
M  V30 5097 H 482.772 -2.42037 -3.44958 0
M  V30 5098 H 481.447 -1.33417 -2.94926 0
M  V30 5099 H 480.354 -3.31136 -1.74067 0
M  V30 5100 H 481.687 -4.34754 -2.3076 0
M  V30 5101 N 483.339 0.512053 -1.4905 0
M  V30 5102 C 484.755 0.84224 -1.35567 0
M  V30 5103 C 484.955 1.97878 -0.380319 0
M  V30 5104 O 484.011 2.51769 0.19201 0
M  V30 5105 C 485.324 1.19286 -2.76028 0
M  V30 5106 C 486.872 1.30171 -2.84648 0
M  V30 5107 C 487.347 1.68568 -4.25851 0
M  V30 5108 N 488.838 1.75638 -4.28609 0
M  V30 5109 C 489.573 2.06769 -5.34821 0
M  V30 5110 N 489.069 2.36201 -6.51292 0
M  V30 5111 N 490.862 2.07927 -5.22229 0
M  V30 5112 H 483.013 -0.237574 -2.11067 0
M  V30 5113 H 485.276 -0.0436747 -0.946993 0
M  V30 5114 H 484.982 0.431199 -3.49047 0
M  V30 5115 H 484.856 2.13889 -3.10695 0
M  V30 5116 H 487.243 2.05411 -2.11873 0
M  V30 5117 H 487.324 0.336457 -2.53578 0
M  V30 5118 H 486.968 0.938824 -4.99148 0
M  V30 5119 H 486.898 2.66174 -4.54377 0
M  V30 5120 H 489.389 1.55097 -3.44606 0
M  V30 5121 H 489.702 2.59112 -7.28066 0
M  V30 5122 H 488.047 2.33681 -6.54536 0
M  V30 5123 H 491.238 1.84403 -4.30248 0
M  V30 5124 H 491.411 2.31856 -6.05101 0
M  V30 5125 N 484.817 1.37938 0.762283 0
M  V30 5126 C 486.066 1.32989 1.51647 0
M  V30 5127 C 486.379 -0.0802922 1.95435 0
M  V30 5128 O 487.585 -0.252295 2.70325 0
M  V30 5129 C 486.041 2.33485 2.73885 0
M  V30 5130 C 485.649 3.80079 2.37157 0
M  V30 5131 C 487.393 2.37563 3.51801 0
M  V30 5132 C 485.3 4.72283 3.55954 0
M  V30 5133 H 484.23 0.494301 0.56937 0
M  V30 5134 H 486.881 1.63448 0.834083 0
M  V30 5135 H 485.263 1.96056 3.44061 0
M  V30 5136 H 486.437 4.26398 1.74704 0
M  V30 5137 H 484.752 3.79037 1.72395 0
M  V30 5138 H 487.349 3.0365 4.40114 0
M  V30 5139 H 487.692 1.39199 3.92338 0
M  V30 5140 H 488.225 2.73747 2.8863 0
M  V30 5141 H 484.964 5.7181 3.2049 0
M  V30 5142 H 484.484 4.30663 4.1748 0
M  V30 5143 H 486.163 4.89876 4.22647 0
M  V30 5144 N 486.295 -0.989507 1.22664 0
M  V30 5145 C 487.541 -1.7321 1.05481 0
M  V30 5146 C 487.874 -1.89852 -0.408635 0
M  V30 5147 O 487.149 -1.44416 -1.30285 0
M  V30 5148 C 487.432 -3.1357 1.77047 0
M  V30 5149 C 487.285 -3.04555 3.31008 0
M  V30 5150 C 488.604 -4.12812 1.5256 0
M  V30 5151 H 485.723 -0.628697 0.384589 0
M  V30 5152 H 488.365 -1.15258 1.51049 0
M  V30 5153 H 486.515 -3.63046 1.3831 0
M  V30 5154 H 488.187 -2.62674 3.7921 0
M  V30 5155 H 486.43 -2.41278 3.6051 0
M  V30 5156 H 487.101 -4.03894 3.76263 0
M  V30 5157 H 489.577 -3.72106 1.86215 0
M  V30 5158 H 488.453 -5.09132 2.05124 0
M  V30 5159 H 488.714 -4.39711 0.458936 0
M  V30 5160 N 487.773 -1.03688 -1.18687 0
M  V30 5161 C 488.998 -0.757819 -1.93059 0
M  V30 5162 C 489.423 0.678353 -1.75442 0
M  V30 5163 O 488.781 1.46938 -1.06203 0
M  V30 5164 C 488.829 -1.12423 -3.42627 0
M  V30 5165 O 487.933 -0.247505 -4.11657 0
M  V30 5166 H 487.274 -0.279245 -0.602427 0
M  V30 5167 H 489.804 -1.3857 -1.5053 0
M  V30 5168 H 489.814 -1.08454 -3.93322 0
M  V30 5169 H 488.489 -2.17049 -3.54771 0
M  V30 5170 H 487.066 -0.34649 -3.71287 0
M  V30 5171 N 489.251 1.34841 -0.815825 0
M  V30 5172 C 490.161 2.33425 -0.234462 0
M  V30 5173 C 491.177 1.62295 0.627413 0
M  V30 5174 O 492.353 1.94109 0.536987 0
M  V30 5175 C 489.418 3.41471 0.599849 0
M  V30 5176 C 488.479 4.28362 -0.283596 0
M  V30 5177 C 487.712 5.31248 0.51099 0
M  V30 5178 O 487.935 5.43056 1.7449 0
M  V30 5179 O 486.869 6.01812 -0.10297 0
M  V30 5180 H 490.695 2.84962 -1.05024 0
M  V30 5181 H 488.28 1.37774 -0.577809 0
M  V30 5182 H 490.162 4.07464 1.07475 0
M  V30 5183 H 488.837 2.9219 1.39308 0
M  V30 5184 H 487.744 3.65318 -0.805836 0
M  V30 5185 H 489.077 4.81066 -1.041 0
M  V30 5186 N 490.729 0.570148 1.46925 0
M  V30 5187 C 491.639 -0.173061 2.33961 0
M  V30 5188 C 492.655 -0.898825 1.48987 0
M  V30 5189 O 493.831 -0.864825 1.81887 0
M  V30 5190 C 490.896 -1.18177 3.25937 0
M  V30 5191 C 489.957 -0.462041 4.26806 0
M  V30 5192 C 489.19 -1.4227 5.14388 0
M  V30 5193 O 489.413 -2.65842 5.04662 0
M  V30 5194 O 488.347 -0.940127 5.94513 0
M  V30 5195 H 492.173 0.541216 2.98839 0
M  V30 5196 H 489.758 0.330647 1.45695 0
M  V30 5197 H 491.64 -1.76372 3.82715 0
M  V30 5198 H 490.315 -1.87774 2.63671 0
M  V30 5199 H 489.222 0.161429 3.73752 0
M  V30 5200 H 490.555 0.192719 4.91823 0
M  V30 5201 N 492.207 -1.54576 0.307264 0
M  V30 5202 C 493.455 -1.99867 -0.299574 0
M  V30 5203 C 493.776 -1.19714 -1.53927 0
M  V30 5204 O 493.046 -0.29472 -1.9367 0
M  V30 5205 H 491.626 -0.738299 -0.113683 0
M  V30 5206 H 494.288 -1.9032 0.420042 0
M  V30 5207 H 493.384 -3.06901 -0.567283 0
M  V30 5208 N 493.685 -0.035106 -1.57561 0
M  V30 5209 C 495.101 0.321334 -1.56332 0
M  V30 5210 C 495.301 1.72509 -1.04129 0
M  V30 5211 O 494.357 2.4287 -0.690694 0
M  V30 5212 C 495.67 0.164469 -3.0025 0
M  V30 5213 C 497.218 0.236786 -3.12103 0
M  V30 5214 C 497.693 0.10864 -4.57871 0
M  V30 5215 N 499.184 0.165433 -4.62904 0
M  V30 5216 C 499.919 0.0901506 -5.73329 0
M  V30 5217 N 499.415 -0.0365606 -6.9279 0
M  V30 5218 N 501.208 0.144572 -5.61914 0
M  V30 5219 H 493.359 -0.952976 -1.89821 0
M  V30 5220 H 495.622 -0.368537 -0.873432 0
M  V30 5221 H 495.328 -0.802746 -3.42416 0
M  V30 5222 H 495.202 0.932194 -3.655 0
M  V30 5223 H 497.589 1.19446 -2.69845 0
M  V30 5224 H 497.67 -0.561419 -2.49563 0
M  V30 5225 H 497.314 -0.845644 -5.00811 0
M  V30 5226 H 497.244 0.925786 -5.18398 0
M  V30 5227 H 499.735 0.263269 -3.76982 0
M  V30 5228 H 500.048 -0.0871487 -7.72751 0
M  V30 5229 H 498.393 -0.0714256 -6.94963 0
M  V30 5230 H 501.584 0.242006 -4.67474 0
M  V30 5231 H 501.757 0.0824413 -6.47948 0
M  V30 5232 N 495.163 1.55791 0.238111 0
M  V30 5233 C 496.11 1.9105 1.29493 0
M  V30 5234 C 497.08 0.765733 1.47397 0
M  V30 5235 O 498.265 1.02017 1.61236 0
M  V30 5236 C 495.405 2.21826 2.64362 0
M  V30 5237 C 494.518 3.49153 2.54394 0
M  V30 5238 C 493.653 3.69455 3.81676 0
M  V30 5239 C 492.692 4.90353 3.66361 0
M  V30 5240 N 491.829 5.07131 4.85554 0
M  V30 5241 H 496.669 2.81172 0.987233 0
M  V30 5242 H 494.206 1.39179 0.476203 0
M  V30 5243 H 496.164 2.37675 3.4288 0
M  V30 5244 H 494.794 1.34897 2.93262 0
M  V30 5245 H 493.846 3.41587 1.67399 0
M  V30 5246 H 495.158 4.37818 2.38991 0
M  V30 5247 H 494.312 3.85311 4.68636 0
M  V30 5248 H 493.051 2.7904 3.99985 0
M  V30 5249 H 492.056 4.74464 2.77784 0
M  V30 5250 H 493.281 5.82237 3.49538 0
M  V30 5251 H 491.227 4.19654 5.04209 0
M  V30 5252 H 491.144 5.89899 4.72816 0
M  V30 5253 H 492.412 5.27407 5.73988 0
M  V30 5254 N 496.642 -0.504142 1.49319 0
M  V30 5255 C 497.574 -1.62265 1.61872 0
M  V30 5256 C 498.587 -1.54881 0.501573 0
M  V30 5257 O 499.776 -1.6087 0.773497 0
M  V30 5258 C 496.876 -3.01042 1.55651 0
M  V30 5259 C 496.049 -3.33642 2.82845 0
M  V30 5260 C 495.108 -4.51816 2.69719 0
M  V30 5261 O 494.134 -4.53755 3.4365 0
M  V30 5262 N 495.336 -5.51543 1.81055 0
M  V30 5263 H 498.101 -1.51924 2.58339 0
M  V30 5264 H 495.662 -0.691954 1.46368 0
M  V30 5265 H 497.654 -3.78013 1.44528 0
M  V30 5266 H 496.224 -3.05323 0.670546 0
M  V30 5267 H 495.444 -2.45598 3.08343 0
M  V30 5268 H 496.732 -3.5222 3.67177 0
M  V30 5269 H 496.13 -5.52774 1.20241 0
M  V30 5270 H 494.687 -6.27629 1.75856 0
M  V30 5271 N 498.12 -1.38341 -0.754957 0
M  V30 5272 C 499.052 -1.31347 -1.87831 0
M  V30 5273 C 500.065 -0.225955 -1.61224 0
M  V30 5274 O 501.254 -0.48341 -1.7183 0
M  V30 5275 C 498.354 -1.01201 -3.23437 0
M  V30 5276 C 497.527 -2.20834 -3.77559 0
M  V30 5277 C 496.586 -1.87454 -4.91678 0
M  V30 5278 O 495.612 -2.59934 -5.06382 0
M  V30 5279 N 496.814 -0.828682 -5.74555 0
M  V30 5280 H 499.579 -2.28147 -1.94342 0
M  V30 5281 H 497.14 -1.32184 -0.934828 0
M  V30 5282 H 499.132 -0.769249 -3.97322 0
M  V30 5283 H 497.702 -0.132011 -3.12321 0
M  V30 5284 H 496.922 -2.61184 -2.95256 0
M  V30 5285 H 498.21 -3.00678 -4.10451 0
M  V30 5286 H 497.608 -0.227591 -5.65242 0
M  V30 5287 H 496.165 -0.645802 -6.48593 0
M  V30 5288 N 499.598 0.982988 -1.23187 0
M  V30 5289 C 500.546 2.09616 -1.00817 0
M  V30 5290 C 501.54 1.6932 0.0519995 0
M  V30 5291 O 502.746 1.79715 -0.101284 0
M  V30 5292 H 499.121 0.685628 -0.308899 0
M  V30 5293 H 501.092 2.25652 -1.95253 0
M  V30 5294 C 499.841 3.42249 -0.613243 0
M  V30 5295 H 499.164 3.73705 -1.42073 0
M  V30 5296 H 500.604 4.21086 -0.496208 0
M  V30 5297 C 499.063 3.30002 0.678233 0
M  V30 5298 O 499.593 3.6263 1.72807 0
M  V30 5299 N 497.799 2.83164 0.653165 0
M  V30 5300 H 497.346 2.56811 -0.201492 0
M  V30 5301 H 497.304 2.75352 1.51752 0
M  V30 5302 N 501.076 1.04316 1.18135 0
M  V30 5303 C 502.023 0.636398 2.21853 0
M  V30 5304 C 502.993 -0.357039 1.62217 0
M  V30 5305 O 504.178 -0.250453 1.89149 0
M  V30 5306 C 501.318 0.00812779 3.45099 0
M  V30 5307 C 500.431 1.04933 4.19062 0
M  V30 5308 C 499.566 0.389313 5.29771 0
M  V30 5309 C 498.605 1.41544 5.9551 0
M  V30 5310 N 497.742 0.78021 6.97751 0
M  V30 5311 H 502.582 1.52536 2.56002 0
M  V30 5312 H 500.119 0.76304 1.25762 0
M  V30 5313 H 502.077 -0.373497 4.15525 0
M  V30 5314 H 500.707 -0.844336 3.11562 0
M  V30 5315 H 499.759 1.54888 3.47439 0
M  V30 5316 H 501.071 1.82862 4.64072 0
M  V30 5317 H 500.225 -0.0463805 6.06682 0
M  V30 5318 H 498.964 -0.422038 4.8587 0
M  V30 5319 H 497.969 1.86124 5.17337 0
M  V30 5320 H 499.194 2.22854 6.41493 0
M  V30 5321 H 497.14 -0.0107899 6.55999 0
M  V30 5322 H 497.057 1.49716 7.41027 0
M  V30 5323 H 498.325 0.368996 7.78626 0
M  V30 5324 N 502.554 -1.34406 0.822964 0
M  V30 5325 C 503.484 -2.32052 0.259608 0
M  V30 5326 C 504.465 -1.58243 -0.623961 0
M  V30 5327 O 505.65 -1.86224 -0.55083 0
M  V30 5328 C 502.78 -3.42434 -0.579314 0
M  V30 5329 C 501.734 -4.27499 0.20712 0
M  V30 5330 C 501.06 -5.29349 -0.754547 0
M  V30 5331 C 502.36 -5.02758 1.41533 0
M  V30 5332 H 504.054 -2.79418 1.07545 0
M  V30 5333 H 501.6 -1.34338 0.518593 0
M  V30 5334 H 503.553 -4.0976 -0.983612 0
M  V30 5335 H 502.277 -2.93717 -1.4282 0
M  V30 5336 H 500.936 -3.61776 0.592787 0
M  V30 5337 H 500.584 -4.76895 -1.59939 0
M  V30 5338 H 500.284 -5.8714 -0.232561 0
M  V30 5339 H 501.808 -5.99544 -1.1567 0
M  V30 5340 H 503.222 -5.62938 1.08504 0
M  V30 5341 H 501.619 -5.70123 1.87296 0
M  V30 5342 H 502.689 -4.32451 2.1935 0
M  V30 5343 N 504.032 -0.577932 -1.46621 0
M  V30 5344 C 504.979 0.158048 -2.30258 0
M  V30 5345 C 505.949 0.888669 -1.40328 0
M  V30 5346 O 507.134 0.880283 -1.6928 0
M  V30 5347 C 504.274 1.16884 -3.24703 0
M  V30 5348 C 503.387 0.442163 -4.29731 0
M  V30 5349 C 502.522 1.44007 -5.11308 0
M  V30 5350 C 501.561 0.69952 -6.0809 0
M  V30 5351 N 500.698 1.64525 -6.82551 0
M  V30 5352 H 505.538 -0.561242 -2.92667 0
M  V30 5353 H 503.075 -0.288591 -1.44241 0
M  V30 5354 H 505.033 1.7677 -3.779 0
M  V30 5355 H 503.663 1.85591 -2.64113 0
M  V30 5356 H 502.715 -0.271632 -3.79429 0
M  V30 5357 H 504.027 -0.136992 -4.98612 0
M  V30 5358 H 503.181 2.11186 -5.68758 0
M  V30 5359 H 501.92 2.05315 -4.42377 0
M  V30 5360 H 500.925 0.0139217 -5.49798 0
M  V30 5361 H 502.15 0.091894 -6.79038 0
M  V30 5362 H 500.096 2.24653 -6.16334 0
M  V30 5363 H 500.013 1.11878 -7.47676 0
M  V30 5364 H 501.281 2.30754 -7.44562 0
M  V30 5365 N 505.51 1.54411 -0.315457 0
M  V30 5366 C 506.787 1.92562 0.343398 0
M  V30 5367 C 507.167 1.24423 1.70535 0
M  V30 5368 O 506.515 0.385051 2.25232 0
M  V30 5369 C 506.725 3.46168 0.443687 0
M  V30 5370 C 508.073 4.18659 0.707783 0
M  V30 5371 O 509.097 3.52281 0.52693 0
M  V30 5372 O 507.956 5.36198 1.05612 0
M  V30 5373 H 505.05 0.80379 0.194552 0
M  V30 5374 H 507.596 1.65738 -0.364577 0
M  V30 5375 H 506.368 3.8792 -0.513172 0
M  V30 5376 H 505.991 3.79073 1.19956 0
M  V30 5377 N 506.988 0.0434614 1.5754 0
M  V30 5378 C 507.918 -0.931651 2.14109 0
M  V30 5379 C 508.899 -1.32971 1.06079 0
M  V30 5380 O 510.084 -1.40579 1.33982 0
M  V30 5381 C 507.214 -2.20914 2.67982 0
M  V30 5382 C 506.168 -1.95139 3.80926 0
M  V30 5383 C 505.494 -3.29276 4.21285 0
M  V30 5384 C 506.794 -1.27913 5.06395 0
M  V30 5385 H 508.488 -0.460497 2.95837 0
M  V30 5386 H 506.034 -0.220058 1.42309 0
M  V30 5387 H 507.987 -2.89522 3.06194 0
M  V30 5388 H 506.711 -2.70221 1.83434 0
M  V30 5389 H 505.37 -1.28945 3.43175 0
M  V30 5390 H 505.018 -3.76369 3.33699 0
M  V30 5391 H 504.718 -3.12831 4.97404 0
M  V30 5392 H 506.242 -3.99129 4.62091 0
M  V30 5393 H 507.656 -1.86544 5.42102 0
M  V30 5394 H 506.053 -1.2182 5.87605 0
M  V30 5395 H 507.123 -0.254066 4.84234 0
M  V30 5396 N 508.466 -1.55915 -0.229846 0
M  V30 5397 C 509.691 -1.8296 -0.976743 0
M  V30 5398 C 510.116 -0.622735 -1.77493 0
M  V30 5399 O 509.474 0.428431 -1.76165 0
M  V30 5400 C 509.522 -3.07916 -1.8767 0
M  V30 5401 O 508.626 -2.86028 -2.97088 0
M  V30 5402 H 507.967 -0.603453 -0.277021 0
M  V30 5403 H 510.497 -2.0312 -0.245669 0
M  V30 5404 H 510.507 -3.37802 -2.2881 0
M  V30 5405 H 509.182 -3.95389 -1.28996 0
M  V30 5406 H 507.759 -2.67355 -2.59954 0
M  V30 5407 N 509.944 0.496216 -1.49584 0
M  V30 5408 C 511.355 1.07765 -1.52459 0
M  V30 5409 C 511.706 1.93679 -0.31353 0
M  V30 5410 O 510.831 2.08588 0.576186 0
M  V30 5411 C 511.426 1.96111 -2.76271 0
M  V30 5412 C 509.985 2.49409 -2.81908 0
M  V30 5413 C 509.132 1.27142 -2.46435 0
M  V30 5414 H 512.083 0.279914 -1.56212 0
M  V30 5415 H 512.104 2.80862 -2.56704 0
M  V30 5416 H 511.616 1.33555 -3.64396 0
M  V30 5417 H 509.717 3.1559 -1.98074 0
M  V30 5418 H 509.83 2.86234 -3.84196 0
M  V30 5419 H 508.194 1.59818 -1.98319 0
M  V30 5420 H 508.977 0.662866 -3.3684 0
M  V30 5421 N 511.423 1.38739 0.74761 0
M  V30 5422 C 512.672 1.3459 1.50228 0
M  V30 5423 C 512.985 -0.0595592 1.95509 0
M  V30 5424 O 514.191 -0.22361 2.70578 0
M  V30 5425 C 512.647 2.36377 2.71393 0
M  V30 5426 C 512.255 3.82573 2.33113 0
M  V30 5427 C 513.999 2.41281 3.49262 0
M  V30 5428 C 511.906 4.76032 3.50924 0
M  V30 5429 H 510.836 0.500312 0.564096 0
M  V30 5430 H 513.487 1.64324 0.8167 0
M  V30 5431 H 511.869 1.99694 3.41962 0
M  V30 5432 H 513.043 4.28227 1.70171 0
M  V30 5433 H 511.358 3.80844 1.68365 0
M  V30 5434 H 513.955 3.08301 4.36869 0
M  V30 5435 H 514.298 1.43353 3.9084 0
M  V30 5436 H 514.831 2.76793 2.85711 0
M  V30 5437 H 511.57 5.75177 3.14408 0
M  V30 5438 H 511.09 4.35066 4.12889 0
M  V30 5439 H 512.769 4.94331 4.17427 0
M  V30 5440 N 512.901 -0.976442 1.23707 0
M  V30 5441 C 513.864 -2.0511 1.02287 0
M  V30 5442 C 514.864 -1.60791 -0.0167195 0
M  V30 5443 O 516.054 -1.72761 0.223408 0
M  V30 5444 C 513.186 -3.36458 0.548507 0
M  V30 5445 H 514.379 -2.25545 1.9766 0
M  V30 5446 H 511.932 -1.15042 1.05806 0
M  V30 5447 H 512.667 -3.21713 -0.408818 0
M  V30 5448 H 512.452 -3.69967 1.29874 0
M  V30 5449 H 513.942 -4.15489 0.419406 0
M  V30 5450 N 514.379 -1.04941 -1.1758 0
M  V30 5451 C 515.289 -0.658826 -2.25159 0
M  V30 5452 C 516.305 0.318941 -1.71052 0
M  V30 5453 O 517.481 0.171669 -2.00667 0
M  V30 5454 C 514.546 -0.0369522 -3.4668 0
M  V30 5455 C 513.607 -1.06484 -4.15884 0
M  V30 5456 C 512.84 -0.472551 -5.31604 0
M  V30 5457 O 513.063 0.718736 -5.65854 0
M  V30 5458 O 511.997 -1.20557 -5.89703 0
M  V30 5459 H 515.823 -1.55533 -2.60851 0
M  V30 5460 H 513.408 -0.820819 -1.24832 0
M  V30 5461 H 515.29 0.308784 -4.20267 0
M  V30 5462 H 513.965 0.833238 -3.12792 0
M  V30 5463 H 512.872 -1.46253 -3.44327 0
M  V30 5464 H 514.205 -1.9061 -4.53794 0
M  V30 5465 N 515.857 1.33968 -0.830081 0
M  V30 5466 C 517.273 1.51003 -0.516742 0
M  V30 5467 C 517.473 1.77286 0.957694 0
M  V30 5468 O 516.529 1.82797 1.74188 0
M  V30 5469 C 517.842 2.67036 -1.38247 0
M  V30 5470 C 519.39 2.80919 -1.38034 0
M  V30 5471 C 519.865 4.00004 -2.23071 0
M  V30 5472 N 521.356 4.07224 -2.20733 0
M  V30 5473 C 522.091 4.98541 -2.83275 0
M  V30 5474 N 521.587 5.95033 -3.54835 0
M  V30 5475 N 523.38 4.91469 -2.72791 0
M  V30 5476 H 515.531 1.15168 -1.78466 0
M  V30 5477 H 517.794 0.565443 -0.760906 0
M  V30 5478 H 517.5 2.54266 -2.42985 0
M  V30 5479 H 517.374 3.62226 -1.05225 0
M  V30 5480 H 519.761 2.93127 -0.340713 0
M  V30 5481 H 519.842 1.86517 -1.75057 0
M  V30 5482 H 519.486 3.88557 -3.27087 0
M  V30 5483 H 519.416 4.93634 -1.83394 0
M  V30 5484 H 521.907 3.38162 -1.68687 0
M  V30 5485 H 522.22 6.61357 -3.99784 0
M  V30 5486 H 520.565 5.95135 -3.58942 0
M  V30 5487 H 523.756 4.15048 -2.16456 0
M  V30 5488 H 523.929 5.62439 -3.21818 0
M  V30 5489 N 517.335 0.585699 1.46312 0
M  V30 5490 C 518.265 -0.133556 2.33118 0
M  V30 5491 C 519.246 -0.880707 1.45525 0
M  V30 5492 O 520.431 -0.855579 1.74337 0
M  V30 5493 C 517.561 -1.14585 3.27853 0
M  V30 5494 C 516.515 -0.513341 4.2491 0
M  V30 5495 C 515.841 -1.63231 5.09175 0
M  V30 5496 C 517.141 0.551413 5.19381 0
M  V30 5497 H 518.835 0.59121 2.93505 0
M  V30 5498 H 516.381 0.285761 1.41136 0
M  V30 5499 H 518.334 -1.65741 3.87438 0
M  V30 5500 H 517.058 -1.90093 2.65579 0
M  V30 5501 H 515.717 -0.0228349 3.66593 0
M  V30 5502 H 515.365 -2.37713 4.43285 0
M  V30 5503 H 515.065 -1.21473 5.74907 0
M  V30 5504 H 516.589 -2.14658 5.71624 0
M  V30 5505 H 518.003 0.124804 5.73164 0
M  V30 5506 H 516.4 0.889486 5.93471 0
M  V30 5507 H 517.47 1.43655 4.63132 0
M  V30 5508 N 518.813 -1.54241 0.323641 0
M  V30 5509 C 520.061 -2.00174 -0.278359 0
M  V30 5510 C 520.382 -1.2134 -1.52648 0
M  V30 5511 O 519.652 -0.315244 -1.93347 0
M  V30 5512 H 518.232 -0.739463 -0.105845 0
M  V30 5513 H 520.894 -1.89864 0.440204 0
M  V30 5514 H 519.99 -3.07486 -0.5347 0
M  V30 5515 N 520.291 -0.0518155 -1.57515 0
M  V30 5516 C 521.531 0.625712 -1.94587 0
M  V30 5517 C 521.895 1.6797 -0.930053 0
M  V30 5518 O 523.096 2.41135 -1.18774 0
M  V30 5519 C 521.367 1.20574 -3.36447 0
M  V30 5520 S 522.926 1.90118 -3.95475 0
M  V30 5521 H 519.744 0.205434 -0.680675 0
M  V30 5522 H 522.346 -0.120906 -1.95126 0
M  V30 5523 H 521.05 0.426521 -4.08178 0
M  V30 5524 H 520.581 1.98916 -3.39405 0
M  V30 5525 H 522.596 3.18184 -3.80753 0
M  V30 5526 N 521.769 1.56035 0.221574 0
M  V30 5527 C 522.997 1.8313 0.962864 0
M  V30 5528 C 523.412 0.630934 1.77946 0
M  V30 5529 O 522.769 -0.400519 1.78051 0
M  V30 5530 C 522.82 3.08742 1.88045 0
M  V30 5531 O 522.541 4.24147 1.09686 0
M  V30 5532 C 524.042 3.48824 2.73563 0
M  V30 5533 H 521.262 0.608775 0.282194 0
M  V30 5534 H 523.806 2.03124 0.23681 0
M  V30 5535 H 521.961 2.90723 2.56045 0
M  V30 5536 H 522.375 4.95505 1.71974 0
M  V30 5537 H 523.849 4.39752 3.3365 0
M  V30 5538 H 524.326 2.70575 3.45956 0
M  V30 5539 H 524.932 3.69282 2.10976 0
M  V30 5540 N 523.247 -0.488276 1.49845 0
M  V30 5541 C 524.177 -1.59675 1.70371 0
M  V30 5542 C 525.158 -1.60878 0.552473 0
M  V30 5543 O 526.343 -1.77417 0.78973 0
M  V30 5544 C 523.473 -2.98098 1.782 0
M  V30 5545 C 522.427 -3.11761 2.93239 0
M  V30 5546 C 521.753 -4.51661 2.86193 0
M  V30 5547 C 523.053 -2.90589 4.33999 0
M  V30 5548 H 524.747 -1.42752 2.63177 0
M  V30 5549 H 522.293 -0.685317 1.26647 0
M  V30 5550 H 524.246 -3.75555 1.91144 0
M  V30 5551 H 522.97 -3.16138 0.820018 0
M  V30 5552 H 521.629 -2.36732 2.79917 0
M  V30 5553 H 521.277 -4.66595 1.87877 0
M  V30 5554 H 520.977 -4.61742 3.63412 0
M  V30 5555 H 522.501 -5.31162 3.01163 0
M  V30 5556 H 523.915 -3.57807 4.47936 0
M  V30 5557 H 522.312 -3.1213 5.12538 0
M  V30 5558 H 523.382 -1.86595 4.4756 0
M  V30 5559 N 524.725 -1.39134 -0.740242 0
M  V30 5560 C 526.136 -1.32208 -1.31825 0
M  V30 5561 C 526.487 0.0159919 -1.96193 0
M  V30 5562 O 525.612 0.918111 -1.95958 0
M  V30 5563 C 526.207 -2.39436 -2.39699 0
M  V30 5564 C 524.766 -2.36048 -2.93187 0
M  V30 5565 C 523.913 -2.21599 -1.66701 0
M  V30 5566 H 526.864 -1.49298 -0.538133 0
M  V30 5567 H 526.885 -2.05922 -3.19963 0
M  V30 5568 H 526.397 -3.36811 -1.92821 0
M  V30 5569 H 524.498 -1.42295 -3.44359 0
M  V30 5570 H 524.611 -3.30704 -3.46658 0
M  V30 5571 H 522.975 -1.68681 -1.90837 0
M  V30 5572 H 523.758 -3.20936 -1.21882 0
M  V30 5573 N 526.204 0.969867 -1.24223 0
M  V30 5574 C 527.136 2.0669 -0.99055 0
M  V30 5575 C 528.149 1.62753 0.0392222 0
M  V30 5576 O 529.338 1.77403 -0.197561 0
M  V30 5577 C 526.438 3.35589 -0.472594 0
M  V30 5578 C 525.611 4.08444 -1.56499 0
M  V30 5579 C 524.67 5.15616 -1.05007 0
M  V30 5580 O 523.696 5.41911 -1.7413 0
M  V30 5581 N 524.898 5.80383 0.116641 0
M  V30 5582 H 527.663 2.28855 -1.93508 0
M  V30 5583 H 525.224 1.13733 -1.15223 0
M  V30 5584 H 527.216 4.04542 -0.112919 0
M  V30 5585 H 525.786 3.10311 0.377617 0
M  V30 5586 H 525.006 3.33798 -2.09696 0
M  V30 5587 H 526.294 4.53882 -2.29932 0
M  V30 5588 H 525.692 5.6142 0.694589 0
M  V30 5589 H 524.249 6.50462 0.417483 0
M  V30 5590 N 527.682 1.05563 1.17022 0
M  V30 5591 C 528.612 0.681026 2.23348 0
M  V30 5592 C 529.593 -0.322983 1.67005 0
M  V30 5593 O 530.778 -0.199746 1.9317 0
M  V30 5594 C 527.908 0.0589053 3.4725 0
M  V30 5595 C 526.862 0.988082 4.16438 0
M  V30 5596 C 526.188 0.229646 5.34207 0
M  V30 5597 C 527.488 2.31388 4.68249 0
M  V30 5598 H 529.182 1.56993 2.54938 0
M  V30 5599 H 526.728 0.756302 1.2254 0
M  V30 5600 H 528.681 -0.214982 4.20851 0
M  V30 5601 H 527.405 -0.864968 3.14938 0
M  V30 5602 H 526.064 1.24659 3.44754 0
M  V30 5603 H 525.712 -0.697111 4.98146 0
M  V30 5604 H 525.412 0.848815 5.81437 0
M  V30 5605 H 526.936 -0.0368694 6.10589 0
M  V30 5606 H 528.35 2.09964 5.33468 0
M  V30 5607 H 526.747 2.88736 5.26072 0
M  V30 5608 H 527.817 2.94982 3.84855 0
M  V30 5609 N 529.16 -1.33526 0.837174 0
M  V30 5610 C 530.123 -2.27551 0.274421 0
M  V30 5611 C 531.123 -1.50886 -0.555881 0
M  V30 5612 O 532.313 -1.70227 -0.369918 0
M  V30 5613 C 529.445 -3.35332 -0.613605 0
M  V30 5614 H 530.638 -2.78837 1.10408 0
M  V30 5615 H 528.191 -1.439 0.610126 0
M  V30 5616 H 528.926 -2.89285 -1.46577 0
M  V30 5617 H 528.711 -3.92095 -0.0195341 0
M  V30 5618 H 530.201 -4.05433 -1.00068 0
M  V30 5619 N 530.638 -0.59345 -1.46 0
M  V30 5620 C 531.884 -0.0832754 -2.02629 0
M  V30 5621 C 532.217 1.27749 -1.46266 0
M  V30 5622 O 531.492 1.8395 -0.631866 0
M  V30 5623 C 531.775 -0.0290756 -3.60088 0
M  V30 5624 C 531.628 -1.41951 -4.26814 0
M  V30 5625 C 532.947 0.666055 -4.35031 0
M  V30 5626 H 530.066 -0.031736 -0.736316 0
M  V30 5627 H 532.708 -0.762711 -1.74019 0
M  V30 5628 H 530.858 0.549532 -3.84594 0
M  V30 5629 H 532.53 -2.04411 -4.13538 0
M  V30 5630 H 530.773 -1.98422 -3.8576 0
M  V30 5631 H 531.444 -1.33395 -5.3564 0
M  V30 5632 H 533.92 0.174401 -4.15734 0
M  V30 5633 H 532.796 0.673041 -5.44758 0
M  V30 5634 H 533.057 1.72946 -4.06869 0
M  V30 5635 N 532.116 1.54067 -0.331816 0
M  V30 5636 C 533.079 2.23275 0.517768 0
M  V30 5637 C 534.079 1.22897 1.03697 0
M  V30 5638 O 535.269 1.47419 0.928084 0
M  V30 5639 C 532.401 2.94326 1.72004 0
M  V30 5640 H 533.594 2.99773 -0.0873507 0
M  V30 5641 H 531.147 1.56079 -0.0830042 0
M  V30 5642 H 531.882 2.21986 2.36417 0
M  V30 5643 H 531.667 3.67941 1.35507 0
M  V30 5644 H 533.157 3.47031 2.32291 0
M  V30 5645 N 533.594 0.0601682 1.57485 0
M  V30 5646 C 534.84 -0.606552 1.94146 0
M  V30 5647 C 535.195 -1.67918 0.939225 0
M  V30 5648 O 534.488 -1.91558 -0.0402649 0
M  V30 5649 C 534.682 -1.23831 3.35262 0
M  V30 5650 C 534.511 -0.228408 4.4912 0
M  V30 5651 C 533.281 0.182813 5.04969 0
M  V30 5652 C 535.479 0.52975 5.11564 0
M  V30 5653 N 533.461 1.18464 6.02362 0
M  V30 5654 C 534.832 1.38439 6.04346 0
M  V30 5655 C 536.887 0.587084 4.94427 0
M  V30 5656 C 535.59 2.29125 6.81832 0
M  V30 5657 C 537.616 1.4814 5.72546 0
M  V30 5658 C 536.978 2.32375 6.64967 0
M  V30 5659 H 533.077 -0.193328 0.757726 0
M  V30 5660 H 535.661 0.1346 1.94234 0
M  V30 5661 H 533.832 -1.94944 3.35933 0
M  V30 5662 H 535.564 -1.86456 3.59188 0
M  V30 5663 H 532.319 -0.197968 4.73186 0
M  V30 5664 H 532.743 1.68271 6.55754 0
M  V30 5665 H 537.385 -0.049944 4.22771 0
M  V30 5666 H 535.103 2.93868 7.52773 0
M  V30 5667 H 538.689 1.53045 5.6131 0
M  V30 5668 H 537.569 3.00454 7.2436 0
M  V30 5669 N 535.072 -1.5615 -0.213296 0
M  V30 5670 C 536.312 -1.81325 -0.943435 0
M  V30 5671 C 536.676 -0.634934 -1.81198 0
M  V30 5672 O 537.877 -0.766166 -2.5765 0
M  V30 5673 C 536.148 -3.11437 -1.75334 0
M  V30 5674 S 537.707 -3.57955 -2.53799 0
M  V30 5675 H 534.525 -0.636538 -0.316766 0
M  V30 5676 H 537.127 -1.94387 -0.208313 0
M  V30 5677 H 535.831 -3.95228 -1.10556 0
M  V30 5678 H 535.362 -3.01204 -2.53061 0
M  V30 5679 H 537.377 -3.21947 -3.77577 0
M  V30 5680 N 536.55 0.480323 -1.50102 0
M  V30 5681 C 537.48 1.58769 -1.71215 0
M  V30 5682 C 538.461 1.60583 -0.560997 0
M  V30 5683 O 539.646 1.76996 -0.799127 0
M  V30 5684 C 536.776 2.97148 -1.79778 0
M  V30 5685 C 535.73 3.10201 -2.94888 0
M  V30 5686 C 535.056 4.50137 -2.88584 0
M  V30 5687 C 536.356 2.88283 -4.35534 0
M  V30 5688 H 538.05 1.41354 -2.6393 0
M  V30 5689 H 535.596 0.678591 -1.27008 0
M  V30 5690 H 537.549 3.74536 -1.93133 0
M  V30 5691 H 536.273 3.15699 -0.836772 0
M  V30 5692 H 534.932 2.35244 -2.81169 0
M  V30 5693 H 534.58 4.65593 -1.90349 0
M  V30 5694 H 534.28 4.59808 -3.65856 0
M  V30 5695 H 535.804 5.29558 -3.03976 0
M  V30 5696 H 537.218 3.55427 -4.49827 0
M  V30 5697 H 535.615 3.09408 -5.14186 0
M  V30 5698 H 536.685 1.84219 -4.48544 0
M  V30 5699 N 538.028 1.39524 0.732853 0
M  V30 5700 C 539.444 1.21176 1.03868 0
M  V30 5701 C 539.644 0.0748448 2.01361 0
M  V30 5702 O 538.7 -0.57281 2.45917 0
M  V30 5703 C 540.013 2.54667 1.59892 0
M  V30 5704 C 541.561 2.6153 1.71962 0
M  V30 5705 C 542.036 3.95248 2.31394 0
M  V30 5706 N 543.527 3.96899 2.38801 0
M  V30 5707 C 544.262 4.97138 2.85729 0
M  V30 5708 N 543.758 6.07775 3.32537 0
M  V30 5709 N 545.551 4.84516 2.84957 0
M  V30 5710 H 537.702 2.12225 0.086304 0
M  V30 5711 H 539.965 0.942614 0.100907 0
M  V30 5712 H 539.671 3.38423 0.95721 0
M  V30 5713 H 539.545 2.74538 2.58668 0
M  V30 5714 H 541.932 1.78156 2.35254 0
M  V30 5715 H 542.013 2.45507 0.718327 0
M  V30 5716 H 541.657 4.79054 1.68729 0
M  V30 5717 H 541.587 4.08593 3.32204 0
M  V30 5718 H 544.078 3.16998 2.05719 0
M  V30 5719 H 544.391 6.8017 3.66862 0
M  V30 5720 H 542.736 6.11366 3.30541 0
M  V30 5721 H 545.927 3.97185 2.47713 0
M  V30 5722 H 546.1 5.62783 3.21215 0
M  V30 5723 N 539.506 -0.963266 1.24736 0
M  V30 5724 C 540.454 -2.07985 1.04139 0
M  V30 5725 C 541.448 -1.69381 -0.0250556 0
M  V30 5726 O 542.654 -1.79531 0.129863 0
M  V30 5727 H 539.029 -0.680627 0.319768 0
M  V30 5728 H 541 -2.22517 1.98818 0
M  V30 5729 C 539.749 -3.4123 0.667615 0
M  V30 5730 H 539.072 -3.71397 1.48 0
M  V30 5731 H 540.512 -4.20244 0.563136 0
M  V30 5732 C 538.971 -3.3104 -0.625647 0
M  V30 5733 O 539.501 -3.65334 -1.67016 0
M  V30 5734 N 537.707 -2.84168 -0.608033 0
M  V30 5735 H 537.254 -2.56458 0.242323 0
M  V30 5736 H 537.212 -2.77732 -1.47352 0
M  V30 5737 N 540.985 -1.06182 -1.16461 0
M  V30 5738 C 541.895 -0.682671 -2.24448 0
M  V30 5739 C 542.911 0.30078 -1.71381 0
M  V30 5740 O 544.087 0.150376 -2.00838 0
M  V30 5741 C 541.152 -0.0737202 -3.46622 0
M  V30 5742 C 540.213 -1.10889 -4.14731 0
M  V30 5743 C 539.446 -0.528908 -5.31073 0
M  V30 5744 O 539.669 0.65868 -5.66584 0
M  V30 5745 O 538.603 -1.26805 -5.88391 0
M  V30 5746 H 542.429 -1.58291 -2.59187 0
M  V30 5747 H 540.014 -0.834013 -1.23954 0
M  V30 5748 H 541.896 0.264192 -4.20571 0
M  V30 5749 H 540.571 0.800015 -3.13658 0
M  V30 5750 H 539.478 -1.49896 -3.42756 0
M  V30 5751 H 540.811 -1.95412 -4.51747 0
M  V30 5752 N 542.463 1.3308 -0.844243 0
M  V30 5753 C 543.711 1.97215 -0.441676 0
M  V30 5754 C 544.032 1.67185 1.0037 0
M  V30 5755 O 543.302 0.973588 1.69994 0
M  V30 5756 H 541.882 0.72959 -0.160335 0
M  V30 5757 H 544.544 1.62348 -1.07838 0
M  V30 5758 H 543.64 3.06698 -0.57815 0
M  V30 5759 N 543.941 0.601185 1.45683 0
M  V30 5760 C 545.187 0.0940202 2.02582 0
M  V30 5761 C 545.52 -1.26972 1.46941 0
M  V30 5762 O 544.795 -1.83613 0.641612 0
M  V30 5763 C 545.078 0.0481715 3.60068 0
M  V30 5764 C 544.931 1.44212 4.26055 0
M  V30 5765 C 546.25 -0.642975 4.35378 0
M  V30 5766 H 543.369 0.0356404 0.736138 0
M  V30 5767 H 546.011 0.771929 1.73612 0
M  V30 5768 H 544.161 -0.529128 3.8488 0
M  V30 5769 H 545.833 2.06601 4.12449 0
M  V30 5770 H 544.076 2.00465 3.84703 0
M  V30 5771 H 544.747 1.36234 5.34925 0
M  V30 5772 H 547.223 -0.152351 4.15821 0
M  V30 5773 H 546.099 -0.644141 5.45107 0
M  V30 5774 H 546.36 -1.70785 4.0778 0
M  V30 5775 N 545.419 -1.53889 0.339982 0
M  V30 5776 C 546.644 -2.05741 -0.261798 0
M  V30 5777 C 547.069 -1.21354 -1.43718 0
M  V30 5778 O 546.427 -0.22645 -1.7988 0
M  V30 5779 C 546.475 -3.54542 -0.658228 0
M  V30 5780 O 545.579 -3.7302 -1.75869 0
M  V30 5781 H 544.92 -0.662529 -0.0441672 0
M  V30 5782 H 547.45 -1.98568 0.493161 0
M  V30 5783 H 547.46 -3.9711 -0.936368 0
M  V30 5784 H 546.135 -4.15412 0.201358 0
M  V30 5785 H 544.712 -3.42355 -1.47809 0
M  V30 5786 N 546.897 -0.0685191 -1.57451 0
M  V30 5787 C 548.122 0.613919 -1.98106 0
M  V30 5788 C 548.547 1.62551 -0.946501 0
M  V30 5789 O 547.905 1.81085 0.0882824 0
M  V30 5790 C 547.953 1.26189 -3.378 0
M  V30 5791 O 547.057 2.37773 -3.36954 0
M  V30 5792 H 546.398 0.158163 -0.644888 0
M  V30 5793 H 548.928 -0.142063 -2.04106 0
M  V30 5794 H 548.938 1.60951 -3.74912 0
M  V30 5795 H 547.613 0.520625 -4.12629 0
M  V30 5796 H 546.19 2.04829 -3.11608 0
M  V30 5797 N 548.375 1.56261 0.205012 0
M  V30 5798 C 549.621 1.80306 0.9283 0
M  V30 5799 C 549.954 0.640932 1.83319 0
M  V30 5800 O 549.229 -0.359032 1.91158 0
M  V30 5801 C 549.512 3.14547 1.75306 0
M  V30 5802 C 549.365 4.41236 0.873562 0
M  V30 5803 C 550.684 3.45382 2.72762 0
M  V30 5804 H 547.803 0.655929 0.336044 0
M  V30 5805 H 550.445 1.88984 0.196211 0
M  V30 5806 H 548.595 3.0728 2.37721 0
M  V30 5807 H 550.267 4.60539 0.264887 0
M  V30 5808 H 548.51 4.33427 0.179773 0
M  V30 5809 H 549.181 5.31639 1.48541 0
M  V30 5810 H 551.657 3.52884 2.20481 0
M  V30 5811 H 550.533 4.40449 3.2756 0
M  V30 5812 H 550.794 2.68377 3.51321 0
M  V30 5813 N 549.853 -0.472356 1.50355 0
M  V30 5814 C 550.783 -1.57859 1.72055 0
M  V30 5815 C 551.764 -1.60283 0.569505 0
M  V30 5816 O 552.949 -1.7657 0.808503 0
M  V30 5817 C 550.079 -2.96191 1.81351 0
M  V30 5818 C 549.033 -3.08633 2.96529 0
M  V30 5819 C 548.359 -4.486 2.90968 0
M  V30 5820 C 549.659 -2.85969 4.37057 0
M  V30 5821 H 551.353 -1.39953 2.64676 0
M  V30 5822 H 548.899 -0.671846 1.27367 0
M  V30 5823 H 550.852 -3.73507 1.95117 0
M  V30 5824 H 549.576 -3.15251 0.853502 0
M  V30 5825 H 548.235 -2.33749 2.82413 0
M  V30 5826 H 547.883 -4.64577 1.92815 0
M  V30 5827 H 547.583 -4.57861 3.68289 0
M  V30 5828 H 549.107 -5.27938 3.0678 0
M  V30 5829 H 550.521 -3.53036 4.51706 0
M  V30 5830 H 548.918 -3.06677 5.15819 0
M  V30 5831 H 549.988 -1.81838 4.49514 0
M  V30 5832 N 551.331 -1.39911 -0.725443 0
M  V30 5833 C 552.261 -1.42138 -1.85254 0
M  V30 5834 C 553.242 -0.283513 -1.67721 0
M  V30 5835 O 554.427 -0.490717 -1.87898 0
M  V30 5836 C 551.557 -1.27354 -3.23107 0
M  V30 5837 C 550.511 -2.3864 -3.55296 0
M  V30 5838 C 549.837 -2.08939 -4.92188 0
M  V30 5839 C 551.137 -3.8097 -3.57295 0
M  V30 5840 H 552.831 -2.36461 -1.83648 0
M  V30 5841 H 550.377 -1.13817 -0.882138 0
M  V30 5842 H 552.33 -1.2753 -4.01639 0
M  V30 5843 H 551.054 -0.295025 -3.25265 0
M  V30 5844 H 549.713 -2.37696 -2.79099 0
M  V30 5845 H 549.361 -1.09502 -4.90936 0
M  V30 5846 H 549.061 -2.83491 -5.14691 0
M  V30 5847 H 550.585 -2.10781 -5.73065 0
M  V30 5848 H 551.999 -3.8379 -4.25885 0
M  V30 5849 H 550.396 -4.5496 -3.9132 0
M  V30 5850 H 551.466 -4.11261 -2.5689 0
M  V30 5851 N 552.809 0.956637 -1.25245 0
M  V30 5852 C 554.057 1.69764 -1.09657 0
M  V30 5853 C 554.378 1.91583 0.363464 0
M  V30 5854 O 553.648 1.50149 1.25825 0
M  V30 5855 H 552.228 0.629097 -0.402798 0
M  V30 5856 H 554.89 1.15026 -1.57337 0
M  V30 5857 H 553.986 2.67769 -1.60331 0
M  V30 5858 N 554.287 1.06798 1.15896 0
M  V30 5859 C 555.512 0.808739 1.90982 0
M  V30 5860 C 555.937 -0.6316 1.77179 0
M  V30 5861 O 555.295 -1.4407 1.10061 0
M  V30 5862 C 555.343 1.21468 3.39526 0
M  V30 5863 O 554.447 0.356562 4.10856 0
M  V30 5864 H 553.788 0.29512 0.594811 0
M  V30 5865 H 556.318 1.42513 1.46804 0
M  V30 5866 H 556.328 1.18844 3.90308 0
M  V30 5867 H 555.003 2.26379 3.48891 0
M  V30 5868 H 553.58 0.444808 3.70238 0
M  V30 5869 N 555.766 -1.3263 0.851289 0
M  V30 5870 C 556.991 -2.02097 0.466006 0
M  V30 5871 C 557.416 -1.63574 -0.928709 0
M  V30 5872 O 556.774 -0.834665 -1.60944 0
M  V30 5873 C 556.822 -3.55425 0.608737 0
M  V30 5874 O 555.926 -4.10827 -0.359878 0
M  V30 5875 H 555.267 -0.636911 0.187724 0
M  V30 5876 H 557.797 -1.69253 1.14955 0
M  V30 5877 H 557.807 -4.04986 0.495006 0
M  V30 5878 H 556.482 -3.82806 1.62581 0
M  V30 5879 H 555.059 -3.72349 -0.202666 0
M  V30 5880 N 557.244 -0.608902 -1.45362 0
M  V30 5881 C 558.472 -0.111013 -2.06602 0
M  V30 5882 C 558.887 1.20516 -1.45332 0
M  V30 5883 O 558.244 1.73437 -0.567978 0
M  V30 5884 C 558.295 0.033688 -3.61484 0
M  V30 5885 O 558.016 -1.23041 -4.20467 0
M  V30 5886 C 559.517 0.562882 -4.39712 0
M  V30 5887 H 556.737 -0.0694453 -0.667397 0
M  V30 5888 H 559.281 -0.837008 -1.86586 0
M  V30 5889 H 557.436 0.710016 -3.80838 0
M  V30 5890 H 557.85 -1.06094 -5.13658 0
M  V30 5891 H 559.324 0.613213 -5.48583 0
M  V30 5892 H 559.801 1.58543 -4.09586 0
M  V30 5893 H 560.407 -0.0794454 -4.25226 0
M  V30 5894 N 558.722 1.53707 -0.348139 0
M  V30 5895 C 560.133 1.86213 0.134797 0
M  V30 5896 C 560.484 1.26925 1.49614 0
M  V30 5897 O 559.609 0.584573 2.08355 0
M  V30 5898 C 560.204 3.37866 0.251371 0
M  V30 5899 C 558.763 3.70233 0.678543 0
M  V30 5900 C 557.91 2.76683 -0.184925 0
M  V30 5901 H 560.861 1.48204 -0.567571 0
M  V30 5902 H 560.882 3.64908 1.07806 0
M  V30 5903 H 560.394 3.80988 -0.739581 0
M  V30 5904 H 558.495 3.32659 1.67835 0
M  V30 5905 H 558.608 4.76836 0.465251 0
M  V30 5906 H 556.972 2.52374 0.343465 0
M  V30 5907 H 557.755 3.22635 -1.1731 0
M  V30 5908 N 560.2 0.0768682 1.57412 0
M  V30 5909 C 561.11 -0.903207 2.16516 0
M  V30 5910 C 562.126 -1.32341 1.12968 0
M  V30 5911 O 563.302 -1.39507 1.45258 0
M  V30 5912 C 560.367 -2.1508 2.71922 0
M  V30 5913 C 559.428 -1.78653 3.90361 0
M  V30 5914 C 558.661 -2.97465 4.43114 0
M  V30 5915 O 558.884 -4.11638 3.94854 0
M  V30 5916 O 557.818 -2.76987 5.3438 0
M  V30 5917 H 561.644 -0.430427 3.00634 0
M  V30 5918 H 559.229 -0.146485 1.4868 0
M  V30 5919 H 561.111 -2.8823 3.07411 0
M  V30 5920 H 559.786 -2.61446 1.9086 0
M  V30 5921 H 558.693 -1.0274 3.59716 0
M  V30 5922 H 560.026 -1.37066 4.7273 0
M  V30 5923 N 561.678 -1.56367 -0.196722 0
M  V30 5924 C 562.61 -1.90941 -1.26784 0
M  V30 5925 C 563.623 -0.799928 -1.41792 0
M  V30 5926 O 564.812 -1.07833 -1.42247 0
M  V30 5927 C 561.912 -2.12477 -2.6402 0
M  V30 5928 C 561.085 -3.43616 -2.70641 0
M  V30 5929 C 560.144 -3.54284 -3.89062 0
M  V30 5930 O 559.17 -4.2712 -3.76241 0
M  V30 5931 N 560.372 -2.87252 -5.04447 0
M  V30 5932 H 563.137 -2.83417 -0.974417 0
M  V30 5933 H 560.698 -1.57215 -0.386649 0
M  V30 5934 H 562.69 -2.16904 -3.41665 0
M  V30 5935 H 561.26 -1.26508 -2.85857 0
M  V30 5936 H 560.48 -3.51072 -1.79283 0
M  V30 5937 H 561.768 -4.29958 -2.72054 0
M  V30 5938 H 561.166 -2.27901 -5.17762 0
M  V30 5939 H 559.723 -2.97308 -5.80044 0
M  V30 5940 N 563.156 0.464375 -1.50603 0
M  V30 5941 C 564.086 1.56944 -1.72889 0
M  V30 5942 C 565.067 1.59979 -0.577997 0
M  V30 5943 O 566.252 1.76138 -0.817855 0
M  V30 5944 C 563.382 2.95225 -1.8292 0
M  V30 5945 C 562.336 3.07056 -2.98162 0
M  V30 5946 C 561.662 4.47051 -2.93343 0
M  V30 5947 C 562.962 2.83648 -4.38567 0
M  V30 5948 H 564.656 1.38547 -2.65415 0
M  V30 5949 H 562.202 0.665082 -1.27721 0
M  V30 5950 H 564.155 3.72467 -1.97095 0
M  V30 5951 H 562.879 3.14793 -0.870209 0
M  V30 5952 H 561.538 2.32248 -2.83648 0
M  V30 5953 H 561.186 4.63547 -1.95276 0
M  V30 5954 H 560.886 4.55902 -3.70712 0
M  V30 5955 H 562.41 5.26304 -3.09575 0
M  V30 5956 H 563.824 3.50636 -4.53572 0
M  V30 5957 H 562.221 3.03937 -5.17438 0
M  V30 5958 H 563.291 1.79451 -4.50472 0
M  V30 5959 N 564.634 1.40294 0.718013 0
M  V30 5960 C 565.883 1.37746 1.4734 0
M  V30 5961 C 566.196 -0.0180754 1.95592 0
M  V30 5962 O 567.402 -0.166166 2.70991 0
M  V30 5963 C 565.858 2.4208 2.66318 0
M  V30 5964 C 565.466 3.87432 2.24945 0
M  V30 5965 C 567.21 2.48635 3.44065 0
M  V30 5966 C 565.117 4.83368 3.40748 0
M  V30 5967 H 564.047 0.512165 0.553356 0
M  V30 5968 H 566.698 1.66019 0.781661 0
M  V30 5969 H 565.08 2.06903 3.3765 0
M  V30 5970 H 566.254 4.3174 1.6105 0
M  V30 5971 H 564.569 3.8433 1.60249 0
M  V30 5972 H 567.166 3.17499 4.30231 0
M  V30 5973 H 567.509 1.51611 3.87711 0
M  V30 5974 H 568.042 2.82791 2.79775 0
M  V30 5975 H 564.781 5.81716 3.02136 0
M  V30 5976 H 564.301 4.43726 4.03568 0
M  V30 5977 H 565.98 5.03074 4.06848 0
M  V30 5978 N 566.112 -0.949982 1.2575 0
M  V30 5979 C 567.022 -2.08109 1.08295 0
M  V30 5980 C 568.038 -1.7399 0.0188181 0
M  V30 5981 O 569.214 -2.00187 0.220724 0
M  V30 5982 C 566.279 -3.39383 0.708534 0
M  V30 5983 C 565.34 -3.8734 1.85111 0
M  V30 5984 C 564.573 -5.12349 1.49447 0
M  V30 5985 O 564.796 -5.6905 0.392212 0
M  V30 5986 O 563.73 -5.5513 2.32624 0
M  V30 5987 H 567.556 -2.25738 2.03165 0
M  V30 5988 H 565.141 -1.06545 1.04731 0
M  V30 5989 H 567.023 -4.18277 0.512061 0
M  V30 5990 H 565.698 -3.23013 -0.210854 0
M  V30 5991 H 564.605 -3.09429 2.10248 0
M  V30 5992 H 565.938 -4.08216 2.74991 0
M  V30 5993 N 567.59 -1.07411 -1.15328 0
M  V30 5994 C 568.538 -0.689316 -2.22151 0
M  V30 5995 C 569.532 0.300156 -1.6672 0
M  V30 5996 O 570.738 0.163804 -1.79253 0
M  V30 5997 H 567.113 -0.204834 -0.723566 0
M  V30 5998 H 569.084 -1.59988 -2.51886 0
M  V30 5999 C 567.833 -0.103848 -3.47545 0
M  V30 6000 H 567.156 -0.856367 -3.90521 0
M  V30 6001 H 568.596 0.127725 -4.23808 0
M  V30 6002 C 567.055 1.15563 -3.1646 0
M  V30 6003 O 567.585 2.242 -3.33312 0
M  V30 6004 N 565.791 1.06203 -2.70498 0
M  V30 6005 H 565.338 0.177933 -2.56985 0
M  V30 6006 H 565.296 1.90553 -2.50074 0
M  V30 6007 N 569.068 1.32177 -0.85831 0
M  V30 6008 C 569.998 2.31282 -0.321041 0
M  V30 6009 C 570.979 1.59841 0.581786 0
M  V30 6010 O 572.164 1.87619 0.501262 0
M  V30 6011 C 569.294 3.4385 0.48832 0
M  V30 6012 C 568.248 4.26799 -0.320391 0
M  V30 6013 C 567.574 5.31164 0.613934 0
M  V30 6014 C 568.874 4.98829 -1.54813 0
M  V30 6015 H 570.568 2.76469 -1.14915 0
M  V30 6016 H 568.114 1.32916 -0.554028 0
M  V30 6017 H 570.067 4.12224 0.874626 0
M  V30 6018 H 568.791 2.97401 1.34983 0
M  V30 6019 H 567.45 3.60077 -0.688497 0
M  V30 6020 H 567.098 4.80967 1.47239 0
M  V30 6021 H 566.798 5.8755 0.0768097 0
M  V30 6022 H 568.322 6.024 0.997336 0
M  V30 6023 H 569.736 5.59864 -1.23392 0
M  V30 6024 H 568.133 5.64957 -2.02346 0
M  V30 6025 H 569.203 4.26483 -2.30739 0
M  V30 6026 N 570.547 0.616602 1.45037 0
M  V30 6027 C 571.795 0.115103 2.01772 0
M  V30 6028 C 572.116 -1.2622 1.48639 0
M  V30 6029 O 571.386 -1.83563 0.684199 0
M  V30 6030 H 569.966 0.0395607 0.745952 0
M  V30 6031 H 572.628 0.800032 1.77723 0
M  V30 6032 H 571.724 0.0717274 3.12018 0
M  V30 6033 N 572.025 -1.5352 0.356285 0
M  V30 6034 C 572.988 -2.24071 -0.482182 0
M  V30 6035 C 573.988 -1.24531 -1.01729 0
M  V30 6036 O 575.178 -1.48876 -0.904513 0
M  V30 6037 C 572.31 -2.97025 -1.67299 0
M  V30 6038 H 573.503 -2.99596 0.135031 0
M  V30 6039 H 571.056 -1.55928 0.107825 0
M  V30 6040 H 571.791 -2.25719 -2.32855 0
M  V30 6041 H 571.576 -3.7005 -1.29636 0
M  V30 6042 H 573.066 -3.50683 -2.26741 0
M  V30 6043 N 573.503 -0.0852151 -1.57369 0
M  V30 6044 C 574.752 0.580443 -1.93168 0
M  V30 6045 C 575.065 1.6995 -0.968319 0
M  V30 6046 O 576.271 2.42564 -1.21963 0
M  V30 6047 C 574.727 1.08386 -3.43192 0
M  V30 6048 C 574.335 -0.00491388 -4.48 0
M  V30 6049 C 576.079 1.72281 -3.87968 0
M  V30 6050 C 573.986 0.513299 -5.89168 0
M  V30 6051 H 572.916 0.22059 -0.72101 0
M  V30 6052 H 575.567 -0.159621 -1.82804 0
M  V30 6053 H 573.949 1.8773 -3.48674 0
M  V30 6054 H 575.123 -0.780032 -4.5415 0
M  V30 6055 H 573.438 -0.548453 -4.12772 0
M  V30 6056 H 576.035 2.12108 -4.9083 0
M  V30 6057 H 576.378 2.58811 -3.26071 0
M  V30 6058 H 576.911 0.995359 -3.85146 0
M  V30 6059 H 573.65 -0.315153 -6.54742 0
M  V30 6060 H 573.17 1.25564 -5.8651 0
M  V30 6061 H 574.849 0.985433 -6.39451 0
M  V30 6062 N 574.981 1.5647 0.188427 0
M  V30 6063 C 575.913 1.91611 1.25769 0
M  V30 6064 C 576.926 0.807436 1.41366 0
M  V30 6065 O 578.115 1.08586 1.41673 0
M  V30 6066 C 575.215 2.13874 2.6289 0
M  V30 6067 C 574.388 3.45047 2.68815 0
M  V30 6068 C 573.447 3.56342 3.87178 0
M  V30 6069 O 572.473 4.29109 3.73971 0
M  V30 6070 N 573.675 2.89924 5.02916 0
M  V30 6071 H 576.44 2.8393 0.959373 0
M  V30 6072 H 574.001 1.57418 0.378306 0
M  V30 6073 H 575.993 2.18713 3.4051 0
M  V30 6074 H 574.563 1.28022 2.85183 0
M  V30 6075 H 573.783 3.52017 1.77419 0
M  V30 6076 H 575.071 4.31395 2.6977 0
M  V30 6077 H 574.469 2.30644 5.16546 0
M  V30 6078 H 573.026 3.0038 5.78459 0
M  V30 6079 N 576.459 -0.456382 1.50847 0
M  V30 6080 C 577.705 -1.20914 1.62811 0
M  V30 6081 C 578.038 -1.91301 0.334304 0
M  V30 6082 O 577.313 -1.82775 -0.665098 0
M  V30 6083 C 577.596 -2.24122 2.81853 0
M  V30 6084 C 577.449 -1.57944 4.21158 0
M  V30 6085 C 578.768 -3.25295 2.96431 0
M  V30 6086 H 575.887 -0.438233 0.592554 0
M  V30 6087 H 578.529 -0.50091 1.83278 0
M  V30 6088 H 576.679 -2.84524 2.64534 0
M  V30 6089 H 578.351 -1.01025 4.50102 0
M  V30 6090 H 576.594 -0.882185 4.24735 0
M  V30 6091 H 577.265 -2.33014 5.00408 0
M  V30 6092 H 579.741 -2.7493 3.12335 0
M  V30 6093 H 578.617 -3.94822 3.81322 0
M  V30 6094 H 578.878 -3.90286 2.07676 0
M  V30 6095 N 577.937 -1.40673 -0.710563 0
M  V30 6096 C 578.867 -1.44095 -1.83736 0
M  V30 6097 C 579.848 -0.301286 -1.67411 0
M  V30 6098 O 581.033 -0.510618 -1.87367 0
M  V30 6099 C 578.163 -1.30773 -3.21738 0
M  V30 6100 C 577.117 -2.42395 -3.52745 0
M  V30 6101 C 576.443 -2.14147 -4.89944 0
M  V30 6102 C 577.743 -3.84738 -3.53234 0
M  V30 6103 H 579.437 -2.38396 -1.81129 0
M  V30 6104 H 576.983 -1.14746 -0.870017 0
M  V30 6105 H 578.936 -1.31783 -4.00264 0
M  V30 6106 H 577.66 -0.329507 -3.24934 0
M  V30 6107 H 576.319 -2.40643 -2.76562 0
M  V30 6108 H 575.967 -1.14703 -4.89747 0
M  V30 6109 H 575.667 -2.88934 -5.11655 0
M  V30 6110 H 577.191 -2.16848 -5.70797 0
M  V30 6111 H 578.605 -3.88286 -4.2179 0
M  V30 6112 H 577.002 -4.59085 -3.86473 0
M  V30 6113 H 578.072 -4.13962 -2.52514 0
M  V30 6114 N 579.415 0.9433 -1.26252 0
M  V30 6115 C 580.826 1.50404 -1.10614 0
M  V30 6116 C 581.177 1.93666 0.31429 0
M  V30 6117 O 580.302 1.79709 1.20555 0
M  V30 6118 C 580.897 2.73336 -2.00182 0
M  V30 6119 C 579.456 3.25686 -1.88695 0
M  V30 6120 C 578.603 1.98474 -1.93658 0
M  V30 6121 H 581.554 0.759006 -1.39373 0
M  V30 6122 H 581.575 3.47567 -1.54847 0
M  V30 6123 H 581.087 2.41818 -3.03555 0
M  V30 6124 H 579.188 3.61998 -0.882489 0
M  V30 6125 H 579.301 3.92935 -2.74115 0
M  V30 6126 H 577.665 2.14278 -1.37684 0
M  V30 6127 H 578.448 1.6929 -2.98657 0
M  V30 6128 N 580.893 1.08022 1.14757 0
M  V30 6129 C 581.84 0.706657 2.19716 0
M  V30 6130 C 582.81 -0.30525 1.63271 0
M  V30 6131 O 583.995 -0.19015 1.8985 0
M  V30 6132 C 581.135 0.117914 3.44898 0
M  V30 6133 C 580.248 1.18212 4.15512 0
M  V30 6134 C 579.383 0.557659 5.28265 0
M  V30 6135 C 578.422 1.60418 5.90705 0
M  V30 6136 N 577.559 1.0018 6.94916 0
M  V30 6137 H 582.399 1.60603 2.51019 0
M  V30 6138 H 579.936 0.802664 1.23271 0
M  V30 6139 H 581.894 -0.241112 4.16503 0
M  V30 6140 H 580.524 -0.744788 3.1409 0
M  V30 6141 H 579.576 1.65863 3.42335 0
M  V30 6142 H 580.888 1.97533 4.5802 0
M  V30 6143 H 580.042 0.146654 6.06523 0
M  V30 6144 H 578.781 -0.267249 4.86967 0
M  V30 6145 H 577.786 2.02489 5.11154 0
M  V30 6146 H 579.011 2.43149 6.34078 0
M  V30 6147 H 576.957 0.197917 6.55701 0
M  V30 6148 H 576.874 1.73216 7.35889 0
M  V30 6149 H 578.142 0.616523 7.77058 0
M  V30 6150 N 582.371 -1.3172 0.865308 0
M  V30 6151 C 583.304 -2.26687 0.262376 0
M  V30 6152 C 584.282 -1.50894 -0.605787 0
M  V30 6153 O 585.466 -1.79982 -0.56024 0
M  V30 6154 C 582.593 -3.3281 -0.628915 0
M  V30 6155 C 581.639 -4.26172 0.167278 0
M  V30 6156 S 582.472 -5.12797 1.54272 0
M  V30 6157 C 583.628 -6.22438 0.657427 0
M  V30 6158 H 583.861 -2.77478 1.0674 0
M  V30 6159 H 581.394 -1.39414 0.663555 0
M  V30 6160 H 583.352 -3.94426 -1.13747 0
M  V30 6161 H 582.013 -2.80782 -1.40785 0
M  V30 6162 H 581.206 -5.01392 -0.51203 0
M  V30 6163 H 580.808 -3.69029 0.607777 0
M  V30 6164 H 583.1 -6.77368 -0.133925 0
M  V30 6165 H 584.043 -6.9451 1.38061 0
M  V30 6166 H 584.451 -5.64043 0.227044 0
M  V30 6167 N 583.85 -0.624285 -1.44708 0
M  V30 6168 C 585.077 -0.132919 -2.06473 0
M  V30 6169 C 585.493 1.18967 -1.46602 0
M  V30 6170 O 584.85 1.72824 -0.586341 0
M  V30 6171 C 584.901 -0.00465418 -3.615 0
M  V30 6172 O 584.622 -1.27494 -4.19138 0
M  V30 6173 C 586.123 0.516213 -4.40284 0
M  V30 6174 H 583.343 -0.0765201 -0.666623 0
M  V30 6175 H 585.887 -0.856751 -1.85688 0
M  V30 6176 H 584.042 0.669583 -3.8157 0
M  V30 6177 H 584.456 -1.11536 -5.12504 0
M  V30 6178 H 585.93 0.554994 -5.49203 0
M  V30 6179 H 586.407 1.5419 -4.11245 0
M  V30 6180 H 587.013 -0.124542 -4.25118 0
M  V30 6181 N 585.328 1.53329 -0.364422 0
M  V30 6182 C 586.553 2.06132 0.229033 0
M  V30 6183 C 586.978 1.23625 1.41769 0
M  V30 6184 O 586.336 0.255038 1.79497 0
M  V30 6185 C 586.384 3.55544 0.60174 0
M  V30 6186 O 585.488 3.75771 1.69912 0
M  V30 6187 H 584.829 0.663148 0.0336213 0
M  V30 6188 H 587.359 1.97758 -0.524689 0
M  V30 6189 H 587.369 3.98549 0.873073 0
M  V30 6190 H 586.044 4.15039 -0.267421 0
M  V30 6191 H 584.621 3.44663 1.42343 0
M  V30 6192 N 586.806 0.0935595 1.57322 0
M  V30 6193 C 587.756 -0.876521 2.10478 0
M  V30 6194 C 588.74 -1.24482 1.01946 0
M  V30 6195 O 589.932 -1.22016 1.28223 0
M  V30 6196 C 587.061 -2.13615 2.68745 0
M  V30 6197 C 586.147 -1.79335 3.84317 0
M  V30 6198 N 586.538 -1.15606 4.92411 0
M  V30 6199 C 584.836 -2.08954 3.94023 0
M  V30 6200 C 585.537 -0.999036 5.73057 0
M  V30 6201 N 584.513 -1.51585 5.22037 0
M  V30 6202 H 588.315 -0.379829 2.91435 0
M  V30 6203 H 585.829 -0.109699 1.62029 0
M  V30 6204 H 587.826 -2.84053 3.05155 0
M  V30 6205 H 586.486 -2.63851 1.89242 0
M  V30 6206 H 587.497 -0.823063 5.11318 0
M  V30 6207 H 584.174 -2.61416 3.25527 0
M  V30 6208 H 585.564 -0.500772 6.70031 0
M  V30 6209 N 588.284 -1.56567 -0.180126 0
M  V30 6210 C 589.53 -1.81761 -0.899497 0
M  V30 6211 C 589.863 -0.670015 -1.82276 0
M  V30 6212 O 589.138 0.328575 -1.91705 0
M  V30 6213 C 589.421 -3.17296 -1.7028 0
M  V30 6214 C 589.274 -4.4257 -0.803255 0
M  V30 6215 C 590.593 -3.49678 -2.67233 0
M  V30 6216 H 587.712 -0.661192 -0.325567 0
M  V30 6217 H 590.354 -1.89272 -0.16612 0
M  V30 6218 H 588.504 -3.11023 -2.32802 0
M  V30 6219 H 590.176 -4.60902 -0.191585 0
M  V30 6220 H 588.419 -4.33658 -0.110796 0
M  V30 6221 H 589.09 -5.33935 -1.40064 0
M  V30 6222 H 591.566 -3.56347 -2.14839 0
M  V30 6223 H 590.442 -4.45605 -3.20511 0
M  V30 6224 H 590.703 -2.73932 -3.47007 0
M  V30 6225 N 589.762 0.448376 -1.51087 0
M  V30 6226 C 591.008 1.20049 -1.6345 0
M  V30 6227 C 591.341 1.91121 -0.344444 0
M  V30 6228 O 590.616 1.83125 0.655396 0
M  V30 6229 C 590.899 2.22624 -2.83038 0
M  V30 6230 C 590.752 1.55708 -4.21989 0
M  V30 6231 C 592.071 3.23718 -2.98152 0
M  V30 6232 H 589.19 0.435085 -0.59487 0
M  V30 6233 H 591.832 0.491183 -1.83541 0
M  V30 6234 H 589.982 2.83117 -2.66039 0
M  V30 6235 H 591.654 0.986367 -4.50631 0
M  V30 6236 H 589.897 0.859647 -4.25197 0
M  V30 6237 H 590.568 2.30357 -5.01637 0
M  V30 6238 H 593.044 2.73269 -3.13788 0
M  V30 6239 H 591.92 3.92795 -3.83411 0
M  V30 6240 H 592.181 3.89179 -2.09743 0
M  V30 6241 N 591.24 1.41047 0.703093 0
M  V30 6242 C 592.188 1.42494 1.83843 0
M  V30 6243 C 593.182 0.303885 1.66652 0
M  V30 6244 O 594.388 0.475544 1.73605 0
M  V30 6245 H 590.763 0.445685 0.605697 0
M  V30 6246 H 592.734 2.38194 1.79739 0
M  V30 6247 C 591.483 1.31666 3.21807 0
M  V30 6248 H 590.806 2.17212 3.35647 0
M  V30 6249 H 592.246 1.36738 4.01346 0
M  V30 6250 C 590.705 0.0281828 3.36888 0
M  V30 6251 O 591.235 -0.929995 3.90786 0
M  V30 6252 N 589.441 -0.0454322 2.90564 0
M  V30 6253 H 588.988 0.735046 2.4689 0
M  V30 6254 H 588.946 -0.906968 3.01034 0
M  V30 6255 N 592.718 -0.936591 1.26751 0
M  V30 6256 C 593.628 -2.06949 1.10496 0
M  V30 6257 C 594.644 -1.7396 0.037271 0
M  V30 6258 O 595.82 -1.99941 0.241944 0
M  V30 6259 C 592.885 -3.38612 0.744491 0
M  V30 6260 C 591.946 -3.85355 1.89209 0
M  V30 6261 C 591.179 -5.10735 1.54873 0
M  V30 6262 O 591.402 -5.68602 0.452546 0
M  V30 6263 O 590.336 -5.52632 2.38499 0
M  V30 6264 H 594.162 -2.23571 2.05547 0
M  V30 6265 H 591.747 -1.05428 1.05855 0
M  V30 6266 H 593.629 -4.17711 0.556396 0
M  V30 6267 H 592.304 -3.23218 -0.176582 0
M  V30 6268 H 591.211 -3.07182 2.13518 0
M  V30 6269 H 592.544 -4.05277 2.79305 0
M  V30 6270 N 594.196 -1.08629 -1.14182 0
M  V30 6271 C 595.445 -0.812271 -1.84621 0
M  V30 6272 C 595.758 0.664313 -1.83973 0
M  V30 6273 O 596.964 1.05357 -2.50224 0
M  V30 6274 C 595.42 -1.4031 -3.31423 0
M  V30 6275 C 595.028 -2.91164 -3.40481 0
M  V30 6276 C 596.772 -1.20767 -4.06959 0
M  V30 6277 C 594.679 -3.43373 -4.81507 0
M  V30 6278 H 593.609 -0.30019 -0.691666 0
M  V30 6279 H 596.26 -1.30798 -1.28701 0
M  V30 6280 H 594.642 -0.835096 -3.87094 0
M  V30 6281 H 595.816 -3.5412 -2.94848 0
M  V30 6282 H 594.131 -3.09646 -2.78403 0
M  V30 6283 H 596.728 -1.57237 -5.11058 0
M  V30 6284 H 597.071 -0.147664 -4.16038 0
M  V30 6285 H 597.604 -1.74274 -3.57594 0
M  V30 6286 H 594.343 -4.48958 -4.77616 0
M  V30 6287 H 593.863 -2.85176 -5.27669 0
M  V30 6288 H 595.542 -3.40095 -5.50404 0
M  V30 6289 N 595.674 1.31259 -0.872281 0
M  V30 6290 C 596.951 1.91362 -0.404943 0
M  V30 6291 C 597.331 1.79362 1.11321 0
M  V30 6292 O 596.679 1.20277 1.94283 0
M  V30 6293 C 596.889 3.3749 -0.888893 0
M  V30 6294 C 598.237 4.14593 -0.916384 0
M  V30 6295 O 599.261 3.46282 -0.834701 0
M  V30 6296 O 598.12 5.3661 -1.03498 0
M  V30 6297 H 595.214 0.818016 -0.121569 0
M  V30 6298 H 597.76 1.39912 -0.960346 0
M  V30 6299 H 596.532 3.40249 -1.93251 0
M  V30 6300 H 596.155 3.96375 -0.311932 0
M  V30 6301 N 597.152 0.631951 1.44375 0
M  V30 6302 C 598.1 -0.0846693 2.32446 0
M  V30 6303 C 599.094 -0.834957 1.47393 0
M  V30 6304 O 600.3 -0.747764 1.63733 0
M  V30 6305 H 596.675 -0.0461508 0.750583 0
M  V30 6306 H 598.646 0.67619 2.90638 0
M  V30 6307 C 597.395 -1.05211 3.314 0
M  V30 6308 H 596.718 -0.484203 3.96857 0
M  V30 6309 H 598.158 -1.523 3.95703 0
M  V30 6310 C 596.617 -2.13776 2.60387 0
M  V30 6311 O 597.147 -3.21869 2.4034 0
M  V30 6312 N 595.353 -1.89733 2.20113 0
M  V30 6313 H 594.9 -1.01833 2.36618 0
M  V30 6314 H 594.858 -2.62572 1.72926 0
M  V30 6315 N 598.631 -1.53133 0.372548 0
M  V30 6316 C 599.88 -2.00539 -0.216115 0
M  V30 6317 C 600.193 -1.26374 -1.49295 0
M  V30 6318 O 601.399 -1.64404 -2.16064 0
M  V30 6319 C 599.855 -3.57253 -0.435678 0
M  V30 6320 C 599.463 -4.40302 0.82693 0
M  V30 6321 C 601.207 -4.12995 -0.981618 0
M  V30 6322 C 599.114 -5.88583 0.576567 0
M  V30 6323 H 598.044 -0.749246 -0.084536 0
M  V30 6324 H 600.695 -1.76771 0.492364 0
M  V30 6325 H 599.077 -3.77202 -1.20559 0
M  V30 6326 H 600.251 -4.32124 1.60017 0
M  V30 6327 H 598.566 -3.95699 1.29659 0
M  V30 6328 H 601.163 -5.21418 -1.18436 0
M  V30 6329 H 601.506 -3.68027 -1.94581 0
M  V30 6330 H 602.039 -3.96871 -0.271696 0
M  V30 6331 H 598.778 -6.37841 1.51128 0
M  V30 6332 H 598.298 -5.99592 -0.158047 0
M  V30 6333 H 599.977 -6.46676 0.204722 0
M  V30 6334 N 600.109 -0.101901 -1.5727 0
M  V30 6335 C 601.039 0.851544 -2.17419 0
M  V30 6336 C 602.02 1.28942 -1.10941 0
M  V30 6337 O 603.205 1.35509 -1.39107 0
M  V30 6338 C 600.335 2.10816 -2.75996 0
M  V30 6339 C 599.289 1.80867 -3.87906 0
M  V30 6340 C 598.615 3.13413 -4.33216 0
M  V30 6341 C 599.915 1.0903 -5.10793 0
M  V30 6342 H 601.609 0.350381 -2.97343 0
M  V30 6343 H 599.155 0.16709 -1.43027 0
M  V30 6344 H 601.108 2.77959 -3.16729 0
M  V30 6345 H 599.832 2.63227 -1.93337 0
M  V30 6346 H 598.491 1.16119 -3.47724 0
M  V30 6347 H 598.139 3.63725 -3.47438 0
M  V30 6348 H 597.839 2.94155 -5.08671 0
M  V30 6349 H 599.363 3.81704 -4.76586 0
M  V30 6350 H 600.777 1.66295 -5.48652 0
M  V30 6351 H 599.174 0.99927 -5.91722 0
M  V30 6352 H 600.244 0.0741704 -4.84843 0
M  V30 6353 N 601.587 1.56661 0.17182 0
M  V30 6354 C 603.003 1.50768 0.52357 0
M  V30 6355 C 603.203 0.806072 1.84675 0
M  V30 6356 O 602.259 0.366233 2.4983 0
M  V30 6357 C 603.572 2.955 0.556793 0
M  V30 6358 C 605.12 3.06303 0.644029 0
M  V30 6359 C 605.595 4.52492 0.708148 0
M  V30 6360 N 607.086 4.56737 0.771051 0
M  V30 6361 C 607.821 5.67196 0.841229 0
M  V30 6362 N 607.317 6.87287 0.872272 0
M  V30 6363 N 609.11 5.55165 0.88021 0
M  V30 6364 H 601.261 2.00679 -0.695817 0
M  V30 6365 H 603.524 0.914219 -0.250814 0
M  V30 6366 H 603.23 3.49986 -0.346774 0
M  V30 6367 H 603.104 3.50119 1.40346 0
M  V30 6368 H 605.491 2.51851 1.53802 0
M  V30 6369 H 605.572 2.5477 -0.229297 0
M  V30 6370 H 605.216 5.07575 -0.181585 0
M  V30 6371 H 605.146 5.01781 1.59761 0
M  V30 6372 H 607.637 3.70274 0.755364 0
M  V30 6373 H 607.95 7.6722 0.92698 0
M  V30 6374 H 606.295 6.89898 0.840557 0
M  V30 6375 H 609.486 4.60263 0.852956 0
M  V30 6376 H 609.659 6.41271 0.931439 0
M  V30 6377 N 603.065 -0.440357 1.51323 0
M  V30 6378 C 604.013 -1.55492 1.72988 0
M  V30 6379 C 605.007 -1.58564 0.596138 0
M  V30 6380 O 606.213 -1.62345 0.777443 0
M  V30 6381 H 602.588 -0.516532 0.546533 0
M  V30 6382 H 604.559 -1.34392 2.66423 0
M  V30 6383 C 603.308 -2.93176 1.86931 0
M  V30 6384 H 602.631 -2.91543 2.73574 0
M  V30 6385 H 604.071 -3.70537 2.06103 0
M  V30 6386 C 602.53 -3.30988 0.628365 0
M  V30 6387 O 603.06 -4.01106 -0.218367 0
M  V30 6388 N 601.266 -2.86719 0.473339 0
M  V30 6389 H 600.813 -2.2983 1.16345 0
M  V30 6390 H 600.771 -3.12381 -0.355727 0
M  V30 6391 N 604.543 -1.41418 -0.695603 0
M  V30 6392 C 605.49 -1.43264 -1.80954 0
M  V30 6393 C 606.46 -0.287016 -1.63601 0
M  V30 6394 O 607.645 -0.488054 -1.84452 0
M  V30 6395 C 604.785 -1.32054 -3.18835 0
M  V30 6396 C 603.898 -2.56485 -3.4762 0
M  V30 6397 C 603.033 -2.3757 -4.75115 0
M  V30 6398 C 602.072 -3.57477 -4.96867 0
M  V30 6399 N 601.209 -3.37632 -6.15588 0
M  V30 6400 H 606.049 -2.38467 -1.78711 0
M  V30 6401 H 603.586 -1.18415 -0.872715 0
M  V30 6402 H 605.544 -1.23558 -3.98484 0
M  V30 6403 H 604.174 -0.404592 -3.20254 0
M  V30 6404 H 603.226 -2.75432 -2.62376 0
M  V30 6405 H 604.538 -3.45678 -3.59594 0
M  V30 6406 H 603.692 -2.2654 -5.62818 0
M  V30 6407 H 602.431 -1.45834 -4.65386 0
M  V30 6408 H 601.436 -3.68961 -4.07612 0
M  V30 6409 H 602.661 -4.50167 -5.08455 0
M  V30 6410 H 600.607 -2.48596 -6.07072 0
M  V30 6411 H 600.524 -4.20401 -6.2833 0
M  V30 6412 H 601.792 -3.30375 -7.06026 0
M  V30 6413 N 606.021 0.929856 -1.27246 0
M  V30 6414 C 607.432 1.49223 -1.12203 0
M  V30 6415 C 607.783 1.93989 0.293731 0
M  V30 6416 O 606.908 1.80978 1.18642 0
M  V30 6417 C 607.503 2.71198 -2.0307 0
M  V30 6418 C 606.062 3.23666 -1.92139 0
M  V30 6419 C 605.209 1.96409 -1.95752 0
M  V30 6420 H 608.16 0.744181 -1.4017 0
M  V30 6421 H 608.181 3.45905 -1.58524 0
M  V30 6422 H 607.693 2.38585 -3.06102 0
M  V30 6423 H 605.794 3.61042 -0.920834 0
M  V30 6424 H 605.907 3.90006 -2.78267 0
M  V30 6425 H 604.271 2.12806 -1.39949 0
M  V30 6426 H 605.054 1.66113 -3.00436 0
M  V30 6427 N 607.499 1.09233 1.13605 0
M  V30 6428 C 608.729 0.847677 1.88409 0
M  V30 6429 C 609.137 -0.604524 1.79282 0
M  V30 6430 O 608.48 -1.42773 1.15592 0
M  V30 6431 C 608.542 1.20153 3.38827 0
M  V30 6432 C 608.206 2.65824 3.71735 0
M  V30 6433 C 609.203 3.64072 3.71143 0
M  V30 6434 C 606.888 3.01894 4.01454 0
M  V30 6435 C 608.882 4.96419 3.99808 0
M  V30 6436 C 606.569 4.34433 4.29781 0
M  V30 6437 C 607.567 5.31505 4.28942 0
M  V30 6438 O 607.255 6.61659 4.56576 0
M  V30 6439 H 606.987 0.304813 0.603378 0
M  V30 6440 H 609.541 1.4573 1.44748 0
M  V30 6441 H 607.771 0.534946 3.82982 0
M  V30 6442 H 609.46 0.936349 3.94952 0
M  V30 6443 H 610.226 3.37549 3.4826 0
M  V30 6444 H 606.105 2.26971 4.01255 0
M  V30 6445 H 609.649 5.7218 3.99069 0
M  V30 6446 H 605.546 4.607 4.52135 0
M  V30 6447 H 606.314 6.67102 4.74254 0
M  V30 6448 N 608.977 -1.30795 0.87923 0
M  V30 6449 C 610.202 -2.01063 0.508769 0
M  V30 6450 C 610.627 -1.65508 -0.893803 0
M  V30 6451 O 609.985 -0.868616 -1.59138 0
M  V30 6452 C 610.033 -3.54054 0.683991 0
M  V30 6453 O 609.137 -4.11498 -0.272654 0
M  V30 6454 H 608.478 -0.632786 0.201191 0
M  V30 6455 H 611.008 -1.66776 1.18519 0
M  V30 6456 H 611.018 -4.03845 0.580798 0
M  V30 6457 H 609.693 -3.79271 1.70665 0
M  V30 6458 H 608.27 -3.72695 -0.12364 0
M  V30 6459 N 610.455 -0.639598 -1.44038 0
M  V30 6460 C 611.402 0.0602458 -2.30721 0
M  V30 6461 C 612.372 0.828352 -1.43971 0
M  V30 6462 O 613.557 0.807693 -1.72861 0
M  V30 6463 C 610.697 1.03008 -3.29368 0
M  V30 6464 C 609.81 0.259502 -4.3122 0
M  V30 6465 C 608.945 1.22191 -5.16955 0
M  V30 6466 C 607.984 0.440978 -6.10509 0
M  V30 6467 N 607.121 1.35428 -6.88915 0
M  V30 6468 H 611.961 -0.684867 -2.90023 0
M  V30 6469 H 609.498 -0.349509 -1.42888 0
M  V30 6470 H 611.456 1.60583 -3.85057 0
M  V30 6471 H 610.086 1.74222 -2.71747 0
M  V30 6472 H 609.138 -0.432317 -3.77935 0
M  V30 6473 H 610.45 -0.348347 -4.97582 0
M  V30 6474 H 609.604 1.86873 -5.77203 0
M  V30 6475 H 608.343 1.86367 -4.50687 0
M  V30 6476 H 607.348 -0.219279 -5.49363 0
M  V30 6477 H 608.573 -0.196192 -6.78817 0
M  V30 6478 H 606.519 1.9831 -6.25307 0
M  V30 6479 H 606.436 0.800657 -7.51748 0
M  V30 6480 H 607.704 1.98967 -7.53679 0
M  V30 6481 N 611.933 1.52934 -0.380664 0
M  V30 6482 C 612.88 2.26197 0.458641 0
M  V30 6483 C 613.85 1.27462 1.06502 0
M  V30 6484 O 615.035 1.56274 1.09467 0
M  V30 6485 C 612.175 3.06571 1.58456 0
M  V30 6486 C 611.288 4.20222 1.00189 0
M  V30 6487 C 610.423 4.88007 2.09815 0
M  V30 6488 C 609.462 5.93665 1.49092 0
M  V30 6489 N 608.599 6.55081 2.52613 0
M  V30 6490 H 613.439 2.975 -0.172595 0
M  V30 6491 H 610.976 1.4678 -0.0969426 0
M  V30 6492 H 612.934 3.51455 2.24801 0
M  V30 6493 H 611.564 2.37494 2.18624 0
M  V30 6494 H 610.616 3.79714 0.228292 0
M  V30 6495 H 611.928 4.96102 0.518064 0
M  V30 6496 H 611.082 5.36151 2.83948 0
M  V30 6497 H 609.821 4.11632 2.61555 0
M  V30 6498 H 608.826 5.44868 0.7348 0
M  V30 6499 H 610.051 6.71969 0.981582 0
M  V30 6500 H 607.997 5.8155 3.03538 0
M  V30 6501 H 607.914 7.26548 2.08961 0
M  V30 6502 H 609.182 7.07871 3.26402 0
M  V30 6503 N 613.412 0.11024 1.57214 0
M  V30 6504 C 614.689 -0.592956 1.86396 0
M  V30 6505 C 615.069 -1.85379 1.00985 0
M  V30 6506 O 614.417 -2.28337 0.0863592 0
M  V30 6507 C 614.627 -0.893816 3.3736 0
M  V30 6508 C 615.975 -1.25069 4.05762 0
M  V30 6509 O 616.999 -0.984356 3.42329 0
M  V30 6510 O 615.858 -1.75017 5.17718 0
M  V30 6511 H 612.952 -0.29828 0.771335 0
M  V30 6512 H 615.498 0.144083 1.69087 0
M  V30 6513 H 614.27 2.6031e-05 3.913 0
M  V30 6514 H 613.893 -1.68631 3.60068 0
M  V30 6515 N 614.89 -1.56749 -0.16351 0
M  V30 6516 C 616.12 -1.86307 -0.892936 0
M  V30 6517 C 616.528 -0.6945 -1.75992 0
M  V30 6518 O 615.871 0.345384 -1.80424 0
M  V30 6519 C 615.933 -3.10372 -1.81409 0
M  V30 6520 C 615.597 -4.42913 -1.12593 0
M  V30 6521 C 616.594 -5.17608 -0.487661 0
M  V30 6522 C 614.279 -4.89646 -1.12035 0
M  V30 6523 C 616.273 -6.3723 0.14699 0
M  V30 6524 C 613.96 -6.09197 -0.481883 0
M  V30 6525 C 614.958 -6.82834 0.150678 0
M  V30 6526 O 614.646 -8.00116 0.779065 0
M  V30 6527 H 614.378 -0.622126 -0.264452 0
M  V30 6528 H 616.932 -2.04728 -0.166063 0
M  V30 6529 H 615.162 -2.87917 -2.58148 0
M  V30 6530 H 616.851 -3.26312 -2.41403 0
M  V30 6531 H 617.617 -4.8258 -0.483888 0
M  V30 6532 H 613.496 -4.32265 -1.60212 0
M  V30 6533 H 617.04 -6.94646 0.641325 0
M  V30 6534 H 612.937 -6.43688 -0.483266 0
M  V30 6535 H 613.705 -8.15678 0.679089 0
M  V30 6536 N 616.368 0.432326 -1.51554 0
M  V30 6537 C 617.784 0.769195 -1.39841 0
M  V30 6538 C 617.984 1.95584 -0.484675 0
M  V30 6539 O 617.04 2.52433 0.0582829 0
M  V30 6540 C 618.353 1.04487 -2.81963 0
M  V30 6541 C 619.901 1.149 -2.91148 0
M  V30 6542 C 620.376 1.45758 -4.34187 0
M  V30 6543 N 621.867 1.52671 -4.37317 0
M  V30 6544 C 622.602 1.78129 -5.4503 0
M  V30 6545 N 622.098 2.01345 -6.62897 0
M  V30 6546 N 623.891 1.79953 -5.32516 0
M  V30 6547 H 616.042 -0.349122 -2.09511 0
M  V30 6548 H 618.305 -0.0938113 -0.943347 0
M  V30 6549 H 618.011 0.24557 -3.50842 0
M  V30 6550 H 617.885 1.97119 -3.21596 0
M  V30 6551 H 620.272 1.93891 -2.22464 0
M  V30 6552 H 620.353 0.201568 -2.55005 0
M  V30 6553 H 619.997 0.672917 -5.03423 0
M  V30 6554 H 619.927 2.41715 -4.67848 0
M  V30 6555 H 622.418 1.36612 -3.52343 0
M  V30 6556 H 622.731 2.20155 -7.40778 0
M  V30 6557 H 621.076 1.98657 -6.66003 0
M  V30 6558 H 624.267 1.61337 -4.39418 0
M  V30 6559 H 624.44 1.99455 -6.1654 0
M  V30 6560 N 617.846 1.41785 0.688094 0
M  V30 6561 C 619.071 1.45117 1.48175 0
M  V30 6562 C 619.496 0.060129 1.88004 0
M  V30 6563 O 618.854 -0.938385 1.55126 0
M  V30 6564 C 618.902 2.37224 2.71583 0
M  V30 6565 O 618.006 1.83443 3.69354 0
M  V30 6566 H 617.347 0.492208 0.445676 0
M  V30 6567 H 619.877 1.86329 0.845145 0
M  V30 6568 H 619.887 2.53353 3.19806 0
M  V30 6569 H 618.562 3.38293 2.41931 0
M  V30 6570 H 617.139 1.76802 3.28322 0
M  V30 6571 O 619.363 -0.830368 1.38518 0
M  V30 6572 H 620.054 -1.47302 1.25785 0
M  V30 END ATOM
M  V30 BEGIN BOND
M  V30 END BOND
M  V30 END CTAB
M  END
$$$$
