drugbank_target|O95168 NADH dehydrogenase [ubiquinone] 1 beta subcomplex subunit 4 (DB00157)
 OpenBabel12092119283D

  0  0  0     0  0            999 V3000
M  V30 BEGIN CTAB
M  V30 COUNTS 2173 2200 0 0 0
M  V30 BEGIN ATOM
M  V30 1 H -0.908 1.98254 -0.117106 0
M  V30 2 N 0 1.576 0 0
M  V30 3 C 0.933 2.03868 1.02534 0
M  V30 4 C 1.911 0.928543 1.3348 0
M  V30 5 O 3.095 1.19667 1.45644 0
M  V30 6 C 0.222 2.43627 2.35294 0
M  V30 7 C -0.732 3.65373 2.2001 0
M  V30 8 S 0.101 5.13292 1.52614 0
M  V30 9 C 1.257 5.56322 2.86805 0
M  V30 10 H 1.49 2.90518 0.631377 0
M  V30 11 H -0.977 1.52953 0.210867 0
M  V30 12 H 0.981 2.67203 3.11629 0
M  V30 13 H -0.358 1.57376 2.7183 0
M  V30 14 H -1.165 3.90944 3.18086 0
M  V30 15 H -1.563 3.418 1.51819 0
M  V30 16 H 0.729 5.58782 3.83104 0
M  V30 17 H 1.672 6.56266 2.65933 0
M  V30 18 H 2.08 4.83886 2.90714 0
M  V30 19 N 1.4781 -0.272755 1.55222 0
M  V30 20 C 2.7031 -1.02683 1.80197 0
M  V30 21 C 3.1281 -1.79142 0.573551 0
M  V30 22 O 2.4861 -1.74917 -0.476849 0
M  V30 23 C 2.5341 -1.9609 3.02624 0
M  V30 24 O 1.6381 -3.04863 2.77727 0
M  V30 25 H 0.9791 -0.293557 0.595584 0
M  V30 26 H 3.5091 -0.30159 2.02365 0
M  V30 27 H 3.5191 -2.38039 3.31363 0
M  V30 28 H 2.1941 -1.39851 3.91682 0
M  V30 29 H 0.7711 -2.67228 2.60084 0
M  V30 30 N 2.9562 -1.48159 -0.537278 0
M  V30 31 C 4.2032 -1.55804 -1.29349 0
M  V30 32 C 4.5312 -0.228802 -1.9315 0
M  V30 33 O 3.7862 0.780242 -1.79473 0
M  V30 34 C 4.0852 -2.63956 -2.40961 0
M  V30 35 C 3.7512 -4.0662 -1.94861 0
M  V30 36 C 2.4132 -4.45452 -1.82006 0
M  V30 37 C 4.7652 -4.96055 -1.59933 0
M  V30 38 C 2.0932 -5.71531 -1.32547 0
M  V30 39 C 4.4452 -6.22617 -1.11939 0
M  V30 40 C 3.1092 -6.60312 -0.976951 0
M  V30 41 H 2.3792 -0.570129 -0.473322 0
M  V30 42 H 5.0262 -1.81845 -0.600372 0
M  V30 43 H 3.3312 -2.31747 -3.15912 0
M  V30 44 H 5.0282 -2.67089 -2.99107 0
M  V30 45 H 1.6182 -3.75949 -2.05815 0
M  V30 46 H 5.8022 -4.66738 -1.68728 0
M  V30 47 H 1.0582 -5.99468 -1.202 0
M  V30 48 H 5.2322 -6.91318 -0.839811 0
M  V30 49 H 2.8592 -7.57895 -0.591501 0
M  V30 50 N 4.4343 0.785586 -1.36625 0
M  V30 51 C 5.8453 1.36101 -1.27803 0
M  V30 52 C 6.1963 1.96035 0.0804875 0
M  V30 53 O 5.3213 1.92834 0.982042 0
M  V30 54 C 5.9163 2.47442 -2.31426 0
M  V30 55 C 4.4753 3.00789 -2.26281 0
M  V30 56 C 3.6223 1.73896 -2.15999 0
M  V30 57 H 6.5733 0.586928 -1.47448 0
M  V30 58 H 6.5943 3.2656 -1.95291 0
M  V30 59 H 6.1063 2.03791 -3.30289 0
M  V30 60 H 4.2073 3.48851 -1.30896 0
M  V30 61 H 4.3203 3.57343 -3.19128 0
M  V30 62 H 2.6843 1.9628 -1.62316 0
M  V30 63 H 3.4673 1.32368 -3.16755 0
M  V30 64 N 5.9124 1.20967 1.01018 0
M  V30 65 C 6.8594 0.964281 2.09691 0
M  V30 66 C 7.8294 -0.107853 1.65749 0
M  V30 67 O 9.0144 0.0381987 1.90762 0
M  V30 68 C 6.1544 0.52943 3.41015 0
M  V30 69 C 5.2674 1.67043 3.98398 0
M  V30 70 C 4.4024 1.18525 5.17808 0
M  V30 71 C 3.4414 2.29892 5.67288 0
M  V30 72 N 2.5784 1.82546 6.77954 0
M  V30 73 H 7.4184 1.89463 2.30017 0
M  V30 74 H 4.9554 0.944289 1.1279 0
M  V30 75 H 6.9134 0.258588 4.16398 0
M  V30 76 H 5.5434 -0.363919 3.20742 0
M  V30 77 H 4.5954 2.05603 3.20049 0
M  V30 78 H 5.9074 2.50877 4.31117 0
M  V30 79 H 5.0614 0.870762 6.00419 0
M  V30 80 H 3.8004 0.316887 4.86669 0
M  V30 81 H 2.8054 2.6215 4.83278 0
M  V30 82 H 4.0304 3.17216 6.00459 0
M  V30 83 H 1.9764 0.980454 6.48632 0
M  V30 84 H 1.8934 2.59956 7.09901 0
M  V30 85 H 3.1614 1.54115 7.64113 0
M  V30 86 N 7.3905 -1.2043 1.01659 0
M  V30 87 C 8.6205 -1.93496 0.724081 0
M  V30 88 C 9.0285 -1.74998 -0.71918 0
M  V30 89 O 8.3715 -1.06118 -1.49949 0
M  V30 90 C 8.4335 -3.45886 0.97994 0
M  V30 91 C 8.0975 -3.88145 2.41232 0
M  V30 92 C 9.0945 -3.93907 3.39313 0
M  V30 93 C 6.7795 -4.20134 2.75305 0
M  V30 94 C 8.7735 -4.31069 4.6953 0
M  V30 95 C 6.4605 -4.56971 4.05735 0
M  V30 96 C 7.4585 -4.62411 5.02658 0
M  V30 97 O 7.1465 -4.98403 6.30754 0
M  V30 98 H 6.8785 -0.621824 0.265162 0
M  V30 99 H 9.4325 -1.53867 1.36066 0
M  V30 100 H 7.6625 -3.85639 0.286198 0
M  V30 101 H 9.3515 -4.0018 0.679021 0
M  V30 102 H 10.1175 -3.69357 3.14325 0
M  V30 103 H 5.9965 -4.1509 2.00551 0
M  V30 104 H 9.5405 -4.3523 5.45179 0
M  V30 105 H 5.4375 -4.80977 4.30502 0
M  V30 106 H 6.2055 -5.16395 6.35042 0
M  V30 107 N 8.8686 -0.792821 -1.36206 0
M  V30 108 C 9.8156 -0.191653 -2.30003 0
M  V30 109 C 10.7856 0.666453 -1.52143 0
M  V30 110 O 11.9706 0.61442 -1.80636 0
M  V30 111 C 9.1106 0.664848 -3.38635 0
M  V30 112 C 8.2236 -0.212175 -4.31479 0
M  V30 113 C 7.3586 0.651022 -5.27196 0
M  V30 114 C 6.3976 -0.227247 -6.11678 0
M  V30 115 N 5.5346 0.595127 -6.99573 0
M  V30 116 H 10.3746 -0.996978 -2.80828 0
M  V30 117 H 7.9116 -0.503206 -1.38225 0
M  V30 118 H 9.8696 1.17645 -4.00269 0
M  V30 119 H 8.4996 1.43557 -2.89122 0
M  V30 120 H 7.5516 -0.841777 -3.70969 0
M  V30 121 H 8.8636 -0.888751 -4.90818 0
M  V30 122 H 8.0176 1.2283 -5.94136 0
M  V30 123 H 6.7566 1.36121 -4.68319 0
M  V30 124 H 5.7616 -0.816904 -5.43697 0
M  V30 125 H 6.9866 -0.93509 -6.72631 0
M  V30 126 H 4.9326 1.28955 -6.432 0
M  V30 127 H 4.8496 -0.0236952 -7.55996 0
M  V30 128 H 6.1176 1.15613 -7.70879 0
M  V30 129 N 10.3467 1.47872 -0.545128 0
M  V30 130 C 11.7577 1.86384 -0.108581 0
M  V30 131 C 12.1087 1.45309 1.31832 0
M  V30 132 O 11.2337 0.850641 1.9898 0
M  V30 133 C 11.8287 3.38265 -0.190274 0
M  V30 134 C 10.3877 3.75914 0.191164 0
M  V30 135 C 9.5347 2.71926 -0.543273 0
M  V30 136 H 12.4857 1.39561 -0.755537 0
M  V30 137 H 12.5067 3.75831 0.594217 0
M  V30 138 H 12.0187 3.6813 -1.2289 0
M  V30 139 H 10.1197 3.51665 1.23136 0
M  V30 140 H 10.2327 4.78836 -0.158987 0
M  V30 141 H 8.5967 2.54697 0.0122495 0
M  V30 142 H 9.3797 3.04634 -1.58282 0
M  V30 143 N 11.8248 0.280983 1.55075 0
M  V30 144 C 13.0498 -0.340154 2.04592 0
M  V30 145 C 13.4748 -1.48246 1.15779 0
M  V30 146 O 12.8328 -1.80614 0.15761 0
M  V30 147 C 12.8808 -0.793104 3.5177 0
M  V30 148 O 11.9848 -1.89981 3.66034 0
M  V30 149 H 11.3258 -0.0694289 0.66036 0
M  V30 150 H 13.8558 0.416993 2.00306 0
M  V30 151 H 13.8658 -1.08729 3.93245 0
M  V30 152 H 12.5408 0.0426163 4.15878 0
M  V30 153 H 11.1178 -1.60771 3.36463 0
M  V30 154 N 13.3029 -1.57598 0.00835791 0
M  V30 155 C 14.5279 -1.95617 -0.689103 0
M  V30 156 C 14.9529 -0.883753 -1.66046 0
M  V30 157 O 14.3109 0.157352 -1.80616 0
M  V30 158 C 14.3589 -3.32736 -1.38994 0
M  V30 159 O 13.4629 -3.27631 -2.50463 0
M  V30 160 H 12.8039 -0.638379 -0.182668 0
M  V30 161 H 15.3339 -2.045 0.064036 0
M  V30 162 H 15.3439 -3.68494 -1.75147 0
M  V30 163 H 14.0189 -4.1034 -0.677778 0
M  V30 164 H 12.5959 -3.03561 -2.16576 0
M  V30 165 N 14.781 0.264519 -1.55364 0
M  V30 166 C 15.711 1.33121 -1.91836 0
M  V30 167 C 16.692 1.51101 -0.781192 0
M  V30 168 O 17.877 1.64003 -1.04003 0
M  V30 169 C 15.007 2.68921 -2.19769 0
M  V30 170 C 13.961 2.65661 -3.35571 0
M  V30 171 C 13.287 4.05093 -3.49004 0
M  V30 172 C 14.587 2.24187 -4.71739 0
M  V30 173 H 16.281 1.02844 -2.81182 0
M  V30 174 H 13.827 0.493286 -1.35287 0
M  V30 175 H 15.78 3.43663 -2.43872 0
M  V30 176 H 14.504 3.00799 -1.27231 0
M  V30 177 H 13.163 1.93377 -3.1145 0
M  V30 178 H 12.811 4.34206 -2.53917 0
M  V30 179 H 12.511 4.03804 -4.26868 0
M  V30 180 H 14.035 4.81561 -3.75408 0
M  V30 181 H 15.449 2.88654 -4.9533 0
M  V30 182 H 13.846 2.34044 -5.52579 0
M  V30 183 H 14.916 1.19327 -4.69988 0
M  V30 184 N 16.2591 1.48442 0.529413 0
M  V30 185 C 17.6751 1.34575 0.858004 0
M  V30 186 C 17.8751 0.3572 1.98309 0
M  V30 187 O 16.9311 -0.221379 2.51528 0
M  V30 188 C 18.2441 2.74617 1.22499 0
M  V30 189 C 19.7921 2.83109 1.33484 0
M  V30 190 C 20.2671 4.23854 1.73526 0
M  V30 191 N 21.7581 4.2653 1.80628 0
M  V30 192 C 22.4931 5.32372 2.12997 0
M  V30 193 N 21.9891 6.48491 2.43786 0
M  V30 194 N 23.7821 5.19766 2.14008 0
M  V30 195 H 15.9331 2.1133 -0.212925 0
M  V30 196 H 18.1961 0.947439 -0.0326199 0
M  V30 197 H 17.9021 3.4852 0.471905 0
M  V30 198 H 17.7761 3.08177 2.17501 0
M  V30 199 H 20.1631 2.09462 2.0787 0
M  V30 200 H 20.2441 2.53168 0.366027 0
M  V30 201 H 19.8881 4.98018 0.997013 0
M  V30 202 H 19.8181 4.5124 2.71459 0
M  V30 203 H 22.3091 3.42772 1.59108 0
M  V30 204 H 22.6221 7.24993 2.67592 0
M  V30 205 H 20.9671 6.51765 2.41304 0
M  V30 206 H 24.1581 4.28066 1.89412 0
M  V30 207 H 24.3311 6.02354 2.38902 0
M  V30 208 N 17.7372 -0.778329 1.37039 0
M  V30 209 C 18.9652 -1.56734 1.35063 0
M  V30 210 C 19.3802 -1.88686 -0.0655597 0
M  V30 211 O 18.7372 -1.5096 -1.02554 0
M  V30 212 C 18.7882 -2.88163 2.18276 0
M  V30 213 O 18.5092 -2.57583 3.54376 0
M  V30 214 C 20.0102 -3.82422 2.24206 0
M  V30 215 H 17.2302 -0.485778 0.462883 0
M  V30 216 H 19.7742 -0.965185 1.8029 0
M  V30 217 H 17.9292 -3.44818 1.76576 0
M  V30 218 H 18.3432 -3.41699 3.97922 0
M  V30 219 H 19.8172 -4.71667 2.86765 0
M  V30 220 H 20.2942 -4.21078 1.24861 0
M  V30 221 H 20.9002 -3.31697 2.6619 0
M  V30 222 N 19.2153 -1.21501 -1.00376 0
M  V30 223 C 20.1453 -0.999478 -2.11028 0
M  V30 224 C 21.1263 0.0759671 -1.6993 0
M  V30 225 O 22.3113 -0.0841106 -1.94018 0
M  V30 226 C 19.4413 -0.564709 -3.42678 0
M  V30 227 C 18.3953 -1.58486 -3.97576 0
M  V30 228 C 17.7213 -1.00628 -5.25146 0
M  V30 229 C 19.0213 -2.97204 -4.29496 0
M  V30 230 H 20.7153 -1.92495 -2.29317 0
M  V30 231 H 18.2613 -0.92693 -1.102 0
M  V30 232 H 20.2143 -0.401091 -4.19487 0
M  V30 233 H 18.9383 0.396411 -3.24185 0
M  V30 234 H 17.5973 -1.73606 -3.22888 0
M  V30 235 H 17.2453 -0.0368439 -5.02987 0
M  V30 236 H 16.9453 -1.68771 -5.62841 0
M  V30 237 H 18.4693 -0.854015 -6.04598 0
M  V30 238 H 19.8833 -2.8552 -4.97143 0
M  V30 239 H 18.2803 -3.62372 -4.78338 0
M  V30 240 H 19.3503 -3.47956 -3.3772 0
M  V30 241 N 20.6934 1.19889 -1.02296 0
M  V30 242 C 22.1044 1.71124 -0.746568 0
M  V30 243 C 22.4554 1.81939 0.734335 0
M  V30 244 O 21.5804 1.48639 1.57275 0
M  V30 245 C 22.1754 3.10804 -1.34857 0
M  V30 246 C 20.7344 3.59323 -1.1209 0
M  V30 247 C 19.8814 2.3635 -1.45031 0
M  V30 248 H 22.8324 1.04813 -1.19163 0
M  V30 249 H 22.8534 3.73186 -0.742437 0
M  V30 250 H 22.3654 3.029 -2.42638 0
M  V30 251 H 20.4664 3.7255 -0.0610337 0
M  V30 252 H 20.5794 4.4378 -1.80544 0
M  V30 253 H 18.9434 2.39399 -0.869487 0
M  V30 254 H 19.7264 2.31081 -2.53883 0
M  V30 255 N 22.1715 0.800033 1.35784 0
M  V30 256 C 23.0815 0.207204 2.33683 0
M  V30 257 C 24.0975 -0.64631 1.61551 0
M  V30 258 O 25.2735 -0.559604 1.93469 0
M  V30 259 C 22.3385 -0.639659 3.40748 0
M  V30 260 C 21.3995 0.233585 4.28664 0
M  V30 261 C 20.6325 -0.572954 5.30616 0
M  V30 262 O 20.8555 -1.80816 5.40982 0
M  V30 263 O 19.7895 0.0327285 6.01891 0
M  V30 264 H 23.6155 1.01692 2.86169 0
M  V30 265 H 21.2005 0.561691 1.38439 0
M  V30 266 H 23.0825 -1.12223 4.06182 0
M  V30 267 H 21.7575 -1.42708 2.90544 0
M  V30 268 H 20.6645 0.763147 3.66233 0
M  V30 269 H 21.9975 0.984784 4.82248 0
M  V30 270 N 23.6496 -1.47581 0.552962 0
M  V30 271 C 24.8776 -2.06875 0.0320556 0
M  V30 272 C 25.2926 -1.40625 -1.25976 0
M  V30 273 O 24.6496 -0.501349 -1.75479 0
M  V30 274 C 24.7006 -3.61092 -0.17167 0
M  V30 275 O 24.4216 -4.24858 1.06899 0
M  V30 276 C 25.9226 -4.37242 -0.730344 0
M  V30 277 H 23.1426 -0.669561 0.043915 0
M  V30 278 H 25.6866 -1.89646 0.765163 0
M  V30 279 H 23.8416 -3.7785 -0.854894 0
M  V30 280 H 24.2556 -5.17334 0.864059 0
M  V30 281 H 25.7296 -5.45842 -0.822203 0
M  V30 282 H 26.2066 -4.03235 -1.74064 0
M  V30 283 H 26.8126 -4.25219 -0.0829543 0
M  V30 284 N 25.1277 -0.289203 -1.54924 0
M  V30 285 C 26.0577 0.58549 -2.2604 0
M  V30 286 C 27.0387 1.14753 -1.25562 0
M  V30 287 O 28.2237 1.17906 -1.54311 0
M  V30 288 C 25.3537 1.76305 -2.99222 0
M  V30 289 C 24.3077 1.33191 -4.06748 0
M  V30 290 C 23.6337 2.5937 -4.6758 0
M  V30 291 C 24.9337 0.471775 -5.20165 0
M  V30 292 H 26.6277 -0.00763532 -2.99399 0
M  V30 293 H 24.1737 -0.00511229 -1.43999 0
M  V30 294 H 26.1267 2.38097 -3.47689 0
M  V30 295 H 24.8507 2.38223 -2.23422 0
M  V30 296 H 23.5097 0.737121 -3.59113 0
M  V30 297 H 23.1577 3.19576 -3.88433 0
M  V30 298 H 22.8577 2.31228 -5.40192 0
M  V30 299 H 24.3817 3.21985 -5.18804 0
M  V30 300 H 25.7957 0.995056 -5.64599 0
M  V30 301 H 24.1927 0.284639 -5.99425 0
M  V30 302 H 25.2627 -0.506041 -4.82252 0
M  V30 303 N 26.6058 1.57591 -0.0167156 0
M  V30 304 C 27.8828 1.82547 0.702564 0
M  V30 305 C 28.2628 0.898018 1.91047 0
M  V30 306 O 27.6108 -0.0493456 2.28447 0
M  V30 307 C 27.8208 3.31459 1.09251 0
M  V30 308 C 29.1688 3.97622 1.48937 0
M  V30 309 O 30.1928 3.35881 1.18584 0
M  V30 310 O 29.0518 5.06415 2.05442 0
M  V30 311 H 26.1458 0.752268 0.343544 0
M  V30 312 H 28.6918 1.69644 -0.0434495 0
M  V30 313 H 27.4638 3.9061 0.23227 0
M  V30 314 H 27.0868 3.49422 1.89709 0
M  V30 315 N 28.0839 -0.256276 1.55502 0
M  V30 316 C 29.4949 -0.826068 1.67431 0
M  V30 317 C 29.8459 -1.86396 0.612446 0
M  V30 318 O 28.9709 -2.15031 -0.243025 0
M  V30 319 C 29.5659 -1.50512 3.03532 0
M  V30 320 C 28.1249 -2.02273 3.17431 0
M  V30 321 C 27.2719 -0.870548 2.63281 0
M  V30 322 H 30.2229 -0.0322728 1.58667 0
M  V30 323 H 30.2439 -2.37279 2.97454 0
M  V30 324 H 29.7559 -0.749484 3.80794 0
M  V30 325 H 27.8569 -2.80746 2.44974 0
M  V30 326 H 27.9699 -2.22655 4.24219 0
M  V30 327 H 26.3339 -1.26851 2.20864 0
M  V30 328 H 27.1169 -0.128149 3.43061 0
M  V30 329 N 29.562 -1.4872 -0.521534 0
M  V30 330 C 30.525 -1.63379 -1.60748 0
M  V30 331 C 31.525 -0.50661 -1.52611 0
M  V30 332 O 32.715 -0.772601 -1.5613 0
M  V30 333 C 29.847 -1.61192 -3.00383 0
M  V30 334 H 31.04 -2.60217 -1.49087 0
M  V30 335 H 28.593 -1.37444 -0.744235 0
M  V30 336 H 29.328 -0.65863 -3.17541 0
M  V30 337 H 29.113 -2.43032 -3.07698 0
M  V30 338 H 30.603 -1.7466 -3.7932 0
M  V30 339 N 31.0401 0.771051 -1.3745 0
M  V30 340 C 31.9501 1.91538 -1.35464 0
M  V30 341 C 32.9661 1.72134 -0.254123 0
M  V30 342 O 34.1421 1.95358 -0.489626 0
M  V30 343 C 31.2071 3.26671 -1.16134 0
M  V30 344 C 30.2681 3.58723 -2.35831 0
M  V30 345 C 29.5011 4.87409 -2.17413 0
M  V30 346 O 29.7241 5.58506 -1.15876 0
M  V30 347 O 28.6581 5.18539 -3.05615 0
M  V30 348 H 32.4841 1.96165 -2.31847 0
M  V30 349 H 30.0691 0.9139 -1.18187 0
M  V30 350 H 31.9511 4.07499 -1.07345 0
M  V30 351 H 30.6261 3.22894 -0.228251 0
M  V30 352 H 29.5331 2.78127 -2.50192 0
M  V30 353 H 30.8661 3.67243 -3.27709 0
M  V30 354 N 32.5182 1.22032 0.997298 0
M  V30 355 C 33.7482 1.06686 1.76923 0
M  V30 356 C 34.1562 -0.385838 1.85224 0
M  V30 357 O 33.4992 -1.27929 1.31833 0
M  V30 358 C 33.5612 1.59802 3.22031 0
M  V30 359 C 33.2252 3.08362 3.37286 0
M  V30 360 C 34.2222 4.05835 3.24952 0
M  V30 361 C 31.9072 3.47727 3.6248 0
M  V30 362 C 33.9012 5.4066 3.37588 0
M  V30 363 C 31.5882 4.82701 3.74757 0
M  V30 364 C 32.5862 5.78977 3.62319 0
M  V30 365 O 32.2742 7.11502 3.74193 0
M  V30 366 H 32.0062 0.374767 0.562606 0
M  V30 367 H 34.5602 1.61991 1.26286 0
M  V30 368 H 32.7902 0.989003 3.73839 0
M  V30 369 H 34.4792 1.40184 3.80924 0
M  V30 370 H 35.2452 3.76766 3.05405 0
M  V30 371 H 31.1242 2.73317 3.7124 0
M  V30 372 H 34.6682 6.15788 3.27796 0
M  V30 373 H 30.5652 5.11453 3.9381 0
M  V30 374 H 31.3332 7.19019 3.91093 0
M  V30 375 N 33.9963 -1.19345 1.0293 0
M  V30 376 C 34.9443 -2.24621 0.604001 0
M  V30 377 C 35.9383 -1.65452 -0.363587 0
M  V30 378 O 37.1443 -1.78497 -0.23212 0
M  V30 379 H 33.5193 -0.730858 0.177061 0
M  V30 380 H 35.4903 -2.5781 1.50255 0
M  V30 381 C 34.2393 -3.47688 -0.0289127 0
M  V30 382 H 33.5623 -3.93505 0.706651 0
M  V30 383 H 35.0023 -4.23011 -0.289432 0
M  V30 384 C 33.4613 -3.11817 -1.2756 0
M  V30 385 O 33.9913 -3.2451 -2.36762 0
M  V30 386 N 32.1973 -2.66246 -1.16453 0
M  V30 387 H 31.7443 -2.56118 -0.275914 0
M  V30 388 H 31.7023 -2.42617 -1.99961 0
M  V30 389 N 35.4744 -0.807222 -1.35358 0
M  V30 390 C 36.7234 -0.384376 -1.98004 0
M  V30 391 C 37.0364 1.0543 -1.64754 0
M  V30 392 O 38.2424 1.58029 -2.20769 0
M  V30 393 C 36.6984 -0.636326 -3.5423 0
M  V30 394 C 36.3064 -2.08759 -3.96388 0
M  V30 395 C 38.0504 -0.278869 -4.23583 0
M  V30 396 C 35.9574 -2.28525 -5.45463 0
M  V30 397 H 34.8874 -0.139986 -0.740891 0
M  V30 398 H 37.5384 -0.991369 -1.54415 0
M  V30 399 H 35.9204 0.0406256 -3.95979 0
M  V30 400 H 37.0944 -2.8024 -3.6579 0
M  V30 401 H 35.4094 -2.40497 -3.39926 0
M  V30 402 H 38.0064 -0.404599 -5.33167 0
M  V30 403 H 38.3494 0.775012 -4.09022 0
M  V30 404 H 38.8824 -0.909764 -3.87257 0
M  V30 405 H 35.6214 -3.32361 -5.64992 0
M  V30 406 H 35.1414 -1.61569 -5.77629 0
M  V30 407 H 36.8204 -2.10109 -6.11934 0
M  V30 408 N 36.9525 1.47285 -0.560781 0
M  V30 409 C 38.1775 2.07359 -0.0410566 0
M  V30 410 C 38.6025 1.41017 1.24483 0
M  V30 411 O 37.9605 0.486368 1.74654 0
M  V30 412 C 38.0085 3.6035 0.134123 0
M  V30 413 O 37.1125 3.94681 1.19587 0
M  V30 414 H 36.4535 0.661887 -0.0529291 0
M  V30 415 H 38.9835 1.89252 -0.777482 0
M  V30 416 H 38.9935 4.0652 0.347207 0
M  V30 417 H 37.6685 4.08034 -0.805047 0
M  V30 418 H 36.2455 3.60251 0.962987 0
M  V30 419 N 38.4306 0.297415 1.54768 0
M  V30 420 C 39.8416 -0.195947 1.85669 0
M  V30 421 C 40.1926 -1.53707 1.21937 0
M  V30 422 O 39.3176 -2.10164 0.515754 0
M  V30 423 C 39.9126 -0.362318 3.36857 0
M  V30 424 C 38.4716 -0.799901 3.67802 0
M  V30 425 C 37.6186 0.0938578 2.77141 0
M  V30 426 H 40.5696 0.518538 1.4999 0
M  V30 427 H 40.5906 -1.19745 3.61167 0
M  V30 428 H 40.1026 0.613921 3.83214 0
M  V30 429 H 38.2036 -1.78682 3.26961 0
M  V30 430 H 38.3166 -0.621773 4.75048 0
M  V30 431 H 36.6806 -0.426254 2.51108 0
M  V30 432 H 37.4636 1.06639 3.26318 0
M  V30 433 N 39.9087 -1.5758 0.0250728 0
M  V30 434 C 40.8187 -2.1343 -0.973905 0
M  V30 435 C 41.8347 -1.08556 -1.35984 0
M  V30 436 O 43.0107 -1.40592 -1.44207 0
M  V30 437 C 40.0757 -2.64703 -2.23904 0
M  V30 438 C 39.1367 -3.84276 -1.91391 0
M  V30 439 C 38.3697 -4.33095 -3.11873 0
M  V30 440 O 38.5927 -3.81107 -4.24398 0
M  V30 441 O 37.5267 -5.24984 -2.94406 0
M  V30 442 H 41.3527 -2.99057 -0.529036 0
M  V30 443 H 38.9377 -1.48118 -0.195288 0
M  V30 444 H 40.8197 -2.97769 -2.98181 0
M  V30 445 H 39.4947 -1.82161 -2.6758 0
M  V30 446 H 38.4017 -3.56143 -1.14511 0
M  V30 447 H 39.7347 -4.67968 -1.52534 0
M  V30 448 N 41.3868 0.248026 -1.55636 0
M  V30 449 C 42.6148 0.993808 -1.81469 0
M  V30 450 C 43.0298 1.78991 -0.60064 0
M  V30 451 O 42.3868 1.77345 0.430682 0
M  V30 452 C 42.4378 1.93258 -3.05506 0
M  V30 453 O 42.1588 1.16869 -4.22224 0
M  V30 454 C 43.6598 2.79444 -3.4413 0
M  V30 455 H 40.8798 0.292486 -0.603898 0
M  V30 456 H 43.4238 0.271253 -2.02693 0
M  V30 457 H 41.5788 2.60943 -2.86335 0
M  V30 458 H 41.9928 1.80359 -4.92515 0
M  V30 459 H 43.4668 3.41066 -4.34026 0
M  V30 460 H 43.9438 3.50499 -2.64665 0
M  V30 461 H 44.5498 2.17214 -3.65648 0
M  V30 462 N 42.8649 1.48995 0.513639 0
M  V30 463 C 44.2809 1.35478 0.843682 0
M  V30 464 C 44.4809 0.378213 1.97919 0
M  V30 465 O 43.5369 -0.194689 2.51748 0
M  V30 466 C 44.8499 2.75901 1.1958 0
M  V30 467 C 46.3979 2.84509 1.30474 0
M  V30 468 C 46.8729 4.25671 1.69021 0
M  V30 469 N 48.3639 4.28422 1.76094 0
M  V30 470 C 49.0989 5.34601 2.07338 0
M  V30 471 N 48.5949 6.5104 2.36894 0
M  V30 472 N 50.3879 5.22007 2.08483 0
M  V30 473 H 42.5389 2.11092 -0.235328 0
M  V30 474 H 44.8019 0.947039 -0.0426669 0
M  V30 475 H 44.5079 3.49001 0.434913 0
M  V30 476 H 44.3819 3.10467 2.1422 0
M  V30 477 H 46.7689 2.11655 2.05637 0
M  V30 478 H 46.8499 2.53542 0.339155 0
M  V30 479 H 46.4939 4.99048 0.944135 0
M  V30 480 H 46.4239 4.54094 2.66658 0
M  V30 481 H 48.9149 3.44441 1.55464 0
M  V30 482 H 49.2279 7.2779 2.59887 0
M  V30 483 H 47.5729 6.54287 2.34378 0
M  V30 484 H 50.7639 4.30051 1.84861 0
M  V30 485 H 50.9369 6.04854 2.325 0
M  V30 486 N 44.343 -0.763751 1.37857 0
M  V30 487 C 45.759 -1.06542 1.18832 0
M  V30 488 C 45.959 -2.01478 0.0299722 0
M  V30 489 O 45.015 -2.4458 -0.627447 0
M  V30 490 C 46.328 -1.65525 2.51042 0
M  V30 491 C 47.876 -1.77745 2.57635 0
M  V30 492 C 48.351 -2.4014 3.89996 0
M  V30 493 N 49.842 -2.47582 3.91481 0
M  V30 494 C 50.577 -2.96732 4.9065 0
M  V30 495 N 50.073 -3.45993 6.00217 0
M  V30 496 N 51.866 -2.95679 4.78048 0
M  V30 497 H 44.017 -0.133556 2.1198 0
M  V30 498 H 46.28 -0.121879 0.940133 0
M  V30 499 H 45.986 -1.03236 3.36207 0
M  V30 500 H 45.86 -2.64719 2.68707 0
M  V30 501 H 48.247 -2.39164 1.72872 0
M  V30 502 H 48.328 -0.772836 2.43846 0
M  V30 503 H 47.972 -1.79358 4.75177 0
M  V30 504 H 47.902 -3.41223 4.01092 0
M  V30 505 H 50.393 -2.1273 3.12337 0
M  V30 506 H 50.706 -3.81922 6.7183 0
M  V30 507 H 49.051 -3.44077 6.03851 0
M  V30 508 H 52.242 -2.56499 3.91568 0
M  V30 509 H 52.415 -3.33672 5.55488 0
M  V30 510 N 45.8211 -1.22559 -0.990812 0
M  V30 511 C 46.7841 -0.998863 -2.0629 0
M  V30 512 C 47.7841 0.0354834 -1.60761 0
M  V30 513 O 48.9741 -0.203231 -1.7301 0
M  V30 514 C 46.1061 -0.509203 -3.37076 0
M  V30 515 H 47.2991 -1.95014 -2.27837 0
M  V30 516 H 44.8521 -1.04456 -1.16269 0
M  V30 517 H 45.5871 0.446335 -3.21214 0
M  V30 518 H 45.3721 -1.25547 -3.71457 0
M  V30 519 H 46.8621 -0.370888 -4.1595 0
M  V30 520 N 47.2992 1.18797 -1.03562 0
M  V30 521 C 48.2312 2.21731 -0.580337 0
M  V30 522 C 49.2442 1.59051 0.347349 0
M  V30 523 O 50.4332 1.77929 0.142669 0
M  V30 524 C 47.5332 3.38459 0.172805 0
M  V30 525 C 46.7062 4.3072 -0.761496 0
M  V30 526 C 45.7652 5.26174 -0.0525547 0
M  V30 527 O 44.7912 5.65108 -0.681333 0
M  V30 528 N 45.9932 5.67624 1.21586 0
M  V30 529 H 48.7582 2.61417 -1.46565 0
M  V30 530 H 46.3192 1.33531 -0.915476 0
M  V30 531 H 48.3112 3.99335 0.656793 0
M  V30 532 H 46.8812 2.97507 0.959602 0
M  V30 533 H 46.1012 3.67525 -1.42544 0
M  V30 534 H 47.3892 4.89267 -1.39626 0
M  V30 535 H 46.7872 5.38038 1.74732 0
M  V30 536 H 45.3442 6.30721 1.64421 0
M  V30 537 N 48.7773 0.814389 1.34928 0
M  V30 538 C 49.7403 0.235759 2.27984 0
M  V30 539 C 50.7403 -0.581412 1.49921 0
M  V30 540 O 51.9303 -0.398758 1.69575 0
M  V30 541 C 49.0623 -0.670433 3.34242 0
M  V30 542 H 50.2553 1.05659 2.80671 0
M  V30 543 H 47.8083 0.585614 1.44915 0
M  V30 544 H 48.5433 -1.51466 2.86755 0
M  V30 545 H 48.3283 -0.0860822 3.92005 0
M  V30 546 H 49.8183 -1.06935 4.03676 0
M  V30 547 N 50.2554 -1.46986 0.568584 0
M  V30 548 C 51.1654 -2.33942 -0.17555 0
M  V30 549 C 52.1814 -1.48891 -0.90041 0
M  V30 550 O 53.3574 -1.81794 -0.86676 0
M  V30 551 C 50.4224 -3.25811 -1.18524 0
M  V30 552 C 49.4834 -4.26757 -0.466582 0
M  V30 553 C 48.7164 -5.14236 -1.42817 0
M  V30 554 O 48.9394 -5.04379 -2.66379 0
M  V30 555 O 47.8734 -5.94412 -0.946453 0
M  V30 556 H 51.6994 -2.98896 0.538036 0
M  V30 557 H 49.2844 -1.4573 0.329097 0
M  V30 558 H 51.1664 -3.82527 -1.76779 0
M  V30 559 H 49.8414 -2.63471 -1.88055 0
M  V30 560 H 48.7484 -3.73769 0.157451 0
M  V30 561 H 50.0814 -4.91843 0.187485 0
M  V30 562 N 51.7335 -0.305618 -1.54608 0
M  V30 563 C 53.1495 0.0476228 -1.59529 0
M  V30 564 C 53.3495 1.52025 -1.32252 0
M  V30 565 O 52.4055 2.27368 -1.09818 0
M  V30 566 C 53.7185 -0.354471 -2.98603 0
M  V30 567 C 55.2665 -0.303622 -3.11524 0
M  V30 568 C 55.7415 -0.680608 -4.52915 0
M  V30 569 N 57.2325 -0.63332 -4.5885 0
M  V30 570 C 57.9675 -0.897432 -5.66334 0
M  V30 571 N 57.4635 -1.22775 -6.81834 0
M  V30 572 N 59.2565 -0.824186 -5.56025 0
M  V30 573 H 51.4075 -1.2653 -1.70599 0
M  V30 574 H 53.6705 -0.513291 -0.797017 0
M  V30 575 H 53.3765 -1.3798 -3.23503 0
M  V30 576 H 53.2505 0.289568 -3.76087 0
M  V30 577 H 55.6375 0.712472 -2.8637 0
M  V30 578 H 55.7185 -0.982348 -2.36185 0
M  V30 579 H 55.3625 -1.69453 -4.78799 0
M  V30 580 H 55.2925 0.0202385 -5.26596 0
M  V30 581 H 57.7835 -0.389138 -3.75891 0
M  V30 582 H 58.0965 -1.41513 -7.59733 0
M  V30 583 H 56.4415 -1.26583 -6.83375 0
M  V30 584 H 59.6325 -0.565748 -4.64669 0
M  V30 585 H 59.8055 -1.03338 -6.39707 0
M  V30 586 N 53.2116 1.57565 -0.0334293 0
M  V30 587 C 54.1416 2.13511 0.945265 0
M  V30 588 C 55.1226 1.05231 1.33643 0
M  V30 589 O 56.3076 1.33084 1.41429 0
M  V30 590 C 53.4376 2.6657 2.22616 0
M  V30 591 C 52.3916 3.79676 1.97561 0
M  V30 592 C 51.7176 4.1918 3.31952 0
M  V30 593 C 53.0176 5.0557 1.31135 0
M  V30 594 H 54.7116 2.95538 0.479325 0
M  V30 595 H 52.2576 1.42166 0.229115 0
M  V30 596 H 54.2106 3.04344 2.91466 0
M  V30 597 H 52.9346 1.8171 2.71384 0
M  V30 598 H 51.5936 3.42347 1.31127 0
M  V30 599 H 51.2416 3.31296 3.78487 0
M  V30 600 H 50.9416 4.95402 3.15992 0
M  V30 601 H 52.4656 4.59541 4.02063 0
M  V30 602 H 53.8796 5.40903 1.89992 0
M  V30 603 H 52.2766 5.86818 1.25559 0
M  V30 604 H 53.3466 4.84062 0.284894 0
M  V30 605 N 54.6897 -0.239769 1.55765 0
M  V30 606 C 55.6527 -1.28038 1.90103 0
M  V30 607 C 56.6527 -1.40723 0.778055 0
M  V30 608 O 57.8427 -1.39301 1.04599 0
M  V30 609 C 54.9747 -2.65702 2.13577 0
M  V30 610 H 56.1677 -0.988048 2.83157 0
M  V30 611 H 53.7207 -0.479382 1.48767 0
M  V30 612 H 54.4557 -3.00063 1.23015 0
M  V30 613 H 54.2407 -2.57875 2.95369 0
M  V30 614 H 55.7307 -3.40828 2.41301 0
M  V30 615 N 56.1678 -1.49265 -0.50573 0
M  V30 616 C 57.4168 -1.57761 -1.25675 0
M  V30 617 C 57.7298 -0.267371 -1.93764 0
M  V30 618 O 58.9358 -0.230827 -2.70517 0
M  V30 619 C 57.3918 -2.78332 -2.28165 0
M  V30 620 C 56.9998 -4.16096 -1.66037 0
M  V30 621 C 58.7438 -2.96155 -3.04125 0
M  V30 622 C 56.6508 -5.27895 -2.6661 0
M  V30 623 H 55.5808 -0.587391 -0.472745 0
M  V30 624 H 58.2318 -1.75644 -0.53118 0
M  V30 625 H 56.6138 -2.53934 -3.03865 0
M  V30 626 H 57.7878 -4.50612 -0.963622 0
M  V30 627 H 56.1028 -4.03591 -1.02484 0
M  V30 628 H 58.6998 -3.76849 -3.79327 0
M  V30 629 H 59.0428 -2.06534 -3.61455 0
M  V30 630 H 59.5758 -3.2057 -2.35541 0
M  V30 631 H 56.3148 -6.1956 -2.14068 0
M  V30 632 H 55.8348 -4.97839 -3.34539 0
M  V30 633 H 57.5138 -5.57031 -3.29129 0
M  V30 634 N 57.6459 0.756429 -1.3826 0
M  V30 635 C 59.0619 1.0591 -1.19395 0
M  V30 636 C 59.2619 2.01459 -0.0406567 0
M  V30 637 O 58.3179 2.44909 0.614467 0
M  V30 638 C 59.6309 1.64191 -2.51916 0
M  V30 639 C 61.1789 1.76376 -2.58574 0
M  V30 640 C 61.6539 2.38069 -3.91264 0
M  V30 641 N 63.1449 2.45503 -3.92788 0
M  V30 642 C 63.8799 2.94126 -4.92217 0
M  V30 643 N 63.3759 3.42805 -6.02043 0
M  V30 644 N 65.1689 2.9314 -4.7961 0
M  V30 645 H 57.3199 0.122313 -2.12048 0
M  V30 646 H 59.5829 0.116892 -0.940766 0
M  V30 647 H 59.2889 1.01451 -3.3675 0
M  V30 648 H 59.1629 2.6329 -2.70108 0
M  V30 649 H 61.5499 2.38244 -1.74137 0
M  V30 650 H 61.6309 0.759894 -2.44252 0
M  V30 651 H 61.2749 1.76835 -4.76121 0
M  V30 652 H 61.2049 3.39091 -4.02895 0
M  V30 653 H 63.6959 2.1107 -3.13461 0
M  V30 654 H 64.0089 3.78354 -6.73846 0
M  V30 655 H 62.3539 3.4087 -6.05667 0
M  V30 656 H 65.5449 2.54419 -3.92923 0
M  V30 657 H 65.7179 3.30721 -5.5725 0
M  V30 658 N 59.124 1.23083 0.984299 0
M  V30 659 C 60.087 1.00979 2.05757 0
M  V30 660 C 61.087 -0.0269573 1.60777 0
M  V30 661 O 62.277 0.212403 1.729 0
M  V30 662 C 59.409 0.527072 3.36801 0
M  V30 663 H 60.602 1.9622 2.26799 0
M  V30 664 H 58.155 1.05072 1.15714 0
M  V30 665 H 58.89 -0.429294 3.21446 0
M  V30 666 H 58.675 1.27515 3.70786 0
M  V30 667 H 60.165 0.392942 4.15747 0
M  V30 668 N 60.6021 -1.18246 1.0419 0
M  V30 669 C 61.5341 -2.2142 0.592088 0
M  V30 670 C 62.5471 -1.59233 -0.338909 0
M  V30 671 O 63.7361 -1.78002 -0.133231 0
M  V30 672 C 60.8361 -3.38546 -0.154854 0
M  V30 673 C 60.0091 -4.3031 0.784328 0
M  V30 674 C 59.0681 -5.26138 0.0804583 0
M  V30 675 O 58.0941 -5.64738 0.711292 0
M  V30 676 N 59.2961 -5.68261 -1.18574 0
M  V30 677 H 62.0611 -2.60636 1.47949 0
M  V30 678 H 59.6221 -1.33044 0.922544 0
M  V30 679 H 61.6141 -3.99678 -0.635606 0
M  V30 680 H 60.1841 -2.98012 -0.943811 0
M  V30 681 H 59.4041 -3.66764 1.44491 0
M  V30 682 H 60.6921 -4.8852 1.42218 0
M  V30 683 H 60.0901 -5.38957 -1.71876 0
M  V30 684 H 58.6471 -6.31584 -1.61074 0
M  V30 685 N 62.0802 -0.821533 -1.34494 0
M  V30 686 C 63.0102 -0.257138 -2.3208 0
M  V30 687 C 63.9912 0.625645 -1.58176 0
M  V30 688 O 65.1762 0.552811 -1.86166 0
M  V30 689 C 62.3062 0.582958 -3.42372 0
M  V30 690 C 61.2602 -0.202571 -4.2752 0
M  V30 691 C 60.5862 0.760179 -5.29269 0
M  V30 692 C 61.8862 -1.40998 -5.02908 0
M  V30 693 H 63.5802 -1.07247 -2.79532 0
M  V30 694 H 61.1262 -0.517163 -1.34393 0
M  V30 695 H 63.0792 0.987972 -4.09655 0
M  V30 696 H 61.8032 1.43133 -2.93565 0
M  V30 697 H 60.4622 -0.588936 -3.61838 0
M  V30 698 H 60.1102 1.60447 -4.76724 0
M  V30 699 H 59.8102 0.238809 -5.87115 0
M  V30 700 H 61.3342 1.16308 -5.9942 0
M  V30 701 H 62.7482 -1.07905 -5.63054 0
M  V30 702 H 61.1452 -1.86689 -5.70322 0
M  V30 703 H 62.2152 -2.1889 -4.32684 0
M  V30 704 N 63.5583 1.46682 -0.576371 0
M  V30 705 C 64.5053 2.30241 0.160499 0
M  V30 706 C 65.4753 1.40233 0.890162 0
M  V30 707 O 66.6603 1.69186 0.882084 0
M  V30 708 C 63.8003 3.24578 1.1723 0
M  V30 709 C 62.9133 4.29684 0.446736 0
M  V30 710 C 62.0483 5.11154 1.44551 0
M  V30 711 C 61.0873 6.08015 0.70599 0
M  V30 712 N 60.2243 6.82376 1.65251 0
M  V30 713 H 65.0643 2.92727 -0.558127 0
M  V30 714 H 62.6013 1.44272 -0.287056 0
M  V30 715 H 64.5593 3.77711 1.77172 0
M  V30 716 H 63.1893 2.63916 1.85872 0
M  V30 717 H 62.2413 3.79458 -0.267594 0
M  V30 718 H 63.5533 4.98626 -0.131686 0
M  V30 719 H 62.7073 5.68533 2.11791 0
M  V30 720 H 61.4463 4.42158 2.05786 0
M  V30 721 H 60.4513 5.49796 0.0197725 0
M  V30 722 H 61.6763 6.79028 0.09912 0
M  V30 723 H 59.6223 6.16094 2.25308 0
M  V30 724 H 59.5393 7.47556 1.12673 0
M  V30 725 H 60.8073 7.44316 2.31546 0
M  V30 726 N 65.0364 0.313813 1.54444 0
M  V30 727 C 66.4524 -0.0391619 1.59552 0
M  V30 728 C 66.6524 -1.51322 1.33056 0
M  V30 729 O 65.7084 -2.26782 1.11022 0
M  V30 730 C 67.0214 0.370302 2.98411 0
M  V30 731 C 68.5694 0.320139 3.11358 0
M  V30 732 C 69.0444 0.704617 4.52547 0
M  V30 733 N 70.5354 0.657645 4.58508 0
M  V30 734 C 71.2704 0.927453 5.6585 0
M  V30 735 N 70.7664 1.26389 6.81174 0
M  V30 736 N 72.5594 0.853662 5.5558 0
M  V30 737 H 64.7104 1.27433 1.69925 0
M  V30 738 H 66.9734 0.517511 0.794284 0
M  V30 739 H 66.6794 1.39694 3.22767 0
M  V30 740 H 66.5534 -0.269619 3.76235 0
M  V30 741 H 68.9404 -0.697275 2.86744 0
M  V30 742 H 69.0214 0.99486 2.35661 0
M  V30 743 H 68.6654 1.7199 4.77893 0
M  V30 744 H 68.5954 0.00768843 5.26599 0
M  V30 745 H 71.0864 0.409067 3.75679 0
M  V30 746 H 71.3994 1.4554 7.58972 0
M  V30 747 H 69.7444 1.30206 6.82694 0
M  V30 748 H 72.9354 0.590383 4.64362 0
M  V30 749 H 73.1084 1.0673 6.3915 0
M  V30 750 N 66.5145 -1.57545 0.0417849 0
M  V30 751 C 67.4245 -2.14451 -0.951213 0
M  V30 752 C 68.4405 -1.09992 -1.34825 0
M  V30 753 O 69.6165 -1.42114 -1.42708 0
M  V30 754 C 66.6815 -2.67063 -2.21084 0
M  V30 755 C 65.7425 -3.86284 -1.87304 0
M  V30 756 C 64.9755 -4.36378 -3.07261 0
M  V30 757 O 65.1985 -3.85587 -4.20332 0
M  V30 758 O 64.1325 -5.28077 -2.88822 0
M  V30 759 H 67.9585 -2.99601 -0.497287 0
M  V30 760 H 65.5435 -1.48317 -0.179567 0
M  V30 761 H 67.4255 -3.00914 -2.95006 0
M  V30 762 H 66.1005 -1.84989 -2.65633 0
M  V30 763 H 65.0075 -3.57338 -1.10727 0
M  V30 764 H 66.3405 -4.6956 -1.47562 0
M  V30 765 N 67.9926 0.231505 -1.5589 0
M  V30 766 C 69.2226 0.973092 -1.82248 0
M  V30 767 C 69.6306 1.78845 -0.617328 0
M  V30 768 O 68.9736 1.78752 0.423499 0
M  V30 769 C 69.0356 1.94732 -3.02192 0
M  V30 770 C 68.6996 1.31743 -4.37599 0
M  V30 771 C 69.6966 0.712238 -5.14998 0
M  V30 772 C 67.3816 1.33218 -4.84312 0
M  V30 773 C 69.3756 0.130195 -6.37267 0
M  V30 774 C 67.0626 0.746286 -6.06526 0
M  V30 775 C 68.0606 0.146337 -6.82843 0
M  V30 776 O 67.7486 -0.430465 -8.02747 0
M  V30 777 H 67.4806 0.29125 -0.61004 0
M  V30 778 H 70.0346 0.254915 -2.03812 0
M  V30 779 H 68.2646 2.70422 -2.76422 0
M  V30 780 H 69.9536 2.55362 -3.15508 0
M  V30 781 H 70.7196 0.69324 -4.8002 0
M  V30 782 H 66.5986 1.78854 -4.24891 0
M  V30 783 H 70.1426 -0.33871 -6.96777 0
M  V30 784 H 66.0396 0.762663 -6.40979 0
M  V30 785 H 66.8076 -0.323818 -8.17859 0
M  V30 786 N 69.4707 1.49531 0.497807 0
M  V30 787 C 70.4007 1.6935 1.60757 0
M  V30 788 C 71.3817 0.542218 1.61227 0
M  V30 789 O 72.5667 0.778417 1.77917 0
M  V30 790 C 69.6967 1.76298 2.99226 0
M  V30 791 C 68.6507 2.91248 3.13622 0
M  V30 792 C 67.9767 2.83312 4.53474 0
M  V30 793 C 69.2767 4.3214 2.93346 0
M  V30 794 H 70.9707 2.62263 1.44425 0
M  V30 795 H 68.5167 1.26208 0.693367 0
M  V30 796 H 70.4697 1.88749 3.76765 0
M  V30 797 H 69.1937 0.799871 3.16654 0
M  V30 798 H 67.8527 2.78404 2.38509 0
M  V30 799 H 67.5007 1.84902 4.67782 0
M  V30 800 H 67.2007 3.60465 4.64046 0
M  V30 801 H 68.7247 2.97775 5.33069 0
M  V30 802 H 70.1387 4.45649 3.60652 0
M  V30 803 H 68.5357 5.1054 3.15387 0
M  V30 804 H 69.6057 4.46363 1.89441 0
M  V30 805 N 70.9488 -0.749086 1.3866 0
M  V30 806 C 71.8788 -1.8764 1.38973 0
M  V30 807 C 72.8598 -1.68178 0.255004 0
M  V30 808 O 74.0448 -1.88704 0.458754 0
M  V30 809 C 71.1748 -3.25222 1.21851 0
M  V30 810 C 70.1288 -3.59295 2.32575 0
M  V30 811 C 69.4548 -4.95663 2.00555 0
M  V30 812 C 70.7548 -3.63709 3.7485 0
M  V30 813 H 72.4488 -1.87635 2.3331 0
M  V30 814 H 69.9948 -0.901329 1.12303 0
M  V30 815 H 71.9478 -4.03746 1.20695 0
M  V30 816 H 70.6718 -3.25719 0.239775 0
M  V30 817 H 69.3308 -2.83093 2.32925 0
M  V30 818 H 68.9788 -4.92724 1.01154 0
M  V30 819 H 68.6788 -5.19429 2.74714 0
M  V30 820 H 70.2028 -5.7656 2.01024 0
M  V30 821 H 71.6168 -4.32338 3.76506 0
M  V30 822 H 70.0138 -3.98986 4.48252 0
M  V30 823 H 71.0838 -2.63834 4.06841 0
M  V30 824 N 72.4269 -1.23603 -0.977757 0
M  V30 825 C 73.3589 -0.977369 -2.07317 0
M  V30 826 C 74.3719 0.0495845 -1.62724 0
M  V30 827 O 75.5609 -0.186261 -1.77526 0
M  V30 828 C 72.6609 -0.451216 -3.35883 0
M  V30 829 C 71.8339 -1.53896 -4.09432 0
M  V30 830 C 70.8929 -1.01721 -5.16274 0
M  V30 831 O 69.9189 -1.70676 -5.43009 0
M  V30 832 N 71.1209 0.153594 -5.80297 0
M  V30 833 H 73.8859 -1.92047 -2.30082 0
M  V30 834 H 71.4469 -1.14497 -1.14465 0
M  V30 835 H 73.4389 -0.0871574 -4.04606 0
M  V30 836 H 72.0089 0.397368 -3.10064 0
M  V30 837 H 71.2289 -2.07566 -3.35127 0
M  V30 838 H 72.5169 -2.27037 -4.55337 0
M  V30 839 H 71.9149 0.730323 -5.60966 0
M  V30 840 H 70.4719 0.458892 -6.50183 0
M  V30 841 N 73.905 1.17692 -1.04816 0
M  V30 842 C 75.135 1.91508 -0.775128 0
M  V30 843 C 75.543 1.76844 0.67253 0
M  V30 844 O 74.886 1.10057 1.47082 0
M  V30 845 C 74.948 3.43167 -1.0713 0
M  V30 846 C 74.612 3.81612 -2.51438 0
M  V30 847 C 75.609 3.84772 -3.49638 0
M  V30 848 C 73.294 4.12687 -2.86348 0
M  V30 849 C 75.288 4.18469 -4.80794 0
M  V30 850 C 72.975 4.46053 -4.17708 0
M  V30 851 C 73.973 4.48921 -5.14741 0
M  V30 852 O 73.661 4.81504 -6.43746 0
M  V30 853 H 73.393 0.614575 -0.281555 0
M  V30 854 H 75.947 1.50206 -1.40098 0
M  V30 855 H 74.177 3.84745 -0.388342 0
M  V30 856 H 75.866 3.98239 -0.784883 0
M  V30 857 H 76.632 3.60893 -3.24008 0
M  V30 858 H 72.511 4.09627 -2.11486 0
M  V30 859 H 76.055 4.20623 -5.56527 0
M  V30 860 H 71.952 4.69393 -4.43103 0
M  V30 861 H 72.72 4.99377 -6.4851 0
M  V30 862 N 75.3831 0.828654 1.34056 0
M  V30 863 C 76.3311 0.242973 2.31327 0
M  V30 864 C 77.3251 -0.61944 1.57668 0
M  V30 865 O 78.5311 -0.51014 1.7262 0
M  V30 866 H 74.9061 0.059834 0.749616 0
M  V30 867 H 76.8771 1.07809 2.78244 0
M  V30 868 C 75.6261 -0.575733 3.429 0
M  V30 869 H 74.9491 0.0785582 3.99723 0
M  V30 870 H 76.3891 -0.951547 4.13185 0
M  V30 871 C 74.8481 -1.75044 2.87856 0
M  V30 872 O 75.3781 -2.84882 2.83205 0
M  V30 873 N 73.5841 -1.56903 2.44602 0
M  V30 874 H 73.1311 -0.675547 2.48584 0
M  V30 875 H 73.0891 -2.35652 2.08124 0
M  V30 876 N 76.8612 -1.46375 0.584142 0
M  V30 877 C 78.1382 -1.956 0.0033388 0
M  V30 878 C 78.5182 -1.52679 -1.45782 0
M  V30 879 O 77.8662 -0.77816 -2.14842 0
M  V30 880 C 78.0762 -3.48551 0.176891 0
M  V30 881 C 79.4242 -4.24576 0.0454609 0
M  V30 882 O 80.4482 -3.56043 0.105801 0
M  V30 883 O 79.3072 -5.46427 -0.0890376 0
M  V30 884 H 76.4012 -0.825547 -0.0490066 0
M  V30 885 H 78.9472 -1.56652 0.65256 0
M  V30 886 H 77.7192 -3.72683 1.1926 0
M  V30 887 H 77.3422 -3.94332 -0.508695 0
M  V30 888 N 78.3393 -0.321999 -1.54275 0
M  V30 889 C 79.7503 0.166384 -1.85957 0
M  V30 890 C 80.1013 1.51747 -1.24367 0
M  V30 891 O 79.2263 2.09317 -0.549124 0
M  V30 892 C 79.8213 0.308681 -3.37391 0
M  V30 893 C 78.3803 0.741286 -3.69028 0
M  V30 894 C 77.5273 -0.137937 -2.76957 0
M  V30 895 H 80.4783 -0.542335 -1.49146 0
M  V30 896 H 80.4993 1.13984 -3.63026 0
M  V30 897 H 80.0113 -0.674809 -3.82188 0
M  V30 898 H 78.1123 1.73458 -3.29762 0
M  V30 899 H 78.2253 0.546118 -4.75977 0
M  V30 900 H 76.5893 0.386251 -2.51754 0
M  V30 901 H 77.3723 -1.11816 -3.2458 0
M  V30 902 N 79.8174 1.5752 -0.0501392 0
M  V30 903 C 80.7654 2.12651 0.942459 0
M  V30 904 C 81.7594 1.05807 1.32292 0
M  V30 905 O 82.9654 1.24217 1.3027 0
M  V30 906 H 79.3404 0.679673 0.321789 0
M  V30 907 H 81.3114 2.94951 0.452356 0
M  V30 908 C 80.0604 2.68565 2.20836 0
M  V30 909 H 79.3834 3.50439 1.92439 0
M  V30 910 H 80.8234 3.10761 2.8845 0
M  V30 911 C 79.2824 1.62291 2.95234 0
M  V30 912 O 79.8124 1.03508 3.88135 0
M  V30 913 N 78.0184 1.33836 2.57946 0
M  V30 914 H 77.5654 1.81826 1.82475 0
M  V30 915 H 77.5234 0.629595 3.08032 0
M  V30 916 N 81.2955 -0.223234 1.56011 0
M  V30 917 C 82.7115 -0.572856 1.48965 0
M  V30 918 C 82.9115 -1.87225 0.74492 0
M  V30 919 O 81.9675 -2.50899 0.283896 0
M  V30 920 C 83.2805 -0.653646 2.9351 0
M  V30 921 C 84.8285 -0.744386 3.0402 0
M  V30 922 C 85.3035 -0.856535 4.49919 0
M  V30 923 N 86.7945 -0.9208 4.53955 0
M  V30 924 C 87.5295 -1.02726 5.64123 0
M  V30 925 N 87.0255 -1.09777 6.84047 0
M  V30 926 N 88.8185 -1.06226 5.51971 0
M  V30 927 H 80.9695 0.629462 2.02858 0
M  V30 928 H 83.2325 0.220621 0.921971 0
M  V30 929 H 82.9385 0.231518 3.50937 0
M  V30 930 H 82.8125 -1.51781 3.45315 0
M  V30 931 H 85.1995 -1.61999 2.46658 0
M  V30 932 H 85.2805 0.14541 2.55386 0
M  V30 933 H 84.9245 0.0146069 5.07898 0
M  V30 934 H 84.8545 -1.76172 4.96257 0
M  V30 935 H 87.3455 -0.876694 3.6759 0
M  V30 936 H 87.6585 -1.17872 7.63758 0
M  V30 937 H 86.0035 -1.06693 6.86762 0
M  V30 938 H 89.1945 -1.00382 4.5721 0
M  V30 939 H 89.3675 -1.14177 6.37862 0
M  V30 940 N 82.7736 -1.49793 -0.48987 0
M  V30 941 C 84.1896 -1.36803 -0.822022 0
M  V30 942 C 84.3896 -0.409652 -1.97292 0
M  V30 943 O 83.4456 0.154614 -2.52026 0
M  V30 944 C 84.7586 -2.77768 -1.15175 0
M  V30 945 C 86.3066 -2.86549 -1.25931 0
M  V30 946 C 86.7816 -4.28306 -1.62228 0
M  V30 947 N 88.2726 -4.31169 -1.69256 0
M  V30 948 C 89.0076 -5.37832 -1.98807 0
M  V30 949 N 88.5036 -6.54726 -2.26507 0
M  V30 950 N 90.2966 -5.25258 -2.00152 0
M  V30 951 H 82.4476 -2.10691 0.268881 0
M  V30 952 H 84.7106 -0.946241 0.057728 0
M  V30 953 H 84.4166 -3.49648 -0.379335 0
M  V30 954 H 84.2906 -3.13836 -2.09253 0
M  V30 955 H 86.6776 -2.14899 -2.02243 0
M  V30 956 H 86.7586 -2.54049 -0.298776 0
M  V30 957 H 86.4026 -5.00486 -0.864622 0
M  V30 958 H 86.3326 -4.58279 -2.594 0
M  V30 959 H 88.8236 -3.4687 -1.49965 0
M  V30 960 H 89.1366 -7.31833 -2.48276 0
M  V30 961 H 87.4816 -6.57933 -2.23939 0
M  V30 962 H 90.6726 -4.32938 -1.77996 0
M  V30 963 H 90.8456 -6.08476 -2.22848 0
M  V30 964 N 84.2517 0.741722 -1.39055 0
M  V30 965 C 85.4997 1.49818 -1.35643 0
M  V30 966 C 85.8207 1.94938 0.0491642 0
M  V30 967 O 85.0907 1.68505 0.999141 0
M  V30 968 H 83.6707 0.555755 -0.499144 0
M  V30 969 H 86.3327 0.880957 -1.73854 0
M  V30 970 H 85.4287 2.38348 -2.01486 0
M  V30 971 N 85.7298 1.2412 0.971189 0
M  V30 972 C 86.6598 1.05508 2.08304 0
M  V30 973 C 87.6408 -0.0308864 1.70072 0
M  V30 974 O 88.8258 0.135521 1.93727 0
M  V30 975 C 85.9558 0.655365 3.4106 0
M  V30 976 C 84.9098 1.68971 3.93234 0
M  V30 977 C 84.2358 1.14516 5.22293 0
M  V30 978 C 85.5358 3.08487 4.21465 0
M  V30 979 H 87.2298 1.98507 2.24132 0
M  V30 980 H 84.7758 0.955821 1.07704 0
M  V30 981 H 86.7288 0.51217 4.18276 0
M  V30 982 H 85.4528 -0.31032 3.25122 0
M  V30 983 H 84.1118 1.82106 3.18171 0
M  V30 984 H 83.7598 0.170189 5.02712 0
M  V30 985 H 83.4598 1.83635 5.58168 0
M  V30 986 H 84.9838 1.01401 6.02121 0
M  V30 987 H 86.3978 2.98601 4.89398 0
M  V30 988 H 84.7948 3.74926 4.68562 0
M  V30 989 H 85.8648 3.56787 3.28376 0
M  V30 990 N 87.2079 -1.17134 1.05439 0
M  V30 991 C 88.4569 -1.86791 0.761049 0
M  V30 992 C 88.7699 -1.82072 -0.714795 0
M  V30 993 O 89.9759 -2.47223 -1.12218 0
M  V30 994 C 88.4319 -3.35166 1.31117 0
M  V30 995 C 88.0399 -3.48381 2.81664 0
M  V30 996 C 89.7839 -4.10134 1.09499 0
M  V30 997 C 87.6909 -4.90793 3.29964 0
M  V30 998 H 86.6209 -0.699681 0.281002 0
M  V30 999 H 89.2719 -1.3226 1.27199 0
M  V30 1000 H 87.6539 -3.8925 0.72803 0
M  V30 1001 H 88.8279 -3.04502 3.45855 0
M  V30 1002 H 87.1429 -2.86836 3.01851 0
M  V30 1003 H 89.7399 -5.152 1.43084 0
M  V30 1004 H 90.0829 -4.16287 0.0328772 0
M  V30 1005 H 90.6159 -3.62264 1.64346 0
M  V30 1006 H 87.3549 -4.89816 4.35616 0
M  V30 1007 H 86.8749 -5.35333 2.70516 0
M  V30 1008 H 88.5539 -5.59573 3.24787 0
M  V30 1009 N 88.686 -0.835752 -1.33615 0
M  V30 1010 C 89.596 -0.269088 -2.33052 0
M  V30 1011 C 90.612 0.603251 -1.63208 0
M  V30 1012 O 91.788 0.508112 -1.94885 0
M  V30 1013 C 88.853 0.549091 -3.42324 0
M  V30 1014 C 87.914 -0.347156 -4.27894 0
M  V30 1015 C 87.147 0.43207 -5.31948 0
M  V30 1016 O 87.37 1.66409 -5.45586 0
M  V30 1017 O 86.304 -0.192298 -6.01593 0
M  V30 1018 H 90.13 -1.09243 -2.83372 0
M  V30 1019 H 87.715 -0.598198 -1.36901 0
M  V30 1020 H 89.597 1.01414 -4.09015 0
M  V30 1021 H 88.272 1.34955 -2.94226 0
M  V30 1022 H 87.179 -0.859979 -3.64081 0
M  V30 1023 H 88.512 -1.1123 -4.79467 0
M  V30 1024 N 90.1641 1.46063 -0.591896 0
M  V30 1025 C 91.1121 2.32124 0.148739 0
M  V30 1026 C 92.1061 1.45035 0.875286 0
M  V30 1027 O 93.3121 1.61609 0.792632 0
M  V30 1028 H 89.6871 0.749024 0.066832 0
M  V30 1029 H 91.6581 2.92392 -0.595783 0
M  V30 1030 C 90.4071 3.28373 1.1431 0
M  V30 1031 H 89.7301 3.95371 0.59346 0
M  V30 1032 H 91.1701 3.91352 1.63155 0
M  V30 1033 C 89.6291 2.54393 2.20875 0
M  V30 1034 O 90.1591 2.31373 3.28374 0
M  V30 1035 N 88.3651 2.14797 1.95731 0
M  V30 1036 H 87.9121 2.33719 1.08319 0
M  V30 1037 H 87.8701 1.65619 2.67241 0
M  V30 1038 N 91.6422 0.330177 1.54103 0
M  V30 1039 C 93.0532 -0.15652 1.86043 0
M  V30 1040 C 93.4042 -1.51086 1.2517 0
M  V30 1041 O 92.5292 -2.09023 0.560217 0
M  V30 1042 C 93.1242 -0.290784 3.3755 0
M  V30 1043 C 91.6832 -0.721705 3.69416 0
M  V30 1044 C 90.8302 0.152622 2.7688 0
M  V30 1045 H 93.7812 0.550237 1.48856 0
M  V30 1046 H 93.8022 -1.12058 3.63625 0
M  V30 1047 H 93.3142 0.695068 3.81825 0
M  V30 1048 H 91.4152 -1.71706 3.30678 0
M  V30 1049 H 91.5282 -0.520869 4.7626 0
M  V30 1050 H 89.8922 -0.372894 2.51956 0
M  V30 1051 H 90.6752 1.13536 3.23982 0
M  V30 1052 N 93.1203 -1.57491 0.0584922 0
M  V30 1053 C 94.0833 -2.1085 -0.898617 0
M  V30 1054 C 95.0833 -1.02964 -1.23511 0
M  V30 1055 O 96.2733 -1.29007 -1.17059 0
M  V30 1056 C 93.4053 -2.59881 -2.20623 0
M  V30 1057 H 94.5983 -2.96715 -0.435936 0
M  V30 1058 H 92.1513 -1.55141 -0.190023 0
M  V30 1059 H 92.8863 -1.77431 -2.71457 0
M  V30 1060 H 92.6713 -3.38727 -1.97501 0
M  V30 1061 H 94.1613 -3.01285 -2.89166 0
M  V30 1062 N 94.5984 0.214957 -1.56127 0
M  V30 1063 C 95.5284 1.2695 -1.95974 0
M  V30 1064 C 96.5094 1.48539 -0.828868 0
M  V30 1065 O 97.6944 1.60611 -1.09168 0
M  V30 1066 C 94.8244 2.61794 -2.28214 0
M  V30 1067 C 93.7784 2.54851 -3.43853 0
M  V30 1068 C 93.1044 3.93785 -3.61715 0
M  V30 1069 C 94.4044 2.09065 -4.78632 0
M  V30 1070 H 96.0984 0.93846 -2.84312 0
M  V30 1071 H 93.6444 0.449996 -1.36788 0
M  V30 1072 H 95.5974 3.35731 -2.54682 0
M  V30 1073 H 94.3214 2.96599 -1.36736 0
M  V30 1074 H 92.9804 1.8337 -3.17444 0
M  V30 1075 H 92.6284 4.25908 -2.67602 0
M  V30 1076 H 92.3284 3.90019 -4.39498 0
M  V30 1077 H 93.8524 4.69374 -3.90539 0
M  V30 1078 H 95.2664 2.7275 -5.04262 0
M  V30 1079 H 93.6634 2.16346 -5.59745 0
M  V30 1080 H 94.7334 1.04315 -4.73547 0
M  V30 1081 N 96.0765 1.50051 0.48192 0
M  V30 1082 C 97.0065 1.71046 1.58951 0
M  V30 1083 C 97.9875 0.559288 1.60642 0
M  V30 1084 O 99.1725 0.797243 1.77081 0
M  V30 1085 C 96.3025 1.79462 2.97339 0
M  V30 1086 C 95.2565 2.94558 3.10515 0
M  V30 1087 C 94.5825 2.88105 4.50444 0
M  V30 1088 C 95.8825 4.35227 2.88747 0
M  V30 1089 H 97.5765 2.6378 1.41635 0
M  V30 1090 H 95.1225 1.26936 0.679942 0
M  V30 1091 H 97.0755 1.92734 3.74742 0
M  V30 1092 H 95.7995 0.833412 3.15788 0
M  V30 1093 H 94.4585 2.80918 2.35543 0
M  V30 1094 H 94.1065 1.89853 4.65795 0
M  V30 1095 H 93.8065 3.65366 4.60197 0
M  V30 1096 H 95.3305 3.03412 5.29881 0
M  V30 1097 H 96.7445 4.49449 3.55905 0
M  V30 1098 H 95.1415 5.13856 3.09955 0
M  V30 1099 H 96.2115 4.48347 1.84696 0
M  V30 1100 N 97.5546 -0.734337 1.39446 0
M  V30 1101 C 98.9706 -1.03997 1.21065 0
M  V30 1102 C 99.1706 -2.01369 0.0727019 0
M  V30 1103 O 98.2266 -2.45856 -0.575426 0
M  V30 1104 C 99.5396 -1.60163 2.54496 0
M  V30 1105 C 101.088 -1.7224 2.61347 0
M  V30 1106 C 101.563 -2.31814 3.95002 0
M  V30 1107 N 103.054 -2.39223 3.96644 0
M  V30 1108 C 103.789 -2.86258 4.96834 0
M  V30 1109 N 103.285 -3.33184 6.07421 0
M  V30 1110 N 105.078 -2.85473 4.84213 0
M  V30 1111 H 97.2286 -0.0885624 2.12215 0
M  V30 1112 H 99.4916 -0.10191 0.942506 0
M  V30 1113 H 99.1976 -0.960811 3.38321 0
M  V30 1114 H 99.0716 -2.5896 2.74262 0
M  V30 1115 H 101.459 -2.35443 1.77906 0
M  V30 1116 H 101.54 -0.720939 2.4543 0
M  V30 1117 H 101.184 -1.69238 4.78875 0
M  V30 1118 H 101.114 -3.32638 4.08239 0
M  V30 1119 H 103.605 -2.06057 3.16779 0
M  V30 1120 H 103.918 -3.67586 6.7978 0
M  V30 1121 H 102.263 -3.31191 6.11013 0
M  V30 1122 H 105.454 -2.48136 3.96921 0
M  V30 1123 H 105.627 -3.21814 5.62441 0
M  V30 1124 N 99.0327 -1.24633 -0.964593 0
M  V30 1125 C 100.279 -1.09957 -1.71117 0
M  V30 1126 C 100.634 0.357422 -1.89051 0
M  V30 1127 O 99.9267 1.26029 -1.44317 0
M  V30 1128 C 100.121 -1.7763 -3.10133 0
M  V30 1129 C 99.9497 -3.29759 -3.05759 0
M  V30 1130 C 98.7197 -3.98981 -3.10068 0
M  V30 1131 C 100.918 -4.26305 -2.87695 0
M  V30 1132 N 98.8997 -5.37966 -2.95747 0
M  V30 1133 C 100.271 -5.52308 -2.81702 0
M  V30 1134 C 102.326 -4.16842 -2.72299 0
M  V30 1135 C 101.029 -6.69931 -2.61887 0
M  V30 1136 C 103.055 -5.34147 -2.53853 0
M  V30 1137 C 102.417 -6.59084 -2.48572 0
M  V30 1138 H 98.5157 -0.457003 -0.634564 0
M  V30 1139 H 101.1 -1.57592 -1.14337 0
M  V30 1140 H 99.2707 -1.32504 -3.65099 0
M  V30 1141 H 101.003 -1.55786 -3.73514 0
M  V30 1142 H 97.7577 -3.50169 -3.18871 0
M  V30 1143 H 98.1817 -6.10877 -2.91818 0
M  V30 1144 H 102.824 -3.21007 -2.75163 0
M  V30 1145 H 100.542 -7.65886 -2.57767 0
M  V30 1146 H 104.128 -5.28678 -2.4288 0
M  V30 1147 H 103.008 -7.48324 -2.34481 0
M  V30 1148 N 100.511 1.16574 -1.06058 0
M  V30 1149 C 101.474 2.19085 -0.673392 0
M  V30 1150 C 102.474 1.5835 0.279648 0
M  V30 1151 O 103.664 1.74088 0.0623488 0
M  V30 1152 C 100.796 3.40899 0.00954234 0
M  V30 1153 H 101.989 2.54853 -1.58081 0
M  V30 1154 H 99.5418 1.30808 -0.855516 0
M  V30 1155 H 100.277 3.10684 0.929826 0
M  V30 1156 H 100.062 3.86233 -0.67573 0
M  V30 1157 H 101.552 4.1675 0.266245 0
M  V30 1158 N 101.989 0.842826 1.3317 0
M  V30 1159 C 103.219 0.453397 2.01564 0
M  V30 1160 C 103.627 -0.951147 1.63554 0
M  V30 1161 O 102.97 -1.63021 0.846746 0
M  V30 1162 C 103.032 0.499013 3.5602 0
M  V30 1163 C 102.696 1.86037 4.1742 0
M  V30 1164 C 103.693 2.82416 4.36506 0
M  V30 1165 C 101.378 2.15428 4.53757 0
M  V30 1166 C 103.372 4.06346 4.91082 0
M  V30 1167 C 101.059 3.39615 5.0804 0
M  V30 1168 C 102.057 4.3489 5.26649 0
M  V30 1169 O 101.745 5.5688 5.79776 0
M  V30 1170 H 101.477 0.177871 0.652179 0
M  V30 1171 H 104.031 1.13808 1.70988 0
M  V30 1172 H 102.261 -0.242467 3.85939 0
M  V30 1173 H 103.95 0.126852 4.05702 0
M  V30 1174 H 104.716 2.6101 4.08777 0
M  V30 1175 H 100.595 1.42061 4.38565 0
M  V30 1176 H 104.139 4.80722 5.05522 0
M  V30 1177 H 100.036 3.60876 5.352 0
M  V30 1178 H 100.804 5.58674 5.98185 0
M  V30 1179 N 103.467 -1.45747 0.599634 0
M  V30 1180 C 104.43 -2.28917 -0.113835 0
M  V30 1181 C 105.43 -1.3933 -0.802729 0
M  V30 1182 O 106.62 -1.61534 -0.652103 0
M  V30 1183 C 103.752 -3.20152 -1.17114 0
M  V30 1184 H 104.945 -2.93478 0.617289 0
M  V30 1185 H 102.498 -1.52137 0.358327 0
M  V30 1186 H 103.233 -2.60374 -1.93329 0
M  V30 1187 H 103.018 -3.86133 -0.681468 0
M  V30 1188 H 104.508 -3.82708 -1.67105 0
M  V30 1189 N 104.945 -0.338344 -1.53925 0
M  V30 1190 C 106.361 0.0137736 -1.59594 0
M  V30 1191 C 106.561 1.49186 -1.35447 0
M  V30 1192 O 105.617 2.24987 -1.14616 0
M  V30 1193 C 106.93 -0.41773 -2.97784 0
M  V30 1194 C 108.478 -0.369633 -3.1081 0
M  V30 1195 C 108.953 -0.776524 -4.51369 0
M  V30 1196 N 110.444 -0.730506 -4.57403 0
M  V30 1197 C 111.179 -1.01736 -5.64303 0
M  V30 1198 N 110.675 -1.3721 -6.79077 0
M  V30 1199 N 112.468 -0.941942 -5.54151 0
M  V30 1200 H 104.619 -1.3012 -1.67876 0
M  V30 1201 H 106.882 -0.530082 -0.78595 0
M  V30 1202 H 106.588 -1.44811 -3.20504 0
M  V30 1203 H 106.462 0.209729 -3.76616 0
M  V30 1204 H 108.849 0.651568 -2.87817 0
M  V30 1205 H 108.93 -1.03223 -2.34049 0
M  V30 1206 H 108.574 -1.79571 -4.75096 0
M  V30 1207 H 108.504 -0.0914649 -5.26521 0
M  V30 1208 H 110.995 -0.468783 -3.74981 0
M  V30 1209 H 111.308 -1.57597 -7.5656 0
M  V30 1210 H 109.653 -1.4105 -6.80536 0
M  V30 1211 H 112.844 -0.664184 -4.63364 0
M  V30 1212 H 113.017 -1.16884 -6.37371 0
M  V30 1213 N 106.423 1.57458 -0.0668435 0
M  V30 1214 C 107.651 1.97624 0.612565 0
M  V30 1215 C 108.066 0.94502 1.63447 0
M  V30 1216 O 107.423 -0.0689276 1.8237 0
M  V30 1217 C 107.474 3.37869 1.28555 0
M  V30 1218 O 107.195 4.3704 0.304557 0
M  V30 1219 C 108.696 3.92882 2.05325 0
M  V30 1220 H 105.916 0.650045 0.166381 0
M  V30 1221 H 108.46 2.04035 -0.137782 0
M  V30 1222 H 106.615 3.3256 1.98702 0
M  V30 1223 H 107.029 5.18565 0.786779 0
M  V30 1224 H 108.503 4.93247 2.47812 0
M  V30 1225 H 108.98 3.29156 2.9078 0
M  V30 1226 H 109.586 4.01577 1.40056 0
M  V30 1227 N 107.901 -0.206675 1.56239 0
M  V30 1228 C 109.15 -0.926964 1.79138 0
M  V30 1229 C 109.463 -1.84901 0.638043 0
M  V30 1230 O 110.669 -2.60906 0.751033 0
M  V30 1231 C 109.125 -1.6986 3.17294 0
M  V30 1232 C 108.733 -0.821956 4.40395 0
M  V30 1233 C 110.477 -2.40922 3.4951 0
M  V30 1234 C 108.384 -1.59179 5.69575 0
M  V30 1235 H 107.314 -0.349864 0.667915 0
M  V30 1236 H 109.965 -0.180487 1.8261 0
M  V30 1237 H 108.347 -2.48853 3.08039 0
M  V30 1238 H 109.521 -0.0715019 4.60745 0
M  V30 1239 H 107.836 -0.222741 4.15804 0
M  V30 1240 H 110.433 -2.99047 4.43255 0
M  V30 1241 H 110.776 -3.14542 2.72707 0
M  V30 1242 H 111.309 -1.68905 3.60161 0
M  V30 1243 H 108.048 -0.898589 6.49312 0
M  V30 1244 H 107.568 -2.31648 5.53262 0
M  V30 1245 H 109.247 -2.14862 6.10281 0
M  V30 1246 N 109.379 -1.50304 -0.473955 0
M  V30 1247 C 110.327 -1.69482 -1.59307 0
M  V30 1248 C 111.321 -0.560669 -1.59853 0
M  V30 1249 O 112.527 -0.741087 -1.64036 0
M  V30 1250 H 108.902 -0.534892 -0.528578 0
M  V30 1251 H 110.873 -2.63364 -1.40293 0
M  V30 1252 C 109.622 -1.80354 -2.97267 0
M  V30 1253 H 108.945 -2.67012 -2.97564 0
M  V30 1254 H 110.385 -1.97798 -3.75036 0
M  V30 1255 C 108.844 -0.55448 -3.32306 0
M  V30 1256 O 109.374 0.307661 -4.0052 0
M  V30 1257 N 107.58 -0.409354 -2.87702 0
M  V30 1258 H 107.127 -1.11196 -2.32364 0
M  V30 1259 H 107.085 0.425223 -3.11511 0
M  V30 1260 N 110.857 0.726932 -1.39834 0
M  V30 1261 C 112.103 1.48884 -1.377 0
M  V30 1262 C 112.436 1.94185 0.0244852 0
M  V30 1263 O 111.711 1.67361 0.990986 0
M  V30 1264 C 111.994 2.72288 -2.3565 0
M  V30 1265 C 111.847 2.32956 -3.84775 0
M  V30 1266 C 113.166 3.74414 -2.31306 0
M  V30 1267 H 110.285 0.540062 -0.5015 0
M  V30 1268 H 112.927 0.830547 -1.70886 0
M  V30 1269 H 111.077 3.28457 -2.07481 0
M  V30 1270 H 112.749 1.82356 -4.23726 0
M  V30 1271 H 110.992 1.65088 -4.01159 0
M  V30 1272 H 111.663 3.21362 -4.4881 0
M  V30 1273 H 114.139 3.27849 -2.56231 0
M  V30 1274 H 113.015 4.58414 -3.01907 0
M  V30 1275 H 113.276 4.21909 -1.32081 0
M  V30 1276 N 112.336 1.25143 0.95797 0
M  V30 1277 C 113.566 1.12261 1.73439 0
M  V30 1278 C 113.974 -0.326715 1.86358 0
M  V30 1279 O 113.317 -1.2367 1.35836 0
M  V30 1280 C 113.379 1.69966 3.16784 0
M  V30 1281 C 113.043 3.18936 3.27305 0
M  V30 1282 C 114.04 4.15968 3.11877 0
M  V30 1283 C 111.725 3.59083 3.51234 0
M  V30 1284 C 113.719 5.51126 3.20217 0
M  V30 1285 C 111.406 4.9438 3.5921 0
M  V30 1286 C 112.404 5.90211 3.43716 0
M  V30 1287 O 112.092 7.23046 3.51368 0
M  V30 1288 H 111.824 0.392476 0.550399 0
M  V30 1289 H 114.378 1.65927 1.21068 0
M  V30 1290 H 112.608 1.10744 3.70503 0
M  V30 1291 H 114.297 1.52232 3.76272 0
M  V30 1292 H 115.063 3.86292 2.93264 0
M  V30 1293 H 110.942 2.84989 3.62356 0
M  V30 1294 H 114.486 6.25905 3.0804 0
M  V30 1295 H 110.383 5.23723 3.77339 0
M  V30 1296 H 111.151 7.31097 3.6802 0
M  V30 1297 N 113.814 -1.1601 1.06675 0
M  V30 1298 C 115.225 -1.68235 0.809565 0
M  V30 1299 C 115.576 -1.8454 -0.666303 0
M  V30 1300 O 114.701 -1.54374 -1.5165 0
M  V30 1301 C 115.296 -3.05585 1.46299 0
M  V30 1302 C 113.855 -3.54915 1.25349 0
M  V30 1303 C 113.002 -2.30804 1.53703 0
M  V30 1304 H 115.953 -1.00318 1.22971 0
M  V30 1305 H 115.974 -3.70174 0.880431 0
M  V30 1306 H 115.486 -2.93686 2.53713 0
M  V30 1307 H 113.587 -3.72067 0.199261 0
M  V30 1308 H 113.7 -4.36774 1.9689 0
M  V30 1309 H 112.064 -2.36007 0.957739 0
M  V30 1310 H 112.847 -2.21499 2.62284 0
M  V30 1311 N 115.292 -0.849877 -1.32721 0
M  V30 1312 C 116.24 -0.279745 -2.30912 0
M  V30 1313 C 117.234 0.594278 -1.58634 0
M  V30 1314 O 118.44 0.482613 -1.73409 0
M  V30 1315 H 114.815 -0.0717521 -0.748569 0
M  V30 1316 H 116.786 -1.12222 -2.76494 0
M  V30 1317 C 115.535 0.521108 -3.43773 0
M  V30 1318 H 114.858 -0.142141 -3.99547 0
M  V30 1319 H 116.298 0.885693 -4.14646 0
M  V30 1320 C 114.757 1.70442 -2.90605 0
M  V30 1321 O 115.287 2.8034 -2.87702 0
M  V30 1322 N 113.493 1.52991 -2.47067 0
M  V30 1323 H 113.04 0.635914 -2.49628 0
M  V30 1324 H 112.998 2.32311 -2.11847 0
M  V30 1325 N 116.77 1.45427 -0.607355 0
M  V30 1326 C 118.017 2.02241 -0.102455 0
M  V30 1327 C 118.345 1.4758 1.26691 0
M  V30 1328 O 117.6 0.640468 1.84923 0
M  V30 1329 C 117.899 3.57398 -0.0129263 0
M  V30 1330 C 117.565 4.3121 -1.31792 0
M  V30 1331 C 116.227 4.51092 -1.67539 0
M  V30 1332 C 118.579 4.73401 -2.18039 0
M  V30 1333 C 115.907 5.10422 -2.89285 0
M  V30 1334 C 118.259 5.34078 -3.39034 0
M  V30 1335 C 116.923 5.52184 -3.75033 0
M  V30 1336 H 116.193 0.740051 -0.037491 0
M  V30 1337 H 118.84 1.74494 -0.788926 0
M  V30 1338 H 117.145 3.84421 0.756806 0
M  V30 1339 H 118.842 3.99061 0.393881 0
M  V30 1340 H 115.432 4.16047 -1.02968 0
M  V30 1341 H 119.616 4.57774 -1.91721 0
M  V30 1342 H 114.872 5.22629 -3.17283 0
M  V30 1343 H 119.046 5.65724 -4.06115 0
M  V30 1344 H 116.673 5.97925 -4.69457 0
M  V30 1345 N 118.248 0.346503 1.53744 0
M  V30 1346 C 119.664 -0.00530975 1.59599 0
M  V30 1347 C 119.864 -1.48465 1.36236 0
M  V30 1348 O 118.92 -2.24376 1.15808 0
M  V30 1349 C 120.233 0.433516 2.97559 0
M  V30 1350 C 121.781 0.386111 3.10609 0
M  V30 1351 C 122.256 0.800451 4.50951 0
M  V30 1352 N 123.747 0.754753 4.5701 0
M  V30 1353 C 124.482 1.04727 5.63755 0
M  V30 1354 N 123.978 1.4081 6.7834 0
M  V30 1355 N 125.771 0.971316 5.53644 0
M  V30 1356 H 117.922 1.31009 1.67184 0
M  V30 1357 H 120.185 0.534242 0.783128 0
M  V30 1358 H 119.891 1.46509 3.19731 0
M  V30 1359 H 119.765 -0.189753 3.76722 0
M  V30 1360 H 122.152 -0.636295 2.88158 0
M  V30 1361 H 122.233 1.04462 2.33498 0
M  V30 1362 H 121.877 1.82088 4.74137 0
M  V30 1363 H 121.807 0.119386 5.26465 0
M  V30 1364 H 124.298 0.488662 3.74727 0
M  V30 1365 H 124.611 1.61607 7.55714 0
M  V30 1366 H 122.956 1.44657 6.79779 0
M  V30 1367 H 126.147 0.688748 4.63005 0
M  V30 1368 H 126.32 1.20263 6.36742 0
M  V30 1369 N 119.726 -1.57421 0.075193 0
M  V30 1370 C 121.137 -1.81021 -0.456964 0
M  V30 1371 C 121.488 -0.98936 -1.69429 0
M  V30 1372 O 120.613 -0.212865 -2.15351 0
M  V30 1373 C 121.208 -3.28329 -0.83581 0
M  V30 1374 C 119.767 -3.52764 -1.31281 0
M  V30 1375 C 118.914 -2.75676 -0.299648 0
M  V30 1376 H 121.865 -1.55822 0.300856 0
M  V30 1377 H 121.886 -3.40564 -1.69696 0
M  V30 1378 H 121.398 -3.88046 0.0649238 0
M  V30 1379 H 119.499 -2.98355 -2.23193 0
M  V30 1380 H 119.612 -4.61451 -1.28839 0
M  V30 1381 H 117.976 -2.42538 -0.777641 0
M  V30 1382 H 118.759 -3.38132 0.593417 0
M  V30 1383 N 121.204 0.198386 -1.56346 0
M  V30 1384 C 122.432 0.935572 -1.84539 0
M  V30 1385 C 122.847 1.76989 -0.657281 0
M  V30 1386 O 122.204 1.78626 0.374043 0
M  V30 1387 C 122.255 1.8344 -3.11499 0
M  V30 1388 O 121.976 1.03377 -4.25728 0
M  V30 1389 C 123.477 2.68355 -3.52846 0
M  V30 1390 H 120.697 0.273126 -0.612897 0
M  V30 1391 H 123.241 0.20663 -2.03453 0
M  V30 1392 H 121.396 2.51701 -2.94492 0
M  V30 1393 H 121.81 1.64599 -4.98003 0
M  V30 1394 H 123.284 3.27085 -4.44657 0
M  V30 1395 H 123.761 3.41901 -2.75681 0
M  V30 1396 H 124.367 2.05471 -3.72373 0
M  V30 1397 N 122.682 1.50554 0.465978 0
M  V30 1398 C 124.093 1.54599 1.04671 0
M  V30 1399 C 124.444 0.352488 1.93008 0
M  V30 1400 O 123.569 -0.534044 2.09707 0
M  V30 1401 C 124.164 2.80166 1.90505 0
M  V30 1402 C 122.723 2.86876 2.43678 0
M  V30 1403 C 121.87 2.48947 1.22151 0
M  V30 1404 H 124.821 1.56744 0.248384 0
M  V30 1405 H 124.842 2.62311 2.75633 0
M  V30 1406 H 124.354 3.67013 1.26186 0
M  V30 1407 H 122.455 2.04393 3.11536 0
M  V30 1408 H 122.568 3.89885 2.78436 0
M  V30 1409 H 120.932 2.01498 1.5579 0
M  V30 1410 H 121.715 3.38107 0.594866 0
M  V30 1411 N 124.16 -0.719506 1.40217 0
M  V30 1412 C 125.107 -1.83359 1.40172 0
M  V30 1413 C 126.077 -1.64065 0.259206 0
M  V30 1414 O 127.262 -1.85254 0.456677 0
M  V30 1415 C 124.402 -3.2103 1.26624 0
M  V30 1416 C 123.515 -3.51923 2.50548 0
M  V30 1417 C 122.65 -4.79079 2.29471 0
M  V30 1418 C 121.689 -5.02863 3.48992 0
M  V30 1419 N 120.826 -6.2123 3.27135 0
M  V30 1420 H 125.666 -1.82733 2.35399 0
M  V30 1421 H 123.203 -0.892688 1.16917 0
M  V30 1422 H 125.161 -4.00524 1.16776 0
M  V30 1423 H 123.791 -3.20895 0.350176 0
M  V30 1424 H 122.843 -2.67014 2.70939 0
M  V30 1425 H 124.155 -3.6541 3.39525 0
M  V30 1426 H 123.309 -5.66582 2.16955 0
M  V30 1427 H 122.048 -4.67794 1.37913 0
M  V30 1428 H 121.053 -4.13816 3.6199 0
M  V30 1429 H 122.278 -5.16023 4.41472 0
M  V30 1430 H 120.224 -6.11204 2.38256 0
M  V30 1431 H 120.141 -6.35375 4.09675 0
M  V30 1432 H 121.409 -7.11532 3.18344 0
M  V30 1433 N 125.638 -1.25649 -0.95132 0
M  V30 1434 C 126.586 -1.06118 -2.06982 0
M  V30 1435 C 127.58 0.00889169 -1.69398 0
M  V30 1436 O 128.786 -0.146988 -1.79399 0
M  V30 1437 H 125.161 -0.326248 -0.677544 0
M  V30 1438 H 127.132 -2.00932 -2.2061 0
M  V30 1439 C 125.881 -0.700145 -3.40578 0
M  V30 1440 H 125.204 -1.51537 -3.69968 0
M  V30 1441 H 126.644 -0.603211 -4.19687 0
M  V30 1442 C 125.103 0.59403 -3.31622 0
M  V30 1443 O 125.633 1.63522 -3.66911 0
M  V30 1444 N 123.839 0.58089 -2.84735 0
M  V30 1445 H 123.386 -0.266783 -2.56215 0
M  V30 1446 H 123.344 1.44695 -2.79125 0
M  V30 1447 N 127.117 1.15442 -1.07289 0
M  V30 1448 C 128.342 1.90638 -0.816828 0
M  V30 1449 C 128.767 1.77445 0.624083 0
M  V30 1450 O 128.125 1.10671 1.43602 0
M  V30 1451 C 128.173 3.39008 -1.22906 0
M  V30 1452 O 127.277 4.10701 -0.373975 0
M  V30 1453 H 126.618 0.593555 -0.297638 0
M  V30 1454 H 129.148 1.46198 -1.43134 0
M  V30 1455 H 129.158 3.89801 -1.20497 0
M  V30 1456 H 127.833 3.47929 -2.27856 0
M  V30 1457 H 126.41 3.70046 -0.460499 0
M  V30 1458 N 128.595 0.856903 1.32268 0
M  V30 1459 C 129.525 0.31858 2.31316 0
M  V30 1460 C 130.506 -0.583487 1.59779 0
M  V30 1461 O 131.691 -0.503259 1.87566 0
M  V30 1462 C 128.821 -0.491979 3.43798 0
M  V30 1463 C 127.775 0.315849 4.26833 0
M  V30 1464 C 127.101 -0.619586 5.31098 0
M  V30 1465 C 128.401 1.54282 4.98993 0
M  V30 1466 H 130.095 1.14621 2.76591 0
M  V30 1467 H 127.641 0.552613 1.32974 0
M  V30 1468 H 129.594 -0.879012 4.1213 0
M  V30 1469 H 128.318 -1.35299 2.97257 0
M  V30 1470 H 126.977 0.684664 3.6015 0
M  V30 1471 H 126.625 -1.47751 4.8081 0
M  V30 1472 H 126.325 -0.0830621 5.87541 0
M  V30 1473 H 127.849 -1.00375 6.02293 0
M  V30 1474 H 129.263 1.22796 5.59995 0
M  V30 1475 H 127.66 2.01745 5.65172 0
M  V30 1476 H 128.73 2.30285 4.26728 0
M  V30 1477 N 130.073 -1.45103 0.615059 0
M  V30 1478 C 131.006 -2.27717 -0.148408 0
M  V30 1479 C 131.984 -1.37584 -0.866572 0
M  V30 1480 O 133.168 -1.67017 -0.87393 0
M  V30 1481 C 130.295 -3.16136 -1.21557 0
M  V30 1482 C 129.341 -4.22263 -0.599712 0
M  V30 1483 S 130.174 -5.3215 0.598081 0
M  V30 1484 C 131.33 -6.24137 -0.469484 0
M  V30 1485 H 131.563 -2.92121 0.552483 0
M  V30 1486 H 129.096 -1.49054 0.402778 0
M  V30 1487 H 131.054 -3.67633 -1.82638 0
M  V30 1488 H 129.715 -2.50982 -1.88857 0
M  V30 1489 H 128.908 -4.84081 -1.4029 0
M  V30 1490 H 128.51 -3.73945 -0.063876 0
M  V30 1491 H 130.802 -6.63984 -1.34652 0
M  V30 1492 H 131.745 -7.0801 0.112725 0
M  V30 1493 H 132.153 -5.58971 -0.788168 0
M  V30 1494 N 131.551 -0.354651 -1.53558 0
M  V30 1495 C 132.799 0.237972 -2.00694 0
M  V30 1496 C 133.12 1.50173 -1.24391 0
M  V30 1497 O 132.39 1.92673 -0.354135 0
M  V30 1498 H 130.97 0.0909256 -0.741446 0
M  V30 1499 H 133.632 -0.478368 -1.88938 0
M  V30 1500 H 132.728 0.47264 -3.085 0
M  V30 1501 N 133.029 1.57378 -0.0835403 0
M  V30 1502 C 133.992 2.12252 0.864959 0
M  V30 1503 C 134.992 1.04916 1.21858 0
M  V30 1504 O 136.182 1.30853 1.14991 0
M  V30 1505 C 133.314 2.63358 2.16461 0
M  V30 1506 H 134.507 2.97371 0.388676 0
M  V30 1507 H 132.06 1.55423 0.165317 0
M  V30 1508 H 132.795 1.81727 2.686 0
M  V30 1509 H 132.58 3.41826 1.92087 0
M  V30 1510 H 134.07 3.05847 2.84337 0
M  V30 1511 N 134.507 -0.190092 1.56449 0
M  V30 1512 C 135.437 -1.23816 1.97969 0
M  V30 1513 C 136.418 -1.47201 0.852395 0
M  V30 1514 O 137.603 -1.58854 1.1171 0
M  V30 1515 C 134.733 -2.5813 2.3235 0
M  V30 1516 C 133.687 -2.49348 3.47864 0
M  V30 1517 C 133.013 -3.8798 3.67934 0
M  V30 1518 C 134.313 -2.01424 4.81898 0
M  V30 1519 H 136.007 -0.89311 2.85769 0
M  V30 1520 H 133.553 -0.428177 1.37487 0
M  V30 1521 H 135.506 -3.31637 2.59991 0
M  V30 1522 H 134.23 -2.94386 1.41438 0
M  V30 1523 H 132.889 -1.78297 3.20321 0
M  V30 1524 H 132.537 -4.21597 2.74344 0
M  V30 1525 H 132.237 -3.82978 4.45648 0
M  V30 1526 H 133.761 -4.63101 3.97957 0
M  V30 1527 H 135.175 -2.64693 5.08538 0
M  V30 1528 H 133.572 -2.07413 5.63116 0
M  V30 1529 H 134.642 -0.967677 4.75146 0
M  V30 1530 N 135.985 -1.50799 -0.457987 0
M  V30 1531 C 137.225 -1.64088 -1.21879 0
M  V30 1532 C 137.589 -0.339848 -1.88968 0
M  V30 1533 O 138.79 -0.348301 -2.66534 0
M  V30 1534 C 137.061 -2.79726 -2.2246 0
M  V30 1535 S 138.62 -3.13225 -3.07303 0
M  V30 1536 H 135.438 -0.578314 -0.41361 0
M  V30 1537 H 138.04 -1.88632 -0.513645 0
M  V30 1538 H 136.744 -3.72722 -1.71775 0
M  V30 1539 H 136.275 -2.57308 -2.97584 0
M  V30 1540 H 138.29 -2.58062 -4.23814 0
M  V30 1541 N 137.463 0.71206 -1.40597 0
M  V30 1542 C 138.711 1.46907 -1.38791 0
M  V30 1543 C 139.032 1.94998 0.00780391 0
M  V30 1544 O 138.302 1.70587 0.963174 0
M  V30 1545 H 136.882 0.545043 -0.51082 0
M  V30 1546 H 139.544 0.843882 -1.75683 0
M  V30 1547 H 138.64 2.34021 -2.06496 0
M  V30 1548 N 138.941 1.26152 0.944643 0
M  V30 1549 C 140.188 1.11492 1.69044 0
M  V30 1550 C 140.516 -0.342366 1.91463 0
M  V30 1551 O 139.771 -1.26812 1.49054 0
M  V30 1552 C 140.07 1.82541 3.07268 0
M  V30 1553 C 139.736 3.32445 3.04616 0
M  V30 1554 C 138.398 3.73337 3.036 0
M  V30 1555 C 140.75 4.28171 2.97185 0
M  V30 1556 C 138.078 5.08348 2.92915 0
M  V30 1557 C 140.43 5.63218 2.88041 0
M  V30 1558 C 139.094 6.03426 2.85366 0
M  V30 1559 H 138.364 0.407977 0.618576 0
M  V30 1560 H 141.011 1.56551 1.10291 0
M  V30 1561 H 139.316 1.29941 3.69625 0
M  V30 1562 H 141.013 1.68642 3.63815 0
M  V30 1563 H 137.603 2.99915 3.06185 0
M  V30 1564 H 141.787 3.97563 2.97081 0
M  V30 1565 H 137.043 5.38667 2.89219 0
M  V30 1566 H 141.217 6.37078 2.81254 0
M  V30 1567 H 138.844 7.07999 2.76842 0
M  V30 1568 N 140.419 -1.14872 1.07899 0
M  V30 1569 C 141.667 -1.85422 0.803941 0
M  V30 1570 C 141.988 -1.83051 -0.67211 0
M  V30 1571 O 141.258 -1.27532 -1.48703 0
M  V30 1572 H 139.838 -0.686537 0.294408 0
M  V30 1573 H 142.5 -1.39226 1.3639 0
M  V30 1574 H 141.596 -2.90399 1.14346 0
M  V30 1575 N 141.898 -0.863906 -1.31812 0
M  V30 1576 C 143.309 -0.52522 -1.7916 0
M  V30 1577 C 143.66 0.957518 -1.71248 0
M  V30 1578 O 142.785 1.74734 -1.27659 0
M  V30 1579 C 143.38 -0.9466 -3.25307 0
M  V30 1580 C 141.939 -0.659668 -3.70574 0
M  V30 1581 C 141.086 -1.14126 -2.52726 0
M  V30 1582 H 144.037 -1.05022 -1.1898 0
M  V30 1583 H 144.058 -0.266766 -3.79564 0
M  V30 1584 H 143.57 -2.02579 -3.31034 0
M  V30 1585 H 141.671 0.408416 -3.70355 0
M  V30 1586 H 141.784 -1.23245 -4.62977 0
M  V30 1587 H 140.148 -0.561216 -2.4844 0
M  V30 1588 H 140.931 -2.22775 -2.61201 0
M  V30 1589 N 143.376 1.44774 -0.622745 0
M  V30 1590 C 144.306 2.33382 0.0741861 0
M  V30 1591 C 145.287 1.47719 0.843387 0
M  V30 1592 O 146.472 1.76458 0.810934 0
M  V30 1593 C 143.602 3.30663 1.06204 0
M  V30 1594 C 142.556 4.26079 0.405037 0
M  V30 1595 C 141.882 5.13165 1.5022 0
M  V30 1596 C 143.182 5.1781 -0.683414 0
M  V30 1597 H 144.876 2.91905 -0.665713 0
M  V30 1598 H 142.422 1.40363 -0.321587 0
M  V30 1599 H 144.375 3.9153 1.55827 0
M  V30 1600 H 143.099 2.70331 1.83272 0
M  V30 1601 H 141.758 3.66532 -0.0704683 0
M  V30 1602 H 141.406 4.49191 2.26355 0
M  V30 1603 H 141.106 5.77812 1.06803 0
M  V30 1604 H 142.63 5.76902 2.00041 0
M  V30 1605 H 144.044 5.72661 -0.270631 0
M  V30 1606 H 142.441 5.91015 -1.04023 0
M  V30 1607 H 143.511 4.59326 -1.55395 0
M  V30 1608 N 144.854 0.36279 1.53368 0
M  V30 1609 C 146.103 -0.22888 2.00397 0
M  V30 1610 C 146.416 -1.50096 1.25421 0
M  V30 1611 O 147.622 -2.17106 1.63025 0
M  V30 1612 C 146.078 -0.458417 3.56969 0
M  V30 1613 C 145.686 0.798877 4.4082 0
M  V30 1614 C 147.43 -1.00789 4.12361 0
M  V30 1615 C 145.337 0.539078 5.88938 0
M  V30 1616 H 144.267 -0.089305 0.748693 0
M  V30 1617 H 146.918 0.481099 1.77081 0
M  V30 1618 H 145.3 -1.22959 3.76427 0
M  V30 1619 H 146.474 1.57262 4.33134 0
M  V30 1620 H 144.789 1.27137 3.96516 0
M  V30 1621 H 147.386 -1.21754 5.20653 0
M  V30 1622 H 147.729 -1.9692 3.66781 0
M  V30 1623 H 148.262 -0.296961 3.9669 0
M  V30 1624 H 145.001 1.47064 6.3879 0
M  V30 1625 H 144.521 -0.196222 5.99479 0
M  V30 1626 H 146.2 0.163542 6.46793 0
M  V30 1627 N 146.332 -1.57332 0.0918853 0
M  V30 1628 C 147.579 -1.94236 -0.572577 0
M  V30 1629 C 147.907 -0.973398 -1.6839 0
M  V30 1630 O 147.162 0.00756912 -1.95699 0
M  V30 1631 C 147.461 -3.37689 -1.17051 0
M  V30 1632 C 147.127 -4.50527 -0.183304 0
M  V30 1633 C 145.789 -4.81119 0.0882276 0
M  V30 1634 C 148.141 -5.18883 0.49095 0
M  V30 1635 C 145.469 -5.77395 1.04076 0
M  V30 1636 C 147.821 -6.1618 1.43193 0
M  V30 1637 C 146.485 -6.45179 1.71173 0
M  V30 1638 H 145.755 -0.710762 -0.209521 0
M  V30 1639 H 148.402 -1.9077 0.167036 0
M  V30 1640 H 146.707 -3.37718 -1.9863 0
M  V30 1641 H 148.404 -3.63543 -1.69227 0
M  V30 1642 H 144.994 -4.26681 -0.405124 0
M  V30 1643 H 149.178 -4.95427 0.294312 0
M  V30 1644 H 144.434 -5.98179 1.26457 0
M  V30 1645 H 148.608 -6.68243 1.96023 0
M  V30 1646 H 146.235 -7.1959 2.4514 0
M  V30 1647 N 147.81 0.181792 -1.56548 0
M  V30 1648 C 149.059 0.898348 -1.8059 0
M  V30 1649 C 149.372 1.83862 -0.667379 0
M  V30 1650 O 150.578 2.59678 -0.792446 0
M  V30 1651 C 149.034 1.64791 -3.19956 0
M  V30 1652 C 148.642 0.751789 -4.41647 0
M  V30 1653 C 150.386 2.35331 -3.53298 0
M  V30 1654 C 148.293 1.50098 -5.72035 0
M  V30 1655 H 147.223 0.339194 -0.673397 0
M  V30 1656 H 149.874 0.151413 -1.82874 0
M  V30 1657 H 148.256 2.43921 -3.11959 0
M  V30 1658 H 149.43 -0.0018076 -4.608 0
M  V30 1659 H 147.745 0.156562 -4.16106 0
M  V30 1660 H 150.342 2.91958 -4.47956 0
M  V30 1661 H 150.685 3.10164 -2.77676 0
M  V30 1662 H 151.218 1.63154 -3.62803 0
M  V30 1663 H 147.957 0.795175 -6.50659 0
M  V30 1664 H 147.477 2.22817 -5.56878 0
M  V30 1665 H 149.156 2.05125 -6.13622 0
M  V30 1666 N 149.288 1.51039 0.449983 0
M  V30 1667 C 150.518 1.66627 1.22143 0
M  V30 1668 C 150.926 0.357776 1.85786 0
M  V30 1669 O 150.269 -0.672424 1.70951 0
M  V30 1670 C 150.331 2.71562 2.35573 0
M  V30 1671 C 149.995 4.14526 1.92399 0
M  V30 1672 C 150.992 4.99717 1.43453 0
M  V30 1673 C 148.677 4.60559 2.00475 0
M  V30 1674 C 150.671 6.28998 1.03155 0
M  V30 1675 C 148.358 5.8984 1.59788 0
M  V30 1676 C 149.356 6.73886 1.11208 0
M  V30 1677 O 149.044 8.0075 0.710935 0
M  V30 1678 H 148.776 0.562635 0.374724 0
M  V30 1679 H 151.33 1.98146 0.541036 0
M  V30 1680 H 149.56 2.3533 3.06849 0
M  V30 1681 H 151.249 2.76156 2.97478 0
M  V30 1682 H 152.015 4.65361 1.36618 0
M  V30 1683 H 147.894 3.95273 2.37235 0
M  V30 1684 H 151.438 6.9455 0.651663 0
M  V30 1685 H 147.335 6.23713 1.66289 0
M  V30 1686 H 148.103 8.142 0.837913 0
M  V30 1687 N 150.766 -0.704594 1.40972 0
M  V30 1688 C 151.996 -1.49138 1.42974 0
M  V30 1689 C 152.404 -1.89175 0.0308406 0
M  V30 1690 O 151.747 -1.56734 -0.958138 0
M  V30 1691 C 151.809 -2.79016 2.26694 0
M  V30 1692 C 151.473 -2.61236 3.74973 0
M  V30 1693 C 152.47 -2.27773 4.67349 0
M  V30 1694 C 150.155 -2.77158 4.18914 0
M  V30 1695 C 152.149 -2.10457 6.01653 0
M  V30 1696 C 149.836 -2.59459 5.53285 0
M  V30 1697 C 150.834 -2.26158 6.4447 0
M  V30 1698 O 150.522 -2.08605 7.76363 0
M  V30 1699 H 150.254 -0.466443 0.489292 0
M  V30 1700 H 152.808 -0.8758 1.85793 0
M  V30 1701 H 151.038 -3.42947 1.78673 0
M  V30 1702 H 152.727 -3.40782 2.20504 0
M  V30 1703 H 153.493 -2.15095 4.34694 0
M  V30 1704 H 149.372 -3.02064 3.48251 0
M  V30 1705 H 152.916 -1.84387 6.72791 0
M  V30 1706 H 148.813 -2.71725 5.85522 0
M  V30 1707 H 149.581 -2.23439 7.87412 0
M  V30 1708 N 152.244 -1.26651 -0.937939 0
M  V30 1709 C 153.493 -1.11775 -1.67897 0
M  V30 1710 C 153.806 0.33794 -1.92659 0
M  V30 1711 O 155.012 0.607434 -2.64618 0
M  V30 1712 C 153.468 -1.9523 -3.02346 0
M  V30 1713 C 153.076 -3.45393 -2.8532 0
M  V30 1714 C 154.82 -1.88972 -3.80118 0
M  V30 1715 C 152.727 -4.21083 -4.15263 0
M  V30 1716 H 151.657 -0.414696 -0.629717 0
M  V30 1717 H 154.308 -1.50988 -1.04283 0
M  V30 1718 H 152.69 -1.48853 -3.66959 0
M  V30 1719 H 153.864 -3.99561 -2.29537 0
M  V30 1720 H 152.179 -3.52921 -2.20988 0
M  V30 1721 H 154.776 -2.42805 -4.76392 0
M  V30 1722 H 155.119 -0.86113 -4.07296 0
M  V30 1723 H 155.652 -2.33189 -3.22285 0
M  V30 1724 H 152.391 -5.24425 -3.93267 0
M  V30 1725 H 151.911 -3.71695 -4.70747 0
M  V30 1726 H 153.59 -4.29706 -4.83696 0
M  V30 1727 N 153.722 1.14298 -1.08507 0
M  V30 1728 C 154.971 1.84708 -0.810305 0
M  V30 1729 C 155.284 1.83903 0.666271 0
M  V30 1730 O 156.49 2.50112 1.05624 0
M  V30 1731 C 154.946 3.31572 -1.39957 0
M  V30 1732 C 154.554 3.40791 -2.90801 0
M  V30 1733 C 156.298 4.07087 -1.20334 0
M  V30 1734 C 154.205 4.81872 -3.4286 0
M  V30 1735 H 153.135 0.691985 -0.299454 0
M  V30 1736 H 155.786 1.28841 -1.30661 0
M  V30 1737 H 154.168 3.87183 -0.830976 0
M  V30 1738 H 155.342 2.95225 -3.53806 0
M  V30 1739 H 153.657 2.78732 -3.0935 0
M  V30 1740 H 156.254 5.11225 -1.56693 0
M  V30 1741 H 156.597 4.16054 -0.143237 0
M  V30 1742 H 157.13 3.57779 -1.73893 0
M  V30 1743 H 153.869 4.78094 -4.48449 0
M  V30 1744 H 153.389 5.27972 -2.84615 0
M  V30 1745 H 155.068 5.50765 -3.39509 0
M  V30 1746 N 155.201 0.870884 1.31352 0
M  V30 1747 C 156.148 0.325425 2.28494 0
M  V30 1748 C 157.118 -0.576615 1.5577 0
M  V30 1749 O 158.303 -0.508059 1.83911 0
M  V30 1750 C 155.443 -0.466283 3.41935 0
M  V30 1751 C 154.556 0.463378 4.29508 0
M  V30 1752 C 153.691 -0.342544 5.30094 0
M  V30 1753 C 152.73 0.583486 6.09313 0
M  V30 1754 N 151.867 -0.186244 7.01853 0
M  V30 1755 H 156.707 1.15901 2.74538 0
M  V30 1756 H 154.244 0.58294 1.35056 0
M  V30 1757 H 156.202 -0.941085 4.06447 0
M  V30 1758 H 154.832 -1.26456 2.97 0
M  V30 1759 H 153.884 1.05663 3.65431 0
M  V30 1760 H 155.196 1.1734 4.84802 0
M  V30 1761 H 154.35 -0.879816 6.00287 0
M  V30 1762 H 153.089 -1.08585 4.75458 0
M  V30 1763 H 152.094 1.13251 5.3801 0
M  V30 1764 H 153.319 1.32566 6.66035 0
M  V30 1765 H 151.265 -0.912348 6.49625 0
M  V30 1766 H 151.182 0.464422 7.54572 0
M  V30 1767 H 152.45 -0.704716 7.76308 0
M  V30 1768 N 156.679 -1.44442 0.630414 0
M  V30 1769 C 157.907 -2.06414 0.141671 0
M  V30 1770 C 158.322 -1.47105 -1.18345 0
M  V30 1771 O 157.679 -0.593662 -1.72574 0
M  V30 1772 C 157.73 -3.61494 0.0199784 0
M  V30 1773 O 157.451 -4.18594 1.29269 0
M  V30 1774 C 158.952 -4.40499 -0.497544 0
M  V30 1775 H 156.172 -0.666292 0.0793452 0
M  V30 1776 H 158.716 -1.85323 0.864614 0
M  V30 1777 H 156.871 -3.8185 -0.653402 0
M  V30 1778 H 157.285 -5.12026 1.13707 0
M  V30 1779 H 158.759 -5.49433 -0.531708 0
M  V30 1780 H 159.236 -4.11895 -1.52445 0
M  V30 1781 H 159.842 -4.25061 0.142562 0
M  V30 1782 N 158.157 -0.370918 -1.53173 0
M  V30 1783 C 159.067 0.480823 -2.2962 0
M  V30 1784 C 160.083 1.08789 -1.35798 0
M  V30 1785 O 161.259 1.09768 -1.68858 0
M  V30 1786 C 158.324 1.60227 -3.07454 0
M  V30 1787 C 157.385 1.0222 -4.16953 0
M  V30 1788 C 156.618 2.0902 -4.91066 0
M  V30 1789 O 156.841 3.30222 -4.65091 0
M  V30 1790 O 155.775 1.71778 -5.76867 0
M  V30 1791 H 159.601 -0.141421 -3.03371 0
M  V30 1792 H 157.186 -0.135146 -1.48787 0
M  V30 1793 H 159.068 2.25417 -3.56041 0
M  V30 1794 H 157.743 2.20982 -2.36535 0
M  V30 1795 H 156.65 0.334064 -3.72605 0
M  V30 1796 H 157.983 0.459131 -4.90054 0
M  V30 1797 N 159.635 1.57281 -0.100228 0
M  V30 1798 C 161.051 1.57527 0.256416 0
M  V30 1799 C 161.251 1.11173 1.68056 0
M  V30 1800 O 160.307 0.79053 2.39806 0
M  V30 1801 C 161.62 3.00673 0.0401747 0
M  V30 1802 C 163.168 3.12815 0.107528 0
M  V30 1803 C 163.643 4.57929 -0.0807834 0
M  V30 1804 N 165.134 4.63193 -0.0261207 0
M  V30 1805 C 165.869 5.73212 -0.146999 0
M  V30 1806 N 165.365 6.92047 -0.322999 0
M  V30 1807 N 167.158 5.62031 -0.0879044 0
M  V30 1808 H 159.309 1.85718 -1.03065 0
M  V30 1809 H 161.572 0.857446 -0.404339 0
M  V30 1810 H 161.278 3.38804 -0.943649 0
M  V30 1811 H 161.152 3.69042 0.780262 0
M  V30 1812 H 163.539 2.74554 1.08186 0
M  V30 1813 H 163.62 2.47028 -0.664134 0
M  V30 1814 H 163.264 4.96886 -1.05201 0
M  V30 1815 H 163.194 5.21783 0.710635 0
M  V30 1816 H 165.685 3.77748 0.107161 0
M  V30 1817 H 165.998 7.7173 -0.406608 0
M  V30 1818 H 164.343 6.94074 -0.358733 0
M  V30 1819 H 167.534 4.68075 0.048498 0
M  V30 1820 H 167.707 6.47734 -0.185557 0
M  V30 1821 N 161.113 -0.173488 1.56642 0
M  V30 1822 C 162.39 -0.917617 1.7274 0
M  V30 1823 C 162.77 -2.00484 0.661027 0
M  V30 1824 O 162.118 -2.26184 -0.32453 0
M  V30 1825 C 162.328 -1.48433 3.15862 0
M  V30 1826 C 163.676 -1.95809 3.76754 0
M  V30 1827 O 164.7 -1.58231 3.19126 0
M  V30 1828 O 163.559 -2.65024 4.77938 0
M  V30 1829 H 160.653 -0.431772 0.705338 0
M  V30 1830 H 163.199 -0.161487 1.6893 0
M  V30 1831 H 161.971 -0.701715 3.84957 0
M  V30 1832 H 161.594 -2.30471 3.23989 0
M  V30 1833 N 162.591 -1.51276 -0.441967 0
M  V30 1834 C 164.007 -1.39349 -0.778083 0
M  V30 1835 C 164.207 -0.472212 -1.95889 0
M  V30 1836 O 163.263 0.0743551 -2.5239 0
M  V30 1837 C 164.576 -2.81292 -1.0628 0
M  V30 1838 C 166.124 -2.9041 -1.16751 0
M  V30 1839 C 166.599 -4.33251 -1.48519 0
M  V30 1840 N 168.09 -4.36336 -1.55453 0
M  V30 1841 C 168.825 -5.43885 -1.81596 0
M  V30 1842 N 168.321 -6.61601 -2.05562 0
M  V30 1843 N 170.114 -5.3136 -1.8334 0
M  V30 1844 H 162.265 -2.09729 0.335774 0
M  V30 1845 H 164.528 -0.943925 0.0878028 0
M  V30 1846 H 164.234 -3.50678 -0.267905 0
M  V30 1847 H 164.108 -3.20334 -1.99163 0
M  V30 1848 H 166.495 -2.21225 -1.95304 0
M  V30 1849 H 166.576 -2.54871 -0.217801 0
M  V30 1850 H 166.22 -5.02984 -0.704958 0
M  V30 1851 H 166.15 -4.66299 -2.44689 0
M  V30 1852 H 168.641 -3.51466 -1.38853 0
M  V30 1853 H 168.954 -7.39361 -2.24867 0
M  V30 1854 H 167.299 -6.64725 -2.02894 0
M  V30 1855 H 170.49 -4.38382 -1.64132 0
M  V30 1856 H 170.663 -6.15258 -2.03377 0
M  V30 1857 N 164.069 0.697108 -1.41344 0
M  V30 1858 C 165.016 1.81106 -1.43071 0
M  V30 1859 C 165.986 1.63632 -0.285275 0
M  V30 1860 O 167.171 1.84504 -0.486091 0
M  V30 1861 C 164.311 3.18975 -1.31715 0
M  V30 1862 C 163.424 3.47892 -2.56115 0
M  V30 1863 C 162.559 4.75367 -2.37064 0
M  V30 1864 C 161.598 4.97247 -3.56948 0
M  V30 1865 N 160.735 6.15947 -3.36977 0
M  V30 1866 H 165.575 1.78965 -2.38276 0
M  V30 1867 H 163.112 0.873975 -1.18322 0
M  V30 1868 H 165.07 3.98615 -1.23133 0
M  V30 1869 H 163.7 3.20297 -0.401183 0
M  V30 1870 H 162.752 2.62669 -2.75153 0
M  V30 1871 H 164.064 3.59962 -3.45295 0
M  V30 1872 H 163.218 5.63059 -2.25941 0
M  V30 1873 H 161.957 4.65541 -1.45338 0
M  V30 1874 H 160.962 4.08004 -3.68527 0
M  V30 1875 H 162.187 5.08934 -4.49626 0
M  V30 1876 H 160.133 6.07336 -2.47949 0
M  V30 1877 H 160.05 6.28777 -4.19732 0
M  V30 1878 H 161.318 7.06377 -3.29623 0
M  V30 1879 N 165.547 1.27147 0.931209 0
M  V30 1880 C 166.457 1.11372 2.06478 0
M  V30 1881 C 167.473 0.044645 1.73943 0
M  V30 1882 O 168.649 0.250417 1.99837 0
M  V30 1883 C 165.714 0.758838 3.38294 0
M  V30 1884 C 164.775 1.90841 3.84549 0
M  V30 1885 C 164.008 1.57036 5.10074 0
M  V30 1886 O 164.231 0.476645 5.68405 0
M  V30 1887 O 163.165 2.40839 5.51616 0
M  V30 1888 H 166.991 2.06493 2.22698 0
M  V30 1889 H 164.576 1.06301 1.04978 0
M  V30 1890 H 166.458 0.574098 4.17471 0
M  V30 1891 H 165.133 -0.162879 3.2329 0
M  V30 1892 H 164.04 2.14819 3.06274 0
M  V30 1893 H 165.373 2.81021 4.04089 0
M  V30 1894 N 167.025 -1.13721 1.09112 0
M  V30 1895 C 167.972 -2.19031 0.727591 0
M  V30 1896 C 168.942 -1.63555 -0.289656 0
M  V30 1897 O 170.127 -1.90023 -0.172026 0
M  V30 1898 C 167.267 -3.4477 0.15082 0
M  V30 1899 C 166.38 -4.14365 1.22172 0
M  V30 1900 C 165.515 -5.27709 0.608042 0
M  V30 1901 C 164.554 -5.89147 1.66047 0
M  V30 1902 N 163.691 -6.93929 1.06806 0
M  V30 1903 H 168.531 -2.49475 1.62991 0
M  V30 1904 H 166.068 -1.22499 0.81439 0
M  V30 1905 H 168.026 -4.16714 -0.201358 0
M  V30 1906 H 166.656 -3.14787 -0.714783 0
M  V30 1907 H 165.708 -3.40737 1.69122 0
M  V30 1908 H 167.02 -4.56114 2.01895 0
M  V30 1909 H 166.174 -6.06355 0.204523 0
M  V30 1910 H 164.913 -4.872 -0.220769 0
M  V30 1911 H 163.918 -5.09198 2.07357 0
M  V30 1912 H 165.143 -6.31729 2.49189 0
M  V30 1913 H 163.089 -6.55483 0.260476 0
M  V30 1914 H 163.006 -7.34202 1.8023 0
M  V30 1915 H 164.274 -7.76434 0.690644 0
M  V30 1916 N 168.503 -0.877838 -1.30888 0
M  V30 1917 C 169.433 -0.35534 -2.3078 0
M  V30 1918 C 170.414 0.557994 -1.60687 0
M  V30 1919 O 171.599 0.473355 -1.88343 0
M  V30 1920 C 168.729 0.437221 -3.44537 0
M  V30 1921 C 167.683 -0.383715 -4.26276 0
M  V30 1922 C 167.009 0.535014 -5.32017 0
M  V30 1923 C 168.309 -1.62201 -4.96476 0
M  V30 1924 H 170.003 -1.19007 -2.74732 0
M  V30 1925 H 167.549 -0.573698 -1.32078 0
M  V30 1926 H 169.502 0.813334 -4.13477 0
M  V30 1927 H 168.226 1.30553 -2.99372 0
M  V30 1928 H 166.885 -0.741874 -3.59015 0
M  V30 1929 H 166.533 1.40083 -4.831 0
M  V30 1930 H 166.233 -0.0104211 -5.87599 0
M  V30 1931 H 167.757 0.907799 -6.03814 0
M  V30 1932 H 169.171 -1.31689 -5.5797 0
M  V30 1933 H 167.568 -2.10711 -5.61891 0
M  V30 1934 H 168.638 -2.37044 -4.23011 0
M  V30 1935 N 169.982 1.44106 -0.638065 0
M  V30 1936 C 171.231 2.01194 -0.142744 0
M  V30 1937 C 171.544 1.50835 1.24532 0
M  V30 1938 O 172.75 2.00096 1.83504 0
M  V30 1939 C 171.206 3.59319 -0.20442 0
M  V30 1940 C 170.814 4.18674 -1.59423 0
M  V30 1941 C 172.558 4.23854 0.234079 0
M  V30 1942 C 170.465 5.69045 -1.61065 0
M  V30 1943 H 169.395 0.752367 -0.0495998 0
M  V30 1944 H 172.046 1.65246 -0.797881 0
M  V30 1945 H 170.428 3.92598 0.517946 0
M  V30 1946 H 171.602 3.96921 -2.34074 0
M  V30 1947 H 169.917 3.66453 -1.97741 0
M  V30 1948 H 172.514 5.34155 0.241443 0
M  V30 1949 H 172.857 3.96688 1.2627 0
M  V30 1950 H 173.39 3.95403 -0.436025 0
M  V30 1951 H 170.129 6.00956 -2.61787 0
M  V30 1952 H 169.649 5.929 -0.90718 0
M  V30 1953 H 171.328 6.32809 -1.34766 0
M  V30 1954 N 171.46 0.379036 1.52974 0
M  V30 1955 C 172.392 -0.495963 2.2377 0
M  V30 1956 C 173.405 -1.03517 1.25651 0
M  V30 1957 O 174.594 -0.939249 1.51791 0
M  V30 1958 C 171.694 -1.69894 2.93239 0
M  V30 1959 C 170.867 -1.2889 4.17979 0
M  V30 1960 C 169.926 -2.35543 4.70538 0
M  V30 1961 O 168.952 -1.97375 5.33883 0
M  V30 1962 N 170.154 -3.67318 4.49508 0
M  V30 1963 H 172.919 0.110523 2.99496 0
M  V30 1964 H 170.48 0.204878 1.60598 0
M  V30 1965 H 172.472 -2.40747 3.25304 0
M  V30 1966 H 171.042 -2.212 2.20883 0
M  V30 1967 H 170.262 -0.409676 3.92065 0
M  V30 1968 H 171.55 -0.991443 4.99047 0
M  V30 1969 H 170.948 -4.01095 3.98923 0
M  V30 1970 H 169.505 -4.34235 4.8609 0
M  V30 1971 N 172.938 -1.57226 0.108567 0
M  V30 1972 C 173.848 -2.18292 -0.859401 0
M  V30 1973 C 174.864 -1.15612 -1.30038 0
M  V30 1974 O 176.04 -1.48039 -1.36552 0
M  V30 1975 C 173.105 -2.762 -2.09558 0
M  V30 1976 C 172.166 -3.93881 -1.70752 0
M  V30 1977 C 171.399 -4.49018 -2.88477 0
M  V30 1978 O 171.622 -4.03068 -4.036 0
M  V30 1979 O 170.556 -5.39852 -2.66164 0
M  V30 1980 H 174.382 -3.01441 -0.369769 0
M  V30 1981 H 171.967 -1.48945 -0.1165 0
M  V30 1982 H 173.849 -3.13156 -2.81978 0
M  V30 1983 H 172.524 -1.96089 -2.57548 0
M  V30 1984 H 171.431 -3.61713 -0.954714 0
M  V30 1985 H 172.764 -4.75396 -1.27513 0
M  V30 1986 N 174.416 0.165178 -1.56732 0
M  V30 1987 C 175.664 0.879068 -1.8198 0
M  V30 1988 C 175.985 1.82514 -0.686561 0
M  V30 1989 O 175.255 1.93694 0.293146 0
M  V30 1990 H 173.835 0.327608 -0.671329 0
M  V30 1991 H 176.497 0.163526 -1.94213 0
M  V30 1992 H 175.593 1.45228 -2.76252 0
M  V30 1993 N 175.894 1.51508 0.433938 0
M  V30 1994 C 176.841 1.73068 1.52696 0
M  V30 1995 C 177.811 0.572441 1.55924 0
M  V30 1996 O 178.996 0.807253 1.72882 0
M  V30 1997 C 176.136 1.86474 2.90381 0
M  V30 1998 C 175.249 3.14037 2.96656 0
M  V30 1999 C 174.384 3.18019 4.25485 0
M  V30 2000 C 173.423 4.39882 4.2564 0
M  V30 2001 N 172.56 4.41394 5.45999 0
M  V30 2002 H 177.4 2.66366 1.33615 0
M  V30 2003 H 174.937 1.32008 0.649018 0
M  V30 2004 H 176.895 1.92229 3.70275 0
M  V30 2005 H 175.525 0.965809 3.08013 0
M  V30 2006 H 174.577 3.17575 2.09404 0
M  V30 2007 H 175.889 4.0394 2.92633 0
M  V30 2008 H 175.043 3.22708 5.13755 0
M  V30 2009 H 173.782 2.2601 4.3217 0
M  V30 2010 H 172.787 4.35366 3.35763 0
M  V30 2011 H 174.012 5.33159 4.20617 0
M  V30 2012 H 171.958 3.52258 5.53399 0
M  V30 2013 H 171.875 5.25111 5.4387 0
M  V30 2014 H 173.143 4.50281 6.36292 0
M  V30 2015 N 177.372 -0.689602 1.41712 0
M  V30 2016 C 178.302 -1.81577 1.46806 0
M  V30 2017 C 179.283 -1.66945 0.326105 0
M  V30 2018 O 180.468 -1.86588 0.538377 0
M  V30 2019 C 177.598 -3.19762 1.35535 0
M  V30 2020 C 176.552 -3.49107 2.47605 0
M  V30 2021 C 175.878 -4.86711 2.21397 0
M  V30 2022 C 177.178 -3.47483 3.89939 0
M  V30 2023 H 178.872 -1.7757 2.41058 0
M  V30 2024 H 176.418 -0.852887 1.16025 0
M  V30 2025 H 178.371 -3.98263 1.3771 0
M  V30 2026 H 177.095 -3.24409 0.377708 0
M  V30 2027 H 175.754 -2.72959 2.44722 0
M  V30 2028 H 175.402 -4.8799 1.21961 0
M  V30 2029 H 175.102 -5.0731 2.96497 0
M  V30 2030 H 176.626 -5.67515 2.25297 0
M  V30 2031 H 178.04 -4.1598 3.94505 0
M  V30 2032 H 176.437 -3.79615 4.64771 0
M  V30 2033 H 177.507 -2.46341 4.17665 0
M  V30 2034 N 178.85 -1.27639 -0.924453 0
M  V30 2035 C 180.127 -1.04887 -1.651 0
M  V30 2036 C 180.507 0.415327 -2.06974 0
M  V30 2037 O 179.855 1.39923 -1.80648 0
M  V30 2038 C 180.065 -2.01348 -2.85061 0
M  V30 2039 C 181.413 -2.30899 -3.56329 0
M  V30 2040 O 182.437 -1.99348 -2.95193 0
M  V30 2041 O 181.296 -2.84699 -4.66485 0
M  V30 2042 H 178.39 -0.400083 -0.723784 0
M  V30 2043 H 180.936 -1.38916 -0.974703 0
M  V30 2044 H 179.708 -3.0008 -2.51133 0
M  V30 2045 H 179.331 -1.679 -3.6041 0
M  V30 2046 N 180.328 1.1314 -1.09713 0
M  V30 2047 C 181.744 1.36477 -0.827423 0
M  V30 2048 C 181.944 1.93654 0.556817 0
M  V30 2049 O 181 2.15791 1.31112 0
M  V30 2050 C 182.313 2.31334 -1.92106 0
M  V30 2051 C 183.861 2.44943 -1.94864 0
M  V30 2052 C 184.336 3.4311 -3.0338 0
M  V30 2053 N 185.827 3.50662 -3.02639 0
M  V30 2054 C 186.562 4.2651 -3.83246 0
M  V30 2055 N 186.058 5.05485 -4.73768 0
M  V30 2056 N 187.851 4.2184 -3.71493 0
M  V30 2057 H 180.002 0.743807 -1.9895 0
M  V30 2058 H 182.265 0.389823 -0.864143 0
M  V30 2059 H 181.971 1.96483 -2.91698 0
M  V30 2060 H 181.845 3.31381 -1.80184 0
M  V30 2061 H 184.232 2.79079 -0.959099 0
M  V30 2062 H 184.313 1.4481 -2.10864 0
M  V30 2063 H 183.957 3.09704 -4.02549 0
M  V30 2064 H 183.887 4.43055 -2.84622 0
M  V30 2065 H 186.378 2.94315 -2.37039 0
M  V30 2066 H 186.691 5.60675 -5.3185 0
M  V30 2067 H 185.036 5.04708 -4.77802 0
M  V30 2068 H 188.227 3.5922 -3.00131 0
M  V30 2069 H 188.4 4.80697 -4.3455 0
M  V30 2070 N 181.806 0.884767 1.30421 0
M  V30 2071 C 183.034 0.518044 2.0031 0
M  V30 2072 C 183.449 -0.893408 1.66324 0
M  V30 2073 O 182.806 -1.5875 0.900262 0
M  V30 2074 C 182.857 0.682997 3.54989 0
M  V30 2075 O 182.578 2.03888 3.87764 0
M  V30 2076 C 184.079 0.31924 4.42149 0
M  V30 2077 H 181.299 0.200265 0.640418 0
M  V30 2078 H 183.843 1.19001 1.6631 0
M  V30 2079 H 181.998 0.0584052 3.87356 0
M  V30 2080 H 182.412 2.05735 4.82466 0
M  V30 2081 H 183.886 0.485555 5.4986 0
M  V30 2082 H 184.363 -0.742717 4.32875 0
M  V30 2083 H 184.969 0.920147 4.15227 0
M  V30 2084 N 183.284 -1.43765 0.645699 0
M  V30 2085 C 184.531 -2.01898 0.15604 0
M  V30 2086 C 184.859 -1.50887 -1.22733 0
M  V30 2087 O 184.114 -0.689271 -1.8316 0
M  V30 2088 C 184.413 -3.57238 0.107679 0
M  V30 2089 C 184.079 -4.27564 1.43178 0
M  V30 2090 C 182.741 -4.46492 1.7944 0
M  V30 2091 C 185.093 -4.67454 2.30513 0
M  V30 2092 C 182.421 -5.02573 3.02716 0
M  V30 2093 C 184.773 -5.24901 3.53074 0
M  V30 2094 C 183.437 -5.42046 3.89541 0
M  V30 2095 H 182.707 -0.738797 0.057099 0
M  V30 2096 H 185.354 -1.72341 0.834912 0
M  V30 2097 H 183.659 -3.86293 -0.654618 0
M  V30 2098 H 185.356 -3.99965 -0.287938 0
M  V30 2099 H 181.946 -4.13171 1.13963 0
M  V30 2100 H 186.13 -4.5253 2.0379 0
M  V30 2101 H 181.386 -5.14033 3.31028 0
M  V30 2102 H 185.56 -5.54758 4.20971 0
M  V30 2103 H 183.187 -5.85268 4.85145 0
M  V30 2104 N 184.763 -0.387143 -1.52771 0
M  V30 2105 C 185.713 0.465942 -2.23188 0
M  V30 2106 C 186.697 1.03138 -1.23496 0
M  V30 2107 O 187.889 0.957845 -1.48843 0
M  V30 2108 C 185.018 1.59384 -3.04059 0
M  V30 2109 C 184.104 1.04024 -4.11144 0
M  V30 2110 N 184.495 0.211416 -5.05358 0
M  V30 2111 C 182.793 1.31295 -4.26237 0
M  V30 2112 C 183.494 -0.0941698 -5.81624 0
M  V30 2113 N 182.47 0.509207 -5.4121 0
M  V30 2114 H 186.272 -0.173856 -2.93385 0
M  V30 2115 H 183.786 -0.19633 -1.61209 0
M  V30 2116 H 185.783 2.21738 -3.53041 0
M  V30 2117 H 184.443 2.23648 -2.35397 0
M  V30 2118 H 185.454 -0.151151 -5.17679 0
M  V30 2119 H 182.131 1.95679 -3.68803 0
M  V30 2120 H 183.521 -0.765572 -6.67524 0
M  V30 2121 N 186.241 1.57166 -0.116904 0
M  V30 2122 C 187.171 2.18222 0.830759 0
M  V30 2123 C 188.152 1.12167 1.27877 0
M  V30 2124 O 189.337 1.40394 1.34176 0
M  V30 2125 C 186.467 2.77996 2.08172 0
M  V30 2126 C 185.421 3.89614 1.77157 0
M  V30 2127 C 184.747 4.36187 3.09265 0
M  V30 2128 C 186.047 5.1181 1.04151 0
M  V30 2129 H 187.741 2.97664 0.321992 0
M  V30 2130 H 185.287 1.4318 0.153434 0
M  V30 2131 H 187.24 3.19366 2.74924 0
M  V30 2132 H 185.964 1.9584 2.6137 0
M  V30 2133 H 184.623 3.48816 1.12796 0
M  V30 2134 H 184.271 3.50893 3.60393 0
M  V30 2135 H 183.971 5.11455 2.89288 0
M  V30 2136 H 185.495 4.80207 3.77139 0
M  V30 2137 H 186.909 5.50214 1.61052 0
M  V30 2138 H 185.306 5.92648 0.942762 0
M  V30 2139 H 186.376 4.84892 0.0279022 0
M  V30 2140 N 187.719 -0.156864 1.56817 0
M  V30 2141 C 188.944 -0.890331 1.87318 0
M  V30 2142 C 189.369 -1.74394 0.704855 0
M  V30 2143 O 188.727 -1.77972 -0.345786 0
M  V30 2144 C 188.775 -1.73102 3.16336 0
M  V30 2145 O 187.879 -2.83422 2.99576 0
M  V30 2146 H 187.22 -0.24857 0.615718 0
M  V30 2147 H 189.75 -0.150649 2.04045 0
M  V30 2148 H 189.76 -2.12803 3.48107 0
M  V30 2149 H 188.435 -1.10412 4.00976 0
M  V30 2150 H 187.012 -2.47199 2.7919 0
M  V30 2151 N 189.197 -1.51736 -0.425897 0
M  V30 2152 C 190.427 -1.68549 -1.19476 0
M  V30 2153 C 190.835 -0.387288 -1.85194 0
M  V30 2154 O 190.178 0.645142 -1.71999 0
M  V30 2155 C 190.24 -2.75275 -2.31223 0
M  V30 2156 C 189.904 -4.17534 -1.8578 0
M  V30 2157 C 190.901 -5.01936 -1.35485 0
M  V30 2158 C 188.586 -4.6369 -1.93123 0
M  V30 2159 C 190.58 -6.30559 -0.931347 0
M  V30 2160 C 188.267 -5.92307 -1.50384 0
M  V30 2161 C 189.265 -6.75569 -1.00473 0
M  V30 2162 O 188.953 -8.0178 -0.583452 0
M  V30 2163 H 188.685 -0.568525 -0.365725 0
M  V30 2164 H 191.239 -1.98982 -0.509444 0
M  V30 2165 H 189.469 -2.40182 -3.03067 0
M  V30 2166 H 191.158 -2.80853 -2.93047 0
M  V30 2167 H 191.924 -4.67475 -1.29197 0
M  V30 2168 H 187.803 -3.98997 -2.30916 0
M  V30 2169 H 191.347 -6.95498 -0.541084 0
M  V30 2170 H 187.244 -6.2628 -1.56346 0
M  V30 2171 H 188.012 -8.1543 -0.708275 0
M  V30 2172 O 190.714 0.571711 -1.51042 0
M  V30 2173 H 191.405 1.22676 -1.49901 0
M  V30 END ATOM
M  V30 BEGIN BOND
M  V30 END BOND
M  V30 END CTAB
M  END
$$$$
