drugbank_target|P0A6W9 Glutamate--cysteine ligase (DB04464)
 OpenBabel12092119593D

  0  0  0     0  0            999 V3000
M  V30 BEGIN CTAB
M  V30 COUNTS 8136 8226 0 0 0
M  V30 BEGIN ATOM
M  V30 1 H -0.908 1.98254 -0.117106 0
M  V30 2 N 0 1.576 0 0
M  V30 3 C 0.933 2.03868 1.02534 0
M  V30 4 C 1.911 0.928543 1.3348 0
M  V30 5 O 3.095 1.19667 1.45644 0
M  V30 6 C 0.222 2.43627 2.35294 0
M  V30 7 C -0.732 3.65373 2.2001 0
M  V30 8 S 0.101 5.13292 1.52614 0
M  V30 9 C 1.257 5.56322 2.86805 0
M  V30 10 H 1.49 2.90518 0.631377 0
M  V30 11 H -0.977 1.52953 0.210867 0
M  V30 12 H 0.981 2.67203 3.11629 0
M  V30 13 H -0.358 1.57376 2.7183 0
M  V30 14 H -1.165 3.90944 3.18086 0
M  V30 15 H -1.563 3.418 1.51819 0
M  V30 16 H 0.729 5.58782 3.83104 0
M  V30 17 H 1.672 6.56266 2.65933 0
M  V30 18 H 2.08 4.83886 2.90714 0
M  V30 19 N 1.4781 -0.272755 1.55222 0
M  V30 20 C 2.7271 -1.00211 1.75045 0
M  V30 21 C 3.0401 -1.87441 0.559046 0
M  V30 22 O 4.2461 -2.63856 0.639698 0
M  V30 23 C 2.7021 -1.83165 3.09804 0
M  V30 24 C 2.3101 -1.008 4.36513 0
M  V30 25 C 4.0541 -2.55529 3.38977 0
M  V30 26 C 1.9611 -1.83194 5.62311 0
M  V30 27 H 0.8911 -0.377878 0.652476 0
M  V30 28 H 3.5421 -0.257776 1.8168 0
M  V30 29 H 1.9241 -2.61694 2.97207 0
M  V30 30 H 3.0981 -0.266855 4.60027 0
M  V30 31 H 1.4131 -0.398897 4.14485 0
M  V30 32 H 4.0101 -3.17578 4.30172 0
M  V30 33 H 4.3531 -3.25825 2.59121 0
M  V30 34 H 4.8861 -1.84029 3.52673 0
M  V30 35 H 1.6251 -1.17318 6.44916 0
M  V30 36 H 1.1451 -2.54905 5.4294 0
M  V30 37 H 2.8241 -2.40552 6.00619 0
M  V30 38 N 2.9562 -1.48159 -0.537278 0
M  V30 39 C 4.3672 -1.49429 -1.11928 0
M  V30 40 C 4.7182 -0.26 -1.9447 0
M  V30 41 O 3.8432 0.633489 -2.0692 0
M  V30 42 C 4.4382 -2.70758 -2.03656 0
M  V30 43 C 2.9972 -2.74923 -2.57088 0
M  V30 44 C 2.1442 -2.42835 -1.3389 0
M  V30 45 H 5.0952 -1.55381 -0.322886 0
M  V30 46 H 5.1162 -2.48861 -2.87834 0
M  V30 47 H 4.6282 -3.60575 -1.43553 0
M  V30 48 H 2.7292 -1.89296 -3.20933 0
M  V30 49 H 2.8422 -3.76157 -2.9672 0
M  V30 50 H 1.2062 -1.93836 -1.65226 0
M  V30 51 H 1.9892 -3.34884 -0.755504 0
M  V30 52 N 4.4343 0.785586 -1.36625 0
M  V30 53 C 5.7113 1.53198 -1.21613 0
M  V30 54 C 6.0913 2.10187 0.196113 0
M  V30 55 O 5.4393 1.94318 1.20219 0
M  V30 56 C 5.6493 2.62388 -2.30116 0
M  V30 57 C 6.9973 3.30167 -2.66974 0
M  V30 58 O 8.0213 2.72674 -2.29188 0
M  V30 59 O 6.8803 4.34077 -3.32023 0
M  V30 60 H 3.9743 0.677865 -0.473738 0
M  V30 61 H 6.5203 0.823739 -1.48367 0
M  V30 62 H 5.2923 2.18299 -3.24748 0
M  V30 63 H 4.9153 3.40827 -2.0475 0
M  V30 64 N 5.9124 1.20967 1.01018 0
M  V30 65 C 7.1584 1.02526 1.74975 0
M  V30 66 C 7.4914 -0.4408 1.89131 0
M  V30 67 O 6.7664 -1.32718 1.42184 0
M  V30 68 C 7.0494 1.71699 3.1653 0
M  V30 69 C 6.9024 3.25791 3.10129 0
M  V30 70 C 8.2214 1.45531 4.15342 0
M  V30 71 H 5.3404 0.373863 0.635134 0
M  V30 72 H 7.9824 1.49071 1.17805 0
M  V30 73 H 6.1324 1.32128 3.65341 0
M  V30 74 H 7.8044 3.74697 2.69072 0
M  V30 75 H 6.0474 3.56363 2.47362 0
M  V30 76 H 6.7184 3.69353 4.10222 0
M  V30 77 H 9.1944 1.79872 3.75213 0
M  V30 78 H 8.0704 1.96453 5.1254 0
M  V30 79 H 8.3314 0.384237 4.40427 0
M  V30 80 N 7.3905 -1.2043 1.01659 0
M  V30 81 C 8.6155 -1.94318 0.724942 0
M  V30 82 C 9.0405 -1.74266 -0.708034 0
M  V30 83 O 8.3985 -1.03694 -1.48719 0
M  V30 84 C 8.4465 -3.44486 1.06591 0
M  V30 85 O 7.5505 -4.12017 0.177599 0
M  V30 86 H 6.8915 -0.60708 0.26898 0
M  V30 87 H 9.4215 -1.52861 1.35995 0
M  V30 88 H 9.4315 -3.95106 1.01762 0
M  V30 89 H 8.1065 -3.58404 2.10997 0
M  V30 90 H 6.6835 -3.71821 0.283421 0
M  V30 91 N 8.8686 -0.792821 -1.36206 0
M  V30 92 C 9.8006 -0.151469 -2.28699 0
M  V30 93 C 10.8136 0.641262 -1.49638 0
M  V30 94 O 12.0026 0.475885 -1.72039 0
M  V30 95 C 9.1026 0.808424 -3.29117 0
M  V30 96 C 8.2756 0.0650202 -4.37352 0
M  V30 97 C 7.3346 0.941358 -5.17711 0
M  V30 98 O 6.3606 0.397352 -5.67811 0
M  V30 99 N 7.5626 2.2652 -5.3448 0
M  V30 100 H 10.3276 -0.945982 -2.84379 0
M  V30 101 H 7.8886 -0.647032 -1.48409 0
M  V30 102 H 9.8806 1.3986 -3.79765 0
M  V30 103 H 8.4506 1.5038 -2.74052 0
M  V30 104 H 7.6706 -0.706255 -3.87822 0
M  V30 105 H 8.9586 -0.447847 -5.06825 0
M  V30 106 H 8.3566 2.73128 -4.95396 0
M  V30 107 H 6.9136 2.80493 -5.88359 0
M  V30 108 N 10.3467 1.47872 -0.545128 0
M  V30 109 C 11.3097 2.28337 0.198717 0
M  V30 110 C 12.3097 1.36255 0.853888 0
M  V30 111 O 13.4997 1.59003 0.711606 0
M  V30 112 C 10.6317 3.15585 1.28915 0
M  V30 113 H 11.8247 2.95567 -0.507941 0
M  V30 114 H 9.3777 1.53362 -0.301616 0
M  V30 115 H 10.1127 2.53019 2.02859 0
M  V30 116 H 9.8977 3.83337 0.824309 0
M  V30 117 H 11.3877 3.76243 1.81194 0
M  V30 118 N 11.8248 0.280983 1.55075 0
M  V30 119 C 12.7548 -0.597469 2.25727 0
M  V30 120 C 13.7358 -1.15417 1.24952 0
M  V30 121 O 14.9208 -1.18722 1.53684 0
M  V30 122 C 12.0508 -1.7789 2.98283 0
M  V30 123 C 11.0048 -1.35347 4.06036 0
M  V30 124 C 10.3308 -2.61846 4.66198 0
M  V30 125 C 11.6308 -0.499354 5.19907 0
M  V30 126 H 13.3248 -0.00824265 2.99399 0
M  V30 127 H 10.8708 -0.0025244 1.44 0
M  V30 128 H 12.8238 -2.39937 3.46422 0
M  V30 129 H 11.5478 -2.39405 2.22155 0
M  V30 130 H 10.2068 -0.756156 3.58717 0
M  V30 131 H 9.8548 -3.21632 3.86732 0
M  V30 132 H 9.5548 -2.3409 5.38958 0
M  V30 133 H 11.0788 -3.24732 5.1709 0
M  V30 134 H 12.4928 -1.02498 5.64063 0
M  V30 135 H 10.8898 -0.316424 5.99265 0
M  V30 136 H 11.9598 0.480459 4.82514 0
M  V30 137 N 13.3029 -1.57598 0.00835791 0
M  V30 138 C 14.2659 -2.07884 -0.965242 0
M  V30 139 C 15.2659 -0.989825 -1.26725 0
M  V30 140 O 16.4559 -1.25218 -1.21104 0
M  V30 141 C 13.5879 -2.52731 -2.28779 0
M  V30 142 H 14.7809 -2.95178 -0.530112 0
M  V30 143 H 12.3339 -1.54458 -0.239283 0
M  V30 144 H 13.0689 -1.68705 -2.76964 0
M  V30 145 H 12.8539 -3.32272 -2.08177 0
M  V30 146 H 14.3439 -2.91933 -2.98605 0
M  V30 147 N 14.781 0.264519 -1.55364 0
M  V30 148 C 16.027 0.992314 -1.77552 0
M  V30 149 C 16.382 1.83626 -0.574379 0
M  V30 150 O 15.675 1.86648 0.432782 0
M  V30 151 C 15.869 1.9004 -3.02687 0
M  V30 152 C 15.698 1.14583 -4.34857 0
M  V30 153 C 14.468 0.858068 -4.97961 0
M  V30 154 C 16.666 0.532069 -5.1154 0
M  V30 155 N 14.648 0.0775974 -6.13851 0
M  V30 156 C 16.019 -0.113823 -6.19896 0
M  V30 157 C 18.074 0.440763 -4.95945 0
M  V30 158 C 16.777 -0.842231 -7.14352 0
M  V30 159 C 18.803 -0.274072 -5.90765 0
M  V30 160 C 18.165 -0.90867 -6.98515 0
M  V30 161 H 14.264 0.344811 -0.701875 0
M  V30 162 H 16.848 0.267141 -1.92859 0
M  V30 163 H 15.019 2.59775 -2.88741 0
M  V30 164 H 16.751 2.56243 -3.13243 0
M  V30 165 H 13.506 1.16547 -4.59036 0
M  V30 166 H 13.93 -0.300216 -6.76334 0
M  V30 167 H 18.572 0.917064 -4.12735 0
M  V30 168 H 16.29 -1.33019 -7.97077 0
M  V30 169 H 19.876 -0.345151 -5.80775 0
M  V30 170 H 18.756 -1.45299 -7.70622 0
M  V30 171 N 16.2591 1.48442 0.529413 0
M  V30 172 C 17.1891 1.65902 1.64313 0
M  V30 173 C 18.1701 0.507897 1.6234 0
M  V30 174 O 19.3551 0.740503 1.79528 0
M  V30 175 C 16.4851 1.69911 3.02898 0
M  V30 176 C 15.4391 2.8453 3.19729 0
M  V30 177 C 14.7651 2.73629 4.59381 0
M  V30 178 C 16.0651 4.25821 3.02447 0
M  V30 179 H 17.7591 2.5914 1.49955 0
M  V30 180 H 15.3051 1.24709 0.719982 0
M  V30 181 H 17.2581 1.80715 3.80684 0
M  V30 182 H 15.9821 0.732524 3.18279 0
M  V30 183 H 14.6411 2.73283 2.44361 0
M  V30 184 H 14.2891 1.74938 4.71599 0
M  V30 185 H 13.9891 3.50541 4.71588 0
M  V30 186 H 15.5131 2.86401 5.39265 0
M  V30 187 H 16.9271 4.37898 3.70024 0
M  V30 188 H 15.3241 5.03735 3.26146 0
M  V30 189 H 16.3941 4.42244 1.98867 0
M  V30 190 N 17.7372 -0.778329 1.37039 0
M  V30 191 C 18.6472 -1.92253 1.34446 0
M  V30 192 C 19.6632 -1.72267 0.244991 0
M  V30 193 O 20.8392 -1.95615 0.479258 0
M  V30 194 C 17.9042 -3.27282 1.144 0
M  V30 195 C 16.9652 -3.59969 2.33925 0
M  V30 196 C 16.1982 -4.88555 2.14825 0
M  V30 197 O 16.4212 -5.59113 1.12912 0
M  V30 198 O 15.3552 -5.20153 3.02861 0
M  V30 199 H 19.1812 -1.97392 2.30803 0
M  V30 200 H 16.7662 -0.920154 1.17701 0
M  V30 201 H 18.6482 -4.08062 1.05182 0
M  V30 202 H 17.3232 -3.23011 0.211124 0
M  V30 203 H 16.2302 -2.7945 2.48714 0
M  V30 204 H 17.5632 -3.68976 3.25757 0
M  V30 205 N 19.2153 -1.21501 -1.00376 0
M  V30 206 C 20.1623 -0.975387 -2.09177 0
M  V30 207 C 21.1323 0.0990615 -1.65804 0
M  V30 208 O 22.3173 -0.0483147 -1.90739 0
M  V30 209 C 19.4573 -0.547507 -3.40729 0
M  V30 210 C 18.5703 -1.69153 -3.97506 0
M  V30 211 C 17.7053 -1.2127 -5.17172 0
M  V30 212 C 16.7443 -2.32897 -5.66061 0
M  V30 213 N 15.8813 -1.86138 -6.76976 0
M  V30 214 H 20.7213 -1.9068 -2.29009 0
M  V30 215 H 18.2583 -0.950257 -1.12288 0
M  V30 216 H 20.2163 -0.280667 -4.16255 0
M  V30 217 H 18.8463 0.346904 -3.20931 0
M  V30 218 H 17.8983 -2.07298 -3.18954 0
M  V30 219 H 19.2103 -2.5316 -4.29781 0
M  V30 220 H 18.3643 -0.902591 -5.99948 0
M  V30 221 H 17.1033 -0.342692 -4.86495 0
M  V30 222 H 16.1083 -2.64709 -4.81881 0
M  V30 223 H 17.3333 -3.20396 -5.98768 0
M  V30 224 H 15.2793 -1.01484 -6.48103 0
M  V30 225 H 15.1963 -2.63717 -7.08512 0
M  V30 226 H 16.4643 -1.58165 -7.63285 0
M  V30 227 N 20.6934 1.19889 -1.02296 0
M  V30 228 C 21.6434 2.20777 -0.56934 0
M  V30 229 C 22.6274 1.56379 0.378741 0
M  V30 230 O 23.8194 1.75859 0.200673 0
M  V30 231 C 20.9484 3.43196 0.0845077 0
M  V30 232 C 20.0344 4.14749 -0.88566 0
M  V30 233 N 20.4254 4.62584 -2.04573 0
M  V30 234 C 18.7234 4.40347 -0.707835 0
M  V30 235 C 19.4244 5.17466 -2.65714 0
M  V30 236 N 18.4004 5.0791 -1.93723 0
M  V30 237 H 22.2024 2.55434 -1.45365 0
M  V30 238 H 19.7164 1.35897 -0.88915 0
M  V30 239 H 21.7134 4.14707 0.427067 0
M  V30 240 H 20.3734 3.10042 0.964574 0
M  V30 241 H 21.3844 4.57597 -2.4254 0
M  V30 242 H 18.0614 4.17317 0.12364 0
M  V30 243 H 19.4514 5.64808 -3.63925 0
M  V30 244 N 22.1715 0.800033 1.35784 0
M  V30 245 C 23.5825 0.439142 1.81462 0
M  V30 246 C 23.9335 -1.03813 1.66485 0
M  V30 247 O 23.0585 -1.80626 1.19177 0
M  V30 248 C 23.6535 0.790314 3.29453 0
M  V30 249 C 22.2125 0.482111 3.733 0
M  V30 250 C 21.3595 1.01938 2.57883 0
M  V30 251 H 24.3105 0.992254 1.23855 0
M  V30 252 H 24.3315 0.0853677 3.80404 0
M  V30 253 H 23.8435 1.86554 3.40322 0
M  V30 254 H 21.9445 -0.584652 3.67984 0
M  V30 255 H 22.0575 1.01015 4.6833 0
M  V30 256 H 20.4215 0.442043 2.50835 0
M  V30 257 H 21.2045 2.10059 2.71533 0
M  V30 258 N 23.6496 -1.47581 0.552962 0
M  V30 259 C 24.5816 -2.27997 -0.234533 0
M  V30 260 C 25.5946 -1.36753 -0.883321 0
M  V30 261 O 26.7836 -1.61612 -0.757889 0
M  V30 262 C 23.8836 -3.10879 -1.34935 0
M  V30 263 C 23.0566 -4.30056 -0.798158 0
M  V30 264 C 22.1156 -4.94567 -1.79694 0
M  V30 265 O 21.1416 -5.53087 -1.34474 0
M  V30 266 N 22.3436 -4.88878 -3.13015 0
M  V30 267 H 25.1086 -2.96222 0.455255 0
M  V30 268 H 22.6696 -1.57163 0.388761 0
M  V30 269 H 24.6616 -3.50903 -2.01616 0
M  V30 270 H 23.2316 -2.44924 -1.94244 0
M  V30 271 H 22.4516 -3.94174 0.0453079 0
M  V30 272 H 23.7396 -5.07152 -0.409173 0
M  V30 273 H 23.1376 -4.42526 -3.52402 0
M  V30 274 H 21.6946 -5.32934 -3.75266 0
M  V30 275 N 25.1277 -0.289203 -1.54924 0
M  V30 276 C 26.0907 0.579144 -2.21762 0
M  V30 277 C 27.0907 1.07047 -1.1999 0
M  V30 278 O 28.2807 0.968384 -1.44803 0
M  V30 279 C 25.4127 1.80055 -2.8947 0
M  V30 280 H 26.6057 -0.00464908 -2.999 0
M  V30 281 H 24.1587 -0.0399306 -1.56249 0
M  V30 282 H 24.8937 2.42449 -2.15381 0
M  V30 283 H 24.6787 1.45602 -3.64064 0
M  V30 284 H 26.1687 2.41773 -3.40493 0
M  V30 285 N 26.6058 1.57591 -0.0167156 0
M  V30 286 C 27.5358 2.12496 0.967858 0
M  V30 287 C 28.5168 1.03807 1.34752 0
M  V30 288 O 29.7018 1.31577 1.42833 0
M  V30 289 C 26.8318 2.64194 2.25431 0
M  V30 290 C 25.7858 3.77559 2.01576 0
M  V30 291 C 25.1118 4.15636 3.36379 0
M  V30 292 C 26.4118 5.04151 1.36489 0
M  V30 293 H 28.1058 2.95013 0.510643 0
M  V30 294 H 25.6518 1.41915 0.244181 0
M  V30 295 H 27.6048 3.01236 2.94678 0
M  V30 296 H 26.3288 1.78821 2.73296 0
M  V30 297 H 24.9878 3.40937 1.34751 0
M  V30 298 H 24.6358 3.27263 3.81979 0
M  V30 299 H 24.3358 4.92022 3.21229 0
M  V30 300 H 25.8598 4.5525 4.06915 0
M  V30 301 H 27.2738 5.38857 1.95718 0
M  V30 302 H 25.6708 5.85453 1.31776 0
M  V30 303 H 26.7408 4.83733 0.336219 0
M  V30 304 N 28.0839 -0.256276 1.55502 0
M  V30 305 C 29.0309 -1.31714 1.89526 0
M  V30 306 C 30.0009 -1.4828 0.748479 0
M  V30 307 O 31.1859 -1.62416 1.00128 0
M  V30 308 C 28.3259 -2.66933 2.18725 0
M  V30 309 C 27.4389 -2.58452 3.4616 0
M  V30 310 C 26.5739 -3.85961 3.64976 0
M  V30 311 C 25.6129 -3.72059 4.86044 0
M  V30 312 N 24.7499 -4.9144 5.01429 0
M  V30 313 H 29.5899 -1.01998 2.80001 0
M  V30 314 H 27.1269 -0.492413 1.38613 0
M  V30 315 H 29.0849 -3.4563 2.33657 0
M  V30 316 H 27.7149 -2.94816 1.31466 0
M  V30 317 H 26.7669 -1.71374 3.3961 0
M  V30 318 H 28.0789 -2.44085 4.34999 0
M  V30 319 H 27.2329 -4.73101 3.79816 0
M  V30 320 H 25.9719 -4.03215 2.74353 0
M  V30 321 H 24.9769 -2.83302 4.7119 0
M  V30 322 H 26.2019 -3.56309 5.78118 0
M  V30 323 H 24.1479 -5.09072 4.13741 0
M  V30 324 H 24.0649 -4.79668 5.84341 0
M  V30 325 H 25.3329 -5.80104 5.20672 0
M  V30 326 N 29.562 -1.4872 -0.521534 0
M  V30 327 C 30.81 -1.56857 -1.27437 0
M  V30 328 C 31.131 -0.247982 -1.93417 0
M  V30 329 O 30.401 0.731151 -1.81744 0
M  V30 330 H 28.981 -0.577885 -0.473347 0
M  V30 331 H 31.643 -1.85233 -0.606205 0
M  V30 332 H 30.739 -2.35402 -2.0492 0
M  V30 333 N 31.0401 0.771051 -1.3745 0
M  V30 334 C 32.2891 1.52491 -1.3202 0
M  V30 335 C 32.6021 1.9538 0.0927347 0
M  V30 336 O 33.8081 2.70159 0.269503 0
M  V30 337 C 32.2641 2.75366 -2.31736 0
M  V30 338 C 31.8721 2.39573 -3.78562 0
M  V30 339 C 33.6161 3.53307 -2.35318 0
M  V30 340 C 31.5231 3.58954 -4.70007 0
M  V30 341 H 30.4531 0.572506 -0.490666 0
M  V30 342 H 33.1041 0.844474 -1.62914 0
M  V30 343 H 31.4861 3.45303 -1.93861 0
M  V30 344 H 32.6601 1.77415 -4.25277 0
M  V30 345 H 30.9751 1.74805 -3.77932 0
M  V30 346 H 33.5721 4.42039 -3.00842 0
M  V30 347 H 33.9151 3.93217 -1.36698 0
M  V30 348 H 34.4481 2.90367 -2.71904 0
M  V30 349 H 31.1871 3.24125 -5.69757 0
M  V30 350 H 30.7071 4.20214 -4.27996 0
M  V30 351 H 32.3861 4.25758 -4.87175 0
M  V30 352 N 32.5182 1.22032 0.997298 0
M  V30 353 C 33.4502 0.944263 2.08845 0
M  V30 354 C 34.4632 -0.0754663 1.62625 0
M  V30 355 O 35.6522 0.157994 1.77799 0
M  V30 356 C 32.7522 0.397723 3.36558 0
M  V30 357 C 31.9252 1.47362 4.11829 0
M  V30 358 C 30.9842 0.934951 5.17827 0
M  V30 359 O 30.0102 1.62016 5.45655 0
M  V30 360 N 31.2122 -0.245895 5.79979 0
M  V30 361 H 33.9772 1.88363 2.33109 0
M  V30 362 H 31.5382 1.12661 1.16272 0
M  V30 363 H 33.5302 0.0227771 4.04694 0
M  V30 364 H 32.1002 -0.446646 3.09393 0
M  V30 365 H 31.3202 2.02208 3.38386 0
M  V30 366 H 32.6082 2.19764 4.58891 0
M  V30 367 H 32.0062 -0.819475 5.59733 0
M  V30 368 H 30.5632 -0.562272 6.4937 0
M  V30 369 N 33.9963 -1.19345 1.0293 0
M  V30 370 C 35.4123 -1.41069 0.746446 0
M  V30 371 C 35.6123 -1.90078 -0.668776 0
M  V30 372 O 34.6683 -2.0778 -1.4347 0
M  V30 373 C 35.9813 -2.42141 1.78292 0
M  V30 374 C 37.5293 -2.55887 1.80252 0
M  V30 375 C 38.0043 -3.60214 2.8286 0
M  V30 376 N 39.4953 -3.67711 2.81679 0
M  V30 377 C 40.2303 -4.48128 3.57727 0
M  V30 378 N 39.7263 -5.32248 4.43491 0
M  V30 379 N 41.5193 -4.42782 3.46267 0
M  V30 380 H 33.6703 -0.858536 1.94275 0
M  V30 381 H 35.9333 -0.439541 0.839945 0
M  V30 382 H 35.6393 -2.13155 2.79746 0
M  V30 383 H 35.5133 -3.41323 1.60557 0
M  V30 384 H 37.9003 -2.84196 0.794757 0
M  V30 385 H 37.9813 -1.56858 2.02062 0
M  V30 386 H 37.6253 -3.32647 3.83807 0
M  V30 387 H 37.5553 -4.58895 2.58307 0
M  V30 388 H 40.0463 -3.07634 2.19476 0
M  V30 389 H 40.3593 -5.90729 4.98256 0
M  V30 390 H 38.7043 -5.31707 4.47564 0
M  V30 391 H 41.8953 -3.76107 2.78677 0
M  V30 392 H 42.0683 -5.05215 4.05785 0
M  V30 393 N 35.4744 -0.807222 -1.35358 0
M  V30 394 C 36.7224 -0.387122 -1.98358 0
M  V30 395 C 37.0434 1.04942 -1.64354 0
M  V30 396 O 36.3134 1.72615 -0.926339 0
M  V30 397 H 34.8934 -0.140154 -0.733734 0
M  V30 398 H 37.5554 -1.0332 -1.6526 0
M  V30 399 H 36.6514 -0.493352 -3.08176 0
M  V30 400 N 36.9525 1.47285 -0.560781 0
M  V30 401 C 37.8825 2.32857 0.173105 0
M  V30 402 C 38.8635 1.44009 0.905281 0
M  V30 403 O 40.0485 1.7286 0.885046 0
M  V30 404 C 37.1785 3.25861 1.20133 0
M  V30 405 C 36.1325 4.23978 0.585388 0
M  V30 406 C 35.4585 5.06332 1.7185 0
M  V30 407 C 36.7585 5.20242 -0.463178 0
M  V30 408 H 38.4525 2.94466 -0.541307 0
M  V30 409 H 35.9985 1.41601 -0.261764 0
M  V30 410 H 37.9515 3.84569 1.72293 0
M  V30 411 H 36.6755 2.62315 1.94573 0
M  V30 412 H 35.3345 3.66501 0.085054 0
M  V30 413 H 34.9825 4.39186 2.45203 0
M  V30 414 H 34.6825 5.72762 1.31213 0
M  V30 415 H 36.2065 5.67899 2.24329 0
M  V30 416 H 37.6205 5.73293 -0.027502 0
M  V30 417 H 36.0175 5.94896 -0.788627 0
M  V30 418 H 37.0875 4.65504 -1.35773 0
M  V30 419 N 38.4306 0.297415 1.54768 0
M  V30 420 C 39.3406 -0.58983 2.27064 0
M  V30 421 C 40.3566 -1.15144 1.30453 0
M  V30 422 O 41.5326 -1.17699 1.63428 0
M  V30 423 C 38.5976 -1.74714 2.9946 0
M  V30 424 C 37.6586 -1.21997 4.11601 0
M  V30 425 C 36.8916 -2.32212 4.80535 0
M  V30 426 O 37.1146 -3.52036 4.48806 0
M  V30 427 O 36.0486 -1.99106 5.68014 0
M  V30 428 H 39.8746 -0.00348199 3.037 0
M  V30 429 H 37.4596 0.0640035 1.49263 0
M  V30 430 H 39.3416 -2.42147 3.44881 0
M  V30 431 H 38.0166 -2.32016 2.25722 0
M  V30 432 H 36.9236 -0.511458 3.70587 0
M  V30 433 H 38.2566 -0.692419 4.87305 0
M  V30 434 N 39.9087 -1.5758 0.0250728 0
M  V30 435 C 41.3247 -1.56124 -0.331282 0
M  V30 436 C 41.5247 -1.03029 -1.73169 0
M  V30 437 O 40.5807 -0.675215 -2.43305 0
M  V30 438 C 41.8937 -3.00139 -0.183584 0
M  V30 439 C 43.4417 -3.11946 -0.256654 0
M  V30 440 C 43.9167 -4.57793 -0.137792 0
M  V30 441 N 45.4077 -4.6279 -0.194904 0
M  V30 442 C 46.1427 -5.7326 -0.126655 0
M  V30 443 N 45.6387 -6.928 -0.00755288 0
M  V30 444 N 47.4317 -5.61811 -0.180348 0
M  V30 445 H 39.5827 -1.90424 0.94087 0
M  V30 446 H 41.8457 -0.875761 0.362968 0
M  V30 447 H 41.5517 -3.4292 0.780927 0
M  V30 448 H 41.4257 -3.64899 -0.955448 0
M  V30 449 H 43.8127 -2.69079 -1.21162 0
M  V30 450 H 43.8937 -2.49915 0.545517 0
M  V30 451 H 43.5377 -5.01339 0.813739 0
M  V30 452 H 43.4677 -5.17798 -0.958775 0
M  V30 453 H 45.9587 -3.76807 -0.287267 0
M  V30 454 H 46.2717 -7.72791 0.0379428 0
M  V30 455 H 44.6167 -6.94995 0.0271731 0
M  V30 456 H 47.8077 -4.6731 -0.271767 0
M  V30 457 H 47.9807 -6.47882 -0.123697 0
M  V30 458 N 41.3868 0.248026 -1.55636 0
M  V30 459 C 42.2968 1.32859 -1.93354 0
M  V30 460 C 43.3128 1.52719 -0.833838 0
M  V30 461 O 44.4888 1.66363 -1.13513 0
M  V30 462 C 41.5538 2.66337 -2.21958 0
M  V30 463 C 40.6148 2.55008 -3.45354 0
M  V30 464 C 39.8478 3.82121 -3.72584 0
M  V30 465 O 40.0708 4.83951 -3.01907 0
M  V30 466 O 39.0048 3.80822 -4.6611 0
M  V30 467 H 42.8308 1.03862 -2.85388 0
M  V30 468 H 40.4158 0.448686 -1.42503 0
M  V30 469 H 42.2978 3.45216 -2.4167 0
M  V30 470 H 40.9728 2.95068 -1.33103 0
M  V30 471 H 39.8798 1.7442 -3.30951 0
M  V30 472 H 41.2128 2.31222 -4.34508 0
M  V30 473 N 42.8649 1.48995 0.513639 0
M  V30 474 C 44.0929 1.61531 1.29288 0
M  V30 475 C 44.5079 0.281801 1.86685 0
M  V30 476 O 43.8649 -0.731111 1.67215 0
M  V30 477 C 43.9159 2.67449 2.43215 0
M  V30 478 O 43.6369 3.95626 1.88179 0
M  V30 479 C 45.1379 2.90575 3.34785 0
M  V30 480 H 42.3579 0.544165 0.392588 0
M  V30 481 H 44.9019 1.9494 0.617956 0
M  V30 482 H 43.0569 2.36853 3.0656 0
M  V30 483 H 43.4709 4.53868 2.62876 0
M  V30 484 H 44.9449 3.68449 4.11035 0
M  V30 485 H 45.4219 2.00011 3.91015 0
M  V30 486 H 46.0279 3.22538 2.77218 0
M  V30 487 N 44.343 -0.763751 1.37857 0
M  V30 488 C 45.273 -1.89103 1.36975 0
M  V30 489 C 46.254 -1.68439 0.237152 0
M  V30 490 O 47.439 -1.8918 0.438713 0
M  V30 491 C 44.569 -3.26496 1.18395 0
M  V30 492 C 43.523 -3.61741 2.28751 0
M  V30 493 C 42.849 -4.97762 1.95286 0
M  V30 494 C 44.149 -3.67665 3.70972 0
M  V30 495 H 45.843 -1.90099 2.31307 0
M  V30 496 H 43.389 -0.91319 1.11341 0
M  V30 497 H 45.342 -4.05003 1.16406 0
M  V30 498 H 44.066 -3.25955 0.205215 0
M  V30 499 H 42.725 -2.85547 2.29909 0
M  V30 500 H 42.373 -4.93769 0.959221 0
M  V30 501 H 42.073 -5.22313 2.69189 0
M  V30 502 H 43.597 -5.7866 1.94898 0
M  V30 503 H 45.011 -4.36307 3.719 0
M  V30 504 H 43.408 -4.03718 4.43995 0
M  V30 505 H 44.478 -2.68134 4.0402 0
M  V30 506 N 45.8211 -1.22559 -0.990812 0
M  V30 507 C 47.2371 -0.985996 -1.255 0
M  V30 508 C 47.4371 0.319173 -1.98956 0
M  V30 509 O 46.4931 1.04127 -2.3003 0
M  V30 510 C 47.8061 -2.18607 -2.06474 0
M  V30 511 C 49.3541 -2.22985 -2.19651 0
M  V30 512 C 49.8291 -3.4255 -3.04012 0
M  V30 513 N 51.3201 -3.42725 -3.11599 0
M  V30 514 C 52.0551 -4.31892 -3.7717 0
M  V30 515 N 51.5511 -5.31279 -4.44651 0
M  V30 516 N 53.3441 -4.19662 -3.73952 0
M  V30 517 H 45.4951 -2.06469 -0.49841 0
M  V30 518 H 47.7581 -0.904853 -0.282747 0
M  V30 519 H 47.4641 -3.13267 -1.59865 0
M  V30 520 H 47.3381 -2.18838 -3.07229 0
M  V30 521 H 49.7251 -1.28871 -2.65474 0
M  V30 522 H 49.8061 -2.26791 -1.18319 0
M  V30 523 H 49.4501 -4.36965 -2.58889 0
M  V30 524 H 49.3801 -3.35984 -4.0549 0
M  V30 525 H 51.8711 -2.70807 -2.63575 0
M  V30 526 H 52.1841 -5.95593 -4.92431 0
M  V30 527 H 50.5291 -5.3519 -4.43392 0
M  V30 528 H 53.7201 -3.41268 -3.20396 0
M  V30 529 H 53.8931 -4.89358 -4.24774 0
M  V30 530 N 47.2992 1.18797 -1.03562 0
M  V30 531 C 48.5452 1.8893 -0.737113 0
M  V30 532 C 48.8782 1.79837 0.732956 0
M  V30 533 O 48.1532 1.19525 1.5344 0
M  V30 534 C 48.4362 3.39607 -1.19745 0
M  V30 535 C 48.2892 3.57537 -2.72924 0
M  V30 536 C 49.6082 4.33069 -0.783526 0
M  V30 537 H 46.7272 0.686057 -0.269249 0
M  V30 538 H 49.3692 1.39797 -1.28673 0
M  V30 539 H 47.5192 3.81583 -0.729855 0
M  V30 540 H 49.1912 3.24688 -3.27682 0
M  V30 541 H 47.4342 3.00363 -3.12993 0
M  V30 542 H 48.1052 4.63238 -3.00191 0
M  V30 543 H 50.5812 3.98846 -1.18581 0
M  V30 544 H 49.4572 5.3707 -1.13343 0
M  V30 545 H 49.7182 4.40986 0.313681 0
M  V30 546 N 48.7773 0.814389 1.34928 0
M  V30 547 C 49.7253 0.218424 2.31572 0
M  V30 548 C 50.7193 -0.636128 1.57002 0
M  V30 549 O 51.9253 -0.52842 1.72069 0
M  V30 550 H 48.3003 0.0518799 0.750208 0
M  V30 551 H 50.2713 1.04852 2.79372 0
M  V30 552 C 49.0203 -0.61207 3.4227 0
M  V30 553 H 48.3433 0.0361578 3.99784 0
M  V30 554 H 49.7833 -0.995317 4.12152 0
M  V30 555 C 48.2423 -1.78087 2.85984 0
M  V30 556 O 48.7723 -2.8787 2.80168 0
M  V30 557 N 46.9783 -1.59488 2.42924 0
M  V30 558 H 46.5253 -0.701874 2.47854 0
M  V30 559 H 46.4833 -2.37846 2.05613 0
M  V30 560 N 50.2554 -1.46986 0.568584 0
M  V30 561 C 51.2184 -2.28624 -0.162366 0
M  V30 562 C 52.2184 -1.37596 -0.832103 0
M  V30 563 O 53.4084 -1.60115 -0.68622 0
M  V30 564 C 50.5404 -3.17596 -1.23878 0
M  V30 565 H 51.7334 -2.94722 0.554899 0
M  V30 566 H 49.2864 -1.52863 0.325976 0
M  V30 567 H 50.0214 -2.56214 -1.98808 0
M  V30 568 H 49.8064 -3.846 -0.763219 0
M  V30 569 H 51.2964 -3.79078 -1.75185 0
M  V30 570 N 51.7335 -0.305618 -1.54608 0
M  V30 571 C 53.0105 0.355652 -1.92339 0
M  V30 572 C 53.3905 1.71324 -1.23335 0
M  V30 573 O 52.7385 2.25473 -0.370702 0
M  V30 574 C 52.9485 0.46572 -3.45879 0
M  V30 575 C 54.2965 0.734426 -4.182 0
M  V30 576 O 55.3205 0.54935 -3.51938 0
M  V30 577 O 54.1795 1.09024 -5.35515 0
M  V30 578 H 51.2735 0.199666 -0.802535 0
M  V30 579 H 53.8195 -0.354017 -1.65966 0
M  V30 580 H 52.5915 -0.488461 -3.88239 0
M  V30 581 H 52.2145 1.22367 -3.78301 0
M  V30 582 N 53.2116 1.57565 -0.0334293 0
M  V30 583 C 54.4596 1.91598 0.642999 0
M  V30 584 C 54.7806 0.910847 1.7242 0
M  V30 585 O 54.0506 -0.0469931 1.95844 0
M  V30 586 H 52.6306 0.707228 0.240496 0
M  V30 587 H 55.2926 1.94726 -0.0822488 0
M  V30 588 H 54.3886 2.92336 1.09298 0
M  V30 589 N 54.6897 -0.239769 1.55765 0
M  V30 590 C 55.9177 -0.98417 1.81994 0
M  V30 591 C 56.3327 -1.7867 0.610124 0
M  V30 592 O 55.6897 -1.77571 -0.421271 0
M  V30 593 C 55.7407 -1.91635 3.06526 0
M  V30 594 O 55.4617 -1.14629 4.22838 0
M  V30 595 C 56.9627 -2.77616 3.45607 0
M  V30 596 H 54.1827 -0.28928 0.605441 0
M  V30 597 H 56.7267 -0.260499 2.02834 0
M  V30 598 H 54.8817 -2.5942 2.87715 0
M  V30 599 H 55.2957 -1.77745 4.93464 0
M  V30 600 H 56.7697 -3.38759 4.35828 0
M  V30 601 H 57.2467 -3.4909 2.6652 0
M  V30 602 H 57.8527 -2.15271 3.66795 0
M  V30 603 N 56.1678 -1.49265 -0.50573 0
M  V30 604 C 57.0978 -1.68495 -1.61653 0
M  V30 605 C 58.0788 -0.53366 -1.61512 0
M  V30 606 O 59.2638 -0.76897 -1.78327 0
M  V30 607 C 56.3938 -1.74709 -3.00157 0
M  V30 608 C 55.3478 -2.89581 -3.15162 0
M  V30 609 C 54.6738 -2.80903 -4.5497 0
M  V30 610 C 55.9738 -4.30578 -2.95634 0
M  V30 611 H 57.6678 -2.61493 -1.45814 0
M  V30 612 H 55.2138 -1.25838 -0.70005 0
M  V30 613 H 57.1668 -1.86748 -3.77761 0
M  V30 614 H 55.8908 -0.783067 -3.17074 0
M  V30 615 H 54.5498 -2.77136 -2.39982 0
M  V30 616 H 54.1978 -1.82419 -4.68756 0
M  V30 617 H 53.8978 -3.57999 -4.65951 0
M  V30 618 H 55.4218 -2.94944 -5.34641 0
M  V30 619 H 56.8358 -4.4373 -3.63011 0
M  V30 620 H 55.2328 -5.0886 -3.18091 0
M  V30 621 H 56.3028 -4.45352 -1.91806 0
M  V30 622 N 57.6459 0.756429 -1.3826 0
M  V30 623 C 58.6089 1.85176 -1.35065 0
M  V30 624 C 59.6089 1.58818 -0.251703 0
M  V30 625 O 60.7989 1.66615 -0.508433 0
M  V30 626 C 57.9309 3.22596 -1.10201 0
M  V30 627 H 59.1239 1.89417 -2.3251 0
M  V30 628 H 56.6769 0.95783 -1.23512 0
M  V30 629 H 57.4119 3.24025 -0.133504 0
M  V30 630 H 57.1969 3.43122 -1.89762 0
M  V30 631 H 58.6869 4.02673 -1.10654 0
M  V30 632 N 59.124 1.23083 0.984299 0
M  V30 633 C 60.352 1.08714 1.76037 0
M  V30 634 C 60.767 -0.361691 1.85303 0
M  V30 635 O 60.124 -1.25034 1.32939 0
M  V30 636 C 60.175 1.70206 3.18923 0
M  V30 637 O 59.896 3.09423 3.10144 0
M  V30 638 C 61.397 1.61227 4.12941 0
M  V30 639 H 58.617 0.380664 0.552572 0
M  V30 640 H 61.161 1.62853 1.23689 0
M  V30 641 H 59.316 1.20109 3.6831 0
M  V30 642 H 59.73 3.39188 4.00065 0
M  V30 643 H 61.204 2.08962 5.10919 0
M  V30 644 H 61.681 0.570375 4.35481 0
M  V30 645 H 62.287 2.10671 3.69456 0
M  V30 646 N 60.6021 -1.18246 1.0419 0
M  V30 647 C 61.8301 -1.92195 0.766072 0
M  V30 648 C 62.2451 -1.76247 -0.676933 0
M  V30 649 O 61.6021 -1.09293 -1.46155 0
M  V30 650 C 61.6531 -3.43568 1.12442 0
M  V30 651 O 61.3741 -3.59015 2.51078 0
M  V30 652 C 62.8751 -4.34613 0.873275 0
M  V30 653 H 60.0951 -0.610114 0.279288 0
M  V30 654 H 62.6391 -1.50007 1.38989 0
M  V30 655 H 60.7941 -3.8354 0.545542 0
M  V30 656 H 61.2081 -4.5273 2.64831 0
M  V30 657 H 62.6821 -5.39374 1.17385 0
M  V30 658 H 63.1591 -4.38781 -0.191909 0
M  V30 659 H 63.7651 -4.00341 1.43551 0
M  V30 660 N 62.0802 -0.821533 -1.34494 0
M  V30 661 C 63.3282 -0.408139 -1.97936 0
M  V30 662 C 63.6492 1.03193 -1.65457 0
M  V30 663 O 62.9192 1.71622 -0.944595 0
M  V30 664 H 61.4992 -0.147928 -0.732206 0
M  V30 665 H 64.1612 -1.05067 -1.64155 0
M  V30 666 H 63.2572 -0.52601 -3.07635 0
M  V30 667 N 63.5583 1.46682 -0.576371 0
M  V30 668 C 64.5083 2.27278 0.181288 0
M  V30 669 C 65.4923 1.35497 0.867721 0
M  V30 670 O 66.6843 1.59717 0.762863 0
M  V30 671 C 63.8133 3.21703 1.19841 0
M  V30 672 C 62.8993 4.20969 0.51442 0
M  V30 673 N 63.2903 5.03999 -0.426407 0
M  V30 674 C 61.5883 4.39373 0.765963 0
M  V30 675 C 62.2893 5.75812 -0.825565 0
M  V30 676 N 61.2653 5.43315 -0.176116 0
M  V30 677 H 65.0673 2.88863 -0.541785 0
M  V30 678 H 62.5813 1.57455 -0.397697 0
M  V30 679 H 64.5783 3.78145 1.75533 0
M  V30 680 H 63.2383 2.61677 1.92238 0
M  V30 681 H 64.2493 5.11659 -0.8016 0
M  V30 682 H 60.9263 3.90502 1.47698 0
M  V30 683 H 62.3163 6.52577 -1.59976 0
M  V30 684 N 65.0364 0.313813 1.54444 0
M  V30 685 C 66.4474 -0.176243 1.85866 0
M  V30 686 C 66.7984 -1.52405 1.23561 0
M  V30 687 O 65.9234 -2.09605 0.538016 0
M  V30 688 C 66.5184 -0.32657 3.37222 0
M  V30 689 C 65.0774 -0.760846 3.6863 0
M  V30 690 C 64.2244 0.123247 2.77026 0
M  V30 691 H 67.1754 0.534418 1.49431 0
M  V30 692 H 67.1964 -1.15908 3.62416 0
M  V30 693 H 66.7084 0.654531 3.82541 0
M  V30 694 H 64.8094 -1.75204 3.28838 0
M  V30 695 H 64.9224 -0.571353 4.75681 0
M  V30 696 H 63.2864 -0.399597 2.51546 0
M  V30 697 H 64.0694 1.10094 3.25168 0
M  V30 698 N 66.5145 -1.57545 0.0417849 0
M  V30 699 C 67.4245 -2.14451 -0.951213 0
M  V30 700 C 68.4405 -1.09992 -1.34825 0
M  V30 701 O 69.6165 -1.42114 -1.42708 0
M  V30 702 C 66.6815 -2.67063 -2.21084 0
M  V30 703 C 65.7425 -3.86284 -1.87304 0
M  V30 704 C 64.9755 -4.36378 -3.07261 0
M  V30 705 O 65.1985 -3.85587 -4.20332 0
M  V30 706 O 64.1325 -5.28077 -2.88822 0
M  V30 707 H 67.9585 -2.99601 -0.497287 0
M  V30 708 H 65.5435 -1.48317 -0.179567 0
M  V30 709 H 67.4255 -3.00914 -2.95006 0
M  V30 710 H 66.1005 -1.84989 -2.65633 0
M  V30 711 H 65.0075 -3.57338 -1.10727 0
M  V30 712 H 66.3405 -4.6956 -1.47562 0
M  V30 713 N 67.9926 0.231505 -1.5589 0
M  V30 714 C 68.9556 1.27028 -1.90779 0
M  V30 715 C 69.9556 1.40308 -0.785507 0
M  V30 716 O 71.1456 1.38744 -1.05336 0
M  V30 717 C 68.2776 2.64566 -2.14983 0
M  V30 718 H 69.4706 0.973017 -2.83677 0
M  V30 719 H 67.0236 0.471486 -1.49019 0
M  V30 720 H 67.7586 2.99406 -1.24604 0
M  V30 721 H 67.5436 2.56305 -2.96732 0
M  V30 722 H 69.0336 3.39543 -2.43105 0
M  V30 723 N 69.4707 1.49531 0.497807 0
M  V30 724 C 70.4007 1.6935 1.60757 0
M  V30 725 C 71.3817 0.542218 1.61227 0
M  V30 726 O 72.5667 0.778417 1.77917 0
M  V30 727 C 69.6967 1.76298 2.99226 0
M  V30 728 C 68.6507 2.91248 3.13622 0
M  V30 729 C 67.9767 2.83312 4.53474 0
M  V30 730 C 69.2767 4.3214 2.93346 0
M  V30 731 H 70.9707 2.62263 1.44425 0
M  V30 732 H 68.5167 1.26208 0.693367 0
M  V30 733 H 70.4697 1.88749 3.76765 0
M  V30 734 H 69.1937 0.799871 3.16654 0
M  V30 735 H 67.8527 2.78404 2.38509 0
M  V30 736 H 67.5007 1.84902 4.67782 0
M  V30 737 H 67.2007 3.60465 4.64046 0
M  V30 738 H 68.7247 2.97775 5.33069 0
M  V30 739 H 70.1387 4.45649 3.60652 0
M  V30 740 H 68.5357 5.1054 3.15387 0
M  V30 741 H 69.6057 4.46363 1.89441 0
M  V30 742 N 70.9488 -0.749086 1.3866 0
M  V30 743 C 72.1968 -1.50535 1.34847 0
M  V30 744 C 72.5178 -1.94909 -0.0595016 0
M  V30 745 O 71.7878 -1.67973 -1.00806 0
M  V30 746 H 70.3678 -0.558395 0.49619 0
M  V30 747 H 73.0298 -0.890165 1.73384 0
M  V30 748 H 72.1258 -2.39413 2.00219 0
M  V30 749 N 72.4269 -1.23603 -0.977757 0
M  V30 750 C 73.6519 -1.09735 -1.75991 0
M  V30 751 C 74.0769 0.346858 -1.84874 0
M  V30 752 O 73.4349 1.25093 -1.3123 0
M  V30 753 C 73.4829 -1.73051 -3.16363 0
M  V30 754 O 72.5869 -0.994452 -4.0023 0
M  V30 755 H 71.9279 -0.384476 -0.541364 0
M  V30 756 H 74.4579 -1.6371 -1.2272 0
M  V30 757 H 74.4679 -1.78398 -3.66931 0
M  V30 758 H 73.1429 -2.78137 -3.09213 0
M  V30 759 H 71.7199 -1.01812 -3.58732 0
M  V30 760 N 73.905 1.17692 -1.04816 0
M  V30 761 C 74.868 2.19787 -0.650117 0
M  V30 762 C 75.868 1.58044 0.296427 0
M  V30 763 O 77.058 1.74012 0.0808097 0
M  V30 764 C 74.19 3.40869 0.0456987 0
M  V30 765 H 75.383 2.56516 -1.5537 0
M  V30 766 H 72.936 1.31708 -0.841594 0
M  V30 767 H 73.671 3.09681 0.962726 0
M  V30 768 H 73.456 3.86928 -0.634727 0
M  V30 769 H 74.946 4.16445 0.310432 0
M  V30 770 N 75.3831 0.828654 1.34056 0
M  V30 771 C 76.3131 0.269443 2.3194 0
M  V30 772 C 77.2941 -0.617247 1.58506 0
M  V30 773 O 78.4791 -0.542931 1.86456 0
M  V30 774 C 75.6091 -0.564793 3.42677 0
M  V30 775 C 74.5631 0.225241 4.27407 0
M  V30 776 C 73.8891 -0.7321 5.29664 0
M  V30 777 C 75.1891 1.43663 5.02154 0
M  V30 778 H 76.8831 1.08728 2.7896 0
M  V30 779 H 74.4291 0.524283 1.34117 0
M  V30 780 H 76.3821 -0.966233 4.10173 0
M  V30 781 H 75.1061 -1.41574 2.9432 0
M  V30 782 H 73.7651 0.608117 3.61521 0
M  V30 783 H 73.4131 -1.57916 4.77568 0
M  V30 784 H 73.1131 -0.20767 5.87233 0
M  V30 785 H 74.6371 -1.13128 6.00029 0
M  V30 786 H 76.0511 1.1089 5.62473 0
M  V30 787 H 74.4481 1.89711 5.69324 0
M  V30 788 H 75.5181 2.21181 4.31517 0
M  V30 789 N 76.8612 -1.46375 0.584142 0
M  V30 790 C 78.0892 -2.06761 0.0759296 0
M  V30 791 C 78.5042 -1.43266 -1.22965 0
M  V30 792 O 77.8612 -0.538458 -1.74376 0
M  V30 793 C 77.9122 -3.61375 -0.0950384 0
M  V30 794 O 77.6332 -4.22495 1.15887 0
M  V30 795 C 79.1342 -4.38693 -0.637434 0
M  V30 796 H 76.3542 -0.668479 0.0581075 0
M  V30 797 H 78.8982 -1.8798 0.805218 0
M  V30 798 H 77.0532 -3.79578 -0.774554 0
M  V30 799 H 77.4672 -5.15385 0.973598 0
M  V30 800 H 78.9412 -5.47464 -0.706237 0
M  V30 801 H 79.4182 -4.06836 -1.65472 0
M  V30 802 H 80.0242 -4.25299 0.00725967 0
M  V30 803 N 78.3393 -0.321999 -1.54275 0
M  V30 804 C 79.2893 0.560185 -2.21011 0
M  V30 805 C 80.2733 1.08283 -1.19011 0
M  V30 806 O 81.4653 1.02011 -1.44647 0
M  V30 807 C 78.5943 1.72137 -2.97025 0
M  V30 808 C 77.6803 1.21369 -4.06363 0
M  V30 809 N 78.0713 0.425566 -5.04007 0
M  V30 810 C 76.3693 1.49255 -4.20284 0
M  V30 811 C 77.0703 0.152601 -5.815 0
M  V30 812 N 76.0463 0.738294 -5.38563 0
M  V30 813 H 79.8483 -0.049265 -2.93859 0
M  V30 814 H 77.3623 -0.127779 -1.61897 0
M  V30 815 H 79.3593 2.36512 -3.43319 0
M  V30 816 H 78.0193 2.33431 -2.25699 0
M  V30 817 H 79.0303 0.068551 -5.17855 0
M  V30 818 H 75.7073 2.11145 -3.60172 0
M  V30 819 H 77.0973 -0.481764 -6.70171 0
M  V30 820 N 79.8174 1.5752 -0.0501392 0
M  V30 821 C 80.7644 2.1147 0.924603 0
M  V30 822 C 81.7344 1.02182 1.30951 0
M  V30 823 O 82.9194 1.29723 1.39916 0
M  V30 824 C 80.0594 2.66337 2.19451 0
M  V30 825 C 79.1724 3.89708 1.86418 0
M  V30 826 C 78.3074 4.32893 3.07859 0
M  V30 827 C 77.3464 5.48967 2.70742 0
M  V30 828 N 76.4834 5.87211 3.84874 0
M  V30 829 H 81.3234 2.94465 0.457639 0
M  V30 830 H 78.8604 1.45531 0.214266 0
M  V30 831 H 80.8184 2.96247 2.93758 0
M  V30 832 H 79.4484 1.86141 2.63726 0
M  V30 833 H 78.5004 3.66396 1.02264 0
M  V30 834 H 79.8124 4.74074 1.55096 0
M  V30 835 H 78.9664 4.6435 3.90466 0
M  V30 836 H 77.7054 3.47336 3.42358 0
M  V30 837 H 76.7104 5.17183 1.86551 0
M  V30 838 H 77.9354 6.3624 2.37436 0
M  V30 839 H 75.8814 5.04607 4.19175 0
M  V30 840 H 75.7984 6.66266 3.57247 0
M  V30 841 H 77.0664 6.23282 4.68123 0
M  V30 842 N 81.2955 -0.223234 1.56011 0
M  V30 843 C 82.5415 -0.944891 1.8012 0
M  V30 844 C 82.8965 -1.82039 0.622862 0
M  V30 845 O 82.1895 -1.8773 -0.383143 0
M  V30 846 C 82.3835 -1.81948 3.0762 0
M  V30 847 C 82.2125 -1.03014 4.37742 0
M  V30 848 C 80.9825 -0.72574 5.00061 0
M  V30 849 C 83.1805 -0.396256 5.12771 0
M  V30 850 N 81.1625 0.0851816 6.13841 0
M  V30 851 C 82.5335 0.278137 6.19376 0
M  V30 852 C 84.5885 -0.309117 4.9694 0
M  V30 853 C 83.2915 1.03133 7.11868 0
M  V30 854 C 85.3175 0.430607 5.8983 0
M  V30 855 C 84.6795 1.09355 6.9586 0
M  V30 856 H 80.7785 -0.326081 0.710771 0
M  V30 857 H 83.3625 -0.215914 1.93499 0
M  V30 858 H 81.5335 -2.52029 2.95527 0
M  V30 859 H 83.2655 -2.47848 3.19927 0
M  V30 860 H 80.0205 -1.04335 4.61964 0
M  V30 861 H 80.4445 0.479428 6.753 0
M  V30 862 H 85.0865 -0.807313 4.15021 0
M  V30 863 H 82.8045 1.54105 7.9327 0
M  V30 864 H 86.3905 0.499012 5.79656 0
M  V30 865 H 85.2705 1.65679 7.66499 0
M  V30 866 N 82.7736 -1.49793 -0.48987 0
M  V30 867 C 84.0226 -1.59085 -1.23995 0
M  V30 868 C 84.3356 -0.287907 -1.9347 0
M  V30 869 O 85.5416 -0.259506 -2.70257 0
M  V30 870 C 83.9976 -2.80736 -2.252 0
M  V30 871 C 83.6056 -4.17833 -1.61614 0
M  V30 872 C 85.3496 -2.99364 -3.00967 0
M  V30 873 C 83.2566 -5.30693 -2.60996 0
M  V30 874 H 82.1866 -0.592372 -0.466488 0
M  V30 875 H 84.8376 -1.76197 -0.51252 0
M  V30 876 H 83.2196 -2.57142 -3.01154 0
M  V30 877 H 84.3936 -4.51608 -0.915774 0
M  V30 878 H 82.7086 -4.04656 -0.981977 0
M  V30 879 H 85.3056 -3.80851 -3.75308 0
M  V30 880 H 85.6486 -2.10356 -3.59244 0
M  V30 881 H 86.1816 -3.2305 -2.32128 0
M  V30 882 H 82.9206 -6.21796 -2.07485 0
M  V30 883 H 82.4406 -5.01359 -3.2924 0
M  V30 884 H 84.1196 -5.6049 -3.23202 0
M  V30 885 N 84.2517 0.741722 -1.39055 0
M  V30 886 C 85.4797 1.53098 -1.39171 0
M  V30 887 C 85.8947 1.88794 0.0155099 0
M  V30 888 O 85.2517 1.53626 0.985159 0
M  V30 889 C 85.3027 2.82274 -2.2584 0
M  V30 890 O 85.0237 2.48097 -3.61081 0
M  V30 891 C 86.5247 3.76343 -2.34266 0
M  V30 892 H 83.7447 0.473335 -0.4756 0
M  V30 893 H 86.2887 0.917045 -1.82785 0
M  V30 894 H 84.4437 3.40015 -1.85656 0
M  V30 895 H 84.8577 3.31029 -4.06842 0
M  V30 896 H 86.3317 4.63898 -2.9917 0
M  V30 897 H 86.8087 4.17619 -1.35982 0
M  V30 898 H 87.4147 3.24523 -2.74891 0
M  V30 899 N 85.7298 1.2412 0.971189 0
M  V30 900 C 86.9578 1.10575 1.74874 0
M  V30 901 C 87.3728 -0.342017 1.85676 0
M  V30 902 O 86.7298 -1.23617 1.34258 0
M  V30 903 C 86.7808 1.73579 3.171 0
M  V30 904 O 86.5018 3.12695 3.06844 0
M  V30 905 C 88.0028 1.65598 4.11208 0
M  V30 906 H 85.2228 0.386504 0.548503 0
M  V30 907 H 87.7668 1.64156 1.21955 0
M  V30 908 H 85.9218 1.24009 3.67016 0
M  V30 909 H 86.3358 3.43412 3.96445 0
M  V30 910 H 87.8098 2.1437 5.08674 0
M  V30 911 H 88.2868 0.616532 4.34851 0
M  V30 912 H 88.8928 2.14578 3.67201 0
M  V30 913 N 87.2079 -1.17134 1.05439 0
M  V30 914 C 88.4849 -1.83411 0.679699 0
M  V30 915 C 88.8649 -1.9368 -0.839726 0
M  V30 916 O 88.2129 -1.47325 -1.74664 0
M  V30 917 C 88.4229 -3.20918 1.37159 0
M  V30 918 C 89.7709 -3.96796 1.51123 0
M  V30 919 O 90.7949 -3.30406 1.3308 0
M  V30 920 O 89.6539 -5.15778 1.80651 0
M  V30 921 H 86.7479 -0.79154 0.239569 0
M  V30 922 H 89.2939 -1.24411 1.15413 0
M  V30 923 H 88.0659 -3.08428 2.40807 0
M  V30 924 H 87.6889 -3.87587 0.886674 0
M  V30 925 N 88.686 -0.835752 -1.33615 0
M  V30 926 C 89.933 -0.429959 -1.97883 0
M  V30 927 C 90.261 1.01006 -1.66217 0
M  V30 928 O 89.516 1.72047 -0.93265 0
M  V30 929 C 89.815 -0.593925 -3.52431 0
M  V30 930 C 89.481 -2.00158 -4.04039 0
M  V30 931 C 88.143 -2.38662 -4.17844 0
M  V30 932 C 90.495 -2.92117 -4.31644 0
M  V30 933 C 87.823 -3.68435 -4.56588 0
M  V30 934 C 90.175 -4.21368 -4.71838 0
M  V30 935 C 88.839 -4.59833 -4.83849 0
M  V30 936 H 88.109 -0.157333 -0.724104 0
M  V30 937 H 90.756 -1.06217 -1.59343 0
M  V30 938 H 89.061 0.121619 -3.91611 0
M  V30 939 H 90.758 -0.260282 -4.00154 0
M  V30 940 H 87.348 -1.69252 -3.93766 0
M  V30 941 H 91.532 -2.63608 -4.20505 0
M  V30 942 H 86.788 -3.98046 -4.64079 0
M  V30 943 H 90.962 -4.92703 -4.92155 0
M  V30 944 H 88.589 -5.60438 -5.13627 0
M  V30 945 N 90.1641 1.46063 -0.591896 0
M  V30 946 C 91.1271 2.28854 0.125973 0
M  V30 947 C 92.1271 1.38903 0.810107 0
M  V30 948 O 93.3171 1.61186 0.66066 0
M  V30 949 C 90.4491 3.19526 1.1881 0
M  V30 950 H 91.6421 2.93802 -0.601717 0
M  V30 951 H 89.1951 1.52325 -0.350254 0
M  V30 952 H 89.9301 2.59345 1.94707 0
M  V30 953 H 89.7151 3.85766 0.701936 0
M  V30 954 H 91.2051 3.81817 1.69132 0
M  V30 955 N 91.6422 0.330177 1.54103 0
M  V30 956 C 92.5522 -0.541534 2.28264 0
M  V30 957 C 93.5682 -1.12351 1.32866 0
M  V30 958 O 94.7442 -1.14206 1.65888 0
M  V30 959 C 91.8092 -1.68322 3.03098 0
M  V30 960 C 90.8702 -1.13238 4.14096 0
M  V30 961 C 90.1032 -2.21966 4.85352 0
M  V30 962 O 90.3262 -3.42437 4.56172 0
M  V30 963 O 89.2602 -1.87013 5.7211 0
M  V30 964 H 93.0862 0.060938 3.03639 0
M  V30 965 H 90.6712 0.09565 1.49093 0
M  V30 966 H 92.5532 -2.34777 3.49939 0
M  V30 967 H 91.2282 -2.27176 2.30593 0
M  V30 968 H 90.1352 -0.432736 3.71589 0
M  V30 969 H 91.4682 -0.588898 4.88664 0
M  V30 970 N 93.1203 -1.57491 0.0584922 0
M  V30 971 C 94.0833 -2.1085 -0.898617 0
M  V30 972 C 95.0833 -1.02964 -1.23511 0
M  V30 973 O 96.2733 -1.29007 -1.17059 0
M  V30 974 C 93.4053 -2.59881 -2.20623 0
M  V30 975 H 94.5983 -2.96715 -0.435936 0
M  V30 976 H 92.1513 -1.55141 -0.190023 0
M  V30 977 H 92.8863 -1.77431 -2.71457 0
M  V30 978 H 92.6713 -3.38727 -1.97501 0
M  V30 979 H 94.1613 -3.01285 -2.89166 0
M  V30 980 N 94.5984 0.214957 -1.56127 0
M  V30 981 C 95.5284 1.2695 -1.95974 0
M  V30 982 C 96.5094 1.48539 -0.828868 0
M  V30 983 O 97.6944 1.60611 -1.09168 0
M  V30 984 C 94.8244 2.61794 -2.28214 0
M  V30 985 C 93.7784 2.54851 -3.43853 0
M  V30 986 C 93.1044 3.93785 -3.61715 0
M  V30 987 C 94.4044 2.09065 -4.78632 0
M  V30 988 H 96.0984 0.93846 -2.84312 0
M  V30 989 H 93.6444 0.449996 -1.36788 0
M  V30 990 H 95.5974 3.35731 -2.54682 0
M  V30 991 H 94.3214 2.96599 -1.36736 0
M  V30 992 H 92.9804 1.8337 -3.17444 0
M  V30 993 H 92.6284 4.25908 -2.67602 0
M  V30 994 H 92.3284 3.90019 -4.39498 0
M  V30 995 H 93.8524 4.69374 -3.90539 0
M  V30 996 H 95.2664 2.7275 -5.04262 0
M  V30 997 H 93.6634 2.16346 -5.59745 0
M  V30 998 H 94.7334 1.04315 -4.73547 0
M  V30 999 N 96.0765 1.50051 0.48192 0
M  V30 1000 C 97.0065 1.71046 1.58951 0
M  V30 1001 C 97.9875 0.559288 1.60642 0
M  V30 1002 O 99.1725 0.797243 1.77081 0
M  V30 1003 C 96.3025 1.79462 2.97339 0
M  V30 1004 C 95.2565 2.94558 3.10515 0
M  V30 1005 C 94.5825 2.88105 4.50444 0
M  V30 1006 C 95.8825 4.35227 2.88747 0
M  V30 1007 H 97.5765 2.6378 1.41635 0
M  V30 1008 H 95.1225 1.26936 0.679942 0
M  V30 1009 H 97.0755 1.92734 3.74742 0
M  V30 1010 H 95.7995 0.833412 3.15788 0
M  V30 1011 H 94.4585 2.80918 2.35543 0
M  V30 1012 H 94.1065 1.89853 4.65795 0
M  V30 1013 H 93.8065 3.65366 4.60197 0
M  V30 1014 H 95.3305 3.03412 5.29881 0
M  V30 1015 H 96.7445 4.49449 3.55905 0
M  V30 1016 H 95.1415 5.13856 3.09955 0
M  V30 1017 H 96.2115 4.48347 1.84696 0
M  V30 1018 N 97.5546 -0.734337 1.39446 0
M  V30 1019 C 98.4646 -1.87879 1.40495 0
M  V30 1020 C 99.4806 -1.714 0.299672 0
M  V30 1021 O 100.657 -1.93991 0.541249 0
M  V30 1022 C 97.7216 -3.23477 1.24754 0
M  V30 1023 C 96.7826 -3.52344 2.45259 0
M  V30 1024 C 96.0156 -4.81473 2.30259 0
M  V30 1025 O 96.2386 -5.55237 1.30643 0
M  V30 1026 O 95.1726 -5.10254 3.19256 0
M  V30 1027 H 98.9986 -1.89949 2.36966 0
M  V30 1028 H 96.5836 -0.882243 1.20569 0
M  V30 1029 H 98.4656 -4.04509 1.18111 0
M  V30 1030 H 97.1406 -3.22176 0.313781 0
M  V30 1031 H 96.0476 -2.71396 2.57478 0
M  V30 1032 H 97.3806 -3.58426 3.37331 0
M  V30 1033 N 99.0327 -1.24633 -0.964593 0
M  V30 1034 C 100.28 -1.08788 -1.70796 0
M  V30 1035 C 100.608 0.372783 -1.90894 0
M  V30 1036 O 99.8627 1.29167 -1.47018 0
M  V30 1037 C 100.162 -1.7763 -3.10133 0
M  V30 1038 C 99.8277 -3.27557 -3.09866 0
M  V30 1039 C 98.4897 -3.6846 -3.09501 0
M  V30 1040 C 100.842 -4.23389 -3.03959 0
M  V30 1041 C 98.1697 -5.03624 -3.00965 0
M  V30 1042 C 100.522 -5.58565 -2.96965 0
M  V30 1043 C 99.1857 -5.98809 -2.9493 0
M  V30 1044 H 98.4557 -0.398084 -0.624988 0
M  V30 1045 H 101.103 -1.54777 -1.12767 0
M  V30 1046 H 99.4077 -1.24044 -3.71645 0
M  V30 1047 H 101.105 -1.62832 -3.66451 0
M  V30 1048 H 97.6947 -2.95006 -3.10917 0
M  V30 1049 H 101.879 -3.92787 -3.03368 0
M  V30 1050 H 97.1347 -5.33998 -2.97752 0
M  V30 1051 H 101.309 -6.32523 -2.91354 0
M  V30 1052 H 98.9357 -7.03505 -2.88071 0
M  V30 1053 N 100.511 1.16574 -1.06058 0
M  V30 1054 C 101.76 1.86385 -0.770944 0
M  V30 1055 C 102.073 1.82448 0.705129 0
M  V30 1056 O 103.279 2.47815 1.10905 0
M  V30 1057 C 101.735 3.34466 -1.32893 0
M  V30 1058 C 101.343 3.46883 -2.83507 0
M  V30 1059 C 103.087 4.09548 -1.11672 0
M  V30 1060 C 100.994 4.89036 -3.32562 0
M  V30 1061 H 99.9238 0.698181 -0.284709 0
M  V30 1062 H 102.575 1.31583 -1.27899 0
M  V30 1063 H 100.957 3.88859 -0.748662 0
M  V30 1064 H 102.131 3.02663 -3.47465 0
M  V30 1065 H 100.446 2.85232 -3.03368 0
M  V30 1066 H 103.043 5.14434 -1.45814 0
M  V30 1067 H 103.386 4.16264 -0.0549535 0
M  V30 1068 H 103.919 3.61387 -1.66265 0
M  V30 1069 H 100.658 4.87499 -4.38207 0
M  V30 1070 H 100.178 5.3389 -2.73351 0
M  V30 1071 H 101.857 5.57843 -3.2775 0
M  V30 1072 N 101.989 0.842826 1.3317 0
M  V30 1073 C 103.217 0.454055 2.01856 0
M  V30 1074 C 103.632 -0.94587 1.63397 0
M  V30 1075 O 102.989 -1.61534 0.849302 0
M  V30 1076 C 103.04 0.569715 3.56982 0
M  V30 1077 O 102.761 1.91448 3.94055 0
M  V30 1078 C 104.262 0.178412 4.42941 0
M  V30 1079 H 101.482 0.17979 0.646465 0
M  V30 1080 H 104.026 1.1365 1.70012 0
M  V30 1081 H 102.181 -0.0648587 3.87346 0
M  V30 1082 H 102.595 1.90282 4.88767 0
M  V30 1083 H 104.069 0.310376 5.51127 0
M  V30 1084 H 104.546 -0.880056 4.30293 0
M  V30 1085 H 105.152 0.787579 4.17944 0
M  V30 1086 N 103.467 -1.45747 0.599634 0
M  V30 1087 C 104.878 -1.85853 0.177681 0
M  V30 1088 C 105.229 -1.50102 -1.26348 0
M  V30 1089 O 104.354 -0.923905 -1.95686 0
M  V30 1090 C 104.949 -3.37326 0.315688 0
M  V30 1091 C 103.508 -3.76365 -0.0515144 0
M  V30 1092 C 102.655 -2.69722 0.643822 0
M  V30 1093 H 105.606 -1.36661 0.806814 0
M  V30 1094 H 105.627 -3.77778 -0.454321 0
M  V30 1095 H 105.139 -3.63315 1.36468 0
M  V30 1096 H 103.24 -3.55993 -1.09999 0
M  V30 1097 H 103.353 -4.77916 0.336594 0
M  V30 1098 H 101.717 -2.54567 0.0822881 0
M  V30 1099 H 102.5 -2.98549 1.6948 0
M  V30 1100 N 104.945 -0.338344 -1.53925 0
M  V30 1101 C 106.191 0.260143 -2.01125 0
M  V30 1102 C 106.524 1.50617 -1.22589 0
M  V30 1103 O 105.799 1.91979 -0.312113 0
M  V30 1104 C 106.082 0.579499 -3.55407 0
M  V30 1105 C 105.935 -0.678264 -4.44657 0
M  V30 1106 C 107.254 1.39122 -4.17532 0
M  V30 1107 H 104.373 0.0930772 -0.731099 0
M  V30 1108 H 107.015 -0.457852 -1.84401 0
M  V30 1109 H 105.165 1.19118 -3.69788 0
M  V30 1110 H 106.837 -1.31631 -4.42121 0
M  V30 1111 H 105.08 -1.3042 -4.13731 0
M  V30 1112 H 105.751 -0.410143 -5.50474 0
M  V30 1113 H 108.227 0.874035 -4.06817 0
M  V30 1114 H 107.103 1.58342 -5.25565 0
M  V30 1115 H 107.364 2.39178 -3.71815 0
M  V30 1116 N 106.423 1.57458 -0.0668435 0
M  V30 1117 C 107.7 1.8469 0.644132 0
M  V30 1118 C 108.08 0.958343 1.88093 0
M  V30 1119 O 107.428 0.0233579 2.28488 0
M  V30 1120 C 107.638 3.34767 0.986509 0
M  V30 1121 C 108.986 4.02159 1.36212 0
M  V30 1122 O 110.01 3.39484 1.07839 0
M  V30 1123 O 108.869 5.12694 1.89227 0
M  V30 1124 H 105.963 0.762816 0.319437 0
M  V30 1125 H 108.509 1.6942 -0.0973986 0
M  V30 1126 H 107.281 3.91151 0.107883 0
M  V30 1127 H 106.904 3.55281 1.78497 0
M  V30 1128 N 107.901 -0.206675 1.56239 0
M  V30 1129 C 109.149 -0.927007 1.79586 0
M  V30 1130 C 109.47 -1.8427 0.637929 0
M  V30 1131 O 108.74 -1.92849 -0.344398 0
M  V30 1132 H 107.32 -0.345292 0.662407 0
M  V30 1133 H 109.982 -0.21496 1.93711 0
M  V30 1134 H 109.078 -1.52501 2.72305 0
M  V30 1135 N 109.379 -1.50304 -0.473955 0
M  V30 1136 C 110.656 -1.51667 -1.23518 0
M  V30 1137 C 111.036 -0.259701 -2.09496 0
M  V30 1138 O 110.384 0.756986 -2.15597 0
M  V30 1139 C 110.594 -2.81082 -2.06868 0
M  V30 1140 C 111.942 -3.31631 -2.65153 0
M  V30 1141 O 112.966 -2.82384 -2.17113 0
M  V30 1142 O 111.825 -4.17471 -3.52675 0
M  V30 1143 H 108.919 -0.60822 -0.560355 0
M  V30 1144 H 111.465 -1.62592 -0.486011 0
M  V30 1145 H 110.237 -3.64041 -1.4349 0
M  V30 1146 H 109.86 -2.73146 -2.88924 0
M  V30 1147 N 110.857 0.726932 -1.39834 0
M  V30 1148 C 112.106 1.48214 -1.36805 0
M  V30 1149 C 112.419 1.95576 0.0305291 0
M  V30 1150 O 113.625 2.7088 0.183417 0
M  V30 1151 C 112.081 2.67854 -2.40379 0
M  V30 1152 C 111.689 2.27408 -3.85992 0
M  V30 1153 C 113.433 3.45641 -2.46439 0
M  V30 1154 C 111.34 3.43819 -4.81189 0
M  V30 1155 H 110.27 0.556606 -0.508631 0
M  V30 1156 H 112.921 0.792216 -1.65518 0
M  V30 1157 H 111.303 3.3896 -2.04749 0
M  V30 1158 H 112.477 1.63795 -4.30706 0
M  V30 1159 H 110.792 1.62692 -3.83302 0
M  V30 1160 H 113.389 4.32244 -3.14753 0
M  V30 1161 H 113.732 3.88669 -1.49139 0
M  V30 1162 H 114.265 2.8157 -2.81004 0
M  V30 1163 H 111.004 3.05834 -5.79781 0
M  V30 1164 H 110.524 4.06385 -4.41148 0
M  V30 1165 H 112.203 4.10043 -5.00474 0
M  V30 1166 N 112.336 1.25143 0.95797 0
M  V30 1167 C 113.246 1.06968 2.08794 0
M  V30 1168 C 114.262 0.00773911 1.73998 0
M  V30 1169 O 115.438 0.207972 2.00323 0
M  V30 1170 C 112.503 0.68691 3.39827 0
M  V30 1171 C 111.564 1.82641 3.88511 0
M  V30 1172 C 110.797 1.46181 5.1329 0
M  V30 1173 O 111.02 0.355971 5.69288 0
M  V30 1174 O 109.954 2.29085 5.566 0
M  V30 1175 H 113.78 2.01723 2.27027 0
M  V30 1176 H 111.365 1.04051 1.07209 0
M  V30 1177 H 113.247 0.485417 4.18595 0
M  V30 1178 H 111.922 -0.231417 3.22872 0
M  V30 1179 H 110.829 2.08274 3.10762 0
M  V30 1180 H 112.162 2.72386 4.09959 0
M  V30 1181 N 113.814 -1.1601 1.06675 0
M  V30 1182 C 114.764 -2.18512 0.650888 0
M  V30 1183 C 115.748 -1.57677 -0.320441 0
M  V30 1184 O 116.94 -1.76482 -0.135266 0
M  V30 1185 C 114.069 -3.43273 0.0429255 0
M  V30 1186 C 113.155 -4.11176 1.03898 0
M  V30 1187 N 113.546 -4.54672 2.216 0
M  V30 1188 C 111.844 -4.37417 0.870779 0
M  V30 1189 C 112.545 -5.07248 2.84736 0
M  V30 1190 N 111.521 -5.0037 2.12441 0
M  V30 1191 H 115.323 -2.49863 1.54745 0
M  V30 1192 H 112.837 -1.32503 0.938975 0
M  V30 1193 H 114.834 -4.16006 -0.272857 0
M  V30 1194 H 113.494 -3.13408 -0.84884 0
M  V30 1195 H 114.505 -4.4828 2.59356 0
M  V30 1196 H 111.182 -4.17488 0.0313293 0
M  V30 1197 H 112.572 -5.50912 3.84636 0
M  V30 1198 N 115.292 -0.849877 -1.32721 0
M  V30 1199 C 116.225 -0.235903 -2.26977 0
M  V30 1200 C 117.203 0.623355 -1.50177 0
M  V30 1201 O 118.387 0.581207 -1.79316 0
M  V30 1202 C 115.514 0.667712 -3.32053 0
M  V30 1203 C 114.56 -0.11753 -4.26338 0
M  V30 1204 S 115.393 -1.48277 -5.14562 0
M  V30 1205 C 116.549 -0.584741 -6.23163 0
M  V30 1206 H 116.782 -1.03495 -2.78704 0
M  V30 1207 H 114.315 -0.64724 -1.40179 0
M  V30 1208 H 116.273 1.18343 -3.93072 0
M  V30 1209 H 114.934 1.44052 -2.7912 0
M  V30 1210 H 114.127 0.57051 -5.00761 0
M  V30 1211 H 113.729 -0.564668 -3.69713 0
M  V30 1212 H 116.021 0.212968 -6.77165 0
M  V30 1213 H 116.964 -1.29947 -6.96074 0
M  V30 1214 H 117.372 -0.161202 -5.6427 0
M  V30 1215 N 116.77 1.45427 -0.607355 0
M  V30 1216 C 117.7 2.3329 0.0989352 0
M  V30 1217 C 118.681 1.46816 0.859007 0
M  V30 1218 O 119.866 1.75588 0.829604 0
M  V30 1219 C 116.996 3.29518 1.09705 0
M  V30 1220 C 115.95 4.25626 0.450206 0
M  V30 1221 C 115.276 5.11542 1.55655 0
M  V30 1222 C 116.576 5.18505 -0.628455 0
M  V30 1223 H 118.27 2.92595 -0.634716 0
M  V30 1224 H 115.816 1.40696 -0.306681 0
M  V30 1225 H 117.769 3.89855 1.59971 0
M  V30 1226 H 116.493 2.68372 1.86129 0
M  V30 1227 H 115.152 3.66586 -0.0315886 0
M  V30 1228 H 114.8 4.46765 2.31107 0
M  V30 1229 H 114.5 5.76647 1.12925 0
M  V30 1230 H 116.024 5.74748 2.06148 0
M  V30 1231 H 117.438 5.72916 -0.209877 0
M  V30 1232 H 115.835 5.92085 -0.977489 0
M  V30 1233 H 116.905 4.60948 -1.50514 0
M  V30 1234 N 118.248 0.346503 1.53744 0
M  V30 1235 C 119.476 -0.25041 2.05379 0
M  V30 1236 C 119.891 -1.43979 1.22129 0
M  V30 1237 O 119.248 -1.80677 0.257321 0
M  V30 1238 C 119.299 -0.662575 3.55376 0
M  V30 1239 O 119.02 0.479515 4.35468 0
M  V30 1240 C 120.521 -1.31989 4.23195 0
M  V30 1241 H 117.741 -0.0478198 0.669294 0
M  V30 1242 H 120.285 0.499346 1.9831 0
M  V30 1243 H 118.44 -1.36227 3.62658 0
M  V30 1244 H 118.854 0.15037 5.24284 0
M  V30 1245 H 120.328 -1.55902 5.29527 0
M  V30 1246 H 120.805 -2.27436 3.75725 0
M  V30 1247 H 121.411 -0.662154 4.20114 0
M  V30 1248 N 119.726 -1.57421 0.075193 0
M  V30 1249 C 120.973 -1.93618 -0.593146 0
M  V30 1250 C 121.301 -0.955484 -1.69413 0
M  V30 1251 O 120.556 0.0283251 -1.9568 0
M  V30 1252 C 120.855 -3.36428 -1.20626 0
M  V30 1253 C 120.521 -4.50307 -0.231078 0
M  V30 1254 C 119.183 -4.81186 0.0371936 0
M  V30 1255 C 121.535 -5.19374 0.435888 0
M  V30 1256 C 118.863 -5.78466 0.979461 0
M  V30 1257 C 121.215 -6.17665 1.3665 0
M  V30 1258 C 119.879 -6.46958 1.6432 0
M  V30 1259 H 119.149 -0.708499 -0.217047 0
M  V30 1260 H 121.796 -1.90937 0.146793 0
M  V30 1261 H 120.101 -3.35592 -2.02201 0
M  V30 1262 H 121.798 -3.61727 -1.73073 0
M  V30 1263 H 118.388 -4.26227 -0.450357 0
M  V30 1264 H 122.572 -4.95711 0.241748 0
M  V30 1265 H 117.828 -5.99487 1.20106 0
M  V30 1266 H 122.002 -6.70284 1.88924 0
M  V30 1267 H 119.629 -7.2215 2.37494 0
M  V30 1268 N 121.204 0.198386 -1.56346 0
M  V30 1269 C 122.137 1.27381 -1.89339 0
M  V30 1270 C 123.115 1.44106 -0.753134 0
M  V30 1271 O 124.299 1.59549 -1.00381 0
M  V30 1272 C 121.426 2.6409 -2.12071 0
M  V30 1273 C 120.472 2.64253 -3.34772 0
M  V30 1274 S 121.305 2.16013 -4.89999 0
M  V30 1275 C 122.461 3.54553 -5.15794 0
M  V30 1276 H 122.694 0.992058 -2.8026 0
M  V30 1277 H 120.227 0.401726 -1.49082 0
M  V30 1278 H 122.185 3.42786 -2.2585 0
M  V30 1279 H 120.846 2.89478 -1.21906 0
M  V30 1280 H 120.039 3.64768 -3.47794 0
M  V30 1281 H 119.641 1.93637 -3.1997 0
M  V30 1282 H 121.933 4.50396 -5.06112 0
M  V30 1283 H 122.876 3.46428 -6.1757 0
M  V30 1284 H 123.284 3.49313 -4.43442 0
M  V30 1285 N 122.682 1.50554 0.465978 0
M  V30 1286 C 124.098 1.38093 0.800154 0
M  V30 1287 C 124.298 0.440988 1.96615 0
M  V30 1288 O 123.354 -0.114499 2.5224 0
M  V30 1289 C 124.667 2.79565 1.10742 0
M  V30 1290 C 126.215 2.88516 1.21357 0
M  V30 1291 C 126.69 4.30833 1.55393 0
M  V30 1292 N 128.181 4.33807 1.62375 0
M  V30 1293 C 128.916 5.40927 1.90225 0
M  V30 1294 N 128.412 6.58247 2.16062 0
M  V30 1295 N 130.205 5.28376 1.9177 0
M  V30 1296 H 122.356 2.10237 -0.302366 0
M  V30 1297 H 124.619 0.945203 -0.0727746 0
M  V30 1298 H 124.325 3.50208 0.323661 0
M  V30 1299 H 124.199 3.17125 2.04234 0
M  V30 1300 H 126.586 2.1809 1.98799 0
M  V30 1301 H 126.667 2.54492 0.258321 0
M  V30 1302 H 126.311 5.01799 0.784889 0
M  V30 1303 H 126.241 4.62347 2.52076 0
M  V30 1304 H 128.732 3.49212 1.44427 0
M  V30 1305 H 129.045 7.3569 2.36601 0
M  V30 1306 H 127.39 6.61413 2.13444 0
M  V30 1307 H 130.581 4.35715 1.71085 0
M  V30 1308 H 130.754 6.11944 2.13139 0
M  V30 1309 N 124.16 -0.719506 1.40217 0
M  V30 1310 C 125.437 -1.47221 1.28784 0
M  V30 1311 C 125.817 -2.10883 -0.0956067 0
M  V30 1312 O 125.165 -1.99833 -1.10811 0
M  V30 1313 C 125.375 -2.5111 2.42373 0
M  V30 1314 C 126.723 -3.17053 2.82423 0
M  V30 1315 O 127.747 -2.61429 2.41937 0
M  V30 1316 O 126.606 -4.17742 3.52355 0
M  V30 1317 H 123.7 -0.654491 0.50554 0
M  V30 1318 H 126.246 -0.752014 1.52128 0
M  V30 1319 H 125.018 -2.02556 3.34793 0
M  V30 1320 H 124.641 -3.3067 2.20778 0
M  V30 1321 N 125.638 -1.25649 -0.95132 0
M  V30 1322 C 126.568 -1.08808 -2.06599 0
M  V30 1323 C 127.549 0.00382547 -1.701 0
M  V30 1324 O 128.734 -0.166325 -1.93486 0
M  V30 1325 C 125.864 -0.709542 -3.39975 0
M  V30 1326 C 124.818 -1.75206 -3.90496 0
M  V30 1327 C 124.144 -1.22811 -5.20405 0
M  V30 1328 C 125.444 -3.15153 -4.16504 0
M  V30 1329 H 127.138 -2.02048 -2.20946 0
M  V30 1330 H 124.684 -0.972835 -1.06169 0
M  V30 1331 H 126.637 -0.578649 -4.17408 0
M  V30 1332 H 125.361 0.258556 -3.25575 0
M  V30 1333 H 124.02 -1.87145 -3.15234 0
M  V30 1334 H 123.668 -0.250145 -5.02378 0
M  V30 1335 H 123.368 -1.92492 -5.55176 0
M  V30 1336 H 124.892 -1.10968 -6.00432 0
M  V30 1337 H 126.306 -3.06349 -4.84586 0
M  V30 1338 H 124.703 -3.82333 -4.62538 0
M  V30 1339 H 125.773 -3.61966 -3.22658 0
M  V30 1340 N 127.117 1.15442 -1.07289 0
M  V30 1341 C 128.067 2.18164 -0.662467 0
M  V30 1342 C 129.051 1.57845 0.312074 0
M  V30 1343 O 130.243 1.76552 0.125905 0
M  V30 1344 C 127.372 3.43246 -0.0611295 0
M  V30 1345 C 126.458 4.1062 -1.06077 0
M  V30 1346 N 126.849 4.53491 -2.24008 0
M  V30 1347 C 125.147 4.36949 -0.893964 0
M  V30 1348 C 125.848 5.05731 -2.87422 0
M  V30 1349 N 124.824 4.99236 -2.15091 0
M  V30 1350 H 128.626 2.49038 -1.56068 0
M  V30 1351 H 126.14 1.32003 -0.945988 0
M  V30 1352 H 128.137 4.16145 0.250792 0
M  V30 1353 H 126.797 3.13854 0.832207 0
M  V30 1354 H 127.808 4.46898 -2.6173 0
M  V30 1355 H 124.485 4.17466 -0.0534693 0
M  V30 1356 H 125.875 5.48865 -3.87553 0
M  V30 1357 N 128.595 0.856903 1.32268 0
M  V30 1358 C 130.011 0.547061 1.49931 0
M  V30 1359 C 130.211 -0.921781 1.7918 0
M  V30 1360 O 129.267 -1.70469 1.8627 0
M  V30 1361 C 130.58 1.43599 2.64196 0
M  V30 1362 C 132.128 1.43665 2.78081 0
M  V30 1363 C 132.603 2.31085 3.95428 0
M  V30 1364 N 134.094 2.28893 4.02694 0
M  V30 1365 C 134.829 2.93262 4.92732 0
M  V30 1366 N 134.325 3.66751 5.87763 0
M  V30 1367 N 136.118 2.82638 4.85873 0
M  V30 1368 H 128.269 1.8075 1.11549 0
M  V30 1369 H 130.532 0.772144 0.549997 0
M  V30 1370 H 130.238 2.48058 2.49319 0
M  V30 1371 H 130.112 1.12502 3.60032 0
M  V30 1372 H 132.499 0.399701 2.92381 0
M  V30 1373 H 132.58 1.7878 1.82952 0
M  V30 1374 H 132.224 3.34849 3.81888 0
M  V30 1375 H 132.154 1.93302 4.89839 0
M  V30 1376 H 134.645 1.75466 3.34694 0
M  V30 1377 H 134.958 4.13027 6.53168 0
M  V30 1378 H 133.303 3.70859 5.87783 0
M  V30 1379 H 136.494 2.24774 4.10602 0
M  V30 1380 H 136.667 3.33084 5.55841 0
M  V30 1381 N 130.073 -1.45103 0.615059 0
M  V30 1382 C 131.303 -2.06254 0.119596 0
M  V30 1383 C 131.711 -1.4591 -1.20445 0
M  V30 1384 O 131.054 -0.570384 -1.7462 0
M  V30 1385 C 131.116 -3.59396 -0.0865591 0
M  V30 1386 C 130.78 -4.42116 1.15683 0
M  V30 1387 C 131.777 -4.7662 2.07676 0
M  V30 1388 C 129.462 -4.82749 1.38775 0
M  V30 1389 C 131.456 -5.50622 3.21082 0
M  V30 1390 C 129.143 -5.56504 2.52481 0
M  V30 1391 C 130.141 -5.90358 3.43463 0
M  V30 1392 O 129.829 -6.62615 4.55189 0
M  V30 1393 H 129.561 -0.672423 0.0694512 0
M  V30 1394 H 132.115 -1.87219 0.844885 0
M  V30 1395 H 130.345 -3.76859 -0.866823 0
M  V30 1396 H 132.034 -4.02365 -0.534555 0
M  V30 1397 H 132.8 -4.4578 1.91063 0
M  V30 1398 H 128.679 -4.55829 0.688545 0
M  V30 1399 H 132.223 -5.76965 3.92119 0
M  V30 1400 H 128.12 -5.86759 2.69043 0
M  V30 1401 H 128.888 -6.81071 4.53966 0
M  V30 1402 N 131.551 -0.354651 -1.53558 0
M  V30 1403 C 132.779 0.239515 -2.05509 0
M  V30 1404 C 133.194 1.4333 -1.2289 0
M  V30 1405 O 132.551 1.80538 -0.266899 0
M  V30 1406 C 132.602 0.643719 -3.55723 0
M  V30 1407 O 132.323 -0.502602 -4.35207 0
M  V30 1408 C 133.824 1.29743 -4.23889 0
M  V30 1409 H 131.044 0.0442697 -0.669538 0
M  V30 1410 H 133.588 -0.509856 -1.98042 0
M  V30 1411 H 131.743 1.34302 -3.63376 0
M  V30 1412 H 132.157 -0.178172 -5.24197 0
M  V30 1413 H 133.631 1.53091 -5.30346 0
M  V30 1414 H 134.108 2.25441 -3.76926 0
M  V30 1415 H 134.714 0.639865 -4.20459 0
M  V30 1416 N 133.029 1.57378 -0.0835403 0
M  V30 1417 C 133.992 2.12252 0.864959 0
M  V30 1418 C 134.992 1.04916 1.21858 0
M  V30 1419 O 136.182 1.30853 1.14991 0
M  V30 1420 C 133.314 2.63358 2.16461 0
M  V30 1421 H 134.507 2.97371 0.388676 0
M  V30 1422 H 132.06 1.55423 0.165317 0
M  V30 1423 H 132.795 1.81727 2.686 0
M  V30 1424 H 132.58 3.41826 1.92087 0
M  V30 1425 H 134.07 3.05847 2.84337 0
M  V30 1426 N 134.507 -0.190092 1.56449 0
M  V30 1427 C 135.923 -0.54113 1.50146 0
M  V30 1428 C 136.123 -1.85603 0.784465 0
M  V30 1429 O 135.179 -2.5024 0.337051 0
M  V30 1430 C 136.492 -0.591241 2.9483 0
M  V30 1431 C 138.04 -0.679732 3.0553 0
M  V30 1432 C 138.515 -0.760908 4.51635 0
M  V30 1433 N 140.006 -0.824302 4.55806 0
M  V30 1434 C 140.741 -0.907365 5.66175 0
M  V30 1435 N 140.237 -0.952422 6.86222 0
M  V30 1436 N 142.03 -0.94494 5.541 0
M  V30 1437 H 134.181 0.67235 2.01478 0
M  V30 1438 H 136.444 0.240127 0.917084 0
M  V30 1439 H 136.15 0.305905 3.50367 0
M  V30 1440 H 136.024 -1.44422 3.48457 0
M  V30 1441 H 138.411 -1.56731 2.50039 0
M  V30 1442 H 138.492 0.199549 2.5502 0
M  V30 1443 H 138.136 0.122336 5.07753 0
M  V30 1444 H 138.066 -1.65606 4.99882 0
M  V30 1445 H 140.557 -0.798526 3.69367 0
M  V30 1446 H 140.87 -1.01645 7.66086 0
M  V30 1447 H 139.215 -0.921014 6.8887 0
M  V30 1448 H 142.406 -0.906612 4.59236 0
M  V30 1449 H 142.579 -1.00622 6.4014 0
M  V30 1450 N 135.985 -1.50799 -0.457987 0
M  V30 1451 C 136.933 -1.71162 -1.575 0
M  V30 1452 C 137.927 -0.577592 -1.59249 0
M  V30 1453 O 139.133 -0.758443 -1.63241 0
M  V30 1454 H 135.508 -0.540468 -0.522875 0
M  V30 1455 H 137.479 -2.64837 -1.37492 0
M  V30 1456 C 136.228 -1.83496 -2.95338 0
M  V30 1457 H 135.551 -2.70153 -2.94716 0
M  V30 1458 H 136.991 -2.01765 -3.72917 0
M  V30 1459 C 135.45 -0.589694 -3.31699 0
M  V30 1460 O 135.98 0.265163 -4.00824 0
M  V30 1461 N 134.186 -0.439845 -2.87252 0
M  V30 1462 H 133.733 -1.13655 -2.31172 0
M  V30 1463 H 133.691 0.392159 -3.11945 0
M  V30 1464 N 137.463 0.71206 -1.40597 0
M  V30 1465 C 138.396 1.83582 -1.35546 0
M  V30 1466 C 139.374 1.61032 -0.225284 0
M  V30 1467 O 140.558 1.83998 -0.409519 0
M  V30 1468 C 137.685 3.19983 -1.11034 0
M  V30 1469 C 136.731 3.61355 -2.2655 0
M  V30 1470 S 137.564 3.68062 -3.88961 0
M  V30 1471 C 138.72 5.07216 -3.66719 0
M  V30 1472 H 138.953 1.87586 -2.30648 0
M  V30 1473 H 136.486 0.879182 -1.26924 0
M  V30 1474 H 138.444 3.98734 -0.975761 0
M  V30 1475 H 137.105 3.13608 -0.175798 0
M  V30 1476 H 136.298 4.60403 -2.0505 0
M  V30 1477 H 135.9 2.8987 -2.36329 0
M  V30 1478 H 138.192 5.94238 -3.25404 0
M  V30 1479 H 139.135 5.33753 -4.6531 0
M  V30 1480 H 139.543 4.77976 -3.00332 0
M  V30 1481 N 138.941 1.26152 0.944643 0
M  V30 1482 C 140.189 1.11271 1.6871 0
M  V30 1483 C 140.51 -0.345166 1.91921 0
M  V30 1484 O 139.78 -1.24387 1.51343 0
M  V30 1485 H 138.36 0.408783 0.625224 0
M  V30 1486 H 141.022 1.58427 1.1352 0
M  V30 1487 H 140.118 1.62879 2.66227 0
M  V30 1488 N 140.419 -1.14872 1.07899 0
M  V30 1489 C 141.696 -1.81928 0.71845 0
M  V30 1490 C 142.076 -1.95417 -0.798455 0
M  V30 1491 O 141.424 -1.50997 -1.715 0
M  V30 1492 C 141.634 -3.17937 1.43935 0
M  V30 1493 C 142.982 -3.93501 1.59506 0
M  V30 1494 O 144.006 -3.27509 1.40058 0
M  V30 1495 O 142.865 -5.1183 1.91551 0
M  V30 1496 H 139.959 -0.78628 0.256305 0
M  V30 1497 H 142.505 -1.21934 1.18026 0
M  V30 1498 H 141.277 -3.0325 2.47295 0
M  V30 1499 H 140.9 -3.85619 0.968687 0
M  V30 1500 N 141.898 -0.863906 -1.31812 0
M  V30 1501 C 142.808 -0.318461 -2.32428 0
M  V30 1502 C 143.824 0.568496 -1.64451 0
M  V30 1503 O 145 0.46666 -1.95919 0
M  V30 1504 C 142.065 0.476355 -3.43412 0
M  V30 1505 C 141.126 -0.43784 -4.27061 0
M  V30 1506 C 140.359 0.319138 -5.32745 0
M  V30 1507 O 140.582 1.54799 -5.48993 0
M  V30 1508 O 139.516 -0.319861 -6.01049 0
M  V30 1509 H 143.342 -1.15229 -2.80991 0
M  V30 1510 H 140.927 -0.627103 -1.35602 0
M  V30 1511 H 142.809 0.927156 -4.11074 0
M  V30 1512 H 141.484 1.28683 -2.97022 0
M  V30 1513 H 140.391 -0.937013 -3.62175 0
M  V30 1514 H 141.724 -1.21375 -4.77 0
M  V30 1515 N 143.376 1.44774 -0.622745 0
M  V30 1516 C 144.792 1.56986 -0.287652 0
M  V30 1517 C 144.992 1.61167 1.20944 0
M  V30 1518 O 144.048 1.55015 1.99315 0
M  V30 1519 C 145.361 2.84551 -0.972188 0
M  V30 1520 C 146.909 2.9825 -0.949536 0
M  V30 1521 C 147.384 4.28605 -1.61437 0
M  V30 1522 N 148.875 4.35399 -1.58057 0
M  V30 1523 C 149.61 5.34964 -2.064 0
M  V30 1524 N 149.106 6.40981 -2.62897 0
M  V30 1525 N 150.899 5.26419 -1.97078 0
M  V30 1526 H 143.05 1.40304 -1.59463 0
M  V30 1527 H 145.313 0.671794 -0.668878 0
M  V30 1528 H 145.019 2.87417 -2.02693 0
M  V30 1529 H 144.893 3.73807 -0.504771 0
M  V30 1530 H 147.28 2.94941 0.0967067 0
M  V30 1531 H 147.361 2.10364 -1.45536 0
M  V30 1532 H 147.005 4.32672 -2.66002 0
M  V30 1533 H 146.935 5.15334 -1.08344 0
M  V30 1534 H 149.426 3.59397 -1.16801 0
M  V30 1535 H 149.739 7.13225 -2.97539 0
M  V30 1536 H 148.084 6.4169 -2.66943 0
M  V30 1537 H 151.275 4.42504 -1.52669 0
M  V30 1538 H 151.448 6.03861 -2.35066 0
M  V30 1539 N 144.854 0.36279 1.53368 0
M  V30 1540 C 145.787 -0.528507 2.21996 0
M  V30 1541 C 146.765 -1.0852 1.21087 0
M  V30 1542 O 147.949 -1.14186 1.4998 0
M  V30 1543 C 145.076 -1.72893 2.91249 0
M  V30 1544 C 144.122 -1.29994 4.06207 0
M  V30 1545 S 144.955 -0.303575 5.34639 0
M  V30 1546 C 146.111 -1.51039 6.07403 0
M  V30 1547 H 146.344 0.0543423 2.9725 0
M  V30 1548 H 143.877 0.146889 1.537 0
M  V30 1549 H 145.835 -2.41751 3.31763 0
M  V30 1550 H 144.496 -2.28303 2.15724 0
M  V30 1551 H 143.689 -2.19549 4.53667 0
M  V30 1552 H 143.291 -0.690608 3.67569 0
M  V30 1553 H 145.583 -2.44186 6.31965 0
M  V30 1554 H 146.526 -1.07721 6.99858 0
M  V30 1555 H 146.934 -1.71518 5.37812 0
M  V30 1556 N 146.332 -1.57332 0.0918853 0
M  V30 1557 C 147.578 -1.95328 -0.567313 0
M  V30 1558 C 147.933 -0.972866 -1.65991 0
M  V30 1559 O 147.226 0.00166256 -1.916 0
M  V30 1560 C 147.42 -3.37689 -1.17051 0
M  V30 1561 C 147.249 -4.49489 -0.137875 0
M  V30 1562 C 146.019 -5.04498 0.284515 0
M  V30 1563 C 148.217 -5.10393 0.63271 0
M  V30 1564 N 146.199 -5.99853 1.30576 0
M  V30 1565 C 147.57 -6.01435 1.50587 0
M  V30 1566 C 149.625 -4.93143 0.68658 0
M  V30 1567 C 148.328 -6.77077 2.42815 0
M  V30 1568 C 150.354 -5.69445 1.59645 0
M  V30 1569 C 149.716 -6.60151 2.45725 0
M  V30 1570 H 145.815 -0.761467 -0.178023 0
M  V30 1571 H 148.399 -1.93924 0.173706 0
M  V30 1572 H 146.57 -3.39793 -1.88136 0
M  V30 1573 H 148.302 -3.62872 -1.79181 0
M  V30 1574 H 145.057 -4.73489 -0.102593 0
M  V30 1575 H 145.481 -6.52231 1.81449 0
M  V30 1576 H 150.123 -4.22785 0.035244 0
M  V30 1577 H 147.841 -7.46699 3.08975 0
M  V30 1578 H 151.427 -5.58112 1.64323 0
M  V30 1579 H 150.307 -7.18159 3.14987 0
M  V30 1580 N 147.81 0.181792 -1.56548 0
M  V30 1581 C 149.221 0.745244 -1.71181 0
M  V30 1582 C 149.572 1.83262 -0.70068 0
M  V30 1583 O 148.697 2.15946 0.140154 0
M  V30 1584 C 149.292 1.35859 -3.10367 0
M  V30 1585 C 147.851 1.86898 -3.2672 0
M  V30 1586 C 146.998 0.743942 -2.67134 0
M  V30 1587 H 149.949 -0.0434661 -1.5864 0
M  V30 1588 H 149.97 2.22817 -3.08436 0
M  V30 1589 H 149.482 0.566948 -3.83937 0
M  V30 1590 H 147.583 2.68738 -2.5809 0
M  V30 1591 H 147.696 2.02162 -4.34359 0
M  V30 1592 H 146.06 1.16169 -2.26665 0
M  V30 1593 H 146.843 -0.035676 -3.43281 0
M  V30 1594 N 149.288 1.51039 0.449983 0
M  V30 1595 C 150.218 1.74379 1.55288 0
M  V30 1596 C 151.199 0.593236 1.5942 0
M  V30 1597 O 152.384 0.834625 1.7535 0
M  V30 1598 C 149.514 1.85728 2.93466 0
M  V30 1599 C 148.468 3.01078 3.04197 0
M  V30 1600 C 147.794 2.97595 4.44231 0
M  V30 1601 C 149.094 4.41254 2.7945 0
M  V30 1602 H 150.788 2.66725 1.36008 0
M  V30 1603 H 148.334 1.2835 0.652864 0
M  V30 1604 H 150.287 2.0064 3.70569 0
M  V30 1605 H 149.011 0.900207 3.13949 0
M  V30 1606 H 147.67 2.85851 2.29531 0
M  V30 1607 H 147.318 1.99691 4.61663 0
M  V30 1608 H 147.018 3.75046 4.52343 0
M  V30 1609 H 148.542 3.14583 5.23326 0
M  V30 1610 H 149.956 4.56897 3.46292 0
M  V30 1611 H 148.353 5.20315 2.98985 0
M  V30 1612 H 149.423 4.52164 1.75144 0
M  V30 1613 N 150.766 -0.704594 1.40972 0
M  V30 1614 C 151.991 -1.49858 1.43378 0
M  V30 1615 C 152.416 -1.88061 0.038184 0
M  V30 1616 O 151.774 -1.5402 -0.956425 0
M  V30 1617 C 151.822 -2.74333 2.34038 0
M  V30 1618 O 150.926 -3.7147 1.7912 0
M  V30 1619 H 150.267 -0.45139 0.486974 0
M  V30 1620 H 152.797 -0.866832 1.8533 0
M  V30 1621 H 152.807 -3.22741 2.49604 0
M  V30 1622 H 151.482 -2.45863 3.35446 0
M  V30 1623 H 150.059 -3.30363 1.72958 0
M  V30 1624 N 152.244 -1.26651 -0.937939 0
M  V30 1625 C 153.177 -1.02811 -2.03728 0
M  V30 1626 C 154.155 0.0481915 -1.62529 0
M  V30 1627 O 155.339 -0.0948839 -1.88261 0
M  V30 1628 C 152.466 -0.557517 -3.3408 0
M  V30 1629 C 151.512 -1.62686 -3.94253 0
M  V30 1630 S 152.345 -3.21667 -4.28125 0
M  V30 1631 C 153.501 -2.76384 -5.61572 0
M  V30 1632 H 153.734 -1.95891 -2.23638 0
M  V30 1633 H 151.267 -1.10367 -1.07974 0
M  V30 1634 H 153.225 -0.292674 -4.09455 0
M  V30 1635 H 151.886 0.353062 -3.12109 0
M  V30 1636 H 151.079 -1.24866 -4.88287 0
M  V30 1637 H 150.681 -1.84324 -3.25424 0
M  V30 1638 H 152.973 -2.2105 -6.40424 0
M  V30 1639 H 153.916 -3.69123 -6.0428 0
M  V30 1640 H 154.324 -2.15847 -5.21604 0
M  V30 1641 N 153.722 1.14298 -1.08507 0
M  V30 1642 C 155.133 1.66926 -0.836227 0
M  V30 1643 C 155.484 1.85576 0.63686 0
M  V30 1644 O 154.609 1.56767 1.49175 0
M  V30 1645 C 155.204 3.03219 -1.51142 0
M  V30 1646 C 153.763 3.52876 -1.30979 0
M  V30 1647 C 152.91 2.2833 -1.57356 0
M  V30 1648 H 155.861 0.983491 -1.24552 0
M  V30 1649 H 155.882 3.68726 -0.939211 0
M  V30 1650 H 155.394 2.89612 -2.58353 0
M  V30 1651 H 153.495 3.71703 -0.258429 0
M  V30 1652 H 153.608 4.33586 -2.03814 0
M  V30 1653 H 151.972 2.34454 -0.995164 0
M  V30 1654 H 152.755 2.17298 -2.65775 0
M  V30 1655 N 155.201 0.870884 1.31352 0
M  V30 1656 C 156.441 0.488783 1.9847 0
M  V30 1657 C 156.805 -0.941536 1.67329 0
M  V30 1658 O 158.006 -1.42903 2.27667 0
M  V30 1659 C 156.277 0.739688 3.49662 0
M  V30 1660 S 157.836 0.457582 4.36408 0
M  V30 1661 H 154.654 0.18242 0.6872 0
M  V30 1662 H 157.256 1.12711 1.59739 0
M  V30 1663 H 155.96 1.77944 3.69816 0
M  V30 1664 H 155.491 0.0883905 3.93301 0
M  V30 1665 H 157.506 -0.709752 4.91098 0
M  V30 1666 N 156.679 -1.44442 0.630414 0
M  V30 1667 C 157.909 -2.06115 0.141465 0
M  V30 1668 C 158.317 -1.47179 -1.1889 0
M  V30 1669 O 157.66 -0.588873 -1.74006 0
M  V30 1670 C 157.722 -3.59467 -0.0484355 0
M  V30 1671 C 157.386 -4.40864 1.20366 0
M  V30 1672 C 158.383 -4.74391 2.12719 0
M  V30 1673 C 156.068 -4.8125 1.43887 0
M  V30 1674 C 158.062 -5.47186 3.26904 0
M  V30 1675 C 155.749 -5.53795 2.5837 0
M  V30 1676 C 156.747 -5.86682 3.49705 0
M  V30 1677 O 156.435 -6.57749 4.62191 0
M  V30 1678 H 156.167 -0.671648 0.0765792 0
M  V30 1679 H 158.721 -1.86312 0.864695 0
M  V30 1680 H 156.951 -3.77758 -0.826803 0
M  V30 1681 H 158.64 -4.02909 -0.491849 0
M  V30 1682 H 159.406 -4.43728 1.95781 0
M  V30 1683 H 155.285 -4.55073 0.736853 0
M  V30 1684 H 158.829 -5.72773 3.98217 0
M  V30 1685 H 154.726 -5.83872 2.75251 0
M  V30 1686 H 155.494 -6.76217 4.61164 0
M  V30 1687 N 158.157 -0.370918 -1.53173 0
M  V30 1688 C 159.406 0.218249 -2.00516 0
M  V30 1689 C 159.719 1.49429 -1.26215 0
M  V30 1690 O 160.925 2.16239 -1.64174 0
M  V30 1691 C 159.381 0.43948 -3.57207 0
M  V30 1692 C 158.989 -0.822244 -4.4039 0
M  V30 1693 C 160.733 0.986012 -4.1289 0
M  V30 1694 C 158.64 -0.570304 -5.88644 0
M  V30 1695 H 157.57 0.0853333 -0.749156 0
M  V30 1696 H 160.221 -0.490483 -1.76823 0
M  V30 1697 H 158.603 1.20961 -3.77074 0
M  V30 1698 H 159.777 -1.59557 -4.32294 0
M  V30 1699 H 158.092 -1.29238 -3.95836 0
M  V30 1700 H 160.689 1.18991 -5.21292 0
M  V30 1701 H 161.032 1.94972 -3.6782 0
M  V30 1702 H 161.565 0.27592 -3.96842 0
M  V30 1703 H 158.304 -1.50449 -6.38001 0
M  V30 1704 H 157.824 0.164427 -5.99575 0
M  V30 1705 H 159.503 -0.19784 -6.46697 0
M  V30 1706 N 159.635 1.57281 -0.100228 0
M  V30 1707 C 160.598 2.13158 0.842398 0
M  V30 1708 C 161.598 1.06202 1.20738 0
M  V30 1709 O 162.788 1.32066 1.13597 0
M  V30 1710 C 159.92 2.65639 2.13655 0
M  V30 1711 H 161.113 2.97766 0.357114 0
M  V30 1712 H 158.666 1.5559 0.148823 0
M  V30 1713 H 159.401 1.84566 2.66657 0
M  V30 1714 H 159.186 3.43844 1.88451 0
M  V30 1715 H 160.676 3.08846 2.81077 0
M  V30 1716 N 161.113 -0.173488 1.56642 0
M  V30 1717 C 162.023 -1.23482 1.99473 0
M  V30 1718 C 163.039 -1.48567 0.905752 0
M  V30 1719 O 164.215 -1.60758 1.21321 0
M  V30 1720 C 161.28 -2.55444 2.34413 0
M  V30 1721 C 160.341 -2.38241 3.57127 0
M  V30 1722 C 159.574 -3.63909 3.90392 0
M  V30 1723 O 159.797 -4.68996 3.24653 0
M  V30 1724 O 158.731 -3.58149 4.83749 0
M  V30 1725 H 162.557 -0.901279 2.90018 0
M  V30 1726 H 160.142 -0.380185 1.44482 0
M  V30 1727 H 162.024 -3.33292 2.57865 0
M  V30 1728 H 160.699 -2.88382 1.4703 0
M  V30 1729 H 159.606 -1.58431 3.38896 0
M  V30 1730 H 160.939 -2.10228 4.45045 0
M  V30 1731 N 162.591 -1.51276 -0.441967 0
M  V30 1732 C 163.839 -1.63392 -1.18943 0
M  V30 1733 C 164.16 -0.350159 -1.9183 0
M  V30 1734 O 163.43 0.633784 -1.85364 0
M  V30 1735 H 162.01 -0.602164 -0.442049 0
M  V30 1736 H 164.672 -1.88186 -0.507165 0
M  V30 1737 H 163.768 -2.45934 -1.92154 0
M  V30 1738 N 164.069 0.697108 -1.41344 0
M  V30 1739 C 165.001 1.8224 -1.39001 0
M  V30 1740 C 166.014 1.60152 -0.292428 0
M  V30 1741 O 167.203 1.69684 -0.554048 0
M  V30 1742 C 164.303 3.18976 -1.14489 0
M  V30 1743 C 163.476 3.68105 -2.36258 0
M  V30 1744 C 162.535 4.83506 -2.07625 0
M  V30 1745 O 161.561 4.95201 -2.8065 0
M  V30 1746 N 162.763 5.70637 -1.06555 0
M  V30 1747 H 165.528 1.84742 -2.35988 0
M  V30 1748 H 163.089 0.87937 -1.35936 0
M  V30 1749 H 165.081 3.93801 -0.932885 0
M  V30 1750 H 163.651 3.11508 -0.261043 0
M  V30 1751 H 162.871 2.84204 -2.7317 0
M  V30 1752 H 164.159 3.97667 -3.17393 0
M  V30 1753 H 163.557 5.63817 -0.461125 0
M  V30 1754 H 162.114 6.45368 -0.913444 0
M  V30 1755 N 165.547 1.27147 0.931209 0
M  V30 1756 C 166.824 1.0401 1.65654 0
M  V30 1757 C 167.204 -0.426297 2.06751 0
M  V30 1758 O 166.552 -1.40879 1.79904 0
M  V30 1759 C 166.762 1.99834 2.86125 0
M  V30 1760 C 168.11 2.29007 3.57549 0
M  V30 1761 O 169.134 1.97779 2.96246 0
M  V30 1762 O 167.993 2.82222 4.67989 0
M  V30 1763 H 165.087 0.396239 0.725895 0
M  V30 1764 H 167.633 1.38397 0.982056 0
M  V30 1765 H 166.405 2.98744 2.52721 0
M  V30 1766 H 166.028 1.65987 3.61295 0
M  V30 1767 N 167.025 -1.13721 1.09112 0
M  V30 1768 C 168.274 -1.84275 0.82009 0
M  V30 1769 C 168.587 -1.84253 -0.656509 0
M  V30 1770 O 169.793 -2.50668 -1.04296 0
M  V30 1771 C 168.249 -3.30825 1.41714 0
M  V30 1772 C 167.857 -3.39244 2.92605 0
M  V30 1773 C 169.601 -4.06443 1.22492 0
M  V30 1774 C 167.508 -4.80047 3.45411 0
M  V30 1775 H 166.438 -0.690387 0.30312 0
M  V30 1776 H 169.089 -1.28146 1.31343 0
M  V30 1777 H 167.471 -3.86737 0.851498 0
M  V30 1778 H 168.645 -2.93344 3.55367 0
M  V30 1779 H 166.96 -2.77088 3.10823 0
M  V30 1780 H 169.557 -5.10387 1.59402 0
M  V30 1781 H 169.9 -4.15972 0.165299 0
M  V30 1782 H 170.433 -3.56852 1.75788 0
M  V30 1783 H 167.172 -4.75709 4.50978 0
M  V30 1784 H 166.692 -5.26455 2.87411 0
M  V30 1785 H 168.371 -5.48957 3.42425 0
M  V30 1786 N 168.503 -0.877838 -1.30888 0
M  V30 1787 C 169.413 -0.343096 -2.32078 0
M  V30 1788 C 170.429 0.551022 -1.65045 0
M  V30 1789 O 171.605 0.445854 -1.96403 0
M  V30 1790 C 168.67 0.439905 -3.43898 0
M  V30 1791 C 167.731 -0.483111 -4.26573 0
M  V30 1792 C 166.964 0.262616 -5.33053 0
M  V30 1793 O 167.187 1.48967 -5.50604 0
M  V30 1794 O 166.121 -0.383593 -6.00676 0
M  V30 1795 H 169.947 -1.18203 -2.79753 0
M  V30 1796 H 167.532 -0.64145 -1.34929 0
M  V30 1797 H 169.414 0.883504 -4.12034 0
M  V30 1798 H 168.089 1.25526 -2.98371 0
M  V30 1799 H 166.996 -0.975374 -3.61161 0
M  V30 1800 H 168.329 -1.26427 -4.75686 0
M  V30 1801 N 169.982 1.44106 -0.638065 0
M  V30 1802 C 170.912 2.33448 0.0494287 0
M  V30 1803 C 171.893 1.48606 0.827672 0
M  V30 1804 O 173.078 1.77308 0.792173 0
M  V30 1805 C 170.208 3.31771 1.02691 0
M  V30 1806 C 169.162 4.26485 0.359823 0
M  V30 1807 C 168.488 5.14729 1.44769 0
M  V30 1808 C 169.788 5.17056 -0.738296 0
M  V30 1809 H 171.482 2.91183 -0.696636 0
M  V30 1810 H 169.028 1.40014 -0.336456 0
M  V30 1811 H 170.981 3.93161 1.51666 0
M  V30 1812 H 169.705 2.7226 1.80395 0
M  V30 1813 H 168.364 3.66437 -0.10934 0
M  V30 1814 H 168.012 4.51566 2.21578 0
M  V30 1815 H 167.712 5.78913 1.00668 0
M  V30 1816 H 169.236 5.78991 1.93911 0
M  V30 1817 H 170.65 5.72342 -0.331354 0
M  V30 1818 H 169.047 5.89879 -1.10286 0
M  V30 1819 H 170.117 4.57652 -1.60258 0
M  V30 1820 N 171.46 0.379036 1.52974 0
M  V30 1821 C 172.423 -0.448865 2.24762 0
M  V30 1822 C 173.423 -0.998689 1.26027 0
M  V30 1823 O 174.613 -0.882313 1.50203 0
M  V30 1824 C 171.745 -1.62872 2.99476 0
M  V30 1825 H 172.938 0.179491 2.99362 0
M  V30 1826 H 170.491 0.13096 1.5575 0
M  V30 1827 H 171.226 -2.29479 2.29151 0
M  V30 1828 H 171.011 -1.24128 3.71934 0
M  V30 1829 H 172.501 -2.2151 3.5401 0
M  V30 1830 N 172.938 -1.57226 0.108567 0
M  V30 1831 C 173.87 -2.11809 -0.875752 0
M  V30 1832 C 174.883 -1.05839 -1.23701 0
M  V30 1833 O 176.072 -1.33245 -1.18778 0
M  V30 1834 C 173.172 -2.59411 -2.18081 0
M  V30 1835 C 172.345 -3.89364 -1.99284 0
M  V30 1836 C 171.404 -4.22672 -3.13424 0
M  V30 1837 O 170.43 -4.91668 -2.86795 0
M  V30 1838 N 171.632 -3.79154 -4.3957 0
M  V30 1839 H 174.397 -2.9689 -0.409477 0
M  V30 1840 H 171.958 -1.61721 -0.076158 0
M  V30 1841 H 173.95 -2.7873 -2.93414 0
M  V30 1842 H 172.52 -1.79268 -2.5609 0
M  V30 1843 H 171.74 -3.79059 -1.08203 0
M  V30 1844 H 173.028 -4.74358 -1.84017 0
M  V30 1845 H 172.426 -3.23486 -4.64083 0
M  V30 1846 H 170.983 -4.03602 -5.11809 0
M  V30 1847 N 174.416 0.165178 -1.56732 0
M  V30 1848 C 175.646 0.894919 -1.86212 0
M  V30 1849 C 176.054 1.76066 -0.692627 0
M  V30 1850 O 175.397 1.80387 0.347303 0
M  V30 1851 C 175.459 1.8174 -3.10179 0
M  V30 1852 C 175.123 1.13064 -4.42793 0
M  V30 1853 C 176.12 0.493169 -5.17556 0
M  V30 1854 C 173.805 1.12556 -4.89527 0
M  V30 1855 C 175.799 -0.140209 -6.37246 0
M  V30 1856 C 173.486 0.488366 -6.09145 0
M  V30 1857 C 174.484 -0.143411 -6.82849 0
M  V30 1858 O 174.172 -0.77055 -8.00199 0
M  V30 1859 H 173.904 0.265114 -0.621844 0
M  V30 1860 H 176.458 0.168242 -2.0471 0
M  V30 1861 H 174.688 2.58455 -2.87642 0
M  V30 1862 H 176.377 2.4175 -3.26055 0
M  V30 1863 H 177.143 0.489023 -4.82528 0
M  V30 1864 H 173.022 1.60672 -4.32094 0
M  V30 1865 H 176.566 -0.633932 -6.94714 0
M  V30 1866 H 172.463 0.490116 -6.43637 0
M  V30 1867 H 173.231 -0.670408 -8.1575 0
M  V30 1868 N 175.894 1.51508 0.433938 0
M  V30 1869 C 177.142 1.6402 1.18075 0
M  V30 1870 C 177.463 0.360328 1.91642 0
M  V30 1871 O 176.733 -0.623945 1.85698 0
M  V30 1872 H 175.313 0.6045 0.43885 0
M  V30 1873 H 177.975 1.88452 0.497178 0
M  V30 1874 H 177.071 2.46949 1.90847 0
M  V30 1875 N 177.372 -0.689602 1.41712 0
M  V30 1876 C 178.6 -1.47827 1.44758 0
M  V30 1877 C 179.015 -1.88721 0.0545703 0
M  V30 1878 O 178.372 -1.57176 -0.927463 0
M  V30 1879 C 178.423 -2.73698 2.3616 0
M  V30 1880 O 178.144 -2.34524 3.7004 0
M  V30 1881 C 179.645 -3.67389 2.48072 0
M  V30 1882 H 176.865 -0.455357 0.49284 0
M  V30 1883 H 179.409 -0.848574 1.86063 0
M  V30 1884 H 177.564 -3.32891 1.98148 0
M  V30 1885 H 177.978 -3.15701 4.18847 0
M  V30 1886 H 179.452 -4.52475 3.16181 0
M  V30 1887 H 179.929 -4.12284 1.51388 0
M  V30 1888 H 180.535 -3.14097 2.86746 0
M  V30 1889 N 178.85 -1.27639 -0.924453 0
M  V30 1890 C 180.075 -1.17101 -1.71179 0
M  V30 1891 C 180.5 0.268134 -1.86179 0
M  V30 1892 O 179.858 1.19415 -1.36418 0
M  V30 1893 C 179.906 -1.86313 -3.08739 0
M  V30 1894 O 179.01 -1.16331 -3.95652 0
M  V30 1895 H 178.351 -0.407091 -0.524569 0
M  V30 1896 H 180.881 -1.68767 -1.15666 0
M  V30 1897 H 180.891 -1.938 -3.59034 0
M  V30 1898 H 179.566 -2.91001 -2.97138 0
M  V30 1899 H 178.143 -1.16935 -3.54091 0
M  V30 1900 N 180.328 1.1314 -1.09713 0
M  V30 1901 C 181.276 2.20717 -0.733934 0
M  V30 1902 C 182.27 1.6729 0.266506 0
M  V30 1903 O 183.476 1.79547 0.127656 0
M  V30 1904 H 179.851 0.719292 -0.21937 0
M  V30 1905 H 181.822 2.48611 -1.6503 0
M  V30 1906 C 180.571 3.47265 -0.173849 0
M  V30 1907 H 179.894 3.88716 -0.934873 0
M  V30 1908 H 181.334 4.23979 0.0423126 0
M  V30 1909 C 179.793 3.18724 1.09164 0
M  V30 1910 O 180.323 3.37762 2.17439 0
M  V30 1911 N 178.529 2.72583 1.00732 0
M  V30 1912 H 178.076 2.57291 0.126121 0
M  V30 1913 H 178.034 2.53862 1.85476 0
M  V30 1914 N 181.806 0.884767 1.30421 0
M  V30 1915 C 183.034 0.518044 2.0031 0
M  V30 1916 C 183.449 -0.893408 1.66324 0
M  V30 1917 O 182.806 -1.5875 0.900262 0
M  V30 1918 C 182.857 0.682997 3.54989 0
M  V30 1919 O 182.578 2.03888 3.87764 0
M  V30 1920 C 184.079 0.31924 4.42149 0
M  V30 1921 H 181.299 0.200265 0.640418 0
M  V30 1922 H 183.843 1.19001 1.6631 0
M  V30 1923 H 181.998 0.0584052 3.87356 0
M  V30 1924 H 182.412 2.05735 4.82466 0
M  V30 1925 H 183.886 0.485555 5.4986 0
M  V30 1926 H 184.363 -0.742717 4.32875 0
M  V30 1927 H 184.969 0.920147 4.15227 0
M  V30 1928 N 183.284 -1.43765 0.645699 0
M  V30 1929 C 184.532 -2.01499 0.155731 0
M  V30 1930 C 184.853 -1.51151 -1.232 0
M  V30 1931 O 184.123 -0.721044 -1.82148 0
M  V30 1932 H 182.703 -0.745003 0.0545817 0
M  V30 1933 H 185.365 -1.76075 0.835677 0
M  V30 1934 H 184.461 -3.1181 0.134577 0
M  V30 1935 N 184.763 -0.387143 -1.52771 0
M  V30 1936 C 186.179 -0.037007 -1.59557 0
M  V30 1937 C 186.379 1.44801 -1.40124 0
M  V30 1938 O 185.435 2.21227 -1.21716 0
M  V30 1939 C 186.748 -0.512256 -2.96305 0
M  V30 1940 C 188.296 -0.468328 -3.09476 0
M  V30 1941 C 188.771 -0.919731 -4.4867 0
M  V30 1942 N 190.262 -0.875656 -4.54848 0
M  V30 1943 C 190.997 -1.19637 -5.6078 0
M  V30 1944 N 190.493 -1.58745 -6.74368 0
M  V30 1945 N 192.286 -1.11776 -5.50874 0
M  V30 1946 H 184.437 -1.35395 -1.63652 0
M  V30 1947 H 186.7 -0.554818 -0.768688 0
M  V30 1948 H 186.406 -1.54935 -3.15734 0
M  V30 1949 H 186.28 0.089805 -3.77093 0
M  V30 1950 H 188.667 0.559671 -2.89744 0
M  V30 1951 H 188.748 -1.10616 -2.30646 0
M  V30 1952 H 188.392 -1.94595 -4.69143 0
M  V30 1953 H 188.322 -0.258927 -5.25963 0
M  V30 1954 H 190.813 -0.587843 -3.733 0
M  V30 1955 H 191.126 -1.81586 -7.51163 0
M  V30 1956 H 189.471 -1.6263 -6.75705 0
M  V30 1957 H 192.662 -0.811264 -4.61016 0
M  V30 1958 H 192.835 -1.37103 -6.3333 0
M  V30 1959 N 186.241 1.57166 -0.116904 0
M  V30 1960 C 187.488 1.95123 0.541603 0
M  V30 1961 C 187.816 1.00006 1.6682 0
M  V30 1962 O 187.071 0.0235658 1.95686 0
M  V30 1963 C 187.37 3.39508 1.11664 0
M  V30 1964 C 187.036 4.50762 0.111606 0
M  V30 1965 C 185.698 4.80918 -0.164758 0
M  V30 1966 C 188.05 5.18036 -0.573438 0
M  V30 1967 C 185.378 5.75666 -1.13249 0
M  V30 1968 C 187.73 6.13824 -1.52978 0
M  V30 1969 C 186.394 6.42374 -1.81415 0
M  V30 1970 H 185.664 0.714005 0.198187 0
M  V30 1971 H 188.311 1.9048 -0.197365 0
M  V30 1972 H 186.616 3.40835 1.93232 0
M  V30 1973 H 188.313 3.66189 1.63422 0
M  V30 1974 H 184.903 4.27272 0.337192 0
M  V30 1975 H 189.087 4.94896 -0.373092 0
M  V30 1976 H 184.343 5.96092 -1.35958 0
M  V30 1977 H 188.517 6.65039 -2.06629 0
M  V30 1978 H 186.144 7.15599 -2.56557 0
M  V30 1979 N 187.719 -0.156864 1.56817 0
M  V30 1980 C 188.666 -1.19394 1.97519 0
M  V30 1981 C 189.636 -1.4322 0.841265 0
M  V30 1982 O 190.821 -1.55719 1.10255 0
M  V30 1983 C 187.961 -2.52483 2.35258 0
M  V30 1984 C 187.074 -2.35914 3.61896 0
M  V30 1985 C 186.209 -3.61969 3.88782 0
M  V30 1986 C 185.248 -3.40395 5.08722 0
M  V30 1987 N 184.385 -4.58556 5.31668 0
M  V30 1988 H 189.225 -0.839845 2.85921 0
M  V30 1989 H 186.762 -0.403264 1.41464 0
M  V30 1990 H 188.72 -3.30071 2.55165 0
M  V30 1991 H 187.35 -2.85859 1.49949 0
M  V30 1992 H 186.402 -1.49429 3.49821 0
M  V30 1993 H 187.714 -2.15926 4.49641 0
M  V30 1994 H 186.868 -4.47989 4.09135 0
M  V30 1995 H 185.607 -3.84951 2.9944 0
M  V30 1996 H 184.612 -2.52763 4.88253 0
M  V30 1997 H 185.837 -3.18822 5.99608 0
M  V30 1998 H 183.783 -4.81729 4.45279 0
M  V30 1999 H 183.7 -4.41535 6.13664 0
M  V30 2000 H 184.968 -5.45817 5.5651 0
M  V30 2001 N 189.197 -1.51736 -0.425897 0
M  V30 2002 C 190.425 -1.68794 -1.1965 0
M  V30 2003 C 190.84 -0.390164 -1.84725 0
M  V30 2004 O 190.197 0.632376 -1.71194 0
M  V30 2005 C 190.248 -2.81174 -2.27208 0
M  V30 2006 O 189.969 -4.05925 -1.64793 0
M  V30 2007 C 191.47 -3.09599 -3.17275 0
M  V30 2008 H 188.69 -0.566128 -0.360194 0
M  V30 2009 H 191.234 -1.98211 -0.503249 0
M  V30 2010 H 189.389 -2.54324 -2.9223 0
M  V30 2011 H 189.803 -4.68423 -2.35967 0
M  V30 2012 H 191.277 -3.91786 -3.88854 0
M  V30 2013 H 191.754 -2.22468 -3.78688 0
M  V30 2014 H 192.36 -3.38151 -2.57941 0
M  V30 2015 N 190.675 0.682077 -1.42076 0
M  V30 2016 C 191.605 1.80796 -1.47767 0
M  V30 2017 C 192.586 1.6677 -0.334954 0
M  V30 2018 O 193.771 1.863 -0.548264 0
M  V30 2019 C 190.901 3.19038 -1.37229 0
M  V30 2020 C 189.855 3.47789 -2.49453 0
M  V30 2021 C 189.181 4.8553 -2.23975 0
M  V30 2022 C 190.481 3.45411 -3.91776 0
M  V30 2023 H 192.175 1.7629 -2.41997 0
M  V30 2024 H 189.721 0.846721 -1.16476 0
M  V30 2025 H 191.674 3.97528 -1.39821 0
M  V30 2026 H 190.398 3.24204 -0.394907 0
M  V30 2027 H 189.057 2.71657 -2.46166 0
M  V30 2028 H 188.705 4.87337 -1.24547 0
M  V30 2029 H 188.405 5.0573 -2.99184 0
M  V30 2030 H 189.929 5.66312 -2.28304 0
M  V30 2031 H 191.343 4.13882 -3.96705 0
M  V30 2032 H 189.74 3.77145 -4.66778 0
M  V30 2033 H 190.81 2.44122 -4.18966 0
M  V30 2034 N 192.153 1.28127 0.917671 0
M  V30 2035 C 193.383 1.17722 1.6978 0
M  V30 2036 C 193.791 -0.267261 1.87303 0
M  V30 2037 O 193.134 -1.19286 1.39702 0
M  V30 2038 C 193.196 1.79958 3.11216 0
M  V30 2039 C 192.86 3.29187 3.16993 0
M  V30 2040 C 193.857 4.25679 2.98485 0
M  V30 2041 C 191.542 3.70075 3.39632 0
M  V30 2042 C 193.536 5.61035 3.02521 0
M  V30 2043 C 191.223 5.05557 3.433 0
M  V30 2044 C 192.221 6.00847 3.24764 0
M  V30 2045 O 191.909 7.33859 3.28187 0
M  V30 2046 H 191.641 0.409788 0.537634 0
M  V30 2047 H 194.195 1.69694 1.15728 0
M  V30 2048 H 192.425 1.22475 3.66793 0
M  V30 2049 H 194.114 1.64125 3.71238 0
M  V30 2050 H 194.88 3.95426 2.80826 0
M  V30 2051 H 190.759 2.96373 3.53106 0
M  V30 2052 H 194.303 6.35388 2.87971 0
M  V30 2053 H 190.2 5.35462 3.60486 0
M  V30 2054 H 190.968 7.42436 3.44575 0
M  V30 2055 N 193.631 -1.12557 1.10312 0
M  V30 2056 C 195.047 -1.36036 0.834649 0
M  V30 2057 C 195.247 -1.93946 -0.546539 0
M  V30 2058 O 194.303 -2.16484 -1.29966 0
M  V30 2059 C 195.616 -2.30312 1.9333 0
M  V30 2060 C 197.164 -2.43906 1.9616 0
M  V30 2061 C 197.639 -3.41496 3.05195 0
M  V30 2062 N 199.13 -3.49053 3.04494 0
M  V30 2063 C 199.865 -4.24471 3.85502 0
M  V30 2064 N 199.361 -5.02966 4.76442 0
M  V30 2065 N 201.154 -4.19864 3.73725 0
M  V30 2066 H 193.305 -0.733246 1.99342 0
M  V30 2067 H 195.568 -0.385234 0.866198 0
M  V30 2068 H 195.274 -1.94933 2.92735 0
M  V30 2069 H 195.148 -3.30421 1.81939 0
M  V30 2070 H 197.535 -2.78567 0.973886 0
M  V30 2071 H 197.616 -1.4369 2.11629 0
M  V30 2072 H 197.26 -3.07565 4.04186 0
M  V30 2073 H 197.19 -4.41539 2.86968 0
M  V30 2074 H 199.681 -2.93053 2.38596 0
M  V30 2075 H 199.994 -5.57846 5.34815 0
M  V30 2076 H 198.339 -5.02167 4.80472 0
M  V30 2077 H 201.53 -3.57623 3.02032 0
M  V30 2078 H 201.703 -4.78386 4.37093 0
M  V30 2079 N 195.109 -0.891671 -1.2995 0
M  V30 2080 C 196.019 -0.367691 -2.31701 0
M  V30 2081 C 197.035 0.533486 -1.6562 0
M  V30 2082 O 198.211 0.424997 -1.96865 0
M  V30 2083 C 195.276 0.403406 -3.44345 0
M  V30 2084 C 194.337 -0.528328 -4.26037 0
M  V30 2085 C 193.57 0.206063 -5.33302 0
M  V30 2086 O 193.793 1.43119 -5.52153 0
M  V30 2087 O 192.727 -0.447281 -6.00236 0
M  V30 2088 H 196.553 -1.21163 -2.78484 0
M  V30 2089 H 194.138 -0.655725 -1.34241 0
M  V30 2090 H 196.02 0.839753 -4.12948 0
M  V30 2091 H 194.695 1.22354 -2.99685 0
M  V30 2092 H 193.602 -1.01362 -3.60106 0
M  V30 2093 H 194.935 -1.31465 -4.74318 0
M  V30 2094 N 196.587 1.43421 -0.653314 0
M  V30 2095 C 197.835 2.01414 -0.166415 0
M  V30 2096 C 198.156 1.51803 1.22397 0
M  V30 2097 O 197.426 0.730693 1.81763 0
M  V30 2098 H 196.006 0.744703 -0.0585319 0
M  V30 2099 H 198.668 1.75629 -0.845003 0
M  V30 2100 H 197.764 3.11734 -0.151111 0
M  V30 2101 N 198.065 0.39524 1.52563 0
M  V30 2102 C 198.995 -0.428384 2.29537 0
M  V30 2103 C 199.976 -1.05831 1.33169 0
M  V30 2104 O 201.161 -1.06995 1.62067 0
M  V30 2105 C 198.291 -1.55274 3.10656 0
M  V30 2106 C 197.245 -1.04855 4.14957 0
M  V30 2107 C 196.571 -2.26543 4.84337 0
M  V30 2108 C 197.871 -0.112324 5.22179 0
M  V30 2109 H 199.565 0.213867 2.98635 0
M  V30 2110 H 197.111 0.104298 1.43622 0
M  V30 2111 H 199.064 -2.1358 3.63265 0
M  V30 2112 H 197.788 -2.22266 2.39302 0
M  V30 2113 H 196.447 -0.487985 3.63338 0
M  V30 2114 H 196.095 -2.92059 4.09525 0
M  V30 2115 H 195.795 -1.93466 5.54837 0
M  V30 2116 H 197.319 -2.85481 5.39753 0
M  V30 2117 H 198.733 -0.603752 5.70112 0
M  V30 2118 H 197.13 0.128968 5.99961 0
M  V30 2119 H 198.2 0.837052 4.77621 0
M  V30 2120 N 199.544 -1.57102 0.125237 0
M  V30 2121 C 200.491 -2.15641 -0.822655 0
M  V30 2122 C 201.461 -1.08313 -1.25927 0
M  V30 2123 O 202.646 -1.36251 -1.33567 0
M  V30 2124 C 199.786 -2.76504 -2.06494 0
M  V30 2125 C 198.899 -3.98158 -1.67612 0
M  V30 2126 C 198.034 -4.47088 -2.86854 0
M  V30 2127 C 197.073 -5.6126 -2.44242 0
M  V30 2128 N 196.21 -6.04905 -3.56419 0
M  V30 2129 H 201.05 -2.96313 -0.316625 0
M  V30 2130 H 198.587 -1.46388 -0.144588 0
M  V30 2131 H 200.545 -3.09925 -2.79289 0
M  V30 2132 H 199.175 -1.98512 -2.54545 0
M  V30 2133 H 198.227 -3.70858 -0.846661 0
M  V30 2134 H 199.539 -4.80934 -1.32301 0
M  V30 2135 H 198.693 -4.82451 -3.67867 0
M  V30 2136 H 197.432 -3.63275 -3.25396 0
M  V30 2137 H 196.437 -5.25495 -1.61663 0
M  V30 2138 H 197.662 -6.46843 -2.0681 0
M  V30 2139 H 195.608 -5.24032 -3.94623 0
M  V30 2140 H 195.525 -6.82552 -3.25051 0
M  V30 2141 H 196.793 -6.44907 -4.37853 0
M  V30 2142 N 201.022 0.148545 -1.56898 0
M  V30 2143 C 201.97 1.20265 -1.99096 0
M  V30 2144 C 202.964 1.44559 -0.883123 0
M  V30 2145 O 204.17 1.4487 -1.0683 0
M  V30 2146 H 200.545 0.404786 -0.63376 0
M  V30 2147 H 202.516 0.82004 -2.86911 0
M  V30 2148 C 201.265 2.52886 -2.3863 0
M  V30 2149 H 200.588 2.35021 -3.23427 0
M  V30 2150 H 202.028 3.25274 -2.7198 0
M  V30 2151 C 200.487 3.13315 -1.23837 0
M  V30 2152 O 201.017 3.98077 -0.538268 0
M  V30 2153 N 199.223 2.72742 -1.00301 0
M  V30 2154 H 198.77 2.03912 -1.5741 0
M  V30 2155 H 198.728 3.13507 -0.236838 0
M  V30 2156 N 202.5 1.5196 0.417844 0
M  V30 2157 C 203.916 1.40569 0.755816 0
M  V30 2158 C 204.116 0.503316 1.95113 0
M  V30 2159 O 203.172 -0.0341925 2.52477 0
M  V30 2160 C 204.485 2.82947 1.01791 0
M  V30 2161 C 206.033 2.92231 1.12116 0
M  V30 2162 C 206.508 4.35559 1.41608 0
M  V30 2163 N 207.999 4.38753 1.48491 0
M  V30 2164 C 208.734 5.46705 1.7292 0
M  V30 2165 N 208.23 6.64788 1.95011 0
M  V30 2166 N 210.023 5.34209 1.74863 0
M  V30 2167 H 202.174 2.09168 -0.369098 0
M  V30 2168 H 204.437 0.942409 -0.102809 0
M  V30 2169 H 204.143 3.5106 0.212081 0
M  V30 2170 H 204.017 3.23462 1.94042 0
M  V30 2171 H 206.404 2.24304 1.9176 0
M  V30 2172 H 206.485 2.55185 0.177225 0
M  V30 2173 H 206.129 5.04042 0.624848 0
M  V30 2174 H 206.059 4.70133 2.37239 0
M  V30 2175 H 208.55 3.5363 1.33244 0
M  V30 2176 H 208.863 7.42845 2.13076 0
M  V30 2177 H 207.208 6.67869 1.92293 0
M  V30 2178 H 210.399 4.40937 1.57137 0
M  V30 2179 H 210.572 6.18415 1.93563 0
M  V30 2180 N 203.978 -0.674533 1.42435 0
M  V30 2181 C 205.208 -1.46071 1.46105 0
M  V30 2182 C 205.616 -1.89067 0.0709605 0
M  V30 2183 O 204.959 -1.58731 -0.924677 0
M  V30 2184 C 205.021 -2.74145 2.32561 0
M  V30 2185 C 204.685 -2.53224 3.8043 0
M  V30 2186 C 205.682 -2.17809 4.72075 0
M  V30 2187 C 203.367 -2.6821 4.24698 0
M  V30 2188 C 205.361 -1.97648 6.05982 0
M  V30 2189 C 203.048 -2.47665 5.58664 0
M  V30 2190 C 204.046 -2.12437 6.49122 0
M  V30 2191 O 203.734 -1.9209 7.80613 0
M  V30 2192 H 203.466 -0.455959 0.499076 0
M  V30 2193 H 206.02 -0.836193 1.87609 0
M  V30 2194 H 204.25 -3.3908 1.85908 0
M  V30 2195 H 205.939 -3.36028 2.27683 0
M  V30 2196 H 206.705 -2.05826 4.39159 0
M  V30 2197 H 202.584 -2.94609 3.54579 0
M  V30 2198 H 206.128 -1.70075 6.7655 0
M  V30 2199 H 202.025 -2.59244 5.91154 0
M  V30 2200 H 202.793 -2.06686 7.91974 0
M  V30 2201 N 205.456 -1.28612 -0.910864 0
M  V30 2202 C 206.704 -1.15705 -1.65701 0
M  V30 2203 C 207.025 0.29416 -1.92769 0
M  V30 2204 O 206.295 1.20331 -1.54588 0
M  V30 2205 H 204.875 -0.425216 -0.614167 0
M  V30 2206 H 207.537 -1.61381 -1.0928 0
M  V30 2207 H 206.633 -1.6988 -2.61815 0
M  V30 2208 N 206.934 1.1197 -1.10907 0
M  V30 2209 C 207.897 2.16031 -0.765707 0
M  V30 2210 C 208.897 1.59393 0.212235 0
M  V30 2211 O 210.087 1.74196 -0.0115441 0
M  V30 2212 C 207.219 3.40632 -0.135053 0
M  V30 2213 H 208.412 2.47919 -1.68748 0
M  V30 2214 H 205.965 1.27061 -0.910226 0
M  V30 2215 H 206.7 3.14348 0.797218 0
M  V30 2216 H 206.485 3.8302 -0.838937 0
M  V30 2217 H 207.975 4.17505 0.0892469 0
M  V30 2218 N 208.412 0.89855 1.29475 0
M  V30 2219 C 209.342 0.39201 2.30186 0
M  V30 2220 C 210.323 -0.532359 1.61555 0
M  V30 2221 O 211.508 -0.443331 1.89072 0
M  V30 2222 C 208.638 -0.382353 3.45189 0
M  V30 2223 C 207.592 0.451483 4.25612 0
M  V30 2224 C 206.918 -0.450307 5.328 0
M  V30 2225 C 208.218 1.70079 4.93832 0
M  V30 2226 H 209.912 1.23362 2.72804 0
M  V30 2227 H 207.458 0.594638 1.31149 0
M  V30 2228 H 209.411 -0.747451 4.14718 0
M  V30 2229 H 208.135 -1.25774 3.01411 0
M  V30 2230 H 206.794 0.798897 3.57789 0
M  V30 2231 H 206.442 -1.32379 4.85268 0
M  V30 2232 H 206.142 0.103902 5.87508 0
M  V30 2233 H 207.666 -0.811623 6.05182 0
M  V30 2234 H 209.08 1.40549 5.55805 0
M  V30 2235 H 207.477 2.19623 5.58467 0
M  V30 2236 H 208.547 2.43744 4.19186 0
M  V30 2237 N 209.89 -1.43072 0.660911 0
M  V30 2238 C 210.823 -2.28074 -0.0758862 0
M  V30 2239 C 211.801 -1.40271 -0.822362 0
M  V30 2240 O 212.985 -1.69713 -0.820352 0
M  V30 2241 C 210.112 -3.19843 -1.11437 0
M  V30 2242 C 209.158 -4.23957 -0.465069 0
M  V30 2243 S 209.991 -5.29978 0.767078 0
M  V30 2244 C 211.147 -6.25314 -0.270682 0
M  V30 2245 H 211.38 -2.90216 0.645139 0
M  V30 2246 H 208.913 -1.47697 0.449995 0
M  V30 2247 H 210.871 -3.73257 -1.70849 0
M  V30 2248 H 209.532 -2.56863 -1.80776 0
M  V30 2249 H 208.725 -4.88299 -1.24819 0
M  V30 2250 H 208.327 -3.73959 0.0551242 0
M  V30 2251 H 210.619 -6.67932 -1.13459 0
M  V30 2252 H 211.562 -7.07293 0.337916 0
M  V30 2253 H 211.97 -5.61195 -0.609937 0
M  V30 2254 N 211.368 -0.403325 -1.52352 0
M  V30 2255 C 212.3 0.4603 -2.2453 0
M  V30 2256 C 213.313 1.01505 -1.27282 0
M  V30 2257 O 214.502 0.914982 -1.53266 0
M  V30 2258 C 211.602 1.65208 -2.95905 0
M  V30 2259 C 210.775 1.22224 -4.19976 0
M  V30 2260 C 209.834 2.28028 -4.74226 0
M  V30 2261 O 208.86 1.88857 -5.36956 0
M  V30 2262 N 210.062 3.6012 -4.55295 0
M  V30 2263 H 212.827 -0.158156 -2.99282 0
M  V30 2264 H 210.388 -0.230402 -1.60252 0
M  V30 2265 H 212.38 2.35541 -3.29093 0
M  V30 2266 H 210.95 2.17658 -2.24374 0
M  V30 2267 H 210.17 0.34725 -3.92668 0
M  V30 2268 H 211.458 0.911924 -5.00561 0
M  V30 2269 H 210.856 3.94698 -4.05253 0
M  V30 2270 H 209.413 4.26447 -4.92936 0
M  V30 2271 N 212.846 1.57033 -0.133567 0
M  V30 2272 C 214.074 2.00044 0.528195 0
M  V30 2273 C 214.489 1.01349 1.59291 0
M  V30 2274 O 213.846 0.00848369 1.82498 0
M  V30 2275 C 213.897 3.43018 1.1411 0
M  V30 2276 O 213.618 4.37939 0.11892 0
M  V30 2277 C 215.119 4.01237 1.88477 0
M  V30 2278 H 212.339 0.656517 0.138661 0
M  V30 2279 H 214.883 2.03267 -0.224196 0
M  V30 2280 H 213.038 3.40688 1.84418 0
M  V30 2281 H 213.452 5.21436 0.56613 0
M  V30 2282 H 214.926 5.03314 2.26669 0
M  V30 2283 H 215.403 3.41193 2.76558 0
M  V30 2284 H 216.009 4.07156 1.22898 0
M  V30 2285 N 214.325 -0.140222 1.56975 0
M  V30 2286 C 215.574 -0.850152 1.82908 0
M  V30 2287 C 215.887 -1.82028 0.715892 0
M  V30 2288 O 217.093 -2.57485 0.861016 0
M  V30 2289 C 215.549 -1.5625 3.24213 0
M  V30 2290 C 215.157 -0.63443 4.43485 0
M  V30 2291 C 216.901 -2.25881 3.59413 0
M  V30 2292 C 214.808 -1.34879 5.75814 0
M  V30 2293 H 213.738 -0.321221 0.682153 0
M  V30 2294 H 216.389 -0.102874 1.83211 0
M  V30 2295 H 214.771 -2.35565 3.18316 0
M  V30 2296 H 215.945 0.12398 4.60633 0
M  V30 2297 H 214.26 -0.0461836 4.16374 0
M  V30 2298 H 216.857 -2.79978 4.5554 0
M  V30 2299 H 217.2 -3.02693 2.85802 0
M  V30 2300 H 217.733 -1.53477 3.67001 0
M  V30 2301 H 214.472 -0.622385 6.52539 0
M  V30 2302 H 213.992 -2.07974 5.6259 0
M  V30 2303 H 215.671 -1.88784 6.18845 0
M  V30 2304 N 215.803 -1.52179 -0.40978 0
M  V30 2305 C 217.028 -1.70347 -1.18308 0
M  V30 2306 C 217.453 -0.411887 -1.83535 0
M  V30 2307 O 216.811 0.630587 -1.6998 0
M  V30 2308 C 216.859 -2.83977 -2.22238 0
M  V30 2309 O 215.963 -2.495 -3.28365 0
M  V30 2310 H 215.304 -0.567103 -0.345384 0
M  V30 2311 H 217.834 -1.98879 -0.480445 0
M  V30 2312 H 217.844 -3.0887 -2.66577 0
M  V30 2313 H 216.519 -3.77685 -1.74146 0
M  V30 2314 H 215.096 -2.35277 -2.89308 0
M  V30 2315 N 217.281 0.66697 -1.42791 0
M  V30 2316 C 218.529 1.42417 -1.43394 0
M  V30 2317 C 218.85 1.94925 -0.0542373 0
M  V30 2318 O 218.12 1.73564 0.908415 0
M  V30 2319 H 216.7 0.528515 -0.527902 0
M  V30 2320 H 219.362 0.787562 -1.78279 0
M  V30 2321 H 218.458 2.27333 -2.13837 0
M  V30 2322 N 218.759 1.29093 0.90403 0
M  V30 2323 C 220.005 1.16986 1.65656 0
M  V30 2324 C 220.338 -0.278925 1.92186 0
M  V30 2325 O 219.613 -1.2019 1.5292 0
M  V30 2326 C 219.896 1.97908 3.0084 0
M  V30 2327 C 219.749 3.50903 2.81403 0
M  V30 2328 C 221.068 1.80208 4.01513 0
M  V30 2329 H 218.187 0.426346 0.601164 0
M  V30 2330 H 220.829 1.58518 1.04747 0
M  V30 2331 H 218.979 1.62616 3.52829 0
M  V30 2332 H 220.651 3.96153 2.36348 0
M  V30 2333 H 218.894 3.76045 2.1627 0
M  V30 2334 H 219.565 4.02791 3.77443 0
M  V30 2335 H 222.041 2.11025 3.58619 0
M  V30 2336 H 220.917 2.39184 4.94047 0
M  V30 2337 H 221.178 0.756119 4.35586 0
M  V30 2338 N 220.237 -1.11381 1.11499 0
M  V30 2339 C 221.187 -2.15555 0.74298 0
M  V30 2340 C 222.171 -1.58894 -0.253276 0
M  V30 2341 O 223.363 -1.76897 -0.0602918 0
M  V30 2342 C 220.492 -3.42782 0.188481 0
M  V30 2343 C 219.578 -4.064 1.21244 0
M  V30 2344 N 219.969 -4.44864 2.40685 0
M  V30 2345 C 218.267 -4.3333 1.05552 0
M  V30 2346 C 218.968 -4.94715 3.05994 0
M  V30 2347 N 217.944 -4.90909 2.33472 0
M  V30 2348 H 221.746 -2.43074 1.65203 0
M  V30 2349 H 219.26 -1.28401 0.994329 0
M  V30 2350 H 221.257 -4.16789 -0.0961693 0
M  V30 2351 H 219.917 -3.16727 -0.715149 0
M  V30 2352 H 220.928 -4.36876 2.78136 0
M  V30 2353 H 217.605 -4.1698 0.208372 0
M  V30 2354 H 218.995 -5.34103 4.07656 0
M  V30 2355 N 221.715 -0.905404 -1.28997 0
M  V30 2356 C 222.945 -0.549049 -1.99171 0
M  V30 2357 C 223.353 0.87203 -1.67906 0
M  V30 2358 O 222.696 1.58796 -0.923561 0
M  V30 2359 C 222.758 -0.668306 -3.53234 0
M  V30 2360 C 222.422 -2.0574 -4.08069 0
M  V30 2361 C 223.419 -3.0292 -4.22534 0
M  V30 2362 C 221.104 -2.36833 -4.42962 0
M  V30 2363 C 223.098 -4.29314 -4.71135 0
M  V30 2364 C 220.785 -3.63467 -4.91258 0
M  V30 2365 C 221.783 -4.59522 -5.053 0
M  V30 2366 O 221.471 -5.83907 -5.52546 0
M  V30 2367 H 221.203 -0.208784 -0.64295 0
M  V30 2368 H 223.757 -1.21836 -1.65363 0
M  V30 2369 H 221.987 0.0580547 -3.86656 0
M  V30 2370 H 223.676 -0.320273 -4.04634 0
M  V30 2371 H 224.442 -2.80216 -3.95859 0
M  V30 2372 H 220.321 -1.62824 -4.31288 0
M  V30 2373 H 223.865 -5.04293 -4.8201 0
M  V30 2374 H 219.762 -3.86 -5.17372 0
M  V30 2375 H 220.53 -5.86578 -5.70849 0
M  V30 2376 N 223.193 1.4272 -0.668489 0
M  V30 2377 C 224.141 2.32586 0.0254857 0
M  V30 2378 C 225.135 1.49471 0.797176 0
M  V30 2379 O 226.341 1.65583 0.705853 0
M  V30 2380 H 222.716 0.751514 0.0270339 0
M  V30 2381 H 224.687 2.88823 -0.749936 0
M  V30 2382 C 223.436 3.3397 0.967427 0
M  V30 2383 H 222.759 3.97961 0.383048 0
M  V30 2384 H 224.199 3.9945 1.42181 0
M  V30 2385 C 222.658 2.65744 2.0708 0
M  V30 2386 O 223.188 2.48454 3.15648 0
M  V30 2387 N 221.394 2.2487 1.8407 0
M  V30 2388 H 220.941 2.39132 0.95778 0
M  V30 2389 H 220.899 1.79552 2.58086 0
M  V30 2390 N 224.671 0.411399 1.52136 0
M  V30 2391 C 225.918 -0.163645 2.01838 0
M  V30 2392 C 226.246 -1.4495 1.29691 0
M  V30 2393 O 225.501 -1.91725 0.392431 0
M  V30 2394 C 225.8 -0.455872 3.54481 0
M  V30 2395 C 225.466 0.741055 4.44769 0
M  V30 2396 C 224.128 1.06936 4.69167 0
M  V30 2397 C 226.48 1.54075 4.97906 0
M  V30 2398 C 223.808 2.19851 5.43951 0
M  V30 2399 C 226.16 2.66067 5.73926 0
M  V30 2400 C 224.824 2.99381 5.96596 0
M  V30 2401 H 224.094 -0.0598821 0.738576 0
M  V30 2402 H 226.741 0.553283 1.83333 0
M  V30 2403 H 225.046 -1.2544 3.71177 0
M  V30 2404 H 226.743 -0.913802 3.90449 0
M  V30 2405 H 223.333 0.475192 4.25958 0
M  V30 2406 H 227.517 1.30033 4.78963 0
M  V30 2407 H 222.773 2.46006 5.59724 0
M  V30 2408 H 226.947 3.28419 6.14096 0
M  V30 2409 H 224.574 3.86992 6.54325 0
M  V30 2410 N 226.149 -1.5696 0.141893 0
M  V30 2411 C 227.374 -2.00754 -0.520838 0
M  V30 2412 C 227.799 -1.0213 -1.57959 0
M  V30 2413 O 227.157 0.00371324 -1.813 0
M  V30 2414 C 227.205 -3.43318 -1.10294 0
M  V30 2415 O 226.309 -3.47679 -2.21795 0
M  V30 2416 H 225.65 -0.651564 -0.127908 0
M  V30 2417 H 228.18 -2.03221 0.23712 0
M  V30 2418 H 228.19 -3.82012 -1.43287 0
M  V30 2419 H 226.865 -4.14608 -0.327574 0
M  V30 2420 H 225.442 -3.20824 -1.9007 0
M  V30 2421 N 227.627 0.131896 -1.57047 0
M  V30 2422 C 228.557 1.16384 -2.02428 0
M  V30 2423 C 229.538 1.43936 -0.90644 0
M  V30 2424 O 230.723 1.54599 -1.17528 0
M  V30 2425 C 227.853 2.49328 -2.4177 0
M  V30 2426 C 226.807 2.36266 -3.56879 0
M  V30 2427 C 226.133 3.74057 -3.8208 0
M  V30 2428 C 227.433 1.834 -4.89042 0
M  V30 2429 H 229.127 0.786433 -2.88887 0
M  V30 2430 H 226.673 0.376855 -1.38981 0
M  V30 2431 H 228.626 3.21759 -2.7212 0
M  V30 2432 H 227.35 2.88934 -1.52266 0
M  V30 2433 H 226.009 1.66286 -3.26718 0
M  V30 2434 H 225.657 4.11125 -2.89803 0
M  V30 2435 H 225.357 3.66174 -4.59554 0
M  V30 2436 H 226.881 4.48012 -4.1487 0
M  V30 2437 H 228.295 2.45636 -5.18011 0
M  V30 2438 H 226.692 1.8637 -5.70426 0
M  V30 2439 H 227.762 0.790662 -4.7841 0
M  V30 2440 N 229.106 1.52395 0.401703 0
M  V30 2441 C 230.517 1.58899 0.980202 0
M  V30 2442 C 230.868 0.434032 1.91339 0
M  V30 2443 O 229.993 -0.444619 2.11783 0
M  V30 2444 C 230.588 2.87994 1.78451 0
M  V30 2445 C 229.147 2.96953 2.31292 0
M  V30 2446 C 228.294 2.53903 1.11483 0
M  V30 2447 H 231.245 1.57657 0.18168 0
M  V30 2448 H 231.266 2.73765 2.64259 0
M  V30 2449 H 230.778 3.72035 1.10506 0
M  V30 2450 H 228.879 2.17422 3.02586 0
M  V30 2451 H 228.992 4.01344 2.61649 0
M  V30 2452 H 227.356 2.07925 1.47104 0
M  V30 2453 H 228.139 3.40326 0.450928 0
M  V30 2454 N 230.584 -0.659388 1.43143 0
M  V30 2455 C 231.517 -1.78425 1.42267 0
M  V30 2456 C 232.495 -1.60085 0.284894 0
M  V30 2457 O 233.679 -1.82351 0.477527 0
M  V30 2458 C 230.806 -3.15642 1.22833 0
M  V30 2459 C 229.852 -3.52698 2.39806 0
M  V30 2460 S 230.685 -3.53372 4.02353 0
M  V30 2461 C 231.841 -4.93256 3.85291 0
M  V30 2462 H 232.074 -1.78897 2.37452 0
M  V30 2463 H 229.607 -0.831469 1.301 0
M  V30 2464 H 231.565 -3.94838 1.12308 0
M  V30 2465 H 230.226 -3.12739 0.29207 0
M  V30 2466 H 229.419 -4.52475 2.21996 0
M  V30 2467 H 229.021 -2.80899 2.46925 0
M  V30 2468 H 231.313 -5.81751 3.47235 0
M  V30 2469 H 232.256 -5.16115 4.84799 0
M  V30 2470 H 232.664 -4.665 3.17865 0
M  V30 2471 N 232.062 -1.29571 -0.897171 0
M  V30 2472 C 233.025 -1.14913 -1.98312 0
M  V30 2473 C 234.025 -0.0838629 -1.60581 0
M  V30 2474 O 235.215 -0.331006 -1.71026 0
M  V30 2475 C 232.347 -0.757835 -3.3237 0
M  V30 2476 H 233.54 -2.11377 -2.12743 0
M  V30 2477 H 231.093 -1.12793 -1.08201 0
M  V30 2478 H 231.828 0.206837 -3.2364 0
M  V30 2479 H 231.613 -1.52755 -3.61121 0
M  V30 2480 H 233.103 -0.678408 -4.12053 0
M  V30 2481 N 233.54 1.10788 -1.12088 0
M  V30 2482 C 234.787 1.82671 -0.873931 0
M  V30 2483 C 235.115 1.85004 0.600311 0
M  V30 2484 O 234.37 1.30365 1.45957 0
M  V30 2485 C 234.669 3.29294 -1.38926 0
M  V30 2486 C 234.335 3.47113 -2.87791 0
M  V30 2487 C 232.997 3.51684 -3.28439 0
M  V30 2488 C 235.349 3.52808 -3.83635 0
M  V30 2489 C 232.677 3.59513 -4.63646 0
M  V30 2490 C 235.029 3.62169 -5.18668 0
M  V30 2491 C 233.693 3.65003 -5.58864 0
M  V30 2492 H 232.963 0.668441 -0.319794 0
M  V30 2493 H 235.61 1.30613 -1.40045 0
M  V30 2494 H 233.915 3.83894 -0.783122 0
M  V30 2495 H 235.612 3.83416 -1.17443 0
M  V30 2496 H 232.202 3.4423 -2.5535 0
M  V30 2497 H 236.386 3.4853 -3.53328 0
M  V30 2498 H 231.642 3.59987 -4.94185 0
M  V30 2499 H 235.816 3.6552 -5.92763 0
M  V30 2500 H 233.443 3.70822 -6.63623 0
M  V30 2501 N 235.018 0.912232 1.28515 0
M  V30 2502 C 236.264 0.554851 1.95686 0
M  V30 2503 C 236.619 -0.89138 1.70506 0
M  V30 2504 O 235.912 -1.62529 1.01464 0
M  V30 2505 C 236.106 0.798392 3.48368 0
M  V30 2506 C 235.935 2.26674 3.88393 0
M  V30 2507 C 234.705 2.91657 4.12631 0
M  V30 2508 C 236.903 3.24303 3.99164 0
M  V30 2509 N 234.885 4.28805 4.39317 0
M  V30 2510 C 236.256 4.4661 4.30046 0
M  V30 2511 C 238.311 3.19723 3.81683 0
M  V30 2512 C 237.014 5.64915 4.45268 0
M  V30 2513 C 239.04 4.37325 3.98121 0
M  V30 2514 C 238.402 5.58406 4.29375 0
M  V30 2515 H 234.501 0.252876 0.739985 0
M  V30 2516 H 237.085 1.17565 1.55199 0
M  V30 2517 H 235.256 0.20688 3.87849 0
M  V30 2518 H 236.988 0.405193 4.02666 0
M  V30 2519 H 233.743 2.42393 4.06869 0
M  V30 2520 H 234.167 4.99712 4.56746 0
M  V30 2521 H 238.809 2.27191 3.56573 0
M  V30 2522 H 236.527 6.57927 4.6921 0
M  V30 2523 H 240.113 4.35282 3.86033 0
M  V30 2524 H 238.993 6.47889 4.41825 0
M  V30 2525 N 236.496 -1.42363 0.676048 0
M  V30 2526 C 237.428 -2.29164 -0.0404605 0
M  V30 2527 C 238.441 -1.43747 -0.764245 0
M  V30 2528 O 239.63 -1.67453 -0.618195 0
M  V30 2529 C 236.73 -3.21196 -1.08103 0
M  V30 2530 C 235.903 -4.35273 -0.430812 0
M  V30 2531 C 234.962 -5.08017 -1.37133 0
M  V30 2532 O 233.988 -5.62494 -0.87116 0
M  V30 2533 N 235.19 -5.13647 -2.70456 0
M  V30 2534 H 237.955 -2.91298 0.704667 0
M  V30 2535 H 235.516 -1.53303 0.520559 0
M  V30 2536 H 237.508 -3.66728 -1.71152 0
M  V30 2537 H 236.078 -2.60505 -1.72788 0
M  V30 2538 H 235.298 -3.92372 0.379209 0
M  V30 2539 H 236.586 -5.08795 0.0221132 0
M  V30 2540 H 235.984 -4.708 -3.1363 0
M  V30 2541 H 234.541 -5.62821 -3.28749 0
M  V30 2542 N 237.974 -0.419461 -1.51915 0
M  V30 2543 C 238.937 0.389116 -2.25873 0
M  V30 2544 C 239.937 0.964924 -1.28631 0
M  V30 2545 O 241.127 0.842179 -1.52489 0
M  V30 2546 C 238.259 1.54874 -3.03689 0
M  V30 2547 H 239.452 -0.258799 -2.98781 0
M  V30 2548 H 237.005 -0.172209 -1.55348 0
M  V30 2549 H 237.74 2.23323 -2.35154 0
M  V30 2550 H 237.525 1.14223 -3.75094 0
M  V30 2551 H 239.015 2.12046 -3.59759 0
M  V30 2552 N 239.452 1.56882 -0.150215 0
M  V30 2553 C 240.399 2.16922 0.788244 0
M  V30 2554 C 241.369 1.10303 1.24187 0
M  V30 2555 O 242.554 1.38359 1.31383 0
M  V30 2556 C 239.694 2.79754 2.02068 0
M  V30 2557 C 238.807 4.00775 1.61257 0
M  V30 2558 C 237.942 4.51595 2.79705 0
M  V30 2559 C 236.981 5.65074 2.35282 0
M  V30 2560 N 236.118 6.10499 3.4675 0
M  V30 2561 H 240.958 2.96779 0.269444 0
M  V30 2562 H 238.495 1.46599 0.12128 0
M  V30 2563 H 240.453 3.14329 2.74323 0
M  V30 2564 H 239.083 2.02536 2.51354 0
M  V30 2565 H 238.135 3.72158 0.787553 0
M  V30 2566 H 239.447 4.82978 1.24633 0
M  V30 2567 H 238.601 4.88242 3.60145 0
M  V30 2568 H 237.34 3.68406 3.19576 0
M  V30 2569 H 236.345 5.28 1.53283 0
M  V30 2570 H 237.57 6.50052 1.96493 0
M  V30 2571 H 235.516 5.30243 3.86236 0
M  V30 2572 H 235.433 6.87637 3.14152 0
M  V30 2573 H 236.701 6.51791 4.27537 0
M  V30 2574 N 240.93 -0.123565 1.57115 0
M  V30 2575 C 242.17 -0.838097 1.86428 0
M  V30 2576 C 242.534 -1.77266 0.737611 0
M  V30 2577 O 243.735 -2.52842 0.912389 0
M  V30 2578 C 242.006 -1.57219 3.20962 0
M  V30 2579 S 243.565 -2.32893 3.71896 0
M  V30 2580 H 240.383 -0.279811 0.653626 0
M  V30 2581 H 242.985 -0.0967034 1.95261 0
M  V30 2582 H 241.689 -0.877522 4.00909 0
M  V30 2583 H 241.22 -2.35405 3.15195 0
M  V30 2584 H 243.235 -3.5853 3.43032 0
M  V30 2585 N 242.408 -1.52605 -0.393616 0
M  V30 2586 C 243.656 -1.67093 -1.13685 0
M  V30 2587 C 243.977 -0.411011 -1.90619 0
M  V30 2588 O 243.247 0.574491 -1.87287 0
M  V30 2589 H 241.827 -0.615923 -0.422668 0
M  V30 2590 H 244.489 -1.89704 -0.447039 0
M  V30 2591 H 243.585 -2.51922 -1.84232 0
M  V30 2592 N 243.887 0.651787 -1.4349 0
M  V30 2593 C 245.164 1.40909 -1.35661 0
M  V30 2594 C 245.544 2.11099 -0.00511733 0
M  V30 2595 O 244.892 2.04892 1.0115 0
M  V30 2596 C 245.102 2.3926 -2.54078 0
M  V30 2597 C 246.45 3.03217 -2.97228 0
M  V30 2598 O 247.474 2.49588 -2.54135 0
M  V30 2599 O 246.333 4.00455 -3.71885 0
M  V30 2600 H 243.427 0.629625 -0.536191 0
M  V30 2601 H 245.973 0.678575 -1.55542 0
M  V30 2602 H 244.745 1.86352 -3.44076 0
M  V30 2603 H 244.368 3.1976 -2.36303 0
M  V30 2604 N 245.365 1.30045 0.890287 0
M  V30 2605 C 246.614 1.17929 1.63633 0
M  V30 2606 C 246.927 -0.266204 1.9378 0
M  V30 2607 O 248.133 -0.508804 2.6669 0
M  V30 2608 C 246.589 2.06317 2.94892 0
M  V30 2609 C 246.197 3.55745 2.72305 0
M  V30 2610 C 247.941 2.0295 3.72843 0
M  V30 2611 C 245.848 4.36205 3.99348 0
M  V30 2612 H 244.778 0.437782 0.613892 0
M  V30 2613 H 247.429 1.54754 0.986075 0
M  V30 2614 H 245.811 1.6237 3.61182 0
M  V30 2615 H 246.985 4.07805 2.1455 0
M  V30 2616 H 245.3 3.6088 2.07737 0
M  V30 2617 H 247.897 2.60319 4.67053 0
M  V30 2618 H 248.24 1.0117 4.0382 0
M  V30 2619 H 248.773 2.4499 3.13408 0
M  V30 2620 H 245.512 5.38659 3.73533 0
M  V30 2621 H 245.032 3.8891 4.56628 0
M  V30 2622 H 246.711 4.47362 4.67415 0
M  V30 2623 N 246.843 -1.10192 1.12674 0
M  V30 2624 C 248.068 -1.86523 0.906853 0
M  V30 2625 C 248.493 -1.80221 -0.538711 0
M  V30 2626 O 247.851 -1.17396 -1.38158 0
M  V30 2627 C 247.899 -3.32758 1.3894 0
M  V30 2628 O 247.003 -4.08449 0.5695 0
M  V30 2629 H 246.344 -0.578678 0.325619 0
M  V30 2630 H 248.874 -1.39203 1.49946 0
M  V30 2631 H 248.884 -3.83608 1.38958 0
M  V30 2632 H 247.559 -3.36661 2.44197 0
M  V30 2633 H 246.136 -3.67427 0.636528 0
M  V30 2634 N 248.321 -0.919034 -1.28029 0
M  V30 2635 C 249.569 -0.553838 -1.94363 0
M  V30 2636 C 249.89 0.906357 -1.72656 0
M  V30 2637 O 249.16 1.64143 -1.0693 0
M  V30 2638 H 247.74 -0.201834 -0.719216 0
M  V30 2639 H 250.402 -1.16954 -1.55909 0
M  V30 2640 H 249.498 -0.752758 -3.02886 0
M  V30 2641 N 249.799 1.42003 -0.683588 0
M  V30 2642 C 250.762 2.29191 -0.0198243 0
M  V30 2643 C 251.762 1.43773 0.72013 0
M  V30 2644 O 252.952 1.65061 0.556815 0
M  V30 2645 C 250.084 3.26435 0.982487 0
M  V30 2646 H 251.277 2.8938 -0.787345 0
M  V30 2647 H 248.83 1.49789 -0.446418 0
M  V30 2648 H 249.565 2.71203 1.77819 0
M  V30 2649 H 249.35 3.89449 0.455182 0
M  V30 2650 H 250.84 3.918 1.44508 0
M  V30 2651 N 251.277 0.427512 1.51691 0
M  V30 2652 C 252.554 -0.201684 1.94557 0
M  V30 2653 C 252.934 -1.60981 1.36559 0
M  V30 2654 O 252.282 -2.21814 0.548702 0
M  V30 2655 C 252.492 -0.189394 3.48486 0
M  V30 2656 C 253.84 -0.39978 4.22714 0
M  V30 2657 O 254.864 -0.267945 3.55191 0
M  V30 2658 O 253.723 -0.661249 5.42485 0
M  V30 2659 H 250.817 -0.135261 0.815864 0
M  V30 2660 H 253.363 0.484782 1.62628 0
M  V30 2661 H 252.135 0.795431 3.8313 0
M  V30 2662 H 251.758 -0.919187 3.86829 0
M  V30 2663 N 252.755 -1.56801 0.158532 0
M  V30 2664 C 253.718 -2.16138 -0.762705 0
M  V30 2665 C 254.718 -1.1061 -1.16713 0
M  V30 2666 O 255.908 -1.36191 -1.08617 0
M  V30 2667 C 253.04 -2.73386 -2.03649 0
M  V30 2668 H 254.233 -2.98886 -0.246354 0
M  V30 2669 H 251.786 -1.56035 -0.0909744 0
M  V30 2670 H 252.521 -1.94335 -2.59623 0
M  V30 2671 H 252.306 -3.50601 -1.75559 0
M  V30 2672 H 253.796 -3.19065 -2.6942 0
M  V30 2673 N 254.233 0.115231 -1.57178 0
M  V30 2674 C 255.18 1.14115 -2.00615 0
M  V30 2675 C 256.15 1.40939 -0.878941 0
M  V30 2676 O 257.335 1.52741 -1.14345 0
M  V30 2677 C 254.475 2.46156 -2.4187 0
M  V30 2678 C 253.588 2.26236 -3.68024 0
M  V30 2679 C 252.723 3.51534 -3.98243 0
M  V30 2680 C 251.762 3.26787 -5.17568 0
M  V30 2681 N 250.899 4.44298 -5.43639 0
M  V30 2682 H 255.739 0.763743 -2.88047 0
M  V30 2683 H 253.276 0.365615 -1.42484 0
M  V30 2684 H 255.234 3.23189 -2.63827 0
M  V30 2685 H 253.864 2.81783 -1.57475 0
M  V30 2686 H 252.916 1.40102 -3.5366 0
M  V30 2687 H 254.228 2.03929 -4.55208 0
M  V30 2688 H 253.382 4.36984 -4.20868 0
M  V30 2689 H 252.121 3.76876 -3.09541 0
M  V30 2690 H 251.126 2.39729 -4.94783 0
M  V30 2691 H 252.351 3.02812 -6.0785 0
M  V30 2692 H 250.297 4.69754 -4.57895 0
M  V30 2693 H 250.214 4.25109 -6.25154 0
M  V30 2694 H 251.482 5.3087 -5.70786 0
M  V30 2695 N 255.711 1.52812 0.385517 0
M  V30 2696 C 256.621 1.80766 1.49535 0
M  V30 2697 C 257.637 0.694651 1.59532 0
M  V30 2698 O 258.813 0.982611 1.75803 0
M  V30 2699 C 255.878 1.97381 2.85029 0
M  V30 2700 C 254.939 3.21295 2.84724 0
M  V30 2701 C 254.172 3.37108 4.13756 0
M  V30 2702 O 254.395 2.5765 5.08893 0
M  V30 2703 O 253.329 4.30378 4.20783 0
M  V30 2704 H 257.155 2.75015 1.28842 0
M  V30 2705 H 254.74 1.37946 0.573697 0
M  V30 2706 H 256.622 2.09996 3.65349 0
M  V30 2707 H 255.297 1.06322 3.05741 0
M  V30 2708 H 254.204 3.1412 2.03174 0
M  V30 2709 H 255.537 4.12212 2.68965 0
M  V30 2710 N 257.189 -0.644168 1.43834 0
M  V30 2711 C 258.136 -1.75671 1.49694 0
M  V30 2712 C 259.106 -1.6246 0.345809 0
M  V30 2713 O 260.291 -1.82573 0.554234 0
M  V30 2714 C 257.431 -3.13867 1.43463 0
M  V30 2715 C 256.544 -3.38147 2.6885 0
M  V30 2716 C 255.679 -4.66241 2.54544 0
M  V30 2717 C 254.718 -4.83657 3.75157 0
M  V30 2718 N 253.855 -6.03016 3.59605 0
M  V30 2719 H 258.695 -1.69998 2.44754 0
M  V30 2720 H 256.232 -0.829458 1.21484 0
M  V30 2721 H 258.19 -3.9377 1.37843 0
M  V30 2722 H 256.82 -3.18588 0.519783 0
M  V30 2723 H 255.872 -2.52276 2.84712 0
M  V30 2724 H 257.184 -3.46899 3.58417 0
M  V30 2725 H 256.338 -5.54285 2.46683 0
M  V30 2726 H 255.077 -4.59826 1.62516 0
M  V30 2727 H 254.082 -3.94046 3.83416 0
M  V30 2728 H 255.307 -4.91896 4.68204 0
M  V30 2729 H 253.253 -5.97715 2.7032 0
M  V30 2730 H 253.17 -6.12766 4.42779 0
M  V30 2731 H 254.438 -6.93657 3.55613 0
M  V30 2732 N 258.668 -1.30515 -0.883378 0
M  V30 2733 C 259.917 -1.18795 -1.63005 0
M  V30 2734 C 260.23 0.255923 -1.93919 0
M  V30 2735 O 261.436 0.494654 -2.66956 0
M  V30 2736 C 259.892 -2.07878 -2.93794 0
M  V30 2737 C 259.5 -3.57184 -2.70414 0
M  V30 2738 C 261.244 -2.04924 -3.71761 0
M  V30 2739 C 259.151 -4.38317 -3.97029 0
M  V30 2740 H 258.081 -0.441031 -0.611562 0
M  V30 2741 H 260.732 -1.55275 -0.977854 0
M  V30 2742 H 259.114 -1.64283 -3.60315 0
M  V30 2743 H 260.288 -4.08937 -2.12384 0
M  V30 2744 H 258.603 -3.61976 -2.0582 0
M  V30 2745 H 261.2 -2.62792 -4.65665 0
M  V30 2746 H 261.543 -1.0331 -4.03277 0
M  V30 2747 H 262.076 -2.46649 -3.12104 0
M  V30 2748 H 258.815 -5.40632 -3.70671 0
M  V30 2749 H 258.335 -3.91326 -4.54559 0
M  V30 2750 H 260.014 -4.49834 -4.65036 0
M  V30 2751 N 260.146 1.09593 -1.13257 0
M  V30 2752 C 261.371 1.8604 -0.916732 0
M  V30 2753 C 261.796 1.80504 0.529146 0
M  V30 2754 O 261.154 1.18127 1.37534 0
M  V30 2755 C 261.202 3.32017 -1.40703 0
M  V30 2756 O 260.306 4.08141 -0.591153 0
M  V30 2757 H 259.647 0.576943 -0.328683 0
M  V30 2758 H 262.177 1.38405 -1.50682 0
M  V30 2759 H 262.187 3.82865 -1.4099 0
M  V30 2760 H 260.862 3.35361 -2.45979 0
M  V30 2761 H 259.439 3.67084 -0.656005 0
M  V30 2762 N 261.624 0.925811 1.2754 0
M  V30 2763 C 262.587 0.428129 2.25166 0
M  V30 2764 C 263.587 -0.452261 1.54309 0
M  V30 2765 O 264.777 -0.253608 1.72344 0
M  V30 2766 C 261.909 -0.384749 3.38722 0
M  V30 2767 H 263.102 1.29066 2.70706 0
M  V30 2768 H 260.655 0.706323 1.3943 0
M  V30 2769 H 261.39 -1.26618 2.98561 0
M  V30 2770 H 261.175 0.246454 3.91325 0
M  V30 2771 H 262.665 -0.723389 4.11287 0
M  V30 2772 N 263.102 -1.41638 0.69111 0
M  V30 2773 C 264.35 -2.00902 0.219758 0
M  V30 2774 C 264.671 -1.54994 -1.18329 0
M  V30 2775 O 263.941 -0.778628 -1.79762 0
M  V30 2776 H 262.521 -0.74289 0.0782558 0
M  V30 2777 H 265.183 -1.73327 0.891271 0
M  V30 2778 H 264.279 -3.11224 0.233708 0
M  V30 2779 N 264.58 -0.43555 -1.51462 0
M  V30 2780 C 265.81 0.130053 -2.0619 0
M  V30 2781 C 266.218 1.37164 -1.30317 0
M  V30 2782 O 265.561 1.80225 -0.355598 0
M  V30 2783 C 265.623 0.519418 -3.55728 0
M  V30 2784 C 265.287 -0.615119 -4.52841 0
M  V30 2785 C 266.284 -1.48671 -4.9819 0
M  V30 2786 C 263.969 -0.795341 -4.95963 0
M  V30 2787 C 265.963 -2.52324 -5.8533 0
M  V30 2788 C 263.65 -1.83514 -5.82894 0
M  V30 2789 C 264.648 -2.69748 -6.27475 0
M  V30 2790 O 264.336 -3.71944 -7.1268 0
M  V30 2791 H 264.068 0.0121612 -0.675891 0
M  V30 2792 H 266.622 -0.6129 -1.96043 0
M  V30 2793 H 264.852 1.31505 -3.63653 0
M  V30 2794 H 266.541 1.01597 -3.92979 0
M  V30 2795 H 267.307 -1.359 -4.65571 0
M  V30 2796 H 263.186 -0.133713 -4.60806 0
M  V30 2797 H 266.73 -3.19665 -6.20048 0
M  V30 2798 H 262.627 -1.96306 -6.14926 0
M  V30 2799 H 263.395 -3.68503 -7.30854 0
M  V30 2800 N 266.058 1.56714 -0.166846 0
M  V30 2801 C 267.305 1.96747 0.479252 0
M  V30 2802 C 267.633 1.05263 1.63554 0
M  V30 2803 O 266.888 0.0858098 1.95512 0
M  V30 2804 C 267.187 3.42889 1.00806 0
M  V30 2805 C 266.853 4.50889 -0.0318574 0
M  V30 2806 C 265.515 4.8015 -0.317675 0
M  V30 2807 C 267.867 5.15949 -0.737956 0
M  V30 2808 C 265.195 5.71772 -1.31506 0
M  V30 2809 C 267.547 6.08647 -1.72429 0
M  V30 2810 C 266.211 6.36277 -2.0176 0
M  V30 2811 H 265.481 0.719949 0.175371 0
M  V30 2812 H 268.128 1.89756 -0.257864 0
M  V30 2813 H 266.433 3.4681 1.82291 0
M  V30 2814 H 268.13 3.71203 1.51689 0
M  V30 2815 H 264.72 4.28128 0.201088 0
M  V30 2816 H 268.904 4.93458 -0.530351 0
M  V30 2817 H 264.16 5.91465 -1.54853 0
M  V30 2818 H 268.334 6.58129 -2.27682 0
M  V30 2819 H 265.961 7.07075 -2.79194 0
M  V30 2820 N 267.536 -0.106894 1.57237 0
M  V30 2821 C 268.952 -0.46078 1.52804 0
M  V30 2822 C 269.152 -1.81184 0.881746 0
M  V30 2823 O 268.208 -2.48102 0.469224 0
M  V30 2824 C 269.521 -0.434127 2.9755 0
M  V30 2825 C 271.069 -0.516821 3.08704 0
M  V30 2826 C 271.544 -0.520436 4.55033 0
M  V30 2827 N 273.035 -0.58153 4.59535 0
M  V30 2828 C 273.77 -0.605973 5.70189 0
M  V30 2829 N 273.266 -0.587331 6.90306 0
M  V30 2830 N 275.059 -0.649895 5.5833 0
M  V30 2831 H 267.21 0.778203 1.9763 0
M  V30 2832 H 269.473 0.288403 0.903066 0
M  V30 2833 H 269.179 0.491197 3.48253 0
M  V30 2834 H 269.053 -1.25748 3.55622 0
M  V30 2835 H 271.44 -1.43256 2.57995 0
M  V30 2836 H 271.521 0.334449 2.53604 0
M  V30 2837 H 271.165 0.391313 5.0639 0
M  V30 2838 H 271.095 -1.38876 5.07958 0
M  V30 2839 H 273.586 -0.60161 3.73081 0
M  V30 2840 H 273.899 -0.60894 7.70397 0
M  V30 2841 H 272.244 -0.554564 6.92784 0
M  V30 2842 H 275.435 -0.661907 4.63397 0
M  V30 2843 H 275.608 -0.665476 6.44574 0
M  V30 2844 N 269.014 -1.53014 -0.377408 0
M  V30 2845 C 270.26 -1.68872 -1.12294 0
M  V30 2846 C 270.593 -0.433224 -1.89306 0
M  V30 2847 O 269.868 0.569258 -1.85983 0
M  V30 2848 C 270.151 -2.93115 -2.09179 0
M  V30 2849 C 270.004 -4.28794 -1.35853 0
M  V30 2850 C 271.323 -3.12928 -3.09458 0
M  V30 2851 H 268.442 -0.614518 -0.406862 0
M  V30 2852 H 271.084 -1.85633 -0.40503 0
M  V30 2853 H 269.234 -2.78956 -2.70399 0
M  V30 2854 H 270.906 -4.54742 -0.775082 0
M  V30 2855 H 269.149 -4.28744 -0.660364 0
M  V30 2856 H 269.82 -5.11837 -2.06706 0
M  V30 2857 H 272.296 -3.26194 -2.58334 0
M  V30 2858 H 271.172 -4.01316 -3.74482 0
M  V30 2859 H 271.433 -2.27669 -3.78971 0
M  V30 2860 N 270.492 0.636531 -1.44174 0
M  V30 2861 C 271.741 1.39213 -1.45954 0
M  V30 2862 C 272.054 1.95374 -0.0939119 0
M  V30 2863 O 273.26 2.71498 0.0107767 0
M  V30 2864 C 271.716 2.52025 -2.56927 0
M  V30 2865 C 271.324 2.024 -3.99673 0
M  V30 2866 C 273.068 3.29269 -2.67922 0
M  V30 2867 C 270.975 3.12521 -5.0208 0
M  V30 2868 H 269.905 0.523132 -0.542999 0
M  V30 2869 H 272.556 0.685349 -1.70221 0
M  V30 2870 H 270.938 3.25253 -2.25891 0
M  V30 2871 H 272.112 1.36073 -4.40251 0
M  V30 2872 H 270.427 1.37987 -3.92872 0
M  V30 2873 H 273.024 4.11352 -3.41605 0
M  V30 2874 H 273.367 3.78397 -1.73555 0
M  V30 2875 H 273.9 2.63129 -2.98342 0
M  V30 2876 H 270.639 2.68343 -5.98057 0
M  V30 2877 H 270.159 3.77507 -4.66099 0
M  V30 2878 H 271.838 3.77385 -5.25538 0
M  V30 2879 N 271.97 1.30982 0.876444 0
M  V30 2880 C 273.386 1.09498 1.16113 0
M  V30 2881 C 273.586 -0.13875 2.01022 0
M  V30 2882 O 272.642 -0.829935 2.38471 0
M  V30 2883 C 273.955 2.36308 1.85954 0
M  V30 2884 C 275.503 2.41856 1.98683 0
M  V30 2885 C 275.978 3.6853 2.71937 0
M  V30 2886 N 277.469 3.69387 2.79477 0
M  V30 2887 C 278.204 4.64096 3.36753 0
M  V30 2888 N 277.7 5.69155 3.95012 0
M  V30 2889 N 279.493 4.51626 3.3465 0
M  V30 2890 H 271.644 2.10118 0.310494 0
M  V30 2891 H 273.907 0.926634 0.200131 0
M  V30 2892 H 273.613 3.26388 1.31011 0
M  V30 2893 H 273.487 2.4561 2.86278 0
M  V30 2894 H 275.874 1.52249 2.52793 0
M  V30 2895 H 275.955 2.36523 0.9742 0
M  V30 2896 H 275.599 4.58499 2.18496 0
M  V30 2897 H 275.529 3.71127 3.73593 0
M  V30 2898 H 278.02 2.93438 2.38123 0
M  V30 2899 H 278.333 6.3751 4.36808 0
M  V30 2900 H 276.678 5.72937 3.93406 0
M  V30 2901 H 279.869 3.68728 2.8837 0
M  V30 2902 H 280.042 5.25614 3.7899 0
M  V30 2903 N 273.449 -1.08991 1.13837 0
M  V30 2904 C 274.397 -2.17841 0.815347 0
M  V30 2905 C 275.391 -1.68164 -0.204233 0
M  V30 2906 O 276.597 -1.79897 -0.0609304 0
M  V30 2907 H 272.972 -0.710654 0.245915 0
M  V30 2908 H 274.943 -2.42315 1.74143 0
M  V30 2909 C 273.692 -3.46381 0.302614 0
M  V30 2910 H 273.015 -3.84979 1.0785 0
M  V30 2911 H 274.455 -4.23844 0.115074 0
M  V30 2912 C 272.914 -3.22556 -0.972591 0
M  V30 2913 O 273.444 -3.45599 -2.04754 0
M  V30 2914 N 271.65 -2.76134 -0.905455 0
M  V30 2915 H 271.197 -2.57582 -0.0305421 0
M  V30 2916 H 271.155 -2.60571 -1.75926 0
M  V30 2917 N 274.927 -0.932562 -1.27047 0
M  V30 2918 C 276.157 -0.591173 -1.97961 0
M  V30 2919 C 276.565 0.836219 -1.69717 0
M  V30 2920 O 275.908 1.56801 -0.957036 0
M  V30 2921 C 275.97 -0.743082 -3.51736 0
M  V30 2922 C 275.634 -2.1435 -4.03613 0
M  V30 2923 C 276.631 -3.11815 -4.16014 0
M  V30 2924 C 274.316 -2.46175 -4.37839 0
M  V30 2925 C 276.31 -4.39211 -4.61923 0
M  V30 2926 C 273.997 -3.73806 -4.83438 0
M  V30 2927 C 274.995 -4.70137 -4.95439 0
M  V30 2928 O 274.683 -5.95496 -5.40037 0
M  V30 2929 H 274.415 -0.222375 -0.638377 0
M  V30 2930 H 276.969 -1.25317 -1.62742 0
M  V30 2931 H 275.199 -0.0239739 -3.86693 0
M  V30 2932 H 276.888 -0.40603 -4.03864 0
M  V30 2933 H 277.654 -2.88549 -3.89826 0
M  V30 2934 H 273.533 -1.71936 -4.27737 0
M  V30 2935 H 277.077 -5.14404 -4.71205 0
M  V30 2936 H 272.974 -3.96888 -5.09068 0
M  V30 2937 H 273.742 -5.98554 -5.58279 0
M  V30 2938 N 276.405 1.4127 -0.698611 0
M  V30 2939 C 277.635 2.05205 -0.239644 0
M  V30 2940 C 278.043 1.52684 1.11733 0
M  V30 2941 O 277.386 0.671222 1.70998 0
M  V30 2942 C 277.448 3.59289 -0.123126 0
M  V30 2943 C 277.112 4.34619 -1.41263 0
M  V30 2944 C 278.109 4.63701 -2.35111 0
M  V30 2945 C 275.794 4.73837 -1.66684 0
M  V30 2946 C 277.788 5.30966 -3.52639 0
M  V30 2947 C 275.475 5.40837 -2.84498 0
M  V30 2948 C 276.473 5.69329 -3.77298 0
M  V30 2949 O 276.161 6.34949 -4.93047 0
M  V30 2950 H 275.893 0.66723 -0.108537 0
M  V30 2951 H 278.447 1.81974 -0.952602 0
M  V30 2952 H 276.677 3.81272 0.645628 0
M  V30 2953 H 278.366 4.04797 0.299056 0
M  V30 2954 H 279.132 4.33882 -2.16729 0
M  V30 2955 H 275.011 4.51039 -0.953135 0
M  V30 2956 H 278.555 5.53121 -4.25091 0
M  V30 2957 H 274.452 5.70075 -3.02795 0
M  V30 2958 H 275.22 6.53445 -4.92902 0
M  V30 2959 N 277.883 0.443576 1.51229 0
M  V30 2960 C 279.299 0.0962001 1.5931 0
M  V30 2961 C 279.499 -1.39501 1.45402 0
M  V30 2962 O 278.555 -2.16557 1.29843 0
M  V30 2963 C 279.868 0.621875 2.94199 0
M  V30 2964 C 281.416 0.582865 3.07525 0
M  V30 2965 C 281.891 1.08562 4.44948 0
M  V30 2966 N 283.382 1.04387 4.51284 0
M  V30 2967 C 284.117 1.40368 5.55954 0
M  V30 2968 N 283.613 1.83664 6.68011 0
M  V30 2969 N 285.406 1.32145 5.46346 0
M  V30 2970 H 277.557 1.41376 1.58514 0
M  V30 2971 H 279.82 0.582965 0.747567 0
M  V30 2972 H 279.526 1.66546 3.09767 0
M  V30 2973 H 279.4 0.0502125 3.77167 0
M  V30 2974 H 281.787 -0.451749 2.91622 0
M  V30 2975 H 281.868 1.191 2.26382 0
M  V30 2976 H 281.512 2.11873 4.61598 0
M  V30 2977 H 281.442 0.453956 5.2464 0
M  V30 2978 H 283.933 0.725986 3.70861 0
M  V30 2979 H 284.246 2.0934 7.43906 0
M  V30 2980 H 282.591 1.87596 6.69203 0
M  V30 2981 H 285.782 0.981808 4.57688 0
M  V30 2982 H 285.955 1.60514 6.27805 0
M  V30 2983 N 279.361 -1.56624 0.175154 0
M  V30 2984 C 280.608 -1.96999 -0.468811 0
M  V30 2985 C 280.936 -1.06129 -1.62994 0
M  V30 2986 O 280.191 -0.0961771 -1.95464 0
M  V30 2987 C 280.49 -3.43419 -0.989864 0
M  V30 2988 C 280.156 -4.50866 0.0557687 0
M  V30 2989 C 278.818 -4.79975 0.343134 0
M  V30 2990 C 281.17 -5.15551 0.765308 0
M  V30 2991 C 278.498 -5.71066 1.34536 0
M  V30 2992 C 280.85 -6.07724 1.75654 0
M  V30 2993 C 279.514 -6.35199 2.05132 0
M  V30 2994 H 278.784 -0.720869 -0.17155 0
M  V30 2995 H 281.431 -1.89616 0.267924 0
M  V30 2996 H 279.736 -3.47772 -1.80449 0
M  V30 2997 H 281.433 -3.72002 -1.49719 0
M  V30 2998 H 278.023 -4.28229 -0.178381 0
M  V30 2999 H 282.207 -4.9317 0.556513 0
M  V30 3000 H 277.463 -5.90635 1.57988 0
M  V30 3001 H 281.637 -6.56912 2.31169 0
M  V30 3002 H 279.264 -7.05584 2.8294 0
M  V30 3003 N 280.839 0.0985539 -1.57292 0
M  V30 3004 C 282.087 0.801092 -1.85545 0
M  V30 3005 C 282.408 1.79438 -0.763353 0
M  V30 3006 O 281.678 1.94763 0.21073 0
M  V30 3007 H 280.258 0.29884 -0.684619 0
M  V30 3008 H 282.92 0.0810064 -1.94732 0
M  V30 3009 H 282.016 1.3338 -2.82163 0
M  V30 3010 N 282.317 1.53212 0.369288 0
M  V30 3011 C 283.563 1.70413 1.11046 0
M  V30 3012 C 283.918 0.448509 1.87099 0
M  V30 3013 O 283.211 -0.558382 1.83283 0
M  V30 3014 C 283.405 2.89101 2.10132 0
M  V30 3015 C 283.234 4.26084 1.43814 0
M  V30 3016 C 282.004 4.90994 1.19384 0
M  V30 3017 C 284.202 5.06754 0.877802 0
M  V30 3018 N 282.184 6.11911 0.49377 0
M  V30 3019 C 283.555 6.1924 0.306891 0
M  V30 3020 C 285.61 4.91814 0.776129 0
M  V30 3021 C 284.313 7.1842 -0.355774 0
M  V30 3022 C 286.339 5.91263 0.127252 0
M  V30 3023 C 285.701 7.03069 -0.432801 0
M  V30 3024 H 281.8 0.676872 0.391623 0
M  V30 3025 H 284.384 1.90603 0.397334 0
M  V30 3026 H 282.555 2.70456 2.78761 0
M  V30 3027 H 284.287 2.95142 2.76899 0
M  V30 3028 H 281.042 4.50074 1.47413 0
M  V30 3029 H 281.466 6.76813 0.159207 0
M  V30 3030 H 286.108 4.05564 1.19489 0
M  V30 3031 H 283.826 8.04264 -0.786499 0
M  V30 3032 H 287.412 5.81779 0.0495613 0
M  V30 3033 H 286.292 7.78702 -0.926958 0
M  V30 3034 N 283.795 -0.628877 1.44509 0
M  V30 3035 C 285.041 -1.39045 1.47629 0
M  V30 3036 C 285.374 -1.93892 0.109343 0
M  V30 3037 O 284.649 -1.7379 -0.87334 0
M  V30 3038 C 284.932 -2.55408 2.53848 0
M  V30 3039 C 284.785 -2.05896 3.99909 0
M  V30 3040 C 286.104 -3.5759 2.56549 0
M  V30 3041 H 283.223 -0.504232 0.537512 0
M  V30 3042 H 285.865 -0.710854 1.76201 0
M  V30 3043 H 284.015 -3.13384 2.29615 0
M  V30 3044 H 285.687 -1.52734 4.35282 0
M  V30 3045 H 283.93 -1.37061 4.11578 0
M  V30 3046 H 284.601 -2.89681 4.69882 0
M  V30 3047 H 287.077 -3.09419 2.78207 0
M  V30 3048 H 285.953 -4.36527 3.32769 0
M  V30 3049 H 286.214 -4.11808 1.60832 0
M  V30 3050 N 285.273 -1.31445 -0.869486 0
M  V30 3051 C 286.522 -1.20517 -1.61736 0
M  V30 3052 C 286.835 0.235341 -1.94179 0
M  V30 3053 O 288.041 0.466312 -2.67465 0
M  V30 3054 C 286.497 -2.10982 -2.91573 0
M  V30 3055 C 286.105 -3.60032 -2.66611 0
M  V30 3056 C 287.849 -2.08856 -3.69567 0
M  V30 3057 C 285.756 -4.42503 -3.92358 0
M  V30 3058 H 284.686 -0.447493 -0.606849 0
M  V30 3059 H 287.337 -1.56303 -0.96133 0
M  V30 3060 H 285.719 -1.68095 -3.58553 0
M  V30 3061 H 286.893 -4.11167 -2.08035 0
M  V30 3062 H 285.208 -3.64139 -2.0197 0
M  V30 3063 H 287.805 -2.67716 -4.62852 0
M  V30 3064 H 288.148 -1.07582 -4.02159 0
M  V30 3065 H 288.681 -2.49945 -3.09471 0
M  V30 3066 H 285.42 -5.44533 -3.64916 0
M  V30 3067 H 284.94 -3.96125 -4.50383 0
M  V30 3068 H 286.619 -4.54741 -4.60238 0
M  V30 3069 N 286.751 1.08385 -1.14413 0
M  V30 3070 C 288.162 1.62258 -0.923535 0
M  V30 3071 C 288.513 1.88691 0.537595 0
M  V30 3072 O 287.638 1.64454 1.40655 0
M  V30 3073 C 288.233 2.94781 -1.67002 0
M  V30 3074 C 286.792 3.45437 -1.495 0
M  V30 3075 C 285.939 2.19668 -1.69238 0
M  V30 3076 H 288.89 0.916086 -1.2959 0
M  V30 3077 H 288.911 3.63229 -1.13334 0
M  V30 3078 H 288.423 2.7551 -2.73342 0
M  V30 3079 H 286.524 3.6981 -0.455097 0
M  V30 3080 H 286.637 4.22173 -2.2651 0
M  V30 3081 H 285.001 2.28849 -1.11804 0
M  V30 3082 H 285.784 2.02905 -2.7692 0
M  V30 3083 N 288.23 0.939286 1.26551 0
M  V30 3084 C 289.46 0.601663 1.97645 0
M  V30 3085 C 289.868 -0.827206 1.70159 0
M  V30 3086 O 289.211 -1.56291 0.965338 0
M  V30 3087 C 289.273 0.761725 3.51337 0
M  V30 3088 C 288.937 2.16487 4.0247 0
M  V30 3089 C 289.934 3.14016 4.14355 0
M  V30 3090 C 287.619 2.48494 4.36527 0
M  V30 3091 C 289.613 4.41654 4.59587 0
M  V30 3092 C 287.3 3.76364 4.81449 0
M  V30 3093 C 288.298 4.72758 4.92939 0
M  V30 3094 O 287.986 5.98352 5.36871 0
M  V30 3095 H 287.718 0.225758 0.637189 0
M  V30 3096 H 290.272 1.26178 1.62075 0
M  V30 3097 H 288.502 0.0444808 3.86674 0
M  V30 3098 H 290.191 0.427442 4.03643 0
M  V30 3099 H 290.957 2.90613 3.8829 0
M  V30 3100 H 286.836 1.74202 4.26819 0
M  V30 3101 H 290.38 5.16896 4.68471 0
M  V30 3102 H 286.277 3.99582 5.06956 0
M  V30 3103 H 287.045 6.01507 5.55096 0
M  V30 3104 N 289.708 -1.40897 0.706093 0
M  V30 3105 C 290.638 -2.33418 0.0620085 0
M  V30 3106 C 291.619 -1.52385 -0.755827 0
M  V30 3107 O 292.804 -1.80886 -0.706674 0
M  V30 3108 C 289.934 -3.36293 -0.867445 0
M  V30 3109 C 288.888 -4.27716 -0.155932 0
M  V30 3110 C 288.214 -5.2105 -1.20046 0
M  V30 3111 C 289.514 -5.12944 0.984149 0
M  V30 3112 H 291.208 -2.87527 0.83477 0
M  V30 3113 H 288.754 -1.38249 0.402875 0
M  V30 3114 H 290.707 -3.99949 -1.32735 0
M  V30 3115 H 289.431 -2.80556 -1.67199 0
M  V30 3116 H 288.09 -3.65498 0.284047 0
M  V30 3117 H 287.738 -4.61624 -1.99781 0
M  V30 3118 H 287.438 -5.83056 -0.729328 0
M  V30 3119 H 288.962 -5.87584 -1.66066 0
M  V30 3120 H 290.376 -5.70109 0.604048 0
M  V30 3121 H 288.773 -5.83945 1.38304 0
M  V30 3122 H 289.843 -4.49485 1.81911 0
M  V30 3123 N 291.186 -0.45159 -1.50991 0
M  V30 3124 C 292.433 0.110074 -2.02201 0
M  V30 3125 C 292.761 1.4146 -1.33489 0
M  V30 3126 O 292.016 1.90617 -0.443125 0
M  V30 3127 C 292.315 0.361728 -3.55565 0
M  V30 3128 C 291.981 -0.858717 -4.42648 0
M  V30 3129 C 290.643 -1.19338 -4.66167 0
M  V30 3130 C 292.995 -1.67221 -4.93646 0
M  V30 3131 C 290.323 -2.34195 -5.37931 0
M  V30 3132 C 292.675 -2.8119 -5.6667 0
M  V30 3133 C 291.339 -3.15094 -5.88449 0
M  V30 3134 H 290.609 0.040279 -0.739904 0
M  V30 3135 H 293.256 -0.601696 -1.81802 0
M  V30 3136 H 291.561 1.15554 -3.74372 0
M  V30 3137 H 293.258 0.80996 -3.92735 0
M  V30 3138 H 289.848 -0.58796 -4.24548 0
M  V30 3139 H 294.032 -1.42686 -4.75347 0
M  V30 3140 H 289.288 -2.6076 -5.53005 0
M  V30 3141 H 293.462 -3.44585 -6.05173 0
M  V30 3142 H 291.089 -4.04204 -6.43835 0
M  V30 3143 N 292.664 1.56529 -0.183458 0
M  V30 3144 C 293.912 1.96855 0.457452 0
M  V30 3145 C 294.233 1.07104 1.62953 0
M  V30 3146 O 293.503 0.139887 1.954 0
M  V30 3147 H 292.083 0.72693 0.171992 0
M  V30 3148 H 294.745 1.93056 -0.267476 0
M  V30 3149 H 293.841 3.01423 0.809368 0
M  V30 3150 N 294.142 -0.090211 1.57342 0
M  V30 3151 C 295.105 -1.09335 2.01441 0
M  V30 3152 C 296.105 -1.32666 0.908641 0
M  V30 3153 O 297.295 -1.28697 1.174 0
M  V30 3154 C 294.427 -2.44136 2.3793 0
M  V30 3155 H 295.62 -0.713662 2.91285 0
M  V30 3156 H 293.173 -0.335404 1.52659 0
M  V30 3157 H 293.908 -2.86972 1.51055 0
M  V30 3158 H 293.693 -2.28548 3.18603 0
M  V30 3159 H 295.183 -3.16277 2.72688 0
M  V30 3160 N 295.62 -1.53406 -0.361157 0
M  V30 3161 C 296.845 -1.74024 -1.12829 0
M  V30 3162 C 297.27 -0.470069 -1.82132 0
M  V30 3163 O 296.628 0.57619 -1.719 0
M  V30 3164 C 296.676 -2.90903 -2.13091 0
M  V30 3165 O 295.78 -2.59821 -3.20261 0
M  V30 3166 H 295.121 -0.577804 -0.327168 0
M  V30 3167 H 297.651 -2.00307 -0.41693 0
M  V30 3168 H 297.661 -3.17194 -2.56616 0
M  V30 3169 H 296.336 -3.83034 -1.62042 0
M  V30 3170 H 294.913 -2.44362 -2.81677 0
M  V30 3171 N 297.098 0.621204 -1.44841 0
M  V30 3172 C 298.509 1.20298 -1.42777 0
M  V30 3173 C 298.86 1.95639 -0.148259 0
M  V30 3174 O 297.985 2.02955 0.750892 0
M  V30 3175 C 298.58 2.1882 -2.58657 0
M  V30 3176 C 297.139 2.72403 -2.59756 0
M  V30 3177 C 296.286 1.4757 -2.34773 0
M  V30 3178 H 299.237 0.411297 -1.53278 0
M  V30 3179 H 299.258 3.01607 -2.31977 0
M  V30 3180 H 298.77 1.63957 -3.51766 0
M  V30 3181 H 296.871 3.31242 -1.70615 0
M  V30 3182 H 296.984 3.17765 -3.58556 0
M  V30 3183 H 295.348 1.76051 -1.8406 0
M  V30 3184 H 296.131 0.945954 -3.3001 0
M  V30 3185 N 298.576 1.31904 0.862503 0
M  V30 3186 C 299.539 1.20131 1.95195 0
M  V30 3187 C 300.539 0.126409 1.60302 0
M  V30 3188 O 301.729 0.376234 1.70089 0
M  V30 3189 C 298.861 0.845691 3.30244 0
M  V30 3190 H 300.054 2.16943 2.07064 0
M  V30 3191 H 297.607 1.15622 1.05172 0
M  V30 3192 H 298.342 -0.120957 3.24074 0
M  V30 3193 H 298.127 1.62276 3.56944 0
M  V30 3194 H 299.617 0.787418 4.10109 0
M  V30 3195 N 300.054 -1.07777 1.14986 0
M  V30 3196 C 301.303 -1.79669 0.916617 0
M  V30 3197 C 301.616 -1.87474 -0.557917 0
M  V30 3198 O 302.822 -2.55845 -0.908617 0
M  V30 3199 C 301.278 -3.22848 1.59051 0
M  V30 3200 C 300.886 -3.23257 3.10176 0
M  V30 3201 C 302.63 -3.99379 1.43864 0
M  V30 3202 C 300.537 -4.61063 3.70372 0
M  V30 3203 H 299.467 -0.673349 0.33929 0
M  V30 3204 H 302.118 -1.21003 1.37951 0
M  V30 3205 H 300.5 -3.8168 1.0553 0
M  V30 3206 H 301.674 -2.74095 3.70417 0
M  V30 3207 H 299.989 -2.60222 3.25074 0
M  V30 3208 H 302.586 -5.0122 1.86232 0
M  V30 3209 H 302.929 -4.14511 0.385564 0
M  V30 3210 H 303.462 -3.47032 1.94457 0
M  V30 3211 H 300.201 -4.51135 4.7556 0
M  V30 3212 H 299.721 -5.1048 3.14913 0
M  V30 3213 H 301.4 -5.30034 3.71043 0
M  V30 3214 N 301.532 -0.945985 -1.26051 0
M  V30 3215 C 302.772 -0.603665 -1.95282 0
M  V30 3216 C 303.136 0.842377 -1.72534 0
M  V30 3217 O 304.337 1.29387 -2.35611 0
M  V30 3218 C 302.608 -0.942292 -3.44754 0
M  V30 3219 S 304.167 -0.711242 -4.32997 0
M  V30 3220 H 300.985 -0.222176 -0.675395 0
M  V30 3221 H 303.587 -1.21832 -1.52896 0
M  V30 3222 H 302.291 -1.99203 -3.58812 0
M  V30 3223 H 301.822 -0.317546 -3.92116 0
M  V30 3224 H 303.837 0.422221 -4.944 0
M  V30 3225 N 303.011 1.40521 -0.713556 0
M  V30 3226 C 304.236 2.05759 -0.26035 0
M  V30 3227 C 304.661 1.53403 1.08854 0
M  V30 3228 O 304.019 0.668535 1.68524 0
M  V30 3229 C 304.067 3.59745 -0.248122 0
M  V30 3230 O 303.171 4.05123 0.77131 0
M  V30 3231 H 302.512 0.652564 -0.122703 0
M  V30 3232 H 305.042 1.79958 -0.973467 0
M  V30 3233 H 305.052 4.07911 -0.0851129 0
M  V30 3234 H 303.727 3.97218 -1.2325 0
M  V30 3235 H 302.304 3.68422 0.57619 0
M  V30 3236 N 304.489 0.459591 1.5075 0
M  V30 3237 C 305.714 -0.0996819 2.0716 0
M  V30 3238 C 306.139 -1.33761 1.32249 0
M  V30 3239 O 305.497 -1.77551 0.366786 0
M  V30 3240 C 305.545 -0.378226 3.58611 0
M  V30 3241 O 304.649 -1.46081 3.85661 0
M  V30 3242 H 303.99 0.00791392 0.663953 0
M  V30 3243 H 306.52 0.647329 1.9409 0
M  V30 3244 H 306.53 -0.622135 4.03229 0
M  V30 3245 H 305.205 0.526439 4.12555 0
M  V30 3246 H 303.782 -1.20511 3.5289 0
M  V30 3247 N 305.967 -1.56429 0.191757 0
M  V30 3248 C 307.214 -1.97485 -0.447891 0
M  V30 3249 C 307.542 -1.07852 -1.61859 0
M  V30 3250 O 306.797 -0.116903 -1.95351 0
M  V30 3251 C 307.096 -3.44449 -0.953384 0
M  V30 3252 C 306.762 -4.50781 0.103586 0
M  V30 3253 C 305.424 -4.79584 0.394023 0
M  V30 3254 C 307.776 -5.1471 0.819946 0
M  V30 3255 C 305.104 -5.69607 1.40585 0
M  V30 3256 C 307.456 -6.05827 1.8209 0
M  V30 3257 C 306.12 -6.32987 2.11857 0
M  V30 3258 H 305.39 -0.722648 -0.163895 0
M  V30 3259 H 308.037 -1.89322 0.28802 0
M  V30 3260 H 306.342 -3.49666 -1.76751 0
M  V30 3261 H 308.039 -3.73569 -1.45765 0
M  V30 3262 H 304.629 -4.28394 -0.132951 0
M  V30 3263 H 308.813 -4.92552 0.608789 0
M  V30 3264 H 304.069 -5.88926 1.64243 0
M  V30 3265 H 308.243 -6.54424 2.38123 0
M  V30 3266 H 305.87 -7.02544 2.90407 0
M  V30 3267 N 307.445 0.0818655 -1.57387 0
M  V30 3268 C 308.375 1.09885 -2.06028 0
M  V30 3269 C 309.356 1.4098 -0.951774 0
M  V30 3270 O 310.541 1.50781 -1.22387 0
M  V30 3271 C 307.671 2.4151 -2.4958 0
M  V30 3272 C 306.625 2.24792 -3.64215 0
M  V30 3273 C 305.951 3.61712 -3.93787 0
M  V30 3274 C 307.251 1.67749 -4.94629 0
M  V30 3275 H 308.945 0.694128 -2.91243 0
M  V30 3276 H 306.491 0.332448 -1.4011 0
M  V30 3277 H 308.444 3.12939 -2.82219 0
M  V30 3278 H 307.168 2.83943 -1.61381 0
M  V30 3279 H 305.827 1.55807 -3.31843 0
M  V30 3280 H 305.475 4.01697 -3.02735 0
M  V30 3281 H 305.175 3.51368 -4.70971 0
M  V30 3282 H 306.699 4.34587 -4.28913 0
M  V30 3283 H 308.113 2.29032 -5.25564 0
M  V30 3284 H 306.51 1.68128 -5.76067 0
M  V30 3285 H 307.58 0.638059 -4.80684 0
M  V30 3286 N 308.923 1.53595 0.353017 0
M  V30 3287 C 309.855 1.77219 1.45348 0
M  V30 3288 C 310.868 0.65324 1.49119 0
M  V30 3289 O 312.057 0.929775 1.52373 0
M  V30 3290 C 309.157 1.84841 2.84055 0
M  V30 3291 C 308.33 3.14649 3.03833 0
M  V30 3292 C 307.389 3.13351 4.22727 0
M  V30 3293 O 306.415 3.87107 4.17297 0
M  V30 3294 N 307.617 2.35052 5.30783 0
M  V30 3295 H 310.382 2.72178 1.25457 0
M  V30 3296 H 307.943 1.52528 0.542833 0
M  V30 3297 H 309.935 1.81435 3.61751 0
M  V30 3298 H 308.505 0.971114 2.97133 0
M  V30 3299 H 307.725 3.31256 2.13689 0
M  V30 3300 H 309.013 4.00411 3.13925 0
M  V30 3301 H 308.411 1.74663 5.38061 0
M  V30 3302 H 306.968 2.37453 6.07009 0
M  V30 3303 N 310.401 -0.613514 1.45168 0
M  V30 3304 C 311.649 -1.36997 1.48581 0
M  V30 3305 C 311.97 -1.94589 0.126545 0
M  V30 3306 O 311.24 -1.76816 -0.843372 0
M  V30 3307 H 309.82 -0.508558 0.547154 0
M  V30 3308 H 312.482 -0.720853 1.81079 0
M  V30 3309 H 311.578 -2.1924 2.22127 0
M  V30 3310 N 311.879 -1.3236 -0.855495 0
M  V30 3311 C 312.826 -1.21225 -1.964 0
M  V30 3312 C 313.796 -0.0946204 -1.6583 0
M  V30 3313 O 314.981 -0.27002 -1.8888 0
M  V30 3314 C 312.121 -0.940419 -3.32039 0
M  V30 3315 C 311.234 -2.14276 -3.75113 0
M  V30 3316 C 310.369 -1.80648 -4.9954 0
M  V30 3317 C 309.408 -2.97208 -5.35102 0
M  V30 3318 N 308.545 -2.63678 -6.50706 0
M  V30 3319 H 313.385 -2.16042 -2.05255 0
M  V30 3320 H 310.922 -1.07451 -1.00463 0
M  V30 3321 H 312.88 -0.763311 -4.10158 0
M  V30 3322 H 311.51 -0.0290413 -3.22787 0
M  V30 3323 H 310.562 -2.43017 -2.92655 0
M  V30 3324 H 311.874 -3.01468 -3.97389 0
M  V30 3325 H 311.028 -1.59484 -5.85363 0
M  V30 3326 H 309.767 -0.906678 -4.79198 0
M  V30 3327 H 308.772 -3.19004 -4.47791 0
M  V30 3328 H 309.997 -3.87918 -5.57401 0
M  V30 3329 H 307.943 -1.76238 -6.31883 0
M  V30 3330 H 307.86 -3.444 -6.72997 0
M  V30 3331 H 309.128 -2.45942 -7.39684 0
M  V30 3332 N 313.357 1.07166 -1.15556 0
M  V30 3333 C 314.768 1.6127 -0.940693 0
M  V30 3334 C 315.119 1.89251 0.517551 0
M  V30 3335 O 314.244 1.65937 1.38903 0
M  V30 3336 C 314.839 2.92993 -1.7012 0
M  V30 3337 C 313.398 3.43832 -1.53156 0
M  V30 3338 C 312.545 2.1786 -1.71558 0
M  V30 3339 H 315.496 0.90229 -1.30554 0
M  V30 3340 H 315.517 3.62007 -1.17181 0
M  V30 3341 H 315.029 2.72596 -2.76248 0
M  V30 3342 H 313.13 3.69307 -0.494294 0
M  V30 3343 H 313.243 4.19747 -2.30975 0
M  V30 3344 H 311.607 2.2765 -1.14225 0
M  V30 3345 H 312.39 1.99956 -2.79056 0
M  V30 3346 N 314.835 0.952656 1.25548 0
M  V30 3347 C 316.063 0.623496 1.97282 0
M  V30 3348 C 316.478 -0.803987 1.70826 0
M  V30 3349 O 315.835 -1.53755 0.983147 0
M  V30 3350 C 315.886 0.870209 3.5087 0
M  V30 3351 O 315.607 2.24156 3.76412 0
M  V30 3352 C 317.108 0.553164 4.39835 0
M  V30 3353 H 314.328 0.233931 0.628902 0
M  V30 3354 H 316.872 1.27649 1.59768 0
M  V30 3355 H 315.027 0.263652 3.86502 0
M  V30 3356 H 315.441 2.31021 4.70882 0
M  V30 3357 H 316.915 0.776342 5.46513 0
M  V30 3358 H 317.392 -0.512215 4.36203 0
M  V30 3359 H 317.998 1.13896 4.09766 0
M  V30 3360 N 316.313 -1.40141 0.720998 0
M  V30 3361 C 317.538 -2.05618 0.271258 0
M  V30 3362 C 317.963 -1.53978 -1.08039 0
M  V30 3363 O 317.321 -0.677463 -1.68167 0
M  V30 3364 C 317.369 -3.59609 0.267197 0
M  V30 3365 O 316.473 -4.05526 -0.749814 0
M  V30 3366 H 315.814 -0.651904 0.126162 0
M  V30 3367 H 318.344 -1.79439 0.982997 0
M  V30 3368 H 318.354 -4.0786 0.106744 0
M  V30 3369 H 317.029 -3.96559 1.25354 0
M  V30 3370 H 315.606 -3.68722 -0.556644 0
M  V30 3371 N 317.792 -0.46758 -1.50504 0
M  V30 3372 C 318.722 0.318381 -2.31319 0
M  V30 3373 C 319.703 0.993564 -1.38066 0
M  V30 3374 O 320.888 0.991411 -1.66987 0
M  V30 3375 C 318.018 1.40275 -3.17711 0
M  V30 3376 C 316.972 0.849373 -4.19487 0
M  V30 3377 C 316.298 2.03177 -4.94594 0
M  V30 3378 C 317.598 -0.136942 -5.2212 0
M  V30 3379 H 319.292 -0.356106 -2.97275 0
M  V30 3380 H 316.838 -0.172703 -1.42961 0
M  V30 3381 H 318.791 1.96004 -3.73042 0
M  V30 3382 H 317.515 2.10596 -2.49634 0
M  V30 3383 H 316.174 0.314076 -3.65252 0
M  V30 3384 H 315.822 2.72187 -4.22993 0
M  V30 3385 H 315.522 1.66774 -5.63436 0
M  V30 3386 H 317.046 2.59403 -5.52759 0
M  V30 3387 H 318.46 0.331056 -5.72343 0
M  V30 3388 H 316.857 -0.41507 -5.98663 0
M  V30 3389 H 317.927 -1.06398 -4.73083 0
M  V30 3390 N 319.27 1.56325 -0.20005 0
M  V30 3391 C 320.681 1.8408 0.31167 0
M  V30 3392 C 321.032 1.12087 1.61031 0
M  V30 3393 O 320.157 0.38332 2.12978 0
M  V30 3394 C 320.752 3.33932 0.57226 0
M  V30 3395 C 319.311 3.6208 1.02834 0
M  V30 3396 C 318.458 2.77186 0.079634 0
M  V30 3397 H 321.409 1.52939 -0.423729 0
M  V30 3398 H 321.43 3.52971 1.42096 0
M  V30 3399 H 320.942 3.86303 -0.37308 0
M  V30 3400 H 319.043 3.15147 1.98778 0
M  V30 3401 H 319.156 4.7023 0.917624 0
M  V30 3402 H 317.52 2.47951 0.582448 0
M  V30 3403 H 318.303 3.32347 -0.860238 0
M  V30 3404 N 320.748 -0.0735177 1.57428 0
M  V30 3405 C 321.995 -0.772999 1.87166 0
M  V30 3406 C 322.323 -1.77665 0.791551 0
M  V30 3407 O 321.578 -1.94541 -0.212636 0
M  V30 3408 C 321.877 -1.51799 3.23561 0
M  V30 3409 C 321.543 -0.654484 4.46125 0
M  V30 3410 C 320.205 -0.416511 4.79394 0
M  V30 3411 C 322.557 -0.0555862 5.2117 0
M  V30 3412 C 319.885 0.429869 5.85123 0
M  V30 3413 C 322.237 0.778239 6.27795 0
M  V30 3414 C 320.901 1.0261 6.59566 0
M  V30 3415 H 320.171 -0.282861 0.684888 0
M  V30 3416 H 322.818 -0.0338272 1.9147 0
M  V30 3417 H 321.123 -2.32932 3.1504 0
M  V30 3418 H 322.82 -2.06397 3.43804 0
M  V30 3419 H 319.41 -0.850091 4.20085 0
M  V30 3420 H 323.594 -0.226558 4.95783 0
M  V30 3421 H 318.85 0.630665 6.08139 0
M  V30 3422 H 323.024 1.24906 6.85107 0
M  V30 3423 H 320.651 1.68371 7.4132 0
M  V30 3424 N 322.226 -1.5378 -0.344866 0
M  V30 3425 C 323.136 -1.84667 -1.4469 0
M  V30 3426 C 324.152 -0.736704 -1.57635 0
M  V30 3427 O 325.328 -1.02888 -1.73136 0
M  V30 3428 C 322.393 -2.04869 -2.79696 0
M  V30 3429 C 321.454 -3.28731 -2.76106 0
M  V30 3430 C 320.687 -3.4796 -4.04673 0
M  V30 3431 O 320.91 -2.71052 -5.01883 0
M  V30 3432 O 319.844 -4.41383 -4.09224 0
M  V30 3433 H 323.67 -2.78334 -1.21506 0
M  V30 3434 H 321.255 -1.39418 -0.536921 0
M  V30 3435 H 323.137 -2.19609 -3.59652 0
M  V30 3436 H 321.812 -1.14391 -3.02814 0
M  V30 3437 H 320.719 -3.19396 -1.94774 0
M  V30 3438 H 322.052 -4.19198 -2.57941 0
M  V30 3439 N 323.704 0.605807 -1.45491 0
M  V30 3440 C 324.651 1.7164 -1.54299 0
M  V30 3441 C 325.621 1.61486 -0.388761 0
M  V30 3442 O 326.806 1.81039 -0.602445 0
M  V30 3443 C 323.946 3.09953 -1.51734 0
M  V30 3444 C 323.059 3.309 -2.77721 0
M  V30 3445 C 322.194 4.59329 -2.66816 0
M  V30 3446 C 321.233 4.7354 -3.87848 0
M  V30 3447 N 320.37 5.9327 -3.75467 0
M  V30 3448 H 325.21 1.63449 -2.49176 0
M  V30 3449 H 322.747 0.796957 -1.23641 0
M  V30 3450 H 324.705 3.89977 -1.48235 0
M  V30 3451 H 323.335 3.17098 -0.604068 0
M  V30 3452 H 322.387 2.44639 -2.913 0
M  V30 3453 H 323.699 3.37274 -3.67488 0
M  V30 3454 H 322.853 5.4755 -2.61292 0
M  V30 3455 H 321.592 4.55355 -1.74651 0
M  V30 3456 H 320.597 3.83741 -3.93729 0
M  V30 3457 H 321.822 4.79309 -4.81082 0
M  V30 3458 H 319.768 5.90338 -2.86072 0
M  V30 3459 H 319.685 6.00811 -4.5887 0
M  V30 3460 H 320.953 6.83984 -3.73879 0
M  V30 3461 N 325.182 1.32811 0.848464 0
M  V30 3462 C 326.41 1.26739 1.63538 0
M  V30 3463 C 326.825 -0.163484 1.88091 0
M  V30 3464 O 326.182 -1.10258 1.45429 0
M  V30 3465 C 326.233 2.03013 2.99112 0
M  V30 3466 O 325.954 3.40518 2.75643 0
M  V30 3467 C 327.455 2.04038 3.93552 0
M  V30 3468 H 324.675 0.437024 0.509167 0
M  V30 3469 H 327.219 1.75033 1.05753 0
M  V30 3470 H 325.374 1.58426 3.53525 0
M  V30 3471 H 325.788 3.79635 3.61908 0
M  V30 3472 H 327.262 2.61877 4.85926 0
M  V30 3473 H 327.739 1.0282 4.26995 0
M  V30 3474 H 328.345 2.486 3.45077 0
M  V30 3475 N 326.66 -1.06551 1.16123 0
M  V30 3476 C 327.57 -2.17484 0.879662 0
M  V30 3477 C 328.586 -1.73377 -0.147104 0
M  V30 3478 O 329.762 -2.01379 0.0289128 0
M  V30 3479 C 326.827 -3.44591 0.381829 0
M  V30 3480 C 325.888 -4.0322 1.4735 0
M  V30 3481 C 325.121 -5.24261 0.999324 0
M  V30 3482 O 325.344 -5.70198 -0.151957 0
M  V30 3483 O 324.278 -5.74775 1.78653 0
M  V30 3484 H 328.104 -2.44075 1.80724 0
M  V30 3485 H 325.689 -1.16042 0.940992 0
M  V30 3486 H 327.571 -4.21254 0.111053 0
M  V30 3487 H 326.246 -3.19532 -0.51777 0
M  V30 3488 H 325.153 -3.2806 1.79798 0
M  V30 3489 H 326.486 -4.32568 2.34831 0
M  V30 3490 N 328.138 -0.959301 -1.25041 0
M  V30 3491 C 329.378 -0.624343 -1.94631 0
M  V30 3492 C 329.742 0.82403 -1.73418 0
M  V30 3493 O 330.943 1.26881 -2.3697 0
M  V30 3494 C 329.214 -0.978805 -3.43736 0
M  V30 3495 S 330.773 -0.757127 -4.32219 0
M  V30 3496 H 327.591 -0.229327 -0.673001 0
M  V30 3497 H 330.193 -1.23447 -1.51595 0
M  V30 3498 H 328.897 -2.02997 -3.56679 0
M  V30 3499 H 328.428 -0.359117 -3.91757 0
M  V30 3500 H 330.443 0.369759 -4.9482 0
M  V30 3501 N 329.616 1.39756 -0.72842 0
M  V30 3502 C 330.864 2.00248 -0.272946 0
M  V30 3503 C 331.185 1.58077 1.14178 0
M  V30 3504 O 330.455 0.826014 1.77634 0
M  V30 3505 H 329.035 0.740554 -0.0979247 0
M  V30 3506 H 331.697 1.70903 -0.936912 0
M  V30 3507 H 330.793 3.10495 -0.316142 0
M  V30 3508 N 331.094 0.475555 1.50254 0
M  V30 3509 C 332.027 -0.362381 2.25304 0
M  V30 3510 C 333.005 -0.992393 1.28803 0
M  V30 3511 O 334.189 -1.02746 1.58036 0
M  V30 3512 C 331.316 -1.50813 3.03271 0
M  V30 3513 C 330.362 -0.995044 4.1473 0
M  V30 3514 S 331.195 0.0938436 5.35418 0
M  V30 3515 C 332.351 -1.05567 6.16933 0
M  V30 3516 H 332.584 0.274686 2.96028 0
M  V30 3517 H 330.117 0.260495 1.52187 0
M  V30 3518 H 332.075 -2.16476 3.48781 0
M  V30 3519 H 330.736 -2.11672 2.32064 0
M  V30 3520 H 329.929 -1.85293 4.68703 0
M  V30 3521 H 329.531 -0.416052 3.71679 0
M  V30 3522 H 331.823 -1.96636 6.48337 0
M  V30 3523 H 332.766 -0.555109 7.05921 0
M  V30 3524 H 333.174 -1.31151 5.49053 0
M  V30 3525 N 332.573 -1.56217 0.208337 0
M  V30 3526 C 333.803 -2.02043 -0.431523 0
M  V30 3527 C 334.211 -1.08755 -1.54819 0
M  V30 3528 O 333.554 -0.0870009 -1.83494 0
M  V30 3529 C 333.616 -3.44239 -1.03633 0
M  V30 3530 C 333.28 -4.56965 -0.0567502 0
M  V30 3531 C 334.277 -5.14624 0.738773 0
M  V30 3532 C 331.962 -5.02266 0.0581736 0
M  V30 3533 C 333.956 -6.16045 1.63605 0
M  V30 3534 C 331.643 -6.03528 0.959001 0
M  V30 3535 C 332.641 -6.60293 1.7465 0
M  V30 3536 O 332.329 -7.59586 2.6322 0
M  V30 3537 H 332.061 -0.666772 -0.111313 0
M  V30 3538 H 334.615 -2.02919 0.318277 0
M  V30 3539 H 332.845 -3.40391 -1.83497 0
M  V30 3540 H 334.534 -3.73793 -1.58221 0
M  V30 3541 H 335.3 -4.80483 0.660364 0
M  V30 3542 H 331.179 -4.57771 -0.544633 0
M  V30 3543 H 334.723 -6.60279 2.25116 0
M  V30 3544 H 330.62 -6.37092 1.03848 0
M  V30 3545 H 331.388 -7.77057 2.57148 0
M  V30 3546 N 334.051 0.0651679 -1.57465 0
M  V30 3547 C 335.281 0.774683 -1.91526 0
M  V30 3548 C 335.689 1.71305 -0.803196 0
M  V30 3549 O 335.032 1.82231 0.231881 0
M  V30 3550 C 335.094 1.61645 -3.21109 0
M  V30 3551 C 334.758 0.846753 -4.49087 0
M  V30 3552 C 335.755 0.163024 -5.19644 0
M  V30 3553 C 333.44 0.811966 -4.95694 0
M  V30 3554 C 335.434 -0.54519 -6.35064 0
M  V30 3555 C 333.121 0.0999836 -6.11018 0
M  V30 3556 C 334.119 -0.577388 -6.80555 0
M  V30 3557 O 333.807 -1.27789 -7.93678 0
M  V30 3558 H 333.539 0.225031 -0.637446 0
M  V30 3559 H 336.093 0.0377134 -2.05365 0
M  V30 3560 H 334.323 2.39638 -3.03497 0
M  V30 3561 H 336.012 2.20525 -3.40769 0
M  V30 3562 H 336.778 0.181163 -4.84662 0
M  V30 3563 H 332.657 1.32867 -4.41438 0
M  V30 3564 H 336.201 -1.07446 -6.89276 0
M  V30 3565 H 332.098 0.0797945 -6.45451 0
M  V30 3566 H 332.866 -1.18784 -8.09835 0
M  V30 3567 N 335.529 1.53961 0.336706 0
M  V30 3568 C 336.459 1.85417 1.41925 0
M  V30 3569 C 337.44 0.709856 1.5458 0
M  V30 3570 O 338.625 0.962396 1.68676 0
M  V30 3571 C 335.755 2.06985 2.78881 0
M  V30 3572 C 334.709 3.22813 2.81026 0
M  V30 3573 C 334.035 3.29727 4.20932 0
M  V30 3574 C 335.335 4.60767 2.45949 0
M  V30 3575 H 337.029 2.76079 1.15848 0
M  V30 3576 H 334.575 1.32839 0.555859 0
M  V30 3577 H 336.528 2.27575 3.54665 0
M  V30 3578 H 335.252 1.13061 3.06406 0
M  V30 3579 H 333.911 3.0209 2.07695 0
M  V30 3580 H 333.559 2.33385 4.45579 0
M  V30 3581 H 333.259 4.07566 4.23277 0
M  V30 3582 H 334.783 3.52536 4.98549 0
M  V30 3583 H 336.197 4.81325 3.11446 0
M  V30 3584 H 334.594 5.4106 2.59566 0
M  V30 3585 H 335.664 4.6391 1.41122 0
M  V30 3586 N 337.007 -0.598083 1.45811 0
M  V30 3587 C 338.418 -1.18011 1.44673 0
M  V30 3588 C 338.769 -1.95378 0.179364 0
M  V30 3589 O 337.894 -2.04124 -0.718509 0
M  V30 3590 C 338.489 -2.14677 2.62105 0
M  V30 3591 C 337.048 -2.68236 2.64057 0
M  V30 3592 C 336.195 -1.43816 2.37091 0
M  V30 3593 H 339.146 -0.38686 1.53913 0
M  V30 3594 H 339.167 -2.97878 2.36746 0
M  V30 3595 H 338.679 -1.5834 3.5433 0
M  V30 3596 H 336.78 -3.28486 1.75864 0
M  V30 3597 H 336.893 -3.12021 3.63566 0
M  V30 3598 H 335.257 -1.731 1.86838 0
M  V30 3599 H 336.04 -0.893333 3.31473 0
M  V30 3600 N 338.485 -1.33259 -0.841409 0
M  V30 3601 C 339.715 -1.2742 -1.62628 0
M  V30 3602 C 340.123 0.157604 -1.88542 0
M  V30 3603 O 339.466 1.10938 -1.46419 0
M  V30 3604 C 339.528 -1.97797 -3.00194 0
M  V30 3605 C 339.192 -3.47109 -2.97261 0
M  V30 3606 C 340.189 -4.42358 -2.73159 0
M  V30 3607 C 337.874 -3.89247 -3.17478 0
M  V30 3608 C 339.868 -5.77718 -2.69296 0
M  V30 3609 C 337.555 -5.24713 -3.13241 0
M  V30 3610 C 338.553 -6.1876 -2.89181 0
M  V30 3611 O 338.241 -7.51745 -2.84843 0
M  V30 3612 H 337.973 -0.440436 -0.512827 0
M  V30 3613 H 340.527 -1.76153 -1.05638 0
M  V30 3614 H 338.757 -1.43652 -3.59028 0
M  V30 3615 H 340.446 -1.8549 -3.61038 0
M  V30 3616 H 341.212 -4.11127 -2.57294 0
M  V30 3617 H 337.091 -3.16456 -3.35226 0
M  V30 3618 H 340.635 -6.51097 -2.50436 0
M  V30 3619 H 336.532 -5.55569 -3.28654 0
M  V30 3620 H 337.3 -7.61262 -3.00702 0
M  V30 3621 N 339.963 1.05934 -1.16686 0
M  V30 3622 C 340.926 2.11669 -0.879144 0
M  V30 3623 C 341.926 1.60294 0.127445 0
M  V30 3624 O 343.116 1.7389 -0.103865 0
M  V30 3625 C 340.248 3.39438 -0.315425 0
M  V30 3626 H 341.441 2.38626 -1.81653 0
M  V30 3627 H 338.994 1.22058 -0.976299 0
M  V30 3628 H 339.729 3.18132 0.629468 0
M  V30 3629 H 339.514 3.78034 -1.04079 0
M  V30 3630 H 341.004 4.17391 -0.132189 0
M  V30 3631 N 341.441 0.965919 1.2453 0
M  V30 3632 C 342.669 0.644385 1.96609 0
M  V30 3633 C 343.084 -0.785823 1.71669 0
M  V30 3634 O 342.441 -1.52703 0.999399 0
M  V30 3635 C 342.492 0.907375 3.49927 0
M  V30 3636 O 342.213 2.28136 3.74013 0
M  V30 3637 C 343.714 0.599784 4.39224 0
M  V30 3638 H 340.934 0.240588 0.626385 0
M  V30 3639 H 343.478 1.29337 1.58405 0
M  V30 3640 H 341.633 0.304631 3.862 0
M  V30 3641 H 342.047 2.36002 4.68405 0
M  V30 3642 H 343.521 0.834263 5.45659 0
M  V30 3643 H 343.998 -0.465921 4.36722 0
M  V30 3644 H 344.604 1.18235 4.08535 0
M  V30 3645 N 342.919 -1.39368 0.735821 0
M  V30 3646 C 344.144 -2.05319 0.293052 0
M  V30 3647 C 344.569 -1.55115 -1.064 0
M  V30 3648 O 343.927 -0.695261 -1.67439 0
M  V30 3649 C 343.975 -3.59305 0.305323 0
M  V30 3650 O 343.079 -4.06299 -0.706761 0
M  V30 3651 H 342.42 -0.650529 0.13307 0
M  V30 3652 H 344.95 -1.78386 1.00197 0
M  V30 3653 H 344.96 -4.07724 0.149997 0
M  V30 3654 H 343.635 -3.95207 1.29553 0
M  V30 3655 H 342.212 -3.69292 -0.517504 0
M  V30 3656 N 344.397 -0.483516 -1.5 0
M  V30 3657 C 345.327 0.293829 -2.31644 0
M  V30 3658 C 346.308 0.978864 -1.39112 0
M  V30 3659 O 347.493 0.973644 -1.68029 0
M  V30 3660 C 344.623 1.36897 -3.19181 0
M  V30 3661 C 343.577 0.804833 -4.20365 0
M  V30 3662 C 342.903 1.9792 -4.96721 0
M  V30 3663 C 344.203 -0.192313 -5.21946 0
M  V30 3664 H 345.897 -0.387616 -2.9688 0
M  V30 3665 H 343.443 -0.187856 -1.42769 0
M  V30 3666 H 345.396 1.92037 -3.751 0
M  V30 3667 H 344.12 2.07936 -2.51853 0
M  V30 3668 H 342.779 0.275319 -3.65565 0
M  V30 3669 H 342.427 2.67686 -4.25856 0
M  V30 3670 H 342.127 1.60789 -5.65173 0
M  V30 3671 H 343.651 2.53526 -5.55479 0
M  V30 3672 H 345.065 0.270333 -5.72662 0
M  V30 3673 H 343.462 -0.478543 -5.98189 0
M  V30 3674 H 344.532 -1.11409 -4.71928 0
M  V30 3675 N 345.875 1.56104 -0.216619 0
M  V30 3676 C 347.291 1.58995 0.13886 0
M  V30 3677 C 347.491 1.23333 1.59346 0
M  V30 3678 O 346.547 0.966234 2.33281 0
M  V30 3679 C 347.86 3.00143 -0.182968 0
M  V30 3680 C 349.408 3.12751 -0.124807 0
M  V30 3681 C 349.883 4.56068 -0.420241 0
M  V30 3682 N 351.374 4.61723 -0.369634 0
M  V30 3683 C 352.109 5.70542 -0.571789 0
M  V30 3684 N 351.605 6.87744 -0.835453 0
M  V30 3685 N 353.398 5.59831 -0.504563 0
M  V30 3686 H 345.549 1.77562 -1.16557 0
M  V30 3687 H 347.812 0.825091 -0.466828 0
M  V30 3688 H 347.518 3.30871 -1.19237 0
M  V30 3689 H 347.392 3.73813 0.504367 0
M  V30 3690 H 349.779 2.81822 0.875223 0
M  V30 3691 H 349.86 2.41421 -0.845544 0
M  V30 3692 H 349.504 4.87713 -1.41769 0
M  V30 3693 H 349.434 5.25617 0.321631 0
M  V30 3694 H 351.925 3.77502 -0.173338 0
M  V30 3695 H 352.238 7.66587 -0.977938 0
M  V30 3696 H 350.583 6.895 -0.872592 0
M  V30 3697 H 353.774 4.67145 -0.298842 0
M  V30 3698 H 353.947 6.44573 -0.665519 0
M  V30 3699 N 347.353 -0.0568162 1.57498 0
M  V30 3700 C 348.283 -1.06593 2.0775 0
M  V30 3701 C 349.264 -1.39448 0.974082 0
M  V30 3702 O 350.449 -1.48815 1.24771 0
M  V30 3703 C 347.579 -2.37509 2.5339 0
M  V30 3704 C 346.533 -2.1897 3.67745 0
M  V30 3705 C 345.859 -3.55402 3.99492 0
M  V30 3706 C 347.159 -1.59859 4.97235 0
M  V30 3707 H 348.853 -0.647706 2.9231 0
M  V30 3708 H 346.399 -0.310116 1.40621 0
M  V30 3709 H 348.352 -3.08409 2.87162 0
M  V30 3710 H 347.076 -2.8134 1.65878 0
M  V30 3711 H 345.735 -1.50508 3.3428 0
M  V30 3712 H 345.383 -3.9683 3.09088 0
M  V30 3713 H 345.083 -3.43831 4.76502 0
M  V30 3714 H 346.607 -4.27708 4.35773 0
M  V30 3715 H 348.021 -2.20642 5.29141 0
M  V30 3716 H 346.418 -1.58942 5.78669 0
M  V30 3717 H 347.488 -0.561506 4.81638 0
M  V30 3718 N 348.832 -1.54138 -0.328536 0
M  V30 3719 C 350.057 -1.76378 -1.09112 0
M  V30 3720 C 350.482 -0.508596 -1.81094 0
M  V30 3721 O 349.84 0.539598 -1.73084 0
M  V30 3722 C 349.888 -2.95358 -2.06872 0
M  V30 3723 O 348.992 -2.66556 -3.14677 0
M  V30 3724 H 348.333 -0.584614 -0.314838 0
M  V30 3725 H 350.863 -2.01146 -0.374348 0
M  V30 3726 H 350.873 -3.22566 -2.4983 0
M  V30 3727 H 349.548 -3.86385 -1.5388 0
M  V30 3728 H 348.125 -2.50282 -2.7643 0
M  V30 3729 N 350.31 0.590341 -1.46126 0
M  V30 3730 C 351.587 1.35029 -1.41515 0
M  V30 3731 C 351.967 2.10888 -0.0946472 0
M  V30 3732 O 351.315 2.08998 0.923693 0
M  V30 3733 C 351.525 2.28269 -2.63997 0
M  V30 3734 C 352.873 2.90338 -3.09821 0
M  V30 3735 O 353.897 2.38585 -2.64492 0
M  V30 3736 O 352.756 3.84321 -3.88535 0
M  V30 3737 H 349.85 0.606317 -0.562413 0
M  V30 3738 H 352.396 0.611994 -1.58281 0
M  V30 3739 H 351.168 1.71591 -3.51671 0
M  V30 3740 H 350.791 3.0945 -2.49652 0
M  V30 3741 N 351.788 1.33704 0.83433 0
M  V30 3742 C 352.718 1.26967 1.95963 0
M  V30 3743 C 353.699 0.149337 1.69443 0
M  V30 3744 O 354.884 0.339852 1.91203 0
M  V30 3745 C 352.014 1.01275 3.32206 0
M  V30 3746 C 350.968 2.09652 3.73136 0
M  V30 3747 C 350.294 1.69166 5.07235 0
M  V30 3748 C 351.594 3.51372 3.86439 0
M  V30 3749 H 353.288 2.2112 2.01857 0
M  V30 3750 H 350.834 1.06447 0.969793 0
M  V30 3751 H 352.787 0.952106 4.10503 0
M  V30 3752 H 351.511 0.0356203 3.26581 0
M  V30 3753 H 350.17 2.14766 2.97104 0
M  V30 3754 H 349.818 0.701437 4.98085 0
M  V30 3755 H 349.518 2.41694 5.35591 0
M  V30 3756 H 351.042 1.64576 5.88003 0
M  V30 3757 H 352.456 3.48734 4.55036 0
M  V30 3758 H 350.853 4.22425 4.26236 0
M  V30 3759 H 351.923 3.89546 2.88759 0
M  V30 3760 N 353.266 -1.05314 1.17247 0
M  V30 3761 C 354.514 -1.77941 0.958194 0
M  V30 3762 C 354.835 -1.88089 -0.514556 0
M  V30 3763 O 354.105 -1.39676 -1.37359 0
M  V30 3764 H 352.685 -0.659116 0.351533 0
M  V30 3765 H 355.347 -1.27166 1.47699 0
M  V30 3766 H 354.443 -2.79663 1.38546 0
M  V30 3767 N 354.744 -0.972509 -1.24016 0
M  V30 3768 C 355.974 -0.653853 -1.9598 0
M  V30 3769 C 356.382 0.781801 -1.72292 0
M  V30 3770 O 355.725 1.53677 -1.00644 0
M  V30 3771 C 355.787 -0.854608 -3.49194 0
M  V30 3772 C 355.451 -2.27082 -3.96589 0
M  V30 3773 C 356.448 -3.24892 -4.05883 0
M  V30 3774 C 354.133 -2.5998 -4.29786 0
M  V30 3775 C 356.127 -4.53684 -4.47716 0
M  V30 3776 C 353.814 -3.88997 -4.71301 0
M  V30 3777 C 354.812 -4.85661 -4.80232 0
M  V30 3778 O 354.5 -6.12376 -5.20818 0
M  V30 3779 H 354.232 -0.242572 -0.630979 0
M  V30 3780 H 356.786 -1.30431 -1.58673 0
M  V30 3781 H 355.016 -0.146985 -3.86421 0
M  V30 3782 H 356.705 -0.534311 -4.02368 0
M  V30 3783 H 357.471 -3.00805 -3.80449 0
M  V30 3784 H 353.35 -1.85457 -4.22051 0
M  V30 3785 H 356.894 -5.29135 -4.54601 0
M  V30 3786 H 352.791 -4.12882 -4.96184 0
M  V30 3787 H 353.559 -6.16013 -5.38953 0
M  V30 3788 N 356.222 1.38976 -0.743202 0
M  V30 3789 C 357.45 2.04636 -0.30525 0
M  V30 3790 C 357.865 1.56044 1.06281 0
M  V30 3791 O 357.222 0.728921 1.67311 0
M  V30 3792 C 357.273 3.60193 -0.307177 0
M  V30 3793 O 356.994 4.06998 -1.62124 0
M  V30 3794 C 358.495 4.4306 0.145928 0
M  V30 3795 H 355.715 0.65788 -0.132041 0
M  V30 3796 H 358.259 1.77866 -1.00915 0
M  V30 3797 H 356.414 3.85835 0.347898 0
M  V30 3798 H 356.828 5.01371 -1.54036 0
M  V30 3799 H 358.302 5.51921 0.0934183 0
M  V30 3800 H 358.779 4.22706 1.19231 0
M  V30 3801 H 359.385 4.22584 -0.479886 0
M  V30 3802 N 357.7 0.491464 1.49741 0
M  V30 3803 C 358.648 -0.305837 2.30581 0
M  V30 3804 C 359.642 -0.971642 1.38764 0
M  V30 3805 O 360.848 -0.90042 1.5586 0
M  V30 3806 H 357.223 -0.117482 0.742767 0
M  V30 3807 H 359.194 0.396093 2.95759 0
M  V30 3808 C 357.943 -1.36319 3.19863 0
M  V30 3809 H 357.266 -0.860258 3.90435 0
M  V30 3810 H 358.706 -1.89323 3.79385 0
M  V30 3811 C 357.165 -2.37621 2.38826 0
M  V30 3812 O 357.695 -3.43311 2.08567 0
M  V30 3813 N 355.901 -2.09849 2.01026 0
M  V30 3814 H 355.448 -1.23922 2.25834 0
M  V30 3815 H 355.406 -2.77859 1.47112 0
M  V30 3816 N 359.178 -1.55987 0.224894 0
M  V30 3817 C 360.125 -2.20436 -0.68385 0
M  V30 3818 C 361.095 -1.16102 -1.18783 0
M  V30 3819 O 362.28 -1.4447 -1.24632 0
M  V30 3820 C 359.42 -2.89076 -1.88491 0
M  V30 3821 C 358.533 -4.08012 -1.41951 0
M  V30 3822 C 357.668 -4.64426 -2.5784 0
M  V30 3823 C 356.707 -5.75656 -2.08053 0
M  V30 3824 N 355.844 -6.26347 -3.17227 0
M  V30 3825 H 360.684 -2.97727 -0.12754 0
M  V30 3826 H 358.221 -1.47011 -0.0511978 0
M  V30 3827 H 360.179 -3.27059 -2.59014 0
M  V30 3828 H 358.809 -2.14298 -2.41405 0
M  V30 3829 H 357.861 -3.75492 -0.609095 0
M  V30 3830 H 359.173 -4.88375 -1.01447 0
M  V30 3831 H 358.327 -5.04869 -3.3644 0
M  V30 3832 H 357.066 -3.83233 -3.01635 0
M  V30 3833 H 356.071 -5.34712 -1.27916 0
M  V30 3834 H 357.296 -6.58686 -1.65255 0
M  V30 3835 H 355.242 -5.48067 -3.60497 0
M  V30 3836 H 355.159 -7.01843 -2.80986 0
M  V30 3837 H 356.427 -6.71447 -3.95953 0
M  V30 3838 N 360.656 0.0484629 -1.57525 0
M  V30 3839 C 361.881 0.759177 -1.93006 0
M  V30 3840 C 362.306 1.69125 -0.823317 0
M  V30 3841 O 361.664 1.79931 0.222364 0
M  V30 3842 C 361.712 1.50899 -3.27509 0
M  V30 3843 O 360.816 2.62112 -3.18388 0
M  V30 3844 H 360.157 0.205564 -0.631379 0
M  V30 3845 H 362.687 0.00972959 -2.04598 0
M  V30 3846 H 362.697 1.88317 -3.6194 0
M  V30 3847 H 361.372 0.825269 -4.0763 0
M  V30 3848 H 359.949 2.27379 -2.95556 0
M  V30 3849 N 362.134 1.5431 0.320358 0
M  V30 3850 C 363.066 1.80262 1.41556 0
M  V30 3851 C 364.079 0.684723 1.477 0
M  V30 3852 O 365.268 0.961886 1.50366 0
M  V30 3853 C 362.368 1.90825 2.8007 0
M  V30 3854 C 361.541 3.21023 2.97091 0
M  V30 3855 C 360.6 3.22247 4.15985 0
M  V30 3856 O 359.626 3.95871 4.08992 0
M  V30 3857 N 360.828 2.46258 5.25678 0
M  V30 3858 H 363.593 2.74778 1.19655 0
M  V30 3859 H 361.154 1.53646 0.510358 0
M  V30 3860 H 363.146 1.89067 3.57821 0
M  V30 3861 H 361.716 1.03392 2.95006 0
M  V30 3862 H 360.936 3.35715 2.06614 0
M  V30 3863 H 362.224 4.0698 3.05361 0
M  V30 3864 H 361.622 1.86037 5.34235 0
M  V30 3865 H 360.179 2.50275 6.01835 0
M  V30 3866 N 363.613 -0.582584 1.46437 0
M  V30 3867 C 364.838 -1.37168 1.55563 0
M  V30 3868 C 365.263 -1.87061 0.19743 0
M  V30 3869 O 364.621 -1.61572 -0.822451 0
M  V30 3870 C 364.669 -2.53511 2.56446 0
M  V30 3871 O 363.773 -3.54953 2.09958 0
M  V30 3872 H 363.114 -0.408494 0.523477 0
M  V30 3873 H 365.644 -0.706646 1.9201 0
M  V30 3874 H 365.654 -3.00426 2.76058 0
M  V30 3875 H 364.329 -2.16549 3.55076 0
M  V30 3876 H 362.906 -3.14516 2.00334 0
M  V30 3877 N 365.091 -1.34144 -0.827227 0
M  V30 3878 C 366.039 -1.25364 -1.95925 0
M  V30 3879 C 367.033 -0.152608 -1.68711 0
M  V30 3880 O 368.239 -0.317311 -1.77181 0
M  V30 3881 H 364.614 -0.389342 -0.643364 0
M  V30 3882 H 366.585 -2.21045 -2.00454 0
M  V30 3883 C 365.334 -1.02158 -3.32354 0
M  V30 3884 H 364.657 -1.86111 -3.5384 0
M  V30 3885 H 366.097 -1.00048 -4.12027 0
M  V30 3886 C 364.556 0.275244 -3.35774 0
M  V30 3887 O 365.086 1.27806 -3.80826 0
M  V30 3888 N 363.292 0.306853 -2.88975 0
M  V30 3889 H 362.839 -0.509777 -2.52506 0
M  V30 3890 H 362.797 1.17432 -2.91646 0
M  V30 3891 N 366.569 1.04691 -1.17803 0
M  V30 3892 C 367.499 2.14494 -0.92275 0
M  V30 3893 C 368.48 1.69546 0.137179 0
M  V30 3894 O 369.665 1.94195 -0.0141108 0
M  V30 3895 C 366.795 3.44491 -0.440803 0
M  V30 3896 C 365.749 4.03031 -1.4405 0
M  V30 3897 C 365.075 5.28432 -0.81631 0
M  V30 3898 C 366.375 4.39932 -2.81527 0
M  V30 3899 H 368.069 2.36107 -1.84103 0
M  V30 3900 H 365.615 1.1347 -0.886599 0
M  V30 3901 H 367.568 4.2066 -0.249602 0
M  V30 3902 H 366.292 3.22546 0.513025 0
M  V30 3903 H 364.951 3.28937 -1.61853 0
M  V30 3904 H 364.599 5.02792 0.144511 0
M  V30 3905 H 364.299 5.68559 -1.48371 0
M  V30 3906 H 365.823 6.07284 -0.635496 0
M  V30 3907 H 367.237 5.07113 -2.67412 0
M  V30 3908 H 365.634 4.9109 -3.44892 0
M  V30 3909 H 366.704 3.50045 -3.35554 0
M  V30 3910 N 368.047 0.979072 1.23499 0
M  V30 3911 C 369.295 0.645941 1.91499 0
M  V30 3912 C 369.616 -0.822948 1.76784 0
M  V30 3913 O 368.886 -1.58854 1.14639 0
M  V30 3914 H 367.466 0.235919 0.708767 0
M  V30 3915 H 370.128 1.2426 1.50152 0
M  V30 3916 H 369.224 0.896411 2.9895 0
M  V30 3917 N 369.525 -1.3858 0.750561 0
M  V30 3918 C 370.774 -1.99424 0.302172 0
M  V30 3919 C 371.087 -1.60254 -1.12152 0
M  V30 3920 O 372.293 -2.14046 -1.67023 0
M  V30 3921 C 370.749 -3.56558 0.489307 0
M  V30 3922 C 370.357 -4.04682 1.92189 0
M  V30 3923 C 372.101 -4.24374 0.103478 0
M  V30 3924 C 370.008 -5.54446 2.05775 0
M  V30 3925 H 368.938 -0.746046 0.10923 0
M  V30 3926 H 371.589 -1.58383 0.92667 0
M  V30 3927 H 369.971 -3.95472 -0.204329 0
M  V30 3928 H 371.145 -3.77065 2.64875 0
M  V30 3929 H 369.46 -3.4958 2.26236 0
M  V30 3930 H 372.057 -5.34384 0.183787 0
M  V30 3931 H 372.4 -4.05468 -0.943481 0
M  V30 3932 H 372.933 -3.90688 0.748854 0
M  V30 3933 H 369.672 -5.78252 3.08714 0
M  V30 3934 H 369.192 -5.83816 1.37546 0
M  V30 3935 H 370.871 -6.20099 1.84626 0
M  V30 3936 N 371.003 -0.499398 -1.49478 0
M  V30 3937 C 372.231 0.0425456 -2.06856 0
M  V30 3938 C 372.646 1.30964 -1.35992 0
M  V30 3939 O 372.003 1.77172 -0.437762 0
M  V30 3940 C 372.054 0.301735 -3.60239 0
M  V30 3941 O 371.775 -0.915127 -4.28436 0
M  V30 3942 C 373.276 0.887499 -4.34325 0
M  V30 3943 H 370.496 -0.0197482 -0.670709 0
M  V30 3944 H 373.04 -0.696297 -1.92281 0
M  V30 3945 H 371.195 0.990556 -3.74522 0
M  V30 3946 H 371.609 -0.676993 -5.20113 0
M  V30 3947 H 373.083 1.01845 -5.42523 0
M  V30 3948 H 373.56 1.88488 -3.96698 0
M  V30 3949 H 374.166 0.236196 -4.24644 0
M  V30 3950 N 372.481 1.55866 -0.233164 0
M  V30 3951 C 373.728 1.98603 0.395374 0
M  V30 3952 C 374.056 1.12105 1.58942 0
M  V30 3953 O 373.311 0.168656 1.94972 0
M  V30 3954 C 373.61 3.46856 0.861724 0
M  V30 3955 C 373.276 4.50348 -0.223066 0
M  V30 3956 C 371.938 4.78371 -0.521038 0
M  V30 3957 C 374.29 5.12355 -0.956124 0
M  V30 3958 C 371.618 5.6568 -1.55638 0
M  V30 3959 C 373.97 6.00786 -1.98089 0
M  V30 3960 C 372.634 6.27148 -2.28565 0
M  V30 3961 H 371.904 0.726739 0.144677 0
M  V30 3962 H 374.551 1.88491 -0.338114 0
M  V30 3963 H 372.856 3.5423 1.67418 0
M  V30 3964 H 374.553 3.77302 1.35809 0
M  V30 3965 H 371.143 4.28596 0.0193234 0
M  V30 3966 H 375.327 4.90765 -0.739166 0
M  V30 3967 H 370.583 5.84365 -1.798 0
M  V30 3968 H 374.757 6.4788 -2.55391 0
M  V30 3969 H 372.384 6.94597 -3.08932 0
M  V30 3970 N 373.959 -0.0401083 1.57549 0
M  V30 3971 C 374.907 -1.06264 2.06908 0
M  V30 3972 C 375.901 -1.38132 0.980608 0
M  V30 3973 O 377.107 -1.37167 1.16556 0
M  V30 3974 H 373.482 -0.360166 0.660139 0
M  V30 3975 H 375.453 -0.620445 2.91878 0
M  V30 3976 C 374.202 -2.35846 2.55483 0
M  V30 3977 H 373.525 -2.12183 3.38849 0
M  V30 3978 H 374.965 -3.05765 2.93741 0
M  V30 3979 C 373.424 -3.0404 1.45126 0
M  V30 3980 O 373.954 -3.93424 0.811216 0
M  V30 3981 N 372.16 -2.65184 1.18852 0
M  V30 3982 H 371.707 -1.92584 1.71083 0
M  V30 3983 H 371.665 -3.1113 0.452244 0
M  V30 3984 N 375.437 -1.54477 -0.31217 0
M  V30 3985 C 376.714 -1.63891 -1.06767 0
M  V30 3986 C 377.094 -0.480028 -2.0557 0
M  V30 3987 O 376.442 0.524487 -2.22399 0
M  V30 3988 C 376.652 -3.01402 -1.75948 0
M  V30 3989 C 378 -3.57838 -2.28554 0
M  V30 3990 O 379.024 -3.03782 -1.85998 0
M  V30 3991 O 377.883 -4.52462 -3.06497 0
M  V30 3992 H 374.977 -0.664125 -0.492816 0
M  V30 3993 H 377.523 -1.66823 -0.311149 0
M  V30 3994 H 376.295 -3.77187 -1.04144 0
M  V30 3995 H 375.918 -3.02199 -2.58383 0
M  V30 3996 N 376.915 0.57481 -1.46744 0
M  V30 3997 C 377.845 1.69337 -1.60771 0
M  V30 3998 C 378.826 1.63825 -0.457736 0
M  V30 3999 O 380.011 1.8172 -0.684947 0
M  V30 4000 C 377.141 3.0798 -1.60517 0
M  V30 4001 C 376.095 3.28327 -2.74564 0
M  V30 4002 C 375.421 4.67578 -2.59373 0
M  V30 4003 C 376.721 3.15398 -4.16319 0
M  V30 4004 H 378.415 1.57853 -2.54407 0
M  V30 4005 H 375.961 0.75799 -1.22436 0
M  V30 4006 H 377.914 3.86061 -1.68923 0
M  V30 4007 H 376.638 3.20381 -0.634305 0
M  V30 4008 H 375.297 2.52649 -2.65639 0
M  V30 4009 H 374.945 4.76755 -1.60353 0
M  V30 4010 H 374.645 4.82144 -3.35873 0
M  V30 4011 H 376.169 5.47817 -2.69682 0
M  V30 4012 H 377.583 3.83315 -4.26313 0
M  V30 4013 H 375.98 3.41482 -4.93468 0
M  V30 4014 H 377.05 2.12372 -4.3592 0
M  V30 4015 N 378.394 1.34581 0.820102 0
M  V30 4016 C 379.624 1.29991 1.6058 0
M  V30 4017 C 380.032 -0.127588 1.88769 0
M  V30 4018 O 379.375 -1.08595 1.48165 0
M  V30 4019 C 379.437 2.02548 2.9701 0
M  V30 4020 C 379.101 3.51794 2.91701 0
M  V30 4021 C 380.098 4.46647 2.66087 0
M  V30 4022 C 377.783 3.94249 3.11245 0
M  V30 4023 C 379.777 5.81929 2.60071 0
M  V30 4024 C 377.464 5.2963 3.04853 0
M  V30 4025 C 378.462 6.23282 2.793 0
M  V30 4026 O 378.15 7.56181 2.72847 0
M  V30 4027 H 377.882 0.448539 0.505756 0
M  V30 4028 H 380.436 1.77811 1.02822 0
M  V30 4029 H 378.666 1.49345 3.56697 0
M  V30 4030 H 380.355 1.91211 3.58041 0
M  V30 4031 H 381.121 4.15168 2.5072 0
M  V30 4032 H 377 3.21749 3.30149 0
M  V30 4033 H 380.544 6.54999 2.40046 0
M  V30 4034 H 376.441 5.60727 3.19774 0
M  V30 4035 H 377.209 7.6595 2.88553 0
M  V30 4036 N 379.872 -1.04064 1.18357 0
M  V30 4037 C 380.782 -2.15569 0.925596 0
M  V30 4038 C 381.798 -1.7365 -0.110295 0
M  V30 4039 O 382.974 -2.01273 0.0716218 0
M  V30 4040 C 380.039 -3.43704 0.454836 0
M  V30 4041 C 379.1 -4.00004 1.55869 0
M  V30 4042 C 378.333 -5.22023 1.1103 0
M  V30 4043 O 378.556 -5.70392 -0.0309756 0
M  V30 4044 O 377.49 -5.70856 1.90805 0
M  V30 4045 H 381.316 -2.40187 1.8586 0
M  V30 4046 H 378.901 -1.1402 0.965394 0
M  V30 4047 H 380.783 -4.20923 0.200382 0
M  V30 4048 H 379.458 -3.20559 -0.449876 0
M  V30 4049 H 378.365 -3.24172 1.86716 0
M  V30 4050 H 379.698 -4.2749 2.43953 0
M  V30 4051 N 381.35 -0.985608 -1.22978 0
M  V30 4052 C 382.58 -0.674603 -1.95276 0
M  V30 4053 C 382.988 0.763483 -1.73111 0
M  V30 4054 O 382.331 1.52601 -1.02268 0
M  V30 4055 C 382.393 -0.891597 -3.48268 0
M  V30 4056 C 382.057 -2.31275 -3.94158 0
M  V30 4057 C 383.054 -3.29179 -4.02415 0
M  V30 4058 C 380.739 -2.64524 -4.27004 0
M  V30 4059 C 382.733 -4.58407 -4.42879 0
M  V30 4060 C 380.42 -3.93974 -4.67149 0
M  V30 4061 C 381.418 -4.90727 -4.75053 0
M  V30 4062 O 381.106 -6.17865 -5.14294 0
M  V30 4063 H 380.838 -0.249251 -0.628371 0
M  V30 4064 H 383.392 -1.32106 -1.5728 0
M  V30 4065 H 381.622 -0.187962 -3.86243 0
M  V30 4066 H 383.311 -0.576957 -4.01779 0
M  V30 4067 H 384.077 -3.04823 -3.77237 0
M  V30 4068 H 379.956 -1.89923 -4.2006 0
M  V30 4069 H 383.5 -5.33926 -4.48964 0
M  V30 4070 H 379.397 -4.18122 -4.91777 0
M  V30 4071 H 380.165 -6.21694 -5.32389 0
M  V30 4072 N 382.828 1.3818 -0.7579 0
M  V30 4073 C 384.074 2.00316 -0.316453 0
M  V30 4074 C 384.407 1.60026 1.10025 0
M  V30 4075 O 383.682 0.839835 1.75434 0
M  V30 4076 C 383.965 3.57349 -0.444245 0
M  V30 4077 C 383.818 4.07591 -1.90236 0
M  V30 4078 C 385.137 4.3981 0.1598 0
M  V30 4079 H 382.256 0.727741 -0.116459 0
M  V30 4080 H 384.898 1.6406 -0.958352 0
M  V30 4081 H 383.048 3.88365 0.102233 0
M  V30 4082 H 384.72 3.87199 -2.50748 0
M  V30 4083 H 382.963 3.60297 -2.41595 0
M  V30 4084 H 383.634 5.16677 -1.94291 0
M  V30 4085 H 386.11 4.14971 -0.306314 0
M  V30 4086 H 384.986 5.48885 0.0401675 0
M  V30 4087 H 385.247 4.24102 1.24859 0
M  V30 4088 N 384.306 0.507319 1.49211 0
M  V30 4089 C 385.269 -0.256763 2.27757 0
M  V30 4090 C 386.269 -0.888287 1.34038 0
M  V30 4091 O 387.459 -0.751841 1.5714 0
M  V30 4092 C 384.591 -1.36905 3.12202 0
M  V30 4093 H 385.784 0.432557 2.96764 0
M  V30 4094 H 383.337 0.262488 1.5408 0
M  V30 4095 H 384.072 -2.09233 2.47775 0
M  V30 4096 H 383.857 -0.921599 3.81115 0
M  V30 4097 H 385.347 -1.9071 3.7151 0
M  V30 4098 N 385.784 -1.5574 0.241426 0
M  V30 4099 C 387.032 -1.98417 -0.384075 0
M  V30 4100 C 387.353 -1.13078 -1.58866 0
M  V30 4101 O 386.623 -0.212312 -1.94746 0
M  V30 4102 H 385.203 -0.732813 -0.144894 0
M  V30 4103 H 387.865 -1.9193 0.338943 0
M  V30 4104 H 386.961 -3.04219 -0.696939 0
M  V30 4105 N 387.262 0.0317525 -1.57568 0
M  V30 4106 C 388.192 1.03274 -2.0942 0
M  V30 4107 C 389.173 1.3788 -0.996143 0
M  V30 4108 O 390.358 1.46811 -1.27122 0
M  V30 4109 C 387.488 2.33448 -2.57137 0
M  V30 4110 C 386.442 2.13091 -3.71182 0
M  V30 4111 C 385.768 3.49001 -4.05095 0
M  V30 4112 C 387.068 1.51928 -4.99715 0
M  V30 4113 H 388.762 0.60112 -2.93303 0
M  V30 4114 H 386.308 0.287705 -1.41097 0
M  V30 4115 H 388.261 3.03802 -2.92032 0
M  V30 4116 H 386.985 2.78665 -1.70333 0
M  V30 4117 H 385.644 1.45171 -3.36632 0
M  V30 4118 H 385.292 3.91862 -3.15362 0
M  V30 4119 H 384.992 3.36207 -4.81911 0
M  V30 4120 H 386.516 4.20721 -4.42522 0
M  V30 4121 H 387.93 2.12196 -5.32584 0
M  V30 4122 H 386.327 1.49716 -5.81124 0
M  V30 4123 H 387.397 0.484811 -4.8247 0
M  V30 4124 N 388.74 1.54641 0.303973 0
M  V30 4125 C 389.687 1.85386 1.37479 0
M  V30 4126 C 390.657 0.702528 1.50512 0
M  V30 4127 O 391.842 0.950867 1.65418 0
M  V30 4128 C 388.982 2.10413 2.73533 0
M  V30 4129 C 388.095 3.38049 2.68974 0
M  V30 4130 C 387.23 3.52934 3.97002 0
M  V30 4131 C 386.269 4.74373 3.86829 0
M  V30 4132 N 385.406 4.8608 5.06627 0
M  V30 4133 H 390.246 2.76732 1.1056 0
M  V30 4134 H 387.783 1.37034 0.534805 0
M  V30 4135 H 389.741 2.22919 3.52652 0
M  V30 4136 H 388.371 1.22338 2.98719 0
M  V30 4137 H 387.423 3.3418 1.81736 0
M  V30 4138 H 388.735 4.27288 2.57346 0
M  V30 4139 H 387.889 3.65088 4.84557 0
M  V30 4140 H 386.628 2.61824 4.1146 0
M  V30 4141 H 385.633 4.62255 2.97658 0
M  V30 4142 H 386.858 5.66888 3.73918 0
M  V30 4143 H 384.804 3.97891 5.21554 0
M  V30 4144 H 384.721 5.69315 4.9741 0
M  V30 4145 H 385.989 5.02587 5.95841 0
M  V30 4146 N 390.218 -0.567019 1.47046 0
M  V30 4147 C 391.15 -1.68985 1.54844 0
M  V30 4148 C 392.163 -1.56869 0.435431 0
M  V30 4149 O 393.352 -1.64006 0.70457 0
M  V30 4150 C 390.452 -3.07373 1.42742 0
M  V30 4151 C 389.625 -3.45339 2.6844 0
M  V30 4152 C 388.684 -4.62849 2.50314 0
M  V30 4153 O 387.71 -4.67922 3.24095 0
M  V30 4154 N 388.912 -5.58726 1.57499 0
M  V30 4155 H 391.677 -1.62745 2.51663 0
M  V30 4156 H 389.238 -0.753411 1.43302 0
M  V30 4157 H 391.23 -3.83803 1.28365 0
M  V30 4158 H 389.8 -3.07893 0.540445 0
M  V30 4159 H 389.02 -2.58455 2.97648 0
M  V30 4160 H 390.308 -3.67476 3.51907 0
M  V30 4161 H 389.706 -5.57376 0.966876 0
M  V30 4162 H 388.263 -6.34523 1.49078 0
M  V30 4163 N 391.696 -1.35014 -0.812953 0
M  V30 4164 C 392.659 -1.27292 -1.90602 0
M  V30 4165 C 393.659 -0.185817 -1.59723 0
M  V30 4166 O 394.849 -0.439102 -1.68575 0
M  V30 4167 C 391.981 -0.967676 -3.26877 0
M  V30 4168 H 393.174 -2.24479 -1.9887 0
M  V30 4169 H 390.727 -1.19446 -1.00808 0
M  V30 4170 H 391.462 0.0005954 -3.243 0
M  V30 4171 H 391.247 -1.75412 -3.50675 0
M  V30 4172 H 392.737 -0.939085 -4.06904 0
M  V30 4173 N 393.175 1.03435 -1.18907 0
M  V30 4174 C 394.424 1.76143 -0.982669 0
M  V30 4175 C 394.737 1.89416 0.487953 0
M  V30 4176 O 395.943 2.59041 0.813036 0
M  V30 4177 C 394.399 3.16722 -1.70924 0
M  V30 4178 C 394.007 3.11522 -3.21959 0
M  V30 4179 C 395.751 3.93764 -1.58588 0
M  V30 4180 C 393.658 4.46999 -3.87228 0
M  V30 4181 H 392.588 0.660292 -0.364047 0
M  V30 4182 H 395.239 1.158 -1.42347 0
M  V30 4183 H 393.621 3.775 -1.19623 0
M  V30 4184 H 394.795 2.60158 -3.80335 0
M  V30 4185 H 393.11 2.47978 -3.34508 0
M  V30 4186 H 395.707 4.93963 -2.04707 0
M  V30 4187 H 396.05 4.12794 -0.539142 0
M  V30 4188 H 396.583 3.39576 -2.07203 0
M  V30 4189 H 393.322 4.33174 -4.91976 0
M  V30 4190 H 392.842 4.98441 -3.33642 0
M  V30 4191 H 394.521 5.15898 -3.90459 0
M  V30 4192 N 394.653 0.992116 1.22453 0
M  V30 4193 C 395.6 0.541731 2.24352 0
M  V30 4194 C 396.57 -0.425519 1.60557 0
M  V30 4195 O 397.755 -0.330453 1.87917 0
M  V30 4196 C 394.895 -0.138248 3.44823 0
M  V30 4197 C 394.008 0.870649 4.23136 0
M  V30 4198 C 393.143 0.164269 5.30946 0
M  V30 4199 C 392.182 1.16159 6.00977 0
M  V30 4200 N 391.319 0.483568 7.00433 0
M  V30 4201 H 396.159 1.41541 2.62241 0
M  V30 4202 H 393.696 0.709013 1.28885 0
M  V30 4203 H 395.654 -0.5494 4.13567 0
M  V30 4204 H 394.284 -0.975721 3.077 0
M  V30 4205 H 393.336 1.40013 3.53696 0
M  V30 4206 H 394.648 1.63014 4.7141 0
M  V30 4207 H 393.802 -0.303653 6.0594 0
M  V30 4208 H 392.541 -0.627733 4.83643 0
M  V30 4209 H 391.546 1.64015 5.24766 0
M  V30 4210 H 392.771 1.95445 6.50368 0
M  V30 4211 H 390.717 -0.289012 6.55363 0
M  V30 4212 H 390.634 1.18152 7.4671 0
M  V30 4213 H 391.902 0.0384219 7.79491 0
M  V30 4214 N 396.131 -1.37776 0.765217 0
M  V30 4215 C 397.359 -2.04124 0.337767 0
M  V30 4216 C 397.774 -1.57715 -1.03785 0
M  V30 4217 O 397.131 -0.755447 -1.6613 0
M  V30 4218 C 397.182 -3.59658 0.364442 0
M  V30 4219 O 396.903 -4.04367 1.68579 0
M  V30 4220 C 398.404 -4.43236 -0.0754221 0
M  V30 4221 H 395.624 -0.655696 0.142491 0
M  V30 4222 H 398.168 -1.76238 1.03732 0
M  V30 4223 H 396.323 -3.86339 -0.286471 0
M  V30 4224 H 396.737 -4.98857 1.61993 0
M  V30 4225 H 398.211 -5.52 -0.00560067 0
M  V30 4226 H 398.688 -4.2455 -1.12491 0
M  V30 4227 H 399.294 -4.21767 0.547055 0
M  V30 4228 N 397.609 -0.515225 -1.4894 0
M  V30 4229 C 399.02 -0.0710067 -1.86565 0
M  V30 4230 C 399.371 1.34733 -1.42623 0
M  V30 4231 O 398.496 2.00653 -0.810379 0
M  V30 4232 C 399.091 -0.122083 -3.3858 0
M  V30 4233 C 397.65 0.266863 -3.75453 0
M  V30 4234 C 396.797 -0.488376 -2.72966 0
M  V30 4235 H 399.748 -0.727266 -1.41055 0
M  V30 4236 H 399.769 0.669818 -3.74558 0
M  V30 4237 H 399.281 -1.15448 -3.70531 0
M  V30 4238 H 397.382 1.30196 -3.49113 0
M  V30 4239 H 397.495 -0.0624811 -4.79059 0
M  V30 4240 H 395.859 0.0635622 -2.54621 0
M  V30 4241 H 396.642 -1.52113 -3.07761 0
M  V30 4242 N 399.087 1.5561 -0.249682 0
M  V30 4243 C 400.312 2.03865 0.381305 0
M  V30 4244 C 400.737 1.12769 1.50548 0
M  V30 4245 O 400.095 0.121189 1.80895 0
M  V30 4246 C 400.143 3.50101 0.863816 0
M  V30 4247 O 399.247 3.62132 1.97318 0
M  V30 4248 H 398.588 0.658827 0.0827194 0
M  V30 4249 H 401.118 2.01105 -0.376552 0
M  V30 4250 H 401.128 3.90975 1.1663 0
M  V30 4251 H 399.803 4.1588 0.0411816 0
M  V30 4252 H 398.38 3.33155 1.67517 0
M  V30 4253 N 400.565 -0.0233959 1.57583 0
M  V30 4254 C 401.475 -1.03907 2.10334 0
M  V30 4255 C 402.491 -1.39257 1.04323 0
M  V30 4256 O 403.667 -1.48462 1.36091 0
M  V30 4257 C 400.732 -2.31938 2.57693 0
M  V30 4258 C 399.793 -2.03117 3.78209 0
M  V30 4259 C 399.026 -3.25043 4.233 0
M  V30 4260 O 399.249 -4.35916 3.67876 0
M  V30 4261 O 398.183 -3.10411 5.15683 0
M  V30 4262 H 402.009 -0.620748 2.97288 0
M  V30 4263 H 399.594 -0.240743 1.47448 0
M  V30 4264 H 401.476 -3.07196 2.88458 0
M  V30 4265 H 400.151 -2.73055 1.73847 0
M  V30 4266 H 399.058 -1.25408 3.52454 0
M  V30 4267 H 400.391 -1.66852 4.63056 0
M  V30 4268 N 402.043 -1.548 -0.295768 0
M  V30 4269 C 402.953 -1.89177 -1.38742 0
M  V30 4270 C 403.969 -0.786481 -1.55211 0
M  V30 4271 O 405.145 -1.08344 -1.69775 0
M  V30 4272 C 402.21 -2.13663 -2.73036 0
M  V30 4273 C 401.271 -3.37349 -2.65508 0
M  V30 4274 C 400.504 -3.60658 -3.93398 0
M  V30 4275 O 400.727 -2.86882 -4.93006 0
M  V30 4276 O 399.661 -4.54179 -3.94975 0
M  V30 4277 H 403.487 -2.82059 -1.12589 0
M  V30 4278 H 401.072 -1.41056 -0.492295 0
M  V30 4279 H 402.954 -2.3094 -3.52484 0
M  V30 4280 H 401.629 -1.23967 -2.99022 0
M  V30 4281 H 400.536 -3.25431 -1.84514 0
M  V30 4282 H 401.869 -4.27192 -2.44474 0
M  V30 4283 N 403.521 0.559213 -1.47345 0
M  V30 4284 C 404.751 1.33999 -1.57251 0
M  V30 4285 C 405.159 1.87905 -0.220978 0
M  V30 4286 O 404.502 1.65577 0.795617 0
M  V30 4287 C 404.564 2.54798 -2.53611 0
M  V30 4288 C 404.228 2.22192 -3.99349 0
M  V30 4289 C 405.225 1.79607 -4.87891 0
M  V30 4290 C 402.91 2.33613 -4.44669 0
M  V30 4291 C 404.904 1.48868 -6.19772 0
M  V30 4292 C 402.591 2.02487 -5.76578 0
M  V30 4293 C 403.589 1.60183 -6.63951 0
M  V30 4294 O 403.277 1.29451 -7.93409 0
M  V30 4295 H 403.009 0.414858 -0.533731 0
M  V30 4296 H 405.563 0.684465 -1.9366 0
M  V30 4297 H 403.793 3.23235 -2.12265 0
M  V30 4298 H 405.482 3.16873 -2.53666 0
M  V30 4299 H 406.248 1.70278 -4.54126 0
M  V30 4300 H 402.127 2.65501 -3.76869 0
M  V30 4301 H 405.671 1.15775 -6.87926 0
M  V30 4302 H 401.568 2.11448 -6.09885 0
M  V30 4303 H 402.336 1.43098 -8.05894 0
M  V30 4304 N 404.999 1.35443 0.805782 0
M  V30 4305 C 405.962 1.28301 1.89925 0
M  V30 4306 C 406.962 0.194285 1.59622 0
M  V30 4307 O 408.152 0.448036 1.6834 0
M  V30 4308 C 405.284 0.984997 3.2636 0
M  V30 4309 H 406.477 2.2553 1.97677 0
M  V30 4310 H 404.03 1.19979 1.00173 0
M  V30 4311 H 404.765 0.016603 3.24296 0
M  V30 4312 H 404.55 1.77269 3.4974 0
M  V30 4313 H 406.04 0.960651 4.064 0
M  V30 4314 N 406.477 -1.02803 1.19454 0
M  V30 4315 C 407.424 -2.11099 0.933046 0
M  V30 4316 C 408.394 -1.65571 -0.132447 0
M  V30 4317 O 409.579 -1.90797 0.00987576 0
M  V30 4318 C 406.719 -3.41763 0.478747 0
M  V30 4319 C 405.832 -4.00833 1.6111 0
M  V30 4320 C 404.967 -5.19511 1.10825 0
M  V30 4321 C 404.006 -5.70639 2.21445 0
M  V30 4322 N 403.143 -6.80589 1.72461 0
M  V30 4323 H 407.983 -2.32804 1.86028 0
M  V30 4324 H 405.52 -1.14179 0.927441 0
M  V30 4325 H 407.478 -4.16736 0.196745 0
M  V30 4326 H 406.108 -3.20166 -0.411493 0
M  V30 4327 H 405.16 -3.23066 2.00829 0
M  V30 4328 H 406.472 -4.34794 2.4445 0
M  V30 4329 H 405.626 -6.01645 0.781533 0
M  V30 4330 H 404.365 -4.87086 0.244606 0
M  V30 4331 H 403.37 -4.87116 2.54947 0
M  V30 4332 H 404.595 -6.05102 3.08267 0
M  V30 4333 H 402.541 -6.50016 0.884056 0
M  V30 4334 H 402.458 -7.13681 2.49389 0
M  V30 4335 H 403.726 -7.66317 1.42755 0
M  V30 4336 N 407.956 -0.998596 -1.21925 0
M  V30 4337 C 409.205 -0.673085 -1.90138 0
M  V30 4338 C 409.518 0.79895 -1.78539 0
M  V30 4339 O 410.724 1.23628 -2.4172 0
M  V30 4340 C 409.18 -1.15339 -3.40918 0
M  V30 4341 C 408.788 -2.65106 -3.61141 0
M  V30 4342 C 410.532 -0.902476 -4.14796 0
M  V30 4343 C 408.439 -3.0671 -5.05651 0
M  V30 4344 H 407.369 -0.248057 -0.712028 0
M  V30 4345 H 410.02 -1.20891 -1.38049 0
M  V30 4346 H 408.402 -0.545658 -3.92223 0
M  V30 4347 H 409.576 -3.31274 -3.20304 0
M  V30 4348 H 407.891 -2.88142 -3.00605 0
M  V30 4349 H 410.488 -1.18895 -5.21314 0
M  V30 4350 H 410.831 0.161349 -4.15987 0
M  V30 4351 H 411.364 -1.47269 -3.69536 0
M  V30 4352 H 408.103 -4.12292 -5.09603 0
M  V30 4353 H 407.623 -2.45249 -5.47369 0
M  V30 4354 H 409.302 -2.9833 -5.74115 0
M  V30 4355 N 409.434 1.37368 -0.772513 0
M  V30 4356 C 410.682 1.99279 -0.336516 0
M  V30 4357 C 411.003 1.6163 1.09091 0
M  V30 4358 O 410.273 0.882109 1.74916 0
M  V30 4359 H 408.853 0.737063 -0.121435 0
M  V30 4360 H 411.515 1.67836 -0.990809 0
M  V30 4361 H 410.611 3.09332 -0.414763 0
M  V30 4362 N 410.912 0.523116 1.48665 0
M  V30 4363 C 412.161 -0.01544 2.01694 0
M  V30 4364 C 412.474 -1.35975 1.40606 0
M  V30 4365 O 413.68 -1.98627 1.85093 0
M  V30 4366 C 412.136 -0.0779303 3.59816 0
M  V30 4367 C 411.744 1.26107 4.29885 0
M  V30 4368 C 413.488 -0.565678 4.20714 0
M  V30 4369 C 411.395 1.15954 5.79921 0
M  V30 4370 H 410.325 -0.00954163 0.75394 0
M  V30 4371 H 412.976 0.665865 1.70993 0
M  V30 4372 H 411.358 -0.824165 3.87329 0
M  V30 4373 H 412.532 2.02233 4.14051 0
M  V30 4374 H 410.847 1.68401 3.80828 0
M  V30 4375 H 413.444 -0.6595 5.30617 0
M  V30 4376 H 413.787 -1.56984 3.85567 0
M  V30 4377 H 414.32 0.12467 3.97605 0
M  V30 4378 H 411.059 2.13864 6.19631 0
M  V30 4379 H 410.579 0.439529 5.98187 0
M  V30 4380 H 412.258 0.847361 6.41427 0
M  V30 4381 N 412.39 -1.55475 0.257931 0
M  V30 4382 C 413.3 -2.2549 -0.647425 0
M  V30 4383 C 414.316 -1.2748 -1.18427 0
M  V30 4384 O 415.492 -1.6038 -1.2182 0
M  V30 4385 C 412.557 -2.94916 -1.82278 0
M  V30 4386 C 411.618 -4.08363 -1.32432 0
M  V30 4387 C 410.851 -4.74469 -2.44366 0
M  V30 4388 O 411.074 -4.39701 -3.63344 0
M  V30 4389 O 410.008 -5.62763 -2.13497 0
M  V30 4390 H 413.834 -3.03593 -0.0807707 0
M  V30 4391 H 411.419 -1.49377 0.0259962 0
M  V30 4392 H 413.301 -3.38606 -2.50846 0
M  V30 4393 H 411.976 -2.19744 -2.37685 0
M  V30 4394 H 410.883 -3.69166 -0.605605 0
M  V30 4395 H 412.216 -4.85385 -0.816211 0
M  V30 4396 N 413.868 0.0150385 -1.57593 0
M  V30 4397 C 414.815 1.01126 -2.07466 0
M  V30 4398 C 415.785 1.35064 -0.966794 0
M  V30 4399 O 416.97 1.4516 -1.23827 0
M  V30 4400 C 414.11 2.30276 -2.57035 0
M  V30 4401 C 413.223 2.02373 -3.81666 0
M  V30 4402 C 412.358 3.25496 -4.19793 0
M  V30 4403 C 411.397 2.93211 -5.37303 0
M  V30 4404 N 410.534 4.08826 -5.70794 0
M  V30 4405 H 415.374 0.57901 -2.92321 0
M  V30 4406 H 412.911 0.27426 -1.44521 0
M  V30 4407 H 414.869 3.05757 -2.83846 0
M  V30 4408 H 413.499 2.71197 -1.75077 0
M  V30 4409 H 412.551 1.17327 -3.61854 0
M  V30 4410 H 413.863 1.74567 -4.67256 0
M  V30 4411 H 413.017 4.09333 -4.47807 0
M  V30 4412 H 411.756 3.56428 -3.32882 0
M  V30 4413 H 410.761 2.07777 -5.09027 0
M  V30 4414 H 411.986 2.63542 -6.25877 0
M  V30 4415 H 409.932 4.39682 -4.86842 0
M  V30 4416 H 409.849 3.84491 -6.50924 0
M  V30 4417 H 411.117 4.93496 -6.03392 0
M  V30 4418 N 415.346 1.54954 0.287554 0
M  V30 4419 C 416.623 1.65569 1.04146 0
M  V30 4420 C 417.003 0.512672 2.0478 0
M  V30 4421 O 416.351 -0.489038 2.23205 0
M  V30 4422 C 416.561 3.04163 1.71131 0
M  V30 4423 C 417.909 3.61429 2.22832 0
M  V30 4424 O 418.933 3.06702 1.81141 0
M  V30 4425 O 417.792 4.57281 2.9926 0
M  V30 4426 H 414.886 0.671881 0.482188 0
M  V30 4427 H 417.432 1.67297 0.28457 0
M  V30 4428 H 416.204 3.78796 0.981303 0
M  V30 4429 H 415.827 3.06271 2.53543 0
M  V30 4430 N 416.824 -0.551391 1.4764 0
M  V30 4431 C 418.072 -1.30572 1.54258 0
M  V30 4432 C 418.393 -1.93877 0.208963 0
M  V30 4433 O 417.663 -1.80234 -0.767619 0
M  V30 4434 H 416.243 -0.484894 0.568231 0
M  V30 4435 H 418.905 -0.643402 1.83974 0
M  V30 4436 H 418.001 -2.09621 2.31226 0
M  V30 4437 N 418.302 -1.35869 -0.798587 0
M  V30 4438 C 419.249 -1.29446 -1.91082 0
M  V30 4439 C 420.219 -0.16487 -1.6528 0
M  V30 4440 O 421.404 -0.349888 -1.87564 0
M  V30 4441 C 418.544 -1.0804 -3.27752 0
M  V30 4442 C 417.657 -2.29993 -3.65687 0
M  V30 4443 C 416.792 -2.01673 -4.91428 0
M  V30 4444 C 415.831 -3.19636 -5.22015 0
M  V30 4445 N 414.968 -2.91039 -6.38937 0
M  V30 4446 H 419.808 -2.24553 -1.95907 0
M  V30 4447 H 417.345 -1.11615 -0.958148 0
M  V30 4448 H 419.303 -0.936586 -4.06551 0
M  V30 4449 H 417.933 -0.16592 -3.22373 0
M  V30 4450 H 416.985 -2.55211 -2.82085 0
M  V30 4451 H 418.297 -3.18052 -3.84245 0
M  V30 4452 H 417.451 -1.84168 -5.78072 0
M  V30 4453 H 416.19 -1.10911 -4.74921 0
M  V30 4454 H 415.195 -3.37709 -4.33858 0
M  V30 4455 H 416.42 -4.11211 -5.40447 0
M  V30 4456 H 414.366 -2.0288 -6.2384 0
M  V30 4457 H 414.283 -3.72635 -6.57784 0
M  V30 4458 H 415.551 -2.77093 -7.28587 0
M  V30 4459 N 419.78 1.02168 -1.19998 0
M  V30 4460 C 421.196 1.27969 -0.953737 0
M  V30 4461 C 421.396 1.98079 0.369703 0
M  V30 4462 O 420.452 2.27306 1.09947 0
M  V30 4463 C 421.765 2.11971 -2.13281 0
M  V30 4464 C 423.313 2.25255 -2.17323 0
M  V30 4465 C 423.788 3.12632 -3.34702 0
M  V30 4466 N 425.279 3.2022 -3.34684 0
M  V30 4467 C 426.014 3.88039 -4.22153 0
M  V30 4468 N 425.51 4.58027 -5.19791 0
M  V30 4469 N 427.303 3.84511 -4.10009 0
M  V30 4470 H 419.454 0.550794 -2.05134 0
M  V30 4471 H 421.717 0.305683 -0.897364 0
M  V30 4472 H 421.423 1.67785 -3.09097 0
M  V30 4473 H 421.297 3.12699 -2.10949 0
M  V30 4474 H 423.684 2.68667 -1.22073 0
M  V30 4475 H 423.765 1.24053 -2.23706 0
M  V30 4476 H 423.409 2.69926 -4.30235 0
M  V30 4477 H 423.339 4.13909 -3.25556 0
M  V30 4478 H 425.83 2.70382 -2.64012 0
M  V30 4479 H 426.143 5.07429 -5.82868 0
M  V30 4480 H 424.488 4.56869 -5.23733 0
M  V30 4481 H 427.679 3.28978 -3.33003 0
M  V30 4482 H 427.852 4.3709 -4.78389 0
M  V30 4483 N 421.258 1.00505 1.21394 0
M  V30 4484 C 422.188 0.585684 2.26035 0
M  V30 4485 C 423.169 -0.393525 1.65485 0
M  V30 4486 O 424.354 -0.281497 1.92149 0
M  V30 4487 C 421.484 -0.0884283 3.47187 0
M  V30 4488 C 420.438 0.810567 4.20254 0
M  V30 4489 C 419.764 0.00286382 5.347 0
M  V30 4490 C 421.064 2.1132 4.77641 0
M  V30 4491 H 422.758 1.46039 2.61368 0
M  V30 4492 H 420.304 0.703648 1.25638 0
M  V30 4493 H 422.257 -0.393286 4.19561 0
M  V30 4494 H 420.981 -0.997766 3.10986 0
M  V30 4495 H 419.64 1.09925 3.49731 0
M  V30 4496 H 419.288 -0.907765 4.94741 0
M  V30 4497 H 418.988 0.601444 5.84514 0
M  V30 4498 H 420.512 -0.295808 6.09883 0
M  V30 4499 H 421.926 1.87148 5.41893 0
M  V30 4500 H 420.323 2.66164 5.37845 0
M  V30 4501 H 421.393 2.78393 3.9702 0
M  V30 4502 N 422.737 -1.36956 0.779787 0
M  V30 4503 C 423.669 -2.28833 0.129639 0
M  V30 4504 C 424.682 -1.4902 -0.655511 0
M  V30 4505 O 425.871 -1.71578 -0.492279 0
M  V30 4506 C 422.971 -3.2833 -0.839792 0
M  V30 4507 C 422.144 -4.3727 -0.10675 0
M  V30 4508 C 421.203 -5.16789 -0.990717 0
M  V30 4509 O 420.229 -5.67406 -0.451516 0
M  V30 4510 N 421.431 -5.32294 -2.3161 0
M  V30 4511 H 424.196 -2.85268 0.918803 0
M  V30 4512 H 421.757 -1.49019 0.632841 0
M  V30 4513 H 423.749 -3.78413 -1.43477 0
M  V30 4514 H 422.319 -2.72605 -1.52988 0
M  V30 4515 H 421.539 -3.88478 0.669216 0
M  V30 4516 H 422.827 -5.07229 0.399464 0
M  V30 4517 H 422.225 -4.92768 -2.77843 0
M  V30 4518 H 420.782 -5.85656 -2.86095 0
M  V30 4519 N 424.215 -0.530993 -1.48385 0
M  V30 4520 C 425.464 0.00474348 -2.01699 0
M  V30 4521 C 425.777 1.35227 -1.41325 0
M  V30 4522 O 426.983 1.97643 -1.86144 0
M  V30 4523 C 425.439 0.0588473 -3.59852 0
M  V30 4524 C 425.047 -1.28385 -4.2921 0
M  V30 4525 C 426.791 0.543358 -4.21008 0
M  V30 4526 C 424.698 -1.19028 -5.79298 0
M  V30 4527 H 423.628 0.00554317 -0.75398 0
M  V30 4528 H 426.279 -0.674924 -1.70637 0
M  V30 4529 H 424.661 0.803612 -3.8776 0
M  V30 4530 H 425.835 -2.04426 -4.12973 0
M  V30 4531 H 424.15 -1.70418 -3.7993 0
M  V30 4532 H 426.747 0.631351 -5.3096 0
M  V30 4533 H 427.09 1.54937 -3.86394 0
M  V30 4534 H 427.623 -0.145754 -3.97533 0
M  V30 4535 H 424.362 -2.17147 -6.18488 0
M  V30 4536 H 423.882 -0.471246 -5.97946 0
M  V30 4537 H 425.561 -0.881365 -6.40969 0
M  V30 4538 N 425.693 1.55336 -0.266172 0
M  V30 4539 C 426.641 2.23587 0.641228 0
M  V30 4540 C 427.635 1.22986 1.16494 0
M  V30 4541 O 428.841 1.40943 1.1196 0
M  V30 4542 H 425.216 0.717452 0.225315 0
M  V30 4543 H 427.187 2.9837 0.0426561 0
M  V30 4544 C 425.936 2.96369 1.81826 0
M  V30 4545 H 425.259 3.73563 1.42445 0
M  V30 4546 H 426.699 3.47459 2.42998 0
M  V30 4547 C 425.158 2.0133 2.70125 0
M  V30 4548 O 425.688 1.55875 3.70224 0
M  V30 4549 N 423.894 1.6802 2.37102 0
M  V30 4550 H 423.441 2.05181 1.55751 0
M  V30 4551 H 423.399 1.047 2.96454 0
M  V30 4552 N 427.171 -0.0066808 1.57599 0
M  V30 4553 C 428.396 -0.707738 1.94951 0
M  V30 4554 C 428.821 -1.66882 0.867868 0
M  V30 4555 O 428.179 -1.80457 -0.17458 0
M  V30 4556 C 428.227 -1.42162 3.31394 0
M  V30 4557 O 427.331 -2.53578 3.25226 0
M  V30 4558 H 426.672 -0.188752 0.636607 0
M  V30 4559 H 429.202 0.0445193 2.04552 0
M  V30 4560 H 429.212 -1.78655 3.66806 0
M  V30 4561 H 427.887 -0.716903 4.09675 0
M  V30 4562 H 426.464 -2.19463 3.01481 0
M  V30 4563 N 428.649 -1.55105 -0.279332 0
M  V30 4564 C 429.597 -1.88333 -1.36505 0
M  V30 4565 C 430.591 -0.759043 -1.51443 0
M  V30 4566 O 431.797 -0.943312 -1.53302 0
M  V30 4567 H 428.172 -0.59766 -0.456406 0
M  V30 4568 H 430.143 -2.79041 -1.05728 0
M  V30 4569 C 428.892 -2.16628 -2.7197 0
M  V30 4570 H 428.215 -3.02624 -2.61264 0
M  V30 4571 H 429.655 -2.43803 -3.46895 0
M  V30 4572 C 428.114 -0.971807 -3.22579 0
M  V30 4573 O 428.644 -0.203228 -4.01186 0
M  V30 4574 N 426.85 -0.771238 -2.80179 0
M  V30 4575 H 426.397 -1.39792 -2.1637 0
M  V30 4576 H 426.355 0.0263667 -3.14389 0
M  V30 4577 N 430.127 0.543554 -1.4793 0
M  V30 4578 C 431.373 1.30201 -1.55485 0
M  V30 4579 C 431.706 1.92925 -0.222201 0
M  V30 4580 O 430.981 1.78586 0.77053 0
M  V30 4581 C 431.264 2.40174 -2.68307 0
M  V30 4582 C 431.117 1.8223 -4.11233 0
M  V30 4583 C 432.436 3.42024 -2.76961 0
M  V30 4584 H 429.555 0.472036 -0.565996 0
M  V30 4585 H 432.197 0.606914 -1.80046 0
M  V30 4586 H 430.347 2.99463 -2.47495 0
M  V30 4587 H 432.019 1.27096 -4.43446 0
M  V30 4588 H 430.262 1.12832 -4.18869 0
M  V30 4589 H 430.933 2.61793 -4.85972 0
M  V30 4590 H 433.409 2.92672 -2.95774 0
M  V30 4591 H 432.285 4.16383 -3.57654 0
M  V30 4592 H 432.546 4.0173 -1.84568 0
M  V30 4593 N 431.605 1.3629 0.791371 0
M  V30 4594 C 432.535 1.33137 1.91825 0
M  V30 4595 C 433.516 0.203168 1.68882 0
M  V30 4596 O 434.701 0.400509 1.90025 0
M  V30 4597 C 431.831 1.11793 3.28816 0
M  V30 4598 C 430.785 2.21417 3.66277 0
M  V30 4599 C 430.111 1.85218 5.01596 0
M  V30 4600 C 431.411 3.63489 3.75064 0
M  V30 4601 H 433.105 2.2743 1.9472 0
M  V30 4602 H 430.651 1.09479 0.935437 0
M  V30 4603 H 432.604 1.08222 4.07266 0
M  V30 4604 H 431.328 0.139501 3.26302 0
M  V30 4605 H 429.987 2.2411 2.90121 0
M  V30 4606 H 429.635 0.859544 4.95602 0
M  V30 4607 H 429.335 2.58611 5.27631 0
M  V30 4608 H 430.859 1.832 5.82469 0
M  V30 4609 H 432.273 3.63034 4.43711 0
M  V30 4610 H 430.67 4.35771 4.12582 0
M  V30 4611 H 431.74 3.98536 2.76219 0
M  V30 4612 N 433.083 -1.0153 1.20538 0
M  V30 4613 C 434.015 -2.10224 0.913155 0
M  V30 4614 C 435.028 -1.62495 -0.0995998 0
M  V30 4615 O 436.217 -1.78014 0.131582 0
M  V30 4616 C 433.317 -3.37111 0.347717 0
M  V30 4617 C 432.49 -4.13971 1.41233 0
M  V30 4618 C 431.549 -5.19158 0.857976 0
M  V30 4619 O 430.575 -5.48 1.53897 0
M  V30 4620 N 431.777 -5.7955 -0.331966 0
M  V30 4621 H 434.542 -2.35879 1.84881 0
M  V30 4622 H 432.103 -1.17931 1.10923 0
M  V30 4623 H 434.095 -4.04683 -0.0373026 0
M  V30 4624 H 432.665 -3.08696 -0.492527 0
M  V30 4625 H 431.885 -3.41351 1.97163 0
M  V30 4626 H 433.173 -4.62103 2.12928 0
M  V30 4627 H 432.571 -5.58455 -0.902478 0
M  V30 4628 H 431.128 -6.48464 -0.65861 0
M  V30 4629 N 434.561 -1.01147 -1.20859 0
M  V30 4630 C 435.81 -0.693214 -1.89413 0
M  V30 4631 C 436.123 0.779969 -1.79376 0
M  V30 4632 O 437.329 1.21057 -2.43017 0
M  V30 4633 C 435.785 -1.18949 -3.39675 0
M  V30 4634 C 435.393 -2.68921 -3.58309 0
M  V30 4635 C 437.137 -0.94642 -4.13815 0
M  V30 4636 C 435.044 -3.12056 -5.0237 0
M  V30 4637 H 433.974 -0.255595 -0.709357 0
M  V30 4638 H 436.625 -1.22349 -1.36759 0
M  V30 4639 H 435.007 -0.587228 -3.91622 0
M  V30 4640 H 436.181 -3.34652 -3.16772 0
M  V30 4641 H 434.496 -2.91314 -2.97532 0
M  V30 4642 H 437.093 -1.24417 -5.20023 0
M  V30 4643 H 437.436 0.117219 -4.16135 0
M  V30 4644 H 437.969 -1.5118 -3.67953 0
M  V30 4645 H 434.708 -4.17674 -5.05202 0
M  V30 4646 H 434.228 -2.51041 -5.44737 0
M  V30 4647 H 435.907 -3.04403 -5.70918 0
M  V30 4648 N 436.039 1.36541 -0.78704 0
M  V30 4649 C 436.949 2.3387 -0.184896 0
M  V30 4650 C 437.965 1.60927 0.661697 0
M  V30 4651 O 439.141 1.92927 0.57804 0
M  V30 4652 C 436.206 3.40122 0.672145 0
M  V30 4653 C 435.267 4.28867 -0.19267 0
M  V30 4654 C 434.5 5.30045 0.623561 0
M  V30 4655 O 434.723 5.39232 1.8597 0
M  V30 4656 O 433.657 6.01895 0.0247068 0
M  V30 4657 H 437.483 2.87126 -0.989562 0
M  V30 4658 H 435.068 1.38969 -0.548455 0
M  V30 4659 H 436.95 4.05093 1.16094 0
M  V30 4660 H 435.625 2.89169 1.45474 0
M  V30 4661 H 434.532 3.66945 -0.728166 0
M  V30 4662 H 435.865 4.83165 -0.938722 0
M  V30 4663 N 437.518 0.538854 1.48102 0
M  V30 4664 C 438.466 -0.232325 2.31437 0
M  V30 4665 C 439.46 -0.927004 1.41785 0
M  V30 4666 O 440.666 -0.850378 1.58646 0
M  V30 4667 H 437.041 -0.0937916 0.746128 0
M  V30 4668 H 439.012 0.489986 2.9435 0
M  V30 4669 C 437.761 -1.26074 3.24038 0
M  V30 4670 H 437.084 -0.735609 3.92974 0
M  V30 4671 H 438.524 -1.77157 3.85216 0
M  V30 4672 C 436.983 -2.29902 2.46265 0
M  V30 4673 O 437.513 -3.36502 2.19384 0
M  V30 4674 N 435.719 -2.03348 2.07601 0
M  V30 4675 H 435.266 -1.16675 2.29662 0
M  V30 4676 H 435.224 -2.73038 1.55877 0
M  V30 4677 N 438.996 -1.55193 0.274407 0
M  V30 4678 C 439.906 -2.26164 -0.623473 0
M  V30 4679 C 440.922 -1.28729 -1.17068 0
M  V30 4680 O 442.098 -1.61663 -1.20112 0
M  V30 4681 C 439.163 -2.96833 -1.7914 0
M  V30 4682 C 438.224 -4.09745 -1.28093 0
M  V30 4683 C 437.457 -4.77034 -2.3932 0
M  V30 4684 O 437.68 -4.4353 -3.5866 0
M  V30 4685 O 436.614 -5.64996 -2.07516 0
M  V30 4686 H 440.44 -3.03661 -0.0485661 0
M  V30 4687 H 438.025 -1.49341 0.0418382 0
M  V30 4688 H 439.907 -3.41248 -2.4724 0
M  V30 4689 H 438.582 -2.22253 -2.35341 0
M  V30 4690 H 437.489 -3.69787 -0.566416 0
M  V30 4691 H 438.822 -4.86224 -0.764683 0
M  V30 4692 N 440.474 -0.00167713 -1.576 0
M  V30 4693 C 441.404 0.988091 -2.11563 0
M  V30 4694 C 442.385 1.35736 -1.02517 0
M  V30 4695 O 443.57 1.44082 -1.30208 0
M  V30 4696 C 440.7 2.27941 -2.62031 0
M  V30 4697 C 439.654 2.0517 -3.75619 0
M  V30 4698 C 438.98 3.4033 -4.12407 0
M  V30 4699 C 440.28 1.41294 -5.02825 0
M  V30 4700 H 441.974 0.538771 -2.94513 0
M  V30 4701 H 439.52 0.257712 -1.41675 0
M  V30 4702 H 441.473 2.97539 -2.9841 0
M  V30 4703 H 440.197 2.74989 -1.76205 0
M  V30 4704 H 438.856 1.37998 -3.39635 0
M  V30 4705 H 438.504 3.85085 -3.23603 0
M  V30 4706 H 438.204 3.25909 -4.88935 0
M  V30 4707 H 439.728 4.1124 -4.51347 0
M  V30 4708 H 441.142 2.00851 -5.36965 0
M  V30 4709 H 439.539 1.37356 -5.84169 0
M  V30 4710 H 440.609 0.382362 -4.8339 0
M  V30 4711 N 441.952 1.55251 0.271103 0
M  V30 4712 C 443.182 1.79713 1.01916 0
M  V30 4713 C 443.59 0.571613 1.80359 0
M  V30 4714 O 442.933 -0.468853 1.77616 0
M  V30 4715 C 442.995 2.97138 2.02359 0
M  V30 4716 C 442.659 4.34104 1.42837 0
M  V30 4717 C 443.656 5.13019 0.843071 0
M  V30 4718 C 441.341 4.80765 1.455 0
M  V30 4719 C 443.335 6.36729 0.292333 0
M  V30 4720 C 441.022 6.0443 0.900402 0
M  V30 4721 C 442.02 6.8225 0.32007 0
M  V30 4722 O 441.708 8.03582 -0.226031 0
M  V30 4723 H 441.44 0.602431 0.306681 0
M  V30 4724 H 443.994 2.03097 0.306701 0
M  V30 4725 H 442.224 2.6945 2.77369 0
M  V30 4726 H 443.913 3.08907 2.63309 0
M  V30 4727 H 444.679 4.781 0.815178 0
M  V30 4728 H 440.558 4.20202 1.89609 0
M  V30 4729 H 444.102 6.97414 -0.161274 0
M  V30 4730 H 439.999 6.3883 0.925541 0
M  V30 4731 H 440.767 8.18418 -0.115572 0
M  V30 4732 N 443.43 -0.535701 1.48216 0
M  V30 4733 C 444.393 -1.623 1.61838 0
M  V30 4734 C 445.393 -1.53087 0.492024 0
M  V30 4735 O 446.583 -1.5686 0.757668 0
M  V30 4736 C 443.715 -3.01907 1.58319 0
M  V30 4737 H 444.908 -1.51564 2.58783 0
M  V30 4738 H 442.461 -0.757317 1.36727 0
M  V30 4739 H 443.196 -3.18155 0.628299 0
M  V30 4740 H 442.981 -3.10003 2.40085 0
M  V30 4741 H 444.471 -3.80969 1.71033 0
M  V30 4742 N 444.908 -1.36708 -0.784132 0
M  V30 4743 C 446.319 -1.27947 -1.35965 0
M  V30 4744 C 446.67 0.0784013 -1.96043 0
M  V30 4745 O 445.795 0.979989 -1.92938 0
M  V30 4746 C 446.39 -2.31689 -2.47195 0
M  V30 4747 C 444.949 -2.26601 -3.00548 0
M  V30 4748 C 444.096 -2.16184 -1.73666 0
M  V30 4749 H 447.047 -1.4751 -0.585358 0
M  V30 4750 H 447.068 -1.95638 -3.26352 0
M  V30 4751 H 446.58 -3.30506 -2.03439 0
M  V30 4752 H 444.681 -1.31268 -3.48711 0
M  V30 4753 H 444.794 -3.19508 -3.57004 0
M  V30 4754 H 443.158 -1.62524 -1.96107 0
M  V30 4755 H 443.941 -3.16896 -1.32031 0
M  V30 4756 N 446.386 1.0089 -1.21074 0
M  V30 4757 C 447.635 1.74019 -1.01981 0
M  V30 4758 C 447.948 1.90408 0.447665 0
M  V30 4759 O 449.154 2.60707 0.757906 0
M  V30 4760 C 447.61 3.13026 -1.77603 0
M  V30 4761 C 447.218 3.04623 -3.28495 0
M  V30 4762 C 448.962 3.90312 -1.66904 0
M  V30 4763 C 446.869 4.38685 -3.96623 0
M  V30 4764 H 445.799 0.652422 -0.377971 0
M  V30 4765 H 448.45 1.12755 -1.44771 0
M  V30 4766 H 446.832 3.74878 -1.27604 0
M  V30 4767 H 448.006 2.52032 -3.85767 0
M  V30 4768 H 446.321 2.40827 -3.39693 0
M  V30 4769 H 448.918 4.8951 -2.15138 0
M  V30 4770 H 449.261 4.11558 -0.62658 0
M  V30 4771 H 449.794 3.35104 -2.14359 0
M  V30 4772 H 446.533 4.22641 -5.01054 0
M  V30 4773 H 446.053 4.91252 -3.4414 0
M  V30 4774 H 447.732 5.075 -4.01314 0
M  V30 4775 N 447.864 1.01787 1.20321 0
M  V30 4776 C 449.28 0.732951 1.41774 0
M  V30 4777 C 449.48 -0.686883 1.89431 0
M  V30 4778 O 448.536 -1.45446 2.06402 0
M  V30 4779 C 449.849 1.75973 2.43832 0
M  V30 4780 C 451.397 1.77802 2.57596 0
M  V30 4781 C 451.872 2.7941 3.62897 0
M  V30 4782 N 453.363 2.78157 3.70382 0
M  V30 4783 C 454.098 3.53434 4.51521 0
M  V30 4784 N 453.594 4.38392 5.36455 0
M  V30 4785 N 455.387 3.42026 4.46066 0
M  V30 4786 H 447.538 1.93447 0.877035 0
M  V30 4787 H 449.801 0.835712 0.447536 0
M  V30 4788 H 449.507 2.77699 2.15815 0
M  V30 4789 H 449.381 1.57292 3.4284 0
M  V30 4790 H 451.768 0.767602 2.84942 0
M  V30 4791 H 451.849 2.00557 1.58779 0
M  V30 4792 H 451.493 3.80616 3.36295 0
M  V30 4793 H 451.423 2.53916 4.61339 0
M  V30 4794 H 453.914 2.16531 3.09714 0
M  V30 4795 H 454.227 4.92596 5.95457 0
M  V30 4796 H 452.572 4.4247 5.35953 0
M  V30 4797 H 455.763 2.75075 3.78749 0
M  V30 4798 H 455.936 4.00946 5.09064 0
M  V30 4799 N 449.342 -1.36122 0.79427 0
M  V30 4800 C 450.753 -1.81646 0.431446 0
M  V30 4801 C 451.104 -1.66043 -1.04518 0
M  V30 4802 O 450.229 -1.1841 -1.8113 0
M  V30 4803 C 450.824 -3.29785 0.776341 0
M  V30 4804 C 449.383 -3.73501 0.466282 0
M  V30 4805 C 448.53 -2.58313 1.00844 0
M  V30 4806 H 451.481 -1.24274 0.986995 0
M  V30 4807 H 451.502 -3.80437 0.0692413 0
M  V30 4808 H 451.014 -3.4111 1.8511 0
M  V30 4809 H 449.115 -3.67733 -0.600245 0
M  V30 4810 H 449.228 -4.68754 0.990288 0
M  V30 4811 H 447.592 -2.5102 0.431406 0
M  V30 4812 H 448.375 -2.72421 2.08906 0
M  V30 4813 N 450.82 -0.546701 -1.47814 0
M  V30 4814 C 451.767 0.206854 -2.29871 0
M  V30 4815 C 452.737 0.918235 -1.38411 0
M  V30 4816 O 453.922 0.915991 -1.67375 0
M  V30 4817 C 451.062 1.23746 -3.22151 0
M  V30 4818 C 450.175 0.533216 -4.28697 0
M  V30 4819 C 449.31 1.5482 -5.08138 0
M  V30 4820 C 448.349 0.828347 -6.06469 0
M  V30 4821 N 447.486 1.78966 -6.78908 0
M  V30 4822 H 452.326 -0.499037 -2.93792 0
M  V30 4823 H 449.863 -0.25793 -1.44821 0
M  V30 4824 H 451.821 1.84746 -3.74065 0
M  V30 4825 H 450.451 1.91151 -2.60117 0
M  V30 4826 H 449.503 -0.191089 -3.7992 0
M  V30 4827 H 450.815 -0.0311987 -4.9879 0
M  V30 4828 H 449.969 2.23202 -5.6415 0
M  V30 4829 H 448.708 2.14652 -4.37922 0
M  V30 4830 H 447.713 0.130539 -5.49645 0
M  V30 4831 H 448.938 0.235907 -6.7869 0
M  V30 4832 H 446.884 2.37675 -6.1143 0
M  V30 4833 H 446.801 1.27712 -7.45135 0
M  V30 4834 H 448.069 2.46496 -7.395 0
M  V30 4835 N 452.299 1.55045 -0.282633 0
M  V30 4836 C 453.715 1.59441 0.0712997 0
M  V30 4837 C 453.915 1.2998 1.53972 0
M  V30 4838 O 452.971 1.06431 2.28973 0
M  V30 4839 C 454.284 2.99097 -0.310104 0
M  V30 4840 C 455.832 3.1194 -0.257343 0
M  V30 4841 C 456.307 4.53875 -0.613297 0
M  V30 4842 N 457.798 4.5974 -0.565134 0
M  V30 4843 C 458.533 5.67603 -0.81326 0
M  V30 4844 N 458.029 6.83582 -1.1264 0
M  V30 4845 N 459.822 5.57187 -0.741553 0
M  V30 4846 H 451.973 1.72458 -1.23984 0
M  V30 4847 H 454.236 0.804549 -0.501403 0
M  V30 4848 H 453.942 3.25516 -1.33163 0
M  V30 4849 H 453.816 3.75616 0.345366 0
M  V30 4850 H 456.203 2.85281 0.754905 0
M  V30 4851 H 456.284 2.37618 -0.947178 0
M  V30 4852 H 455.928 4.81261 -1.62327 0
M  V30 4853 H 455.858 5.26508 0.09841 0
M  V30 4854 H 458.349 3.76427 -0.333294 0
M  V30 4855 H 458.662 7.6175 -1.30219 0
M  V30 4856 H 457.007 6.85179 -1.16425 0
M  V30 4857 H 460.198 4.65457 -0.496705 0
M  V30 4858 H 460.371 6.41171 -0.938306 0
M  V30 4859 N 453.777 0.010035 1.57597 0
M  V30 4860 C 455.023 -0.673697 1.91283 0
M  V30 4861 C 455.356 -1.72863 0.884979 0
M  V30 4862 O 454.631 -1.94268 -0.0949487 0
M  V30 4863 C 454.914 -1.30766 3.35518 0
M  V30 4864 C 454.767 -0.263578 4.49027 0
M  V30 4865 C 456.086 -2.23105 3.79358 0
M  V30 4866 H 453.205 -0.243439 0.695634 0
M  V30 4867 H 455.847 0.0633864 1.89894 0
M  V30 4868 H 453.997 -1.93588 3.36832 0
M  V30 4869 H 455.669 0.365738 4.59848 0
M  V30 4870 H 453.912 0.413077 4.31829 0
M  V30 4871 H 454.583 -0.746398 5.4693 0
M  V30 4872 H 457.059 -1.70289 3.79659 0
M  V30 4873 H 455.935 -2.64424 4.81011 0
M  V30 4874 H 456.196 -3.11433 3.13787 0
M  V30 4875 N 455.255 -1.55392 -0.262866 0
M  V30 4876 C 456.483 -1.80513 -1.01108 0
M  V30 4877 C 456.898 -0.583533 -1.79556 0
M  V30 4878 O 456.255 0.447585 -1.76926 0
M  V30 4879 C 456.306 -3.03648 -1.96164 0
M  V30 4880 O 456.027 -4.2109 -1.20893 0
M  V30 4881 C 457.528 -3.41448 -2.82715 0
M  V30 4882 H 454.748 -0.601079 -0.298236 0
M  V30 4883 H 457.292 -2.02425 -0.290582 0
M  V30 4884 H 455.447 -2.83832 -2.63663 0
M  V30 4885 H 455.861 -4.90771 -1.85051 0
M  V30 4886 H 457.335 -4.30751 -3.45192 0
M  V30 4887 H 457.812 -2.61308 -3.53008 0
M  V30 4888 H 458.418 -3.63559 -2.20693 0
M  V30 4889 N 456.733 0.527833 -1.48498 0
M  V30 4890 C 458.149 0.856571 -1.34666 0
M  V30 4891 C 458.349 1.98271 -0.35931 0
M  V30 4892 O 457.405 2.51551 0.218703 0
M  V30 4893 C 458.718 1.22207 -2.74747 0
M  V30 4894 C 460.266 1.33183 -2.83251 0
M  V30 4895 C 460.741 1.73075 -4.24039 0
M  V30 4896 N 462.232 1.80174 -4.26722 0
M  V30 4897 C 462.967 2.1243 -5.32598 0
M  V30 4898 N 462.463 2.43096 -6.4875 0
M  V30 4899 N 464.256 2.13454 -5.19994 0
M  V30 4900 H 456.407 -0.215174 -2.11307 0
M  V30 4901 H 458.67 -0.0336281 -0.947403 0
M  V30 4902 H 458.376 0.468195 -3.4857 0
M  V30 4903 H 458.25 2.17173 -3.08409 0
M  V30 4904 H 460.637 2.07647 -2.09683 0
M  V30 4905 H 460.718 0.363333 -2.53206 0
M  V30 4906 H 460.362 0.991712 -4.98124 0
M  V30 4907 H 460.292 2.70979 -4.51529 0
M  V30 4908 H 462.783 1.58744 -3.42942 0
M  V30 4909 H 463.096 2.6682 -7.25277 0
M  V30 4910 H 461.441 2.40611 -6.52021 0
M  V30 4911 H 464.632 1.88956 -4.28268 0
M  V30 4912 H 464.805 2.38261 -6.02608 0
M  V30 4913 N 458.211 1.37122 0.776871 0
M  V30 4914 C 459.436 1.354 1.57104 0
M  V30 4915 C 459.861 -0.0595562 1.88006 0
M  V30 4916 O 459.219 -1.03514 1.48844 0
M  V30 4917 C 459.267 2.19472 2.8612 0
M  V30 4918 O 458.371 1.59582 3.80273 0
M  V30 4919 H 457.712 0.462869 0.476076 0
M  V30 4920 H 460.242 1.80577 0.961932 0
M  V30 4921 H 460.252 2.32502 3.35271 0
M  V30 4922 H 458.927 3.22222 2.62956 0
M  V30 4923 H 457.504 1.55564 3.38902 0
M  V30 4924 N 459.689 -1.00246 1.21608 0
M  V30 4925 C 460.937 -1.73717 1.0328 0
M  V30 4926 C 461.258 -1.90102 -0.434318 0
M  V30 4927 O 460.528 -1.45376 -1.31311 0
M  V30 4928 H 459.108 -0.643613 0.379172 0
M  V30 4929 H 461.77 -1.20787 1.52959 0
M  V30 4930 H 460.866 -2.73535 1.50283 0
M  V30 4931 N 461.167 -1.02423 -1.1978 0
M  V30 4932 C 462.077 -0.610919 -2.26506 0
M  V30 4933 C 463.093 0.355152 -1.70337 0
M  V30 4934 O 464.269 0.214195 -2.00258 0
M  V30 4935 C 461.334 0.0365921 -3.46681 0
M  V30 4936 C 460.395 -0.976389 -4.18049 0
M  V30 4937 C 459.628 -0.359683 -5.32487 0
M  V30 4938 O 459.851 0.838601 -5.64202 0
M  V30 4939 O 458.785 -1.08022 -5.92127 0
M  V30 4940 H 462.611 -1.49965 -2.64091 0
M  V30 4941 H 460.196 -0.794156 -1.26545 0
M  V30 4942 H 462.078 0.39786 -4.19518 0
M  V30 4943 H 460.753 0.899398 -3.10954 0
M  V30 4944 H 459.66 -1.38916 -3.47352 0
M  V30 4945 H 460.993 -1.80941 -4.57735 0
M  V30 4946 N 462.645 1.35699 -0.801477 0
M  V30 4947 C 463.87 2.03687 -0.390678 0
M  V30 4948 C 464.295 1.60015 0.988778 0
M  V30 4949 O 463.653 0.774357 1.63931 0
M  V30 4950 C 463.701 3.57439 -0.476404 0
M  V30 4951 O 462.805 4.09208 0.512106 0
M  V30 4952 H 462.146 0.64344 -0.163956 0
M  V30 4953 H 464.676 1.73403 -1.08594 0
M  V30 4954 H 464.686 4.06544 -0.344357 0
M  V30 4955 H 463.361 3.88576 -1.48262 0
M  V30 4956 H 461.938 3.7134 0.340721 0
M  V30 4957 N 464.123 0.554532 1.47522 0
M  V30 4958 C 465.534 0.120446 1.86311 0
M  V30 4959 C 465.885 -1.30904 1.46145 0
M  V30 4960 O 465.01 -1.98434 0.863294 0
M  V30 4961 C 465.605 0.211808 3.38137 0
M  V30 4962 C 464.164 -0.167224 3.76028 0
M  V30 4963 C 463.311 0.560576 2.71575 0
M  V30 4964 H 466.262 0.764408 1.39077 0
M  V30 4965 H 466.283 -0.570275 3.76202 0
M  V30 4966 H 465.795 1.25232 3.6734 0
M  V30 4967 H 463.896 -1.20894 3.52442 0
M  V30 4968 H 464.009 0.189473 4.78725 0
M  V30 4969 H 462.373 0.00396836 2.547 0
M  V30 4970 H 463.156 1.60219 3.0362 0
M  V30 4971 N 465.601 -1.54893 0.290851 0
M  V30 4972 C 466.826 -2.04804 -0.32712 0
M  V30 4973 C 467.251 -1.16721 -1.47506 0
M  V30 4974 O 466.609 -0.169107 -1.8051 0
M  V30 4975 C 466.657 -3.52268 -0.770689 0
M  V30 4976 O 465.761 -3.67236 -1.87647 0
M  V30 4977 H 465.102 -0.660789 -0.0652227 0
M  V30 4978 H 467.632 -2.00036 0.429739 0
M  V30 4979 H 467.642 -3.9393 -1.06223 0
M  V30 4980 H 466.317 -4.15843 0.069096 0
M  V30 4981 H 464.894 -3.37479 -1.58626 0
M  V30 4982 N 467.08 -0.0183926 -1.57589 0
M  V30 4983 C 468.357 0.700621 -1.82622 0
M  V30 4984 C 468.737 1.90951 -0.90005 0
M  V30 4985 O 468.085 2.28452 0.0469145 0
M  V30 4986 C 468.295 1.08899 -3.31575 0
M  V30 4987 C 469.643 1.48514 -3.9778 0
M  V30 4988 O 470.667 1.18227 -3.36007 0
M  V30 4989 O 469.526 2.04903 -5.06633 0
M  V30 4990 H 466.62 0.342743 -0.752633 0
M  V30 4991 H 469.166 -0.0452548 -1.6964 0
M  V30 4992 H 467.938 0.228113 -3.90635 0
M  V30 4993 H 467.561 1.89338 -3.49624 0
M  V30 4994 N 468.558 1.5553 0.254621 0
M  V30 4995 C 469.521 1.88872 1.29846 0
M  V30 4996 C 470.521 0.764591 1.41459 0
M  V30 4997 O 471.711 1.03265 1.40293 0
M  V30 4998 C 468.843 2.11032 2.67728 0
M  V30 4999 H 470.036 2.82201 1.01502 0
M  V30 5000 H 467.589 1.48303 0.493556 0
M  V30 5001 H 468.324 1.20146 3.01223 0
M  V30 5002 H 468.109 2.92895 2.60682 0
M  V30 5003 H 469.599 2.38038 3.43115 0
M  V30 5004 N 470.036 -0.519951 1.48776 0
M  V30 5005 C 470.966 -1.63253 1.66945 0
M  V30 5006 C 471.947 -1.62014 0.518224 0
M  V30 5007 O 473.132 -1.79053 0.751919 0
M  V30 5008 C 470.262 -3.0181 1.71836 0
M  V30 5009 C 469.216 -3.17911 2.8656 0
M  V30 5010 C 468.542 -4.5763 2.76548 0
M  V30 5011 C 469.842 -2.99729 4.27738 0
M  V30 5012 H 471.536 -1.48302 2.6009 0
M  V30 5013 H 469.082 -0.712026 1.25165 0
M  V30 5014 H 471.035 -3.79525 1.83135 0
M  V30 5015 H 469.759 -3.17806 0.752775 0
M  V30 5016 H 468.418 -2.42616 2.74833 0
M  V30 5017 H 468.066 -4.70476 1.77937 0
M  V30 5018 H 467.766 -4.69346 3.53536 0
M  V30 5019 H 469.29 -5.37431 2.89828 0
M  V30 5020 H 470.704 -3.67228 4.40246 0
M  V30 5021 H 469.101 -3.22932 5.05801 0
M  V30 5022 H 470.171 -1.96047 4.43502 0
M  V30 5023 N 471.514 -1.37532 -0.769588 0
M  V30 5024 C 472.444 -1.36172 -1.89682 0
M  V30 5025 C 473.425 -0.23001 -1.68538 0
M  V30 5026 O 474.61 -0.43069 -1.89364 0
M  V30 5027 C 471.74 -1.1701 -3.26995 0
M  V30 5028 C 470.694 -2.27216 -3.62708 0
M  V30 5029 C 470.02 -1.93174 -4.98586 0
M  V30 5030 C 471.32 -3.6941 -3.69234 0
M  V30 5031 H 473.014 -2.30499 -1.91078 0
M  V30 5032 H 470.56 -1.10953 -0.917902 0
M  V30 5033 H 472.513 -1.14688 -4.05493 0
M  V30 5034 H 471.237 -0.191395 -3.26039 0
M  V30 5035 H 469.896 -2.28697 -2.86519 0
M  V30 5036 H 469.544 -0.938281 -4.94171 0
M  V30 5037 H 469.244 -2.66973 -5.23449 0
M  V30 5038 H 470.768 -1.92443 -5.79481 0
M  V30 5039 H 472.182 -3.70047 -4.37879 0
M  V30 5040 H 470.579 -4.4228 -4.05597 0
M  V30 5041 H 471.649 -4.0288 -2.69844 0
M  V30 5042 N 472.992 0.995999 -1.22138 0
M  V30 5043 C 474.408 1.25917 -0.980667 0
M  V30 5044 C 474.608 1.98819 0.327604 0
M  V30 5045 O 473.664 2.29587 1.05101 0
M  V30 5046 C 474.977 2.07399 -2.17729 0
M  V30 5047 C 476.525 2.20594 -2.22052 0
M  V30 5048 C 477 3.05462 -3.41258 0
M  V30 5049 N 478.491 3.13049 -3.41401 0
M  V30 5050 C 479.226 3.78997 -4.30289 0
M  V30 5051 N 478.722 4.46899 -5.2939 0
M  V30 5052 N 480.515 3.75728 -4.18073 0
M  V30 5053 H 472.666 0.507158 -2.06256 0
M  V30 5054 H 474.929 0.28658 -0.903646 0
M  V30 5055 H 474.635 1.61191 -3.12586 0
M  V30 5056 H 474.509 3.08154 -2.17534 0
M  V30 5057 H 476.896 2.66017 -1.27745 0
M  V30 5058 H 476.977 1.1928 -2.26287 0
M  V30 5059 H 476.621 2.60739 -4.35864 0
M  V30 5060 H 476.551 4.06911 -3.34262 0
M  V30 5061 H 479.042 2.64721 -2.69688 0
M  V30 5062 H 479.355 4.94952 -5.935 0
M  V30 5063 H 477.7 4.45657 -5.33306 0
M  V30 5064 H 480.891 3.2184 -3.39907 0
M  V30 5065 H 481.064 4.26845 -4.87553 0
M  V30 5066 N 474.47 1.03057 1.19235 0
M  V30 5067 C 475.718 0.726581 1.88587 0
M  V30 5068 C 476.039 -0.747227 1.80115 0
M  V30 5069 O 475.309 -1.53849 1.21274 0
M  V30 5070 H 473.889 0.265768 0.698124 0
M  V30 5071 H 476.551 1.30516 1.44746 0
M  V30 5072 H 475.647 1.0224 2.94879 0
M  V30 5073 N 475.948 -1.35272 0.808662 0
M  V30 5074 C 477.196 -1.98316 0.389233 0
M  V30 5075 C 477.517 -1.64465 -1.04767 0
M  V30 5076 O 476.787 -0.928175 -1.72516 0
M  V30 5077 H 475.367 -0.733585 0.140935 0
M  V30 5078 H 478.029 -1.6515 1.03496 0
M  V30 5079 H 477.125 -3.08123 0.496631 0
M  V30 5080 N 477.426 -0.562348 -1.47226 0
M  V30 5081 C 478.675 -0.038041 -2.01664 0
M  V30 5082 C 478.988 1.32199 -1.44162 0
M  V30 5083 O 480.194 1.9365 -1.90294 0
M  V30 5084 C 478.65 -0.0174958 -3.59896 0
M  V30 5085 C 478.258 -1.3746 -4.2639 0
M  V30 5086 C 480.002 0.453934 -4.22066 0
M  V30 5087 C 477.909 -1.31289 -5.76643 0
M  V30 5088 H 476.839 -0.0104511 -0.753928 0
M  V30 5089 H 479.49 -0.710966 -1.69167 0
M  V30 5090 H 477.872 0.721182 -3.89378 0
M  V30 5091 H 479.046 -2.1314 -4.08544 0
M  V30 5092 H 477.361 -1.78438 -3.7623 0
M  V30 5093 H 479.958 0.518584 -5.32179 0
M  V30 5094 H 480.301 1.46706 -3.89594 0
M  V30 5095 H 480.834 -0.230044 -3.97134 0
M  V30 5096 H 477.573 -2.30217 -6.13743 0
M  V30 5097 H 477.093 -0.597973 -5.96812 0
M  V30 5098 H 478.772 -1.01713 -6.38955 0
M  V30 5099 N 478.904 1.54736 -0.299062 0
M  V30 5100 C 479.814 2.27127 0.587413 0
M  V30 5101 C 480.83 1.30575 1.15005 0
M  V30 5102 O 482.006 1.63554 1.17525 0
M  V30 5103 C 479.071 2.99645 1.74395 0
M  V30 5104 C 478.132 4.11731 1.21559 0
M  V30 5105 C 477.365 4.80781 2.317 0
M  V30 5106 O 477.588 4.4918 3.51558 0
M  V30 5107 O 476.522 5.68226 1.98501 0
M  V30 5108 H 480.348 3.037 0.000250109 0
M  V30 5109 H 477.933 1.49256 -0.0655919 0
M  V30 5110 H 479.815 3.45138 2.4178 0
M  V30 5111 H 478.49 2.25969 2.31775 0
M  V30 5112 H 477.397 3.70641 0.507514 0
M  V30 5113 H 478.73 4.87379 0.687233 0
M  V30 5114 N 480.382 0.0267497 1.57577 0
M  V30 5115 C 481.612 -0.6617 1.95717 0
M  V30 5116 C 482.02 -1.66331 0.901706 0
M  V30 5117 O 481.363 -1.83273 -0.125241 0
M  V30 5118 C 481.425 -1.42649 3.29987 0
M  V30 5119 C 481.089 -0.583482 4.5326 0
M  V30 5120 C 482.086 0.140221 5.19711 0
M  V30 5121 C 479.771 -0.521581 4.99585 0
M  V30 5122 C 481.765 0.914523 6.30805 0
M  V30 5123 C 479.452 0.256428 6.10562 0
M  V30 5124 C 480.45 0.973189 6.76031 0
M  V30 5125 O 480.138 1.73845 7.84878 0
M  V30 5126 H 479.87 -0.187483 0.649481 0
M  V30 5127 H 482.424 0.0820847 2.05236 0
M  V30 5128 H 480.654 -2.21536 3.16952 0
M  V30 5129 H 482.343 -2.00282 3.53047 0
M  V30 5130 H 483.109 0.101716 4.84893 0
M  V30 5131 H 478.988 -1.06904 4.48433 0
M  V30 5132 H 482.532 1.4745 6.81839 0
M  V30 5133 H 478.429 0.296657 6.44818 0
M  V30 5134 H 479.197 1.65797 8.01532 0
M  V30 5135 N 481.861 -1.55662 -0.24637 0
M  V30 5136 C 483.11 -1.7672 -0.972254 0
M  V30 5137 C 483.423 -0.59078 -1.86465 0
M  V30 5138 O 484.629 -0.684391 -2.62732 0
M  V30 5139 C 483.085 -3.12869 -1.7788 0
M  V30 5140 C 482.693 -4.38161 -0.933768 0
M  V30 5141 C 484.437 -3.43265 -2.49738 0
M  V30 5142 C 482.344 -5.6534 -1.73623 0
M  V30 5143 H 481.274 -0.658795 -0.366749 0
M  V30 5144 H 483.925 -1.82092 -0.226902 0
M  V30 5145 H 482.307 -3.01606 -2.56612 0
M  V30 5146 H 483.481 -4.60413 -0.188736 0
M  V30 5147 H 481.796 -4.15102 -0.328488 0
M  V30 5148 H 484.393 -4.35501 -3.10231 0
M  V30 5149 H 484.736 -2.64614 -3.2138 0
M  V30 5150 H 485.269 -3.55746 -1.78016 0
M  V30 5151 H 482.008 -6.46814 -1.06354 0
M  V30 5152 H 481.528 -5.47188 -2.45653 0
M  V30 5153 H 483.207 -6.04616 -2.30323 0
M  V30 5154 N 483.339 0.512053 -1.4905 0
M  V30 5155 C 484.249 1.64139 -1.67617 0
M  V30 5156 C 485.265 1.64786 -0.558701 0
M  V30 5157 O 486.441 1.8341 -0.832034 0
M  V30 5158 C 483.506 3.00548 -1.72835 0
M  V30 5159 C 482.567 3.10615 -2.96339 0
M  V30 5160 C 481.8 4.40517 -3.01298 0
M  V30 5161 O 482.023 5.28671 -2.14157 0
M  V30 5162 O 480.957 4.55325 -3.93653 0
M  V30 5163 H 484.783 1.51407 -2.63267 0
M  V30 5164 H 482.368 0.687131 -1.32661 0
M  V30 5165 H 484.25 3.81641 -1.78683 0
M  V30 5166 H 482.925 3.13566 -0.803616 0
M  V30 5167 H 481.832 2.2875 -2.96014 0
M  V30 5168 H 483.165 3.0252 -3.88256 0
M  V30 5169 N 484.817 1.37938 0.762283 0
M  V30 5170 C 486.063 1.33866 1.52341 0
M  V30 5171 C 486.396 -0.0738961 1.94059 0
M  V30 5172 O 485.671 -1.03326 1.64785 0
M  V30 5173 C 485.954 2.28644 2.78197 0
M  V30 5174 C 485.807 3.78722 2.42672 0
M  V30 5175 C 487.126 2.21702 3.80179 0
M  V30 5176 H 484.245 0.487593 0.55265 0
M  V30 5177 H 486.887 1.68717 0.873767 0
M  V30 5178 H 485.037 1.99055 3.33631 0
M  V30 5179 H 486.709 4.18948 1.93081 0
M  V30 5180 H 484.952 3.96827 1.75244 0
M  V30 5181 H 485.623 4.40486 3.3268 0
M  V30 5182 H 488.099 2.47805 3.34263 0
M  V30 5183 H 486.975 2.90143 4.65949 0
M  V30 5184 H 487.236 1.21301 4.25133 0
M  V30 5185 N 486.295 -0.989507 1.22664 0
M  V30 5186 C 487.711 -1.25395 0.987331 0
M  V30 5187 C 487.911 -1.9899 -0.317056 0
M  V30 5188 O 486.967 -2.30141 -1.03882 0
M  V30 5189 C 488.28 -2.06242 2.18826 0
M  V30 5190 C 489.828 -2.19413 2.23219 0
M  V30 5191 C 490.303 -3.03648 3.42873 0
M  V30 5192 N 491.794 -3.11234 3.43056 0
M  V30 5193 C 492.529 -3.7671 4.32293 0
M  V30 5194 N 492.025 -4.44085 5.31752 0
M  V30 5195 N 493.818 -3.73505 4.2006 0
M  V30 5196 H 485.969 -0.496212 2.06522 0
M  V30 5197 H 488.232 -0.281784 0.905153 0
M  V30 5198 H 487.938 -1.59531 3.13437 0
M  V30 5199 H 487.812 -3.06996 2.19165 0
M  V30 5200 H 490.199 -2.65336 1.29154 0
M  V30 5201 H 490.28 -1.18078 2.26917 0
M  V30 5202 H 489.924 -2.58424 4.37241 0
M  V30 5203 H 489.854 -4.05132 3.36416 0
M  V30 5204 H 492.345 -2.63287 2.71088 0
M  V30 5205 H 492.658 -4.91797 5.96117 0
M  V30 5206 H 491.003 -4.42822 5.35662 0
M  V30 5207 H 494.194 -3.20033 3.41609 0
M  V30 5208 H 494.367 -4.24253 4.8981 0
M  V30 5209 N 487.773 -1.03688 -1.18687 0
M  V30 5210 C 488.998 -0.757819 -1.93059 0
M  V30 5211 C 489.423 0.678353 -1.75442 0
M  V30 5212 O 488.781 1.46938 -1.06203 0
M  V30 5213 C 488.829 -1.12423 -3.42627 0
M  V30 5214 O 487.933 -0.247505 -4.11657 0
M  V30 5215 H 487.274 -0.279245 -0.602427 0
M  V30 5216 H 489.804 -1.3857 -1.5053 0
M  V30 5217 H 489.814 -1.08454 -3.93322 0
M  V30 5218 H 488.489 -2.17049 -3.54771 0
M  V30 5219 H 487.066 -0.34649 -3.71287 0
M  V30 5220 N 489.251 1.34841 -0.815825 0
M  V30 5221 C 490.181 2.32187 -0.247298 0
M  V30 5222 C 491.162 1.5791 0.632344 0
M  V30 5223 O 492.347 1.8593 0.560698 0
M  V30 5224 C 489.477 3.42122 0.597466 0
M  V30 5225 C 488.431 4.27602 -0.184446 0
M  V30 5226 C 487.757 5.28942 0.782609 0
M  V30 5227 C 489.057 5.03502 -1.38865 0
M  V30 5228 H 490.751 2.79985 -1.06061 0
M  V30 5229 H 488.297 1.34611 -0.511461 0
M  V30 5230 H 490.25 4.09232 1.00533 0
M  V30 5231 H 488.974 2.92956 1.44376 0
M  V30 5232 H 487.633 3.62085 -0.573592 0
M  V30 5233 H 487.281 4.7604 1.62466 0
M  V30 5234 H 486.981 5.87008 0.263695 0
M  V30 5235 H 488.505 5.98922 1.18848 0
M  V30 5236 H 489.919 5.63506 -1.05518 0
M  V30 5237 H 488.316 5.71108 -1.8427 0
M  V30 5238 H 489.386 4.33608 -2.17054 0
M  V30 5239 N 490.729 0.570148 1.46925 0
M  V30 5240 C 492.006 -0.0153259 1.95594 0
M  V30 5241 C 492.386 -1.47232 1.51281 0
M  V30 5242 O 491.734 -2.15574 0.757624 0
M  V30 5243 C 491.944 0.143624 3.48704 0
M  V30 5244 C 493.292 0.00494484 4.246 0
M  V30 5245 O 494.316 0.0718214 3.56128 0
M  V30 5246 O 493.175 -0.141175 5.46318 0
M  V30 5247 H 490.269 -0.0568819 0.825041 0
M  V30 5248 H 492.815 0.637583 1.57267 0
M  V30 5249 H 491.587 1.15699 3.73804 0
M  V30 5250 H 491.21 -0.5463 3.93829 0
M  V30 5251 N 492.207 -1.54576 0.307264 0
M  V30 5252 C 493.456 -1.99442 -0.300976 0
M  V30 5253 C 493.769 -1.19928 -1.5452 0
M  V30 5254 O 494.975 -1.55092 -2.22842 0
M  V30 5255 C 493.431 -3.55084 -0.586809 0
M  V30 5256 C 493.039 -4.43413 0.639438 0
M  V30 5257 C 494.783 -4.0846 -1.1559 0
M  V30 5258 C 492.69 -5.90499 0.326411 0
M  V30 5259 H 491.62 -0.744986 -0.116238 0
M  V30 5260 H 494.271 -1.787 0.416947 0
M  V30 5261 H 492.653 -3.71749 -1.36449 0
M  V30 5262 H 493.827 -4.38522 1.41545 0
M  V30 5263 H 492.142 -4.00842 1.1276 0
M  V30 5264 H 494.739 -5.15926 -1.40445 0
M  V30 5265 H 495.082 -3.59443 -2.10015 0
M  V30 5266 H 495.615 -3.95362 -0.439778 0
M  V30 5267 H 492.354 -6.43676 1.23939 0
M  V30 5268 H 491.874 -5.98382 -0.412212 0
M  V30 5269 H 493.553 -6.46962 -0.0697393 0
M  V30 5270 N 493.685 -0.035106 -1.57561 0
M  V30 5271 C 494.633 0.962707 -2.11742 0
M  V30 5272 C 495.627 1.33296 -1.0454 0
M  V30 5273 O 496.833 1.31449 -1.22968 0
M  V30 5274 H 493.208 0.32826 -0.676572 0
M  V30 5275 H 495.179 0.48048 -2.94506 0
M  V30 5276 C 493.928 2.23388 -2.66445 0
M  V30 5277 H 493.251 1.95774 -3.48587 0
M  V30 5278 H 494.691 2.91402 -3.07995 0
M  V30 5279 C 493.15 2.96769 -1.59467 0
M  V30 5280 O 493.68 3.89105 -0.998 0
M  V30 5281 N 491.886 2.59212 -1.31369 0
M  V30 5282 H 491.433 1.84202 -1.80076 0
M  V30 5283 H 491.391 3.08618 -0.600173 0
M  V30 5284 N 495.163 1.55791 0.238111 0
M  V30 5285 C 496.574 1.68383 0.806472 0
M  V30 5286 C 496.925 0.634157 1.85669 0
M  V30 5287 O 496.05 -0.217913 2.153 0
M  V30 5288 C 496.645 3.05268 1.46959 0
M  V30 5289 C 495.204 3.1977 1.98555 0
M  V30 5290 C 494.351 2.64279 0.839763 0
M  V30 5291 H 497.302 1.58694 0.0137535 0
M  V30 5292 H 497.323 3.00203 2.33792 0
M  V30 5293 H 496.835 3.81643 0.704993 0
M  V30 5294 H 494.936 2.48234 2.77868 0
M  V30 5295 H 495.049 4.26788 2.17689 0
M  V30 5296 H 493.413 2.22329 1.24265 0
M  V30 5297 H 494.196 3.43187 0.0881032 0
M  V30 5298 N 496.642 -0.504142 1.49319 0
M  V30 5299 C 497.889 -1.25846 1.58647 0
M  V30 5300 C 498.217 -1.92592 0.27177 0
M  V30 5301 O 497.472 -1.81167 -0.74007 0
M  V30 5302 C 497.771 -2.35021 2.69258 0
M  V30 5303 C 497.437 -1.85755 4.1086 0
M  V30 5304 C 496.099 -1.72038 4.49395 0
M  V30 5305 C 498.451 -1.48844 4.99495 0
M  V30 5306 C 495.779 -1.19783 5.74342 0
M  V30 5307 C 498.131 -0.980422 6.24956 0
M  V30 5308 C 496.795 -0.829622 6.62324 0
M  V30 5309 H 496.065 -0.460505 0.580531 0
M  V30 5310 H 498.712 -0.559716 1.83138 0
M  V30 5311 H 497.017 -3.10672 2.38726 0
M  V30 5312 H 498.714 -2.93083 2.73685 0
M  V30 5313 H 495.304 -1.9739 3.80441 0
M  V30 5314 H 499.488 -1.5829 4.70381 0
M  V30 5315 H 494.744 -1.06817 6.01997 0
M  V30 5316 H 498.918 -0.685608 6.93017 0
M  V30 5317 H 496.545 -0.42253 7.59025 0
M  V30 5318 N 498.12 -1.38341 -0.754957 0
M  V30 5319 C 499.345 -1.37882 -1.5493 0
M  V30 5320 C 499.77 0.0296385 -1.88077 0
M  V30 5321 O 499.128 1.01133 -1.50472 0
M  V30 5322 C 499.176 -2.23996 -2.82592 0
M  V30 5323 O 498.28 -1.65612 -3.77686 0
M  V30 5324 H 497.621 -0.470384 -0.468652 0
M  V30 5325 H 500.151 -1.82084 -0.933082 0
M  V30 5326 H 500.161 -2.37806 -3.3153 0
M  V30 5327 H 498.836 -3.26365 -2.57796 0
M  V30 5328 H 497.413 -1.60936 -3.36384 0
M  V30 5329 N 499.598 0.982988 -1.23187 0
M  V30 5330 C 501.009 1.53847 -1.05773 0
M  V30 5331 C 501.36 1.92568 0.375744 0
M  V30 5332 O 500.485 1.75783 1.26211 0
M  V30 5333 C 501.08 2.79567 -1.91384 0
M  V30 5334 C 499.639 3.31524 -1.78238 0
M  V30 5335 C 498.786 2.04534 -1.87246 0
M  V30 5336 H 501.737 0.802962 -1.36888 0
M  V30 5337 H 501.758 3.52317 -1.43711 0
M  V30 5338 H 501.27 2.51353 -2.95708 0
M  V30 5339 H 499.371 3.64623 -0.766875 0
M  V30 5340 H 499.484 4.01457 -2.61475 0
M  V30 5341 H 497.848 2.1855 -1.30797 0
M  V30 5342 H 498.631 1.78706 -2.9312 0
M  V30 5343 N 501.076 1.04316 1.18135 0
M  V30 5344 C 502.325 0.74319 1.87509 0
M  V30 5345 C 502.638 -0.732136 1.81381 0
M  V30 5346 O 503.844 -1.14572 2.46141 0
M  V30 5347 C 502.3 1.27913 3.36402 0
M  V30 5348 C 501.908 2.78326 3.51053 0
M  V30 5349 C 503.652 1.0558 4.11161 0
M  V30 5350 C 501.559 3.25266 4.93919 0
M  V30 5351 H 500.489 0.274313 0.702331 0
M  V30 5352 H 503.14 1.25931 1.33467 0
M  V30 5353 H 501.522 0.690853 3.89927 0
M  V30 5354 H 502.696 3.42933 3.07788 0
M  V30 5355 H 501.011 2.991 2.89704 0
M  V30 5356 H 503.608 1.38161 5.16542 0
M  V30 5357 H 503.951 -0.00684729 4.16299 0
M  V30 5358 H 504.484 1.60882 3.63816 0
M  V30 5359 H 501.223 4.30922 4.9395 0
M  V30 5360 H 500.743 2.65396 5.3789 0
M  V30 5361 H 502.422 3.19433 5.62647 0
M  V30 5362 N 502.554 -1.34406 0.822964 0
M  V30 5363 C 503.802 -1.97892 0.410245 0
M  V30 5364 C 504.123 -1.65567 -1.03017 0
M  V30 5365 O 503.393 -0.94642 -1.71522 0
M  V30 5366 H 501.973 -0.732049 0.148707 0
M  V30 5367 H 504.635 -1.64043 1.05242 0
M  V30 5368 H 503.731 -3.07579 0.529284 0
M  V30 5369 N 504.032 -0.577932 -1.46621 0
M  V30 5370 C 505.278 -0.0617793 -2.02706 0
M  V30 5371 C 505.611 1.29294 -1.44903 0
M  V30 5372 O 504.886 1.8461 -0.61232 0
M  V30 5373 C 505.169 0.00911824 -3.60099 0
M  V30 5374 C 505.022 -1.37416 -4.28295 0
M  V30 5375 C 506.341 0.712159 -4.343 0
M  V30 5376 H 503.46 -0.0239246 -0.736612 0
M  V30 5377 H 506.102 -0.744211 -1.74818 0
M  V30 5378 H 504.252 0.590292 -3.83989 0
M  V30 5379 H 505.924 -2.00013 -4.15683 0
M  V30 5380 H 504.167 -1.94319 -3.87843 0
M  V30 5381 H 504.838 -1.27707 -5.37024 0
M  V30 5382 H 507.314 0.218486 -4.15526 0
M  V30 5383 H 506.19 0.730782 -5.44014 0
M  V30 5384 H 506.451 1.77251 -4.05012 0
M  V30 5385 N 505.51 1.54411 -0.315457 0
M  V30 5386 C 506.787 1.92562 0.343398 0
M  V30 5387 C 507.167 1.24423 1.70535 0
M  V30 5388 O 506.515 0.385051 2.25232 0
M  V30 5389 C 506.725 3.46168 0.443687 0
M  V30 5390 C 508.073 4.18659 0.707783 0
M  V30 5391 O 509.097 3.52281 0.52693 0
M  V30 5392 O 507.956 5.36198 1.05612 0
M  V30 5393 H 505.05 0.80379 0.194552 0
M  V30 5394 H 507.596 1.65738 -0.364577 0
M  V30 5395 H 506.368 3.8792 -0.513172 0
M  V30 5396 H 505.991 3.79073 1.19956 0
M  V30 5397 N 506.988 0.0434614 1.5754 0
M  V30 5398 C 507.898 -0.94893 2.14552 0
M  V30 5399 C 508.914 -1.34707 1.10136 0
M  V30 5400 O 510.09 -1.42557 1.42266 0
M  V30 5401 C 507.155 -2.208 2.67298 0
M  V30 5402 C 506.216 -1.86893 3.86484 0
M  V30 5403 C 505.449 -3.06797 4.36705 0
M  V30 5404 O 505.672 -4.19921 3.86034 0
M  V30 5405 O 504.606 -2.8826 5.28384 0
M  V30 5406 H 508.432 -0.494099 2.99654 0
M  V30 5407 H 506.017 -0.177989 1.48336 0
M  V30 5408 H 507.899 -2.94686 3.01228 0
M  V30 5409 H 506.574 -2.65436 1.85272 0
M  V30 5410 H 505.481 -1.10347 3.57455 0
M  V30 5411 H 506.814 -1.47062 4.69716 0
M  V30 5412 N 508.466 -1.55915 -0.229846 0
M  V30 5413 C 509.398 -1.88209 -1.30805 0
M  V30 5414 C 510.411 -0.769672 -1.43457 0
M  V30 5415 O 511.6 -1.04792 -1.44502 0
M  V30 5416 C 508.7 -2.06829 -2.68468 0
M  V30 5417 C 507.873 -3.37798 -2.77869 0
M  V30 5418 C 506.932 -3.45952 -3.96489 0
M  V30 5419 O 505.958 -4.19043 -3.85216 0
M  V30 5420 N 507.16 -2.76488 -5.10426 0
M  V30 5421 H 509.925 -2.81286 -1.03431 0
M  V30 5422 H 507.486 -1.5636 -0.41991 0
M  V30 5423 H 509.478 -2.09608 -3.46189 0
M  V30 5424 H 508.048 -1.20416 -2.88477 0
M  V30 5425 H 507.268 -3.4719 -1.86689 0
M  V30 5426 H 508.556 -4.24091 -2.81113 0
M  V30 5427 H 507.954 -2.16868 -5.2248 0
M  V30 5428 H 506.511 -2.84938 -5.8622 0
M  V30 5429 N 509.944 0.496216 -1.49584 0
M  V30 5430 C 510.876 1.61404 -1.62731 0
M  V30 5431 C 511.889 1.54613 -0.50978 0
M  V30 5432 O 513.078 1.60458 -0.782017 0
M  V30 5433 C 510.178 3.00212 -1.57245 0
M  V30 5434 C 509.351 3.32138 -2.84611 0
M  V30 5435 C 508.41 4.5038 -2.72112 0
M  V30 5436 O 507.436 4.51926 -3.46051 0
M  V30 5437 N 508.638 5.50575 -1.83977 0
M  V30 5438 H 511.403 1.50552 -2.59141 0
M  V30 5439 H 508.964 0.684182 -1.46733 0
M  V30 5440 H 510.956 3.77241 -1.4653 0
M  V30 5441 H 509.526 3.04964 -0.686729 0
M  V30 5442 H 508.746 2.4396 -3.09641 0
M  V30 5443 H 510.034 3.50268 -3.69039 0
M  V30 5444 H 509.432 5.52128 -1.23171 0
M  V30 5445 H 507.989 6.26687 -1.79182 0
M  V30 5446 N 511.423 1.38739 0.74761 0
M  V30 5447 C 512.669 1.35475 1.50912 0
M  V30 5448 C 513.002 -0.0533093 1.94127 0
M  V30 5449 O 512.277 -1.01572 1.65871 0
M  V30 5450 C 512.56 2.31582 2.75757 0
M  V30 5451 C 512.413 3.81274 2.38642 0
M  V30 5452 C 513.732 2.25722 3.77806 0
M  V30 5453 H 510.851 0.493427 0.547447 0
M  V30 5454 H 513.493 1.69634 0.855823 0
M  V30 5455 H 511.643 2.02582 3.31501 0
M  V30 5456 H 513.315 4.20972 1.88626 0
M  V30 5457 H 511.558 3.98664 1.71025 0
M  V30 5458 H 512.229 4.4399 3.27989 0
M  V30 5459 H 514.705 2.51336 3.31616 0
M  V30 5460 H 513.581 2.95069 4.62845 0
M  V30 5461 H 513.842 1.25803 4.23823 0
M  V30 5462 N 512.901 -0.976442 1.23707 0
M  V30 5463 C 514.317 -1.24341 1.00058 0
M  V30 5464 C 514.517 -1.99315 -0.295932 0
M  V30 5465 O 513.573 -2.3123 -1.01435 0
M  V30 5466 C 514.886 -2.03909 2.21001 0
M  V30 5467 C 516.434 -2.17034 2.25534 0
M  V30 5468 C 516.909 -2.99994 3.46075 0
M  V30 5469 N 518.4 -3.07578 3.46338 0
M  V30 5470 C 519.135 -3.72104 4.36264 0
M  V30 5471 N 518.631 -4.3842 5.36432 0
M  V30 5472 N 520.424 -3.69029 4.23998 0
M  V30 5473 H 512.575 -0.47428 2.07037 0
M  V30 5474 H 514.838 -0.272167 0.908091 0
M  V30 5475 H 514.544 -1.56198 3.15111 0
M  V30 5476 H 514.418 -3.04654 2.22409 0
M  V30 5477 H 516.805 -2.63951 1.31961 0
M  V30 5478 H 516.886 -1.15664 2.28156 0
M  V30 5479 H 516.53 -2.53772 4.39957 0
M  V30 5480 H 516.46 -4.01541 3.40694 0
M  V30 5481 H 518.951 -2.60397 2.73865 0
M  V30 5482 H 519.264 -4.85447 6.013 0
M  V30 5483 H 517.609 -4.37116 5.40328 0
M  V30 5484 H 520.8 -3.16392 3.44984 0
M  V30 5485 H 520.973 -4.19034 4.94282 0
M  V30 5486 N 514.379 -1.04941 -1.1758 0
M  V30 5487 C 515.626 -0.757989 -1.87779 0
M  V30 5488 C 515.954 0.714827 -1.80888 0
M  V30 5489 O 515.209 1.53824 -1.20982 0
M  V30 5490 C 515.508 -1.18062 -3.37337 0
M  V30 5491 C 515.174 -2.65521 -3.6443 0
M  V30 5492 C 513.836 -3.05804 -3.71534 0
M  V30 5493 C 516.188 -3.60822 -3.76108 0
M  V30 5494 C 513.516 -4.40256 -3.87803 0
M  V30 5495 C 515.868 -4.95005 -3.93895 0
M  V30 5496 C 514.532 -5.34945 -3.99237 0
M  V30 5497 H 513.802 -0.277368 -0.68713 0
M  V30 5498 H 516.449 -1.31603 -1.39115 0
M  V30 5499 H 514.754 -0.541525 -3.8804 0
M  V30 5500 H 516.451 -0.932368 -3.9001 0
M  V30 5501 H 513.041 -2.33324 -3.59524 0
M  V30 5502 H 517.225 -3.30841 -3.69943 0
M  V30 5503 H 512.481 -4.70707 -3.90186 0
M  V30 5504 H 516.655 -5.68746 -4.01872 0
M  V30 5505 H 514.282 -6.39135 -4.11596 0
M  V30 5506 N 515.857 1.33968 -0.830081 0
M  V30 5507 C 516.787 2.31911 -0.271911 0
M  V30 5508 C 517.768 1.58571 0.61556 0
M  V30 5509 O 518.953 1.86514 0.540946 0
M  V30 5510 C 516.083 3.42737 0.561146 0
M  V30 5511 C 515.037 4.27383 -0.229789 0
M  V30 5512 C 514.363 5.29742 0.726463 0
M  V30 5513 C 515.663 5.02 -1.44197 0
M  V30 5514 H 517.357 2.78844 -1.09025 0
M  V30 5515 H 514.903 1.34061 -0.52571 0
M  V30 5516 H 516.856 4.10276 0.961867 0
M  V30 5517 H 515.58 2.94471 1.41261 0
M  V30 5518 H 514.239 3.61456 -0.611964 0
M  V30 5519 H 513.887 4.77736 1.57408 0
M  V30 5520 H 513.587 5.87255 0.20142 0
M  V30 5521 H 515.111 6.00149 1.12489 0
M  V30 5522 H 516.525 5.62355 -1.11488 0
M  V30 5523 H 514.922 5.69122 -1.90317 0
M  V30 5524 H 515.992 4.31281 -2.2164 0
M  V30 5525 N 517.335 0.585699 1.46312 0
M  V30 5526 C 518.612 0.00542031 1.95599 0
M  V30 5527 C 518.992 -1.45619 1.52834 0
M  V30 5528 O 518.34 -2.14759 0.780446 0
M  V30 5529 C 518.55 0.180601 3.48532 0
M  V30 5530 C 519.898 0.049979 4.24571 0
M  V30 5531 O 520.922 0.109589 3.56031 0
M  V30 5532 O 519.781 -0.0832226 5.46437 0
M  V30 5533 H 516.875 -0.0481281 0.825598 0
M  V30 5534 H 519.421 0.654227 1.56582 0
M  V30 5535 H 518.193 1.19657 3.72556 0
M  V30 5536 H 517.816 -0.504498 3.94386 0
M  V30 5537 N 518.813 -1.54241 0.323641 0
M  V30 5538 C 519.743 -2.27289 -0.534993 0
M  V30 5539 C 520.724 -1.28087 -1.11927 0
M  V30 5540 O 521.909 -1.56899 -1.14439 0
M  V30 5541 C 519.039 -3.03075 -1.69596 0
M  V30 5542 C 517.993 -4.09614 -1.24098 0
M  V30 5543 C 517.319 -4.73242 -2.4889 0
M  V30 5544 C 518.619 -5.21087 -0.355789 0
M  V30 5545 H 520.313 -2.99308 0.0743257 0
M  V30 5546 H 517.859 -1.43952 0.0371874 0
M  V30 5547 H 519.812 -3.52907 -2.30293 0
M  V30 5548 H 518.536 -2.28673 -2.33187 0
M  V30 5549 H 517.195 -3.60666 -0.656945 0
M  V30 5550 H 516.843 -3.95455 -3.10845 0
M  V30 5551 H 516.543 -5.45209 -2.19138 0
M  V30 5552 H 518.067 -5.25848 -3.10348 0
M  V30 5553 H 519.481 -5.66675 -0.869042 0
M  V30 5554 H 517.878 -5.9991 -0.151045 0
M  V30 5555 H 518.948 -4.81005 0.613339 0
M  V30 5556 N 520.291 -0.0518155 -1.57515 0
M  V30 5557 C 521.538 0.621823 -1.92716 0
M  V30 5558 C 521.866 1.70813 -0.930229 0
M  V30 5559 O 521.121 1.95616 0.0573708 0
M  V30 5560 C 521.42 1.25607 -3.34601 0
M  V30 5561 C 521.086 0.297901 -4.49915 0
M  V30 5562 C 519.748 0.034243 -4.81188 0
M  V30 5563 C 522.1 -0.358738 -5.19964 0
M  V30 5564 C 519.428 -0.893479 -5.79857 0
M  V30 5565 C 521.78 -1.27466 -6.19625 0
M  V30 5566 C 520.444 -1.54698 -6.49326 0
M  V30 5567 H 519.714 0.227541 -0.705199 0
M  V30 5568 H 522.361 -0.118432 -1.91133 0
M  V30 5569 H 520.666 2.07161 -3.32553 0
M  V30 5570 H 522.363 1.78424 -3.59118 0
M  V30 5571 H 518.953 0.513581 -4.25512 0
M  V30 5572 H 523.137 -0.168133 -4.96015 0
M  V30 5573 H 518.393 -1.11193 -6.01204 0
M  V30 5574 H 522.567 -1.78953 -6.73015 0
M  V30 5575 H 520.194 -2.26748 -7.25596 0
M  V30 5576 N 521.769 1.56035 0.221574 0
M  V30 5577 C 522.702 1.87427 1.30178 0
M  V30 5578 C 523.68 0.731658 1.45209 0
M  V30 5579 O 524.864 0.980016 1.61022 0
M  V30 5580 C 521.991 2.08127 2.67209 0
M  V30 5581 C 521.037 3.30813 2.69194 0
M  V30 5582 S 521.87 4.86738 2.23263 0
M  V30 5583 C 523.026 5.10474 3.62171 0
M  V30 5584 H 523.259 2.78756 1.03355 0
M  V30 5585 H 520.792 1.48469 0.423813 0
M  V30 5586 H 522.75 2.20736 3.46101 0
M  V30 5587 H 521.411 1.17595 2.91256 0
M  V30 5588 H 520.604 3.42341 3.6989 0
M  V30 5589 H 520.206 3.1706 1.98366 0
M  V30 5590 H 522.498 4.9937 4.5786 0
M  V30 5591 H 523.441 6.12359 3.55558 0
M  V30 5592 H 523.849 4.38208 3.55857 0
M  V30 5593 N 523.247 -0.488276 1.49845 0
M  V30 5594 C 524.493 -1.24341 1.6021 0
M  V30 5595 C 524.826 -1.91967 0.293651 0
M  V30 5596 O 524.101 -1.81323 -0.703718 0
M  V30 5597 C 524.384 -2.3005 2.77036 0
M  V30 5598 C 524.237 -1.66842 4.17713 0
M  V30 5599 C 525.556 -3.31509 2.89464 0
M  V30 5600 H 522.675 -0.450704 0.583125 0
M  V30 5601 H 525.317 -0.539673 1.82174 0
M  V30 5602 H 523.467 -2.90071 2.58439 0
M  V30 5603 H 525.139 -1.1055 4.47858 0
M  V30 5604 H 523.382 -0.972079 4.22768 0
M  V30 5605 H 524.053 -2.43576 4.95353 0
M  V30 5606 H 526.529 -2.81493 3.06433 0
M  V30 5607 H 525.405 -4.02822 3.72861 0
M  V30 5608 H 525.666 -3.94603 1.99351 0
M  V30 5609 N 524.725 -1.39134 -0.740242 0
M  V30 5610 C 525.971 -1.37278 -1.50088 0
M  V30 5611 C 526.326 0.0329967 -1.92372 0
M  V30 5612 O 525.619 0.998447 -1.63529 0
M  V30 5613 C 525.813 -2.27457 -2.75678 0
M  V30 5614 C 525.642 -3.76662 -2.45674 0
M  V30 5615 C 524.412 -4.45617 -2.38229 0
M  V30 5616 C 526.61 -4.6877 -2.11563 0
M  V30 5617 N 524.592 -5.80187 -2.00641 0
M  V30 5618 C 525.963 -5.91951 -1.84376 0
M  V30 5619 C 528.018 -4.56843 -1.97987 0
M  V30 5620 C 526.721 -7.04538 -1.4498 0
M  V30 5621 C 528.747 -5.69347 -1.59994 0
M  V30 5622 C 528.109 -6.91597 -1.33687 0
M  V30 5623 H 524.208 -0.557611 -0.548265 0
M  V30 5624 H 526.792 -1.74638 -0.860784 0
M  V30 5625 H 524.963 -1.92263 -3.37475 0
M  V30 5626 H 526.695 -2.16631 -3.41838 0
M  V30 5627 H 523.45 -3.98993 -2.5515 0
M  V30 5628 H 523.874 -6.51387 -1.84454 0
M  V30 5629 H 528.516 -3.62868 -2.16995 0
M  V30 5630 H 526.234 -7.98419 -1.24712 0
M  V30 5631 H 529.82 -5.62104 -1.50102 0
M  V30 5632 H 528.7 -7.77176 -1.04728 0
M  V30 5633 N 526.204 0.969867 -1.24223 0
M  V30 5634 C 527.444 1.72754 -1.0925 0
M  V30 5635 C 527.808 1.88541 0.362787 0
M  V30 5636 O 529.009 2.61217 0.633969 0
M  V30 5637 C 527.28 3.08204 -1.80957 0
M  V30 5638 S 528.839 3.99418 -1.81688 0
M  V30 5639 H 525.657 0.593981 -0.390778 0
M  V30 5640 H 528.259 1.15792 -1.5752 0
M  V30 5641 H 526.963 2.94372 -2.85961 0
M  V30 5642 H 526.494 3.70232 -1.33012 0
M  V30 5643 H 528.509 4.8828 -0.883001 0
M  V30 5644 N 527.682 1.05563 1.17022 0
M  V30 5645 C 528.645 0.664098 2.19368 0
M  V30 5646 C 529.645 -0.286358 1.5823 0
M  V30 5647 O 530.835 -0.069728 1.7406 0
M  V30 5648 C 527.967 -0.0239932 3.40892 0
M  V30 5649 H 529.16 1.57 2.55521 0
M  V30 5650 H 526.713 0.849964 1.31169 0
M  V30 5651 H 527.448 -0.942988 3.10287 0
M  V30 5652 H 527.233 0.659351 3.86516 0
M  V30 5653 H 528.723 -0.283909 4.16634 0
M  V30 5654 N 529.16 -1.33526 0.837174 0
M  V30 5655 C 530.09 -2.31764 0.284206 0
M  V30 5656 C 531.071 -1.58896 -0.607142 0
M  V30 5657 O 532.256 -1.86798 -0.531047 0
M  V30 5658 C 529.386 -3.43029 -0.542962 0
M  V30 5659 C 528.34 -4.27255 0.252451 0
M  V30 5660 C 527.666 -5.3012 -0.69836 0
M  V30 5661 C 528.966 -5.01229 1.46858 0
M  V30 5662 H 530.66 -2.78262 1.10502 0
M  V30 5663 H 528.206 -1.3378 0.532812 0
M  V30 5664 H 530.159 -4.1078 -0.940096 0
M  V30 5665 H 528.883 -2.95216 -1.39697 0
M  V30 5666 H 527.542 -3.61127 0.631124 0
M  V30 5667 H 527.19 -4.78564 -1.54872 0
M  V30 5668 H 526.89 -5.87353 -0.170274 0
M  V30 5669 H 528.414 -6.00737 -1.09305 0
M  V30 5670 H 529.828 -5.61756 1.14469 0
M  V30 5671 H 528.225 -5.68104 1.93333 0
M  V30 5672 H 529.295 -4.301 2.23924 0
M  V30 5673 N 530.638 -0.59345 -1.46 0
M  V30 5674 C 531.601 0.123538 -2.28867 0
M  V30 5675 C 532.601 0.808628 -1.38989 0
M  V30 5676 O 533.791 0.658945 -1.61256 0
M  V30 5677 C 530.923 1.1847 -3.19653 0
M  V30 5678 H 532.116 -0.604843 -2.93737 0
M  V30 5679 H 529.669 -0.351875 -1.52288 0
M  V30 5680 H 530.404 1.94431 -2.59552 0
M  V30 5681 H 530.189 0.69783 -3.8584 0
M  V30 5682 H 531.679 1.68726 -3.81997 0
M  V30 5683 N 532.116 1.54067 -0.331816 0
M  V30 5684 C 533.393 1.92915 0.322955 0
M  V30 5685 C 533.773 1.26225 1.69205 0
M  V30 5686 O 533.121 0.408919 2.24811 0
M  V30 5687 C 533.331 3.46619 0.406946 0
M  V30 5688 C 534.679 4.19386 0.663339 0
M  V30 5689 O 535.703 3.5282 0.489536 0
M  V30 5690 O 534.562 5.37288 0.999193 0
M  V30 5691 H 531.656 0.805808 0.186016 0
M  V30 5692 H 534.202 1.65342 -0.382135 0
M  V30 5693 H 532.974 3.87354 -0.554287 0
M  V30 5694 H 532.597 3.80324 1.15929 0
M  V30 5695 N 533.594 0.0601682 1.57485 0
M  V30 5696 C 534.557 -0.896373 2.10945 0
M  V30 5697 C 535.557 -1.23402 1.03095 0
M  V30 5698 O 536.747 -1.16921 1.29132 0
M  V30 5699 C 533.879 -2.20346 2.60116 0
M  V30 5700 H 535.072 -0.432778 2.96761 0
M  V30 5701 H 532.625 -0.188372 1.55161 0
M  V30 5702 H 533.36 -2.71268 1.7772 0
M  V30 5703 H 533.145 -1.9714 3.38937 0
M  V30 5704 H 534.635 -2.88846 3.01592 0
M  V30 5705 N 535.072 -1.5615 -0.213296 0
M  V30 5706 C 536.483 -1.69645 -0.779582 0
M  V30 5707 C 536.834 -0.663615 -1.84636 0
M  V30 5708 O 535.959 0.183633 -2.15619 0
M  V30 5709 C 536.554 -3.07567 -1.42084 0
M  V30 5710 C 535.113 -3.22889 -1.93442 0
M  V30 5711 C 534.26 -2.65581 -0.797612 0
M  V30 5712 H 537.211 -1.58696 0.0114951 0
M  V30 5713 H 537.232 -3.03884 -2.28986 0
M  V30 5714 H 536.744 -3.82716 -0.644187 0
M  V30 5715 H 534.845 -2.52623 -2.73884 0
M  V30 5716 H 534.958 -4.30197 -2.10872 0
M  V30 5717 H 533.322 -2.24278 -1.20712 0
M  V30 5718 H 534.105 -3.43284 -0.033494 0
M  V30 5719 N 536.55 0.480323 -1.50102 0
M  V30 5720 C 537.46 1.60547 -1.71061 0
M  V30 5721 C 538.476 1.63564 -0.593529 0
M  V30 5722 O 539.652 1.81604 -0.870751 0
M  V30 5723 C 536.717 2.96814 -1.79171 0
M  V30 5724 C 535.778 3.04259 -3.02861 0
M  V30 5725 C 535.011 4.34027 -3.10574 0
M  V30 5726 O 535.234 5.24009 -2.25323 0
M  V30 5727 O 534.168 4.46873 -4.03223 0
M  V30 5728 H 537.994 1.45788 -2.6642 0
M  V30 5729 H 535.579 0.658838 -1.34088 0
M  V30 5730 H 537.461 3.77765 -1.86738 0
M  V30 5731 H 536.136 3.11791 -0.869947 0
M  V30 5732 H 535.043 2.22419 -3.008 0
M  V30 5733 H 536.376 2.94216 -3.94586 0
M  V30 5734 N 538.028 1.39524 0.732853 0
M  V30 5735 C 538.961 1.32806 1.85574 0
M  V30 5736 C 539.939 0.201354 1.61348 0
M  V30 5737 O 541.123 0.38216 1.84585 0
M  V30 5738 C 538.25 1.06271 3.21596 0
M  V30 5739 C 537.296 2.21161 3.64678 0
M  V30 5740 S 538.129 3.83454 3.73796 0
M  V30 5741 C 539.285 3.59149 5.12604 0
M  V30 5742 H 539.518 2.27838 1.9099 0
M  V30 5743 H 537.051 1.25605 0.897927 0
M  V30 5744 H 539.009 0.916461 4.00139 0
M  V30 5745 H 537.67 0.129223 3.13834 0
M  V30 5746 H 536.863 1.98193 4.63396 0
M  V30 5747 H 536.465 2.32 2.93346 0
M  V30 5748 H 538.757 3.16547 5.99003 0
M  V30 5749 H 539.7 4.57335 5.40602 0
M  V30 5750 H 540.108 2.93203 4.82382 0
M  V30 5751 N 539.506 -0.963266 1.24736 0
M  V30 5752 C 540.731 -1.74699 1.11781 0
M  V30 5753 C 541.156 -1.85267 -0.325258 0
M  V30 5754 O 540.514 -1.32681 -1.23553 0
M  V30 5755 C 540.562 -3.14322 1.76731 0
M  V30 5756 O 539.666 -3.99043 1.04109 0
M  V30 5757 H 539.007 -0.53684 0.390767 0
M  V30 5758 H 541.537 -1.20801 1.65131 0
M  V30 5759 H 541.547 -3.64824 1.82668 0
M  V30 5760 H 540.222 -3.05946 2.81726 0
M  V30 5761 H 538.799 -3.5752 1.05991 0
M  V30 5762 N 540.985 -1.06182 -1.16461 0
M  V30 5763 C 542.21 -0.798599 -1.91408 0
M  V30 5764 C 542.635 0.640987 -1.76842 0
M  V30 5765 O 541.993 1.44652 -1.09296 0
M  V30 5766 C 542.041 -1.19665 -3.40165 0
M  V30 5767 O 541.145 -0.334768 -4.11039 0
M  V30 5768 H 540.486 -0.291961 -0.596368 0
M  V30 5769 H 543.016 -1.41732 -1.47557 0
M  V30 5770 H 543.026 -1.16772 -3.90933 0
M  V30 5771 H 541.701 -2.24526 -3.50087 0
M  V30 5772 H 540.278 -0.425168 -3.70468 0
M  V30 5773 N 542.463 1.3308 -0.844243 0
M  V30 5774 C 543.688 2.02341 -0.455282 0
M  V30 5775 C 544.113 1.6308 0.93737 0
M  V30 5776 O 543.471 0.826118 1.61385 0
M  V30 5777 C 543.519 3.55743 -0.58988 0
M  V30 5778 O 542.623 4.1063 0.38166 0
M  V30 5779 H 541.964 0.637898 -0.184343 0
M  V30 5780 H 544.494 1.6986 -1.14056 0
M  V30 5781 H 544.504 4.05243 -0.473522 0
M  V30 5782 H 543.179 3.83662 -1.60549 0
M  V30 5783 H 541.756 3.72236 0.22241 0
M  V30 5784 N 543.941 0.601185 1.45683 0
M  V30 5785 C 544.851 -0.123395 2.34275 0
M  V30 5786 C 545.867 -0.86702 1.5086 0
M  V30 5787 O 547.043 -0.826049 1.8368 0
M  V30 5788 C 544.108 -1.11237 3.2837 0
M  V30 5789 C 543.169 -0.371405 4.2769 0
M  V30 5790 C 542.402 -1.31327 5.1729 0
M  V30 5791 O 542.625 -2.55078 5.10188 0
M  V30 5792 O 541.559 -0.813811 5.96373 0
M  V30 5793 H 545.385 0.604483 2.97623 0
M  V30 5794 H 542.97 0.361477 1.44961 0
M  V30 5795 H 544.852 -1.68214 3.8637 0
M  V30 5796 H 543.527 -1.82139 2.67595 0
M  V30 5797 H 542.434 0.24067 3.73325 0
M  V30 5798 H 543.767 0.296998 4.91303 0
M  V30 5799 N 545.419 -1.53889 0.339982 0
M  V30 5800 C 546.349 -2.27843 -0.510856 0
M  V30 5801 C 547.33 -1.29267 -1.10563 0
M  V30 5802 O 548.515 -1.58104 -1.12768 0
M  V30 5803 C 545.645 -3.04857 -1.66372 0
M  V30 5804 C 544.599 -4.10907 -1.19746 0
M  V30 5805 C 543.925 -4.75855 -2.43857 0
M  V30 5806 C 545.225 -5.21435 -0.300501 0
M  V30 5807 H 546.919 -2.99212 0.106067 0
M  V30 5808 H 544.465 -1.43904 0.0524533 0
M  V30 5809 H 546.418 -3.5533 -2.26537 0
M  V30 5810 H 545.142 -2.31133 -2.30749 0
M  V30 5811 H 543.801 -3.61342 -0.618654 0
M  V30 5812 H 543.449 -3.9873 -3.06633 0
M  V30 5813 H 543.149 -5.47502 -2.13343 0
M  V30 5814 H 544.673 -5.2911 -3.04754 0
M  V30 5815 H 546.087 -5.67565 -0.80889 0
M  V30 5816 H 544.484 -6.00036 -0.0874076 0
M  V30 5817 H 545.554 -4.80328 0.664321 0
M  V30 5818 N 546.897 -0.0685191 -1.57451 0
M  V30 5819 C 547.86 0.885173 -2.11417 0
M  V30 5820 C 548.86 1.22853 -1.03748 0
M  V30 5821 O 550.05 1.16235 -1.2975 0
M  V30 5822 C 547.182 2.18964 -2.61281 0
M  V30 5823 H 548.375 0.417034 -2.96986 0
M  V30 5824 H 545.928 0.18014 -1.55258 0
M  V30 5825 H 546.663 2.70321 -1.79156 0
M  V30 5826 H 546.448 1.9534 -3.39977 0
M  V30 5827 H 547.938 2.87242 -3.0312 0
M  V30 5828 N 548.375 1.56261 0.205012 0
M  V30 5829 C 549.615 1.81823 0.933806 0
M  V30 5830 C 549.979 0.644534 1.80858 0
M  V30 5831 O 551.18 0.779819 2.5724 0
M  V30 5832 C 549.451 3.12362 1.7368 0
M  V30 5833 S 551.01 3.59296 2.51897 0
M  V30 5834 H 547.828 0.638209 0.313386 0
M  V30 5835 H 550.43 1.94495 0.198001 0
M  V30 5836 H 549.134 3.95809 1.08459 0
M  V30 5837 H 548.665 3.02542 2.5146 0
M  V30 5838 H 550.68 3.23945 3.75864 0
M  V30 5839 N 549.853 -0.472356 1.50355 0
M  V30 5840 C 551.081 -1.24784 1.65035 0
M  V30 5841 C 551.496 -1.85837 0.333176 0
M  V30 5842 O 550.853 -1.69168 -0.68472 0
M  V30 5843 C 550.904 -2.35747 2.74054 0
M  V30 5844 O 550.625 -1.77197 4.00665 0
M  V30 5845 C 552.126 -3.26645 2.99696 0
M  V30 5846 H 549.346 -0.377432 0.554785 0
M  V30 5847 H 551.89 -0.563962 1.9657 0
M  V30 5848 H 550.045 -2.99912 2.45217 0
M  V30 5849 H 550.459 -2.5026 4.60945 0
M  V30 5850 H 551.933 -4.00718 3.79644 0
M  V30 5851 H 552.41 -3.8535 2.10718 0
M  V30 5852 H 553.016 -2.68218 3.3006 0
M  V30 5853 N 551.331 -1.39911 -0.725443 0
M  V30 5854 C 552.747 -1.21725 -1.03224 0
M  V30 5855 C 552.947 -0.0855224 -2.01318 0
M  V30 5856 O 552.003 0.55976 -2.46217 0
M  V30 5857 C 553.316 -2.55511 -1.58539 0
M  V30 5858 C 554.864 -2.62439 -1.70572 0
M  V30 5859 C 555.339 -3.9647 -2.29294 0
M  V30 5860 N 556.83 -3.98159 -2.36692 0
M  V30 5861 C 557.565 -4.98647 -2.83088 0
M  V30 5862 N 557.061 -6.0953 -3.2931 0
M  V30 5863 N 558.854 -4.8602 -2.82384 0
M  V30 5864 H 551.005 -2.12267 -0.075048 0
M  V30 5865 H 553.268 -0.943136 -0.0959066 0
M  V30 5866 H 552.974 -3.38926 -0.939249 0
M  V30 5867 H 552.848 -2.75905 -2.57208 0
M  V30 5868 H 555.235 -1.79401 -2.34306 0
M  V30 5869 H 555.316 -2.45885 -0.705297 0
M  V30 5870 H 554.96 -4.79942 -1.66186 0
M  V30 5871 H 554.89 -4.10349 -3.30032 0
M  V30 5872 H 557.381 -3.18085 -2.04035 0
M  V30 5873 H 557.694 -6.82106 -3.6325 0
M  V30 5874 H 556.039 -6.1311 -3.27294 0
M  V30 5875 H 559.23 -3.98493 -2.45603 0
M  V30 5876 H 559.403 -5.64478 -3.18226 0
M  V30 5877 N 552.809 0.956637 -1.25245 0
M  V30 5878 C 554.055 1.70352 -1.10036 0
M  V30 5879 C 554.388 1.90869 0.358156 0
M  V30 5880 O 553.663 1.47819 1.26411 0
M  V30 5881 C 553.946 3.08766 -1.85298 0
M  V30 5882 C 553.799 2.95672 -3.38966 0
M  V30 5883 C 555.118 4.08622 -1.63451 0
M  V30 5884 H 552.237 0.618279 -0.401123 0
M  V30 5885 H 554.879 1.11212 -1.54051 0
M  V30 5886 H 553.029 3.59252 -1.47887 0
M  V30 5887 H 554.701 2.52527 -3.86041 0
M  V30 5888 H 552.944 2.31634 -3.6678 0
M  V30 5889 H 553.615 3.93776 -3.86839 0
M  V30 5890 H 556.091 3.67038 -1.96015 0
M  V30 5891 H 554.967 5.03514 -2.18551 0
M  V30 5892 H 555.228 4.3834 -0.575357 0
M  V30 5893 N 554.287 1.06798 1.15896 0
M  V30 5894 C 555.235 0.677525 2.22514 0
M  V30 5895 C 556.229 -0.308994 1.66558 0
M  V30 5896 O 557.435 -0.173308 1.79164 0
M  V30 5897 H 553.81 0.200994 0.724642 0
M  V30 5898 H 555.781 1.5865 2.52731 0
M  V30 5899 C 554.53 0.0854153 3.47595 0
M  V30 5900 H 553.853 0.835645 3.90969 0
M  V30 5901 H 555.293 -0.150199 4.23734 0
M  V30 5902 C 553.752 -1.1724 3.15843 0
M  V30 5903 O 554.282 -2.25965 3.32119 0
M  V30 5904 N 552.488 -1.07636 2.69931 0
M  V30 5905 H 552.035 -0.191559 2.56887 0
M  V30 5906 H 551.993 -1.91876 2.4906 0
M  V30 5907 N 555.766 -1.3263 0.851289 0
M  V30 5908 C 557.012 -1.98061 0.462963 0
M  V30 5909 C 557.367 -1.66162 -0.969948 0
M  V30 5910 O 556.66 -0.937723 -1.67085 0
M  V30 5911 C 556.854 -3.51713 0.635015 0
M  V30 5912 C 556.683 -3.98544 2.0831 0
M  V30 5913 C 555.453 -4.25787 2.72091 0
M  V30 5914 C 557.651 -4.13858 3.0533 0
M  V30 5915 N 555.633 -4.58842 4.07845 0
M  V30 5916 C 557.004 -4.50412 4.26063 0
M  V30 5917 C 559.059 -3.96182 3.0157 0
M  V30 5918 C 557.762 -4.71136 5.43529 0
M  V30 5919 C 559.788 -4.18088 4.18278 0
M  V30 5920 C 559.15 -4.54956 5.37768 0
M  V30 5921 H 555.249 -0.750976 0.218082 0
M  V30 5922 H 557.833 -1.60514 1.10197 0
M  V30 5923 H 556.004 -3.88391 0.0257298 0
M  V30 5924 H 557.736 -4.04118 0.216915 0
M  V30 5925 H 554.491 -4.17734 2.23149 0
M  V30 5926 H 554.915 -4.7956 4.77862 0
M  V30 5927 H 559.557 -3.66783 2.1031 0
M  V30 5928 H 557.275 -4.9939 6.35323 0
M  V30 5929 H 560.861 -4.05918 4.168 0
M  V30 5930 H 559.741 -4.71567 6.26573 0
M  V30 5931 N 557.244 -0.608902 -1.45362 0
M  V30 5932 C 558.192 0.121639 -2.32282 0
M  V30 5933 C 559.186 0.858301 -1.46046 0
M  V30 5934 O 560.392 0.773718 -1.62523 0
M  V30 5935 H 556.767 0.058086 -0.749753 0
M  V30 5936 H 558.738 -0.629866 -2.91677 0
M  V30 5937 C 557.487 1.1047 -3.29684 0
M  V30 5938 H 556.81 0.547278 -3.96036 0
M  V30 5939 H 558.25 1.58576 -3.9323 0
M  V30 5940 C 556.709 2.17891 -2.56954 0
M  V30 5941 O 557.239 3.25652 -2.35189 0
M  V30 5942 N 555.445 1.93211 -2.17066 0
M  V30 5943 H 554.992 1.05584 -2.34967 0
M  V30 5944 H 554.95 2.6529 -1.68727 0
M  V30 5945 N 558.722 1.53707 -0.348139 0
M  V30 5946 C 560.138 1.596 0.00361134 0
M  V30 5947 C 560.338 1.36394 1.4832 0
M  V30 5948 O 559.394 1.16046 2.24253 0
M  V30 5949 C 560.707 2.97512 -0.436682 0
M  V30 5950 C 562.255 3.10568 -0.389416 0
M  V30 5951 C 562.73 4.50866 -0.805249 0
M  V30 5952 N 564.221 4.56929 -0.759616 0
M  V30 5953 C 564.956 5.63643 -1.05327 0
M  V30 5954 N 564.452 6.78189 -1.41531 0
M  V30 5955 N 566.245 5.5354 -0.977207 0
M  V30 5956 H 558.396 1.67044 -1.31187 0
M  V30 5957 H 560.659 0.782559 -0.535075 0
M  V30 5958 H 560.365 3.19575 -1.46849 0
M  V30 5959 H 560.239 3.76742 0.185744 0
M  V30 5960 H 562.626 2.88226 0.633228 0
M  V30 5961 H 562.707 2.33387 -1.04711 0
M  V30 5962 H 562.351 4.73943 -1.82593 0
M  V30 5963 H 562.281 5.26452 -0.124989 0
M  V30 5964 H 564.772 3.74675 -0.49265 0
M  V30 5965 H 565.085 7.55541 -1.62411 0
M  V30 5966 H 563.43 6.79624 -1.45381 0
M  V30 5967 H 566.621 4.62932 -0.693675 0
M  V30 5968 H 566.794 6.36614 -1.2094 0
M  V30 5969 N 560.2 0.0768682 1.57412 0
M  V30 5970 C 561.446 -0.591961 1.93968 0
M  V30 5971 C 561.779 -1.68954 0.9575 0
M  V30 5972 O 561.054 -1.94496 -0.0124675 0
M  V30 5973 C 561.337 -1.16418 3.40762 0
M  V30 5974 C 561.19 -0.0728933 4.49741 0
M  V30 5975 C 562.509 -2.06814 3.88479 0
M  V30 5976 H 559.628 -0.213716 0.705333 0
M  V30 5977 H 562.27 0.14387 1.89455 0
M  V30 5978 H 560.42 -1.79128 3.4474 0
M  V30 5979 H 562.092 0.560446 4.57883 0
M  V30 5980 H 560.335 0.595859 4.29688 0
M  V30 5981 H 561.006 -0.513755 5.49604 0
M  V30 5982 H 563.482 -1.54033 3.8654 0
M  V30 5983 H 562.358 -2.43785 4.91793 0
M  V30 5984 H 562.619 -2.97844 3.26713 0
M  V30 5985 N 561.678 -1.56367 -0.196722 0
M  V30 5986 C 562.927 -1.79724 -0.915539 0
M  V30 5987 C 563.24 -0.649804 -1.84491 0
M  V30 5988 O 564.446 -0.767631 -2.60422 0
M  V30 5989 C 562.902 -3.18369 -1.67836 0
M  V30 5990 C 562.51 -4.4091 -0.793897 0
M  V30 5991 C 564.254 -3.51037 -2.38691 0
M  V30 5992 C 562.161 -5.70577 -1.55549 0
M  V30 5993 H 561.091 -0.67013 -0.345604 0
M  V30 5994 H 563.742 -1.82721 -0.168856 0
M  V30 5995 H 562.124 -3.09617 -2.46887 0
M  V30 5996 H 563.298 -4.60781 -0.042163 0
M  V30 5997 H 561.613 -4.15937 -0.19626 0
M  V30 5998 H 564.21 -4.4515 -2.96219 0
M  V30 5999 H 564.553 -2.74704 -3.12799 0
M  V30 6000 H 565.086 -3.61229 -1.66608 0
M  V30 6001 H 561.825 -6.49871 -0.857226 0
M  V30 6002 H 561.345 -5.54726 -2.2812 0
M  V30 6003 H 563.024 -6.11637 -2.10971 0
M  V30 6004 N 563.156 0.464375 -1.50603 0
M  V30 6005 C 564.086 1.56944 -1.72889 0
M  V30 6006 C 565.067 1.59979 -0.577997 0
M  V30 6007 O 566.252 1.76138 -0.817855 0
M  V30 6008 C 563.382 2.95225 -1.8292 0
M  V30 6009 C 562.336 3.07056 -2.98162 0
M  V30 6010 C 561.662 4.47051 -2.93343 0
M  V30 6011 C 562.962 2.83648 -4.38567 0
M  V30 6012 H 564.656 1.38547 -2.65415 0
M  V30 6013 H 562.202 0.665082 -1.27721 0
M  V30 6014 H 564.155 3.72467 -1.97095 0
M  V30 6015 H 562.879 3.14793 -0.870209 0
M  V30 6016 H 561.538 2.32248 -2.83648 0
M  V30 6017 H 561.186 4.63547 -1.95276 0
M  V30 6018 H 560.886 4.55902 -3.70712 0
M  V30 6019 H 562.41 5.26304 -3.09575 0
M  V30 6020 H 563.824 3.50636 -4.53572 0
M  V30 6021 H 562.221 3.03937 -5.17438 0
M  V30 6022 H 563.291 1.79451 -4.50472 0
M  V30 6023 N 564.634 1.40294 0.718013 0
M  V30 6024 C 565.544 1.42678 1.86226 0
M  V30 6025 C 566.56 0.319655 1.71039 0
M  V30 6026 O 567.736 0.563852 1.93346 0
M  V30 6027 C 564.801 1.2852 3.21999 0
M  V30 6028 C 563.862 2.49354 3.49458 0
M  V30 6029 C 563.095 2.35863 4.78753 0
M  V30 6030 O 563.318 1.37114 5.53675 0
M  V30 6031 O 562.252 3.25189 5.06494 0
M  V30 6032 H 566.078 2.39167 1.87171 0
M  V30 6033 H 563.663 1.2159 0.868112 0
M  V30 6034 H 565.545 1.22824 4.03103 0
M  V30 6035 H 564.22 0.351359 3.21787 0
M  V30 6036 H 563.127 2.60628 2.68373 0
M  V30 6037 H 564.46 3.41491 3.54464 0
M  V30 6038 N 566.112 -0.949982 1.2575 0
M  V30 6039 C 567.36 -1.6918 1.10555 0
M  V30 6040 C 567.681 -1.91773 -0.353298 0
M  V30 6041 O 566.951 -1.50814 -1.25027 0
M  V30 6042 H 565.531 -0.626952 0.406129 0
M  V30 6043 H 568.193 -1.1419 1.57945 0
M  V30 6044 H 567.289 -2.66915 1.61749 0
M  V30 6045 N 567.59 -1.07411 -1.15328 0
M  V30 6046 C 569.006 -0.799759 -1.38116 0
M  V30 6047 C 569.206 0.59572 -1.92493 0
M  V30 6048 O 568.262 1.35433 -2.13106 0
M  V30 6049 C 569.575 -1.87407 -2.35158 0
M  V30 6050 C 571.123 -1.89889 -2.48819 0
M  V30 6051 C 571.598 -2.96406 -3.49153 0
M  V30 6052 N 573.089 -2.95512 -3.56689 0
M  V30 6053 C 573.824 -3.74575 -4.34144 0
M  V30 6054 N 573.32 -4.63488 -5.14928 0
M  V30 6055 N 575.113 -3.62919 -4.29239 0
M  V30 6056 H 567.264 -1.97411 -0.78374 0
M  V30 6057 H 569.527 -0.856113 -0.407154 0
M  V30 6058 H 569.233 -2.8768 -2.0232 0
M  V30 6059 H 569.107 -1.73471 -3.34944 0
M  V30 6060 H 571.494 -0.902677 -2.80955 0
M  V30 6061 H 571.575 -2.07904 -1.49029 0
M  V30 6062 H 571.219 -3.96227 -3.17752 0
M  V30 6063 H 571.149 -2.75638 -4.48699 0
M  V30 6064 H 573.64 -2.31061 -2.99031 0
M  V30 6065 H 573.953 -5.20445 -5.71276 0
M  V30 6066 H 572.298 -4.67537 -5.14232 0
M  V30 6067 H 575.489 -2.92833 -3.65194 0
M  V30 6068 H 575.662 -4.24777 -4.89355 0
M  V30 6069 N 569.068 1.32177 -0.85831 0
M  V30 6070 C 570.015 2.28794 -0.303607 0
M  V30 6071 C 570.985 1.55213 0.591453 0
M  V30 6072 O 572.17 1.83418 0.525585 0
M  V30 6073 C 569.31 3.41475 0.49889 0
M  V30 6074 C 568.423 4.2993 -0.422373 0
M  V30 6075 C 567.558 5.29743 0.393111 0
M  V30 6076 C 566.597 6.09842 -0.525317 0
M  V30 6077 N 565.734 7.01643 0.253208 0
M  V30 6078 H 570.574 2.75631 -1.13276 0
M  V30 6079 H 568.111 1.35606 -0.570026 0
M  V30 6080 H 570.069 4.05531 0.979826 0
M  V30 6081 H 568.699 2.95779 1.29284 0
M  V30 6082 H 567.751 3.66422 -1.02171 0
M  V30 6083 H 569.063 4.85899 -1.12709 0
M  V30 6084 H 568.217 5.9942 0.937056 0
M  V30 6085 H 566.956 4.744 1.13117 0
M  V30 6086 H 565.961 5.39066 -1.08112 0
M  V30 6087 H 567.186 6.6727 -1.26205 0
M  V30 6088 H 565.132 6.48725 0.974295 0
M  V30 6089 H 565.049 7.54981 -0.392398 0
M  V30 6090 H 566.317 7.756 0.778761 0
M  V30 6091 N 570.547 0.616602 1.45037 0
M  V30 6092 C 571.958 0.199359 1.85633 0
M  V30 6093 C 572.309 -1.24588 1.51566 0
M  V30 6094 O 571.434 -1.94594 0.94668 0
M  V30 6095 C 572.029 0.355033 3.36935 0
M  V30 6096 C 570.588 -0.00758748 3.76399 0
M  V30 6097 C 569.735 0.675256 2.68953 0
M  V30 6098 H 572.686 0.822708 1.3571 0
M  V30 6099 H 572.707 -0.410201 3.78282 0
M  V30 6100 H 572.219 1.40699 3.61698 0
M  V30 6101 H 570.32 -1.05837 3.57252 0
M  V30 6102 H 570.433 0.392346 4.77491 0
M  V30 6103 H 568.797 0.111992 2.54454 0
M  V30 6104 H 569.58 1.72952 2.96551 0
M  V30 6105 N 572.025 -1.5352 0.356285 0
M  V30 6106 C 573.273 -2.00719 -0.235837 0
M  V30 6107 C 573.594 -1.24551 -1.5004 0
M  V30 6108 O 572.864 -0.356185 -1.92635 0
M  V30 6109 H 571.444 -0.741542 -0.0901366 0
M  V30 6110 H 574.106 -1.88887 0.480378 0
M  V30 6111 H 573.202 -3.08551 -0.469357 0
M  V30 6112 N 573.503 -0.0852151 -1.57369 0
M  V30 6113 C 574.433 0.874556 -2.16503 0
M  V30 6114 C 575.414 1.30111 -1.09568 0
M  V30 6115 O 576.599 1.36977 -1.37662 0
M  V30 6116 C 573.729 2.13731 -2.73745 0
M  V30 6117 C 572.683 1.84971 -3.85966 0
M  V30 6118 C 572.009 3.17991 -4.29867 0
M  V30 6119 C 573.309 1.14442 -5.09608 0
M  V30 6120 H 575.003 0.381899 -2.96954 0
M  V30 6121 H 572.549 0.18225 -1.42842 0
M  V30 6122 H 574.502 2.81302 -3.13763 0
M  V30 6123 H 573.226 2.65263 -1.90534 0
M  V30 6124 H 571.885 1.19801 -3.46473 0
M  V30 6125 H 571.533 3.6739 -3.4356 0
M  V30 6126 H 571.233 2.99534 -5.05523 0
M  V30 6127 H 572.757 3.86737 -4.72511 0
M  V30 6128 H 574.171 1.72105 -5.46857 0
M  V30 6129 H 572.568 1.06197 -5.90629 0
M  V30 6130 H 573.638 0.12559 -4.84737 0
M  V30 6131 N 574.981 1.5647 0.188427 0
M  V30 6132 C 576.209 1.85131 0.923803 0
M  V30 6133 C 576.624 0.668537 1.76567 0
M  V30 6134 O 575.981 -0.362662 1.7886 0
M  V30 6135 C 576.032 3.12661 1.81453 0
M  V30 6136 O 575.753 4.26378 1.00665 0
M  V30 6137 C 577.254 3.54548 2.66103 0
M  V30 6138 H 574.474 0.614624 0.269218 0
M  V30 6139 H 577.018 2.03581 0.193671 0
M  V30 6140 H 575.173 2.96088 2.49821 0
M  V30 6141 H 575.587 4.99041 1.61425 0
M  V30 6142 H 577.061 4.4673 3.24247 0
M  V30 6143 H 577.538 2.77853 3.40139 0
M  V30 6144 H 578.144 3.73674 2.03096 0
M  V30 6145 N 576.459 -0.456382 1.50847 0
M  V30 6146 C 577.389 -1.56025 1.73719 0
M  V30 6147 C 578.37 -1.5967 0.586473 0
M  V30 6148 O 579.555 -1.75702 0.827185 0
M  V30 6149 C 576.685 -2.94251 1.84483 0
M  V30 6150 C 575.639 -3.05471 2.99786 0
M  V30 6151 C 574.965 -4.45489 2.95709 0
M  V30 6152 C 576.265 -2.81318 4.40065 0
M  V30 6153 H 577.959 -1.37138 2.66146 0
M  V30 6154 H 575.505 -0.658299 1.28072 0
M  V30 6155 H 577.458 -3.71417 1.99067 0
M  V30 6156 H 576.182 -3.14328 0.886891 0
M  V30 6157 H 574.841 -2.30741 2.84876 0
M  V30 6158 H 574.489 -4.62505 1.97732 0
M  V30 6159 H 574.189 -4.53929 3.73125 0
M  V30 6160 H 575.713 -5.24655 3.12362 0
M  V30 6161 H 577.127 -3.48226 4.55425 0
M  V30 6162 H 575.524 -3.01188 5.19043 0
M  V30 6163 H 576.594 -1.7706 4.51418 0
M  V30 6164 N 577.937 -1.40673 -0.710563 0
M  V30 6165 C 579.185 -1.38947 -1.46759 0
M  V30 6166 C 579.506 0.00572879 -1.94999 0
M  V30 6167 O 578.776 0.961358 -1.70689 0
M  V30 6168 H 577.356 -0.5114 -0.544499 0
M  V30 6169 H 580.018 -1.75773 -0.842012 0
M  V30 6170 H 579.114 -2.06745 -2.33801 0
M  V30 6171 N 579.415 0.9433 -1.26252 0
M  V30 6172 C 580.664 1.68369 -1.11062 0
M  V30 6173 C 580.977 1.92514 0.346104 0
M  V30 6174 O 582.183 2.64358 0.618646 0
M  V30 6175 C 580.639 3.03171 -1.93946 0
M  V30 6176 C 580.247 2.86782 -3.4418 0
M  V30 6177 C 581.991 3.80916 -1.87359 0
M  V30 6178 C 579.898 4.17044 -4.19319 0
M  V30 6179 H 578.828 0.631469 -0.412023 0
M  V30 6180 H 581.479 1.04922 -1.50544 0
M  V30 6181 H 579.861 3.67587 -1.47296 0
M  V30 6182 H 581.035 2.31229 -3.98585 0
M  V30 6183 H 579.35 2.22482 -3.51981 0
M  V30 6184 H 581.947 4.77417 -2.40784 0
M  V30 6185 H 582.29 4.07658 -0.843857 0
M  V30 6186 H 582.823 3.2327 -2.31821 0
M  V30 6187 H 579.562 3.95487 -5.22753 0
M  V30 6188 H 579.082 4.72319 -3.69696 0
M  V30 6189 H 580.761 4.85513 -4.27651 0
M  V30 6190 N 580.893 1.08022 1.14757 0
M  V30 6191 C 582.141 0.805913 1.85336 0
M  V30 6192 C 582.462 -0.670162 1.83122 0
M  V30 6193 O 581.732 -1.48567 1.2769 0
M  V30 6194 H 580.312 0.295138 0.686223 0
M  V30 6195 H 582.974 1.36538 1.3908 0
M  V30 6196 H 582.07 1.14655 2.90277 0
M  V30 6197 N 582.371 -1.3172 0.865308 0
M  V30 6198 C 583.611 -1.98675 0.480365 0
M  V30 6199 C 583.975 -1.66929 -0.948621 0
M  V30 6200 O 585.176 -2.27059 -1.43867 0
M  V30 6201 C 583.447 -3.49972 0.724858 0
M  V30 6202 S 585.006 -4.36598 0.439078 0
M  V30 6203 H 581.824 -0.687967 0.179506 0
M  V30 6204 H 584.426 -1.60215 1.12033 0
M  V30 6205 H 583.13 -3.70567 1.76375 0
M  V30 6206 H 582.661 -3.93335 0.0717173 0
M  V30 6207 H 584.676 -4.90792 -0.730564 0
M  V30 6208 N 583.85 -0.624285 -1.44708 0
M  V30 6209 C 584.76 0.0861083 -2.34442 0
M  V30 6210 C 585.776 0.84291 -1.5222 0
M  V30 6211 O 586.952 0.796723 -1.84971 0
M  V30 6212 C 584.017 1.05999 -3.30099 0
M  V30 6213 C 583.077 0.303316 -4.28227 0
M  V30 6214 C 582.311 1.23081 -5.19314 0
M  V30 6215 O 582.534 2.46929 -5.14181 0
M  V30 6216 O 581.468 0.71883 -5.97592 0
M  V30 6217 H 585.293 -0.651756 -2.96624 0
M  V30 6218 H 582.879 -0.384493 -1.44368 0
M  V30 6219 H 584.76 1.62046 -3.88997 0
M  V30 6220 H 583.436 1.77859 -2.70459 0
M  V30 6221 H 582.343 -0.300033 -3.72895 0
M  V30 6222 H 583.676 -0.375123 -4.90768 0
M  V30 6223 N 585.328 1.53329 -0.364422 0
M  V30 6224 C 586.556 2.05657 0.226424 0
M  V30 6225 C 586.971 1.23801 1.42544 0
M  V30 6226 O 586.328 0.27839 1.80364 0
M  V30 6227 C 586.379 3.56125 0.621056 0
M  V30 6228 O 586.1 4.34879 -0.530304 0
M  V30 6229 C 587.601 4.24706 1.27041 0
M  V30 6230 H 584.821 0.669806 0.0400056 0
M  V30 6231 H 587.365 1.97714 -0.522456 0
M  V30 6232 H 585.52 3.64223 1.31985 0
M  V30 6233 H 585.934 5.24073 -0.211546 0
M  V30 6234 H 587.408 5.3131 1.49711 0
M  V30 6235 H 587.885 3.78354 2.23036 0
M  V30 6236 H 588.491 4.20858 0.613079 0
M  V30 6237 N 586.806 0.0935595 1.57322 0
M  V30 6238 C 587.769 -0.851426 2.12799 0
M  V30 6239 C 588.769 -1.21187 1.0569 0
M  V30 6240 O 589.959 -1.14156 1.31583 0
M  V30 6241 C 587.091 -2.14779 2.64731 0
M  V30 6242 H 588.284 -0.369733 2.97612 0
M  V30 6243 H 585.837 -0.155417 1.55525 0
M  V30 6244 H 586.572 -2.67437 1.83434 0
M  V30 6245 H 586.357 -1.89907 3.43042 0
M  V30 6246 H 587.847 -2.82383 3.07651 0
M  V30 6247 N 588.284 -1.56567 -0.180126 0
M  V30 6248 C 589.216 -1.92275 -1.24751 0
M  V30 6249 C 590.229 -0.814922 -1.40936 0
M  V30 6250 O 591.418 -1.09336 -1.41095 0
M  V30 6251 C 588.518 -2.15265 -2.61752 0
M  V30 6252 C 587.691 -3.46467 -2.66981 0
M  V30 6253 C 586.75 -3.58391 -3.85283 0
M  V30 6254 O 585.776 -4.31086 -3.7169 0
M  V30 6255 N 586.978 -2.92587 -5.01371 0
M  V30 6256 H 589.743 -2.84435 -0.944302 0
M  V30 6257 H 587.304 -1.57617 -0.369952 0
M  V30 6258 H 589.296 -2.20515 -3.39345 0
M  V30 6259 H 587.866 -1.29533 -2.845 0
M  V30 6260 H 587.086 -3.52953 -1.75549 0
M  V30 6261 H 588.374 -4.32819 -2.67479 0
M  V30 6262 H 587.772 -2.3338 -5.15316 0
M  V30 6263 H 586.329 -3.03444 -5.76858 0
M  V30 6264 N 589.762 0.448376 -1.51087 0
M  V30 6265 C 591.009 1.19872 -1.63209 0
M  V30 6266 C 591.337 1.91451 -0.343062 0
M  V30 6267 O 590.592 1.83789 0.672321 0
M  V30 6268 C 590.891 2.24866 -2.77795 0
M  V30 6269 C 590.557 1.70378 -4.17471 0
M  V30 6270 C 589.219 1.55241 -4.55471 0
M  V30 6271 C 591.571 1.30203 -5.04675 0
M  V30 6272 C 588.899 0.983844 -5.78392 0
M  V30 6273 C 591.251 0.747798 -6.28165 0
M  V30 6274 C 589.915 0.583233 -6.64947 0
M  V30 6275 H 589.185 0.438642 -0.597222 0
M  V30 6276 H 591.832 0.49136 -1.85089 0
M  V30 6277 H 590.137 3.01598 -2.50092 0
M  V30 6278 H 591.834 2.82723 -2.84374 0
M  V30 6279 H 588.424 1.83134 -3.87505 0
M  V30 6280 H 592.608 1.40723 -4.75932 0
M  V30 6281 H 587.864 0.844007 -6.05546 0
M  V30 6282 H 592.038 0.427927 -6.95084 0
M  V30 6283 H 589.665 0.140532 -7.6007 0
M  V30 6284 N 591.24 1.41047 0.703093 0
M  V30 6285 C 592.651 1.35657 1.28274 0
M  V30 6286 C 593.002 0.0360309 1.96167 0
M  V30 6287 O 592.127 -0.865833 1.98324 0
M  V30 6288 C 592.722 2.45707 2.33267 0
M  V30 6289 C 591.281 2.43738 2.86825 0
M  V30 6290 C 590.428 2.25941 1.60767 0
M  V30 6291 H 593.379 1.50672 0.49836 0
M  V30 6292 H 593.4 2.14333 3.14391 0
M  V30 6293 H 592.912 3.41805 1.83824 0
M  V30 6294 H 591.013 1.51375 3.40465 0
M  V30 6295 H 591.126 3.39779 3.37768 0
M  V30 6296 H 589.49 1.73681 1.86298 0
M  V30 6297 H 590.273 3.24054 1.1333 0
M  V30 6298 N 592.718 -0.936591 1.26751 0
M  V30 6299 C 593.648 -2.05315 1.11212 0
M  V30 6300 C 594.629 -1.70092 0.0160262 0
M  V30 6301 O 595.814 -1.93279 0.188894 0
M  V30 6302 C 592.944 -3.39123 0.749171 0
M  V30 6303 C 591.898 -3.88425 1.79751 0
M  V30 6304 C 591.224 -5.18936 1.28876 0
M  V30 6305 C 592.524 -4.12798 3.19992 0
M  V30 6306 H 594.218 -2.18573 2.04613 0
M  V30 6307 H 591.764 -1.05027 0.985159 0
M  V30 6308 H 593.717 -4.16704 0.627323 0
M  V30 6309 H 592.441 -3.25855 -0.220543 0
M  V30 6310 H 591.1 -3.13028 1.90811 0
M  V30 6311 H 590.748 -5.02051 0.308757 0
M  V30 6312 H 590.448 -5.52892 1.98958 0
M  V30 6313 H 591.972 -5.99096 1.17967 0
M  V30 6314 H 593.386 -4.80977 3.11983 0
M  V30 6315 H 591.783 -4.58044 3.87705 0
M  V30 6316 H 592.853 -3.18412 3.65707 0
M  V30 6317 N 594.196 -1.08629 -1.14182 0
M  V30 6318 C 595.607 -0.838003 -1.66836 0
M  V30 6319 C 595.958 0.634885 -1.85644 0
M  V30 6320 O 595.083 1.49008 -1.56926 0
M  V30 6321 C 595.678 -1.51465 -3.03058 0
M  V30 6322 C 594.237 -1.31355 -3.52736 0
M  V30 6323 C 593.384 -1.57599 -2.28162 0
M  V30 6324 H 596.335 -1.24656 -0.982165 0
M  V30 6325 H 596.356 -0.943134 -3.68626 0
M  V30 6326 H 595.868 -2.58661 -2.89337 0
M  V30 6327 H 593.969 -0.262384 -3.71675 0
M  V30 6328 H 594.082 -2.04275 -4.33369 0
M  V30 6329 H 592.446 -0.997659 -2.34348 0
M  V30 6330 H 593.229 -2.66006 -2.17015 0
M  V30 6331 N 595.674 1.31259 -0.872281 0
M  V30 6332 C 596.606 2.27396 -0.28697 0
M  V30 6333 C 597.619 1.53181 0.551297 0
M  V30 6334 O 598.808 1.74561 0.372914 0
M  V30 6335 C 595.908 3.33335 0.611617 0
M  V30 6336 C 595.081 4.36966 -0.194729 0
M  V30 6337 C 594.14 5.22387 0.632358 0
M  V30 6338 O 593.166 5.69169 0.0595691 0
M  V30 6339 N 594.368 5.46985 1.94391 0
M  V30 6340 H 597.133 2.78261 -1.11314 0
M  V30 6341 H 594.694 1.44306 -0.733994 0
M  V30 6342 H 596.686 3.87398 1.17068 0
M  V30 6343 H 595.256 2.82496 1.33846 0
M  V30 6344 H 594.476 3.82945 -0.935241 0
M  V30 6345 H 595.764 5.03273 -0.747935 0
M  V30 6346 H 595.162 5.10737 2.43237 0
M  V30 6347 H 593.719 6.03973 2.45071 0
M  V30 6348 N 597.152 0.631951 1.44375 0
M  V30 6349 C 598.398 0.13697 2.02337 0
M  V30 6350 C 598.731 -1.23826 1.49602 0
M  V30 6351 O 598.006 -1.8221 0.680415 0
M  V30 6352 C 598.289 0.124536 3.59885 0
M  V30 6353 C 598.142 1.53217 4.229 0
M  V30 6354 C 599.461 -0.550481 4.36644 0
M  V30 6355 H 596.58 0.051247 0.735216 0
M  V30 6356 H 599.222 0.808581 1.71936 0
M  V30 6357 H 597.372 -0.44737 3.85916 0
M  V30 6358 H 599.044 2.15303 4.07973 0
M  V30 6359 H 597.287 2.0858 3.80364 0
M  V30 6360 H 597.958 1.4755 5.31914 0
M  V30 6361 H 600.434 -0.0641154 4.16051 0
M  V30 6362 H 599.31 -0.528371 5.46351 0
M  V30 6363 H 599.571 -1.62097 4.11311 0
M  V30 6364 N 598.631 -1.53133 0.372548 0
M  V30 6365 C 599.879 -2.00958 -0.214534 0
M  V30 6366 C 600.2 -1.26135 -1.48711 0
M  V30 6367 O 599.47 -0.376597 -1.92246 0
M  V30 6368 H 598.05 -0.742456 -0.0822664 0
M  V30 6369 H 600.712 -1.88367 0.500385 0
M  V30 6370 H 599.808 -3.09031 -0.436605 0
M  V30 6371 N 600.109 -0.101901 -1.5727 0
M  V30 6372 C 601.056 0.854577 -2.14396 0
M  V30 6373 C 602.026 1.27521 -1.06432 0
M  V30 6374 O 603.211 1.35575 -1.34253 0
M  V30 6375 C 600.351 2.10576 -2.73408 0
M  V30 6376 C 599.464 1.73504 -3.95626 0
M  V30 6377 C 598.599 2.9346 -4.42781 0
M  V30 6378 C 597.638 2.52547 -5.57572 0
M  V30 6379 N 596.775 3.65359 -5.99547 0
M  V30 6380 H 601.615 0.360578 -2.9581 0
M  V30 6381 H 599.152 0.166303 -1.46157 0
M  V30 6382 H 601.11 2.83859 -3.05745 0
M  V30 6383 H 599.74 2.57463 -1.94711 0
M  V30 6384 H 598.792 0.901622 -3.6956 0
M  V30 6385 H 600.104 1.39426 -4.78917 0
M  V30 6386 H 599.258 3.74988 -4.76937 0
M  V30 6387 H 597.997 3.30753 -3.58404 0
M  V30 6388 H 597.002 1.69446 -5.23037 0
M  V30 6389 H 598.227 2.1639 -6.43702 0
M  V30 6390 H 596.173 4.02358 -5.18116 0
M  V30 6391 H 596.09 3.35148 -6.77652 0
M  V30 6392 H 597.358 4.47378 -6.38336 0
M  V30 6393 N 601.587 1.56661 0.17182 0
M  V30 6394 C 602.864 1.72838 0.915778 0
M  V30 6395 C 603.244 0.66316 2.00413 0
M  V30 6396 O 602.592 -0.322123 2.26218 0
M  V30 6397 C 602.802 3.16019 1.48097 0
M  V30 6398 C 604.15 3.76962 1.95408 0
M  V30 6399 O 605.174 3.19294 1.57892 0
M  V30 6400 O 604.033 4.78219 2.64516 0
M  V30 6401 H 601.127 0.705797 0.431021 0
M  V30 6402 H 603.673 1.68947 0.159689 0
M  V30 6403 H 602.445 3.85031 0.697618 0
M  V30 6404 H 602.068 3.24234 2.30126 0
M  V30 6405 N 603.065 -0.440357 1.51323 0
M  V30 6406 C 603.995 -1.54174 1.75364 0
M  V30 6407 C 604.976 -1.59039 0.603375 0
M  V30 6408 O 606.161 -1.74815 0.845774 0
M  V30 6409 C 603.291 -2.92277 1.87593 0
M  V30 6410 C 602.245 -3.02274 3.03009 0
M  V30 6411 C 601.571 -4.42327 3.00418 0
M  V30 6412 C 602.871 -2.76634 4.43024 0
M  V30 6413 H 604.565 -1.34307 2.67585 0
M  V30 6414 H 602.111 -0.644678 1.28763 0
M  V30 6415 H 604.064 -3.69284 2.02995 0
M  V30 6416 H 602.788 -3.13369 0.920179 0
M  V30 6417 H 601.447 -2.27706 2.87307 0
M  V30 6418 H 601.095 -4.60382 2.02626 0
M  V30 6419 H 600.795 -4.49946 3.77918 0
M  V30 6420 H 602.319 -5.21312 3.17909 0
M  V30 6421 H 603.733 -3.43376 4.59093 0
M  V30 6422 H 602.13 -2.95666 5.22208 0
M  V30 6423 H 603.2 -1.72262 4.5327 0
M  V30 6424 N 604.543 -1.41418 -0.695603 0
M  V30 6425 C 605.79 -1.40774 -1.45564 0
M  V30 6426 C 606.118 -0.0168604 -1.94493 0
M  V30 6427 O 605.373 0.971259 -1.69897 0
M  V30 6428 C 605.672 -2.36112 -2.68302 0
M  V30 6429 C 605.338 -3.82952 -2.38031 0
M  V30 6430 C 604 -4.22954 -2.29486 0
M  V30 6431 C 606.352 -4.75662 -2.13061 0
M  V30 6432 C 603.68 -5.53674 -1.94067 0
M  V30 6433 C 606.032 -6.06702 -1.79151 0
M  V30 6434 C 604.696 -6.45725 -1.69102 0
M  V30 6435 H 603.966 -0.515128 -0.532658 0
M  V30 6436 H 606.613 -1.74216 -0.795047 0
M  V30 6437 H 604.918 -1.95924 -3.39295 0
M  V30 6438 H 606.615 -2.32887 -3.26442 0
M  V30 6439 H 603.205 -3.5127 -2.45576 0
M  V30 6440 H 607.389 -4.45561 -2.18608 0
M  V30 6441 H 602.645 -5.8279 -1.8484 0
M  V30 6442 H 606.819 -6.78041 -1.5885 0
M  V30 6443 H 604.446 -7.46929 -1.41426 0
M  V30 6444 N 606.021 0.929856 -1.27246 0
M  V30 6445 C 607.437 1.20542 -1.04603 0
M  V30 6446 C 607.637 2.00276 0.221754 0
M  V30 6447 O 606.693 2.34835 0.927833 0
M  V30 6448 C 608.006 1.95566 -2.28417 0
M  V30 6449 C 609.554 2.08513 -2.33433 0
M  V30 6450 C 610.029 2.86943 -3.5697 0
M  V30 6451 N 611.52 2.94512 -3.57515 0
M  V30 6452 C 612.255 3.55656 -4.49774 0
M  V30 6453 N 611.751 4.18209 -5.52334 0
M  V30 6454 N 613.544 3.53038 -4.37402 0
M  V30 6455 H 605.695 0.397113 -2.08655 0
M  V30 6456 H 607.958 0.238277 -0.917566 0
M  V30 6457 H 607.664 1.44395 -3.20691 0
M  V30 6458 H 607.538 2.9619 -2.33563 0
M  V30 6459 H 609.925 2.58872 -1.41666 0
M  V30 6460 H 610.006 1.07117 -2.32292 0
M  V30 6461 H 609.65 2.37268 -4.49072 0
M  V30 6462 H 609.58 3.8862 -3.55362 0
M  V30 6463 H 612.071 2.50053 -2.83341 0
M  V30 6464 H 612.384 4.62796 -6.18902 0
M  V30 6465 H 610.729 4.16761 -5.56179 0
M  V30 6466 H 613.92 3.0337 -3.56489 0
M  V30 6467 H 614.093 4.004 -5.09493 0
M  V30 6468 N 607.499 1.09233 1.13605 0
M  V30 6469 C 608.776 0.739633 1.81077 0
M  V30 6470 C 609.156 -0.775595 1.96336 0
M  V30 6471 O 608.504 -1.69726 1.52988 0
M  V30 6472 C 608.714 1.47636 3.16235 0
M  V30 6473 C 610.062 1.64087 3.91613 0
M  V30 6474 O 611.086 1.43871 3.25852 0
M  V30 6475 O 609.945 1.97511 5.0956 0
M  V30 6476 H 607.039 0.265464 0.783236 0
M  V30 6477 H 609.585 1.19441 1.20549 0
M  V30 6478 H 608.357 2.50818 3.00344 0
M  V30 6479 H 607.98 1.01362 3.84462 0
M  V30 6480 N 608.977 -1.30795 0.87923 0
M  V30 6481 C 609.907 -2.30742 0.357796 0
M  V30 6482 C 610.888 -1.60747 -0.556283 0
M  V30 6483 O 612.073 -1.88393 -0.47135 0
M  V30 6484 C 609.203 -3.44583 -0.433555 0
M  V30 6485 C 608.157 -4.26235 0.388251 0
M  V30 6486 C 607.483 -5.32073 -0.529352 0
M  V30 6487 C 608.783 -4.96303 1.62729 0
M  V30 6488 H 610.477 -2.74605 1.19299 0
M  V30 6489 H 608.023 -1.32017 0.575104 0
M  V30 6490 H 609.976 -4.13563 -0.808934 0
M  V30 6491 H 608.7 -2.99511 -1.30234 0
M  V30 6492 H 607.359 -3.58936 0.745695 0
M  V30 6493 H 607.007 -4.83249 -1.39569 0
M  V30 6494 H 606.707 -5.87598 0.0166741 0
M  V30 6495 H 608.231 -6.0391 -0.901373 0
M  V30 6496 H 609.645 -5.5783 1.32283 0
M  V30 6497 H 608.042 -5.61666 2.11309 0
M  V30 6498 H 609.112 -4.22758 2.37494 0
M  V30 6499 N 610.455 -0.639598 -1.44038 0
M  V30 6500 C 611.402 0.0602458 -2.30721 0
M  V30 6501 C 612.372 0.828352 -1.43971 0
M  V30 6502 O 613.557 0.807693 -1.72861 0
M  V30 6503 C 610.697 1.03008 -3.29368 0
M  V30 6504 C 609.81 0.259502 -4.3122 0
M  V30 6505 C 608.945 1.22191 -5.16955 0
M  V30 6506 C 607.984 0.440978 -6.10509 0
M  V30 6507 N 607.121 1.35428 -6.88915 0
M  V30 6508 H 611.961 -0.684867 -2.90023 0
M  V30 6509 H 609.498 -0.349509 -1.42888 0
M  V30 6510 H 611.456 1.60583 -3.85057 0
M  V30 6511 H 610.086 1.74222 -2.71747 0
M  V30 6512 H 609.138 -0.432317 -3.77935 0
M  V30 6513 H 610.45 -0.348347 -4.97582 0
M  V30 6514 H 609.604 1.86873 -5.77203 0
M  V30 6515 H 608.343 1.86367 -4.50687 0
M  V30 6516 H 607.348 -0.219279 -5.49363 0
M  V30 6517 H 608.573 -0.196192 -6.78817 0
M  V30 6518 H 606.519 1.9831 -6.25307 0
M  V30 6519 H 606.436 0.800657 -7.51748 0
M  V30 6520 H 607.704 1.98967 -7.53679 0
M  V30 6521 N 611.933 1.52934 -0.380664 0
M  V30 6522 C 613.349 1.59571 -0.0302429 0
M  V30 6523 C 613.549 1.39509 1.45394 0
M  V30 6524 O 612.605 1.20777 2.21741 0
M  V30 6525 C 613.918 2.96519 -0.499691 0
M  V30 6526 C 615.466 3.09672 -0.455204 0
M  V30 6527 C 615.941 4.49056 -0.900703 0
M  V30 6528 N 617.432 4.55215 -0.856367 0
M  V30 6529 C 618.167 5.61282 -1.17259 0
M  V30 6530 N 617.663 6.75035 -1.55885 0
M  V30 6531 N 619.456 5.51343 -1.0944 0
M  V30 6532 H 611.607 1.64224 -1.347 0
M  V30 6533 H 613.87 0.771033 -0.551554 0
M  V30 6534 H 613.576 3.16388 -1.53595 0
M  V30 6535 H 613.45 3.77052 0.105789 0
M  V30 6536 H 615.837 2.89504 0.571949 0
M  V30 6537 H 615.918 2.31113 -1.09638 0
M  V30 6538 H 615.562 4.69964 -1.92604 0
M  V30 6539 H 615.492 5.26068 -0.236629 0
M  V30 6540 H 617.983 3.73546 -0.572013 0
M  V30 6541 H 618.296 7.51926 -1.784 0
M  V30 6542 H 616.641 6.76388 -1.59764 0
M  V30 6543 H 619.832 4.61356 -0.791713 0
M  V30 6544 H 620.005 6.33905 -1.34417 0
M  V30 6545 N 613.412 0.11024 1.57214 0
M  V30 6546 C 614.658 -0.550684 1.9518 0
M  V30 6547 C 614.991 -1.66885 0.993122 0
M  V30 6548 O 614.266 -1.94479 0.0287907 0
M  V30 6549 C 614.549 -1.09163 3.43155 0
M  V30 6550 C 614.402 0.0225198 4.49794 0
M  V30 6551 C 615.721 -1.98527 3.92778 0
M  V30 6552 H 612.84 -0.198706 0.709708 0
M  V30 6553 H 615.482 0.184024 1.89107 0
M  V30 6554 H 613.632 -1.71775 3.48462 0
M  V30 6555 H 615.304 0.657443 4.56591 0
M  V30 6556 H 613.547 0.686868 4.28328 0
M  V30 6557 H 614.218 -0.39706 5.5057 0
M  V30 6558 H 616.694 -1.458 3.8972 0
M  V30 6559 H 615.57 -2.33298 4.96853 0
M  V30 6560 H 615.831 -2.90846 3.32958 0
M  V30 6561 N 614.89 -1.56749 -0.16351 0
M  V30 6562 C 615.853 -1.96121 -1.18613 0
M  V30 6563 C 616.853 -0.845765 -1.36761 0
M  V30 6564 O 618.043 -1.11268 -1.34033 0
M  V30 6565 C 615.175 -2.26282 -2.54969 0
M  V30 6566 H 616.368 -2.87639 -0.848764 0
M  V30 6567 H 613.921 -1.50928 -0.406251 0
M  V30 6568 H 614.656 -1.37504 -2.93706 0
M  V30 6569 H 614.441 -3.07595 -2.43162 0
M  V30 6570 H 615.931 -2.57638 -3.28653 0
M  V30 6571 N 616.368 0.432326 -1.51554 0
M  V30 6572 C 617.3 1.54357 -1.6943 0
M  V30 6573 C 618.313 1.52311 -0.574897 0
M  V30 6574 O 619.502 1.56997 -0.849369 0
M  V30 6575 C 616.602 2.93273 -1.69836 0
M  V30 6576 C 615.775 3.19768 -2.98442 0
M  V30 6577 C 614.834 4.38433 -2.90969 0
M  V30 6578 O 613.86 4.36842 -3.64908 0
M  V30 6579 N 615.062 5.42276 -2.07163 0
M  V30 6580 H 617.827 1.39426 -2.65293 0
M  V30 6581 H 615.388 0.621331 -1.49503 0
M  V30 6582 H 617.38 3.70687 -1.62399 0
M  V30 6583 H 615.95 3.01777 -0.815456 0
M  V30 6584 H 615.17 2.30607 -3.19709 0
M  V30 6585 H 616.458 3.343 -3.83563 0
M  V30 6586 H 615.856 5.46407 -1.46477 0
M  V30 6587 H 614.413 6.18524 -2.05601 0
M  V30 6588 N 617.846 1.41785 0.688094 0
M  V30 6589 C 619.074 1.44915 1.47673 0
M  V30 6590 C 619.489 0.0565786 1.88715 0
M  V30 6591 O 618.846 -0.92579 1.57275 0
M  V30 6592 C 618.897 2.36452 2.73446 0
M  V30 6593 O 618.618 3.7029 2.34131 0
M  V30 6594 C 620.119 2.48463 3.67125 0
M  V30 6595 H 617.339 0.493324 0.454832 0
M  V30 6596 H 619.883 1.86153 0.846594 0
M  V30 6597 H 618.038 1.98502 3.3268 0
M  V30 6598 H 618.452 4.19183 3.15255 0
M  V30 6599 H 619.926 3.16662 4.52138 0
M  V30 6600 H 620.403 1.51826 4.12123 0
M  V30 6601 H 621.009 2.8708 3.13792 0
M  V30 6602 N 619.324 -0.923095 1.27737 0
M  V30 6603 C 620.254 -2.04124 1.13383 0
M  V30 6604 C 621.235 -1.70066 0.0340658 0
M  V30 6605 O 622.42 -1.93068 0.209383 0
M  V30 6606 C 619.55 -3.3831 0.785097 0
M  V30 6607 C 618.504 -3.86496 1.8386 0
M  V30 6608 C 617.83 -5.1754 1.34373 0
M  V30 6609 C 619.13 -4.09381 3.24353 0
M  V30 6610 H 620.824 -2.1639 2.06919 0
M  V30 6611 H 618.37 -1.03976 0.996243 0
M  V30 6612 H 620.323 -4.16016 0.671485 0
M  V30 6613 H 619.047 -3.2607 -0.185969 0
M  V30 6614 H 617.706 -3.10987 1.9412 0
M  V30 6615 H 617.354 -5.01696 0.361989 0
M  V30 6616 H 617.054 -5.50751 2.04811 0
M  V30 6617 H 618.578 -5.97811 1.24315 0
M  V30 6618 H 619.992 -4.77641 3.17067 0
M  V30 6619 H 618.389 -4.53906 3.92542 0
M  V30 6620 H 619.459 -3.14515 3.69064 0
M  V30 6621 N 620.802 -1.09834 -1.13024 0
M  V30 6622 C 622.079 -0.749225 -1.80682 0
M  V30 6623 C 622.459 0.765171 -1.96744 0
M  V30 6624 O 621.807 1.68912 -1.53886 0
M  V30 6625 C 622.017 -1.49311 -3.15448 0
M  V30 6626 C 623.365 -1.66162 -3.90737 0
M  V30 6627 O 624.389 -1.45597 -3.25085 0
M  V30 6628 O 623.248 -2.00211 -5.08505 0
M  V30 6629 H 620.342 -0.269614 -0.781817 0
M  V30 6630 H 622.888 -1.20078 -1.19914 0
M  V30 6631 H 621.66 -2.52407 -2.99009 0
M  V30 6632 H 621.283 -1.034 -3.8392 0
M  V30 6633 N 622.28 1.30327 -0.886154 0
M  V30 6634 C 623.505 2.0079 -0.519425 0
M  V30 6635 C 623.93 1.65979 0.885013 0
M  V30 6636 O 623.288 0.877043 1.58675 0
M  V30 6637 C 623.336 3.53686 -0.702758 0
M  V30 6638 O 622.44 4.11637 0.250828 0
M  V30 6639 H 621.781 0.63171 -0.204544 0
M  V30 6640 H 624.311 1.66145 -1.19402 0
M  V30 6641 H 624.321 4.03531 -0.602207 0
M  V30 6642 H 622.996 3.78361 -1.72673 0
M  V30 6643 H 621.573 3.72755 0.103873 0
M  V30 6644 N 623.758 0.647228 1.43697 0
M  V30 6645 C 625.007 0.155552 2.01099 0
M  V30 6646 C 625.32 -1.23569 1.51624 0
M  V30 6647 O 626.526 -1.82226 2.01261 0
M  V30 6648 C 624.982 0.227296 3.59182 0
M  V30 6649 C 624.59 1.62086 4.17651 0
M  V30 6650 C 626.334 -0.207085 4.23995 0
M  V30 6651 C 624.241 1.64685 5.68008 0
M  V30 6652 H 623.171 0.0543895 0.752036 0
M  V30 6653 H 625.822 0.808386 1.64734 0
M  V30 6654 H 624.204 -0.492937 3.9292 0
M  V30 6655 H 625.378 2.36597 3.95422 0
M  V30 6656 H 623.693 2.0007 3.65186 0
M  V30 6657 H 626.29 -0.207426 5.34298 0
M  V30 6658 H 626.633 -1.23742 3.97484 0
M  V30 6659 H 627.166 0.461193 3.95118 0
M  V30 6660 H 623.905 2.65608 5.99277 0
M  V30 6661 H 623.425 0.944914 5.9231 0
M  V30 6662 H 625.104 1.38792 6.31938 0
M  V30 6663 N 625.236 -1.5273 0.388769 0
M  V30 6664 C 626.184 -2.27975 -0.461527 0
M  V30 6665 C 627.178 -1.31854 -1.06352 0
M  V30 6666 O 628.384 -1.49394 -1.00406 0
M  V30 6667 H 624.759 -0.733088 -0.16759 0
M  V30 6668 H 626.73 -2.97765 0.194579 0
M  V30 6669 C 625.479 -3.09881 -1.577 0
M  V30 6670 H 624.802 -3.83701 -1.12309 0
M  V30 6671 H 626.242 -3.6567 -2.14619 0
M  V30 6672 C 624.701 -2.22159 -2.53272 0
M  V30 6673 O 625.231 -1.84802 -3.56667 0
M  V30 6674 N 623.437 -1.8633 -2.23001 0
M  V30 6675 H 622.984 -2.16909 -1.38954 0
M  V30 6676 H 622.942 -1.27927 -2.87197 0
M  V30 6677 N 626.714 -0.118576 -1.57153 0
M  V30 6678 C 627.962 0.538461 -1.94795 0
M  V30 6679 C 628.283 1.67243 -1.00274 0
M  V30 6680 O 627.553 1.95811 -0.0589692 0
M  V30 6681 H 626.133 0.201904 -0.719197 0
M  V30 6682 H 628.795 -0.187418 -1.93997 0
M  V30 6683 H 627.891 0.933315 -2.97818 0
M  V30 6684 N 628.193 1.56834 0.155195 0
M  V30 6685 C 629.441 1.82536 0.867462 0
M  V30 6686 C 629.762 0.698168 1.82073 0
M  V30 6687 O 629.032 -0.280807 1.93877 0
M  V30 6688 H 627.612 0.673401 0.323327 0
M  V30 6689 H 630.274 1.94313 0.151156 0
M  V30 6690 H 629.37 2.77171 1.43466 0
M  V30 6691 N 629.671 -0.424282 1.51781 0
M  V30 6692 C 630.581 -1.54087 1.76902 0
M  V30 6693 C 631.597 -1.61249 0.653826 0
M  V30 6694 O 632.773 -1.78247 0.937552 0
M  V30 6695 C 629.838 -2.8996 1.90063 0
M  V30 6696 C 628.899 -2.92809 3.13945 0
M  V30 6697 C 628.132 -4.22201 3.26469 0
M  V30 6698 O 628.355 -5.15286 2.44616 0
M  V30 6699 O 627.289 -4.31599 4.1953 0
M  V30 6700 H 631.115 -1.358 2.71647 0
M  V30 6701 H 628.7 -0.608618 1.36441 0
M  V30 6702 H 630.582 -3.70575 2.0063 0
M  V30 6703 H 629.257 -3.08347 0.985067 0
M  V30 6704 H 628.164 -2.11102 3.08847 0
M  V30 6705 H 629.497 -2.79369 4.05233 0
M  V30 6706 N 631.149 -1.42148 -0.680565 0
M  V30 6707 C 632.112 -1.4488 -1.77602 0
M  V30 6708 C 633.112 -0.337209 -1.57224 0
M  V30 6709 O 634.302 -0.597778 -1.63622 0
M  V30 6710 C 631.434 -1.27483 -3.16166 0
M  V30 6711 H 632.627 -2.42412 -1.76568 0
M  V30 6712 H 630.18 -1.28511 -0.889645 0
M  V30 6713 H 630.915 -0.30851 -3.22829 0
M  V30 6714 H 630.7 -2.08037 -3.3236 0
M  V30 6715 H 632.19 -1.32265 -3.96101 0
M  V30 6716 N 632.627 0.916307 -1.28225 0
M  V30 6717 C 633.857 1.69654 -1.17902 0
M  V30 6718 C 634.265 1.87331 0.265268 0
M  V30 6719 O 633.608 1.39828 1.19137 0
M  V30 6720 C 633.67 3.11024 -1.80289 0
M  V30 6721 C 633.334 3.16643 -3.29525 0
M  V30 6722 C 634.331 2.98032 -4.25997 0
M  V30 6723 C 632.016 3.39238 -3.70436 0
M  V30 6724 C 634.01 3.01924 -5.61356 0
M  V30 6725 C 631.697 3.42762 -5.05922 0
M  V30 6726 C 632.695 3.24125 -6.01192 0
M  V30 6727 O 632.383 3.27406 -7.34208 0
M  V30 6728 H 632.115 0.537197 -0.41036 0
M  V30 6729 H 634.669 1.15547 -1.69817 0
M  V30 6730 H 632.899 3.66662 -1.22865 0
M  V30 6731 H 634.588 3.71063 -1.6452 0
M  V30 6732 H 635.354 2.80405 -3.95725 0
M  V30 6733 H 631.233 3.52791 -2.96749 0
M  V30 6734 H 634.777 2.87295 -6.35694 0
M  V30 6735 H 630.674 3.59916 -5.35846 0
M  V30 6736 H 631.442 3.43784 -7.42802 0
M  V30 6737 N 634.105 1.10431 1.1244 0
M  V30 6738 C 635.037 0.710945 2.17895 0
M  V30 6739 C 636.05 -0.252315 1.60833 0
M  V30 6740 O 637.239 -0.03679 1.78462 0
M  V30 6741 C 634.339 0.0284262 3.38888 0
M  V30 6742 C 633.512 1.01585 4.2544 0
M  V30 6743 C 632.571 0.364826 5.24934 0
M  V30 6744 O 631.597 1.01561 5.60066 0
M  V30 6745 N 632.799 -0.87674 5.73841 0
M  V30 6746 H 635.564 1.61826 2.52255 0
M  V30 6747 H 633.125 0.993132 1.27861 0
M  V30 6748 H 635.117 -0.418568 4.0253 0
M  V30 6749 H 633.687 -0.781294 3.02679 0
M  V30 6750 H 632.907 1.64111 3.58415 0
M  V30 6751 H 634.195 1.68425 4.80115 0
M  V30 6752 H 633.593 -1.42483 5.47462 0
M  V30 6753 H 632.15 -1.26688 6.39369 0
M  V30 6754 N 635.583 -1.29855 0.893053 0
M  V30 6755 C 636.53 -2.27909 0.364161 0
M  V30 6756 C 637.5 -1.56726 -0.550093 0
M  V30 6757 O 638.685 -1.84747 -0.47677 0
M  V30 6758 C 635.825 -3.42678 -0.408178 0
M  V30 6759 C 634.938 -4.28659 0.536212 0
M  V30 6760 C 634.073 -5.30599 -0.252521 0
M  V30 6761 C 633.112 -6.08234 0.686822 0
M  V30 6762 N 632.249 -7.02068 -0.0670902 0
M  V30 6763 H 637.089 -2.72531 1.20544 0
M  V30 6764 H 634.626 -1.34047 0.605779 0
M  V30 6765 H 636.584 -4.07986 -0.871962 0
M  V30 6766 H 635.214 -2.99103 -1.21397 0
M  V30 6767 H 634.266 -3.63584 1.1185 0
M  V30 6768 H 635.578 -4.8274 1.25552 0
M  V30 6769 H 634.732 -6.01694 -0.777801 0
M  V30 6770 H 633.471 -4.77233 -1.005 0
M  V30 6771 H 632.476 -5.3601 1.22366 0
M  V30 6772 H 633.701 -6.63689 1.43852 0
M  V30 6773 H 631.647 -6.5108 -0.801955 0
M  V30 6774 H 631.564 -7.53675 0.59243 0
M  V30 6775 H 632.832 -7.77392 -0.572851 0
M  V30 6776 N 637.061 -0.65484 -1.43351 0
M  V30 6777 C 638.307 -0.169142 -2.02093 0
M  V30 6778 C 638.64 1.21431 -1.51553 0
M  V30 6779 O 637.915 1.81105 -0.709317 0
M  V30 6780 C 638.198 -0.181775 -3.59641 0
M  V30 6781 C 638.051 -1.59926 -4.20409 0
M  V30 6782 C 639.37 0.480945 -4.37464 0
M  V30 6783 H 636.489 -0.0629371 -0.734308 0
M  V30 6784 H 639.131 -0.835833 -1.70628 0
M  V30 6785 H 637.281 0.385918 -3.86578 0
M  V30 6786 H 638.953 -2.21766 -4.04497 0
M  V30 6787 H 637.196 -2.14605 -3.76998 0
M  V30 6788 H 637.867 -1.55994 -5.295 0
M  V30 6789 H 640.343 -0.00208273 -4.161 0
M  V30 6790 H 639.219 0.441384 -5.47122 0
M  V30 6791 H 639.48 1.55533 -4.13838 0
M  V30 6792 N 638.539 1.52521 -0.396863 0
M  V30 6793 C 639.779 2.03583 0.182578 0
M  V30 6794 C 640.143 1.2766 1.43412 0
M  V30 6795 O 641.344 1.68884 2.09121 0
M  V30 6796 C 639.615 3.54724 0.436519 0
M  V30 6797 S 641.174 4.27598 0.985163 0
M  V30 6798 H 637.992 0.709186 0.0507529 0
M  V30 6799 H 640.594 1.87693 -0.546955 0
M  V30 6800 H 639.298 4.07567 -0.481343 0
M  V30 6801 H 638.829 3.74834 1.19427 0
M  V30 6802 H 640.844 4.41393 2.26686 0
M  V30 6803 N 640.017 0.126909 1.57088 0
M  V30 6804 C 641.294 -0.573152 1.87014 0
M  V30 6805 C 641.674 -1.84297 1.02945 0
M  V30 6806 O 641.022 -2.28232 0.110573 0
M  V30 6807 C 641.232 -0.857984 3.38289 0
M  V30 6808 C 642.58 -1.20759 4.07066 0
M  V30 6809 O 643.604 -0.947992 3.43353 0
M  V30 6810 O 642.463 -1.69516 5.19545 0
M  V30 6811 H 639.557 -0.290082 0.774456 0
M  V30 6812 H 642.103 0.162008 1.68925 0
M  V30 6813 H 640.875 0.0415286 3.91278 0
M  V30 6814 H 640.498 -1.64803 3.61837 0
M  V30 6815 N 641.495 -1.56914 -0.146875 0
M  V30 6816 C 642.405 -2.0154 -1.20079 0
M  V30 6817 C 643.421 -0.930838 -1.47008 0
M  V30 6818 O 644.597 -1.24032 -1.58676 0
M  V30 6819 C 641.662 -2.38715 -2.51428 0
M  V30 6820 C 640.723 -3.6112 -2.32145 0
M  V30 6821 C 639.956 -3.96512 -3.57231 0
M  V30 6822 O 640.179 -3.32566 -4.63418 0
M  V30 6823 O 639.113 -4.89758 -3.49887 0
M  V30 6824 H 642.939 -2.91506 -0.851924 0
M  V30 6825 H 640.524 -1.45106 -0.355607 0
M  V30 6826 H 642.406 -2.63485 -3.28867 0
M  V30 6827 H 641.081 -1.51903 -2.85845 0
M  V30 6828 H 639.988 -3.41536 -1.52656 0
M  V30 6829 H 641.321 -4.48549 -2.02644 0
M  V30 6830 N 642.974 0.416227 -1.52004 0
M  V30 6831 C 643.904 1.51365 -1.77795 0
M  V30 6832 C 644.885 1.58059 -0.628601 0
M  V30 6833 O 646.07 1.73447 -0.873478 0
M  V30 6834 C 643.2 2.89256 -1.92219 0
M  V30 6835 C 642.154 2.97415 -3.0778 0
M  V30 6836 C 641.48 4.37492 -3.07417 0
M  V30 6837 C 642.78 2.69551 -4.47369 0
M  V30 6838 H 644.474 1.30033 -2.69688 0
M  V30 6839 H 642.02 0.624112 -1.29772 0
M  V30 6840 H 643.973 3.66008 -2.08845 0
M  V30 6841 H 642.697 3.11866 -0.969917 0
M  V30 6842 H 641.356 2.23107 -2.90893 0
M  V30 6843 H 641.004 4.571 -2.09925 0
M  V30 6844 H 640.704 4.43877 -3.85029 0
M  V30 6845 H 642.228 5.16188 -3.26162 0
M  V30 6846 H 643.642 3.36028 -4.64497 0
M  V30 6847 H 642.039 2.87321 -5.26846 0
M  V30 6848 H 643.109 1.65029 -4.55953 0
M  V30 6849 N 644.452 1.42507 0.673017 0
M  V30 6850 C 645.698 1.43284 1.43519 0
M  V30 6851 C 646.031 0.049668 1.94136 0
M  V30 6852 O 645.306 -0.926369 1.71022 0
M  V30 6853 C 645.589 2.45874 2.63093 0
M  V30 6854 C 645.442 3.93388 2.18096 0
M  V30 6855 C 646.761 2.45431 3.6531 0
M  V30 6856 H 643.88 0.521752 0.520522 0
M  V30 6857 H 646.522 1.73932 0.764701 0
M  V30 6858 H 644.672 2.19869 3.20296 0
M  V30 6859 H 646.344 4.30379 1.66046 0
M  V30 6860 H 644.587 4.07169 1.49652 0
M  V30 6861 H 645.258 4.60752 3.03993 0
M  V30 6862 H 647.734 2.68561 3.17827 0
M  V30 6863 H 646.61 3.19189 4.46553 0
M  V30 6864 H 646.871 1.48092 4.16559 0
M  V30 6865 N 645.93 -0.909495 1.28709 0
M  V30 6866 C 646.893 -1.99399 1.13016 0
M  V30 6867 C 647.893 -1.60654 0.068536 0
M  V30 6868 O 649.083 -1.71334 0.314671 0
M  V30 6869 C 646.215 -3.33078 0.726085 0
M  V30 6870 H 647.408 -2.14751 2.09338 0
M  V30 6871 H 644.961 -1.09272 1.11756 0
M  V30 6872 H 645.696 -3.23428 -0.23771 0
M  V30 6873 H 645.481 -3.62562 1.49302 0
M  V30 6874 H 646.971 -4.12681 0.639058 0
M  V30 6875 N 647.408 -1.11026 -1.11852 0
M  V30 6876 C 648.648 -0.866348 -1.85132 0
M  V30 6877 C 649.012 0.597236 -1.82475 0
M  V30 6878 O 650.213 0.957744 -2.51159 0
M  V30 6879 C 648.484 -1.40721 -3.28531 0
M  V30 6880 S 650.043 -1.29964 -4.19112 0
M  V30 6881 H 646.861 -0.312899 -0.638447 0
M  V30 6882 H 649.463 -1.41691 -1.34699 0
M  V30 6883 H 648.167 -2.46631 -3.28027 0
M  V30 6884 H 647.698 -0.85349 -3.8403 0
M  V30 6885 H 649.713 -0.261333 -4.95511 0
M  V30 6886 N 648.886 1.2938 -0.899927 0
M  V30 6887 C 650.133 1.9555 -0.525963 0
M  V30 6888 C 650.461 1.70945 0.927789 0
M  V30 6889 O 649.716 1.01545 1.67293 0
M  V30 6890 C 650.015 3.49114 -0.765113 0
M  V30 6891 C 649.681 3.93796 -2.19626 0
M  V30 6892 C 648.343 4.05707 -2.58758 0
M  V30 6893 C 650.695 4.16883 -3.12823 0
M  V30 6894 C 648.023 4.38074 -3.90267 0
M  V30 6895 C 650.375 4.50725 -4.4388 0
M  V30 6896 C 649.039 4.60845 -4.82885 0
M  V30 6897 H 648.309 0.715569 -0.192463 0
M  V30 6898 H 650.956 1.53972 -1.13863 0
M  V30 6899 H 649.261 3.91738 -0.069531 0
M  V30 6900 H 650.958 3.98409 -0.455144 0
M  V30 6901 H 647.548 3.85042 -1.88256 0
M  V30 6902 H 651.732 4.07147 -2.83804 0
M  V30 6903 H 646.988 4.44112 -4.20207 0
M  V30 6904 H 651.162 4.67538 -5.16121 0
M  V30 6905 H 648.789 4.85681 -5.84823 0
M  V30 6906 N 650.364 0.662433 1.43002 0
M  V30 6907 C 651.641 0.109096 1.95296 0
M  V30 6908 C 652.021 -1.37313 1.60338 0
M  V30 6909 O 651.369 -2.1032 0.893187 0
M  V30 6910 C 651.579 0.365096 3.47085 0
M  V30 6911 C 652.927 0.274964 4.23709 0
M  V30 6912 O 653.951 0.29816 3.5495 0
M  V30 6913 O 652.81 0.206549 5.4611 0
M  V30 6914 H 649.904 -0.00429724 0.826989 0
M  V30 6915 H 652.45 0.736308 1.52894 0
M  V30 6916 H 651.222 1.39237 3.65689 0
M  V30 6917 H 650.845 -0.294733 3.96506 0
M  V30 6918 N 651.842 -1.52309 0.404946 0
M  V30 6919 C 652.79 -2.28452 -0.437321 0
M  V30 6920 C 653.784 -1.32975 -1.04948 0
M  V30 6921 O 654.99 -1.50451 -0.988159 0
M  V30 6922 H 651.365 -0.734824 -0.159805 0
M  V30 6923 H 653.336 -2.97542 0.22615 0
M  V30 6924 C 652.085 -3.11536 -1.54404 0
M  V30 6925 H 651.408 -3.84871 -1.08233 0
M  V30 6926 H 652.848 -3.67926 -2.10729 0
M  V30 6927 C 651.307 -2.24833 -2.50902 0
M  V30 6928 O 651.837 -1.88574 -3.54687 0
M  V30 6929 N 650.043 -1.88685 -2.21012 0
M  V30 6930 H 649.59 -2.18371 -1.36646 0
M  V30 6931 H 649.548 -1.30966 -2.85824 0
M  V30 6932 N 653.32 -0.135238 -1.57019 0
M  V30 6933 C 654.731 0.387521 -1.82634 0
M  V30 6934 C 655.082 1.65528 -1.05332 0
M  V30 6935 O 654.207 2.14381 -0.294926 0
M  V30 6936 C 654.802 0.709852 -3.3128 0
M  V30 6937 C 653.361 1.17718 -3.57518 0
M  V30 6938 C 652.508 0.194183 -2.76619 0
M  V30 6939 H 655.459 -0.360126 -1.5456 0
M  V30 6940 H 655.48 1.5657 -3.46794 0
M  V30 6941 H 654.992 -0.213024 -3.87515 0
M  V30 6942 H 653.093 2.1164 -3.06658 0
M  V30 6943 H 653.206 1.11128 -4.66034 0
M  V30 6944 H 651.57 0.684478 -2.4533 0
M  V30 6945 H 652.353 -0.722076 -3.3562 0
M  V30 6946 N 654.798 1.5699 0.138552 0
M  V30 6947 C 656.075 1.74741 0.87891 0
M  V30 6948 C 656.455 0.705522 1.98961 0
M  V30 6949 O 655.803 -0.274066 2.2685 0
M  V30 6950 C 656.013 3.1909 1.4136 0
M  V30 6951 C 657.361 3.81023 1.87368 0
M  V30 6952 O 658.385 3.22571 1.51084 0
M  V30 6953 O 657.244 4.83722 2.54312 0
M  V30 6954 H 654.338 0.714781 0.415953 0
M  V30 6955 H 656.884 1.69248 0.123817 0
M  V30 6956 H 655.656 3.86424 0.61579 0
M  V30 6957 H 655.279 3.29043 2.23196 0
M  V30 6958 N 656.276 -0.40816 1.52223 0
M  V30 6959 C 657.206 -1.5042 1.78595 0
M  V30 6960 C 658.187 -1.57723 0.636974 0
M  V30 6961 O 659.372 -1.72982 0.882664 0
M  V30 6962 C 656.502 -2.88232 1.93751 0
M  V30 6963 C 655.456 -2.95779 3.09352 0
M  V30 6964 C 654.782 -4.35855 3.09732 0
M  V30 6965 C 656.082 -2.67175 4.48793 0
M  V30 6966 H 657.776 -1.28601 2.70374 0
M  V30 6967 H 655.322 -0.617221 1.30101 0
M  V30 6968 H 657.275 -3.64895 2.10783 0
M  V30 6969 H 655.999 -3.11347 0.986443 0
M  V30 6970 H 654.658 -2.21561 2.92072 0
M  V30 6971 H 654.306 -4.55981 2.12346 0
M  V30 6972 H 654.006 -4.41829 3.87377 0
M  V30 6973 H 655.53 -5.14451 3.28895 0
M  V30 6974 H 656.944 -3.3356 4.66273 0
M  V30 6975 H 655.341 -2.84523 5.28362 0
M  V30 6976 H 656.411 -1.62609 4.56822 0
M  V30 6977 N 657.755 -1.42862 -0.66545 0
M  V30 6978 C 658.983 -1.47246 -1.45349 0
M  V30 6979 C 659.398 -0.0865944 -1.88601 0
M  V30 6980 O 658.755 0.900652 -1.58728 0
M  V30 6981 C 658.806 -2.40772 -2.6965 0
M  V30 6982 O 658.527 -3.73968 -2.2821 0
M  V30 6983 C 660.028 -2.54272 -3.63126 0
M  V30 6984 H 657.248 -0.500497 -0.446927 0
M  V30 6985 H 659.792 -1.87477 -0.816871 0
M  V30 6986 H 657.947 -2.0377 -3.29479 0
M  V30 6987 H 658.361 -4.24146 -3.08546 0
M  V30 6988 H 659.835 -3.23815 -4.47043 0
M  V30 6989 H 660.312 -1.58364 -4.09656 0
M  V30 6990 H 660.918 -2.92036 -3.09185 0
M  V30 6991 N 659.233 0.902656 -1.29189 0
M  V30 6992 C 660.48 1.65287 -1.16989 0
M  V30 6993 C 660.808 1.92485 0.279232 0
M  V30 6994 O 660.063 1.53143 1.21843 0
M  V30 6995 C 660.362 3.011 -1.92545 0
M  V30 6996 C 660.028 2.93521 -3.42281 0
M  V30 6997 C 658.69 2.91161 -3.83117 0
M  V30 6998 C 661.042 2.82947 -4.3771 0
M  V30 6999 C 658.37 2.76043 -5.17704 0
M  V30 7000 C 660.722 2.69368 -5.72384 0
M  V30 7001 C 659.386 2.65373 -6.12482 0
M  V30 7002 H 658.656 0.604828 -0.428094 0
M  V30 7003 H 661.303 1.05084 -1.60092 0
M  V30 7004 H 659.608 3.65153 -1.42024 0
M  V30 7005 H 661.305 3.58073 -1.80512 0
M  V30 7006 H 657.895 2.96158 -3.09819 0
M  V30 7007 H 662.079 2.83849 -4.07116 0
M  V30 7008 H 657.335 2.71352 -5.47885 0
M  V30 7009 H 661.509 2.60156 -6.45981 0
M  V30 7010 H 659.136 2.53415 -7.16718 0
M  V30 7011 N 660.711 1.11618 1.11262 0
M  V30 7012 C 661.936 0.889013 1.8738 0
M  V30 7013 C 662.361 -0.555884 1.79698 0
M  V30 7014 O 661.719 -1.39272 1.16073 0
M  V30 7015 C 661.767 1.35759 3.34069 0
M  V30 7016 O 660.871 0.530499 4.08974 0
M  V30 7017 H 660.212 0.320082 0.581759 0
M  V30 7018 H 662.742 1.48611 1.40627 0
M  V30 7019 H 662.752 1.35291 3.84916 0
M  V30 7020 H 661.427 2.40973 3.38976 0
M  V30 7021 H 660.004 0.601439 3.68018 0
M  V30 7022 N 662.189 -1.289 0.906776 0
M  V30 7023 C 663.152 -2.25777 0.394656 0
M  V30 7024 C 664.152 -1.53621 -0.475119 0
M  V30 7025 O 665.342 -1.71949 -0.279165 0
M  V30 7026 C 662.474 -3.38113 -0.43499 0
M  V30 7027 H 663.667 -2.72592 1.25033 0
M  V30 7028 H 661.22 -1.40463 0.685547 0
M  V30 7029 H 661.955 -2.96648 -1.31036 0
M  V30 7030 H 661.74 -3.91647 0.188334 0
M  V30 7031 H 663.23 -4.10168 -0.784365 0
M  V30 7032 N 663.667 -0.670007 -1.42649 0
M  V30 7033 C 665.083 -0.33911 -1.55956 0
M  V30 7034 C 665.283 1.1558 -1.65056 0
M  V30 7035 O 664.339 1.94111 -1.61485 0
M  V30 7036 C 665.652 -1.06522 -2.812 0
M  V30 7037 C 667.2 -1.04708 -2.94966 0
M  V30 7038 C 667.675 -1.75442 -4.23065 0
M  V30 7039 N 669.166 -1.72286 -4.29967 0
M  V30 7040 C 669.901 -2.23877 -5.27889 0
M  V30 7041 N 669.397 -2.83829 -6.31991 0
M  V30 7042 N 671.19 -2.14279 -5.19654 0
M  V30 7043 H 663.341 -1.6399 -1.34986 0
M  V30 7044 H 665.604 -0.690603 -0.649439 0
M  V30 7045 H 665.31 -2.12033 -2.80597 0
M  V30 7046 H 665.184 -0.627398 -3.71946 0
M  V30 7047 H 667.571 -0.000315966 -2.951 0
M  V30 7048 H 667.652 -1.52374 -2.05465 0
M  V30 7049 H 667.296 -2.80084 -4.23693 0
M  V30 7050 H 667.226 -1.25229 -5.11493 0
M  V30 7051 H 669.717 -1.28554 -3.55362 0
M  V30 7052 H 670.03 -3.20827 -7.03057 0
M  V30 7053 H 668.375 -2.87896 -6.32567 0
M  V30 7054 H 671.566 -1.67135 -4.37245 0
M  V30 7055 H 671.739 -2.54792 -5.95806 0
M  V30 7056 N 665.145 1.52092 -0.413018 0
M  V30 7057 C 666.394 2.01041 0.16287 0
M  V30 7058 C 666.707 1.30288 1.45892 0
M  V30 7059 O 667.913 1.70075 2.11629 0
M  V30 7060 C 666.369 3.58283 0.340806 0
M  V30 7061 C 665.977 4.37955 -0.943377 0
M  V30 7062 C 667.721 4.15452 0.871774 0
M  V30 7063 C 665.628 5.86847 -0.732417 0
M  V30 7064 H 664.558 0.751224 0.0646414 0
M  V30 7065 H 667.209 1.75404 -0.539059 0
M  V30 7066 H 665.591 3.80266 1.10516 0
M  V30 7067 H 666.765 4.2773 -1.71418 0
M  V30 7068 H 665.08 3.92122 -1.40105 0
M  V30 7069 H 667.677 5.24375 1.0457 0
M  V30 7070 H 668.02 3.73057 1.84755 0
M  V30 7071 H 668.553 3.97452 0.166377 0
M  V30 7072 H 665.292 6.33609 -1.67986 0
M  V30 7073 H 664.812 5.998 -0.000980058 0
M  V30 7074 H 666.491 6.45906 -0.376105 0
M  V30 7075 N 666.623 0.143563 1.56945 0
M  V30 7076 C 667.553 -0.7936 2.196 0
M  V30 7077 C 668.534 -1.25955 1.14321 0
M  V30 7078 O 669.719 -1.31773 1.42651 0
M  V30 7079 C 666.849 -2.03424 2.81489 0
M  V30 7080 C 665.803 -1.70519 3.92565 0
M  V30 7081 C 665.129 -3.01817 4.41373 0
M  V30 7082 C 666.429 -0.95449 5.13504 0
M  V30 7083 H 668.123 -0.271423 2.98167 0
M  V30 7084 H 665.669 -0.12911 1.4342 0
M  V30 7085 H 667.622 -2.69463 3.23987 0
M  V30 7086 H 666.346 -2.58008 2.00248 0
M  V30 7087 H 665.005 -1.06859 3.5068 0
M  V30 7088 H 664.653 -3.54386 3.56959 0
M  V30 7089 H 664.353 -2.80565 5.16292 0
M  V30 7090 H 665.877 -3.68934 4.86539 0
M  V30 7091 H 667.291 -1.5169 5.52868 0
M  V30 7092 H 665.688 -0.842035 5.94163 0
M  V30 7093 H 666.758 0.0544033 4.84869 0
M  V30 7094 N 668.101 -1.57061 -0.130224 0
M  V30 7095 C 669.517 -1.52103 -0.483413 0
M  V30 7096 C 669.717 -0.854752 -1.82473 0
M  V30 7097 O 668.773 -0.432342 -2.48771 0
M  V30 7098 C 670.086 -2.96872 -0.47825 0
M  V30 7099 C 671.634 -3.07902 -0.562592 0
M  V30 7100 C 672.109 -4.54211 -0.587929 0
M  V30 7101 N 673.6 -4.58621 -0.649684 0
M  V30 7102 C 674.335 -5.69227 -0.690551 0
M  V30 7103 N 673.831 -6.89358 -0.689743 0
M  V30 7104 N 675.624 -5.57304 -0.732708 0
M  V30 7105 H 667.775 -1.98764 0.748779 0
M  V30 7106 H 670.038 -0.907248 0.274965 0
M  V30 7107 H 669.744 -3.48944 0.439444 0
M  V30 7108 H 669.618 -3.53716 -1.31013 0
M  V30 7109 H 672.005 -2.5584 -1.47071 0
M  V30 7110 H 672.086 -2.54073 0.296764 0
M  V30 7111 H 671.73 -5.06915 0.316096 0
M  V30 7112 H 671.66 -5.0584 -1.46401 0
M  V30 7113 H 674.151 -3.72146 -0.656927 0
M  V30 7114 H 674.464 -7.69408 -0.723239 0
M  V30 7115 H 672.809 -6.91884 -0.657347 0
M  V30 7116 H 676 -4.62363 -0.730625 0
M  V30 7117 H 676.173 -6.43515 -0.76109 0
M  V30 7118 N 669.579 0.400081 -1.52437 0
M  V30 7119 C 670.804 1.17221 -1.71096 0
M  V30 7120 C 671.229 1.83269 -0.423565 0
M  V30 7121 O 670.587 1.70378 0.619751 0
M  V30 7122 C 670.635 2.20425 -2.85386 0
M  V30 7123 O 669.739 3.26769 -2.51586 0
M  V30 7124 H 669.08 0.341766 -0.569291 0
M  V30 7125 H 671.61 0.467772 -1.99181 0
M  V30 7126 H 671.62 2.64605 -3.10561 0
M  V30 7127 H 670.295 1.71737 -3.78786 0
M  V30 7128 H 668.872 2.87804 -2.37114 0
M  V30 7129 N 671.057 1.43213 0.657864 0
M  V30 7130 C 671.99 1.42456 1.78273 0
M  V30 7131 C 672.968 0.286598 1.60054 0
M  V30 7132 O 674.152 0.479467 1.823 0
M  V30 7133 C 671.279 1.23169 3.15511 0
M  V30 7134 C 670.325 2.40181 3.52442 0
M  V30 7135 S 671.158 4.02729 3.52944 0
M  V30 7136 C 672.314 3.85816 4.92846 0
M  V30 7137 H 672.547 2.37642 1.78644 0
M  V30 7138 H 670.08 1.30188 0.830084 0
M  V30 7139 H 672.038 1.12728 3.94719 0
M  V30 7140 H 670.699 0.295398 3.12708 0
M  V30 7141 H 669.892 2.22478 4.52239 0
M  V30 7142 H 669.494 2.47224 2.80636 0
M  V30 7143 H 671.786 3.47853 5.81381 0
M  V30 7144 H 672.729 4.85348 5.15599 0
M  V30 7145 H 673.137 3.18361 4.66162 0
M  V30 7146 N 672.536 -0.895792 1.29666 0
M  V30 7147 C 673.785 -1.64131 1.17234 0
M  V30 7148 C 674.098 -1.93665 -0.274416 0
M  V30 7149 O 675.304 -2.66472 -0.520105 0
M  V30 7150 C 673.76 -2.95764 2.05065 0
M  V30 7151 C 673.368 -2.7381 3.54587 0
M  V30 7152 C 675.112 -3.737 2.01367 0
M  V30 7153 C 673.019 -4.01194 4.34508 0
M  V30 7154 H 671.949 -0.615742 0.435175 0
M  V30 7155 H 674.6 -0.992626 1.54335 0
M  V30 7156 H 672.982 -3.61867 1.60837 0
M  V30 7157 H 674.156 -2.16277 4.06892 0
M  V30 7158 H 672.471 -2.09265 3.59996 0
M  V30 7159 H 675.068 -4.68152 2.58337 0
M  V30 7160 H 675.411 -4.04245 0.994575 0
M  V30 7161 H 675.944 -3.14444 2.43659 0
M  V30 7162 H 672.683 -3.75813 5.37071 0
M  V30 7163 H 672.203 -4.58272 3.86971 0
M  V30 7164 H 673.882 -4.69307 4.45376 0
M  V30 7165 N 674.014 -1.12206 -1.10668 0
M  V30 7166 C 675.291 -0.787382 -1.79052 0
M  V30 7167 C 675.671 0.723267 -1.98323 0
M  V30 7168 O 675.019 1.6561 -1.57434 0
M  V30 7169 C 675.229 -1.55968 -3.1221 0
M  V30 7170 C 676.577 -1.74413 -3.87125 0
M  V30 7171 O 677.601 -1.5246 -3.21923 0
M  V30 7172 O 676.46 -2.10952 -5.04144 0
M  V30 7173 H 673.554 -0.286137 -0.775922 0
M  V30 7174 H 676.1 -1.22595 -1.1734 0
M  V30 7175 H 674.872 -2.58692 -2.93588 0
M  V30 7176 H 674.495 -1.1152 -3.8164 0
M  V30 7177 N 675.492 1.28418 -0.913599 0
M  V30 7178 C 676.72 1.99106 -0.562536 0
M  V30 7179 C 677.135 1.68273 0.856137 0
M  V30 7180 O 676.492 0.935401 1.56705 0
M  V30 7181 C 676.543 3.5338 -0.761903 0
M  V30 7182 O 676.264 3.83127 -2.12475 0
M  V30 7183 C 677.765 4.41328 -0.417651 0
M  V30 7184 H 674.985 0.635798 -0.214481 0
M  V30 7185 H 677.529 1.63618 -1.22676 0
M  V30 7186 H 675.684 3.8713 -0.144676 0
M  V30 7187 H 676.098 4.77763 -2.16431 0
M  V30 7188 H 677.572 5.48642 -0.607919 0
M  V30 7189 H 678.049 4.34422 0.646108 0
M  V30 7190 H 678.655 4.13074 -1.01241 0
M  V30 7191 N 676.97 0.677563 1.42291 0
M  V30 7192 C 678.218 0.200578 2.01102 0
M  V30 7193 C 678.539 -1.19803 1.53858 0
M  V30 7194 O 677.809 -1.80496 0.761439 0
M  V30 7195 H 676.389 0.0711634 0.743603 0
M  V30 7196 H 679.051 0.874691 1.7417 0
M  V30 7197 H 678.147 0.204 3.11433 0
M  V30 7198 N 678.448 -1.51871 0.421078 0
M  V30 7199 C 679.697 -2.01125 -0.152206 0
M  V30 7200 C 680.01 -1.3106 -1.45199 0
M  V30 7201 O 681.216 -1.71195 -2.10724 0
M  V30 7202 C 679.672 -3.58458 -0.3218 0
M  V30 7203 C 679.28 -4.37448 0.96659 0
M  V30 7204 C 681.024 -4.15908 -0.84973 0
M  V30 7205 C 678.931 -5.86451 0.763529 0
M  V30 7206 H 677.861 -0.751556 -0.0606565 0
M  V30 7207 H 680.512 -1.75115 0.548354 0
M  V30 7208 H 678.894 -3.80847 -1.08498 0
M  V30 7209 H 680.068 -4.26814 1.73684 0
M  V30 7210 H 678.383 -3.91373 1.42183 0
M  V30 7211 H 680.98 -5.24922 -1.01788 0
M  V30 7212 H 681.323 -3.74031 -1.82774 0
M  V30 7213 H 681.856 -3.97535 -0.145297 0
M  V30 7214 H 678.595 -6.3271 1.71344 0
M  V30 7215 H 678.115 -5.99791 0.0327889 0
M  V30 7216 H 679.794 -6.45697 0.410354 0
M  V30 7217 N 679.926 -0.151884 -1.56866 0
M  V30 7218 C 681.174 0.497021 -1.95893 0
M  V30 7219 C 681.495 1.65078 -1.03799 0
M  V30 7220 O 680.765 1.95642 -0.10049 0
M  V30 7221 H 679.345 0.186603 -0.723318 0
M  V30 7222 H 682.007 -0.228525 -1.93556 0
M  V30 7223 H 681.103 0.869933 -2.99731 0
M  V30 7224 N 681.404 1.57128 0.121893 0
M  V30 7225 C 682.652 1.84335 0.828548 0
M  V30 7226 C 682.973 0.736632 1.80551 0
M  V30 7227 O 682.243 -0.23962 1.94429 0
M  V30 7228 H 680.823 0.680108 0.30897 0
M  V30 7229 H 683.485 1.9459 0.109906 0
M  V30 7230 H 682.581 2.80152 1.37554 0
M  V30 7231 N 682.882 -0.391992 1.52647 0
M  V30 7232 C 684.11 -1.1586 1.71418 0
M  V30 7233 C 684.525 -1.8381 0.431216 0
M  V30 7234 O 683.882 -1.7256 -0.594085 0
M  V30 7235 C 683.933 -2.20888 2.86165 0
M  V30 7236 O 683.654 -1.5571 4.09495 0
M  V30 7237 C 685.155 -3.103 3.1659 0
M  V30 7238 H 682.375 -0.347494 0.574011 0
M  V30 7239 H 684.919 -0.458972 1.99283 0
M  V30 7240 H 683.074 -2.86492 2.6077 0
M  V30 7241 H 683.488 -2.25474 4.73563 0
M  V30 7242 H 684.962 -3.8003 4.00351 0
M  V30 7243 H 685.439 -3.73639 2.30848 0
M  V30 7244 H 686.045 -2.50345 3.43813 0
M  V30 7245 N 684.36 -1.4356 -0.65026 0
M  V30 7246 C 685.608 -1.45046 -1.40734 0
M  V30 7247 C 685.929 -0.0769822 -1.94848 0
M  V30 7248 O 685.199 0.888098 -1.74613 0
M  V30 7249 H 683.779 -0.534034 -0.522318 0
M  V30 7250 H 686.441 -1.79186 -0.766703 0
M  V30 7251 H 685.537 -2.16476 -2.24822 0
M  V30 7252 N 685.838 0.888903 -1.30139 0
M  V30 7253 C 686.785 1.99422 -1.16188 0
M  V30 7254 C 687.755 1.66017 -0.0523869 0
M  V30 7255 O 688.94 1.89506 -0.221864 0
M  V30 7256 C 686.08 3.34325 -0.855612 0
M  V30 7257 C 685.193 3.80445 -2.0466 0
M  V30 7258 C 684.328 5.03975 -1.67876 0
M  V30 7259 C 683.367 5.42492 -2.83493 0
M  V30 7260 N 682.504 6.57206 -2.47032 0
M  V30 7261 H 687.344 2.10687 -2.10749 0
M  V30 7262 H 684.881 1.03165 -1.04859 0
M  V30 7263 H 686.839 4.11968 -0.658681 0
M  V30 7264 H 685.469 3.22756 0.0531155 0
M  V30 7265 H 684.521 2.98745 -2.3549 0
M  V30 7266 H 685.833 4.04933 -2.91257 0
M  V30 7267 H 684.987 5.89232 -1.44535 0
M  V30 7268 H 683.726 4.8135 -0.784431 0
M  V30 7269 H 682.731 4.55764 -3.07505 0
M  V30 7270 H 683.956 5.67093 -3.73607 0
M  V30 7271 H 681.902 6.36164 -1.601 0
M  V30 7272 H 681.819 6.81543 -3.27161 0
M  V30 7273 H 683.087 7.45704 -2.27038 0
M  V30 7274 N 687.317 1.12792 1.10072 0
M  V30 7275 C 688.28 0.802264 2.14701 0
M  V30 7276 C 689.28 -0.18515 1.59731 0
M  V30 7277 O 690.47 0.041109 1.74151 0
M  V30 7278 C 687.602 0.19285 3.40354 0
M  V30 7279 H 688.795 1.72932 2.45019 0
M  V30 7280 H 686.348 0.931662 1.25498 0
M  V30 7281 H 687.083 -0.743748 3.15656 0
M  V30 7282 H 686.868 0.903827 3.81541 0
M  V30 7283 H 688.358 -0.0183704 4.17596 0
M  V30 7284 N 688.795 -1.27931 0.920396 0
M  V30 7285 C 690.042 -1.94689 0.557007 0
M  V30 7286 C 690.37 -1.724 -0.900476 0
M  V30 7287 O 689.625 -1.04194 -1.65657 0
M  V30 7288 C 689.924 -3.47853 0.820558 0
M  V30 7289 C 689.59 -3.90252 2.25863 0
M  V30 7290 C 688.252 -4.01539 2.65179 0
M  V30 7291 C 690.604 -4.11853 3.19415 0
M  V30 7292 C 687.932 -4.3181 3.97187 0
M  V30 7293 C 690.284 -4.43606 4.50995 0
M  V30 7294 C 688.948 -4.53105 4.90155 0
M  V30 7295 H 688.218 -0.712416 0.203823 0
M  V30 7296 H 690.865 -1.52142 1.16298 0
M  V30 7297 H 689.17 -3.91578 0.131844 0
M  V30 7298 H 690.867 -3.97634 0.51847 0
M  V30 7299 H 687.457 -3.81999 1.94358 0
M  V30 7300 H 691.641 -4.0258 2.90246 0
M  V30 7301 H 686.897 -4.37371 4.2722 0
M  V30 7302 H 691.071 -4.59268 5.23494 0
M  V30 7303 H 688.698 -4.76315 5.92476 0
M  V30 7304 N 690.273 -0.685099 -1.4193 0
M  V30 7305 C 691.236 -0.0222632 -2.29189 0
M  V30 7306 C 692.236 0.7186 -1.4385 0
M  V30 7307 O 693.426 0.555058 -1.6512 0
M  V30 7308 C 690.558 0.979013 -3.2654 0
M  V30 7309 H 691.751 -0.790424 -2.89296 0
M  V30 7310 H 689.304 -0.448012 -1.49742 0
M  V30 7311 H 690.039 1.77531 -2.71392 0
M  V30 7312 H 689.824 0.451037 -3.89497 0
M  V30 7313 H 691.314 1.44091 -3.91954 0
M  V30 7314 N 691.751 1.51645 -0.429126 0
M  V30 7315 C 692.661 2.31288 0.392809 0
M  V30 7316 C 693.677 1.39852 1.03525 0
M  V30 7317 O 694.853 1.72926 1.03241 0
M  V30 7318 C 691.918 3.13347 1.48372 0
M  V30 7319 C 690.979 4.20551 0.862268 0
M  V30 7320 C 690.212 4.98688 1.9012 0
M  V30 7321 O 690.435 4.77359 3.12225 0
M  V30 7322 O 689.369 5.83005 1.4963 0
M  V30 7323 H 693.195 3.02609 -0.257138 0
M  V30 7324 H 690.78 1.48163 -0.191851 0
M  V30 7325 H 692.662 3.64387 2.1166 0
M  V30 7326 H 691.337 2.44799 2.1179 0
M  V30 7327 H 690.244 3.73609 0.191568 0
M  V30 7328 H 691.577 4.91449 0.271704 0
M  V30 7329 N 693.229 0.160201 1.56784 0
M  V30 7330 C 694.192 -0.760405 2.16219 0
M  V30 7331 C 695.192 -1.16595 1.10735 0
M  V30 7332 O 696.382 -1.08472 1.36306 0
M  V30 7333 C 693.514 -2.03358 2.73603 0
M  V30 7334 H 694.707 -0.243173 2.98912 0
M  V30 7335 H 692.26 -0.0893139 1.56045 0
M  V30 7336 H 692.995 -2.59416 1.94612 0
M  V30 7337 H 692.78 -1.75186 3.50788 0
M  V30 7338 H 694.27 -2.69081 3.19351 0
M  V30 7339 N 694.707 -1.5719 -0.113559 0
M  V30 7340 C 695.937 -1.89053 -0.833212 0
M  V30 7341 C 696.345 -0.750139 -1.73694 0
M  V30 7342 O 695.688 0.287808 -1.81431 0
M  V30 7343 C 695.75 -3.15986 -1.71443 0
M  V30 7344 C 695.414 -4.46271 -0.984449 0
M  V30 7345 C 696.411 -5.18897 -0.322741 0
M  V30 7346 C 694.096 -4.92963 -0.964011 0
M  V30 7347 C 696.09 -6.3644 0.349646 0
M  V30 7348 C 693.777 -6.10422 -0.287828 0
M  V30 7349 C 694.775 -6.82009 0.36784 0
M  V30 7350 O 694.463 -7.97233 1.03322 0
M  V30 7351 H 694.195 -0.630225 -0.244526 0
M  V30 7352 H 696.749 -2.05152 -0.100847 0
M  V30 7353 H 694.979 -2.95984 -2.48858 0
M  V30 7354 H 696.668 -3.33826 -2.309 0
M  V30 7355 H 697.434 -4.83875 -0.330114 0
M  V30 7356 H 693.313 -4.37143 -1.46379 0
M  V30 7357 H 696.857 -6.92254 0.861996 0
M  V30 7358 H 692.754 -6.449 -0.278237 0
M  V30 7359 H 693.522 -8.13105 0.938247 0
M  V30 7360 N 696.185 0.383891 -1.52853 0
M  V30 7361 C 697.601 0.724316 -1.42218 0
M  V30 7362 C 697.801 1.93943 -0.546654 0
M  V30 7363 O 696.857 2.5249 -0.0220562 0
M  V30 7364 C 698.17 0.954635 -2.85144 0
M  V30 7365 C 699.718 1.05579 -2.94656 0
M  V30 7366 C 700.193 1.3187 -4.38605 0
M  V30 7367 N 701.684 1.38681 -4.41952 0
M  V30 7368 C 702.419 1.60699 -5.50421 0
M  V30 7369 N 701.915 1.80154 -6.68967 0
M  V30 7370 N 703.708 1.6292 -5.37972 0
M  V30 7371 H 695.859 -0.4156 -2.08294 0
M  V30 7372 H 698.122 -0.123776 -0.939885 0
M  V30 7373 H 697.828 0.133829 -3.51445 0
M  V30 7374 H 697.702 1.86788 -3.27704 0
M  V30 7375 H 700.089 1.86716 -2.2852 0
M  V30 7376 H 700.17 0.120338 -2.55517 0
M  V30 7377 H 699.814 0.512416 -5.05309 0
M  V30 7378 H 699.744 2.26708 -4.75301 0
M  V30 7379 H 702.235 1.25334 -3.56511 0
M  V30 7380 H 702.548 1.96476 -7.47407 0
M  V30 7381 H 700.893 1.77368 -6.71986 0
M  V30 7382 H 704.084 1.47276 -4.44328 0
M  V30 7383 H 704.257 1.79739 -6.22574 0
M  V30 7384 N 697.663 1.43903 0.642637 0
M  V30 7385 C 698.611 1.50164 1.77634 0
M  V30 7386 C 699.605 0.374294 1.65213 0
M  V30 7387 O 700.811 0.548748 1.71431 0
M  V30 7388 H 697.186 0.470974 0.586249 0
M  V30 7389 H 699.157 2.45603 1.69474 0
M  V30 7390 C 697.906 1.45196 3.15933 0
M  V30 7391 H 697.229 2.31253 3.26132 0
M  V30 7392 H 698.669 1.53638 3.95185 0
M  V30 7393 C 697.128 0.171043 3.36466 0
M  V30 7394 O 697.658 -0.763413 3.94379 0
M  V30 7395 N 695.864 0.077847 2.90496 0
M  V30 7396 H 695.411 0.8391 2.43551 0
M  V30 7397 H 695.369 -0.778473 3.0461 0
M  V30 7398 N 699.141 -0.881989 1.30609 0
M  V30 7399 C 700.071 -2.00413 1.1982 0
M  V30 7400 C 701.052 -1.69871 0.0881538 0
M  V30 7401 O 702.237 -1.92304 0.2707 0
M  V30 7402 C 699.367 -3.35641 0.89233 0
M  V30 7403 C 698.321 -3.80451 1.96064 0
M  V30 7404 C 697.647 -5.13003 1.5077 0
M  V30 7405 C 698.947 -3.98855 3.37213 0
M  V30 7406 H 700.641 -2.09698 2.13699 0
M  V30 7407 H 698.187 -1.00754 1.02882 0
M  V30 7408 H 700.14 -4.13669 0.803497 0
M  V30 7409 H 698.864 -3.26497 -0.0821381 0
M  V30 7410 H 697.523 -3.04654 2.03916 0
M  V30 7411 H 697.171 -5.0029 0.521417 0
M  V30 7412 H 696.871 -5.43956 2.22229 0
M  V30 7413 H 698.395 -5.93554 1.43271 0
M  V30 7414 H 699.809 -4.67312 3.32103 0
M  V30 7415 H 698.206 -4.41188 4.06784 0
M  V30 7416 H 699.276 -3.02614 3.78883 0
M  V30 7417 N 700.619 -1.13374 -1.09472 0
M  V30 7418 C 701.549 -0.833268 -2.18126 0
M  V30 7419 C 702.53 0.207169 -1.68834 0
M  V30 7420 O 703.715 0.0662012 -1.94087 0
M  V30 7421 C 700.845 -0.297979 -3.46019 0
M  V30 7422 C 699.799 -1.27261 -4.08642 0
M  V30 7423 C 699.125 -0.597104 -5.31356 0
M  V30 7424 C 700.425 -2.63095 -4.51197 0
M  V30 7425 H 702.119 -1.74182 -2.43518 0
M  V30 7426 H 699.665 -0.838921 -1.17039 0
M  V30 7427 H 701.618 -0.0754444 -4.21332 0
M  V30 7428 H 700.342 0.645959 -3.20148 0
M  V30 7429 H 699.001 -1.48113 -3.35348 0
M  V30 7430 H 698.649 0.352293 -5.01765 0
M  V30 7431 H 698.349 -1.24734 -5.74208 0
M  V30 7432 H 699.873 -0.38384 -6.09392 0
M  V30 7433 H 701.287 -2.46214 -5.17737 0
M  V30 7434 H 699.684 -3.2429 -5.04932 0
M  V30 7435 H 700.754 -3.20793 -3.6362 0
M  V30 7436 N 702.098 1.27442 -0.927168 0
M  V30 7437 C 703.514 1.46754 -0.627329 0
M  V30 7438 C 703.714 1.83902 0.823549 0
M  V30 7439 O 702.77 1.95215 1.60148 0
M  V30 7440 C 704.083 2.56045 -1.57674 0
M  V30 7441 C 705.631 2.69906 -1.58491 0
M  V30 7442 C 706.106 3.82355 -2.52128 0
M  V30 7443 N 707.597 3.89728 -2.50332 0
M  V30 7444 C 708.332 4.76155 -3.19475 0
M  V30 7445 N 707.828 5.67073 -3.97995 0
M  V30 7446 N 709.621 4.6988 -3.08496 0
M  V30 7447 H 701.772 1.01613 -1.86517 0
M  V30 7448 H 704.035 0.507443 -0.800753 0
M  V30 7449 H 703.741 2.35542 -2.61176 0
M  V30 7450 H 703.615 3.53423 -1.31804 0
M  V30 7451 H 706.002 2.89792 -0.557208 0
M  V30 7452 H 706.083 1.73018 -1.8841 0
M  V30 7453 H 705.727 3.63224 -3.55008 0
M  V30 7454 H 705.657 4.7867 -2.19505 0
M  V30 7455 H 708.148 3.24717 -1.93306 0
M  V30 7456 H 708.461 6.2988 -4.4774 0
M  V30 7457 H 706.806 5.6687 -4.02098 0
M  V30 7458 H 709.997 3.97848 -2.46646 0
M  V30 7459 H 710.17 5.37017 -3.62652 0
M  V30 7460 N 703.576 0.692616 1.41565 0
M  V30 7461 C 704.486 0.0258451 2.34586 0
M  V30 7462 C 705.502 -0.769324 1.56069 0
M  V30 7463 O 706.678 -0.707563 1.88562 0
M  V30 7464 C 703.743 -0.901289 3.3478 0
M  V30 7465 C 702.804 -0.0986579 4.29187 0
M  V30 7466 C 702.037 -0.981634 5.24595 0
M  V30 7467 O 702.26 -2.22115 5.25377 0
M  V30 7468 O 701.194 -0.432892 6.00341 0
M  V30 7469 H 705.02 0.792537 2.93177 0
M  V30 7470 H 702.605 0.452935 1.42369 0
M  V30 7471 H 704.487 -1.43302 3.96286 0
M  V30 7472 H 703.162 -1.64752 2.78637 0
M  V30 7473 H 702.069 0.477604 3.71039 0
M  V30 7474 H 703.402 0.608848 4.8842 0
M  V30 7475 N 705.054 -1.51416 0.437162 0
M  V30 7476 C 705.964 -2.31493 -0.380537 0
M  V30 7477 C 706.98 -1.40399 -1.02782 0
M  V30 7478 O 708.156 -1.73471 -1.02323 0
M  V30 7479 C 705.221 -3.1413 -1.46709 0
M  V30 7480 C 704.282 -4.21003 -0.839953 0
M  V30 7481 C 703.515 -4.9969 -1.87473 0
M  V30 7482 O 703.738 -4.79008 -3.09689 0
M  V30 7483 O 702.672 -5.8379 -1.46536 0
M  V30 7484 H 706.498 -3.02469 0.273183 0
M  V30 7485 H 704.083 -1.48059 0.199706 0
M  V30 7486 H 705.965 -3.65505 -2.09724 0
M  V30 7487 H 704.64 -2.45919 -2.10489 0
M  V30 7488 H 703.547 -3.73706 -0.171752 0
M  V30 7489 H 704.88 -4.91587 -0.245638 0
M  V30 7490 N 706.532 -0.168513 -1.56696 0
M  V30 7491 C 707.943 0.348694 -1.83415 0
M  V30 7492 C 708.294 1.63257 -1.0882 0
M  V30 7493 O 707.419 2.13707 -0.340333 0
M  V30 7494 C 708.014 0.639423 -3.32711 0
M  V30 7495 C 706.573 1.10108 -3.59935 0
M  V30 7496 C 705.72 0.135464 -2.76969 0
M  V30 7497 H 708.671 -0.392829 -1.53761 0
M  V30 7498 H 708.692 1.49179 -3.50037 0
M  V30 7499 H 708.204 -0.295173 -3.86976 0
M  V30 7500 H 706.305 2.05088 -3.11079 0
M  V30 7501 H 706.418 1.01218 -4.68286 0
M  V30 7502 H 704.782 0.632286 -2.46727 0
M  V30 7503 H 705.565 -0.793104 -3.34013 0
M  V30 7504 N 708.01 1.57248 0.105221 0
M  V30 7505 C 708.94 2.04374 1.12931 0
M  V30 7506 C 709.921 0.93074 1.42377 0
M  V30 7507 O 711.106 1.20136 1.52581 0
M  V30 7508 C 708.236 2.45967 2.45189 0
M  V30 7509 C 707.19 3.60838 2.30174 0
M  V30 7510 C 706.516 3.88374 3.67518 0
M  V30 7511 C 707.816 4.92084 1.75073 0
M  V30 7512 H 709.51 2.9018 0.737287 0
M  V30 7513 H 707.056 1.39601 0.353211 0
M  V30 7514 H 709.009 2.77542 3.17094 0
M  V30 7515 H 707.733 1.57148 2.86308 0
M  V30 7516 H 706.392 3.29493 1.60716 0
M  V30 7517 H 706.04 2.96739 4.06147 0
M  V30 7518 H 705.74 4.65703 3.58321 0
M  V30 7519 H 707.264 4.22415 4.40906 0
M  V30 7520 H 708.678 5.22106 2.36809 0
M  V30 7521 H 707.075 5.73507 1.76662 0
M  V30 7522 H 708.145 4.79684 0.709347 0
M  V30 7523 N 709.488 -0.375779 1.53054 0
M  V30 7524 C 710.398 -1.48381 1.81715 0
M  V30 7525 C 711.414 -1.59087 0.704795 0
M  V30 7526 O 712.59 -1.75174 0.993785 0
M  V30 7527 C 709.655 -2.83767 1.99192 0
M  V30 7528 C 708.716 -2.82673 3.23102 0
M  V30 7529 C 707.949 -4.11601 3.39736 0
M  V30 7530 O 708.172 -5.07243 2.60885 0
M  V30 7531 O 707.106 -4.18034 4.33049 0
M  V30 7532 H 710.932 -1.27089 2.7583 0
M  V30 7533 H 708.517 -0.564902 1.38308 0
M  V30 7534 H 710.399 -3.64004 2.12318 0
M  V30 7535 H 709.074 -3.05057 1.08267 0
M  V30 7536 H 707.981 -2.0117 3.15407 0
M  V30 7537 H 709.314 -2.66335 4.13916 0
M  V30 7538 N 710.966 -1.44241 -0.634997 0
M  V30 7539 C 712.215 -1.46102 -1.39058 0
M  V30 7540 C 712.528 -0.0959909 -1.95364 0
M  V30 7541 O 713.734 0.00788751 -2.71499 0
M  V30 7542 C 712.19 -2.57195 -2.51751 0
M  V30 7543 C 711.798 -3.99888 -2.01974 0
M  V30 7544 C 713.542 -2.68272 -3.28984 0
M  V30 7545 C 711.449 -5.02412 -3.11987 0
M  V30 7546 H 710.379 -0.543556 -0.522554 0
M  V30 7547 H 713.03 -1.70294 -0.683538 0
M  V30 7548 H 711.412 -2.26237 -3.25012 0
M  V30 7549 H 712.586 -4.40396 -1.35604 0
M  V30 7550 H 710.901 -3.93019 -1.37568 0
M  V30 7551 H 713.498 -3.42042 -4.10988 0
M  V30 7552 H 713.841 -1.73957 -3.78212 0
M  V30 7553 H 714.374 -2.98622 -2.62812 0
M  V30 7554 H 711.113 -5.98342 -2.67707 0
M  V30 7555 H 710.633 -4.66501 -3.77011 0
M  V30 7556 H 712.312 -5.25939 -3.76825 0
M  V30 7557 N 712.444 0.87505 -1.31075 0
M  V30 7558 C 713.374 1.99775 -1.20881 0
M  V30 7559 C 714.355 1.69822 -0.0971612 0
M  V30 7560 O 715.54 1.92158 -0.280895 0
M  V30 7561 C 712.67 3.35163 -0.910118 0
M  V30 7562 C 711.624 3.79406 -1.98078 0
M  V30 7563 C 710.95 5.12197 -1.53488 0
M  V30 7564 C 712.25 3.97061 -3.39323 0
M  V30 7565 H 713.944 2.08562 -2.14808 0
M  V30 7566 H 711.49 1.00207 -1.03415 0
M  V30 7567 H 713.443 4.13237 -0.825423 0
M  V30 7568 H 712.167 3.26536 0.064822 0
M  V30 7569 H 710.826 3.03568 -2.05528 0
M  V30 7570 H 710.474 5.00007 -0.547941 0
M  V30 7571 H 710.174 5.4277 -2.2511 0
M  V30 7572 H 711.698 5.92785 -1.46417 0
M  V30 7573 H 713.112 4.65545 -3.34576 0
M  V30 7574 H 711.509 4.39025 -4.09118 0
M  V30 7575 H 712.579 3.00601 -3.80483 0
M  V30 7576 N 713.922 1.13953 1.08869 0
M  V30 7577 C 715.338 0.878924 1.33218 0
M  V30 7578 C 715.538 -0.482478 1.95638 0
M  V30 7579 O 714.594 -1.22778 2.2064 0
M  V30 7580 C 715.907 2.00798 2.23832 0
M  V30 7581 C 717.455 2.04073 2.37325 0
M  V30 7582 C 717.93 3.16258 3.31278 0
M  V30 7583 N 719.421 3.15805 3.38853 0
M  V30 7584 C 720.156 3.99249 4.11567 0
M  V30 7585 N 719.652 4.92721 4.87029 0
M  V30 7586 N 721.445 3.87327 4.0735 0
M  V30 7587 H 713.596 2.01645 0.66731 0
M  V30 7588 H 715.859 0.878395 0.356547 0
M  V30 7589 H 715.565 2.98986 1.85203 0
M  V30 7590 H 715.439 1.92704 3.24261 0
M  V30 7591 H 717.826 1.06495 2.75214 0
M  V30 7592 H 717.907 2.16239 1.36654 0
M  V30 7593 H 717.551 4.14079 2.9411 0
M  V30 7594 H 717.481 3.0133 4.31866 0
M  V30 7595 H 719.972 2.48102 2.8505 0
M  V30 7596 H 720.285 5.52867 5.39961 0
M  V30 7597 H 718.63 4.96723 4.86098 0
M  V30 7598 H 721.821 3.13627 3.475 0
M  V30 7599 H 721.994 4.52585 4.63757 0
M  V30 7600 N 715.4 -1.26948 0.933913 0
M  V30 7601 C 716.31 -2.30366 0.443671 0
M  V30 7602 C 717.326 -1.67284 -0.478745 0
M  V30 7603 O 718.502 -1.98156 -0.360043 0
M  V30 7604 C 715.567 -3.45485 -0.289974 0
M  V30 7605 C 714.628 -4.24069 0.668114 0
M  V30 7606 C 713.861 -5.33691 -0.0306138 0
M  V30 7607 O 714.084 -5.5656 -1.24888 0
M  V30 7608 O 713.018 -5.98441 0.644384 0
M  V30 7609 H 716.844 -2.74349 1.30254 0
M  V30 7610 H 714.429 -1.32012 0.699506 0
M  V30 7611 H 716.311 -4.15486 -0.70353 0
M  V30 7612 H 714.986 -3.03546 -1.12435 0
M  V30 7613 H 713.893 -3.56579 1.13147 0
M  V30 7614 H 715.226 -4.69739 1.46989 0
M  V30 7615 N 716.879 -0.700114 -1.41195 0
M  V30 7616 C 717.789 -0.0382854 -2.34569 0
M  V30 7617 C 718.805 0.761036 -1.56474 0
M  V30 7618 O 719.981 0.697553 -1.88934 0
M  V30 7619 C 717.046 0.883522 -3.35253 0
M  V30 7620 C 716.107 0.0758957 -4.29233 0
M  V30 7621 C 715.34 0.9538 -5.25108 0
M  V30 7622 O 715.563 2.19326 -5.26547 0
M  V30 7623 O 714.497 0.401049 -6.00562 0
M  V30 7624 H 718.323 -0.808073 -2.92752 0
M  V30 7625 H 715.908 -0.460479 -1.42127 0
M  V30 7626 H 717.79 1.41199 -3.9704 0
M  V30 7627 H 716.465 1.63272 -2.79506 0
M  V30 7628 H 715.372 -0.497274 -3.7078 0
M  V30 7629 H 716.705 -0.634741 -4.8809 0
M  V30 7630 N 718.357 1.51182 -0.445186 0
M  V30 7631 C 719.634 1.9478 0.178965 0
M  V30 7632 C 720.014 1.38428 1.59376 0
M  V30 7633 O 719.362 0.574552 2.21159 0
M  V30 7634 C 719.572 3.48683 0.148711 0
M  V30 7635 C 720.92 4.23152 0.35042 0
M  V30 7636 O 721.944 3.55479 0.226474 0
M  V30 7637 O 720.803 5.4322 0.597893 0
M  V30 7638 H 717.897 0.817387 0.12573 0
M  V30 7639 H 720.443 1.62051 -0.503729 0
M  V30 7640 H 719.215 3.82176 -0.84009 0
M  V30 7641 H 718.838 3.87875 0.873979 0
M  V30 7642 N 719.835 0.176821 1.56605 0
M  V30 7643 C 721.082 -0.466715 1.97048 0
M  V30 7644 C 721.41 -1.6288 1.06302 0
M  V30 7645 O 720.665 -1.95453 0.0982571 0
M  V30 7646 C 720.964 -0.986208 3.43524 0
M  V30 7647 C 720.63 0.0605667 4.50859 0
M  V30 7648 C 719.292 0.348242 4.79938 0
M  V30 7649 C 721.644 0.770794 5.15469 0
M  V30 7650 C 718.972 1.35144 5.70923 0
M  V30 7651 C 721.324 1.76301 6.07537 0
M  V30 7652 C 719.988 2.05808 6.3498 0
M  V30 7653 H 719.258 -0.170783 0.721051 0
M  V30 7654 H 721.905 0.269942 1.89588 0
M  V30 7655 H 720.21 -1.80079 3.47964 0
M  V30 7656 H 721.907 -1.49323 3.72161 0
M  V30 7657 H 718.497 -0.173823 4.28247 0
M  V30 7658 H 722.681 0.56176 4.9311 0
M  V30 7659 H 717.937 1.58616 5.90467 0
M  V30 7660 H 722.111 2.31868 6.56666 0
M  V30 7661 H 719.738 2.8369 7.05283 0
M  V30 7662 N 721.313 -1.57302 -0.09688 0
M  V30 7663 C 722.559 -1.86273 -0.801885 0
M  V30 7664 C 722.892 -0.765694 -1.78468 0
M  V30 7665 O 722.167 0.226495 -1.93177 0
M  V30 7666 C 722.45 -3.25876 -1.53221 0
M  V30 7667 C 722.303 -4.46205 -0.567529 0
M  V30 7668 C 723.622 -3.63352 -2.48321 0
M  V30 7669 H 720.741 -0.67752 -0.29006 0
M  V30 7670 H 723.383 -1.89887 -0.0655577 0
M  V30 7671 H 721.533 -3.22926 -2.15988 0
M  V30 7672 H 723.205 -4.6127 0.0529982 0
M  V30 7673 H 721.448 -4.33636 0.119233 0
M  V30 7674 H 722.119 -5.40608 -1.11564 0
M  V30 7675 H 724.595 -3.67234 -1.95648 0
M  V30 7676 H 723.471 -4.61968 -2.9644 0
M  V30 7677 H 723.732 -2.91941 -3.31998 0
M  V30 7678 N 722.791 0.367657 -1.53252 0
M  V30 7679 C 723.754 1.43308 -1.78873 0
M  V30 7680 C 724.754 1.46671 -0.659115 0
M  V30 7681 O 725.944 1.47468 -0.927306 0
M  V30 7682 C 723.076 2.82442 -1.90892 0
M  V30 7683 H 724.269 1.21864 -2.74024 0
M  V30 7684 H 721.822 0.600668 -1.44297 0
M  V30 7685 H 722.557 3.09202 -0.978 0
M  V30 7686 H 722.342 2.81399 -2.73051 0
M  V30 7687 H 723.832 3.59601 -2.12314 0
M  V30 7688 N 724.269 1.44576 0.627338 0
M  V30 7689 C 725.179 1.54232 1.76776 0
M  V30 7690 C 726.195 0.427782 1.6866 0
M  V30 7691 O 727.371 0.685671 1.89369 0
M  V30 7692 C 724.436 1.48738 3.13174 0
M  V30 7693 C 723.497 2.71074 3.32893 0
M  V30 7694 C 722.73 2.65832 4.62784 0
M  V30 7695 O 722.953 1.72048 5.43834 0
M  V30 7696 O 721.887 3.56742 4.84787 0
M  V30 7697 H 725.713 2.50586 1.71582 0
M  V30 7698 H 723.298 1.26865 0.789028 0
M  V30 7699 H 725.18 1.48211 3.94476 0
M  V30 7700 H 723.855 0.555292 3.18902 0
M  V30 7701 H 722.762 2.77168 2.51254 0
M  V30 7702 H 724.095 3.63342 3.32029 0
M  V30 7703 N 725.747 -0.868086 1.31537 0
M  V30 7704 C 727.163 -1.15414 1.10235 0
M  V30 7705 C 727.363 -2.01106 -0.125947 0
M  V30 7706 O 726.419 -2.38994 -0.814734 0
M  V30 7707 C 727.732 -1.84445 2.37488 0
M  V30 7708 C 729.28 -1.97139 2.43116 0
M  V30 7709 C 729.755 -2.69585 3.70254 0
M  V30 7710 N 731.246 -2.77119 3.71159 0
M  V30 7711 C 731.981 -3.33791 4.6623 0
M  V30 7712 N 731.477 -3.9138 5.71659 0
M  V30 7713 N 733.27 -3.31767 4.53747 0
M  V30 7714 H 725.421 -0.297109 2.10312 0
M  V30 7715 H 727.684 -0.194227 0.92789 0
M  V30 7716 H 727.39 -1.2893 3.27215 0
M  V30 7717 H 727.264 -2.84709 2.47428 0
M  V30 7718 H 729.651 -2.51818 1.53856 0
M  V30 7719 H 729.732 -0.95912 2.37138 0
M  V30 7720 H 729.376 -2.15572 4.59881 0
M  V30 7721 H 729.306 -3.71223 3.73499 0
M  V30 7722 H 731.797 -2.3625 2.94948 0
M  V30 7723 H 732.11 -4.3274 6.40278 0
M  V30 7724 H 730.455 -3.8975 5.7543 0
M  V30 7725 H 733.646 -2.86016 3.70557 0
M  V30 7726 H 733.819 -3.75636 5.28017 0
M  V30 7727 N 727.225 -1.14528 -1.08264 0
M  V30 7728 C 728.135 -0.84728 -2.18765 0
M  V30 7729 C 729.151 0.172826 -1.7314 0
M  V30 7730 O 730.327 0.000985336 -2.014 0
M  V30 7731 C 727.392 -0.330633 -3.4512 0
M  V30 7732 C 726.453 -1.41348 -4.05363 0
M  V30 7733 C 725.686 -0.921387 -5.25686 0
M  V30 7734 O 725.909 0.236587 -5.69909 0
M  V30 7735 O 724.843 -1.70101 -5.77364 0
M  V30 7736 H 728.669 -1.7708 -2.46731 0
M  V30 7737 H 726.254 -0.923661 -1.17426 0
M  V30 7738 H 728.136 -0.0485053 -4.21372 0
M  V30 7739 H 726.811 0.565147 -3.18728 0
M  V30 7740 H 725.718 -1.74908 -3.30693 0
M  V30 7741 H 727.051 -2.28383 -4.36007 0
M  V30 7742 N 728.703 1.26451 -0.940633 0
M  V30 7743 C 729.666 2.24651 -0.454378 0
M  V30 7744 C 730.666 1.54826 0.434222 0
M  V30 7745 O 731.856 1.72628 0.233477 0
M  V30 7746 C 728.988 3.39148 0.345192 0
M  V30 7747 H 730.181 2.69182 -1.32217 0
M  V30 7748 H 727.734 1.38596 -0.722547 0
M  V30 7749 H 728.469 3.00018 1.23125 0
M  V30 7750 H 728.254 3.9101 -0.292107 0
M  V30 7751 H 729.744 4.12103 0.675341 0
M  V30 7752 N 730.181 0.707592 1.40822 0
M  V30 7753 C 731.406 0.251626 2.05868 0
M  V30 7754 C 731.831 -1.09503 1.5294 0
M  V30 7755 O 731.189 -1.68806 0.661385 0
M  V30 7756 C 731.237 0.23287 3.59847 0
M  V30 7757 O 730.341 -0.788477 4.04792 0
M  V30 7758 H 729.682 0.119936 0.653078 0
M  V30 7759 H 732.212 0.96583 1.80369 0
M  V30 7760 H 732.222 0.0678204 4.07944 0
M  V30 7761 H 730.897 1.21565 3.97737 0
M  V30 7762 H 729.474 -0.591802 3.68174 0
M  V30 7763 N 731.66 -1.50943 0.453197 0
M  V30 7764 C 732.57 -2.31884 -0.355963 0
M  V30 7765 C 733.586 -1.41481 -1.01287 0
M  V30 7766 O 734.762 -1.74546 -1.00477 0
M  V30 7767 C 731.827 -3.15668 -1.43369 0
M  V30 7768 C 730.888 -4.2187 -0.795253 0
M  V30 7769 C 730.121 -5.0165 -1.82162 0
M  V30 7770 O 730.344 -4.82266 -3.04592 0
M  V30 7771 O 729.278 -5.85311 -1.40336 0
M  V30 7772 H 733.104 -3.02162 0.305248 0
M  V30 7773 H 730.689 -1.47839 0.215398 0
M  V30 7774 H 732.571 -3.67709 -2.05836 0
M  V30 7775 H 731.246 -2.48137 -2.07869 0
M  V30 7776 H 730.153 -3.73867 -0.132106 0
M  V30 7777 H 731.486 -4.9182 -0.193484 0
M  V30 7778 N 733.138 -0.185124 -1.56509 0
M  V30 7779 C 734.554 0.170865 -1.58683 0
M  V30 7780 C 734.754 1.61799 -1.20098 0
M  V30 7781 O 733.81 2.35181 -0.919038 0
M  V30 7782 C 735.123 -0.122459 -3.00451 0
M  V30 7783 C 736.671 -0.0617699 -3.12939 0
M  V30 7784 C 737.146 -0.328269 -4.56822 0
M  V30 7785 N 738.637 -0.276533 -4.62374 0
M  V30 7786 C 739.372 -0.456722 -5.71578 0
M  V30 7787 N 738.868 -0.69672 -6.89288 0
M  V30 7788 N 740.661 -0.391669 -5.60734 0
M  V30 7789 H 732.812 -1.12956 -1.79874 0
M  V30 7790 H 735.075 -0.45011 -0.834329 0
M  V30 7791 H 734.781 -1.12546 -3.33206 0
M  V30 7792 H 734.655 0.579578 -3.72721 0
M  V30 7793 H 737.042 0.931826 -2.80002 0
M  V30 7794 H 737.123 -0.796732 -2.43076 0
M  V30 7795 H 736.767 -1.31914 -4.9047 0
M  V30 7796 H 736.697 0.427465 -5.24862 0
M  V30 7797 H 739.188 -0.0972458 -3.77775 0
M  V30 7798 H 739.501 -0.823291 -7.68402 0
M  V30 7799 H 737.846 -0.733497 -6.91119 0
M  V30 7800 H 741.037 -0.204663 -4.67652 0
M  V30 7801 H 741.21 -0.535518 -6.45783 0
M  V30 7802 N 734.616 1.57351 0.0885366 0
M  V30 7803 C 736.032 1.53331 0.442916 0
M  V30 7804 C 736.232 0.902831 1.80142 0
M  V30 7805 O 735.288 0.498147 2.47537 0
M  V30 7806 C 736.601 2.98036 0.399372 0
M  V30 7807 C 738.149 3.09286 0.480759 0
M  V30 7808 C 738.624 4.5561 0.467296 0
M  V30 7809 N 740.115 4.60182 0.52786 0
M  V30 7810 C 740.85 5.70857 0.539388 0
M  V30 7811 N 740.346 6.90944 0.506729 0
M  V30 7812 N 742.139 5.59051 0.584691 0
M  V30 7813 H 734.29 1.96709 -0.801215 0
M  V30 7814 H 736.553 0.899639 -0.298922 0
M  V30 7815 H 736.259 3.47656 -0.531806 0
M  V30 7816 H 736.133 3.57066 1.21589 0
M  V30 7817 H 738.52 2.5965 1.40236 0
M  V30 7818 H 738.601 2.53197 -0.364023 0
M  V30 7819 H 738.245 5.05899 -0.450384 0
M  V30 7820 H 738.175 5.09544 1.32938 0
M  V30 7821 H 740.666 3.73757 0.558028 0
M  V30 7822 H 740.979 7.71055 0.518989 0
M  V30 7823 H 739.324 6.93384 0.473675 0
M  V30 7824 H 742.515 4.64138 0.607781 0
M  V30 7825 H 742.688 6.45307 0.590206 0
M  V30 7826 N 736.094 -0.359525 1.53444 0
M  V30 7827 C 737.026 -1.46098 1.76602 0
M  V30 7828 C 738.039 -1.49395 0.646912 0
M  V30 7829 O 739.228 -1.52765 0.923307 0
M  V30 7830 C 736.328 -2.84836 1.83635 0
M  V30 7831 C 735.501 -3.05164 3.13358 0
M  V30 7832 C 734.56 -4.24051 3.11556 0
M  V30 7833 O 733.586 -4.18935 3.85334 0
M  V30 7834 N 734.788 -5.31775 2.328 0
M  V30 7835 H 737.553 -1.2661 2.71643 0
M  V30 7836 H 735.114 -0.549294 1.52297 0
M  V30 7837 H 737.106 -3.62516 1.799 0
M  V30 7838 H 735.676 -2.97542 0.958509 0
M  V30 7839 H 734.896 -2.15091 3.30348 0
M  V30 7840 H 736.184 -3.15619 3.99076 0
M  V30 7841 H 735.582 -5.38796 1.7238 0
M  V30 7842 H 734.139 -6.0801 2.34877 0
M  V30 7843 N 737.572 -1.44907 -0.619662 0
M  V30 7844 C 738.504 -1.48652 -1.74457 0
M  V30 7845 C 739.517 -0.378596 -1.58337 0
M  V30 7846 O 740.706 -0.644987 -1.6644 0
M  V30 7847 C 737.806 -1.31568 -3.12319 0
M  V30 7848 C 736.979 -2.55816 -3.54792 0
M  V30 7849 C 736.038 -2.33465 -4.71573 0
M  V30 7850 O 735.064 -3.07015 -4.79302 0
M  V30 7851 N 736.266 -1.37254 -5.6404 0
M  V30 7852 H 739.031 -2.45632 -1.71712 0
M  V30 7853 H 736.592 -1.40492 -0.804582 0
M  V30 7854 H 738.584 -1.14445 -3.88181 0
M  V30 7855 H 737.154 -0.429095 -3.09641 0
M  V30 7856 H 736.374 -2.88137 -2.69018 0
M  V30 7857 H 737.662 -3.38431 -3.79924 0
M  V30 7858 H 737.06 -0.765309 -5.60499 0
M  V30 7859 H 735.617 -1.26106 -6.39485 0
M  V30 7860 N 739.05 0.861098 -1.31996 0
M  V30 7861 C 739.96 2.00154 -1.22374 0
M  V30 7862 C 740.976 1.73447 -0.138631 0
M  V30 7863 O 742.152 1.98191 -0.358104 0
M  V30 7864 C 739.217 3.33696 -0.940645 0
M  V30 7865 C 738.278 3.73668 -2.11355 0
M  V30 7866 C 737.511 5.00837 -1.84386 0
M  V30 7867 O 737.734 5.64996 -0.783287 0
M  V30 7868 O 736.668 5.37787 -2.70313 0
M  V30 7869 H 740.494 2.11207 -2.18233 0
M  V30 7870 H 738.079 0.990768 -1.11822 0
M  V30 7871 H 739.961 4.13756 -0.798987 0
M  V30 7872 H 738.636 3.23698 -0.0121636 0
M  V30 7873 H 737.543 2.94211 -2.31065 0
M  V30 7874 H 738.876 3.88303 -3.02459 0
M  V30 7875 N 740.528 1.15101 1.07655 0
M  V30 7876 C 741.461 0.788522 2.14144 0
M  V30 7877 C 742.439 -0.233635 1.60913 0
M  V30 7878 O 743.623 -0.120908 1.88112 0
M  V30 7879 C 740.75 0.172033 3.38263 0
M  V30 7880 C 739.796 1.16559 4.10264 0
M  V30 7881 S 740.629 2.70627 4.62084 0
M  V30 7882 C 741.785 2.10389 5.8948 0
M  V30 7883 H 742.018 1.69047 2.44561 0
M  V30 7884 H 739.551 0.973033 1.19881 0
M  V30 7885 H 741.509 -0.177223 4.10117 0
M  V30 7886 H 740.17 -0.707468 3.06029 0
M  V30 7887 H 739.363 0.6824 4.99359 0
M  V30 7888 H 738.965 1.45923 3.44358 0
M  V30 7889 H 741.257 1.46405 6.61492 0
M  V30 7890 H 742.2 2.97639 6.42508 0
M  V30 7891 H 742.608 1.54816 5.42856 0
M  V30 7892 N 742.006 -1.2595 0.947325 0
M  V30 7893 C 742.916 -2.29883 0.468079 0
M  V30 7894 C 743.932 -1.67783 -0.460975 0
M  V30 7895 O 745.108 -1.98526 -0.339006 0
M  V30 7896 C 742.173 -3.45773 -0.253315 0
M  V30 7897 C 741.234 -4.23337 0.713054 0
M  V30 7898 C 740.467 -5.33694 0.025993 0
M  V30 7899 O 740.69 -5.57853 -1.18978 0
M  V30 7900 O 739.624 -5.97724 0.70782 0
M  V30 7901 H 743.45 -2.72952 1.33156 0
M  V30 7902 H 741.035 -1.31263 0.713468 0
M  V30 7903 H 742.917 -4.16209 -0.659423 0
M  V30 7904 H 741.592 -3.04721 -1.09209 0
M  V30 7905 H 740.499 -3.55359 1.16923 0
M  V30 7906 H 741.832 -4.68154 1.51963 0
M  V30 7907 N 743.484 -0.715051 -1.40445 0
M  V30 7908 C 744.447 -0.0708726 -2.2909 0
M  V30 7909 C 745.447 0.687926 -1.45342 0
M  V30 7910 O 746.637 0.519908 -1.66261 0
M  V30 7911 C 743.769 0.909528 -3.28543 0
M  V30 7912 H 744.962 -0.851611 -2.87555 0
M  V30 7913 H 742.515 -0.479674 -1.48758 0
M  V30 7914 H 743.25 1.71734 -2.75096 0
M  V30 7915 H 743.035 0.368318 -3.90366 0
M  V30 7916 H 744.525 1.35744 -3.94922 0
M  V30 7917 N 744.962 1.50701 -0.461195 0
M  V30 7918 C 745.925 2.2686 0.326679 0
M  V30 7919 C 746.925 1.31243 0.929085 0
M  V30 7920 O 748.115 1.54754 0.799807 0
M  V30 7921 C 745.247 3.07844 1.46441 0
M  V30 7922 H 746.44 2.97954 -0.341095 0
M  V30 7923 H 743.993 1.54814 -0.214984 0
M  V30 7924 H 744.728 2.41223 2.16753 0
M  V30 7925 H 744.513 3.78101 1.03836 0
M  V30 7926 H 746.003 3.65469 2.02044 0
M  V30 7927 N 746.441 0.193421 1.56409 0
M  V30 7928 C 747.718 -0.493318 1.89277 0
M  V30 7929 C 748.098 -1.79765 1.10669 0
M  V30 7930 O 747.446 -2.27558 0.207274 0
M  V30 7931 C 747.656 -0.713732 3.41624 0
M  V30 7932 C 749.004 -1.03385 4.11821 0
M  V30 7933 O 750.028 -0.801511 3.47065 0
M  V30 7934 O 748.887 -1.47327 5.26267 0
M  V30 7935 H 745.981 -0.256973 0.786062 0
M  V30 7936 H 748.527 0.23351 1.68086 0
M  V30 7937 H 747.299 0.207446 3.9075 0
M  V30 7938 H 746.922 -1.49308 3.68501 0
M  V30 7939 N 747.919 -1.57396 -0.0801906 0
M  V30 7940 C 749.147 -1.91055 -0.794075 0
M  V30 7941 C 749.562 -0.788583 -1.71542 0
M  V30 7942 O 748.919 0.238587 -1.80934 0
M  V30 7943 C 748.97 -3.24418 -1.59484 0
M  V30 7944 O 748.691 -4.323 -0.710532 0
M  V30 7945 C 750.192 -3.72037 -2.41046 0
M  V30 7946 H 747.412 -0.63171 -0.226238 0
M  V30 7947 H 749.956 -2.04431 -0.0529685 0
M  V30 7948 H 748.111 -3.12595 -2.2883 0
M  V30 7949 H 748.525 -5.08976 -1.26663 0
M  V30 7950 H 749.999 -4.68006 -2.92702 0
M  V30 7951 H 750.476 -3.00624 -3.2019 0
M  V30 7952 H 751.082 -3.86777 -1.76871 0
M  V30 7953 N 749.397 0.351382 -1.53633 0
M  V30 7954 C 750.307 1.45471 -1.84052 0
M  V30 7955 C 751.323 1.57945 -0.730015 0
M  V30 7956 O 752.499 1.73571 -1.02153 0
M  V30 7957 C 749.564 2.80562 -2.03681 0
M  V30 7958 C 748.625 2.77497 -3.27558 0
M  V30 7959 C 747.858 4.06144 -3.46241 0
M  V30 7960 O 748.081 5.03028 -2.68922 0
M  V30 7961 O 747.015 4.11092 -4.39645 0
M  V30 7962 H 750.841 1.22684 -2.77817 0
M  V30 7963 H 748.426 0.542827 -1.3919 0
M  V30 7964 H 750.308 3.6058 -2.18082 0
M  V30 7965 H 748.983 3.03296 -1.13106 0
M  V30 7966 H 747.89 1.96126 -3.18568 0
M  V30 7967 H 749.223 2.59716 -4.18101 0
M  V30 7968 N 750.875 1.45233 0.611969 0
M  V30 7969 C 752.286 1.4354 1.19387 0
M  V30 7970 C 752.637 0.160713 1.95541 0
M  V30 7971 O 751.762 -0.737954 2.03429 0
M  V30 7972 C 752.357 2.60045 2.17169 0
M  V30 7973 C 750.916 2.61486 2.70744 0
M  V30 7974 C 750.063 2.35708 1.46072 0
M  V30 7975 H 753.014 1.53536 0.401529 0
M  V30 7976 H 753.035 2.33893 3.00124 0
M  V30 7977 H 752.547 3.52803 1.61714 0
M  V30 7978 H 750.648 1.72721 3.30149 0
M  V30 7979 H 750.761 3.60572 3.15476 0
M  V30 7980 H 749.125 1.85178 1.74875 0
M  V30 7981 H 749.908 3.30606 0.924922 0
M  V30 7982 N 752.353 -0.854086 1.3245 0
M  V30 7983 C 753.6 -1.60831 1.23043 0
M  V30 7984 C 753.928 -1.93389 -0.2076 0
M  V30 7985 O 753.183 -1.5756 -1.16075 0
M  V30 7986 C 753.482 -2.93746 2.03587 0
M  V30 7987 C 753.148 -2.80615 3.52939 0
M  V30 7988 C 751.81 -2.76742 3.93659 0
M  V30 7989 C 754.162 -2.66507 4.4791 0
M  V30 7990 C 751.49 -2.56638 5.27592 0
M  V30 7991 C 753.842 -2.47939 5.81987 0
M  V30 7992 C 752.506 -2.42458 6.21909 0
M  V30 7993 H 751.776 -0.588523 0.450247 0
M  V30 7994 H 754.423 -0.990699 1.63882 0
M  V30 7995 H 752.728 -3.5963 1.55478 0
M  V30 7996 H 754.425 -3.51127 1.93677 0
M  V30 7997 H 751.015 -2.84456 3.20598 0
M  V30 7998 H 755.199 -2.68544 4.1737 0
M  V30 7999 H 750.455 -2.50831 5.57579 0
M  V30 8000 H 754.629 -2.36002 6.55192 0
M  V30 8001 H 752.256 -2.2664 7.2563 0
M  V30 8002 N 753.831 -1.1567 -1.07043 0
M  V30 8003 C 754.794 -0.858906 -2.12498 0
M  V30 8004 C 755.794 0.142735 -1.60165 0
M  V30 8005 O 756.984 -0.0872678 -1.73981 0
M  V30 8006 C 754.116 -0.283021 -3.39723 0
M  V30 8007 H 755.309 -1.79368 -2.40348 0
M  V30 8008 H 752.862 -0.964608 -1.22984 0
M  V30 8009 H 753.597 0.659796 -3.17517 0
M  V30 8010 H 753.382 -1.00467 -3.7901 0
M  V30 8011 H 754.872 -0.0923543 -4.17498 0
M  V30 8012 N 755.309 1.25446 -0.953992 0
M  V30 8013 C 756.555 1.9343 -0.60933 0
M  V30 8014 C 756.888 1.74542 0.851388 0
M  V30 8015 O 756.163 1.09014 1.61078 0
M  V30 8016 C 756.446 3.46844 -0.968041 0
M  V30 8017 C 756.299 3.74961 -2.48444 0
M  V30 8018 C 757.618 4.37334 -0.492641 0
M  V30 8019 H 754.737 0.702502 -0.222844 0
M  V30 8020 H 757.379 1.48076 -1.19053 0
M  V30 8021 H 755.529 3.85604 -0.473465 0
M  V30 8022 H 757.201 3.45841 -3.05273 0
M  V30 8023 H 755.444 3.20589 -2.92241 0
M  V30 8024 H 756.115 4.82246 -2.68594 0
M  V30 8025 H 758.591 4.05873 -0.916878 0
M  V30 8026 H 757.467 5.43439 -0.772331 0
M  V30 8027 H 757.728 4.37908 0.607403 0
M  V30 8028 N 756.787 0.722489 1.40064 0
M  V30 8029 C 758.033 0.27422 2.01543 0
M  V30 8030 C 758.388 -1.12224 1.5628 0
M  V30 8031 O 757.681 -1.75179 0.776063 0
M  V30 8032 C 757.875 0.300682 3.56133 0
M  V30 8033 C 757.704 1.69818 4.16404 0
M  V30 8034 C 756.474 2.30747 4.49537 0
M  V30 8035 C 758.672 2.64962 4.40794 0
M  V30 8036 N 756.654 3.62781 4.9524 0
M  V30 8037 C 758.025 3.81712 4.88565 0
M  V30 8038 C 760.08 2.62885 4.22842 0
M  V30 8039 C 758.783 4.96703 5.20268 0
M  V30 8040 C 760.809 3.77009 4.55652 0
M  V30 8041 C 760.171 4.92492 5.03618 0
M  V30 8042 H 756.27 0.146328 0.768188 0
M  V30 8043 H 758.854 0.94577 1.70186 0
M  V30 8044 H 757.025 -0.340461 3.86905 0
M  V30 8045 H 758.757 -0.164951 4.04364 0
M  V30 8046 H 755.512 1.82783 4.36907 0
M  V30 8047 H 755.936 4.30533 5.22465 0
M  V30 8048 H 760.578 1.74803 3.84972 0
M  V30 8049 H 758.296 5.85425 5.57049 0
M  V30 8050 H 761.882 3.76685 4.43396 0
M  V30 8051 H 760.762 5.79336 5.28525 0
M  V30 8052 N 758.265 -1.50454 0.469181 0
M  V30 8053 C 759.195 -2.31353 -0.31592 0
M  V30 8054 C 760.176 -1.38172 -0.992094 0
M  V30 8055 O 761.361 -1.67093 -0.989633 0
M  V30 8056 C 758.491 -3.1786 -1.39937 0
M  V30 8057 C 757.445 -4.19578 -0.844909 0
M  V30 8058 C 756.771 -4.9481 -2.0265 0
M  V30 8059 C 758.071 -5.22106 0.142499 0
M  V30 8060 H 759.765 -2.97237 0.359269 0
M  V30 8061 H 757.311 -1.42942 0.174224 0
M  V30 8062 H 759.264 -3.7325 -1.95607 0
M  V30 8063 H 757.988 -2.49858 -2.1033 0
M  V30 8064 H 756.647 -3.65285 -0.310189 0
M  V30 8065 H 756.295 -4.23282 -2.71737 0
M  V30 8066 H 755.995 -5.63613 -1.66174 0
M  V30 8067 H 757.519 -5.53035 -2.58815 0
M  V30 8068 H 758.933 -5.72378 -0.324966 0
M  V30 8069 H 757.33 -5.98618 0.421441 0
M  V30 8070 H 758.4 -4.7297 1.06901 0
M  V30 8071 N 759.743 -0.201713 -1.56304 0
M  V30 8072 C 760.653 0.728296 -2.23009 0
M  V30 8073 C 761.669 1.22945 -1.23128 0
M  V30 8074 O 762.845 1.27523 -1.55884 0
M  V30 8075 C 759.91 1.92792 -2.88153 0
M  V30 8076 C 758.971 1.47068 -4.03323 0
M  V30 8077 C 758.204 2.61312 -4.65351 0
M  V30 8078 O 758.427 3.7896 -4.26317 0
M  V30 8079 O 757.361 2.33646 -5.54701 0
M  V30 8080 H 761.187 0.190166 -3.03104 0
M  V30 8081 H 758.772 0.0278725 -1.49374 0
M  V30 8082 H 760.654 2.6289 -3.29343 0
M  V30 8083 H 759.329 2.45452 -2.11033 0
M  V30 8084 H 758.236 0.738299 -3.66742 0
M  V30 8085 H 759.569 0.990666 -4.82127 0
M  V30 8086 N 761.222 1.57436 0.0718424 0
M  V30 8087 C 762.169 2.03686 1.08539 0
M  V30 8088 C 763.139 0.917474 1.38462 0
M  V30 8089 O 764.324 1.18513 1.4953 0
M  V30 8090 C 761.464 2.48566 2.39393 0
M  V30 8091 C 760.577 3.74122 2.16001 0
M  V30 8092 C 759.712 4.07786 3.40418 0
M  V30 8093 C 758.751 5.26383 3.1239 0
M  V30 8094 N 757.888 5.55685 4.29138 0
M  V30 8095 H 762.728 2.90043 0.684018 0
M  V30 8096 H 760.265 1.43438 0.326183 0
M  V30 8097 H 762.223 2.72639 3.15791 0
M  V30 8098 H 760.853 1.65186 2.77333 0
M  V30 8099 H 759.905 3.57389 1.30296 0
M  V30 8100 H 761.217 4.60659 1.91298 0
M  V30 8101 H 760.371 4.32759 4.25211 0
M  V30 8102 H 759.11 3.19817 3.68197 0
M  V30 8103 H 758.115 5.01206 2.25993 0
M  V30 8104 H 759.34 6.1597 2.85934 0
M  V30 8105 H 757.286 4.70675 4.56948 0
M  V30 8106 H 757.203 6.3664 4.07708 0
M  V30 8107 H 758.471 5.85209 5.14928 0
M  V30 8108 N 762.7 -0.34323 1.53817 0
M  V30 8109 C 763.65 -1.42217 1.78208 0
M  V30 8110 C 764.634 -1.4774 0.637304 0
M  V30 8111 O 765.826 -1.52605 0.896705 0
M  V30 8112 C 762.955 -2.79354 1.9954 0
M  V30 8113 C 762.041 -2.78222 3.20084 0
M  V30 8114 N 762.432 -2.46719 4.41547 0
M  V30 8115 C 760.73 -3.09368 3.21259 0
M  V30 8116 C 761.431 -2.53828 5.23399 0
M  V30 8117 N 760.407 -2.89464 4.60121 0
M  V30 8118 H 764.209 -1.16759 2.69712 0
M  V30 8119 H 761.723 -0.551592 1.52746 0
M  V30 8120 H 763.72 -3.57095 2.15148 0
M  V30 8121 H 762.38 -3.05759 1.09278 0
M  V30 8122 H 763.391 -2.19912 4.68891 0
M  V30 8123 H 760.068 -3.40942 2.40966 0
M  V30 8124 H 761.458 -2.32629 6.30344 0
M  V30 8125 N 764.178 -1.45556 -0.604258 0
M  V30 8126 C 765.141 -1.54091 -1.69672 0
M  V30 8127 C 766.141 -0.420076 -1.55216 0
M  V30 8128 O 767.331 -0.683671 -1.60224 0
M  V30 8129 C 764.463 -1.44063 -3.08964 0
M  V30 8130 H 765.656 -2.51431 -1.6347 0
M  V30 8131 H 763.209 -1.33046 -0.820273 0
M  V30 8132 H 763.944 -0.479201 -3.2074 0
M  V30 8133 H 763.729 -2.25362 -3.20865 0
M  V30 8134 H 765.219 -1.53075 -3.88533 0
M  V30 8135 O 765.695 0.748196 -1.43123 0
M  V30 8136 H 766.386 1.39718 -1.34159 0
M  V30 END ATOM
M  V30 BEGIN BOND
M  V30 END BOND
M  V30 END CTAB
M  END
$$$$
