drugbank_target|P84888 Aralkylamine dehydrogenase heavy chain (DB08649; DB08652; DB08653; DB08767)
 OpenBabel12092120513D

  0  0  0     0  0            999 V3000
M  V30 BEGIN CTAB
M  V30 COUNTS 6006 6072 0 0 0
M  V30 BEGIN ATOM
M  V30 1 H -0.908 1.98254 -0.117106 0
M  V30 2 N 0 1.576 0 0
M  V30 3 C 0.933 2.03868 1.02534 0
M  V30 4 C 1.911 0.928543 1.3348 0
M  V30 5 O 3.095 1.19667 1.45644 0
M  V30 6 C 0.222 2.43627 2.35294 0
M  V30 7 C -0.732 3.65373 2.2001 0
M  V30 8 S 0.101 5.13292 1.52614 0
M  V30 9 C 1.257 5.56322 2.86805 0
M  V30 10 H 1.49 2.90518 0.631377 0
M  V30 11 H -0.977 1.52953 0.210867 0
M  V30 12 H 0.981 2.67203 3.11629 0
M  V30 13 H -0.358 1.57376 2.7183 0
M  V30 14 H -1.165 3.90944 3.18086 0
M  V30 15 H -1.563 3.418 1.51819 0
M  V30 16 H 0.729 5.58782 3.83104 0
M  V30 17 H 1.672 6.56266 2.65933 0
M  V30 18 H 2.08 4.83886 2.90714 0
M  V30 19 N 1.4781 -0.272755 1.55222 0
M  V30 20 C 2.4251 -1.33716 1.88119 0
M  V30 21 C 3.3951 -1.49066 0.73271 0
M  V30 22 O 4.5801 -1.63469 0.984002 0
M  V30 23 C 1.7201 -2.69238 2.15882 0
M  V30 24 C 0.8331 -2.62108 3.43399 0
M  V30 25 C -0.0319 -3.89811 3.60861 0
M  V30 26 C -0.9929 -3.77193 4.8207 0
M  V30 27 N -1.8559 -4.9673 4.96189 0
M  V30 28 H 2.9841 -1.04962 2.78903 0
M  V30 29 H 0.5211 -0.507088 1.38083 0
M  V30 30 H 2.4791 -3.48089 2.29978 0
M  V30 31 H 1.1091 -2.96194 1.28331 0
M  V30 32 H 0.1611 -1.74967 3.37773 0
M  V30 33 H 1.4731 -2.48685 4.32386 0
M  V30 34 H 0.6271 -4.77103 3.74777 0
M  V30 35 H -0.6339 -4.06102 2.7006 0
M  V30 36 H -1.6289 -2.88284 4.68159 0
M  V30 37 H -0.4039 -3.62421 5.74307 0
M  V30 38 H -2.4579 -5.13431 4.08319 0
M  V30 39 H -2.5409 -4.85839 5.79221 0
M  V30 40 H -1.2729 -5.85594 5.1449 0
M  V30 41 N 2.9562 -1.48159 -0.537278 0
M  V30 42 C 4.1812 -1.59707 -1.32319 0
M  V30 43 C 4.6062 -0.254859 -1.86365 0
M  V30 44 O 3.9642 0.772378 -1.64024 0
M  V30 45 C 4.0122 -2.6412 -2.45505 0
M  V30 46 O 3.1162 -2.20774 -3.48328 0
M  V30 47 H 2.4572 -0.535791 -0.392204 0
M  V30 48 H 4.9872 -1.94092 -0.647268 0
M  V30 49 H 4.9972 -2.85166 -2.91795 0
M  V30 50 H 3.6722 -3.61567 -2.05528 0
M  V30 51 H 2.2492 -2.09911 -3.08207 0
M  V30 52 N 4.4343 0.785586 -1.36625 0
M  V30 53 C 5.3813 1.89838 -1.31264 0
M  V30 54 C 6.3513 1.65115 -0.180633 0
M  V30 55 O 7.5363 1.87222 -0.36777 0
M  V30 56 C 4.6763 3.26706 -1.11163 0
M  V30 57 C 3.7893 3.63476 -2.33472 0
M  V30 58 C 2.9243 4.89481 -2.06353 0
M  V30 59 C 1.9633 5.18941 -3.24602 0
M  V30 60 N 1.1003 6.36131 -2.97123 0
M  V30 61 H 5.9403 1.93756 -2.26413 0
M  V30 62 H 3.4773 0.947454 -1.12524 0
M  V30 63 H 5.4353 4.05639 -0.975337 0
M  V30 64 H 4.0653 3.222 -0.196674 0
M  V30 65 H 3.1173 2.79636 -2.57891 0
M  V30 66 H 4.4293 3.81193 -3.21704 0
M  V30 67 H 3.5833 5.76288 -1.89675 0
M  V30 68 H 2.3223 4.73841 -1.15437 0
M  V30 69 H 1.3273 4.30615 -3.41834 0
M  V30 70 H 2.5523 5.36498 -4.16349 0
M  V30 71 H 0.4983 6.21875 -2.08823 0
M  V30 72 H 0.4153 6.54198 -3.78894 0
M  V30 73 H 1.6833 7.2591 -2.84033 0
M  V30 74 N 5.9124 1.20967 1.01018 0
M  V30 75 C 7.1594 1.02374 1.74716 0
M  V30 76 C 7.4874 -0.443375 1.89379 0
M  V30 77 O 6.7424 -1.34535 1.42123 0
M  V30 78 C 7.0414 1.65997 3.16512 0
M  V30 79 C 6.7074 3.15831 3.2181 0
M  V30 80 C 5.3694 3.56719 3.22963 0
M  V30 81 C 7.7214 4.11816 3.19464 0
M  V30 82 C 5.0494 4.92107 3.19449 0
M  V30 83 C 7.4014 5.47158 3.17491 0
M  V30 84 C 6.0654 5.87451 3.16951 0
M  V30 85 H 5.3354 0.374614 0.639332 0
M  V30 86 H 7.9824 1.50485 1.18434 0
M  V30 87 H 6.2874 1.10166 3.75993 0
M  V30 88 H 7.9844 1.49119 3.72242 0
M  V30 89 H 4.5744 2.83263 3.21652 0
M  V30 90 H 8.7584 3.81257 3.17737 0
M  V30 91 H 4.0144 5.22579 3.17366 0
M  V30 92 H 8.1884 6.21274 3.14629 0
M  V30 93 H 5.8154 6.92329 3.13983 0
M  V30 94 N 7.3905 -1.2043 1.01659 0
M  V30 95 C 8.3375 -2.23215 0.586822 0
M  V30 96 C 9.3075 -1.61382 -0.393085 0
M  V30 97 O 10.4925 -1.88544 -0.292525 0
M  V30 98 C 7.6325 -3.45032 -0.0687464 0
M  V30 99 C 6.7455 -4.21296 0.955724 0
M  V30 100 C 5.8805 -5.30507 0.271208 0
M  V30 101 C 4.9195 -5.98515 1.28244 0
M  V30 102 N 4.0565 -6.99316 0.62459 0
M  V30 103 H 8.8965 -2.59336 1.46796 0
M  V30 104 H 6.4335 -1.27431 0.734836 0
M  V30 105 H 8.3915 -4.1459 -0.465965 0
M  V30 106 H 7.0215 -3.09604 -0.913529 0
M  V30 107 H 6.0735 -3.50803 1.4711 0
M  V30 108 H 7.3855 -4.6803 1.72479 0
M  V30 109 H 6.5395 -6.06428 -0.18151 0
M  V30 110 H 5.2785 -4.8481 -0.530163 0
M  V30 111 H 4.2835 -5.21355 1.74554 0
M  V30 112 H 5.5085 -6.46298 2.08509 0
M  V30 113 H 3.4545 -6.55812 -0.156914 0
M  V30 114 H 3.3715 -7.44178 1.33172 0
M  V30 115 H 4.6395 -7.79255 0.195462 0
M  V30 116 N 8.8686 -0.792821 -1.36206 0
M  V30 117 C 9.7986 -0.207853 -2.32573 0
M  V30 118 C 10.7796 0.659055 -1.56813 0
M  V30 119 O 11.9646 0.592176 -1.84951 0
M  V30 120 C 9.0946 0.655449 -3.41059 0
M  V30 121 C 8.0486 -0.111842 -4.27854 0
M  V30 122 C 7.3746 0.872274 -5.27537 0
M  V30 123 C 8.6746 -1.30299 -5.05786 0
M  V30 124 H 10.3686 -1.01294 -2.81744 0
M  V30 125 H 7.9146 -0.48854 -1.3546 0
M  V30 126 H 9.8676 1.07464 -4.07467 0
M  V30 127 H 8.5916 1.49328 -2.90463 0
M  V30 128 H 7.2506 -0.512053 -3.63006 0
M  V30 129 H 6.8986 1.70523 -4.73214 0
M  V30 130 H 6.5986 0.363291 -5.86476 0
M  V30 131 H 8.1226 1.28996 -5.96818 0
M  V30 132 H 9.5366 -0.959379 -5.65216 0
M  V30 133 H 7.9336 -1.7455 -5.74154 0
M  V30 134 H 9.0036 -2.09663 -4.37229 0
M  V30 135 N 10.3467 1.47872 -0.545128 0
M  V30 136 C 11.5747 2.06889 -0.021084 0
M  V30 137 C 11.9897 1.39955 1.2672 0
M  V30 138 O 11.3467 0.492036 1.75742 0
M  V30 139 C 11.3977 3.60996 0.190817 0
M  V30 140 O 11.1187 4.25419 -1.04644 0
M  V30 141 C 12.6197 4.36849 0.753521 0
M  V30 142 H 9.8397 0.669785 -0.0403635 0
M  V30 143 H 12.3837 1.90049 -0.755095 0
M  V30 144 H 10.5387 3.77391 0.87492 0
M  V30 145 H 10.9527 5.17785 -0.836611 0
M  V30 146 H 12.4267 5.45399 0.851139 0
M  V30 147 H 12.9037 4.02306 1.762 0
M  V30 148 H 13.5097 4.25169 0.105503 0
M  V30 149 N 11.8248 0.280983 1.55075 0
M  V30 150 C 13.0528 -0.337293 2.04132 0
M  V30 151 C 13.4678 -1.4903 1.15912 0
M  V30 152 O 12.8248 -1.81606 0.180459 0
M  V30 153 C 12.8758 -0.812706 3.52246 0
M  V30 154 O 12.5968 0.294387 4.3711 0
M  V30 155 C 14.0978 -1.4982 4.17216 0
M  V30 156 H 11.3178 -0.0761638 0.666663 0
M  V30 157 H 13.8618 0.414787 2.00249 0
M  V30 158 H 12.0168 -1.51486 3.56554 0
M  V30 159 H 12.4308 -0.0721325 5.2445 0
M  V30 160 H 13.9048 -1.7822 5.22438 0
M  V30 161 H 14.3818 -2.43168 3.65741 0
M  V30 162 H 14.9878 -0.839742 4.16927 0
M  V30 163 N 13.3029 -1.57598 0.00835791 0
M  V30 164 C 14.2659 -2.07884 -0.965242 0
M  V30 165 C 15.2659 -0.989825 -1.26725 0
M  V30 166 O 16.4559 -1.25218 -1.21104 0
M  V30 167 C 13.5879 -2.52731 -2.28779 0
M  V30 168 H 14.7809 -2.95178 -0.530112 0
M  V30 169 H 12.3339 -1.54458 -0.239283 0
M  V30 170 H 13.0689 -1.68705 -2.76964 0
M  V30 171 H 12.8539 -3.32272 -2.08177 0
M  V30 172 H 14.3439 -2.91933 -2.98605 0
M  V30 173 N 14.781 0.264519 -1.55364 0
M  V30 174 C 15.744 1.31046 -1.88042 0
M  V30 175 C 16.744 1.41943 -0.755569 0
M  V30 176 O 17.934 1.40947 -1.02369 0
M  V30 177 C 15.066 2.69067 -2.09323 0
M  V30 178 H 16.259 1.03297 -2.81549 0
M  V30 179 H 13.812 0.502989 -1.47986 0
M  V30 180 H 14.547 3.01982 -1.18226 0
M  V30 181 H 14.332 2.62542 -2.91229 0
M  V30 182 H 15.822 3.44623 -2.35848 0
M  V30 183 N 16.2591 1.48442 0.529413 0
M  V30 184 C 17.2221 1.62524 1.61612 0
M  V30 185 C 18.2221 0.498509 1.52877 0
M  V30 186 O 19.4121 0.76431 1.56537 0
M  V30 187 C 16.5441 1.59597 3.01233 0
M  V30 188 H 17.7371 2.59423 1.50465 0
M  V30 189 H 15.2901 1.37047 0.751514 0
M  V30 190 H 16.0251 0.641781 3.17886 0
M  V30 191 H 15.8101 2.41397 3.08982 0
M  V30 192 H 17.3001 1.72646 3.80241 0
M  V30 193 N 17.7372 -0.778329 1.37039 0
M  V30 194 C 18.6702 -1.8984 1.26633 0
M  V30 195 C 19.6482 -1.61923 0.148197 0
M  V30 196 O 20.8322 -1.85742 0.321265 0
M  V30 197 C 17.9592 -3.24916 0.956403 0
M  V30 198 C 17.0052 -3.71752 2.09051 0
M  V30 199 S 17.8382 -3.86201 3.70957 0
M  V30 200 C 18.9942 -5.24135 3.42101 0
M  V30 201 H 19.2272 -1.98377 2.21436 0
M  V30 202 H 16.7602 -0.938738 1.22585 0
M  V30 203 H 18.7182 -4.02936 0.784409 0
M  V30 204 H 17.3792 -3.14089 0.0259713 0
M  V30 205 H 16.5722 -4.69661 1.8285 0
M  V30 206 H 16.1742 -3.00815 2.2223 0
M  V30 207 H 18.4662 -6.09086 2.96682 0
M  V30 208 H 19.4092 -5.55346 4.39314 0
M  V30 209 H 19.8172 -4.91761 2.77185 0
M  V30 210 N 19.2153 -1.21501 -1.00376 0
M  V30 211 C 20.1453 -0.999478 -2.11028 0
M  V30 212 C 21.1263 0.0759671 -1.6993 0
M  V30 213 O 22.3113 -0.0841106 -1.94018 0
M  V30 214 C 19.4413 -0.564709 -3.42678 0
M  V30 215 C 18.3953 -1.58486 -3.97576 0
M  V30 216 C 17.7213 -1.00628 -5.25146 0
M  V30 217 C 19.0213 -2.97204 -4.29496 0
M  V30 218 H 20.7153 -1.92495 -2.29317 0
M  V30 219 H 18.2613 -0.92693 -1.102 0
M  V30 220 H 20.2143 -0.401091 -4.19487 0
M  V30 221 H 18.9383 0.396411 -3.24185 0
M  V30 222 H 17.5973 -1.73606 -3.22888 0
M  V30 223 H 17.2453 -0.0368439 -5.02987 0
M  V30 224 H 16.9453 -1.68771 -5.62841 0
M  V30 225 H 18.4693 -0.854015 -6.04598 0
M  V30 226 H 19.8833 -2.8552 -4.97143 0
M  V30 227 H 18.2803 -3.62372 -4.78338 0
M  V30 228 H 19.3503 -3.47956 -3.3772 0
M  V30 229 N 20.6934 1.19889 -1.02296 0
M  V30 230 C 21.9414 1.89046 -0.714558 0
M  V30 231 C 22.2624 1.79636 0.758681 0
M  V30 232 O 21.5324 1.20292 1.54618 0
M  V30 233 H 20.1124 0.699802 -0.261317 0
M  V30 234 H 22.7744 1.45574 -1.29592 0
M  V30 235 H 21.8704 2.95524 -1.0036 0
M  V30 236 N 22.1715 0.800033 1.35784 0
M  V30 237 C 23.1015 0.220184 2.3246 0
M  V30 238 C 24.0825 -0.65073 1.57161 0
M  V30 239 O 25.2675 -0.582359 1.85263 0
M  V30 240 C 22.3975 -0.637353 3.41402 0
M  V30 241 C 21.3515 0.134531 4.27789 0
M  V30 242 C 20.6775 -0.844285 5.27992 0
M  V30 243 C 21.9775 1.32979 5.05088 0
M  V30 244 H 23.6715 1.02787 2.81203 0
M  V30 245 H 21.2175 0.495717 1.35199 0
M  V30 246 H 23.1705 -1.05302 4.08031 0
M  V30 247 H 21.8945 -1.47785 2.91251 0
M  V30 248 H 20.5535 0.531296 3.6273 0
M  V30 249 H 20.2015 -1.68011 4.74111 0
M  V30 250 H 19.9015 -0.332184 5.8666 0
M  V30 251 H 21.4255 -1.2583 5.97494 0
M  V30 252 H 22.8395 0.98934 5.64699 0
M  V30 253 H 21.2365 1.77593 5.7322 0
M  V30 254 H 22.3065 2.11978 4.36111 0
M  V30 255 N 23.6496 -1.47581 0.552962 0
M  V30 256 C 24.5826 -2.26883 -0.244857 0
M  V30 257 C 25.5606 -1.33784 -0.924147 0
M  V30 258 O 26.7446 -1.6316 -0.943981 0
M  V30 259 C 23.8716 -3.10695 -1.34856 0
M  V30 260 C 22.9176 -4.19339 -0.778268 0
M  V30 261 S 23.7506 -5.34207 0.37184 0
M  V30 262 C 24.9066 -6.21584 -0.733779 0
M  V30 263 H 25.1396 -2.94202 0.428087 0
M  V30 264 H 22.6726 -1.50628 0.339197 0
M  V30 265 H 24.6306 -3.59555 -1.98066 0
M  V30 266 H 23.2916 -2.42746 -1.99332 0
M  V30 267 H 22.4846 -4.77695 -1.60696 0
M  V30 268 H 22.0866 -3.73338 -0.222422 0
M  V30 269 H 24.3786 -6.57676 -1.62692 0
M  V30 270 H 25.3216 -7.07851 -0.187668 0
M  V30 271 H 25.7296 -5.55125 -1.02454 0
M  V30 272 N 25.1277 -0.289203 -1.54924 0
M  V30 273 C 26.3737 0.323998 -2.00195 0
M  V30 274 C 26.7067 1.54441 -1.17735 0
M  V30 275 O 25.9817 1.92875 -0.250878 0
M  V30 276 C 26.2647 0.692276 -3.53383 0
M  V30 277 C 26.1177 -0.536457 -4.46589 0
M  V30 278 C 27.4367 1.52335 -4.12895 0
M  V30 279 H 24.5557 0.116289 -0.727768 0
M  V30 280 H 27.1977 -0.398954 -1.85764 0
M  V30 281 H 25.3477 1.30822 -3.65811 0
M  V30 282 H 27.0197 -1.17499 -4.46085 0
M  V30 283 H 25.2627 -1.17192 -4.1767 0
M  V30 284 H 25.9337 -0.234806 -5.515 0
M  V30 285 H 28.4097 1.00302 -4.0383 0
M  V30 286 H 27.2857 1.74982 -5.20262 0
M  V30 287 H 27.5467 2.50886 -3.64018 0
M  V30 288 N 26.6058 1.57591 -0.0167156 0
M  V30 289 C 27.5358 2.12496 0.967858 0
M  V30 290 C 28.5168 1.03807 1.34752 0
M  V30 291 O 29.7018 1.31577 1.42833 0
M  V30 292 C 26.8318 2.64194 2.25431 0
M  V30 293 C 25.7858 3.77559 2.01576 0
M  V30 294 C 25.1118 4.15636 3.36379 0
M  V30 295 C 26.4118 5.04151 1.36489 0
M  V30 296 H 28.1058 2.95013 0.510643 0
M  V30 297 H 25.6518 1.41915 0.244181 0
M  V30 298 H 27.6048 3.01236 2.94678 0
M  V30 299 H 26.3288 1.78821 2.73296 0
M  V30 300 H 24.9878 3.40937 1.34751 0
M  V30 301 H 24.6358 3.27263 3.81979 0
M  V30 302 H 24.3358 4.92022 3.21229 0
M  V30 303 H 25.8598 4.5525 4.06915 0
M  V30 304 H 27.2738 5.38857 1.95718 0
M  V30 305 H 25.6708 5.85453 1.31776 0
M  V30 306 H 26.7408 4.83733 0.336219 0
M  V30 307 N 28.0839 -0.256276 1.55502 0
M  V30 308 C 29.0469 -1.30047 1.88734 0
M  V30 309 C 30.0469 -1.4154 0.763086 0
M  V30 310 O 31.2369 -1.40403 1.03115 0
M  V30 311 C 28.3689 -2.67953 2.10747 0
M  V30 312 H 29.5619 -1.01802 2.82093 0
M  V30 313 H 27.1149 -0.495134 1.4825 0
M  V30 314 H 27.8499 -3.01351 1.19825 0
M  V30 315 H 27.6349 -2.60993 2.92617 0
M  V30 316 H 29.1249 -3.43368 2.37673 0
M  V30 317 N 29.562 -1.4872 -0.521534 0
M  V30 318 C 30.81 -1.56857 -1.27437 0
M  V30 319 C 31.131 -0.247982 -1.93417 0
M  V30 320 O 30.401 0.731151 -1.81744 0
M  V30 321 H 28.981 -0.577885 -0.473347 0
M  V30 322 H 31.643 -1.85233 -0.606205 0
M  V30 323 H 30.739 -2.35402 -2.0492 0
M  V30 324 N 31.0401 0.771051 -1.3745 0
M  V30 325 C 32.2881 1.52661 -1.32435 0
M  V30 326 C 32.6091 1.9479 0.0905024 0
M  V30 327 O 31.8791 1.66348 1.03466 0
M  V30 328 H 30.4591 0.566218 -0.487244 0
M  V30 329 H 33.1211 0.917636 -1.71946 0
M  V30 330 H 32.2171 2.42568 -1.96385 0
M  V30 331 N 32.5182 1.22032 0.997298 0
M  V30 332 C 33.4812 0.987909 2.06816 0
M  V30 333 C 34.4812 -0.0440084 1.6074 0
M  V30 334 O 35.6712 0.194053 1.73116 0
M  V30 335 C 32.8032 0.49132 3.37341 0
M  V30 336 H 33.9962 1.93803 2.28868 0
M  V30 337 H 31.5492 1.03838 1.16822 0
M  V30 338 H 32.2842 -0.463364 3.20973 0
M  V30 339 H 32.0692 1.23575 3.72118 0
M  V30 340 H 33.5592 0.348824 4.16141 0
M  V30 341 N 33.9963 -1.19345 1.0293 0
M  V30 342 C 34.9283 -2.22036 0.56857 0
M  V30 343 C 35.9413 -1.58865 -0.355779 0
M  V30 344 O 37.1303 -1.77851 -0.152103 0
M  V30 345 C 34.2303 -3.38363 -0.190752 0
M  V30 346 C 33.4033 -4.31118 0.738643 0
M  V30 347 C 32.4623 -5.26194 0.0246497 0
M  V30 348 O 31.4883 -5.65461 0.651354 0
M  V30 349 N 32.6903 -5.66971 -1.24594 0
M  V30 350 H 35.4553 -2.6219 1.45177 0
M  V30 351 H 33.0163 -1.34015 0.908381 0
M  V30 352 H 35.0083 -3.98981 -0.677961 0
M  V30 353 H 33.5783 -2.96994 -0.975366 0
M  V30 354 H 32.7983 -3.68276 1.40593 0
M  V30 355 H 34.0863 -4.90001 1.37029 0
M  V30 356 H 33.4843 -5.37104 -1.77583 0
M  V30 357 H 32.0413 -6.2984 -1.67764 0
M  V30 358 N 35.4744 -0.807222 -1.35358 0
M  V30 359 C 36.4374 -0.223665 -2.28106 0
M  V30 360 C 37.4374 0.589354 -1.4961 0
M  V30 361 O 38.6274 0.407745 -1.69361 0
M  V30 362 C 35.7594 0.688149 -3.33882 0
M  V30 363 H 36.9524 -1.04169 -2.81227 0
M  V30 364 H 34.5054 -0.577921 -1.45223 0
M  V30 365 H 35.2404 1.52984 -2.85948 0
M  V30 366 H 35.0254 0.10687 -3.91954 0
M  V30 367 H 36.5154 1.09075 -4.03104 0
M  V30 368 N 36.9525 1.47285 -0.560781 0
M  V30 369 C 37.8845 2.28118 0.222438 0
M  V30 370 C 38.8975 1.37219 0.876056 0
M  V30 371 O 40.0865 1.62011 0.749307 0
M  V30 372 C 37.1865 3.1159 1.33285 0
M  V30 373 C 36.3595 4.30473 0.77534 0
M  V30 374 C 35.4185 4.95513 1.77069 0
M  V30 375 O 34.4445 5.53792 1.31539 0
M  V30 376 N 35.6465 4.90531 3.10418 0
M  V30 377 H 38.4115 2.95976 -0.470958 0
M  V30 378 H 35.9725 1.56955 -0.39709 0
M  V30 379 H 37.9645 3.51967 1.99752 0
M  V30 380 H 36.5345 2.45951 1.92943 0
M  V30 381 H 35.7545 3.94144 -0.0662113 0
M  V30 382 H 37.0425 5.07362 0.382272 0
M  V30 383 H 36.4405 4.44389 3.5005 0
M  V30 384 H 34.9975 5.34917 3.72434 0
M  V30 385 N 38.4306 0.297415 1.54768 0
M  V30 386 C 39.7076 -0.365847 1.92148 0
M  V30 387 C 40.0876 -1.71975 1.22424 0
M  V30 388 O 39.4356 -2.25666 0.358739 0
M  V30 389 C 39.6456 -0.484056 3.45627 0
M  V30 390 C 40.9936 -0.756594 4.17805 0
M  V30 391 O 42.0176 -0.568007 3.51642 0
M  V30 392 O 40.8766 -1.11863 5.34929 0
M  V30 393 H 37.9706 -0.203919 0.801465 0
M  V30 394 H 40.5166 0.34521 1.66152 0
M  V30 395 H 39.2886 0.467865 3.88493 0
M  V30 396 H 38.9116 -1.24372 3.77647 0
M  V30 397 N 39.9087 -1.5758 0.0250728 0
M  V30 398 C 40.8557 -2.09973 -0.958129 0
M  V30 399 C 41.8257 -1.00085 -1.3256 0
M  V30 400 O 43.0107 -1.27481 -1.41962 0
M  V30 401 C 40.1507 -2.62812 -2.2366 0
M  V30 402 C 39.2637 -3.86693 -1.92594 0
M  V30 403 C 38.3987 -4.27941 -3.14707 0
M  V30 404 C 37.4377 -5.44591 -2.79442 0
M  V30 405 N 36.5747 -5.81014 -3.94167 0
M  V30 406 H 41.4147 -2.937 -0.504428 0
M  V30 407 H 38.9517 -1.45172 -0.237392 0
M  V30 408 H 40.9097 -2.91536 -2.98434 0
M  V30 409 H 39.5397 -1.81922 -2.66654 0
M  V30 410 H 38.5917 -3.64723 -1.0808 0
M  V30 411 H 39.9037 -4.71547 -1.62619 0
M  V30 412 H 39.0577 -4.58079 -3.97804 0
M  V30 413 H 37.7967 -3.41845 -3.4784 0
M  V30 414 H 36.8017 -5.1415 -1.94755 0
M  V30 415 H 38.0267 -6.32382 -2.47528 0
M  V30 416 H 35.9727 -4.97874 -4.2715 0
M  V30 417 H 35.8897 -6.60498 -3.67801 0
M  V30 418 H 37.1577 -6.15756 -4.7798 0
M  V30 419 N 41.3868 0.248026 -1.55636 0
M  V30 420 C 42.7978 0.817177 -1.67866 0
M  V30 421 C 43.1488 1.86069 -0.622322 0
M  V30 422 O 42.2738 2.15157 0.231618 0
M  V30 423 C 42.8688 1.489 -3.04326 0
M  V30 424 C 41.4278 2.00587 -3.185 0
M  V30 425 C 40.5748 0.856573 -2.63739 0
M  V30 426 H 43.5258 0.0238579 -1.58682 0
M  V30 427 H 43.5468 2.35698 -2.98708 0
M  V30 428 H 43.0588 0.729279 -3.81186 0
M  V30 429 H 41.1598 2.79443 -2.4646 0
M  V30 430 H 41.2728 2.20402 -4.25393 0
M  V30 431 H 39.6368 1.25678 -2.21534 0
M  V30 432 H 40.4198 0.109953 -3.43124 0
M  V30 433 N 42.8649 1.48995 0.513639 0
M  V30 434 C 44.2809 1.35478 0.843682 0
M  V30 435 C 44.4809 0.378213 1.97919 0
M  V30 436 O 43.5369 -0.194689 2.51748 0
M  V30 437 C 44.8499 2.75901 1.1958 0
M  V30 438 C 46.3979 2.84509 1.30474 0
M  V30 439 C 46.8729 4.25671 1.69021 0
M  V30 440 N 48.3639 4.28422 1.76094 0
M  V30 441 C 49.0989 5.34601 2.07338 0
M  V30 442 N 48.5949 6.5104 2.36894 0
M  V30 443 N 50.3879 5.22007 2.08483 0
M  V30 444 H 42.5389 2.11092 -0.235328 0
M  V30 445 H 44.8019 0.947039 -0.0426669 0
M  V30 446 H 44.5079 3.49001 0.434913 0
M  V30 447 H 44.3819 3.10467 2.1422 0
M  V30 448 H 46.7689 2.11655 2.05637 0
M  V30 449 H 46.8499 2.53542 0.339155 0
M  V30 450 H 46.4939 4.99048 0.944135 0
M  V30 451 H 46.4239 4.54094 2.66658 0
M  V30 452 H 48.9149 3.44441 1.55464 0
M  V30 453 H 49.2279 7.2779 2.59887 0
M  V30 454 H 47.5729 6.54287 2.34378 0
M  V30 455 H 50.7639 4.30051 1.84861 0
M  V30 456 H 50.9369 6.04854 2.325 0
M  V30 457 N 44.343 -0.763751 1.37857 0
M  V30 458 C 45.253 -1.90817 1.36478 0
M  V30 459 C 46.269 -1.71997 0.263248 0
M  V30 460 O 47.445 -1.95095 0.499979 0
M  V30 461 C 44.51 -3.2605 1.17864 0
M  V30 462 C 43.571 -3.57467 2.3773 0
M  V30 463 C 42.804 -4.86249 2.19995 0
M  V30 464 O 43.027 -5.57884 1.18836 0
M  V30 465 O 41.961 -5.16911 3.08361 0
M  V30 466 H 45.787 -1.94933 2.32884 0
M  V30 467 H 43.372 -0.907619 1.1867 0
M  V30 468 H 45.254 -4.06924 1.09504 0
M  V30 469 H 43.929 -3.22769 0.245372 0
M  V30 470 H 42.836 -2.76796 2.51664 0
M  V30 471 H 44.169 -3.655 3.29652 0
M  V30 472 N 45.8211 -1.22559 -0.990812 0
M  V30 473 C 47.0671 -1.05297 -1.73322 0
M  V30 474 C 47.4001 0.410655 -1.89808 0
M  V30 475 O 46.6751 1.30439 -1.44277 0
M  V30 476 C 46.9581 -1.76713 -3.13759 0
M  V30 477 C 46.8111 -3.30684 -3.04907 0
M  V30 478 C 48.1301 -1.52121 -4.12974 0
M  V30 479 H 45.2491 -0.38392 -0.629106 0
M  V30 480 H 47.8911 -1.50926 -1.15418 0
M  V30 481 H 46.0411 -1.37924 -3.63193 0
M  V30 482 H 47.7131 -3.7893 -2.63077 0
M  V30 483 H 45.9561 -3.60253 -2.41661 0
M  V30 484 H 46.6271 -3.75833 -4.04294 0
M  V30 485 H 49.1031 -1.85819 -3.72304 0
M  V30 486 H 47.9791 -2.04582 -5.0935 0
M  V30 487 H 48.2401 -0.454257 -4.3976 0
M  V30 488 N 47.2992 1.18797 -1.03562 0
M  V30 489 C 48.2292 2.24472 -0.643019 0
M  V30 490 C 49.2102 1.66433 0.351283 0
M  V30 491 O 50.3952 1.92803 0.232505 0
M  V30 492 C 47.5252 3.473 4.24935e-05 0
M  V30 493 C 46.4792 4.18055 -0.917257 0
M  V30 494 C 45.8052 5.34519 -0.138941 0
M  V30 495 C 47.1052 4.72109 -2.23407 0
M  V30 496 H 48.7992 2.57566 -1.52643 0
M  V30 497 H 46.3452 1.23806 -0.735394 0
M  V30 498 H 48.2982 4.20426 0.286383 0
M  V30 499 H 47.0222 3.13424 0.918299 0
M  V30 500 H 45.6812 3.46821 -1.1879 0
M  V30 501 H 45.3292 4.96891 0.781562 0
M  V30 502 H 45.0292 5.82794 -0.750005 0
M  V30 503 H 46.5532 6.10438 0.1405 0
M  V30 504 H 47.9672 5.36955 -2.00879 0
M  V30 505 H 46.3642 5.30897 -2.79765 0
M  V30 506 H 47.4342 3.89807 -2.88407 0
M  V30 507 N 48.7773 0.814389 1.34928 0
M  V30 508 C 50.0053 0.411136 2.02774 0
M  V30 509 C 50.4203 -0.980316 1.61354 0
M  V30 510 O 49.7773 -1.63299 0.814847 0
M  V30 511 C 49.8283 0.493865 3.58111 0
M  V30 512 O 49.5493 1.83047 3.98027 0
M  V30 513 C 51.0503 0.0844174 4.4322 0
M  V30 514 H 48.2703 0.166037 0.650133 0
M  V30 515 H 50.8143 1.10018 1.72384 0
M  V30 516 H 48.9693 -0.147006 3.87121 0
M  V30 517 H 49.3833 1.79872 4.92693 0
M  V30 518 H 50.8573 0.193404 5.51661 0
M  V30 519 H 51.3343 -0.97113 4.28329 0
M  V30 520 H 51.9403 0.69875 4.19521 0
M  V30 521 N 50.2554 -1.46986 0.568584 0
M  V30 522 C 51.5034 -2.02041 0.0487022 0
M  V30 523 C 51.8244 -1.44408 -1.31039 0
M  V30 524 O 51.0944 -0.623477 -1.85714 0
M  V30 525 H 49.6744 -0.746849 0.015014 0
M  V30 526 H 52.3364 -1.80257 0.741168 0
M  V30 527 H 51.4324 -3.12085 -0.0308961 0
M  V30 528 N 51.7335 -0.305618 -1.54608 0
M  V30 529 C 52.9815 0.301701 -1.99835 0
M  V30 530 C 53.3025 1.54054 -1.19551 0
M  V30 531 O 52.5725 1.93702 -0.292658 0
M  V30 532 H 51.1525 0.114468 -0.738178 0
M  V30 533 H 53.8145 -0.418016 -1.90364 0
M  V30 534 H 52.9105 0.570548 -3.06841 0
M  V30 535 N 53.2116 1.57565 -0.0334293 0
M  V30 536 C 54.1616 2.06978 0.956237 0
M  V30 537 C 55.1456 0.971193 1.28283 0
M  V30 538 O 56.3376 1.23471 1.26822 0
M  V30 539 C 53.4666 2.60393 2.23719 0
M  V30 540 C 52.5526 3.7719 1.93877 0
M  V30 541 N 52.9436 4.87639 1.34321 0
M  V30 542 C 51.2416 3.85758 2.23845 0
M  V30 543 C 51.9426 5.68825 1.21709 0
M  V30 544 N 50.9186 5.1587 1.71404 0
M  V30 545 H 54.7206 2.89773 0.490815 0
M  V30 546 H 52.2346 1.61492 0.171478 0
M  V30 547 H 54.2316 2.94088 2.95496 0
M  V30 548 H 52.8916 1.79031 2.70884 0
M  V30 549 H 53.9026 5.07803 1.01767 0
M  V30 550 H 50.5796 3.1531 2.73653 0
M  V30 551 H 51.9696 6.67631 0.75621 0
M  V30 552 N 54.6897 -0.239769 1.55765 0
M  V30 553 C 55.9147 -0.988373 1.82335 0
M  V30 554 C 56.3397 -1.77886 0.611421 0
M  V30 555 O 55.6977 -1.75889 -0.439639 0
M  V30 556 C 55.7457 -1.89627 3.06715 0
M  V30 557 O 54.8497 -2.98904 2.84131 0
M  V30 558 H 54.1907 -0.280858 0.601677 0
M  V30 559 H 56.7207 -0.258597 2.02959 0
M  V30 560 H 56.7307 -2.30957 3.36338 0
M  V30 561 H 55.4057 -1.31511 3.9456 0
M  V30 562 H 53.9827 -2.61651 2.65694 0
M  V30 563 N 56.1678 -1.49265 -0.50573 0
M  V30 564 C 57.4138 -1.58748 -1.26202 0
M  V30 565 C 57.7468 -0.271227 -1.92297 0
M  V30 566 O 57.0218 0.724831 -1.80489 0
M  V30 567 C 57.3048 -2.74332 -2.33268 0
M  V30 568 C 57.1578 -4.15737 -1.71705 0
M  V30 569 C 58.4768 -2.85576 -3.34865 0
M  V30 570 H 55.5958 -0.577826 -0.457478 0
M  V30 571 H 58.2378 -1.81532 -0.560897 0
M  V30 572 H 56.3878 -2.55036 -2.93068 0
M  V30 573 H 58.0598 -4.46537 -1.15769 0
M  V30 574 H 56.3028 -4.21605 -1.02135 0
M  V30 575 H 56.9738 -4.92477 -2.49341 0
M  V30 576 H 59.4498 -3.03127 -2.8505 0
M  V30 577 H 58.3258 -3.68135 -4.07146 0
M  V30 578 H 58.5868 -1.94732 -3.96903 0
M  V30 579 N 57.6459 0.756429 -1.3826 0
M  V30 580 C 58.8709 1.55077 -1.37717 0
M  V30 581 C 59.2959 1.88073 0.03164 0
M  V30 582 O 58.6539 1.50364 1.01293 0
M  V30 583 C 58.7019 2.8283 -2.23695 0
M  V30 584 O 57.8059 3.77862 -1.6521 0
M  V30 585 H 57.1469 0.469152 -0.469885 0
M  V30 586 H 59.6769 0.935019 -1.81985 0
M  V30 587 H 59.6869 3.31783 -2.37453 0
M  V30 588 H 58.3619 2.58144 -3.2609 0
M  V30 589 H 56.9389 3.36555 -1.60578 0
M  V30 590 N 59.124 1.23083 0.984299 0
M  V30 591 C 60.087 1.00979 2.05757 0
M  V30 592 C 61.087 -0.0269573 1.60777 0
M  V30 593 O 62.277 0.212403 1.729 0
M  V30 594 C 59.409 0.527072 3.36801 0
M  V30 595 H 60.602 1.9622 2.26799 0
M  V30 596 H 58.155 1.05072 1.15714 0
M  V30 597 H 58.89 -0.429294 3.21446 0
M  V30 598 H 58.675 1.27515 3.70786 0
M  V30 599 H 60.165 0.392942 4.15747 0
M  V30 600 N 60.6021 -1.18246 1.0419 0
M  V30 601 C 62.0131 -1.69914 0.773698 0
M  V30 602 C 62.3641 -1.83085 -0.705297 0
M  V30 603 O 61.4891 -1.51123 -1.5489 0
M  V30 604 C 62.0841 -3.08619 1.39784 0
M  V30 605 C 60.6431 -3.57494 1.17792 0
M  V30 606 C 59.7901 -2.34013 1.48773 0
M  V30 607 H 62.7411 -1.02904 1.20816 0
M  V30 608 H 62.7621 -3.71958 0.801714 0
M  V30 609 H 62.2741 -2.99001 2.47426 0
M  V30 610 H 60.3751 -3.72406 0.120295 0
M  V30 611 H 60.4881 -4.40852 1.87581 0
M  V30 612 H 58.8521 -2.37986 0.907463 0
M  V30 613 H 59.6351 -2.27013 2.57527 0
M  V30 614 N 62.0802 -0.821533 -1.34494 0
M  V30 615 C 63.0122 -0.199946 -2.28326 0
M  V30 616 C 64.0252 0.609377 -1.50965 0
M  V30 617 O 65.2142 0.439285 -1.7301 0
M  V30 618 C 62.3142 0.738431 -3.30757 0
M  V30 619 C 61.4872 -0.0277632 -4.37391 0
M  V30 620 C 60.5462 0.831332 -5.19591 0
M  V30 621 O 59.5722 0.276822 -5.68526 0
M  V30 622 N 60.7742 2.15132 -5.39165 0
M  V30 623 H 63.5392 -1.00609 -2.82308 0
M  V30 624 H 61.1002 -0.678366 -1.47003 0
M  V30 625 H 63.0922 1.31773 -3.82646 0
M  V30 626 H 61.6622 1.44533 -2.7718 0
M  V30 627 H 60.8822 -0.788359 -3.86236 0
M  V30 628 H 62.1702 -0.555251 -5.05761 0
M  V30 629 H 61.5682 2.62559 -5.01078 0
M  V30 630 H 60.1252 2.6795 -5.94177 0
M  V30 631 N 63.5583 1.46682 -0.576371 0
M  V30 632 C 64.4683 2.34032 0.163141 0
M  V30 633 C 65.4843 1.49367 0.892501 0
M  V30 634 O 66.6603 1.82252 0.857106 0
M  V30 635 C 63.7253 3.26435 1.16795 0
M  V30 636 C 62.7863 4.26998 0.443944 0
M  V30 637 C 62.0193 5.14986 1.40088 0
M  V30 638 O 62.2423 5.05785 2.637 0
M  V30 639 O 61.1763 5.94906 0.914917 0
M  V30 640 H 65.0023 2.98607 -0.55388 0
M  V30 641 H 62.5873 1.45554 -0.336821 0
M  V30 642 H 64.4693 3.83459 1.74748 0
M  V30 643 H 63.1443 2.64465 1.86655 0
M  V30 644 H 62.0513 3.7368 -0.177271 0
M  V30 645 H 63.3843 4.91736 -0.213566 0
M  V30 646 N 65.0364 0.313813 1.54444 0
M  V30 647 C 65.9844 -0.572171 2.25453 0
M  V30 648 C 66.9784 -1.12657 1.2651 0
M  V30 649 O 68.1844 -1.07573 1.44319 0
M  V30 650 H 64.5594 -0.203146 0.724041 0
M  V30 651 H 66.5304 0.0491145 2.9836 0
M  V30 652 C 65.2794 -1.72626 3.0182 0
M  V30 653 H 64.6024 -1.30891 3.77767 0
M  V30 654 H 66.0424 -2.32199 3.54767 0
M  V30 655 C 64.5014 -2.63806 2.09542 0
M  V30 656 O 65.0314 -3.65256 1.67185 0
M  V30 657 N 63.2374 -2.31824 1.75232 0
M  V30 658 H 62.7844 -1.49368 2.09873 0
M  V30 659 H 62.7424 -2.93095 1.13767 0
M  V30 660 N 66.5145 -1.57545 0.0417849 0
M  V30 661 C 67.9305 -1.56467 -0.314704 0
M  V30 662 C 68.1305 -1.04859 -1.72066 0
M  V30 663 O 67.1865 -0.700983 -2.42575 0
M  V30 664 C 68.4995 -3.00317 -0.15174 0
M  V30 665 C 70.0475 -3.12201 -0.223553 0
M  V30 666 C 70.5225 -4.57913 -0.0892295 0
M  V30 667 N 72.0135 -4.6297 -0.145808 0
M  V30 668 C 72.7485 -5.73362 -0.0658459 0
M  V30 669 N 72.2445 -6.92769 0.0659282 0
M  V30 670 N 74.0375 -5.6197 -0.12075 0
M  V30 671 H 66.1885 -1.89416 0.961014 0
M  V30 672 H 68.4515 -0.871862 0.372237 0
M  V30 673 H 68.1575 -3.42073 0.817254 0
M  V30 674 H 68.0315 -3.65892 -0.916692 0
M  V30 675 H 70.4185 -2.70349 -1.18301 0
M  V30 676 H 70.4995 -2.49323 0.571994 0
M  V30 677 H 70.1435 -5.00448 0.866867 0
M  V30 678 H 70.0735 -5.18786 -0.903802 0
M  V30 679 H 72.5645 -3.7709 -0.247286 0
M  V30 680 H 72.8775 -7.72707 0.119905 0
M  V30 681 H 71.2225 -6.94927 0.100885 0
M  V30 682 H 74.4135 -4.67572 -0.222187 0
M  V30 683 H 74.5865 -6.47977 -0.0549735 0
M  V30 684 N 67.9926 0.231505 -1.5589 0
M  V30 685 C 69.2416 0.955346 -1.7764 0
M  V30 686 C 69.5546 1.85893 -0.608546 0
M  V30 687 O 70.7606 2.62067 -0.70943 0
M  V30 688 C 69.2166 1.74886 -3.14552 0
M  V30 689 C 68.8246 0.891915 -4.39032 0
M  V30 690 C 70.5686 2.46452 -3.45633 0
M  V30 691 C 68.4756 1.68221 -5.66971 0
M  V30 692 H 67.4056 0.360446 -0.662265 0
M  V30 693 H 70.0566 0.209516 -1.823 0
M  V30 694 H 68.4386 2.53723 -3.04041 0
M  V30 695 H 69.6126 0.144793 -4.60572 0
M  V30 696 H 67.9276 0.288863 -4.15397 0
M  V30 697 H 70.5246 3.06061 -4.38441 0
M  V30 698 H 70.8676 3.18841 -2.67668 0
M  V30 699 H 71.4006 1.74613 -3.57428 0
M  V30 700 H 68.1396 1.00178 -6.478 0
M  V30 701 H 67.6596 2.4042 -5.49507 0
M  V30 702 H 69.3386 2.24544 -6.06786 0
M  V30 703 N 69.4707 1.49531 0.497807 0
M  V30 704 C 70.7007 1.62657 1.27382 0
M  V30 705 C 71.1087 0.298488 1.86831 0
M  V30 706 O 70.4517 -0.72647 1.68725 0
M  V30 707 C 70.5137 2.6393 2.44093 0
M  V30 708 C 70.1777 4.08195 2.05489 0
M  V30 709 C 71.1747 4.949 1.59279 0
M  V30 710 C 68.8597 4.53948 2.15026 0
M  V30 711 C 70.8537 6.25397 1.23113 0
M  V30 712 C 68.5407 5.84458 1.78473 0
M  V30 713 C 69.5387 6.70006 1.32591 0
M  V30 714 O 69.2267 7.98083 0.965327 0
M  V30 715 H 68.9587 0.550429 0.392434 0
M  V30 716 H 71.5127 1.96325 0.603801 0
M  V30 717 H 69.7427 2.25449 3.14181 0
M  V30 718 H 71.4317 2.66552 3.06113 0
M  V30 719 H 72.1977 4.60779 1.51354 0
M  V30 720 H 68.0767 3.87525 2.4969 0
M  V30 721 H 71.6207 6.92125 0.872299 0
M  V30 722 H 67.5177 6.18107 1.86048 0
M  V30 723 H 68.2857 8.11122 1.09652 0
M  V30 724 N 70.9488 -0.749086 1.3866 0
M  V30 725 C 72.1948 -1.51056 1.35314 0
M  V30 726 C 72.5278 -1.94121 -0.0553751 0
M  V30 727 O 71.8028 -1.65763 -1.01749 0
M  V30 728 C 72.0858 -2.76003 2.31288 0
M  V30 729 C 71.9388 -2.39047 3.8102 0
M  V30 730 C 73.2578 -3.78046 2.2532 0
M  V30 731 H 70.3768 -0.547972 0.492844 0
M  V30 732 H 73.0188 -0.857628 1.69543 0
M  V30 733 H 71.1688 -3.31716 2.02229 0
M  V30 734 H 72.8408 -1.89074 4.20771 0
M  V30 735 H 71.0838 -1.71449 3.98482 0
M  V30 736 H 71.7548 -3.28462 4.4364 0
M  V30 737 H 74.2308 -3.31884 2.50983 0
M  V30 738 H 73.1068 -4.63159 2.94576 0
M  V30 739 H 73.3678 -4.23957 1.25352 0
M  V30 740 N 72.4269 -1.23603 -0.977757 0
M  V30 741 C 73.3599 -0.962772 -2.06896 0
M  V30 742 C 74.3379 0.0998743 -1.62293 0
M  V30 743 O 75.5219 -0.0349421 -1.88468 0
M  V30 744 C 72.6489 -0.45095 -3.35685 0
M  V30 745 C 71.6949 -1.50061 -3.99229 0
M  V30 746 S 72.5279 -3.07884 -4.38142 0
M  V30 747 C 73.6839 -2.58378 -5.7008 0
M  V30 748 H 73.9169 -1.88677 -2.29757 0
M  V30 749 H 71.4499 -1.06876 -1.11431 0
M  V30 750 H 73.4079 -0.162261 -4.10179 0
M  V30 751 H 72.0689 0.452179 -3.10828 0
M  V30 752 H 71.2619 -1.09269 -4.92013 0
M  V30 753 H 70.8639 -1.73878 -3.31123 0
M  V30 754 H 73.1559 -2.00563 -6.47133 0
M  V30 755 H 74.0989 -3.49711 -6.15717 0
M  V30 756 H 74.5069 -1.99143 -5.28207 0
M  V30 757 N 73.905 1.17692 -1.04816 0
M  V30 758 C 75.182 1.83768 -0.669963 0
M  V30 759 C 75.562 1.93232 0.849986 0
M  V30 760 O 74.91 1.46397 1.75443 0
M  V30 761 C 75.12 3.21641 -1.35455 0
M  V30 762 C 76.468 3.97592 -1.49017 0
M  V30 763 O 77.492 3.31107 -1.31326 0
M  V30 764 O 76.351 5.16729 -1.77914 0
M  V30 765 H 73.445 0.792799 -0.235368 0
M  V30 766 H 75.991 1.25021 -1.14751 0
M  V30 767 H 74.763 3.097 -2.39168 0
M  V30 768 H 74.386 3.88052 -0.866107 0
M  V30 769 N 75.3831 0.828654 1.34056 0
M  V30 770 C 76.6081 0.431637 2.02859 0
M  V30 771 C 77.0331 -0.956339 1.61975 0
M  V30 772 O 76.3911 -1.62338 0.807228 0
M  V30 773 C 76.4391 0.548323 3.56407 0
M  V30 774 O 75.5431 -0.429556 4.10157 0
M  V30 775 H 74.8841 0.176886 0.640006 0
M  V30 776 H 77.4141 1.12066 1.71179 0
M  V30 777 H 77.4241 0.426196 4.05768 0
M  V30 778 H 76.0991 1.5606 3.8551 0
M  V30 779 H 74.6761 -0.265836 3.71951 0
M  V30 780 N 76.8612 -1.46375 0.584142 0
M  V30 781 C 78.1072 -2.02678 0.0703716 0
M  V30 782 C 78.4402 -1.4545 -1.28678 0
M  V30 783 O 77.7152 -0.62014 -1.84349 0
M  V30 784 C 77.9982 -3.60099 0.00614674 0
M  V30 785 C 77.8512 -4.27709 1.3923 0
M  V30 786 C 79.1702 -4.34598 -0.693742 0
M  V30 787 H 76.2892 -0.736504 0.027047 0
M  V30 788 H 78.9312 -1.74501 0.751615 0
M  V30 789 H 77.0812 -3.84236 -0.574009 0
M  V30 790 H 78.7532 -4.14832 2.01773 0
M  V30 791 H 76.9962 -3.87016 1.95962 0
M  V30 792 H 77.6672 -5.36478 1.29982 0
M  V30 793 H 80.1432 -4.15615 -0.200869 0
M  V30 794 H 79.0192 -5.44318 -0.707714 0
M  V30 795 H 79.2802 -4.05759 -1.75533 0
M  V30 796 N 78.3393 -0.321999 -1.54275 0
M  V30 797 C 79.5863 0.281044 -2.0054 0
M  V30 798 C 79.9143 1.52265 -1.21019 0
M  V30 799 O 79.1693 1.93687 -0.279982 0
M  V30 800 C 79.4683 0.661769 -3.5122 0
M  V30 801 C 79.1343 -0.480482 -4.48333 0
M  V30 802 C 77.7963 -0.794005 -4.74604 0
M  V30 803 C 80.1483 -1.24783 -5.06042 0
M  V30 804 C 77.4763 -1.87763 -5.55844 0
M  V30 805 C 79.8283 -2.32153 -5.88462 0
M  V30 806 C 78.4923 -2.64089 -6.13036 0
M  V30 807 H 77.7623 0.102841 -0.733829 0
M  V30 808 H 80.4093 -0.445453 -1.86247 0
M  V30 809 H 78.7143 1.46867 -3.63232 0
M  V30 810 H 80.4113 1.13989 -3.84457 0
M  V30 811 H 77.0013 -0.226039 -4.28004 0
M  V30 812 H 81.1853 -1.01887 -4.85729 0
M  V30 813 H 76.4413 -2.12954 -5.73115 0
M  V30 814 H 80.6153 -2.92057 -6.32199 0
M  V30 815 H 78.2423 -3.48185 -6.75775 0
M  V30 816 N 79.8174 1.5752 -0.0501392 0
M  V30 817 C 80.7504 2.07026 0.959962 0
M  V30 818 C 81.7284 0.970539 1.30458 0
M  V30 819 O 82.9124 1.2424 1.41763 0
M  V30 820 C 80.0394 2.5099 2.27424 0
M  V30 821 C 79.0854 3.72188 2.08275 0
M  V30 822 S 79.9184 5.17888 1.36207 0
M  V30 823 C 81.0744 5.65165 2.6896 0
M  V30 824 H 81.3074 2.9238 0.538631 0
M  V30 825 H 78.8404 1.53547 0.162099 0
M  V30 826 H 80.7984 2.76982 3.02971 0
M  V30 827 H 79.4594 1.65944 2.66686 0
M  V30 828 H 78.6524 4.00866 3.05487 0
M  V30 829 H 78.2544 3.46457 1.40868 0
M  V30 830 H 80.5464 5.70687 3.65133 0
M  V30 831 H 81.4894 6.64394 2.4492 0
M  V30 832 H 81.8974 4.9289 2.75172 0
M  V30 833 N 81.2955 -0.223234 1.56011 0
M  V30 834 C 82.2455 -1.28008 1.88674 0
M  V30 835 C 83.2295 -1.42369 0.749663 0
M  V30 836 O 84.4215 -1.45212 1.01205 0
M  V30 837 C 81.5505 -2.63084 2.20548 0
M  V30 838 C 80.6365 -2.52632 3.40643 0
M  V30 839 N 81.0275 -2.11829 4.59306 0
M  V30 840 C 79.3255 -2.83594 3.44224 0
M  V30 841 C 80.0265 -2.12587 5.41463 0
M  V30 842 N 79.0025 -2.5301 4.81131 0
M  V30 843 H 82.8045 -0.955487 2.77935 0
M  V30 844 H 80.3185 -0.431801 1.56554 0
M  V30 845 H 82.3155 -3.39385 2.42122 0
M  V30 846 H 80.9755 -2.96391 1.32599 0
M  V30 847 H 81.9865 -1.82988 4.84496 0
M  V30 848 H 78.6635 -3.21284 2.66614 0
M  V30 849 H 80.0535 -1.83179 6.46448 0
M  V30 850 N 82.7736 -1.49793 -0.48987 0
M  V30 851 C 83.7036 -1.70201 -1.59856 0
M  V30 852 C 84.6846 -0.55076 -1.60937 0
M  V30 853 O 85.8696 -0.787841 -1.77501 0
M  V30 854 C 82.9996 -1.77882 -2.98287 0
M  V30 855 C 81.9536 -2.92907 -3.12073 0
M  V30 856 C 81.2796 -2.85712 -4.51965 0
M  V30 857 C 82.5796 -4.3369 -2.91051 0
M  V30 858 H 84.2736 -2.63025 -1.43032 0
M  V30 859 H 81.8196 -1.26574 -0.686664 0
M  V30 860 H 83.7726 -1.90744 -3.75759 0
M  V30 861 H 82.4966 -0.816653 -3.16225 0
M  V30 862 H 81.1556 -2.79665 -2.37029 0
M  V30 863 H 80.8036 -1.8738 -4.66795 0
M  V30 864 H 80.5036 -3.62921 -4.62128 0
M  V30 865 H 82.0276 -3.00598 -5.31482 0
M  V30 866 H 83.4416 -4.47555 -3.58284 0
M  V30 867 H 81.8386 -5.12205 -3.12675 0
M  V30 868 H 82.9086 -4.47362 -1.87071 0
M  V30 869 N 84.2517 0.741722 -1.39055 0
M  V30 870 C 85.4797 1.53098 -1.39171 0
M  V30 871 C 85.8947 1.88794 0.0155099 0
M  V30 872 O 85.2517 1.53626 0.985159 0
M  V30 873 C 85.3027 2.82274 -2.2584 0
M  V30 874 O 85.0237 2.48097 -3.61081 0
M  V30 875 C 86.5247 3.76343 -2.34266 0
M  V30 876 H 83.7447 0.473335 -0.4756 0
M  V30 877 H 86.2887 0.917045 -1.82785 0
M  V30 878 H 84.4437 3.40015 -1.85656 0
M  V30 879 H 84.8577 3.31029 -4.06842 0
M  V30 880 H 86.3317 4.63898 -2.9917 0
M  V30 881 H 86.8087 4.17619 -1.35982 0
M  V30 882 H 87.4147 3.24523 -2.74891 0
M  V30 883 N 85.7298 1.2412 0.971189 0
M  V30 884 C 86.6398 1.04747 2.09917 0
M  V30 885 C 87.6558 -0.0107162 1.73997 0
M  V30 886 O 88.8318 0.186714 2.00533 0
M  V30 887 C 85.8968 0.650828 3.40537 0
M  V30 888 C 84.9578 1.7851 3.90426 0
M  V30 889 C 84.1908 1.40729 5.14812 0
M  V30 890 O 84.4138 0.29557 5.69634 0
M  V30 891 O 83.3478 2.23168 5.58999 0
M  V30 892 H 87.1738 1.99304 2.29154 0
M  V30 893 H 84.7588 1.02908 1.08307 0
M  V30 894 H 86.6408 0.440992 4.19086 0
M  V30 895 H 85.3158 -0.265649 3.22608 0
M  V30 896 H 84.2228 2.04966 3.12953 0
M  V30 897 H 85.5558 2.68023 4.12825 0
M  V30 898 N 87.2079 -1.17134 1.05439 0
M  V30 899 C 88.4329 -1.91913 0.786396 0
M  V30 900 C 88.8579 -1.7643 -0.652234 0
M  V30 901 O 88.2159 -1.08372 -1.45345 0
M  V30 902 C 88.2639 -3.40921 1.17497 0
M  V30 903 O 87.3679 -4.11244 0.308589 0
M  V30 904 H 86.7089 -0.598215 0.288158 0
M  V30 905 H 89.2389 -1.48457 1.4079 0
M  V30 906 H 89.2489 -3.91668 1.14281 0
M  V30 907 H 87.9239 -3.5151 2.22292 0
M  V30 908 H 86.5009 -3.70731 0.40157 0
M  V30 909 N 88.686 -0.835752 -1.33615 0
M  V30 910 C 90.102 -0.523139 -1.50783 0
M  V30 911 C 90.302 0.950171 -1.77691 0
M  V30 912 O 89.358 1.73411 -1.83534 0
M  V30 913 C 90.671 -1.39378 -2.66448 0
M  V30 914 C 92.219 -1.39223 -2.80332 0
M  V30 915 C 92.694 -2.24765 -3.99055 0
M  V30 916 N 94.185 -2.22458 -4.06284 0
M  V30 917 C 94.92 -2.85386 -4.97336 0
M  V30 918 N 94.416 -3.57354 -5.93523 0
M  V30 919 N 96.209 -2.74872 -4.90308 0
M  V30 920 H 88.36 -1.78952 -1.14411 0
M  V30 921 H 90.623 -0.763297 -0.562212 0
M  V30 922 H 90.329 -2.44061 -2.53234 0
M  V30 923 H 90.203 -1.0676 -3.61776 0
M  V30 924 H 92.59 -0.353136 -2.92979 0
M  V30 925 H 92.671 -1.75846 -1.85773 0
M  V30 926 H 92.315 -3.28732 -3.87167 0
M  V30 927 H 92.245 -1.85485 -4.92852 0
M  V30 928 H 94.736 -1.70119 -3.37443 0
M  V30 929 H 95.049 -4.02584 -6.59656 0
M  V30 930 H 93.394 -3.61461 -5.93608 0
M  V30 931 H 96.585 -2.18213 -4.14126 0
M  V30 932 H 96.758 -3.24199 -5.61069 0
M  V30 933 N 90.1641 1.46063 -0.591896 0
M  V30 934 C 91.4101 2.02638 -0.0811191 0
M  V30 935 C 91.7431 1.4613 1.27905 0
M  V30 936 O 91.0181 0.629908 1.84017 0
M  V30 937 C 91.3011 3.60091 -0.0252436 0
M  V30 938 C 91.1541 4.26965 -1.41496 0
M  V30 939 C 92.4731 4.3496 0.670685 0
M  V30 940 H 89.5921 0.73635 -0.0309524 0
M  V30 941 H 92.2341 1.741 -0.760859 0
M  V30 942 H 90.3841 3.84535 0.553624 0
M  V30 943 H 92.0561 4.13756 -2.0397 0
M  V30 944 H 90.2991 3.85971 -1.98011 0
M  V30 945 H 90.9701 5.35781 -1.32825 0
M  V30 946 H 93.4461 4.15716 0.178825 0
M  V30 947 H 92.3221 5.44686 0.678837 0
M  V30 948 H 92.5831 4.06685 1.73379 0
M  V30 949 N 91.6422 0.330177 1.54103 0
M  V30 950 C 92.5922 -0.548456 2.21305 0
M  V30 951 C 93.5762 -1.07651 1.19583 0
M  V30 952 O 94.7682 -1.01243 1.45186 0
M  V30 953 C 91.8972 -1.70559 2.97934 0
M  V30 954 C 90.9832 -1.19212 4.07 0
M  V30 955 N 91.3742 -0.398831 5.04225 0
M  V30 956 C 89.6722 -1.47024 4.2107 0
M  V30 957 C 90.3732 -0.121761 5.81573 0
M  V30 958 N 89.3492 -0.709722 5.38947 0
M  V30 959 H 93.1512 0.0648483 2.93828 0
M  V30 960 H 90.6652 0.136363 1.61826 0
M  V30 961 H 92.6622 -2.34688 3.44568 0
M  V30 962 H 91.3222 -2.32231 2.26934 0
M  V30 963 H 92.3332 -0.0410869 5.17884 0
M  V30 964 H 89.0102 -2.09232 3.61287 0
M  V30 965 H 90.4002 0.517298 6.69906 0
M  V30 966 N 93.1203 -1.57491 0.0584922 0
M  V30 967 C 94.3663 -1.93264 -0.614558 0
M  V30 968 C 94.6993 -0.937717 -1.7006 0
M  V30 969 O 93.9743 0.0351652 -1.94468 0
M  V30 970 C 94.2573 -3.3938 -1.20386 0
M  V30 971 C 94.1103 -4.49625 -0.125375 0
M  V30 972 C 95.4293 -3.86039 -2.11334 0
M  V30 973 H 92.5483 -0.702791 -0.221933 0
M  V30 974 H 95.1903 -1.8961 0.12175 0
M  V30 975 H 93.3403 -3.42626 -1.83139 0
M  V30 976 H 95.0123 -4.58506 0.506971 0
M  V30 977 H 93.2553 -4.30354 0.545672 0
M  V30 978 H 93.9263 -5.48967 -0.577861 0
M  V30 979 H 96.4023 -3.84716 -1.58534 0
M  V30 980 H 95.2783 -4.88914 -2.49507 0
M  V30 981 H 95.5393 -3.23215 -3.01636 0
M  V30 982 N 94.5984 0.214957 -1.56127 0
M  V30 983 C 95.8284 0.953707 -1.8327 0
M  V30 984 C 96.2364 1.78181 -0.636262 0
M  V30 985 O 95.5794 1.79191 0.404516 0
M  V30 986 C 95.6414 1.91516 -3.0424 0
M  V30 987 C 95.3054 1.27094 -4.38972 0
M  V30 988 C 96.3024 0.657575 -5.15725 0
M  V30 989 C 93.9874 1.28073 -4.85698 0
M  V30 990 C 95.9814 0.0625968 -6.37369 0
M  V30 991 C 93.6684 0.681914 -6.07283 0
M  V30 992 C 94.6664 0.0739046 -6.8296 0
M  V30 993 O 94.3544 -0.515582 -8.02245 0
M  V30 994 H 94.0864 0.284764 -0.613095 0
M  V30 995 H 96.6404 0.233283 -2.04071 0
M  V30 996 H 94.8704 2.67475 -2.79274 0
M  V30 997 H 96.5594 2.52001 -3.18198 0
M  V30 998 H 97.3254 0.642288 -4.80728 0
M  V30 999 H 93.2044 1.74337 -4.26764 0
M  V30 1000 H 96.7484 -0.412593 -6.96379 0
M  V30 1001 H 92.6454 0.694636 -6.41752 0
M  V30 1002 H 93.4134 -0.410544 -8.1747 0
M  V30 1003 N 96.0765 1.50051 0.48192 0
M  V30 1004 C 97.3535 1.51009 1.2432 0
M  V30 1005 C 97.7335 0.248587 2.09631 0
M  V30 1006 O 97.0815 -0.768409 2.15192 0
M  V30 1007 C 97.2915 2.79981 2.08355 0
M  V30 1008 C 98.6395 3.3022 2.66908 0
M  V30 1009 O 99.6635 2.81228 2.18607 0
M  V30 1010 O 98.5225 4.15595 3.54884 0
M  V30 1011 H 95.6165 0.605239 0.563573 0
M  V30 1012 H 98.1625 1.62332 0.494627 0
M  V30 1013 H 96.9345 3.63275 1.45419 0
M  V30 1014 H 96.5575 2.7161 2.90368 0
M  V30 1015 N 97.5546 -0.734337 1.39446 0
M  V30 1016 C 98.7846 -1.52137 1.39778 0
M  V30 1017 C 99.1926 -1.89198 -0.00929312 0
M  V30 1018 O 98.5356 -1.54666 -0.991168 0
M  V30 1019 C 98.5976 -2.83762 2.20724 0
M  V30 1020 C 98.2616 -2.69131 3.69347 0
M  V30 1021 C 99.2586 -2.37635 4.62413 0
M  V30 1022 C 96.9436 -2.85982 4.1294 0
M  V30 1023 C 98.9376 -2.23172 5.97054 0
M  V30 1024 C 96.6246 -2.71137 5.47657 0
M  V30 1025 C 97.6226 -2.39777 6.39528 0
M  V30 1026 O 97.3106 -2.25026 7.71763 0
M  V30 1027 H 97.0426 -0.476717 0.479288 0
M  V30 1028 H 99.5966 -0.915012 1.83893 0
M  V30 1029 H 97.8266 -3.4666 1.71359 0
M  V30 1030 H 99.5156 -3.45383 2.13226 0
M  V30 1031 H 100.282 -2.24267 4.30034 0
M  V30 1032 H 96.1606 -3.09383 3.41765 0
M  V30 1033 H 99.7046 -1.98617 6.68728 0
M  V30 1034 H 95.6016 -2.84083 5.79626 0
M  V30 1035 H 96.3696 -2.40091 7.82495 0
M  V30 1036 N 99.0327 -1.24633 -0.964593 0
M  V30 1037 C 100.261 -1.11501 -1.74285 0
M  V30 1038 C 100.676 0.332165 -1.85855 0
M  V30 1039 O 100.033 1.22903 -1.34911 0
M  V30 1040 C 100.084 -1.75258 -3.16175 0
M  V30 1041 O 99.8047 -3.14318 -3.05182 0
M  V30 1042 C 101.306 -1.67776 -4.10324 0
M  V30 1043 H 98.5257 -0.389407 -0.546446 0
M  V30 1044 H 101.07 -1.64801 -1.21083 0
M  V30 1045 H 99.2247 -1.25954 -3.66353 0
M  V30 1046 H 99.6387 -3.4551 -3.94618 0
M  V30 1047 H 101.113 -2.17064 -5.0753 0
M  V30 1048 H 101.59 -0.639584 -4.34518 0
M  V30 1049 H 102.196 -2.16522 -3.66058 0
M  V30 1050 N 100.511 1.16574 -1.06058 0
M  V30 1051 C 101.459 2.22941 -0.663343 0
M  V30 1052 C 102.453 1.66358 0.319593 0
M  V30 1053 O 103.659 1.7905 0.184713 0
M  V30 1054 H 100.034 0.725907 -0.196376 0
M  V30 1055 H 102.005 2.53736 -1.57037 0
M  V30 1056 C 100.754 3.47642 -0.0632808 0
M  V30 1057 H 100.077 3.91493 -0.810733 0
M  V30 1058 H 101.517 4.2363 0.177177 0
M  V30 1059 C 99.9758 3.1509 1.19248 0
M  V30 1060 O 100.506 3.30673 2.28075 0
M  V30 1061 N 98.7118 2.6924 1.09353 0
M  V30 1062 H 98.2588 2.5676 0.207912 0
M  V30 1063 H 98.2168 2.47833 1.93458 0
M  V30 1064 N 101.989 0.842826 1.3317 0
M  V30 1065 C 103.237 0.439577 1.97262 0
M  V30 1066 C 103.558 -1.00548 1.67078 0
M  V30 1067 O 102.828 -1.70098 0.971779 0
M  V30 1068 H 101.408 0.159558 0.72976 0
M  V30 1069 H 104.07 1.07665 1.62463 0
M  V30 1070 H 103.166 0.574886 3.0676 0
M  V30 1071 N 103.467 -1.45747 0.599634 0
M  V30 1072 C 104.414 -2.30467 -0.123849 0
M  V30 1073 C 105.384 -1.41632 -0.86774 0
M  V30 1074 O 106.569 -1.70568 -0.855056 0
M  V30 1075 C 103.709 -3.26402 -1.12051 0
M  V30 1076 C 102.822 -4.3034 -0.37832 0
M  V30 1077 C 101.957 -5.13389 -1.364 0
M  V30 1078 C 100.996 -6.09061 -0.609171 0
M  V30 1079 N 100.133 -6.84918 -1.54374 0
M  V30 1080 H 104.973 -2.91802 0.604627 0
M  V30 1081 H 102.51 -1.43797 0.309972 0
M  V30 1082 H 104.468 -3.80482 -1.7114 0
M  V30 1083 H 103.098 -2.66839 -1.8165 0
M  V30 1084 H 102.15 -3.78984 0.327929 0
M  V30 1085 H 103.462 -4.98354 0.210997 0
M  V30 1086 H 102.616 -5.7183 -2.02719 0
M  V30 1087 H 101.355 -4.45376 -1.98725 0
M  V30 1088 H 100.36 -5.49758 0.0676979 0
M  V30 1089 H 101.585 -6.79099 0.00891991 0
M  V30 1090 H 99.531 -6.19601 -2.15478 0
M  V30 1091 H 99.448 -7.49254 -1.00766 0
M  V30 1092 H 100.716 -7.47906 -2.19676 0
M  V30 1093 N 104.945 -0.338344 -1.53925 0
M  V30 1094 C 106.192 0.259758 -2.00827 0
M  V30 1095 C 106.52 1.50973 -1.22628 0
M  V30 1096 O 105.775 1.93379 -0.300509 0
M  V30 1097 C 106.074 0.62448 -3.51902 0
M  V30 1098 C 105.74 -0.528006 -4.47798 0
M  V30 1099 C 104.402 -0.844298 -4.73735 0
M  V30 1100 C 106.754 -1.30143 -5.0469 0
M  V30 1101 C 104.082 -1.93648 -5.53821 0
M  V30 1102 C 106.434 -2.38382 -5.85967 0
M  V30 1103 C 105.098 -2.70576 -6.10201 0
M  V30 1104 H 104.368 0.0950523 -0.734878 0
M  V30 1105 H 107.015 -0.465182 -1.85764 0
M  V30 1106 H 105.32 1.43006 -3.64769 0
M  V30 1107 H 107.017 1.09905 -3.85645 0
M  V30 1108 H 103.607 -0.271421 -4.2774 0
M  V30 1109 H 107.791 -1.07033 -4.84621 0
M  V30 1110 H 103.047 -2.19021 -5.70824 0
M  V30 1111 H 107.221 -2.98746 -6.29066 0
M  V30 1112 H 104.848 -3.55333 -6.72044 0
M  V30 1113 N 106.423 1.57458 -0.0668435 0
M  V30 1114 C 107.353 2.15468 0.899764 0
M  V30 1115 C 108.334 1.08042 1.31381 0
M  V30 1116 O 109.519 1.36054 1.38574 0
M  V30 1117 C 106.649 2.71232 2.16911 0
M  V30 1118 C 105.603 3.83781 1.89463 0
M  V30 1119 C 104.929 4.26127 3.22986 0
M  V30 1120 C 106.229 5.08238 1.20381 0
M  V30 1121 H 107.923 2.96488 0.416529 0
M  V30 1122 H 105.469 1.4262 0.198908 0
M  V30 1123 H 107.422 3.10458 2.84945 0
M  V30 1124 H 106.146 1.87426 2.67468 0
M  V30 1125 H 104.805 3.45051 1.23836 0
M  V30 1126 H 104.453 3.39249 3.71374 0
M  V30 1127 H 104.153 5.01993 3.05413 0
M  V30 1128 H 105.677 4.67966 3.92225 0
M  V30 1129 H 107.091 5.44811 1.78475 0
M  V30 1130 H 105.488 5.89349 1.13083 0
M  V30 1131 H 106.558 4.84558 0.182153 0
M  V30 1132 N 107.901 -0.206675 1.56239 0
M  V30 1133 C 109.149 -0.927007 1.79586 0
M  V30 1134 C 109.47 -1.8427 0.637929 0
M  V30 1135 O 108.74 -1.92849 -0.344398 0
M  V30 1136 H 107.32 -0.345292 0.662407 0
M  V30 1137 H 109.982 -0.21496 1.93711 0
M  V30 1138 H 109.078 -1.52501 2.72305 0
M  V30 1139 N 109.379 -1.50304 -0.473955 0
M  V30 1140 C 110.312 -1.63595 -1.59097 0
M  V30 1141 C 111.29 -0.484142 -1.55225 0
M  V30 1142 O 112.474 -0.703271 -1.7489 0
M  V30 1143 C 109.601 -1.61589 -2.97669 0
M  V30 1144 C 108.647 -2.82295 -3.19705 0
M  V30 1145 S 109.48 -4.43635 -2.99913 0
M  V30 1146 C 110.636 -4.44317 -4.40832 0
M  V30 1147 H 110.869 -2.58082 -1.47583 0
M  V30 1148 H 108.402 -1.39531 -0.661087 0
M  V30 1149 H 110.36 -1.61116 -3.7756 0
M  V30 1150 H 109.021 -0.683421 -3.06575 0
M  V30 1151 H 108.214 -2.77188 -4.20931 0
M  V30 1152 H 107.816 -2.8032 -2.47582 0
M  V30 1153 H 110.108 -4.17703 -5.33414 0
M  V30 1154 H 111.051 -5.45911 -4.50984 0
M  V30 1155 H 111.459 -3.74059 -4.22777 0
M  V30 1156 N 110.857 0.726932 -1.39834 0
M  V30 1157 C 112.103 1.48884 -1.377 0
M  V30 1158 C 112.436 1.94185 0.0244852 0
M  V30 1159 O 111.711 1.67361 0.990986 0
M  V30 1160 C 111.994 2.72288 -2.3565 0
M  V30 1161 C 111.847 2.32956 -3.84775 0
M  V30 1162 C 113.166 3.74414 -2.31306 0
M  V30 1163 H 110.285 0.540062 -0.5015 0
M  V30 1164 H 112.927 0.830547 -1.70886 0
M  V30 1165 H 111.077 3.28457 -2.07481 0
M  V30 1166 H 112.749 1.82356 -4.23726 0
M  V30 1167 H 110.992 1.65088 -4.01159 0
M  V30 1168 H 111.663 3.21362 -4.4881 0
M  V30 1169 H 114.139 3.27849 -2.56231 0
M  V30 1170 H 113.015 4.58414 -3.01907 0
M  V30 1171 H 113.276 4.21909 -1.32081 0
M  V30 1172 N 112.336 1.25143 0.95797 0
M  V30 1173 C 113.747 1.08851 1.51685 0
M  V30 1174 C 114.098 -0.33687 1.93286 0
M  V30 1175 O 113.223 -1.22644 1.7829 0
M  V30 1176 C 113.818 1.96978 2.75654 0
M  V30 1177 C 112.377 1.84881 3.27866 0
M  V30 1178 C 111.524 1.91329 2.0072 0
M  V30 1179 H 114.475 1.38478 0.77522 0
M  V30 1180 H 114.496 1.5078 3.4935 0
M  V30 1181 H 114.008 3.00712 2.45345 0
M  V30 1182 H 112.109 0.840182 3.63004 0
M  V30 1183 H 112.222 2.6951 3.96107 0
M  V30 1184 H 110.586 1.35174 2.15871 0
M  V30 1185 H 111.369 2.96661 1.72764 0
M  V30 1186 N 113.814 -1.1601 1.06675 0
M  V30 1187 C 115.042 -1.90527 0.806667 0
M  V30 1188 C 115.457 -1.77643 -0.639396 0
M  V30 1189 O 114.814 -1.12369 -1.43803 0
M  V30 1190 C 114.865 -3.41106 1.19705 0
M  V30 1191 O 114.586 -3.53608 2.58636 0
M  V30 1192 C 116.087 -4.32663 0.965266 0
M  V30 1193 H 113.307 -0.604053 0.292166 0
M  V30 1194 H 115.851 -1.47026 1.4214 0
M  V30 1195 H 114.006 -3.82296 0.626774 0
M  V30 1196 H 114.42 -4.47011 2.74375 0
M  V30 1197 H 115.894 -5.36763 1.288 0
M  V30 1198 H 116.371 -4.39089 -0.0987936 0
M  V30 1199 H 116.977 -3.97206 1.52011 0
M  V30 1200 N 115.292 -0.849877 -1.32721 0
M  V30 1201 C 116.255 -0.296122 -2.27279 0
M  V30 1202 C 117.255 0.541458 -1.5141 0
M  V30 1203 O 118.445 0.353658 -1.70572 0
M  V30 1204 C 115.577 0.581579 -3.35902 0
M  V30 1205 H 116.77 -1.13064 -2.77771 0
M  V30 1206 H 114.323 -0.62383 -1.43311 0
M  V30 1207 H 115.058 1.43809 -2.9067 0
M  V30 1208 H 114.843 -0.0178814 -3.92096 0
M  V30 1209 H 116.333 0.961951 -4.0637 0
M  V30 1210 N 116.77 1.45427 -0.607355 0
M  V30 1211 C 118.017 2.02241 -0.102455 0
M  V30 1212 C 118.345 1.4758 1.26691 0
M  V30 1213 O 117.6 0.640468 1.84923 0
M  V30 1214 C 117.899 3.57398 -0.0129263 0
M  V30 1215 C 117.565 4.3121 -1.31792 0
M  V30 1216 C 116.227 4.51092 -1.67539 0
M  V30 1217 C 118.579 4.73401 -2.18039 0
M  V30 1218 C 115.907 5.10422 -2.89285 0
M  V30 1219 C 118.259 5.34078 -3.39034 0
M  V30 1220 C 116.923 5.52184 -3.75033 0
M  V30 1221 H 116.193 0.740051 -0.037491 0
M  V30 1222 H 118.84 1.74494 -0.788926 0
M  V30 1223 H 117.145 3.84421 0.756806 0
M  V30 1224 H 118.842 3.99061 0.393881 0
M  V30 1225 H 115.432 4.16047 -1.02968 0
M  V30 1226 H 119.616 4.57774 -1.91721 0
M  V30 1227 H 114.872 5.22629 -3.17283 0
M  V30 1228 H 119.046 5.65724 -4.06115 0
M  V30 1229 H 116.673 5.97925 -4.69457 0
M  V30 1230 N 118.248 0.346503 1.53744 0
M  V30 1231 C 119.196 -0.52422 2.26616 0
M  V30 1232 C 120.19 -1.09948 1.28871 0
M  V30 1233 O 121.396 -1.04488 1.46568 0
M  V30 1234 H 117.771 -0.187743 0.728187 0
M  V30 1235 H 119.742 0.11239 2.98188 0
M  V30 1236 C 118.491 -1.66186 3.05414 0
M  V30 1237 H 117.814 -1.22848 3.80458 0
M  V30 1238 H 119.254 -2.24622 3.59612 0
M  V30 1239 C 117.713 -2.59302 2.1509 0
M  V30 1240 O 118.243 -3.61628 1.74895 0
M  V30 1241 N 116.449 -2.28055 1.8011 0
M  V30 1242 H 115.996 -1.44883 2.12994 0
M  V30 1243 H 115.954 -2.90615 1.19958 0
M  V30 1244 N 119.726 -1.57421 0.075193 0
M  V30 1245 C 120.974 -1.93236 -0.591974 0
M  V30 1246 C 121.295 -0.956241 -1.69944 0
M  V30 1247 O 120.565 -0.00494792 -1.95899 0
M  V30 1248 H 119.145 -0.713355 -0.22166 0
M  V30 1249 H 121.807 -1.9444 0.133848 0
M  V30 1250 H 120.903 -2.95131 -1.01509 0
M  V30 1251 N 121.204 0.198386 -1.56346 0
M  V30 1252 C 122.154 1.2499 -1.90687 0
M  V30 1253 C 123.138 1.41158 -0.772217 0
M  V30 1254 O 124.33 1.43584 -1.03502 0
M  V30 1255 C 121.459 2.59542 -2.24706 0
M  V30 1256 C 120.545 2.47181 -3.44619 0
M  V30 1257 N 120.936 2.04495 -4.62618 0
M  V30 1258 C 119.234 2.78082 -3.48692 0
M  V30 1259 C 119.935 2.03945 -5.44776 0
M  V30 1260 N 118.911 2.45323 -4.85095 0
M  V30 1261 H 122.713 0.911149 -2.7942 0
M  V30 1262 H 120.227 0.40684 -1.57221 0
M  V30 1263 H 122.224 3.3549 -2.47491 0
M  V30 1264 H 120.884 2.94244 -1.37298 0
M  V30 1265 H 121.895 1.75256 -4.87345 0
M  V30 1266 H 118.572 3.17002 -2.71691 0
M  V30 1267 H 119.962 1.72872 -6.4928 0
M  V30 1268 N 122.682 1.50554 0.465978 0
M  V30 1269 C 123.928 1.62038 1.21949 0
M  V30 1270 C 124.261 0.322116 1.9151 0
M  V30 1271 O 123.536 -0.676723 1.82348 0
M  V30 1272 C 123.819 2.80421 2.25912 0
M  V30 1273 C 123.672 4.20144 1.60622 0
M  V30 1274 C 124.991 2.94354 3.27176 0
M  V30 1275 H 122.11 0.589752 0.441998 0
M  V30 1276 H 124.752 1.82956 0.51257 0
M  V30 1277 H 122.902 2.62717 2.86203 0
M  V30 1278 H 124.574 4.49449 1.03889 0
M  V30 1279 H 122.817 4.24165 0.909211 0
M  V30 1280 H 123.488 4.98914 2.36196 0
M  V30 1281 H 125.964 3.10578 2.76913 0
M  V30 1282 H 124.84 3.788 3.97242 0
M  V30 1283 H 125.101 2.05186 3.916 0
M  V30 1284 N 124.16 -0.719506 1.40217 0
M  V30 1285 C 125.092 -1.84428 1.36084 0
M  V30 1286 C 126.105 -1.60597 0.266913 0
M  V30 1287 O 127.294 -1.70544 0.526983 0
M  V30 1288 C 124.394 -3.20757 1.094 0
M  V30 1289 C 123.567 -3.71817 2.30372 0
M  V30 1290 C 122.626 -4.86748 1.99907 0
M  V30 1291 O 121.652 -4.99603 2.72737 0
M  V30 1292 N 122.854 -5.7226 0.974635 0
M  V30 1293 H 125.619 -1.88473 2.33019 0
M  V30 1294 H 123.18 -0.900885 1.3452 0
M  V30 1295 H 125.172 -3.95235 0.870116 0
M  V30 1296 H 123.742 -3.11884 0.211452 0
M  V30 1297 H 122.962 -2.88514 2.68614 0
M  V30 1298 H 124.25 -4.02666 3.11026 0
M  V30 1299 H 123.648 -5.6448 0.371368 0
M  V30 1300 H 122.205 -6.46739 0.810656 0
M  V30 1301 N 125.638 -1.25649 -0.95132 0
M  V30 1302 C 126.884 -1.10757 -1.69884 0
M  V30 1303 C 127.217 0.350061 -1.91019 0
M  V30 1304 O 126.492 1.25783 -1.48354 0
M  V30 1305 C 126.775 -1.86606 -3.07978 0
M  V30 1306 C 126.628 -3.40217 -2.94232 0
M  V30 1307 C 127.947 -1.65182 -4.07925 0
M  V30 1308 H 125.066 -0.40374 -0.616574 0
M  V30 1309 H 127.708 -1.54521 -1.10558 0
M  V30 1310 H 125.858 -1.49409 -3.58621 0
M  V30 1311 H 127.53 -3.87108 -2.50889 0
M  V30 1312 H 125.773 -3.67759 -2.30078 0
M  V30 1313 H 126.444 -3.88505 -3.92133 0
M  V30 1314 H 128.92 -1.9757 -3.66204 0
M  V30 1315 H 127.796 -2.20683 -5.02583 0
M  V30 1316 H 128.057 -0.593933 -4.38092 0
M  V30 1317 N 127.117 1.15442 -1.07289 0
M  V30 1318 C 128.342 1.90638 -0.816828 0
M  V30 1319 C 128.767 1.77445 0.624083 0
M  V30 1320 O 128.125 1.10671 1.43602 0
M  V30 1321 C 128.173 3.39008 -1.22906 0
M  V30 1322 O 127.277 4.10701 -0.373975 0
M  V30 1323 H 126.618 0.593555 -0.297638 0
M  V30 1324 H 129.148 1.46198 -1.43134 0
M  V30 1325 H 129.158 3.89801 -1.20497 0
M  V30 1326 H 127.833 3.47929 -2.27856 0
M  V30 1327 H 126.41 3.70046 -0.460499 0
M  V30 1328 N 128.595 0.856903 1.32268 0
M  V30 1329 C 129.543 0.291987 2.3076 0
M  V30 1330 C 130.537 -0.585857 1.58947 0
M  V30 1331 O 131.743 -0.47341 1.73663 0
M  V30 1332 H 128.118 0.075721 0.748178 0
M  V30 1333 H 130.089 1.13687 2.75895 0
M  V30 1334 C 128.838 -0.502869 3.44044 0
M  V30 1335 H 128.161 0.163328 3.99466 0
M  V30 1336 H 129.601 -0.863691 4.1511 0
M  V30 1337 C 128.06 -1.68898 2.91505 0
M  V30 1338 O 128.59 -2.78811 2.89184 0
M  V30 1339 N 126.796 -1.51679 2.47875 0
M  V30 1340 H 126.343 -0.622666 2.49961 0
M  V30 1341 H 126.301 -2.31184 2.13076 0
M  V30 1342 N 130.073 -1.45103 0.615059 0
M  V30 1343 C 131.35 -1.95549 0.0448276 0
M  V30 1344 C 131.73 -1.55737 -1.4251 0
M  V30 1345 O 131.078 -0.823556 -2.13143 0
M  V30 1346 C 131.288 -3.48098 0.250785 0
M  V30 1347 C 132.636 -4.24384 0.135509 0
M  V30 1348 O 133.66 -3.55738 0.181299 0
M  V30 1349 O 132.519 -5.46493 0.0268878 0
M  V30 1350 H 129.613 -0.8264 -0.0314845 0
M  V30 1351 H 132.159 -1.55232 0.685642 0
M  V30 1352 H 130.931 -3.7007 1.27139 0
M  V30 1353 H 130.554 -3.95323 -0.424937 0
M  V30 1354 N 131.551 -0.354651 -1.53558 0
M  V30 1355 C 132.799 0.237972 -2.00694 0
M  V30 1356 C 133.12 1.50173 -1.24391 0
M  V30 1357 O 132.39 1.92673 -0.354135 0
M  V30 1358 H 130.97 0.0909256 -0.741446 0
M  V30 1359 H 133.632 -0.478368 -1.88938 0
M  V30 1360 H 132.728 0.47264 -3.085 0
M  V30 1361 N 133.029 1.57378 -0.0835403 0
M  V30 1362 C 133.976 2.13384 0.879539 0
M  V30 1363 C 134.946 1.04936 1.28754 0
M  V30 1364 O 136.131 1.32662 1.37133 0
M  V30 1365 C 133.271 2.70932 2.13752 0
M  V30 1366 C 132.384 3.93575 1.7811 0
M  V30 1367 C 131.519 4.39326 2.98607 0
M  V30 1368 C 130.558 5.54587 2.59037 0
M  V30 1369 N 129.695 5.95243 3.72331 0
M  V30 1370 H 134.535 2.9537 0.395076 0
M  V30 1371 H 132.072 1.45953 0.183349 0
M  V30 1372 H 134.03 3.02411 2.87408 0
M  V30 1373 H 132.66 1.91693 2.59718 0
M  V30 1374 H 131.712 3.68483 0.94469 0
M  V30 1375 H 133.024 4.77258 1.45005 0
M  V30 1376 H 132.178 4.72528 3.80529 0
M  V30 1377 H 130.917 3.5452 3.34913 0
M  V30 1378 H 129.922 5.21024 1.75539 0
M  V30 1379 H 131.147 6.41133 2.23887 0
M  V30 1380 H 129.093 5.13385 4.08378 0
M  V30 1381 H 129.01 6.73694 3.43034 0
M  V30 1382 H 130.278 6.33072 4.54797 0
M  V30 1383 N 134.507 -0.190092 1.56449 0
M  V30 1384 C 135.454 -1.23557 1.94942 0
M  V30 1385 C 136.424 -1.44972 0.810696 0
M  V30 1386 O 137.609 -1.58023 1.06927 0
M  V30 1387 C 134.749 -2.57416 2.2985 0
M  V30 1388 C 133.862 -2.43537 3.5681 0
M  V30 1389 C 132.997 -3.70134 3.81017 0
M  V30 1390 C 132.036 -3.51109 5.01387 0
M  V30 1391 N 131.173 -4.6973 5.21822 0
M  V30 1392 H 136.013 -0.900304 2.84075 0
M  V30 1393 H 133.55 -0.43318 1.40577 0
M  V30 1394 H 135.508 -3.35409 2.48106 0
M  V30 1395 H 134.138 -2.88975 1.43852 0
M  V30 1396 H 133.19 -1.56816 3.46573 0
M  V30 1397 H 134.502 -2.25415 4.4496 0
M  V30 1398 H 133.656 -4.56566 3.9954 0
M  V30 1399 H 132.395 -3.91215 2.91207 0
M  V30 1400 H 131.4 -2.63063 4.82782 0
M  V30 1401 H 132.625 -3.31468 5.9271 0
M  V30 1402 H 130.571 -4.91065 4.34961 0
M  V30 1403 H 130.488 -4.54452 6.0416 0
M  V30 1404 H 131.756 -5.57499 5.44808 0
M  V30 1405 N 135.985 -1.50799 -0.457987 0
M  V30 1406 C 137.234 -1.6168 -1.20593 0
M  V30 1407 C 137.547 -0.32888 -1.92815 0
M  V30 1408 O 138.753 -0.316773 -2.69646 0
M  V30 1409 C 137.209 -2.8545 -2.19195 0
M  V30 1410 C 136.817 -4.21168 -1.52715 0
M  V30 1411 C 138.561 -3.05681 -2.94549 0
M  V30 1412 C 136.468 -5.3611 -2.4968 0
M  V30 1413 H 135.398 -0.602134 -0.453818 0
M  V30 1414 H 138.049 -1.77245 -0.475031 0
M  V30 1415 H 136.431 -2.63472 -2.95632 0
M  V30 1416 H 137.605 -4.53449 -0.819775 0
M  V30 1417 H 135.92 -4.06648 -0.895922 0
M  V30 1418 H 138.517 -3.88727 -3.67145 0
M  V30 1419 H 138.86 -2.17929 -3.54701 0
M  V30 1420 H 139.393 -3.27901 -2.25223 0
M  V30 1421 H 136.132 -6.26057 -1.94249 0
M  V30 1422 H 135.652 -5.0823 -3.18532 0
M  V30 1423 H 137.331 -5.6722 -3.11241 0
M  V30 1424 N 137.463 0.71206 -1.40597 0
M  V30 1425 C 138.693 1.49894 -1.42181 0
M  V30 1426 C 139.101 1.89189 -0.0208078 0
M  V30 1427 O 138.444 1.56223 0.966436 0
M  V30 1428 C 138.506 2.80215 -2.25211 0
M  V30 1429 C 138.17 2.63221 -3.73582 0
M  V30 1430 C 139.167 2.30249 -4.66135 0
M  V30 1431 C 136.852 2.79376 -4.17438 0
M  V30 1432 C 138.846 2.13645 -6.00529 0
M  V30 1433 C 136.533 2.6239 -5.51901 0
M  V30 1434 C 137.531 2.29573 -6.43262 0
M  V30 1435 O 137.219 2.12719 -7.75246 0
M  V30 1436 H 136.951 0.469031 -0.486812 0
M  V30 1437 H 139.505 0.88564 -1.85326 0
M  V30 1438 H 137.735 3.4389 -1.76852 0
M  V30 1439 H 139.424 3.41947 -2.18694 0
M  V30 1440 H 140.19 2.17398 -4.33547 0
M  V30 1441 H 136.069 3.03906 -3.46644 0
M  V30 1442 H 139.613 1.87953 -6.71803 0
M  V30 1443 H 135.51 2.74826 -5.84073 0
M  V30 1444 H 136.278 2.27611 -7.86216 0
M  V30 1445 N 138.941 1.26152 0.944643 0
M  V30 1446 C 140.169 1.14259 1.72489 0
M  V30 1447 C 140.584 -0.302555 1.8636 0
M  V30 1448 O 139.941 -1.20741 1.36849 0
M  V30 1449 C 139.992 1.80266 3.13347 0
M  V30 1450 O 139.713 3.19133 3.00143 0
M  V30 1451 C 141.214 1.74283 4.07603 0
M  V30 1452 H 138.434 0.398051 0.540181 0
M  V30 1453 H 140.978 1.66706 1.18446 0
M  V30 1454 H 139.133 1.31766 3.64303 0
M  V30 1455 H 139.547 3.51744 3.89071 0
M  V30 1456 H 141.021 2.25111 5.04013 0
M  V30 1457 H 141.498 0.708631 4.33446 0
M  V30 1458 H 142.104 2.22319 3.62567 0
M  V30 1459 N 140.419 -1.14872 1.07899 0
M  V30 1460 C 141.352 -2.18794 0.64841 0
M  V30 1461 C 142.33 -1.59065 -0.337189 0
M  V30 1462 O 143.514 -1.86936 -0.242284 0
M  V30 1463 C 140.641 -3.38667 -0.0470417 0
M  V30 1464 C 139.687 -4.16942 0.897884 0
M  V30 1465 S 140.52 -4.78615 2.40183 0
M  V30 1466 C 141.676 -6.0185 1.71834 0
M  V30 1467 H 141.909 -2.5498 1.52881 0
M  V30 1468 H 139.442 -1.25922 0.893484 0
M  V30 1469 H 141.4 -4.08113 -0.442027 0
M  V30 1470 H 140.061 -3.00814 -0.903861 0
M  V30 1471 H 139.254 -5.02726 0.358096 0
M  V30 1472 H 138.856 -3.53073 1.23352 0
M  V30 1473 H 141.148 -6.69574 1.03328 0
M  V30 1474 H 142.091 -6.60408 2.55473 0
M  V30 1475 H 142.499 -5.5173 1.19392 0
M  V30 1476 N 141.898 -0.863906 -1.31812 0
M  V30 1477 C 143.126 -0.486111 -2.01108 0
M  V30 1478 C 143.541 0.919755 -1.64882 0
M  V30 1479 O 142.898 1.60162 -0.874893 0
M  V30 1480 C 142.949 -0.626435 -3.56031 0
M  V30 1481 O 142.67 -1.97693 -3.90959 0
M  V30 1482 C 144.171 -0.248857 -4.42601 0
M  V30 1483 H 141.391 -0.190052 -0.643523 0
M  V30 1484 H 143.935 -1.1634 -1.68182 0
M  V30 1485 H 142.09 0.00322717 -3.874 0
M  V30 1486 H 142.504 -1.98034 -4.85678 0
M  V30 1487 H 143.978 -0.398016 -5.50563 0
M  V30 1488 H 144.455 0.811489 -4.31638 0
M  V30 1489 H 145.061 -0.853971 -4.16638 0
M  V30 1490 N 143.376 1.44774 -0.622745 0
M  V30 1491 C 144.604 2.06487 -0.130722 0
M  V30 1492 C 145.019 1.46476 1.19123 0
M  V30 1493 O 144.376 0.584502 1.72887 0
M  V30 1494 C 144.427 3.615 -0.000807207 0
M  V30 1495 O 144.148 4.19274 -1.27048 0
M  V30 1496 C 145.649 4.40229 0.520898 0
M  V30 1497 H 142.869 0.666704 -0.0758106 0
M  V30 1498 H 145.413 1.85779 -0.854774 0
M  V30 1499 H 143.568 3.81498 0.673643 0
M  V30 1500 H 143.982 5.12622 -1.1099 0
M  V30 1501 H 145.456 5.49144 0.560838 0
M  V30 1502 H 145.933 4.1108 1.54627 0
M  V30 1503 H 146.539 4.25131 -0.120018 0
M  V30 1504 N 144.854 0.36279 1.53368 0
M  V30 1505 C 146.084 -0.228281 2.05335 0
M  V30 1506 C 146.492 -1.43226 1.23625 0
M  V30 1507 O 145.835 -1.81717 0.269206 0
M  V30 1508 C 145.897 -0.688549 3.52845 0
M  V30 1509 C 145.561 0.398362 4.5526 0
M  V30 1510 C 146.558 1.24732 5.04716 0
M  V30 1511 C 144.243 0.557805 4.99193 0
M  V30 1512 C 146.237 2.2411 5.96702 0
M  V30 1513 C 143.924 1.55495 5.90986 0
M  V30 1514 C 144.922 2.39503 6.39631 0
M  V30 1515 O 144.61 3.37517 7.29615 0
M  V30 1516 H 144.342 -0.044395 0.674541 0
M  V30 1517 H 146.896 0.518668 1.98744 0
M  V30 1518 H 145.126 -1.48706 3.56964 0
M  V30 1519 H 146.815 -1.20231 3.87685 0
M  V30 1520 H 147.581 1.13532 4.71525 0
M  V30 1521 H 143.46 -0.0862959 4.60919 0
M  V30 1522 H 147.004 2.89718 6.34594 0
M  V30 1523 H 142.901 1.66744 6.23592 0
M  V30 1524 H 143.669 3.33213 7.47604 0
M  V30 1525 N 146.332 -1.57332 0.0918853 0
M  V30 1526 C 147.282 -2.10385 -0.87876 0
M  V30 1527 C 148.266 -1.01814 -1.24591 0
M  V30 1528 O 149.458 -1.28093 -1.22152 0
M  V30 1529 C 146.587 -2.68517 -2.13901 0
M  V30 1530 C 145.673 -3.84126 -1.79744 0
M  V30 1531 N 146.064 -4.92288 -1.1613 0
M  V30 1532 C 144.362 -3.93801 -2.09373 0
M  V30 1533 C 145.063 -5.7295 -1.00513 0
M  V30 1534 N 144.039 -5.21876 -1.5214 0
M  V30 1535 H 147.841 -2.91395 -0.38293 0
M  V30 1536 H 145.355 -1.62017 -0.111423 0
M  V30 1537 H 147.352 -3.04852 -2.84378 0
M  V30 1538 H 146.012 -1.88961 -2.64053 0
M  V30 1539 H 147.023 -5.1123 -0.828504 0
M  V30 1540 H 143.7 -3.25249 -2.61762 0
M  V30 1541 H 145.09 -6.69978 -0.507902 0
M  V30 1542 N 147.81 0.181792 -1.56548 0
M  V30 1543 C 148.72 1.24538 -1.98815 0
M  V30 1544 C 149.736 1.49045 -0.897861 0
M  V30 1545 O 150.912 1.61399 -1.20467 0
M  V30 1546 C 147.977 2.56683 -2.33055 0
M  V30 1547 C 147.038 2.40131 -3.55859 0
M  V30 1548 C 146.271 3.65975 -3.88456 0
M  V30 1549 O 146.494 4.70711 -3.22161 0
M  V30 1550 O 145.428 3.6071 -4.81842 0
M  V30 1551 H 149.254 0.916647 -2.89536 0
M  V30 1552 H 146.839 0.387842 -1.44278 0
M  V30 1553 H 148.721 3.34655 -2.56094 0
M  V30 1554 H 147.396 2.89157 -1.45498 0
M  V30 1555 H 146.303 1.60226 -3.38051 0
M  V30 1556 H 147.636 2.12585 -4.43924 0
M  V30 1557 N 149.288 1.51039 0.449983 0
M  V30 1558 C 150.704 1.38934 0.785462 0
M  V30 1559 C 150.904 0.461817 1.96136 0
M  V30 1560 O 149.96 -0.0877389 2.52348 0
M  V30 1561 C 151.273 2.80724 1.0777 0
M  V30 1562 C 152.821 2.89787 1.1829 0
M  V30 1563 C 153.296 4.32457 1.50815 0
M  V30 1564 N 154.787 4.35505 1.57764 0
M  V30 1565 C 155.522 5.42914 1.84477 0
M  V30 1566 N 155.018 6.60502 2.09068 0
M  V30 1567 N 156.811 5.3038 1.86155 0
M  V30 1568 H 148.962 2.09904 -0.324647 0
M  V30 1569 H 151.225 0.944378 -0.0827957 0
M  V30 1570 H 150.931 3.50531 0.286498 0
M  V30 1571 H 150.805 3.19273 2.00859 0
M  V30 1572 H 153.192 2.20186 1.96474 0
M  V30 1573 H 153.273 2.54752 0.231314 0
M  V30 1574 H 152.917 5.02603 0.731622 0
M  V30 1575 H 152.847 4.64995 2.47158 0
M  V30 1576 H 155.338 3.50724 1.40715 0
M  V30 1577 H 155.651 7.38158 2.28785 0
M  V30 1578 H 153.996 6.63639 2.06416 0
M  V30 1579 H 157.187 4.37505 1.66454 0
M  V30 1580 H 157.36 6.1417 2.06637 0
M  V30 1581 N 150.766 -0.704594 1.40972 0
M  V30 1582 C 152.015 -1.46018 1.39146 0
M  V30 1583 C 152.328 -1.956 0.000589254 0
M  V30 1584 O 153.534 -2.71137 -0.1403 0
M  V30 1585 C 151.99 -2.63996 2.4461 0
M  V30 1586 C 151.598 -2.21238 3.89561 0
M  V30 1587 C 153.342 -3.41677 2.51907 0
M  V30 1588 C 151.249 -3.3612 4.86598 0
M  V30 1589 H 150.179 -0.548444 0.517422 0
M  V30 1590 H 152.83 -0.765784 1.66757 0
M  V30 1591 H 151.212 -3.3566 2.10115 0
M  V30 1592 H 152.386 -1.56923 4.33257 0
M  V30 1593 H 150.701 -1.56574 3.85841 0
M  V30 1594 H 153.298 -4.27182 3.2159 0
M  V30 1595 H 153.641 -3.86247 1.55303 0
M  V30 1596 H 154.174 -2.77064 2.85448 0
M  V30 1597 H 150.913 -2.96572 5.84573 0
M  V30 1598 H 150.433 -3.99315 4.47557 0
M  V30 1599 H 152.112 -4.02029 5.06934 0
M  V30 1600 N 152.244 -1.26651 -0.937939 0
M  V30 1601 C 153.472 -1.15173 -1.7188 0
M  V30 1602 C 153.887 0.292668 -1.86518 0
M  V30 1603 O 153.244 1.20014 -1.37488 0
M  V30 1604 C 153.295 -1.81925 -3.12387 0
M  V30 1605 O 153.016 -3.2072 -2.98446 0
M  V30 1606 C 154.517 -1.76442 -4.06673 0
M  V30 1607 H 151.737 -0.400911 -0.538063 0
M  V30 1608 H 154.281 -1.67332 -1.1756 0
M  V30 1609 H 152.436 -1.33696 -3.63599 0
M  V30 1610 H 152.85 -3.53802 -3.872 0
M  V30 1611 H 154.324 -2.27781 -5.02812 0
M  V30 1612 H 154.801 -0.731608 -4.33064 0
M  V30 1613 H 155.407 -2.24238 -3.61382 0
M  V30 1614 N 153.722 1.14298 -1.08507 0
M  V30 1615 C 155.138 1.37347 -0.812901 0
M  V30 1616 C 155.338 1.93052 0.577325 0
M  V30 1617 O 154.394 2.14389 1.33393 0
M  V30 1618 C 155.707 2.33359 -1.89642 0
M  V30 1619 C 157.255 2.46996 -1.92255 0
M  V30 1620 C 157.73 3.46309 -2.99724 0
M  V30 1621 N 159.221 3.53853 -2.98902 0
M  V30 1622 C 159.956 4.3055 -3.787 0
M  V30 1623 N 159.452 5.10482 -4.6838 0
M  V30 1624 N 161.245 4.25757 -3.66998 0
M  V30 1625 H 153.396 0.764867 -1.9815 0
M  V30 1626 H 155.659 0.398966 -0.859959 0
M  V30 1627 H 155.365 1.99565 -2.89597 0
M  V30 1628 H 155.239 3.33274 -1.76659 0
M  V30 1629 H 157.626 2.80081 -0.929445 0
M  V30 1630 H 157.707 1.47039 -2.09316 0
M  V30 1631 H 157.351 3.13957 -3.99241 0
M  V30 1632 H 157.281 4.46049 -2.79907 0
M  V30 1633 H 159.772 2.96812 -2.33904 0
M  V30 1634 H 160.085 5.66284 -5.25873 0
M  V30 1635 H 158.43 5.09747 -4.72422 0
M  V30 1636 H 161.621 3.62383 -2.96304 0
M  V30 1637 H 161.794 4.85279 -4.29427 0
M  V30 1638 N 155.201 0.870884 1.31352 0
M  V30 1639 C 156.449 0.48132 1.96285 0
M  V30 1640 C 156.77 -0.969813 1.69173 0
M  V30 1641 O 156.04 -1.67998 1.00764 0
M  V30 1642 H 154.62 0.175002 0.726212 0
M  V30 1643 H 157.282 1.11087 1.60143 0
M  V30 1644 H 156.378 0.639825 3.05471 0
M  V30 1645 N 156.679 -1.44442 0.630414 0
M  V30 1646 C 157.626 -2.30678 -0.0749355 0
M  V30 1647 C 158.596 -1.4344 -0.837502 0
M  V30 1648 O 159.781 -1.72343 -0.818684 0
M  V30 1649 C 156.921 -3.28706 -1.05103 0
M  V30 1650 C 156.034 -4.31046 -0.286954 0
M  V30 1651 C 155.169 -5.16167 -1.2548 0
M  V30 1652 C 154.208 -6.10216 -0.479843 0
M  V30 1653 N 153.345 -6.88039 -1.39811 0
M  V30 1654 H 158.185 -2.90454 0.666386 0
M  V30 1655 H 155.722 -1.43107 0.340404 0
M  V30 1656 H 157.68 -3.84027 -1.63031 0
M  V30 1657 H 156.31 -2.70632 -1.75949 0
M  V30 1658 H 155.362 -3.78203 0.408243 0
M  V30 1659 H 156.674 -4.97794 0.316657 0
M  V30 1660 H 155.828 -5.76002 -1.90544 0
M  V30 1661 H 154.567 -4.49491 -1.89233 0
M  V30 1662 H 153.572 -5.49491 0.184295 0
M  V30 1663 H 154.797 -6.78928 0.152965 0
M  V30 1664 H 152.743 -6.24032 -2.02287 0
M  V30 1665 H 152.66 -7.51223 -0.848508 0
M  V30 1666 H 153.928 -7.52397 -2.03762 0
M  V30 1667 N 158.157 -0.370918 -1.53173 0
M  V30 1668 C 159.573 -0.0200818 -1.59587 0
M  V30 1669 C 159.773 1.46279 -1.38581 0
M  V30 1670 O 158.829 2.22506 -1.19363 0
M  V30 1671 C 160.142 -0.4808 -2.96831 0
M  V30 1672 C 161.69 -0.435477 -3.09956 0
M  V30 1673 C 162.165 -0.872092 -4.4962 0
M  V30 1674 N 163.656 -0.827364 -4.55751 0
M  V30 1675 C 164.391 -1.13683 -5.62018 0
M  V30 1676 N 163.887 -1.51584 -6.76014 0
M  V30 1677 N 165.68 -1.05927 -5.52029 0
M  V30 1678 H 157.831 -1.33652 -1.65079 0
M  V30 1679 H 160.094 -0.546634 -0.774529 0
M  V30 1680 H 159.8 -1.51577 -3.1736 0
M  V30 1681 H 159.674 0.129796 -3.76977 0
M  V30 1682 H 162.061 0.590371 -2.89134 0
M  V30 1683 H 162.142 -1.08164 -2.31806 0
M  V30 1684 H 161.786 -1.89608 -4.71181 0
M  V30 1685 H 161.716 -0.203127 -5.26208 0
M  V30 1686 H 164.207 -0.548216 -3.73902 0
M  V30 1687 H 164.52 -1.73609 -7.53047 0
M  V30 1688 H 162.865 -1.55454 -6.77391 0
M  V30 1689 H 166.056 -0.762321 -4.61851 0
M  V30 1690 H 166.229 -1.30378 -6.34749 0
M  V30 1691 N 159.635 1.57281 -0.100228 0
M  V30 1692 C 160.86 1.99302 0.573881 0
M  V30 1693 C 161.285 0.979059 1.60611 0
M  V30 1694 O 160.643 -0.0517803 1.81226 0
M  V30 1695 C 160.691 3.40274 1.19358 0
M  V30 1696 O 159.795 3.41676 2.30935 0
M  V30 1697 H 159.136 0.647944 0.145138 0
M  V30 1698 H 161.666 2.03779 -0.183156 0
M  V30 1699 H 161.676 3.78078 1.53365 0
M  V30 1700 H 160.351 4.13594 0.437385 0
M  V30 1701 H 158.928 3.15672 1.98509 0
M  V30 1702 N 161.113 -0.173488 1.56642 0
M  V30 1703 C 162.39 -0.917617 1.7274 0
M  V30 1704 C 162.77 -2.00484 0.661027 0
M  V30 1705 O 162.118 -2.26184 -0.32453 0
M  V30 1706 C 162.328 -1.48433 3.15862 0
M  V30 1707 C 163.676 -1.95809 3.76754 0
M  V30 1708 O 164.7 -1.58231 3.19126 0
M  V30 1709 O 163.559 -2.65024 4.77938 0
M  V30 1710 H 160.653 -0.431772 0.705338 0
M  V30 1711 H 163.199 -0.161487 1.6893 0
M  V30 1712 H 161.971 -0.701715 3.84957 0
M  V30 1713 H 161.594 -2.30471 3.23989 0
M  V30 1714 N 162.591 -1.51276 -0.441967 0
M  V30 1715 C 163.837 -1.63958 -1.19355 0
M  V30 1716 C 164.17 -0.352543 -1.90973 0
M  V30 1717 O 163.445 0.647627 -1.83401 0
M  V30 1718 C 163.728 -2.83979 -2.21422 0
M  V30 1719 C 163.581 -4.22646 -1.53918 0
M  V30 1720 C 164.9 -2.99521 -3.22451 0
M  V30 1721 H 162.019 -0.596709 -0.432559 0
M  V30 1722 H 164.661 -1.83748 -0.483398 0
M  V30 1723 H 162.811 -2.67237 -2.81987 0
M  V30 1724 H 164.483 -4.51045 -0.967256 0
M  V30 1725 H 162.726 -4.25558 -0.841615 0
M  V30 1726 H 163.397 -5.02609 -2.28229 0
M  V30 1727 H 165.873 -3.14944 -2.71937 0
M  V30 1728 H 164.749 -3.85072 -3.91166 0
M  V30 1729 H 165.01 -2.11391 -3.88287 0
M  V30 1730 N 164.069 0.697108 -1.41344 0
M  V30 1731 C 165.315 1.4593 -1.40827 0
M  V30 1732 C 165.648 1.94193 -0.0167098 0
M  V30 1733 O 164.923 1.69425 0.955263 0
M  V30 1734 C 165.206 2.67229 -2.41373 0
M  V30 1735 C 165.059 2.24741 -3.8963 0
M  V30 1736 C 166.378 3.69423 -2.39196 0
M  V30 1737 H 163.497 0.529303 -0.512842 0
M  V30 1738 H 166.139 0.794112 -1.72609 0
M  V30 1739 H 164.289 3.23982 -2.14401 0
M  V30 1740 H 165.961 1.73327 -4.27499 0
M  V30 1741 H 164.204 1.56542 -4.0457 0
M  V30 1742 H 164.875 3.1177 -4.55525 0
M  V30 1743 H 167.351 3.2234 -2.63128 0
M  V30 1744 H 166.227 4.51907 -3.11563 0
M  V30 1745 H 166.488 4.19012 -1.41001 0
M  V30 1746 N 165.547 1.27147 0.931209 0
M  V30 1747 C 166.457 1.11372 2.06478 0
M  V30 1748 C 167.473 0.044645 1.73943 0
M  V30 1749 O 168.649 0.250417 1.99837 0
M  V30 1750 C 165.714 0.758838 3.38294 0
M  V30 1751 C 164.775 1.90841 3.84549 0
M  V30 1752 C 164.008 1.57036 5.10074 0
M  V30 1753 O 164.231 0.476645 5.68405 0
M  V30 1754 O 163.165 2.40839 5.51616 0
M  V30 1755 H 166.991 2.06493 2.22698 0
M  V30 1756 H 164.576 1.06301 1.04978 0
M  V30 1757 H 166.458 0.574098 4.17471 0
M  V30 1758 H 165.133 -0.162879 3.2329 0
M  V30 1759 H 164.04 2.14819 3.06274 0
M  V30 1760 H 165.373 2.81021 4.04089 0
M  V30 1761 N 167.025 -1.13721 1.09112 0
M  V30 1762 C 168.271 -1.85198 0.826414 0
M  V30 1763 C 168.604 -1.83129 -0.646319 0
M  V30 1764 O 167.879 -1.2671 -1.47563 0
M  V30 1765 C 168.162 -3.33507 1.35812 0
M  V30 1766 C 168.015 -3.44108 2.89672 0
M  V30 1767 C 169.334 -4.28838 0.989256 0
M  V30 1768 H 166.453 -0.67243 0.301675 0
M  V30 1769 H 169.095 -1.33499 1.35197 0
M  V30 1770 H 167.245 -3.77666 0.911082 0
M  V30 1771 H 168.917 -3.08684 3.428 0
M  V30 1772 H 167.16 -2.85087 3.26967 0
M  V30 1773 H 167.831 -4.48388 3.21951 0
M  V30 1774 H 170.307 -3.92734 1.37475 0
M  V30 1775 H 169.183 -5.31051 1.38838 0
M  V30 1776 H 169.444 -4.4198 -0.102924 0
M  V30 1777 N 168.503 -0.877838 -1.30888 0
M  V30 1778 C 169.749 -0.502773 -1.97088 0
M  V30 1779 C 170.104 0.936274 -1.68082 0
M  V30 1780 O 169.397 1.65162 -0.971196 0
M  V30 1781 C 169.591 -0.705748 -3.50363 0
M  V30 1782 C 169.42 -2.16297 -3.94266 0
M  V30 1783 C 168.19 -2.80614 -4.20219 0
M  V30 1784 C 170.388 -3.13606 -4.07622 0
M  V30 1785 N 168.37 -4.17007 -4.50532 0
M  V30 1786 C 169.741 -4.35051 -4.41736 0
M  V30 1787 C 171.796 -3.09491 -3.90026 0
M  V30 1788 C 170.499 -5.52911 -4.60089 0
M  V30 1789 C 172.525 -4.26616 -4.09576 0
M  V30 1790 C 171.887 -5.46825 -4.44029 0
M  V30 1791 H 167.986 -0.233168 -0.746429 0
M  V30 1792 H 170.57 -1.13408 -1.58261 0
M  V30 1793 H 168.741 -0.103976 -3.88261 0
M  V30 1794 H 170.473 -0.298291 -4.03599 0
M  V30 1795 H 167.228 -2.3152 -4.13153 0
M  V30 1796 H 167.652 -4.87426 -4.69834 0
M  V30 1797 H 172.294 -2.17657 -3.62471 0
M  V30 1798 H 170.012 -6.45255 -4.86489 0
M  V30 1799 H 173.598 -4.24894 -3.97438 0
M  V30 1800 H 172.478 -6.35947 -4.58848 0
M  V30 1801 N 169.982 1.44106 -0.638065 0
M  V30 1802 C 171.259 1.95453 -0.0759321 0
M  V30 1803 C 171.639 1.57984 1.40015 0
M  V30 1804 O 170.987 0.857361 2.11806 0
M  V30 1805 C 171.197 3.47655 -0.306132 0
M  V30 1806 C 172.545 4.24114 -0.203008 0
M  V30 1807 O 173.569 3.55405 -0.237871 0
M  V30 1808 O 172.428 5.46381 -0.113827 0
M  V30 1809 H 169.522 0.826797 0.0183332 0
M  V30 1810 H 172.068 1.54122 -0.710251 0
M  V30 1811 H 170.84 3.68 -1.3301 0
M  V30 1812 H 170.463 3.95949 0.361991 0
M  V30 1813 N 171.46 0.379036 1.52974 0
M  V30 1814 C 172.423 -0.448865 2.24762 0
M  V30 1815 C 173.423 -0.998689 1.26027 0
M  V30 1816 O 174.613 -0.882313 1.50203 0
M  V30 1817 C 171.745 -1.62872 2.99476 0
M  V30 1818 H 172.938 0.179491 2.99362 0
M  V30 1819 H 170.491 0.13096 1.5575 0
M  V30 1820 H 171.226 -2.29479 2.29151 0
M  V30 1821 H 171.011 -1.24128 3.71934 0
M  V30 1822 H 172.501 -2.2151 3.5401 0
M  V30 1823 N 172.938 -1.57226 0.108567 0
M  V30 1824 C 174.215 -1.86333 -0.594939 0
M  V30 1825 C 174.595 -1.00788 -1.85486 0
M  V30 1826 O 173.943 -0.0839293 -2.28346 0
M  V30 1827 C 174.153 -3.37265 -0.897405 0
M  V30 1828 C 175.501 -4.05629 -1.25501 0
M  V30 1829 O 176.525 -3.42224 -0.987998 0
M  V30 1830 O 175.384 -5.17531 -1.75567 0
M  V30 1831 H 172.478 -0.771018 -0.2991 0
M  V30 1832 H 175.024 -1.69102 0.142283 0
M  V30 1833 H 173.796 -3.913 -0.00413806 0
M  V30 1834 H 173.419 -3.59889 -1.69014 0
M  V30 1835 N 174.416 0.165178 -1.56732 0
M  V30 1836 C 175.363 1.2044 -1.96883 0
M  V30 1837 C 176.333 1.43664 -0.833657 0
M  V30 1838 O 177.518 1.56302 -1.09427 0
M  V30 1839 C 174.658 2.53727 -2.33916 0
M  V30 1840 C 173.771 2.3783 -3.6064 0
M  V30 1841 C 172.906 3.64026 -3.86857 0
M  V30 1842 C 171.945 3.43088 -5.06909 0
M  V30 1843 N 171.082 4.61369 -5.29229 0
M  V30 1844 H 175.922 0.854996 -2.85471 0
M  V30 1845 H 173.459 0.41076 -1.41249 0
M  V30 1846 H 175.417 3.31419 -2.53411 0
M  V30 1847 H 174.047 2.8665 -1.48431 0
M  V30 1848 H 173.099 1.51282 -3.49024 0
M  V30 1849 H 174.411 2.18308 -4.4849 0
M  V30 1850 H 173.565 4.50152 -4.06753 0
M  V30 1851 H 172.304 3.86533 -2.97394 0
M  V30 1852 H 171.309 2.55349 -4.86906 0
M  V30 1853 H 172.534 3.21997 -5.97909 0
M  V30 1854 H 170.48 4.84084 -4.42718 0
M  V30 1855 H 170.397 4.44783 -6.11313 0
M  V30 1856 H 171.665 5.48761 -5.53608 0
M  V30 1857 N 175.894 1.51508 0.433938 0
M  V30 1858 C 176.824 1.76016 1.53429 0
M  V30 1859 C 177.805 0.610112 1.58782 0
M  V30 1860 O 178.99 0.853177 1.74455 0
M  V30 1861 C 176.12 1.88831 2.9148 0
M  V30 1862 C 175.074 3.04288 3.00987 0
M  V30 1863 C 174.4 3.0229 4.4105 0
M  V30 1864 C 175.7 4.44193 2.74754 0
M  V30 1865 H 177.394 2.68152 1.33171 0
M  V30 1866 H 174.94 1.29035 0.639214 0
M  V30 1867 H 176.893 2.04559 3.6842 0
M  V30 1868 H 175.617 0.933455 3.12976 0
M  V30 1869 H 174.276 2.8827 2.26486 0
M  V30 1870 H 173.924 2.04576 4.59519 0
M  V30 1871 H 173.624 3.79822 4.4834 0
M  V30 1872 H 175.148 3.20116 5.1996 0
M  V30 1873 H 176.562 4.60544 3.41426 0
M  V30 1874 H 174.959 5.23457 2.9345 0
M  V30 1875 H 176.029 4.53996 1.70339 0
M  V30 1876 N 177.372 -0.689602 1.41712 0
M  V30 1877 C 178.6 -1.47827 1.44758 0
M  V30 1878 C 179.015 -1.88721 0.0545703 0
M  V30 1879 O 178.372 -1.57176 -0.927463 0
M  V30 1880 C 178.423 -2.73698 2.3616 0
M  V30 1881 O 178.144 -2.34524 3.7004 0
M  V30 1882 C 179.645 -3.67389 2.48072 0
M  V30 1883 H 176.865 -0.455357 0.49284 0
M  V30 1884 H 179.409 -0.848574 1.86063 0
M  V30 1885 H 177.564 -3.32891 1.98148 0
M  V30 1886 H 177.978 -3.15701 4.18847 0
M  V30 1887 H 179.452 -4.52475 3.16181 0
M  V30 1888 H 179.929 -4.12284 1.51388 0
M  V30 1889 H 180.535 -3.14097 2.86746 0
M  V30 1890 N 178.85 -1.27639 -0.924453 0
M  V30 1891 C 180.097 -1.14167 -1.67249 0
M  V30 1892 C 180.425 0.311863 -1.91984 0
M  V30 1893 O 179.68 1.24425 -1.51053 0
M  V30 1894 C 179.979 -1.87407 -3.04325 0
M  V30 1895 C 179.645 -3.37249 -2.99289 0
M  V30 1896 C 178.307 -3.7812 -2.97622 0
M  V30 1897 C 180.659 -4.32845 -2.90336 0
M  V30 1898 C 177.987 -5.12944 -2.8479 0
M  V30 1899 C 180.339 -5.6773 -2.79045 0
M  V30 1900 C 179.003 -6.07889 -2.7573 0
M  V30 1901 H 178.273 -0.417766 -0.612007 0
M  V30 1902 H 180.92 -1.58286 -1.07786 0
M  V30 1903 H 179.225 -1.35805 -3.67511 0
M  V30 1904 H 180.922 -1.74408 -3.61086 0
M  V30 1905 H 177.512 -3.04748 -3.01374 0
M  V30 1906 H 181.696 -4.02239 -2.90719 0
M  V30 1907 H 176.952 -5.432 -2.80612 0
M  V30 1908 H 181.126 -6.41472 -2.71083 0
M  V30 1909 H 178.753 -7.12314 -2.65544 0
M  V30 1910 N 180.328 1.1314 -1.09713 0
M  V30 1911 C 181.238 2.22242 -0.751367 0
M  V30 1912 C 182.254 1.72224 0.247938 0
M  V30 1913 O 183.43 2.01205 0.0885463 0
M  V30 1914 C 180.495 3.46231 -0.180274 0
M  V30 1915 C 179.556 4.11125 -1.2359 0
M  V30 1916 C 178.789 5.29195 -0.691966 0
M  V30 1917 O 179.012 5.68342 0.48414 0
M  V30 1918 O 177.946 5.84214 -1.44838 0
M  V30 1919 H 181.772 2.54197 -1.66186 0
M  V30 1920 H 179.357 1.21331 -0.871735 0
M  V30 1921 H 181.239 4.21185 0.134739 0
M  V30 1922 H 179.914 3.1597 0.703185 0
M  V30 1923 H 178.821 3.37985 -1.60366 0
M  V30 1924 H 180.154 4.45524 -2.09211 0
M  V30 1925 N 181.806 0.884767 1.30421 0
M  V30 1926 C 182.753 0.349642 2.28136 0
M  V30 1927 C 183.723 -0.560061 1.56373 0
M  V30 1928 O 184.908 -0.488524 1.8444 0
M  V30 1929 C 182.048 -0.42999 3.42411 0
M  V30 1930 C 181.161 0.508907 4.28992 0
M  V30 1931 C 180.296 -0.286301 5.30428 0
M  V30 1932 C 179.335 0.648079 6.08659 0
M  V30 1933 N 178.472 -0.111792 7.02011 0
M  V30 1934 H 183.312 1.18807 2.73293 0
M  V30 1935 H 180.849 0.597231 1.3443 0
M  V30 1936 H 182.807 -0.897923 4.07423 0
M  V30 1937 H 181.437 -1.23299 2.98324 0
M  V30 1938 H 180.489 1.09533 3.64289 0
M  V30 1939 H 181.801 1.22475 4.8353 0
M  V30 1940 H 180.955 -0.816098 6.01186 0
M  V30 1941 H 179.694 -1.03536 4.76583 0
M  V30 1942 H 178.699 1.18951 5.36778 0
M  V30 1943 H 179.924 1.39623 6.64592 0
M  V30 1944 H 177.87 -0.843395 6.50556 0
M  V30 1945 H 177.787 0.544429 7.54037 0
M  V30 1946 H 179.055 -0.622339 7.77012 0
M  V30 1947 N 183.284 -1.43765 0.645699 0
M  V30 1948 C 184.194 -2.34544 -0.0512957 0
M  V30 1949 C 185.21 -1.53455 -0.82022 0
M  V30 1950 O 186.386 -1.86133 -0.769176 0
M  V30 1951 C 183.451 -3.31636 -1.01087 0
M  V30 1952 C 182.512 -4.2863 -0.239712 0
M  V30 1953 C 181.745 -5.21084 -1.15358 0
M  V30 1954 O 181.968 -5.1779 -2.39269 0
M  V30 1955 O 180.902 -5.98593 -0.630038 0
M  V30 1956 H 184.728 -2.95624 0.695718 0
M  V30 1957 H 182.313 -1.43781 0.405882 0
M  V30 1958 H 184.195 -3.9136 -1.56254 0
M  V30 1959 H 182.87 -2.73069 -1.73824 0
M  V30 1960 H 181.777 -3.72408 0.355356 0
M  V30 1961 H 183.11 -4.90157 0.447936 0
M  V30 1962 N 184.763 -0.387143 -1.52771 0
M  V30 1963 C 186.012 0.19697 -2.00736 0
M  V30 1964 C 186.325 1.48082 -1.27793 0
M  V30 1965 O 187.531 2.14485 -1.66458 0
M  V30 1966 C 185.987 0.401568 -3.57653 0
M  V30 1967 C 185.595 -0.868907 -4.39493 0
M  V30 1968 C 187.339 0.942164 -4.13912 0
M  V30 1969 C 185.246 -0.632705 -5.88006 0
M  V30 1970 H 184.176 0.0773827 -0.750019 0
M  V30 1971 H 186.827 -0.50921 -1.76293 0
M  V30 1972 H 185.209 1.16954 -3.78335 0
M  V30 1973 H 186.383 -1.64133 -4.30577 0
M  V30 1974 H 184.698 -1.33429 -3.94443 0
M  V30 1975 H 187.295 1.13455 -5.22525 0
M  V30 1976 H 187.638 1.9106 -3.69867 0
M  V30 1977 H 188.171 0.233814 -3.97112 0
M  V30 1978 H 184.91 -1.57208 -6.36369 0
M  V30 1979 H 184.43 0.100825 -5.99715 0
M  V30 1980 H 186.109 -0.26642 -6.46451 0
M  V30 1981 N 186.241 1.57166 -0.116904 0
M  V30 1982 C 187.466 1.999 0.55271 0
M  V30 1983 C 187.891 0.996039 1.59564 0
M  V30 1984 O 187.249 -0.032556 1.81271 0
M  V30 1985 C 187.297 3.4152 1.15742 0
M  V30 1986 O 186.401 3.44106 2.27299 0
M  V30 1987 H 185.742 0.649447 0.138258 0
M  V30 1988 H 188.272 2.03573 -0.204759 0
M  V30 1989 H 188.282 3.79684 1.49346 0
M  V30 1990 H 186.957 4.14034 0.393493 0
M  V30 1991 H 185.534 3.17759 1.9515 0
M  V30 1992 N 187.719 -0.156864 1.56817 0
M  V30 1993 C 188.649 -1.19589 2.00551 0
M  V30 1994 C 189.63 -1.4536 0.883426 0
M  V30 1995 O 190.815 -1.56449 1.15054 0
M  V30 1996 C 187.945 -2.53143 2.37773 0
M  V30 1997 C 186.899 -2.41913 3.53075 0
M  V30 1998 C 186.225 -3.80088 3.76081 0
M  V30 1999 C 187.525 -1.91157 4.86062 0
M  V30 2000 H 189.219 -0.832293 2.87599 0
M  V30 2001 H 186.765 -0.398918 1.38364 0
M  V30 2002 H 188.718 -3.26047 2.66967 0
M  V30 2003 H 187.442 -2.91319 1.4765 0
M  V30 2004 H 186.101 -1.71462 3.24031 0
M  V30 2005 H 185.749 -4.15683 2.83225 0
M  V30 2006 H 185.449 -3.73439 4.53671 0
M  V30 2007 H 186.973 -4.54556 4.0769 0
M  V30 2008 H 188.387 -2.53846 5.14038 0
M  V30 2009 H 186.784 -1.95422 5.67389 0
M  V30 2010 H 187.854 -0.866673 4.77092 0
M  V30 2011 N 189.197 -1.51736 -0.425897 0
M  V30 2012 C 190.608 -1.5732 -1.00536 0
M  V30 2013 C 190.959 -0.403537 -1.92005 0
M  V30 2014 O 190.084 0.478256 -2.11049 0
M  V30 2015 C 190.679 -2.85119 -1.8301 0
M  V30 2016 C 189.238 -2.93236 -2.35987 0
M  V30 2017 C 188.385 -2.52098 -1.15508 0
M  V30 2018 H 191.336 -1.57348 -0.206739 0
M  V30 2019 H 191.357 -2.69526 -2.68581 0
M  V30 2020 H 190.869 -3.7023 -1.16411 0
M  V30 2021 H 188.97 -2.12581 -3.06007 0
M  V30 2022 H 189.083 -3.9713 -2.68001 0
M  V30 2023 H 187.447 -2.05558 -1.50393 0
M  V30 2024 H 188.23 -3.39565 -0.505014 0
M  V30 2025 N 190.675 0.682077 -1.42076 0
M  V30 2026 C 192.086 1.26246 -1.37546 0
M  V30 2027 C 192.437 1.96092 -0.0651481 0
M  V30 2028 O 191.562 1.99587 0.836297 0
M  V30 2029 C 192.157 2.29594 -2.49143 0
M  V30 2030 C 190.716 2.83175 -2.47969 0
M  V30 2031 C 189.863 1.57395 -2.28303 0
M  V30 2032 H 192.814 0.475937 -1.51395 0
M  V30 2033 H 192.835 3.11175 -2.18976 0
M  V30 2034 H 192.347 1.78729 -3.44496 0
M  V30 2035 H 190.448 3.3818 -1.56413 0
M  V30 2036 H 190.561 3.32687 -3.44755 0
M  V30 2037 H 188.925 1.83699 -1.76428 0
M  V30 2038 H 189.708 1.08507 -3.25701 0
M  V30 2039 N 192.153 1.28127 0.917671 0
M  V30 2040 C 193.1 1.11717 2.0196 0
M  V30 2041 C 194.07 0.0153929 1.66093 0
M  V30 2042 O 195.255 0.179596 1.89953 0
M  V30 2043 C 192.395 0.780927 3.36148 0
M  V30 2044 C 191.508 1.96135 3.84909 0
M  V30 2045 C 190.643 1.56609 5.0759 0
M  V30 2046 C 189.682 2.71339 5.48673 0
M  V30 2047 N 188.819 2.32332 6.62545 0
M  V30 2048 H 193.659 2.06003 2.15329 0
M  V30 2049 H 191.196 1.02535 1.05475 0
M  V30 2050 H 193.154 0.56675 4.13333 0
M  V30 2051 H 191.784 -0.124998 3.22558 0
M  V30 2052 H 190.836 2.28777 3.03916 0
M  V30 2053 H 192.148 2.82165 4.1132 0
M  V30 2054 H 191.302 1.31374 5.92305 0
M  V30 2055 H 190.041 0.677014 4.82978 0
M  V30 2056 H 189.046 2.97276 4.62501 0
M  V30 2057 H 190.271 3.60882 5.75274 0
M  V30 2058 H 188.217 1.45889 6.39572 0
M  V30 2059 H 188.134 3.11899 6.88662 0
M  V30 2060 H 189.402 2.10371 7.50576 0
M  V30 2061 N 193.631 -1.12557 1.10312 0
M  V30 2062 C 195.047 -1.36036 0.834649 0
M  V30 2063 C 195.247 -1.93946 -0.546539 0
M  V30 2064 O 194.303 -2.16484 -1.29966 0
M  V30 2065 C 195.616 -2.30312 1.9333 0
M  V30 2066 C 197.164 -2.43906 1.9616 0
M  V30 2067 C 197.639 -3.41496 3.05195 0
M  V30 2068 N 199.13 -3.49053 3.04494 0
M  V30 2069 C 199.865 -4.24471 3.85502 0
M  V30 2070 N 199.361 -5.02966 4.76442 0
M  V30 2071 N 201.154 -4.19864 3.73725 0
M  V30 2072 H 193.305 -0.733246 1.99342 0
M  V30 2073 H 195.568 -0.385234 0.866198 0
M  V30 2074 H 195.274 -1.94933 2.92735 0
M  V30 2075 H 195.148 -3.30421 1.81939 0
M  V30 2076 H 197.535 -2.78567 0.973886 0
M  V30 2077 H 197.616 -1.4369 2.11629 0
M  V30 2078 H 197.26 -3.07565 4.04186 0
M  V30 2079 H 197.19 -4.41539 2.86968 0
M  V30 2080 H 199.681 -2.93053 2.38596 0
M  V30 2081 H 199.994 -5.57846 5.34815 0
M  V30 2082 H 198.339 -5.02167 4.80472 0
M  V30 2083 H 201.53 -3.57623 3.02032 0
M  V30 2084 H 201.703 -4.78386 4.37093 0
M  V30 2085 N 195.109 -0.891671 -1.2995 0
M  V30 2086 C 196.355 -0.514261 -1.96171 0
M  V30 2087 C 196.688 0.935506 -1.70182 0
M  V30 2088 O 195.963 1.66204 -1.01028 0
M  V30 2089 C 196.246 -0.797719 -3.51153 0
M  V30 2090 C 196.099 -2.2986 -3.86632 0
M  V30 2091 C 197.418 -0.278749 -4.39216 0
M  V30 2092 H 194.537 -0.188314 -0.712535 0
M  V30 2093 H 197.179 -1.11689 -1.53706 0
M  V30 2094 H 195.329 -0.284826 -3.87455 0
M  V30 2095 H 197.001 -2.88042 -3.60319 0
M  V30 2096 H 195.244 -2.76257 -3.34462 0
M  V30 2097 H 195.915 -2.44753 -4.94773 0
M  V30 2098 H 198.391 -0.717825 -4.09862 0
M  V30 2099 H 197.267 -0.506353 -5.46559 0
M  V30 2100 H 197.528 0.820266 -4.34424 0
M  V30 2101 N 196.587 1.43421 -0.653314 0
M  V30 2102 C 197.519 2.29071 0.0769134 0
M  V30 2103 C 198.532 1.42513 0.787017 0
M  V30 2104 O 199.721 1.66449 0.644757 0
M  V30 2105 C 196.821 3.19436 1.13199 0
M  V30 2106 C 195.994 4.34533 0.500006 0
M  V30 2107 C 195.053 5.05771 1.45198 0
M  V30 2108 O 194.079 5.61037 0.960538 0
M  V30 2109 N 195.281 5.0928 2.78594 0
M  V30 2110 H 198.046 2.92382 -0.658235 0
M  V30 2111 H 195.607 1.54112 -0.496104 0
M  V30 2112 H 197.599 3.63958 1.76964 0
M  V30 2113 H 196.169 2.57724 1.7691 0
M  V30 2114 H 195.389 3.92925 -0.316738 0
M  V30 2115 H 196.677 5.08766 0.0588345 0
M  V30 2116 H 196.075 4.65751 3.2108 0
M  V30 2117 H 194.632 5.57519 3.37662 0
M  V30 2118 N 198.065 0.39524 1.52563 0
M  V30 2119 C 199.313 -0.184678 2.01254 0
M  V30 2120 C 199.634 -1.46822 1.28329 0
M  V30 2121 O 198.904 -1.91666 0.405094 0
M  V30 2122 H 197.484 -0.0712355 0.743596 0
M  V30 2123 H 200.146 0.528293 1.87603 0
M  V30 2124 H 199.242 -0.390681 3.09645 0
M  V30 2125 N 199.544 -1.57102 0.125237 0
M  V30 2126 C 200.474 -2.18659 -0.819174 0
M  V30 2127 C 201.455 -1.12843 -1.27281 0
M  V30 2128 O 202.64 -1.41104 -1.33429 0
M  V30 2129 C 199.77 -2.79096 -2.06695 0
M  V30 2130 C 198.724 -3.90548 -1.75088 0
M  V30 2131 C 198.05 -4.37821 -3.06948 0
M  V30 2132 C 199.35 -5.12356 -1.01435 0
M  V30 2133 H 201.044 -2.9783 -0.306202 0
M  V30 2134 H 198.59 -1.4326 -0.145839 0
M  V30 2135 H 200.543 -3.2082 -2.73226 0
M  V30 2136 H 199.267 -1.97223 -2.60328 0
M  V30 2137 H 197.926 -3.49409 -1.10944 0
M  V30 2138 H 197.574 -3.52799 -3.58527 0
M  V30 2139 H 197.274 -5.12982 -2.86571 0
M  V30 2140 H 198.798 -4.822 -3.74587 0
M  V30 2141 H 200.212 -5.5106 -1.58132 0
M  V30 2142 H 198.609 -5.9314 -0.911319 0
M  V30 2143 H 199.679 -4.849 -0.00218681 0
M  V30 2144 N 201.022 0.148545 -1.56898 0
M  V30 2145 C 201.97 1.20265 -1.99096 0
M  V30 2146 C 202.964 1.44559 -0.883123 0
M  V30 2147 O 204.17 1.4487 -1.0683 0
M  V30 2148 H 200.545 0.404786 -0.63376 0
M  V30 2149 H 202.516 0.82004 -2.86911 0
M  V30 2150 C 201.265 2.52886 -2.3863 0
M  V30 2151 H 200.588 2.35021 -3.23427 0
M  V30 2152 H 202.028 3.25274 -2.7198 0
M  V30 2153 C 200.487 3.13315 -1.23837 0
M  V30 2154 O 201.017 3.98077 -0.538268 0
M  V30 2155 N 199.223 2.72742 -1.00301 0
M  V30 2156 H 198.77 2.03912 -1.5741 0
M  V30 2157 H 198.728 3.13507 -0.236838 0
M  V30 2158 N 202.5 1.5196 0.417844 0
M  V30 2159 C 203.73 1.69181 1.18581 0
M  V30 2160 C 204.138 0.397104 1.84986 0
M  V30 2161 O 203.481 -0.636011 1.72339 0
M  V30 2162 C 203.543 2.76497 2.29759 0
M  V30 2163 C 203.207 4.18514 1.83563 0
M  V30 2164 C 204.204 5.02648 1.32821 0
M  V30 2165 C 201.889 4.64708 1.90661 0
M  V30 2166 C 203.883 6.31044 0.897894 0
M  V30 2167 C 201.57 5.93096 1.47241 0
M  V30 2168 C 202.568 6.76093 0.968891 0
M  V30 2169 O 202.256 8.02078 0.540924 0
M  V30 2170 H 201.988 0.570457 0.362705 0
M  V30 2171 H 204.542 1.99249 0.498885 0
M  V30 2172 H 202.772 2.41786 3.01789 0
M  V30 2173 H 204.461 2.82403 2.91553 0
M  V30 2174 H 205.227 4.68154 1.26716 0
M  V30 2175 H 201.106 4.00216 2.28797 0
M  V30 2176 H 204.65 6.95776 0.504192 0
M  V30 2177 H 200.547 6.271 1.53022 0
M  V30 2178 H 201.315 8.15794 0.66502 0
M  V30 2179 N 203.978 -0.674533 1.42435 0
M  V30 2180 C 205.255 -1.4305 1.33402 0
M  V30 2181 C 205.635 -2.11081 -0.0284674 0
M  V30 2182 O 204.983 -2.03257 -1.04397 0
M  V30 2183 C 205.193 -2.43272 2.50239 0
M  V30 2184 C 206.541 -3.07907 2.92367 0
M  V30 2185 O 207.565 -2.53599 2.50132 0
M  V30 2186 O 206.424 -4.0632 3.65467 0
M  V30 2187 H 203.518 -0.638076 0.526106 0
M  V30 2188 H 206.064 -0.703235 1.54443 0
M  V30 2189 H 204.836 -1.91803 3.41068 0
M  V30 2190 H 204.459 -3.23479 2.31186 0
M  V30 2191 N 205.456 -1.28612 -0.910864 0
M  V30 2192 C 206.704 -1.15705 -1.65701 0
M  V30 2193 C 207.025 0.29416 -1.92769 0
M  V30 2194 O 206.295 1.20331 -1.54588 0
M  V30 2195 H 204.875 -0.425216 -0.614167 0
M  V30 2196 H 207.537 -1.61381 -1.0928 0
M  V30 2197 H 206.633 -1.6988 -2.61815 0
M  V30 2198 N 206.934 1.1197 -1.10907 0
M  V30 2199 C 207.864 2.19928 -0.784473 0
M  V30 2200 C 208.845 1.6833 0.244726 0
M  V30 2201 O 210.03 1.93892 0.109418 0
M  V30 2202 C 207.16 3.46597 -0.220827 0
M  V30 2203 C 206.114 4.11376 -1.18127 0
M  V30 2204 C 205.44 5.32554 -0.478594 0
M  V30 2205 C 206.74 4.56945 -2.52979 0
M  V30 2206 H 208.434 2.47337 -1.68715 0
M  V30 2207 H 205.98 1.18879 -0.812642 0
M  V30 2208 H 207.933 4.21396 0.0184278 0
M  V30 2209 H 206.657 3.1863 0.717113 0
M  V30 2210 H 205.316 3.38564 -1.40606 0
M  V30 2211 H 204.964 5.00856 0.463976 0
M  V30 2212 H 204.664 5.76844 -1.11912 0
M  V30 2213 H 206.188 6.10096 -0.248 0
M  V30 2214 H 207.602 5.23093 -2.3462 0
M  V30 2215 H 205.999 5.1203 -3.12962 0
M  V30 2216 H 207.069 3.70676 -3.12614 0
M  V30 2217 N 208.412 0.89855 1.29475 0
M  V30 2218 C 209.659 0.523882 1.95606 0
M  V30 2219 C 209.987 -0.929608 1.70847 0
M  V30 2220 O 209.242 -1.67401 1.01367 0
M  V30 2221 C 209.541 0.761398 3.49195 0
M  V30 2222 C 209.207 2.19207 3.94029 0
M  V30 2223 C 207.869 2.58326 4.05982 0
M  V30 2224 C 210.221 3.12379 4.17216 0
M  V30 2225 C 207.549 3.898 4.38489 0
M  V30 2226 C 209.901 4.43401 4.51197 0
M  V30 2227 C 208.565 4.82394 4.61359 0
M  V30 2228 H 207.835 0.191702 0.715773 0
M  V30 2229 H 210.482 1.13699 1.54094 0
M  V30 2230 H 208.787 0.0653622 3.91745 0
M  V30 2231 H 210.484 0.450904 3.98457 0
M  V30 2232 H 207.074 1.87846 3.85242 0
M  V30 2233 H 211.258 2.83371 4.07449 0
M  V30 2234 H 206.514 4.19734 4.44559 0
M  V30 2235 H 210.688 5.15623 4.68087 0
M  V30 2236 H 208.315 5.84306 4.86303 0
M  V30 2237 N 209.89 -1.43072 0.660911 0
M  V30 2238 C 211.306 -1.56169 0.329173 0
M  V30 2239 C 211.506 -1.64317 -1.16629 0
M  V30 2240 O 210.562 -1.60245 -1.95135 0
M  V30 2241 C 211.875 -2.81873 1.04729 0
M  V30 2242 C 213.423 -2.95627 1.02828 0
M  V30 2243 C 213.898 -4.24174 1.72744 0
M  V30 2244 N 215.389 -4.31055 1.69545 0
M  V30 2245 C 216.124 -5.29304 2.20511 0
M  V30 2246 N 215.62 -6.33786 2.79799 0
M  V30 2247 N 217.413 -5.21008 2.10966 0
M  V30 2248 H 209.564 -1.36027 1.63127 0
M  V30 2249 H 211.827 -0.653823 0.686454 0
M  V30 2250 H 211.533 -2.81942 2.10242 0
M  V30 2251 H 211.407 -3.72338 0.603702 0
M  V30 2252 H 213.794 -2.95094 -0.0184742 0
M  V30 2253 H 213.875 -2.06431 1.51063 0
M  V30 2254 H 213.519 -4.25467 2.7738 0
M  V30 2255 H 213.449 -5.1228 1.2197 0
M  V30 2256 H 215.94 -3.56174 1.26288 0
M  V30 2257 H 216.253 -7.05086 3.16344 0
M  V30 2258 H 214.598 -6.34387 2.83863 0
M  V30 2259 H 217.789 -4.38301 1.64347 0
M  V30 2260 H 217.962 -5.97416 2.50993 0
M  V30 2261 N 211.368 -0.403325 -1.52352 0
M  V30 2262 C 212.3 0.4603 -2.2453 0
M  V30 2263 C 213.313 1.01505 -1.27282 0
M  V30 2264 O 214.502 0.914982 -1.53266 0
M  V30 2265 C 211.602 1.65208 -2.95905 0
M  V30 2266 C 210.775 1.22224 -4.19976 0
M  V30 2267 C 209.834 2.28028 -4.74226 0
M  V30 2268 O 208.86 1.88857 -5.36956 0
M  V30 2269 N 210.062 3.6012 -4.55295 0
M  V30 2270 H 212.827 -0.158156 -2.99282 0
M  V30 2271 H 210.388 -0.230402 -1.60252 0
M  V30 2272 H 212.38 2.35541 -3.29093 0
M  V30 2273 H 210.95 2.17658 -2.24374 0
M  V30 2274 H 210.17 0.34725 -3.92668 0
M  V30 2275 H 211.458 0.911924 -5.00561 0
M  V30 2276 H 210.856 3.94698 -4.05253 0
M  V30 2277 H 209.413 4.26447 -4.92936 0
M  V30 2278 N 212.846 1.57033 -0.133567 0
M  V30 2279 C 214.074 2.00044 0.528195 0
M  V30 2280 C 214.489 1.01349 1.59291 0
M  V30 2281 O 213.846 0.00848369 1.82498 0
M  V30 2282 C 213.897 3.43018 1.1411 0
M  V30 2283 O 213.618 4.37939 0.11892 0
M  V30 2284 C 215.119 4.01237 1.88477 0
M  V30 2285 H 212.339 0.656517 0.138661 0
M  V30 2286 H 214.883 2.03267 -0.224196 0
M  V30 2287 H 213.038 3.40688 1.84418 0
M  V30 2288 H 213.452 5.21436 0.56613 0
M  V30 2289 H 214.926 5.03314 2.26669 0
M  V30 2290 H 215.403 3.41193 2.76558 0
M  V30 2291 H 216.009 4.07156 1.22898 0
M  V30 2292 N 214.325 -0.140222 1.56975 0
M  V30 2293 C 215.553 -0.866437 1.87884 0
M  V30 2294 C 215.968 -1.74428 0.722517 0
M  V30 2295 O 215.325 -1.79891 -0.30749 0
M  V30 2296 C 215.376 -1.71753 3.18093 0
M  V30 2297 O 215.097 -0.875056 4.29272 0
M  V30 2298 C 216.598 -2.55074 3.62563 0
M  V30 2299 H 213.818 -0.25019 0.622612 0
M  V30 2300 H 216.362 -0.130977 2.0408 0
M  V30 2301 H 214.517 -2.40598 3.03631 0
M  V30 2302 H 214.931 -1.46002 5.03769 0
M  V30 2303 H 216.405 -3.10356 4.5649 0
M  V30 2304 H 216.882 -3.31434 2.88181 0
M  V30 2305 H 217.488 -1.91509 3.79743 0
M  V30 2306 N 215.803 -1.52179 -0.40978 0
M  V30 2307 C 217.08 -1.56769 -1.16974 0
M  V30 2308 C 217.46 -0.348322 -2.08206 0
M  V30 2309 O 216.808 0.664862 -2.18613 0
M  V30 2310 C 217.018 -2.89603 -1.9476 0
M  V30 2311 C 218.366 -3.42579 -2.50849 0
M  V30 2312 O 219.39 -2.91338 -2.04941 0
M  V30 2313 O 218.249 -4.32054 -3.34652 0
M  V30 2314 H 215.343 -0.631439 -0.534054 0
M  V30 2315 H 217.889 -1.64507 -0.416613 0
M  V30 2316 H 216.661 -3.698 -1.27921 0
M  V30 2317 H 216.284 -2.85155 -2.77079 0
M  V30 2318 N 217.281 0.66697 -1.42791 0
M  V30 2319 C 218.529 1.42417 -1.43394 0
M  V30 2320 C 218.85 1.94925 -0.0542373 0
M  V30 2321 O 218.12 1.73564 0.908415 0
M  V30 2322 H 216.7 0.528515 -0.527902 0
M  V30 2323 H 219.362 0.787562 -1.78279 0
M  V30 2324 H 218.458 2.27333 -2.13837 0
M  V30 2325 N 218.759 1.29093 0.90403 0
M  V30 2326 C 219.706 1.13853 2.00764 0
M  V30 2327 C 220.676 0.0330084 1.66067 0
M  V30 2328 O 221.861 0.199733 1.89752 0
M  V30 2329 C 219.001 0.816537 3.35301 0
M  V30 2330 C 218.114 2.00206 3.82807 0
M  V30 2331 C 217.249 1.61983 5.059 0
M  V30 2332 C 216.288 2.77143 5.45764 0
M  V30 2333 N 215.425 2.39346 6.60044 0
M  V30 2334 H 220.265 2.08276 2.13132 0
M  V30 2335 H 217.802 1.03648 1.04381 0
M  V30 2336 H 219.76 0.610557 4.12708 0
M  V30 2337 H 218.39 -0.090779 3.22672 0
M  V30 2338 H 217.442 2.31988 3.01473 0
M  V30 2339 H 218.754 2.86512 4.08304 0
M  V30 2340 H 217.908 1.37649 5.90879 0
M  V30 2341 H 216.647 0.728202 4.82233 0
M  V30 2342 H 215.652 3.02165 4.59322 0
M  V30 2343 H 216.877 3.66964 5.71414 0
M  V30 2344 H 214.823 1.52665 6.37989 0
M  V30 2345 H 214.74 3.19185 6.85315 0
M  V30 2346 H 216.008 2.1832 7.48303 0
M  V30 2347 N 220.237 -1.11381 1.11499 0
M  V30 2348 C 221.484 -1.83132 0.864231 0
M  V30 2349 C 221.812 -1.84683 -0.610114 0
M  V30 2350 O 221.067 -1.29589 -1.46646 0
M  V30 2351 C 221.366 -3.30026 1.37177 0
M  V30 2352 C 221.032 -3.48634 2.85946 0
M  V30 2353 C 219.694 -3.53421 3.26569 0
M  V30 2354 C 222.046 -3.54837 3.81759 0
M  V30 2355 C 219.374 -3.61967 4.61733 0
M  V30 2356 C 221.726 -3.64915 5.1674 0
M  V30 2357 C 220.39 -3.67962 5.5692 0
M  V30 2358 H 219.66 -0.670127 0.316245 0
M  V30 2359 H 222.307 -1.31354 1.3935 0
M  V30 2360 H 220.612 -3.84304 0.762753 0
M  V30 2361 H 222.309 -3.84034 1.15408 0
M  V30 2362 H 218.899 -3.45579 2.53521 0
M  V30 2363 H 223.083 -3.50399 3.51474 0
M  V30 2364 H 218.339 -3.62603 4.92269 0
M  V30 2365 H 222.513 -3.68658 5.90816 0
M  V30 2366 H 220.14 -3.74336 6.61647 0
M  V30 2367 N 221.715 -0.905404 -1.28997 0
M  V30 2368 C 222.964 -0.530191 -1.94607 0
M  V30 2369 C 223.277 0.929185 -1.72121 0
M  V30 2370 O 224.483 1.41218 -2.31883 0
M  V30 2371 C 222.939 -0.897333 -3.48534 0
M  V30 2372 C 222.547 -2.37587 -3.79811 0
M  V30 2373 C 224.291 -0.592304 -4.20347 0
M  V30 2374 C 222.198 -2.68357 -5.27009 0
M  V30 2375 H 221.128 -0.194558 -0.728466 0
M  V30 2376 H 223.779 -1.10318 -1.46636 0
M  V30 2377 H 222.161 -0.253214 -3.9519 0
M  V30 2378 H 223.335 -3.06602 -3.43994 0
M  V30 2379 H 221.65 -2.6505 -3.2115 0
M  V30 2380 H 224.247 -0.798975 -5.28697 0
M  V30 2381 H 224.59 0.469474 -4.13644 0
M  V30 2382 H 225.123 -1.19452 -3.79442 0
M  V30 2383 H 221.862 -3.73355 -5.38782 0
M  V30 2384 H 221.382 -2.03971 -5.64053 0
M  V30 2385 H 223.061 -2.54922 -5.94663 0
M  V30 2386 N 223.193 1.4272 -0.668489 0
M  V30 2387 C 224.439 2.01923 -0.188419 0
M  V30 2388 C 224.772 1.52704 1.19979 0
M  V30 2389 O 224.047 0.726566 1.8042 0
M  V30 2390 C 224.33 3.59451 -0.216085 0
M  V30 2391 C 224.183 4.18864 -1.6393 0
M  V30 2392 C 225.502 4.37903 0.439179 0
M  V30 2393 H 222.621 0.733674 -0.0699412 0
M  V30 2394 H 225.263 1.69822 -0.852076 0
M  V30 2395 H 223.413 3.86929 0.349012 0
M  V30 2396 H 225.085 4.02362 -2.25616 0
M  V30 2397 H 223.328 3.74933 -2.18193 0
M  V30 2398 H 223.999 5.27987 -1.61039 0
M  V30 2399 H 226.475 4.16079 -0.0417878 0
M  V30 2400 H 225.351 5.47519 0.389157 0
M  V30 2401 H 225.612 4.15303 1.51577 0
M  V30 2402 N 224.671 0.411399 1.52136 0
M  V30 2403 C 225.601 -0.404015 2.29978 0
M  V30 2404 C 226.582 -1.04412 1.34284 0
M  V30 2405 O 227.767 -1.0527 1.63192 0
M  V30 2406 C 224.897 -1.5197 3.12286 0
M  V30 2407 C 223.851 -1.00448 4.16046 0
M  V30 2408 C 223.177 -2.21393 4.86712 0
M  V30 2409 C 224.477 -0.0569336 5.22269 0
M  V30 2410 H 226.171 0.245529 2.98392 0
M  V30 2411 H 223.717 0.119525 1.43503 0
M  V30 2412 H 225.67 -2.09715 3.6551 0
M  V30 2413 H 224.394 -2.19716 2.41646 0
M  V30 2414 H 223.053 -0.449421 3.63835 0
M  V30 2415 H 222.701 -2.87699 4.12599 0
M  V30 2416 H 222.401 -1.87571 5.56858 0
M  V30 2417 H 223.925 -2.7974 5.4275 0
M  V30 2418 H 225.339 -0.54325 5.7072 0
M  V30 2419 H 223.736 0.192594 5.99791 0
M  V30 2420 H 224.806 0.887663 4.76706 0
M  V30 2421 N 226.149 -1.5696 0.141893 0
M  V30 2422 C 227.081 -2.13619 -0.830627 0
M  V30 2423 C 228.094 -1.08439 -1.21428 0
M  V30 2424 O 229.283 -1.35734 -1.15925 0
M  V30 2425 C 226.383 -2.63978 -2.12529 0
M  V30 2426 C 225.556 -3.93504 -1.9098 0
M  V30 2427 C 224.615 -4.29225 -3.04388 0
M  V30 2428 O 223.641 -4.97641 -2.76302 0
M  V30 2429 N 224.843 -3.88393 -4.31429 0
M  V30 2430 H 227.608 -2.97691 -0.34641 0
M  V30 2431 H 225.169 -1.61846 -0.0418375 0
M  V30 2432 H 227.161 -2.84891 -2.87436 0
M  V30 2433 H 225.731 -1.84659 -2.52229 0
M  V30 2434 H 224.951 -3.81269 -1.00139 0
M  V30 2435 H 226.239 -4.78154 -1.73914 0
M  V30 2436 H 225.637 -3.33257 -4.57117 0
M  V30 2437 H 224.194 -4.14368 -5.03133 0
M  V30 2438 N 227.627 0.131896 -1.57047 0
M  V30 2439 C 228.575 1.18146 -2.0036 0
M  V30 2440 C 229.569 1.43614 -0.898406 0
M  V30 2441 O 230.775 1.43729 -1.08361 0
M  V30 2442 H 227.15 0.398042 -0.638018 0
M  V30 2443 H 229.121 0.789564 -2.87765 0
M  V30 2444 C 227.87 2.50341 -2.41298 0
M  V30 2445 H 227.193 2.31578 -3.25902 0
M  V30 2446 H 228.633 3.22371 -2.75414 0
M  V30 2447 C 227.092 3.11984 -1.27153 0
M  V30 2448 O 227.622 3.97484 -0.580459 0
M  V30 2449 N 225.828 2.71662 -1.03189 0
M  V30 2450 H 225.375 2.02231 -1.59564 0
M  V30 2451 H 225.333 3.13238 -0.270077 0
M  V30 2452 N 229.106 1.52395 0.401703 0
M  V30 2453 C 230.069 1.75636 1.47257 0
M  V30 2454 C 231.069 0.62628 1.48103 0
M  V30 2455 O 232.259 0.894227 1.49497 0
M  V30 2456 C 229.391 1.84553 2.86624 0
M  V30 2457 H 230.584 2.71241 1.27938 0
M  V30 2458 H 228.137 1.42923 0.632662 0
M  V30 2459 H 228.872 0.908882 3.11303 0
M  V30 2460 H 228.657 2.66715 2.87412 0
M  V30 2461 H 230.147 2.04251 3.64241 0
M  V30 2462 N 230.584 -0.659388 1.43143 0
M  V30 2463 C 231.809 -1.45221 1.48073 0
M  V30 2464 C 232.234 -1.87845 0.097995 0
M  V30 2465 O 231.592 -1.56985 -0.90694 0
M  V30 2466 C 231.64 -2.66748 2.42647 0
M  V30 2467 O 230.744 -3.65583 1.90848 0
M  V30 2468 H 230.085 -0.435669 0.501088 0
M  V30 2469 H 232.615 -0.807432 1.87994 0
M  V30 2470 H 232.625 -3.14637 2.59745 0
M  V30 2471 H 231.3 -2.35067 3.43098 0
M  V30 2472 H 229.877 -3.24693 1.83381 0
M  V30 2473 N 232.062 -1.29571 -0.897171 0
M  V30 2474 C 233.473 -1.15964 -1.46319 0
M  V30 2475 C 233.824 0.244267 -1.94674 0
M  V30 2476 O 232.949 1.13998 -1.83939 0
M  V30 2477 C 233.544 -2.09906 -2.65942 0
M  V30 2478 C 232.103 -2.00314 -3.18671 0
M  V30 2479 C 231.25 -2.00687 -1.91363 0
M  V30 2480 H 234.201 -1.42019 -0.708268 0
M  V30 2481 H 234.222 -1.67276 -3.41759 0
M  V30 2482 H 233.734 -3.12075 -2.30718 0
M  V30 2483 H 231.835 -1.01242 -3.58582 0
M  V30 2484 H 231.948 -2.88102 -3.82798 0
M  V30 2485 H 230.312 -1.45319 -2.09175 0
M  V30 2486 H 231.095 -3.04566 -1.58413 0
M  V30 2487 N 233.54 1.10788 -1.12088 0
M  V30 2488 C 234.503 2.15207 -0.788577 0
M  V30 2489 C 235.503 1.59609 0.195317 0
M  V30 2490 O 236.693 1.74174 -0.0300193 0
M  V30 2491 C 233.825 3.4047 -0.171174 0
M  V30 2492 H 235.018 2.46116 -1.71368 0
M  V30 2493 H 232.571 1.26089 -0.923652 0
M  V30 2494 H 233.306 3.15176 0.763832 0
M  V30 2495 H 233.091 3.82109 -0.879514 0
M  V30 2496 H 234.581 4.17576 0.04496 0
M  V30 2497 N 235.018 0.912232 1.28515 0
M  V30 2498 C 236.246 0.560416 1.99166 0
M  V30 2499 C 236.661 -0.857927 1.68182 0
M  V30 2500 O 236.018 -1.56805 0.933733 0
M  V30 2501 C 236.069 0.758142 3.53461 0
M  V30 2502 O 235.79 2.12067 3.83352 0
M  V30 2503 C 237.291 0.412954 4.41372 0
M  V30 2504 H 234.511 0.213805 0.636026 0
M  V30 2505 H 237.055 1.22502 1.63749 0
M  V30 2506 H 235.21 0.140556 3.87145 0
M  V30 2507 H 235.624 2.15923 4.77993 0
M  V30 2508 H 237.098 0.60208 5.48707 0
M  V30 2509 H 237.575 -0.65073 4.34353 0
M  V30 2510 H 238.181 1.00802 4.13182 0
M  V30 2511 N 236.496 -1.42363 0.676048 0
M  V30 2512 C 237.721 -2.06377 0.205705 0
M  V30 2513 C 238.146 -1.50463 -1.12883 0
M  V30 2514 O 237.504 -0.623619 -1.70237 0
M  V30 2515 C 237.552 -3.60277 0.152655 0
M  V30 2516 O 236.656 -4.02935 -0.87845 0
M  V30 2517 H 235.997 -0.655588 0.105359 0
M  V30 2518 H 238.527 -1.82475 0.925412 0
M  V30 2519 H 238.537 -4.07993 -0.0230675 0
M  V30 2520 H 237.212 -4.00346 1.12675 0
M  V30 2521 H 235.789 -3.66764 -0.673668 0
M  V30 2522 N 237.974 -0.419461 -1.51915 0
M  V30 2523 C 239.223 0.154346 -2.01109 0
M  V30 2524 C 239.536 1.45338 -1.30905 0
M  V30 2525 O 240.742 2.10906 -1.7097 0
M  V30 2526 C 239.198 0.325615 -3.58424 0
M  V30 2527 C 238.806 -0.961934 -4.37551 0
M  V30 2528 C 240.55 0.854155 -4.15818 0
M  V30 2529 C 238.457 -0.757287 -5.86531 0
M  V30 2530 H 237.387 0.0614563 -0.751491 0
M  V30 2531 H 240.038 -0.54649 -1.75173 0
M  V30 2532 H 238.42 1.08903 -3.80731 0
M  V30 2533 H 239.594 -1.7323 -4.26999 0
M  V30 2534 H 237.909 -1.41766 -3.91524 0
M  V30 2535 H 240.506 1.02346 -5.24814 0
M  V30 2536 H 240.849 1.83172 -3.73837 0
M  V30 2537 H 241.382 0.149528 -3.97519 0
M  V30 2538 H 238.121 -1.70671 -6.32892 0
M  V30 2539 H 237.641 -0.0264061 -5.99794 0
M  V30 2540 H 239.32 -0.403482 -6.45741 0
M  V30 2541 N 239.452 1.56882 -0.150215 0
M  V30 2542 C 240.7 1.9584 0.499105 0
M  V30 2543 C 241.021 1.03623 1.65188 0
M  V30 2544 O 240.291 0.0984084 1.95653 0
M  V30 2545 H 238.871 0.723119 0.187373 0
M  V30 2546 H 241.533 1.9358 -0.226466 0
M  V30 2547 H 240.629 2.99638 0.873122 0
M  V30 2548 N 240.93 -0.123565 1.57115 0
M  V30 2549 C 242.179 -0.830704 1.83799 0
M  V30 2550 C 242.492 -1.81259 0.735158 0
M  V30 2551 O 243.698 -2.56558 0.888278 0
M  V30 2552 C 242.154 -1.52802 3.25852 0
M  V30 2553 C 241.762 -0.587356 4.44133 0
M  V30 2554 C 243.506 -2.22056 3.61789 0
M  V30 2555 C 241.413 -1.28764 5.77212 0
M  V30 2556 H 240.343 -0.313967 0.685522 0
M  V30 2557 H 242.994 -0.0834359 1.8331 0
M  V30 2558 H 241.376 -2.32175 3.20797 0
M  V30 2559 H 242.55 0.172829 4.60476 0
M  V30 2560 H 240.865 -0.00201892 4.164 0
M  V30 2561 H 243.462 -2.75131 4.58483 0
M  V30 2562 H 243.805 -2.99644 2.88997 0
M  V30 2563 H 244.338 -1.49576 3.68608 0
M  V30 2564 H 241.077 -0.55314 6.53162 0
M  V30 2565 H 240.597 -2.01995 5.64764 0
M  V30 2566 H 242.276 -1.8221 6.20813 0
M  V30 2567 N 242.408 -1.52605 -0.393616 0
M  V30 2568 C 243.654 -1.67672 -1.14079 0
M  V30 2569 C 243.987 -0.413121 -1.89755 0
M  V30 2570 O 243.262 0.588952 -1.85369 0
M  V30 2571 C 243.545 -2.9088 -2.12276 0
M  V30 2572 C 243.398 -4.27329 -1.40394 0
M  V30 2573 C 244.717 -3.09628 -3.12759 0
M  V30 2574 H 241.836 -0.610168 -0.413356 0
M  V30 2575 H 244.478 -1.85193 -0.424696 0
M  V30 2576 H 242.628 -2.76073 -2.73342 0
M  V30 2577 H 244.3 -4.53894 -0.82327 0
M  V30 2578 H 242.543 -4.2802 -0.705801 0
M  V30 2579 H 243.214 -5.09615 -2.12123 0
M  V30 2580 H 245.69 -3.23436 -2.61779 0
M  V30 2581 H 244.566 -3.97322 -3.78717 0
M  V30 2582 H 244.827 -2.23637 -3.81365 0
M  V30 2583 N 243.887 0.651787 -1.4349 0
M  V30 2584 C 245.164 1.40909 -1.35661 0
M  V30 2585 C 245.544 2.11099 -0.00511733 0
M  V30 2586 O 244.892 2.04892 1.0115 0
M  V30 2587 C 245.102 2.3926 -2.54078 0
M  V30 2588 C 246.45 3.03217 -2.97228 0
M  V30 2589 O 247.474 2.49588 -2.54135 0
M  V30 2590 O 246.333 4.00455 -3.71885 0
M  V30 2591 H 243.427 0.629625 -0.536191 0
M  V30 2592 H 245.973 0.678575 -1.55542 0
M  V30 2593 H 244.745 1.86352 -3.44076 0
M  V30 2594 H 244.368 3.1976 -2.36303 0
M  V30 2595 N 245.365 1.30045 0.890287 0
M  V30 2596 C 246.611 1.18737 1.64406 0
M  V30 2597 C 246.944 -0.258525 1.92472 0
M  V30 2598 O 246.219 -1.18562 1.54186 0
M  V30 2599 C 246.502 2.01087 2.98724 0
M  V30 2600 C 246.355 3.53867 2.77665 0
M  V30 2601 C 247.674 1.84457 3.9958 0
M  V30 2602 H 244.793 0.432698 0.596608 0
M  V30 2603 H 247.435 1.5962 1.0306 0
M  V30 2604 H 245.585 1.66349 3.51084 0
M  V30 2605 H 247.257 3.98637 2.32133 0
M  V30 2606 H 245.5 3.78318 2.12269 0
M  V30 2607 H 246.171 4.06772 3.7315 0
M  V30 2608 H 248.647 2.14817 3.56361 0
M  V30 2609 H 247.523 2.44411 4.91482 0
M  V30 2610 H 247.784 0.802276 4.3476 0
M  V30 2611 N 246.843 -1.10192 1.12674 0
M  V30 2612 C 247.806 -2.14786 0.799979 0
M  V30 2613 C 248.806 -1.59711 -0.18685 0
M  V30 2614 O 249.996 -1.74156 0.0392558 0
M  V30 2615 C 247.128 -3.40374 0.189228 0
M  V30 2616 H 248.321 -2.45203 1.72671 0
M  V30 2617 H 245.874 -1.25597 0.930326 0
M  V30 2618 H 246.609 -3.15577 -0.747107 0
M  V30 2619 H 246.394 -3.81637 0.899766 0
M  V30 2620 H 247.884 -4.17594 -0.0228143 0
M  V30 2621 N 248.321 -0.919034 -1.28029 0
M  V30 2622 C 249.268 -0.410005 -2.27129 0
M  V30 2623 C 250.238 0.518405 -1.57803 0
M  V30 2624 O 251.423 0.439451 -1.8567 0
M  V30 2625 C 248.563 0.339054 -3.4343 0
M  V30 2626 C 247.676 -0.622468 -4.27492 0
M  V30 2627 C 246.811 0.145567 -5.31001 0
M  V30 2628 C 245.85 -0.809226 -6.06727 0
M  V30 2629 N 244.987 -0.0743728 -7.02061 0
M  V30 2630 H 249.827 -1.26011 -2.70047 0
M  V30 2631 H 247.364 -0.632663 -1.328 0
M  V30 2632 H 249.322 0.789586 -4.0966 0
M  V30 2633 H 247.952 1.15346 -3.01488 0
M  V30 2634 H 247.004 -1.19153 -3.61257 0
M  V30 2635 H 248.316 -1.35252 -4.80113 0
M  V30 2636 H 247.47 0.656417 -6.03139 0
M  V30 2637 H 246.209 0.908643 -4.79161 0
M  V30 2638 H 245.214 -1.3314 -5.33436 0
M  V30 2639 H 246.439 -1.57194 -6.60656 0
M  V30 2640 H 244.385 0.670616 -6.52563 0
M  V30 2641 H 244.302 -0.744157 -7.52329 0
M  V30 2642 H 245.57 0.416109 -7.78389 0
M  V30 2643 N 249.799 1.42003 -0.683588 0
M  V30 2644 C 251.047 2.01015 -0.209101 0
M  V30 2645 C 251.368 1.54365 1.19149 0
M  V30 2646 O 250.638 0.769083 1.80172 0
M  V30 2647 H 249.218 0.743294 -0.074315 0
M  V30 2648 H 251.88 1.73798 -0.882066 0
M  V30 2649 H 250.976 3.11343 -0.2172 0
M  V30 2650 N 251.277 0.427512 1.51691 0
M  V30 2651 C 252.554 -0.201684 1.94557 0
M  V30 2652 C 252.934 -1.60981 1.36559 0
M  V30 2653 O 252.282 -2.21814 0.548702 0
M  V30 2654 C 252.492 -0.189394 3.48486 0
M  V30 2655 C 253.84 -0.39978 4.22714 0
M  V30 2656 O 254.864 -0.267945 3.55191 0
M  V30 2657 O 253.723 -0.661249 5.42485 0
M  V30 2658 H 250.817 -0.135261 0.815864 0
M  V30 2659 H 253.363 0.484782 1.62628 0
M  V30 2660 H 252.135 0.795431 3.8313 0
M  V30 2661 H 251.758 -0.919187 3.86829 0
M  V30 2662 N 252.755 -1.56801 0.158532 0
M  V30 2663 C 253.985 -2.00568 -0.495583 0
M  V30 2664 C 254.393 -1.03774 -1.58201 0
M  V30 2665 O 253.736 -0.0285797 -1.83678 0
M  V30 2666 C 253.798 -3.40768 -1.14532 0
M  V30 2667 C 253.462 -4.56553 -0.202101 0
M  V30 2668 C 254.459 -5.16714 0.574675 0
M  V30 2669 C 252.144 -5.02197 -0.101648 0
M  V30 2670 C 254.138 -6.20939 1.43924 0
M  V30 2671 C 251.825 -6.06274 0.766508 0
M  V30 2672 C 252.823 -6.65515 1.53555 0
M  V30 2673 O 252.511 -7.67575 2.38922 0
M  V30 2674 H 252.243 -0.662893 -0.13247 0
M  V30 2675 H 254.797 -2.03829 0.253559 0
M  V30 2676 H 253.027 -3.34381 -1.94233 0
M  V30 2677 H 254.716 -3.6857 -1.70033 0
M  V30 2678 H 255.482 -4.82341 0.507167 0
M  V30 2679 H 251.361 -4.55807 -0.689994 0
M  V30 2680 H 254.905 -6.67107 2.03996 0
M  V30 2681 H 250.802 -6.40073 0.835266 0
M  V30 2682 H 251.57 -7.84844 2.32296 0
M  V30 2683 N 254.233 0.115231 -1.57178 0
M  V30 2684 C 255.479 0.82357 -1.85325 0
M  V30 2685 C 255.812 1.79349 -0.744814 0
M  V30 2686 O 255.087 1.92899 0.249024 0
M  V30 2687 C 255.37 1.57014 -3.24066 0
M  V30 2688 C 255.223 0.619565 -4.45513 0
M  V30 2689 C 256.542 2.52545 -3.60429 0
M  V30 2690 H 253.661 0.297948 -0.674089 0
M  V30 2691 H 256.303 0.0877138 -1.89797 0
M  V30 2692 H 254.453 2.19742 -3.20383 0
M  V30 2693 H 256.125 0.000837639 -4.613 0
M  V30 2694 H 254.368 -0.0686174 -4.33746 0
M  V30 2695 H 255.039 1.17866 -5.3927 0
M  V30 2696 H 257.515 1.9992 -3.64926 0
M  V30 2697 H 256.391 3.01811 -4.58477 0
M  V30 2698 H 256.652 3.35383 -2.88047 0
M  V30 2699 N 255.711 1.52812 0.385517 0
M  V30 2700 C 256.621 1.80766 1.49535 0
M  V30 2701 C 257.637 0.694651 1.59532 0
M  V30 2702 O 258.813 0.982611 1.75803 0
M  V30 2703 C 255.878 1.97381 2.85029 0
M  V30 2704 C 254.939 3.21295 2.84724 0
M  V30 2705 C 254.172 3.37108 4.13756 0
M  V30 2706 O 254.395 2.5765 5.08893 0
M  V30 2707 O 253.329 4.30378 4.20783 0
M  V30 2708 H 257.155 2.75015 1.28842 0
M  V30 2709 H 254.74 1.37946 0.573697 0
M  V30 2710 H 256.622 2.09996 3.65349 0
M  V30 2711 H 255.297 1.06322 3.05741 0
M  V30 2712 H 254.204 3.1412 2.03174 0
M  V30 2713 H 255.537 4.12212 2.68965 0
M  V30 2714 N 257.189 -0.644168 1.43834 0
M  V30 2715 C 258.466 -1.40188 1.36406 0
M  V30 2716 C 258.846 -2.11094 0.0163124 0
M  V30 2717 O 258.194 -2.05426 -1.00062 0
M  V30 2718 C 258.404 -2.3791 2.55343 0
M  V30 2719 C 259.752 -3.01637 2.98832 0
M  V30 2720 O 260.776 -2.48237 2.55455 0
M  V30 2721 O 259.635 -3.98477 3.74003 0
M  V30 2722 H 256.729 -0.626773 0.539523 0
M  V30 2723 H 259.275 -0.670317 1.559 0
M  V30 2724 H 258.047 -1.84525 3.4506 0
M  V30 2725 H 257.67 -3.18503 2.37995 0
M  V30 2726 N 258.668 -1.30515 -0.883378 0
M  V30 2727 C 259.914 -1.19607 -1.63774 0
M  V30 2728 C 260.247 0.248314 -1.92606 0
M  V30 2729 O 259.522 1.17742 -1.54813 0
M  V30 2730 C 259.805 -2.02669 -2.97653 0
M  V30 2731 C 259.658 -3.55335 -2.75784 0
M  V30 2732 C 260.977 -1.86573 -3.98596 0
M  V30 2733 H 258.096 -0.435856 -0.594305 0
M  V30 2734 H 260.738 -1.60165 -1.02212 0
M  V30 2735 H 258.888 -1.68208 -3.50197 0
M  V30 2736 H 260.56 -3.99863 -2.30016 0
M  V30 2737 H 258.803 -3.79438 -2.1026 0
M  V30 2738 H 259.474 -4.08745 -3.70988 0
M  V30 2739 H 261.95 -2.16703 -3.55217 0
M  V30 2740 H 260.826 -2.47014 -4.90179 0
M  V30 2741 H 261.087 -0.825321 -4.34328 0
M  V30 2742 N 260.146 1.09593 -1.13257 0
M  V30 2743 C 261.374 1.855 -0.916378 0
M  V30 2744 C 261.789 1.81069 0.534738 0
M  V30 2745 O 261.146 1.20562 1.37007 0
M  V30 2746 C 261.197 3.33546 -1.39388 0
M  V30 2747 O 260.918 3.37927 -2.78813 0
M  V30 2748 C 262.419 4.26299 -1.21588 0
M  V30 2749 H 259.639 0.585991 -0.326887 0
M  V30 2750 H 262.183 1.38488 -1.5047 0
M  V30 2751 H 260.338 3.77992 -0.848597 0
M  V30 2752 H 260.752 4.30254 -2.9997 0
M  V30 2753 H 262.226 5.28341 -1.59876 0
M  V30 2754 H 262.703 4.38918 -0.157376 0
M  V30 2755 H 263.309 3.87668 -1.7491 0
M  V30 2756 N 261.624 0.925811 1.2754 0
M  V30 2757 C 262.587 0.428129 2.25166 0
M  V30 2758 C 263.587 -0.452261 1.54309 0
M  V30 2759 O 264.777 -0.253608 1.72344 0
M  V30 2760 C 261.909 -0.384749 3.38722 0
M  V30 2761 H 263.102 1.29066 2.70706 0
M  V30 2762 H 260.655 0.706323 1.3943 0
M  V30 2763 H 261.39 -1.26618 2.98561 0
M  V30 2764 H 261.175 0.246454 3.91325 0
M  V30 2765 H 262.665 -0.723389 4.11287 0
M  V30 2766 N 263.102 -1.41638 0.69111 0
M  V30 2767 C 264.065 -2.29178 0.0319786 0
M  V30 2768 C 265.065 -1.44153 -0.712496 0
M  V30 2769 O 266.255 -1.65354 -0.548053 0
M  V30 2770 C 263.387 -3.26952 -0.965161 0
M  V30 2771 H 264.58 -2.88959 0.802681 0
M  V30 2772 H 262.133 -1.4955 0.454356 0
M  V30 2773 H 262.868 -2.72142 -1.76378 0
M  V30 2774 H 262.653 -3.89685 -0.434522 0
M  V30 2775 H 264.143 -3.92561 -1.42428 0
M  V30 2776 N 264.58 -0.43555 -1.51462 0
M  V30 2777 C 265.543 0.365137 -2.26273 0
M  V30 2778 C 266.543 0.951227 -1.29647 0
M  V30 2779 O 267.733 0.825958 -1.53374 0
M  V30 2780 C 264.865 1.51645 -3.05314 0
M  V30 2781 H 266.058 -0.290474 -2.9849 0
M  V30 2782 H 263.611 -0.188676 -1.55157 0
M  V30 2783 H 264.346 2.20816 -2.3751 0
M  V30 2784 H 264.131 1.10238 -3.76284 0
M  V30 2785 H 265.621 2.08218 -3.61987 0
M  V30 2786 N 266.058 1.56714 -0.166846 0
M  V30 2787 C 267.306 1.96358 0.478305 0
M  V30 2788 C 267.627 1.0537 1.6408 0
M  V30 2789 O 266.897 0.119154 1.95537 0
M  V30 2790 H 265.477 0.725065 0.179692 0
M  V30 2791 H 268.139 1.93329 -0.246985 0
M  V30 2792 H 267.235 3.00547 0.841292 0
M  V30 2793 N 267.536 -0.106894 1.57237 0
M  V30 2794 C 268.776 -0.818277 1.87306 0
M  V30 2795 C 269.14 -1.76474 0.756371 0
M  V30 2796 O 270.341 -2.5186 0.939155 0
M  V30 2797 C 268.612 -1.53806 3.22612 0
M  V30 2798 S 270.171 -2.28935 3.74345 0
M  V30 2799 H 266.989 -0.272862 0.656557 0
M  V30 2800 H 269.591 -0.075988 1.95352 0
M  V30 2801 H 268.295 -0.834951 4.01817 0
M  V30 2802 H 267.826 -2.32049 3.17674 0
M  V30 2803 H 269.841 -3.54871 3.46815 0
M  V30 2804 N 269.014 -1.53014 -0.377408 0
M  V30 2805 C 270.26 -1.69821 -1.11948 0
M  V30 2806 C 270.615 -0.438581 -1.87335 0
M  V30 2807 O 269.908 0.568094 -1.82984 0
M  V30 2808 C 270.102 -2.87982 -2.11663 0
M  V30 2809 C 269.931 -4.25315 -1.46072 0
M  V30 2810 C 268.701 -4.90354 -1.21986 0
M  V30 2811 C 270.899 -5.06281 -0.904664 0
M  V30 2812 N 268.881 -6.11641 -0.526215 0
M  V30 2813 C 270.252 -6.19069 -0.339726 0
M  V30 2814 C 272.307 -4.91395 -0.8022 0
M  V30 2815 C 271.01 -7.18598 0.317669 0
M  V30 2816 C 273.036 -5.91187 -0.158606 0
M  V30 2817 C 272.398 -7.03289 0.39551 0
M  V30 2818 H 268.497 -0.674785 -0.395207 0
M  V30 2819 H 271.081 -1.90389 -0.407437 0
M  V30 2820 H 269.252 -2.68974 -2.80192 0
M  V30 2821 H 270.984 -2.93669 -2.78461 0
M  V30 2822 H 267.739 -4.49286 -1.49798 0
M  V30 2823 H 268.163 -6.76719 -0.195098 0
M  V30 2824 H 272.805 -4.04925 -1.21639 0
M  V30 2825 H 270.523 -8.04669 0.743836 0
M  V30 2826 H 274.109 -5.81744 -0.0804138 0
M  V30 2827 H 272.989 -7.79183 0.885648 0
M  V30 2828 N 270.492 0.636531 -1.44174 0
M  V30 2829 C 271.717 1.42847 -1.50364 0
M  V30 2830 C 272.142 1.87665 -0.127867 0
M  V30 2831 O 271.5 1.58408 0.88185 0
M  V30 2832 C 271.548 2.62854 -2.4686 0
M  V30 2833 O 270.652 3.62501 -1.9664 0
M  V30 2834 H 269.993 0.427642 -0.507955 0
M  V30 2835 H 272.523 0.777422 -1.89255 0
M  V30 2836 H 272.533 3.10465 -2.64718 0
M  V30 2837 H 271.208 2.29578 -3.46795 0
M  V30 2838 H 269.785 3.21735 -1.88523 0
M  V30 2839 N 271.97 1.30982 0.876444 0
M  V30 2840 C 273.216 1.20474 1.63138 0
M  V30 2841 C 273.549 -0.238096 1.92735 0
M  V30 2842 O 272.824 -1.1692 1.55435 0
M  V30 2843 C 273.107 2.04244 2.96574 0
M  V30 2844 C 272.96 3.56793 2.73896 0
M  V30 2845 C 274.279 1.88684 3.97601 0
M  V30 2846 H 271.398 0.439001 0.591985 0
M  V30 2847 H 274.04 1.60704 1.01361 0
M  V30 2848 H 272.19 1.70063 3.493 0
M  V30 2849 H 273.862 4.01077 2.27892 0
M  V30 2850 H 272.105 3.80548 2.08245 0
M  V30 2851 H 272.776 4.10706 3.68815 0
M  V30 2852 H 275.252 2.18584 3.54062 0
M  V30 2853 H 274.128 2.4961 4.88862 0
M  V30 2854 H 274.389 0.848343 4.33884 0
M  V30 2855 N 273.449 -1.08991 1.13837 0
M  V30 2856 C 274.698 -1.80631 0.897509 0
M  V30 2857 C 275.011 -1.86872 -0.57777 0
M  V30 2858 O 276.217 -2.54866 -0.935701 0
M  V30 2859 C 274.673 -3.24517 1.55618 0
M  V30 2860 C 274.281 -3.26529 3.0673 0
M  V30 2861 C 276.025 -4.00882 1.3962 0
M  V30 2862 C 273.932 -4.64965 3.65461 0
M  V30 2863 H 272.862 -0.67691 0.332129 0
M  V30 2864 H 275.513 -1.2246 1.3666 0
M  V30 2865 H 273.895 -3.82778 1.01476 0
M  V30 2866 H 275.069 -2.78008 3.67489 0
M  V30 2867 H 273.384 -2.63656 3.22296 0
M  V30 2868 H 275.981 -5.03167 1.80906 0
M  V30 2869 H 276.324 -4.14896 0.341578 0
M  V30 2870 H 276.857 -3.49075 1.90766 0
M  V30 2871 H 273.596 -4.56153 4.70749 0
M  V30 2872 H 273.116 -5.13792 3.09481 0
M  V30 2873 H 274.795 -5.3394 3.654 0
M  V30 2874 N 274.927 -0.932562 -1.27047 0
M  V30 2875 C 276.338 -0.619451 -1.76124 0
M  V30 2876 C 276.689 0.865397 -1.76083 0
M  V30 2877 O 275.814 1.67722 -1.36742 0
M  V30 2878 C 276.409 -1.11771 -3.19832 0
M  V30 2879 C 274.968 -0.855174 -3.66557 0
M  V30 2880 C 274.115 -1.27362 -2.46321 0
M  V30 2881 H 277.066 -1.11181 -1.13245 0
M  V30 2882 H 277.087 -0.46759 -3.77616 0
M  V30 2883 H 276.599 -2.19842 -3.1983 0
M  V30 2884 H 274.7 0.211524 -3.71999 0
M  V30 2885 H 274.813 -1.47613 -4.55793 0
M  V30 2886 H 273.177 -0.692119 -2.45116 0
M  V30 2887 H 273.96 -2.36307 -2.49025 0
M  V30 2888 N 276.405 1.4127 -0.698611 0
M  V30 2889 C 277.337 2.292 0.00399731 0
M  V30 2890 C 278.35 1.44944 0.741279 0
M  V30 2891 O 279.539 1.68416 0.591477 0
M  V30 2892 C 276.639 3.22875 1.02979 0
M  V30 2893 C 275.812 4.35904 0.36151 0
M  V30 2894 C 274.871 5.10134 1.29033 0
M  V30 2895 O 273.897 5.63809 0.781562 0
M  V30 2896 N 275.099 5.17885 2.6225 0
M  V30 2897 H 277.864 2.9014 -0.750921 0
M  V30 2898 H 275.425 1.52455 -0.544882 0
M  V30 2899 H 277.417 3.69404 1.65296 0
M  V30 2900 H 275.987 2.63221 1.68622 0
M  V30 2901 H 275.207 3.91719 -0.441584 0
M  V30 2902 H 276.495 5.08696 -0.103055 0
M  V30 2903 H 275.893 4.7573 3.061 0
M  V30 2904 H 274.45 5.6798 3.19754 0
M  V30 2905 N 277.883 0.443576 1.51229 0
M  V30 2906 C 279.294 -0.0180867 1.86691 0
M  V30 2907 C 279.645 -1.41384 1.36033 0
M  V30 2908 O 278.77 -2.04291 0.713722 0
M  V30 2909 C 279.365 -0.039597 3.38777 0
M  V30 2910 C 277.924 -0.445692 3.73752 0
M  V30 2911 C 277.071 0.357584 2.74985 0
M  V30 2912 H 280.022 0.659138 1.44364 0
M  V30 2913 H 280.043 -0.847761 3.70936 0
M  V30 2914 H 279.555 0.976382 3.75617 0
M  V30 2915 H 277.656 -1.46704 3.42503 0
M  V30 2916 H 277.769 -0.166155 4.78812 0
M  V30 2917 H 276.133 -0.184973 2.54027 0
M  V30 2918 H 276.916 1.37256 3.14668 0
M  V30 2919 N 279.361 -1.56624 0.175154 0
M  V30 2920 C 280.309 -2.19468 -0.770495 0
M  V30 2921 C 281.303 -1.15985 -1.23466 0
M  V30 2922 O 282.509 -1.34176 -1.19987 0
M  V30 2923 H 278.884 -0.703095 -0.266761 0
M  V30 2924 H 280.855 -2.97613 -0.216542 0
M  V30 2925 C 279.604 -2.85264 -1.98796 0
M  V30 2926 H 278.927 -3.64623 -1.63983 0
M  V30 2927 H 280.367 -3.327 -2.62843 0
M  V30 2928 C 278.826 -1.85239 -2.81404 0
M  V30 2929 O 279.356 -1.34024 -3.78682 0
M  V30 2930 N 277.562 -1.53911 -2.46495 0
M  V30 2931 H 277.109 -1.95751 -1.67449 0
M  V30 2932 H 277.067 -0.872382 -3.02054 0
M  V30 2933 N 280.839 0.0985539 -1.57292 0
M  V30 2934 C 282.255 0.45267 -1.53046 0
M  V30 2935 C 282.455 1.80713 -0.891342 0
M  V30 2936 O 281.511 2.4785 -0.482375 0
M  V30 2937 C 282.824 0.418341 -2.97776 0
M  V30 2938 C 284.372 0.500443 -3.08973 0
M  V30 2939 C 284.847 0.496297 -4.55303 0
M  V30 2940 N 286.338 0.557151 -4.59837 0
M  V30 2941 C 287.073 0.575726 -5.70502 0
M  V30 2942 N 286.569 0.550714 -6.90608 0
M  V30 2943 N 288.362 0.620277 -5.58667 0
M  V30 2944 H 280.513 -0.788673 -1.97215 0
M  V30 2945 H 282.776 -0.293188 -0.901524 0
M  V30 2946 H 282.482 -0.509659 -3.47988 0
M  V30 2947 H 282.356 1.2386 -3.56284 0
M  V30 2948 H 284.743 1.41886 -2.58751 0
M  V30 2949 H 284.824 -0.347894 -2.53423 0
M  V30 2950 H 284.468 -0.418162 -5.06176 0
M  V30 2951 H 284.398 1.3618 -5.08687 0
M  V30 2952 H 286.889 0.581816 -3.73394 0
M  V30 2953 H 287.202 0.568075 -7.70709 0
M  V30 2954 H 285.547 0.517816 -6.93068 0
M  V30 2955 H 288.738 0.637322 -4.63741 0
M  V30 2956 H 288.911 0.631283 -6.44918 0
M  V30 2957 N 282.317 1.53212 0.369288 0
M  V30 2958 C 283.728 1.60943 0.946276 0
M  V30 2959 C 284.079 0.47452 1.90375 0
M  V30 2960 O 283.204 -0.399597 2.12679 0
M  V30 2961 C 283.799 2.91715 1.72302 0
M  V30 2962 C 282.358 3.01792 2.24941 0
M  V30 2963 C 281.505 2.56211 1.06072 0
M  V30 2964 H 284.456 1.58007 0.148198 0
M  V30 2965 H 284.477 2.79309 2.58393 0
M  V30 2966 H 283.989 3.74295 1.0259 0
M  V30 2967 H 282.09 2.23791 2.97906 0
M  V30 2968 H 282.203 4.06803 2.53077 0
M  V30 2969 H 280.567 2.10998 1.4266 0
M  V30 2970 H 281.35 3.41206 0.378639 0
M  V30 2971 N 283.795 -0.628877 1.44509 0
M  V30 2972 C 285.211 -0.947305 1.28446 0
M  V30 2973 C 285.411 -2.00275 0.221872 0
M  V30 2974 O 284.467 -2.49447 -0.391471 0
M  V30 2975 C 285.78 -1.40843 2.65676 0
M  V30 2976 C 287.328 -1.52379 2.73404 0
M  V30 2977 C 287.803 -2.01875 4.11109 0
M  V30 2978 N 289.294 -2.09142 4.13296 0
M  V30 2979 C 290.029 -2.48615 5.16699 0
M  V30 2980 N 289.525 -2.87209 6.30462 0
M  V30 2981 N 291.318 -2.48768 5.04054 0
M  V30 2982 H 283.469 0.0690977 2.12288 0
M  V30 2983 H 285.732 -0.0317164 0.947469 0
M  V30 2984 H 285.438 -0.707206 3.44516 0
M  V30 2985 H 285.312 -2.37902 2.92716 0
M  V30 2986 H 287.699 -2.21598 1.9488 0
M  V30 2987 H 287.78 -0.536898 2.50102 0
M  V30 2988 H 287.424 -1.3325 4.90109 0
M  V30 2989 H 287.354 -3.0144 4.31789 0
M  V30 2990 H 289.845 -1.81991 3.31191 0
M  V30 2991 H 290.158 -3.16149 7.05174 0
M  V30 2992 H 288.503 -2.84955 6.33897 0
M  V30 2993 H 291.694 -2.18009 4.14234 0
M  V30 2994 H 291.867 -2.79207 5.84763 0
M  V30 2995 N 285.273 -1.31445 -0.869486 0
M  V30 2996 C 286.498 -1.24256 -1.66058 0
M  V30 2997 C 286.923 0.188928 -1.87149 0
M  V30 2998 O 286.281 1.13522 -1.4136 0
M  V30 2999 C 286.329 -1.9924 -3.00559 0
M  V30 3000 O 285.433 -1.33007 -3.90362 0
M  V30 3001 H 284.774 -0.428973 -0.506831 0
M  V30 3002 H 287.304 -1.73521 -1.08404 0
M  V30 3003 H 287.314 -2.08854 -3.50491 0
M  V30 3004 H 285.989 -3.03342 -2.84528 0
M  V30 3005 H 284.566 -1.31848 -3.48813 0
M  V30 3006 N 286.751 1.08385 -1.14413 0
M  V30 3007 C 287.998 1.80776 -0.912482 0
M  V30 3008 C 288.326 1.86236 0.560934 0
M  V30 3009 O 287.581 1.33431 1.43159 0
M  V30 3010 C 287.88 3.26273 -1.45879 0
M  V30 3011 C 287.546 3.4093 -2.95089 0
M  V30 3012 C 286.208 3.44638 -3.35824 0
M  V30 3013 C 288.56 3.44591 -3.91033 0
M  V30 3014 C 285.888 3.49597 -4.71167 0
M  V30 3015 C 288.24 3.51086 -5.26233 0
M  V30 3016 C 286.904 3.53067 -5.6648 0
M  V30 3017 H 286.174 0.661507 -0.333901 0
M  V30 3018 H 288.821 1.27613 -1.42784 0
M  V30 3019 H 287.126 3.82146 -0.864376 0
M  V30 3020 H 288.823 3.80839 -1.2555 0
M  V30 3021 H 285.413 3.38736 -2.62594 0
M  V30 3022 H 289.597 3.40957 -3.60641 0
M  V30 3023 H 284.853 3.49424 -5.0171 0
M  V30 3024 H 289.027 3.52864 -6.00383 0
M  V30 3025 H 286.654 3.56662 -6.71339 0
M  V30 3026 N 288.23 0.939286 1.26551 0
M  V30 3027 C 289.163 0.391702 2.24813 0
M  V30 3028 C 290.141 -0.518421 1.54114 0
M  V30 3029 O 291.325 -0.456299 1.82894 0
M  V30 3030 C 288.452 -0.437382 3.35864 0
M  V30 3031 C 287.498 0.410946 4.24516 0
M  V30 3032 S 288.331 1.83372 5.03125 0
M  V30 3033 C 289.487 1.01264 6.17654 0
M  V30 3034 H 289.72 1.22448 2.70913 0
M  V30 3035 H 287.253 0.742269 1.35387 0
M  V30 3036 H 289.211 -0.909837 4.0029 0
M  V30 3037 H 287.872 -1.24482 2.8838 0
M  V30 3038 H 287.065 -0.224191 5.03501 0
M  V30 3039 H 286.667 0.818014 3.64945 0
M  V30 3040 H 288.959 0.254023 6.77024 0
M  V30 3041 H 289.902 1.77589 6.85469 0
M  V30 3042 H 290.31 0.549532 5.61819 0
M  V30 3043 N 289.708 -1.40897 0.706093 0
M  V30 3044 C 290.936 -2.05373 0.250887 0
M  V30 3045 C 291.351 -1.53172 -1.10381 0
M  V30 3046 O 290.708 -0.684305 -1.69185 0
M  V30 3047 C 290.759 -3.6088 0.211571 0
M  V30 3048 O 290.48 -4.11153 1.51276 0
M  V30 3049 C 291.981 -4.42517 -0.263346 0
M  V30 3050 H 289.201 -0.66115 0.114552 0
M  V30 3051 H 291.745 -1.80479 0.961635 0
M  V30 3052 H 289.9 -3.84777 -0.450073 0
M  V30 3053 H 290.314 -5.05279 1.40689 0
M  V30 3054 H 291.788 -5.51479 -0.239718 0
M  V30 3055 H 292.265 -4.19396 -1.30397 0
M  V30 3056 H 292.871 -4.23708 0.367677 0
M  V30 3057 N 291.186 -0.45159 -1.50991 0
M  V30 3058 C 292.435 0.111653 -2.01391 0
M  V30 3059 C 292.748 1.42529 -1.33959 0
M  V30 3060 O 293.954 2.07232 -1.75405 0
M  V30 3061 C 292.41 0.249514 -3.59034 0
M  V30 3062 C 292.018 -1.05453 -4.35412 0
M  V30 3063 C 293.762 0.765762 -4.17536 0
M  V30 3064 C 291.669 -0.881529 -5.84793 0
M  V30 3065 H 290.599 0.0455022 -0.752626 0
M  V30 3066 H 293.25 -0.583524 -1.73975 0
M  V30 3067 H 291.632 1.00803 -3.82955 0
M  V30 3068 H 292.806 -1.82248 -4.23229 0
M  V30 3069 H 291.121 -1.50039 -3.88429 0
M  V30 3070 H 293.718 0.911913 -5.26866 0
M  V30 3071 H 294.061 1.75201 -3.77638 0
M  V30 3072 H 294.594 0.0651744 -3.97747 0
M  V30 3073 H 291.333 -1.84057 -6.29129 0
M  V30 3074 H 290.853 -0.153625 -5.99603 0
M  V30 3075 H 292.532 -0.540363 -6.4474 0
M  V30 3076 N 292.664 1.56529 -0.183458 0
M  V30 3077 C 293.904 1.99141 0.460667 0
M  V30 3078 C 294.268 1.06736 1.59597 0
M  V30 3079 O 295.469 1.38538 2.30349 0
M  V30 3080 C 293.74 3.45358 0.919939 0
M  V30 3081 S 295.299 4.09999 1.56354 0
M  V30 3082 H 292.117 0.695479 0.147748 0
M  V30 3083 H 294.719 1.93429 -0.283782 0
M  V30 3084 H 293.423 4.10315 0.0834208 0
M  V30 3085 H 292.954 3.54862 1.69814 0
M  V30 3086 H 294.969 4.06046 2.85203 0
M  V30 3087 N 294.142 -0.090211 1.57342 0
M  V30 3088 C 295.39 -0.791241 1.85967 0
M  V30 3089 C 295.711 -1.7903 0.772859 0
M  V30 3090 O 294.981 -1.94872 -0.200398 0
M  V30 3091 H 293.561 -0.295205 0.686195 0
M  V30 3092 H 296.223 -0.0706782 1.94772 0
M  V30 3093 H 295.319 -1.31882 2.82867 0
M  V30 3094 N 295.62 -1.53406 -0.361157 0
M  V30 3095 C 296.897 -1.60411 -1.11927 0
M  V30 3096 C 297.277 -0.414385 -2.06993 0
M  V30 3097 O 296.625 0.594976 -2.20618 0
M  V30 3098 C 296.835 -2.95652 -1.85448 0
M  V30 3099 C 298.183 -3.50386 -2.39823 0
M  V30 3100 O 299.207 -2.97711 -1.95568 0
M  V30 3101 O 298.066 -4.42482 -3.20737 0
M  V30 3102 H 295.16 -0.64811 -0.513695 0
M  V30 3103 H 297.706 -1.65749 -0.364065 0
M  V30 3104 H 296.478 -3.73682 -1.16091 0
M  V30 3105 H 296.101 -2.93825 -2.67866 0
M  V30 3106 N 297.098 0.621204 -1.44841 0
M  V30 3107 C 298.346 1.37783 -1.47852 0
M  V30 3108 C 298.667 1.94653 -0.116224 0
M  V30 3109 O 297.937 1.76367 0.852737 0
M  V30 3110 H 296.517 0.511453 -0.544449 0
M  V30 3111 H 299.179 0.730446 -1.80694 0
M  V30 3112 H 298.275 2.20414 -2.20961 0
M  V30 3113 N 298.576 1.31904 0.862503 0
M  V30 3114 C 299.824 1.21776 1.61292 0
M  V30 3115 C 300.145 -0.222413 1.93727 0
M  V30 3116 O 299.415 -1.1451 1.58947 0
M  V30 3117 H 297.995 0.447717 0.597962 0
M  V30 3118 H 300.657 1.65326 1.03215 0
M  V30 3119 H 299.753 1.7948 2.5533 0
M  V30 3120 N 300.054 -1.07777 1.14986 0
M  V30 3121 C 300.984 -2.16865 0.865557 0
M  V30 3122 C 301.965 -1.69123 -0.182083 0
M  V30 3123 O 303.15 -1.94164 -0.0373815 0
M  V30 3124 C 300.28 -3.45539 0.349313 0
M  V30 3125 C 299.234 -4.06708 1.33313 0
M  V30 3126 C 298.56 -5.30411 0.675918 0
M  V30 3127 C 299.86 -4.47241 2.69764 0
M  V30 3128 H 301.554 -2.40905 1.77778 0
M  V30 3129 H 299.1 -1.15781 0.856203 0
M  V30 3130 H 301.053 -4.21174 0.137983 0
M  V30 3131 H 299.777 -3.21072 -0.598362 0
M  V30 3132 H 298.436 -3.33112 1.53075 0
M  V30 3133 H 298.084 -5.02232 -0.277767 0
M  V30 3134 H 297.784 -5.72293 1.33244 0
M  V30 3135 H 299.308 -6.08755 0.474262 0
M  V30 3136 H 300.722 -5.14025 2.53873 0
M  V30 3137 H 299.119 -5.00062 3.3175 0
M  V30 3138 H 300.189 -3.58818 3.26156 0
M  V30 3139 N 301.532 -0.945985 -1.26051 0
M  V30 3140 C 302.462 -0.477172 -2.28572 0
M  V30 3141 C 303.443 0.472032 -1.63419 0
M  V30 3142 O 304.628 0.372853 -1.90587 0
M  V30 3143 C 301.758 0.253975 -3.4637 0
M  V30 3144 C 300.712 -0.609135 -4.23643 0
M  V30 3145 C 300.038 0.252252 -5.34105 0
M  V30 3146 C 301.338 -1.8829 -4.8718 0
M  V30 3147 H 303.032 -1.33402 -2.68038 0
M  V30 3148 H 300.578 -0.642904 -1.28852 0
M  V30 3149 H 302.531 0.593016 -4.17207 0
M  V30 3150 H 301.255 1.145 -3.05871 0
M  V30 3151 H 299.914 -0.931138 -3.54578 0
M  V30 3152 H 299.562 1.14278 -4.89846 0
M  V30 3153 H 299.262 -0.32188 -5.86718 0
M  V30 3154 H 300.786 0.586454 -6.07777 0
M  V30 3155 H 302.2 -1.61081 -5.50205 0
M  V30 3156 H 300.597 -2.40199 -5.49931 0
M  V30 3157 H 301.667 -2.59134 -4.09851 0
M  V30 3158 N 303.011 1.40521 -0.713556 0
M  V30 3159 C 304.239 2.05237 -0.261775 0
M  V30 3160 C 304.654 1.53755 1.09567 0
M  V30 3161 O 304.011 0.693268 1.6882 0
M  V30 3162 C 304.062 3.60763 -0.230706 0
M  V30 3163 O 303.783 4.10345 -1.53455 0
M  V30 3164 C 305.284 4.42651 0.239874 0
M  V30 3165 H 302.504 0.660533 -0.118057 0
M  V30 3166 H 305.048 1.79967 -0.971192 0
M  V30 3167 H 303.203 3.8501 0.429661 0
M  V30 3168 H 303.617 5.04526 -1.43366 0
M  V30 3169 H 305.091 5.51599 0.210468 0
M  V30 3170 H 305.568 4.20082 1.28171 0
M  V30 3171 H 306.174 4.23507 -0.390142 0
M  V30 3172 N 304.489 0.459591 1.5075 0
M  V30 3173 C 305.738 -0.100971 2.01447 0
M  V30 3174 C 306.051 -1.41816 1.34713 0
M  V30 3175 O 307.257 -2.06299 1.76502 0
M  V30 3176 C 305.713 -0.23047 3.59161 0
M  V30 3177 C 305.321 1.0776 4.34847 0
M  V30 3178 C 307.065 -0.743608 4.17936 0
M  V30 3179 C 304.972 0.91253 5.84317 0
M  V30 3180 H 303.902 -0.0415102 0.752856 0
M  V30 3181 H 306.553 0.592742 1.73663 0
M  V30 3182 H 304.935 -0.987703 3.83485 0
M  V30 3183 H 306.109 1.8449 4.22256 0
M  V30 3184 H 304.424 1.52097 3.87628 0
M  V30 3185 H 307.021 -0.883959 5.27343 0
M  V30 3186 H 307.364 -1.73196 3.78562 0
M  V30 3187 H 307.897 -0.04408 3.97776 0
M  V30 3188 H 304.636 1.87391 6.28144 0
M  V30 3189 H 304.156 0.185422 5.99513 0
M  V30 3190 H 305.835 0.574547 6.44444 0
M  V30 3191 N 305.967 -1.56429 0.191757 0
M  V30 3192 C 306.915 -2.20273 -0.747174 0
M  V30 3193 C 307.909 -1.17288 -1.22229 0
M  V30 3194 O 309.115 -1.35441 -1.18557 0
M  V30 3195 H 305.49 -0.705885 -0.259289 0
M  V30 3196 H 307.461 -2.97826 -0.184963 0
M  V30 3197 C 306.21 -2.87356 -1.95759 0
M  V30 3198 H 305.533 -3.66341 -1.60106 0
M  V30 3199 H 306.973 -3.3547 -2.59299 0
M  V30 3200 C 305.432 -1.88213 -2.79423 0
M  V30 3201 O 305.962 -1.38033 -3.7724 0
M  V30 3202 N 304.168 -1.56516 -2.44849 0
M  V30 3203 H 303.715 -1.97516 -1.65364 0
M  V30 3204 H 303.673 -0.904369 -3.01112 0
M  V30 3205 N 307.445 0.0818655 -1.57387 0
M  V30 3206 C 308.375 1.09885 -2.06028 0
M  V30 3207 C 309.356 1.4098 -0.951774 0
M  V30 3208 O 310.541 1.50781 -1.22387 0
M  V30 3209 C 307.671 2.4151 -2.4958 0
M  V30 3210 C 306.625 2.24792 -3.64215 0
M  V30 3211 C 305.951 3.61712 -3.93787 0
M  V30 3212 C 307.251 1.67749 -4.94629 0
M  V30 3213 H 308.945 0.694128 -2.91243 0
M  V30 3214 H 306.491 0.332448 -1.4011 0
M  V30 3215 H 308.444 3.12939 -2.82219 0
M  V30 3216 H 307.168 2.83943 -1.61381 0
M  V30 3217 H 305.827 1.55807 -3.31843 0
M  V30 3218 H 305.475 4.01697 -3.02735 0
M  V30 3219 H 305.175 3.51368 -4.70971 0
M  V30 3220 H 306.699 4.34587 -4.28913 0
M  V30 3221 H 308.113 2.29032 -5.25564 0
M  V30 3222 H 306.51 1.68128 -5.76067 0
M  V30 3223 H 307.58 0.638059 -4.80684 0
M  V30 3224 N 308.923 1.53595 0.353017 0
M  V30 3225 C 310.171 1.70049 1.09215 0
M  V30 3226 C 310.492 0.461406 1.89463 0
M  V30 3227 O 309.762 -0.524633 1.88744 0
M  V30 3228 H 308.342 0.626912 0.40619 0
M  V30 3229 H 311.004 1.90822 0.396585 0
M  V30 3230 H 310.1 2.56718 1.77488 0
M  V30 3231 N 310.401 -0.613514 1.45168 0
M  V30 3232 C 311.311 -1.75296 1.55912 0
M  V30 3233 C 312.327 -1.68244 0.443856 0
M  V30 3234 O 313.503 -1.88706 0.70371 0
M  V30 3235 C 310.568 -3.1174 1.5172 0
M  V30 3236 C 309.629 -3.30291 2.74238 0
M  V30 3237 C 308.862 -4.60226 2.70236 0
M  V30 3238 O 309.085 -5.42168 1.77229 0
M  V30 3239 O 308.019 -4.81361 3.61352 0
M  V30 3240 H 311.845 -1.69183 2.52212 0
M  V30 3241 H 309.43 -0.776886 1.27612 0
M  V30 3242 H 311.312 -3.93044 1.51968 0
M  V30 3243 H 309.987 -3.18357 0.585697 0
M  V30 3244 H 308.894 -2.48598 2.79553 0
M  V30 3245 H 310.227 -3.28547 3.66494 0
M  V30 3246 N 311.879 -1.3236 -0.855495 0
M  V30 3247 C 313.156 -1.13491 -1.59309 0
M  V30 3248 C 313.536 0.30503 -2.08885 0
M  V30 3249 O 312.884 1.30151 -1.87811 0
M  V30 3250 C 313.094 -2.16176 -2.73987 0
M  V30 3251 C 314.442 -2.49463 -3.43589 0
M  V30 3252 O 315.466 -2.14715 -2.84211 0
M  V30 3253 O 314.325 -3.09027 -4.50738 0
M  V30 3254 H 311.419 -0.437887 -0.701559 0
M  V30 3255 H 313.965 -1.43887 -0.899696 0
M  V30 3256 H 312.737 -3.1297 -2.34873 0
M  V30 3257 H 312.36 -1.86769 -3.51003 0
M  V30 3258 N 313.357 1.07166 -1.15556 0
M  V30 3259 C 314.605 1.79443 -0.929764 0
M  V30 3260 C 314.926 1.87246 0.544414 0
M  V30 3261 O 314.196 1.37473 1.39564 0
M  V30 3262 H 312.776 0.664625 -0.341003 0
M  V30 3263 H 315.438 1.29499 -1.45657 0
M  V30 3264 H 314.534 2.81832 -1.34079 0
M  V30 3265 N 314.835 0.952656 1.25548 0
M  V30 3266 C 315.782 0.47008 2.25962 0
M  V30 3267 C 316.752 -0.476384 1.59122 0
M  V30 3268 O 317.937 -0.39007 1.8677 0
M  V30 3269 C 315.077 -0.247881 3.44209 0
M  V30 3270 C 314.19 0.735591 4.25691 0
M  V30 3271 C 313.325 -0.0047306 5.312 0
M  V30 3272 C 312.364 0.969805 6.04368 0
M  V30 3273 N 311.501 0.260486 7.01617 0
M  V30 3274 H 316.341 1.33126 2.66611 0
M  V30 3275 H 313.878 0.66765 1.31076 0
M  V30 3276 H 315.836 -0.680695 4.1161 0
M  V30 3277 H 314.466 -1.07312 3.0444 0
M  V30 3278 H 313.518 1.28689 3.57971 0
M  V30 3279 H 314.83 1.47934 4.76358 0
M  V30 3280 H 313.984 -0.496275 6.04667 0
M  V30 3281 H 312.723 -0.781282 4.81401 0
M  V30 3282 H 311.728 1.47237 5.29718 0
M  V30 3283 H 312.953 1.74655 6.56256 0
M  V30 3284 H 310.899 -0.497364 6.54112 0
M  V30 3285 H 310.816 0.943362 7.50091 0
M  V30 3286 H 312.084 -0.209587 7.79218 0
M  V30 3287 N 316.313 -1.40141 0.720998 0
M  V30 3288 C 317.559 -2.01084 0.263231 0
M  V30 3289 C 317.892 -1.57052 -1.14229 0
M  V30 3290 O 317.167 -0.793027 -1.77599 0
M  V30 3291 C 317.45 -3.58401 0.349344 0
M  V30 3292 C 317.303 -4.12491 1.79363 0
M  V30 3293 C 318.622 -4.39231 -0.276351 0
M  V30 3294 H 315.741 -0.730572 0.0971228 0
M  V30 3295 H 318.383 -1.66543 0.914518 0
M  V30 3296 H 316.533 -3.87958 -0.205165 0
M  V30 3297 H 318.205 -3.93711 2.40394 0
M  V30 3298 H 316.448 -3.66576 2.31958 0
M  V30 3299 H 317.119 -5.21646 1.80524 0
M  V30 3300 H 319.595 -4.15637 0.196184 0
M  V30 3301 H 318.471 -5.48586 -0.185681 0
M  V30 3302 H 318.732 -4.20643 -1.36059 0
M  V30 3303 N 317.792 -0.46758 -1.50504 0
M  V30 3304 C 318.755 0.317059 -2.26996 0
M  V30 3305 C 319.755 0.923513 -1.31635 0
M  V30 3306 O 320.945 0.793239 -1.55091 0
M  V30 3307 C 318.077 1.45134 -3.08462 0
M  V30 3308 H 319.27 -0.353723 -2.97807 0
M  V30 3309 H 316.823 -0.221545 -1.54722 0
M  V30 3310 H 317.558 2.15728 -2.4214 0
M  V30 3311 H 317.343 1.02232 -3.78538 0
M  V30 3312 H 318.833 2.00493 -3.66323 0
M  V30 3313 N 319.27 1.56325 -0.20005 0
M  V30 3314 C 320.495 2.02548 0.44597 0
M  V30 3315 C 320.92 1.07922 1.5406 0
M  V30 3316 O 320.278 0.0635775 1.81188 0
M  V30 3317 C 320.326 3.47175 0.974761 0
M  V30 3318 O 319.43 3.55671 2.08739 0
M  V30 3319 H 318.771 0.655862 0.103638 0
M  V30 3320 H 321.301 2.02201 -0.312381 0
M  V30 3321 H 321.311 3.87067 1.2901 0
M  V30 3322 H 319.986 4.15538 0.17347 0
M  V30 3323 H 318.563 3.27657 1.78032 0
M  V30 3324 N 320.748 -0.0735177 1.57428 0
M  V30 3325 C 321.68 -1.11423 2.00294 0
M  V30 3326 C 322.693 -1.35084 0.908637 0
M  V30 3327 O 323.882 -1.33355 1.18654 0
M  V30 3328 C 320.982 -2.46548 2.32523 0
M  V30 3329 C 320.155 -2.42867 3.63778 0
M  V30 3330 C 319.214 -3.60087 3.83697 0
M  V30 3331 O 318.24 -3.41595 4.55304 0
M  V30 3332 N 319.442 -4.80372 3.25919 0
M  V30 3333 H 322.207 -0.749206 2.90184 0
M  V30 3334 H 319.768 -0.262195 1.59763 0
M  V30 3335 H 321.76 -3.23607 2.43024 0
M  V30 3336 H 320.33 -2.75059 1.48531 0
M  V30 3337 H 319.55 -1.51206 3.64047 0
M  V30 3338 H 320.838 -2.37506 4.49965 0
M  V30 3339 H 320.236 -4.983 2.67795 0
M  V30 3340 H 318.793 -5.54948 3.41871 0
M  V30 3341 N 322.226 -1.5378 -0.344866 0
M  V30 3342 C 323.451 -1.75211 -1.10977 0
M  V30 3343 C 323.876 -0.48936 -1.81623 0
M  V30 3344 O 323.234 0.557925 -1.72502 0
M  V30 3345 C 323.282 -2.93147 -2.09993 0
M  V30 3346 O 322.386 -2.63203 -3.17487 0
M  V30 3347 H 321.727 -0.581241 -0.321021 0
M  V30 3348 H 324.257 -2.00738 -0.395661 0
M  V30 3349 H 324.267 -3.19898 -2.53237 0
M  V30 3350 H 322.942 -3.84731 -1.5797 0
M  V30 3351 H 321.519 -2.47336 -2.79069 0
M  V30 3352 N 323.704 0.605807 -1.45491 0
M  V30 3353 C 325.12 0.926751 -1.29936 0
M  V30 3354 C 325.32 1.99896 -0.253706 0
M  V30 3355 O 324.376 2.50038 0.351737 0
M  V30 3356 C 325.689 1.36599 -2.67883 0
M  V30 3357 C 327.237 1.4801 -2.75793 0
M  V30 3358 C 327.712 1.95309 -4.14268 0
M  V30 3359 N 329.203 2.0254 -4.16571 0
M  V30 3360 C 329.938 2.40363 -5.20589 0
M  V30 3361 N 329.434 2.77143 -6.34952 0
M  V30 3362 N 331.227 2.40718 -5.07948 0
M  V30 3363 H 323.378 -0.102862 -2.12151 0
M  V30 3364 H 325.641 0.016639 -0.947854 0
M  V30 3365 H 325.347 0.652306 -3.45598 0
M  V30 3366 H 325.221 2.33215 -2.96463 0
M  V30 3367 H 327.608 2.1847 -1.98381 0
M  V30 3368 H 327.689 0.497041 -2.50925 0
M  V30 3369 H 327.333 1.25436 -4.92167 0
M  V30 3370 H 327.263 2.94532 -4.3653 0
M  V30 3371 H 329.754 1.76699 -3.34045 0
M  V30 3372 H 330.067 3.0489 -7.10114 0
M  V30 3373 H 328.412 2.74834 -6.3835 0
M  V30 3374 H 331.603 2.11392 -4.1765 0
M  V30 3375 H 331.776 2.69869 -5.89131 0
M  V30 3376 N 325.182 1.32811 0.848464 0
M  V30 3377 C 326.407 1.26882 1.6406 0
M  V30 3378 C 326.832 -0.15913 1.87426 0
M  V30 3379 O 326.19 -1.11258 1.43148 0
M  V30 3380 C 326.238 2.03997 2.97351 0
M  V30 3381 O 325.342 1.39201 3.88197 0
M  V30 3382 H 324.683 0.436982 0.499943 0
M  V30 3383 H 327.213 1.75224 1.0563 0
M  V30 3384 H 327.223 2.14403 3.47124 0
M  V30 3385 H 325.898 3.0783 2.79666 0
M  V30 3386 H 324.475 1.37381 3.46671 0
M  V30 3387 N 326.66 -1.06551 1.16123 0
M  V30 3388 C 327.607 -2.13961 0.865414 0
M  V30 3389 C 328.577 -1.65066 -0.185055 0
M  V30 3390 O 329.762 -1.90732 -0.05083 0
M  V30 3391 C 326.902 -3.43113 0.369776 0
M  V30 3392 C 326.015 -4.05756 1.48276 0
M  V30 3393 C 325.15 -5.22773 0.942414 0
M  V30 3394 C 324.189 -5.77395 2.03179 0
M  V30 3395 N 323.326 -6.85731 1.50721 0
M  V30 3396 H 328.166 -2.38605 1.78527 0
M  V30 3397 H 325.703 -1.17072 0.890646 0
M  V30 3398 H 327.661 -4.17151 0.0640643 0
M  V30 3399 H 326.291 -3.18695 -0.513143 0
M  V30 3400 H 325.343 -3.29292 1.9045 0
M  V30 3401 H 326.655 -4.42351 2.30493 0
M  V30 3402 H 325.809 -6.03827 0.589729 0
M  V30 3403 H 324.548 -4.87618 0.0895191 0
M  V30 3404 H 323.553 -4.94981 2.3932 0
M  V30 3405 H 324.778 -6.14603 2.8886 0
M  V30 3406 H 322.724 -6.52499 0.676811 0
M  V30 3407 H 322.641 -7.21254 2.26557 0
M  V30 3408 H 323.909 -7.7047 1.18303 0
M  V30 3409 N 328.138 -0.959301 -1.25041 0
M  V30 3410 C 329.07 -0.440543 -2.24926 0
M  V30 3411 C 330.083 0.446131 -1.56568 0
M  V30 3412 O 331.272 0.253657 -1.76689 0
M  V30 3413 C 328.372 0.38412 -3.36716 0
M  V30 3414 C 327.545 -0.490658 -4.34639 0
M  V30 3415 C 326.604 0.276587 -5.25473 0
M  V30 3416 O 325.63 -0.326614 -5.68262 0
M  V30 3417 N 326.832 1.56844 -5.5891 0
M  V30 3418 H 329.597 -1.29931 -2.70071 0
M  V30 3419 H 327.158 -0.830181 -1.38995 0
M  V30 3420 H 329.15 0.905228 -3.94446 0
M  V30 3421 H 327.72 1.14377 -2.90924 0
M  V30 3422 H 326.94 -1.19282 -3.7572 0
M  V30 3423 H 328.228 -1.08756 -4.97041 0
M  V30 3424 H 327.626 2.08036 -5.26059 0
M  V30 3425 H 326.183 2.03541 -6.19205 0
M  V30 3426 N 329.616 1.39756 -0.72842 0
M  V30 3427 C 330.549 2.28176 -0.0330172 0
M  V30 3428 C 331.527 1.44035 0.754501 0
M  V30 3429 O 332.711 1.73434 0.738445 0
M  V30 3430 C 329.838 3.24795 0.960504 0
M  V30 3431 C 328.884 4.25693 0.262264 0
M  V30 3432 S 329.717 5.25714 -1.01906 0
M  V30 3433 C 330.873 6.25894 -0.0279717 0
M  V30 3434 H 331.106 2.86807 -0.78287 0
M  V30 3435 H 328.639 1.45382 -0.519951 0
M  V30 3436 H 330.597 3.80983 1.52846 0
M  V30 3437 H 329.258 2.65196 1.68315 0
M  V30 3438 H 328.451 4.93699 1.01379 0
M  V30 3439 H 328.053 3.7327 -0.233482 0
M  V30 3440 H 330.345 6.72585 0.814621 0
M  V30 3441 H 331.288 7.04876 -0.67499 0
M  V30 3442 H 331.696 5.63466 0.341489 0
M  V30 3443 N 331.094 0.475555 1.50254 0
M  V30 3444 C 332.341 -0.0778919 2.0235 0
M  V30 3445 C 332.669 -1.39319 1.35722 0
M  V30 3446 O 331.924 -1.89888 0.473395 0
M  V30 3447 C 332.223 -0.305114 3.56095 0
M  V30 3448 C 331.889 0.92903 4.41225 0
M  V30 3449 C 330.551 1.26739 4.6421 0
M  V30 3450 C 332.903 1.75054 4.90923 0
M  V30 3451 C 330.231 2.42724 5.34137 0
M  V30 3452 C 332.583 2.9017 5.62125 0
M  V30 3453 C 331.247 3.24416 5.83362 0
M  V30 3454 H 330.517 -0.0285027 0.740452 0
M  V30 3455 H 333.164 0.630543 1.80821 0
M  V30 3456 H 331.469 -1.09584 3.76163 0
M  V30 3457 H 333.166 -0.747377 3.93974 0
M  V30 3458 H 329.756 0.655428 4.23559 0
M  V30 3459 H 333.94 1.50231 4.73016 0
M  V30 3460 H 329.196 2.69525 5.48786 0
M  V30 3461 H 333.37 3.54169 5.99614 0
M  V30 3462 H 330.997 4.14396 6.37323 0
M  V30 3463 N 332.573 -1.56217 0.208337 0
M  V30 3464 C 333.798 -2.02782 -0.435222 0
M  V30 3465 C 334.223 -1.08738 -1.53485 0
M  V30 3466 O 333.581 -0.0731855 -1.81152 0
M  V30 3467 C 333.629 -3.47687 -0.956335 0
M  V30 3468 O 332.733 -3.56773 -2.06849 0
M  V30 3469 H 332.074 -0.656403 -0.100158 0
M  V30 3470 H 334.604 -2.02033 0.3231 0
M  V30 3471 H 334.614 -3.87745 -1.26955 0
M  V30 3472 H 333.289 -4.15624 -0.15143 0
M  V30 3473 H 331.866 -3.28597 -1.76292 0
M  V30 3474 N 334.051 0.0651679 -1.57465 0
M  V30 3475 C 335.297 0.764193 -1.87851 0
M  V30 3476 C 335.63 1.76889 -0.801495 0
M  V30 3477 O 334.905 1.93594 0.187528 0
M  V30 3478 C 335.188 1.46625 -3.28897 0
M  V30 3479 C 335.041 0.477515 -4.47258 0
M  V30 3480 C 336.36 2.4095 -3.68281 0
M  V30 3481 H 333.479 0.276351 -0.683227 0
M  V30 3482 H 336.121 0.0272868 -1.8998 0
M  V30 3483 H 334.271 2.09438 -3.27212 0
M  V30 3484 H 335.943 -0.145922 -4.61069 0
M  V30 3485 H 334.186 -0.206576 -4.33308 0
M  V30 3486 H 334.857 1.0065 -5.42746 0
M  V30 3487 H 337.333 1.88209 -3.71102 0
M  V30 3488 H 336.209 2.87072 -4.67847 0
M  V30 3489 H 336.47 3.26049 -2.98571 0
M  V30 3490 N 335.529 1.53961 0.336706 0
M  V30 3491 C 336.476 1.82428 1.41381 0
M  V30 3492 C 337.446 0.670444 1.51968 0
M  V30 3493 O 338.631 0.915565 1.67398 0
M  V30 3494 C 335.771 2.04564 2.77934 0
M  V30 3495 C 334.884 3.32267 2.76084 0
M  V30 3496 C 334.019 3.44434 4.04399 0
M  V30 3497 C 333.058 4.66061 3.96804 0
M  V30 3498 N 332.195 4.75224 5.16823 0
M  V30 3499 H 337.035 2.74324 1.16405 0
M  V30 3500 H 334.572 1.35869 0.563752 0
M  V30 3501 H 336.53 2.15388 3.57301 0
M  V30 3502 H 335.16 1.15974 3.01247 0
M  V30 3503 H 334.212 3.3025 1.88784 0
M  V30 3504 H 335.524 4.21733 2.66351 0
M  V30 3505 H 334.678 3.54728 4.92192 0
M  V30 3506 H 333.417 2.53037 4.16921 0
M  V30 3507 H 332.422 4.55838 3.07396 0
M  V30 3508 H 333.647 5.58829 3.85858 0
M  V30 3509 H 331.593 3.86739 5.29876 0
M  V30 3510 H 331.51 5.58636 5.09374 0
M  V30 3511 H 332.778 4.89835 6.06367 0
M  V30 3512 N 337.007 -0.598083 1.45811 0
M  V30 3513 C 338.284 -1.35777 1.40797 0
M  V30 3514 C 338.664 -2.10935 0.083462 0
M  V30 3515 O 338.012 -2.08505 -0.934763 0
M  V30 3516 C 338.222 -2.29666 2.62783 0
M  V30 3517 C 339.57 -2.91977 3.08277 0
M  V30 3518 O 340.594 -2.39984 2.63223 0
M  V30 3519 O 339.453 -3.86376 3.86491 0
M  V30 3520 H 336.547 -0.609291 0.55919 0
M  V30 3521 H 339.093 -0.620379 1.57954 0
M  V30 3522 H 337.865 -1.73454 3.50756 0
M  V30 3523 H 337.488 -3.1077 2.48008 0
M  V30 3524 N 338.485 -1.33259 -0.841409 0
M  V30 3525 C 339.762 -1.15174 -1.58096 0
M  V30 3526 C 340.142 0.282858 -2.09196 0
M  V30 3527 O 339.49 1.28151 -1.89181 0
M  V30 3528 C 339.7 -2.1907 -2.71679 0
M  V30 3529 C 341.048 -2.53093 -3.40924 0
M  V30 3530 O 342.072 -2.17717 -2.81918 0
M  V30 3531 O 340.931 -3.1379 -4.47435 0
M  V30 3532 H 338.025 -0.445303 -0.696875 0
M  V30 3533 H 340.571 -1.44833 -0.884385 0
M  V30 3534 H 339.343 -3.15443 -2.31541 0
M  V30 3535 H 338.966 -1.90481 -3.49002 0
M  V30 3536 N 339.963 1.05934 -1.16686 0
M  V30 3537 C 341.374 1.60263 -0.957745 0
M  V30 3538 C 341.725 1.89789 0.49745 0
M  V30 3539 O 340.85 1.67401 1.37135 0
M  V30 3540 C 341.445 2.91172 -1.73218 0
M  V30 3541 C 340.004 3.42188 -1.56794 0
M  V30 3542 C 339.151 2.16028 -1.73859 0
M  V30 3543 H 342.102 0.888392 -1.31504 0
M  V30 3544 H 342.123 3.60744 -1.21014 0
M  V30 3545 H 341.635 2.6965 -2.79124 0
M  V30 3546 H 339.736 3.68762 -0.533437 0
M  V30 3547 H 339.849 4.17273 -2.35414 0
M  V30 3548 H 338.213 2.26426 -1.16633 0
M  V30 3549 H 338.996 1.96985 -2.81161 0
M  V30 3550 N 341.441 0.965919 1.2453 0
M  V30 3551 C 342.69 0.622437 1.91856 0
M  V30 3552 C 343.003 -0.846006 1.76358 0
M  V30 3553 O 344.209 -1.29993 2.38357 0
M  V30 3554 C 342.665 1.0626 3.43856 0
M  V30 3555 C 342.273 2.55437 3.68043 0
M  V30 3556 C 344.017 0.792183 4.17043 0
M  V30 3557 C 341.924 2.93196 5.13605 0
M  V30 3558 H 340.854 0.229092 0.718354 0
M  V30 3559 H 343.505 1.17189 1.41206 0
M  V30 3560 H 341.887 0.441476 3.93531 0
M  V30 3561 H 343.061 3.22665 3.28974 0
M  V30 3562 H 341.376 2.8007 3.08139 0
M  V30 3563 H 343.973 1.05031 5.24283 0
M  V30 3564 H 344.316 -0.271584 4.15413 0
M  V30 3565 H 344.849 1.37419 3.73311 0
M  V30 3566 H 341.588 3.98636 5.20355 0
M  V30 3567 H 341.108 2.30651 5.53679 0
M  V30 3568 H 342.787 2.83004 5.81823 0
M  V30 3569 N 342.919 -1.39368 0.735821 0
M  V30 3570 C 344.166 -2.00497 0.284123 0
M  V30 3571 C 344.494 -1.58387 -1.12889 0
M  V30 3572 O 343.749 -0.804359 -1.78406 0
M  V30 3573 C 344.048 -3.5583 0.334651 0
M  V30 3574 C 343.714 -4.17593 1.7008 0
M  V30 3575 C 342.376 -4.34176 2.07472 0
M  V30 3576 C 344.728 -4.51848 2.59775 0
M  V30 3577 C 342.056 -4.82304 3.34065 0
M  V30 3578 C 344.408 -5.01384 3.85741 0
M  V30 3579 C 343.072 -5.16175 4.23225 0
M  V30 3580 H 342.342 -0.73367 0.103968 0
M  V30 3581 H 344.989 -1.66683 0.942825 0
M  V30 3582 H 343.294 -3.89674 -0.407625 0
M  V30 3583 H 344.991 -4.00986 -0.0329927 0
M  V30 3584 H 341.581 -4.05087 1.40008 0
M  V30 3585 H 345.765 -4.38653 2.32157 0
M  V30 3586 H 341.021 -4.91941 3.63049 0
M  V30 3587 H 345.195 -5.26863 4.55399 0
M  V30 3588 H 342.822 -5.5323 5.21384 0
M  V30 3589 N 344.397 -0.483516 -1.5 0
M  V30 3590 C 345.646 0.0689102 -2.01582 0
M  V30 3591 C 345.959 1.39655 -1.36952 0
M  V30 3592 O 347.165 2.03465 -1.79762 0
M  V30 3593 C 345.621 0.173302 -3.59483 0
M  V30 3594 C 345.229 -1.14665 -4.33077 0
M  V30 3595 C 346.973 0.677024 -4.19066 0
M  V30 3596 C 344.88 -1.00537 -5.82792 0
M  V30 3597 H 343.81 0.0295277 -0.753422 0
M  V30 3598 H 346.461 -0.620295 -1.72698 0
M  V30 3599 H 344.843 0.926569 -3.85007 0
M  V30 3600 H 346.017 -1.91184 -4.19268 0
M  V30 3601 H 344.332 -1.58244 -3.85159 0
M  V30 3602 H 346.929 0.799952 -5.28682 0
M  V30 3603 H 347.272 1.67151 -3.81269 0
M  V30 3604 H 347.805 -0.0192083 -3.97795 0
M  V30 3605 H 344.544 -1.9736 -6.25083 0
M  V30 3606 H 344.064 -0.280776 -5.99142 0
M  V30 3607 H 345.743 -0.677 -6.43448 0
M  V30 3608 N 345.875 1.56104 -0.216619 0
M  V30 3609 C 346.838 2.18819 0.681962 0
M  V30 3610 C 347.838 1.14866 1.12528 0
M  V30 3611 O 349.028 1.40128 1.03488 0
M  V30 3612 C 346.16 2.80756 1.93362 0
M  V30 3613 H 347.353 2.99595 0.135254 0
M  V30 3614 H 344.906 1.56265 0.0330003 0
M  V30 3615 H 345.641 2.03837 2.52232 0
M  V30 3616 H 345.426 3.56876 1.62426 0
M  V30 3617 H 346.916 3.28844 2.57393 0
M  V30 3618 N 347.353 -0.0568162 1.57498 0
M  V30 3619 C 348.764 -0.606858 1.76562 0
M  V30 3620 C 349.115 -1.77114 0.844094 0
M  V30 3621 O 348.24 -2.16376 0.0318911 0
M  V30 3622 C 348.835 -1.10766 3.20182 0
M  V30 3623 C 347.394 -1.60344 3.40539 0
M  V30 3624 C 346.541 -0.529311 2.72201 0
M  V30 3625 H 349.492 0.169393 1.57793 0
M  V30 3626 H 349.513 -1.97602 3.25167 0
M  V30 3627 H 349.025 -0.26006 3.87228 0
M  V30 3628 H 347.126 -2.47379 2.78629 0
M  V30 3629 H 347.239 -1.67006 4.4905 0
M  V30 3630 H 345.603 -0.977893 2.35179 0
M  V30 3631 H 346.386 0.308352 3.41912 0
M  V30 3632 N 348.832 -1.54138 -0.328536 0
M  V30 3633 C 349.795 -1.82462 -1.38709 0
M  V30 3634 C 350.795 -0.696229 -1.44946 0
M  V30 3635 O 351.985 -0.964535 -1.4506 0
M  V30 3636 C 349.117 -1.98018 -2.77492 0
M  V30 3637 H 350.31 -2.77037 -1.14851 0
M  V30 3638 H 347.863 -1.45779 -0.563751 0
M  V30 3639 H 348.598 -1.05637 -3.06613 0
M  V30 3640 H 348.383 -2.80124 -2.74359 0
M  V30 3641 H 349.873 -2.21396 -3.54081 0
M  V30 3642 N 350.31 0.590341 -1.46126 0
M  V30 3643 C 351.24 1.71032 -1.58966 0
M  V30 3644 C 352.221 1.64302 -0.440335 0
M  V30 3645 O 353.406 1.82436 -0.665634 0
M  V30 3646 C 350.536 3.09665 -1.57241 0
M  V30 3647 C 349.49 3.31221 -2.71066 0
M  V30 3648 C 348.816 4.70303 -2.54399 0
M  V30 3649 C 350.116 3.19796 -4.1295 0
M  V30 3650 H 351.81 1.60543 -2.52718 0
M  V30 3651 H 349.356 0.770933 -1.21625 0
M  V30 3652 H 351.309 3.87831 -1.64819 0
M  V30 3653 H 350.033 3.21036 -0.600289 0
M  V30 3654 H 348.692 2.55452 -2.62944 0
M  V30 3655 H 348.34 4.78429 -1.55288 0
M  V30 3656 H 348.04 4.85679 -3.30741 0
M  V30 3657 H 349.564 5.50647 -2.63857 0
M  V30 3658 H 350.978 3.87815 -4.22223 0
M  V30 3659 H 349.375 3.46696 -4.89818 0
M  V30 3660 H 350.445 2.16983 -4.33643 0
M  V30 3661 N 351.788 1.33704 0.83433 0
M  V30 3662 C 353.065 1.16011 1.57483 0
M  V30 3663 C 353.445 -0.27176 2.09343 0
M  V30 3664 O 352.793 -1.27146 1.89858 0
M  V30 3665 C 353.003 2.20507 2.70514 0
M  V30 3666 C 354.351 2.54898 3.39577 0
M  V30 3667 O 355.375 2.19209 2.80759 0
M  V30 3668 O 354.234 3.16158 4.45765 0
M  V30 3669 H 351.328 0.448992 0.694503 0
M  V30 3670 H 353.874 1.453 0.876691 0
M  V30 3671 H 352.646 3.16667 2.29865 0
M  V30 3672 H 352.269 1.92329 3.47987 0
M  V30 3673 N 353.266 -1.05314 1.17247 0
M  V30 3674 C 354.213 -2.13031 0.888058 0
M  V30 3675 C 355.183 -1.65253 -0.167537 0
M  V30 3676 O 356.368 -1.90775 -0.0305974 0
M  V30 3677 C 353.508 -3.42702 0.406147 0
M  V30 3678 C 352.621 -4.04161 1.52572 0
M  V30 3679 C 351.756 -5.21744 0.997808 0
M  V30 3680 C 350.795 -5.75207 2.09291 0
M  V30 3681 N 349.932 -6.84094 1.57986 0
M  V30 3682 H 354.772 -2.36698 1.81048 0
M  V30 3683 H 352.309 -1.16121 0.903013 0
M  V30 3684 H 354.267 -4.17059 0.108305 0
M  V30 3685 H 352.897 -3.19222 -0.479313 0
M  V30 3686 H 351.949 -3.27253 1.93931 0
M  V30 3687 H 353.261 -4.39881 2.35172 0
M  V30 3688 H 352.415 -6.03168 0.653739 0
M  V30 3689 H 351.154 -4.87495 0.141232 0
M  V30 3690 H 350.159 -4.92414 2.44557 0
M  V30 3691 H 351.384 -6.11505 2.95362 0
M  V30 3692 H 349.33 -6.51745 0.74598 0
M  V30 3693 H 349.247 -7.18811 2.34195 0
M  V30 3694 H 350.515 -7.69172 1.26468 0
M  V30 3695 N 354.744 -0.972509 -1.24016 0
M  V30 3696 C 356.021 -0.553733 -1.87598 0
M  V30 3697 C 356.401 0.969158 -1.87538 0
M  V30 3698 O 355.749 1.84255 -1.35139 0
M  V30 3699 C 355.959 -1.15076 -3.29482 0
M  V30 3700 C 357.307 -1.23862 -4.06132 0
M  V30 3701 O 358.331 -1.10363 -3.38672 0
M  V30 3702 O 357.19 -1.45252 -5.26844 0
M  V30 3703 H 354.284 -0.185331 -0.805966 0
M  V30 3704 H 356.83 -1.06709 -1.31952 0
M  V30 3705 H 355.602 -2.19333 -3.2405 0
M  V30 3706 H 355.225 -0.621746 -3.92709 0
M  V30 3707 N 356.222 1.38976 -0.743202 0
M  V30 3708 C 357.169 2.30544 -0.10861 0
M  V30 3709 C 358.139 1.49642 0.720869 0
M  V30 3710 O 359.324 1.78304 0.679142 0
M  V30 3711 C 356.464 3.36018 0.786496 0
M  V30 3712 C 355.577 4.31963 -0.0564849 0
M  V30 3713 C 354.712 5.24506 0.840657 0
M  V30 3714 C 353.751 6.121 -0.00658363 0
M  V30 3715 N 352.888 6.96973 0.846943 0
M  V30 3716 H 357.728 2.8424 -0.895088 0
M  V30 3717 H 355.265 1.3995 -0.453048 0
M  V30 3718 H 357.223 3.95768 1.31999 0
M  V30 3719 H 355.853 2.83758 1.53887 0
M  V30 3720 H 354.905 3.73763 -0.707492 0
M  V30 3721 H 356.217 4.93703 -0.711229 0
M  V30 3722 H 355.371 5.89322 1.4417 0
M  V30 3723 H 354.11 4.63107 1.52916 0
M  V30 3724 H 353.115 5.46289 -0.620366 0
M  V30 3725 H 354.34 6.75565 -0.691992 0
M  V30 3726 H 352.286 6.38133 1.52059 0
M  V30 3727 H 352.203 7.5559 0.248864 0
M  V30 3728 H 353.471 7.6621 1.43328 0
M  V30 3729 N 357.7 0.491464 1.49741 0
M  V30 3730 C 358.663 -0.280906 2.27472 0
M  V30 3731 C 359.663 -0.902454 1.33088 0
M  V30 3732 O 360.853 -0.768465 1.56334 0
M  V30 3733 C 357.985 -1.40209 3.10732 0
M  V30 3734 H 359.178 0.401056 2.97206 0
M  V30 3735 H 356.731 0.246131 1.5435 0
M  V30 3736 H 357.466 -2.11849 2.45541 0
M  V30 3737 H 357.251 -0.961969 3.80117 0
M  V30 3738 H 358.741 -1.9464 3.69466 0
M  V30 3739 N 359.178 -1.55987 0.224894 0
M  V30 3740 C 360.128 -2.17076 -0.697296 0
M  V30 3741 C 361.112 -1.12006 -1.15514 0
M  V30 3742 O 362.304 -1.37985 -1.10857 0
M  V30 3743 C 359.433 -2.85679 -1.90374 0
M  V30 3744 C 358.519 -3.97977 -1.46543 0
M  V30 3745 N 358.91 -5.00359 -0.739909 0
M  V30 3746 C 357.208 -4.10128 -1.75245 0
M  V30 3747 C 357.909 -5.79407 -0.515939 0
M  V30 3748 N 356.885 -5.32892 -1.07364 0
M  V30 3749 H 360.687 -2.93592 -0.134594 0
M  V30 3750 H 358.201 -1.62379 0.0262885 0
M  V30 3751 H 360.198 -3.27857 -2.57518 0
M  V30 3752 H 358.858 -2.1066 -2.47088 0
M  V30 3753 H 359.869 -5.16412 -0.392253 0
M  V30 3754 H 356.546 -3.46263 -2.33255 0
M  V30 3755 H 357.936 -6.71872 0.0617349 0
M  V30 3756 N 360.656 0.0484629 -1.57525 0
M  V30 3757 C 361.903 0.743125 -1.88372 0
M  V30 3758 C 362.231 1.76383 -0.819715 0
M  V30 3759 O 361.486 1.94855 0.181659 0
M  V30 3760 C 361.785 1.46632 -3.25935 0
M  V30 3761 C 361.451 0.583427 -4.4711 0
M  V30 3762 C 360.113 0.340191 -4.79996 0
M  V30 3763 C 362.465 -0.0273345 -5.21193 0
M  V30 3764 C 359.793 -0.522903 -5.84365 0
M  V30 3765 C 362.145 -0.878017 -6.26477 0
M  V30 3766 C 360.809 -1.1309 -6.5785 0
M  V30 3767 H 360.079 0.271929 -0.689301 0
M  V30 3768 H 362.726 0.00336166 -1.915 0
M  V30 3769 H 361.031 2.2789 -3.18706 0
M  V30 3770 H 362.728 2.00902 -3.47044 0
M  V30 3771 H 359.318 0.783151 -4.21384 0
M  V30 3772 H 363.502 0.147654 -4.9608 0
M  V30 3773 H 358.758 -0.727335 -6.07058 0
M  V30 3774 H 362.932 -1.35789 -6.83033 0
M  V30 3775 H 360.559 -1.80144 -7.38547 0
M  V30 3776 N 362.134 1.5431 0.320358 0
M  V30 3777 C 363.38 1.72924 1.05949 0
M  V30 3778 C 363.713 0.503185 1.87568 0
M  V30 3779 O 362.988 -0.499839 1.87968 0
M  V30 3780 C 363.271 3.00676 1.98156 0
M  V30 3781 C 363.124 4.3354 1.19845 0
M  V30 3782 C 364.443 3.24198 2.9763 0
M  V30 3783 H 361.562 0.629195 0.383774 0
M  V30 3784 H 364.204 1.87008 0.335854 0
M  V30 3785 H 362.354 2.888 2.59859 0
M  V30 3786 H 364.026 4.57305 0.605773 0
M  V30 3787 H 362.269 4.309 0.500784 0
M  V30 3788 H 362.94 5.19156 1.87567 0
M  V30 3789 H 365.416 3.35557 2.4605 0
M  V30 3790 H 364.292 4.14938 3.59329 0
M  V30 3791 H 364.553 2.41577 3.7026 0
M  V30 3792 N 363.613 -0.582584 1.46437 0
M  V30 3793 C 364.838 -1.37168 1.55563 0
M  V30 3794 C 365.263 -1.87061 0.19743 0
M  V30 3795 O 364.621 -1.61572 -0.822451 0
M  V30 3796 C 364.669 -2.53511 2.56446 0
M  V30 3797 O 363.773 -3.54953 2.09958 0
M  V30 3798 H 363.114 -0.408494 0.523477 0
M  V30 3799 H 365.644 -0.706646 1.9201 0
M  V30 3800 H 365.654 -3.00426 2.76058 0
M  V30 3801 H 364.329 -2.16549 3.55076 0
M  V30 3802 H 362.906 -3.14516 2.00334 0
M  V30 3803 N 365.091 -1.34144 -0.827227 0
M  V30 3804 C 366.321 -1.29138 -1.61267 0
M  V30 3805 C 366.729 0.137597 -1.88699 0
M  V30 3806 O 366.072 1.09379 -1.47587 0
M  V30 3807 C 366.134 -2.0097 -2.9808 0
M  V30 3808 C 365.798 -3.50242 -2.93563 0
M  V30 3809 C 366.795 -4.4523 -2.68452 0
M  V30 3810 C 364.48 -3.92592 -3.13331 0
M  V30 3811 C 366.474 -5.80542 -2.63154 0
M  V30 3812 C 364.161 -5.28005 -3.07658 0
M  V30 3813 C 365.159 -6.21792 -2.82602 0
M  V30 3814 O 364.847 -7.54723 -2.76853 0
M  V30 3815 H 364.579 -0.445851 -0.508127 0
M  V30 3816 H 367.133 -1.77263 -1.03763 0
M  V30 3817 H 365.363 -1.47451 -3.57484 0
M  V30 3818 H 367.052 -1.89309 -3.5905 0
M  V30 3819 H 367.818 -4.13832 -2.52919 0
M  V30 3820 H 363.697 -3.19994 -3.31851 0
M  V30 3821 H 367.241 -6.53717 -2.43516 0
M  V30 3822 H 363.138 -5.59023 -3.22743 0
M  V30 3823 H 363.906 -7.64409 -2.92611 0
M  V30 3824 N 366.569 1.04691 -1.17803 0
M  V30 3825 C 367.799 1.81183 -0.992788 0
M  V30 3826 C 368.207 1.8347 0.462098 0
M  V30 3827 O 367.55 1.2643 1.33271 0
M  V30 3828 C 367.612 3.28363 -1.46349 0
M  V30 3829 C 367.276 3.49749 -2.94151 0
M  V30 3830 C 368.273 3.41456 -3.92051 0
M  V30 3831 C 365.958 3.76548 -3.32441 0
M  V30 3832 C 367.952 3.59656 -5.26238 0
M  V30 3833 C 365.639 3.94396 -4.66792 0
M  V30 3834 C 366.637 3.8595 -5.635 0
M  V30 3835 O 366.325 4.03294 -6.9542 0
M  V30 3836 H 366.057 0.577622 -0.351182 0
M  V30 3837 H 368.611 1.32876 -1.5663 0
M  V30 3838 H 366.841 3.77609 -0.833574 0
M  V30 3839 H 368.53 3.86395 -1.24313 0
M  V30 3840 H 369.296 3.20723 -3.63815 0
M  V30 3841 H 365.175 3.82224 -2.57732 0
M  V30 3842 H 368.719 3.52979 -6.01707 0
M  V30 3843 H 364.616 4.14622 -4.94731 0
M  V30 3844 H 365.384 4.2049 -7.02232 0
M  V30 3845 N 368.047 0.979072 1.23499 0
M  V30 3846 C 369.295 0.645941 1.91499 0
M  V30 3847 C 369.616 -0.822948 1.76784 0
M  V30 3848 O 368.886 -1.58854 1.14639 0
M  V30 3849 H 367.466 0.235919 0.708767 0
M  V30 3850 H 370.128 1.2426 1.50152 0
M  V30 3851 H 369.224 0.896411 2.9895 0
M  V30 3852 N 369.525 -1.3858 0.750561 0
M  V30 3853 C 370.473 -2.32339 0.110162 0
M  V30 3854 C 371.467 -1.53864 -0.708674 0
M  V30 3855 O 372.673 -1.69417 -0.608112 0
M  V30 3856 H 369.048 -0.751812 0.0168275 0
M  V30 3857 H 371.019 -2.83959 0.917053 0
M  V30 3858 C 369.768 -3.39043 -0.771067 0
M  V30 3859 H 369.091 -3.99517 -0.150374 0
M  V30 3860 H 370.531 -4.07061 -1.1865 0
M  V30 3861 C 368.99 -2.77365 -1.91234 0
M  V30 3862 O 369.52 -2.66434 -3.00626 0
M  V30 3863 N 367.726 -2.35219 -1.70646 0
M  V30 3864 H 367.273 -2.4431 -0.81673 0
M  V30 3865 H 367.231 -1.94294 -2.47178 0
M  V30 3866 N 371.003 -0.499398 -1.49478 0
M  V30 3867 C 372.249 0.0457576 -2.02748 0
M  V30 3868 C 372.582 1.36793 -1.37846 0
M  V30 3869 O 371.857 1.87596 -0.513601 0
M  V30 3870 C 372.14 0.199986 -3.59544 0
M  V30 3871 C 371.993 -1.1452 -4.34977 0
M  V30 3872 C 373.312 0.94137 -4.29914 0
M  V30 3873 H 370.431 0.0151552 -0.736844 0
M  V30 3874 H 373.073 -0.650498 -1.78518 0
M  V30 3875 H 371.223 0.793007 -3.8032 0
M  V30 3876 H 372.895 -1.77697 -4.25701 0
M  V30 3877 H 371.138 -1.73488 -3.97598 0
M  V30 3878 H 371.809 -0.990607 -5.43039 0
M  V30 3879 H 374.285 0.43844 -4.13784 0
M  V30 3880 H 373.161 1.01812 -5.39375 0
M  V30 3881 H 373.422 1.98471 -3.95046 0
M  V30 3882 N 372.481 1.55866 -0.233164 0
M  V30 3883 C 373.711 2.02704 0.399325 0
M  V30 3884 C 374.119 1.11204 1.53069 0
M  V30 3885 O 373.462 0.116182 1.83332 0
M  V30 3886 C 373.524 3.45844 0.981429 0
M  V30 3887 C 373.188 4.56997 -0.0159561 0
M  V30 3888 C 374.185 5.13384 -0.820552 0
M  V30 3889 C 371.87 5.0211 -0.138072 0
M  V30 3890 C 373.864 6.13365 -1.73386 0
M  V30 3891 C 371.551 6.01926 -1.0549 0
M  V30 3892 C 372.549 6.57431 -1.85132 0
M  V30 3893 O 372.237 7.55302 -2.75272 0
M  V30 3894 H 371.969 0.668459 0.100692 0
M  V30 3895 H 374.523 2.02387 -0.35052 0
M  V30 3896 H 372.753 3.43267 1.78058 0
M  V30 3897 H 374.442 3.76262 1.52255 0
M  V30 3898 H 375.208 4.79372 -0.736721 0
M  V30 3899 H 371.087 4.5858 0.471737 0
M  V30 3900 H 374.631 6.56614 -2.35592 0
M  V30 3901 H 370.528 6.35359 -1.1397 0
M  V30 3902 H 371.296 7.72867 -2.69477 0
M  V30 3903 N 373.959 -0.0401083 1.57549 0
M  V30 3904 C 375.184 -0.748931 1.93406 0
M  V30 3905 C 375.609 -1.68686 0.832274 0
M  V30 3906 O 374.967 -1.80047 -0.212818 0
M  V30 3907 C 375.015 -1.4916 3.28304 0
M  V30 3908 O 374.119 -2.6042 3.19774 0
M  V30 3909 H 373.46 -0.202212 0.63246 0
M  V30 3910 H 375.99 0.00112086 2.046 0
M  V30 3911 H 376 -1.86395 3.62934 0
M  V30 3912 H 374.675 -0.80364 4.08062 0
M  V30 3913 H 373.252 -2.25808 2.96758 0
M  V30 3914 N 375.437 -1.54477 -0.31217 0
M  V30 3915 C 376.4 -1.83923 -1.36766 0
M  V30 3916 C 377.4 -0.711563 -1.44199 0
M  V30 3917 O 378.59 -0.979866 -1.44029 0
M  V30 3918 C 375.722 -2.0095 -2.75376 0
M  V30 3919 H 376.915 -2.78239 -1.11906 0
M  V30 3920 H 374.468 -1.46369 -0.548257 0
M  V30 3921 H 375.203 -1.08883 -3.05475 0
M  V30 3922 H 374.988 -2.83018 -2.71373 0
M  V30 3923 H 376.478 -2.2514 -3.51713 0
M  V30 3924 N 376.915 0.57481 -1.46744 0
M  V30 3925 C 378.192 1.3352 -1.4294 0
M  V30 3926 C 378.572 2.10775 -0.117009 0
M  V30 3927 O 377.92 2.09966 0.901474 0
M  V30 3928 C 378.13 2.25456 -2.66403 0
M  V30 3929 C 379.478 2.87035 -3.12883 0
M  V30 3930 O 380.502 2.35766 -2.67007 0
M  V30 3931 O 379.361 3.80179 -3.92589 0
M  V30 3932 H 376.455 0.600318 -0.568812 0
M  V30 3933 H 379.001 0.595171 -1.58921 0
M  V30 3934 H 377.773 1.67851 -3.53471 0
M  V30 3935 H 377.396 3.06785 -2.52921 0
M  V30 3936 N 378.394 1.34581 0.820102 0
M  V30 3937 C 379.641 1.27096 1.57648 0
M  V30 3938 C 379.969 -0.158317 1.93855 0
M  V30 3939 O 379.224 -1.12028 1.60463 0
M  V30 3940 C 379.523 2.10997 2.8847 0
M  V30 3941 C 379.189 3.59966 2.71543 0
M  V30 3942 C 377.851 4.00575 2.66634 0
M  V30 3943 C 380.203 4.54548 2.55021 0
M  V30 3944 C 377.531 5.33953 2.43128 0
M  V30 3945 C 379.883 5.88109 2.33047 0
M  V30 3946 C 378.547 6.27878 2.26552 0
M  V30 3947 H 377.817 0.465078 0.576874 0
M  V30 3948 H 380.464 1.6635 0.948671 0
M  V30 3949 H 378.769 1.6458 3.55557 0
M  V30 3950 H 380.466 2.0255 3.46084 0
M  V30 3951 H 377.056 3.27733 2.76205 0
M  V30 3952 H 381.24 4.24069 2.57835 0
M  V30 3953 H 376.496 5.63781 2.3656 0
M  V30 3954 H 380.67 6.60985 2.19251 0
M  V30 3955 H 378.297 7.31162 2.081 0
M  V30 3956 N 379.872 -1.04064 1.18357 0
M  V30 3957 C 381.097 -1.81454 1.00445 0
M  V30 3958 C 381.522 -1.82823 -0.442423 0
M  V30 3959 O 380.88 -1.24555 -1.31741 0
M  V30 3960 C 380.928 -3.24925 1.56384 0
M  V30 3961 O 380.032 -4.04856 0.785209 0
M  V30 3962 H 379.373 -0.560604 0.355835 0
M  V30 3963 H 381.903 -1.31059 1.57114 0
M  V30 3964 H 381.913 -3.75702 1.59097 0
M  V30 3965 H 380.588 -3.23244 2.61699 0
M  V30 3966 H 379.165 -3.63537 0.830399 0
M  V30 3967 N 381.35 -0.985608 -1.22978 0
M  V30 3968 C 382.598 -0.656087 -1.91154 0
M  V30 3969 C 382.919 0.813561 -1.77218 0
M  V30 3970 O 382.189 1.58244 -1.1548 0
M  V30 3971 H 380.769 -0.239674 -0.707506 0
M  V30 3972 H 383.431 -1.25054 -1.49491 0
M  V30 3973 H 382.527 -0.912253 -2.9847 0
M  V30 3974 N 382.828 1.3818 -0.7579 0
M  V30 3975 C 384.105 1.94106 -0.241306 0
M  V30 3976 C 384.485 1.69282 1.26122 0
M  V30 3977 O 383.833 1.03378 2.03777 0
M  V30 3978 C 384.043 3.43809 -0.59967 0
M  V30 3979 C 385.391 4.20868 -0.561717 0
M  V30 3980 O 386.415 3.5211 -0.538222 0
M  V30 3981 O 385.274 5.43451 -0.576478 0
M  V30 3982 H 382.368 0.825376 -0.0518042 0
M  V30 3983 H 384.914 1.47548 -0.838315 0
M  V30 3984 H 383.686 3.55403 -1.6372 0
M  V30 3985 H 383.309 3.97592 0.0251197 0
M  V30 3986 N 384.306 0.507319 1.49211 0
M  V30 3987 C 385.216 -0.272136 2.33016 0
M  V30 3988 C 386.232 -0.961206 1.45041 0
M  V30 3989 O 387.408 -0.941191 1.78055 0
M  V30 3990 C 384.473 -1.31895 3.20631 0
M  V30 3991 C 383.534 -0.642648 4.24463 0
M  V30 3992 C 382.767 -1.63959 5.07891 0
M  V30 3993 O 382.99 -2.87007 4.92933 0
M  V30 3994 O 381.924 -1.19143 5.8999 0
M  V30 3995 H 385.75 0.413982 3.00865 0
M  V30 3996 H 383.335 0.268556 1.46966 0
M  V30 3997 H 385.217 -1.92446 3.7489 0
M  V30 3998 H 383.892 -1.98788 2.5547 0
M  V30 3999 H 382.799 0.00276252 3.741 0
M  V30 4000 H 384.132 -0.0160534 4.92197 0
M  V30 4001 N 385.784 -1.5574 0.241426 0
M  V30 4002 C 387.03 -1.99104 -0.385406 0
M  V30 4003 C 387.363 -1.1293 -1.57988 0
M  V30 4004 O 386.638 -0.191449 -1.93555 0
M  V30 4005 C 386.921 -3.51087 -0.800616 0
M  V30 4006 C 386.774 -4.48028 0.398874 0
M  V30 4007 C 388.093 -4.08015 -1.64959 0
M  V30 4008 H 385.212 -0.723848 -0.138614 0
M  V30 4009 H 387.854 -1.86903 0.341642 0
M  V30 4010 H 386.004 -3.61615 -1.4201 0
M  V30 4011 H 387.676 -4.49487 1.03726 0
M  V30 4012 H 385.919 -4.21077 1.04293 0
M  V30 4013 H 386.59 -5.51962 0.0651056 0
M  V30 4014 H 389.066 -4.00555 -1.12672 0
M  V30 4015 H 387.942 -5.14635 -1.90898 0
M  V30 4016 H 388.203 -3.56131 -2.61961 0
M  V30 4017 N 387.262 0.0317525 -1.57568 0
M  V30 4018 C 388.209 1.0332 -2.06382 0
M  V30 4019 C 389.179 1.36082 -0.952414 0
M  V30 4020 O 390.364 1.46466 -1.2228 0
M  V30 4021 C 387.504 2.32989 -2.54578 0
M  V30 4022 C 386.617 2.0641 -3.79498 0
M  V30 4023 C 385.752 3.2993 -4.16317 0
M  V30 4024 C 384.791 2.98893 -5.34162 0
M  V30 4025 N 383.928 4.14857 -5.66426 0
M  V30 4026 H 388.768 0.609982 -2.9169 0
M  V30 4027 H 386.305 0.289573 -1.44222 0
M  V30 4028 H 388.263 3.0875 -2.80587 0
M  V30 4029 H 386.893 2.73039 -1.7219 0
M  V30 4030 H 385.945 1.21158 -3.6059 0
M  V30 4031 H 387.257 1.79513 -4.65378 0
M  V30 4032 H 386.411 4.1406 -4.4344 0
M  V30 4033 H 385.15 3.59938 -3.29083 0
M  V30 4034 H 384.155 2.13164 -5.06795 0
M  V30 4035 H 385.38 2.70165 -6.23047 0
M  V30 4036 H 383.326 4.44821 -4.82151 0
M  V30 4037 H 383.243 3.91374 -6.4681 0
M  V30 4038 H 384.511 4.99868 -5.98124 0
M  V30 4039 N 388.74 1.54641 0.303973 0
M  V30 4040 C 389.986 1.74038 1.04109 0
M  V30 4041 C 390.319 0.523051 1.87024 0
M  V30 4042 O 389.594 -0.479874 1.88487 0
M  V30 4043 C 389.877 3.02761 1.94955 0
M  V30 4044 C 389.73 4.34787 1.1524 0
M  V30 4045 C 391.049 3.27336 2.94175 0
M  V30 4046 H 388.168 0.63323 0.377079 0
M  V30 4047 H 390.81 1.87354 0.316001 0
M  V30 4048 H 388.96 2.9154 2.56782 0
M  V30 4049 H 390.632 4.57922 0.557236 0
M  V30 4050 H 388.875 4.31407 0.455053 0
M  V30 4051 H 389.546 5.21116 1.8205 0
M  V30 4052 H 392.022 3.38148 2.42477 0
M  V30 4053 H 390.898 4.18726 3.54908 0
M  V30 4054 H 391.159 2.45491 3.67677 0
M  V30 4055 N 390.218 -0.567019 1.47046 0
M  V30 4056 C 391.495 -1.3276 1.43646 0
M  V30 4057 C 391.875 -2.1071 0.128186 0
M  V30 4058 O 391.223 -2.10441 -0.890326 0
M  V30 4059 C 391.433 -2.2404 2.67595 0
M  V30 4060 C 392.781 -2.85372 3.14401 0
M  V30 4061 O 393.805 -2.34346 2.68254 0
M  V30 4062 O 392.664 -3.78091 3.946 0
M  V30 4063 H 389.758 -0.597293 0.571988 0
M  V30 4064 H 392.304 -0.586735 1.59234 0
M  V30 4065 H 391.076 -1.65975 3.54356 0
M  V30 4066 H 390.699 -3.05439 2.54544 0
M  V30 4067 N 391.696 -1.35014 -0.812953 0
M  V30 4068 C 392.944 -1.27678 -1.56661 0
M  V30 4069 C 393.265 0.150359 -1.94419 0
M  V30 4070 O 392.535 1.08532 -1.63088 0
M  V30 4071 H 391.115 -0.469602 -0.580933 0
M  V30 4072 H 393.777 -1.69043 -0.970076 0
M  V30 4073 H 392.873 -1.88833 -2.48492 0
M  V30 4074 N 393.175 1.03435 -1.18907 0
M  V30 4075 C 394.586 1.58195 -0.991523 0
M  V30 4076 C 394.937 1.90801 0.457081 0
M  V30 4077 O 394.062 1.70272 1.33553 0
M  V30 4078 C 394.657 2.87432 -1.79355 0
M  V30 4079 C 393.216 3.38785 -1.64017 0
M  V30 4080 C 392.363 2.12292 -1.78402 0
M  V30 4081 H 395.314 0.860299 -1.33359 0
M  V30 4082 H 395.335 3.58096 -1.28638 0
M  V30 4083 H 394.847 2.63669 -2.84781 0
M  V30 4084 H 392.948 3.67547 -0.611536 0
M  V30 4085 H 393.061 4.12186 -2.44212 0
M  V30 4086 H 391.425 2.23901 -1.2141 0
M  V30 4087 H 392.208 1.90977 -2.85277 0
M  V30 4088 N 394.653 0.992116 1.22453 0
M  V30 4089 C 395.899 0.678177 1.91761 0
M  V30 4090 C 396.254 -0.781141 1.75829 0
M  V30 4091 O 395.547 -1.55747 1.11595 0
M  V30 4092 C 395.741 1.01832 3.42586 0
M  V30 4093 C 395.57 2.50916 3.73191 0
M  V30 4094 C 394.34 3.17308 3.93248 0
M  V30 4095 C 396.538 3.49032 3.77732 0
M  V30 4096 N 394.52 4.55876 4.11157 0
M  V30 4097 C 395.891 4.73055 4.00773 0
M  V30 4098 C 397.946 3.43349 3.60577 0
M  V30 4099 C 396.649 5.92089 4.0844 0
M  V30 4100 C 398.675 4.61759 3.69503 0
M  V30 4101 C 398.037 5.84582 3.92993 0
M  V30 4102 H 394.136 0.299425 0.722405 0
M  V30 4103 H 396.72 1.27197 1.47408 0
M  V30 4104 H 394.891 0.453118 3.85748 0
M  V30 4105 H 396.623 0.660454 3.99274 0
M  V30 4106 H 393.378 2.67778 3.9063 0
M  V30 4107 H 393.802 5.27748 4.24042 0
M  V30 4108 H 398.444 2.49408 3.41402 0
M  V30 4109 H 396.162 6.86435 4.26418 0
M  V30 4110 H 399.748 4.58951 3.57569 0
M  V30 4111 H 398.628 6.74676 3.99728 0
M  V30 4112 N 396.131 -1.37776 0.765217 0
M  V30 4113 C 397.356 -2.04651 0.336537 0
M  V30 4114 C 397.781 -1.57337 -1.03086 0
M  V30 4115 O 397.139 -0.730621 -1.65927 0
M  V30 4116 C 397.187 -3.58577 0.381468 0
M  V30 4117 O 396.291 -4.07706 -0.62042 0
M  V30 4118 H 395.632 -0.64756 0.146838 0
M  V30 4119 H 398.162 -1.76221 1.03959 0
M  V30 4120 H 398.172 -4.07314 0.236448 0
M  V30 4121 H 396.847 -3.9237 1.37907 0
M  V30 4122 H 395.424 -3.70306 -0.439056 0
M  V30 4123 N 397.609 -0.515225 -1.4894 0
M  V30 4124 C 398.539 0.244628 -2.32215 0
M  V30 4125 C 399.52 0.949136 -1.41157 0
M  V30 4126 O 400.705 0.937783 -1.70057 0
M  V30 4127 C 397.835 1.30096 -3.22013 0
M  V30 4128 C 396.789 0.715486 -4.21977 0
M  V30 4129 C 396.115 1.87339 -5.00808 0
M  V30 4130 C 397.415 -0.302982 -5.2142 0
M  V30 4131 H 399.109 -0.450501 -2.95991 0
M  V30 4132 H 396.655 -0.218098 -1.42339 0
M  V30 4133 H 398.608 1.84037 -3.79089 0
M  V30 4134 H 397.332 2.02547 -2.56207 0
M  V30 4135 H 395.991 0.197715 -3.66066 0
M  V30 4136 H 395.639 2.58592 -4.31438 0
M  V30 4137 H 395.339 1.48764 -5.68457 0
M  V30 4138 H 396.863 2.41686 -5.60732 0
M  V30 4139 H 398.277 0.148802 -5.73107 0
M  V30 4140 H 396.674 -0.60532 -5.97039 0
M  V30 4141 H 397.744 -1.21395 -4.69459 0
M  V30 4142 N 399.087 1.5561 -0.249682 0
M  V30 4143 C 400.017 2.24477 0.642826 0
M  V30 4144 C 400.998 1.22601 1.17911 0
M  V30 4145 O 402.183 1.5126 1.21795 0
M  V30 4146 C 399.313 2.94638 1.83863 0
M  V30 4147 C 398.267 4.03227 1.435 0
M  V30 4148 C 397.593 4.60828 2.71186 0
M  V30 4149 C 398.893 5.18796 0.604002 0
M  V30 4150 H 400.587 2.99321 0.0685625 0
M  V30 4151 H 398.133 1.43965 0.0315363 0
M  V30 4152 H 400.086 3.41517 2.46868 0
M  V30 4153 H 398.81 2.17287 2.43832 0
M  V30 4154 H 397.469 3.57121 0.828275 0
M  V30 4155 H 397.117 3.80174 3.29358 0
M  V30 4156 H 396.817 5.34132 2.44901 0
M  V30 4157 H 398.341 5.10442 3.35084 0
M  V30 4158 H 399.755 5.61883 1.13842 0
M  V30 4159 H 398.152 5.98506 0.437097 0
M  V30 4160 H 399.222 4.83384 -0.383147 0
M  V30 4161 N 400.565 -0.0233959 1.57583 0
M  V30 4162 C 401.513 -1.04063 2.08023 0
M  V30 4163 C 402.507 -1.37084 0.995204 0
M  V30 4164 O 403.713 -1.35923 1.18004 0
M  V30 4165 H 400.088 -0.353144 0.663922 0
M  V30 4166 H 402.059 -0.589453 2.9252 0
M  V30 4167 C 400.808 -2.33123 2.57971 0
M  V30 4168 H 400.131 -2.08577 3.4108 0
M  V30 4169 H 401.571 -3.02632 2.96967 0
M  V30 4170 C 400.03 -3.02483 1.48342 0
M  V30 4171 O 400.56 -3.92541 0.852898 0
M  V30 4172 N 398.766 -2.63909 1.21658 0
M  V30 4173 H 398.313 -1.90758 1.73116 0
M  V30 4174 H 398.271 -3.10633 0.485218 0
M  V30 4175 N 402.043 -1.548 -0.295768 0
M  V30 4176 C 403.32 -1.65014 -1.05023 0
M  V30 4177 C 403.7 -0.501805 -2.05049 0
M  V30 4178 O 403.048 0.500869 -2.22943 0
M  V30 4179 C 403.258 -3.03252 -1.72741 0
M  V30 4180 C 404.606 -3.60242 -2.24746 0
M  V30 4181 O 405.63 -3.05737 -1.82765 0
M  V30 4182 O 404.489 -4.55687 -3.01681 0
M  V30 4183 H 401.583 -0.669314 -0.485744 0
M  V30 4184 H 404.129 -1.67144 -0.293438 0
M  V30 4185 H 402.901 -3.7827 -1.00138 0
M  V30 4186 H 402.524 -3.04922 -2.55163 0
M  V30 4187 N 403.521 0.559213 -1.47345 0
M  V30 4188 C 404.431 1.69388 -1.62311 0
M  V30 4189 C 405.447 1.6648 -0.505993 0
M  V30 4190 O 406.623 1.85964 -0.773262 0
M  V30 4191 C 403.688 3.05894 -1.63185 0
M  V30 4192 C 402.749 3.19885 -2.86307 0
M  V30 4193 C 401.982 4.49879 -2.87131 0
M  V30 4194 O 402.205 5.35217 -1.97229 0
M  V30 4195 O 401.139 4.67618 -3.78968 0
M  V30 4196 H 404.965 1.59706 -2.58317 0
M  V30 4197 H 402.55 0.728989 -1.30407 0
M  V30 4198 H 404.432 3.87133 -1.66451 0
M  V30 4199 H 403.107 3.15964 -0.70345 0
M  V30 4200 H 402.014 2.38052 -2.88587 0
M  V30 4201 H 403.347 3.14718 -3.78435 0
M  V30 4202 N 404.999 1.35443 0.805782 0
M  V30 4203 C 406.276 1.19325 1.54987 0
M  V30 4204 C 406.656 -0.227294 2.09873 0
M  V30 4205 O 406.004 -1.2309 1.92512 0
M  V30 4206 C 406.214 2.26196 2.65775 0
M  V30 4207 C 407.562 2.62043 3.34094 0
M  V30 4208 O 408.586 2.25115 2.76046 0
M  V30 4209 O 407.445 3.25542 4.38958 0
M  V30 4210 H 404.539 0.463623 0.684823 0
M  V30 4211 H 407.085 1.47127 0.845674 0
M  V30 4212 H 405.857 3.21471 2.23096 0
M  V30 4213 H 405.48 1.99667 3.43829 0
M  V30 4214 N 406.477 -1.02803 1.19454 0
M  V30 4215 C 407.424 -2.11099 0.933046 0
M  V30 4216 C 408.394 -1.65571 -0.132447 0
M  V30 4217 O 409.579 -1.90797 0.00987576 0
M  V30 4218 C 406.719 -3.41763 0.478747 0
M  V30 4219 C 405.832 -4.00833 1.6111 0
M  V30 4220 C 404.967 -5.19511 1.10825 0
M  V30 4221 C 404.006 -5.70639 2.21445 0
M  V30 4222 N 403.143 -6.80589 1.72461 0
M  V30 4223 H 407.983 -2.32804 1.86028 0
M  V30 4224 H 405.52 -1.14179 0.927441 0
M  V30 4225 H 407.478 -4.16736 0.196745 0
M  V30 4226 H 406.108 -3.20166 -0.411493 0
M  V30 4227 H 405.16 -3.23066 2.00829 0
M  V30 4228 H 406.472 -4.34794 2.4445 0
M  V30 4229 H 405.626 -6.01645 0.781533 0
M  V30 4230 H 404.365 -4.87086 0.244606 0
M  V30 4231 H 403.37 -4.87116 2.54947 0
M  V30 4232 H 404.595 -6.05102 3.08267 0
M  V30 4233 H 402.541 -6.50016 0.884056 0
M  V30 4234 H 402.458 -7.13681 2.49389 0
M  V30 4235 H 403.726 -7.66317 1.42755 0
M  V30 4236 N 407.956 -0.998596 -1.21925 0
M  V30 4237 C 408.919 -0.558679 -2.22287 0
M  V30 4238 C 409.919 0.361525 -1.56683 0
M  V30 4239 O 411.109 0.152695 -1.73529 0
M  V30 4240 C 408.241 0.18661 -3.40389 0
M  V30 4241 H 409.434 -1.4463 -2.62721 0
M  V30 4242 H 406.987 -0.786413 -1.35075 0
M  V30 4243 H 407.722 1.08996 -3.05435 0
M  V30 4244 H 407.507 -0.474188 -3.89222 0
M  V30 4245 H 408.997 0.482367 -4.14805 0
M  V30 4246 N 409.434 1.37368 -0.772513 0
M  V30 4247 C 410.381 2.30262 -0.157488 0
M  V30 4248 C 411.351 1.51137 0.688965 0
M  V30 4249 O 412.536 1.79704 0.641168 0
M  V30 4250 C 409.676 3.37611 0.715045 0
M  V30 4251 C 408.789 4.31746 -0.148098 0
M  V30 4252 C 407.924 5.26171 0.729213 0
M  V30 4253 C 406.963 6.11948 -0.136418 0
M  V30 4254 N 406.1 6.98613 0.698914 0
M  V30 4255 H 410.94 2.82277 -0.955179 0
M  V30 4256 H 408.477 1.38957 -0.482631 0
M  V30 4257 H 410.435 3.98479 1.23575 0
M  V30 4258 H 409.065 2.86959 1.47833 0
M  V30 4259 H 408.117 3.72178 -0.786613 0
M  V30 4260 H 409.429 4.92084 -0.81579 0
M  V30 4261 H 408.583 5.92247 1.31637 0
M  V30 4262 H 407.322 4.66246 1.43059 0
M  V30 4263 H 406.327 5.4485 -0.736102 0
M  V30 4264 H 407.552 6.73945 -0.835134 0
M  V30 4265 H 405.498 6.41215 1.38489 0
M  V30 4266 H 405.415 7.55948 0.0885358 0
M  V30 4267 H 406.683 7.69077 1.27044 0
M  V30 4268 N 410.912 0.523116 1.48665 0
M  V30 4269 C 411.86 -0.256859 2.31177 0
M  V30 4270 C 412.854 -0.94199 1.40794 0
M  V30 4271 O 414.06 -0.867157 1.57735 0
M  V30 4272 H 410.435 -0.1017 0.745091 0
M  V30 4273 H 412.406 0.458739 2.94853 0
M  V30 4274 C 411.155 -1.29503 3.22683 0
M  V30 4275 H 410.478 -0.777248 3.92172 0
M  V30 4276 H 411.918 -1.81233 3.83315 0
M  V30 4277 C 410.377 -2.32501 2.43813 0
M  V30 4278 O 410.907 -3.3881 2.15803 0
M  V30 4279 N 409.113 -2.05538 2.05432 0
M  V30 4280 H 408.66 -1.19104 2.28412 0
M  V30 4281 H 408.618 -2.74676 1.52973 0
M  V30 4282 N 412.39 -1.55475 0.257931 0
M  V30 4283 C 413.636 -2.00237 -0.357338 0
M  V30 4284 C 413.991 -1.14313 -1.54759 0
M  V30 4285 O 413.284 -0.201187 -1.90541 0
M  V30 4286 C 413.478 -3.48183 -0.806433 0
M  V30 4287 C 413.307 -4.48422 0.338758 0
M  V30 4288 C 412.077 -4.98651 0.817011 0
M  V30 4289 C 414.275 -5.00827 1.16949 0
M  V30 4290 N 412.257 -5.82658 1.93346 0
M  V30 4291 C 413.628 -5.82113 2.13413 0
M  V30 4292 C 415.683 -4.83104 1.2048 0
M  V30 4293 C 414.386 -6.47566 3.13131 0
M  V30 4294 C 416.412 -5.49343 2.19034 0
M  V30 4295 C 415.774 -6.30427 3.14232 0
M  V30 4296 H 411.873 -0.776034 -0.0964083 0
M  V30 4297 H 414.457 -1.90995 0.37803 0
M  V30 4298 H 412.628 -3.57801 -1.51107 0
M  V30 4299 H 414.36 -3.79802 -1.39758 0
M  V30 4300 H 411.115 -4.71914 0.39925 0
M  V30 4301 H 411.539 -6.29356 2.49478 0
M  V30 4302 H 416.181 -4.20036 0.482634 0
M  V30 4303 H 413.899 -7.09793 3.8629 0
M  V30 4304 H 417.485 -5.37579 2.22485 0
M  V30 4305 H 416.365 -6.80777 3.89246 0
M  V30 4306 N 413.868 0.0150385 -1.57593 0
M  V30 4307 C 415.114 0.704043 -1.90187 0
M  V30 4308 C 415.447 1.74249 -0.857366 0
M  V30 4309 O 414.722 1.94092 0.125843 0
M  V30 4310 C 415.005 1.36087 -3.33395 0
M  V30 4311 C 414.858 0.334981 -4.48551 0
M  V30 4312 C 416.177 2.29112 -3.7576 0
M  V30 4313 H 413.296 0.254475 -0.691673 0
M  V30 4314 H 415.938 -0.0331678 -1.89971 0
M  V30 4315 H 414.088 1.98922 -3.3371 0
M  V30 4316 H 415.76 -0.292534 -4.60372 0
M  V30 4317 H 414.003 -0.344325 -4.32431 0
M  V30 4318 H 414.674 0.833316 -5.45674 0
M  V30 4319 H 417.15 1.76308 -3.76902 0
M  V30 4320 H 416.026 2.72043 -4.76743 0
M  V30 4321 H 416.287 3.16385 -3.08793 0
M  V30 4322 N 415.346 1.54954 0.287554 0
M  V30 4323 C 416.757 1.65732 0.859634 0
M  V30 4324 C 417.108 0.574767 1.87592 0
M  V30 4325 O 416.233 -0.286299 2.14498 0
M  V30 4326 C 416.828 3.00438 1.56597 0
M  V30 4327 C 415.387 3.13292 2.08627 0
M  V30 4328 C 414.534 2.61473 0.923416 0
M  V30 4329 H 417.485 1.5857 0.0642338 0
M  V30 4330 H 417.506 2.92613 2.43224 0
M  V30 4331 H 417.018 3.79207 0.826053 0
M  V30 4332 H 415.119 2.39268 2.85625 0
M  V30 4333 H 415.232 4.19647 2.31157 0
M  V30 4334 H 413.596 2.18264 1.31275 0
M  V30 4335 H 414.379 3.42733 0.197241 0
M  V30 4336 N 416.824 -0.551391 1.4764 0
M  V30 4337 C 418.072 -1.30572 1.54258 0
M  V30 4338 C 418.393 -1.93877 0.208963 0
M  V30 4339 O 417.663 -1.80234 -0.767619 0
M  V30 4340 H 416.243 -0.484894 0.568231 0
M  V30 4341 H 418.905 -0.643402 1.83974 0
M  V30 4342 H 418.001 -2.09621 2.31226 0
M  V30 4343 N 418.302 -1.35869 -0.798587 0
M  V30 4344 C 419.55 -1.29332 -1.55298 0
M  V30 4345 C 419.871 0.129729 -1.94568 0
M  V30 4346 O 419.141 1.06796 -1.6423 0
M  V30 4347 H 417.721 -0.475737 -0.57592 0
M  V30 4348 H 420.383 -1.70062 -0.952093 0
M  V30 4349 H 419.479 -1.91458 -2.46476 0
M  V30 4350 N 419.78 1.02168 -1.19998 0
M  V30 4351 C 421.01 1.79036 -1.031 0
M  V30 4352 C 421.418 1.84409 0.423078 0
M  V30 4353 O 420.761 1.29228 1.30559 0
M  V30 4354 C 420.823 3.25185 -1.53281 0
M  V30 4355 C 420.487 3.43431 -3.01503 0
M  V30 4356 C 421.484 3.33063 -3.99206 0
M  V30 4357 C 419.169 3.69412 -3.40353 0
M  V30 4358 C 421.163 3.48413 -5.33748 0
M  V30 4359 C 418.85 3.84406 -4.75053 0
M  V30 4360 C 419.848 3.7391 -5.71559 0
M  V30 4361 O 419.536 3.88452 -7.03818 0
M  V30 4362 H 419.268 0.570043 -0.363355 0
M  V30 4363 H 421.822 1.29524 -1.59414 0
M  V30 4364 H 420.052 3.75756 -0.913483 0
M  V30 4365 H 421.741 3.83671 -1.32481 0
M  V30 4366 H 422.507 3.12934 -3.70537 0
M  V30 4367 H 418.386 3.76671 -2.65782 0
M  V30 4368 H 421.93 3.40137 -6.09059 0
M  V30 4369 H 417.827 4.04035 -5.03415 0
M  V30 4370 H 418.595 4.055 -7.10993 0
M  V30 4371 N 421.258 1.00505 1.21394 0
M  V30 4372 C 422.206 0.558623 2.25792 0
M  V30 4373 C 423.2 -0.396848 1.64686 0
M  V30 4374 O 424.406 -0.268035 1.77993 0
M  V30 4375 H 420.781 0.1623 0.734277 0
M  V30 4376 H 422.752 1.4503 2.60785 0
M  V30 4377 C 421.501 -0.0989574 3.47559 0
M  V30 4378 H 420.824 0.627225 3.94849 0
M  V30 4379 H 422.264 -0.3746 4.22342 0
M  V30 4380 C 420.723 -1.33817 3.09184 0
M  V30 4381 O 421.253 -2.43252 3.19674 0
M  V30 4382 N 419.459 -1.21793 2.63846 0
M  V30 4383 H 419.006 -0.32746 2.5551 0
M  V30 4384 H 418.964 -2.04809 2.38539 0
M  V30 4385 N 422.737 -1.36956 0.779787 0
M  V30 4386 C 423.667 -2.32761 0.185651 0
M  V30 4387 C 424.648 -1.56177 -0.673989 0
M  V30 4388 O 425.833 -1.84378 -0.609797 0
M  V30 4389 C 422.963 -3.40418 -0.687964 0
M  V30 4390 C 421.917 -4.27941 0.0710102 0
M  V30 4391 C 421.243 -5.26681 -0.922573 0
M  V30 4392 C 422.543 -5.07006 1.25467 0
M  V30 4393 H 424.237 -2.82698 0.986008 0
M  V30 4394 H 421.783 -1.3592 0.475592 0
M  V30 4395 H 423.736 -4.06423 -1.11348 0
M  V30 4396 H 422.46 -2.89025 -1.52093 0
M  V30 4397 H 421.119 -3.63478 0.47739 0
M  V30 4398 H 420.767 -4.71565 -1.7503 0
M  V30 4399 H 420.467 -5.86103 -0.419237 0
M  V30 4400 H 421.991 -5.9556 -1.34686 0
M  V30 4401 H 423.405 -5.66105 0.905401 0
M  V30 4402 H 421.802 -5.75793 1.69063 0
M  V30 4403 H 422.872 -4.3921 2.05481 0
M  V30 4404 N 424.215 -0.530993 -1.48385 0
M  V30 4405 C 425.461 0.00274135 -2.028 0
M  V30 4406 C 425.794 1.33838 -1.40716 0
M  V30 4407 O 425.069 1.86465 -0.553277 0
M  V30 4408 C 425.352 0.123676 -3.59888 0
M  V30 4409 C 425.205 -1.2372 -4.3245 0
M  V30 4410 C 426.524 0.849967 -4.31814 0
M  V30 4411 H 423.643 -0.000477758 -0.737 0
M  V30 4412 H 426.285 -0.688217 -1.77098 0
M  V30 4413 H 424.435 0.712157 -3.81917 0
M  V30 4414 H 426.107 -1.86687 -4.21836 0
M  V30 4415 H 424.35 -1.81882 -3.93829 0
M  V30 4416 H 425.021 -1.10557 -5.40815 0
M  V30 4417 H 427.497 0.350572 -4.14621 0
M  V30 4418 H 426.373 0.903486 -5.41413 0
M  V30 4419 H 426.634 1.90047 -3.99167 0
M  V30 4420 N 425.693 1.55336 -0.266172 0
M  V30 4421 C 426.941 1.99003 0.35246 0
M  V30 4422 C 427.262 1.15591 1.57047 0
M  V30 4423 O 426.532 0.243268 1.94384 0
M  V30 4424 H 425.112 0.735025 0.133217 0
M  V30 4425 H 427.774 1.91367 -0.369434 0
M  V30 4426 H 426.87 3.05289 0.648453 0
M  V30 4427 N 427.171 -0.0066808 1.57599 0
M  V30 4428 C 428.101 -0.999296 2.11036 0
M  V30 4429 C 429.082 -1.36278 1.01795 0
M  V30 4430 O 430.267 -1.4477 1.29442 0
M  V30 4431 C 427.397 -2.29328 2.60818 0
M  V30 4432 C 426.351 -2.07159 3.74525 0
M  V30 4433 C 425.677 -3.42512 4.10596 0
M  V30 4434 C 426.977 -1.43959 5.02069 0
M  V30 4435 H 428.671 -0.554382 2.94223 0
M  V30 4436 H 426.217 -0.265221 1.41536 0
M  V30 4437 H 428.17 -2.99117 2.96828 0
M  V30 4438 H 426.894 -2.7592 1.74745 0
M  V30 4439 H 425.553 -1.39797 3.38899 0
M  V30 4440 H 425.201 -3.86795 3.21556 0
M  V30 4441 H 424.901 -3.28498 4.87199 0
M  V30 4442 H 426.425 -4.13628 4.4916 0
M  V30 4443 H 427.839 -2.03696 5.35893 0
M  V30 4444 H 426.236 -1.40452 5.83432 0
M  V30 4445 H 427.306 -0.407992 4.83181 0
M  V30 4446 N 428.649 -1.55105 -0.279332 0
M  V30 4447 C 429.599 -1.83937 -1.34727 0
M  V30 4448 C 430.583 -0.69785 -1.44979 0
M  V30 4449 O 431.775 -0.95904 -1.48766 0
M  V30 4450 C 428.904 -2.1092 -2.70864 0
M  V30 4451 C 427.99 -3.31314 -2.64748 0
M  V30 4452 N 428.381 -4.51371 -2.2825 0
M  V30 4453 C 426.679 -3.33777 -2.95819 0
M  V30 4454 C 427.38 -5.33447 -2.31969 0
M  V30 4455 N 426.356 -4.71697 -2.7019 0
M  V30 4456 H 430.158 -2.74309 -1.05506 0
M  V30 4457 H 427.672 -1.54896 -0.487959 0
M  V30 4458 H 429.669 -2.2973 -3.47893 0
M  V30 4459 H 428.329 -1.21828 -3.00979 0
M  V30 4460 H 429.34 -4.77584 -2.00335 0
M  V30 4461 H 426.017 -2.54858 -3.30687 0
M  V30 4462 H 427.407 -6.39424 -2.06365 0
M  V30 4463 N 430.127 0.543554 -1.4793 0
M  V30 4464 C 431.543 0.870806 -1.3375 0
M  V30 4465 C 431.743 1.9864 -0.338261 0
M  V30 4466 O 430.799 2.51305 0.245371 0
M  V30 4467 C 432.112 1.25114 -2.73435 0
M  V30 4468 C 433.66 1.3618 -2.81823 0
M  V30 4469 C 434.135 1.77563 -4.22179 0
M  V30 4470 N 435.626 1.8469 -4.24787 0
M  V30 4471 C 436.361 2.18067 -5.30315 0
M  V30 4472 N 435.857 2.49963 -6.46135 0
M  V30 4473 N 437.65 2.18958 -5.17701 0
M  V30 4474 H 429.801 -0.19275 -2.11524 0
M  V30 4475 H 432.064 -0.0235777 -0.947707 0
M  V30 4476 H 431.77 0.50514 -3.48053 0
M  V30 4477 H 431.644 2.20431 -3.06088 0
M  V30 4478 H 434.031 2.09859 -2.07468 0
M  V30 4479 H 434.112 0.390169 -2.52807 0
M  V30 4480 H 433.756 1.04449 -4.97044 0
M  V30 4481 H 433.686 2.75753 -4.48629 0
M  V30 4482 H 436.177 1.62372 -3.41239 0
M  V30 4483 H 436.49 2.74497 -7.22406 0
M  V30 4484 H 434.835 2.47513 -6.49432 0
M  V30 4485 H 438.026 1.93488 -4.2624 0
M  V30 4486 H 438.199 2.44639 -6.00047 0
M  V30 4487 N 431.605 1.3629 0.791371 0
M  V30 4488 C 432.568 1.30309 1.88553 0
M  V30 4489 C 433.568 0.211204 1.59407 0
M  V30 4490 O 434.758 0.465865 1.67855 0
M  V30 4491 C 431.89 1.01956 3.25297 0
M  V30 4492 H 433.083 2.27614 1.95273 0
M  V30 4493 H 430.636 1.21035 0.988953 0
M  V30 4494 H 431.371 0.050998 3.2426 0
M  V30 4495 H 431.156 1.80968 3.4784 0
M  V30 4496 H 432.646 1.0037 4.05359 0
M  V30 4497 N 433.083 -1.0153 1.20538 0
M  V30 4498 C 434.308 -1.79283 1.04271 0
M  V30 4499 C 434.733 -1.8372 -0.403544 0
M  V30 4500 O 434.091 -1.27321 -1.2907 0
M  V30 4501 C 434.139 -3.21535 1.63241 0
M  V30 4502 O 433.243 -4.03099 0.870908 0
M  V30 4503 H 432.584 -0.55293 0.367647 0
M  V30 4504 H 435.114 -1.27696 1.59859 0
M  V30 4505 H 435.124 -3.72243 1.6703 0
M  V30 4506 H 433.799 -3.1762 2.68497 0
M  V30 4507 H 432.376 -3.61693 0.907323 0
M  V30 4508 N 434.561 -1.01147 -1.20859 0
M  V30 4509 C 435.809 -0.696486 -1.89719 0
M  V30 4510 C 436.13 0.775788 -1.78904 0
M  V30 4511 O 435.4 1.55759 -1.18811 0
M  V30 4512 H 433.98 -0.254628 -0.702263 0
M  V30 4513 H 436.642 -1.28197 -1.46804 0
M  V30 4514 H 435.738 -0.975357 -2.96468 0
M  V30 4515 N 436.039 1.36541 -0.78704 0
M  V30 4516 C 437.455 1.52571 -0.46844 0
M  V30 4517 C 437.655 1.7415 1.01361 0
M  V30 4518 O 436.711 1.77163 1.79915 0
M  V30 4519 C 438.024 2.71299 -1.29682 0
M  V30 4520 C 439.572 2.85169 -1.29027 0
M  V30 4521 C 440.047 4.06898 -2.10233 0
M  V30 4522 N 441.538 4.1404 -2.07666 0
M  V30 4523 C 442.273 5.07301 -2.67271 0
M  V30 4524 N 441.769 6.06021 -3.35724 0
M  V30 4525 N 443.562 4.99898 -2.57018 0
M  V30 4526 H 435.713 1.20788 -1.74711 0
M  V30 4527 H 437.976 0.589364 -0.742532 0
M  V30 4528 H 437.682 2.61868 -2.34773 0
M  V30 4529 H 437.556 3.6539 -0.936479 0
M  V30 4530 H 439.943 2.94062 -0.247284 0
M  V30 4531 H 440.024 1.91992 -1.69035 0
M  V30 4532 H 439.668 3.98766 -3.1456 0
M  V30 4533 H 439.598 4.99218 -1.67597 0
M  V30 4534 H 442.089 3.43357 -1.57843 0
M  V30 4535 H 442.402 6.73741 -3.78541 0
M  V30 4536 H 440.747 6.06253 -3.39826 0
M  V30 4537 H 443.938 4.21724 -2.03142 0
M  V30 4538 H 444.111 5.72392 -3.03761 0
M  V30 4539 N 437.518 0.538854 1.48102 0
M  V30 4540 C 438.451 -0.266495 2.26639 0
M  V30 4541 C 439.429 -0.93687 1.32897 0
M  V30 4542 O 440.613 -0.959507 1.62252 0
M  V30 4543 C 437.74 -1.37814 3.09394 0
M  V30 4544 C 436.786 -0.818247 4.18577 0
M  V30 4545 S 437.619 0.320848 5.34538 0
M  V30 4546 C 438.775 -0.793059 6.20855 0
M  V30 4547 H 439.008 0.399994 2.94597 0
M  V30 4548 H 436.541 0.324808 1.50945 0
M  V30 4549 H 438.499 -2.01488 3.57649 0
M  V30 4550 H 437.16 -2.01639 2.40833 0
M  V30 4551 H 436.353 -1.65247 4.7614 0
M  V30 4552 H 435.955 -0.258036 3.73109 0
M  V30 4553 H 438.247 -1.68961 6.56093 0
M  V30 4554 H 439.19 -0.255204 7.0764 0
M  V30 4555 H 439.598 -1.07746 5.54122 0
M  V30 4556 N 438.996 -1.55193 0.274407 0
M  V30 4557 C 440.226 -2.03692 -0.345442 0
M  V30 4558 C 440.634 -1.15224 -1.50067 0
M  V30 4559 O 439.977 -0.164749 -1.8296 0
M  V30 4560 C 440.039 -3.48325 -0.88939 0
M  V30 4561 C 439.703 -4.56794 0.137115 0
M  V30 4562 C 440.7 -5.11028 0.956378 0
M  V30 4563 C 438.385 -5.01568 0.27115 0
M  V30 4564 C 440.379 -6.08552 1.89587 0
M  V30 4565 C 438.066 -5.98918 1.21412 0
M  V30 4566 C 439.064 -6.52291 2.02498 0
M  V30 4567 O 438.752 -7.47738 2.952 0
M  V30 4568 H 438.484 -0.670893 -0.0829332 0
M  V30 4569 H 441.038 -2.01387 0.404056 0
M  V30 4570 H 439.268 -3.47867 -1.68895 0
M  V30 4571 H 440.957 -3.80167 -1.42225 0
M  V30 4572 H 441.723 -4.7725 0.863559 0
M  V30 4573 H 437.602 -4.5967 -0.349987 0
M  V30 4574 H 441.146 -6.50137 2.52918 0
M  V30 4575 H 437.043 -6.32114 1.30776 0
M  V30 4576 H 437.811 -7.65451 2.89874 0
M  V30 4577 N 440.474 -0.00167713 -1.576 0
M  V30 4578 C 441.72 0.683832 -1.90923 0
M  V30 4579 C 442.053 1.7333 -0.875799 0
M  V30 4580 O 441.328 1.94215 0.10525 0
M  V30 4581 C 441.611 1.32543 -3.3482 0
M  V30 4582 C 441.464 0.287387 -4.48881 0
M  V30 4583 C 442.783 2.25114 -3.78169 0
M  V30 4584 H 439.902 0.247125 -0.694333 0
M  V30 4585 H 442.544 -0.0533149 -1.89925 0
M  V30 4586 H 440.694 1.95372 -3.35801 0
M  V30 4587 H 442.366 -0.341346 -4.60035 0
M  V30 4588 H 440.609 -0.39017 -4.32042 0
M  V30 4589 H 441.28 0.775393 -5.46527 0
M  V30 4590 H 443.756 1.723 -3.7875 0
M  V30 4591 H 442.632 2.66971 -4.79602 0
M  V30 4592 H 442.893 3.13092 -3.12131 0
M  V30 4593 N 441.952 1.55251 0.271103 0
M  V30 4594 C 443.199 1.75946 1.00245 0
M  V30 4595 C 443.527 0.561611 1.86215 0
M  V30 4596 O 442.782 -0.455832 1.90317 0
M  V30 4597 C 443.081 3.01879 1.91321 0
M  V30 4598 C 442.747 4.34337 1.21086 0
M  V30 4599 C 441.409 4.70338 1.01666 0
M  V30 4600 C 443.761 5.16325 0.71119 0
M  V30 4601 C 441.089 5.8588 0.310099 0
M  V30 4602 C 443.441 6.32597 0.0182157 0
M  V30 4603 C 442.105 6.67236 -0.18768 0
M  V30 4604 H 441.375 0.643833 0.366824 0
M  V30 4605 H 444.022 1.89521 0.27458 0
M  V30 4606 H 442.327 2.83212 2.70736 0
M  V30 4607 H 444.024 3.15088 2.48033 0
M  V30 4608 H 440.614 4.06043 1.37213 0
M  V30 4609 H 444.798 4.88987 0.848844 0
M  V30 4610 H 440.054 6.1124 0.139873 0
M  V30 4611 H 444.228 6.9538 -0.376711 0
M  V30 4612 H 441.855 7.56618 -0.73715 0
M  V30 4613 N 443.43 -0.535701 1.48216 0
M  V30 4614 C 444.363 -1.65726 1.56876 0
M  V30 4615 C 445.341 -1.57094 0.419542 0
M  V30 4616 O 446.525 -1.77648 0.630352 0
M  V30 4617 C 443.652 -3.04096 1.49142 0
M  V30 4618 C 442.698 -3.31105 2.68834 0
M  V30 4619 S 443.531 -3.18001 4.30854 0
M  V30 4620 C 444.687 -4.58828 4.25709 0
M  V30 4621 H 444.92 -1.58129 2.51759 0
M  V30 4622 H 442.453 -0.718218 1.36678 0
M  V30 4623 H 444.411 -3.839 1.45366 0
M  V30 4624 H 443.072 -3.09139 0.556067 0
M  V30 4625 H 442.265 -4.32033 2.59545 0
M  V30 4626 H 441.867 -2.58961 2.69843 0
M  V30 4627 H 444.159 -5.5023 3.95289 0
M  V30 4628 H 445.102 -4.73172 5.26796 0
M  V30 4629 H 445.51 -4.37883 3.56257 0
M  V30 4630 N 444.908 -1.36708 -0.784132 0
M  V30 4631 C 445.858 -1.2799 -1.88686 0
M  V30 4632 C 446.842 -0.170282 -1.59996 0
M  V30 4633 O 448.034 -0.403571 -1.72338 0
M  V30 4634 C 445.163 -1.07674 -3.25977 0
M  V30 4635 C 444.249 -2.23127 -3.60659 0
M  V30 4636 N 444.64 -3.48467 -3.66612 0
M  V30 4637 C 442.938 -2.15009 -3.90752 0
M  V30 4638 C 443.639 -4.24525 -3.97685 0
M  V30 4639 N 442.615 -3.53524 -4.12943 0
M  V30 4640 H 446.417 -2.22927 -1.91522 0
M  V30 4641 H 443.931 -1.29503 -0.979933 0
M  V30 4642 H 445.928 -0.995151 -4.04849 0
M  V30 4643 H 444.588 -0.13643 -3.24413 0
M  V30 4644 H 445.599 -3.82534 -3.49125 0
M  V30 4645 H 442.276 -1.28963 -3.97083 0
M  V30 4646 H 443.666 -5.32944 -4.0917 0
M  V30 4647 N 446.386 1.0089 -1.21074 0
M  V30 4648 C 447.797 1.56056 -1.02486 0
M  V30 4649 C 448.148 1.91728 0.416506 0
M  V30 4650 O 447.273 1.73066 1.29912 0
M  V30 4651 C 447.868 2.83563 -1.85411 0
M  V30 4652 C 446.427 3.3523 -1.71166 0
M  V30 4653 C 445.574 2.0846 -1.82865 0
M  V30 4654 H 448.525 0.831818 -1.35154 0
M  V30 4655 H 448.546 3.55286 -1.36205 0
M  V30 4656 H 448.058 2.57569 -2.9031 0
M  V30 4657 H 446.159 3.66167 -0.689361 0
M  V30 4658 H 446.272 4.06913 -2.52901 0
M  V30 4659 H 444.636 2.21275 -1.26132 0
M  V30 4660 H 445.419 1.84883 -2.89263 0
M  V30 4661 N 447.864 1.01787 1.20321 0
M  V30 4662 C 449.141 0.622978 1.85414 0
M  V30 4663 C 449.521 -0.898887 1.91006 0
M  V30 4664 O 448.869 -1.79112 1.41884 0
M  V30 4665 C 449.079 1.27226 3.24984 0
M  V30 4666 C 450.427 1.3885 4.01255 0
M  V30 4667 O 451.451 1.22857 3.34342 0
M  V30 4668 O 450.31 1.64705 5.2109 0
M  V30 4669 H 447.404 0.215116 0.798533 0
M  V30 4670 H 449.95 1.11533 1.27901 0
M  V30 4671 H 448.722 2.31209 3.15687 0
M  V30 4672 H 448.345 0.767069 3.90131 0
M  V30 4673 N 449.342 -1.36122 0.79427 0
M  V30 4674 C 450.59 -1.98718 0.368177 0
M  V30 4675 C 450.911 -1.63345 -1.06506 0
M  V30 4676 O 450.181 -0.909825 -1.73491 0
M  V30 4677 H 448.761 -0.735038 0.133146 0
M  V30 4678 H 451.423 -1.66239 1.01739 0
M  V30 4679 H 450.519 -3.08633 0.463923 0
M  V30 4680 N 450.82 -0.546701 -1.47814 0
M  V30 4681 C 451.767 0.206854 -2.29871 0
M  V30 4682 C 452.737 0.918235 -1.38411 0
M  V30 4683 O 453.922 0.915991 -1.67375 0
M  V30 4684 C 451.062 1.23746 -3.22151 0
M  V30 4685 C 450.175 0.533216 -4.28697 0
M  V30 4686 C 449.31 1.5482 -5.08138 0
M  V30 4687 C 448.349 0.828347 -6.06469 0
M  V30 4688 N 447.486 1.78966 -6.78908 0
M  V30 4689 H 452.326 -0.499037 -2.93792 0
M  V30 4690 H 449.863 -0.25793 -1.44821 0
M  V30 4691 H 451.821 1.84746 -3.74065 0
M  V30 4692 H 450.451 1.91151 -2.60117 0
M  V30 4693 H 449.503 -0.191089 -3.7992 0
M  V30 4694 H 450.815 -0.0311987 -4.9879 0
M  V30 4695 H 449.969 2.23202 -5.6415 0
M  V30 4696 H 448.708 2.14652 -4.37922 0
M  V30 4697 H 447.713 0.130539 -5.49645 0
M  V30 4698 H 448.938 0.235907 -6.7869 0
M  V30 4699 H 446.884 2.37675 -6.1143 0
M  V30 4700 H 446.801 1.27712 -7.45135 0
M  V30 4701 H 448.069 2.46496 -7.395 0
M  V30 4702 N 452.299 1.55045 -0.282633 0
M  V30 4703 C 453.209 2.26491 0.61147 0
M  V30 4704 C 454.225 1.29348 1.16384 0
M  V30 4705 O 455.401 1.62298 1.19253 0
M  V30 4706 C 452.466 2.97779 1.77563 0
M  V30 4707 C 451.527 4.10418 1.25919 0
M  V30 4708 C 450.76 4.78297 2.36786 0
M  V30 4709 O 450.983 4.45426 3.56303 0
M  V30 4710 O 449.917 5.66089 2.04517 0
M  V30 4711 H 453.743 3.03683 0.0324615 0
M  V30 4712 H 451.328 1.49317 -0.0497576 0
M  V30 4713 H 453.21 3.42554 2.45427 0
M  V30 4714 H 451.885 2.23498 2.34159 0
M  V30 4715 H 450.792 3.70082 0.546797 0
M  V30 4716 H 452.125 4.86622 0.738887 0
M  V30 4717 N 453.777 0.010035 1.57597 0
M  V30 4718 C 455.025 -0.671371 1.90623 0
M  V30 4719 C 455.346 -1.73753 0.885151 0
M  V30 4720 O 454.616 -1.95752 -0.0760611 0
M  V30 4721 H 453.196 -0.250968 0.703579 0
M  V30 4722 H 455.858 0.0533325 1.94827 0
M  V30 4723 H 454.954 -1.13626 2.90681 0
M  V30 4724 N 455.255 -1.55392 -0.262866 0
M  V30 4725 C 456.483 -1.80513 -1.01108 0
M  V30 4726 C 456.898 -0.583533 -1.79556 0
M  V30 4727 O 456.255 0.447585 -1.76926 0
M  V30 4728 C 456.306 -3.03648 -1.96164 0
M  V30 4729 O 456.027 -4.2109 -1.20893 0
M  V30 4730 C 457.528 -3.41448 -2.82715 0
M  V30 4731 H 454.748 -0.601079 -0.298236 0
M  V30 4732 H 457.292 -2.02425 -0.290582 0
M  V30 4733 H 455.447 -2.83832 -2.63663 0
M  V30 4734 H 455.861 -4.90771 -1.85051 0
M  V30 4735 H 457.335 -4.30751 -3.45192 0
M  V30 4736 H 457.812 -2.61308 -3.53008 0
M  V30 4737 H 458.418 -3.63559 -2.20693 0
M  V30 4738 N 456.733 0.527833 -1.48498 0
M  V30 4739 C 457.683 1.62844 -1.5958 0
M  V30 4740 C 458.667 1.54397 -0.452809 0
M  V30 4741 O 459.859 1.62381 -0.704364 0
M  V30 4742 C 456.988 3.01557 -1.64067 0
M  V30 4743 C 456.074 3.151 -2.83853 0
M  V30 4744 N 456.465 2.9861 -4.08247 0
M  V30 4745 C 454.763 3.46158 -2.8123 0
M  V30 4746 C 455.464 3.15626 -4.88626 0
M  V30 4747 N 454.44 3.43298 -4.21483 0
M  V30 4748 H 458.242 1.48708 -2.53502 0
M  V30 4749 H 455.756 0.733343 -1.44899 0
M  V30 4750 H 457.753 3.8062 -1.70101 0
M  V30 4751 H 456.413 3.16783 -0.712636 0
M  V30 4752 H 457.424 2.75329 -4.3865 0
M  V30 4753 H 454.101 3.67728 -1.97692 0
M  V30 4754 H 455.491 3.07596 -5.97356 0
M  V30 4755 N 458.211 1.37122 0.776871 0
M  V30 4756 C 459.158 1.3247 1.88998 0
M  V30 4757 C 460.128 0.191143 1.64997 0
M  V30 4758 O 461.313 0.379683 1.86984 0
M  V30 4759 C 458.453 1.13241 3.25992 0
M  V30 4760 C 457.566 2.35782 3.61982 0
M  V30 4761 C 456.701 2.09465 4.88158 0
M  V30 4762 C 455.74 3.279 5.16864 0
M  V30 4763 N 454.877 3.01167 6.34226 0
M  V30 4764 H 459.717 2.27642 1.9231 0
M  V30 4765 H 457.254 1.13125 0.94027 0
M  V30 4766 H 459.212 1.00115 4.0501 0
M  V30 4767 H 457.842 0.217186 3.22069 0
M  V30 4768 H 456.894 2.59666 2.77989 0
M  V30 4769 H 458.206 3.24125 3.79137 0
M  V30 4770 H 457.36 1.93341 5.75069 0
M  V30 4771 H 456.099 1.18452 4.73097 0
M  V30 4772 H 455.104 3.44569 4.2843 0
M  V30 4773 H 456.329 4.19757 5.33836 0
M  V30 4774 H 454.275 2.12779 6.20533 0
M  V30 4775 H 454.192 3.83052 6.51772 0
M  V30 4776 H 455.46 2.88649 7.24087 0
M  V30 4777 N 459.689 -1.00246 1.21608 0
M  V30 4778 C 460.936 -1.74061 1.03485 0
M  V30 4779 C 461.264 -1.89658 -0.431308 0
M  V30 4780 O 460.519 -1.42976 -1.33627 0
M  V30 4781 C 460.818 -3.15448 1.68009 0
M  V30 4782 C 460.484 -3.19792 3.17874 0
M  V30 4783 C 459.146 -3.20685 3.58768 0
M  V30 4784 C 461.498 -3.16835 4.13842 0
M  V30 4785 C 458.826 -3.16309 4.94131 0
M  V30 4786 C 461.178 -3.14001 5.49169 0
M  V30 4787 C 459.842 -3.13204 5.89457 0
M  V30 4788 H 459.112 -0.636934 0.378677 0
M  V30 4789 H 461.759 -1.17473 1.51236 0
M  V30 4790 H 460.064 -3.75284 1.12557 0
M  V30 4791 H 461.761 -3.71285 1.51487 0
M  V30 4792 H 458.351 -3.19842 2.85305 0
M  V30 4793 H 462.535 -3.15303 3.83272 0
M  V30 4794 H 457.791 -3.14032 5.24589 0
M  V30 4795 H 461.965 -3.10667 6.23265 0
M  V30 4796 H 459.592 -3.09568 6.94314 0
M  V30 4797 N 461.167 -1.02423 -1.1978 0
M  V30 4798 C 462.578 -0.748389 -1.71044 0
M  V30 4799 C 462.929 0.732398 -1.82017 0
M  V30 4800 O 462.054 1.57116 -1.48807 0
M  V30 4801 C 462.649 -1.35187 -3.1066 0
M  V30 4802 C 461.208 -1.12472 -3.59203 0
M  V30 4803 C 460.355 -1.45283 -2.36195 0
M  V30 4804 H 463.306 -1.19275 -1.04686 0
M  V30 4805 H 463.327 -0.746408 -3.73107 0
M  V30 4806 H 462.839 -2.4296 -3.02642 0
M  V30 4807 H 460.94 -0.0649983 -3.72543 0
M  V30 4808 H 461.053 -1.81016 -4.43588 0
M  V30 4809 H 459.417 -0.872034 -2.39307 0
M  V30 4810 H 460.2 -2.54129 -2.30811 0
M  V30 4811 N 462.645 1.35699 -0.801477 0
M  V30 4812 C 463.608 2.28199 -0.213994 0
M  V30 4813 C 464.608 1.49359 0.595691 0
M  V30 4814 O 465.798 1.69186 0.414921 0
M  V30 4815 C 462.93 3.33587 0.702297 0
M  V30 4816 H 464.123 2.81666 -1.02976 0
M  V30 4817 H 461.676 1.45467 -0.571759 0
M  V30 4818 H 462.411 2.85297 1.54195 0
M  V30 4819 H 462.196 3.91906 0.123484 0
M  V30 4820 H 463.686 4.02638 1.10783 0
M  V30 4821 N 464.123 0.554532 1.47522 0
M  V30 4822 C 465.086 -0.184174 2.28459 0
M  V30 4823 C 466.086 -0.845195 1.36796 0
M  V30 4824 O 467.276 -0.701467 1.59452 0
M  V30 4825 C 464.408 -1.26903 3.16399 0
M  V30 4826 H 465.601 0.526751 2.95238 0
M  V30 4827 H 463.154 0.311375 1.53167 0
M  V30 4828 H 463.889 -2.01244 2.54306 0
M  V30 4829 H 463.674 -0.799883 3.83854 0
M  V30 4830 H 465.164 -1.78794 3.77389 0
M  V30 4831 N 465.601 -1.54893 0.290851 0
M  V30 4832 C 466.511 -2.26812 -0.59945 0
M  V30 4833 C 467.527 -1.29963 -1.15696 0
M  V30 4834 O 468.703 -1.62928 -1.18391 0
M  V30 4835 C 465.768 -2.98716 -1.75982 0
M  V30 4836 C 464.829 -4.1108 -1.2374 0
M  V30 4837 C 464.062 -4.79546 -2.34246 0
M  V30 4838 O 464.285 -4.47309 -3.53936 0
M  V30 4839 O 463.219 -5.67165 -2.01512 0
M  V30 4840 H 467.045 -3.03696 -0.0163561 0
M  V30 4841 H 464.63 -1.49289 0.0576755 0
M  V30 4842 H 466.512 -3.43851 -2.43607 0
M  V30 4843 H 465.187 -2.24737 -2.3297 0
M  V30 4844 H 464.094 -3.70367 -0.527163 0
M  V30 4845 H 465.427 -4.87007 -0.71307 0
M  V30 4846 N 467.08 -0.0183926 -1.57589 0
M  V30 4847 C 468.329 0.66185 -1.90532 0
M  V30 4848 C 468.642 1.73904 -0.895366 0
M  V30 4849 O 469.848 2.47518 -1.11566 0
M  V30 4850 C 468.304 1.22844 -3.38286 0
M  V30 4851 C 467.912 0.185103 -4.47617 0
M  V30 4852 C 469.656 1.88581 -3.80312 0
M  V30 4853 C 467.563 0.762723 -5.86461 0
M  V30 4854 H 466.493 0.250972 -0.711006 0
M  V30 4855 H 469.144 -0.0819435 -1.83317 0
M  V30 4856 H 467.526 2.0235 -3.40398 0
M  V30 4857 H 468.7 -0.58671 -4.5705 0
M  V30 4858 H 467.015 -0.372889 -4.14727 0
M  V30 4859 H 469.612 2.32735 -4.81392 0
M  V30 4860 H 469.955 2.72408 -3.14801 0
M  V30 4861 H 470.488 1.15782 -3.80578 0
M  V30 4862 H 467.227 -0.0371713 -6.55489 0
M  V30 4863 H 466.747 1.50327 -5.80656 0
M  V30 4864 H 468.426 1.25576 -6.34697 0
M  V30 4865 N 468.558 1.5553 0.254621 0
M  V30 4866 C 469.804 1.7818 0.980989 0
M  V30 4867 C 470.159 0.586059 1.83257 0
M  V30 4868 O 469.452 -0.420889 1.8692 0
M  V30 4869 C 469.646 3.03891 1.88109 0
M  V30 4870 C 469.475 4.35578 1.11812 0
M  V30 4871 C 468.245 4.98497 0.826343 0
M  V30 4872 C 470.443 5.11869 0.499486 0
M  V30 4873 N 468.425 6.13888 0.0385095 0
M  V30 4874 C 469.796 6.1981 -0.153292 0
M  V30 4875 C 471.851 4.96216 0.409175 0
M  V30 4876 C 470.554 7.13801 -0.8877 0
M  V30 4877 C 472.58 5.90578 -0.311683 0
M  V30 4878 C 471.942 6.97922 -0.953129 0
M  V30 4879 H 468.041 0.704057 0.340335 0
M  V30 4880 H 470.625 1.93025 0.254855 0
M  V30 4881 H 468.796 2.90389 2.57932 0
M  V30 4882 H 470.528 3.14869 2.54244 0
M  V30 4883 H 467.283 4.59769 1.13621 0
M  V30 4884 H 467.707 6.76129 -0.343275 0
M  V30 4885 H 472.349 4.1331 0.890765 0
M  V30 4886 H 470.067 7.96214 -1.38092 0
M  V30 4887 H 473.653 5.80544 -0.382125 0
M  V30 4888 H 472.533 7.69681 -1.50203 0
M  V30 4889 N 470.036 -0.519951 1.48776 0
M  V30 4890 C 471.282 -1.27711 1.57536 0
M  V30 4891 C 471.615 -1.92547 0.252866 0
M  V30 4892 O 470.89 -1.7979 -0.742021 0
M  V30 4893 C 471.173 -2.35875 2.72094 0
M  V30 4894 C 471.026 -1.75664 4.1408 0
M  V30 4895 C 472.345 -3.37575 2.82367 0
M  V30 4896 H 469.464 -0.462971 0.573434 0
M  V30 4897 H 472.106 -0.578194 1.80989 0
M  V30 4898 H 470.256 -2.95488 2.52228 0
M  V30 4899 H 471.928 -1.20025 4.45412 0
M  V30 4900 H 470.171 -1.06154 4.20611 0
M  V30 4901 H 470.842 -2.54029 4.90075 0
M  V30 4902 H 473.318 -2.87929 3.00393 0
M  V30 4903 H 472.194 -4.1064 3.64233 0
M  V30 4904 H 472.455 -3.98743 1.90936 0
M  V30 4905 N 471.514 -1.37532 -0.769588 0
M  V30 4906 C 472.447 -1.27839 -1.8903 0
M  V30 4907 C 473.425 -0.158504 -1.61826 0
M  V30 4908 O 474.609 -0.333086 -1.85534 0
M  V30 4909 C 471.736 -0.977072 -3.24301 0
M  V30 4910 C 470.782 -2.11414 -3.70414 0
M  V30 4911 S 471.615 -3.73409 -3.83831 0
M  V30 4912 C 472.771 -3.45432 -5.21946 0
M  V30 4913 H 473.004 -2.22694 -1.96963 0
M  V30 4914 H 470.537 -1.2318 -0.930914 0
M  V30 4915 H 472.495 -0.810049 -4.02428 0
M  V30 4916 H 471.156 -0.0459701 -3.14066 0
M  V30 4917 H 470.349 -1.85837 -4.68488 0
M  V30 4918 H 469.951 -2.24141 -2.99394 0
M  V30 4919 H 472.243 -3.00554 -6.07185 0
M  V30 4920 H 473.186 -4.42841 -5.52537 0
M  V30 4921 H 473.594 -2.80311 -4.89986 0
M  V30 4922 N 472.992 0.995999 -1.22138 0
M  V30 4923 C 474.269 1.70834 -0.952642 0
M  V30 4924 C 474.649 2.04257 0.533119 0
M  V30 4925 O 473.997 1.72343 1.50034 0
M  V30 4926 C 474.207 2.96119 -1.84701 0
M  V30 4927 C 475.555 3.68962 -2.10124 0
M  V30 4928 O 476.579 3.0612 -1.82124 0
M  V30 4929 O 475.438 4.82017 -2.57531 0
M  V30 4930 H 472.532 0.745498 -0.357997 0
M  V30 4931 H 475.078 1.05262 -1.33109 0
M  V30 4932 H 473.85 2.67898 -2.85213 0
M  V30 4933 H 473.473 3.6943 -1.46995 0
M  V30 4934 N 474.47 1.03057 1.19235 0
M  V30 4935 C 475.698 0.747697 1.92917 0
M  V30 4936 C 476.113 -0.69372 1.75593 0
M  V30 4937 O 475.47 -1.47191 1.07894 0
M  V30 4938 C 475.521 1.09159 3.44625 0
M  V30 4939 O 475.242 2.47641 3.61394 0
M  V30 4940 C 476.743 0.831763 4.35427 0
M  V30 4941 H 473.963 0.273453 0.612751 0
M  V30 4942 H 476.507 1.37552 1.51327 0
M  V30 4943 H 474.662 0.508919 3.84043 0
M  V30 4944 H 475.076 2.60499 4.55237 0
M  V30 4945 H 476.55 1.12233 5.4047 0
M  V30 4946 H 477.027 -0.233769 4.38577 0
M  V30 4947 H 477.633 1.39725 4.01693 0
M  V30 4948 N 475.948 -1.35272 0.808662 0
M  V30 4949 C 476.895 -2.29764 0.218482 0
M  V30 4950 C 477.865 -1.52911 -0.648652 0
M  V30 4951 O 479.05 -1.81341 -0.593297 0
M  V30 4952 C 476.19 -3.39388 -0.625282 0
M  V30 4953 C 475.303 -4.31202 0.262516 0
M  V30 4954 C 474.438 -5.27919 -0.589451 0
M  V30 4955 C 473.477 -6.11371 0.298617 0
M  V30 4956 N 472.614 -7.0022 -0.513443 0
M  V30 4957 H 477.454 -2.79645 1.02968 0
M  V30 4958 H 474.991 -1.37629 0.519303 0
M  V30 4959 H 476.949 -4.01615 -1.12966 0
M  V30 4960 H 475.579 -2.90777 -1.40173 0
M  V30 4961 H 474.631 -3.69962 0.885013 0
M  V30 4962 H 475.943 -4.89748 0.945971 0
M  V30 4963 H 475.097 -5.95529 -1.15888 0
M  V30 4964 H 473.836 -4.69875 -1.30647 0
M  V30 4965 H 472.841 -5.42707 0.880301 0
M  V30 4966 H 474.066 -6.71494 1.01352 0
M  V30 4967 H 472.012 -6.44662 -1.21439 0
M  V30 4968 H 471.929 -7.55917 0.111922 0
M  V30 4969 H 473.197 -7.72175 -1.06608 0
M  V30 4970 N 477.426 -0.562348 -1.47226 0
M  V30 4971 C 478.654 -0.0452275 -2.06851 0
M  V30 4972 C 479.069 1.25078 -1.41424 0
M  V30 4973 O 478.426 1.75156 -0.512513 0
M  V30 4974 C 478.477 0.148674 -3.61194 0
M  V30 4975 O 478.198 -1.09602 -4.24169 0
M  V30 4976 C 479.699 0.702488 -4.37699 0
M  V30 4977 H 476.919 -0.0481775 -0.669268 0
M  V30 4978 H 479.463 -0.777223 -1.89155 0
M  V30 4979 H 477.618 0.830817 -3.78386 0
M  V30 4980 H 478.032 -0.896982 -5.16773 0
M  V30 4981 H 479.506 0.78743 -5.46355 0
M  V30 4982 H 479.983 1.71493 -4.04335 0
M  V30 4983 H 480.589 0.0558772 -4.25263 0
M  V30 4984 N 478.904 1.54736 -0.299062 0
M  V30 4985 C 479.851 2.23448 0.577899 0
M  V30 4986 C 480.821 1.21637 1.13109 0
M  V30 4987 O 482.006 1.50252 1.17597 0
M  V30 4988 C 479.146 2.9774 1.74484 0
M  V30 4989 C 478.259 4.1432 1.22323 0
M  V30 4990 C 477.394 4.76199 2.35388 0
M  V30 4991 C 476.433 5.84927 1.80351 0
M  V30 4992 N 475.57 6.4077 2.86982 0
M  V30 4993 H 480.41 2.97996 -0.0146545 0
M  V30 4994 H 477.947 1.47088 -0.0190013 0
M  V30 4995 H 479.905 3.39045 2.43114 0
M  V30 4996 H 478.535 2.25572 2.30905 0
M  V30 4997 H 477.587 3.7797 0.429249 0
M  V30 4998 H 478.899 4.92659 0.780309 0
M  V30 4999 H 478.053 5.20346 3.11969 0
M  V30 5000 H 476.792 3.97188 2.83006 0
M  V30 5001 H 475.797 5.40207 1.02259 0
M  V30 5002 H 477.022 6.65821 1.3364 0
M  V30 5003 H 474.968 5.64643 3.33938 0
M  V30 5004 H 474.885 7.1445 2.4718 0
M  V30 5005 H 476.153 6.89574 3.63466 0
M  V30 5006 N 480.382 0.0267497 1.57577 0
M  V30 5007 C 481.314 -0.984594 2.06974 0
M  V30 5008 C 482.327 -1.29032 0.992705 0
M  V30 5009 O 483.516 -1.25539 1.26895 0
M  V30 5010 C 480.616 -2.31262 2.47732 0
M  V30 5011 C 479.789 -2.1924 3.78487 0
M  V30 5012 C 478.848 -3.34956 4.05821 0
M  V30 5013 O 477.874 -3.11948 4.76106 0
M  V30 5014 N 479.076 -4.58672 3.55809 0
M  V30 5015 H 481.841 -0.563143 2.94362 0
M  V30 5016 H 479.402 -0.160061 1.61107 0
M  V30 5017 H 481.394 -3.07496 2.63112 0
M  V30 5018 H 479.964 -2.65056 1.65723 0
M  V30 5019 H 479.184 -1.27747 3.72927 0
M  V30 5020 H 480.472 -2.08409 4.64158 0
M  V30 5021 H 479.87 -4.8026 2.98942 0
M  V30 5022 H 478.427 -5.32083 3.76472 0
M  V30 5023 N 481.861 -1.55662 -0.24637 0
M  V30 5024 C 483.277 -1.48098 -0.594907 0
M  V30 5025 C 483.477 -0.717044 -1.8831 0
M  V30 5026 O 482.533 -0.246618 -2.51293 0
M  V30 5027 C 483.846 -2.92507 -0.697146 0
M  V30 5028 C 485.394 -3.02881 -0.789436 0
M  V30 5029 C 485.869 -4.48598 -0.923232 0
M  V30 5030 N 487.36 -4.52538 -0.988088 0
M  V30 5031 C 488.095 -5.62536 -1.11089 0
M  V30 5032 N 487.591 -6.82342 -1.19919 0
M  V30 5033 N 489.384 -5.50334 -1.14408 0
M  V30 5034 H 481.535 -2.0377 0.599278 0
M  V30 5035 H 483.798 -0.925145 0.20691 0
M  V30 5036 H 483.504 -3.51242 0.179396 0
M  V30 5037 H 483.378 -3.43024 -1.5689 0
M  V30 5038 H 485.765 -2.44226 -1.65643 0
M  V30 5039 H 485.846 -2.55574 0.107482 0
M  V30 5040 H 485.49 -5.07864 -0.0607927 0
M  V30 5041 H 485.42 -4.93587 -1.8352 0
M  V30 5042 H 487.911 -3.66248 -0.931167 0
M  V30 5043 H 488.224 -7.61924 -1.29197 0
M  V30 5044 H 486.569 -6.85102 -1.16876 0
M  V30 5045 H 489.76 -4.5567 -1.07158 0
M  V30 5046 H 489.933 -6.36096 -1.23634 0
M  V30 5047 N 483.339 0.512053 -1.4905 0
M  V30 5048 C 484.585 1.26874 -1.58212 0
M  V30 5049 C 484.918 1.9241 -0.263073 0
M  V30 5050 O 484.193 1.80181 0.732476 0
M  V30 5051 C 484.476 2.34428 -2.73341 0
M  V30 5052 C 484.329 1.73466 -4.15006 0
M  V30 5053 C 485.648 3.36073 -2.84154 0
M  V30 5054 H 482.767 0.459924 -0.575881 0
M  V30 5055 H 485.409 0.568587 -1.81293 0
M  V30 5056 H 483.559 2.94146 -2.53792 0
M  V30 5057 H 485.231 1.17661 -4.46042 0
M  V30 5058 H 483.474 1.03921 -4.21168 0
M  V30 5059 H 484.145 2.51426 -4.91415 0
M  V30 5060 H 486.621 2.86332 -3.01916 0
M  V30 5061 H 485.497 4.08703 -3.66406 0
M  V30 5062 H 485.758 3.97725 -1.93048 0
M  V30 5063 N 484.817 1.37938 0.762283 0
M  V30 5064 C 485.78 1.34279 1.85747 0
M  V30 5065 C 486.78 0.244969 1.58923 0
M  V30 5066 O 487.97 0.501365 1.66829 0
M  V30 5067 C 485.102 1.08833 3.23061 0
M  V30 5068 H 486.295 2.31705 1.90401 0
M  V30 5069 H 483.848 1.23105 0.963057 0
M  V30 5070 H 484.583 0.119767 3.24079 0
M  V30 5071 H 484.368 1.88306 3.43923 0
M  V30 5072 H 485.858 1.08946 4.03138 0
M  V30 5073 N 486.295 -0.989507 1.22664 0
M  V30 5074 C 487.711 -1.25395 0.987331 0
M  V30 5075 C 487.911 -1.9899 -0.317056 0
M  V30 5076 O 486.967 -2.30141 -1.03882 0
M  V30 5077 C 488.28 -2.06242 2.18826 0
M  V30 5078 C 489.828 -2.19413 2.23219 0
M  V30 5079 C 490.303 -3.03648 3.42873 0
M  V30 5080 N 491.794 -3.11234 3.43056 0
M  V30 5081 C 492.529 -3.7671 4.32293 0
M  V30 5082 N 492.025 -4.44085 5.31752 0
M  V30 5083 N 493.818 -3.73505 4.2006 0
M  V30 5084 H 485.969 -0.496212 2.06522 0
M  V30 5085 H 488.232 -0.281784 0.905153 0
M  V30 5086 H 487.938 -1.59531 3.13437 0
M  V30 5087 H 487.812 -3.06996 2.19165 0
M  V30 5088 H 490.199 -2.65336 1.29154 0
M  V30 5089 H 490.28 -1.18078 2.26917 0
M  V30 5090 H 489.924 -2.58424 4.37241 0
M  V30 5091 H 489.854 -4.05132 3.36416 0
M  V30 5092 H 492.345 -2.63287 2.71088 0
M  V30 5093 H 492.658 -4.91797 5.96117 0
M  V30 5094 H 491.003 -4.42822 5.35662 0
M  V30 5095 H 494.194 -3.20033 3.41609 0
M  V30 5096 H 494.367 -4.24253 4.8981 0
M  V30 5097 N 487.773 -1.03688 -1.18687 0
M  V30 5098 C 489.022 -0.733235 -1.879 0
M  V30 5099 C 489.335 0.741745 -1.8099 0
M  V30 5100 O 490.541 1.15875 -2.4553 0
M  V30 5101 C 488.997 -1.26127 -3.37076 0
M  V30 5102 C 488.605 -2.76461 -3.52524 0
M  V30 5103 C 490.349 -1.03398 -4.11715 0
M  V30 5104 C 488.256 -3.22642 -4.95637 0
M  V30 5105 H 487.186 -0.270584 -0.703776 0
M  V30 5106 H 489.837 -1.25222 -1.34133 0
M  V30 5107 H 488.219 -0.670165 -3.90288 0
M  V30 5108 H 489.393 -3.41296 -3.09602 0
M  V30 5109 H 487.708 -2.97559 -2.91286 0
M  V30 5110 H 490.305 -1.3542 -5.17267 0
M  V30 5111 H 490.648 0.0289246 -4.1629 0
M  V30 5112 H 491.181 -1.5895 -3.64664 0
M  V30 5113 H 487.92 -4.28296 -4.96228 0
M  V30 5114 H 487.44 -2.62539 -5.39289 0
M  V30 5115 H 489.119 -3.16444 -5.64333 0
M  V30 5116 N 489.251 1.34841 -0.815825 0
M  V30 5117 C 490.662 1.80937 -0.46029 0
M  V30 5118 C 491.013 1.67685 1.01863 0
M  V30 5119 O 490.138 1.21277 1.79223 0
M  V30 5120 C 490.733 3.28509 -0.828708 0
M  V30 5121 C 489.292 3.72712 -0.525644 0
M  V30 5122 C 488.439 2.56676 -1.04941 0
M  V30 5123 H 491.39 1.22688 -1.00664 0
M  V30 5124 H 491.411 3.80279 -0.129757 0
M  V30 5125 H 490.923 3.38122 -1.90513 0
M  V30 5126 H 489.024 3.68642 0.541666 0
M  V30 5127 H 489.137 4.67119 -1.06474 0
M  V30 5128 H 487.501 2.50302 -0.471286 0
M  V30 5129 H 488.284 2.69063 -2.13214 0
M  V30 5130 N 490.729 0.570148 1.46925 0
M  V30 5131 C 491.977 0.0508523 2.02036 0
M  V30 5132 C 492.298 -1.30885 1.44548 0
M  V30 5133 O 491.568 -1.85647 0.625453 0
M  V30 5134 H 490.148 0.0158088 0.746833 0
M  V30 5135 H 492.81 0.743086 1.80178 0
M  V30 5136 H 491.906 -0.027575 3.12088 0
M  V30 5137 N 492.207 -1.54576 0.307264 0
M  V30 5138 C 493.623 -1.59534 -0.0459251 0
M  V30 5139 C 493.823 -1.32414 -1.51884 0
M  V30 5140 O 492.879 -1.1006 -2.27251 0
M  V30 5141 C 494.192 -2.98566 0.357649 0
M  V30 5142 C 495.74 -3.11491 0.306937 0
M  V30 5143 C 496.215 -4.52842 0.685427 0
M  V30 5144 N 497.706 -4.58782 0.638203 0
M  V30 5145 C 498.441 -5.66238 0.903458 0
M  V30 5146 N 497.937 -6.81703 1.23501 0
M  V30 5147 N 499.73 -5.55937 0.830102 0
M  V30 5148 H 491.881 -1.70464 1.26712 0
M  V30 5149 H 494.144 -0.79647 0.514139 0
M  V30 5150 H 493.85 -3.23356 1.38325 0
M  V30 5151 H 493.724 -3.76117 -0.285565 0
M  V30 5152 H 496.111 -2.86446 -0.709424 0
M  V30 5153 H 496.192 -2.36081 0.984861 0
M  V30 5154 H 495.836 -4.78618 1.69963 0
M  V30 5155 H 495.766 -5.26598 -0.0146346 0
M  V30 5156 H 498.257 -3.75849 0.393138 0
M  V30 5157 H 498.57 -7.59582 1.42322 0
M  V30 5158 H 496.915 -6.8324 1.27311 0
M  V30 5159 H 500.106 -4.64608 0.570693 0
M  V30 5160 H 500.279 -6.39597 1.04019 0
M  V30 5161 N 493.685 -0.035106 -1.57561 0
M  V30 5162 C 494.962 0.681212 -1.83354 0
M  V30 5163 C 495.342 1.89986 -0.920252 0
M  V30 5164 O 494.69 2.28489 0.0226815 0
M  V30 5165 C 494.9 1.05376 -3.32712 0
M  V30 5166 C 496.248 1.44286 -3.99333 0
M  V30 5167 O 497.272 1.14656 -3.37242 0
M  V30 5168 O 496.131 1.99518 -5.08778 0
M  V30 5169 H 493.225 0.334741 -0.756226 0
M  V30 5170 H 495.771 -0.0632448 -1.69582 0
M  V30 5171 H 494.543 0.186668 -3.90854 0
M  V30 5172 H 494.166 1.85619 -3.51613 0
M  V30 5173 N 495.163 1.55791 0.238111 0
M  V30 5174 C 496.126 1.90239 1.27835 0
M  V30 5175 C 497.126 0.779552 1.4064 0
M  V30 5176 O 498.316 1.04747 1.3919 0
M  V30 5177 C 495.448 2.13859 2.65475 0
M  V30 5178 H 496.641 2.83262 0.985034 0
M  V30 5179 H 494.194 1.48818 0.477799 0
M  V30 5180 H 494.929 1.23334 2.99932 0
M  V30 5181 H 494.714 2.95643 2.57561 0
M  V30 5182 H 496.204 2.41664 3.40571 0
M  V30 5183 N 496.642 -0.504142 1.49319 0
M  V30 5184 C 497.572 -1.61473 1.68667 0
M  V30 5185 C 498.553 -1.61455 0.535378 0
M  V30 5186 O 499.738 -1.78245 0.770868 0
M  V30 5187 C 496.868 -2.99971 1.75028 0
M  V30 5188 C 495.822 -3.14854 2.89916 0
M  V30 5189 C 495.148 -4.54671 2.81387 0
M  V30 5190 C 496.448 -2.95176 4.30893 0
M  V30 5191 H 498.142 -1.45535 2.61648 0
M  V30 5192 H 495.688 -0.698711 1.25913 0
M  V30 5193 H 497.641 -3.77562 1.8715 0
M  V30 5194 H 496.365 -3.1699 0.786441 0
M  V30 5195 H 495.024 -2.39687 2.77391 0
M  V30 5196 H 494.672 -4.68562 1.82917 0
M  V30 5197 H 494.372 -4.6557 3.58494 0
M  V30 5198 H 495.896 -5.34327 2.95512 0
M  V30 5199 H 497.31 -3.62538 4.44116 0
M  V30 5200 H 495.707 -3.17549 5.09198 0
M  V30 5201 H 496.777 -1.91332 4.45556 0
M  V30 5202 N 498.12 -1.38341 -0.754957 0
M  V30 5203 C 499.345 -1.37882 -1.5493 0
M  V30 5204 C 499.77 0.0296385 -1.88077 0
M  V30 5205 O 499.128 1.01133 -1.50472 0
M  V30 5206 C 499.176 -2.23996 -2.82592 0
M  V30 5207 O 498.28 -1.65612 -3.77686 0
M  V30 5208 H 497.621 -0.470384 -0.468652 0
M  V30 5209 H 500.151 -1.82084 -0.933082 0
M  V30 5210 H 500.161 -2.37806 -3.3153 0
M  V30 5211 H 498.836 -3.26365 -2.57796 0
M  V30 5212 H 497.413 -1.60936 -3.36384 0
M  V30 5213 N 499.598 0.982988 -1.23187 0
M  V30 5214 C 500.531 2.07302 -0.953993 0
M  V30 5215 C 501.509 1.62249 0.106753 0
M  V30 5216 O 502.693 1.88481 -0.0269525 0
M  V30 5217 C 499.82 3.35873 -0.436716 0
M  V30 5218 C 498.866 3.99862 -1.48367 0
M  V30 5219 S 499.699 4.39443 -3.06023 0
M  V30 5220 C 500.855 5.7117 -2.55959 0
M  V30 5221 H 501.088 2.30554 -1.87702 0
M  V30 5222 H 498.621 1.11883 -1.06403 0
M  V30 5223 H 500.579 4.10244 -0.144872 0
M  V30 5224 H 499.24 3.10634 0.465351 0
M  V30 5225 H 498.433 4.92471 -1.07182 0
M  V30 5226 H 498.035 3.31857 -1.72473 0
M  V30 5227 H 500.327 6.47977 -1.97818 0
M  V30 5228 H 501.27 6.17194 -3.47098 0
M  V30 5229 H 501.678 5.29046 -1.96902 0
M  V30 5230 N 501.076 1.04316 1.18135 0
M  V30 5231 C 502.304 0.768117 1.92113 0
M  V30 5232 C 502.719 -0.675057 1.76319 0
M  V30 5233 O 502.076 -1.46038 1.09449 0
M  V30 5234 C 502.127 1.12808 3.43448 0
M  V30 5235 O 501.848 2.5146 3.58747 0
M  V30 5236 C 503.349 0.8779 4.3452 0
M  V30 5237 H 500.569 0.279937 0.609817 0
M  V30 5238 H 503.113 1.39149 1.49859 0
M  V30 5239 H 501.268 0.549623 3.83481 0
M  V30 5240 H 501.682 2.65313 4.52448 0
M  V30 5241 H 503.156 1.17959 5.39249 0
M  V30 5242 H 503.633 -0.187239 4.38801 0
M  V30 5243 H 504.239 1.43977 4.00188 0
M  V30 5244 N 502.554 -1.34406 0.822964 0
M  V30 5245 C 503.803 -1.97542 0.407458 0
M  V30 5246 C 504.116 -1.65973 -1.035 0
M  V30 5247 O 505.322 -2.22598 -1.55442 0
M  V30 5248 C 503.778 -3.53463 0.677623 0
M  V30 5249 C 503.386 -3.93925 2.1337 0
M  V30 5250 C 505.13 -4.23229 0.328284 0
M  V30 5251 C 503.037 -5.42759 2.34876 0
M  V30 5252 H 501.967 -0.739207 0.148623 0
M  V30 5253 H 504.618 -1.53248 1.00932 0
M  V30 5254 H 503 -3.96 0.00558965 0
M  V30 5255 H 504.174 -3.62494 2.8449 0
M  V30 5256 H 502.489 -3.37097 2.44448 0
M  V30 5257 H 505.086 -5.32659 0.466794 0
M  V30 5258 H 505.429 -4.09899 -0.727224 0
M  V30 5259 H 505.962 -3.86169 0.954896 0
M  V30 5260 H 502.701 -5.61075 3.38932 0
M  V30 5261 H 502.221 -5.75704 1.68299 0
M  V30 5262 H 503.9 -6.0944 2.17236 0
M  V30 5263 N 504.032 -0.577932 -1.46621 0
M  V30 5264 C 505.309 0.00495287 -1.95599 0
M  V30 5265 C 505.689 1.46428 -1.5206 0
M  V30 5266 O 505.037 2.1517 -0.769046 0
M  V30 5267 C 505.247 -0.162114 -3.48623 0
M  V30 5268 C 506.595 -0.0274623 -4.24591 0
M  V30 5269 O 507.619 -0.0907067 -3.56084 0
M  V30 5270 O 506.478 0.1122 -5.46385 0
M  V30 5271 H 503.572 0.0525057 -0.825332 0
M  V30 5272 H 506.118 -0.645914 -1.56927 0
M  V30 5273 H 504.89 -1.17679 -3.73185 0
M  V30 5274 H 504.513 0.525407 -3.94113 0
M  V30 5275 N 505.51 1.54411 -0.315457 0
M  V30 5276 C 506.442 2.21527 0.588067 0
M  V30 5277 C 507.455 1.21263 1.08624 0
M  V30 5278 O 508.644 1.47777 1.00121 0
M  V30 5279 C 505.744 2.85963 1.81875 0
M  V30 5280 C 504.917 4.12291 1.46063 0
M  V30 5281 C 503.976 4.60396 2.54799 0
M  V30 5282 O 503.002 5.25265 2.19283 0
M  V30 5283 N 504.204 4.33935 3.85591 0
M  V30 5284 H 506.969 2.99697 0.013414 0
M  V30 5285 H 504.53 1.61308 -0.138295 0
M  V30 5286 H 506.522 3.15071 2.53993 0
M  V30 5287 H 505.092 2.11548 2.30144 0
M  V30 5288 H 504.312 3.90036 0.571445 0
M  V30 5289 H 505.6 4.9452 1.19695 0
M  V30 5290 H 504.998 3.81996 4.17248 0
M  V30 5291 H 503.555 4.67718 4.53964 0
M  V30 5292 N 506.988 0.0434614 1.5754 0
M  V30 5293 C 507.92 -0.962586 2.08007 0
M  V30 5294 C 508.933 -1.27972 1.00634 0
M  V30 5295 O 510.122 -1.24186 1.28219 0
M  V30 5296 C 507.222 -2.28621 2.50171 0
M  V30 5297 C 506.395 -2.15214 3.80791 0
M  V30 5298 C 505.454 -3.30633 4.09351 0
M  V30 5299 O 504.48 -3.0688 4.79388 0
M  V30 5300 N 505.682 -4.54873 3.60654 0
M  V30 5301 H 508.447 -0.531891 2.94942 0
M  V30 5302 H 506.008 -0.142965 1.61268 0
M  V30 5303 H 508 -3.04689 2.66359 0
M  V30 5304 H 506.57 -2.63283 1.68525 0
M  V30 5305 H 505.79 -1.23785 3.74261 0
M  V30 5306 H 507.078 -2.03475 4.66343 0
M  V30 5307 H 506.476 -4.77063 3.04019 0
M  V30 5308 H 505.033 -5.2806 3.82094 0
M  V30 5309 N 508.466 -1.55915 -0.229846 0
M  V30 5310 C 509.882 -1.48721 -0.579166 0
M  V30 5311 C 510.082 -0.736976 -1.87539 0
M  V30 5312 O 509.138 -0.273258 -2.51017 0
M  V30 5313 C 510.451 -2.9323 -0.666082 0
M  V30 5314 C 511.999 -3.03701 -0.757267 0
M  V30 5315 C 512.474 -4.49552 -0.8756 0
M  V30 5316 N 513.965 -4.53561 -0.940035 0
M  V30 5317 C 514.7 -5.63683 -1.05116 0
M  V30 5318 N 514.196 -6.83576 -1.12675 0
M  V30 5319 N 515.989 -5.51516 -1.08565 0
M  V30 5320 H 508.14 -2.03123 0.620857 0
M  V30 5321 H 510.403 -0.922898 0.21671 0
M  V30 5322 H 510.109 -3.51032 0.21664 0
M  V30 5323 H 509.983 -3.44668 -1.53243 0
M  V30 5324 H 512.37 -2.45969 -1.63043 0
M  V30 5325 H 512.451 -2.55446 0.134583 0
M  V30 5326 H 512.095 -5.079 -0.00692351 0
M  V30 5327 H 512.025 -4.95506 -1.78274 0
M  V30 5328 H 514.516 -3.67215 -0.892269 0
M  V30 5329 H 514.829 -7.63251 -1.21109 0
M  V30 5330 H 513.174 -6.86303 -1.09603 0
M  V30 5331 H 516.365 -4.5678 -1.02319 0
M  V30 5332 H 516.538 -6.37372 -1.1688 0
M  V30 5333 N 509.944 0.496216 -1.49584 0
M  V30 5334 C 510.892 1.61805 -1.67098 0
M  V30 5335 C 511.886 1.60667 -0.536877 0
M  V30 5336 O 513.092 1.65118 -0.716654 0
M  V30 5337 H 509.467 0.53646 -0.526986 0
M  V30 5338 H 511.438 1.44187 -2.61252 0
M  V30 5339 C 510.187 2.99912 -1.75921 0
M  V30 5340 H 509.51 3.01496 -2.62565 0
M  V30 5341 H 510.95 3.77931 -1.92209 0
M  V30 5342 C 509.409 3.33092 -0.505088 0
M  V30 5343 O 509.939 4.00019 0.367085 0
M  V30 5344 N 508.145 2.88278 -0.366599 0
M  V30 5345 H 507.692 2.33989 -1.07735 0
M  V30 5346 H 507.65 3.10846 0.47142 0
M  V30 5347 N 511.423 1.38739 0.74761 0
M  V30 5348 C 512.353 1.39173 1.87492 0
M  V30 5349 C 513.334 0.256794 1.6815 0
M  V30 5350 O 514.519 0.460762 1.88655 0
M  V30 5351 C 511.649 1.22197 3.25093 0
M  V30 5352 C 510.603 2.32957 3.59047 0
M  V30 5353 C 509.929 2.01082 4.95449 0
M  V30 5354 C 511.229 3.75237 3.6331 0
M  V30 5355 H 512.923 2.3351 1.87386 0
M  V30 5356 H 510.469 1.12399 0.900134 0
M  V30 5357 H 512.422 1.21124 4.03617 0
M  V30 5358 H 511.146 0.243241 3.25693 0
M  V30 5359 H 509.805 2.33226 2.82845 0
M  V30 5360 H 509.453 1.01678 4.92616 0
M  V30 5361 H 509.153 2.75267 5.19136 0
M  V30 5362 H 510.677 2.01638 5.76346 0
M  V30 5363 H 512.091 3.76966 4.31937 0
M  V30 5364 H 510.488 4.48677 3.98509 0
M  V30 5365 H 511.558 4.07122 2.634 0
M  V30 5366 N 512.901 -0.976442 1.23707 0
M  V30 5367 C 513.834 -2.06793 0.964973 0
M  V30 5368 C 514.812 -1.62304 -0.0981472 0
M  V30 5369 O 515.996 -1.88464 0.0369477 0
M  V30 5370 C 513.123 -3.35636 0.454522 0
M  V30 5371 C 512.169 -3.99069 1.50485 0
M  V30 5372 S 513.002 -4.37814 3.0835 0
M  V30 5373 C 514.158 -5.69805 2.58985 0
M  V30 5374 H 514.391 -2.29556 1.88922 0
M  V30 5375 H 511.924 -1.11317 1.06995 0
M  V30 5376 H 513.882 -4.10162 0.166626 0
M  V30 5377 H 512.543 -3.10876 -0.448871 0
M  V30 5378 H 511.736 -4.91896 1.09792 0
M  V30 5379 H 511.338 -3.30938 1.7423 0
M  V30 5380 H 513.63 -6.46919 2.01252 0
M  V30 5381 H 514.573 -6.15345 3.50366 0
M  V30 5382 H 514.981 -5.27994 1.99705 0
M  V30 5383 N 514.379 -1.04941 -1.1758 0
M  V30 5384 C 515.309 -0.669172 -2.23706 0
M  V30 5385 C 516.29 0.331835 -1.66832 0
M  V30 5386 O 517.475 0.209988 -1.93061 0
M  V30 5387 C 514.605 -0.0404889 -3.47276 0
M  V30 5388 C 513.559 -0.965983 -4.16957 0
M  V30 5389 C 512.885 -0.201312 -5.34321 0
M  V30 5390 C 514.185 -2.28902 -4.69469 0
M  V30 5391 H 515.879 -1.55639 -2.55767 0
M  V30 5392 H 513.425 -0.749793 -1.22939 0
M  V30 5393 H 515.378 0.237298 -4.20731 0
M  V30 5394 H 514.102 0.881658 -3.14475 0
M  V30 5395 H 512.761 -1.22829 -3.45411 0
M  V30 5396 H 512.409 0.723519 -4.97769 0
M  V30 5397 H 512.109 -0.817968 -5.81879 0
M  V30 5398 H 513.633 0.0692499 -6.10561 0
M  V30 5399 H 515.047 -2.07132 -5.34574 0
M  V30 5400 H 513.444 -2.85942 -5.27596 0
M  V30 5401 H 514.514 -2.92937 -3.86414 0
M  V30 5402 N 515.857 1.33968 -0.830081 0
M  V30 5403 C 517.085 2.0228 -0.434773 0
M  V30 5404 C 517.5 1.62487 0.961419 0
M  V30 5405 O 516.857 0.833849 1.62337 0
M  V30 5406 C 516.908 3.5751 -0.535625 0
M  V30 5407 O 516.629 3.95864 -1.87679 0
M  V30 5408 C 518.13 4.43091 -0.136137 0
M  V30 5409 H 515.35 0.648151 -0.173613 0
M  V30 5410 H 517.894 1.71089 -1.12022 0
M  V30 5411 H 516.049 3.87266 0.101817 0
M  V30 5412 H 516.463 4.9056 -1.85609 0
M  V30 5413 H 517.937 5.51398 -0.257772 0
M  V30 5414 H 518.414 4.29433 0.921076 0
M  V30 5415 H 519.02 4.18677 -0.747662 0
M  V30 5416 N 517.335 0.585699 1.46312 0
M  V30 5417 C 518.265 -0.133556 2.33118 0
M  V30 5418 C 519.246 -0.880707 1.45525 0
M  V30 5419 O 520.431 -0.855579 1.74337 0
M  V30 5420 C 517.561 -1.14585 3.27853 0
M  V30 5421 C 516.515 -0.513341 4.2491 0
M  V30 5422 C 515.841 -1.63231 5.09175 0
M  V30 5423 C 517.141 0.551413 5.19381 0
M  V30 5424 H 518.835 0.59121 2.93505 0
M  V30 5425 H 516.381 0.285761 1.41136 0
M  V30 5426 H 518.334 -1.65741 3.87438 0
M  V30 5427 H 517.058 -1.90093 2.65579 0
M  V30 5428 H 515.717 -0.0228349 3.66593 0
M  V30 5429 H 515.365 -2.37713 4.43285 0
M  V30 5430 H 515.065 -1.21473 5.74907 0
M  V30 5431 H 516.589 -2.14658 5.71624 0
M  V30 5432 H 518.003 0.124804 5.73164 0
M  V30 5433 H 516.4 0.889486 5.93471 0
M  V30 5434 H 517.47 1.43655 4.63132 0
M  V30 5435 N 518.813 -1.54241 0.323641 0
M  V30 5436 C 520.09 -1.92741 -0.333181 0
M  V30 5437 C 520.47 -1.25326 -1.69872 0
M  V30 5438 O 519.818 -0.396991 -2.25025 0
M  V30 5439 C 520.028 -3.46399 -0.425322 0
M  V30 5440 C 521.376 -4.19029 -0.68557 0
M  V30 5441 O 522.4 -3.52555 -0.50824 0
M  V30 5442 O 521.259 -5.36751 -1.02767 0
M  V30 5443 H 518.353 -0.804811 -0.190286 0
M  V30 5444 H 520.899 -1.65542 0.373361 0
M  V30 5445 H 519.671 -3.87643 0.533737 0
M  V30 5446 H 519.294 -3.79704 -1.17944 0
M  V30 5447 N 520.291 -0.0518155 -1.57515 0
M  V30 5448 C 521.539 0.620595 -1.92336 0
M  V30 5449 C 521.86 1.71345 -0.930907 0
M  V30 5450 O 521.13 1.95885 0.0241341 0
M  V30 5451 H 519.71 0.232226 -0.709986 0
M  V30 5452 H 522.372 -0.104969 -1.94617 0
M  V30 5453 H 521.468 1.05879 -2.93592 0
M  V30 5454 N 521.769 1.56035 0.221574 0
M  V30 5455 C 523.017 1.78693 0.944102 0
M  V30 5456 C 523.338 0.620317 1.8487 0
M  V30 5457 O 522.608 -0.362784 1.92512 0
M  V30 5458 H 521.188 0.659082 0.351597 0
M  V30 5459 H 523.85 1.93497 0.233435 0
M  V30 5460 H 522.946 2.70837 1.55093 0
M  V30 5461 N 523.247 -0.488276 1.49845 0
M  V30 5462 C 524.195 -1.60917 1.67954 0
M  V30 5463 C 525.189 -1.6038 0.54539 0
M  V30 5464 O 526.395 -1.64736 0.7254 0
M  V30 5465 H 522.77 -0.533658 0.529824 0
M  V30 5466 H 524.741 -1.428 2.62013 0
M  V30 5467 C 523.49 -2.98975 1.77509 0
M  V30 5468 H 522.813 -3.00099 2.6416 0
M  V30 5469 H 524.253 -3.76906 1.9421 0
M  V30 5470 C 522.712 -3.3282 0.522745 0
M  V30 5471 O 523.242 -4.00208 -0.345866 0
M  V30 5472 N 521.448 -2.8808 0.381882 0
M  V30 5473 H 520.995 -2.33415 1.08974 0
M  V30 5474 H 520.953 -3.11091 -0.454929 0
M  V30 5475 N 524.725 -1.39134 -0.740242 0
M  V30 5476 C 525.971 -1.36273 -1.50192 0
M  V30 5477 C 526.304 0.0430136 -1.94152 0
M  V30 5478 O 525.579 1.00691 -1.66408 0
M  V30 5479 C 525.862 -2.33041 -2.74525 0
M  V30 5480 C 525.715 -3.82535 -2.36617 0
M  V30 5481 C 527.034 -2.27723 -3.76604 0
M  V30 5482 H 524.153 -0.496323 -0.544823 0
M  V30 5483 H 526.795 -1.70085 -0.846815 0
M  V30 5484 H 524.945 -2.04337 -3.30422 0
M  V30 5485 H 526.617 -4.21967 -1.86391 0
M  V30 5486 H 524.86 -3.99565 -1.68909 0
M  V30 5487 H 525.531 -4.45723 -3.2563 0
M  V30 5488 H 528.007 -2.53091 -3.30279 0
M  V30 5489 H 526.883 -2.97519 -4.61274 0
M  V30 5490 H 527.144 -1.28049 -4.2315 0
M  V30 5491 N 526.204 0.969867 -1.24223 0
M  V30 5492 C 527.152 2.08535 -1.03034 0
M  V30 5493 C 528.146 1.69366 0.0340379 0
M  V30 5494 O 529.352 1.79597 -0.12034 0
M  V30 5495 H 525.727 0.682313 -0.316154 0
M  V30 5496 H 527.698 2.23569 -1.97635 0
M  V30 5497 C 526.447 3.4158 -0.649509 0
M  V30 5498 H 525.77 3.72177 -1.46028 0
M  V30 5499 H 527.21 4.20536 -0.540841 0
M  V30 5500 C 525.669 3.30703 0.643194 0
M  V30 5501 O 526.199 3.64443 1.68951 0
M  V30 5502 N 524.405 2.83841 0.623095 0
M  V30 5503 H 523.952 2.56583 -0.228719 0
M  V30 5504 H 523.91 2.76946 1.48823 0
M  V30 5505 N 527.682 1.05563 1.17022 0
M  V30 5506 C 528.928 0.769074 1.87652 0
M  V30 5507 C 529.261 -0.702326 1.81055 0
M  V30 5508 O 528.536 -1.5139 1.22112 0
M  V30 5509 C 528.819 1.25492 3.37526 0
M  V30 5510 C 528.672 2.78953 3.52853 0
M  V30 5511 C 529.991 0.856919 4.31677 0
M  V30 5512 H 527.11 0.280854 0.681388 0
M  V30 5513 H 529.752 1.31027 1.37593 0
M  V30 5514 H 527.902 0.794516 3.80289 0
M  V30 5515 H 529.574 3.33146 3.19079 0
M  V30 5516 H 527.817 3.18046 2.95007 0
M  V30 5517 H 528.488 3.08011 4.58076 0
M  V30 5518 H 530.964 1.25334 3.96775 0
M  V30 5519 H 529.84 1.22443 5.35069 0
M  V30 5520 H 530.101 -0.238787 4.41455 0
M  V30 5521 N 529.16 -1.33526 0.837174 0
M  V30 5522 C 530.39 -2.01754 0.444848 0
M  V30 5523 C 530.798 -1.63149 -0.958072 0
M  V30 5524 O 530.141 -0.839827 -1.63379 0
M  V30 5525 C 530.203 -3.56228 0.483917 0
M  V30 5526 C 529.867 -4.18205 1.84265 0
M  V30 5527 C 530.864 -4.37699 2.80563 0
M  V30 5528 C 528.549 -4.54667 2.13503 0
M  V30 5529 C 530.543 -4.928 4.04261 0
M  V30 5530 C 528.23 -5.09475 3.37458 0
M  V30 5531 C 529.228 -5.28488 4.32654 0
M  V30 5532 O 528.916 -5.82132 5.54417 0
M  V30 5533 H 528.648 -0.652928 0.175104 0
M  V30 5534 H 531.202 -1.71469 1.13082 0
M  V30 5535 H 529.432 -3.85833 -0.258826 0
M  V30 5536 H 531.121 -4.05752 0.109653 0
M  V30 5537 H 531.887 -4.0988 2.59274 0
M  V30 5538 H 527.766 -4.39164 1.40201 0
M  V30 5539 H 531.31 -5.07555 4.78574 0
M  V30 5540 H 527.207 -5.36725 3.58604 0
M  V30 5541 H 527.975 -6.00548 5.56133 0
M  V30 5542 N 530.638 -0.59345 -1.46 0
M  V30 5543 C 531.915 -0.0157933 -1.95594 0
M  V30 5544 C 532.295 1.44807 -1.53604 0
M  V30 5545 O 531.643 2.14342 -0.791824 0
M  V30 5546 C 531.853 -0.199081 -3.48432 0
M  V30 5547 C 533.201 -0.0724943 -4.24538 0
M  V30 5548 O 534.225 -0.128469 -3.55968 0
M  V30 5549 O 533.084 0.0542426 -5.46473 0
M  V30 5550 H 530.178 0.043749 -0.825842 0
M  V30 5551 H 532.724 -0.662522 -1.56233 0
M  V30 5552 H 531.496 -1.21631 -3.71916 0
M  V30 5553 H 531.119 0.483576 -3.94648 0
M  V30 5554 N 532.116 1.54067 -0.331816 0
M  V30 5555 C 533.365 1.99895 0.269209 0
M  V30 5556 C 533.678 1.22371 1.52593 0
M  V30 5557 O 534.884 1.58618 2.20347 0
M  V30 5558 C 533.34 3.55972 0.530244 0
M  V30 5559 C 532.948 4.4234 -0.709901 0
M  V30 5560 C 534.692 4.10247 1.09077 0
M  V30 5561 C 532.599 5.89905 -0.420312 0
M  V30 5562 H 531.529 0.746741 0.104371 0
M  V30 5563 H 534.18 1.78014 -0.445324 0
M  V30 5564 H 532.562 3.73873 1.30518 0
M  V30 5565 H 533.736 4.36215 -1.48504 0
M  V30 5566 H 532.051 3.98997 -1.19123 0
M  V30 5567 H 534.648 5.18095 1.32219 0
M  V30 5568 H 534.991 3.62739 2.0427 0
M  V30 5569 H 535.524 3.96011 0.376824 0
M  V30 5570 H 532.263 6.41623 -1.34164 0
M  V30 5571 H 531.783 5.98962 0.316962 0
M  V30 5572 H 533.462 6.46991 -0.0331956 0
M  V30 5573 N 533.594 0.0601682 1.57485 0
M  V30 5574 C 534.819 -0.624416 1.97777 0
M  V30 5575 C 535.244 -1.63051 0.937867 0
M  V30 5576 O 534.602 -1.81036 -0.0978845 0
M  V30 5577 C 534.65 -1.27979 3.37126 0
M  V30 5578 O 533.754 -2.39556 3.35688 0
M  V30 5579 H 533.095 -0.161581 0.64404 0
M  V30 5580 H 535.625 0.131237 2.04179 0
M  V30 5581 H 535.635 -1.62937 3.74053 0
M  V30 5582 H 534.31 -0.542501 4.12347 0
M  V30 5583 H 532.887 -2.06478 3.10517 0
M  V30 5584 N 535.072 -1.5615 -0.213296 0
M  V30 5585 C 536.004 -1.89586 -1.28802 0
M  V30 5586 C 537.017 -0.784844 -1.42633 0
M  V30 5587 O 538.206 -1.06319 -1.43383 0
M  V30 5588 C 535.306 -2.09665 -2.66259 0
M  V30 5589 C 534.479 -3.40726 -2.7427 0
M  V30 5590 C 533.538 -3.50137 -3.92798 0
M  V30 5591 O 532.564 -4.23105 -3.8075 0
M  V30 5592 N 533.766 -2.81886 -5.07465 0
M  V30 5593 H 536.531 -2.82368 -1.00442 0
M  V30 5594 H 534.092 -1.56796 -0.403302 0
M  V30 5595 H 536.084 -2.13268 -3.43946 0
M  V30 5596 H 534.654 -1.23469 -2.87183 0
M  V30 5597 H 533.874 -3.4915 -1.82997 0
M  V30 5598 H 535.162 -4.27048 -2.76599 0
M  V30 5599 H 534.56 -2.22397 -5.2015 0
M  V30 5600 H 533.117 -2.91139 -5.83165 0
M  V30 5601 N 536.55 0.480323 -1.50102 0
M  V30 5602 C 537.961 1.06142 -1.53593 0
M  V30 5603 C 538.312 1.93335 -0.334055 0
M  V30 5604 O 537.437 2.09188 0.55403 0
M  V30 5605 C 538.032 1.9317 -2.78336 0
M  V30 5606 C 536.591 2.46405 -2.84538 0
M  V30 5607 C 535.738 1.24521 -2.4777 0
M  V30 5608 H 538.689 0.26333 -1.565 0
M  V30 5609 H 538.71 2.78123 -2.59669 0
M  V30 5610 H 538.222 1.29683 -3.65792 0
M  V30 5611 H 536.323 3.13472 -2.01411 0
M  V30 5612 H 536.436 2.82143 -3.87211 0
M  V30 5613 H 534.8 1.57706 -2.00003 0
M  V30 5614 H 535.583 0.627102 -3.37524 0
M  V30 5615 N 538.028 1.39524 0.732853 0
M  V30 5616 C 538.938 1.40695 1.87729 0
M  V30 5617 C 539.954 0.301496 1.71368 0
M  V30 5618 O 541.13 0.543313 1.93933 0
M  V30 5619 C 538.195 1.25098 3.23344 0
M  V30 5620 C 537.256 2.45634 3.52083 0
M  V30 5621 C 536.489 2.30772 4.81228 0
M  V30 5622 O 536.712 1.31233 5.55098 0
M  V30 5623 O 535.646 3.19799 5.09914 0
M  V30 5624 H 539.472 2.37168 1.89697 0
M  V30 5625 H 537.057 1.20663 0.880959 0
M  V30 5626 H 538.939 1.18541 4.04383 0
M  V30 5627 H 537.614 0.317209 3.22142 0
M  V30 5628 H 536.521 2.57767 2.71122 0
M  V30 5629 H 537.854 3.37712 3.58066 0
M  V30 5630 N 539.506 -0.963266 1.24736 0
M  V30 5631 C 540.917 -1.52145 1.08207 0
M  V30 5632 C 541.268 -1.93142 -0.345061 0
M  V30 5633 O 540.393 -1.77769 -1.23399 0
M  V30 5634 C 540.988 -2.76486 1.95808 0
M  V30 5635 C 539.547 -3.28646 1.8349 0
M  V30 5636 C 538.694 -2.01529 1.90476 0
M  V30 5637 H 541.645 -0.781083 1.38148 0
M  V30 5638 H 541.666 -3.49986 1.49297 0
M  V30 5639 H 541.178 -2.46617 2.99669 0
M  V30 5640 H 539.279 -3.63357 0.824787 0
M  V30 5641 H 539.392 -3.97246 2.67829 0
M  V30 5642 H 537.756 -2.16442 1.34258 0
M  V30 5643 H 538.539 -1.7402 2.95926 0
M  V30 5644 N 540.985 -1.06182 -1.16461 0
M  V30 5645 C 541.932 -0.671613 -2.20812 0
M  V30 5646 C 542.902 0.331186 -1.62765 0
M  V30 5647 O 544.087 0.22033 -1.89524 0
M  V30 5648 C 541.227 -0.063029 -3.45042 0
M  V30 5649 C 540.34 -1.11587 -4.1734 0
M  V30 5650 C 539.475 -0.473546 -5.29085 0
M  V30 5651 C 538.514 -1.51 -5.93182 0
M  V30 5652 N 537.651 -0.891118 -6.96422 0
M  V30 5653 H 542.491 -1.56589 -2.53542 0
M  V30 5654 H 540.028 -0.782951 -1.24532 0
M  V30 5655 H 541.986 0.307344 -4.16066 0
M  V30 5656 H 540.616 0.794663 -3.12866 0
M  V30 5657 H 539.668 -1.60396 -3.44931 0
M  V30 5658 H 540.98 -1.90221 -4.61104 0
M  V30 5659 H 540.134 -0.0501432 -6.06679 0
M  V30 5660 H 538.873 0.344687 -4.8648 0
M  V30 5661 H 537.878 -1.94331 -5.14311 0
M  V30 5662 H 539.103 -2.33031 -6.37866 0
M  V30 5663 H 537.049 -0.0935753 -6.55933 0
M  V30 5664 H 536.966 -1.61486 -7.38551 0
M  V30 5665 H 538.234 -0.492822 -7.77941 0
M  V30 5666 N 542.463 1.3308 -0.844243 0
M  V30 5667 C 543.393 2.3161 -0.296493 0
M  V30 5668 C 544.374 1.59215 0.598707 0
M  V30 5669 O 545.559 1.87077 0.521134 0
M  V30 5670 C 542.689 3.43313 0.524762 0
M  V30 5671 C 541.643 4.27115 -0.275106 0
M  V30 5672 C 540.969 5.30483 0.670236 0
M  V30 5673 C 542.269 5.00443 -1.49514 0
M  V30 5674 H 543.963 2.77672 -1.11976 0
M  V30 5675 H 541.509 1.33496 -0.539899 0
M  V30 5676 H 543.462 4.11273 0.918298 0
M  V30 5677 H 542.186 2.95952 1.3813 0
M  V30 5678 H 540.845 3.60787 -0.650267 0
M  V30 5679 H 540.493 4.79379 1.52332 0
M  V30 5680 H 540.193 5.87435 0.139123 0
M  V30 5681 H 541.717 6.01308 1.06117 0
M  V30 5682 H 543.131 5.61141 -1.17447 0
M  V30 5683 H 541.528 5.67071 -1.96343 0
M  V30 5684 H 542.598 4.28906 -2.26202 0
M  V30 5685 N 543.941 0.601185 1.45683 0
M  V30 5686 C 544.871 -0.108824 2.33246 0
M  V30 5687 C 545.852 -0.865223 1.46451 0
M  V30 5688 O 547.037 -0.83704 1.75235 0
M  V30 5689 C 544.167 -1.11101 3.2905 0
M  V30 5690 C 543.121 -0.468244 4.25431 0
M  V30 5691 C 542.447 -1.57822 5.10878 0
M  V30 5692 C 543.747 0.606469 5.18767 0
M  V30 5693 H 545.441 0.622306 2.92861 0
M  V30 5694 H 542.987 0.300714 1.40825 0
M  V30 5695 H 544.94 -1.61622 3.89174 0
M  V30 5696 H 543.664 -1.87265 2.67581 0
M  V30 5697 H 542.323 0.0160484 3.66596 0
M  V30 5698 H 541.971 -2.32998 4.45781 0
M  V30 5699 H 541.671 -1.15369 5.76163 0
M  V30 5700 H 543.195 -2.08583 5.73869 0
M  V30 5701 H 544.609 0.185589 5.73 0
M  V30 5702 H 543.006 0.952381 5.92494 0
M  V30 5703 H 544.076 1.48559 4.61582 0
M  V30 5704 N 545.419 -1.53889 0.339982 0
M  V30 5705 C 546.835 -1.59595 -0.0120752 0
M  V30 5706 C 547.035 -1.35605 -1.49042 0
M  V30 5707 O 546.091 -1.14856 -2.24865 0
M  V30 5708 C 547.404 -2.9774 0.420898 0
M  V30 5709 C 548.952 -3.1077 0.37294 0
M  V30 5710 C 549.427 -4.51286 0.781327 0
M  V30 5711 N 550.918 -4.57325 0.735374 0
M  V30 5712 C 551.653 -5.64194 1.02336 0
M  V30 5713 N 551.149 -6.7893 1.37933 0
M  V30 5714 N 552.942 -5.54051 0.947838 0
M  V30 5715 H 545.093 -1.67738 1.30299 0
M  V30 5716 H 547.356 -0.785385 0.530918 0
M  V30 5717 H 547.062 -3.20349 1.45152 0
M  V30 5718 H 546.936 -3.76639 -0.205721 0
M  V30 5719 H 549.323 -2.87886 -0.648505 0
M  V30 5720 H 549.404 -2.33939 1.03472 0
M  V30 5721 H 549.048 -4.74905 1.80077 0
M  V30 5722 H 548.978 -5.26511 0.0970679 0
M  V30 5723 H 551.469 -3.74931 0.472773 0
M  V30 5724 H 551.782 -7.56392 1.58402 0
M  V30 5725 H 550.127 -6.80386 1.41774 0
M  V30 5726 H 553.318 -4.63293 0.669115 0
M  V30 5727 H 553.491 -6.37246 1.17563 0
M  V30 5728 N 546.897 -0.0685191 -1.57451 0
M  V30 5729 C 548.125 0.610462 -1.97689 0
M  V30 5730 C 548.54 1.63346 -0.946758 0
M  V30 5731 O 547.897 1.82377 0.0669868 0
M  V30 5732 C 547.948 1.28196 -3.38006 0
M  V30 5733 O 547.669 0.299906 -4.37072 0
M  V30 5734 C 549.17 2.04907 -3.931 0
M  V30 5735 H 546.39 0.165689 -0.650222 0
M  V30 5736 H 548.934 -0.139953 -2.04021 0
M  V30 5737 H 547.089 1.98348 -3.32771 0
M  V30 5738 H 547.503 0.78126 -5.18649 0
M  V30 5739 H 548.977 2.47287 -4.93511 0
M  V30 5740 H 549.454 2.9043 -3.29465 0
M  V30 5741 H 550.06 1.39629 -4.01726 0
M  V30 5742 N 548.375 1.56261 0.205012 0
M  V30 5743 C 549.624 1.79236 0.925058 0
M  V30 5744 C 549.937 0.640011 1.84833 0
M  V30 5745 O 551.143 0.753809 2.60826 0
M  V30 5746 C 549.599 3.17475 1.69522 0
M  V30 5747 C 549.207 4.40482 0.817269 0
M  V30 5748 C 550.951 3.49766 2.4055 0
M  V30 5749 C 548.858 5.69744 1.58573 0
M  V30 5750 H 547.788 0.668287 0.349153 0
M  V30 5751 H 550.439 1.82629 0.178544 0
M  V30 5752 H 548.821 3.08304 2.48526 0
M  V30 5753 H 549.995 4.60752 0.0665988 0
M  V30 5754 H 548.31 4.15827 0.218316 0
M  V30 5755 H 550.907 4.43573 2.98575 0
M  V30 5756 H 551.25 2.73041 3.14252 0
M  V30 5757 H 551.783 3.60341 1.68522 0
M  V30 5758 H 548.522 6.49407 0.891679 0
M  V30 5759 H 548.042 5.53509 2.31059 0
M  V30 5760 H 549.721 6.1051 2.14212 0
M  V30 5761 N 549.853 -0.472356 1.50355 0
M  V30 5762 C 550.763 -1.59637 1.7191 0
M  V30 5763 C 551.779 -1.63247 0.602195 0
M  V30 5764 O 552.955 -1.81139 0.880369 0
M  V30 5765 C 550.02 -2.9586 1.80742 0
M  V30 5766 C 549.081 -3.02649 3.04471 0
M  V30 5767 C 548.314 -4.32374 3.12872 0
M  V30 5768 O 548.537 -5.22807 2.28099 0
M  V30 5769 O 547.471 -4.44728 4.05587 0
M  V30 5770 H 551.297 -1.44373 2.67189 0
M  V30 5771 H 548.882 -0.651717 1.34436 0
M  V30 5772 H 550.764 -3.7677 1.88739 0
M  V30 5773 H 549.439 -3.11325 0.88647 0
M  V30 5774 H 548.346 -2.20821 3.01975 0
M  V30 5775 H 549.679 -2.92119 3.9614 0
M  V30 5776 N 551.331 -1.39911 -0.725443 0
M  V30 5777 C 552.579 -1.37382 -1.48224 0
M  V30 5778 C 552.9 0.0264107 -1.94982 0
M  V30 5779 O 552.17 0.979408 -1.6966 0
M  V30 5780 H 550.75 -0.505596 -0.549892 0
M  V30 5781 H 553.412 -1.7487 -0.860608 0
M  V30 5782 H 552.508 -2.04254 -2.3598 0
M  V30 5783 N 552.809 0.956637 -1.25245 0
M  V30 5784 C 553.772 2.03457 -1.05537 0
M  V30 5785 C 554.772 1.60798 -0.00886317 0
M  V30 5786 O 555.962 1.72384 -0.250865 0
M  V30 5787 C 553.094 3.35543 -0.601965 0
M  V30 5788 H 554.287 2.22372 -2.01223 0
M  V30 5789 H 551.84 1.13344 -1.07623 0
M  V30 5790 H 552.575 3.22323 0.357584 0
M  V30 5791 H 552.36 3.67854 -1.35743 0
M  V30 5792 H 553.85 4.14769 -0.485454 0
M  V30 5793 N 554.287 1.06798 1.15896 0
M  V30 5794 C 555.25 0.687328 2.18651 0
M  V30 5795 C 556.25 -0.269559 1.58524 0
M  V30 5796 O 557.44 -0.0512627 1.74125 0
M  V30 5797 C 554.572 0.0121642 3.40898 0
M  V30 5798 H 555.765 1.59701 2.53842 0
M  V30 5799 H 553.318 0.863828 1.3026 0
M  V30 5800 H 554.053 -0.910025 3.1127 0
M  V30 5801 H 553.838 0.700309 3.85795 0
M  V30 5802 H 555.328 -0.239703 4.16911 0
M  V30 5803 N 555.766 -1.3263 0.851289 0
M  V30 5804 C 556.676 -2.32722 0.296268 0
M  V30 5805 C 557.692 -1.63901 -0.584162 0
M  V30 5806 O 558.868 -1.95465 -0.485334 0
M  V30 5807 C 555.933 -3.42942 -0.509103 0
M  V30 5808 C 554.994 -4.2746 0.397069 0
M  V30 5809 C 554.227 -5.32416 -0.36996 0
M  V30 5810 O 554.45 -5.47491 -1.6003 0
M  V30 5811 O 553.384 -6.01327 0.262493 0
M  V30 5812 H 557.21 -2.82078 1.12543 0
M  V30 5813 H 554.795 -1.36194 0.614135 0
M  V30 5814 H 556.677 -4.1017 -0.96634 0
M  V30 5815 H 555.352 -2.95781 -1.31512 0
M  V30 5816 H 554.259 -3.63053 0.902411 0
M  V30 5817 H 555.592 -4.78136 1.16818 0
M  V30 5818 N 557.244 -0.608902 -1.45362 0
M  V30 5819 C 558.207 0.0992563 -2.28985 0
M  V30 5820 C 559.207 0.793841 -1.39838 0
M  V30 5821 O 560.397 0.641804 -1.61946 0
M  V30 5822 C 557.529 1.15073 -3.20891 0
M  V30 5823 H 558.722 -0.635964 -2.93079 0
M  V30 5824 H 556.275 -0.368007 -1.51906 0
M  V30 5825 H 557.01 1.91667 -2.616 0
M  V30 5826 H 556.795 0.656867 -3.86559 0
M  V30 5827 H 558.285 1.64665 -3.83765 0
M  V30 5828 N 558.722 1.53707 -0.348139 0
M  V30 5829 C 559.947 2.05877 0.250883 0
M  V30 5830 C 560.372 1.22115 1.43072 0
M  V30 5831 O 559.73 0.235986 1.79758 0
M  V30 5832 C 559.778 3.54886 0.639416 0
M  V30 5833 O 558.882 3.73948 1.73888 0
M  V30 5834 H 558.223 0.662754 0.040653 0
M  V30 5835 H 560.753 1.98303 -0.503685 0
M  V30 5836 H 560.763 3.97601 0.915295 0
M  V30 5837 H 559.438 4.153 -0.223386 0
M  V30 5838 H 558.015 3.43134 1.45991 0
M  V30 5839 N 560.2 0.0768682 1.57412 0
M  V30 5840 C 561.13 -0.886026 2.16037 0
M  V30 5841 C 562.111 -1.30691 1.08876 0
M  V30 5842 O 563.296 -1.37705 1.36934 0
M  V30 5843 C 560.426 -2.1518 2.72608 0
M  V30 5844 C 559.38 -1.87015 3.8498 0
M  V30 5845 C 558.706 -3.20266 4.28175 0
M  V30 5846 C 560.006 -1.17143 5.08994 0
M  V30 5847 H 561.7 -0.397642 2.96748 0
M  V30 5848 H 559.246 -0.189823 1.42743 0
M  V30 5849 H 561.199 -2.82962 3.12266 0
M  V30 5850 H 559.923 -2.66269 1.89125 0
M  V30 5851 H 558.582 -1.21636 3.45833 0
M  V30 5852 H 558.23 -3.69207 3.41607 0
M  V30 5853 H 557.93 -3.0221 5.03927 0
M  V30 5854 H 559.454 -3.89237 4.70454 0
M  V30 5855 H 560.868 -1.75003 5.45937 0
M  V30 5856 H 559.265 -1.09328 5.90057 0
M  V30 5857 H 560.335 -0.151295 4.84664 0
M  V30 5858 N 561.678 -1.56367 -0.196722 0
M  V30 5859 C 562.61 -1.90941 -1.26784 0
M  V30 5860 C 563.623 -0.799928 -1.41792 0
M  V30 5861 O 564.812 -1.07833 -1.42247 0
M  V30 5862 C 561.912 -2.12477 -2.6402 0
M  V30 5863 C 561.085 -3.43616 -2.70641 0
M  V30 5864 C 560.144 -3.54284 -3.89062 0
M  V30 5865 O 559.17 -4.2712 -3.76241 0
M  V30 5866 N 560.372 -2.87252 -5.04447 0
M  V30 5867 H 563.137 -2.83417 -0.974417 0
M  V30 5868 H 560.698 -1.57215 -0.386649 0
M  V30 5869 H 562.69 -2.16904 -3.41665 0
M  V30 5870 H 561.26 -1.26508 -2.85857 0
M  V30 5871 H 560.48 -3.51072 -1.79283 0
M  V30 5872 H 561.768 -4.29958 -2.72054 0
M  V30 5873 H 561.166 -2.27901 -5.17762 0
M  V30 5874 H 559.723 -2.97308 -5.80044 0
M  V30 5875 N 563.156 0.464375 -1.50603 0
M  V30 5876 C 564.402 1.21776 -1.62168 0
M  V30 5877 C 564.735 1.91476 -0.324154 0
M  V30 5878 O 564.01 1.8242 0.674782 0
M  V30 5879 C 564.293 2.25614 -2.80661 0
M  V30 5880 C 564.146 1.60175 -4.20314 0
M  V30 5881 C 565.465 3.26862 -2.94702 0
M  V30 5882 H 562.584 0.44137 -0.590222 0
M  V30 5883 H 565.226 0.510623 -1.8301 0
M  V30 5884 H 563.376 2.85923 -2.63021 0
M  V30 5885 H 565.048 1.03411 -4.4956 0
M  V30 5886 H 563.291 0.904697 -4.24261 0
M  V30 5887 H 563.962 2.35665 -4.99165 0
M  V30 5888 H 566.438 2.76582 -3.10872 0
M  V30 5889 H 565.314 3.96839 -3.79223 0
M  V30 5890 H 565.575 3.91382 -2.05603 0
M  V30 5891 N 564.634 1.40294 0.718013 0
M  V30 5892 C 565.566 1.36281 1.84283 0
M  V30 5893 C 566.579 0.268621 1.60569 0
M  V30 5894 O 567.768 0.528798 1.70487 0
M  V30 5895 C 564.868 1.09741 3.2064 0
M  V30 5896 C 564.041 2.30767 3.71571 0
M  V30 5897 C 563.1 2.00424 4.86535 0
M  V30 5898 O 562.126 2.73268 4.99313 0
M  V30 5899 N 563.328 0.980724 5.72156 0
M  V30 5900 H 566.093 2.3322 1.88225 0
M  V30 5901 H 563.654 1.34616 0.899453 0
M  V30 5902 H 565.646 0.874322 3.95143 0
M  V30 5903 H 564.216 0.214771 3.11861 0
M  V30 5904 H 563.436 2.68921 2.88228 0
M  V30 5905 H 564.724 3.11455 4.02335 0
M  V30 5906 H 564.122 0.377375 5.6444 0
M  V30 5907 H 562.679 0.817538 6.46653 0
M  V30 5908 N 566.112 -0.949982 1.2575 0
M  V30 5909 C 567.359 -1.69515 1.10774 0
M  V30 5910 C 567.687 -1.91316 -0.350479 0
M  V30 5911 O 566.942 -1.48515 -1.27443 0
M  V30 5912 C 567.241 -3.08039 1.81237 0
M  V30 5913 C 566.907 -3.06023 3.31151 0
M  V30 5914 C 565.569 -3.0518 3.72047 0
M  V30 5915 C 567.921 -2.98998 4.26907 0
M  V30 5916 C 565.249 -2.95067 5.07102 0
M  V30 5917 C 567.601 -2.90426 5.61992 0
M  V30 5918 C 566.265 -2.87922 6.0221 0
M  V30 5919 H 565.535 -0.6203 0.405351 0
M  V30 5920 H 568.182 -1.10953 1.56082 0
M  V30 5921 H 566.487 -3.70172 1.28373 0
M  V30 5922 H 568.184 -3.64526 1.67098 0
M  V30 5923 H 564.774 -3.07453 2.98614 0
M  V30 5924 H 568.958 -2.98764 3.963 0
M  V30 5925 H 564.214 -2.915 5.37436 0
M  V30 5926 H 568.388 -2.83952 6.35881 0
M  V30 5927 H 566.015 -2.79841 7.06819 0
M  V30 5928 N 567.59 -1.07411 -1.15328 0
M  V30 5929 C 568.54 -0.664788 -2.18093 0
M  V30 5930 C 569.524 0.310395 -1.57878 0
M  V30 5931 O 570.716 0.124026 -1.76565 0
M  V30 5932 C 567.845 -0.0647822 -3.43239 0
M  V30 5933 C 566.931 -1.06514 -4.10506 0
M  V30 5934 N 567.322 -2.24491 -4.53252 0
M  V30 5935 C 565.62 -0.898613 -4.36853 0
M  V30 5936 C 566.321 -2.8796 -5.05424 0
M  V30 5937 N 565.297 -2.15622 -4.99007 0
M  V30 5938 H 569.099 -1.56333 -2.48872 0
M  V30 5939 H 566.613 -0.947393 -1.31902 0
M  V30 5940 H 568.61 0.246363 -4.16171 0
M  V30 5941 H 567.27 0.828866 -3.13943 0
M  V30 5942 H 568.281 -2.62205 -4.46619 0
M  V30 5943 H 564.958 -0.0579118 -4.1746 0
M  V30 5944 H 566.348 -3.88137 -5.48452 0
M  V30 5945 N 569.068 1.32177 -0.85831 0
M  V30 5946 C 570.479 1.79381 -0.517621 0
M  V30 5947 C 570.83 1.70841 0.964769 0
M  V30 5948 O 569.955 1.26917 1.75274 0
M  V30 5949 C 570.55 3.25706 -0.932801 0
M  V30 5950 C 569.109 3.70851 -0.643953 0
M  V30 5951 C 568.256 2.53208 -1.13054 0
M  V30 5952 H 571.207 1.19424 -1.04516 0
M  V30 5953 H 571.228 3.79673 -0.250674 0
M  V30 5954 H 570.74 3.31889 -2.01174 0
M  V30 5955 H 568.841 3.70178 0.424112 0
M  V30 5956 H 568.954 4.63495 -1.21281 0
M  V30 5957 H 567.318 2.48676 -0.550679 0
M  V30 5958 H 568.101 2.62143 -2.21666 0
M  V30 5959 N 570.547 0.616602 1.45037 0
M  V30 5960 C 571.793 0.115501 2.02471 0
M  V30 5961 C 572.126 -1.25406 1.4828 0
M  V30 5962 O 571.401 -1.82922 0.661051 0
M  V30 5963 C 571.684 0.0863588 3.59996 0
M  V30 5964 C 571.537 1.48723 4.24501 0
M  V30 5965 C 572.856 -0.596762 4.36035 0
M  V30 5966 H 569.975 0.0434461 0.735718 0
M  V30 5967 H 572.617 0.7903 1.72784 0
M  V30 5968 H 570.767 -0.488277 3.85419 0
M  V30 5969 H 572.439 2.10964 4.10234 0
M  V30 5970 H 570.682 2.04534 3.82555 0
M  V30 5971 H 571.353 1.419 5.3345 0
M  V30 5972 H 573.829 -0.10824 4.15959 0
M  V30 5973 H 572.705 -0.586289 5.4576 0
M  V30 5974 H 572.966 -1.66451 4.09569 0
M  V30 5975 N 572.025 -1.5352 0.356285 0
M  V30 5976 C 573.273 -2.00719 -0.235837 0
M  V30 5977 C 573.594 -1.24551 -1.5004 0
M  V30 5978 O 572.864 -0.356185 -1.92635 0
M  V30 5979 H 571.444 -0.741542 -0.0901366 0
M  V30 5980 H 574.106 -1.88887 0.480378 0
M  V30 5981 H 573.202 -3.08551 -0.469357 0
M  V30 5982 N 573.503 -0.0852151 -1.57369 0
M  V30 5983 C 574.751 0.579658 -1.93609 0
M  V30 5984 C 575.072 1.69332 -0.967043 0
M  V30 5985 O 574.342 1.95892 -0.0174215 0
M  V30 5986 H 572.922 0.217113 -0.714752 0
M  V30 5987 H 575.584 -0.146226 -1.94351 0
M  V30 5988 H 574.68 0.996276 -2.95771 0
M  V30 5989 N 574.981 1.5647 0.188427 0
M  V30 5990 C 576.227 1.81281 0.909124 0
M  V30 5991 C 576.56 0.66034 1.82628 0
M  V30 5992 O 575.835 -0.338737 1.91528 0
M  V30 5993 C 576.118 3.16388 1.7196 0
M  V30 5994 C 575.971 4.42137 0.826714 0
M  V30 5995 C 577.29 3.48256 2.69083 0
M  V30 5996 H 574.409 0.659457 0.329068 0
M  V30 5997 H 577.051 1.89182 0.176156 0
M  V30 5998 H 575.201 3.09784 2.34448 0
M  V30 5999 H 576.873 4.60794 0.216025 0
M  V30 6000 H 575.116 4.33594 0.133792 0
M  V30 6001 H 575.787 5.33184 1.42893 0
M  V30 6002 H 578.263 3.55203 2.16726 0
M  V30 6003 H 577.139 4.43899 3.2287 0
M  V30 6004 H 577.4 2.72088 3.48455 0
M  V30 6005 O 576.498 -0.333583 1.58017 0
M  V30 6006 H 577.189 -0.982643 1.66925 0
M  V30 END ATOM
M  V30 BEGIN BOND
M  V30 END BOND
M  V30 END CTAB
M  END
$$$$
