drugbank_target|O60939 Sodium channel subunit beta-2 (DB00243; DB00313; DB00776; DB00907; DB05541; DB13269; DB13961)
 OpenBabel12092120363D

  0  0  0     0  0            999 V3000
M  V30 BEGIN CTAB
M  V30 COUNTS 3391 3427 0 0 0
M  V30 BEGIN ATOM
M  V30 1 H -0.908 1.98254 -0.117106 0
M  V30 2 N 0 1.576 0 0
M  V30 3 C 0.933 2.03868 1.02534 0
M  V30 4 C 1.911 0.928543 1.3348 0
M  V30 5 O 3.095 1.19667 1.45644 0
M  V30 6 C 0.222 2.43627 2.35294 0
M  V30 7 C -0.732 3.65373 2.2001 0
M  V30 8 S 0.101 5.13292 1.52614 0
M  V30 9 C 1.257 5.56322 2.86805 0
M  V30 10 H 1.49 2.90518 0.631377 0
M  V30 11 H -0.977 1.52953 0.210867 0
M  V30 12 H 0.981 2.67203 3.11629 0
M  V30 13 H -0.358 1.57376 2.7183 0
M  V30 14 H -1.165 3.90944 3.18086 0
M  V30 15 H -1.563 3.418 1.51819 0
M  V30 16 H 0.729 5.58782 3.83104 0
M  V30 17 H 1.672 6.56266 2.65933 0
M  V30 18 H 2.08 4.83886 2.90714 0
M  V30 19 N 1.4781 -0.272755 1.55222 0
M  V30 20 C 2.4281 -1.33946 1.84506 0
M  V30 21 C 3.4121 -1.44682 0.70399 0
M  V30 22 O 4.6041 -1.48358 0.965338 0
M  V30 23 C 1.7331 -2.69968 2.12067 0
M  V30 24 C 0.8191 -2.63341 3.32434 0
M  V30 25 N 1.2101 -2.26335 4.52334 0
M  V30 26 C -0.4919 -2.94402 3.35028 0
M  V30 27 C 0.2091 -2.29705 5.34425 0
M  V30 28 N -0.8149 -2.68188 4.72838 0
M  V30 29 H 2.9871 -1.04343 2.74754 0
M  V30 30 H 0.5011 -0.481389 1.55101 0
M  V30 31 H 2.4981 -3.46916 2.31202 0
M  V30 32 H 1.1581 -3.00459 1.23103 0
M  V30 33 H 2.1691 -1.98309 4.78429 0
M  V30 34 H -1.1539 -3.29603 2.56257 0
M  V30 35 H 0.2361 -2.03653 6.40293 0
M  V30 36 N 2.9562 -1.48159 -0.537278 0
M  V30 37 C 4.3722 -1.34118 -0.865129 0
M  V30 38 C 4.5722 -0.346678 -1.98495 0
M  V30 39 O 3.6282 0.234715 -2.51407 0
M  V30 40 C 4.9412 -2.73963 -1.23954 0
M  V30 41 C 6.4892 -2.82397 -1.34984 0
M  V30 42 C 6.9642 -4.22928 -1.75772 0
M  V30 43 N 8.4552 -4.25566 -1.82887 0
M  V30 44 C 9.1902 -5.31235 -2.15817 0
M  V30 45 N 8.6862 -6.47189 -2.47222 0
M  V30 46 N 10.4792 -5.18624 -2.16761 0
M  V30 47 H 2.6302 -2.1144 0.201715 0
M  V30 48 H 4.8932 -0.947598 0.0275949 0
M  V30 49 H 4.5992 -3.48264 -0.490381 0
M  V30 50 H 4.4732 -3.0702 -2.19132 0
M  V30 51 H 6.8602 -2.08356 -2.08978 0
M  V30 52 H 6.9412 -2.5297 -0.379448 0
M  V30 53 H 6.5852 -4.97482 -1.02341 0
M  V30 54 H 6.5152 -4.49794 -2.73848 0
M  V30 55 H 9.0062 -3.41924 -1.60924 0
M  V30 56 H 9.3192 -7.23564 -2.71433 0
M  V30 57 H 7.6642 -6.50476 -2.44757 0
M  V30 58 H 10.8552 -4.27056 -1.91679 0
M  V30 59 H 11.0282 -6.01078 -2.42093 0
M  V30 60 N 4.4343 0.785586 -1.36625 0
M  V30 61 C 5.7113 1.53198 -1.21613 0
M  V30 62 C 6.0913 2.10187 0.196113 0
M  V30 63 O 5.4393 1.94318 1.20219 0
M  V30 64 C 5.6493 2.62388 -2.30116 0
M  V30 65 C 6.9973 3.30167 -2.66974 0
M  V30 66 O 8.0213 2.72674 -2.29188 0
M  V30 67 O 6.8803 4.34077 -3.32023 0
M  V30 68 H 3.9743 0.677865 -0.473738 0
M  V30 69 H 6.5203 0.823739 -1.48367 0
M  V30 70 H 5.2923 2.18299 -3.24748 0
M  V30 71 H 4.9153 3.40827 -2.0475 0
M  V30 72 N 5.9124 1.20967 1.01018 0
M  V30 73 C 6.8754 0.965918 2.07853 0
M  V30 74 C 7.8754 -0.0610545 1.60684 0
M  V30 75 O 9.0654 0.175681 1.73312 0
M  V30 76 C 6.1974 0.455513 3.37843 0
M  V30 77 H 7.3904 1.91365 2.3091 0
M  V30 78 H 4.9434 1.02594 1.17916 0
M  V30 79 H 5.6784 -0.497381 3.20463 0
M  V30 80 H 5.4634 1.19622 3.73407 0
M  V30 81 H 6.9534 0.304667 4.16487 0
M  V30 82 N 7.3905 -1.2043 1.01659 0
M  V30 83 C 8.6365 -1.90356 0.716674 0
M  V30 84 C 8.9915 -1.77367 -0.745557 0
M  V30 85 O 8.2845 -1.1471 -1.53467 0
M  V30 86 C 8.4785 -3.40464 1.08714 0
M  V30 87 C 8.3075 -3.6806 2.58384 0
M  V30 88 C 7.0775 -3.86775 3.25167 0
M  V30 89 C 9.2755 -3.70623 3.56572 0
M  V30 90 N 7.2575 -4.01889 4.64067 0
M  V30 91 C 8.6285 -3.91161 4.81034 0
M  V30 92 C 10.6835 -3.53586 3.50544 0
M  V30 93 C 9.3865 -3.96428 6.00198 0
M  V30 94 C 11.4125 -3.60125 4.6911 0
M  V30 95 C 10.7745 -3.81135 5.92381 0
M  V30 96 H 6.8735 -0.716226 0.313918 0
M  V30 97 H 9.4575 -1.44815 1.30141 0
M  V30 98 H 7.6285 -3.84757 0.530745 0
M  V30 99 H 9.3605 -3.97863 0.740763 0
M  V30 100 H 6.1155 -3.85156 2.75594 0
M  V30 101 H 6.5395 -4.13323 5.36184 0
M  V30 102 H 11.1815 -3.36308 2.56235 0
M  V30 103 H 8.8995 -4.12502 6.94887 0
M  V30 104 H 12.4855 -3.4825 4.66062 0
M  V30 105 H 11.3655 -3.86054 6.82592 0
M  V30 106 N 8.8686 -0.792821 -1.36206 0
M  V30 107 C 9.7986 -0.207853 -2.32573 0
M  V30 108 C 10.7796 0.659055 -1.56813 0
M  V30 109 O 11.9646 0.592176 -1.84951 0
M  V30 110 C 9.0946 0.655449 -3.41059 0
M  V30 111 C 8.0486 -0.111842 -4.27854 0
M  V30 112 C 7.3746 0.872274 -5.27537 0
M  V30 113 C 8.6746 -1.30299 -5.05786 0
M  V30 114 H 10.3686 -1.01294 -2.81744 0
M  V30 115 H 7.9146 -0.48854 -1.3546 0
M  V30 116 H 9.8676 1.07464 -4.07467 0
M  V30 117 H 8.5916 1.49328 -2.90463 0
M  V30 118 H 7.2506 -0.512053 -3.63006 0
M  V30 119 H 6.8986 1.70523 -4.73214 0
M  V30 120 H 6.5986 0.363291 -5.86476 0
M  V30 121 H 8.1226 1.28996 -5.96818 0
M  V30 122 H 9.5366 -0.959379 -5.65216 0
M  V30 123 H 7.9336 -1.7455 -5.74154 0
M  V30 124 H 9.0036 -2.09663 -4.37229 0
M  V30 125 N 10.3467 1.47872 -0.545128 0
M  V30 126 C 11.7577 1.86384 -0.108581 0
M  V30 127 C 12.1087 1.45309 1.31832 0
M  V30 128 O 11.2337 0.850641 1.9898 0
M  V30 129 C 11.8287 3.38265 -0.190274 0
M  V30 130 C 10.3877 3.75914 0.191164 0
M  V30 131 C 9.5347 2.71926 -0.543273 0
M  V30 132 H 12.4857 1.39561 -0.755537 0
M  V30 133 H 12.5067 3.75831 0.594217 0
M  V30 134 H 12.0187 3.6813 -1.2289 0
M  V30 135 H 10.1197 3.51665 1.23136 0
M  V30 136 H 10.2327 4.78836 -0.158987 0
M  V30 137 H 8.5967 2.54697 0.0122495 0
M  V30 138 H 9.3797 3.04634 -1.58282 0
M  V30 139 N 11.8248 0.280983 1.55075 0
M  V30 140 C 13.2408 -0.0729964 1.59433 0
M  V30 141 C 13.4408 -1.5411 1.29817 0
M  V30 142 O 12.4968 -2.29086 1.06187 0
M  V30 143 C 13.8098 0.306921 2.9913 0
M  V30 144 C 15.3578 0.254023 3.11968 0
M  V30 145 C 15.8328 0.608467 4.5394 0
M  V30 146 N 17.3238 0.560241 4.59799 0
M  V30 147 C 18.0588 0.80722 5.6769 0
M  V30 148 N 17.5548 1.11912 6.83701 0
M  V30 149 N 19.3478 0.735623 5.57266 0
M  V30 150 H 11.4988 1.238 1.7259 0
M  V30 151 H 13.7618 0.500547 0.805082 0
M  V30 152 H 13.4678 1.32816 3.25657 0
M  V30 153 H 13.3418 -0.349363 3.75579 0
M  V30 154 H 15.7288 -0.75794 2.852 0
M  V30 155 H 15.8098 0.944649 2.37718 0
M  V30 156 H 15.4538 1.61814 4.81434 0
M  V30 157 H 15.3838 -0.104013 5.26497 0
M  V30 158 H 17.8748 0.329288 3.76463 0
M  V30 159 H 18.1878 1.29409 7.61888 0
M  V30 160 H 16.5328 1.15695 6.85303 0
M  V30 161 H 19.7238 0.491752 4.6551 0
M  V30 162 H 19.8968 0.931482 6.4127 0
M  V30 163 N 13.3029 -1.57598 0.00835791 0
M  V30 164 C 14.7139 -1.7892 -0.53333 0
M  V30 165 C 15.0649 -0.916609 -1.73473 0
M  V30 166 O 14.1899 -0.121336 -2.1606 0
M  V30 167 C 14.7849 -3.24488 -0.974313 0
M  V30 168 C 13.3439 -3.46878 -1.46125 0
M  V30 169 C 12.4909 -2.74157 -0.416302 0
M  V30 170 H 15.4419 -1.56958 0.234495 0
M  V30 171 H 15.4629 -3.3306 -1.83988 0
M  V30 172 H 14.9749 -3.87972 -0.099718 0
M  V30 173 H 13.0759 -2.8862 -2.35646 0
M  V30 174 H 13.1889 -4.55572 -1.48295 0
M  V30 175 H 11.5529 -2.39022 -0.87981 0
M  V30 176 H 12.3359 -3.40345 0.44947 0
M  V30 177 N 14.781 0.264519 -1.55364 0
M  V30 178 C 15.744 1.31046 -1.88042 0
M  V30 179 C 16.744 1.41943 -0.755569 0
M  V30 180 O 17.934 1.40947 -1.02369 0
M  V30 181 C 15.066 2.69067 -2.09323 0
M  V30 182 H 16.259 1.03297 -2.81549 0
M  V30 183 H 13.812 0.502989 -1.47986 0
M  V30 184 H 14.547 3.01982 -1.18226 0
M  V30 185 H 14.332 2.62542 -2.91229 0
M  V30 186 H 15.822 3.44623 -2.35848 0
M  V30 187 N 16.2591 1.48442 0.529413 0
M  V30 188 C 17.5061 1.56488 1.28521 0
M  V30 189 C 17.8341 0.239042 1.93025 0
M  V30 190 O 17.0891 -0.770713 1.79885 0
M  V30 191 C 17.3881 2.6523 2.39558 0
M  V30 192 C 17.0541 4.07648 1.92702 0
M  V30 193 C 15.7161 4.46411 1.79641 0
M  V30 194 C 18.0681 4.96896 1.573 0
M  V30 195 C 15.3961 5.72226 1.29514 0
M  V30 196 C 17.7481 6.23202 1.08636 0
M  V30 197 C 16.4121 6.60821 0.941919 0
M  V30 198 H 15.6821 0.572631 0.470292 0
M  V30 199 H 18.3291 1.82161 0.59072 0
M  V30 200 H 16.6341 2.33419 3.14679 0
M  V30 201 H 18.3311 2.68671 2.97686 0
M  V30 202 H 14.9211 3.77036 2.03819 0
M  V30 203 H 19.1051 4.67626 1.66251 0
M  V30 204 H 14.3611 6.00097 1.17019 0
M  V30 205 H 18.5351 6.91753 0.803136 0
M  V30 206 H 16.1621 7.58198 0.5513 0
M  V30 207 N 17.7372 -0.778329 1.37039 0
M  V30 208 C 18.9622 -1.57248 1.35233 0
M  V30 209 C 19.3872 -1.87999 -0.0615568 0
M  V30 210 O 18.7452 -1.48734 -1.03672 0
M  V30 211 C 18.7932 -2.86353 2.19167 0
M  V30 212 O 17.8972 -3.80442 1.59178 0
M  V30 213 H 17.2382 -0.476569 0.462362 0
M  V30 214 H 19.7682 -0.963853 1.80474 0
M  V30 215 H 19.7782 -3.35519 2.32145 0
M  V30 216 H 18.4532 -2.63299 3.21942 0
M  V30 217 H 17.0302 -3.39067 1.55203 0
M  V30 218 N 19.2153 -1.21501 -1.00376 0
M  V30 219 C 20.1453 -0.999478 -2.11028 0
M  V30 220 C 21.1263 0.0759671 -1.6993 0
M  V30 221 O 22.3113 -0.0841106 -1.94018 0
M  V30 222 C 19.4413 -0.564709 -3.42678 0
M  V30 223 C 18.3953 -1.58486 -3.97576 0
M  V30 224 C 17.7213 -1.00628 -5.25146 0
M  V30 225 C 19.0213 -2.97204 -4.29496 0
M  V30 226 H 20.7153 -1.92495 -2.29317 0
M  V30 227 H 18.2613 -0.92693 -1.102 0
M  V30 228 H 20.2143 -0.401091 -4.19487 0
M  V30 229 H 18.9383 0.396411 -3.24185 0
M  V30 230 H 17.5973 -1.73606 -3.22888 0
M  V30 231 H 17.2453 -0.0368439 -5.02987 0
M  V30 232 H 16.9453 -1.68771 -5.62841 0
M  V30 233 H 18.4693 -0.854015 -6.04598 0
M  V30 234 H 19.8833 -2.8552 -4.97143 0
M  V30 235 H 18.2803 -3.62372 -4.78338 0
M  V30 236 H 19.3503 -3.47956 -3.3772 0
M  V30 237 N 20.6934 1.19889 -1.02296 0
M  V30 238 C 21.9214 1.9339 -0.735399 0
M  V30 239 C 22.3364 1.75148 0.704887 0
M  V30 240 O 21.6934 1.06954 1.47875 0
M  V30 241 C 21.7444 3.45313 -1.06962 0
M  V30 242 O 21.4654 3.62964 -2.45334 0
M  V30 243 C 22.9664 4.35948 -0.804021 0
M  V30 244 H 20.1864 0.61448 -0.269546 0
M  V30 245 H 22.7304 1.522 -1.36585 0
M  V30 246 H 20.8854 3.84359 -0.484455 0
M  V30 247 H 21.2994 4.56886 -2.57595 0
M  V30 248 H 22.7734 5.41174 -1.0879 0
M  V30 249 H 23.2504 4.3842 0.261691 0
M  V30 250 H 23.8564 4.02574 -1.37164 0
M  V30 251 N 22.1715 0.800033 1.35784 0
M  V30 252 C 23.4195 0.376597 1.9856 0
M  V30 253 C 23.7405 -1.05812 1.63795 0
M  V30 254 O 23.0105 -1.73103 0.917171 0
M  V30 255 H 21.5905 0.136261 0.734467 0
M  V30 256 H 24.2525 1.02442 1.65806 0
M  V30 257 H 23.3485 0.477002 3.08433 0
M  V30 258 N 23.6496 -1.47581 0.552962 0
M  V30 259 C 24.5796 -2.32762 -0.185451 0
M  V30 260 C 25.5606 -1.43527 -0.912905 0
M  V30 261 O 26.7456 -1.72388 -0.894201 0
M  V30 262 C 23.8756 -3.25219 -1.21859 0
M  V30 263 C 22.8296 -4.23661 -0.607864 0
M  V30 264 C 22.1556 -5.05413 -1.74533 0
M  V30 265 C 23.4556 -5.20481 0.435582 0
M  V30 266 H 25.1496 -2.94749 0.525684 0
M  V30 267 H 22.6956 -1.41738 0.254251 0
M  V30 268 H 24.6486 -3.8365 -1.7433 0
M  V30 269 H 23.3726 -2.61279 -1.95961 0
M  V30 270 H 22.0316 -3.66451 -0.104489 0
M  V30 271 H 21.6796 -4.3788 -2.47529 0
M  V30 272 H 21.3796 -5.72059 -1.34249 0
M  V30 273 H 22.9036 -5.66701 -2.27338 0
M  V30 274 H 24.3176 -5.733 -0.00290157 0
M  V30 275 H 22.7146 -5.95305 0.757067 0
M  V30 276 H 23.7846 -4.66217 1.33303 0
M  V30 277 N 25.1277 -0.289203 -1.54924 0
M  V30 278 C 26.3527 0.329299 -2.04769 0
M  V30 279 C 26.7777 1.4763 -1.16564 0
M  V30 280 O 26.1357 1.80527 -0.167186 0
M  V30 281 C 26.1837 0.774438 -3.52186 0
M  V30 282 O 25.2877 1.88038 -3.67036 0
M  V30 283 H 24.6287 0.0659259 -0.660719 0
M  V30 284 H 27.1587 -0.42761 -2.00082 0
M  V30 285 H 27.1687 1.06642 -3.93816 0
M  V30 286 H 25.8437 -0.0646707 -4.1585 0
M  V30 287 H 24.4207 1.58985 -3.3731 0
M  V30 288 N 26.6058 1.57591 -0.0167156 0
M  V30 289 C 27.5358 2.12496 0.967858 0
M  V30 290 C 28.5168 1.03807 1.34752 0
M  V30 291 O 29.7018 1.31577 1.42833 0
M  V30 292 C 26.8318 2.64194 2.25431 0
M  V30 293 C 25.7858 3.77559 2.01576 0
M  V30 294 C 25.1118 4.15636 3.36379 0
M  V30 295 C 26.4118 5.04151 1.36489 0
M  V30 296 H 28.1058 2.95013 0.510643 0
M  V30 297 H 25.6518 1.41915 0.244181 0
M  V30 298 H 27.6048 3.01236 2.94678 0
M  V30 299 H 26.3288 1.78821 2.73296 0
M  V30 300 H 24.9878 3.40937 1.34751 0
M  V30 301 H 24.6358 3.27263 3.81979 0
M  V30 302 H 24.3358 4.92022 3.21229 0
M  V30 303 H 25.8598 4.5525 4.06915 0
M  V30 304 H 27.2738 5.38857 1.95718 0
M  V30 305 H 25.6708 5.85453 1.31776 0
M  V30 306 H 26.7408 4.83733 0.336219 0
M  V30 307 N 28.0839 -0.256276 1.55502 0
M  V30 308 C 29.3309 -0.985619 1.76895 0
M  V30 309 C 29.6589 -1.85671 0.579355 0
M  V30 310 O 28.9139 -1.90744 -0.437651 0
M  V30 311 C 29.2129 -1.88432 3.03691 0
M  V30 312 C 28.8789 -1.16936 4.35473 0
M  V30 313 C 27.5409 -0.97173 4.71286 0
M  V30 314 C 29.8929 -0.661889 5.1698 0
M  V30 315 C 27.2209 -0.254179 5.86149 0
M  V30 316 C 29.5729 0.042149 6.32586 0
M  V30 317 C 28.2369 0.25134 6.67027 0
M  V30 318 H 27.5069 -0.360663 0.647304 0
M  V30 319 H 30.1539 -0.256483 1.89775 0
M  V30 320 H 28.4589 -2.68021 2.85783 0
M  V30 321 H 30.1559 -2.45015 3.1744 0
M  V30 322 H 26.7459 -1.33332 4.07333 0
M  V30 323 H 30.9299 -0.802145 4.89775 0
M  V30 324 H 26.1859 -0.0815408 6.11346 0
M  V30 325 H 30.3599 0.443049 6.94989 0
M  V30 326 H 27.9869 0.809314 7.5588 0
M  V30 327 N 29.562 -1.4872 -0.521534 0
M  V30 328 C 30.809 -1.57168 -1.27689 0
M  V30 329 C 31.137 -0.249275 -1.92896 0
M  V30 330 O 30.392 0.761162 -1.80291 0
M  V30 331 C 30.691 -2.66497 -2.38148 0
M  V30 332 C 30.357 -4.08664 -1.90538 0
M  V30 333 C 29.019 -4.47357 -1.77271 0
M  V30 334 C 31.371 -4.97724 -1.54663 0
M  V30 335 C 28.699 -5.72905 -1.26478 0
M  V30 336 C 31.051 -6.2377 -1.05329 0
M  V30 337 C 29.715 -6.61311 -0.906861 0
M  V30 338 H 28.985 -0.575117 -0.467249 0
M  V30 339 H 31.632 -1.82472 -0.581051 0
M  V30 340 H 29.937 -2.35085 -3.13437 0
M  V30 341 H 31.634 -2.70246 -2.96257 0
M  V30 342 H 28.224 -3.78111 -2.01816 0
M  V30 343 H 32.408 -4.68501 -1.63768 0
M  V30 344 H 27.664 -6.00709 -1.13835 0
M  V30 345 H 31.838 -6.9217 -0.76644 0
M  V30 346 H 29.465 -7.5848 -0.511083 0
M  V30 347 N 31.0401 0.771051 -1.3745 0
M  V30 348 C 32.2651 1.56529 -1.36065 0
M  V30 349 C 32.6901 1.88029 0.0515859 0
M  V30 350 O 32.0481 1.49282 1.02882 0
M  V30 351 C 32.0961 2.85187 -2.20683 0
M  V30 352 O 31.2001 3.79593 -1.61193 0
M  V30 353 H 30.5411 0.47411 -0.464883 0
M  V30 354 H 33.0711 0.954269 -1.80983 0
M  V30 355 H 33.0811 3.34283 -2.33921 0
M  V30 356 H 31.7561 2.61588 -3.23334 0
M  V30 357 H 30.3331 3.38239 -1.56999 0
M  V30 358 N 32.5182 1.22032 0.997298 0
M  V30 359 C 33.4482 1.01065 2.10495 0
M  V30 360 C 34.4292 -0.0669542 1.69968 0
M  V30 361 O 35.6142 0.0943987 1.9397 0
M  V30 362 C 32.7442 0.582874 3.42374 0
M  V30 363 C 31.6982 1.60592 3.96729 0
M  V30 364 C 31.0242 1.03412 5.24605 0
M  V30 365 C 32.3242 2.99478 4.27914 0
M  V30 366 H 34.0182 1.93708 2.28292 0
M  V30 367 H 31.5642 0.932761 1.09707 0
M  V30 368 H 33.5172 0.423332 4.19268 0
M  V30 369 H 32.2412 -0.379213 3.24391 0
M  V30 370 H 30.9002 1.75316 3.21963 0
M  V30 371 H 30.5482 0.063518 5.0296 0
M  V30 372 H 30.2482 1.71754 5.61938 0
M  V30 373 H 31.7722 0.886066 6.04137 0
M  V30 374 H 33.1862 2.88153 4.95622 0
M  V30 375 H 31.5832 3.64903 4.76409 0
M  V30 376 H 32.6532 3.49742 3.3587 0
M  V30 377 N 33.9963 -1.19345 1.0293 0
M  V30 378 C 35.2423 -1.89318 0.727083 0
M  V30 379 C 35.5753 -1.79446 -0.742483 0
M  V30 380 O 34.8503 -1.1871 -1.54072 0
M  V30 381 C 35.1333 -3.40238 1.17942 0
M  V30 382 C 34.9863 -3.58979 2.71024 0
M  V30 383 C 36.3053 -4.33479 0.760548 0
M  V30 384 H 33.4243 -0.687475 0.265606 0
M  V30 385 H 36.0663 -1.40477 1.2793 0
M  V30 386 H 34.2163 -3.81964 0.709608 0
M  V30 387 H 35.8883 -3.26421 3.25955 0
M  V30 388 H 34.1313 -3.02018 3.11396 0
M  V30 389 H 34.8023 -4.64823 2.9773 0
M  V30 390 H 37.2783 -3.99469 1.16464 0
M  V30 391 H 36.1543 -5.37664 1.10493 0
M  V30 392 H 36.4153 -4.40813 -0.337063 0
M  V30 393 N 35.4744 -0.807222 -1.35358 0
M  V30 394 C 36.8854 -0.44876 -1.81226 0
M  V30 395 C 37.2364 1.02929 -1.67033 0
M  V30 396 O 36.3614 1.79991 -1.20133 0
M  V30 397 C 36.9564 -0.807774 -3.2903 0
M  V30 398 C 35.5154 -0.501901 -3.73039 0
M  V30 399 C 34.6624 -1.03304 -2.57339 0
M  V30 400 H 37.6134 -0.998808 -1.23327 0
M  V30 401 H 37.6344 -0.10554 -3.80354 0
M  V30 402 H 37.1464 -1.88357 -3.39328 0
M  V30 403 H 35.2474 0.565128 -3.68289 0
M  V30 404 H 35.3604 -1.03497 -4.67787 0
M  V30 405 H 33.7244 -0.455339 -2.50597 0
M  V30 406 H 34.5074 -2.11496 -2.70415 0
M  V30 407 N 36.9525 1.47285 -0.560781 0
M  V30 408 C 38.3635 1.86258 -0.128343 0
M  V30 409 C 38.7145 1.46699 1.30284 0
M  V30 410 O 37.8395 0.871698 1.98067 0
M  V30 411 C 38.4345 3.38044 -0.22614 0
M  V30 412 C 36.9935 3.76096 0.151283 0
M  V30 413 C 36.1405 2.71335 -0.572084 0
M  V30 414 H 39.0915 1.38752 -0.770297 0
M  V30 415 H 39.1125 3.76441 0.554322 0
M  V30 416 H 38.6245 3.66806 -1.26788 0
M  V30 417 H 36.7255 3.52951 1.19399 0
M  V30 418 H 36.8385 4.78641 -0.209765 0
M  V30 419 H 35.2025 2.54696 -0.0147653 0
M  V30 420 H 35.9855 3.02938 -1.61504 0
M  V30 421 N 38.4306 0.297415 1.54768 0
M  V30 422 C 39.6786 -0.312295 1.99673 0
M  V30 423 C 39.9996 -1.54686 1.18732 0
M  V30 424 O 39.2696 -1.93854 0.282382 0
M  V30 425 H 37.8496 -0.118381 0.73756 0
M  V30 426 H 40.5116 0.407915 1.90583 0
M  V30 427 H 39.6076 -0.586813 3.06534 0
M  V30 428 N 39.9087 -1.5758 0.0250728 0
M  V30 429 C 41.3247 -1.56124 -0.331282 0
M  V30 430 C 41.5247 -1.03029 -1.73169 0
M  V30 431 O 40.5807 -0.675215 -2.43305 0
M  V30 432 C 41.8937 -3.00139 -0.183584 0
M  V30 433 C 43.4417 -3.11946 -0.256654 0
M  V30 434 C 43.9167 -4.57793 -0.137792 0
M  V30 435 N 45.4077 -4.6279 -0.194904 0
M  V30 436 C 46.1427 -5.7326 -0.126655 0
M  V30 437 N 45.6387 -6.928 -0.00755288 0
M  V30 438 N 47.4317 -5.61811 -0.180348 0
M  V30 439 H 39.5827 -1.90424 0.94087 0
M  V30 440 H 41.8457 -0.875761 0.362968 0
M  V30 441 H 41.5517 -3.4292 0.780927 0
M  V30 442 H 41.4257 -3.64899 -0.955448 0
M  V30 443 H 43.8127 -2.69079 -1.21162 0
M  V30 444 H 43.8937 -2.49915 0.545517 0
M  V30 445 H 43.5377 -5.01339 0.813739 0
M  V30 446 H 43.4677 -5.17798 -0.958775 0
M  V30 447 H 45.9587 -3.76807 -0.287267 0
M  V30 448 H 46.2717 -7.72791 0.0379428 0
M  V30 449 H 44.6167 -6.94995 0.0271731 0
M  V30 450 H 47.8077 -4.6731 -0.271767 0
M  V30 451 H 47.9807 -6.47882 -0.123697 0
M  V30 452 N 41.3868 0.248026 -1.55636 0
M  V30 453 C 42.6118 0.998028 -1.81808 0
M  V30 454 C 43.0368 1.78207 -0.601979 0
M  V30 455 O 42.3948 1.75653 0.448961 0
M  V30 456 C 42.4428 1.9125 -3.05705 0
M  V30 457 O 41.5468 3.00406 -2.82542 0
M  V30 458 H 40.8878 0.284045 -0.600179 0
M  V30 459 H 43.4178 0.269357 -2.02819 0
M  V30 460 H 43.4278 2.32737 -3.35108 0
M  V30 461 H 42.1028 1.33602 -3.93857 0
M  V30 462 H 40.6798 2.63056 -2.64303 0
M  V30 463 N 42.8649 1.48995 0.513639 0
M  V30 464 C 43.7979 1.59319 1.63379 0
M  V30 465 C 44.7759 0.442816 1.56454 0
M  V30 466 O 45.9599 0.656655 1.76693 0
M  V30 467 C 43.0869 1.5364 3.01848 0
M  V30 468 C 42.1329 2.7372 3.27078 0
M  V30 469 S 42.9659 4.35528 3.1157 0
M  V30 470 C 44.1219 4.32473 4.52458 0
M  V30 471 H 44.3549 2.54079 1.54374 0
M  V30 472 H 41.8879 1.3773 0.697849 0
M  V30 473 H 43.8459 1.51049 3.81699 0
M  V30 474 H 42.5069 0.601898 3.08279 0
M  V30 475 H 41.6999 2.6593 4.28132 0
M  V30 476 H 41.3019 2.73657 2.54927 0
M  V30 477 H 43.5939 4.03414 5.44301 0
M  V30 478 H 44.5369 5.33762 4.65299 0
M  V30 479 H 44.9449 3.62718 4.32546 0
M  V30 480 N 44.343 -0.763751 1.37857 0
M  V30 481 C 45.253 -1.90817 1.36478 0
M  V30 482 C 46.269 -1.71997 0.263248 0
M  V30 483 O 47.445 -1.95095 0.499979 0
M  V30 484 C 44.51 -3.2605 1.17864 0
M  V30 485 C 43.571 -3.57467 2.3773 0
M  V30 486 C 42.804 -4.86249 2.19995 0
M  V30 487 O 43.027 -5.57884 1.18836 0
M  V30 488 O 41.961 -5.16911 3.08361 0
M  V30 489 H 45.787 -1.94933 2.32884 0
M  V30 490 H 43.372 -0.907619 1.1867 0
M  V30 491 H 45.254 -4.06924 1.09504 0
M  V30 492 H 43.929 -3.22769 0.245372 0
M  V30 493 H 42.836 -2.76796 2.51664 0
M  V30 494 H 44.169 -3.655 3.29652 0
M  V30 495 N 45.8211 -1.22559 -0.990812 0
M  V30 496 C 47.0671 -1.05297 -1.73322 0
M  V30 497 C 47.4001 0.410655 -1.89808 0
M  V30 498 O 46.6751 1.30439 -1.44277 0
M  V30 499 C 46.9581 -1.76713 -3.13759 0
M  V30 500 C 46.8111 -3.30684 -3.04907 0
M  V30 501 C 48.1301 -1.52121 -4.12974 0
M  V30 502 H 45.2491 -0.38392 -0.629106 0
M  V30 503 H 47.8911 -1.50926 -1.15418 0
M  V30 504 H 46.0411 -1.37924 -3.63193 0
M  V30 505 H 47.7131 -3.7893 -2.63077 0
M  V30 506 H 45.9561 -3.60253 -2.41661 0
M  V30 507 H 46.6271 -3.75833 -4.04294 0
M  V30 508 H 49.1031 -1.85819 -3.72304 0
M  V30 509 H 47.9791 -2.04582 -5.0935 0
M  V30 510 H 48.2401 -0.454257 -4.3976 0
M  V30 511 N 47.2992 1.18797 -1.03562 0
M  V30 512 C 48.5272 1.92599 -0.755869 0
M  V30 513 C 48.9422 1.75886 0.686271 0
M  V30 514 O 48.2992 1.08517 1.46732 0
M  V30 515 C 48.3502 3.44159 -1.10619 0
M  V30 516 O 48.0712 3.60341 -2.4917 0
M  V30 517 C 49.5722 4.3507 -0.850214 0
M  V30 518 H 46.7922 0.611587 -0.276048 0
M  V30 519 H 49.3362 1.50742 -1.38192 0
M  V30 520 H 47.4912 3.83823 -0.525194 0
M  V30 521 H 47.9052 4.54128 -2.62427 0
M  V30 522 H 49.3792 5.39989 -1.14523 0
M  V30 523 H 49.8562 4.38673 0.215176 0
M  V30 524 H 50.4622 4.01097 -1.41426 0
M  V30 525 N 48.7773 0.814389 1.34928 0
M  V30 526 C 50.0233 0.399013 1.98836 0
M  V30 527 C 50.3563 -1.03314 1.64438 0
M  V30 528 O 49.6313 -1.71811 0.911659 0
M  V30 529 C 49.9143 0.591629 3.55207 0
M  V30 530 C 49.7673 2.06928 3.99376 0
M  V30 531 C 51.0863 0.022199 4.40094 0
M  V30 532 H 48.2053 0.146451 0.722303 0
M  V30 533 H 50.8473 1.02537 1.59957 0
M  V30 534 H 48.9973 0.0584441 3.88456 0
M  V30 535 H 50.6693 2.66544 3.76499 0
M  V30 536 H 48.9123 2.56287 3.49999 0
M  V30 537 H 49.5833 2.1549 5.08201 0
M  V30 538 H 52.0593 0.477643 4.13349 0
M  V30 539 H 50.9353 0.186832 5.48582 0
M  V30 540 H 51.1963 -1.07215 4.28902 0
M  V30 541 N 50.2554 -1.46986 0.568584 0
M  V30 542 C 51.6664 -1.86188 0.138219 0
M  V30 543 C 52.0174 -1.47388 -1.29504 0
M  V30 544 O 51.1424 -0.88219 -1.97602 0
M  V30 545 C 51.7374 -3.3792 0.244065 0
M  V30 546 C 50.2964 -3.76171 -0.131335 0
M  V30 547 C 49.4434 -2.71027 0.586465 0
M  V30 548 H 52.3944 -1.38342 0.777645 0
M  V30 549 H 52.4154 -3.76729 -0.534351 0
M  V30 550 H 51.9274 -3.66128 1.28731 0
M  V30 551 H 50.0284 -3.5358 -1.17526 0
M  V30 552 H 50.1414 -4.78523 0.235146 0
M  V30 553 H 48.5054 -2.54684 0.0282722 0
M  V30 554 H 49.2884 -3.02077 1.63109 0
M  V30 555 N 51.7335 -0.305618 -1.54608 0
M  V30 556 C 52.6965 0.555591 -2.22364 0
M  V30 557 C 53.6965 1.05768 -1.21119 0
M  V30 558 O 54.8865 0.952972 -1.45822 0
M  V30 559 C 52.0185 1.76974 -2.91364 0
M  V30 560 H 53.2115 -0.0364572 -2.99878 0
M  V30 561 H 50.7645 -0.0565007 -1.56198 0
M  V30 562 H 51.4995 2.40151 -2.17941 0
M  V30 563 H 51.2845 1.41732 -3.65588 0
M  V30 564 H 52.7745 2.38148 -3.43038 0
M  V30 565 N 53.2116 1.57565 -0.0334293 0
M  V30 566 C 54.4396 1.9628 0.654347 0
M  V30 567 C 54.8546 0.910138 1.65414 0
M  V30 568 O 54.2116 -0.107595 1.82183 0
M  V30 569 C 54.2626 3.35067 1.35693 0
M  V30 570 O 53.9836 4.36296 0.397191 0
M  V30 571 C 55.4846 3.88439 2.13613 0
M  V30 572 H 52.7046 0.646369 0.180132 0
M  V30 573 H 55.2486 2.04282 -0.0944721 0
M  V30 574 H 53.4036 3.2827 2.05712 0
M  V30 575 H 53.8176 5.1678 0.896597 0
M  V30 576 H 55.2916 4.8788 2.58219 0
M  V30 577 H 55.7686 3.22914 2.97696 0
M  V30 578 H 56.3746 3.98516 1.48543 0
M  V30 579 N 54.6897 -0.239769 1.55765 0
M  V30 580 C 55.6197 -1.30052 1.9393 0
M  V30 581 C 56.6007 -1.49839 0.805132 0
M  V30 582 O 57.7857 -1.62328 1.06599 0
M  V30 583 C 54.9157 -2.65391 2.2402 0
M  V30 584 C 53.8697 -2.60289 3.39755 0
M  V30 585 C 53.1957 -3.99489 3.55405 0
M  V30 586 C 54.4957 -2.16654 4.75246 0
M  V30 587 H 56.1897 -0.983573 2.82783 0
M  V30 588 H 53.7357 -0.471701 1.36055 0
M  V30 589 H 55.6887 -3.3974 2.49308 0
M  V30 590 H 54.4127 -2.98736 1.32 0
M  V30 591 H 53.0717 -1.88398 3.14487 0
M  V30 592 H 52.7197 -4.30112 2.60793 0
M  V30 593 H 52.4197 -3.96962 4.33238 0
M  V30 594 H 53.9437 -4.75528 3.83022 0
M  V30 595 H 55.3577 -2.80737 4.99859 0
M  V30 596 H 53.7547 -2.25223 5.56232 0
M  V30 597 H 54.8247 -1.11835 4.71827 0
M  V30 598 N 56.1678 -1.49265 -0.50573 0
M  V30 599 C 57.1158 -1.66065 -1.62866 0
M  V30 600 C 58.1098 -0.526636 -1.61006 0
M  V30 601 O 59.3158 -0.706126 -1.65571 0
M  V30 602 H 55.6908 -0.52356 -0.539805 0
M  V30 603 H 57.6618 -2.60329 -1.45848 0
M  V30 604 C 56.4108 -1.74008 -3.01026 0
M  V30 605 H 55.7338 -2.6064 -3.03161 0
M  V30 606 H 57.1738 -1.89798 -3.79147 0
M  V30 607 C 55.6328 -0.483868 -3.33407 0
M  V30 608 O 56.1628 0.392548 -3.99777 0
M  V30 609 N 54.3688 -0.348236 -2.88506 0
M  V30 610 H 53.9158 -1.06242 -2.34671 0
M  V30 611 H 53.8738 0.491204 -3.10539 0
M  V30 612 N 57.6459 0.756429 -1.3826 0
M  V30 613 C 58.8919 1.51772 -1.34511 0
M  V30 614 C 59.2249 1.94089 0.0656691 0
M  V30 615 O 58.4999 1.65221 1.02626 0
M  V30 616 C 58.7829 2.77226 -2.29821 0
M  V30 617 C 58.6359 2.41065 -3.79747 0
M  V30 618 C 59.9549 3.79236 -2.23312 0
M  V30 619 H 57.0739 0.550578 -0.489931 0
M  V30 620 H 59.7159 0.866607 -1.69086 0
M  V30 621 H 57.8659 3.32784 -2.00467 0
M  V30 622 H 59.5379 1.91303 -4.19763 0
M  V30 623 H 57.7809 1.7356 -3.97567 0
M  V30 624 H 58.4519 3.3081 -4.41892 0
M  V30 625 H 60.9279 3.3321 -2.49219 0
M  V30 626 H 59.8039 4.64714 -2.92116 0
M  V30 627 H 60.0649 4.24615 -1.23102 0
M  V30 628 N 59.124 1.23083 0.984299 0
M  V30 629 C 60.054 1.03292 2.09411 0
M  V30 630 C 61.035 -0.048923 1.7003 0
M  V30 631 O 62.22 0.114967 1.93859 0
M  V30 632 C 59.35 0.619155 3.41736 0
M  V30 633 C 58.304 1.64791 3.95004 0
M  V30 634 C 57.63 1.0897 5.23478 0
M  V30 635 C 58.93 3.03999 4.24714 0
M  V30 636 H 60.624 1.96119 2.26225 0
M  V30 637 H 58.17 0.944344 1.08711 0
M  V30 638 H 60.123 0.467777 4.18796 0
M  V30 639 H 58.847 -0.344786 3.24775 0
M  V30 640 H 57.506 1.78721 3.20085 0
M  V30 641 H 57.154 0.11686 5.02864 0
M  V30 642 H 56.854 1.77704 5.60085 0
M  V30 643 H 58.378 0.950093 6.03163 0
M  V30 644 H 59.792 2.93393 4.92538 0
M  V30 645 H 58.189 3.69936 4.72512 0
M  V30 646 H 59.259 3.53285 3.32142 0
M  V30 647 N 60.6021 -1.18246 1.0419 0
M  V30 648 C 61.5501 -2.23968 0.627792 0
M  V30 649 C 62.5441 -1.65828 -0.346019 0
M  V30 650 O 63.7501 -1.78733 -0.213175 0
M  V30 651 H 60.1251 -0.728939 0.184802 0
M  V30 652 H 62.0961 -2.56202 1.52981 0
M  V30 653 C 60.8451 -3.47699 0.00796591 0
M  V30 654 H 60.1681 -3.92734 0.748347 0
M  V30 655 H 61.6081 -4.23294 -0.24455 0
M  V30 656 C 60.0671 -3.13153 -1.24246 0
M  V30 657 O 60.5971 -3.27003 -2.33307 0
M  V30 658 N 58.8031 -2.67467 -1.13622 0
M  V30 659 H 58.3501 -2.56396 -0.248734 0
M  V30 660 H 58.3081 -2.44724 -1.97377 0
M  V30 661 N 62.0802 -0.821533 -1.34494 0
M  V30 662 C 63.3282 -0.408139 -1.97936 0
M  V30 663 C 63.6492 1.03193 -1.65457 0
M  V30 664 O 62.9192 1.71622 -0.944595 0
M  V30 665 H 61.4992 -0.147928 -0.732206 0
M  V30 666 H 64.1612 -1.05067 -1.64155 0
M  V30 667 H 63.2572 -0.52601 -3.07635 0
M  V30 668 N 63.5583 1.46682 -0.576371 0
M  V30 669 C 64.7833 2.07304 -0.0630475 0
M  V30 670 C 65.2083 1.42329 1.2298 0
M  V30 671 O 64.5663 0.504865 1.74129 0
M  V30 672 C 64.6143 3.60472 0.095895 0
M  V30 673 O 63.7183 3.95927 1.15394 0
M  V30 674 H 63.0593 0.661288 -0.0599463 0
M  V30 675 H 65.5893 1.88417 -0.797511 0
M  V30 676 H 65.5993 4.06865 0.304071 0
M  V30 677 H 64.2743 4.07157 -0.84828 0
M  V30 678 H 62.8513 3.61252 0.924724 0
M  V30 679 N 65.0364 0.313813 1.54444 0
M  V30 680 C 66.3134 -0.345447 1.92525 0
M  V30 681 C 66.6934 -1.70667 1.24242 0
M  V30 682 O 66.0414 -2.25273 0.382654 0
M  V30 683 C 66.2514 -0.44737 3.46121 0
M  V30 684 C 67.5994 -0.712238 4.18584 0
M  V30 685 O 68.6234 -0.530678 3.52225 0
M  V30 686 O 67.4824 -1.06183 5.36085 0
M  V30 687 H 64.5764 -0.195407 0.803583 0
M  V30 688 H 67.1224 0.362813 1.65776 0
M  V30 689 H 65.8944 0.509043 3.87975 0
M  V30 690 H 65.5174 -1.20359 3.78945 0
M  V30 691 N 66.5145 -1.57545 0.0417849 0
M  V30 692 C 67.4775 -2.09885 -0.92093 0
M  V30 693 C 68.4775 -1.01648 -1.24596 0
M  V30 694 O 69.6675 -1.27759 -1.1842 0
M  V30 695 C 66.7995 -2.57527 -2.23367 0
M  V30 696 H 67.9925 -2.96236 -0.467382 0
M  V30 697 H 65.5455 -1.5493 -0.206467 0
M  V30 698 H 66.2805 -1.74542 -2.73323 0
M  V30 699 H 66.0655 -3.36613 -2.01083 0
M  V30 700 H 67.5555 -2.98201 -2.92346 0
M  V30 701 N 67.9926 0.231505 -1.5589 0
M  V30 702 C 69.4086 0.580748 -1.48659 0
M  V30 703 C 69.6086 1.87617 -0.73498 0
M  V30 704 O 68.6646 2.51046 -0.270586 0
M  V30 705 C 69.9776 0.669202 -2.93159 0
M  V30 706 C 71.5256 0.760499 -3.03621 0
M  V30 707 C 72.0006 0.880383 -4.49459 0
M  V30 708 N 73.4916 0.944861 -4.53461 0
M  V30 709 C 74.2266 1.05716 -5.63571 0
M  V30 710 N 73.7226 1.13403 -6.83456 0
M  V30 711 N 75.5156 1.09152 -5.514 0
M  V30 712 H 67.6666 -0.618695 -2.03189 0
M  V30 713 H 69.9296 -0.215728 -0.923128 0
M  V30 714 H 69.6356 -0.212904 -3.51055 0
M  V30 715 H 69.5096 1.5361 -3.44505 0
M  V30 716 H 71.8966 1.63305 -2.45796 0
M  V30 717 H 71.9776 -0.131864 -2.5546 0
M  V30 718 H 71.6216 0.0123284 -5.07899 0
M  V30 719 H 71.5516 1.78802 -4.95316 0
M  V30 720 H 74.0426 0.896176 -3.6712 0
M  V30 721 H 74.3556 1.21921 -7.63122 0
M  V30 722 H 72.7006 1.10333 -6.86186 0
M  V30 723 H 75.8916 1.02805 -4.56671 0
M  V30 724 H 76.0646 1.17558 -6.37247 0
M  V30 725 N 69.4707 1.49531 0.497807 0
M  V30 726 C 70.4007 1.6935 1.60757 0
M  V30 727 C 71.3817 0.542218 1.61227 0
M  V30 728 O 72.5667 0.778417 1.77917 0
M  V30 729 C 69.6967 1.76298 2.99226 0
M  V30 730 C 68.6507 2.91248 3.13622 0
M  V30 731 C 67.9767 2.83312 4.53474 0
M  V30 732 C 69.2767 4.3214 2.93346 0
M  V30 733 H 70.9707 2.62263 1.44425 0
M  V30 734 H 68.5167 1.26208 0.693367 0
M  V30 735 H 70.4697 1.88749 3.76765 0
M  V30 736 H 69.1937 0.799871 3.16654 0
M  V30 737 H 67.8527 2.78404 2.38509 0
M  V30 738 H 67.5007 1.84902 4.67782 0
M  V30 739 H 67.2007 3.60465 4.64046 0
M  V30 740 H 68.7247 2.97775 5.33069 0
M  V30 741 H 70.1387 4.45649 3.60652 0
M  V30 742 H 68.5357 5.1054 3.15387 0
M  V30 743 H 69.6057 4.46363 1.89441 0
M  V30 744 N 70.9488 -0.749086 1.3866 0
M  V30 745 C 72.3598 -1.32664 1.31366 0
M  V30 746 C 72.7108 -1.96179 -0.028484 0
M  V30 747 O 71.8358 -1.9537 -0.93057 0
M  V30 748 C 72.4308 -2.41219 2.37905 0
M  V30 749 C 70.9898 -2.94684 2.34176 0
M  V30 750 C 70.1368 -1.68108 2.20533 0
M  V30 751 H 73.0878 -0.547628 1.48952 0
M  V30 752 H 73.1088 -3.21268 2.0388 0
M  V30 753 H 72.6208 -1.94962 3.35576 0
M  V30 754 H 70.7218 -3.45258 1.401 0
M  V30 755 H 70.8348 -3.48757 3.2849 0
M  V30 756 H 69.1988 -1.91907 1.67463 0
M  V30 757 H 69.9818 -1.23923 3.20153 0
M  V30 758 N 72.4269 -1.23603 -0.977757 0
M  V30 759 C 73.6669 -1.08148 -1.73446 0
M  V30 760 C 74.0309 0.374785 -1.88307 0
M  V30 761 O 75.2319 0.650588 -2.60808 0
M  V30 762 C 73.5029 -1.78991 -3.0935 0
M  V30 763 S 75.0619 -1.79141 -4.00567 0
M  V30 764 H 71.8799 -0.386987 -0.596458 0
M  V30 765 H 74.4819 -1.5678 -1.16792 0
M  V30 766 H 73.1859 -2.8408 -2.96187 0
M  V30 767 H 72.7169 -1.30651 -3.71071 0
M  V30 768 H 74.7319 -0.851892 -4.88833 0
M  V30 769 N 73.905 1.17692 -1.04816 0
M  V30 770 C 75.133 1.91786 -0.776254 0
M  V30 771 C 75.548 1.76604 0.667577 0
M  V30 772 O 74.905 1.10067 1.45573 0
M  V30 773 C 74.956 3.42967 -1.14263 0
M  V30 774 O 74.677 3.57678 -2.52978 0
M  V30 775 C 76.178 4.34144 -0.896311 0
M  V30 776 H 73.398 0.608624 -0.282519 0
M  V30 777 H 75.942 1.49268 -1.39783 0
M  V30 778 H 74.097 3.83245 -0.565874 0
M  V30 779 H 74.511 4.51319 -2.67229 0
M  V30 780 H 75.985 5.38744 -1.20244 0
M  V30 781 H 76.462 4.38876 0.168636 0
M  V30 782 H 77.068 3.99574 -1.45672 0
M  V30 783 N 75.3831 0.828654 1.34056 0
M  V30 784 C 76.6301 0.419458 1.98108 0
M  V30 785 C 76.9581 -1.01886 1.65679 0
M  V30 786 O 76.2131 -1.72539 0.923512 0
M  V30 787 C 76.5121 0.575226 3.52741 0
M  V30 788 C 76.1781 1.98012 4.05095 0
M  V30 789 C 74.8401 2.36442 4.19104 0
M  V30 790 C 77.1921 2.89824 4.33188 0
M  V30 791 C 74.5201 3.66009 4.58535 0
M  V30 792 C 76.8721 4.1886 4.74066 0
M  V30 793 C 75.5361 4.5726 4.86281 0
M  V30 794 H 74.8061 0.153491 0.724929 0
M  V30 795 H 77.4531 1.05371 1.59904 0
M  V30 796 H 75.7581 -0.142385 3.91541 0
M  V30 797 H 77.4551 0.239057 4.00287 0
M  V30 798 H 74.0451 1.67162 3.94658 0
M  V30 799 H 78.2291 2.61375 4.21897 0
M  V30 800 H 73.4851 3.95579 4.66184 0
M  V30 801 H 77.6591 4.90086 4.94761 0
M  V30 802 H 75.2861 5.57707 5.16592 0
M  V30 803 N 76.8612 -1.46375 0.584142 0
M  V30 804 C 77.8092 -2.32042 -0.161047 0
M  V30 805 C 78.8032 -1.44569 -0.882966 0
M  V30 806 O 80.0092 -1.61186 -0.801191 0
M  V30 807 H 76.3842 -0.748659 -0.0708033 0
M  V30 808 H 78.3552 -2.92704 0.580269 0
M  V30 809 C 77.1042 -3.27762 -1.1605 0
M  V30 810 H 76.4272 -3.95051 -0.614419 0
M  V30 811 H 77.8672 -3.90481 -1.65228 0
M  V30 812 C 76.3262 -2.53218 -2.22221 0
M  V30 813 O 76.8562 -2.29628 -3.29597 0
M  V30 814 N 75.0622 -2.13756 -1.96868 0
M  V30 815 H 74.6092 -2.33142 -1.09557 0
M  V30 816 H 74.5672 -1.642 -2.68115 0
M  V30 817 N 78.3393 -0.321999 -1.54275 0
M  V30 818 C 79.5643 0.285791 -2.05422 0
M  V30 819 C 79.9893 1.45124 -1.19669 0
M  V30 820 O 79.3473 1.80132 -0.205441 0
M  V30 821 C 79.3953 0.69956 -3.53749 0
M  V30 822 O 78.4993 1.8021 -3.70942 0
M  V30 823 H 77.8403 0.0518962 -0.661969 0
M  V30 824 H 80.3703 -0.469954 -1.9913 0
M  V30 825 H 80.3803 0.982649 -3.9599 0
M  V30 826 H 79.0553 -0.152864 -4.15619 0
M  V30 827 H 77.6323 1.51794 -3.40607 0
M  V30 828 N 79.8174 1.5752 -0.0501392 0
M  V30 829 C 81.0574 1.94521 0.627783 0
M  V30 830 C 81.4214 0.928265 1.68069 0
M  V30 831 O 82.6224 1.18517 2.41261 0
M  V30 832 C 80.8934 3.36319 1.20932 0
M  V30 833 S 82.4524 3.95272 1.90539 0
M  V30 834 H 79.2704 0.680456 0.206158 0
M  V30 835 H 81.8724 1.95139 -0.118829 0
M  V30 836 H 80.5764 4.08132 0.430865 0
M  V30 837 H 80.1074 3.39193 1.99277 0
M  V30 838 H 82.1224 3.80415 3.18589 0
M  V30 839 N 81.2955 -0.223234 1.56011 0
M  V30 840 C 82.5255 -0.963413 1.82762 0
M  V30 841 C 82.9335 -1.78516 0.626804 0
M  V30 842 O 82.2765 -1.78974 -0.414014 0
M  V30 843 C 82.3385 -1.93126 3.0322 0
M  V30 844 C 82.0025 -1.2942 4.38291 0
M  V30 845 C 82.9995 -0.684916 5.15369 0
M  V30 846 C 80.6845 -1.30647 4.85012 0
M  V30 847 C 82.6785 -0.0963971 6.37327 0
M  V30 848 C 80.3655 -0.71411 6.06913 0
M  V30 849 C 81.3635 -0.110123 6.82911 0
M  V30 850 O 81.0515 0.47303 8.02507 0
M  V30 851 H 80.7835 -0.288011 0.611576 0
M  V30 852 H 83.3375 -0.244103 2.03944 0
M  V30 853 H 81.5675 -2.68952 2.77852 0
M  V30 854 H 83.2565 -2.53685 3.16857 0
M  V30 855 H 84.0225 -0.667774 4.80381 0
M  V30 856 H 79.9015 -1.76598 4.25833 0
M  V30 857 H 83.4455 0.375657 6.96588 0
M  V30 858 H 79.3425 -0.728659 6.41374 0
M  V30 859 H 80.1105 0.367186 8.17676 0
M  V30 860 N 82.7736 -1.49793 -0.48987 0
M  V30 861 C 84.0016 -1.63568 -1.26701 0
M  V30 862 C 84.4166 -0.311465 -1.86213 0
M  V30 863 O 83.7736 0.704416 -1.68357 0
M  V30 864 C 83.8246 -2.71284 -2.38929 0
M  V30 865 O 83.5456 -3.9857 -1.81861 0
M  V30 866 C 85.0466 -2.95864 -3.3012 0
M  V30 867 H 82.2666 -0.550342 -0.383881 0
M  V30 868 H 84.8106 -1.95898 -0.586864 0
M  V30 869 H 82.9656 -2.417 -3.02753 0
M  V30 870 H 83.3796 -4.57993 -2.55622 0
M  V30 871 H 84.8536 -3.74941 -4.05121 0
M  V30 872 H 85.3306 -2.06206 -3.87783 0
M  V30 873 H 85.9366 -3.26907 -2.72051 0
M  V30 874 N 84.2517 0.741722 -1.39055 0
M  V30 875 C 85.4977 1.50336 -1.36113 0
M  V30 876 C 85.8307 1.94148 0.0450796 0
M  V30 877 O 85.1057 1.66301 1.00868 0
M  V30 878 C 85.3887 2.74773 -2.32749 0
M  V30 879 C 85.2417 2.37023 -3.82283 0
M  V30 880 C 86.5607 3.76846 -2.27322 0
M  V30 881 H 83.6797 0.545351 -0.495743 0
M  V30 882 H 86.3217 0.848624 -1.69995 0
M  V30 883 H 84.4717 3.30639 -2.03986 0
M  V30 884 H 86.1437 1.8684 -4.21768 0
M  V30 885 H 84.3867 1.69334 -3.99385 0
M  V30 886 H 85.0577 3.26104 -4.45376 0
M  V30 887 H 87.5337 3.30548 -2.5274 0
M  V30 888 H 86.4097 4.6159 -2.97028 0
M  V30 889 H 86.6707 4.23286 -1.27599 0
M  V30 890 N 85.7298 1.2412 0.971189 0
M  V30 891 C 86.6778 1.02812 2.08644 0
M  V30 892 C 87.6718 -0.0358403 1.69362 0
M  V30 893 O 88.8778 0.118429 1.7961 0
M  V30 894 H 85.2528 0.315428 0.682649 0
M  V30 895 H 87.2238 1.97397 2.23779 0
M  V30 896 C 85.9728 0.645874 3.41649 0
M  V30 897 H 85.2958 1.45632 3.72332 0
M  V30 898 H 86.7358 0.536366 4.20594 0
M  V30 899 C 85.1948 -0.646713 3.30635 0
M  V30 900 O 85.7248 -1.69338 3.64263 0
M  V30 901 N 83.9308 -0.626115 2.83775 0
M  V30 902 H 83.4778 0.225988 2.56607 0
M  V30 903 H 83.4358 -1.49117 2.76788 0
M  V30 904 N 87.2079 -1.17134 1.05439 0
M  V30 905 C 88.1579 -2.1919 0.627675 0
M  V30 906 C 89.1419 -1.57328 -0.337147 0
M  V30 907 O 90.3339 -1.76329 -0.153976 0
M  V30 908 C 87.4629 -3.43299 0.00651435 0
M  V30 909 C 86.5489 -4.12255 0.995312 0
M  V30 910 N 86.9399 -4.56997 2.16765 0
M  V30 911 C 85.2379 -4.38316 0.824336 0
M  V30 912 C 85.9389 -5.10239 2.7934 0
M  V30 913 N 84.9149 -5.02595 2.07122 0
M  V30 914 H 88.7169 -2.5149 1.52086 0
M  V30 915 H 86.2309 -1.33491 0.924868 0
M  V30 916 H 88.2279 -4.15693 -0.316965 0
M  V30 917 H 86.8879 -3.1249 -0.882033 0
M  V30 918 H 87.8989 -4.51006 2.54587 0
M  V30 919 H 84.5759 -4.17498 -0.0129526 0
M  V30 920 H 85.9659 -5.54961 3.78772 0
M  V30 921 N 88.686 -0.835752 -1.33615 0
M  V30 922 C 89.633 -0.26473 -2.29277 0
M  V30 923 C 90.603 0.617712 -1.54187 0
M  V30 924 O 91.788 0.556641 -1.825 0
M  V30 925 C 88.928 0.556777 -3.40579 0
M  V30 926 C 88.041 -0.349339 -4.30585 0
M  V30 927 C 87.176 0.482969 -5.29 0
M  V30 928 C 86.215 -0.421732 -6.10645 0
M  V30 929 N 85.352 0.372262 -7.01112 0
M  V30 930 H 90.192 -1.08582 -2.77514 0
M  V30 931 H 87.729 -0.546927 -1.36554 0
M  V30 932 H 89.687 1.04852 -4.03809 0
M  V30 933 H 88.317 1.34286 -2.93542 0
M  V30 934 H 87.369 -0.959372 -3.68104 0
M  V30 935 H 88.681 -1.04445 -4.87742 0
M  V30 936 H 87.835 1.03866 -5.97743 0
M  V30 937 H 86.574 1.21153 -4.72412 0
M  V30 938 H 85.579 -0.989464 -5.40823 0
M  V30 939 H 86.804 -1.14861 -6.69316 0
M  V30 940 H 84.75 1.08426 -6.46977 0
M  V30 941 H 84.667 -0.264198 -7.55538 0
M  V30 942 H 85.935 0.910293 -7.74167 0
M  V30 943 N 90.1641 1.46063 -0.591896 0
M  V30 944 C 91.0961 2.28539 0.174001 0
M  V30 945 C 92.1091 1.39047 0.846753 0
M  V30 946 O 93.2981 1.63564 0.714774 0
M  V30 947 C 90.3981 3.14347 1.26645 0
M  V30 948 C 89.5711 4.32021 0.683856 0
M  V30 949 C 88.6301 4.99157 1.66518 0
M  V30 950 O 87.6561 5.56458 1.19763 0
M  V30 951 N 88.8581 4.97005 2.99943 0
M  V30 952 H 91.6231 2.94911 -0.533633 0
M  V30 953 H 89.1841 1.56077 -0.430294 0
M  V30 954 H 91.1761 3.56125 1.92242 0
M  V30 955 H 89.7461 2.49988 1.87682 0
M  V30 956 H 88.9661 3.93915 -0.1498 0
M  V30 957 H 90.2541 5.08059 0.274567 0
M  V30 958 H 89.6521 4.51714 3.40545 0
M  V30 959 H 88.2091 5.42696 3.61004 0
M  V30 960 N 91.6422 0.330177 1.54103 0
M  V30 961 C 92.8892 -0.270405 2.00686 0
M  V30 962 C 93.2172 -1.51621 1.21825 0
M  V30 963 O 92.4722 -1.93536 0.29025 0
M  V30 964 C 92.7712 -0.643134 3.51566 0
M  V30 965 C 92.4372 0.504251 4.48072 0
M  V30 966 C 91.0992 0.819163 4.74176 0
M  V30 967 C 93.4512 1.27465 5.05373 0
M  V30 968 C 90.7792 1.90708 5.5484 0
M  V30 969 C 93.1312 2.35271 5.87223 0
M  V30 970 C 91.7952 2.67336 6.11627 0
M  V30 971 H 91.0652 -0.0989482 0.734364 0
M  V30 972 H 93.7122 0.455324 1.86008 0
M  V30 973 H 92.0172 -1.44938 3.64006 0
M  V30 974 H 93.7142 -1.11949 3.85056 0
M  V30 975 H 90.3042 0.248733 4.27878 0
M  V30 976 H 94.4882 1.04462 4.85182 0
M  V30 977 H 89.7442 2.15991 5.71977 0
M  V30 978 H 93.9182 2.95405 6.30641 0
M  V30 979 H 91.5452 3.51763 6.73919 0
M  V30 980 N 93.1203 -1.57491 0.0584922 0
M  V30 981 C 94.3453 -1.97711 -0.62652 0
M  V30 982 C 94.7703 -0.936132 -1.63151 0
M  V30 983 O 94.1283 0.099811 -1.81025 0
M  V30 984 C 94.1763 -3.36989 -1.28338 0
M  V30 985 O 93.2803 -3.35433 -2.39913 0
M  V30 986 H 92.6213 -0.643868 -0.162266 0
M  V30 987 H 95.1513 -2.04193 0.129064 0
M  V30 988 H 95.1613 -3.73879 -1.63335 0
M  V30 989 H 93.8363 -4.12289 -0.546889 0
M  V30 990 H 92.4133 -3.10298 -2.06809 0
M  V30 991 N 94.5984 0.214957 -1.56127 0
M  V30 992 C 95.5284 1.2695 -1.95974 0
M  V30 993 C 96.5094 1.48539 -0.828868 0
M  V30 994 O 97.6944 1.60611 -1.09168 0
M  V30 995 C 94.8244 2.61794 -2.28214 0
M  V30 996 C 93.7784 2.54851 -3.43853 0
M  V30 997 C 93.1044 3.93785 -3.61715 0
M  V30 998 C 94.4044 2.09065 -4.78632 0
M  V30 999 H 96.0984 0.93846 -2.84312 0
M  V30 1000 H 93.6444 0.449996 -1.36788 0
M  V30 1001 H 95.5974 3.35731 -2.54682 0
M  V30 1002 H 94.3214 2.96599 -1.36736 0
M  V30 1003 H 92.9804 1.8337 -3.17444 0
M  V30 1004 H 92.6284 4.25908 -2.67602 0
M  V30 1005 H 92.3284 3.90019 -4.39498 0
M  V30 1006 H 93.8524 4.69374 -3.90539 0
M  V30 1007 H 95.2664 2.7275 -5.04262 0
M  V30 1008 H 93.6634 2.16346 -5.59745 0
M  V30 1009 H 94.7334 1.04315 -4.73547 0
M  V30 1010 N 96.0765 1.50051 0.48192 0
M  V30 1011 C 97.0245 1.68635 1.60203 0
M  V30 1012 C 98.0185 0.552184 1.60148 0
M  V30 1013 O 99.2245 0.732377 1.64427 0
M  V30 1014 H 95.5995 0.532081 0.531407 0
M  V30 1015 H 97.5705 2.62616 1.41688 0
M  V30 1016 C 96.3195 1.78775 2.9822 0
M  V30 1017 H 95.6425 2.6543 2.98976 0
M  V30 1018 H 97.0825 1.95806 3.7608 0
M  V30 1019 C 95.5415 0.536849 3.32595 0
M  V30 1020 O 96.0715 -0.328897 4.00351 0
M  V30 1021 N 94.2775 0.394091 2.87915 0
M  V30 1022 H 93.8245 1.09962 2.32951 0
M  V30 1023 H 93.7825 -0.441737 3.11281 0
M  V30 1024 N 97.5546 -0.734337 1.39446 0
M  V30 1025 C 98.8006 -1.49505 1.37913 0
M  V30 1026 C 99.1556 -1.92384 -0.0248416 0
M  V30 1027 O 98.4486 -1.6395 -0.991506 0
M  V30 1028 C 98.6426 -2.74711 2.28623 0
M  V30 1029 C 98.4716 -2.44075 3.777 0
M  V30 1030 C 97.2416 -2.36338 4.46623 0
M  V30 1031 C 99.4396 -2.09574 4.69663 0
M  V30 1032 N 97.4216 -1.9818 5.81032 0
M  V30 1033 C 98.7926 -1.81865 5.92727 0
M  V30 1034 C 100.848 -1.96048 4.57678 0
M  V30 1035 C 99.5506 -1.41992 7.05146 0
M  V30 1036 C 101.577 -1.57579 5.7002 0
M  V30 1037 C 100.939 -1.30754 6.92158 0
M  V30 1038 H 97.0376 -0.545896 0.55993 0
M  V30 1039 H 99.6216 -0.853373 1.75002 0
M  V30 1040 H 97.7926 -3.36657 1.93692 0
M  V30 1041 H 99.5246 -3.40916 2.18078 0
M  V30 1042 H 96.2796 -2.53456 4.00071 0
M  V30 1043 H 96.7036 -1.81691 6.52163 0
M  V30 1044 H 101.346 -2.15455 3.63784 0
M  V30 1045 H 99.0636 -1.21327 7.9894 0
M  V30 1046 H 102.65 -1.47718 5.62735 0
M  V30 1047 H 101.53 -1.01432 7.77612 0
M  V30 1048 N 99.0327 -1.24633 -0.964593 0
M  V30 1049 C 100.261 -1.11501 -1.74285 0
M  V30 1050 C 100.676 0.332165 -1.85855 0
M  V30 1051 O 100.033 1.22903 -1.34911 0
M  V30 1052 C 100.084 -1.75258 -3.16175 0
M  V30 1053 O 99.8047 -3.14318 -3.05182 0
M  V30 1054 C 101.306 -1.67776 -4.10324 0
M  V30 1055 H 98.5257 -0.389407 -0.546446 0
M  V30 1056 H 101.07 -1.64801 -1.21083 0
M  V30 1057 H 99.2247 -1.25954 -3.66353 0
M  V30 1058 H 99.6387 -3.4551 -3.94618 0
M  V30 1059 H 101.113 -2.17064 -5.0753 0
M  V30 1060 H 101.59 -0.639584 -4.34518 0
M  V30 1061 H 102.196 -2.16522 -3.66058 0
M  V30 1062 N 100.511 1.16574 -1.06058 0
M  V30 1063 C 101.741 1.90675 -0.795397 0
M  V30 1064 C 102.149 1.77547 0.653735 0
M  V30 1065 O 101.492 1.11611 1.45907 0
M  V30 1066 C 101.554 3.42011 -1.10764 0
M  V30 1067 C 101.218 3.78924 -2.55471 0
M  V30 1068 C 102.215 3.81042 -3.53699 0
M  V30 1069 C 99.8998 4.09626 -2.90708 0
M  V30 1070 C 101.894 4.13346 -4.85205 0
M  V30 1071 C 99.5808 4.41597 -4.22416 0
M  V30 1072 C 100.579 4.43436 -5.19474 0
M  V30 1073 O 100.267 4.74649 -6.48817 0
M  V30 1074 H 99.9988 0.611554 -0.288058 0
M  V30 1075 H 102.553 1.48711 -1.41683 0
M  V30 1076 H 100.783 3.84312 -0.429128 0
M  V30 1077 H 102.472 3.97384 -0.827077 0
M  V30 1078 H 103.238 3.57437 -3.27817 0
M  V30 1079 H 99.1168 4.07361 -2.15819 0
M  V30 1080 H 102.661 4.14696 -5.60957 0
M  V30 1081 H 98.5578 4.64667 -4.48056 0
M  V30 1082 H 99.3258 4.9247 -6.5377 0
M  V30 1083 N 101.989 0.842826 1.3317 0
M  V30 1084 C 102.921 0.236245 2.27979 0
M  V30 1085 C 103.934 -0.585282 1.51915 0
M  V30 1086 O 105.123 -0.411705 1.73687 0
M  V30 1087 C 102.223 -0.685717 3.3189 0
M  V30 1088 C 101.396 0.0973448 4.37292 0
M  V30 1089 C 100.455 -0.748565 5.20848 0
M  V30 1090 O 99.4809 -0.186339 5.68895 0
M  V30 1091 N 100.683 -2.06527 5.42519 0
M  V30 1092 H 103.448 1.05088 2.80672 0
M  V30 1093 H 101.009 0.701667 1.45905 0
M  V30 1094 H 103.001 -1.25669 3.84694 0
M  V30 1095 H 101.571 -1.40105 2.79445 0
M  V30 1096 H 100.791 0.849706 3.84933 0
M  V30 1097 H 102.079 0.635643 5.04814 0
M  V30 1098 H 101.477 -2.54554 5.05192 0
M  V30 1099 H 100.034 -2.58464 5.98364 0
M  V30 1100 N 103.467 -1.45747 0.599634 0
M  V30 1101 C 104.377 -2.34262 -0.125888 0
M  V30 1102 C 105.393 -1.50768 -0.868625 0
M  V30 1103 O 106.569 -1.83592 -0.828003 0
M  V30 1104 C 103.634 -3.28252 -1.11587 0
M  V30 1105 C 102.695 -4.27651 -0.375956 0
M  V30 1106 C 101.928 -5.1715 -1.31877 0
M  V30 1107 O 102.151 -5.09916 -2.55621 0
M  V30 1108 O 101.085 -5.96286 -0.820157 0
M  V30 1109 H 104.911 -2.97688 0.601315 0
M  V30 1110 H 102.496 -1.44999 0.359934 0
M  V30 1111 H 104.378 -3.86191 -1.68626 0
M  V30 1112 H 103.053 -2.67401 -1.82424 0
M  V30 1113 H 101.96 -3.7335 0.236698 0
M  V30 1114 H 103.293 -4.91334 0.29177 0
M  V30 1115 N 104.945 -0.338344 -1.53925 0
M  V30 1116 C 106.185 0.260168 -2.02737 0
M  V30 1117 C 106.549 1.48181 -1.22092 0
M  V30 1118 O 107.75 2.15416 -1.60777 0
M  V30 1119 C 106.021 0.571627 -3.52799 0
M  V30 1120 S 107.58 1.14769 -4.23525 0
M  V30 1121 H 104.398 0.077791 -0.706732 0
M  V30 1122 H 107 -0.474899 -1.89644 0
M  V30 1123 H 105.704 -0.325392 -4.09108 0
M  V30 1124 H 105.235 1.3365 -3.70002 0
M  V30 1125 H 107.25 2.43372 -4.32417 0
M  V30 1126 N 106.423 1.57458 -0.0668435 0
M  V30 1127 C 107.371 2.13639 0.919851 0
M  V30 1128 C 108.365 1.07204 1.31163 0
M  V30 1129 O 109.571 1.25591 1.28945 0
M  V30 1130 H 105.946 0.683048 0.314562 0
M  V30 1131 H 107.917 2.95415 0.421047 0
M  V30 1132 C 106.666 2.70892 2.17975 0
M  V30 1133 H 105.989 3.5246 1.88711 0
M  V30 1134 H 107.429 3.13803 2.85138 0
M  V30 1135 C 105.888 1.65414 2.93496 0
M  V30 1136 O 106.418 1.07619 3.87015 0
M  V30 1137 N 104.624 1.36564 2.56512 0
M  V30 1138 H 104.171 1.83751 1.80536 0
M  V30 1139 H 104.129 0.66223 3.07347 0
M  V30 1140 N 107.901 -0.206675 1.56239 0
M  V30 1141 C 108.849 -1.27571 1.94495 0
M  V30 1142 C 109.843 -1.47737 0.828862 0
M  V30 1143 O 111.049 -1.48735 1.0138 0
M  V30 1144 H 107.424 -0.428029 0.6183 0
M  V30 1145 H 109.395 -0.925961 2.8367 0
M  V30 1146 C 108.144 -2.61568 2.29079 0
M  V30 1147 H 107.467 -2.46863 3.14482 0
M  V30 1148 H 108.907 -3.35144 2.5972 0
M  V30 1149 C 107.366 -3.17695 1.12123 0
M  V30 1150 O 107.896 -3.99801 0.390153 0
M  V30 1151 N 106.102 -2.76276 0.901097 0
M  V30 1152 H 105.649 -2.09613 1.49733 0
M  V30 1153 H 105.607 -3.1417 0.120319 0
M  V30 1154 N 109.379 -1.50304 -0.473955 0
M  V30 1155 C 110.619 -1.62786 -1.23612 0
M  V30 1156 C 110.983 -0.319786 -1.89318 0
M  V30 1157 O 112.184 -0.320012 -2.66888 0
M  V30 1158 C 110.455 -2.77351 -2.25414 0
M  V30 1159 S 112.014 -3.09948 -3.10608 0
M  V30 1160 H 108.832 -0.573895 -0.419721 0
M  V30 1161 H 111.434 -1.88076 -0.533623 0
M  V30 1162 H 110.138 -3.70879 -1.75719 0
M  V30 1163 H 109.669 -2.54137 -3.00296 0
M  V30 1164 H 111.684 -2.53553 -4.26527 0
M  V30 1165 N 110.857 0.726932 -1.39834 0
M  V30 1166 C 112.082 1.52121 -1.40976 0
M  V30 1167 C 112.507 1.88098 -0.00826029 0
M  V30 1168 O 111.865 1.52479 0.980807 0
M  V30 1169 C 111.913 2.78021 -2.29644 0
M  V30 1170 O 111.017 3.74272 -1.73188 0
M  V30 1171 H 110.358 0.45908 -0.479731 0
M  V30 1172 H 112.888 0.896207 -1.83927 0
M  V30 1173 H 112.898 3.26671 -2.44438 0
M  V30 1174 H 111.573 2.51169 -3.31492 0
M  V30 1175 H 110.15 3.33073 -1.6768 0
M  V30 1176 N 112.336 1.25143 0.95797 0
M  V30 1177 C 113.246 1.06968 2.08794 0
M  V30 1178 C 114.262 0.00773911 1.73998 0
M  V30 1179 O 115.438 0.207972 2.00323 0
M  V30 1180 C 112.503 0.68691 3.39827 0
M  V30 1181 C 111.564 1.82641 3.88511 0
M  V30 1182 C 110.797 1.46181 5.1329 0
M  V30 1183 O 111.02 0.355971 5.69288 0
M  V30 1184 O 109.954 2.29085 5.566 0
M  V30 1185 H 113.78 2.01723 2.27027 0
M  V30 1186 H 111.365 1.04051 1.07209 0
M  V30 1187 H 113.247 0.485417 4.18595 0
M  V30 1188 H 111.922 -0.231417 3.22872 0
M  V30 1189 H 110.829 2.08274 3.10762 0
M  V30 1190 H 112.162 2.72386 4.09959 0
M  V30 1191 N 113.814 -1.1601 1.06675 0
M  V30 1192 C 114.724 -2.24156 0.692179 0
M  V30 1193 C 115.74 -1.71507 -0.293513 0
M  V30 1194 O 116.916 -2.009 -0.141861 0
M  V30 1195 C 113.981 -3.46587 0.0884131 0
M  V30 1196 C 113.042 -4.14257 1.12646 0
M  V30 1197 C 112.275 -5.30844 0.551416 0
M  V30 1198 O 112.498 -5.66858 -0.634656 0
M  V30 1199 O 111.432 -5.87848 1.29298 0
M  V30 1200 H 115.258 -2.58513 1.59388 0
M  V30 1201 H 112.843 -1.23599 0.83926 0
M  V30 1202 H 114.725 -4.20679 -0.246361 0
M  V30 1203 H 113.4 -3.13994 -0.786712 0
M  V30 1204 H 112.307 -3.42118 1.51348 0
M  V30 1205 H 113.64 -4.50914 1.97325 0
M  V30 1206 N 115.292 -0.849877 -1.32721 0
M  V30 1207 C 116.225 -0.235903 -2.26977 0
M  V30 1208 C 117.203 0.623355 -1.50177 0
M  V30 1209 O 118.387 0.581207 -1.79316 0
M  V30 1210 C 115.514 0.667712 -3.32053 0
M  V30 1211 C 114.56 -0.11753 -4.26338 0
M  V30 1212 S 115.393 -1.48277 -5.14562 0
M  V30 1213 C 116.549 -0.584741 -6.23163 0
M  V30 1214 H 116.782 -1.03495 -2.78704 0
M  V30 1215 H 114.315 -0.64724 -1.40179 0
M  V30 1216 H 116.273 1.18343 -3.93072 0
M  V30 1217 H 114.934 1.44052 -2.7912 0
M  V30 1218 H 114.127 0.57051 -5.00761 0
M  V30 1219 H 113.729 -0.564668 -3.69713 0
M  V30 1220 H 116.021 0.212968 -6.77165 0
M  V30 1221 H 116.964 -1.29947 -6.96074 0
M  V30 1222 H 117.372 -0.161202 -5.6427 0
M  V30 1223 N 116.77 1.45427 -0.607355 0
M  V30 1224 C 118.017 2.02241 -0.102455 0
M  V30 1225 C 118.345 1.4758 1.26691 0
M  V30 1226 O 117.6 0.640468 1.84923 0
M  V30 1227 C 117.899 3.57398 -0.0129263 0
M  V30 1228 C 117.565 4.3121 -1.31792 0
M  V30 1229 C 116.227 4.51092 -1.67539 0
M  V30 1230 C 118.579 4.73401 -2.18039 0
M  V30 1231 C 115.907 5.10422 -2.89285 0
M  V30 1232 C 118.259 5.34078 -3.39034 0
M  V30 1233 C 116.923 5.52184 -3.75033 0
M  V30 1234 H 116.193 0.740051 -0.037491 0
M  V30 1235 H 118.84 1.74494 -0.788926 0
M  V30 1236 H 117.145 3.84421 0.756806 0
M  V30 1237 H 118.842 3.99061 0.393881 0
M  V30 1238 H 115.432 4.16047 -1.02968 0
M  V30 1239 H 119.616 4.57774 -1.91721 0
M  V30 1240 H 114.872 5.22629 -3.17283 0
M  V30 1241 H 119.046 5.65724 -4.06115 0
M  V30 1242 H 116.673 5.97925 -4.69457 0
M  V30 1243 N 118.248 0.346503 1.53744 0
M  V30 1244 C 119.178 -0.501193 2.28058 0
M  V30 1245 C 120.159 -1.10014 1.29734 0
M  V30 1246 O 121.344 -1.12097 1.58581 0
M  V30 1247 C 118.474 -1.65078 3.05559 0
M  V30 1248 C 117.428 -1.18003 4.11411 0
M  V30 1249 C 116.754 -2.41837 4.76884 0
M  V30 1250 C 118.054 -0.278394 5.21558 0
M  V30 1251 H 119.748 0.11875 2.99164 0
M  V30 1252 H 117.294 0.0585531 1.43881 0
M  V30 1253 H 119.247 -2.25028 3.56287 0
M  V30 1254 H 117.971 -2.29767 2.32109 0
M  V30 1255 H 116.63 -0.603331 3.61601 0
M  V30 1256 H 116.278 -3.0494 4.00026 0
M  V30 1257 H 115.978 -2.1102 5.48402 0
M  V30 1258 H 117.502 -3.02508 5.30397 0
M  V30 1259 H 118.916 -0.784823 5.67903 0
M  V30 1260 H 117.313 -0.0619707 6.00068 0
M  V30 1261 H 118.383 0.684677 4.80042 0
M  V30 1262 N 119.726 -1.57421 0.075193 0
M  V30 1263 C 120.658 -2.09904 -0.920483 0
M  V30 1264 C 121.671 -1.03191 -1.25918 0
M  V30 1265 O 122.86 -1.30695 -1.21577 0
M  V30 1266 C 119.96 -2.54726 -2.23534 0
M  V30 1267 C 119.133 -3.8505 -2.07498 0
M  V30 1268 C 118.192 -4.15929 -3.22319 0
M  V30 1269 O 117.218 -4.85474 -2.9716 0
M  V30 1270 N 118.42 -3.69745 -4.47514 0
M  V30 1271 H 121.185 -2.95954 -0.472359 0
M  V30 1272 H 118.746 -1.61523 -0.110444 0
M  V30 1273 H 120.738 -2.72443 -2.9926 0
M  V30 1274 H 119.308 -1.73795 -2.59835 0
M  V30 1275 H 118.528 -3.76679 -1.16219 0
M  V30 1276 H 119.816 -4.70348 -1.94038 0
M  V30 1277 H 119.214 -3.13569 -4.7084 0
M  V30 1278 H 117.771 -3.92655 -5.20255 0
M  V30 1279 N 121.204 0.198386 -1.56346 0
M  V30 1280 C 122.451 0.919286 -1.80431 0
M  V30 1281 C 122.779 1.83393 -0.647866 0
M  V30 1282 O 122.034 1.92236 0.366556 0
M  V30 1283 C 122.333 1.77031 -3.10475 0
M  V30 1284 C 121.999 1.00693 -4.39513 0
M  V30 1285 C 120.661 0.796145 -4.74568 0
M  V30 1286 C 123.013 0.469559 -5.19081 0
M  V30 1287 C 120.341 0.0364588 -5.86689 0
M  V30 1288 C 122.693 -0.2769 -6.31994 0
M  V30 1289 C 121.357 -0.49873 -6.65634 0
M  V30 1290 H 120.627 0.336391 -0.660244 0
M  V30 1291 H 123.274 0.185872 -1.90596 0
M  V30 1292 H 121.579 2.5723 -2.95533 0
M  V30 1293 H 123.276 2.33065 -3.26315 0
M  V30 1294 H 119.866 1.18122 -4.12001 0
M  V30 1295 H 124.05 0.619816 -4.92414 0
M  V30 1296 H 119.306 -0.145412 -6.11227 0
M  V30 1297 H 123.48 -0.700684 -6.92866 0
M  V30 1298 H 121.107 -1.0893 -7.52355 0
M  V30 1299 N 122.682 1.50554 0.465978 0
M  V30 1300 C 124.098 1.38093 0.800154 0
M  V30 1301 C 124.298 0.440988 1.96615 0
M  V30 1302 O 123.354 -0.114499 2.5224 0
M  V30 1303 C 124.667 2.79565 1.10742 0
M  V30 1304 C 126.215 2.88516 1.21357 0
M  V30 1305 C 126.69 4.30833 1.55393 0
M  V30 1306 N 128.181 4.33807 1.62375 0
M  V30 1307 C 128.916 5.40927 1.90225 0
M  V30 1308 N 128.412 6.58247 2.16062 0
M  V30 1309 N 130.205 5.28376 1.9177 0
M  V30 1310 H 122.356 2.10237 -0.302366 0
M  V30 1311 H 124.619 0.945203 -0.0727746 0
M  V30 1312 H 124.325 3.50208 0.323661 0
M  V30 1313 H 124.199 3.17125 2.04234 0
M  V30 1314 H 126.586 2.1809 1.98799 0
M  V30 1315 H 126.667 2.54492 0.258321 0
M  V30 1316 H 126.311 5.01799 0.784889 0
M  V30 1317 H 126.241 4.62347 2.52076 0
M  V30 1318 H 128.732 3.49212 1.44427 0
M  V30 1319 H 129.045 7.3569 2.36601 0
M  V30 1320 H 127.39 6.61413 2.13444 0
M  V30 1321 H 130.581 4.35715 1.71085 0
M  V30 1322 H 130.754 6.11944 2.13139 0
M  V30 1323 N 124.16 -0.719506 1.40217 0
M  V30 1324 C 125.093 -1.84298 1.34571 0
M  V30 1325 C 126.071 -1.61149 0.216741 0
M  V30 1326 O 127.255 -1.84212 0.399756 0
M  V30 1327 C 124.382 -3.20568 1.09335 0
M  V30 1328 C 123.428 -3.62551 2.24631 0
M  V30 1329 S 124.261 -3.7012 3.87004 0
M  V30 1330 C 125.417 -5.09154 3.64024 0
M  V30 1331 H 125.65 -1.88807 2.2965 0
M  V30 1332 H 123.183 -0.885901 1.26456 0
M  V30 1333 H 125.141 -3.99246 0.954602 0
M  V30 1334 H 123.802 -3.13696 0.159164 0
M  V30 1335 H 122.995 -4.61483 2.02606 0
M  V30 1336 H 122.597 -2.91119 2.34789 0
M  V30 1337 H 124.889 -5.95955 3.22248 0
M  V30 1338 H 125.832 -5.36213 4.62473 0
M  V30 1339 H 126.24 -4.79562 2.97793 0
M  V30 1340 N 125.638 -1.25649 -0.95132 0
M  V30 1341 C 126.585 -1.06323 -2.04851 0
M  V30 1342 C 127.555 0.0286491 -1.66075 0
M  V30 1343 O 128.74 -0.12917 -1.90362 0
M  V30 1344 C 125.88 -0.691529 -3.381 0
M  V30 1345 C 124.993 -1.85861 -3.89974 0
M  V30 1346 C 124.128 -1.43096 -5.11563 0
M  V30 1347 C 123.167 -2.56696 -5.55674 0
M  V30 1348 N 122.304 -2.14684 -6.68472 0
M  V30 1349 H 127.144 -2.00222 -2.20715 0
M  V30 1350 H 124.681 -0.997027 -1.08156 0
M  V30 1351 H 126.639 -0.456963 -4.1469 0
M  V30 1352 H 125.269 0.210474 -3.22113 0
M  V30 1353 H 124.321 -2.20639 -3.09875 0
M  V30 1354 H 125.633 -2.71161 -4.18657 0
M  V30 1355 H 124.787 -1.15624 -5.9558 0
M  V30 1356 H 123.526 -0.548722 -4.84603 0
M  V30 1357 H 122.531 -2.84909 -4.7022 0
M  V30 1358 H 123.756 -3.45503 -5.8464 0
M  V30 1359 H 121.702 -1.28881 -6.43215 0
M  V30 1360 H 121.619 -2.9353 -6.96689 0
M  V30 1361 H 122.887 -1.90397 -7.5589 0
M  V30 1362 N 127.117 1.15442 -1.07289 0
M  V30 1363 C 128.366 1.85557 -0.790669 0
M  V30 1364 C 128.679 1.83186 0.685739 0
M  V30 1365 O 129.885 2.48977 1.0827 0
M  V30 1366 C 128.341 3.33038 -1.36433 0
M  V30 1367 C 127.949 3.43856 -2.8717 0
M  V30 1368 C 129.693 4.0834 -1.1601 0
M  V30 1369 C 127.6 4.85482 -3.3773 0
M  V30 1370 H 126.53 0.695122 -0.292098 0
M  V30 1371 H 129.181 1.30219 -1.29287 0
M  V30 1372 H 127.563 3.88043 -0.789864 0
M  V30 1373 H 128.737 2.98961 -3.50655 0
M  V30 1374 H 127.052 2.81998 -3.06376 0
M  V30 1375 H 129.649 5.12859 -1.51262 0
M  V30 1376 H 129.992 4.16182 -0.0991007 0
M  V30 1377 H 130.525 3.59603 -1.70089 0
M  V30 1378 H 127.264 4.82823 -4.43353 0
M  V30 1379 H 126.784 5.30961 -2.78999 0
M  V30 1380 H 128.463 5.54335 -3.33648 0
M  V30 1381 N 128.595 0.856903 1.32268 0
M  V30 1382 C 129.844 0.457599 1.96441 0
M  V30 1383 C 130.157 -0.992426 1.68553 0
M  V30 1384 O 131.363 -1.49727 2.26482 0
M  V30 1385 C 129.819 0.767358 3.51624 0
M  V30 1386 C 129.427 2.23326 3.88367 0
M  V30 1387 C 131.171 0.435887 4.22256 0
M  V30 1388 C 129.078 2.48613 5.36606 0
M  V30 1389 H 128.008 0.167387 0.735185 0
M  V30 1390 H 130.659 1.048 1.5063 0
M  V30 1391 H 129.041 0.106367 3.95857 0
M  V30 1392 H 130.215 2.93623 3.55137 0
M  V30 1393 H 128.53 2.52948 3.30766 0
M  V30 1394 H 131.127 0.602202 5.31298 0
M  V30 1395 H 131.47 -0.622672 4.11617 0
M  V30 1396 H 132.003 1.05286 3.83614 0
M  V30 1397 H 128.742 3.53101 5.52268 0
M  V30 1398 H 128.262 1.82896 5.71235 0
M  V30 1399 H 129.941 2.32676 6.03714 0
M  V30 1400 N 130.073 -1.45103 0.615059 0
M  V30 1401 C 131.021 -2.32331 -0.111791 0
M  V30 1402 C 132.015 -1.46409 -0.852102 0
M  V30 1403 O 133.221 -1.62849 -0.766821 0
M  V30 1404 H 129.596 -0.749993 -0.0549072 0
M  V30 1405 H 131.567 -2.91407 0.642225 0
M  V30 1406 C 130.316 -3.3015 -1.09071 0
M  V30 1407 H 129.639 -3.96265 -0.530485 0
M  V30 1408 H 131.079 -3.93898 -1.56908 0
M  V30 1409 C 129.538 -2.57875 -2.168 0
M  V30 1410 O 130.068 -2.36567 -3.24652 0
M  V30 1411 N 128.274 -2.17884 -1.92289 0
M  V30 1412 H 127.821 -2.35413 -1.04587 0
M  V30 1413 H 127.779 -1.6985 -2.64572 0
M  V30 1414 N 131.551 -0.354651 -1.53558 0
M  V30 1415 C 132.481 0.489091 -2.2832 0
M  V30 1416 C 133.462 1.09324 -1.30316 0
M  V30 1417 O 134.647 1.11255 -1.59173 0
M  V30 1418 C 131.777 1.63456 -3.0643 0
M  V30 1419 C 130.731 1.1582 -4.12031 0
M  V30 1420 C 130.057 2.39305 -4.7816 0
M  V30 1421 C 131.357 0.250731 -5.21698 0
M  V30 1422 H 133.051 -0.134614 -2.99097 0
M  V30 1423 H 130.597 -0.0661826 -1.43848 0
M  V30 1424 H 132.55 2.23136 -3.57475 0
M  V30 1425 H 131.274 2.28533 -2.33325 0
M  V30 1426 H 129.933 0.584146 -3.61916 0
M  V30 1427 H 129.581 3.02814 -4.01637 0
M  V30 1428 H 129.281 2.08109 -5.49513 0
M  V30 1429 H 130.805 2.99691 -5.31994 0
M  V30 1430 H 132.219 0.754695 -5.68311 0
M  V30 1431 H 130.616 0.0301468 -6.00092 0
M  V30 1432 H 131.686 -0.710125 -4.79672 0
M  V30 1433 N 133.029 1.57378 -0.0835403 0
M  V30 1434 C 133.976 2.13384 0.879539 0
M  V30 1435 C 134.946 1.04936 1.28754 0
M  V30 1436 O 136.131 1.32662 1.37133 0
M  V30 1437 C 133.271 2.70932 2.13752 0
M  V30 1438 C 132.384 3.93575 1.7811 0
M  V30 1439 C 131.519 4.39326 2.98607 0
M  V30 1440 C 130.558 5.54587 2.59037 0
M  V30 1441 N 129.695 5.95243 3.72331 0
M  V30 1442 H 134.535 2.9537 0.395076 0
M  V30 1443 H 132.072 1.45953 0.183349 0
M  V30 1444 H 134.03 3.02411 2.87408 0
M  V30 1445 H 132.66 1.91693 2.59718 0
M  V30 1446 H 131.712 3.68483 0.94469 0
M  V30 1447 H 133.024 4.77258 1.45005 0
M  V30 1448 H 132.178 4.72528 3.80529 0
M  V30 1449 H 130.917 3.5452 3.34913 0
M  V30 1450 H 129.922 5.21024 1.75539 0
M  V30 1451 H 131.147 6.41133 2.23887 0
M  V30 1452 H 129.093 5.13385 4.08378 0
M  V30 1453 H 129.01 6.73694 3.43034 0
M  V30 1454 H 130.278 6.33072 4.54797 0
M  V30 1455 N 134.507 -0.190092 1.56449 0
M  V30 1456 C 135.437 -1.23816 1.97969 0
M  V30 1457 C 136.418 -1.47201 0.852395 0
M  V30 1458 O 137.603 -1.58854 1.1171 0
M  V30 1459 C 134.733 -2.5813 2.3235 0
M  V30 1460 C 133.687 -2.49348 3.47864 0
M  V30 1461 C 133.013 -3.8798 3.67934 0
M  V30 1462 C 134.313 -2.01424 4.81898 0
M  V30 1463 H 136.007 -0.89311 2.85769 0
M  V30 1464 H 133.553 -0.428177 1.37487 0
M  V30 1465 H 135.506 -3.31637 2.59991 0
M  V30 1466 H 134.23 -2.94386 1.41438 0
M  V30 1467 H 132.889 -1.78297 3.20321 0
M  V30 1468 H 132.537 -4.21597 2.74344 0
M  V30 1469 H 132.237 -3.82978 4.45648 0
M  V30 1470 H 133.761 -4.63101 3.97957 0
M  V30 1471 H 135.175 -2.64693 5.08538 0
M  V30 1472 H 133.572 -2.07413 5.63116 0
M  V30 1473 H 134.642 -0.967677 4.75146 0
M  V30 1474 N 135.985 -1.50799 -0.457987 0
M  V30 1475 C 136.895 -1.73426 -1.57989 0
M  V30 1476 C 137.911 -0.617745 -1.62665 0
M  V30 1477 O 139.087 -0.897614 -1.80291 0
M  V30 1478 C 136.152 -1.83557 -2.94122 0
M  V30 1479 C 135.213 -3.07345 -2.99729 0
M  V30 1480 C 134.446 -3.16983 -4.29368 0
M  V30 1481 O 134.669 -2.33077 -5.20607 0
M  V30 1482 O 133.603 -4.09812 -4.40837 0
M  V30 1483 H 137.429 -2.68555 -1.41817 0
M  V30 1484 H 135.014 -1.35052 -0.638859 0
M  V30 1485 H 136.896 -1.92326 -3.74952 0
M  V30 1486 H 135.571 -0.916137 -3.10465 0
M  V30 1487 H 134.478 -3.04068 -2.1793 0
M  V30 1488 H 135.811 -3.9891 -2.88326 0
M  V30 1489 N 137.463 0.71206 -1.40597 0
M  V30 1490 C 138.879 1.02058 -1.22704 0
M  V30 1491 C 139.079 2.01228 -0.104729 0
M  V30 1492 O 138.135 2.4674 0.53624 0
M  V30 1493 C 139.448 1.56094 -2.57012 0
M  V30 1494 C 140.996 1.6806 -2.64054 0
M  V30 1495 C 141.471 2.25501 -3.9864 0
M  V30 1496 N 142.962 2.32882 -4.004 0
M  V30 1497 C 143.697 2.78317 -5.01325 0
M  V30 1498 N 143.193 3.23478 -6.12645 0
M  V30 1499 N 144.986 2.77733 -4.88693 0
M  V30 1500 H 137.137 0.0547896 -2.12329 0
M  V30 1501 H 139.4 0.0869027 -0.944008 0
M  V30 1502 H 139.106 0.906865 -3.39807 0
M  V30 1503 H 138.98 2.54564 -2.78347 0
M  V30 1504 H 141.367 2.32583 -1.81629 0
M  V30 1505 H 141.448 0.681802 -2.46546 0
M  V30 1506 H 141.092 1.61598 -4.81506 0
M  V30 1507 H 141.022 3.26102 -4.13479 0
M  V30 1508 H 143.513 2.00991 -3.20017 0
M  V30 1509 H 143.826 3.56725 -6.85542 0
M  V30 1510 H 142.171 3.21429 -6.16205 0
M  V30 1511 H 145.362 2.4179 -4.00818 0
M  V30 1512 H 145.535 3.12826 -5.67489 0
M  V30 1513 N 138.941 1.26152 0.944643 0
M  V30 1514 C 140.188 1.11492 1.69044 0
M  V30 1515 C 140.516 -0.342366 1.91463 0
M  V30 1516 O 139.771 -1.26812 1.49054 0
M  V30 1517 C 140.07 1.82541 3.07268 0
M  V30 1518 C 139.736 3.32445 3.04616 0
M  V30 1519 C 138.398 3.73337 3.036 0
M  V30 1520 C 140.75 4.28171 2.97185 0
M  V30 1521 C 138.078 5.08348 2.92915 0
M  V30 1522 C 140.43 5.63218 2.88041 0
M  V30 1523 C 139.094 6.03426 2.85366 0
M  V30 1524 H 138.364 0.407977 0.618576 0
M  V30 1525 H 141.011 1.56551 1.10291 0
M  V30 1526 H 139.316 1.29941 3.69625 0
M  V30 1527 H 141.013 1.68642 3.63815 0
M  V30 1528 H 137.603 2.99915 3.06185 0
M  V30 1529 H 141.787 3.97563 2.97081 0
M  V30 1530 H 137.043 5.38667 2.89219 0
M  V30 1531 H 141.217 6.37078 2.81254 0
M  V30 1532 H 138.844 7.07999 2.76842 0
M  V30 1533 N 140.419 -1.14872 1.07899 0
M  V30 1534 C 141.351 -2.19425 0.662231 0
M  V30 1535 C 142.364 -1.60231 -0.288079 0
M  V30 1536 O 143.553 -1.78336 -0.076534 0
M  V30 1537 C 140.653 -3.38867 -0.0470695 0
M  V30 1538 C 139.826 -4.27597 0.920831 0
M  V30 1539 C 138.885 -5.25616 0.247805 0
M  V30 1540 O 137.911 -5.62189 0.890599 0
M  V30 1541 N 139.113 -5.71746 -1.00435 0
M  V30 1542 H 141.878 -2.55797 1.56166 0
M  V30 1543 H 139.439 -1.30042 0.964404 0
M  V30 1544 H 141.431 -4.01497 -0.50813 0
M  V30 1545 H 140.001 -3.00864 -0.848523 0
M  V30 1546 H 139.221 -3.61982 1.56087 0
M  V30 1547 H 140.509 -4.83748 1.57688 0
M  V30 1548 H 139.907 -5.44153 -1.54642 0
M  V30 1549 H 138.464 -6.36389 -1.40899 0
M  V30 1550 N 141.898 -0.863906 -1.31812 0
M  V30 1551 C 143.175 -0.39275 -1.91616 0
M  V30 1552 C 143.555 1.12461 -1.7865 0
M  V30 1553 O 142.903 1.95045 -1.19037 0
M  V30 1554 C 143.113 -0.867385 -3.38049 0
M  V30 1555 C 144.461 -0.889966 -4.15168 0
M  V30 1556 O 145.485 -0.812635 -3.46806 0
M  V30 1557 O 144.344 -1.00079 -5.37258 0
M  V30 1558 H 141.438 -0.116358 -0.818773 0
M  V30 1559 H 143.984 -0.951418 -1.40521 0
M  V30 1560 H 142.756 -1.91081 -3.41473 0
M  V30 1561 H 142.379 -0.286687 -3.96565 0
M  V30 1562 N 143.376 1.44774 -0.622745 0
M  V30 1563 C 144.792 1.56986 -0.287652 0
M  V30 1564 C 144.992 1.61167 1.20944 0
M  V30 1565 O 144.048 1.55015 1.99315 0
M  V30 1566 C 145.361 2.84551 -0.972188 0
M  V30 1567 C 146.909 2.9825 -0.949536 0
M  V30 1568 C 147.384 4.28605 -1.61437 0
M  V30 1569 N 148.875 4.35399 -1.58057 0
M  V30 1570 C 149.61 5.34964 -2.064 0
M  V30 1571 N 149.106 6.40981 -2.62897 0
M  V30 1572 N 150.899 5.26419 -1.97078 0
M  V30 1573 H 143.05 1.40304 -1.59463 0
M  V30 1574 H 145.313 0.671794 -0.668878 0
M  V30 1575 H 145.019 2.87417 -2.02693 0
M  V30 1576 H 144.893 3.73807 -0.504771 0
M  V30 1577 H 147.28 2.94941 0.0967067 0
M  V30 1578 H 147.361 2.10364 -1.45536 0
M  V30 1579 H 147.005 4.32672 -2.66002 0
M  V30 1580 H 146.935 5.15334 -1.08344 0
M  V30 1581 H 149.426 3.59397 -1.16801 0
M  V30 1582 H 149.739 7.13225 -2.97539 0
M  V30 1583 H 148.084 6.4169 -2.66943 0
M  V30 1584 H 151.275 4.42504 -1.52669 0
M  V30 1585 H 151.448 6.03861 -2.35066 0
M  V30 1586 N 144.854 0.36279 1.53368 0
M  V30 1587 C 146.1 -0.228113 2.01513 0
M  V30 1588 C 146.433 -1.48648 1.2497 0
M  V30 1589 O 145.708 -1.91459 0.342616 0
M  V30 1590 C 145.991 -0.522884 3.56284 0
M  V30 1591 C 145.844 0.74892 4.43521 0
M  V30 1592 C 147.163 -1.32461 4.19693 0
M  V30 1593 H 144.282 -0.0814343 0.732487 0
M  V30 1594 H 146.924 0.48713 1.83649 0
M  V30 1595 H 145.074 -1.1322 3.71636 0
M  V30 1596 H 146.746 1.38648 4.39971 0
M  V30 1597 H 144.989 1.36986 4.11603 0
M  V30 1598 H 145.66 0.497667 5.49752 0
M  V30 1599 H 148.136 -0.809203 4.08156 0
M  V30 1600 H 147.012 -1.49961 5.28018 0
M  V30 1601 H 147.273 -2.33232 3.75573 0
M  V30 1602 N 146.332 -1.57332 0.0918853 0
M  V30 1603 C 147.242 -2.17368 -0.882505 0
M  V30 1604 C 148.258 -1.14226 -1.31257 0
M  V30 1605 O 149.434 -1.46582 -1.38115 0
M  V30 1606 C 146.499 -2.73962 -2.12476 0
M  V30 1607 C 145.56 -3.92048 -1.7492 0
M  V30 1608 C 144.793 -4.45933 -2.93223 0
M  V30 1609 O 145.016 -3.98764 -4.07852 0
M  V30 1610 O 143.95 -5.36999 -2.71875 0
M  V30 1611 H 147.776 -3.01031 -0.40172 0
M  V30 1612 H 145.361 -1.48813 -0.132291 0
M  V30 1613 H 147.243 -3.10147 -2.85283 0
M  V30 1614 H 145.918 -1.93347 -2.59613 0
M  V30 1615 H 144.825 -3.6068 -0.993025 0
M  V30 1616 H 146.158 -4.74017 -1.32548 0
M  V30 1617 N 147.81 0.181792 -1.56548 0
M  V30 1618 C 149.057 0.900097 -1.81396 0
M  V30 1619 C 149.385 1.82695 -0.667281 0
M  V30 1620 O 148.64 1.92614 0.346146 0
M  V30 1621 C 148.939 1.73728 -3.12335 0
M  V30 1622 C 148.605 0.960255 -4.40556 0
M  V30 1623 C 147.267 0.745766 -4.75386 0
M  V30 1624 C 149.619 0.414477 -5.19549 0
M  V30 1625 C 146.947 -0.0257694 -5.86694 0
M  V30 1626 C 149.299 -0.343916 -6.31664 0
M  V30 1627 C 147.963 -0.569301 -6.65068 0
M  V30 1628 H 147.233 0.329369 -0.663775 0
M  V30 1629 H 149.88 0.165647 -1.90782 0
M  V30 1630 H 148.185 2.54081 -2.98245 0
M  V30 1631 H 149.882 2.29591 -3.28769 0
M  V30 1632 H 146.472 1.13746 -4.13231 0
M  V30 1633 H 150.656 0.567554 -4.93044 0
M  V30 1634 H 145.912 -0.210233 -6.11038 0
M  V30 1635 H 150.086 -0.774133 -6.92084 0
M  V30 1636 H 147.713 -1.16903 -7.51158 0
M  V30 1637 N 149.288 1.51039 0.449983 0
M  V30 1638 C 150.513 1.6715 1.22783 0
M  V30 1639 C 150.938 0.363081 1.84563 0
M  V30 1640 O 150.296 -0.675433 1.68249 0
M  V30 1641 C 150.344 2.77985 2.29689 0
M  V30 1642 O 149.448 2.40707 3.34864 0
M  V30 1643 H 148.789 0.557746 0.360299 0
M  V30 1644 H 151.319 1.97535 0.533005 0
M  V30 1645 H 151.329 3.01693 2.74673 0
M  V30 1646 H 150.004 3.72935 1.84098 0
M  V30 1647 H 148.581 2.27523 2.95445 0
M  V30 1648 N 150.766 -0.704594 1.40972 0
M  V30 1649 C 152.014 -1.46169 1.39568 0
M  V30 1650 C 152.335 -1.95 0.00253745 0
M  V30 1651 O 151.605 -1.71095 -0.954114 0
M  V30 1652 H 150.185 -0.542326 0.513704 0
M  V30 1653 H 152.847 -0.834553 1.76128 0
M  V30 1654 H 151.943 -2.32922 2.07735 0
M  V30 1655 N 152.244 -1.26651 -0.937939 0
M  V30 1656 C 153.192 -1.08308 -2.05845 0
M  V30 1657 C 154.186 -0.0090757 -1.69398 0
M  V30 1658 O 155.392 -0.166007 -1.79233 0
M  V30 1659 H 151.767 -0.333416 -0.674046 0
M  V30 1660 H 153.738 -2.03261 -2.18467 0
M  V30 1661 C 152.487 -0.736229 -3.39816 0
M  V30 1662 H 151.81 -1.55453 -3.6834 0
M  V30 1663 H 153.25 -0.64769 -4.19024 0
M  V30 1664 C 151.709 0.558824 -3.32233 0
M  V30 1665 O 152.239 1.59621 -3.68624 0
M  V30 1666 N 150.445 0.550657 -2.85335 0
M  V30 1667 H 149.992 -0.293943 -2.55917 0
M  V30 1668 H 149.95 1.41726 -2.80644 0
M  V30 1669 N 153.722 1.14298 -1.08507 0
M  V30 1670 C 155.133 1.66926 -0.836227 0
M  V30 1671 C 155.484 1.85576 0.63686 0
M  V30 1672 O 154.609 1.56767 1.49175 0
M  V30 1673 C 155.204 3.03219 -1.51142 0
M  V30 1674 C 153.763 3.52876 -1.30979 0
M  V30 1675 C 152.91 2.2833 -1.57356 0
M  V30 1676 H 155.861 0.983491 -1.24552 0
M  V30 1677 H 155.882 3.68726 -0.939211 0
M  V30 1678 H 155.394 2.89612 -2.58353 0
M  V30 1679 H 153.495 3.71703 -0.258429 0
M  V30 1680 H 153.608 4.33586 -2.03814 0
M  V30 1681 H 151.972 2.34454 -0.995164 0
M  V30 1682 H 152.755 2.17298 -2.65775 0
M  V30 1683 N 155.201 0.870884 1.31352 0
M  V30 1684 C 156.426 0.495957 2.01383 0
M  V30 1685 C 156.851 -0.904324 1.64935 0
M  V30 1686 O 156.209 -1.59687 0.858466 0
M  V30 1687 C 156.257 0.661433 3.54482 0
M  V30 1688 O 155.361 -0.298851 4.11316 0
M  V30 1689 H 154.702 0.197158 0.634054 0
M  V30 1690 H 157.232 1.17455 1.67527 0
M  V30 1691 H 157.242 0.555072 4.04207 0
M  V30 1692 H 155.917 1.68246 3.8035 0
M  V30 1693 H 154.494 -0.147368 3.72609 0
M  V30 1694 N 156.679 -1.44442 0.630414 0
M  V30 1695 C 157.626 -2.30678 -0.0749355 0
M  V30 1696 C 158.596 -1.4344 -0.837502 0
M  V30 1697 O 159.781 -1.72343 -0.818684 0
M  V30 1698 C 156.921 -3.28706 -1.05103 0
M  V30 1699 C 156.034 -4.31046 -0.286954 0
M  V30 1700 C 155.169 -5.16167 -1.2548 0
M  V30 1701 C 154.208 -6.10216 -0.479843 0
M  V30 1702 N 153.345 -6.88039 -1.39811 0
M  V30 1703 H 158.185 -2.90454 0.666386 0
M  V30 1704 H 155.722 -1.43107 0.340404 0
M  V30 1705 H 157.68 -3.84027 -1.63031 0
M  V30 1706 H 156.31 -2.70632 -1.75949 0
M  V30 1707 H 155.362 -3.78203 0.408243 0
M  V30 1708 H 156.674 -4.97794 0.316657 0
M  V30 1709 H 155.828 -5.76002 -1.90544 0
M  V30 1710 H 154.567 -4.49491 -1.89233 0
M  V30 1711 H 153.572 -5.49491 0.184295 0
M  V30 1712 H 154.797 -6.78928 0.152965 0
M  V30 1713 H 152.743 -6.24032 -2.02287 0
M  V30 1714 H 152.66 -7.51223 -0.848508 0
M  V30 1715 H 153.928 -7.52397 -2.03762 0
M  V30 1716 N 158.157 -0.370918 -1.53173 0
M  V30 1717 C 159.387 0.217389 -2.05453 0
M  V30 1718 C 159.795 1.42568 -1.24382 0
M  V30 1719 O 159.138 1.81571 -0.278839 0
M  V30 1720 C 159.2 0.669827 -3.53205 0
M  V30 1721 C 158.864 -0.4225 -4.55043 0
M  V30 1722 C 159.861 -1.27407 -5.04047 0
M  V30 1723 C 157.546 -0.58427 -4.9889 0
M  V30 1724 C 159.54 -2.27271 -5.95505 0
M  V30 1725 C 157.227 -1.58627 -5.90153 0
M  V30 1726 C 158.225 -2.42892 -6.38351 0
M  V30 1727 O 157.913 -3.41382 -7.27814 0
M  V30 1728 H 157.645 0.0408171 -0.674767 0
M  V30 1729 H 160.199 -0.5292 -1.98466 0
M  V30 1730 H 158.429 1.4681 -3.57748 0
M  V30 1731 H 160.118 1.18173 -3.88317 0
M  V30 1732 H 160.884 -1.16031 -4.70916 0
M  V30 1733 H 156.763 0.061851 -4.60959 0
M  V30 1734 H 160.307 -2.93079 -6.33049 0
M  V30 1735 H 156.204 -1.70048 -6.22699 0
M  V30 1736 H 156.972 -3.37173 -7.45826 0
M  V30 1737 N 159.635 1.57281 -0.100228 0
M  V30 1738 C 160.912 1.86014 0.604812 0
M  V30 1739 C 161.292 0.998025 1.86018 0
M  V30 1740 O 160.64 0.0718184 2.28387 0
M  V30 1741 C 160.85 3.36784 0.915278 0
M  V30 1742 C 162.198 4.04957 1.27651 0
M  V30 1743 O 163.222 3.41695 1.00613 0
M  V30 1744 O 162.081 5.16593 1.7831 0
M  V30 1745 H 159.175 0.76942 0.303185 0
M  V30 1746 H 161.721 1.69176 -0.133313 0
M  V30 1747 H 160.493 3.91292 0.0248896 0
M  V30 1748 H 160.116 3.58987 1.70921 0
M  V30 1749 N 161.113 -0.173488 1.56642 0
M  V30 1750 C 162.359 -0.891784 1.8214 0
M  V30 1751 C 162.692 -1.8199 0.677736 0
M  V30 1752 O 161.967 -1.91842 -0.320446 0
M  V30 1753 C 162.25 -1.68933 3.18015 0
M  V30 1754 C 162.103 -0.784487 4.42906 0
M  V30 1755 C 163.422 -2.65748 3.50808 0
M  V30 1756 H 160.541 -0.322761 0.662567 0
M  V30 1757 H 163.183 -0.158095 1.89341 0
M  V30 1758 H 161.333 -2.31482 3.12007 0
M  V30 1759 H 163.005 -0.172046 4.60979 0
M  V30 1760 H 161.248 -0.0924117 4.33702 0
M  V30 1761 H 161.919 -1.37799 5.34524 0
M  V30 1762 H 164.395 -2.13327 3.57255 0
M  V30 1763 H 163.271 -3.18619 4.4696 0
M  V30 1764 H 163.532 -3.45842 2.75401 0
M  V30 1765 N 162.591 -1.51276 -0.441967 0
M  V30 1766 C 163.816 -1.67799 -1.21895 0
M  V30 1767 C 164.241 -0.372864 -1.84367 0
M  V30 1768 O 163.599 0.666501 -1.68604 0
M  V30 1769 C 163.647 -2.79199 -2.28211 0
M  V30 1770 O 162.751 -2.42479 -3.33583 0
M  V30 1771 H 162.092 -0.559649 -0.357336 0
M  V30 1772 H 164.622 -1.97815 -0.522522 0
M  V30 1773 H 164.632 -3.03146 -2.73069 0
M  V30 1774 H 163.307 -3.73906 -1.82118 0
M  V30 1775 H 161.884 -2.29087 -2.94234 0
M  V30 1776 N 164.069 0.697108 -1.41344 0
M  V30 1777 C 165.315 1.4593 -1.40827 0
M  V30 1778 C 165.648 1.94193 -0.0167098 0
M  V30 1779 O 164.923 1.69425 0.955263 0
M  V30 1780 C 165.206 2.67229 -2.41373 0
M  V30 1781 C 165.059 2.24741 -3.8963 0
M  V30 1782 C 166.378 3.69423 -2.39196 0
M  V30 1783 H 163.497 0.529303 -0.512842 0
M  V30 1784 H 166.139 0.794112 -1.72609 0
M  V30 1785 H 164.289 3.23982 -2.14401 0
M  V30 1786 H 165.961 1.73327 -4.27499 0
M  V30 1787 H 164.204 1.56542 -4.0457 0
M  V30 1788 H 164.875 3.1177 -4.55525 0
M  V30 1789 H 167.351 3.2234 -2.63128 0
M  V30 1790 H 166.227 4.51907 -3.11563 0
M  V30 1791 H 166.488 4.19012 -1.41001 0
M  V30 1792 N 165.547 1.27147 0.931209 0
M  V30 1793 C 166.48 1.0389 2.0318 0
M  V30 1794 C 167.458 -0.0395716 1.62552 0
M  V30 1795 O 168.642 0.104867 1.88208 0
M  V30 1796 C 165.769 0.575227 3.3378 0
M  V30 1797 C 164.815 1.64774 3.93385 0
M  V30 1798 S 165.648 3.23933 4.26413 0
M  V30 1799 C 166.804 2.79358 5.60098 0
M  V30 1800 H 167.037 1.97075 2.22596 0
M  V30 1801 H 164.57 1.10938 1.07387 0
M  V30 1802 H 166.528 0.314385 4.09294 0
M  V30 1803 H 165.189 -0.336505 3.12292 0
M  V30 1804 H 164.382 1.27454 4.87618 0
M  V30 1805 H 163.984 1.86048 3.24441 0
M  V30 1806 H 166.276 2.24443 6.39243 0
M  V30 1807 H 167.219 3.72322 6.02314 0
M  V30 1808 H 167.627 2.1861 5.20452 0
M  V30 1809 N 167.025 -1.13721 1.09112 0
M  V30 1810 C 167.955 -2.21148 0.749385 0
M  V30 1811 C 168.936 -1.6792 -0.271475 0
M  V30 1812 O 170.121 -1.93693 -0.140251 0
M  V30 1813 C 167.251 -3.46905 0.165659 0
M  V30 1814 C 166.205 -4.13203 1.11567 0
M  V30 1815 C 165.531 -5.33248 0.393809 0
M  V30 1816 C 166.831 -4.60912 2.45678 0
M  V30 1817 H 168.525 -2.4999 1.64758 0
M  V30 1818 H 166.071 -1.20156 0.793626 0
M  V30 1819 H 168.024 -4.21313 -0.085466 0
M  V30 1820 H 166.748 -3.17449 -0.767714 0
M  V30 1821 H 165.407 -3.40758 1.35202 0
M  V30 1822 H 165.055 -5.00054 -0.543599 0
M  V30 1823 H 164.755 -5.78552 1.02721 0
M  V30 1824 H 166.279 -6.10413 0.150908 0
M  V30 1825 H 167.693 -5.26759 2.26269 0
M  V30 1826 H 166.09 -5.16944 3.04776 0
M  V30 1827 H 167.16 -3.75603 3.06677 0
M  V30 1828 N 168.503 -0.877838 -1.30888 0
M  V30 1829 C 169.919 -0.570844 -1.49042 0
M  V30 1830 C 170.119 0.893159 -1.80624 0
M  V30 1831 O 169.175 1.67485 -1.88958 0
M  V30 1832 C 170.488 -1.47784 -2.61878 0
M  V30 1833 C 172.036 -1.48071 -2.75761 0
M  V30 1834 C 172.511 -2.37347 -3.91702 0
M  V30 1835 N 174.002 -2.35271 -3.99001 0
M  V30 1836 C 174.737 -3.01063 -4.88004 0
M  V30 1837 N 174.233 -3.76055 -5.81854 0
M  V30 1838 N 176.026 -2.90332 -4.81315 0
M  V30 1839 H 168.177 -1.82502 -1.0866 0
M  V30 1840 H 170.44 -0.780797 -0.537644 0
M  V30 1841 H 170.146 -2.51993 -2.45341 0
M  V30 1842 H 170.02 -1.18215 -3.58197 0
M  V30 1843 H 172.407 -0.446166 -2.91708 0
M  V30 1844 H 172.488 -1.81668 -1.80085 0
M  V30 1845 H 172.132 -3.40883 -3.76512 0
M  V30 1846 H 172.062 -2.01071 -4.86701 0
M  V30 1847 H 174.553 -1.80768 -3.3186 0
M  V30 1848 H 174.866 -4.23366 -6.46514 0
M  V30 1849 H 173.211 -3.80163 -5.81808 0
M  V30 1850 H 176.402 -2.31278 -4.06974 0
M  V30 1851 H 176.575 -3.41885 -5.50471 0
M  V30 1852 N 169.982 1.44106 -0.638065 0
M  V30 1853 C 170.93 2.3248 0.0748149 0
M  V30 1854 C 171.924 1.47746 0.828702 0
M  V30 1855 O 173.13 1.64049 0.740816 0
M  V30 1856 H 169.505 0.750771 0.0429686 0
M  V30 1857 H 171.476 2.90348 -0.688504 0
M  V30 1858 C 170.225 3.31843 1.03805 0
M  V30 1859 H 169.548 3.97059 0.467375 0
M  V30 1860 H 170.988 3.96345 1.50622 0
M  V30 1861 C 169.447 2.61291 2.1267 0
M  V30 1862 O 169.977 2.41702 3.20847 0
M  V30 1863 N 168.183 2.20915 1.88798 0
M  V30 1864 H 167.73 2.37047 1.00829 0
M  V30 1865 H 167.688 1.74038 2.61836 0
M  V30 1866 N 171.46 0.379036 1.52974 0
M  V30 1867 C 172.706 -0.206727 2.01744 0
M  V30 1868 C 173.039 -1.47314 1.26539 0
M  V30 1869 O 172.314 -1.91084 0.362903 0
M  V30 1870 C 172.597 -0.485066 3.56818 0
M  V30 1871 C 172.45 0.795919 4.42702 0
M  V30 1872 C 173.769 -1.28003 4.21074 0
M  V30 1873 H 170.888 -0.0736607 0.73331 0
M  V30 1874 H 173.53 0.506581 1.83122 0
M  V30 1875 H 171.68 -1.09272 3.72816 0
M  V30 1876 H 173.352 1.43307 4.38476 0
M  V30 1877 H 171.595 1.41344 4.10127 0
M  V30 1878 H 172.266 0.555947 5.49193 0
M  V30 1879 H 174.742 -0.765867 4.08991 0
M  V30 1880 H 173.618 -1.44352 5.29579 0
M  V30 1881 H 173.879 -2.29236 3.78026 0
M  V30 1882 N 172.938 -1.57226 0.108567 0
M  V30 1883 C 173.87 -2.11809 -0.875752 0
M  V30 1884 C 174.883 -1.05839 -1.23701 0
M  V30 1885 O 176.072 -1.33245 -1.18778 0
M  V30 1886 C 173.172 -2.59411 -2.18081 0
M  V30 1887 C 172.345 -3.89364 -1.99284 0
M  V30 1888 C 171.404 -4.22672 -3.13424 0
M  V30 1889 O 170.43 -4.91668 -2.86795 0
M  V30 1890 N 171.632 -3.79154 -4.3957 0
M  V30 1891 H 174.397 -2.9689 -0.409477 0
M  V30 1892 H 171.958 -1.61721 -0.076158 0
M  V30 1893 H 173.95 -2.7873 -2.93414 0
M  V30 1894 H 172.52 -1.79268 -2.5609 0
M  V30 1895 H 171.74 -3.79059 -1.08203 0
M  V30 1896 H 173.028 -4.74358 -1.84017 0
M  V30 1897 H 172.426 -3.23486 -4.64083 0
M  V30 1898 H 170.983 -4.03602 -5.11809 0
M  V30 1899 N 174.416 0.165178 -1.56732 0
M  V30 1900 C 175.827 0.727046 -1.71962 0
M  V30 1901 C 176.178 1.82508 -0.720078 0
M  V30 1902 O 175.303 2.16082 0.117242 0
M  V30 1903 C 175.898 1.32559 -3.11791 0
M  V30 1904 C 174.457 1.83422 -3.28684 0
M  V30 1905 C 173.604 0.715567 -2.67908 0
M  V30 1906 H 176.555 -0.0602896 -1.58585 0
M  V30 1907 H 176.576 2.19533 -3.10782 0
M  V30 1908 H 176.088 0.526195 -3.84516 0
M  V30 1909 H 174.189 2.65986 -2.60926 0
M  V30 1910 H 174.302 1.97543 -4.36478 0
M  V30 1911 H 172.666 1.13758 -2.27884 0
M  V30 1912 H 173.449 -0.0720836 -3.43224 0
M  V30 1913 N 175.894 1.51508 0.433938 0
M  V30 1914 C 176.804 1.75917 1.5521 0
M  V30 1915 C 177.82 0.643545 1.61662 0
M  V30 1916 O 178.996 0.926183 1.7884 0
M  V30 1917 C 176.061 1.88213 2.91164 0
M  V30 1918 C 175.122 3.12074 2.94802 0
M  V30 1919 C 174.355 3.23774 4.24271 0
M  V30 1920 O 174.578 2.4133 5.16833 0
M  V30 1921 O 173.512 4.16774 4.34262 0
M  V30 1922 H 177.338 2.70777 1.37527 0
M  V30 1923 H 174.923 1.36051 0.617293 0
M  V30 1924 H 176.805 1.98267 3.71845 0
M  V30 1925 H 175.48 0.965413 3.08968 0
M  V30 1926 H 174.387 3.07497 2.13065 0
M  V30 1927 H 175.72 4.03446 2.81943 0
M  V30 1928 N 177.372 -0.689602 1.41712 0
M  V30 1929 C 178.649 -1.44457 1.31877 0
M  V30 1930 C 179.029 -2.11039 -0.0508537 0
M  V30 1931 O 178.377 -2.02138 -1.06547 0
M  V30 1932 C 178.587 -2.45913 2.47645 0
M  V30 1933 C 179.935 -3.10991 2.89084 0
M  V30 1934 O 180.959 -2.56238 2.47428 0
M  V30 1935 O 179.818 -4.10174 3.61137 0
M  V30 1936 H 176.912 -0.64362 0.519309 0
M  V30 1937 H 179.458 -0.719576 1.53689 0
M  V30 1938 H 178.23 -1.95409 3.39015 0
M  V30 1939 H 177.853 -3.25913 2.27742 0
M  V30 1940 N 178.85 -1.27639 -0.924453 0
M  V30 1941 C 179.76 -1.12466 -2.05885 0
M  V30 1942 C 180.776 -0.053869 -1.73917 0
M  V30 1943 O 181.952 -0.261012 -1.99702 0
M  V30 1944 C 179.017 -0.776768 -3.37886 0
M  V30 1945 C 178.078 -1.92878 -3.83532 0
M  V30 1946 C 177.311 -1.59739 -5.09234 0
M  V30 1947 O 177.534 -0.506782 -5.68144 0
M  V30 1948 O 176.468 -2.43761 -5.50331 0
M  V30 1949 H 180.294 -2.07671 -2.21599 0
M  V30 1950 H 177.879 -1.06857 -1.04413 0
M  V30 1951 H 179.761 -0.596229 -4.17161 0
M  V30 1952 H 178.436 0.145732 -3.23372 0
M  V30 1953 H 177.343 -2.1644 -3.0513 0
M  V30 1954 H 178.676 -2.8316 -4.02593 0
M  V30 1955 N 180.328 1.1314 -1.09713 0
M  V30 1956 C 181.576 1.84119 -0.833338 0
M  V30 1957 C 181.897 1.84097 0.642904 0
M  V30 1958 O 181.167 1.29881 1.46655 0
M  V30 1959 H 179.747 0.681766 -0.305293 0
M  V30 1960 H 182.409 1.37038 -1.38588 0
M  V30 1961 H 181.505 2.88543 -1.18951 0
M  V30 1962 N 181.806 0.884767 1.30421 0
M  V30 1963 C 183.055 0.499164 1.95426 0
M  V30 1964 C 183.368 -0.95645 1.70621 0
M  V30 1965 O 184.574 -1.44889 2.29607 0
M  V30 1966 C 183.03 0.84177 3.49917 0
M  V30 1967 C 182.638 2.31514 3.83543 0
M  V30 1968 C 184.382 0.525355 4.21237 0
M  V30 1969 C 182.289 2.59939 5.31212 0
M  V30 1970 H 181.219 0.182944 0.73147 0
M  V30 1971 H 183.87 1.07971 1.48373 0
M  V30 1972 H 182.252 0.190311 3.95542 0
M  V30 1973 H 183.426 3.0109 3.48829 0
M  V30 1974 H 181.741 2.59907 3.25326 0
M  V30 1975 H 184.338 0.714762 5.29901 0
M  V30 1976 H 184.681 -0.535222 4.12845 0
M  V30 1977 H 185.214 1.134 3.81294 0
M  V30 1978 H 181.953 3.64736 5.44654 0
M  V30 1979 H 181.473 1.94972 5.67227 0
M  V30 1980 H 183.152 2.45429 5.98643 0
M  V30 1981 N 183.284 -1.43765 0.645699 0
M  V30 1982 C 184.514 -2.05953 0.163318 0
M  V30 1983 C 184.922 -1.48432 -1.17322 0
M  V30 1984 O 184.265 -0.607295 -1.73371 0
M  V30 1985 C 184.327 -3.59499 -0.0103065 0
M  V30 1986 C 183.991 -4.39563 1.25035 0
M  V30 1987 C 184.988 -4.72108 2.17739 0
M  V30 1988 C 182.673 -4.79697 1.48983 0
M  V30 1989 C 184.667 -5.43688 3.3269 0
M  V30 1990 C 182.354 -5.51023 2.64229 0
M  V30 1991 C 183.352 -5.8294 3.55908 0
M  V30 1992 O 183.04 -6.5281 4.69142 0
M  V30 1993 H 182.772 -0.670798 0.0836986 0
M  V30 1994 H 185.326 -1.85384 0.884407 0
M  V30 1995 H 183.556 -3.78613 -0.78669 0
M  V30 1996 H 185.245 -4.03408 -0.449087 0
M  V30 1997 H 186.011 -4.41627 2.00476 0
M  V30 1998 H 181.89 -4.54266 0.785078 0
M  V30 1999 H 185.434 -5.68517 4.04269 0
M  V30 2000 H 181.331 -5.8092 2.81429 0
M  V30 2001 H 182.099 -6.71288 4.6831 0
M  V30 2002 N 184.763 -0.387143 -1.52771 0
M  V30 2003 C 185.711 0.463953 -2.27926 0
M  V30 2004 C 186.705 1.06493 -1.31741 0
M  V30 2005 O 187.911 1.00565 -1.49287 0
M  V30 2006 H 184.286 0.16837 -0.732909 0
M  V30 2007 H 186.257 -0.19141 -2.97785 0
M  V30 2008 C 185.006 1.5803 -3.09713 0
M  V30 2009 H 184.329 1.12718 -3.83581 0
M  V30 2010 H 185.769 2.15008 -3.65442 0
M  V30 2011 C 184.228 2.53509 -2.2189 0
M  V30 2012 O 184.758 3.56863 -1.84422 0
M  V30 2013 N 182.964 2.23199 -1.86093 0
M  V30 2014 H 182.511 1.39185 -2.16761 0
M  V30 2015 H 182.469 2.87333 -1.27621 0
M  V30 2016 N 186.241 1.57166 -0.116904 0
M  V30 2017 C 187.481 1.97008 0.544715 0
M  V30 2018 C 187.845 0.998713 1.63981 0
M  V30 2019 O 189.046 1.28644 2.36018 0
M  V30 2020 C 187.317 3.41145 1.06559 0
M  V30 2021 S 188.876 4.02998 1.73603 0
M  V30 2022 H 185.694 0.688587 0.177112 0
M  V30 2023 H 188.296 1.94459 -0.201487 0
M  V30 2024 H 187 4.09592 0.257374 0
M  V30 2025 H 186.531 3.4734 1.84712 0
M  V30 2026 H 188.546 3.93585 3.02168 0
M  V30 2027 N 187.719 -0.156864 1.56817 0
M  V30 2028 C 188.949 -0.885031 1.86684 0
M  V30 2029 C 189.357 -1.75696 0.701954 0
M  V30 2030 O 188.7 -1.80569 -0.337732 0
M  V30 2031 C 188.762 -1.80092 3.11138 0
M  V30 2032 C 188.426 -1.10714 4.43386 0
M  V30 2033 C 189.423 -0.465714 5.1781 0
M  V30 2034 C 187.108 -1.09959 4.90117 0
M  V30 2035 C 189.102 0.174002 6.37162 0
M  V30 2036 C 186.789 -0.456055 6.09396 0
M  V30 2037 C 187.787 0.179622 6.82764 0
M  V30 2038 O 187.475 0.812975 7.99779 0
M  V30 2039 H 187.207 -0.261813 0.623242 0
M  V30 2040 H 189.761 -0.157383 2.04796 0
M  V30 2041 H 187.991 -2.56926 2.89009 0
M  V30 2042 H 189.68 -2.40018 3.27332 0
M  V30 2043 H 190.446 -0.463427 4.82781 0
M  V30 2044 H 186.325 -1.58378 4.3294 0
M  V30 2045 H 189.869 0.670765 6.94368 0
M  V30 2046 H 185.766 -0.455975 6.43888 0
M  V30 2047 H 186.534 0.71366 8.15383 0
M  V30 2048 N 189.197 -1.51736 -0.425897 0
M  V30 2049 C 190.446 -1.64201 -1.17136 0
M  V30 2050 C 190.759 -0.369705 -1.92074 0
M  V30 2051 O 191.965 -0.373898 -2.68913 0
M  V30 2052 C 190.421 -2.90035 -2.13091 0
M  V30 2053 C 190.029 -4.24312 -1.43747 0
M  V30 2054 C 191.773 -3.1186 -2.87999 0
M  V30 2055 C 189.68 -5.41285 -2.38253 0
M  V30 2056 H 188.61 -0.611624 -0.440944 0
M  V30 2057 H 191.261 -1.78212 -0.437328 0
M  V30 2058 H 189.643 -2.69684 -2.89977 0
M  V30 2059 H 190.817 -4.55086 -0.723408 0
M  V30 2060 H 189.132 -4.08456 -0.809465 0
M  V30 2061 H 191.729 -3.96427 -3.58817 0
M  V30 2062 H 192.072 -2.25403 -3.49999 0
M  V30 2063 H 192.605 -3.32605 -2.18217 0
M  V30 2064 H 189.344 -6.30037 -1.80925 0
M  V30 2065 H 188.864 -5.14872 -3.0768 0
M  V30 2066 H 190.543 -5.73694 -2.99139 0
M  V30 2067 N 190.675 0.682077 -1.42076 0
M  V30 2068 C 191.608 1.80666 -1.3941 0
M  V30 2069 C 192.586 1.60518 -0.25939 0
M  V30 2070 O 193.77 1.83088 -0.448456 0
M  V30 2071 C 190.897 3.17556 -1.17796 0
M  V30 2072 C 189.943 3.56468 -2.34164 0
M  V30 2073 S 190.776 3.59729 -3.96681 0
M  V30 2074 C 191.932 4.99323 -3.77395 0
M  V30 2075 H 192.165 1.82652 -2.34575 0
M  V30 2076 H 189.698 0.852062 -1.2876 0
M  V30 2077 H 191.656 3.96575 -1.06012 0
M  V30 2078 H 190.317 3.13164 -0.242279 0
M  V30 2079 H 189.51 4.5595 -2.1477 0
M  V30 2080 H 189.112 2.84792 -2.42425 0
M  V30 2081 H 191.404 5.87202 -3.37935 0
M  V30 2082 H 192.347 5.23763 -4.76527 0
M  V30 2083 H 192.755 4.71498 -3.10403 0
M  V30 2084 N 192.153 1.28127 0.917671 0
M  V30 2085 C 193.101 1.11569 2.04096 0
M  V30 2086 C 194.095 0.0360242 1.69362 0
M  V30 2087 O 195.301 0.194501 1.78946 0
M  V30 2088 H 191.676 0.344097 0.668656 0
M  V30 2089 H 193.647 2.06711 2.15205 0
M  V30 2090 C 192.396 0.790197 3.38602 0
M  V30 2091 H 191.719 1.61293 3.6582 0
M  V30 2092 H 193.159 0.714271 4.1794 0
M  V30 2093 C 191.618 -0.505897 3.3308 0
M  V30 2094 O 192.148 -1.53736 3.71117 0
M  V30 2095 N 190.354 -0.505193 2.86175 0
M  V30 2096 H 189.901 0.334621 2.55417 0
M  V30 2097 H 189.859 -1.37243 2.82863 0
M  V30 2098 N 193.631 -1.12557 1.10312 0
M  V30 2099 C 195.042 -1.65574 0.862678 0
M  V30 2100 C 195.393 -1.86566 -0.607256 0
M  V30 2101 O 194.518 -1.59121 -1.46662 0
M  V30 2102 C 195.113 -3.00776 1.55947 0
M  V30 2103 C 193.672 -3.50748 1.36576 0
M  V30 2104 C 192.819 -2.25797 1.60968 0
M  V30 2105 H 195.77 -0.963552 1.26101 0
M  V30 2106 H 195.791 -3.67185 0.997753 0
M  V30 2107 H 195.303 -2.85465 2.62928 0
M  V30 2108 H 193.404 -3.71245 0.317531 0
M  V30 2109 H 193.517 -4.30289 2.10686 0
M  V30 2110 H 191.881 -2.32841 1.03234 0
M  V30 2111 H 192.664 -2.13043 2.69198 0
M  V30 2112 N 195.109 -0.891671 -1.2995 0
M  V30 2113 C 196.52 -0.563104 -1.78006 0
M  V30 2114 C 196.871 0.920978 -1.73241 0
M  V30 2115 O 195.996 1.71987 -1.31337 0
M  V30 2116 C 196.591 -1.01539 -3.23226 0
M  V30 2117 C 195.15 -0.738124 -3.69092 0
M  V30 2118 C 194.297 -1.19461 -2.50249 0
M  V30 2119 H 197.248 -1.07522 -1.16725 0
M  V30 2120 H 197.269 -0.347217 -3.78912 0
M  V30 2121 H 196.781 -2.09555 -3.26662 0
M  V30 2122 H 194.882 0.329766 -3.71138 0
M  V30 2123 H 194.995 -1.33037 -4.60259 0
M  V30 2124 H 193.359 -0.613787 -2.47194 0
M  V30 2125 H 194.142 -2.28265 -2.56417 0
M  V30 2126 N 196.587 1.43421 -0.653314 0
M  V30 2127 C 197.864 1.95361 -0.0966581 0
M  V30 2128 C 198.244 1.59461 1.38331 0
M  V30 2129 O 197.592 0.879777 2.10884 0
M  V30 2130 C 197.802 3.47311 -0.342988 0
M  V30 2131 C 199.15 4.23875 -0.24798 0
M  V30 2132 O 200.174 3.55133 -0.275553 0
M  V30 2133 O 199.033 5.4623 -0.171771 0
M  V30 2134 H 196.127 0.826945 0.00956291 0
M  V30 2135 H 198.673 1.5336 -0.726558 0
M  V30 2136 H 197.445 3.66569 -1.36906 0
M  V30 2137 H 197.068 3.9631 0.319975 0
M  V30 2138 N 198.065 0.39524 1.52563 0
M  V30 2139 C 199.481 0.0454682 1.59535 0
M  V30 2140 C 199.681 -1.44056 1.4089 0
M  V30 2141 O 198.737 -2.20579 1.22888 0
M  V30 2142 C 200.05 0.527963 2.96029 0
M  V30 2143 C 201.598 0.484733 3.09224 0
M  V30 2144 C 202.073 0.943512 4.48176 0
M  V30 2145 N 203.564 0.899765 4.54377 0
M  V30 2146 C 204.299 1.22609 5.60138 0
M  V30 2147 N 203.795 1.62319 6.73516 0
M  V30 2148 N 205.588 1.14696 5.50274 0
M  V30 2149 H 197.739 1.36261 1.62931 0
M  V30 2150 H 200.002 0.558887 0.765735 0
M  V30 2151 H 199.708 1.56607 3.14908 0
M  V30 2152 H 199.582 -0.0698056 3.77135 0
M  V30 2153 H 201.969 -0.544298 2.90037 0
M  V30 2154 H 202.05 1.11838 2.30056 0
M  V30 2155 H 201.694 1.9708 4.68104 0
M  V30 2156 H 201.624 0.286817 5.25818 0
M  V30 2157 H 204.115 0.607632 3.72983 0
M  V30 2158 H 204.428 1.85567 7.5019 0
M  V30 2159 H 202.773 1.66211 6.74833 0
M  V30 2160 H 205.964 0.835701 4.6058 0
M  V30 2161 H 206.137 1.40459 6.32594 0
M  V30 2162 N 199.544 -1.57102 0.125237 0
M  V30 2163 C 200.494 -2.12202 -0.833936 0
M  V30 2164 C 201.478 -1.04433 -1.22403 0
M  V30 2165 O 202.67 -1.30655 -1.19408 0
M  V30 2166 C 199.799 -2.72994 -2.08157 0
M  V30 2167 C 198.885 -3.87852 -1.71556 0
M  V30 2168 N 199.276 -4.9464 -1.05662 0
M  V30 2169 C 197.574 -3.98153 -2.00973 0
M  V30 2170 C 198.275 -5.74953 -0.883376 0
M  V30 2171 N 197.251 -5.24985 -1.41036 0
M  V30 2172 H 201.053 -2.92141 -0.321035 0
M  V30 2173 H 198.567 -1.62217 -0.0770315 0
M  V30 2174 H 200.564 -3.10816 -2.77847 0
M  V30 2175 H 199.224 -1.9452 -2.59985 0
M  V30 2176 H 200.235 -5.12872 -0.719878 0
M  V30 2177 H 196.912 -3.30728 -2.54804 0
M  V30 2178 H 198.302 -6.70904 -0.365675 0
M  V30 2179 N 201.022 0.148545 -1.56898 0
M  V30 2180 C 202.438 0.501131 -1.51528 0
M  V30 2181 C 202.638 1.83458 -0.833399 0
M  V30 2182 O 201.694 2.49259 -0.40328 0
M  V30 2183 C 203.007 0.512864 -2.96294 0
M  V30 2184 C 204.555 0.598487 -3.07225 0
M  V30 2185 C 205.03 0.640897 -4.53494 0
M  V30 2186 N 206.521 0.703163 -4.57832 0
M  V30 2187 C 207.256 0.756935 -5.68382 0
M  V30 2188 N 206.752 0.770147 -6.88506 0
M  V30 2189 N 208.545 0.797698 -5.56411 0
M  V30 2190 H 200.696 -0.725532 -1.99624 0
M  V30 2191 H 202.959 -0.264358 -0.910395 0
M  V30 2192 H 202.665 -0.398691 -3.49433 0
M  V30 2193 H 202.539 1.35133 -3.52163 0
M  V30 2194 H 204.926 1.50046 -2.54106 0
M  V30 2195 H 205.007 -0.267093 -2.54402 0
M  V30 2196 H 204.651 -0.256915 -5.0725 0
M  V30 2197 H 204.581 1.52295 -5.04097 0
M  V30 2198 H 207.072 0.700314 -3.71354 0
M  V30 2199 H 207.385 0.812983 -7.68512 0
M  V30 2200 H 205.73 0.738049 -6.9107 0
M  V30 2201 H 208.921 0.784535 -4.61479 0
M  V30 2202 H 209.094 0.83614 -6.42583 0
M  V30 2203 N 202.5 1.5196 0.417844 0
M  V30 2204 C 203.748 1.65263 1.16329 0
M  V30 2205 C 204.069 0.380634 1.91249 0
M  V30 2206 O 203.339 -0.604214 1.86349 0
M  V30 2207 H 201.919 0.60912 0.432414 0
M  V30 2208 H 204.581 1.88969 0.477162 0
M  V30 2209 H 203.677 2.4896 1.88217 0
M  V30 2210 N 203.978 -0.674533 1.42435 0
M  V30 2211 C 204.928 -1.7807 1.4239 0
M  V30 2212 C 205.912 -1.58169 0.295202 0
M  V30 2213 O 207.104 -1.68643 0.537449 0
M  V30 2214 C 204.233 -3.16532 1.32901 0
M  V30 2215 C 203.319 -3.42055 2.50717 0
M  V30 2216 N 203.71 -3.38162 3.76139 0
M  V30 2217 C 202.008 -3.72692 2.44983 0
M  V30 2218 C 202.709 -3.63177 4.54398 0
M  V30 2219 N 201.685 -3.83954 3.84812 0
M  V30 2220 H 205.487 -1.73454 2.37257 0
M  V30 2221 H 203.001 -0.875381 1.36788 0
M  V30 2222 H 204.998 -3.958 1.30951 0
M  V30 2223 H 203.658 -3.22345 0.390363 0
M  V30 2224 H 204.669 -3.18057 4.0873 0
M  V30 2225 H 201.346 -3.85749 1.59699 0
M  V30 2226 H 202.736 -3.66125 5.63384 0
M  V30 2227 N 205.456 -1.28612 -0.910864 0
M  V30 2228 C 206.704 -1.15705 -1.65701 0
M  V30 2229 C 207.025 0.29416 -1.92769 0
M  V30 2230 O 206.295 1.20331 -1.54588 0
M  V30 2231 H 204.875 -0.425216 -0.614167 0
M  V30 2232 H 207.537 -1.61381 -1.0928 0
M  V30 2233 H 206.633 -1.6988 -2.61815 0
M  V30 2234 N 206.934 1.1197 -1.10907 0
M  V30 2235 C 207.881 2.17846 -0.762345 0
M  V30 2236 C 208.851 1.63995 0.263599 0
M  V30 2237 O 210.036 1.90273 0.141773 0
M  V30 2238 C 207.176 3.44487 -0.205651 0
M  V30 2239 C 206.289 4.12369 -1.28748 0
M  V30 2240 C 205.424 5.26674 -0.691919 0
M  V30 2241 C 204.463 5.86431 -1.75399 0
M  V30 2242 N 203.6 6.92142 -1.17833 0
M  V30 2243 H 208.44 2.46851 -1.6694 0
M  V30 2244 H 205.977 1.21188 -0.833776 0
M  V30 2245 H 207.935 4.16981 0.135037 0
M  V30 2246 H 206.565 3.15884 0.664613 0
M  V30 2247 H 205.617 3.38003 -1.74522 0
M  V30 2248 H 206.929 4.52844 -2.09125 0
M  V30 2249 H 206.083 6.05953 -0.300963 0
M  V30 2250 H 204.822 4.8749 0.143232 0
M  V30 2251 H 203.827 5.05835 -2.15432 0
M  V30 2252 H 205.052 6.27685 -2.59208 0
M  V30 2253 H 202.998 6.54985 -0.364725 0
M  V30 2254 H 202.915 7.31242 -1.91887 0
M  V30 2255 H 204.183 7.75237 -0.81408 0
M  V30 2256 N 208.412 0.89855 1.29475 0
M  V30 2257 C 209.661 0.519863 1.94885 0
M  V30 2258 C 209.974 -0.9383 1.71625 0
M  V30 2259 O 211.18 -1.42445 2.31131 0
M  V30 2260 C 209.636 0.878836 3.49005 0
M  V30 2261 C 209.244 2.35569 3.81066 0
M  V30 2262 C 210.988 0.570004 4.20656 0
M  V30 2263 C 208.895 2.65558 5.28425 0
M  V30 2264 H 207.825 0.190692 0.729488 0
M  V30 2265 H 210.476 1.09539 1.47219 0
M  V30 2266 H 208.858 0.232253 3.95318 0
M  V30 2267 H 210.032 3.04773 3.45616 0
M  V30 2268 H 208.347 2.63343 3.22552 0
M  V30 2269 H 210.944 0.770925 5.29113 0
M  V30 2270 H 211.287 -0.491404 4.1339 0
M  V30 2271 H 211.82 1.17438 3.8007 0
M  V30 2272 H 208.559 3.70493 5.40754 0
M  V30 2273 H 208.079 2.00977 5.65127 0
M  V30 2274 H 209.758 2.51765 5.96006 0
M  V30 2275 N 209.89 -1.43072 0.660911 0
M  V30 2276 C 210.84 -2.27948 -0.04847 0
M  V30 2277 C 211.824 -1.40325 -0.787246 0
M  V30 2278 O 213.016 -1.63893 -0.668446 0
M  V30 2279 C 210.145 -3.28143 -1.00881 0
M  V30 2280 C 209.231 -4.23252 -0.268108 0
M  V30 2281 N 209.622 -5.00656 0.719528 0
M  V30 2282 C 207.92 -4.43092 -0.508493 0
M  V30 2283 C 208.621 -5.70019 1.15988 0
M  V30 2284 N 207.597 -5.41364 0.492584 0
M  V30 2285 H 211.399 -2.85213 0.709279 0
M  V30 2286 H 208.913 -1.54869 0.488822 0
M  V30 2287 H 210.91 -3.87736 -1.53188 0
M  V30 2288 H 209.57 -2.7244 -1.76654 0
M  V30 2289 H 210.581 -5.06115 1.09855 0
M  V30 2290 H 207.258 -3.98449 -1.24679 0
M  V30 2291 H 208.648 -6.4214 1.97751 0
M  V30 2292 N 211.368 -0.403325 -1.52352 0
M  V30 2293 C 212.298 0.416205 -2.29761 0
M  V30 2294 C 213.279 1.05123 -1.33728 0
M  V30 2295 O 214.464 1.06134 -1.62632 0
M  V30 2296 C 211.594 1.53624 -3.11475 0
M  V30 2297 C 210.548 1.02653 -4.15507 0
M  V30 2298 C 209.874 2.23971 -4.85532 0
M  V30 2299 C 211.174 0.08463 -5.22231 0
M  V30 2300 H 212.868 -0.229701 -2.98518 0
M  V30 2301 H 210.414 -0.111913 -1.43564 0
M  V30 2302 H 212.367 2.1165 -3.64393 0
M  V30 2303 H 211.091 2.20994 -2.40477 0
M  V30 2304 H 209.75 0.46871 -3.63591 0
M  V30 2305 H 209.398 2.89883 -4.11068 0
M  V30 2306 H 209.098 1.90521 -5.55856 0
M  V30 2307 H 210.622 2.82614 -5.41259 0
M  V30 2308 H 212.036 0.573509 -5.70424 0
M  V30 2309 H 210.433 -0.160783 -5.99885 0
M  V30 2310 H 211.503 -0.86237 -4.7717 0
M  V30 2311 N 212.846 1.57033 -0.133567 0
M  V30 2312 C 213.778 2.13176 0.841944 0
M  V30 2313 C 214.791 1.07794 1.22001 0
M  V30 2314 O 215.98 1.35117 1.16643 0
M  V30 2315 C 213.08 2.62847 2.13926 0
M  V30 2316 C 212.253 3.92486 1.93064 0
M  V30 2317 C 211.312 4.27605 3.0666 0
M  V30 2318 O 210.338 4.96168 2.78937 0
M  V30 2319 N 211.54 3.861 4.33483 0
M  V30 2320 H 214.305 2.97503 0.362192 0
M  V30 2321 H 211.866 1.61821 0.05042 0
M  V30 2322 H 213.858 2.83363 2.88942 0
M  V30 2323 H 212.428 1.83319 2.53205 0
M  V30 2324 H 211.648 3.80732 1.02159 0
M  V30 2325 H 212.936 4.77225 1.76447 0
M  V30 2326 H 212.334 3.30828 4.58878 0
M  V30 2327 H 210.891 4.11694 5.05323 0
M  V30 2328 N 214.325 -0.140222 1.56975 0
M  V30 2329 C 215.571 -0.852949 1.83991 0
M  V30 2330 C 215.904 -1.80512 0.716187 0
M  V30 2331 O 215.179 -1.92479 -0.279681 0
M  V30 2332 C 215.462 -1.6215 3.21527 0
M  V30 2333 C 215.315 -0.690363 4.4447 0
M  V30 2334 C 216.634 -2.58247 3.56366 0
M  V30 2335 H 213.753 -0.308634 0.669264 0
M  V30 2336 H 216.395 -0.117898 1.89634 0
M  V30 2337 H 214.545 -2.24812 3.16847 0
M  V30 2338 H 216.217 -0.0742264 4.6124 0
M  V30 2339 H 214.46 -0.000396433 4.338 0
M  V30 2340 H 215.131 -1.2643 5.37326 0
M  V30 2341 H 217.607 -2.05701 3.61699 0
M  V30 2342 H 216.483 -3.09067 4.53617 0
M  V30 2343 H 216.744 -3.39923 2.82674 0
M  V30 2344 N 215.803 -1.52179 -0.40978 0
M  V30 2345 C 216.733 -1.78435 -1.5061 0
M  V30 2346 C 217.714 -0.635295 -1.57791 0
M  V30 2347 O 218.899 -0.880823 -1.73076 0
M  V30 2348 C 216.029 -1.93444 -2.88439 0
M  V30 2349 C 214.983 -3.09038 -2.96108 0
M  V30 2350 C 214.309 -3.09268 -4.36185 0
M  V30 2351 C 215.609 -4.48508 -2.67652 0
M  V30 2352 H 217.303 -2.70237 -1.28889 0
M  V30 2353 H 214.849 -1.30036 -0.618605 0
M  V30 2354 H 216.802 -2.10394 -3.65119 0
M  V30 2355 H 215.526 -0.983129 -3.11452 0
M  V30 2356 H 214.185 -2.91837 -2.21872 0
M  V30 2357 H 213.833 -2.11861 -4.56206 0
M  V30 2358 H 213.533 -3.86907 -4.42241 0
M  V30 2359 H 215.057 -3.28348 -5.14801 0
M  V30 2360 H 216.471 -4.65918 -3.34056 0
M  V30 2361 H 214.868 -5.28059 -2.85085 0
M  V30 2362 H 215.938 -4.56649 -1.63095 0
M  V30 2363 N 217.281 0.66697 -1.42791 0
M  V30 2364 C 218.214 1.79177 -1.41318 0
M  V30 2365 C 219.192 1.60234 -0.276401 0
M  V30 2366 O 220.376 1.82602 -0.46785 0
M  V30 2367 C 217.503 3.16289 -1.21157 0
M  V30 2368 C 216.549 3.53964 -2.37932 0
M  V30 2369 S 217.382 3.55501 -4.00474 0
M  V30 2370 C 218.538 4.95292 -3.8267 0
M  V30 2371 H 218.771 1.80153 -2.365 0
M  V30 2372 H 216.304 0.838357 -1.29657 0
M  V30 2373 H 218.262 3.95428 -1.10212 0
M  V30 2374 H 216.923 3.1289 -0.275481 0
M  V30 2375 H 216.116 4.53646 -2.19594 0
M  V30 2376 H 215.718 2.82204 -2.45432 0
M  V30 2377 H 218.01 5.83584 -3.44145 0
M  V30 2378 H 218.953 5.18679 -4.82055 0
M  V30 2379 H 219.361 4.68179 -3.15386 0
M  V30 2380 N 218.759 1.29093 0.90403 0
M  V30 2381 C 219.669 1.15727 2.0407 0
M  V30 2382 C 220.685 0.0815308 1.73809 0
M  V30 2383 O 221.861 0.292749 1.99261 0
M  V30 2384 C 218.926 0.830424 3.36608 0
M  V30 2385 C 217.987 1.98955 3.80415 0
M  V30 2386 C 217.22 1.6782 5.06628 0
M  V30 2387 O 217.443 0.597105 5.67266 0
M  V30 2388 O 216.377 2.52486 5.46383 0
M  V30 2389 H 220.203 2.11171 2.18267 0
M  V30 2390 H 217.788 1.08504 1.027 0
M  V30 2391 H 219.67 0.662521 4.16159 0
M  V30 2392 H 218.345 -0.0942678 3.23563 0
M  V30 2393 H 217.252 2.21267 3.01648 0
M  V30 2394 H 218.585 2.89529 3.98037 0
M  V30 2395 N 220.237 -1.11381 1.11499 0
M  V30 2396 C 221.147 -2.21019 0.786628 0
M  V30 2397 C 222.163 -1.72597 -0.220507 0
M  V30 2398 O 223.339 -2.01321 -0.0565251 0
M  V30 2399 C 220.404 -3.459 0.235333 0
M  V30 2400 C 219.465 -4.09107 1.30115 0
M  V30 2401 C 218.698 -5.28027 0.776068 0
M  V30 2402 O 218.921 -5.6904 -0.393661 0
M  V30 2403 O 217.855 -5.81835 1.54114 0
M  V30 2404 H 221.681 -2.51521 1.70209 0
M  V30 2405 H 219.266 -1.19928 0.890928 0
M  V30 2406 H 221.148 -4.21346 -0.067715 0
M  V30 2407 H 219.823 -3.17049 -0.652828 0
M  V30 2408 H 218.73 -3.35391 1.65722 0
M  V30 2409 H 220.063 -4.42139 2.16273 0
M  V30 2410 N 221.715 -0.905404 -1.28997 0
M  V30 2411 C 223.126 -0.581953 -1.77398 0
M  V30 2412 C 223.477 0.902552 -1.74208 0
M  V30 2413 O 222.602 1.70584 -1.33154 0
M  V30 2414 C 223.197 -1.04961 -3.22131 0
M  V30 2415 C 221.756 -0.777229 -3.68288 0
M  V30 2416 C 220.903 -1.22109 -2.48967 0
M  V30 2417 H 223.854 -1.08754 -1.15578 0
M  V30 2418 H 223.875 -0.387387 -3.78523 0
M  V30 2419 H 223.387 -2.13008 -3.24421 0
M  V30 2420 H 221.488 0.290383 -3.71467 0
M  V30 2421 H 221.601 -1.37911 -4.58822 0
M  V30 2422 H 219.965 -0.639971 -2.46529 0
M  V30 2423 H 220.748 -2.30972 -2.53982 0
M  V30 2424 N 223.193 1.4272 -0.668489 0
M  V30 2425 C 224.604 1.84793 -0.266151 0
M  V30 2426 C 224.955 1.55959 1.19043 0
M  V30 2427 O 224.08 1.01622 1.91055 0
M  V30 2428 C 224.675 3.35436 -0.476271 0
M  V30 2429 C 223.234 3.76182 -0.128113 0
M  V30 2430 C 222.381 2.66344 -0.771777 0
M  V30 2431 H 225.332 1.32656 -0.871098 0
M  V30 2432 H 225.353 3.79515 0.273561 0
M  V30 2433 H 224.865 3.5639 -1.53647 0
M  V30 2434 H 222.966 3.60836 0.928891 0
M  V30 2435 H 223.079 4.75766 -0.564231 0
M  V30 2436 H 221.443 2.53885 -0.203652 0
M  V30 2437 H 222.226 2.90123 -1.83531 0
M  V30 2438 N 224.671 0.411399 1.52136 0
M  V30 2439 C 225.581 -0.419774 2.30814 0
M  V30 2440 C 226.597 -1.0515 1.38634 0
M  V30 2441 O 227.773 -1.05252 1.71709 0
M  V30 2442 C 224.838 -1.52019 3.11594 0
M  V30 2443 C 223.899 -0.91129 4.19516 0
M  V30 2444 C 223.132 -1.95927 4.96436 0
M  V30 2445 O 223.355 -3.17775 4.73683 0
M  V30 2446 O 222.289 -1.56423 5.81219 0
M  V30 2447 H 226.115 0.221805 3.02889 0
M  V30 2448 H 223.7 0.174547 1.48377 0
M  V30 2449 H 225.582 -2.15898 3.61892 0
M  V30 2450 H 224.257 -2.14633 2.42311 0
M  V30 2451 H 223.164 -0.235157 3.7336 0
M  V30 2452 H 224.497 -0.32904 4.91099 0
M  V30 2453 N 226.149 -1.5696 0.141893 0
M  V30 2454 C 227.565 -1.58151 -0.21456 0
M  V30 2455 C 227.765 -1.1559 -1.65049 0
M  V30 2456 O 226.821 -0.853832 -2.37626 0
M  V30 2457 C 228.134 -3.00674 0.0395576 0
M  V30 2458 C 229.682 -3.1299 -0.0245529 0
M  V30 2459 C 230.157 -4.57554 0.202167 0
M  V30 2460 N 231.648 -4.62961 0.148919 0
M  V30 2461 C 232.383 -5.7262 0.298924 0
M  V30 2462 N 231.879 -6.90947 0.50637 0
M  V30 2463 N 233.672 -5.61601 0.236886 0
M  V30 2464 H 225.823 -1.8292 1.07953 0
M  V30 2465 H 228.086 -0.846425 0.42693 0
M  V30 2466 H 227.792 -3.36183 1.03315 0
M  V30 2467 H 227.666 -3.70981 -0.682143 0
M  V30 2468 H 230.053 -2.77326 -1.00869 0
M  V30 2469 H 230.134 -2.4518 0.729396 0
M  V30 2470 H 229.778 -4.93922 1.18338 0
M  V30 2471 H 229.708 -5.23484 -0.572044 0
M  V30 2472 H 232.199 -3.77899 -0.00697015 0
M  V30 2473 H 232.512 -7.7038 0.611076 0
M  V30 2474 H 230.857 -6.92878 0.542628 0
M  V30 2475 H 234.048 -4.68039 0.0756209 0
M  V30 2476 H 234.221 -6.47015 0.357227 0
M  V30 2477 N 227.627 0.131896 -1.57047 0
M  V30 2478 C 228.904 0.871495 -1.75112 0
M  V30 2479 C 229.284 1.9866 -0.713949 0
M  V30 2480 O 228.632 2.26965 0.264447 0
M  V30 2481 C 228.842 1.40007 -3.19686 0
M  V30 2482 C 230.19 1.85752 -3.81813 0
M  V30 2483 O 231.214 1.49715 -3.23209 0
M  V30 2484 O 230.073 2.5226 -4.84796 0
M  V30 2485 H 227.167 0.412919 -0.716538 0
M  V30 2486 H 229.713 0.116641 -1.69299 0
M  V30 2487 H 228.485 0.599404 -3.86682 0
M  V30 2488 H 228.108 2.218 -3.29986 0
M  V30 2489 N 229.106 1.52395 0.401703 0
M  V30 2490 C 230.331 1.70972 1.17403 0
M  V30 2491 C 230.756 0.421615 1.83314 0
M  V30 2492 O 230.114 -0.621564 1.70312 0
M  V30 2493 C 230.162 2.85151 2.20728 0
M  V30 2494 O 229.266 2.51238 3.27037 0
M  V30 2495 H 228.607 0.568927 0.342372 0
M  V30 2496 H 231.137 1.99131 0.469891 0
M  V30 2497 H 231.147 3.10279 2.64936 0
M  V30 2498 H 229.822 3.78603 1.7214 0
M  V30 2499 H 228.399 2.36808 2.88057 0
M  V30 2500 N 230.584 -0.659388 1.43143 0
M  V30 2501 C 231.812 -1.44723 1.47861 0
M  V30 2502 C 232.227 -1.88563 0.0945886 0
M  V30 2503 O 231.584 -1.59108 -0.893915 0
M  V30 2504 C 231.635 -2.68627 2.41913 0
M  V30 2505 O 231.356 -2.26623 3.74932 0
M  V30 2506 C 232.857 -3.62045 2.55809 0
M  V30 2507 H 230.077 -0.444801 0.502387 0
M  V30 2508 H 232.621 -0.808916 1.87821 0
M  V30 2509 H 230.776 -3.28613 2.05164 0
M  V30 2510 H 231.19 -3.06745 4.2545 0
M  V30 2511 H 232.664 -4.45666 3.25708 0
M  V30 2512 H 233.141 -4.08981 1.60099 0
M  V30 2513 H 233.747 -3.07944 2.93344 0
M  V30 2514 N 232.062 -1.29571 -0.897171 0
M  V30 2515 C 233.308 -1.17863 -1.65034 0
M  V30 2516 C 233.641 0.268729 -1.92332 0
M  V30 2517 O 232.916 1.19378 -1.53555 0
M  V30 2518 C 233.199 -1.995 -2.99786 0
M  V30 2519 C 233.052 -3.5239 -2.79538 0
M  V30 2520 C 234.371 -1.82335 -4.00552 0
M  V30 2521 H 231.49 -0.429528 -0.598895 0
M  V30 2522 H 234.132 -1.59072 -1.03905 0
M  V30 2523 H 232.282 -1.64485 -3.51962 0
M  V30 2524 H 233.954 -3.97401 -2.34244 0
M  V30 2525 H 232.197 -3.77187 -2.14273 0
M  V30 2526 H 232.868 -4.04787 -3.75302 0
M  V30 2527 H 235.344 -2.12924 -3.57495 0
M  V30 2528 H 234.22 -2.41801 -4.92771 0
M  V30 2529 H 234.481 -0.779209 -4.35179 0
M  V30 2530 N 233.54 1.10788 -1.12088 0
M  V30 2531 C 234.503 2.15207 -0.788577 0
M  V30 2532 C 235.503 1.59609 0.195317 0
M  V30 2533 O 236.693 1.74174 -0.0300193 0
M  V30 2534 C 233.825 3.4047 -0.171174 0
M  V30 2535 H 235.018 2.46116 -1.71368 0
M  V30 2536 H 232.571 1.26089 -0.923652 0
M  V30 2537 H 233.306 3.15176 0.763832 0
M  V30 2538 H 233.091 3.82109 -0.879514 0
M  V30 2539 H 234.581 4.17576 0.04496 0
M  V30 2540 N 235.018 0.912232 1.28515 0
M  V30 2541 C 236.264 0.545405 1.95328 0
M  V30 2542 C 236.597 -0.908313 1.71649 0
M  V30 2543 O 235.872 -1.64575 1.03659 0
M  V30 2544 C 236.155 0.853483 3.4984 0
M  V30 2545 C 236.008 2.35982 3.82926 0
M  V30 2546 C 237.327 0.348589 4.38717 0
M  V30 2547 H 234.446 0.199626 0.709449 0
M  V30 2548 H 237.088 1.1412 1.5191 0
M  V30 2549 H 235.238 0.34643 3.86952 0
M  V30 2550 H 236.91 2.93738 3.55691 0
M  V30 2551 H 235.153 2.81543 3.30024 0
M  V30 2552 H 235.824 2.52593 4.90816 0
M  V30 2553 H 238.3 0.78294 4.08668 0
M  V30 2554 H 237.176 0.593242 5.45685 0
M  V30 2555 H 237.437 -0.751049 4.35674 0
M  V30 2556 N 236.496 -1.42363 0.676048 0
M  V30 2557 C 237.745 -2.00745 0.196037 0
M  V30 2558 C 238.058 -1.54083 -1.20489 0
M  V30 2559 O 239.264 -2.04891 -1.78134 0
M  V30 2560 C 237.72 -3.58651 0.299616 0
M  V30 2561 C 237.328 -4.143 1.70468 0
M  V30 2562 C 239.072 -4.24326 -0.121619 0
M  V30 2563 C 236.979 -5.64574 1.76096 0
M  V30 2564 H 235.909 -0.750787 0.0695301 0
M  V30 2565 H 238.56 -1.63072 0.841412 0
M  V30 2566 H 236.942 -3.93833 -0.413673 0
M  V30 2567 H 238.116 -3.90575 2.44515 0
M  V30 2568 H 236.431 -3.61081 2.07387 0
M  V30 2569 H 239.028 -5.34607 -0.0997362 0
M  V30 2570 H 239.371 -3.99897 -1.15708 0
M  V30 2571 H 239.904 -3.94108 0.540706 0
M  V30 2572 H 236.643 -5.93804 2.77628 0
M  V30 2573 H 236.163 -5.90286 1.06406 0
M  V30 2574 H 237.842 -6.29013 1.51496 0
M  V30 2575 N 237.974 -0.419461 -1.51915 0
M  V30 2576 C 239.22 0.153166 -2.02221 0
M  V30 2577 C 239.553 1.43907 -1.30401 0
M  V30 2578 O 238.828 1.90055 -0.413438 0
M  V30 2579 C 239.111 0.390291 -3.57979 0
M  V30 2580 C 238.964 -0.913014 -4.40436 0
M  V30 2581 C 240.283 1.16794 -4.2432 0
M  V30 2582 H 237.402 0.0541924 -0.735005 0
M  V30 2583 H 240.044 -0.554955 -1.81715 0
M  V30 2584 H 238.194 0.993491 -3.75582 0
M  V30 2585 H 239.866 -1.54882 -4.34522 0
M  V30 2586 H 238.109 -1.52168 -4.06236 0
M  V30 2587 H 238.78 -0.701361 -5.47526 0
M  V30 2588 H 241.256 0.657161 -4.10878 0
M  V30 2589 H 240.132 1.3026 -5.3322 0
M  V30 2590 H 240.393 2.19132 -3.83971 0
M  V30 2591 N 239.452 1.56882 -0.150215 0
M  V30 2592 C 240.7 1.9584 0.499105 0
M  V30 2593 C 241.021 1.03623 1.65188 0
M  V30 2594 O 240.291 0.0984084 1.95653 0
M  V30 2595 H 238.871 0.723119 0.187373 0
M  V30 2596 H 241.533 1.9358 -0.226466 0
M  V30 2597 H 240.629 2.99638 0.873122 0
M  V30 2598 N 240.93 -0.123565 1.57115 0
M  V30 2599 C 241.893 -1.13583 1.99076 0
M  V30 2600 C 242.893 -1.34564 0.880296 0
M  V30 2601 O 244.083 -1.31158 1.14644 0
M  V30 2602 C 241.215 -2.49128 2.32698 0
M  V30 2603 H 242.408 -0.775287 2.89706 0
M  V30 2604 H 239.961 -0.36771 1.51913 0
M  V30 2605 H 240.696 -2.90111 1.44934 0
M  V30 2606 H 240.481 -2.35255 3.13684 0
M  V30 2607 H 241.971 -3.2199 2.65918 0
M  V30 2608 N 242.408 -1.52605 -0.393616 0
M  V30 2609 C 243.633 -1.71592 -1.16495 0
M  V30 2610 C 244.058 -0.43133 -1.83088 0
M  V30 2611 O 243.416 0.612523 -1.7064 0
M  V30 2612 C 243.464 -2.86318 -2.19213 0
M  V30 2613 O 242.568 -2.52969 -3.257 0
M  V30 2614 H 241.909 -0.570734 -0.33935 0
M  V30 2615 H 244.439 -1.99377 -0.459324 0
M  V30 2616 H 244.449 -3.1168 -2.63286 0
M  V30 2617 H 243.124 -3.79511 -1.7013 0
M  V30 2618 H 241.701 -2.38332 -2.86797 0
M  V30 2619 N 243.887 0.651787 -1.4349 0
M  V30 2620 C 245.133 1.41376 -1.45398 0
M  V30 2621 C 245.466 1.94041 -0.0784823 0
M  V30 2622 O 244.741 1.72379 0.900878 0
M  V30 2623 C 245.024 2.59414 -2.49752 0
M  V30 2624 C 244.877 2.12232 -3.96582 0
M  V30 2625 C 246.196 3.61626 -2.50827 0
M  V30 2626 H 243.315 0.512719 -0.529422 0
M  V30 2627 H 245.957 0.738796 -1.75048 0
M  V30 2628 H 244.107 3.16997 -2.246 0
M  V30 2629 H 245.779 1.59639 -4.32797 0
M  V30 2630 H 244.022 1.43592 -4.09346 0
M  V30 2631 H 244.693 2.9712 -4.65214 0
M  V30 2632 H 247.169 3.13805 -2.7325 0
M  V30 2633 H 246.045 4.41766 -3.25783 0
M  V30 2634 H 246.306 4.14314 -1.5426 0
M  V30 2635 N 245.365 1.30045 0.890287 0
M  V30 2636 C 246.613 1.18327 1.63839 0
M  V30 2637 C 246.934 -0.263455 1.93212 0
M  V30 2638 O 246.204 -1.17856 1.56482 0
M  V30 2639 H 244.784 0.434933 0.607324 0
M  V30 2640 H 247.446 1.631 1.06698 0
M  V30 2641 H 246.542 1.74024 2.59079 0
M  V30 2642 N 246.843 -1.10192 1.12674 0
M  V30 2643 C 248.091 -1.81845 0.881861 0
M  V30 2644 C 248.412 -1.85737 -0.593867 0
M  V30 2645 O 247.682 -1.33724 -1.4316 0
M  V30 2646 H 246.262 -0.673432 0.323261 0
M  V30 2647 H 248.924 -1.33316 1.42172 0
M  V30 2648 H 248.02 -2.85288 1.2656 0
M  V30 2649 N 248.321 -0.919034 -1.28029 0
M  V30 2650 C 249.568 -0.554934 -1.94748 0
M  V30 2651 C 249.896 0.90231 -1.72304 0
M  V30 2652 O 249.151 1.65767 -1.04018 0
M  V30 2653 C 249.45 -0.816855 -3.4794 0
M  V30 2654 C 249.116 -2.25448 -3.90492 0
M  V30 2655 C 247.778 -2.64752 -4.01821 0
M  V30 2656 C 250.13 -3.18977 -4.12193 0
M  V30 2657 C 247.458 -3.96727 -4.32232 0
M  V30 2658 C 249.81 -4.50523 -4.44086 0
M  V30 2659 C 248.474 -4.89673 -4.53626 0
M  V30 2660 H 247.744 -0.203065 -0.712633 0
M  V30 2661 H 250.391 -1.16136 -1.52265 0
M  V30 2662 H 248.696 -0.127677 -3.91592 0
M  V30 2663 H 250.393 -0.514238 -3.97689 0
M  V30 2664 H 246.983 -1.93952 -3.82205 0
M  V30 2665 H 251.167 -2.89817 -4.02889 0
M  V30 2666 H 246.423 -4.26754 -4.37825 0
M  V30 2667 H 250.597 -5.23005 -4.59825 0
M  V30 2668 H 248.224 -5.91969 -4.76946 0
M  V30 2669 N 249.799 1.42003 -0.683588 0
M  V30 2670 C 250.729 2.33487 -0.024866 0
M  V30 2671 C 251.71 1.51163 0.779975 0
M  V30 2672 O 252.895 1.79739 0.735362 0
M  V30 2673 C 250.025 3.3487 0.920836 0
M  V30 2674 C 248.979 4.27414 0.223958 0
M  V30 2675 C 248.305 5.19074 1.2832 0
M  V30 2676 C 249.605 5.14445 -0.90242 0
M  V30 2677 H 251.299 2.88819 -0.788921 0
M  V30 2678 H 248.845 1.38873 -0.38083 0
M  V30 2679 H 250.798 3.97787 1.39081 0
M  V30 2680 H 249.522 2.77861 1.71642 0
M  V30 2681 H 248.181 3.65904 -0.225864 0
M  V30 2682 H 247.829 4.58387 2.071 0
M  V30 2683 H 247.529 5.81822 0.821995 0
M  V30 2684 H 249.053 5.84867 1.75392 0
M  V30 2685 H 250.467 5.70998 -0.513272 0
M  V30 2686 H 248.864 5.86072 -1.28997 0
M  V30 2687 H 249.934 4.52322 -1.74737 0
M  V30 2688 N 251.277 0.427512 1.51691 0
M  V30 2689 C 252.24 -0.377132 2.26076 0
M  V30 2690 C 253.24 -0.958089 1.29141 0
M  V30 2691 O 254.43 -0.83408 1.52934 0
M  V30 2692 C 251.562 -1.53262 3.04506 0
M  V30 2693 H 252.755 0.27464 2.9864 0
M  V30 2694 H 250.308 0.180445 1.55255 0
M  V30 2695 H 251.043 -2.22072 2.36335 0
M  V30 2696 H 250.828 -1.12232 3.75694 0
M  V30 2697 H 252.318 -2.10135 3.60878 0
M  V30 2698 N 252.755 -1.56801 0.158532 0
M  V30 2699 C 254.001 -1.96781 -0.490405 0
M  V30 2700 C 254.334 -1.04397 -1.63753 0
M  V30 2701 O 253.609 -0.0885805 -1.94298 0
M  V30 2702 C 253.892 -3.4635 -0.985594 0
M  V30 2703 C 253.745 -4.49512 0.160824 0
M  V30 2704 C 255.064 -3.98697 -1.86355 0
M  V30 2705 H 252.183 -0.715482 -0.176788 0
M  V30 2706 H 254.825 -1.88451 0.242088 0
M  V30 2707 H 252.975 -3.53579 -1.60978 0
M  V30 2708 H 254.647 -4.54353 0.797537 0
M  V30 2709 H 252.89 -4.26013 0.818256 0
M  V30 2710 H 253.561 -5.51531 -0.227569 0
M  V30 2711 H 256.037 -3.94019 -1.33746 0
M  V30 2712 H 254.913 -5.03792 -2.17909 0
M  V30 2713 H 255.174 -3.41744 -2.8047 0
M  V30 2714 N 254.233 0.115231 -1.57178 0
M  V30 2715 C 255.479 0.82357 -1.85325 0
M  V30 2716 C 255.812 1.79349 -0.744814 0
M  V30 2717 O 255.087 1.92899 0.249024 0
M  V30 2718 C 255.37 1.57014 -3.24066 0
M  V30 2719 C 255.223 0.619565 -4.45513 0
M  V30 2720 C 256.542 2.52545 -3.60429 0
M  V30 2721 H 253.661 0.297948 -0.674089 0
M  V30 2722 H 256.303 0.0877138 -1.89797 0
M  V30 2723 H 254.453 2.19742 -3.20383 0
M  V30 2724 H 256.125 0.000837639 -4.613 0
M  V30 2725 H 254.368 -0.0686174 -4.33746 0
M  V30 2726 H 255.039 1.17866 -5.3927 0
M  V30 2727 H 257.515 1.9992 -3.64926 0
M  V30 2728 H 256.391 3.01811 -4.58477 0
M  V30 2729 H 256.652 3.35383 -2.88047 0
M  V30 2730 N 255.711 1.52812 0.385517 0
M  V30 2731 C 256.96 1.67249 1.12741 0
M  V30 2732 C 257.273 0.4205 1.91027 0
M  V30 2733 O 258.479 0.445064 2.67827 0
M  V30 2734 C 256.935 2.95583 2.05326 0
M  V30 2735 C 256.543 4.27974 1.32447 0
M  V30 2736 C 258.287 3.19386 2.7963 0
M  V30 2737 C 256.194 5.47412 2.23818 0
M  V30 2738 H 255.124 0.6231 0.424573 0
M  V30 2739 H 257.775 1.79309 0.389924 0
M  V30 2740 H 256.157 2.77277 2.82725 0
M  V30 2741 H 257.331 4.56844 0.602495 0
M  V30 2742 H 255.646 4.10459 0.700885 0
M  V30 2743 H 258.243 4.05801 3.48181 0
M  V30 2744 H 258.586 2.34604 3.43899 0
M  V30 2745 H 259.119 3.38274 2.09322 0
M  V30 2746 H 255.858 6.34612 1.64157 0
M  V30 2747 H 255.378 5.22849 2.93921 0
M  V30 2748 H 257.057 5.81423 2.83824 0
M  V30 2749 N 257.189 -0.644168 1.43834 0
M  V30 2750 C 258.119 -1.76814 1.52509 0
M  V30 2751 C 259.1 -1.65823 0.379052 0
M  V30 2752 O 260.285 -1.84781 0.597466 0
M  V30 2753 C 257.415 -3.15288 1.4564 0
M  V30 2754 C 256.369 -3.41053 2.58586 0
M  V30 2755 C 255.695 -4.79421 2.36769 0
M  V30 2756 C 256.995 -3.34902 4.00797 0
M  V30 2757 H 258.689 -1.69812 2.46586 0
M  V30 2758 H 256.235 -0.815542 1.1868 0
M  V30 2759 H 258.188 -3.93681 1.50311 0
M  V30 2760 H 256.912 -3.23043 0.480725 0
M  V30 2761 H 255.571 -2.65035 2.53282 0
M  V30 2762 H 255.219 -4.83863 1.37424 0
M  V30 2763 H 254.919 -4.9762 3.12487 0
M  V30 2764 H 256.443 -5.6006 2.43238 0
M  V30 2765 H 257.857 -4.03218 4.07539 0
M  V30 2766 H 256.254 -3.64637 4.76613 0
M  V30 2767 H 257.324 -2.32928 4.25291 0
M  V30 2768 N 258.668 -1.30515 -0.883378 0
M  V30 2769 C 259.914 -1.19607 -1.63774 0
M  V30 2770 C 260.247 0.248314 -1.92606 0
M  V30 2771 O 259.522 1.17742 -1.54813 0
M  V30 2772 C 259.805 -2.02669 -2.97653 0
M  V30 2773 C 259.658 -3.55335 -2.75784 0
M  V30 2774 C 260.977 -1.86573 -3.98596 0
M  V30 2775 H 258.096 -0.435856 -0.594305 0
M  V30 2776 H 260.738 -1.60165 -1.02212 0
M  V30 2777 H 258.888 -1.68208 -3.50197 0
M  V30 2778 H 260.56 -3.99863 -2.30016 0
M  V30 2779 H 258.803 -3.79438 -2.1026 0
M  V30 2780 H 259.474 -4.08745 -3.70988 0
M  V30 2781 H 261.95 -2.16703 -3.55217 0
M  V30 2782 H 260.826 -2.47014 -4.90179 0
M  V30 2783 H 261.087 -0.825321 -4.34328 0
M  V30 2784 N 260.146 1.09593 -1.13257 0
M  V30 2785 C 261.076 2.18214 -0.830946 0
M  V30 2786 C 262.057 1.68812 0.208966 0
M  V30 2787 O 263.242 1.9408 0.0682666 0
M  V30 2788 C 260.372 3.46051 -0.294296 0
M  V30 2789 C 259.326 4.08778 -1.26826 0
M  V30 2790 C 258.652 5.31419 -0.591449 0
M  V30 2791 C 259.952 4.51476 -2.62615 0
M  V30 2792 H 261.646 2.43703 -1.73923 0
M  V30 2793 H 259.192 1.17128 -0.837675 0
M  V30 2794 H 261.145 4.2134 -0.0709606 0
M  V30 2795 H 259.869 3.20079 0.649366 0
M  V30 2796 H 258.528 3.35505 -1.47756 0
M  V30 2797 H 258.176 5.01727 0.357633 0
M  V30 2798 H 257.876 5.74341 -1.24123 0
M  V30 2799 H 259.4 6.09433 -0.377355 0
M  V30 2800 H 260.814 5.17999 -2.45663 0
M  V30 2801 H 259.211 5.05277 -3.23752 0
M  V30 2802 H 260.281 3.63962 -3.20406 0
M  V30 2803 N 261.624 0.925811 1.2754 0
M  V30 2804 C 262.557 0.367836 2.25216 0
M  V30 2805 C 263.535 -0.534738 1.53556 0
M  V30 2806 O 264.719 -0.475672 1.824 0
M  V30 2807 C 261.846 -0.47298 3.35381 0
M  V30 2808 C 260.892 0.365898 4.24928 0
M  V30 2809 S 261.725 1.78025 5.05042 0
M  V30 2810 C 262.881 0.947068 6.18693 0
M  V30 2811 H 263.114 1.19568 2.72196 0
M  V30 2812 H 260.647 0.727867 1.36167 0
M  V30 2813 H 262.605 -0.952242 3.99303 0
M  V30 2814 H 261.266 -1.27533 2.87044 0
M  V30 2815 H 260.459 -0.277582 5.03235 0
M  V30 2816 H 260.061 0.779261 3.65792 0
M  V30 2817 H 262.353 0.182201 6.77255 0
M  V30 2818 H 263.296 1.70309 6.87314 0
M  V30 2819 H 263.704 0.489913 5.6237 0
M  V30 2820 N 263.102 -1.41638 0.69111 0
M  V30 2821 C 264.348 -2.01598 0.220519 0
M  V30 2822 C 264.681 -1.54594 -1.17535 0
M  V30 2823 O 263.956 -0.755177 -1.79241 0
M  V30 2824 C 264.239 -3.59062 0.273243 0
M  V30 2825 C 264.092 -4.16203 1.70573 0
M  V30 2826 C 265.411 -4.38546 -0.369457 0
M  V30 2827 H 262.53 -0.732468 0.0816045 0
M  V30 2828 H 265.172 -1.68445 0.878986 0
M  V30 2829 H 263.322 -3.87435 -0.287411 0
M  V30 2830 H 264.994 -3.98722 2.31989 0
M  V30 2831 H 263.237 -3.71414 2.2413 0
M  V30 2832 H 263.908 -5.25358 1.69419 0
M  V30 2833 H 266.384 -4.1596 0.107977 0
M  V30 2834 H 265.26 -5.48069 -0.302002 0
M  V30 2835 H 265.521 -4.17662 -1.44951 0
M  V30 2836 N 264.58 -0.43555 -1.51462 0
M  V30 2837 C 265.826 0.131709 -2.02372 0
M  V30 2838 C 266.159 1.42516 -1.3192 0
M  V30 2839 O 265.434 1.89606 -0.433573 0
M  V30 2840 C 265.717 0.352301 -3.58373 0
M  V30 2841 C 265.57 -0.959676 -4.39443 0
M  V30 2842 C 266.889 1.12286 -4.25535 0
M  V30 2843 H 264.008 0.0463936 -0.735538 0
M  V30 2844 H 266.65 -0.574197 -1.81116 0
M  V30 2845 H 264.8 0.9536 -3.76615 0
M  V30 2846 H 266.472 -1.59482 -4.32855 0
M  V30 2847 H 264.715 -1.56468 -4.04599 0
M  V30 2848 H 265.386 -0.759394 -5.46752 0
M  V30 2849 H 267.862 0.613545 -4.11552 0
M  V30 2850 H 266.738 1.24598 -5.34571 0
M  V30 2851 H 266.999 2.15048 -3.86273 0
M  V30 2852 N 266.058 1.56714 -0.166846 0
M  V30 2853 C 267.005 2.17746 0.765193 0
M  V30 2854 C 267.975 1.11614 1.23011 0
M  V30 2855 O 269.16 1.39745 1.29908 0
M  V30 2856 C 266.3 2.81882 1.9909 0
M  V30 2857 C 265.413 4.02462 1.56997 0
M  V30 2858 C 264.548 4.54537 2.749 0
M  V30 2859 C 263.587 5.67538 2.29275 0
M  V30 2860 N 262.724 6.14142 3.40255 0
M  V30 2861 H 267.564 2.97048 0.237952 0
M  V30 2862 H 265.101 1.4672 0.105725 0
M  V30 2863 H 267.059 3.17221 2.70974 0
M  V30 2864 H 265.689 2.05191 2.49192 0
M  V30 2865 H 264.741 3.72973 0.748037 0
M  V30 2866 H 266.053 4.84273 1.19503 0
M  V30 2867 H 265.207 4.92035 3.54946 0
M  V30 2868 H 263.946 3.71774 3.1565 0
M  V30 2869 H 262.951 5.29597 1.47674 0
M  V30 2870 H 264.176 6.52099 1.89588 0
M  V30 2871 H 262.122 5.3431 3.8059 0
M  V30 2872 H 262.039 6.9093 3.06841 0
M  V30 2873 H 263.307 6.56289 4.206 0
M  V30 2874 N 267.536 -0.106894 1.57237 0
M  V30 2875 C 268.776 -0.818277 1.87306 0
M  V30 2876 C 269.14 -1.76474 0.756371 0
M  V30 2877 O 270.341 -2.5186 0.939155 0
M  V30 2878 C 268.612 -1.53806 3.22612 0
M  V30 2879 S 270.171 -2.28935 3.74345 0
M  V30 2880 H 266.989 -0.272862 0.656557 0
M  V30 2881 H 269.591 -0.075988 1.95352 0
M  V30 2882 H 268.295 -0.834951 4.01817 0
M  V30 2883 H 267.826 -2.32049 3.17674 0
M  V30 2884 H 269.841 -3.54871 3.46815 0
M  V30 2885 N 269.014 -1.53014 -0.377408 0
M  V30 2886 C 270.26 -1.68872 -1.12294 0
M  V30 2887 C 270.593 -0.433224 -1.89306 0
M  V30 2888 O 269.868 0.569258 -1.85983 0
M  V30 2889 C 270.151 -2.93115 -2.09179 0
M  V30 2890 C 270.004 -4.28794 -1.35853 0
M  V30 2891 C 271.323 -3.12928 -3.09458 0
M  V30 2892 H 268.442 -0.614518 -0.406862 0
M  V30 2893 H 271.084 -1.85633 -0.40503 0
M  V30 2894 H 269.234 -2.78956 -2.70399 0
M  V30 2895 H 270.906 -4.54742 -0.775082 0
M  V30 2896 H 269.149 -4.28744 -0.660364 0
M  V30 2897 H 269.82 -5.11837 -2.06706 0
M  V30 2898 H 272.296 -3.26194 -2.58334 0
M  V30 2899 H 271.172 -4.01316 -3.74482 0
M  V30 2900 H 271.433 -2.27669 -3.78971 0
M  V30 2901 N 270.492 0.636531 -1.44174 0
M  V30 2902 C 271.908 0.954104 -1.27941 0
M  V30 2903 C 272.108 2.0039 -0.211248 0
M  V30 2904 O 271.164 2.49236 0.404695 0
M  V30 2905 C 272.477 1.4225 -2.64925 0
M  V30 2906 C 274.025 1.53827 -2.72592 0
M  V30 2907 C 274.5 2.04053 -4.10032 0
M  V30 2908 N 275.991 2.11331 -4.12182 0
M  V30 2909 C 276.726 2.51352 -5.15374 0
M  V30 2910 N 276.222 2.90549 -6.2893 0
M  V30 2911 N 278.015 2.51438 -5.02728 0
M  V30 2912 H 270.166 -0.0578386 -2.12321 0
M  V30 2913 H 272.429 0.0367406 -0.947288 0
M  V30 2914 H 272.135 0.725466 -3.44136 0
M  V30 2915 H 272.009 2.39451 -2.9145 0
M  V30 2916 H 274.396 2.22628 -1.93702 0
M  V30 2917 H 274.477 0.550154 -2.49814 0
M  V30 2918 H 274.121 1.35848 -4.89395 0
M  V30 2919 H 274.051 3.03726 -4.30184 0
M  V30 2920 H 276.542 1.83745 -3.30222 0
M  V30 2921 H 276.855 3.19884 -7.03487 0
M  V30 2922 H 275.2 2.88313 -6.32377 0
M  V30 2923 H 278.391 2.20203 -4.13072 0
M  V30 2924 H 278.564 2.82304 -5.83274 0
M  V30 2925 N 271.97 1.30982 0.876444 0
M  V30 2926 C 273.386 1.09498 1.16113 0
M  V30 2927 C 273.586 -0.13875 2.01022 0
M  V30 2928 O 272.642 -0.829935 2.38471 0
M  V30 2929 C 273.955 2.36308 1.85954 0
M  V30 2930 C 275.503 2.41856 1.98683 0
M  V30 2931 C 275.978 3.6853 2.71937 0
M  V30 2932 N 277.469 3.69387 2.79477 0
M  V30 2933 C 278.204 4.64096 3.36753 0
M  V30 2934 N 277.7 5.69155 3.95012 0
M  V30 2935 N 279.493 4.51626 3.3465 0
M  V30 2936 H 271.644 2.10118 0.310494 0
M  V30 2937 H 273.907 0.926634 0.200131 0
M  V30 2938 H 273.613 3.26388 1.31011 0
M  V30 2939 H 273.487 2.4561 2.86278 0
M  V30 2940 H 275.874 1.52249 2.52793 0
M  V30 2941 H 275.955 2.36523 0.9742 0
M  V30 2942 H 275.599 4.58499 2.18496 0
M  V30 2943 H 275.529 3.71127 3.73593 0
M  V30 2944 H 278.02 2.93438 2.38123 0
M  V30 2945 H 278.333 6.3751 4.36808 0
M  V30 2946 H 276.678 5.72937 3.93406 0
M  V30 2947 H 279.869 3.68728 2.8837 0
M  V30 2948 H 280.042 5.25614 3.7899 0
M  V30 2949 N 273.449 -1.08991 1.13837 0
M  V30 2950 C 274.396 -2.15748 0.819835 0
M  V30 2951 C 275.366 -1.64636 -0.220026 0
M  V30 2952 O 276.551 -1.90582 -0.0912757 0
M  V30 2953 C 273.691 -3.4382 0.296913 0
M  V30 2954 C 272.804 -4.0881 1.39636 0
M  V30 2955 C 271.939 -5.24655 0.831314 0
M  V30 2956 C 270.978 -5.81575 1.90886 0
M  V30 2957 N 270.115 -6.88774 1.36142 0
M  V30 2958 H 274.955 -2.42338 1.73426 0
M  V30 2959 H 272.492 -1.18935 0.865613 0
M  V30 2960 H 274.45 -4.17193 -0.0244339 0
M  V30 2961 H 273.08 -3.17535 -0.580628 0
M  V30 2962 H 272.132 -3.33258 1.83422 0
M  V30 2963 H 273.444 -4.47141 2.21058 0
M  V30 2964 H 272.598 -6.04942 0.461515 0
M  V30 2965 H 271.337 -4.87698 -0.013932 0
M  V30 2966 H 270.342 -4.99946 2.28767 0
M  V30 2967 H 271.567 -6.20592 2.75758 0
M  V30 2968 H 269.513 -6.53788 0.538254 0
M  V30 2969 H 269.43 -7.25898 2.11208 0
M  V30 2970 H 270.698 -7.72806 1.01933 0
M  V30 2971 N 274.927 -0.932562 -1.27047 0
M  V30 2972 C 275.874 -0.434072 -2.26681 0
M  V30 2973 C 276.844 0.501639 -1.58344 0
M  V30 2974 O 278.029 0.419734 -1.86126 0
M  V30 2975 C 275.169 0.30261 -3.43771 0
M  V30 2976 C 274.282 -0.667774 -4.26808 0
M  V30 2977 C 273.417 0.0892393 -5.31125 0
M  V30 2978 C 272.456 -0.873532 -6.05835 0
M  V30 2979 N 271.593 -0.148832 -7.01942 0
M  V30 2980 H 276.433 -1.28868 -2.68695 0
M  V30 2981 H 273.97 -0.646713 -1.32121 0
M  V30 2982 H 275.928 0.746092 -4.10474 0
M  V30 2983 H 274.558 1.12142 -3.02695 0
M  V30 2984 H 273.61 -1.22978 -3.59973 0
M  V30 2985 H 274.922 -1.40337 -4.78651 0
M  V30 2986 H 274.076 0.592409 -6.03801 0
M  V30 2987 H 272.815 0.85777 -4.80097 0
M  V30 2988 H 271.82 -1.38791 -5.31994 0
M  V30 2989 H 273.045 -1.64193 -6.58952 0
M  V30 2990 H 270.991 0.601365 -6.53238 0
M  V30 2991 H 270.908 -0.82391 -7.51497 0
M  V30 2992 H 272.176 0.333527 -7.78786 0
M  V30 2993 N 276.405 1.4127 -0.698611 0
M  V30 2994 C 277.315 2.34573 -0.0357891 0
M  V30 2995 C 278.331 1.56393 0.762701 0
M  V30 2996 O 279.507 1.8886 0.699564 0
M  V30 2997 C 276.572 3.35159 0.887089 0
M  V30 2998 C 275.633 4.29225 0.0804634 0
M  V30 2999 C 274.866 5.25006 0.959387 0
M  V30 3000 O 275.089 5.26314 2.19886 0
M  V30 3001 O 274.023 6.00519 0.407439 0
M  V30 3002 H 277.849 2.92838 -0.804957 0
M  V30 3003 H 275.434 1.42175 -0.458966 0
M  V30 3004 H 277.316 3.9689 1.41621 0
M  V30 3005 H 275.991 2.79333 1.6357 0
M  V30 3006 H 274.898 3.70833 -0.493328 0
M  V30 3007 H 276.231 4.88157 -0.629547 0
M  V30 3008 N 277.883 0.443576 1.51229 0
M  V30 3009 C 278.815 -0.400608 2.25672 0
M  V30 3010 C 279.828 -0.980945 1.29928 0
M  V30 3011 O 281.017 -0.874024 1.55638 0
M  V30 3012 C 278.117 -1.57304 3.00181 0
M  V30 3013 C 277.29 -1.11046 4.23069 0
M  V30 3014 C 276.349 -2.15374 4.80105 0
M  V30 3015 O 275.375 -1.74554 5.41774 0
M  V30 3016 N 276.577 -3.47922 4.64683 0
M  V30 3017 H 279.342 0.23745 2.98758 0
M  V30 3018 H 276.903 0.272809 1.59585 0
M  V30 3019 H 278.895 -2.26733 3.35223 0
M  V30 3020 H 277.465 -2.11632 2.30066 0
M  V30 3021 H 276.685 -0.243019 3.9345 0
M  V30 3022 H 277.973 -0.778888 5.02803 0
M  V30 3023 H 277.371 -3.83815 4.15575 0
M  V30 3024 H 275.928 -4.13228 5.0407 0
M  V30 3025 N 279.361 -1.56624 0.175154 0
M  V30 3026 C 280.308 -2.18149 -0.753634 0
M  V30 3027 C 281.278 -1.12265 -1.22417 0
M  V30 3028 O 282.463 -1.40432 -1.29165 0
M  V30 3029 C 279.603 -2.82933 -1.97592 0
M  V30 3030 C 278.716 -4.03289 -1.5486 0
M  V30 3031 C 277.851 -4.55988 -2.72485 0
M  V30 3032 C 276.89 -5.68746 -2.26262 0
M  V30 3033 N 276.027 -6.15938 -3.36994 0
M  V30 3034 H 280.867 -2.9717 -0.222195 0
M  V30 3035 H 278.404 -1.46774 -0.0979422 0
M  V30 3036 H 280.362 -3.18653 -2.69288 0
M  V30 3037 H 278.992 -2.06509 -2.481 0
M  V30 3038 H 278.044 -3.73364 -0.728246 0
M  V30 3039 H 279.356 -4.849 -1.16933 0
M  V30 3040 H 278.51 -4.9391 -3.52332 0
M  V30 3041 H 277.249 -3.73443 -3.13674 0
M  V30 3042 H 276.254 -5.30372 -1.44863 0
M  V30 3043 H 277.479 -6.53095 -1.86127 0
M  V30 3044 H 275.425 -5.36321 -3.77751 0
M  V30 3045 H 275.342 -6.92548 -3.03172 0
M  V30 3046 H 276.61 -6.58511 -4.17114 0
M  V30 3047 N 280.839 0.0985539 -1.57292 0
M  V30 3048 C 281.769 1.12064 -2.04851 0
M  V30 3049 C 282.75 1.41981 -0.936767 0
M  V30 3050 O 283.935 1.52071 -1.20781 0
M  V30 3051 C 281.065 2.44144 -2.47004 0
M  V30 3052 C 280.019 2.28643 -3.6181 0
M  V30 3053 C 279.345 3.65869 -3.89929 0
M  V30 3054 C 280.645 1.72986 -4.92822 0
M  V30 3055 H 282.339 0.724979 -2.9049 0
M  V30 3056 H 279.885 0.34729 -1.39749 0
M  V30 3057 H 281.838 3.15914 -2.78884 0
M  V30 3058 H 280.562 2.85639 -1.5836 0
M  V30 3059 H 279.221 1.59318 -3.30172 0
M  V30 3060 H 278.869 4.04885 -2.98458 0
M  V30 3061 H 278.569 3.56344 -4.67218 0
M  V30 3062 H 280.093 4.39112 -4.2428 0
M  V30 3063 H 281.507 2.34593 -5.23105 0
M  V30 3064 H 279.904 1.74229 -5.74251 0
M  V30 3065 H 280.974 0.689007 -4.7998 0
M  V30 3066 N 282.317 1.53212 0.369288 0
M  V30 3067 C 283.542 1.73423 1.1375 0
M  V30 3068 C 283.967 0.460404 1.82378 0
M  V30 3069 O 283.325 -0.585298 1.71592 0
M  V30 3070 C 283.373 2.89769 2.1463 0
M  V30 3071 O 282.477 2.58119 3.21634 0
M  V30 3072 H 281.818 0.576061 0.330227 0
M  V30 3073 H 284.348 2.00083 0.427547 0
M  V30 3074 H 284.358 3.15829 2.58294 0
M  V30 3075 H 283.033 3.8217 1.64071 0
M  V30 3076 H 281.61 2.42864 2.82969 0
M  V30 3077 N 283.795 -0.628877 1.44509 0
M  V30 3078 C 285.023 -1.41554 1.50897 0
M  V30 3079 C 285.438 -1.8832 0.134564 0
M  V30 3080 O 284.795 -1.60969 -0.859965 0
M  V30 3081 C 284.846 -2.63435 2.47556 0
M  V30 3082 O 284.567 -2.18619 3.79654 0
M  V30 3083 C 286.068 -3.56537 2.63431 0
M  V30 3084 H 283.288 -0.434044 0.511709 0
M  V30 3085 H 285.832 -0.768895 1.89495 0
M  V30 3086 H 283.987 -3.24187 2.12089 0
M  V30 3087 H 284.401 -2.97652 4.31861 0
M  V30 3088 H 285.875 -4.38657 3.35088 0
M  V30 3089 H 286.352 -4.05493 1.68738 0
M  V30 3090 H 286.958 -3.01653 2.9981 0
M  V30 3091 N 285.273 -1.31445 -0.869486 0
M  V30 3092 C 286.55 -1.11795 -1.60503 0
M  V30 3093 C 286.93 0.327168 -2.08549 0
M  V30 3094 O 286.278 1.32135 -1.8642 0
M  V30 3095 C 286.488 -2.13258 -2.76265 0
M  V30 3096 C 287.836 -2.45805 -3.46215 0
M  V30 3097 O 288.86 -2.11688 -2.86473 0
M  V30 3098 O 287.719 -3.04228 -4.5399 0
M  V30 3099 H 284.813 -0.430421 -0.706163 0
M  V30 3100 H 287.359 -1.42925 -0.914907 0
M  V30 3101 H 286.131 -3.10461 -2.3818 0
M  V30 3102 H 285.754 -1.83035 -3.52964 0
M  V30 3103 N 286.751 1.08385 -1.14413 0
M  V30 3104 C 288.028 1.77429 -0.823297 0
M  V30 3105 C 288.408 1.9974 0.683163 0
M  V30 3106 O 287.756 1.60739 1.62405 0
M  V30 3107 C 287.966 3.09004 -1.62227 0
M  V30 3108 C 289.314 3.83532 -1.82177 0
M  V30 3109 O 290.338 3.18786 -1.58915 0
M  V30 3110 O 289.197 4.99792 -2.21067 0
M  V30 3111 H 286.291 0.769999 -0.301712 0
M  V30 3112 H 288.837 1.14846 -1.24934 0
M  V30 3113 H 287.609 2.88316 -2.64555 0
M  V30 3114 H 287.232 3.79316 -1.19187 0
M  V30 3115 N 288.23 0.939286 1.26551 0
M  V30 3116 C 289.16 0.465044 2.28822 0
M  V30 3117 C 290.141 -0.480692 1.63167 0
M  V30 3118 O 291.326 -0.382955 1.90387 0
M  V30 3119 C 288.456 -0.27234 3.46231 0
M  V30 3120 C 287.41 0.58666 4.2396 0
M  V30 3121 C 286.736 -0.280573 5.33963 0
M  V30 3122 C 288.036 1.85704 4.88171 0
M  V30 3123 H 289.73 1.31979 2.68741 0
M  V30 3124 H 287.276 0.636061 1.29191 0
M  V30 3125 H 289.229 -0.615133 4.16886 0
M  V30 3126 H 287.953 -1.16121 3.0526 0
M  V30 3127 H 286.612 0.91232 3.55067 0
M  V30 3128 H 286.26 -1.16874 4.89234 0
M  V30 3129 H 285.96 0.29076 5.8688 0
M  V30 3130 H 287.484 -0.618678 6.07458 0
M  V30 3131 H 288.898 1.58161 5.51052 0
M  V30 3132 H 287.295 2.37279 5.51197 0
M  V30 3133 H 288.365 2.56957 4.11219 0
M  V30 3134 N 289.708 -1.40897 0.706093 0
M  V30 3135 C 290.655 -2.30751 0.0474474 0
M  V30 3136 C 291.625 -1.47678 -0.76029 0
M  V30 3137 O 292.81 -1.76441 -0.726177 0
M  V30 3138 C 289.95 -3.33815 -0.875309 0
M  V30 3139 C 289.063 -4.31961 -0.0580623 0
M  V30 3140 C 288.198 -5.22093 -0.979425 0
M  V30 3141 C 287.237 -6.11902 -0.155706 0
M  V30 3142 N 286.374 -6.94482 -1.03144 0
M  V30 3143 H 291.214 -2.86513 0.819413 0
M  V30 3144 H 288.751 -1.41102 0.415783 0
M  V30 3145 H 290.709 -3.92129 -1.42446 0
M  V30 3146 H 289.339 -2.79579 -1.61356 0
M  V30 3147 H 288.391 -3.75507 0.608147 0
M  V30 3148 H 289.703 -4.95415 0.580082 0
M  V30 3149 H 288.857 -5.85292 -1.59744 0
M  V30 3150 H 287.596 -4.5889 -1.65141 0
M  V30 3151 H 286.601 -5.47742 0.475309 0
M  V30 3152 H 287.826 -6.77162 0.512635 0
M  V30 3153 H 285.772 -6.33877 -1.68924 0
M  V30 3154 H 285.689 -7.54665 -0.449108 0
M  V30 3155 H 286.957 -7.6214 -1.63593 0
M  V30 3156 N 291.186 -0.45159 -1.50991 0
M  V30 3157 C 292.414 0.108334 -2.06616 0
M  V30 3158 C 292.829 1.35224 -1.31757 0
M  V30 3159 O 292.186 1.78475 -0.381174 0
M  V30 3160 C 292.237 0.41619 -3.59096 0
M  V30 3161 O 291.958 -0.778361 -4.3113 0
M  V30 3162 C 293.459 1.02523 -4.31282 0
M  V30 3163 H 290.679 0.00159995 -0.670998 0
M  V30 3164 H 293.223 -0.634771 -1.94399 0
M  V30 3165 H 291.378 1.10921 -3.71181 0
M  V30 3166 H 291.792 -0.511181 -5.22003 0
M  V30 3167 H 293.266 1.19053 -5.39009 0
M  V30 3168 H 293.743 2.01013 -3.905 0
M  V30 3169 H 294.349 0.371173 -4.23677 0
M  V30 3170 N 292.664 1.56529 -0.183458 0
M  V30 3171 C 293.574 2.22144 0.754272 0
M  V30 3172 C 294.59 1.21684 1.24374 0
M  V30 3173 O 295.766 1.54385 1.29333 0
M  V30 3174 C 292.831 2.85884 1.96141 0
M  V30 3175 C 291.892 4.01579 1.51765 0
M  V30 3176 C 291.125 4.6227 2.66725 0
M  V30 3177 O 291.348 4.21865 3.83909 0
M  V30 3178 O 290.282 5.51936 2.40104 0
M  V30 3179 H 294.108 3.02861 0.225527 0
M  V30 3180 H 291.693 1.49331 0.0453032 0
M  V30 3181 H 293.575 3.26253 2.66715 0
M  V30 3182 H 292.25 2.08154 2.47899 0
M  V30 3183 H 291.157 3.65856 0.781049 0
M  V30 3184 H 292.49 4.80938 1.04686 0
M  V30 3185 N 294.142 -0.090211 1.57342 0
M  V30 3186 C 295.052 -1.12735 2.05738 0
M  V30 3187 C 296.068 -1.43557 0.983231 0
M  V30 3188 O 297.244 -1.54101 1.29672 0
M  V30 3189 C 294.309 -2.42659 2.47624 0
M  V30 3190 C 293.37 -2.18975 3.69254 0
M  V30 3191 C 292.603 -3.42704 4.09133 0
M  V30 3192 O 292.826 -4.51127 3.49057 0
M  V30 3193 O 291.76 -3.32003 5.02053 0
M  V30 3194 H 295.586 -0.746279 2.94388 0
M  V30 3195 H 293.171 -0.303064 1.46294 0
M  V30 3196 H 295.053 -3.19155 2.7517 0
M  V30 3197 H 293.728 -2.80182 1.62109 0
M  V30 3198 H 292.635 -1.40244 3.46818 0
M  V30 3199 H 293.968 -1.86342 4.55563 0
M  V30 3200 N 295.62 -1.53406 -0.361157 0
M  V30 3201 C 296.53 -1.83122 -1.4664 0
M  V30 3202 C 297.546 -0.719943 -1.58407 0
M  V30 3203 O 298.722 -1.01046 -1.74218 0
M  V30 3204 C 295.787 -2.01891 -2.81853 0
M  V30 3205 C 294.848 -3.25784 -2.79577 0
M  V30 3206 C 294.081 -3.43648 -4.0834 0
M  V30 3207 O 294.304 -2.65714 -5.0473 0
M  V30 3208 O 293.238 -4.37018 -4.13883 0
M  V30 3209 H 297.064 -2.7703 -1.24451 0
M  V30 3210 H 294.649 -1.38841 -0.551678 0
M  V30 3211 H 296.531 -2.15782 -3.61962 0
M  V30 3212 H 295.206 -1.11173 -3.0401 0
M  V30 3213 H 294.113 -3.17312 -1.98151 0
M  V30 3214 H 295.446 -4.16439 -2.62373 0
M  V30 3215 N 297.098 0.621204 -1.44841 0
M  V30 3216 C 298.346 1.37783 -1.47852 0
M  V30 3217 C 298.667 1.94653 -0.116224 0
M  V30 3218 O 297.937 1.76367 0.852737 0
M  V30 3219 H 296.517 0.511453 -0.544449 0
M  V30 3220 H 299.179 0.730446 -1.80694 0
M  V30 3221 H 298.275 2.20414 -2.20961 0
M  V30 3222 N 298.576 1.31904 0.862503 0
M  V30 3223 C 299.523 1.20182 1.9704 0
M  V30 3224 C 300.493 0.0858247 1.65878 0
M  V30 3225 O 301.678 0.26 1.8902 0
M  V30 3226 C 298.818 0.922797 3.32533 0
M  V30 3227 C 297.931 2.12284 3.76244 0
M  V30 3228 C 297.066 1.77996 5.00491 0
M  V30 3229 C 296.105 2.94366 5.36671 0
M  V30 3230 N 295.242 2.60223 6.52095 0
M  V30 3231 H 300.082 2.14951 2.06398 0
M  V30 3232 H 297.619 1.06917 1.01031 0
M  V30 3233 H 299.577 0.741548 4.10557 0
M  V30 3234 H 298.207 0.0119227 3.22798 0
M  V30 3235 H 297.259 2.41461 2.9394 0
M  V30 3236 H 298.571 2.99357 3.98982 0
M  V30 3237 H 297.725 1.56377 5.862 0
M  V30 3238 H 296.464 0.881252 4.79672 0
M  V30 3239 H 295.469 3.16625 4.49476 0
M  V30 3240 H 296.694 3.84957 5.59451 0
M  V30 3241 H 294.64 1.72884 6.32809 0
M  V30 3242 H 294.557 3.40827 6.74814 0
M  V30 3243 H 295.825 2.42016 7.40978 0
M  V30 3244 N 300.054 -1.07777 1.14986 0
M  V30 3245 C 301.282 -1.84018 0.945773 0
M  V30 3246 C 301.697 -1.81897 -0.505863 0
M  V30 3247 O 301.054 -1.22726 -1.35072 0
M  V30 3248 C 301.105 -3.31287 1.44677 0
M  V30 3249 O 300.826 -3.33449 2.84154 0
M  V30 3250 C 302.327 -4.24311 1.28355 0
M  V30 3251 H 299.547 -0.580716 0.336169 0
M  V30 3252 H 302.091 -1.36077 1.52654 0
M  V30 3253 H 300.246 -3.76594 0.908625 0
M  V30 3254 H 300.66 -4.25427 3.06777 0
M  V30 3255 H 302.134 -5.2573 1.68261 0
M  V30 3256 H 302.611 -4.38612 0.227184 0
M  V30 3257 H 303.217 -3.84836 1.81056 0
M  V30 3258 N 301.532 -0.945985 -1.26051 0
M  V30 3259 C 302.809 -0.513816 -1.88731 0
M  V30 3260 C 303.189 1.00872 -1.8544 0
M  V30 3261 O 302.537 1.8708 -1.312 0
M  V30 3262 C 302.747 -1.08062 -3.31849 0
M  V30 3263 C 304.095 -1.1522 -4.08668 0
M  V30 3264 O 305.119 -1.03155 -3.40936 0
M  V30 3265 O 303.978 -1.34044 -5.29806 0
M  V30 3266 H 301.072 -0.168193 -0.809716 0
M  V30 3267 H 303.618 -1.03886 -1.34186 0
M  V30 3268 H 302.39 -2.1241 -3.2863 0
M  V30 3269 H 302.013 -0.538307 -3.93939 0
M  V30 3270 N 303.011 1.40521 -0.713556 0
M  V30 3271 C 304.259 2.00527 -0.251692 0
M  V30 3272 C 304.58 1.56857 1.15848 0
M  V30 3273 O 303.85 0.807127 1.785 0
M  V30 3274 H 302.43 0.741551 -0.0900646 0
M  V30 3275 H 305.092 1.71887 -0.918733 0
M  V30 3276 H 304.188 3.10813 -0.283192 0
M  V30 3277 N 304.489 0.459591 1.5075 0
M  V30 3278 C 305.399 -0.34613 2.32033 0
M  V30 3279 C 306.415 -1.00686 1.41909 0
M  V30 3280 O 307.591 -0.997361 1.7497 0
M  V30 3281 C 304.656 -1.42029 3.16273 0
M  V30 3282 C 303.717 -0.777362 4.22203 0
M  V30 3283 C 302.95 -1.80034 5.02418 0
M  V30 3284 O 303.173 -3.02544 4.83553 0
M  V30 3285 O 302.107 -1.37853 5.85901 0
M  V30 3286 H 305.933 0.318054 3.0203 0
M  V30 3287 H 303.518 0.221663 1.47746 0
M  V30 3288 H 305.4 -2.04275 3.68578 0
M  V30 3289 H 304.075 -2.06815 2.49016 0
M  V30 3290 H 302.982 -0.116256 3.73919 0
M  V30 3291 H 304.315 -0.172634 4.91897 0
M  V30 3292 N 305.967 -1.56429 0.191757 0
M  V30 3293 C 307.215 -1.97095 -0.447006 0
M  V30 3294 C 307.536 -1.07967 -1.62383 0
M  V30 3295 O 306.806 -0.150248 -1.95323 0
M  V30 3296 H 305.386 -0.727832 -0.168135 0
M  V30 3297 H 308.048 -1.92911 0.27771 0
M  V30 3298 H 307.144 -3.01848 -0.793371 0
M  V30 3299 N 307.445 0.0818655 -1.57387 0
M  V30 3300 C 308.393 1.11712 -2.04018 0
M  V30 3301 C 309.387 1.40683 -0.94364 0
M  V30 3302 O 310.593 1.40209 -1.12878 0
M  V30 3303 H 306.968 0.377542 -0.650358 0
M  V30 3304 H 308.939 0.697614 -2.90131 0
M  V30 3305 C 307.688 2.42537 -2.49141 0
M  V30 3306 H 307.011 2.21092 -3.33104 0
M  V30 3307 H 308.451 3.13446 -2.85531 0
M  V30 3308 C 306.91 3.0778 -1.37014 0
M  V30 3309 O 307.44 3.95436 -0.706621 0
M  V30 3310 N 305.646 2.68242 -1.11779 0
M  V30 3311 H 305.193 1.97052 -1.65917 0
M  V30 3312 H 305.151 3.1222 -0.369594 0
M  V30 3313 N 308.923 1.53595 0.353017 0
M  V30 3314 C 310.334 1.61937 0.929153 0
M  V30 3315 C 310.685 0.494686 1.89861 0
M  V30 3316 O 309.81 -0.377017 2.1309 0
M  V30 3317 C 310.405 2.93526 1.69199 0
M  V30 3318 C 308.964 3.04161 2.21727 0
M  V30 3319 C 308.111 2.57322 1.03348 0
M  V30 3320 H 311.062 1.58155 0.131431 0
M  V30 3321 H 311.083 2.82034 2.55416 0
M  V30 3322 H 310.595 3.75362 0.986144 0
M  V30 3323 H 308.696 2.26938 2.95516 0
M  V30 3324 H 308.809 4.09465 2.48748 0
M  V30 3325 H 307.173 2.12499 1.40414 0
M  V30 3326 H 307.956 3.41588 0.342428 0
M  V30 3327 N 310.401 -0.613514 1.45168 0
M  V30 3328 C 311.678 -1.37263 1.39349 0
M  V30 3329 C 312.058 -2.11012 0.0610848 0
M  V30 3330 O 311.406 -2.07502 -0.956825 0
M  V30 3331 C 311.616 -2.3244 2.60332 0
M  V30 3332 C 312.964 -2.9523 3.05163 0
M  V30 3333 O 313.988 -2.42762 2.60663 0
M  V30 3334 O 312.847 -3.90454 3.82372 0
M  V30 3335 H 309.941 -0.615188 0.552696 0
M  V30 3336 H 312.487 -0.637097 1.57287 0
M  V30 3337 H 311.259 -1.77164 3.48896 0
M  V30 3338 H 310.882 -3.13383 2.44698 0
M  V30 3339 N 311.879 -1.3236 -0.855495 0
M  V30 3340 C 313.156 -1.13491 -1.59309 0
M  V30 3341 C 313.536 0.30503 -2.08885 0
M  V30 3342 O 312.884 1.30151 -1.87811 0
M  V30 3343 C 313.094 -2.16176 -2.73987 0
M  V30 3344 C 314.442 -2.49463 -3.43589 0
M  V30 3345 O 315.466 -2.14715 -2.84211 0
M  V30 3346 O 314.325 -3.09027 -4.50738 0
M  V30 3347 H 311.419 -0.437887 -0.701559 0
M  V30 3348 H 313.965 -1.43887 -0.899696 0
M  V30 3349 H 312.737 -3.1297 -2.34873 0
M  V30 3350 H 312.36 -1.86769 -3.51003 0
M  V30 3351 N 313.357 1.07166 -1.15556 0
M  V30 3352 C 314.605 1.79443 -0.929764 0
M  V30 3353 C 314.926 1.87246 0.544414 0
M  V30 3354 O 314.196 1.37473 1.39564 0
M  V30 3355 H 312.776 0.664625 -0.341003 0
M  V30 3356 H 315.438 1.29499 -1.45657 0
M  V30 3357 H 314.534 2.81832 -1.34079 0
M  V30 3358 N 314.835 0.952656 1.25548 0
M  V30 3359 C 315.798 0.475794 2.24207 0
M  V30 3360 C 316.798 -0.419428 1.55234 0
M  V30 3361 O 317.988 -0.216994 1.72843 0
M  V30 3362 C 315.12 -0.312814 3.39462 0
M  V30 3363 H 316.313 1.34779 2.67908 0
M  V30 3364 H 313.866 0.735739 1.37901 0
M  V30 3365 H 314.601 -1.20257 3.01179 0
M  V30 3366 H 314.386 0.329404 3.90714 0
M  V30 3367 H 315.876 -0.635986 4.12729 0
M  V30 3368 N 316.313 -1.40141 0.720998 0
M  V30 3369 C 317.26 -2.30688 0.071919 0
M  V30 3370 C 318.23 -1.48476 -0.744584 0
M  V30 3371 O 319.415 -1.77201 -0.707423 0
M  V30 3372 C 316.555 -3.34724 -0.839855 0
M  V30 3373 C 315.668 -4.31998 -0.0122438 0
M  V30 3374 C 314.803 -5.23102 -0.923995 0
M  V30 3375 C 313.842 -6.12033 -0.0907969 0
M  V30 3376 N 312.979 -6.95537 -0.957718 0
M  V30 3377 H 317.819 -2.85628 0.849755 0
M  V30 3378 H 315.356 -1.40653 0.430726 0
M  V30 3379 H 317.314 -3.93618 -1.38279 0
M  V30 3380 H 315.944 -2.81274 -1.58381 0
M  V30 3381 H 314.996 -3.74841 0.64794 0
M  V30 3382 H 316.308 -4.94772 0.632595 0
M  V30 3383 H 315.462 -5.86953 -1.53527 0
M  V30 3384 H 314.201 -4.60615 -1.60264 0
M  V30 3385 H 313.206 -5.47207 0.533377 0
M  V30 3386 H 314.431 -6.76581 0.584428 0
M  V30 3387 H 312.377 -6.35633 -1.62192 0
M  V30 3388 H 312.294 -7.55099 -0.36904 0
M  V30 3389 H 313.562 -7.63832 -1.555 0
M  V30 3390 O 317.83 -0.609464 -1.49559 0
M  V30 3391 H 318.521 -0.121877 -1.93316 0
M  V30 END ATOM
M  V30 BEGIN BOND
M  V30 END BOND
M  V30 END CTAB
M  END
$$$$
