drugbank_target|P07515 Phosphocarrier protein HPr (DB04522)
 OpenBabel12092120303D

  0  0  0     0  0            999 V3000
M  V30 BEGIN CTAB
M  V30 COUNTS 1312 1317 0 0 0
M  V30 BEGIN ATOM
M  V30 1 H -0.908 1.98254 -0.117106 0
M  V30 2 N 0 1.576 0 0
M  V30 3 C 0.933 2.03868 1.02534 0
M  V30 4 C 1.911 0.928543 1.3348 0
M  V30 5 O 3.095 1.19667 1.45644 0
M  V30 6 C 0.222 2.43627 2.35294 0
M  V30 7 C -0.732 3.65373 2.2001 0
M  V30 8 S 0.101 5.13292 1.52614 0
M  V30 9 C 1.257 5.56322 2.86805 0
M  V30 10 H 1.49 2.90518 0.631377 0
M  V30 11 H -0.977 1.52953 0.210867 0
M  V30 12 H 0.981 2.67203 3.11629 0
M  V30 13 H -0.358 1.57376 2.7183 0
M  V30 14 H -1.165 3.90944 3.18086 0
M  V30 15 H -1.563 3.418 1.51819 0
M  V30 16 H 0.729 5.58782 3.83104 0
M  V30 17 H 1.672 6.56266 2.65933 0
M  V30 18 H 2.08 4.83886 2.90714 0
M  V30 19 N 1.4781 -0.272755 1.55222 0
M  V30 20 C 2.3881 -1.35918 1.91216 0
M  V30 21 C 3.4041 -1.54026 0.809436 0
M  V30 22 O 4.5801 -1.68148 1.10852 0
M  V30 23 C 1.6451 -2.69834 2.17693 0
M  V30 24 C 0.7061 -2.6047 3.41253 0
M  V30 25 C -0.0609 -3.88 3.66458 0
M  V30 26 O 0.1621 -4.88693 2.94169 0
M  V30 27 O -0.9039 -3.88189 4.59992 0
M  V30 28 H 2.9221 -1.0839 2.83699 0
M  V30 29 H 0.5071 -0.471301 1.41771 0
M  V30 30 H 2.3891 -3.49017 2.36147 0
M  V30 31 H 1.0641 -2.97148 1.28392 0
M  V30 32 H -0.0289 -1.79663 3.28134 0
M  V30 33 H 1.3041 -2.38106 4.30774 0
M  V30 34 N 2.9562 -1.48159 -0.537278 0
M  V30 35 C 3.9032 -1.62138 -1.64256 0
M  V30 36 C 4.8732 -0.463668 -1.59497 0
M  V30 37 O 6.0582 -0.686241 -1.78032 0
M  V30 38 C 3.1982 -1.66028 -3.02537 0
M  V30 39 C 2.3112 -2.92855 -3.17585 0
M  V30 40 C 1.4462 -2.87952 -4.46382 0
M  V30 41 C 0.4852 -4.09516 -4.54932 0
M  V30 42 N -0.3778 -4.02733 -5.75109 0
M  V30 43 H 4.4622 -2.56529 -1.51647 0
M  V30 44 H 1.9992 -1.27224 -0.738414 0
M  V30 45 H 3.9572 -1.66265 -3.82638 0
M  V30 46 H 2.5872 -0.751331 -3.13934 0
M  V30 47 H 1.6392 -3.02395 -2.30784 0
M  V30 48 H 2.9512 -3.82822 -3.19764 0
M  V30 49 H 2.1052 -2.8655 -5.34765 0
M  V30 50 H 0.8442 -1.95702 -4.46712 0
M  V30 51 H -0.1508 -4.11201 -3.64957 0
M  V30 52 H 1.0742 -5.02917 -4.56346 0
M  V30 53 H -0.9798 -3.13299 -5.76351 0
M  V30 54 H -1.0628 -4.86397 -5.78752 0
M  V30 55 H 0.2052 -4.05379 -6.65799 0
M  V30 56 N 4.4343 0.785586 -1.36625 0
M  V30 57 C 5.3813 1.89838 -1.31264 0
M  V30 58 C 6.3513 1.65115 -0.180633 0
M  V30 59 O 7.5363 1.87222 -0.36777 0
M  V30 60 C 4.6763 3.26706 -1.11163 0
M  V30 61 C 3.7893 3.63476 -2.33472 0
M  V30 62 C 2.9243 4.89481 -2.06353 0
M  V30 63 C 1.9633 5.18941 -3.24602 0
M  V30 64 N 1.1003 6.36131 -2.97123 0
M  V30 65 H 5.9403 1.93756 -2.26413 0
M  V30 66 H 3.4773 0.947454 -1.12524 0
M  V30 67 H 5.4353 4.05639 -0.975337 0
M  V30 68 H 4.0653 3.222 -0.196674 0
M  V30 69 H 3.1173 2.79636 -2.57891 0
M  V30 70 H 4.4293 3.81193 -3.21704 0
M  V30 71 H 3.5833 5.76288 -1.89675 0
M  V30 72 H 2.3223 4.73841 -1.15437 0
M  V30 73 H 1.3273 4.30615 -3.41834 0
M  V30 74 H 2.5523 5.36498 -4.16349 0
M  V30 75 H 0.4983 6.21875 -2.08823 0
M  V30 76 H 0.4153 6.54198 -3.78894 0
M  V30 77 H 1.6833 7.2591 -2.84033 0
M  V30 78 N 5.9124 1.20967 1.01018 0
M  V30 79 C 6.8224 0.980157 2.13143 0
M  V30 80 C 7.8384 -0.0660665 1.73875 0
M  V30 81 O 9.0144 0.122821 2.01025 0
M  V30 82 C 6.0794 0.54216 3.42435 0
M  V30 83 C 5.1404 1.65999 3.95908 0
M  V30 84 C 4.3734 1.2428 5.19028 0
M  V30 85 O 4.5964 0.114196 5.70286 0
M  V30 86 O 3.5304 2.05271 5.65816 0
M  V30 87 H 7.3564 1.91913 2.35379 0
M  V30 88 H 4.9414 0.994099 1.11526 0
M  V30 89 H 6.8234 0.30744 4.20277 0
M  V30 90 H 5.4984 -0.36815 3.216 0
M  V30 91 H 4.4054 1.94906 3.19316 0
M  V30 92 H 5.7384 2.54753 4.21143 0
M  V30 93 N 7.3905 -1.2043 1.01659 0
M  V30 94 C 8.6375 -1.89797 0.705917 0
M  V30 95 C 8.9655 -1.78848 -0.764439 0
M  V30 96 O 8.2205 -1.16694 -1.57102 0
M  V30 97 C 8.5195 -3.40464 1.08714 0
M  V30 98 C 8.1855 -3.71614 2.5537 0
M  V30 99 C 6.8475 -3.79826 2.95441 0
M  V30 100 C 9.1995 -3.85915 3.50313 0
M  V30 101 C 6.5275 -3.99797 4.29394 0
M  V30 102 C 8.8795 -4.07396 4.83954 0
M  V30 103 C 7.5435 -4.13837 5.23732 0
M  V30 104 H 6.8135 -0.694518 0.258313 0
M  V30 105 H 9.4605 -1.42691 1.27717 0
M  V30 106 H 7.7655 -3.89385 0.434309 0
M  V30 107 H 9.4625 -3.92433 0.824461 0
M  V30 108 H 6.0525 -3.65822 2.23321 0
M  V30 109 H 10.2365 -3.78926 3.20513 0
M  V30 110 H 5.4925 -4.03018 4.59768 0
M  V30 111 H 9.6665 -4.17404 5.57447 0
M  V30 112 H 7.2935 -4.29064 6.27541 0
M  V30 113 N 8.8686 -0.792821 -1.36206 0
M  V30 114 C 9.8186 -0.166598 -2.27391 0
M  V30 115 C 10.8026 0.651479 -1.47121 0
M  V30 116 O 11.9946 0.510994 -1.69463 0
M  V30 117 C 9.1236 0.695033 -3.36191 0
M  V30 118 C 8.2096 -0.132019 -4.23894 0
M  V30 119 N 8.6006 -1.18822 -4.91645 0
M  V30 120 C 6.8986 0.0885952 -4.45912 0
M  V30 121 C 7.5996 -1.69198 -5.56549 0
M  V30 122 N 6.5756 -1.00065 -5.34311 0
M  V30 123 H 10.3776 -0.974947 -2.77258 0
M  V30 124 H 7.8916 -0.632616 -1.49572 0
M  V30 125 H 9.8886 1.1596 -4.00448 0
M  V30 126 H 8.5486 1.50189 -2.87877 0
M  V30 127 H 9.5596 -1.57069 -4.93507 0
M  V30 128 H 6.2366 0.865688 -4.08426 0
M  V30 129 H 7.6266 -2.57395 -6.20643 0
M  V30 130 N 10.3467 1.47872 -0.545128 0
M  V30 131 C 11.5957 2.01695 -0.0145033 0
M  V30 132 C 11.9087 1.42609 1.33873 0
M  V30 133 O 13.1147 1.88021 1.95858 0
M  V30 134 C 11.5707 3.59892 0.0245068 0
M  V30 135 C 11.1787 4.27966 -1.32475 0
M  V30 136 C 12.9227 4.21507 0.50316 0
M  V30 137 C 10.8297 5.78136 -1.2455 0
M  V30 138 H 9.7597 0.753998 -0.00165172 0
M  V30 139 H 12.4107 1.69985 -0.691175 0
M  V30 140 H 10.7927 3.88509 0.766575 0
M  V30 141 H 11.9667 4.11003 -2.08357 0
M  V30 142 H 10.2817 3.78286 -1.74036 0
M  V30 143 H 12.8787 5.31538 0.580656 0
M  V30 144 H 13.2217 3.87855 1.51243 0
M  V30 145 H 13.7547 3.97376 -0.183681 0
M  V30 146 H 10.4937 6.16388 -2.23039 0
M  V30 147 H 10.0137 5.97469 -0.528282 0
M  V30 148 H 11.6927 6.40099 -0.942488 0
M  V30 149 N 11.8248 0.280983 1.55075 0
M  V30 150 C 13.0708 -0.33461 2.00021 0
M  V30 151 C 13.4038 -1.55063 1.16915 0
M  V30 152 O 12.6788 -1.93006 0.240646 0
M  V30 153 C 12.9618 -0.711007 3.53011 0
M  V30 154 C 12.8148 0.512766 4.46868 0
M  V30 155 C 14.1338 -1.54522 4.12081 0
M  V30 156 H 11.2528 -0.120147 0.727141 0
M  V30 157 H 13.8948 0.389097 1.85973 0
M  V30 158 H 12.0448 -1.32761 3.65112 0
M  V30 159 H 13.7168 1.15131 4.46702 0
M  V30 160 H 11.9598 1.14975 4.18286 0
M  V30 161 H 12.6308 0.205556 5.51617 0
M  V30 162 H 15.1068 -1.02442 4.03293 0
M  V30 163 H 13.9828 -1.77739 5.19327 0
M  V30 164 H 14.2438 -2.52813 3.62682 0
M  V30 165 N 13.3029 -1.57598 0.00835791 0
M  V30 166 C 14.2659 -2.07884 -0.965242 0
M  V30 167 C 15.2659 -0.989825 -1.26725 0
M  V30 168 O 16.4559 -1.25218 -1.21104 0
M  V30 169 C 13.5879 -2.52731 -2.28779 0
M  V30 170 H 14.7809 -2.95178 -0.530112 0
M  V30 171 H 12.3339 -1.54458 -0.239283 0
M  V30 172 H 13.0689 -1.68705 -2.76964 0
M  V30 173 H 12.8539 -3.32272 -2.08177 0
M  V30 174 H 14.3439 -2.91933 -2.98605 0
M  V30 175 N 14.781 0.264519 -1.55364 0
M  V30 176 C 15.691 1.34902 -1.91934 0
M  V30 177 C 16.707 1.53595 -0.817593 0
M  V30 178 O 17.883 1.67558 -1.11742 0
M  V30 179 C 14.948 2.68676 -2.19121 0
M  V30 180 C 14.009 2.58657 -3.4263 0
M  V30 181 C 13.242 3.86051 -3.68511 0
M  V30 182 O 13.465 4.87126 -2.96757 0
M  V30 183 O 12.399 3.85744 -4.62045 0
M  V30 184 H 16.225 1.06883 -2.8427 0
M  V30 185 H 13.81 0.463775 -1.42019 0
M  V30 186 H 15.692 3.47759 -2.37995 0
M  V30 187 H 14.367 2.96463 -1.29966 0
M  V30 188 H 13.274 1.7792 -3.29082 0
M  V30 189 H 14.607 2.35818 -4.32031 0
M  V30 190 N 16.2591 1.48442 0.529413 0
M  V30 191 C 17.4871 1.60151 1.30994 0
M  V30 192 C 17.9021 0.261985 1.86973 0
M  V30 193 O 17.2591 -0.748805 1.66431 0
M  V30 194 C 17.3101 2.64854 2.46038 0
M  V30 195 O 17.0311 3.93608 1.92365 0
M  V30 196 C 18.5321 2.87007 3.37849 0
M  V30 197 H 15.7521 0.539971 0.398338 0
M  V30 198 H 18.2961 1.94273 0.638597 0
M  V30 199 H 16.4511 2.33589 3.09055 0
M  V30 200 H 16.8651 4.51055 2.67675 0
M  V30 201 H 18.3391 3.64068 4.14919 0
M  V30 202 H 18.8161 1.95852 3.93114 0
M  V30 203 H 19.4221 3.19579 2.80623 0
M  V30 204 N 17.7372 -0.778329 1.37039 0
M  V30 205 C 18.9852 -1.53361 1.31623 0
M  V30 206 C 19.3062 -1.94739 -0.100831 0
M  V30 207 O 18.5762 -1.65797 -1.04347 0
M  V30 208 H 17.1562 -0.568794 0.484234 0
M  V30 209 H 19.8182 -0.926742 1.71457 0
M  V30 210 H 18.9142 -2.43606 1.95096 0
M  V30 211 N 19.2153 -1.21501 -1.00376 0
M  V30 212 C 20.4643 -1.02718 -1.73586 0
M  V30 213 C 20.7773 0.439589 -1.90596 0
M  V30 214 O 21.9833 0.746848 -2.61026 0
M  V30 215 C 20.4393 -1.78929 -3.1227 0
M  V30 216 C 20.0473 -3.29783 -3.03228 0
M  V30 217 C 21.7913 -1.68557 -3.89601 0
M  V30 218 C 19.6983 -3.98479 -4.36999 0
M  V30 219 H 18.6283 -0.380733 -0.650814 0
M  V30 220 H 21.2793 -1.45248 -1.1214 0
M  V30 221 H 19.6613 -1.29192 -3.74333 0
M  V30 222 H 20.8353 -3.86832 -2.50395 0
M  V30 223 H 19.1503 -3.40711 -2.39385 0
M  V30 224 H 21.7473 -2.17211 -4.88593 0
M  V30 225 H 22.0903 -0.644021 -4.11288 0
M  V30 226 H 22.6233 -2.15778 -3.34193 0
M  V30 227 H 19.3623 -5.02841 -4.20513 0
M  V30 228 H 18.8823 -3.46219 -4.89788 0
M  V30 229 H 20.5613 -4.03462 -5.05794 0
M  V30 230 N 20.6934 1.19889 -1.02296 0
M  V30 231 C 21.6434 2.20777 -0.56934 0
M  V30 232 C 22.6274 1.56379 0.378741 0
M  V30 233 O 23.8194 1.75859 0.200673 0
M  V30 234 C 20.9484 3.43196 0.0845077 0
M  V30 235 C 20.0344 4.14749 -0.88566 0
M  V30 236 N 20.4254 4.62584 -2.04573 0
M  V30 237 C 18.7234 4.40347 -0.707835 0
M  V30 238 C 19.4244 5.17466 -2.65714 0
M  V30 239 N 18.4004 5.0791 -1.93723 0
M  V30 240 H 22.2024 2.55434 -1.45365 0
M  V30 241 H 19.7164 1.35897 -0.88915 0
M  V30 242 H 21.7134 4.14707 0.427067 0
M  V30 243 H 20.3734 3.10042 0.964574 0
M  V30 244 H 21.3844 4.57597 -2.4254 0
M  V30 245 H 18.0614 4.17317 0.12364 0
M  V30 246 H 19.4514 5.64808 -3.63925 0
M  V30 247 N 22.1715 0.800033 1.35784 0
M  V30 248 C 23.1345 0.211565 2.28221 0
M  V30 249 C 24.1345 -0.59728 1.49296 0
M  V30 250 O 25.3245 -0.416721 1.69142 0
M  V30 251 C 22.4565 -0.705846 3.33513 0
M  V30 252 H 23.6495 1.02677 2.81776 0
M  V30 253 H 21.2025 0.570211 1.45528 0
M  V30 254 H 21.9375 -1.54498 2.85133 0
M  V30 255 H 21.7225 -0.127655 3.91892 0
M  V30 256 H 23.2125 -1.11211 4.02519 0
M  V30 257 N 23.6496 -1.47581 0.552962 0
M  V30 258 C 25.0656 -1.5818 0.212424 0
M  V30 259 C 25.2656 -1.55213 -1.28496 0
M  V30 260 O 24.3216 -1.45329 -2.06484 0
M  V30 261 C 25.6346 -2.88865 0.835318 0
M  V30 262 C 27.1826 -3.0244 0.806156 0
M  V30 263 C 27.6576 -4.35819 1.40804 0
M  V30 264 N 29.1486 -4.42444 1.37103 0
M  V30 265 C 29.8836 -5.44202 1.80641 0
M  V30 266 N 29.3796 -6.52795 2.32015 0
M  V30 267 N 31.1726 -5.35222 1.71738 0
M  V30 268 H 23.3236 -1.47753 1.52587 0
M  V30 269 H 25.5866 -0.702941 0.636064 0
M  V30 270 H 25.2926 -2.9676 1.88749 0
M  V30 271 H 25.1666 -3.7579 0.325848 0
M  V30 272 H 27.5536 -2.94144 -0.237317 0
M  V30 273 H 27.6346 -2.17068 1.35334 0
M  V30 274 H 27.2786 -4.44871 2.45056 0
M  V30 275 H 27.2086 -5.19916 0.836338 0
M  V30 276 H 29.6996 -3.6456 0.995202 0
M  V30 277 H 30.0126 -7.26609 2.63171 0
M  V30 278 H 28.3576 -6.53696 2.36023 0
M  V30 279 H 31.5486 -4.49284 1.31382 0
M  V30 280 H 31.7216 -6.14389 2.05987 0
M  V30 281 N 25.1277 -0.289203 -1.54924 0
M  V30 282 C 26.5387 0.205791 -1.85562 0
M  V30 283 C 26.8897 1.54351 -1.2112 0
M  V30 284 O 26.0147 2.10435 -0.504601 0
M  V30 285 C 26.6097 0.380177 -3.3666 0
M  V30 286 C 25.1687 0.819395 -3.67373 0
M  V30 287 C 24.3157 -0.079159 -2.77187 0
M  V30 288 H 27.2667 -0.510577 -1.50262 0
M  V30 289 H 27.2877 1.21659 -3.60526 0
M  V30 290 H 26.7997 -0.593589 -3.83534 0
M  V30 291 H 24.9007 1.80413 -3.26009 0
M  V30 292 H 25.0137 0.646957 -4.74712 0
M  V30 293 H 23.3777 0.439565 -2.50878 0
M  V30 294 H 24.1607 -1.04906 -3.26878 0
M  V30 295 N 26.6058 1.57591 -0.0167156 0
M  V30 296 C 27.5688 2.08393 0.954204 0
M  V30 297 C 28.5688 0.996531 1.26198 0
M  V30 298 O 29.7588 1.25858 1.20438 0
M  V30 299 C 26.8908 2.5394 2.27436 0
M  V30 300 H 28.0838 2.95455 0.514451 0
M  V30 301 H 25.6368 1.54582 0.231089 0
M  V30 302 H 26.3718 1.70171 2.76066 0
M  V30 303 H 26.1568 3.33371 2.06412 0
M  V30 304 H 27.6468 2.93512 2.97053 0
M  V30 305 N 28.0839 -0.256276 1.55502 0
M  V30 306 C 29.3119 -1.00342 1.8094 0
M  V30 307 C 29.7269 -1.79307 0.59114 0
M  V30 308 O 29.0839 -1.77114 -0.440081 0
M  V30 309 C 29.1349 -1.94875 3.04476 0
M  V30 310 O 28.8559 -1.19107 4.21598 0
M  V30 311 C 30.3569 -2.81266 3.42644 0
M  V30 312 H 27.5769 -0.295685 0.602338 0
M  V30 313 H 30.1209 -0.281998 2.02546 0
M  V30 314 H 28.2759 -2.62457 2.84947 0
M  V30 315 H 28.6899 -1.82969 4.91551 0
M  V30 316 H 30.1639 -3.43362 4.32211 0
M  V30 317 H 30.6409 -3.51897 2.62802 0
M  V30 318 H 31.2469 -2.1915 3.64491 0
M  V30 319 N 29.562 -1.4872 -0.521534 0
M  V30 320 C 30.492 -1.66771 -1.63431 0
M  V30 321 C 31.473 -0.516499 -1.62069 0
M  V30 322 O 32.658 -0.750013 -1.79132 0
M  V30 323 C 29.788 -1.71515 -3.01993 0
M  V30 324 C 28.742 -2.86222 -3.18216 0
M  V30 325 C 28.068 -2.76061 -4.57924 0
M  V30 326 C 29.368 -4.27419 -3.00184 0
M  V30 327 H 31.062 -2.59932 -1.48579 0
M  V30 328 H 28.608 -1.25089 -0.713358 0
M  V30 329 H 30.561 -1.82731 -3.7972 0
M  V30 330 H 29.285 -0.749393 -3.17886 0
M  V30 331 H 27.944 -2.74575 -2.42908 0
M  V30 332 H 27.592 -1.77437 -4.70665 0
M  V30 333 H 27.292 -3.53037 -4.69722 0
M  V30 334 H 28.816 -2.89256 -5.37739 0
M  V30 335 H 30.23 -4.39855 -3.67697 0
M  V30 336 H 28.627 -5.05458 -3.2347 0
M  V30 337 H 29.697 -4.43293 -1.96518 0
M  V30 338 N 31.0401 0.771051 -1.3745 0
M  V30 339 C 31.9701 1.89827 -1.3597 0
M  V30 340 C 32.9511 1.68562 -0.228216 0
M  V30 341 O 34.1361 1.8941 -0.428675 0
M  V30 342 C 31.2661 3.2712 -1.16662 0
M  V30 343 C 30.2201 3.6295 -2.2683 0
M  V30 344 C 29.5461 4.98791 -1.92644 0
M  V30 345 C 30.8461 3.69627 -3.69017 0
M  V30 346 H 32.5401 1.91323 -2.30295 0
M  V30 347 H 30.0861 0.919082 -1.10855 0
M  V30 348 H 32.0391 4.05615 -1.14256 0
M  V30 349 H 30.7631 3.26059 -0.187926 0
M  V30 350 H 29.4221 2.86763 -2.28392 0
M  V30 351 H 29.0701 4.94271 -0.933021 0
M  V30 352 H 28.7701 5.23733 -2.66416 0
M  V30 353 H 30.2941 5.79685 -1.91826 0
M  V30 354 H 31.7081 4.38273 -3.69581 0
M  V30 355 H 30.1051 4.06067 -4.41848 0
M  V30 356 H 31.1751 2.70273 -4.02592 0
M  V30 357 N 32.5182 1.22032 0.997298 0
M  V30 358 C 33.7642 1.04376 1.73878 0
M  V30 359 C 34.0972 -0.420716 1.89588 0
M  V30 360 O 33.3722 -1.31202 1.43583 0
M  V30 361 C 33.6552 1.75047 3.14691 0
M  V30 362 C 33.5082 3.29062 3.06656 0
M  V30 363 C 34.8272 1.49928 4.13775 0
M  V30 364 H 31.9462 0.380578 0.631133 0
M  V30 365 H 34.5882 1.50312 1.16217 0
M  V30 366 H 32.7382 1.35996 3.63919 0
M  V30 367 H 34.4102 3.7753 2.65083 0
M  V30 368 H 32.6532 3.58967 2.43568 0
M  V30 369 H 33.3242 3.73683 4.06282 0
M  V30 370 H 35.8002 1.83842 3.73285 0
M  V30 371 H 34.6762 2.01878 5.10428 0
M  V30 372 H 34.9372 0.430929 4.39995 0
M  V30 373 N 33.9963 -1.19345 1.0293 0
M  V30 374 C 34.9283 -2.22036 0.56857 0
M  V30 375 C 35.9413 -1.58865 -0.355779 0
M  V30 376 O 37.1303 -1.77851 -0.152103 0
M  V30 377 C 34.2303 -3.38363 -0.190752 0
M  V30 378 C 33.4033 -4.31118 0.738643 0
M  V30 379 C 32.4623 -5.26194 0.0246497 0
M  V30 380 O 31.4883 -5.65461 0.651354 0
M  V30 381 N 32.6903 -5.66971 -1.24594 0
M  V30 382 H 35.4553 -2.6219 1.45177 0
M  V30 383 H 33.0163 -1.34015 0.908381 0
M  V30 384 H 35.0083 -3.98981 -0.677961 0
M  V30 385 H 33.5783 -2.96994 -0.975366 0
M  V30 386 H 32.7983 -3.68276 1.40593 0
M  V30 387 H 34.0863 -4.90001 1.37029 0
M  V30 388 H 33.4843 -5.37104 -1.77583 0
M  V30 389 H 32.0413 -6.2984 -1.67764 0
M  V30 390 N 35.4744 -0.807222 -1.35358 0
M  V30 391 C 36.7024 -0.400377 -2.02989 0
M  V30 392 C 37.1174 0.988859 -1.60832 0
M  V30 393 O 36.4744 1.63729 -0.806175 0
M  V30 394 C 36.5254 -0.474867 -3.58368 0
M  V30 395 O 36.2464 -1.80933 -3.98992 0
M  V30 396 C 37.7474 -0.0609112 -4.43258 0
M  V30 397 H 34.9674 -0.162587 -0.651004 0
M  V30 398 H 37.5114 -1.09102 -1.72965 0
M  V30 399 H 35.6664 0.167534 -3.87038 0
M  V30 400 H 36.0804 -1.77256 -4.9364 0
M  V30 401 H 37.5544 -0.164145 -5.51756 0
M  V30 402 H 38.0314 0.993831 -4.27808 0
M  V30 403 H 38.6374 -0.676492 -4.19885 0
M  V30 404 N 36.9525 1.47285 -0.560781 0
M  V30 405 C 37.9155 2.28535 0.174488 0
M  V30 406 C 38.9155 1.37153 0.839388 0
M  V30 407 O 40.1055 1.59748 0.694702 0
M  V30 408 C 37.2375 3.16934 1.25561 0
M  V30 409 H 38.4305 2.95012 -0.539262 0
M  V30 410 H 35.9835 1.53034 -0.317865 0
M  V30 411 H 36.7185 2.55157 2.00164 0
M  V30 412 H 36.5035 3.8419 0.783604 0
M  V30 413 H 37.9935 3.78143 1.77193 0
M  V30 414 N 38.4306 0.297415 1.54768 0
M  V30 415 C 39.6556 -0.318435 2.04941 0
M  V30 416 C 40.0806 -1.4701 1.17345 0
M  V30 417 O 39.4386 -1.80436 0.176758 0
M  V30 418 C 39.4866 -0.755749 3.52592 0
M  V30 419 O 38.5906 -1.86088 3.68028 0
M  V30 420 H 37.9316 -0.062421 0.661059 0
M  V30 421 H 40.4616 0.438215 1.99852 0
M  V30 422 H 40.4716 -1.04552 3.94376 0
M  V30 423 H 39.1466 0.0867233 4.1581 0
M  V30 424 H 37.7236 -1.57193 3.38149 0
M  V30 425 N 39.9087 -1.5758 0.0250728 0
M  V30 426 C 40.8557 -2.09973 -0.958129 0
M  V30 427 C 41.8257 -1.00085 -1.3256 0
M  V30 428 O 43.0107 -1.27481 -1.41962 0
M  V30 429 C 40.1507 -2.62812 -2.2366 0
M  V30 430 C 39.2637 -3.86693 -1.92594 0
M  V30 431 C 38.3987 -4.27941 -3.14707 0
M  V30 432 C 37.4377 -5.44591 -2.79442 0
M  V30 433 N 36.5747 -5.81014 -3.94167 0
M  V30 434 H 41.4147 -2.937 -0.504428 0
M  V30 435 H 38.9517 -1.45172 -0.237392 0
M  V30 436 H 40.9097 -2.91536 -2.98434 0
M  V30 437 H 39.5397 -1.81922 -2.66654 0
M  V30 438 H 38.5917 -3.64723 -1.0808 0
M  V30 439 H 39.9037 -4.71547 -1.62619 0
M  V30 440 H 39.0577 -4.58079 -3.97804 0
M  V30 441 H 37.7967 -3.41845 -3.4784 0
M  V30 442 H 36.8017 -5.1415 -1.94755 0
M  V30 443 H 38.0267 -6.32382 -2.47528 0
M  V30 444 H 35.9727 -4.97874 -4.2715 0
M  V30 445 H 35.8897 -6.60498 -3.67801 0
M  V30 446 H 37.1577 -6.15756 -4.7798 0
M  V30 447 N 41.3868 0.248026 -1.55636 0
M  V30 448 C 42.6338 0.976224 -1.77415 0
M  V30 449 C 42.9618 1.85361 -0.589193 0
M  V30 450 O 42.2168 1.90973 0.427529 0
M  V30 451 C 42.5158 1.86819 -3.04686 0
M  V30 452 C 42.1818 1.14625 -4.36087 0
M  V30 453 C 40.8438 0.946723 -4.71795 0
M  V30 454 C 43.1958 0.634463 -5.17324 0
M  V30 455 C 40.5238 0.223091 -5.86276 0
M  V30 456 C 42.8758 -0.0756959 -6.32555 0
M  V30 457 C 41.5398 -0.286711 -6.66884 0
M  V30 458 H 40.8098 0.357226 -0.649208 0
M  V30 459 H 43.4568 0.246415 -1.89908 0
M  V30 460 H 41.7618 2.66502 -2.872 0
M  V30 461 H 43.4588 2.43329 -3.18735 0
M  V30 462 H 40.0488 1.3117 -4.08035 0
M  V30 463 H 44.2328 0.77616 -4.90193 0
M  V30 464 H 39.4888 0.0491185 -6.1138 0
M  V30 465 H 43.6628 -0.479899 -6.94745 0
M  V30 466 H 41.2898 -0.849389 -7.5544 0
M  V30 467 N 42.8649 1.48995 0.513639 0
M  V30 468 C 43.8129 1.65199 1.63744 0
M  V30 469 C 44.8069 0.51809 1.61283 0
M  V30 470 O 46.0129 0.697335 1.65943 0
M  V30 471 H 42.3879 0.52069 0.542574 0
M  V30 472 H 44.3589 2.59552 1.47226 0
M  V30 473 C 43.1079 1.72409 3.01945 0
M  V30 474 H 42.4309 2.59029 3.04539 0
M  V30 475 H 43.8709 1.87785 3.80148 0
M  V30 476 C 42.3299 0.46618 3.33659 0
M  V30 477 O 42.8599 -0.413744 3.99564 0
M  V30 478 N 41.0659 0.332931 2.88687 0
M  V30 479 H 40.6129 1.04996 2.35231 0
M  V30 480 H 40.5709 -0.507665 3.10274 0
M  V30 481 N 44.343 -0.763751 1.37857 0
M  V30 482 C 45.568 -1.55805 1.36893 0
M  V30 483 C 45.993 -1.88054 -0.0416135 0
M  V30 484 O 45.351 -1.49825 -1.02089 0
M  V30 485 C 45.399 -2.84012 2.22192 0
M  V30 486 O 44.503 -3.78732 1.63204 0
M  V30 487 H 43.844 -0.471638 0.46739 0
M  V30 488 H 46.374 -0.944657 1.81487 0
M  V30 489 H 46.384 -3.33037 2.35691 0
M  V30 490 H 45.059 -2.59869 3.24716 0
M  V30 491 H 43.636 -3.37402 1.58791 0
M  V30 492 N 45.8211 -1.22559 -0.990812 0
M  V30 493 C 47.0981 -0.959875 -1.70428 0
M  V30 494 C 47.4781 0.524455 -2.04481 0
M  V30 495 O 46.8261 1.49302 -1.72977 0
M  V30 496 C 47.0361 -1.85955 -2.95333 0
M  V30 497 C 48.3841 -2.11687 -3.68068 0
M  V30 498 O 49.4081 -1.8342 -3.05345 0
M  V30 499 O 48.2671 -2.59572 -4.80921 0
M  V30 500 H 45.3611 -0.361154 -0.743974 0
M  V30 501 H 47.9071 -1.33554 -1.04697 0
M  V30 502 H 46.6791 -2.86346 -2.66687 0
M  V30 503 H 46.3021 -1.4856 -3.68803 0
M  V30 504 N 47.2992 1.18797 -1.03562 0
M  V30 505 C 48.5482 1.87978 -0.731235 0
M  V30 506 C 48.8612 1.80911 0.743671 0
M  V30 507 O 50.0672 2.45407 1.16137 0
M  V30 508 C 48.5232 3.3721 -1.25768 0
M  V30 509 C 48.1312 3.52818 -2.76085 0
M  V30 510 C 49.8752 4.11825 -1.0296 0
M  V30 511 C 47.7822 4.9598 -3.22114 0
M  V30 512 H 46.7122 0.704063 -0.269835 0
M  V30 513 H 49.3632 1.34266 -1.25079 0
M  V30 514 H 47.7452 3.90359 -0.666011 0
M  V30 515 H 48.9192 3.09965 -3.40966 0
M  V30 516 H 47.2342 2.91602 -2.97249 0
M  V30 517 H 49.8312 5.17411 -1.34869 0
M  V30 518 H 50.1742 4.16287 0.0333546 0
M  V30 519 H 50.7072 3.64833 -1.58562 0
M  V30 520 H 47.4462 4.96684 -4.27768 0
M  V30 521 H 46.9662 5.39569 -2.61965 0
M  V30 522 H 48.6452 5.6467 -3.15844 0
M  V30 523 N 48.7773 0.814389 1.34928 0
M  V30 524 C 49.7253 0.218424 2.31572 0
M  V30 525 C 50.7193 -0.636128 1.57002 0
M  V30 526 O 51.9253 -0.52842 1.72069 0
M  V30 527 H 48.3003 0.0518799 0.750208 0
M  V30 528 H 50.2713 1.04852 2.79372 0
M  V30 529 C 49.0203 -0.61207 3.4227 0
M  V30 530 H 48.3433 0.0361578 3.99784 0
M  V30 531 H 49.7833 -0.995317 4.12152 0
M  V30 532 C 48.2423 -1.78087 2.85984 0
M  V30 533 O 48.7723 -2.8787 2.80168 0
M  V30 534 N 46.9783 -1.59488 2.42924 0
M  V30 535 H 46.5253 -0.701874 2.47854 0
M  V30 536 H 46.4833 -2.37846 2.05613 0
M  V30 537 N 50.2554 -1.46986 0.568584 0
M  V30 538 C 51.1854 -2.32946 -0.160753 0
M  V30 539 C 52.1664 -1.44487 -0.897631 0
M  V30 540 O 53.3514 -1.73327 -0.875867 0
M  V30 541 C 50.4814 -3.26494 -1.18403 0
M  V30 542 C 49.4354 -4.24282 -0.562895 0
M  V30 543 C 48.7614 -5.07236 -1.69163 0
M  V30 544 C 50.0614 -5.19989 0.490761 0
M  V30 545 H 51.7554 -2.94175 0.556916 0
M  V30 546 H 49.3014 -1.4146 0.26927 0
M  V30 547 H 51.2544 -3.85477 -1.70251 0
M  V30 548 H 49.9784 -2.63343 -1.93179 0
M  V30 549 H 48.6374 -3.66541 -0.0656164 0
M  V30 550 H 48.2854 -4.4048 -2.42871 0
M  V30 551 H 47.9854 -5.7345 -1.28174 0
M  V30 552 H 49.5094 -5.6908 -2.21314 0
M  V30 553 H 50.9234 -5.73271 0.0579047 0
M  V30 554 H 49.3204 -5.94469 0.820165 0
M  V30 555 H 50.3904 -4.64777 1.3824 0
M  V30 556 N 51.7335 -0.305618 -1.54608 0
M  V30 557 C 52.6435 0.57778 -2.27374 0
M  V30 558 C 53.6595 1.14451 -1.31061 0
M  V30 559 O 54.8355 1.16831 -1.6405 0
M  V30 560 C 51.9005 1.73123 -3.00382 0
M  V30 561 C 50.9615 1.19812 -4.12242 0
M  V30 562 C 50.1945 2.2966 -4.81759 0
M  V30 563 O 50.4175 3.49651 -4.50666 0
M  V30 564 O 49.3515 1.96091 -5.69062 0
M  V30 565 H 53.1775 -0.012624 -3.03697 0
M  V30 566 H 50.7625 -0.0719184 -1.49227 0
M  V30 567 H 52.6445 2.40315 -3.4616 0
M  V30 568 H 51.3195 2.30815 -2.26949 0
M  V30 569 H 50.2265 0.491798 -3.70853 0
M  V30 570 H 51.5595 0.666566 -4.87666 0
M  V30 571 N 53.2116 1.57565 -0.0334293 0
M  V30 572 C 54.4416 1.95996 0.653398 0
M  V30 573 C 54.8496 0.908749 1.65947 0
M  V30 574 O 54.1926 -0.117471 1.83324 0
M  V30 575 C 54.2546 3.30589 1.41249 0
M  V30 576 C 53.9186 4.53503 0.564263 0
M  V30 577 C 54.9156 5.19647 -0.16225 0
M  V30 578 C 52.6006 4.99801 0.500398 0
M  V30 579 C 54.5946 6.30412 -0.941255 0
M  V30 580 C 52.2816 6.10448 -0.282308 0
M  V30 581 C 53.2796 6.75612 -1.00184 0
M  V30 582 O 52.9676 7.84134 -1.77171 0
M  V30 583 H 52.6996 0.65027 0.184728 0
M  V30 584 H 55.2536 2.05199 -0.0907841 0
M  V30 585 H 53.4836 3.17888 2.20191 0
M  V30 586 H 55.1726 3.53892 1.98784 0
M  V30 587 H 55.9386 4.84846 -0.12227 0
M  V30 588 H 51.8176 4.48883 1.05002 0
M  V30 589 H 55.3616 6.81208 -1.50339 0
M  V30 590 H 51.2586 6.44686 -0.323989 0
M  V30 591 H 52.0266 8.00822 -1.69194 0
M  V30 592 N 54.6897 -0.239769 1.55765 0
M  V30 593 C 55.6367 -1.29696 1.90913 0
M  V30 594 C 56.6067 -1.47478 0.764164 0
M  V30 595 O 57.7917 -1.61345 1.01845 0
M  V30 596 C 54.9317 -2.64598 2.21544 0
M  V30 597 C 54.0447 -2.54765 3.48882 0
M  V30 598 C 53.1797 -3.82069 3.69049 0
M  V30 599 C 52.2187 -3.66883 4.89963 0
M  V30 600 N 51.3557 -4.86094 5.06614 0
M  V30 601 H 56.1957 -0.990224 2.81067 0
M  V30 602 H 53.7327 -0.477684 1.39128 0
M  V30 603 H 55.6907 -3.43132 2.3731 0
M  V30 604 H 54.3207 -2.93405 1.34585 0
M  V30 605 H 53.3727 -1.67763 3.41409 0
M  V30 606 H 54.6847 -2.39457 4.37563 0
M  V30 607 H 53.8387 -4.69046 3.84812 0
M  V30 608 H 52.5777 -4.00282 2.78614 0
M  V30 609 H 51.5827 -2.78289 4.74168 0
M  V30 610 H 52.8077 -3.50157 5.81865 0
M  V30 611 H 50.7537 -5.04655 4.19117 0
M  V30 612 H 50.6707 -4.73443 5.89396 0
M  V30 613 H 51.9387 -5.74549 5.26795 0
M  V30 614 N 56.1678 -1.49265 -0.50573 0
M  V30 615 C 57.4158 -1.582 -1.25766 0
M  V30 616 C 57.7368 -0.268482 -1.93143 0
M  V30 617 O 57.0068 0.711833 -1.8251 0
M  V30 618 H 55.5868 -0.582873 -0.467191 0
M  V30 619 H 58.2488 -1.85865 -0.586525 0
M  V30 620 H 57.3448 -2.37563 -2.02412 0
M  V30 621 N 57.6459 0.756429 -1.3826 0
M  V30 622 C 58.5929 1.87011 -1.35261 0
M  V30 623 C 59.5629 1.64695 -0.215616 0
M  V30 624 O 60.7479 1.864 -0.407399 0
M  V30 625 C 57.8879 3.24275 -1.18068 0
M  V30 626 C 57.0009 3.58442 -2.41129 0
M  V30 627 C 56.1359 4.84994 -2.16689 0
M  V30 628 C 55.1749 5.11939 -3.35537 0
M  V30 629 N 54.3119 6.29685 -3.10549 0
M  V30 630 H 59.1519 1.8891 -2.30472 0
M  V30 631 H 56.6889 0.923373 -1.14509 0
M  V30 632 H 58.6469 4.03479 -1.06116 0
M  V30 633 H 57.2769 3.21711 -0.264973 0
M  V30 634 H 56.3289 2.74103 -2.63764 0
M  V30 635 H 57.6409 3.74283 -3.29717 0
M  V30 636 H 56.7949 5.72135 -2.01857 0
M  V30 637 H 55.5339 4.71286 -1.25462 0
M  V30 638 H 54.5389 4.23268 -3.50891 0
M  V30 639 H 55.7639 5.27546 -4.27635 0
M  V30 640 H 53.7099 6.17306 -2.21967 0
M  V30 641 H 53.6269 6.46014 -3.92686 0
M  V30 642 H 54.8949 7.19722 -2.99367 0
M  V30 643 N 59.124 1.23083 0.984299 0
M  V30 644 C 60.349 1.088 1.76571 0
M  V30 645 C 60.774 -0.356657 1.84688 0
M  V30 646 O 60.132 -1.25788 1.30565 0
M  V30 647 C 60.18 1.71371 3.17277 0
M  V30 648 O 59.284 0.973213 4.00752 0
M  V30 649 H 58.625 0.381599 0.543395 0
M  V30 650 H 61.155 1.63057 1.23587 0
M  V30 651 H 61.165 1.76449 3.67872 0
M  V30 652 H 59.84 2.76493 3.10684 0
M  V30 653 H 58.417 0.999078 3.59267 0
M  V30 654 N 60.6021 -1.18246 1.0419 0
M  V30 655 C 61.8481 -1.88536 0.747122 0
M  V30 656 C 62.1811 -1.80223 -0.723409 0
M  V30 657 O 61.4561 -1.20337 -1.52804 0
M  V30 658 C 61.7391 -3.38968 1.21544 0
M  V30 659 C 61.5921 -3.56084 2.74816 0
M  V30 660 C 62.9111 -4.32648 0.806482 0
M  V30 661 H 60.0301 -0.684619 0.272883 0
M  V30 662 H 62.6721 -1.39113 1.29413 0
M  V30 663 H 60.8221 -3.8119 0.750081 0
M  V30 664 H 62.4941 -3.22946 3.29399 0
M  V30 665 H 60.7371 -2.98699 3.14582 0
M  V30 666 H 61.4081 -4.61639 3.02644 0
M  V30 667 H 63.8841 -3.98211 1.20695 0
M  V30 668 H 62.7601 -5.36462 1.1619 0
M  V30 669 H 63.0211 -4.41146 -0.29029 0
M  V30 670 N 62.0802 -0.821533 -1.34494 0
M  V30 671 C 63.0282 -0.230702 -2.31453 0
M  V30 672 C 64.0222 0.627793 -1.57338 0
M  V30 673 O 65.2282 0.519288 -1.72347 0
M  V30 674 H 61.6032 -0.0558577 -0.749923 0
M  V30 675 H 63.5742 -1.06332 -2.78812 0
M  V30 676 C 62.3232 0.59391 -3.4259 0
M  V30 677 H 61.6462 -0.0573588 -3.99759 0
M  V30 678 H 63.0862 0.973446 -4.12674 0
M  V30 679 C 61.5452 1.76568 -2.86924 0
M  V30 680 O 62.0752 2.8638 -2.81691 0
M  V30 681 N 60.2812 1.58198 -2.43766 0
M  V30 682 H 59.8282 0.68872 -2.48222 0
M  V30 683 H 59.7862 2.36752 -2.06871 0
M  V30 684 N 63.5583 1.46682 -0.576371 0
M  V30 685 C 64.4883 2.33028 0.148397 0
M  V30 686 C 65.4693 1.44961 0.889956 0
M  V30 687 O 66.6543 1.73789 0.866662 0
M  V30 688 C 63.7843 3.27117 1.1667 0
M  V30 689 C 62.7383 4.24575 0.540386 0
M  V30 690 C 62.0643 5.08126 1.6647 0
M  V30 691 C 63.3643 5.19722 -0.518331 0
M  V30 692 H 65.0583 2.93875 -0.572509 0
M  V30 693 H 62.6043 1.41315 -0.276768 0
M  V30 694 H 64.5573 3.86374 1.68204 0
M  V30 695 H 63.2813 2.64364 1.9178 0
M  V30 696 H 61.9403 3.66571 0.0461769 0
M  V30 697 H 61.5883 4.41762 2.40531 0
M  V30 698 H 61.2883 5.74122 1.25131 0
M  V30 699 H 62.8123 5.70246 2.18293 0
M  V30 700 H 64.2263 5.73232 -0.0883058 0
M  V30 701 H 62.6233 5.94026 -0.851679 0
M  V30 702 H 63.6933 4.64037 -1.40703 0
M  V30 703 N 65.0364 0.313813 1.54444 0
M  V30 704 C 65.9834 -0.55655 2.23989 0
M  V30 705 C 66.9534 -1.11943 1.22711 0
M  V30 706 O 68.1384 -1.16158 1.51367 0
M  V30 707 C 65.2784 -1.71635 2.99392 0
M  V30 708 C 64.3914 -1.18364 4.15468 0
M  V30 709 C 63.5264 -2.30834 4.78424 0
M  V30 710 C 62.5654 -1.74762 5.86622 0
M  V30 711 N 61.7024 -2.80855 6.43479 0
M  V30 712 H 66.5424 0.0430893 2.97969 0
M  V30 713 H 64.0794 0.0330359 1.47063 0
M  V30 714 H 66.0374 -2.39868 3.41349 0
M  V30 715 H 64.6674 -2.28742 2.27765 0
M  V30 716 H 63.7194 -0.393163 3.78363 0
M  V30 717 H 65.0314 -0.733262 4.93381 0
M  V30 718 H 64.1854 -3.0699 5.23299 0
M  V30 719 H 62.9244 -2.79204 3.99871 0
M  V30 720 H 61.9294 -0.970995 5.41158 0
M  V30 721 H 63.1544 -1.2728 6.67066 0
M  V30 722 H 61.1004 -3.28535 5.67804 0
M  V30 723 H 61.0174 -2.40351 7.16776 0
M  V30 724 H 62.2854 -3.5687 6.93011 0
M  V30 725 N 66.5145 -1.57545 0.0417849 0
M  V30 726 C 67.7395 -1.97035 -0.647455 0
M  V30 727 C 68.1645 -0.918775 -1.64135 0
M  V30 728 O 67.5225 0.119006 -1.80909 0
M  V30 729 C 67.5705 -3.35609 -1.31905 0
M  V30 730 O 66.6745 -3.3287 -2.43457 0
M  V30 731 H 66.0155 -0.64211 -0.169086 0
M  V30 732 H 68.5455 -2.04318 0.107399 0
M  V30 733 H 68.5555 -3.72126 -1.67291 0
M  V30 734 H 67.2305 -4.11685 -0.590586 0
M  V30 735 H 65.8075 -3.08087 -2.10088 0
M  V30 736 N 67.9926 0.231505 -1.5589 0
M  V30 737 C 69.2416 0.955346 -1.7764 0
M  V30 738 C 69.5546 1.85893 -0.608546 0
M  V30 739 O 70.7606 2.62067 -0.70943 0
M  V30 740 C 69.2166 1.74886 -3.14552 0
M  V30 741 C 68.8246 0.891915 -4.39032 0
M  V30 742 C 70.5686 2.46452 -3.45633 0
M  V30 743 C 68.4756 1.68221 -5.66971 0
M  V30 744 H 67.4056 0.360446 -0.662265 0
M  V30 745 H 70.0566 0.209516 -1.823 0
M  V30 746 H 68.4386 2.53723 -3.04041 0
M  V30 747 H 69.6126 0.144793 -4.60572 0
M  V30 748 H 67.9276 0.288863 -4.15397 0
M  V30 749 H 70.5246 3.06061 -4.38441 0
M  V30 750 H 70.8676 3.18841 -2.67668 0
M  V30 751 H 71.4006 1.74613 -3.57428 0
M  V30 752 H 68.1396 1.00178 -6.478 0
M  V30 753 H 67.6596 2.4042 -5.49507 0
M  V30 754 H 69.3386 2.24544 -6.06786 0
M  V30 755 N 69.4707 1.49531 0.497807 0
M  V30 756 C 70.4037 1.61043 1.6168 0
M  V30 757 C 71.3817 0.459386 1.55976 0
M  V30 758 O 72.5657 0.675358 1.75986 0
M  V30 759 C 69.6927 1.56833 3.00202 0
M  V30 760 C 68.7387 2.77173 3.24156 0
M  V30 761 S 69.5717 4.38808 3.06933 0
M  V30 762 C 70.7277 4.37248 4.47845 0
M  V30 763 H 70.9607 2.55702 1.51671 0
M  V30 764 H 68.4937 1.38462 0.683201 0
M  V30 765 H 70.4517 1.55089 3.80076 0
M  V30 766 H 69.1127 0.634561 3.07623 0
M  V30 767 H 68.3057 2.70456 4.25288 0
M  V30 768 H 67.9077 2.76346 2.5201 0
M  V30 769 H 70.1997 4.09164 5.39992 0
M  V30 770 H 71.1427 5.38668 4.59612 0
M  V30 771 H 71.5507 3.67286 4.28674 0
M  V30 772 N 70.9488 -0.749086 1.3866 0
M  V30 773 C 72.1968 -1.50535 1.34847 0
M  V30 774 C 72.5178 -1.94909 -0.0595016 0
M  V30 775 O 71.7878 -1.67973 -1.00806 0
M  V30 776 H 70.3678 -0.558395 0.49619 0
M  V30 777 H 73.0298 -0.890165 1.73384 0
M  V30 778 H 72.1258 -2.39413 2.00219 0
M  V30 779 N 72.4269 -1.23603 -0.977757 0
M  V30 780 C 73.6729 -1.07129 -1.72195 0
M  V30 781 C 74.0059 0.390501 -1.90233 0
M  V30 782 O 73.2809 1.28902 -1.45653 0
M  V30 783 C 73.5639 -1.80031 -3.11867 0
M  V30 784 C 73.4169 -3.33899 -3.01383 0
M  V30 785 C 74.7359 -1.56492 -4.11337 0
M  V30 786 H 71.8549 -0.390571 -0.624999 0
M  V30 787 H 74.4969 -1.52142 -1.13811 0
M  V30 788 H 72.6469 -1.41768 -3.6171 0
M  V30 789 H 74.3189 -3.81699 -2.59043 0
M  V30 790 H 72.5619 -3.62796 -2.37827 0
M  V30 791 H 73.2329 -3.801 -4.00285 0
M  V30 792 H 75.7089 -1.89757 -3.70313 0
M  V30 793 H 74.5849 -2.09973 -5.07151 0
M  V30 794 H 74.8459 -0.500874 -4.39254 0
M  V30 795 N 73.905 1.17692 -1.04816 0
M  V30 796 C 74.838 2.20436 -0.590173 0
M  V30 797 C 75.816 1.58115 0.379244 0
M  V30 798 O 77 1.86228 0.291762 0
M  V30 799 C 74.127 3.38424 0.136817 0
M  V30 800 C 73.173 4.19176 -0.787023 0
M  V30 801 S 74.006 4.84815 -2.27409 0
M  V30 802 C 75.162 6.06195 -1.55817 0
M  V30 803 H 75.395 2.58944 -1.46067 0
M  V30 804 H 72.928 1.28246 -0.859784 0
M  V30 805 H 74.886 4.06798 0.550076 0
M  V30 806 H 73.547 2.98312 0.983299 0
M  V30 807 H 72.74 5.03499 -0.224681 0
M  V30 808 H 72.342 3.56219 -1.13947 0
M  V30 809 H 74.634 6.72078 -0.855387 0
M  V30 810 H 75.577 6.6695 -2.37873 0
M  V30 811 H 75.985 5.54701 -1.04722 0
M  V30 812 N 75.3831 0.828654 1.34056 0
M  V30 813 C 76.6081 0.431637 2.02859 0
M  V30 814 C 77.0331 -0.956339 1.61975 0
M  V30 815 O 76.3911 -1.62338 0.807228 0
M  V30 816 C 76.4391 0.548323 3.56407 0
M  V30 817 O 75.5431 -0.429556 4.10157 0
M  V30 818 H 74.8841 0.176886 0.640006 0
M  V30 819 H 77.4141 1.12066 1.71179 0
M  V30 820 H 77.4241 0.426196 4.05768 0
M  V30 821 H 76.0991 1.5606 3.8551 0
M  V30 822 H 74.6761 -0.265836 3.71951 0
M  V30 823 N 76.8612 -1.46375 0.584142 0
M  V30 824 C 77.7912 -2.33103 -0.136037 0
M  V30 825 C 78.7722 -1.45431 -0.882255 0
M  V30 826 O 79.9572 -1.74246 -0.857434 0
M  V30 827 C 77.0872 -3.27731 -1.14933 0
M  V30 828 C 76.0412 -4.24855 -0.517862 0
M  V30 829 C 75.3672 -5.09001 -1.63773 0
M  V30 830 C 76.6672 -5.19439 0.545886 0
M  V30 831 H 78.3612 -2.93568 0.588086 0
M  V30 832 H 75.9072 -1.41166 0.284259 0
M  V30 833 H 77.8602 -3.87261 -1.66153 0
M  V30 834 H 76.5842 -2.65377 -1.90375 0
M  V30 835 H 75.2432 -3.6659 -0.0267361 0
M  V30 836 H 74.8912 -4.43031 -2.38185 0
M  V30 837 H 74.5912 -5.74777 -1.22085 0
M  V30 838 H 76.1152 -5.71396 -2.15266 0
M  V30 839 H 77.5292 -5.73177 0.118704 0
M  V30 840 H 75.9262 -5.93566 0.88317 0
M  V30 841 H 76.9962 -4.63285 1.43162 0
M  V30 842 N 78.3393 -0.321999 -1.54275 0
M  V30 843 C 79.5873 0.280489 -2.00144 0
M  V30 844 C 79.9083 1.52777 -1.21178 0
M  V30 845 O 79.1783 1.9338 -0.313187 0
M  V30 846 H 77.7583 0.106632 -0.73935 0
M  V30 847 H 80.4203 -0.438184 -1.8991 0
M  V30 848 H 79.5163 0.537972 -3.07428 0
M  V30 849 N 79.8174 1.5752 -0.0501392 0
M  V30 850 C 81.0634 1.92936 0.624798 0
M  V30 851 C 81.3964 0.928685 1.70555 0
M  V30 852 O 80.6714 -0.0454779 1.94447 0
M  V30 853 C 80.9544 3.38737 1.22185 0
M  V30 854 C 80.8074 4.49552 0.149218 0
M  V30 855 C 82.1264 3.84913 2.13378 0
M  V30 856 H 79.2454 0.701604 0.225657 0
M  V30 857 H 81.8874 1.89671 -0.111693 0
M  V30 858 H 80.0374 3.4165 1.84953 0
M  V30 859 H 81.7094 4.58768 -0.482648 0
M  V30 860 H 79.9524 4.30638 -0.522841 0
M  V30 861 H 80.6234 5.48653 0.606966 0
M  V30 862 H 83.0994 3.8387 1.60572 0
M  V30 863 H 81.9754 4.87584 2.52097 0
M  V30 864 H 82.2364 3.21611 3.03346 0
M  V30 865 N 81.2955 -0.223234 1.56011 0
M  V30 866 C 82.5435 -0.946003 1.78592 0
M  V30 867 C 82.8645 -1.84936 0.618349 0
M  V30 868 O 82.1345 -1.92473 -0.364833 0
M  V30 869 H 80.7145 -0.352298 0.658707 0
M  V30 870 H 83.3765 -0.235494 1.93472 0
M  V30 871 H 82.4725 -1.55381 2.70672 0
M  V30 872 N 82.7736 -1.49793 -0.48987 0
M  V30 873 C 83.7056 -1.63413 -1.60713 0
M  V30 874 C 84.7186 -0.516329 -1.54395 0
M  V30 875 O 85.9076 -0.788812 -1.60125 0
M  V30 876 C 83.0076 -1.58516 -2.99543 0
M  V30 877 C 82.1806 -2.86016 -3.30928 0
M  V30 878 C 81.2396 -2.74018 -4.49222 0
M  V30 879 O 80.2656 -3.47964 -4.50455 0
M  V30 880 N 81.4676 -1.86309 -5.4979 0
M  V30 881 H 84.2326 -2.59777 -1.49452 0
M  V30 882 H 81.7936 -1.47022 -0.677955 0
M  V30 883 H 83.7856 -1.48128 -3.76617 0
M  V30 884 H 82.3556 -0.69965 -3.0467 0
M  V30 885 H 81.5756 -3.10672 -2.42645 0
M  V30 886 H 82.8636 -3.70521 -3.487 0
M  V30 887 H 82.2616 -1.2551 -5.51601 0
M  V30 888 H 80.8186 -1.81837 -6.25922 0
M  V30 889 N 84.2517 0.741722 -1.39055 0
M  V30 890 C 85.4997 1.49818 -1.35643 0
M  V30 891 C 85.8207 1.94938 0.0491642 0
M  V30 892 O 85.0907 1.68505 0.999141 0
M  V30 893 H 83.6707 0.555755 -0.499144 0
M  V30 894 H 86.3327 0.880957 -1.73854 0
M  V30 895 H 85.4287 2.38348 -2.01486 0
M  V30 896 N 85.7298 1.2412 0.971189 0
M  V30 897 C 86.9548 1.10667 1.75407 0
M  V30 898 C 87.3798 -0.337048 1.85056 0
M  V30 899 O 86.7378 -1.24396 1.31892 0
M  V30 900 C 86.7858 1.74726 3.15441 0
M  V30 901 O 85.8898 1.01566 3.99697 0
M  V30 902 H 85.2308 0.387341 0.539317 0
M  V30 903 H 87.7608 1.64358 1.2185 0
M  V30 904 H 87.7708 1.80341 3.6598 0
M  V30 905 H 86.4458 2.79773 3.07734 0
M  V30 906 H 85.0228 1.03713 3.58187 0
M  V30 907 N 87.2079 -1.17134 1.05439 0
M  V30 908 C 88.4849 -1.83411 0.679699 0
M  V30 909 C 88.8649 -1.9368 -0.839726 0
M  V30 910 O 88.2129 -1.47325 -1.74664 0
M  V30 911 C 88.4229 -3.20918 1.37159 0
M  V30 912 C 89.7709 -3.96796 1.51123 0
M  V30 913 O 90.7949 -3.30406 1.3308 0
M  V30 914 O 89.6539 -5.15778 1.80651 0
M  V30 915 H 86.7479 -0.79154 0.239569 0
M  V30 916 H 89.2939 -1.24411 1.15413 0
M  V30 917 H 88.0659 -3.08428 2.40807 0
M  V30 918 H 87.6889 -3.87587 0.886674 0
M  V30 919 N 88.686 -0.835752 -1.33615 0
M  V30 920 C 89.932 -0.430596 -1.98176 0
M  V30 921 C 90.265 1.00684 -1.66061 0
M  V30 922 O 89.54 1.70339 -0.938877 0
M  V30 923 C 89.823 -0.648065 -3.5422 0
M  V30 924 C 89.676 -2.13255 -3.96033 0
M  V30 925 C 90.995 -0.0922113 -4.40003 0
M  V30 926 H 88.114 -0.157924 -0.719881 0
M  V30 927 H 90.756 -1.05069 -1.58305 0
M  V30 928 H 88.906 -0.120237 -3.88314 0
M  V30 929 H 90.578 -2.725 -3.72211 0
M  V30 930 H 88.821 -2.61823 -3.45878 0
M  V30 931 H 89.492 -2.23547 -5.04708 0
M  V30 932 H 91.968 -0.543343 -4.12537 0
M  V30 933 H 90.844 -0.274083 -5.48215 0
M  V30 934 H 91.105 1.00378 -4.30554 0
M  V30 935 N 90.1641 1.46063 -0.591896 0
M  V30 936 C 91.3921 2.06717 -0.0868936 0
M  V30 937 C 91.8071 1.43916 1.22203 0
M  V30 938 O 91.1641 0.547698 1.74088 0
M  V30 939 C 91.2151 3.6142 0.0758725 0
M  V30 940 O 90.9361 4.21874 -1.18126 0
M  V30 941 C 92.4371 4.39025 0.61416 0
M  V30 942 H 89.6571 0.668162 -0.0616518 0
M  V30 943 H 92.2011 1.8755 -0.815175 0
M  V30 944 H 90.3561 3.79983 0.754413 0
M  V30 945 H 90.7701 5.14861 -1.00092 0
M  V30 946 H 92.2441 5.4783 0.677193 0
M  V30 947 H 92.7211 4.07708 1.63312 0
M  V30 948 H 93.3271 4.2529 -0.0298142 0
M  V30 949 N 91.6422 0.330177 1.54103 0
M  V30 950 C 92.8912 -0.271336 1.99867 0
M  V30 951 C 93.2042 -1.52723 1.22209 0
M  V30 952 O 94.4102 -2.20515 1.58383 0
M  V30 953 C 92.8662 -0.534032 3.55916 0
M  V30 954 C 92.4742 0.705193 4.42415 0
M  V30 955 C 94.2182 -1.09514 4.1013 0
M  V30 956 C 92.1252 0.414035 5.89949 0
M  V30 957 H 91.0552 -0.105166 0.74663 0
M  V30 958 H 93.7062 0.443429 1.78062 0
M  V30 959 H 92.0882 -1.30915 3.73734 0
M  V30 960 H 93.2622 1.4804 4.36372 0
M  V30 961 H 91.5772 1.18698 3.99124 0
M  V30 962 H 94.1742 -1.3277 5.17954 0
M  V30 963 H 94.5172 -2.04656 3.62521 0
M  V30 964 H 95.0502 -0.381038 3.95971 0
M  V30 965 H 91.7892 1.33481 6.41766 0
M  V30 966 H 91.3092 -0.323336 5.98928 0
M  V30 967 H 92.9882 0.0263105 6.46995 0
M  V30 968 N 93.1203 -1.57491 0.0584922 0
M  V30 969 C 94.3483 -1.97296 -0.623037 0
M  V30 970 C 94.7633 -0.936338 -1.63946 0
M  V30 971 O 94.1203 0.0785981 -1.82331 0
M  V30 972 C 94.1713 -3.37183 -1.30345 0
M  V30 973 O 93.8923 -4.36872 -0.32773 0
M  V30 974 C 95.3933 -3.91788 -2.07406 0
M  V30 975 H 92.6133 -0.649153 -0.169826 0
M  V30 976 H 95.1573 -2.04106 0.12696 0
M  V30 977 H 93.3123 -3.31502 -2.00463 0
M  V30 978 H 93.7263 -5.18141 -0.814269 0
M  V30 979 H 95.2003 -4.91926 -2.50425 0
M  V30 980 H 95.6773 -3.27609 -2.92521 0
M  V30 981 H 96.2833 -4.00829 -1.42184 0
M  V30 982 N 94.5984 0.214957 -1.56127 0
M  V30 983 C 95.8444 0.939762 -1.79712 0
M  V30 984 C 96.1774 1.83723 -0.629247 0
M  V30 985 O 95.4524 1.90925 0.371197 0
M  V30 986 C 95.7354 1.77306 -3.13424 0
M  V30 987 C 95.5884 0.90164 -4.40671 0
M  V30 988 C 96.9074 2.74956 -3.43638 0
M  V30 989 H 94.0264 0.340214 -0.653776 0
M  V30 990 H 96.6684 0.20824 -1.88855 0
M  V30 991 H 94.8184 2.39673 -3.0576 0
M  V30 992 H 96.4904 0.294206 -4.60361 0
M  V30 993 H 94.7334 0.207368 -4.33304 0
M  V30 994 H 95.4044 1.51923 -5.30682 0
M  V30 995 H 97.8804 2.22724 -3.51473 0
M  V30 996 H 96.7564 3.30358 -4.38355 0
M  V30 997 H 97.0174 3.53023 -2.66134 0
M  V30 998 N 96.0765 1.50051 0.48192 0
M  V30 999 C 97.3535 1.51009 1.2432 0
M  V30 1000 C 97.7335 0.248587 2.09631 0
M  V30 1001 O 97.0815 -0.768409 2.15192 0
M  V30 1002 C 97.2915 2.79981 2.08355 0
M  V30 1003 C 98.6395 3.3022 2.66908 0
M  V30 1004 O 99.6635 2.81228 2.18607 0
M  V30 1005 O 98.5225 4.15595 3.54884 0
M  V30 1006 H 95.6165 0.605239 0.563573 0
M  V30 1007 H 98.1625 1.62332 0.494627 0
M  V30 1008 H 96.9345 3.63275 1.45419 0
M  V30 1009 H 96.5575 2.7161 2.90368 0
M  V30 1010 N 97.5546 -0.734337 1.39446 0
M  V30 1011 C 98.8026 -1.49096 1.36436 0
M  V30 1012 C 99.1236 -1.94961 -0.0388255 0
M  V30 1013 O 98.3936 -1.69033 -0.990191 0
M  V30 1014 H 96.9736 -0.5531 0.502085 0
M  V30 1015 H 99.6356 -0.871725 1.74319 0
M  V30 1016 H 98.7316 -2.37276 2.02747 0
M  V30 1017 N 99.0327 -1.24633 -0.964593 0
M  V30 1018 C 99.9957 -1.0424 -2.04124 0
M  V30 1019 C 100.996 0.00137563 -1.608 0
M  V30 1020 O 102.186 -0.239883 -1.7254 0
M  V30 1021 C 99.3177 -0.580588 -3.3592 0
M  V30 1022 H 100.511 -1.99803 -2.23649 0
M  V30 1023 H 98.0637 -1.06899 -1.14027 0
M  V30 1024 H 98.7987 0.3781 -3.22088 0
M  V30 1025 H 98.5837 -1.33398 -3.6871 0
M  V30 1026 H 100.074 -0.459034 -4.15069 0
M  V30 1027 N 100.511 1.16574 -1.06058 0
M  V30 1028 C 101.788 1.83048 -0.689416 0
M  V30 1029 C 102.168 1.94122 0.829443 0
M  V30 1030 O 101.516 1.48249 1.7388 0
M  V30 1031 C 101.726 3.20186 -1.38859 0
M  V30 1032 C 103.074 3.95989 -1.53226 0
M  V30 1033 O 104.098 3.29696 -1.3483 0
M  V30 1034 O 102.957 5.14813 -1.83384 0
M  V30 1035 H 100.051 0.790258 -0.243764 0
M  V30 1036 H 102.597 1.23797 -1.16071 0
M  V30 1037 H 101.369 3.07146 -2.4244 0
M  V30 1038 H 100.992 3.87112 -0.907216 0
M  V30 1039 N 101.989 0.842826 1.3317 0
M  V30 1040 C 102.899 0.281444 2.32906 0
M  V30 1041 C 103.915 -0.594587 1.63526 0
M  V30 1042 O 105.091 -0.49777 1.95152 0
M  V30 1043 C 102.156 -0.530929 3.42611 0
M  V30 1044 C 101.217 0.369843 4.27704 0
M  V30 1045 C 100.45 -0.403853 5.3217 0
M  V30 1046 O 100.673 -1.63513 5.46461 0
M  V30 1047 O 99.6069 0.224199 6.01482 0
M  V30 1048 H 103.433 1.10744 2.82789 0
M  V30 1049 H 101.018 0.60545 1.36582 0
M  V30 1050 H 102.9 -0.992437 4.09547 0
M  V30 1051 H 101.575 -1.33392 2.94938 0
M  V30 1052 H 100.482 0.879275 3.6362 0
M  V30 1053 H 101.815 1.13771 4.78871 0
M  V30 1054 N 103.467 -1.45747 0.599634 0
M  V30 1055 C 104.43 -2.28917 -0.113835 0
M  V30 1056 C 105.43 -1.3933 -0.802729 0
M  V30 1057 O 106.62 -1.61534 -0.652103 0
M  V30 1058 C 103.752 -3.20152 -1.17114 0
M  V30 1059 H 104.945 -2.93478 0.617289 0
M  V30 1060 H 102.498 -1.52137 0.358327 0
M  V30 1061 H 103.233 -2.60374 -1.93329 0
M  V30 1062 H 103.018 -3.86133 -0.681468 0
M  V30 1063 H 104.508 -3.82708 -1.67105 0
M  V30 1064 N 104.945 -0.338344 -1.53925 0
M  V30 1065 C 105.855 0.529421 -2.28548 0
M  V30 1066 C 106.871 1.11645 -1.3346 0
M  V30 1067 O 108.047 1.13325 -1.66492 0
M  V30 1068 C 105.112 1.66713 -3.03987 0
M  V30 1069 C 104.173 1.11041 -4.14691 0
M  V30 1070 C 103.406 2.19389 -4.86522 0
M  V30 1071 O 103.629 3.40013 -4.57982 0
M  V30 1072 O 102.563 1.83976 -5.73094 0
M  V30 1073 H 106.389 -0.0770399 -3.03602 0
M  V30 1074 H 103.974 -0.103555 -1.49041 0
M  V30 1075 H 105.856 2.32918 -3.5118 0
M  V30 1076 H 104.531 2.25949 -2.31794 0
M  V30 1077 H 103.438 0.413024 -3.71813 0
M  V30 1078 H 104.771 0.562975 -4.8897 0
M  V30 1079 N 106.423 1.57458 -0.0668435 0
M  V30 1080 C 107.671 1.92919 0.602214 0
M  V30 1081 C 107.992 0.947215 1.70449 0
M  V30 1082 O 107.262 -0.00544117 1.95899 0
M  V30 1083 H 105.842 0.71217 0.22544 0
M  V30 1084 H 108.504 1.94508 -0.123535 0
M  V30 1085 H 107.6 2.94589 1.03073 0
M  V30 1086 N 107.901 -0.206675 1.56239 0
M  V30 1087 C 108.834 -1.28383 1.88661 0
M  V30 1088 C 109.812 -1.44504 0.745481 0
M  V30 1089 O 110.996 -1.60079 0.995336 0
M  V30 1090 C 108.123 -2.65211 2.10667 0
M  V30 1091 C 107.169 -2.66025 3.33366 0
M  V30 1092 S 108.002 -2.18609 4.88846 0
M  V30 1093 C 109.158 -3.57283 5.13906 0
M  V30 1094 H 109.391 -1.00691 2.7973 0
M  V30 1095 H 106.924 -0.409627 1.48867 0
M  V30 1096 H 108.882 -3.43979 2.24029 0
M  V30 1097 H 107.543 -2.90121 1.20369 0
M  V30 1098 H 106.736 -3.66607 3.45855 0
M  V30 1099 H 106.338 -1.95331 3.18938 0
M  V30 1100 H 108.63 -4.53074 5.03717 0
M  V30 1101 H 109.573 -3.49699 6.15724 0
M  V30 1102 H 109.981 -3.51659 4.41583 0
M  V30 1103 N 109.379 -1.50304 -0.473955 0
M  V30 1104 C 110.342 -1.6841 -1.55469 0
M  V30 1105 C 111.342 -0.554905 -1.50922 0
M  V30 1106 O 112.532 -0.821882 -1.53593 0
M  V30 1107 C 109.664 -1.70667 -2.95102 0
M  V30 1108 H 110.857 -2.64828 -1.40733 0
M  V30 1109 H 108.41 -1.39742 -0.700132 0
M  V30 1110 H 109.145 -0.75932 -3.15285 0
M  V30 1111 H 108.93 -2.52698 -2.9981 0
M  V30 1112 H 110.42 -1.8664 -3.73571 0
M  V30 1113 N 110.857 0.726932 -1.39834 0
M  V30 1114 C 111.82 1.82269 -1.38962 0
M  V30 1115 C 112.82 1.58248 -0.285334 0
M  V30 1116 O 114.01 1.65499 -0.54366 0
M  V30 1117 C 111.142 3.20186 -1.17019 0
M  V30 1118 H 112.335 1.84443 -2.36476 0
M  V30 1119 H 109.888 0.931416 -1.25516 0
M  V30 1120 H 110.623 3.23669 -0.202204 0
M  V30 1121 H 110.408 3.3902 -1.96998 0
M  V30 1122 H 111.898 4.00235 -1.1917 0
M  V30 1123 N 112.336 1.25143 0.95797 0
M  V30 1124 C 113.585 1.0909 1.69654 0
M  V30 1125 C 113.898 -0.368548 1.92097 0
M  V30 1126 O 115.104 -0.649455 2.63618 0
M  V30 1127 C 113.56 1.90395 3.05414 0
M  V30 1128 C 113.168 3.4081 2.90779 0
M  V30 1129 C 114.912 1.82901 3.83076 0
M  V30 1130 C 112.819 4.14423 4.21909 0
M  V30 1131 H 111.749 0.404625 0.636235 0
M  V30 1132 H 114.4 1.4931 1.06672 0
M  V30 1133 H 112.782 1.42996 3.69281 0
M  V30 1134 H 113.956 3.95859 2.35865 0
M  V30 1135 H 112.271 3.49361 2.26575 0
M  V30 1136 H 114.868 2.35196 4.80195 0
M  V30 1137 H 115.211 0.796224 4.08615 0
M  V30 1138 H 115.744 2.28033 3.25954 0
M  V30 1139 H 112.483 5.18102 4.01561 0
M  V30 1140 H 112.003 3.64159 4.76601 0
M  V30 1141 H 113.682 4.21956 4.90471 0
M  V30 1142 N 113.814 -1.1601 1.06675 0
M  V30 1143 C 115.06 -1.86909 0.786945 0
M  V30 1144 C 115.393 -1.81717 -0.685018 0
M  V30 1145 O 114.668 -1.23551 -1.50218 0
M  V30 1146 C 114.951 -3.36313 1.28707 0
M  V30 1147 C 114.804 -3.50175 2.82308 0
M  V30 1148 C 116.123 -4.3084 0.898071 0
M  V30 1149 H 113.242 -0.678677 0.287343 0
M  V30 1150 H 115.884 -1.36336 1.32334 0
M  V30 1151 H 114.034 -3.79513 0.830768 0
M  V30 1152 H 115.706 -3.15886 3.36175 0
M  V30 1153 H 113.949 -2.91959 3.20847 0
M  V30 1154 H 114.62 -4.55116 3.12368 0
M  V30 1155 H 117.096 -3.95561 1.29114 0
M  V30 1156 H 115.972 -5.33876 1.27543 0
M  V30 1157 H 116.233 -4.41662 -0.196651 0
M  V30 1158 N 115.292 -0.849877 -1.32721 0
M  V30 1159 C 116.202 -0.293791 -2.32753 0
M  V30 1160 C 117.218 0.585906 -1.63839 0
M  V30 1161 O 118.394 0.487413 -1.95413 0
M  V30 1162 C 115.459 0.512752 -3.42887 0
M  V30 1163 C 114.52 -0.39252 -4.27502 0
M  V30 1164 C 113.753 0.375625 -5.32377 0
M  V30 1165 O 113.976 1.60613 -5.4732 0
M  V30 1166 O 112.91 -0.256094 -6.01355 0
M  V30 1167 H 116.736 -1.12242 -2.82197 0
M  V30 1168 H 114.321 -0.612685 -1.36259 0
M  V30 1169 H 116.203 0.970704 -4.10067 0
M  V30 1170 H 114.878 1.31826 -2.95641 0
M  V30 1171 H 113.785 -0.898547 -3.63149 0
M  V30 1172 H 115.118 -1.16309 -4.7826 0
M  V30 1173 N 116.77 1.45427 -0.607355 0
M  V30 1174 C 117.998 2.06614 -0.108814 0
M  V30 1175 C 118.413 1.45204 1.2067 0
M  V30 1176 O 117.77 0.566132 1.73497 0
M  V30 1177 C 117.821 3.61481 0.0375347 0
M  V30 1178 O 117.542 4.20598 -1.22593 0
M  V30 1179 C 119.043 4.39652 0.567561 0
M  V30 1180 H 116.263 0.66747 -0.0687351 0
M  V30 1181 H 118.807 1.86675 -0.835022 0
M  V30 1182 H 116.962 3.80762 0.714068 0
M  V30 1183 H 117.376 5.1377 -1.05547 0
M  V30 1184 H 118.85 5.48518 0.61905 0
M  V30 1185 H 119.327 4.09417 1.58978 0
M  V30 1186 H 119.933 4.25234 -0.0749202 0
M  V30 1187 N 118.248 0.346503 1.53744 0
M  V30 1188 C 119.178 -0.501193 2.28058 0
M  V30 1189 C 120.159 -1.10014 1.29734 0
M  V30 1190 O 121.344 -1.12097 1.58581 0
M  V30 1191 C 118.474 -1.65078 3.05559 0
M  V30 1192 C 117.428 -1.18003 4.11411 0
M  V30 1193 C 116.754 -2.41837 4.76884 0
M  V30 1194 C 118.054 -0.278394 5.21558 0
M  V30 1195 H 119.748 0.11875 2.99164 0
M  V30 1196 H 117.294 0.0585531 1.43881 0
M  V30 1197 H 119.247 -2.25028 3.56287 0
M  V30 1198 H 117.971 -2.29767 2.32109 0
M  V30 1199 H 116.63 -0.603331 3.61601 0
M  V30 1200 H 116.278 -3.0494 4.00026 0
M  V30 1201 H 115.978 -2.1102 5.48402 0
M  V30 1202 H 117.502 -3.02508 5.30397 0
M  V30 1203 H 118.916 -0.784823 5.67903 0
M  V30 1204 H 117.313 -0.0619707 6.00068 0
M  V30 1205 H 118.383 0.684677 4.80042 0
M  V30 1206 N 119.726 -1.57421 0.075193 0
M  V30 1207 C 120.658 -2.09904 -0.920483 0
M  V30 1208 C 121.671 -1.03191 -1.25918 0
M  V30 1209 O 122.86 -1.30695 -1.21577 0
M  V30 1210 C 119.96 -2.54726 -2.23534 0
M  V30 1211 C 119.133 -3.8505 -2.07498 0
M  V30 1212 C 118.192 -4.15929 -3.22319 0
M  V30 1213 O 117.218 -4.85474 -2.9716 0
M  V30 1214 N 118.42 -3.69745 -4.47514 0
M  V30 1215 H 121.185 -2.95954 -0.472359 0
M  V30 1216 H 118.746 -1.61523 -0.110444 0
M  V30 1217 H 120.738 -2.72443 -2.9926 0
M  V30 1218 H 119.308 -1.73795 -2.59835 0
M  V30 1219 H 118.528 -3.76679 -1.16219 0
M  V30 1220 H 119.816 -4.70348 -1.94038 0
M  V30 1221 H 119.214 -3.13569 -4.7084 0
M  V30 1222 H 117.771 -3.92655 -5.20255 0
M  V30 1223 N 121.204 0.198386 -1.56346 0
M  V30 1224 C 122.151 1.24589 -1.94284 0
M  V30 1225 C 123.121 1.454 -0.802997 0
M  V30 1226 O 124.306 1.58588 -1.06087 0
M  V30 1227 C 121.446 2.58631 -2.28482 0
M  V30 1228 C 120.559 2.45426 -3.55514 0
M  V30 1229 C 119.694 3.7215 -3.79049 0
M  V30 1230 C 118.733 3.53763 -4.99518 0
M  V30 1231 N 117.87 4.72491 -5.19323 0
M  V30 1232 H 122.71 0.915356 -2.83593 0
M  V30 1233 H 120.247 0.440629 -1.40346 0
M  V30 1234 H 122.205 3.3672 -2.46324 0
M  V30 1235 H 120.835 2.89734 -1.42317 0
M  V30 1236 H 119.887 1.58652 -3.45737 0
M  V30 1237 H 121.199 2.27772 -4.43758 0
M  V30 1238 H 120.353 4.58679 -3.97113 0
M  V30 1239 H 119.092 3.92754 -2.89129 0
M  V30 1240 H 118.097 2.65619 -4.8138 0
M  V30 1241 H 119.322 3.34607 -5.90944 0
M  V30 1242 H 117.268 4.93365 -4.3235 0
M  V30 1243 H 117.185 4.5765 -6.01741 0
M  V30 1244 H 118.453 5.6038 -5.41843 0
M  V30 1245 N 122.682 1.50554 0.465978 0
M  V30 1246 C 123.592 1.72585 1.58907 0
M  V30 1247 C 124.608 0.60911 1.6299 0
M  V30 1248 O 125.784 0.88804 1.80765 0
M  V30 1249 C 122.849 1.81995 2.95091 0
M  V30 1250 C 121.91 3.05751 3.01355 0
M  V30 1251 C 121.143 3.14702 4.31043 0
M  V30 1252 O 121.366 2.30313 5.21835 0
M  V30 1253 O 120.3 4.07468 4.43005 0
M  V30 1254 H 124.126 2.67799 1.43239 0
M  V30 1255 H 121.711 1.34711 0.646013 0
M  V30 1256 H 123.593 1.90335 3.75966 0
M  V30 1257 H 122.268 0.899659 3.10947 0
M  V30 1258 H 121.175 3.02908 2.19539 0
M  V30 1259 H 122.508 3.97375 2.90437 0
M  V30 1260 N 124.16 -0.719506 1.40217 0
M  V30 1261 C 125.408 -1.47641 1.3801 0
M  V30 1262 C 125.729 -1.94992 -0.018145 0
M  V30 1263 O 124.999 -1.70073 -0.972207 0
M  V30 1264 H 123.579 -0.547744 0.507923 0
M  V30 1265 H 126.241 -0.853187 1.75233 0
M  V30 1266 H 125.337 -2.35112 2.05253 0
M  V30 1267 N 125.638 -1.25649 -0.95132 0
M  V30 1268 C 126.568 -1.08808 -2.06599 0
M  V30 1269 C 127.549 0.00382547 -1.701 0
M  V30 1270 O 128.734 -0.166325 -1.93486 0
M  V30 1271 C 125.864 -0.709542 -3.39975 0
M  V30 1272 C 124.818 -1.75206 -3.90496 0
M  V30 1273 C 124.144 -1.22811 -5.20405 0
M  V30 1274 C 125.444 -3.15153 -4.16504 0
M  V30 1275 H 127.138 -2.02048 -2.20946 0
M  V30 1276 H 124.684 -0.972835 -1.06169 0
M  V30 1277 H 126.637 -0.578649 -4.17408 0
M  V30 1278 H 125.361 0.258556 -3.25575 0
M  V30 1279 H 124.02 -1.87145 -3.15234 0
M  V30 1280 H 123.668 -0.250145 -5.02378 0
M  V30 1281 H 123.368 -1.92492 -5.55176 0
M  V30 1282 H 124.892 -1.10968 -6.00432 0
M  V30 1283 H 126.306 -3.06349 -4.84586 0
M  V30 1284 H 124.703 -3.82333 -4.62538 0
M  V30 1285 H 125.773 -3.61966 -3.22658 0
M  V30 1286 N 127.117 1.15442 -1.07289 0
M  V30 1287 C 128.08 2.18358 -0.696591 0
M  V30 1288 C 129.08 1.58637 0.262837 0
M  V30 1289 O 130.27 1.74145 0.0438809 0
M  V30 1290 C 127.402 3.4089 -0.0266151 0
M  V30 1291 H 128.595 2.53162 -1.60776 0
M  V30 1292 H 126.148 1.29893 -0.869342 0
M  V30 1293 H 126.883 3.11653 0.896822 0
M  V30 1294 H 126.668 3.85495 -0.716657 0
M  V30 1295 H 128.158 4.17009 0.222028 0
M  V30 1296 N 128.595 0.856903 1.32268 0
M  V30 1297 C 129.505 0.306131 2.32594 0
M  V30 1298 C 130.521 -0.577209 1.64147 0
M  V30 1299 O 131.697 -0.477043 1.95669 0
M  V30 1300 C 128.762 -0.494561 3.43154 0
M  V30 1301 C 127.823 0.415186 4.27288 0
M  V30 1302 C 127.056 -0.347387 5.32568 0
M  V30 1303 O 127.279 -1.57708 5.48165 0
M  V30 1304 O 126.213 0.287982 6.01211 0
M  V30 1305 H 130.039 1.13737 2.81598 0
M  V30 1306 H 127.624 0.619902 1.35932 0
M  V30 1307 H 129.506 -0.948944 4.10576 0
M  V30 1308 H 128.181 -1.30257 2.96336 0
M  V30 1309 H 127.088 0.917793 3.62667 0
M  V30 1310 H 128.421 1.18844 4.77637 0
M  V30 1311 O 130.112 -1.4275 0.755297 0
M  V30 1312 H 130.803 -1.91143 0.313685 0
M  V30 END ATOM
M  V30 BEGIN BOND
M  V30 END BOND
M  V30 END CTAB
M  END
$$$$
