drugbank_target|Q7Z4W1 L-xylulose reductase (DB02831; DB03461)
 OpenBabel12092119423D

  0  0  0     0  0            999 V3000
M  V30 BEGIN CTAB
M  V30 COUNTS 3682 3710 0 0 0
M  V30 BEGIN ATOM
M  V30 1 H -0.908 1.98254 -0.117106 0
M  V30 2 N 0 1.576 0 0
M  V30 3 C 0.933 2.03868 1.02534 0
M  V30 4 C 1.911 0.928543 1.3348 0
M  V30 5 O 3.095 1.19667 1.45644 0
M  V30 6 C 0.222 2.43627 2.35294 0
M  V30 7 C -0.732 3.65373 2.2001 0
M  V30 8 S 0.101 5.13292 1.52614 0
M  V30 9 C 1.257 5.56322 2.86805 0
M  V30 10 H 1.49 2.90518 0.631377 0
M  V30 11 H -0.977 1.52953 0.210867 0
M  V30 12 H 0.981 2.67203 3.11629 0
M  V30 13 H -0.358 1.57376 2.7183 0
M  V30 14 H -1.165 3.90944 3.18086 0
M  V30 15 H -1.563 3.418 1.51819 0
M  V30 16 H 0.729 5.58782 3.83104 0
M  V30 17 H 1.672 6.56266 2.65933 0
M  V30 18 H 2.08 4.83886 2.90714 0
M  V30 19 N 1.4781 -0.272755 1.55222 0
M  V30 20 C 2.3881 -1.35918 1.91216 0
M  V30 21 C 3.4041 -1.54026 0.809436 0
M  V30 22 O 4.5801 -1.68148 1.10852 0
M  V30 23 C 1.6451 -2.69834 2.17693 0
M  V30 24 C 0.7061 -2.6047 3.41253 0
M  V30 25 C -0.0609 -3.88 3.66458 0
M  V30 26 O 0.1621 -4.88693 2.94169 0
M  V30 27 O -0.9039 -3.88189 4.59992 0
M  V30 28 H 2.9221 -1.0839 2.83699 0
M  V30 29 H 0.5071 -0.471301 1.41771 0
M  V30 30 H 2.3891 -3.49017 2.36147 0
M  V30 31 H 1.0641 -2.97148 1.28392 0
M  V30 32 H -0.0289 -1.79663 3.28134 0
M  V30 33 H 1.3041 -2.38106 4.30774 0
M  V30 34 N 2.9562 -1.48159 -0.537278 0
M  V30 35 C 3.8862 -1.65029 -1.6519 0
M  V30 36 C 4.8672 -0.499281 -1.62607 0
M  V30 37 O 6.0522 -0.730972 -1.79918 0
M  V30 38 C 3.1822 -1.68303 -3.03795 0
M  V30 39 C 2.1362 -2.8283 -3.21234 0
M  V30 40 C 1.4622 -2.71189 -4.60826 0
M  V30 41 C 2.7622 -4.24211 -3.04701 0
M  V30 42 H 4.4562 -2.58341 -1.51328 0
M  V30 43 H 2.0022 -1.24325 -0.726585 0
M  V30 44 H 3.9552 -1.78693 -3.81637 0
M  V30 45 H 2.6792 -0.715635 -3.18663 0
M  V30 46 H 1.3382 -2.71983 -2.45807 0
M  V30 47 H 0.9862 -1.72435 -4.7252 0
M  V30 48 H 0.6862 -3.48035 -4.7344 0
M  V30 49 H 2.2102 -2.83537 -5.40777 0
M  V30 50 H 3.6242 -4.3593 -3.72341 0
M  V30 51 H 2.0212 -5.01998 -3.28813 0
M  V30 52 H 3.0912 -4.41184 -2.01209 0
M  V30 53 N 4.4343 0.785586 -1.36625 0
M  V30 54 C 5.6813 1.54362 -1.31067 0
M  V30 55 C 6.0093 1.94195 0.10893 0
M  V30 56 O 5.2643 1.63262 1.07908 0
M  V30 57 C 5.5633 2.83007 -2.1827 0
M  V30 58 C 5.2293 2.62294 -3.6676 0
M  V30 59 C 3.8913 2.56353 -4.0723 0
M  V30 60 C 6.2433 2.43371 -4.6089 0
M  V30 61 C 3.5713 2.29461 -5.39967 0
M  V30 62 C 5.9233 2.18005 -5.93849 0
M  V30 63 C 4.5873 2.105 -6.3344 0
M  V30 64 H 3.8573 0.564851 -0.479609 0
M  V30 65 H 6.5043 0.906028 -1.68711 0
M  V30 66 H 4.8093 3.51253 -1.73576 0
M  V30 67 H 6.5063 3.40817 -2.11292 0
M  V30 68 H 3.0963 2.67774 -3.34656 0
M  V30 69 H 7.2803 2.46959 -4.30494 0
M  V30 70 H 2.5363 2.22135 -5.69619 0
M  V30 71 H 6.7103 2.02359 -6.66351 0
M  V30 72 H 4.3373 1.89425 -7.36222 0
M  V30 73 N 5.9124 1.20967 1.01018 0
M  V30 74 C 6.8424 0.988272 2.11555 0
M  V30 75 C 7.8234 -0.0849778 1.69888 0
M  V30 76 O 9.0084 0.0738202 1.9406 0
M  V30 77 C 6.1384 0.546528 3.42973 0
M  V30 78 C 5.0924 1.56375 3.9841 0
M  V30 79 C 4.4184 0.97842 5.25672 0
M  V30 80 C 5.7184 2.94922 4.31066 0
M  V30 81 H 7.4124 1.91276 2.30334 0
M  V30 82 H 4.9584 0.921073 1.1069 0
M  V30 83 H 6.9114 0.378839 4.19694 0
M  V30 84 H 5.6354 -0.413598 3.23971 0
M  V30 85 H 4.2944 1.71891 3.23804 0
M  V30 86 H 3.9424 0.0101688 5.02999 0
M  V30 87 H 3.6424 1.65784 5.63728 0
M  V30 88 H 5.1664 0.821939 6.05043 0
M  V30 89 H 6.5804 2.8288 4.9865 0
M  V30 90 H 4.9774 3.5983 4.80253 0
M  V30 91 H 6.0474 3.4616 3.39561 0
M  V30 92 N 7.3905 -1.2043 1.01659 0
M  V30 93 C 8.3535 -2.21433 0.591616 0
M  V30 94 C 9.3535 -1.57203 -0.338226 0
M  V30 95 O 10.5435 -1.73737 -0.126918 0
M  V30 96 C 7.6755 -3.40628 -0.136058 0
M  V30 97 H 8.8685 -2.60545 1.48514 0
M  V30 98 H 6.4215 -1.33893 0.806379 0
M  V30 99 H 7.1565 -3.07019 -1.04449 0
M  V30 100 H 6.9415 -3.88475 0.531917 0
M  V30 101 H 8.4315 -4.15475 -0.420735 0
M  V30 102 N 8.8686 -0.792821 -1.36206 0
M  V30 103 C 10.1166 -0.366062 -1.98757 0
M  V30 104 C 10.4376 1.0668 -1.63231 0
M  V30 105 O 9.7076 1.73587 -0.907978 0
M  V30 106 H 8.2876 -0.132364 -0.735179 0
M  V30 107 H 10.9496 -1.01562 -1.66347 0
M  V30 108 H 10.0456 -0.460638 -3.08682 0
M  V30 109 N 10.3467 1.47872 -0.545128 0
M  V30 110 C 11.7627 1.5829 -0.204032 0
M  V30 111 C 11.9627 1.54529 1.29317 0
M  V30 112 O 11.0187 1.44232 2.07252 0
M  V30 113 C 12.3317 2.89304 -0.819987 0
M  V30 114 C 13.8797 3.02864 -0.790105 0
M  V30 115 C 14.3547 4.3656 -1.38491 0
M  V30 116 N 15.8457 4.43165 -1.34755 0
M  V30 117 C 16.5807 5.45153 -1.77753 0
M  V30 118 N 16.0767 6.54016 -2.2855 0
M  V30 119 N 17.8697 5.36125 -1.68897 0
M  V30 120 H 10.0207 1.4856 -1.51802 0
M  V30 121 H 12.2837 0.706305 -0.632327 0
M  V30 122 H 11.9897 2.97757 -1.87173 0
M  V30 123 H 11.8637 3.75957 -0.305915 0
M  V30 124 H 14.2507 2.94014 0.252913 0
M  V30 125 H 14.3317 2.17782 -1.34181 0
M  V30 126 H 13.9757 4.46164 -2.42693 0
M  V30 127 H 13.9057 5.20353 -0.808754 0
M  V30 128 H 16.3967 3.65083 -0.975855 0
M  V30 129 H 16.7097 7.27994 -2.59314 0
M  V30 130 H 15.0547 6.54938 -2.32553 0
M  V30 131 H 18.2457 4.49975 -1.28998 0
M  V30 132 H 18.4187 6.15472 -2.02726 0
M  V30 133 N 11.8248 0.280983 1.55075 0
M  V30 134 C 13.2408 -0.0729964 1.59433 0
M  V30 135 C 13.4408 -1.5411 1.29817 0
M  V30 136 O 12.4968 -2.29086 1.06187 0
M  V30 137 C 13.8098 0.306921 2.9913 0
M  V30 138 C 15.3578 0.254023 3.11968 0
M  V30 139 C 15.8328 0.608467 4.5394 0
M  V30 140 N 17.3238 0.560241 4.59799 0
M  V30 141 C 18.0588 0.80722 5.6769 0
M  V30 142 N 17.5548 1.11912 6.83701 0
M  V30 143 N 19.3478 0.735623 5.57266 0
M  V30 144 H 11.4988 1.238 1.7259 0
M  V30 145 H 13.7618 0.500547 0.805082 0
M  V30 146 H 13.4678 1.32816 3.25657 0
M  V30 147 H 13.3418 -0.349363 3.75579 0
M  V30 148 H 15.7288 -0.75794 2.852 0
M  V30 149 H 15.8098 0.944649 2.37718 0
M  V30 150 H 15.4538 1.61814 4.81434 0
M  V30 151 H 15.3838 -0.104013 5.26497 0
M  V30 152 H 17.8748 0.329288 3.76463 0
M  V30 153 H 18.1878 1.29409 7.61888 0
M  V30 154 H 16.5328 1.15695 6.85303 0
M  V30 155 H 19.7238 0.491752 4.6551 0
M  V30 156 H 19.8968 0.931482 6.4127 0
M  V30 157 N 13.3029 -1.57598 0.00835791 0
M  V30 158 C 14.5489 -1.91211 -0.675732 0
M  V30 159 C 14.8819 -0.883139 -1.72958 0
M  V30 160 O 14.1569 0.097016 -1.94258 0
M  V30 161 C 14.4399 -3.35379 -1.31123 0
M  V30 162 C 14.2929 -4.48999 -0.268356 0
M  V30 163 C 15.6119 -3.7912 -2.23508 0
M  V30 164 H 12.7309 -0.695374 -0.244179 0
M  V30 165 H 15.3729 -1.89901 0.0613655 0
M  V30 166 H 13.5229 -3.36626 -1.93946 0
M  V30 167 H 15.1949 -4.59887 0.360844 0
M  V30 168 H 13.4379 -4.31873 0.408482 0
M  V30 169 H 14.1089 -5.46851 -0.752218 0
M  V30 170 H 16.5849 -3.79477 -1.70693 0
M  V30 171 H 15.4609 -4.80729 -2.64936 0
M  V30 172 H 15.7219 -3.13455 -3.11766 0
M  V30 173 N 14.781 0.264519 -1.55364 0
M  V30 174 C 15.711 1.33121 -1.91836 0
M  V30 175 C 16.692 1.51101 -0.781192 0
M  V30 176 O 17.877 1.64003 -1.04003 0
M  V30 177 C 15.007 2.68921 -2.19769 0
M  V30 178 C 13.961 2.65661 -3.35571 0
M  V30 179 C 13.287 4.05093 -3.49004 0
M  V30 180 C 14.587 2.24187 -4.71739 0
M  V30 181 H 16.281 1.02844 -2.81182 0
M  V30 182 H 13.827 0.493286 -1.35287 0
M  V30 183 H 15.78 3.43663 -2.43872 0
M  V30 184 H 14.504 3.00799 -1.27231 0
M  V30 185 H 13.163 1.93377 -3.1145 0
M  V30 186 H 12.811 4.34206 -2.53917 0
M  V30 187 H 12.511 4.03804 -4.26868 0
M  V30 188 H 14.035 4.81561 -3.75408 0
M  V30 189 H 15.449 2.88654 -4.9533 0
M  V30 190 H 13.846 2.34044 -5.52579 0
M  V30 191 H 14.916 1.19327 -4.69988 0
M  V30 192 N 16.2591 1.48442 0.529413 0
M  V30 193 C 17.5051 1.5672 1.28711 0
M  V30 194 C 17.8381 0.2406 1.92704 0
M  V30 195 O 17.1131 -0.753454 1.79313 0
M  V30 196 C 17.3961 2.70587 2.37603 0
M  V30 197 C 17.2491 4.12953 1.78297 0
M  V30 198 C 18.5681 2.80212 3.39366 0
M  V30 199 H 15.6871 0.570474 0.466613 0
M  V30 200 H 18.3291 1.80617 0.589706 0
M  V30 201 H 16.4791 2.50342 2.97088 0
M  V30 202 H 18.1511 4.44639 1.22858 0
M  V30 203 H 16.3941 4.19927 1.0883 0
M  V30 204 H 17.0651 4.88448 2.57144 0
M  V30 205 H 19.5411 2.98553 2.89836 0
M  V30 206 H 18.4171 3.61611 4.12951 0
M  V30 207 H 18.6781 1.88393 3.99951 0
M  V30 208 N 17.7372 -0.778329 1.37039 0
M  V30 209 C 18.9652 -1.56734 1.35063 0
M  V30 210 C 19.3802 -1.88686 -0.0655597 0
M  V30 211 O 18.7372 -1.5096 -1.02554 0
M  V30 212 C 18.7882 -2.88163 2.18276 0
M  V30 213 O 18.5092 -2.57583 3.54376 0
M  V30 214 C 20.0102 -3.82422 2.24206 0
M  V30 215 H 17.2302 -0.485778 0.462883 0
M  V30 216 H 19.7742 -0.965185 1.8029 0
M  V30 217 H 17.9292 -3.44818 1.76576 0
M  V30 218 H 18.3432 -3.41699 3.97922 0
M  V30 219 H 19.8172 -4.71667 2.86765 0
M  V30 220 H 20.2942 -4.21078 1.24861 0
M  V30 221 H 20.9002 -3.31697 2.6619 0
M  V30 222 N 19.2153 -1.21501 -1.00376 0
M  V30 223 C 20.4633 -1.03095 -1.73827 0
M  V30 224 C 20.7843 0.436341 -1.90055 0
M  V30 225 O 20.0543 1.31466 -1.45236 0
M  V30 226 H 18.6343 -0.378487 -0.644016 0
M  V30 227 H 21.2963 -1.52831 -1.20949 0
M  V30 228 H 20.3923 -1.49991 -2.73695 0
M  V30 229 N 20.6934 1.19889 -1.02296 0
M  V30 230 C 21.6564 2.21116 -0.603351 0
M  V30 231 C 22.6564 1.5738 0.329884 0
M  V30 232 O 23.8464 1.73802 0.117702 0
M  V30 233 C 20.9784 3.40696 0.117992 0
M  V30 234 H 22.1714 2.59754 -1.49893 0
M  V30 235 H 19.7244 1.33463 -0.813468 0
M  V30 236 H 20.4594 3.07569 1.0282 0
M  V30 237 H 20.2444 3.88188 -0.552511 0
M  V30 238 H 21.7344 4.15692 0.398696 0
M  V30 239 N 22.1715 0.800033 1.35784 0
M  V30 240 C 23.4195 0.376597 1.9856 0
M  V30 241 C 23.7405 -1.05812 1.63795 0
M  V30 242 O 23.0105 -1.73103 0.917171 0
M  V30 243 H 21.5905 0.136261 0.734467 0
M  V30 244 H 24.2525 1.02442 1.65806 0
M  V30 245 H 23.3485 0.477002 3.08433 0
M  V30 246 N 23.6496 -1.47581 0.552962 0
M  V30 247 C 24.5966 -2.29957 -0.197108 0
M  V30 248 C 25.5666 -1.38799 -0.912359 0
M  V30 249 O 26.7516 -1.67761 -0.908888 0
M  V30 250 C 23.8916 -3.22672 -1.22379 0
M  V30 251 C 23.0046 -4.28919 -0.515038 0
M  V30 252 C 22.1396 -5.0879 -1.52664 0
M  V30 253 C 21.1786 -6.06815 -0.802631 0
M  V30 254 N 20.3156 -6.7966 -1.76086 0
M  V30 255 H 25.1556 -2.93578 0.511486 0
M  V30 256 H 22.6926 -1.4471 0.264067 0
M  V30 257 H 24.6506 -3.74845 -1.83159 0
M  V30 258 H 23.2806 -2.60925 -1.90047 0
M  V30 259 H 22.3326 -3.79835 0.207192 0
M  V30 260 H 23.6446 -4.98773 0.0523425 0
M  V30 261 H 22.7986 -5.65091 -2.20809 0
M  V30 262 H 21.5376 -4.38828 -2.12794 0
M  V30 263 H 20.5426 -5.49695 -0.107238 0
M  V30 264 H 21.7676 -6.78784 -0.207135 0
M  V30 265 H 19.7136 -6.12432 -2.35081 0
M  V30 266 H 19.6306 -7.45669 -1.24552 0
M  V30 267 H 20.8986 -7.40538 -2.43359 0
M  V30 268 N 25.1277 -0.289203 -1.54924 0
M  V30 269 C 26.3757 0.322879 -1.99504 0
M  V30 270 C 26.6967 1.55313 -1.1791 0
M  V30 271 O 25.9667 1.94001 -0.272097 0
M  V30 272 H 24.5467 0.122291 -0.736922 0
M  V30 273 H 27.2087 -0.397802 -1.90797 0
M  V30 274 H 26.3047 0.603061 -3.06218 0
M  V30 275 N 26.6058 1.57591 -0.0167156 0
M  V30 276 C 27.8548 1.90461 0.663877 0
M  V30 277 C 28.1678 0.893515 1.73999 0
M  V30 278 O 29.3738 1.11302 2.47637 0
M  V30 279 C 27.8298 3.38155 1.23204 0
M  V30 280 C 27.4378 4.47597 0.189866 0
M  V30 281 C 29.1818 3.80111 1.88986 0
M  V30 282 C 27.0888 5.86379 0.768964 0
M  V30 283 H 26.0188 0.710738 0.251729 0
M  V30 284 H 28.6698 1.83326 -0.0799926 0
M  V30 285 H 27.0518 3.40182 2.02712 0
M  V30 286 H 28.2258 4.57112 -0.581846 0
M  V30 287 H 26.5408 4.14766 -0.368475 0
M  V30 288 H 29.1378 4.81145 2.33247 0
M  V30 289 H 29.4808 3.14511 2.72743 0
M  V30 290 H 30.0138 3.80454 1.16187 0
M  V30 291 H 26.7528 6.55493 -0.0301957 0
M  V30 292 H 26.2728 5.80496 1.50945 0
M  V30 293 H 27.9518 6.34563 1.26251 0
M  V30 294 N 28.0839 -0.256276 1.55502 0
M  V30 295 C 29.3319 -0.983672 1.76545 0
M  V30 296 C 29.6529 -1.86206 0.578982 0
M  V30 297 O 28.9229 -1.91656 -0.405577 0
M  V30 298 H 27.5029 -0.366191 0.651086 0
M  V30 299 H 30.1649 -0.276479 1.92929 0
M  V30 300 H 29.2609 -1.61087 2.67315 0
M  V30 301 N 29.562 -1.4872 -0.521534 0
M  V30 302 C 30.978 -1.35028 -0.850855 0
M  V30 303 C 31.178 -0.367712 -1.98116 0
M  V30 304 O 30.234 0.208037 -2.51642 0
M  V30 305 C 31.547 -2.75263 -1.21041 0
M  V30 306 C 33.095 -2.83813 -1.31981 0
M  V30 307 C 33.57 -4.24769 -1.71276 0
M  V30 308 N 35.061 -4.27482 -1.78363 0
M  V30 309 C 35.796 -5.33494 -2.1017 0
M  V30 310 N 35.292 -6.49775 -2.40343 0
M  V30 311 N 37.085 -5.20894 -2.11248 0
M  V30 312 H 29.236 -2.11214 0.22413 0
M  V30 313 H 31.499 -0.947252 0.0376439 0
M  V30 314 H 31.205 -3.48765 -0.453415 0
M  V30 315 H 31.079 -3.09327 -2.15863 0
M  V30 316 H 33.466 -2.10561 -2.06756 0
M  V30 317 H 33.547 -2.53358 -0.352596 0
M  V30 318 H 33.191 -4.9854 -0.970588 0
M  V30 319 H 33.121 -4.52673 -2.69062 0
M  V30 320 H 35.612 -3.43611 -1.57288 0
M  V30 321 H 35.925 -7.26402 -2.63743 0
M  V30 322 H 34.27 -6.53035 -2.37844 0
M  V30 323 H 37.461 -4.29065 -1.87139 0
M  V30 324 H 37.634 -6.03612 -2.35704 0
M  V30 325 N 31.0401 0.771051 -1.3745 0
M  V30 326 C 32.2881 1.52661 -1.32435 0
M  V30 327 C 32.6091 1.9479 0.0905024 0
M  V30 328 O 31.8791 1.66348 1.03466 0
M  V30 329 H 30.4591 0.566218 -0.487244 0
M  V30 330 H 33.1211 0.917636 -1.71946 0
M  V30 331 H 32.2171 2.42568 -1.96385 0
M  V30 332 N 32.5182 1.22032 0.997298 0
M  V30 333 C 33.7462 1.06841 1.7718 0
M  V30 334 C 34.1612 -0.381325 1.84909 0
M  V30 335 O 33.5182 -1.26437 1.31605 0
M  V30 336 C 33.5692 1.66814 3.20711 0
M  V30 337 O 33.2902 3.06116 3.13408 0
M  V30 338 C 34.7912 1.56838 4.14628 0
M  V30 339 H 32.0112 0.374782 0.556578 0
M  V30 340 H 34.5552 1.61532 1.2541 0
M  V30 341 H 32.7102 1.16196 3.69564 0
M  V30 342 H 33.1242 3.34926 4.0364 0
M  V30 343 H 34.5982 2.03532 5.13107 0
M  V30 344 H 35.0752 0.524155 4.36061 0
M  V30 345 H 35.6812 2.06741 3.7167 0
M  V30 346 N 33.9963 -1.19345 1.0293 0
M  V30 347 C 35.2423 -1.89318 0.727083 0
M  V30 348 C 35.5753 -1.79446 -0.742483 0
M  V30 349 O 34.8503 -1.1871 -1.54072 0
M  V30 350 C 35.1333 -3.40238 1.17942 0
M  V30 351 C 34.9863 -3.58979 2.71024 0
M  V30 352 C 36.3053 -4.33479 0.760548 0
M  V30 353 H 33.4243 -0.687475 0.265606 0
M  V30 354 H 36.0663 -1.40477 1.2793 0
M  V30 355 H 34.2163 -3.81964 0.709608 0
M  V30 356 H 35.8883 -3.26421 3.25955 0
M  V30 357 H 34.1313 -3.02018 3.11396 0
M  V30 358 H 34.8023 -4.64823 2.9773 0
M  V30 359 H 37.2783 -3.99469 1.16464 0
M  V30 360 H 36.1543 -5.37664 1.10493 0
M  V30 361 H 36.4153 -4.40813 -0.337063 0
M  V30 362 N 35.4744 -0.807222 -1.35358 0
M  V30 363 C 36.4064 -0.175717 -2.28525 0
M  V30 364 C 37.4194 0.625354 -1.5031 0
M  V30 365 O 38.6084 0.457611 -1.72535 0
M  V30 366 C 35.7084 0.773471 -3.29956 0
M  V30 367 C 34.8814 0.0186296 -4.37396 0
M  V30 368 C 33.9404 0.886395 -5.18681 0
M  V30 369 O 32.9664 0.337106 -5.68201 0
M  V30 370 N 34.1684 2.20839 -5.36852 0
M  V30 371 H 36.9334 -0.976091 -2.83359 0
M  V30 372 H 34.4944 -0.662737 -1.47714 0
M  V30 373 H 36.4864 1.35824 -3.81227 0
M  V30 374 H 35.0564 1.47465 -2.75632 0
M  V30 375 H 34.2764 -0.747349 -3.87051 0
M  V30 376 H 35.5644 -0.501577 -5.06322 0
M  V30 377 H 34.9624 2.67858 -4.98265 0
M  V30 378 H 33.5194 2.74237 -5.91301 0
M  V30 379 N 36.9525 1.47285 -0.560781 0
M  V30 380 C 37.9155 2.28535 0.174488 0
M  V30 381 C 38.9155 1.37153 0.839388 0
M  V30 382 O 40.1055 1.59748 0.694702 0
M  V30 383 C 37.2375 3.16934 1.25561 0
M  V30 384 H 38.4305 2.95012 -0.539262 0
M  V30 385 H 35.9835 1.53034 -0.317865 0
M  V30 386 H 36.7185 2.55157 2.00164 0
M  V30 387 H 36.5035 3.8419 0.783604 0
M  V30 388 H 37.9935 3.78143 1.77193 0
M  V30 389 N 38.4306 0.297415 1.54768 0
M  V30 390 C 39.3606 -0.573494 2.26348 0
M  V30 391 C 40.3416 -1.14085 1.26169 0
M  V30 392 O 41.5266 -1.17086 1.54934 0
M  V30 393 C 38.6566 -1.74716 3.00153 0
M  V30 394 C 37.6106 -1.31032 4.07449 0
M  V30 395 C 36.9366 -2.56887 4.68949 0
M  V30 396 C 38.2366 -0.444183 5.20408 0
M  V30 397 H 39.9306 0.0235131 2.99391 0
M  V30 398 H 37.4766 0.0127488 1.43994 0
M  V30 399 H 39.4296 -2.3625 3.48947 0
M  V30 400 H 38.1536 -2.37035 2.24682 0
M  V30 401 H 36.8126 -0.718066 3.59499 0
M  V30 402 H 36.4606 -3.17512 3.90122 0
M  V30 403 H 36.1606 -2.2836 5.41411 0
M  V30 404 H 37.6846 -3.19229 5.20505 0
M  V30 405 H 39.0986 -0.9651 5.65118 0
M  V30 406 H 37.4956 -0.252846 5.99567 0
M  V30 407 H 38.5656 0.531609 4.81977 0
M  V30 408 N 39.9087 -1.5758 0.0250728 0
M  V30 409 C 40.8587 -2.06468 -0.967201 0
M  V30 410 C 41.8427 -0.964376 -1.28797 0
M  V30 411 O 43.0347 -1.22797 -1.27475 0
M  V30 412 C 40.1637 -2.59203 -2.25097 0
M  V30 413 C 39.2497 -3.76157 -1.95874 0
M  V30 414 N 39.6407 -4.86919 -1.36905 0
M  V30 415 C 37.9387 -3.84566 -2.25887 0
M  V30 416 C 38.6397 -5.68172 -1.24724 0
M  V30 417 N 37.6157 -5.14953 -1.74138 0
M  V30 418 H 41.4177 -2.89508 -0.506176 0
M  V30 419 H 38.9317 -1.61399 -0.18004 0
M  V30 420 H 40.9287 -2.92517 -2.97052 0
M  V30 421 H 39.5887 -1.77592 -2.71829 0
M  V30 422 H 40.5997 -5.07256 -1.04459 0
M  V30 423 H 37.2767 -3.13854 -2.75321 0
M  V30 424 H 38.6667 -6.67221 -0.791605 0
M  V30 425 N 41.3868 0.248026 -1.55636 0
M  V30 426 C 42.3498 1.29044 -1.89421 0
M  V30 427 C 43.3498 1.41134 -0.770581 0
M  V30 428 O 44.5398 1.39854 -1.03858 0
M  V30 429 C 41.6718 2.66831 -2.12165 0
M  V30 430 H 42.8648 1.00305 -2.82629 0
M  V30 431 H 40.4178 0.487265 -1.48511 0
M  V30 432 H 41.1528 3.00711 -1.21422 0
M  V30 433 H 40.9378 2.59438 -2.93997 0
M  V30 434 H 42.4278 3.42103 -2.3949 0
M  V30 435 N 42.8649 1.48995 0.513639 0
M  V30 436 C 44.0929 1.61531 1.29288 0
M  V30 437 C 44.5079 0.281801 1.86685 0
M  V30 438 O 43.8649 -0.731111 1.67215 0
M  V30 439 C 43.9159 2.67449 2.43215 0
M  V30 440 O 43.6369 3.95626 1.88179 0
M  V30 441 C 45.1379 2.90575 3.34785 0
M  V30 442 H 42.3579 0.544165 0.392588 0
M  V30 443 H 44.9019 1.9494 0.617956 0
M  V30 444 H 43.0569 2.36853 3.0656 0
M  V30 445 H 43.4709 4.53868 2.62876 0
M  V30 446 H 44.9449 3.68449 4.11035 0
M  V30 447 H 45.4219 2.00011 3.91015 0
M  V30 448 H 46.0279 3.22538 2.77218 0
M  V30 449 N 44.343 -0.763751 1.37857 0
M  V30 450 C 45.591 -1.51957 1.33243 0
M  V30 451 C 45.912 -1.94835 -0.0801709 0
M  V30 452 O 45.182 -1.66894 -1.02582 0
M  V30 453 H 43.762 -0.563626 0.49024 0
M  V30 454 H 46.424 -0.908504 1.7243 0
M  V30 455 H 45.52 -2.41523 1.97669 0
M  V30 456 N 45.8211 -1.22559 -0.990812 0
M  V30 457 C 46.7841 -0.998863 -2.0629 0
M  V30 458 C 47.7841 0.0354834 -1.60761 0
M  V30 459 O 48.9741 -0.203231 -1.7301 0
M  V30 460 C 46.1061 -0.509203 -3.37076 0
M  V30 461 H 47.2991 -1.95014 -2.27837 0
M  V30 462 H 44.8521 -1.04456 -1.16269 0
M  V30 463 H 45.5871 0.446335 -3.21214 0
M  V30 464 H 45.3721 -1.25547 -3.71457 0
M  V30 465 H 46.8621 -0.370888 -4.1595 0
M  V30 466 N 47.2992 1.18797 -1.03562 0
M  V30 467 C 48.7152 1.40671 -0.753917 0
M  V30 468 C 48.9152 1.9043 0.658686 0
M  V30 469 O 47.9712 2.08538 1.42366 0
M  V30 470 C 49.2842 2.41192 -1.79574 0
M  V30 471 C 50.8322 2.54928 -1.81606 0
M  V30 472 C 51.3072 3.58709 -2.84766 0
M  V30 473 N 52.7982 3.66212 -2.83625 0
M  V30 474 C 53.5332 4.46225 -3.60098 0
M  V30 475 N 53.0292 5.29888 -4.46308 0
M  V30 476 N 54.8222 4.40939 -3.4861 0
M  V30 477 H 46.9732 0.848221 -1.94728 0
M  V30 478 H 49.2362 0.435081 -0.842264 0
M  V30 479 H 48.9422 2.11669 -2.80872 0
M  V30 480 H 48.8162 3.40467 -1.62365 0
M  V30 481 H 51.2032 2.83771 -0.809817 0
M  V30 482 H 51.2842 1.55784 -2.02891 0
M  V30 483 H 50.9282 3.30607 -3.85566 0
M  V30 484 H 50.8582 4.57519 -2.60737 0
M  V30 485 H 53.3492 3.06466 -2.21105 0
M  V30 486 H 53.6622 5.88078 -5.01382 0
M  V30 487 H 52.0072 5.29326 -4.50377 0
M  V30 488 H 55.1982 3.74624 -2.80668 0
M  V30 489 H 55.3712 5.03056 -4.08459 0
M  V30 490 N 48.7773 0.814389 1.34928 0
M  V30 491 C 50.0233 0.399013 1.98836 0
M  V30 492 C 50.3563 -1.03314 1.64438 0
M  V30 493 O 49.6313 -1.71811 0.911659 0
M  V30 494 C 49.9143 0.591629 3.55207 0
M  V30 495 C 49.7673 2.06928 3.99376 0
M  V30 496 C 51.0863 0.022199 4.40094 0
M  V30 497 H 48.2053 0.146451 0.722303 0
M  V30 498 H 50.8473 1.02537 1.59957 0
M  V30 499 H 48.9973 0.0584441 3.88456 0
M  V30 500 H 50.6693 2.66544 3.76499 0
M  V30 501 H 48.9123 2.56287 3.49999 0
M  V30 502 H 49.5833 2.1549 5.08201 0
M  V30 503 H 52.0593 0.477643 4.13349 0
M  V30 504 H 50.9353 0.186832 5.48582 0
M  V30 505 H 51.1963 -1.07215 4.28902 0
M  V30 506 N 50.2554 -1.46986 0.568584 0
M  V30 507 C 51.5014 -2.02741 0.0488709 0
M  V30 508 C 51.8344 -1.44077 -1.30214 0
M  V30 509 O 51.1094 -0.600552 -1.84996 0
M  V30 510 C 51.3924 -3.60086 -0.032047 0
M  V30 511 C 51.2454 -4.29162 1.34686 0
M  V30 512 C 52.5644 -4.33838 -0.739798 0
M  V30 513 H 49.6834 -0.736749 0.0192338 0
M  V30 514 H 52.3254 -1.75289 0.733065 0
M  V30 515 H 50.4754 -3.83606 -0.61473 0
M  V30 516 H 52.1474 -4.16948 1.97362 0
M  V30 517 H 50.3904 -3.89073 1.91846 0
M  V30 518 H 51.0614 -5.37826 1.24285 0
M  V30 519 H 53.5374 -4.15378 -0.244939 0
M  V30 520 H 52.4134 -5.43537 -0.765406 0
M  V30 521 H 52.6744 -4.03875 -1.79827 0
M  V30 522 N 51.7335 -0.305618 -1.54608 0
M  V30 523 C 52.6965 0.555591 -2.22364 0
M  V30 524 C 53.6965 1.05768 -1.21119 0
M  V30 525 O 54.8865 0.952972 -1.45822 0
M  V30 526 C 52.0185 1.76974 -2.91364 0
M  V30 527 H 53.2115 -0.0364572 -2.99878 0
M  V30 528 H 50.7645 -0.0565007 -1.56198 0
M  V30 529 H 51.4995 2.40151 -2.17941 0
M  V30 530 H 51.2845 1.41732 -3.65588 0
M  V30 531 H 52.7745 2.38148 -3.43038 0
M  V30 532 N 53.2116 1.57565 -0.0334293 0
M  V30 533 C 54.4576 1.92262 0.645226 0
M  V30 534 C 54.7906 0.910543 1.71531 0
M  V30 535 O 54.0656 -0.066099 1.94388 0
M  V30 536 C 54.3486 3.37422 1.2577 0
M  V30 537 C 54.2016 4.49369 0.196891 0
M  V30 538 C 55.5206 3.82628 2.17449 0
M  V30 539 H 52.6396 0.699171 0.233085 0
M  V30 540 H 55.2816 1.89779 -0.0915694 0
M  V30 541 H 53.4316 3.39669 1.88566 0
M  V30 542 H 55.1036 4.59254 -0.433962 0
M  V30 543 H 53.3466 4.31168 -0.477137 0
M  V30 544 H 54.0176 5.47978 0.665124 0
M  V30 545 H 56.4936 3.82145 1.64634 0
M  V30 546 H 55.3696 4.84883 2.57254 0
M  V30 547 H 55.6306 3.18376 3.0674 0
M  V30 548 N 54.6897 -0.239769 1.55765 0
M  V30 549 C 55.9147 -0.988373 1.82335 0
M  V30 550 C 56.3397 -1.77886 0.611421 0
M  V30 551 O 55.6977 -1.75889 -0.439639 0
M  V30 552 C 55.7457 -1.89627 3.06715 0
M  V30 553 O 54.8497 -2.98904 2.84131 0
M  V30 554 H 54.1907 -0.280858 0.601677 0
M  V30 555 H 56.7207 -0.258597 2.02959 0
M  V30 556 H 56.7307 -2.30957 3.36338 0
M  V30 557 H 55.4057 -1.31511 3.9456 0
M  V30 558 H 53.9827 -2.61651 2.65694 0
M  V30 559 N 56.1678 -1.49265 -0.50573 0
M  V30 560 C 57.5838 -1.35923 -0.836486 0
M  V30 561 C 57.7838 -0.388704 -1.97715 0
M  V30 562 O 56.8398 0.181336 -2.51848 0
M  V30 563 C 58.1528 -2.76531 -1.18115 0
M  V30 564 C 59.7008 -2.85197 -1.28964 0
M  V30 565 C 60.1758 -4.26561 -1.66761 0
M  V30 566 N 61.6668 -4.2935 -1.73819 0
M  V30 567 C 62.4018 -5.35693 -2.045 0
M  V30 568 N 61.8978 -6.52287 -2.33438 0
M  V30 569 N 63.6908 -5.23105 -2.05711 0
M  V30 570 H 55.8418 -2.10965 0.246519 0
M  V30 571 H 58.1048 -0.9468 0.0476887 0
M  V30 572 H 57.8108 -3.49226 -0.416398 0
M  V30 573 H 57.6848 -3.11599 -2.1257 0
M  V30 574 H 60.0718 -2.12742 -2.04511 0
M  V30 575 H 60.1528 -2.53718 -0.325704 0
M  V30 576 H 59.7968 -4.99541 -0.917656 0
M  V30 577 H 59.7268 -4.55502 -2.64246 0
M  V30 578 H 62.2178 -3.4526 -1.53635 0
M  V30 579 H 62.5308 -7.29158 -2.56024 0
M  V30 580 H 60.8758 -6.55521 -2.30905 0
M  V30 581 H 64.0668 -4.31026 -1.82577 0
M  V30 582 H 64.2398 -6.06078 -2.29289 0
M  V30 583 N 57.6459 0.756429 -1.3826 0
M  V30 584 C 58.8739 1.54565 -1.3754 0
M  V30 585 C 59.2889 1.88767 0.0355331 0
M  V30 586 O 58.6459 1.52572 1.0014 0
M  V30 587 C 58.6969 2.84654 -2.22833 0
M  V30 588 O 58.4179 2.51912 -3.5843 0
M  V30 589 C 59.9189 3.78807 -2.30261 0
M  V30 590 H 57.1389 0.478353 -0.470553 0
M  V30 591 H 59.6829 0.936381 -1.81803 0
M  V30 592 H 57.8379 3.41965 -1.8204 0
M  V30 593 H 58.2519 3.35325 -4.03308 0
M  V30 594 H 59.7259 4.67045 -2.94233 0
M  V30 595 H 60.2029 4.19038 -1.31545 0
M  V30 596 H 60.8089 3.2742 -2.71433 0
M  V30 597 N 59.124 1.23083 0.984299 0
M  V30 598 C 60.056 0.96636 2.07832 0
M  V30 599 C 61.069 -0.0582135 1.62696 0
M  V30 600 O 62.258 0.176843 1.77622 0
M  V30 601 C 59.358 0.433397 3.36117 0
M  V30 602 C 58.531 1.51722 4.10243 0
M  V30 603 C 57.59 0.989821 5.16807 0
M  V30 604 O 56.616 1.67794 5.43906 0
M  V30 605 N 57.818 -0.184367 5.80207 0
M  V30 606 H 60.583 1.90824 2.31098 0
M  V30 607 H 58.144 1.13888 1.1507 0
M  V30 608 H 60.136 0.065699 4.04647 0
M  V30 609 H 58.706 -0.413806 3.09849 0
M  V30 610 H 57.926 2.05786 3.36223 0
M  V30 611 H 59.214 2.24619 4.56534 0
M  V30 612 H 58.612 -0.760062 5.60571 0
M  V30 613 H 57.169 -0.493366 6.4993 0
M  V30 614 N 60.6021 -1.18246 1.0419 0
M  V30 615 C 61.5651 -2.20128 0.638452 0
M  V30 616 C 62.5651 -1.57885 -0.304805 0
M  V30 617 O 63.7551 -1.73967 -0.0900369 0
M  V30 618 C 60.8871 -3.4084 -0.0637751 0
M  V30 619 H 62.0801 -2.57336 1.54007 0
M  V30 620 H 59.6331 -1.32152 0.834598 0
M  V30 621 H 60.3681 -3.09166 -0.979136 0
M  V30 622 H 60.1531 -3.8726 0.614198 0
M  V30 623 H 61.6431 -4.16274 -0.332512 0
M  V30 624 N 62.0802 -0.821533 -1.34494 0
M  V30 625 C 63.3572 -0.33159 -1.92769 0
M  V30 626 C 63.7372 1.18088 -1.74981 0
M  V30 627 O 63.0852 1.98733 -1.12772 0
M  V30 628 C 63.2952 -0.759398 -3.40638 0
M  V30 629 C 64.6432 -0.757433 -4.1779 0
M  V30 630 O 65.6672 -0.70189 -3.49216 0
M  V30 631 O 64.5262 -0.829361 -5.4017 0
M  V30 632 H 61.6202 -0.0902502 -0.822061 0
M  V30 633 H 64.1662 -0.906231 -1.43477 0
M  V30 634 H 62.9382 -1.8012 -3.47379 0
M  V30 635 H 62.5612 -0.160378 -3.97276 0
M  V30 636 N 63.5583 1.46682 -0.576371 0
M  V30 637 C 64.4883 2.33028 0.148397 0
M  V30 638 C 65.4693 1.44961 0.889956 0
M  V30 639 O 66.6543 1.73789 0.866662 0
M  V30 640 C 63.7843 3.27117 1.1667 0
M  V30 641 C 62.7383 4.24575 0.540386 0
M  V30 642 C 62.0643 5.08126 1.6647 0
M  V30 643 C 63.3643 5.19722 -0.518331 0
M  V30 644 H 65.0583 2.93875 -0.572509 0
M  V30 645 H 62.6043 1.41315 -0.276768 0
M  V30 646 H 64.5573 3.86374 1.68204 0
M  V30 647 H 63.2813 2.64364 1.9178 0
M  V30 648 H 61.9403 3.66571 0.0461769 0
M  V30 649 H 61.5883 4.41762 2.40531 0
M  V30 650 H 61.2883 5.74122 1.25131 0
M  V30 651 H 62.8123 5.70246 2.18293 0
M  V30 652 H 64.2263 5.73232 -0.0883058 0
M  V30 653 H 62.6233 5.94026 -0.851679 0
M  V30 654 H 63.6933 4.64037 -1.40703 0
M  V30 655 N 65.0364 0.313813 1.54444 0
M  V30 656 C 66.3134 -0.345447 1.92525 0
M  V30 657 C 66.6934 -1.70667 1.24242 0
M  V30 658 O 66.0414 -2.25273 0.382654 0
M  V30 659 C 66.2514 -0.44737 3.46121 0
M  V30 660 C 67.5994 -0.712238 4.18584 0
M  V30 661 O 68.6234 -0.530678 3.52225 0
M  V30 662 O 67.4824 -1.06183 5.36085 0
M  V30 663 H 64.5764 -0.195407 0.803583 0
M  V30 664 H 67.1224 0.362813 1.65776 0
M  V30 665 H 65.8944 0.509043 3.87975 0
M  V30 666 H 65.5174 -1.20359 3.78945 0
M  V30 667 N 66.5145 -1.57545 0.0417849 0
M  V30 668 C 67.7395 -1.97035 -0.647455 0
M  V30 669 C 68.1645 -0.918775 -1.64135 0
M  V30 670 O 67.5225 0.119006 -1.80909 0
M  V30 671 C 67.5705 -3.35609 -1.31905 0
M  V30 672 O 66.6745 -3.3287 -2.43457 0
M  V30 673 H 66.0155 -0.64211 -0.169086 0
M  V30 674 H 68.5455 -2.04318 0.107399 0
M  V30 675 H 68.5555 -3.72126 -1.67291 0
M  V30 676 H 67.2305 -4.11685 -0.590586 0
M  V30 677 H 65.8075 -3.08087 -2.10088 0
M  V30 678 N 67.9926 0.231505 -1.5589 0
M  V30 679 C 68.9226 1.29022 -1.94617 0
M  V30 680 C 69.9036 1.4941 -0.813067 0
M  V30 681 O 71.0886 1.6176 -1.07459 0
M  V30 682 C 68.2186 2.64199 -2.25424 0
M  V30 683 C 67.1726 2.58484 -3.41131 0
M  V30 684 C 66.4986 3.97599 -3.57518 0
M  V30 685 C 67.7986 2.1413 -4.76388 0
M  V30 686 H 69.4926 0.968563 -2.83301 0
M  V30 687 H 67.0386 0.464479 -1.36303 0
M  V30 688 H 68.9916 3.38413 -2.51107 0
M  V30 689 H 67.7156 2.98032 -1.33583 0
M  V30 690 H 66.3746 1.86727 -3.15481 0
M  V30 691 H 66.0226 4.28723 -2.6307 0
M  V30 692 H 65.7226 3.94659 -4.35337 0
M  V30 693 H 67.2466 4.7349 -3.85538 0
M  V30 694 H 68.6606 2.78083 -5.01341 0
M  V30 695 H 67.0576 2.2227 -5.57419 0
M  V30 696 H 68.1276 1.09331 -4.72414 0
M  V30 697 N 69.4707 1.49531 0.497807 0
M  V30 698 C 70.7167 1.59415 1.25358 0
M  V30 699 C 71.0497 0.281422 1.9215 0
M  V30 700 O 70.3247 -0.715249 1.80871 0
M  V30 701 C 70.6077 2.75566 2.3181 0
M  V30 702 C 70.4607 4.16642 1.69498 0
M  V30 703 C 71.7797 2.87347 3.33346 0
M  V30 704 H 68.8987 0.580244 0.454408 0
M  V30 705 H 71.5407 1.81827 0.551262 0
M  V30 706 H 69.6907 2.56587 2.91711 0
M  V30 707 H 71.3627 4.47145 1.13399 0
M  V30 708 H 69.6057 4.22141 0.998978 0
M  V30 709 H 70.2767 4.93792 2.46725 0
M  V30 710 H 72.7527 3.04634 2.83438 0
M  V30 711 H 71.6287 3.70289 4.05188 0
M  V30 712 H 71.8897 1.96834 3.95865 0
M  V30 713 N 70.9488 -0.749086 1.3866 0
M  V30 714 C 72.3648 -1.05276 1.19955 0
M  V30 715 C 72.5648 -2.01435 0.05134 0
M  V30 716 O 71.6208 -2.45232 -0.60147 0
M  V30 717 C 72.9338 -1.62853 2.52783 0
M  V30 718 C 74.4818 -1.75002 2.59506 0
M  V30 719 C 74.9568 -2.35991 3.92521 0
M  V30 720 N 76.4478 -2.43416 3.94085 0
M  V30 721 C 77.1828 -2.91511 4.9377 0
M  V30 722 N 76.6788 -3.39608 6.03853 0
M  V30 723 N 78.4718 -2.90592 4.81157 0
M  V30 724 H 70.6228 -0.111066 2.12109 0
M  V30 725 H 72.8858 -0.111901 0.941373 0
M  V30 726 H 72.5918 -0.99664 3.37283 0
M  V30 727 H 72.4658 -2.61854 2.715 0
M  V30 728 H 74.8528 -2.37317 1.75398 0
M  V30 729 H 74.9338 -0.74693 2.44652 0
M  V30 730 H 74.5778 -1.74308 4.77053 0
M  V30 731 H 74.5078 -3.3695 4.04688 0
M  V30 732 H 76.9988 -2.09405 3.14576 0
M  V30 733 H 77.3118 -3.74775 6.75843 0
M  V30 734 H 75.6568 -3.37653 6.07466 0
M  V30 735 H 78.8478 -2.52332 3.94267 0
M  V30 736 H 79.0208 -3.27762 5.58996 0
M  V30 737 N 72.4269 -1.23603 -0.977757 0
M  V30 738 C 73.3369 -1.03632 -2.1047 0
M  V30 739 C 74.3529 0.0199435 -1.73989 0
M  V30 740 O 75.5289 -0.176076 -2.00629 0
M  V30 741 C 72.5939 -0.63276 -3.40877 0
M  V30 742 C 71.6549 -1.76437 -3.91367 0
M  V30 743 C 70.8879 -1.37997 -5.15551 0
M  V30 744 O 71.1109 -0.265357 -5.69782 0
M  V30 745 O 70.0449 -2.20201 -5.60174 0
M  V30 746 H 73.8709 -1.98086 -2.30208 0
M  V30 747 H 71.4559 -1.02332 -1.08851 0
M  V30 748 H 73.3379 -0.418761 -4.19314 0
M  V30 749 H 72.0129 0.282754 -3.22463 0
M  V30 750 H 70.9199 -2.03304 -3.14036 0
M  V30 751 H 72.2529 -2.6583 -4.14241 0
M  V30 752 N 73.905 1.17692 -1.04816 0
M  V30 753 C 75.145 1.89545 -0.764979 0
M  V30 754 C 75.509 1.78979 0.695028 0
M  V30 755 O 76.71 2.45613 1.09215 0
M  V30 756 C 74.981 3.35659 -1.22751 0
M  V30 757 S 76.54 4.25526 -1.07112 0
M  V30 758 H 73.358 0.654432 -0.27792 0
M  V30 759 H 75.96 1.42163 -1.34201 0
M  V30 760 H 74.664 3.40882 -2.28533 0
M  V30 761 H 74.195 3.88083 -0.644594 0
M  V30 762 H 76.21 4.962 0.00697508 0
M  V30 763 N 75.3831 0.828654 1.34056 0
M  V30 764 C 76.7941 0.477534 1.8049 0
M  V30 765 C 77.1451 -1.00258 1.6865 0
M  V30 766 O 76.2701 -1.78057 1.22982 0
M  V30 767 C 76.8651 0.860018 3.27703 0
M  V30 768 C 75.4241 0.561185 3.72193 0
M  V30 769 C 74.5711 1.07385 2.55663 0
M  V30 770 H 77.5221 1.0183 1.21722 0
M  V30 771 H 77.5431 0.166038 3.80138 0
M  V30 772 H 77.0551 1.93731 3.36288 0
M  V30 773 H 75.1561 -0.506465 3.69142 0
M  V30 774 H 75.2691 1.10926 4.66082 0
M  V30 775 H 73.6331 0.495149 2.49841 0
M  V30 776 H 74.4161 2.15771 2.67016 0
M  V30 777 N 76.8612 -1.46375 0.584142 0
M  V30 778 C 78.1092 -2.01978 0.0701287 0
M  V30 779 C 78.4302 -1.4579 -1.295 0
M  V30 780 O 77.7002 -0.64314 -1.85042 0
M  V30 781 H 76.2802 -0.746648 0.0229345 0
M  V30 782 H 78.9422 -1.79461 0.760245 0
M  V30 783 H 78.0382 -3.121 0.0022064 0
M  V30 784 N 78.3393 -0.321999 -1.54275 0
M  V30 785 C 79.5883 0.281931 -1.9972 0
M  V30 786 C 79.9013 1.53369 -1.21397 0
M  V30 787 O 81.1073 2.21352 -1.57211 0
M  V30 788 C 79.5633 0.5529 -3.55628 0
M  V30 789 C 79.1713 -0.681721 -4.42783 0
M  V30 790 C 80.9153 1.11687 -4.09544 0
M  V30 791 C 78.8223 -0.382742 -5.9016 0
M  V30 792 H 77.7523 0.109124 -0.746062 0
M  V30 793 H 80.4033 -0.43398 -1.78294 0
M  V30 794 H 78.7853 1.32896 -3.73035 0
M  V30 795 H 79.9593 -1.45723 -4.37151 0
M  V30 796 H 78.2743 -1.1658 -3.99748 0
M  V30 797 H 80.8713 1.35515 -5.17242 0
M  V30 798 H 81.2143 2.06575 -3.61431 0
M  V30 799 H 81.7473 0.402032 -3.95763 0
M  V30 800 H 78.4863 -1.30076 -6.42464 0
M  V30 801 H 78.0063 0.355094 -5.98748 0
M  V30 802 H 79.6853 0.00800157 -6.47 0
M  V30 803 N 79.8174 1.5752 -0.0501392 0
M  V30 804 C 80.7274 2.14952 0.939827 0
M  V30 805 C 81.7434 1.10706 1.34239 0
M  V30 806 O 82.9194 1.42869 1.41952 0
M  V30 807 C 79.9844 2.68232 2.19665 0
M  V30 808 C 79.0454 3.87272 1.85253 0
M  V30 809 C 78.2784 4.38002 3.04943 0
M  V30 810 O 78.5014 3.87811 4.18281 0
M  V30 811 O 77.4354 5.29602 2.86017 0
M  V30 812 H 81.2614 2.9986 0.481392 0
M  V30 813 H 78.8464 1.4841 0.171699 0
M  V30 814 H 80.7284 3.02475 2.93406 0
M  V30 815 H 79.4034 1.86395 2.64648 0
M  V30 816 H 78.3104 3.5792 1.0883 0
M  V30 817 H 79.6434 4.70336 1.4507 0
M  V30 818 N 81.2955 -0.223234 1.56011 0
M  V30 819 C 82.7065 -0.790368 1.69145 0
M  V30 820 C 83.0575 -1.85055 0.651845 0
M  V30 821 O 82.1825 -2.15498 -0.197359 0
M  V30 822 C 82.7775 -1.4404 3.06656 0
M  V30 823 C 81.3365 -1.95494 3.2165 0
M  V30 824 C 80.4835 -0.814506 2.65068 0
M  V30 825 H 83.4345 0.00139011 1.587 0
M  V30 826 H 83.4555 -2.30916 3.0242 0
M  V30 827 H 82.9675 -0.668543 3.82298 0
M  V30 828 H 81.0685 -2.75487 2.50874 0
M  V30 829 H 81.1815 -2.13607 4.28846 0
M  V30 830 H 79.5455 -1.22137 2.23505 0
M  V30 831 H 80.3285 -0.0553515 3.43255 0
M  V30 832 N 82.7736 -1.49793 -0.48987 0
M  V30 833 C 84.0196 -1.60078 -1.24511 0
M  V30 834 C 84.3526 -0.291608 -1.91998 0
M  V30 835 O 83.6276 0.705647 -1.81248 0
M  V30 836 C 83.9106 -2.76791 -2.30345 0
M  V30 837 C 83.7636 -4.17535 -1.67286 0
M  V30 838 C 85.0826 -2.89111 -3.31817 0
M  V30 839 H 82.2016 -0.582645 -0.451324 0
M  V30 840 H 84.8436 -1.82117 -0.541612 0
M  V30 841 H 82.9936 -2.5813 -2.90346 0
M  V30 842 H 84.6656 -4.4774 -1.11026 0
M  V30 843 H 82.9086 -4.22665 -0.976577 0
M  V30 844 H 83.5796 -4.95094 -2.44103 0
M  V30 845 H 86.0556 -3.06133 -2.81819 0
M  V30 846 H 84.9316 -3.72433 -4.03219 0
M  V30 847 H 85.1926 -1.9893 -3.94815 0
M  V30 848 N 84.2517 0.741722 -1.39055 0
M  V30 849 C 85.4917 1.51385 -1.37338 0
M  V30 850 C 85.8557 1.91972 0.0330513 0
M  V30 851 O 87.0567 2.68229 0.175174 0
M  V30 852 C 85.3277 2.72481 -2.31276 0
M  V30 853 S 86.8867 3.62211 -2.47687 0
M  V30 854 H 83.7047 0.517906 -0.487129 0
M  V30 855 H 86.3067 0.86969 -1.7509 0
M  V30 856 H 85.0107 2.40793 -3.32336 0
M  V30 857 H 84.5417 3.41832 -1.94716 0
M  V30 858 H 86.5567 4.65812 -1.70978 0
M  V30 859 N 85.7298 1.2412 0.971189 0
M  V30 860 C 86.9758 1.08041 1.71625 0
M  V30 861 C 87.3088 -0.380407 1.90438 0
M  V30 862 O 86.5838 -1.28127 1.46334 0
M  V30 863 C 86.8668 1.81682 3.10908 0
M  V30 864 C 86.7198 3.35493 2.99608 0
M  V30 865 C 88.0388 1.58671 4.10501 0
M  V30 866 H 85.1578 0.39388 0.622919 0
M  V30 867 H 87.7998 1.52743 1.13003 0
M  V30 868 H 85.9498 1.43684 3.60953 0
M  V30 869 H 87.6218 3.83068 2.57015 0
M  V30 870 H 85.8648 3.64052 2.35899 0
M  V30 871 H 86.5358 3.82217 3.98264 0
M  V30 872 H 89.0118 1.91719 3.69301 0
M  V30 873 H 87.8878 2.1266 5.06031 0
M  V30 874 H 88.1488 0.524161 4.38982 0
M  V30 875 N 87.2079 -1.17134 1.05439 0
M  V30 876 C 88.4849 -1.83411 0.679699 0
M  V30 877 C 88.8649 -1.9368 -0.839726 0
M  V30 878 O 88.2129 -1.47325 -1.74664 0
M  V30 879 C 88.4229 -3.20918 1.37159 0
M  V30 880 C 89.7709 -3.96796 1.51123 0
M  V30 881 O 90.7949 -3.30406 1.3308 0
M  V30 882 O 89.6539 -5.15778 1.80651 0
M  V30 883 H 86.7479 -0.79154 0.239569 0
M  V30 884 H 89.2939 -1.24411 1.15413 0
M  V30 885 H 88.0659 -3.08428 2.40807 0
M  V30 886 H 87.6889 -3.87587 0.886674 0
M  V30 887 N 88.686 -0.835752 -1.33615 0
M  V30 888 C 89.616 -0.281739 -2.31794 0
M  V30 889 C 90.597 0.608833 -1.58831 0
M  V30 890 O 91.782 0.533035 -1.86741 0
M  V30 891 C 88.912 0.546612 -3.42971 0
M  V30 892 C 87.866 -0.247904 -4.27281 0
M  V30 893 C 87.192 0.704001 -5.30045 0
M  V30 894 C 88.492 -1.46324 -5.01385 0
M  V30 895 H 90.186 -1.10206 -2.78379 0
M  V30 896 H 87.732 -0.531388 -1.33837 0
M  V30 897 H 89.685 0.944467 -4.1068 0
M  V30 898 H 88.409 1.40011 -2.95067 0
M  V30 899 H 87.068 -0.627281 -3.61194 0
M  V30 900 H 86.716 1.55381 -4.78399 0
M  V30 901 H 86.416 0.176524 -5.87335 0
M  V30 902 H 87.94 1.09944 -6.0062 0
M  V30 903 H 89.354 -1.13871 -5.61877 0
M  V30 904 H 87.751 -1.92728 -5.6831 0
M  V30 905 H 88.821 -2.23467 -4.30338 0
M  V30 906 N 90.1641 1.46063 -0.591896 0
M  V30 907 C 91.4121 2.01938 -0.0808391 0
M  V30 908 C 91.7331 1.46475 1.28725 0
M  V30 909 O 91.0031 0.652944 1.84698 0
M  V30 910 H 89.5831 0.746516 -0.0268938 0
M  V30 911 H 92.2451 1.79055 -0.769752 0
M  V30 912 H 91.3411 3.12094 -0.0187578 0
M  V30 913 N 91.6422 0.330177 1.54103 0
M  V30 914 C 92.9192 -0.325007 1.92881 0
M  V30 915 C 93.2992 -1.6934 1.26045 0
M  V30 916 O 92.6472 -2.24855 0.406526 0
M  V30 917 C 92.8572 -0.410634 3.46576 0
M  V30 918 C 94.2052 -0.667801 4.19316 0
M  V30 919 O 95.2292 -0.49329 3.52768 0
M  V30 920 O 94.0882 -1.00491 5.37181 0
M  V30 921 H 91.1822 -0.186873 0.80561 0
M  V30 922 H 93.7282 0.380376 1.65382 0
M  V30 923 H 92.5002 0.550164 3.87413 0
M  V30 924 H 92.1232 -1.16333 3.802 0
M  V30 925 N 93.1203 -1.57491 0.0584922 0
M  V30 926 C 94.3663 -1.94081 -0.608617 0
M  V30 927 C 94.7213 -0.937438 -1.68017 0
M  V30 928 O 94.0143 0.0423034 -1.91553 0
M  V30 929 C 94.2083 -3.3513 -1.24188 0
M  V30 930 C 94.0373 -4.49095 -0.233187 0
M  V30 931 C 92.8073 -5.04988 0.177439 0
M  V30 932 C 95.0053 -5.1162 0.524306 0
M  V30 933 N 92.9873 -6.02487 1.17823 0
M  V30 934 C 94.3583 -6.04493 1.37796 0
M  V30 935 C 96.4133 -4.94489 0.581822 0
M  V30 936 C 95.1163 -6.82075 2.28399 0
M  V30 937 C 97.1423 -5.72703 1.47531 0
M  V30 938 C 96.5043 -6.65214 2.31667 0
M  V30 939 H 92.6033 -0.75752 -0.194134 0
M  V30 940 H 95.1873 -1.94248 0.132533 0
M  V30 941 H 93.3583 -3.35726 -1.95302 0
M  V30 942 H 95.0903 -3.5899 -1.86838 0
M  V30 943 H 91.8453 -4.73165 -0.203004 0
M  V30 944 H 92.2693 -6.55933 1.67573 0
M  V30 945 H 96.9113 -4.22765 -0.054443 0
M  V30 946 H 94.6293 -7.53085 2.93067 0
M  V30 947 H 98.2153 -5.61472 1.52448 0
M  V30 948 H 97.0953 -7.24679 2.99683 0
M  V30 949 N 94.5984 0.214957 -1.56127 0
M  V30 950 C 95.5084 1.28727 -1.96129 0
M  V30 951 C 96.5244 1.50916 -0.866044 0
M  V30 952 O 97.7004 1.63918 -1.17016 0
M  V30 953 C 94.7654 2.61569 -2.27558 0
M  V30 954 C 93.8264 2.47625 -3.50685 0
M  V30 955 C 93.0594 3.74132 -3.80606 0
M  V30 956 O 93.2824 4.77438 -3.12104 0
M  V30 957 O 92.2164 3.70849 -4.74083 0
M  V30 958 H 96.0424 0.977855 -2.87527 0
M  V30 959 H 93.6274 0.418358 -1.43423 0
M  V30 960 H 95.5094 3.40012 -2.48938 0
M  V30 961 H 94.1844 2.92178 -1.39332 0
M  V30 962 H 93.0914 1.67361 -3.34576 0
M  V30 963 H 94.4244 2.21954 -4.39315 0
M  V30 964 N 96.0765 1.50051 0.48192 0
M  V30 965 C 97.0395 1.67584 1.5636 0
M  V30 966 C 98.0395 0.546894 1.51214 0
M  V30 967 O 99.2295 0.813725 1.54026 0
M  V30 968 C 96.3615 1.691 2.96003 0
M  V30 969 H 97.5545 2.64078 1.42136 0
M  V30 970 H 95.1075 1.39369 0.707533 0
M  V30 971 H 95.8425 0.742589 3.15684 0
M  V30 972 H 95.6275 2.51105 3.01146 0
M  V30 973 H 97.1175 1.84656 3.74556 0
M  V30 974 N 97.5546 -0.734337 1.39446 0
M  V30 975 C 98.7826 -1.52358 1.39981 0
M  V30 976 C 99.1976 -1.88799 -0.0054975 0
M  V30 977 O 98.5546 -1.54146 -0.976998 0
M  V30 978 C 98.6056 -2.81072 2.27333 0
M  V30 979 O 98.3266 -2.46178 3.62392 0
M  V30 980 C 99.8276 -3.75096 2.36259 0
M  V30 981 H 97.0476 -0.470806 0.478103 0
M  V30 982 H 99.5916 -0.907339 1.83269 0
M  V30 983 H 97.7466 -3.39026 1.87457 0
M  V30 984 H 98.1606 -3.28866 4.08592 0
M  V30 985 H 99.6346 -4.62305 3.01626 0
M  V30 986 H 100.112 -4.16892 1.38194 0
M  V30 987 H 100.718 -3.23061 2.76608 0
M  V30 988 N 99.0327 -1.24633 -0.964593 0
M  V30 989 C 99.9427 -1.05859 -2.09359 0
M  V30 990 C 100.959 0.00148855 -1.74 0
M  V30 991 O 102.135 -0.197346 -2.00431 0
M  V30 992 C 99.1997 -0.668879 -3.40187 0
M  V30 993 C 98.2607 -1.80578 -3.89474 0
M  V30 994 C 97.4937 -1.43457 -5.14058 0
M  V30 995 O 97.7167 -0.325775 -5.69469 0
M  V30 996 O 96.6507 -2.2613 -5.57807 0
M  V30 997 H 100.477 -2.00516 -2.28094 0
M  V30 998 H 98.0617 -1.03481 -1.0776 0
M  V30 999 H 99.9437 -0.463211 -4.18846 0
M  V30 1000 H 98.6187 0.248536 -3.22744 0
M  V30 1001 H 97.5257 -2.06623 -3.11862 0
M  V30 1002 H 98.8587 -2.70208 -4.11398 0
M  V30 1003 N 100.511 1.16574 -1.06058 0
M  V30 1004 C 101.927 1.3904 -0.783585 0
M  V30 1005 C 102.127 1.91784 0.618145 0
M  V30 1006 O 101.183 2.11511 1.37911 0
M  V30 1007 C 102.496 2.37329 -1.84649 0
M  V30 1008 C 104.044 2.51018 -1.86973 0
M  V30 1009 C 104.519 3.52588 -2.92311 0
M  V30 1010 N 106.01 3.60113 -2.91329 0
M  V30 1011 C 106.745 4.38486 -3.69482 0
M  V30 1012 N 106.241 5.20302 -4.57447 0
M  V30 1013 N 108.034 4.33446 -3.57885 0
M  V30 1014 H 100.185 0.806725 -1.96483 0
M  V30 1015 H 102.448 0.417117 -0.851303 0
M  V30 1016 H 102.154 2.05663 -2.85299 0
M  V30 1017 H 102.028 3.36946 -1.6955 0
M  V30 1018 H 104.415 2.81989 -0.869827 0
M  V30 1019 H 104.496 1.51445 -2.0615 0
M  V30 1020 H 104.14 3.22354 -3.92492 0
M  V30 1021 H 104.07 4.51886 -2.70383 0
M  V30 1022 H 106.561 3.01707 -2.27555 0
M  V30 1023 H 106.874 5.77311 -5.13743 0
M  V30 1024 H 105.219 5.19653 -4.61503 0
M  V30 1025 H 108.41 3.68586 -2.88551 0
M  V30 1026 H 108.583 4.94279 -4.19037 0
M  V30 1027 N 101.989 0.842826 1.3317 0
M  V30 1028 C 102.952 0.284065 2.27433 0
M  V30 1029 C 103.952 -0.54948 1.5112 0
M  V30 1030 O 105.142 -0.362699 1.70382 0
M  V30 1031 C 102.274 -0.599384 3.35589 0
M  V30 1032 H 103.467 1.11589 2.78366 0
M  V30 1033 H 101.02 0.616221 1.4364 0
M  V30 1034 H 101.755 -1.45349 2.89904 0
M  V30 1035 H 101.54 -0.00291266 3.921 0
M  V30 1036 H 103.03 -0.983488 4.05854 0
M  V30 1037 N 103.467 -1.45747 0.599634 0
M  V30 1038 C 104.397 -2.33235 -0.111306 0
M  V30 1039 C 105.378 -1.46359 -0.866781 0
M  V30 1040 O 106.563 -1.75146 -0.838904 0
M  V30 1041 C 103.693 -3.28932 -1.11451 0
M  V30 1042 C 102.647 -4.25381 -0.472772 0
M  V30 1043 C 101.973 -5.1071 -1.58365 0
M  V30 1044 C 103.273 -5.18831 0.600948 0
M  V30 1045 H 104.967 -2.92927 0.61919 0
M  V30 1046 H 102.513 -1.40857 0.299215 0
M  V30 1047 H 104.466 -3.89002 -1.62036 0
M  V30 1048 H 103.19 -2.67381 -1.8755 0
M  V30 1049 H 101.849 -3.66598 0.0121472 0
M  V30 1050 H 101.497 -4.45533 -2.33473 0
M  V30 1051 H 101.197 -5.7604 -1.15982 0
M  V30 1052 H 102.721 -5.73647 -2.09194 0
M  V30 1053 H 104.135 -5.73019 0.179491 0
M  V30 1054 H 102.532 -5.92595 0.946076 0
M  V30 1055 H 103.602 -4.6174 1.48068 0
M  V30 1056 N 104.945 -0.338344 -1.53925 0
M  V30 1057 C 106.193 0.259245 -2.0043 0
M  V30 1058 C 106.514 1.51484 -1.22791 0
M  V30 1059 O 105.784 1.93037 -0.33368 0
M  V30 1060 H 104.364 0.0987845 -0.740439 0
M  V30 1061 H 107.026 -0.458302 -1.89435 0
M  V30 1062 H 106.122 0.505334 -3.07982 0
M  V30 1063 N 106.423 1.57458 -0.0668435 0
M  V30 1064 C 107.648 1.9804 0.616027 0
M  V30 1065 C 108.073 0.944771 1.62652 0
M  V30 1066 O 107.431 -0.0902094 1.81075 0
M  V30 1067 C 107.479 3.37665 1.26549 0
M  V30 1068 O 106.583 3.36701 2.38131 0
M  V30 1069 H 105.924 0.644719 0.158849 0
M  V30 1070 H 108.454 2.04121 -0.139891 0
M  V30 1071 H 108.464 3.7474 1.6135 0
M  V30 1072 H 107.139 4.12573 0.525016 0
M  V30 1073 H 105.716 3.1139 2.0516 0
M  V30 1074 N 107.901 -0.206675 1.56239 0
M  V30 1075 C 109.147 -0.930218 1.80208 0
M  V30 1076 C 109.48 -1.83387 0.638981 0
M  V30 1077 O 108.755 -1.91119 -0.361066 0
M  V30 1078 C 109.038 -1.75641 3.1436 0
M  V30 1079 C 108.891 -0.878257 4.41142 0
M  V30 1080 C 110.21 -2.73129 3.45092 0
M  V30 1081 H 107.329 -0.336742 0.655571 0
M  V30 1082 H 109.971 -0.198222 1.88963 0
M  V30 1083 H 108.121 -2.38048 3.07027 0
M  V30 1084 H 109.793 -0.269787 4.6051 0
M  V30 1085 H 108.036 -0.184385 4.33408 0
M  V30 1086 H 108.707 -1.49106 5.3148 0
M  V30 1087 H 111.183 -2.20856 3.52649 0
M  V30 1088 H 110.059 -3.28028 4.40101 0
M  V30 1089 H 110.32 -3.51606 2.68003 0
M  V30 1090 N 109.379 -1.50304 -0.473955 0
M  V30 1091 C 110.627 -1.60832 -1.22382 0
M  V30 1092 C 110.948 -0.30939 -1.9253 0
M  V30 1093 O 110.218 0.67296 -1.83978 0
M  V30 1094 H 108.798 -0.592652 -0.454723 0
M  V30 1095 H 111.46 -1.87068 -0.546968 0
M  V30 1096 H 110.556 -2.41803 -1.97327 0
M  V30 1097 N 110.857 0.726932 -1.39834 0
M  V30 1098 C 112.268 1.30558 -1.3346 0
M  V30 1099 C 112.619 1.962 -0.00273003 0
M  V30 1100 O 111.744 1.96826 0.899371 0
M  V30 1101 C 112.339 2.37404 -2.41713 0
M  V30 1102 C 110.898 2.90921 -2.38835 0
M  V30 1103 C 110.045 1.64578 -2.2318 0
M  V30 1104 H 112.996 0.523862 -1.49804 0
M  V30 1105 H 113.017 3.17984 -2.08966 0
M  V30 1106 H 112.529 1.89599 -3.38635 0
M  V30 1107 H 110.63 3.42985 -1.45575 0
M  V30 1108 H 110.743 3.43487 -3.33997 0
M  V30 1109 H 109.107 1.89219 -1.70494 0
M  V30 1110 H 109.89 1.18814 -3.22084 0
M  V30 1111 N 112.336 1.25143 0.95797 0
M  V30 1112 C 113.582 1.09855 1.70469 0
M  V30 1113 C 113.915 -0.360187 1.90831 0
M  V30 1114 O 113.19 -1.26568 1.47685 0
M  V30 1115 C 113.473 1.8497 3.08963 0
M  V30 1116 C 113.326 3.38652 2.96032 0
M  V30 1117 C 114.645 1.63016 4.08795 0
M  V30 1118 H 111.764 0.400465 0.618706 0
M  V30 1119 H 114.406 1.53933 1.11376 0
M  V30 1120 H 112.556 1.47505 3.59409 0
M  V30 1121 H 114.228 3.85772 2.52938 0
M  V30 1122 H 112.471 3.66534 2.32025 0
M  V30 1123 H 113.142 3.8642 3.94187 0
M  V30 1124 H 115.618 1.95625 3.67247 0
M  V30 1125 H 114.494 2.18015 5.03747 0
M  V30 1126 H 114.755 0.570692 4.38401 0
M  V30 1127 N 113.814 -1.1601 1.06675 0
M  V30 1128 C 115.091 -1.82679 0.699114 0
M  V30 1129 C 115.471 -1.94559 -0.819137 0
M  V30 1130 O 114.819 -1.49169 -1.73092 0
M  V30 1131 C 115.029 -3.19445 1.40555 0
M  V30 1132 C 116.377 -3.95171 1.55323 0
M  V30 1133 O 117.401 -3.28976 1.36577 0
M  V30 1134 O 116.26 -5.13833 1.86112 0
M  V30 1135 H 113.354 -0.788954 0.247951 0
M  V30 1136 H 115.9 -1.23179 1.16726 0
M  V30 1137 H 114.672 -3.05856 2.44065 0
M  V30 1138 H 114.295 -3.86625 0.927733 0
M  V30 1139 N 115.292 -0.849877 -1.32721 0
M  V30 1140 C 116.222 -0.306308 -2.31482 0
M  V30 1141 C 117.203 0.591952 -1.59468 0
M  V30 1142 O 118.388 0.513199 -1.87296 0
M  V30 1143 C 115.518 0.510204 -3.43532 0
M  V30 1144 C 114.472 -0.293209 -4.26994 0
M  V30 1145 C 113.798 0.647743 -5.30762 0
M  V30 1146 C 115.098 -1.51634 -4.99804 0
M  V30 1147 H 116.792 -1.13153 -2.77195 0
M  V30 1148 H 114.338 -0.545553 -1.33266 0
M  V30 1149 H 116.291 0.900856 -4.11658 0
M  V30 1150 H 115.015 1.36874 -2.96535 0
M  V30 1151 H 113.674 -0.665555 -3.60508 0
M  V30 1152 H 113.322 1.50299 -4.8002 0
M  V30 1153 H 113.022 0.11422 -5.87489 0
M  V30 1154 H 114.546 1.03567 -6.01753 0
M  V30 1155 H 115.96 -1.19824 -5.60638 0
M  V30 1156 H 114.357 -1.98745 -5.66234 0
M  V30 1157 H 115.427 -2.28018 -4.27943 0
M  V30 1158 N 116.77 1.45427 -0.607355 0
M  V30 1159 C 117.7 2.3329 0.0989352 0
M  V30 1160 C 118.681 1.46816 0.859007 0
M  V30 1161 O 119.866 1.75588 0.829604 0
M  V30 1162 C 116.996 3.29518 1.09705 0
M  V30 1163 C 115.95 4.25626 0.450206 0
M  V30 1164 C 115.276 5.11542 1.55655 0
M  V30 1165 C 116.576 5.18505 -0.628455 0
M  V30 1166 H 118.27 2.92595 -0.634716 0
M  V30 1167 H 115.816 1.40696 -0.306681 0
M  V30 1168 H 117.769 3.89855 1.59971 0
M  V30 1169 H 116.493 2.68372 1.86129 0
M  V30 1170 H 115.152 3.66586 -0.0315886 0
M  V30 1171 H 114.8 4.46765 2.31107 0
M  V30 1172 H 114.5 5.76647 1.12925 0
M  V30 1173 H 116.024 5.74748 2.06148 0
M  V30 1174 H 117.438 5.72916 -0.209877 0
M  V30 1175 H 115.835 5.92085 -0.977489 0
M  V30 1176 H 116.905 4.60948 -1.50514 0
M  V30 1177 N 118.248 0.346503 1.53744 0
M  V30 1178 C 119.494 -0.249473 2.0126 0
M  V30 1179 C 119.827 -1.49965 1.23386 0
M  V30 1180 O 119.102 -1.91811 0.32229 0
M  V30 1181 C 119.385 -0.560643 3.55709 0
M  V30 1182 C 119.238 0.701836 4.44291 0
M  V30 1183 C 120.557 -1.36905 4.18264 0
M  V30 1184 H 117.676 -0.0891987 0.731582 0
M  V30 1185 H 120.318 0.467624 1.84156 0
M  V30 1186 H 118.468 -1.17156 3.70414 0
M  V30 1187 H 120.14 1.33974 4.41417 0
M  V30 1188 H 118.383 1.32612 4.13033 0
M  V30 1189 H 119.054 0.43933 5.50249 0
M  V30 1190 H 121.53 -0.852448 4.07275 0
M  V30 1191 H 120.406 -1.55553 5.26398 0
M  V30 1192 H 120.667 -2.37203 3.73078 0
M  V30 1193 N 119.726 -1.57421 0.075193 0
M  V30 1194 C 120.674 -2.14124 -0.908508 0
M  V30 1195 C 121.668 -1.07898 -1.30592 0
M  V30 1196 O 122.874 -1.26273 -1.28277 0
M  V30 1197 H 119.249 -0.684707 -0.310935 0
M  V30 1198 H 121.22 -2.95634 -0.405374 0
M  V30 1199 C 119.969 -2.72044 -2.16535 0
M  V30 1200 H 119.292 -3.53456 -1.86839 0
M  V30 1201 H 120.732 -3.15311 -2.83469 0
M  V30 1202 C 119.191 -1.66968 -2.92615 0
M  V30 1203 O 119.721 -1.0967 -3.86439 0
M  V30 1204 N 117.927 -1.37923 -2.55784 0
M  V30 1205 H 117.474 -1.84706 -1.79559 0
M  V30 1206 H 117.432 -0.67852 -3.06991 0
M  V30 1207 N 121.204 0.198386 -1.56346 0
M  V30 1208 C 122.152 1.26538 -1.95169 0
M  V30 1209 C 123.146 1.47295 -0.836685 0
M  V30 1210 O 124.352 1.48195 -1.02167 0
M  V30 1211 H 120.727 0.424744 -0.620561 0
M  V30 1212 H 122.698 0.910904 -2.84157 0
M  V30 1213 C 121.447 2.6035 -2.30463 0
M  V30 1214 H 120.77 2.45192 -3.15786 0
M  V30 1215 H 122.21 3.33762 -2.61494 0
M  V30 1216 C 120.669 3.17096 -1.13806 0
M  V30 1217 O 121.199 3.99588 -0.41135 0
M  V30 1218 N 119.405 2.75795 -0.915736 0
M  V30 1219 H 118.952 2.08816 -1.50843 0
M  V30 1220 H 118.91 3.14101 -0.136979 0
M  V30 1221 N 122.682 1.50554 0.465978 0
M  V30 1222 C 123.645 1.69233 1.54574 0
M  V30 1223 C 124.645 0.562901 1.50626 0
M  V30 1224 O 125.835 0.830016 1.53155 0
M  V30 1225 C 122.967 1.7223 2.94193 0
M  V30 1226 H 124.16 2.65571 1.39327 0
M  V30 1227 H 121.713 1.40111 0.692711 0
M  V30 1228 H 122.448 0.77603 3.14878 0
M  V30 1229 H 122.233 2.54285 2.98466 0
M  V30 1230 H 123.723 1.88618 3.72576 0
M  V30 1231 N 124.16 -0.719506 1.40217 0
M  V30 1232 C 125.123 -1.8153 1.39927 0
M  V30 1233 C 126.123 -1.58095 0.293723 0
M  V30 1234 O 127.313 -1.65209 0.552429 0
M  V30 1235 C 124.445 -3.19561 1.18716 0
M  V30 1236 H 125.638 -1.83186 2.37451 0
M  V30 1237 H 123.191 -0.924746 1.26008 0
M  V30 1238 H 123.926 -3.23557 0.219366 0
M  V30 1239 H 123.711 -3.3797 1.98793 0
M  V30 1240 H 125.201 -3.99598 1.21291 0
M  V30 1241 N 125.638 -1.25649 -0.95132 0
M  V30 1242 C 126.884 -1.10757 -1.69884 0
M  V30 1243 C 127.217 0.350061 -1.91019 0
M  V30 1244 O 126.492 1.25783 -1.48354 0
M  V30 1245 C 126.775 -1.86606 -3.07978 0
M  V30 1246 C 126.628 -3.40217 -2.94232 0
M  V30 1247 C 127.947 -1.65182 -4.07925 0
M  V30 1248 H 125.066 -0.40374 -0.616574 0
M  V30 1249 H 127.708 -1.54521 -1.10558 0
M  V30 1250 H 125.858 -1.49409 -3.58621 0
M  V30 1251 H 127.53 -3.87108 -2.50889 0
M  V30 1252 H 125.773 -3.67759 -2.30078 0
M  V30 1253 H 126.444 -3.88505 -3.92133 0
M  V30 1254 H 128.92 -1.9757 -3.66204 0
M  V30 1255 H 127.796 -2.20683 -5.02583 0
M  V30 1256 H 128.057 -0.593933 -4.38092 0
M  V30 1257 N 127.117 1.15442 -1.07289 0
M  V30 1258 C 128.08 2.18358 -0.696591 0
M  V30 1259 C 129.08 1.58637 0.262837 0
M  V30 1260 O 130.27 1.74145 0.0438809 0
M  V30 1261 C 127.402 3.4089 -0.0266151 0
M  V30 1262 H 128.595 2.53162 -1.60776 0
M  V30 1263 H 126.148 1.29893 -0.869342 0
M  V30 1264 H 126.883 3.11653 0.896822 0
M  V30 1265 H 126.668 3.85495 -0.716657 0
M  V30 1266 H 128.158 4.17009 0.222028 0
M  V30 1267 N 128.595 0.856903 1.32268 0
M  V30 1268 C 129.525 0.31858 2.31316 0
M  V30 1269 C 130.506 -0.583487 1.59779 0
M  V30 1270 O 131.691 -0.503259 1.87566 0
M  V30 1271 C 128.821 -0.491979 3.43798 0
M  V30 1272 C 127.775 0.315849 4.26833 0
M  V30 1273 C 127.101 -0.619586 5.31098 0
M  V30 1274 C 128.401 1.54282 4.98993 0
M  V30 1275 H 130.095 1.14621 2.76591 0
M  V30 1276 H 127.641 0.552613 1.32974 0
M  V30 1277 H 129.594 -0.879012 4.1213 0
M  V30 1278 H 128.318 -1.35299 2.97257 0
M  V30 1279 H 126.977 0.684664 3.6015 0
M  V30 1280 H 126.625 -1.47751 4.8081 0
M  V30 1281 H 126.325 -0.0830621 5.87541 0
M  V30 1282 H 127.849 -1.00375 6.02293 0
M  V30 1283 H 129.263 1.22796 5.59995 0
M  V30 1284 H 127.66 2.01745 5.65172 0
M  V30 1285 H 128.73 2.30285 4.26728 0
M  V30 1286 N 130.073 -1.45103 0.615059 0
M  V30 1287 C 131.003 -2.33339 -0.0865619 0
M  V30 1288 C 131.984 -1.4727 -0.851209 0
M  V30 1289 O 133.169 -1.76026 -0.820281 0
M  V30 1290 C 130.299 -3.30095 -1.07956 0
M  V30 1291 C 129.253 -4.25858 -0.427628 0
M  V30 1292 C 128.579 -5.12361 -1.5294 0
M  V30 1293 C 129.879 -5.18165 0.655944 0
M  V30 1294 H 131.573 -2.92254 0.650224 0
M  V30 1295 H 129.119 -1.40532 0.314138 0
M  V30 1296 H 131.072 -3.90698 -1.57901 0
M  V30 1297 H 129.796 -2.69355 -1.84703 0
M  V30 1298 H 128.455 -3.66564 0.0510292 0
M  V30 1299 H 128.103 -4.47984 -2.28734 0
M  V30 1300 H 127.803 -5.77238 -1.09865 0
M  V30 1301 H 129.327 -5.75833 -2.03098 0
M  V30 1302 H 130.741 -5.72796 0.240257 0
M  V30 1303 H 129.138 -5.91559 1.00888 0
M  V30 1304 H 130.208 -4.60144 1.52957 0
M  V30 1305 N 131.551 -0.354651 -1.53558 0
M  V30 1306 C 132.483 0.5315 -2.22952 0
M  V30 1307 C 133.496 1.05503 -1.23988 0
M  V30 1308 O 134.685 0.963279 -1.50277 0
M  V30 1309 C 131.785 1.74538 -2.90499 0
M  V30 1310 C 130.958 1.35524 -4.15875 0
M  V30 1311 C 130.017 2.42999 -4.66731 0
M  V30 1312 O 129.043 2.05844 -5.30676 0
M  V30 1313 N 130.245 3.74423 -4.43608 0
M  V30 1314 H 133.01 -0.0628615 -2.99634 0
M  V30 1315 H 130.571 -0.179302 -1.60904 0
M  V30 1316 H 132.563 2.45892 -3.21433 0
M  V30 1317 H 131.133 2.24686 -2.17336 0
M  V30 1318 H 130.353 0.471998 -3.91364 0
M  V30 1319 H 131.641 1.07071 -4.97406 0
M  V30 1320 H 131.039 4.07391 -3.92491 0
M  V30 1321 H 129.596 4.41913 -4.7912 0
M  V30 1322 N 133.029 1.57378 -0.0835403 0
M  V30 1323 C 134.44 1.81261 0.447358 0
M  V30 1324 C 134.791 0.998331 1.68902 0
M  V30 1325 O 133.916 0.224282 2.15235 0
M  V30 1326 C 134.511 3.28767 0.818386 0
M  V30 1327 C 133.07 3.53455 1.29409 0
M  V30 1328 C 132.217 2.75831 0.285024 0
M  V30 1329 H 135.168 1.5566 -0.309115 0
M  V30 1330 H 135.189 3.41459 1.67887 0
M  V30 1331 H 134.701 3.88006 -0.0855019 0
M  V30 1332 H 132.802 2.99534 2.21608 0
M  V30 1333 H 132.915 4.62128 1.2639 0
M  V30 1334 H 131.279 2.42947 0.764767 0
M  V30 1335 H 132.062 3.37813 -0.611341 0
M  V30 1336 N 134.507 -0.190092 1.56449 0
M  V30 1337 C 135.754 -0.909705 1.80916 0
M  V30 1338 C 136.082 -1.83047 0.657583 0
M  V30 1339 O 135.337 -1.92428 -0.356356 0
M  V30 1340 C 135.636 -1.75382 3.1141 0
M  V30 1341 C 135.302 -0.983606 4.40041 0
M  V30 1342 C 133.964 -0.770967 4.74984 0
M  V30 1343 C 136.316 -0.442024 5.19322 0
M  V30 1344 C 133.644 -0.0053448 5.867 0
M  V30 1345 C 135.996 0.310412 6.31838 0
M  V30 1346 C 134.66 0.534023 6.6536 0
M  V30 1347 H 133.93 -0.332885 0.662019 0
M  V30 1348 H 136.577 -0.175762 1.90692 0
M  V30 1349 H 134.882 -2.55659 2.96893 0
M  V30 1350 H 136.579 -2.31331 3.27547 0
M  V30 1351 H 133.169 -1.15936 4.12622 0
M  V30 1352 H 137.353 -0.593693 4.92736 0
M  V30 1353 H 132.609 0.177825 6.11141 0
M  V30 1354 H 136.783 0.737419 6.92485 0
M  V30 1355 H 134.41 1.12918 7.51767 0
M  V30 1356 N 135.985 -1.50799 -0.457987 0
M  V30 1357 C 136.915 -1.73553 -1.5621 0
M  V30 1358 C 137.896 -0.584774 -1.59732 0
M  V30 1359 O 139.081 -0.825314 -1.7579 0
M  V30 1360 C 136.211 -1.84169 -2.94447 0
M  V30 1361 C 135.165 -2.99461 -3.0579 0
M  V30 1362 C 134.491 -2.95235 -4.45803 0
M  V30 1363 C 135.791 -4.39766 -2.81786 0
M  V30 1364 H 137.485 -2.66 -1.37421 0
M  V30 1365 H 135.031 -1.28002 -0.659662 0
M  V30 1366 H 136.984 -1.98672 -3.71628 0
M  V30 1367 H 135.708 -0.883545 -3.14422 0
M  V30 1368 H 134.367 -2.8463 -2.31044 0
M  V30 1369 H 134.015 -1.97239 -4.62715 0
M  V30 1370 H 133.715 -3.72642 -4.54326 0
M  V30 1371 H 135.239 -3.11803 -5.24987 0
M  V30 1372 H 136.653 -4.55054 -3.4871 0
M  V30 1373 H 135.05 -5.18722 -3.0174 0
M  V30 1374 H 136.12 -4.51229 -1.7754 0
M  V30 1375 N 137.463 0.71206 -1.40597 0
M  V30 1376 C 138.373 1.8562 -1.43466 0
M  V30 1377 C 139.389 1.70902 -0.326902 0
M  V30 1378 O 140.565 1.93105 -0.572043 0
M  V30 1379 C 137.63 3.21451 -1.29884 0
M  V30 1380 C 136.691 3.48398 -2.50833 0
M  V30 1381 C 135.924 4.77749 -2.3789 0
M  V30 1382 O 136.147 5.53089 -1.39459 0
M  V30 1383 O 135.081 5.05111 -3.27333 0
M  V30 1384 H 138.907 1.86155 -2.39958 0
M  V30 1385 H 136.492 0.86295 -1.21957 0
M  V30 1386 H 138.374 4.02579 -1.24531 0
M  V30 1387 H 137.049 3.21636 -0.364997 0
M  V30 1388 H 135.956 2.67265 -2.61763 0
M  V30 1389 H 137.289 3.53014 -3.4299 0
M  V30 1390 N 138.941 1.26152 0.944643 0
M  V30 1391 C 140.187 1.11657 1.69294 0
M  V30 1392 C 140.52 -0.339926 1.91202 0
M  V30 1393 O 139.795 -1.24994 1.49019 0
M  V30 1394 C 140.078 1.88236 3.06984 0
M  V30 1395 C 139.931 3.41772 2.92424 0
M  V30 1396 C 141.25 1.67343 4.07043 0
M  V30 1397 H 138.369 0.407004 0.614424 0
M  V30 1398 H 141.011 1.55106 1.09737 0
M  V30 1399 H 139.161 1.51308 3.57824 0
M  V30 1400 H 140.833 3.88433 2.48832 0
M  V30 1401 H 139.076 3.68974 2.28124 0
M  V30 1402 H 139.747 3.90579 3.90067 0
M  V30 1403 H 142.223 1.99509 3.65151 0
M  V30 1404 H 141.099 2.23346 5.01406 0
M  V30 1405 H 141.36 0.617158 4.37771 0
M  V30 1406 N 140.419 -1.14872 1.07899 0
M  V30 1407 C 141.647 -1.89661 0.82683 0
M  V30 1408 C 142.062 -1.78312 -0.620519 0
M  V30 1409 O 141.419 -1.13888 -1.42604 0
M  V30 1410 C 141.47 -3.39817 1.23316 0
M  V30 1411 O 141.191 -3.50845 2.62372 0
M  V30 1412 C 142.692 -4.31615 1.0111 0
M  V30 1413 H 139.912 -0.60092 0.298557 0
M  V30 1414 H 142.456 -1.4551 1.43691 0
M  V30 1415 H 140.611 -3.8161 0.667286 0
M  V30 1416 H 141.025 -4.44076 2.79101 0
M  V30 1417 H 142.499 -5.35367 1.34486 0
M  V30 1418 H 142.976 -4.39169 -0.0522168 0
M  V30 1419 H 143.582 -3.95572 1.56215 0
M  V30 1420 N 141.898 -0.863906 -1.31812 0
M  V30 1421 C 142.845 -0.313303 -2.28664 0
M  V30 1422 C 143.815 0.584868 -1.55462 0
M  V30 1423 O 145 0.517805 -1.83639 0
M  V30 1424 C 142.14 0.48441 -3.41683 0
M  V30 1425 C 141.253 -0.440594 -4.29747 0
M  V30 1426 C 140.388 0.370652 -5.29905 0
M  V30 1427 C 139.427 -0.551164 -6.09613 0
M  V30 1428 N 138.564 0.223462 -7.01744 0
M  V30 1429 H 143.404 -1.14444 -2.75148 0
M  V30 1430 H 140.941 -0.575769 -1.35364 0
M  V30 1431 H 142.899 0.962627 -4.05943 0
M  V30 1432 H 141.529 1.28029 -2.96325 0
M  V30 1433 H 140.581 -1.03724 -3.65986 0
M  V30 1434 H 141.893 -1.14767 -4.85417 0
M  V30 1435 H 141.047 0.911638 -5.99812 0
M  V30 1436 H 139.786 1.11105 -4.74876 0
M  V30 1437 H 138.791 -1.10396 -5.38603 0
M  V30 1438 H 140.016 -1.29032 -6.66729 0
M  V30 1439 H 137.962 0.946787 -6.49132 0
M  V30 1440 H 137.879 -0.424399 -7.54808 0
M  V30 1441 H 139.147 0.745876 -7.75923 0
M  V30 1442 N 143.376 1.44774 -0.622745 0
M  V30 1443 C 144.286 2.34433 0.0886031 0
M  V30 1444 C 145.302 1.52131 0.844529 0
M  V30 1445 O 146.478 1.84886 0.798691 0
M  V30 1446 C 143.543 3.29986 1.0635 0
M  V30 1447 C 142.604 4.28195 0.307873 0
M  V30 1448 C 141.837 5.19183 1.23633 0
M  V30 1449 O 142.06 5.13918 2.47476 0
M  V30 1450 O 140.994 5.97515 0.725189 0
M  V30 1451 H 144.82 2.96693 -0.648599 0
M  V30 1452 H 142.405 1.44408 -0.382957 0
M  V30 1453 H 144.287 3.88825 1.6246 0
M  V30 1454 H 142.962 2.70269 1.78146 0
M  V30 1455 H 141.869 3.72927 -0.296064 0
M  V30 1456 H 143.202 4.90808 -0.3699 0
M  V30 1457 N 144.854 0.36279 1.53368 0
M  V30 1458 C 145.817 -0.472679 2.24273 0
M  V30 1459 C 146.817 -1.012 1.24961 0
M  V30 1460 O 148.007 -0.898194 1.49259 0
M  V30 1461 C 145.139 -1.66039 2.97731 0
M  V30 1462 H 146.332 0.14773 2.99536 0
M  V30 1463 H 143.885 0.114434 1.55881 0
M  V30 1464 H 144.62 -2.31896 2.26704 0
M  V30 1465 H 144.405 -1.28066 3.70596 0
M  V30 1466 H 145.895 -2.25252 3.51641 0
M  V30 1467 N 146.332 -1.57332 0.0918853 0
M  V30 1468 C 147.579 -1.94236 -0.572577 0
M  V30 1469 C 147.907 -0.973398 -1.6839 0
M  V30 1470 O 147.162 0.00756912 -1.95699 0
M  V30 1471 C 147.461 -3.37689 -1.17051 0
M  V30 1472 C 147.127 -4.50527 -0.183304 0
M  V30 1473 C 145.789 -4.81119 0.0882276 0
M  V30 1474 C 148.141 -5.18883 0.49095 0
M  V30 1475 C 145.469 -5.77395 1.04076 0
M  V30 1476 C 147.821 -6.1618 1.43193 0
M  V30 1477 C 146.485 -6.45179 1.71173 0
M  V30 1478 H 145.755 -0.710762 -0.209521 0
M  V30 1479 H 148.402 -1.9077 0.167036 0
M  V30 1480 H 146.707 -3.37718 -1.9863 0
M  V30 1481 H 148.404 -3.63543 -1.69227 0
M  V30 1482 H 144.994 -4.26681 -0.405124 0
M  V30 1483 H 149.178 -4.95427 0.294312 0
M  V30 1484 H 144.434 -5.98179 1.26457 0
M  V30 1485 H 148.608 -6.68243 1.96023 0
M  V30 1486 H 146.235 -7.1959 2.4514 0
M  V30 1487 N 147.81 0.181792 -1.56548 0
M  V30 1488 C 149.087 0.926765 -1.72251 0
M  V30 1489 C 149.467 2.00831 -0.650386 0
M  V30 1490 O 148.815 2.26008 0.336521 0
M  V30 1491 C 149.025 1.50106 -3.1507 0
M  V30 1492 C 150.373 1.97805 -3.75711 0
M  V30 1493 O 151.397 1.59922 -3.18282 0
M  V30 1494 O 150.256 2.67555 -4.76525 0
M  V30 1495 H 147.35 0.435506 -0.703039 0
M  V30 1496 H 149.896 0.170443 -1.68842 0
M  V30 1497 H 148.668 0.72212 -3.84579 0
M  V30 1498 H 148.291 2.32186 -3.22763 0
M  V30 1499 N 149.288 1.51039 0.449983 0
M  V30 1500 C 150.704 1.38934 0.785462 0
M  V30 1501 C 150.904 0.461817 1.96136 0
M  V30 1502 O 149.96 -0.0877389 2.52348 0
M  V30 1503 C 151.273 2.80724 1.0777 0
M  V30 1504 C 152.821 2.89787 1.1829 0
M  V30 1505 C 153.296 4.32457 1.50815 0
M  V30 1506 N 154.787 4.35505 1.57764 0
M  V30 1507 C 155.522 5.42914 1.84477 0
M  V30 1508 N 155.018 6.60502 2.09068 0
M  V30 1509 N 156.811 5.3038 1.86155 0
M  V30 1510 H 148.962 2.09904 -0.324647 0
M  V30 1511 H 151.225 0.944378 -0.0827957 0
M  V30 1512 H 150.931 3.50531 0.286498 0
M  V30 1513 H 150.805 3.19273 2.00859 0
M  V30 1514 H 153.192 2.20186 1.96474 0
M  V30 1515 H 153.273 2.54752 0.231314 0
M  V30 1516 H 152.917 5.02603 0.731622 0
M  V30 1517 H 152.847 4.64995 2.47158 0
M  V30 1518 H 155.338 3.50724 1.40715 0
M  V30 1519 H 155.651 7.38158 2.28785 0
M  V30 1520 H 153.996 6.63639 2.06416 0
M  V30 1521 H 157.187 4.37505 1.66454 0
M  V30 1522 H 157.36 6.1417 2.06637 0
M  V30 1523 N 150.766 -0.704594 1.40972 0
M  V30 1524 C 151.991 -1.49858 1.43378 0
M  V30 1525 C 152.416 -1.88061 0.038184 0
M  V30 1526 O 151.774 -1.5402 -0.956425 0
M  V30 1527 C 151.822 -2.74333 2.34038 0
M  V30 1528 O 150.926 -3.7147 1.7912 0
M  V30 1529 H 150.267 -0.45139 0.486974 0
M  V30 1530 H 152.797 -0.866832 1.8533 0
M  V30 1531 H 152.807 -3.22741 2.49604 0
M  V30 1532 H 151.482 -2.45863 3.35446 0
M  V30 1533 H 150.059 -3.30363 1.72958 0
M  V30 1534 N 152.244 -1.26651 -0.937939 0
M  V30 1535 C 153.491 -1.12387 -1.6845 0
M  V30 1536 C 153.819 0.332208 -1.91642 0
M  V30 1537 O 153.074 1.2602 -1.49725 0
M  V30 1538 C 153.373 -1.84168 -3.06295 0
M  V30 1539 C 153.039 -3.34056 -3.02849 0
M  V30 1540 C 151.701 -3.74942 -3.01616 0
M  V30 1541 C 154.053 -4.29741 -2.9491 0
M  V30 1542 C 151.381 -5.09894 -2.90215 0
M  V30 1543 C 153.733 -5.64738 -2.8505 0
M  V30 1544 C 152.397 -6.0493 -2.82162 0
M  V30 1545 H 151.667 -0.411252 -0.616403 0
M  V30 1546 H 154.314 -1.57134 -1.09459 0
M  V30 1547 H 152.619 -1.319 -3.6893 0
M  V30 1548 H 154.316 -1.70569 -3.62915 0
M  V30 1549 H 150.906 -3.01534 -3.0459 0
M  V30 1550 H 155.09 -3.99133 -2.94969 0
M  V30 1551 H 150.346 -5.40194 -2.86358 0
M  V30 1552 H 154.52 -6.38561 -2.77872 0
M  V30 1553 H 152.147 -7.09457 -2.73084 0
M  V30 1554 N 153.722 1.14298 -1.08507 0
M  V30 1555 C 154.632 2.23027 -0.727753 0
M  V30 1556 C 155.648 1.71952 0.26619 0
M  V30 1557 O 156.824 2.011 0.109882 0
M  V30 1558 C 153.889 3.46403 -0.143541 0
M  V30 1559 C 152.95 4.12413 -1.19223 0
M  V30 1560 C 152.183 5.29899 -0.635798 0
M  V30 1561 O 152.406 5.67796 0.544393 0
M  V30 1562 O 151.34 5.85717 -1.38634 0
M  V30 1563 H 155.166 2.55945 -1.63481 0
M  V30 1564 H 152.751 1.22248 -0.858817 0
M  V30 1565 H 154.633 4.21018 0.179404 0
M  V30 1566 H 153.308 3.15206 0.736659 0
M  V30 1567 H 152.215 3.39667 -1.56772 0
M  V30 1568 H 153.548 4.47718 -2.04474 0
M  V30 1569 N 155.201 0.870884 1.31352 0
M  V30 1570 C 156.447 0.482987 1.96965 0
M  V30 1571 C 156.78 -0.962462 1.68672 0
M  V30 1572 O 156.055 -1.6779 0.98371 0
M  V30 1573 C 156.338 0.741752 3.52378 0
M  V30 1574 C 156.191 2.2368 3.9024 0
M  V30 1575 C 157.51 0.208838 4.39604 0
M  V30 1576 H 154.629 0.176955 0.715441 0
M  V30 1577 H 157.271 1.09229 1.55464 0
M  V30 1578 H 155.421 0.223149 3.87859 0
M  V30 1579 H 157.093 2.82273 3.64856 0
M  V30 1580 H 155.336 2.70901 3.38814 0
M  V30 1581 H 156.007 2.3685 4.98604 0
M  V30 1582 H 158.483 0.652529 4.10952 0
M  V30 1583 H 157.359 0.419336 5.47296 0
M  V30 1584 H 157.62 -0.889275 4.33064 0
M  V30 1585 N 156.679 -1.44442 0.630414 0
M  V30 1586 C 157.627 -2.32437 -0.0871428 0
M  V30 1587 C 158.621 -1.47304 -0.836525 0
M  V30 1588 O 159.827 -1.63653 -0.749506 0
M  V30 1589 H 156.202 -0.750533 -0.0469495 0
M  V30 1590 H 158.173 -2.90709 0.673096 0
M  V30 1591 C 156.922 -3.31288 -1.05563 0
M  V30 1592 H 156.245 -3.96805 -0.488426 0
M  V30 1593 H 157.685 -3.9554 -1.52721 0
M  V30 1594 C 156.144 -2.6016 -2.14052 0
M  V30 1595 O 156.674 -2.39997 -3.22124 0
M  V30 1596 N 154.88 -2.19911 -1.89967 0
M  V30 1597 H 154.427 -2.36509 -1.02085 0
M  V30 1598 H 154.385 -1.72646 -2.62756 0
M  V30 1599 N 158.157 -0.370918 -1.53173 0
M  V30 1600 C 159.087 0.464847 -2.28826 0
M  V30 1601 C 160.068 1.07936 -1.31468 0
M  V30 1602 O 161.253 1.0956 -1.60344 0
M  V30 1603 C 158.383 1.60196 -3.08147 0
M  V30 1604 C 157.337 1.11443 -4.13237 0
M  V30 1605 C 156.663 2.3422 -4.80672 0
M  V30 1606 C 157.963 0.195384 -5.21934 0
M  V30 1607 H 159.657 -0.166329 -2.98938 0
M  V30 1608 H 157.203 -0.0814359 -1.4377 0
M  V30 1609 H 159.156 2.19332 -3.59822 0
M  V30 1610 H 157.88 2.26045 -2.35735 0
M  V30 1611 H 156.539 0.545727 -3.62515 0
M  V30 1612 H 156.187 2.98537 -4.04827 0
M  V30 1613 H 155.887 2.02269 -5.51689 0
M  V30 1614 H 157.411 2.94032 -5.35143 0
M  V30 1615 H 158.825 0.694375 -5.69079 0
M  V30 1616 H 157.222 -0.0335027 -6.00091 0
M  V30 1617 H 158.292 -0.760961 -4.78892 0
M  V30 1618 N 159.635 1.57281 -0.100228 0
M  V30 1619 C 161.051 1.57527 0.256416 0
M  V30 1620 C 161.251 1.11173 1.68056 0
M  V30 1621 O 160.307 0.79053 2.39806 0
M  V30 1622 C 161.62 3.00673 0.0401747 0
M  V30 1623 C 163.168 3.12815 0.107528 0
M  V30 1624 C 163.643 4.57929 -0.0807834 0
M  V30 1625 N 165.134 4.63193 -0.0261207 0
M  V30 1626 C 165.869 5.73212 -0.146999 0
M  V30 1627 N 165.365 6.92047 -0.322999 0
M  V30 1628 N 167.158 5.62031 -0.0879044 0
M  V30 1629 H 159.309 1.85718 -1.03065 0
M  V30 1630 H 161.572 0.857446 -0.404339 0
M  V30 1631 H 161.278 3.38804 -0.943649 0
M  V30 1632 H 161.152 3.69042 0.780262 0
M  V30 1633 H 163.539 2.74554 1.08186 0
M  V30 1634 H 163.62 2.47028 -0.664134 0
M  V30 1635 H 163.264 4.96886 -1.05201 0
M  V30 1636 H 163.194 5.21783 0.710635 0
M  V30 1637 H 165.685 3.77748 0.107161 0
M  V30 1638 H 165.998 7.7173 -0.406608 0
M  V30 1639 H 164.343 6.94074 -0.358733 0
M  V30 1640 H 167.534 4.68075 0.048498 0
M  V30 1641 H 167.707 6.47734 -0.185557 0
M  V30 1642 N 161.113 -0.173488 1.56642 0
M  V30 1643 C 162.076 -1.19859 1.95362 0
M  V30 1644 C 163.076 -1.37296 0.83704 0
M  V30 1645 O 164.266 -1.34739 1.10413 0
M  V30 1646 C 161.398 -2.56405 2.24654 0
M  V30 1647 H 162.591 -0.867062 2.87092 0
M  V30 1648 H 160.144 -0.415853 1.50666 0
M  V30 1649 H 160.879 -2.94576 1.35631 0
M  V30 1650 H 160.664 -2.45115 3.06041 0
M  V30 1651 H 162.154 -3.30287 2.5554 0
M  V30 1652 N 162.591 -1.51276 -0.441967 0
M  V30 1653 C 163.837 -1.63958 -1.19355 0
M  V30 1654 C 164.17 -0.352543 -1.90973 0
M  V30 1655 O 163.445 0.647627 -1.83401 0
M  V30 1656 C 163.728 -2.83979 -2.21422 0
M  V30 1657 C 163.581 -4.22646 -1.53918 0
M  V30 1658 C 164.9 -2.99521 -3.22451 0
M  V30 1659 H 162.019 -0.596709 -0.432559 0
M  V30 1660 H 164.661 -1.83748 -0.483398 0
M  V30 1661 H 162.811 -2.67237 -2.81987 0
M  V30 1662 H 164.483 -4.51045 -0.967256 0
M  V30 1663 H 162.726 -4.25558 -0.841615 0
M  V30 1664 H 163.397 -5.02609 -2.28229 0
M  V30 1665 H 165.873 -3.14944 -2.71937 0
M  V30 1666 H 164.749 -3.85072 -3.91166 0
M  V30 1667 H 165.01 -2.11391 -3.88287 0
M  V30 1668 N 164.069 0.697108 -1.41344 0
M  V30 1669 C 165.318 1.45279 -1.39918 0
M  V30 1670 C 165.631 1.95597 -0.0109624 0
M  V30 1671 O 166.837 2.71208 0.125919 0
M  V30 1672 C 165.293 2.62695 -2.46007 0
M  V30 1673 C 164.901 2.19169 -3.90729 0
M  V30 1674 C 166.645 3.40336 -2.53715 0
M  V30 1675 C 164.552 3.33535 -4.88373 0
M  V30 1676 H 163.482 0.545692 -0.520323 0
M  V30 1677 H 166.133 0.756929 -1.67161 0
M  V30 1678 H 164.515 3.34541 -2.11892 0
M  V30 1679 H 165.689 1.54623 -4.34083 0
M  V30 1680 H 164.004 1.54525 -3.86666 0
M  V30 1681 H 166.601 4.2547 -3.2385 0
M  V30 1682 H 166.944 3.85418 -1.5735 0
M  V30 1683 H 167.477 2.75546 -2.86913 0
M  V30 1684 H 164.216 2.93468 -5.86137 0
M  V30 1685 H 163.736 3.96936 -4.49668 0
M  V30 1686 H 165.415 3.99335 -5.09059 0
M  V30 1687 N 165.547 1.27147 0.931209 0
M  V30 1688 C 166.479 1.05364 2.03546 0
M  V30 1689 C 167.492 0.0108438 1.62796 0
M  V30 1690 O 168.681 0.25202 1.76712 0
M  V30 1691 C 165.781 0.575566 3.33977 0
M  V30 1692 C 164.954 1.68985 4.03439 0
M  V30 1693 C 164.013 1.20813 5.12143 0
M  V30 1694 O 163.039 1.90712 5.363 0
M  V30 1695 N 164.241 0.0618851 5.80467 0
M  V30 1696 H 167.006 2.00454 2.22796 0
M  V30 1697 H 164.567 1.18666 1.10136 0
M  V30 1698 H 166.559 0.237264 4.04004 0
M  V30 1699 H 165.129 -0.282016 3.11325 0
M  V30 1700 H 164.349 2.19861 3.27192 0
M  V30 1701 H 165.637 2.4378 4.46597 0
M  V30 1702 H 165.035 -0.521621 5.6329 0
M  V30 1703 H 163.592 -0.217264 6.51438 0
M  V30 1704 N 167.025 -1.13721 1.09112 0
M  V30 1705 C 168.271 -1.85198 0.826414 0
M  V30 1706 C 168.604 -1.83129 -0.646319 0
M  V30 1707 O 167.879 -1.2671 -1.47563 0
M  V30 1708 C 168.162 -3.33507 1.35812 0
M  V30 1709 C 168.015 -3.44108 2.89672 0
M  V30 1710 C 169.334 -4.28838 0.989256 0
M  V30 1711 H 166.453 -0.67243 0.301675 0
M  V30 1712 H 169.095 -1.33499 1.35197 0
M  V30 1713 H 167.245 -3.77666 0.911082 0
M  V30 1714 H 168.917 -3.08684 3.428 0
M  V30 1715 H 167.16 -2.85087 3.26967 0
M  V30 1716 H 167.831 -4.48388 3.21951 0
M  V30 1717 H 170.307 -3.92734 1.37475 0
M  V30 1718 H 169.183 -5.31051 1.38838 0
M  V30 1719 H 169.444 -4.4198 -0.102924 0
M  V30 1720 N 168.503 -0.877838 -1.30888 0
M  V30 1721 C 169.728 -0.506629 -2.01117 0
M  V30 1722 C 170.153 0.895564 -1.65412 0
M  V30 1723 O 169.511 1.5923 -0.866922 0
M  V30 1724 C 169.559 -0.680223 -3.54126 0
M  V30 1725 O 168.663 0.277033 -4.11468 0
M  V30 1726 H 168.004 -0.200518 -0.633 0
M  V30 1727 H 170.534 -1.18342 -1.66902 0
M  V30 1728 H 170.544 -0.5765 -4.03907 0
M  V30 1729 H 169.219 -1.70261 -3.79452 0
M  V30 1730 H 167.796 0.127606 -3.72682 0
M  V30 1731 N 169.982 1.44106 -0.638065 0
M  V30 1732 C 170.914 2.28976 0.101205 0
M  V30 1733 C 171.927 1.4167 0.802088 0
M  V30 1734 O 173.116 1.65755 0.662375 0
M  V30 1735 C 170.216 3.18217 1.16581 0
M  V30 1736 C 169.389 4.33978 0.546066 0
M  V30 1737 C 168.448 5.04202 1.50554 0
M  V30 1738 O 167.474 5.59986 1.01999 0
M  V30 1739 N 168.676 5.06296 2.8398 0
M  V30 1740 H 171.441 2.93064 -0.627186 0
M  V30 1741 H 169.002 1.54629 -0.479731 0
M  V30 1742 H 170.994 3.62061 1.80815 0
M  V30 1743 H 169.564 2.55833 1.79634 0
M  V30 1744 H 168.784 3.93239 -0.275046 0
M  V30 1745 H 170.072 5.08675 0.112793 0
M  V30 1746 H 169.47 4.62319 3.26002 0
M  V30 1747 H 168.027 5.53907 3.43556 0
M  V30 1748 N 171.46 0.379036 1.52974 0
M  V30 1749 C 172.709 -0.207612 2.00629 0
M  V30 1750 C 173.022 -1.48758 1.27006 0
M  V30 1751 O 174.228 -2.15365 1.65318 0
M  V30 1752 C 172.684 -0.42053 3.57435 0
M  V30 1753 C 172.292 0.845587 4.39948 0
M  V30 1754 C 174.036 -0.964102 4.13407 0
M  V30 1755 C 171.943 0.601513 5.88333 0
M  V30 1756 H 170.873 -0.0813591 0.749598 0
M  V30 1757 H 173.524 0.499853 1.76561 0
M  V30 1758 H 171.906 -1.18959 3.7771 0
M  V30 1759 H 173.08 1.61848 4.31442 0
M  V30 1760 H 171.395 1.31336 3.95145 0
M  V30 1761 H 173.992 -1.16225 5.21916 0
M  V30 1762 H 174.335 -1.93019 3.68849 0
M  V30 1763 H 174.868 -0.25487 3.96983 0
M  V30 1764 H 171.607 1.53831 6.37194 0
M  V30 1765 H 171.127 -0.132628 5.99653 0
M  V30 1766 H 172.806 0.232134 6.46583 0
M  V30 1767 N 172.938 -1.57226 0.108567 0
M  V30 1768 C 174.184 -1.95121 -0.552761 0
M  V30 1769 C 174.517 -0.991345 -1.66991 0
M  V30 1770 O 173.792 -0.0267211 -1.94482 0
M  V30 1771 C 174.075 -3.43039 -1.09528 0
M  V30 1772 C 173.928 -4.49797 0.0177332 0
M  V30 1773 C 175.247 -3.92567 -1.98945 0
M  V30 1774 H 172.366 -0.709496 -0.199461 0
M  V30 1775 H 175.008 -1.89126 0.182011 0
M  V30 1776 H 173.158 -3.48279 -1.72146 0
M  V30 1777 H 174.83 -4.56661 0.652584 0
M  V30 1778 H 173.073 -4.284 0.682309 0
M  V30 1779 H 173.744 -5.50528 -0.402919 0
M  V30 1780 H 176.22 -3.89565 -1.46214 0
M  V30 1781 H 175.096 -4.96605 -2.33827 0
M  V30 1782 H 175.357 -3.32648 -2.91201 0
M  V30 1783 N 174.416 0.165178 -1.56732 0
M  V30 1784 C 175.379 1.18822 -1.95995 0
M  V30 1785 C 176.379 1.3685 -0.84431 0
M  V30 1786 O 177.569 1.34152 -1.11126 0
M  V30 1787 C 174.701 2.5521 -2.26011 0
M  V30 1788 H 175.894 0.851825 -2.87548 0
M  V30 1789 H 173.447 0.407857 -1.50885 0
M  V30 1790 H 174.182 2.93852 -1.37191 0
M  V30 1791 H 173.967 2.43489 -3.07336 0
M  V30 1792 H 175.457 3.28927 -2.57288 0
M  V30 1793 N 175.894 1.51508 0.433938 0
M  V30 1794 C 177.31 1.39759 0.770682 0
M  V30 1795 C 177.51 0.482594 1.95636 0
M  V30 1796 O 176.566 -0.0609691 2.52426 0
M  V30 1797 C 177.879 2.81851 1.04787 0
M  V30 1798 C 179.427 2.91025 1.1521 0
M  V30 1799 C 179.902 4.34032 1.46219 0
M  V30 1800 N 181.393 4.37154 1.53136 0
M  V30 1801 C 182.128 5.4484 1.78709 0
M  V30 1802 N 181.624 6.62682 2.02051 0
M  V30 1803 N 183.417 5.32324 1.80519 0
M  V30 1804 H 175.568 2.09548 -0.346892 0
M  V30 1805 H 177.831 0.943446 -0.0928074 0
M  V30 1806 H 177.537 3.50815 0.249304 0
M  V30 1807 H 177.411 3.21386 1.97461 0
M  V30 1808 H 179.798 2.22257 1.94128 0
M  V30 1809 H 179.879 2.54983 0.204281 0
M  V30 1810 H 179.523 5.03351 0.678274 0
M  V30 1811 H 179.453 4.6759 2.42212 0
M  V30 1812 H 181.944 3.52197 1.36987 0
M  V30 1813 H 182.257 7.40543 2.20943 0
M  V30 1814 H 180.602 6.65791 1.99366 0
M  V30 1815 H 183.793 4.39246 1.61805 0
M  V30 1816 H 183.966 6.16328 2.00111 0
M  V30 1817 N 177.372 -0.689602 1.41712 0
M  V30 1818 C 178.62 -1.4468 1.4111 0
M  V30 1819 C 178.941 -1.94986 0.0232196 0
M  V30 1820 O 178.211 -1.72097 -0.935913 0
M  V30 1821 H 176.791 -0.536847 0.519427 0
M  V30 1822 H 179.453 -0.815825 1.77004 0
M  V30 1823 H 178.549 -2.30706 2.10193 0
M  V30 1824 N 178.85 -1.27639 -0.924453 0
M  V30 1825 C 179.78 -1.13166 -2.04244 0
M  V30 1826 C 180.761 -0.032256 -1.70069 0
M  V30 1827 O 181.946 -0.207328 -1.9309 0
M  V30 1828 C 179.076 -0.781496 -3.38393 0
M  V30 1829 C 178.03 -1.83449 -3.86692 0
M  V30 1830 C 177.356 -1.33822 -5.17683 0
M  V30 1831 C 178.656 -3.23917 -4.09726 0
M  V30 1832 H 180.35 -2.06689 -2.1661 0
M  V30 1833 H 177.896 -0.995136 -1.04082 0
M  V30 1834 H 179.849 -0.667057 -4.16087 0
M  V30 1835 H 178.573 0.189439 -3.2605 0
M  V30 1836 H 177.232 -1.93789 -3.11193 0
M  V30 1837 H 176.88 -0.35665 -5.01734 0
M  V30 1838 H 176.58 -2.04224 -5.50968 0
M  V30 1839 H 178.104 -1.23679 -5.97943 0
M  V30 1840 H 179.518 -3.16559 -4.77978 0
M  V30 1841 H 177.915 -3.92059 -4.54324 0
M  V30 1842 H 178.985 -3.68729 -3.14908 0
M  V30 1843 N 180.328 1.1314 -1.09713 0
M  V30 1844 C 181.577 1.83838 -0.829851 0
M  V30 1845 C 181.89 1.84599 0.646728 0
M  V30 1846 O 183.096 2.51218 1.02965 0
M  V30 1847 C 181.552 3.30069 -1.43466 0
M  V30 1848 C 181.16 3.37688 -2.94399 0
M  V30 1849 C 182.904 4.05788 -1.24645 0
M  V30 1850 C 180.811 4.78209 -3.47952 0
M  V30 1851 H 179.741 0.68877 -0.306777 0
M  V30 1852 H 182.392 1.27448 -1.3202 0
M  V30 1853 H 180.774 3.8628 -0.871996 0
M  V30 1854 H 181.948 2.91456 -3.56918 0
M  V30 1855 H 180.263 2.75436 -3.12289 0
M  V30 1856 H 182.86 5.09535 -1.62107 0
M  V30 1857 H 183.203 4.15878 -0.187357 0
M  V30 1858 H 183.736 3.55915 -1.77678 0
M  V30 1859 H 180.475 4.73311 -4.53495 0
M  V30 1860 H 179.995 5.24924 -2.90198 0
M  V30 1861 H 181.674 5.47133 -3.45332 0
M  V30 1862 N 181.806 0.884767 1.30421 0
M  V30 1863 C 182.769 0.356277 2.26414 0
M  V30 1864 C 183.769 -0.501124 1.52792 0
M  V30 1865 O 184.959 -0.30831 1.7145 0
M  V30 1866 C 182.091 -0.492316 3.37326 0
M  V30 1867 H 183.284 1.20389 2.74675 0
M  V30 1868 H 180.837 0.661607 1.41607 0
M  V30 1869 H 181.572 -1.36052 2.94381 0
M  V30 1870 H 181.357 0.121832 3.91911 0
M  V30 1871 H 182.847 -0.853871 4.08777 0
M  V30 1872 N 183.284 -1.43765 0.645699 0
M  V30 1873 C 184.7 -1.56509 0.312591 0
M  V30 1874 C 184.9 -1.6307 -1.18365 0
M  V30 1875 O 183.956 -1.58167 -1.96824 0
M  V30 1876 C 185.269 -2.82968 1.01733 0
M  V30 1877 C 186.817 -2.96701 0.996865 0
M  V30 1878 C 187.292 -4.25982 1.68236 0
M  V30 1879 N 188.783 -4.32829 1.64964 0
M  V30 1880 C 189.518 -5.31613 2.14885 0
M  V30 1881 N 189.014 -6.36718 2.73061 0
M  V30 1882 N 190.807 -5.23217 2.05428 0
M  V30 1883 H 182.958 -1.3775 1.61675 0
M  V30 1884 H 185.221 -0.661067 0.679481 0
M  V30 1885 H 184.927 -2.84156 2.0724 0
M  V30 1886 H 184.801 -3.72957 0.564177 0
M  V30 1887 H 187.188 -2.95058 -0.0497719 0
M  V30 1888 H 187.269 -2.08022 1.48865 0
M  V30 1889 H 186.913 -4.28386 2.72852 0
M  V30 1890 H 186.843 -5.13545 1.16529 0
M  V30 1891 H 189.334 -3.57493 1.22503 0
M  V30 1892 H 189.647 -7.08401 3.08848 0
M  V30 1893 H 187.992 -6.37362 2.77118 0
M  V30 1894 H 191.183 -4.40019 1.59689 0
M  V30 1895 H 191.356 -6.00045 2.44643 0
M  V30 1896 N 184.763 -0.387143 -1.52771 0
M  V30 1897 C 186.011 0.195349 -2.01154 0
M  V30 1898 C 186.332 1.475 -1.27549 0
M  V30 1899 O 185.602 1.91878 -0.394924 0
M  V30 1900 H 184.182 0.075178 -0.743207 0
M  V30 1901 H 186.844 -0.518337 -1.87881 0
M  V30 1902 H 185.94 0.407096 -3.09434 0
M  V30 1903 N 186.241 1.57166 -0.116904 0
M  V30 1904 C 187.487 1.95412 0.542405 0
M  V30 1905 C 187.82 1.00019 1.66463 0
M  V30 1906 O 187.095 0.0370346 1.94465 0
M  V30 1907 C 187.378 3.43615 1.07708 0
M  V30 1908 C 187.231 4.49781 -0.0415868 0
M  V30 1909 C 188.55 3.93616 1.96861 0
M  V30 1910 H 185.669 0.710543 0.195696 0
M  V30 1911 H 188.311 1.89027 -0.192038 0
M  V30 1912 H 186.461 3.49187 1.70296 0
M  V30 1913 H 188.133 4.56308 -0.676793 0
M  V30 1914 H 186.376 4.28033 -0.705019 0
M  V30 1915 H 187.047 5.50733 0.373717 0
M  V30 1916 H 189.523 3.90335 1.44146 0
M  V30 1917 H 188.399 4.97838 2.3119 0
M  V30 1918 H 188.66 3.34188 2.89432 0
M  V30 1919 N 187.719 -0.156864 1.56817 0
M  V30 1920 C 189.13 -0.717916 1.72345 0
M  V30 1921 C 189.481 -1.82124 0.729747 0
M  V30 1922 O 188.606 -2.16141 -0.105781 0
M  V30 1923 C 189.201 -1.30904 3.12489 0
M  V30 1924 C 187.76 -1.81676 3.29653 0
M  V30 1925 C 186.907 -0.701349 2.68284 0
M  V30 1926 H 189.858 0.0686989 1.58551 0
M  V30 1927 H 189.879 -2.17882 3.11942 0
M  V30 1928 H 189.391 -0.505796 3.8479 0
M  V30 1929 H 187.492 -2.64598 2.62333 0
M  V30 1930 H 187.605 -1.95226 4.3752 0
M  V30 1931 H 185.969 -1.12548 2.28484 0
M  V30 1932 H 186.752 0.0902846 3.43181 0
M  V30 1933 N 189.197 -1.51736 -0.425897 0
M  V30 1934 C 190.445 -1.64644 -1.17204 0
M  V30 1935 C 190.766 -0.370486 -1.91448 0
M  V30 1936 O 190.036 0.614088 -1.86026 0
M  V30 1937 H 188.616 -0.606819 -0.435638 0
M  V30 1938 H 191.278 -1.88713 -0.487177 0
M  V30 1939 H 190.374 -2.47958 -1.89534 0
M  V30 1940 N 190.675 0.682077 -1.42076 0
M  V30 1941 C 191.638 1.77756 -1.44691 0
M  V30 1942 C 192.638 1.5726 -0.335535 0
M  V30 1943 O 193.828 1.63686 -0.596037 0
M  V30 1944 C 190.96 3.16301 -1.27146 0
M  V30 1945 H 192.153 1.76826 -2.42224 0
M  V30 1946 H 189.706 0.891012 -1.28416 0
M  V30 1947 H 190.441 3.22862 -0.305075 0
M  V30 1948 H 190.226 3.32581 -2.07683 0
M  V30 1949 H 191.716 3.96241 -1.31843 0
M  V30 1950 N 192.153 1.28127 0.917671 0
M  V30 1951 C 193.402 1.14432 1.66097 0
M  V30 1952 C 193.715 -0.307247 1.93172 0
M  V30 1953 O 194.921 -0.565259 2.65551 0
M  V30 1954 C 193.377 2.00015 2.99202 0
M  V30 1955 C 192.985 3.49889 2.79789 0
M  V30 1956 C 194.729 1.94996 3.77064 0
M  V30 1957 C 192.636 4.27636 4.08511 0
M  V30 1958 H 191.566 0.424662 0.62304 0
M  V30 1959 H 194.217 1.52628 1.01868 0
M  V30 1960 H 192.599 1.54672 3.64544 0
M  V30 1961 H 193.773 4.03162 2.23152 0
M  V30 1962 H 192.088 3.56392 2.15345 0
M  V30 1963 H 194.685 2.50354 4.72469 0
M  V30 1964 H 195.028 0.925819 4.05875 0
M  V30 1965 H 195.561 2.38287 3.18534 0
M  V30 1966 H 192.3 5.30615 3.84874 0
M  V30 1967 H 191.82 3.79137 4.64774 0
M  V30 1968 H 193.499 4.37346 4.76799 0
M  V30 1969 N 193.631 -1.12557 1.10312 0
M  V30 1970 C 194.877 -1.84311 0.846011 0
M  V30 1971 C 195.21 -1.83805 -0.626859 0
M  V30 1972 O 194.485 -1.28268 -1.46211 0
M  V30 1973 C 194.768 -3.32048 1.39341 0
M  V30 1974 C 194.621 -3.41016 2.93305 0
M  V30 1975 C 195.94 -4.27764 1.03468 0
M  V30 1976 H 193.059 -0.669192 0.30879 0
M  V30 1977 H 195.701 -1.32057 1.36605 0
M  V30 1978 H 193.851 -3.76678 0.951087 0
M  V30 1979 H 195.523 -3.05031 3.46055 0
M  V30 1980 H 193.766 -2.81603 3.29973 0
M  V30 1981 H 194.437 -4.44948 3.26689 0
M  V30 1982 H 196.913 -3.91253 1.41633 0
M  V30 1983 H 195.789 -5.29549 1.44463 0
M  V30 1984 H 196.05 -4.42064 -0.0560404 0
M  V30 1985 N 195.109 -0.891671 -1.2995 0
M  V30 1986 C 196.057 -0.353066 -2.29905 0
M  V30 1987 C 197.051 0.543509 -1.60444 0
M  V30 1988 O 198.257 0.4272 -1.74857 0
M  V30 1989 H 194.632 -0.095531 -0.745907 0
M  V30 1990 H 196.603 -1.20961 -2.72784 0
M  V30 1991 C 195.352 0.411475 -3.45257 0
M  V30 1992 H 194.675 -0.269182 -3.98893 0
M  V30 1993 H 196.115 0.753328 -4.17254 0
M  V30 1994 C 194.574 1.6111 -2.9588 0
M  V30 1995 O 195.104 2.71045 -2.96475 0
M  V30 1996 N 193.31 1.45054 -2.51809 0
M  V30 1997 H 192.857 0.556175 -2.51524 0
M  V30 1998 H 192.815 2.25453 -2.1913 0
M  V30 1999 N 196.587 1.43421 -0.653314 0
M  V30 2000 C 197.833 2.02111 -0.166992 0
M  V30 2001 C 198.166 1.51423 1.21592 0
M  V30 2002 O 197.441 0.707389 1.8118 0
M  V30 2003 C 197.724 3.5966 -0.177948 0
M  V30 2004 C 197.577 4.20579 -1.59478 0
M  V30 2005 C 198.896 4.37413 0.4856 0
M  V30 2006 H 196.015 0.734374 -0.0621557 0
M  V30 2007 H 198.657 1.70717 -0.834016 0
M  V30 2008 H 196.807 3.86537 0.390032 0
M  V30 2009 H 198.479 4.04732 -2.21336 0
M  V30 2010 H 196.722 3.77226 -2.14204 0
M  V30 2011 H 197.393 5.29665 -1.5543 0
M  V30 2012 H 199.869 4.161 0.00234528 0
M  V30 2013 H 198.745 5.47075 0.447207 0
M  V30 2014 H 199.006 4.13672 1.55974 0
M  V30 2015 N 198.065 0.39524 1.52563 0
M  V30 2016 C 199.29 -0.187456 2.06551 0
M  V30 2017 C 199.715 -1.39249 1.26457 0
M  V30 2018 O 199.073 -1.78947 0.291151 0
M  V30 2019 C 199.121 -0.529985 3.56684 0
M  V30 2020 O 198.225 -1.62307 3.79118 0
M  V30 2021 H 197.566 -0.0202537 0.663691 0
M  V30 2022 H 200.096 0.564426 1.96661 0
M  V30 2023 H 200.106 -0.792598 4.00227 0
M  V30 2024 H 198.781 0.350987 4.14416 0
M  V30 2025 H 197.358 -1.3537 3.47461 0
M  V30 2026 N 199.544 -1.57102 0.125237 0
M  V30 2027 C 200.769 -2.0019 -0.542101 0
M  V30 2028 C 201.194 -1.00449 -1.59034 0
M  V30 2029 O 200.552 0.0229423 -1.81285 0
M  V30 2030 C 200.6 -3.42129 -1.13929 0
M  V30 2031 O 199.704 -3.45307 -2.2547 0
M  V30 2032 H 199.045 -0.650171 -0.134812 0
M  V30 2033 H 201.575 -2.03461 0.215553 0
M  V30 2034 H 201.585 -3.80471 -1.4733 0
M  V30 2035 H 200.26 -4.14237 -0.371531 0
M  V30 2036 H 198.837 -3.1879 -1.93462 0
M  V30 2037 N 201.022 0.148545 -1.56898 0
M  V30 2038 C 201.954 1.20852 -1.9475 0
M  V30 2039 C 202.967 1.39265 -0.843152 0
M  V30 2040 O 204.156 1.38864 -1.12156 0
M  V30 2041 C 201.256 2.57362 -2.20495 0
M  V30 2042 C 200.429 2.59947 -3.51776 0
M  V30 2043 C 199.488 3.77984 -3.6608 0
M  V30 2044 O 198.514 3.62929 -4.38487 0
M  V30 2045 N 199.716 4.95375 -3.02629 0
M  V30 2046 H 202.481 0.886804 -2.86279 0
M  V30 2047 H 200.042 0.338121 -1.5833 0
M  V30 2048 H 202.034 3.34833 -2.27307 0
M  V30 2049 H 200.604 2.81832 -1.35238 0
M  V30 2050 H 199.824 1.68403 -3.56419 0
M  V30 2051 H 201.112 2.58704 -4.38121 0
M  V30 2052 H 200.51 5.10509 -2.43715 0
M  V30 2053 H 199.067 5.70627 -3.15004 0
M  V30 2054 N 202.5 1.5196 0.417844 0
M  V30 2055 C 203.74 1.67262 1.17486 0
M  V30 2056 C 204.104 0.38983 1.88001 0
M  V30 2057 O 205.305 0.418845 2.65517 0
M  V30 2058 C 203.576 2.85526 2.14965 0
M  V30 2059 S 205.135 3.21263 2.98891 0
M  V30 2060 H 201.953 0.589077 0.398132 0
M  V30 2061 H 204.555 1.89927 0.463452 0
M  V30 2062 H 203.259 3.77145 1.61833 0
M  V30 2063 H 202.79 2.65107 2.90657 0
M  V30 2064 H 204.805 2.69208 4.16823 0
M  V30 2065 N 203.978 -0.674533 1.42435 0
M  V30 2066 C 205.203 -1.46784 1.46524 0
M  V30 2067 C 205.628 -1.87938 0.078066 0
M  V30 2068 O 204.986 -1.56014 -0.92354 0
M  V30 2069 C 205.034 -2.69307 2.39805 0
M  V30 2070 O 204.138 -3.67587 1.86959 0
M  V30 2071 H 203.479 -0.440959 0.496439 0
M  V30 2072 H 206.009 -0.827326 1.87127 0
M  V30 2073 H 206.019 -3.17374 2.56393 0
M  V30 2074 H 204.694 -2.38692 3.40586 0
M  V30 2075 H 203.271 -3.2662 1.79927 0
M  V30 2076 N 205.456 -1.28612 -0.910864 0
M  V30 2077 C 206.388 -1.08589 -2.01844 0
M  V30 2078 C 207.401 -0.0367419 -1.62759 0
M  V30 2079 O 208.59 -0.280101 -1.76289 0
M  V30 2080 C 205.69 -0.628626 -3.33019 0
M  V30 2081 C 204.863 -1.75382 -4.00699 0
M  V30 2082 C 203.922 -1.28945 -5.10156 0
M  V30 2083 O 202.948 -1.9922 -5.33198 0
M  V30 2084 N 204.15 -0.154224 -5.80295 0
M  V30 2085 H 206.915 -2.03973 -2.19579 0
M  V30 2086 H 204.476 -1.20403 -1.08234 0
M  V30 2087 H 206.468 -0.301508 -4.03575 0
M  V30 2088 H 205.038 0.232451 -3.11735 0
M  V30 2089 H 204.258 -2.25039 -3.23653 0
M  V30 2090 H 205.546 -2.50854 -4.42662 0
M  V30 2091 H 204.944 0.43194 -5.64049 0
M  V30 2092 H 203.501 0.113599 -6.51701 0
M  V30 2093 N 206.934 1.1197 -1.10907 0
M  V30 2094 C 208.35 1.35591 -0.841852 0
M  V30 2095 C 208.55 1.94233 0.536246 0
M  V30 2096 O 207.606 2.1717 1.28816 0
M  V30 2097 C 208.919 2.29284 -1.94549 0
M  V30 2098 C 210.467 2.42862 -1.97451 0
M  V30 2099 C 210.942 3.39873 -3.07002 0
M  V30 2100 N 212.433 3.47433 -3.06341 0
M  V30 2101 C 213.168 4.22421 -3.87748 0
M  V30 2102 N 212.664 5.00432 -4.79103 0
M  V30 2103 N 214.457 4.17876 -3.75946 0
M  V30 2104 H 206.608 0.722664 -1.99728 0
M  V30 2105 H 208.871 0.380635 -0.868229 0
M  V30 2106 H 208.577 1.93378 -2.93765 0
M  V30 2107 H 208.451 3.29452 -1.83688 0
M  V30 2108 H 210.838 2.78046 -0.988645 0
M  V30 2109 H 210.919 1.42566 -2.12388 0
M  V30 2110 H 210.563 3.05417 -4.05811 0
M  V30 2111 H 210.493 4.40011 -2.89306 0
M  V30 2112 H 212.984 2.91784 -2.40147 0
M  V30 2113 H 213.297 5.55002 -5.37766 0
M  V30 2114 H 211.642 4.99612 -4.83128 0
M  V30 2115 H 214.833 3.56016 -3.03924 0
M  V30 2116 H 215.006 4.76061 -4.39624 0
M  V30 2117 N 208.412 0.89855 1.29475 0
M  V30 2118 C 209.375 0.380272 2.26023 0
M  V30 2119 C 210.375 -0.484891 1.53315 0
M  V30 2120 O 211.565 -0.290108 1.71767 0
M  V30 2121 C 208.697 -0.45651 3.3783 0
M  V30 2122 H 209.89 1.23295 2.73383 0
M  V30 2123 H 207.443 0.676589 1.40897 0
M  V30 2124 H 208.178 -1.32922 2.95808 0
M  V30 2125 H 207.963 0.163393 3.91759 0
M  V30 2126 H 209.453 -0.810466 4.0966 0
M  V30 2127 N 209.89 -1.43072 0.660911 0
M  V30 2128 C 211.136 -2.0202 0.177708 0
M  V30 2129 C 211.469 -1.52066 -1.20787 0
M  V30 2130 O 210.744 -0.716987 -1.80802 0
M  V30 2131 C 211.027 -3.59561 0.197019 0
M  V30 2132 C 210.88 -4.19727 1.61706 0
M  V30 2133 C 212.199 -4.37664 -0.462396 0
M  V30 2134 H 209.318 -0.734034 0.0660494 0
M  V30 2135 H 211.96 -1.70272 0.843058 0
M  V30 2136 H 210.11 -3.86739 -0.369527 0
M  V30 2137 H 211.782 -4.03553 2.23479 0
M  V30 2138 H 210.025 -3.76084 2.16201 0
M  V30 2139 H 210.696 -5.28834 1.58237 0
M  V30 2140 H 213.172 -4.16095 0.0197215 0
M  V30 2141 H 212.048 -5.47305 -0.418188 0
M  V30 2142 H 212.309 -4.14493 -1.53778 0
M  V30 2143 N 211.368 -0.403325 -1.52352 0
M  V30 2144 C 212.596 0.174012 -2.06167 0
M  V30 2145 C 213.011 1.39347 -1.27388 0
M  V30 2146 O 212.368 1.79597 -0.324201 0
M  V30 2147 C 212.419 0.530223 -3.5759 0
M  V30 2148 O 212.14 -0.640806 -4.33388 0
M  V30 2149 C 213.641 1.16192 -4.27802 0
M  V30 2150 H 210.861 0.0229464 -0.670608 0
M  V30 2151 H 213.405 -0.572604 -1.9632 0
M  V30 2152 H 211.56 1.22673 -3.67464 0
M  V30 2153 H 211.974 -0.344851 -5.23365 0
M  V30 2154 H 213.448 1.36141 -5.34948 0
M  V30 2155 H 213.925 2.13335 -3.83907 0
M  V30 2156 H 214.531 0.505775 -4.22282 0
M  V30 2157 N 212.846 1.57033 -0.133567 0
M  V30 2158 C 213.794 2.17348 0.828412 0
M  V30 2159 C 214.788 1.12671 1.26498 0
M  V30 2160 O 215.994 1.30947 1.23502 0
M  V30 2161 H 212.369 0.695775 0.285309 0
M  V30 2162 H 214.34 2.96935 0.295372 0
M  V30 2163 C 213.089 2.79893 2.06289 0
M  V30 2164 H 212.412 3.60147 1.73592 0
M  V30 2165 H 213.852 3.25615 2.71572 0
M  V30 2166 C 212.311 1.77713 2.86216 0
M  V30 2167 O 212.841 1.23937 3.82103 0
M  V30 2168 N 211.047 1.47321 2.50489 0
M  V30 2169 H 210.594 1.91243 1.7258 0
M  V30 2170 H 210.552 0.79199 3.04261 0
M  V30 2171 N 214.325 -0.140222 1.56975 0
M  V30 2172 C 215.275 -1.17827 1.95194 0
M  V30 2173 C 216.259 -1.38195 0.824075 0
M  V30 2174 O 217.451 -1.39643 1.0876 0
M  V30 2175 C 214.58 -2.51024 2.34184 0
M  V30 2176 C 213.666 -2.3422 3.53556 0
M  V30 2177 N 214.057 -1.87185 4.69889 0
M  V30 2178 C 212.355 -2.64949 3.58773 0
M  V30 2179 C 213.056 -1.83586 5.5197 0
M  V30 2180 N 212.032 -2.2715 4.93866 0
M  V30 2181 H 215.834 -0.806817 2.82609 0
M  V30 2182 H 213.348 -0.348208 1.58623 0
M  V30 2183 H 215.345 -3.26074 2.59772 0
M  V30 2184 H 214.005 -2.88945 1.48124 0
M  V30 2185 H 215.016 -1.57048 4.93514 0
M  V30 2186 H 211.693 -3.067 2.8327 0
M  V30 2187 H 213.083 -1.48655 6.55249 0
M  V30 2188 N 215.803 -1.52179 -0.40978 0
M  V30 2189 C 217.028 -1.70347 -1.18308 0
M  V30 2190 C 217.453 -0.411887 -1.83535 0
M  V30 2191 O 216.811 0.630587 -1.6998 0
M  V30 2192 C 216.859 -2.83977 -2.22238 0
M  V30 2193 O 215.963 -2.495 -3.28365 0
M  V30 2194 H 215.304 -0.567103 -0.345384 0
M  V30 2195 H 217.834 -1.98879 -0.480445 0
M  V30 2196 H 217.844 -3.0887 -2.66577 0
M  V30 2197 H 216.519 -3.77685 -1.74146 0
M  V30 2198 H 215.096 -2.35277 -2.89308 0
M  V30 2199 N 217.281 0.66697 -1.42791 0
M  V30 2200 C 218.527 1.4291 -1.43891 0
M  V30 2201 C 218.86 1.94114 -0.0578972 0
M  V30 2202 O 218.135 1.71414 0.91911 0
M  V30 2203 C 218.418 2.62049 -2.46987 0
M  V30 2204 C 218.271 2.16426 -3.94309 0
M  V30 2205 C 219.59 3.64266 -2.46978 0
M  V30 2206 H 216.709 0.518306 -0.523954 0
M  V30 2207 H 219.351 0.757321 -1.74255 0
M  V30 2208 H 217.501 3.19361 -2.21225 0
M  V30 2209 H 219.173 1.64221 -4.31079 0
M  V30 2210 H 217.416 1.47925 -4.078 0
M  V30 2211 H 218.087 3.02038 -4.62036 0
M  V30 2212 H 220.563 3.16686 -2.69906 0
M  V30 2213 H 219.439 4.45196 -3.21079 0
M  V30 2214 H 219.7 4.15927 -1.49857 0
M  V30 2215 N 218.759 1.29093 0.90403 0
M  V30 2216 C 219.989 1.19516 1.68522 0
M  V30 2217 C 220.397 -0.24738 1.87576 0
M  V30 2218 O 219.74 -1.17798 1.40959 0
M  V30 2219 C 219.802 1.83249 3.0929 0
M  V30 2220 C 219.466 3.32531 3.13484 0
M  V30 2221 C 220.463 4.28821 2.93953 0
M  V30 2222 C 218.148 3.73656 3.35688 0
M  V30 2223 C 220.142 5.64212 2.96553 0
M  V30 2224 C 217.829 5.0917 3.37919 0
M  V30 2225 C 218.827 6.04258 3.18373 0
M  V30 2226 O 218.515 7.37298 3.20385 0
M  V30 2227 H 218.247 0.415467 0.533257 0
M  V30 2228 H 220.801 1.70912 1.13922 0
M  V30 2229 H 219.031 1.26358 3.65473 0
M  V30 2230 H 220.72 1.68054 3.69476 0
M  V30 2231 H 221.486 3.98382 2.76616 0
M  V30 2232 H 217.365 3.00101 3.49943 0
M  V30 2233 H 220.909 6.38407 2.81216 0
M  V30 2234 H 216.806 5.39256 3.54787 0
M  V30 2235 H 217.574 7.46048 3.36681 0
M  V30 2236 N 220.237 -1.11381 1.11499 0
M  V30 2237 C 221.477 -1.84763 0.874188 0
M  V30 2238 C 221.841 -1.82726 -0.589496 0
M  V30 2239 O 223.042 -2.51562 -0.947089 0
M  V30 2240 C 221.313 -3.27931 1.42112 0
M  V30 2241 S 222.872 -4.18557 1.31739 0
M  V30 2242 H 219.69 -0.637115 0.315603 0
M  V30 2243 H 222.292 -1.34097 1.42261 0
M  V30 2244 H 220.996 -3.26978 2.48019 0
M  V30 2245 H 220.527 -3.83665 0.869761 0
M  V30 2246 H 222.542 -4.95396 0.282335 0
M  V30 2247 N 221.715 -0.905404 -1.28997 0
M  V30 2248 C 222.94 -0.549175 -1.99997 0
M  V30 2249 C 223.365 0.860276 -1.67275 0
M  V30 2250 O 222.723 1.57355 -0.900502 0
M  V30 2251 C 222.771 -0.755185 -3.52604 0
M  V30 2252 O 221.875 0.189692 -4.11964 0
M  V30 2253 H 221.216 -0.213899 -0.628604 0
M  V30 2254 H 223.746 -1.21856 -1.64354 0
M  V30 2255 H 223.756 -0.662045 -4.02593 0
M  V30 2256 H 222.431 -1.78271 -3.75755 0
M  V30 2257 H 221.008 0.0485257 -3.72868 0
M  V30 2258 N 223.193 1.4272 -0.668489 0
M  V30 2259 C 224.421 2.05966 -0.196348 0
M  V30 2260 C 224.836 1.50191 1.14403 0
M  V30 2261 O 224.193 0.639208 1.7094 0
M  V30 2262 C 224.244 3.61314 -0.115815 0
M  V30 2263 O 223.965 4.1502 -1.40322 0
M  V30 2264 C 225.466 4.41663 0.380579 0
M  V30 2265 H 222.686 0.663954 -0.0969829 0
M  V30 2266 H 225.23 1.82966 -0.913446 0
M  V30 2267 H 223.385 3.83448 0.551931 0
M  V30 2268 H 223.799 5.08832 -1.27243 0
M  V30 2269 H 225.273 5.5065 0.385848 0
M  V30 2270 H 225.75 4.15792 1.41471 0
M  V30 2271 H 226.356 4.24534 -0.255209 0
M  V30 2272 N 224.671 0.411399 1.52136 0
M  V30 2273 C 225.618 -0.412975 2.27075 0
M  V30 2274 C 226.588 -1.03912 1.29582 0
M  V30 2275 O 227.773 -1.06296 1.58448 0
M  V30 2276 C 224.913 -1.52247 3.09701 0
M  V30 2277 C 224.026 -0.917021 4.22155 0
M  V30 2278 C 223.161 -1.9994 4.92135 0
M  V30 2279 C 222.2 -1.37101 5.96548 0
M  V30 2280 N 221.337 -2.39364 6.60038 0
M  V30 2281 H 226.177 0.232499 2.97092 0
M  V30 2282 H 223.714 0.126496 1.46555 0
M  V30 2283 H 225.672 -2.17674 3.55913 0
M  V30 2284 H 224.302 -2.13794 2.41851 0
M  V30 2285 H 223.354 -0.151742 3.80097 0
M  V30 2286 H 224.666 -0.418006 4.97045 0
M  V30 2287 H 223.82 -2.73088 5.41763 0
M  V30 2288 H 222.559 -2.53208 4.16818 0
M  V30 2289 H 221.564 -0.624873 5.46237 0
M  V30 2290 H 222.789 -0.845998 6.7381 0
M  V30 2291 H 220.735 -2.91759 5.87548 0
M  V30 2292 H 220.652 -1.9428 7.3061 0
M  V30 2293 H 221.92 -3.12074 7.14304 0
M  V30 2294 N 226.149 -1.5696 0.141893 0
M  V30 2295 C 227.397 -1.95573 -0.509484 0
M  V30 2296 C 227.718 -1.02746 -1.65736 0
M  V30 2297 O 226.988 -0.0880311 -1.95702 0
M  V30 2298 H 225.568 -0.722115 -0.191205 0
M  V30 2299 H 228.23 -1.93697 0.216196 0
M  V30 2300 H 227.326 -2.99171 -0.889 0
M  V30 2301 N 227.627 0.131896 -1.57047 0
M  V30 2302 C 228.59 1.14638 -1.98471 0
M  V30 2303 C 229.59 1.35029 -0.873148 0
M  V30 2304 O 230.78 1.31764 -1.13946 0
M  V30 2305 C 227.912 2.50358 -2.31373 0
M  V30 2306 H 229.105 0.79064 -2.8929 0
M  V30 2307 H 226.658 0.375761 -1.51716 0
M  V30 2308 H 227.393 2.90876 -1.43393 0
M  V30 2309 H 227.178 2.36915 -3.12432 0
M  V30 2310 H 228.668 3.23395 -2.64207 0
M  V30 2311 N 229.106 1.52395 0.401703 0
M  V30 2312 C 230.036 1.79231 1.49661 0
M  V30 2313 C 231.017 0.643654 1.57452 0
M  V30 2314 O 232.202 0.889989 1.72606 0
M  V30 2315 C 229.332 1.94971 2.87409 0
M  V30 2316 C 228.286 3.10604 2.94465 0
M  V30 2317 C 227.612 3.11577 4.34538 0
M  V30 2318 C 228.912 4.49921 2.6527 0
M  V30 2319 H 230.606 2.70917 1.27454 0
M  V30 2320 H 228.152 1.30362 0.6117 0
M  V30 2321 H 230.105 2.12328 3.63999 0
M  V30 2322 H 228.829 0.999632 3.10926 0
M  V30 2323 H 227.488 2.93009 2.20321 0
M  V30 2324 H 227.136 2.14277 4.55076 0
M  V30 2325 H 226.836 3.89247 4.40183 0
M  V30 2326 H 228.36 3.31073 5.13053 0
M  V30 2327 H 229.774 4.67683 3.31581 0
M  V30 2328 H 228.171 5.29564 2.82281 0
M  V30 2329 H 229.241 4.57507 1.60671 0
M  V30 2330 N 230.584 -0.659388 1.43143 0
M  V30 2331 C 231.861 -1.41627 1.34912 0
M  V30 2332 C 232.241 -2.11099 -0.00607785 0
M  V30 2333 O 231.589 -2.04353 -1.02236 0
M  V30 2334 C 231.799 -2.40604 2.52805 0
M  V30 2335 C 233.147 -3.04789 2.95616 0
M  V30 2336 O 234.171 -2.50932 2.52807 0
M  V30 2337 O 233.03 -4.02421 3.69756 0
M  V30 2338 H 230.124 -0.63246 0.532844 0
M  V30 2339 H 232.67 -0.686814 1.5518 0
M  V30 2340 H 231.442 -1.88174 3.43083 0
M  V30 2341 H 231.065 -3.21009 2.34604 0
M  V30 2342 N 232.062 -1.29571 -0.897171 0
M  V30 2343 C 232.995 -1.0924 -2.00354 0
M  V30 2344 C 233.973 -0.00354011 -1.626 0
M  V30 2345 O 235.157 -0.15473 -1.87864 0
M  V30 2346 C 232.284 -0.66352 -3.32137 0
M  V30 2347 C 231.33 -1.75146 -3.88878 0
M  V30 2348 S 232.163 -3.35124 -4.17674 0
M  V30 2349 C 233.319 -2.9411 -5.52494 0
M  V30 2350 H 233.552 -2.02907 -2.17292 0
M  V30 2351 H 231.085 -1.13746 -1.04408 0
M  V30 2352 H 233.043 -0.422791 -4.08317 0
M  V30 2353 H 231.704 0.253588 -3.13075 0
M  V30 2354 H 230.897 -1.40337 -4.84068 0
M  V30 2355 H 230.499 -1.94584 -3.19395 0
M  V30 2356 H 232.791 -2.41312 -6.33068 0
M  V30 2357 H 233.734 -3.88161 -5.9223 0
M  V30 2358 H 234.142 -2.32332 -5.14473 0
M  V30 2359 N 233.54 1.10788 -1.12088 0
M  V30 2360 C 234.47 2.19083 -0.807755 0
M  V30 2361 C 235.451 1.6858 0.226859 0
M  V30 2362 O 236.636 1.93997 0.0888475 0
M  V30 2363 C 233.766 3.46344 -0.257576 0
M  V30 2364 C 232.72 4.101 -1.22483 0
M  V30 2365 C 232.046 5.32016 -0.535052 0
M  V30 2366 C 233.346 4.54236 -2.57811 0
M  V30 2367 H 235.04 2.45534 -1.71328 0
M  V30 2368 H 232.586 1.1801 -0.825205 0
M  V30 2369 H 234.539 4.21392 -0.0262679 0
M  V30 2370 H 233.263 3.19373 0.683278 0
M  V30 2371 H 231.922 3.37054 -1.44189 0
M  V30 2372 H 231.57 5.01319 0.410827 0
M  V30 2373 H 231.27 5.75625 -1.18024 0
M  V30 2374 H 232.794 6.09799 -0.312695 0
M  V30 2375 H 234.208 5.20575 -2.40155 0
M  V30 2376 H 232.605 5.08682 -3.18375 0
M  V30 2377 H 233.675 3.6734 -3.16528 0
M  V30 2378 N 235.018 0.912232 1.28515 0
M  V30 2379 C 236.246 0.560416 1.99166 0
M  V30 2380 C 236.661 -0.857927 1.68182 0
M  V30 2381 O 236.018 -1.56805 0.933733 0
M  V30 2382 C 236.069 0.758142 3.53461 0
M  V30 2383 O 235.79 2.12067 3.83352 0
M  V30 2384 C 237.291 0.412954 4.41372 0
M  V30 2385 H 234.511 0.213805 0.636026 0
M  V30 2386 H 237.055 1.22502 1.63749 0
M  V30 2387 H 235.21 0.140556 3.87145 0
M  V30 2388 H 235.624 2.15923 4.77993 0
M  V30 2389 H 237.098 0.60208 5.48707 0
M  V30 2390 H 237.575 -0.65073 4.34353 0
M  V30 2391 H 238.181 1.00802 4.13182 0
M  V30 2392 N 236.496 -1.42363 0.676048 0
M  V30 2393 C 237.443 -2.308 -0.00150904 0
M  V30 2394 C 238.413 -1.46032 -0.791444 0
M  V30 2395 O 239.598 -1.74861 -0.76344 0
M  V30 2396 C 236.738 -3.31883 -0.945919 0
M  V30 2397 C 235.851 -4.31741 -0.149675 0
M  V30 2398 C 234.986 -5.19898 -1.08995 0
M  V30 2399 C 234.025 -6.11434 -0.285465 0
M  V30 2400 N 233.162 -6.92138 -1.17851 0
M  V30 2401 H 238.002 -2.88187 0.758455 0
M  V30 2402 H 235.539 -1.41952 0.38576 0
M  V30 2403 H 237.497 -3.89019 -1.50731 0
M  V30 2404 H 236.127 -2.76093 -1.6725 0
M  V30 2405 H 235.179 -3.76713 0.528359 0
M  V30 2406 H 236.491 -4.96534 0.474866 0
M  V30 2407 H 235.645 -5.81772 -1.72123 0
M  V30 2408 H 234.384 -4.55284 -1.74837 0
M  V30 2409 H 233.389 -5.48627 0.359018 0
M  V30 2410 H 234.614 -6.78097 0.368883 0
M  V30 2411 H 232.56 -6.30152 -1.82332 0
M  V30 2412 H 232.477 -7.53542 -0.609082 0
M  V30 2413 H 233.745 -7.58499 -1.79722 0
M  V30 2414 N 237.974 -0.419461 -1.51915 0
M  V30 2415 C 239.22 0.153166 -2.02221 0
M  V30 2416 C 239.553 1.43907 -1.30401 0
M  V30 2417 O 238.828 1.90055 -0.413438 0
M  V30 2418 C 239.111 0.390291 -3.57979 0
M  V30 2419 C 238.964 -0.913014 -4.40436 0
M  V30 2420 C 240.283 1.16794 -4.2432 0
M  V30 2421 H 237.402 0.0541924 -0.735005 0
M  V30 2422 H 240.044 -0.554955 -1.81715 0
M  V30 2423 H 238.194 0.993491 -3.75582 0
M  V30 2424 H 239.866 -1.54882 -4.34522 0
M  V30 2425 H 238.109 -1.52168 -4.06236 0
M  V30 2426 H 238.78 -0.701361 -5.47526 0
M  V30 2427 H 241.256 0.657161 -4.10878 0
M  V30 2428 H 240.132 1.3026 -5.3322 0
M  V30 2429 H 240.393 2.19132 -3.83971 0
M  V30 2430 N 239.452 1.56882 -0.150215 0
M  V30 2431 C 240.385 2.12712 0.826358 0
M  V30 2432 C 241.363 1.05154 1.24022 0
M  V30 2433 O 242.547 1.33004 1.33575 0
M  V30 2434 C 239.674 2.64945 2.11002 0
M  V30 2435 C 238.72 3.8468 1.84183 0
M  V30 2436 S 239.553 5.25502 1.02995 0
M  V30 2437 C 240.709 5.81125 2.32474 0
M  V30 2438 H 240.942 2.95214 0.351598 0
M  V30 2439 H 238.475 1.54267 0.0641211 0
M  V30 2440 H 240.433 2.95689 2.84742 0
M  V30 2441 H 239.094 1.82568 2.55593 0
M  V30 2442 H 238.287 4.19482 2.79375 0
M  V30 2443 H 237.889 3.54714 1.1855 0
M  V30 2444 H 240.181 5.92753 3.281 0
M  V30 2445 H 241.124 6.78625 2.02171 0
M  V30 2446 H 241.532 5.09392 2.43269 0
M  V30 2447 N 240.93 -0.123565 1.57115 0
M  V30 2448 C 241.893 -1.13583 1.99076 0
M  V30 2449 C 242.893 -1.34564 0.880296 0
M  V30 2450 O 244.083 -1.31158 1.14644 0
M  V30 2451 C 241.215 -2.49128 2.32698 0
M  V30 2452 H 242.408 -0.775287 2.89706 0
M  V30 2453 H 239.961 -0.36771 1.51913 0
M  V30 2454 H 240.696 -2.90111 1.44934 0
M  V30 2455 H 240.481 -2.35255 3.13684 0
M  V30 2456 H 241.971 -3.2199 2.65918 0
M  V30 2457 N 242.408 -1.52605 -0.393616 0
M  V30 2458 C 243.338 -1.80022 -1.48709 0
M  V30 2459 C 244.319 -0.651995 -1.57108 0
M  V30 2460 O 245.504 -0.89913 -1.72132 0
M  V30 2461 C 242.634 -1.96492 -2.86371 0
M  V30 2462 C 241.588 -3.12161 -2.92813 0
M  V30 2463 C 240.914 -3.13877 -4.3288 0
M  V30 2464 C 242.214 -4.51322 -2.6288 0
M  V30 2465 H 243.908 -2.71589 -1.26015 0
M  V30 2466 H 241.454 -1.30684 -0.604778 0
M  V30 2467 H 243.407 -2.14255 -3.62867 0
M  V30 2468 H 242.131 -1.01611 -3.10391 0
M  V30 2469 H 240.79 -2.94173 -2.18764 0
M  V30 2470 H 240.438 -2.16687 -4.53933 0
M  V30 2471 H 240.138 -3.91576 -4.38112 0
M  V30 2472 H 241.662 -3.33789 -5.1129 0
M  V30 2473 H 243.076 -4.69435 -3.29096 0
M  V30 2474 H 241.473 -5.31053 -2.79468 0
M  V30 2475 H 242.543 -4.58353 -1.58242 0
M  V30 2476 N 243.887 0.651787 -1.4349 0
M  V30 2477 C 244.797 1.79368 -1.5121 0
M  V30 2478 C 245.813 1.69361 -0.399093 0
M  V30 2479 O 246.989 1.90505 -0.653431 0
M  V30 2480 C 244.054 3.15653 -1.43401 0
M  V30 2481 C 243.115 3.37446 -2.65384 0
M  V30 2482 C 242.348 4.67229 -2.57939 0
M  V30 2483 O 242.571 5.46676 -1.62792 0
M  V30 2484 O 241.505 4.90773 -3.48462 0
M  V30 2485 H 245.331 1.7581 -2.47638 0
M  V30 2486 H 242.916 0.810447 -1.25507 0
M  V30 2487 H 244.798 3.96935 -1.41494 0
M  V30 2488 H 243.473 3.19798 -0.501085 0
M  V30 2489 H 242.38 2.55923 -2.72863 0
M  V30 2490 H 243.713 3.38148 -3.57654 0
M  V30 2491 N 245.365 1.30045 0.890287 0
M  V30 2492 C 246.295 1.18541 2.01172 0
M  V30 2493 C 247.276 0.0773356 1.69924 0
M  V30 2494 O 248.461 0.25845 1.92473 0
M  V30 2495 C 245.591 0.870941 3.36202 0
M  V30 2496 C 244.545 1.93637 3.81692 0
M  V30 2497 C 243.871 1.475 5.13953 0
M  V30 2498 C 245.171 3.34666 4.00994 0
M  V30 2499 H 246.865 2.12359 2.11054 0
M  V30 2500 H 244.411 1.02238 1.01407 0
M  V30 2501 H 246.364 0.777141 4.14172 0
M  V30 2502 H 245.088 -0.102926 3.26438 0
M  V30 2503 H 243.747 2.01972 3.05946 0
M  V30 2504 H 243.395 0.489551 5.00612 0
M  V30 2505 H 243.095 2.1876 5.4536 0
M  V30 2506 H 244.619 1.39489 5.94454 0
M  V30 2507 H 246.033 3.2912 4.69417 0
M  V30 2508 H 244.43 4.03966 4.43769 0
M  V30 2509 H 245.5 3.76949 3.05021 0
M  V30 2510 N 246.843 -1.10192 1.12674 0
M  V30 2511 C 248.091 -1.81845 0.881861 0
M  V30 2512 C 248.412 -1.85737 -0.593867 0
M  V30 2513 O 247.682 -1.33724 -1.4316 0
M  V30 2514 H 246.262 -0.673432 0.323261 0
M  V30 2515 H 248.924 -1.33316 1.42172 0
M  V30 2516 H 248.02 -2.85288 1.2656 0
M  V30 2517 N 248.321 -0.919034 -1.28029 0
M  V30 2518 C 249.732 -0.600735 -1.76771 0
M  V30 2519 C 250.083 0.884024 -1.75156 0
M  V30 2520 O 249.208 1.69163 -1.34956 0
M  V30 2521 C 249.803 -1.08372 -3.21 0
M  V30 2522 C 248.362 -0.816248 -3.67443 0
M  V30 2523 C 247.509 -1.24742 -2.47658 0
M  V30 2524 H 250.46 -1.09974 -1.14418 0
M  V30 2525 H 250.481 -0.427512 -3.78091 0
M  V30 2526 H 249.993 -2.16437 -3.22144 0
M  V30 2527 H 248.094 0.250968 -3.71754 0
M  V30 2528 H 248.207 -1.4277 -4.57333 0
M  V30 2529 H 246.571 -0.666083 -2.45836 0
M  V30 2530 H 247.354 -2.33653 -2.51518 0
M  V30 2531 N 249.799 1.42003 -0.683588 0
M  V30 2532 C 250.749 2.27997 0.0121992 0
M  V30 2533 C 251.733 1.4156 0.764822 0
M  V30 2534 O 252.925 1.64935 0.642287 0
M  V30 2535 C 250.054 3.29706 0.956482 0
M  V30 2536 C 249.14 4.23625 0.200739 0
M  V30 2537 N 249.531 4.99448 -0.799087 0
M  V30 2538 C 247.829 4.43845 0.437937 0
M  V30 2539 C 248.53 5.68102 -1.25041 0
M  V30 2540 N 247.506 5.40511 -0.578648 0
M  V30 2541 H 251.308 2.84048 -0.754564 0
M  V30 2542 H 248.822 1.54071 -0.513398 0
M  V30 2543 H 250.819 3.90124 1.47 0
M  V30 2544 H 249.479 2.75216 1.72297 0
M  V30 2545 H 250.49 5.04303 -1.17893 0
M  V30 2546 H 247.167 4.00382 1.18325 0
M  V30 2547 H 248.557 6.38913 -2.07942 0
M  V30 2548 N 251.277 0.427512 1.51691 0
M  V30 2549 C 252.224 -0.388867 2.275 0
M  V30 2550 C 253.194 -1.02532 1.30677 0
M  V30 2551 O 254.379 -1.0461 1.59566 0
M  V30 2552 C 251.519 -1.48954 3.11298 0
M  V30 2553 C 250.632 -0.872194 4.23104 0
M  V30 2554 C 249.767 -1.94709 4.94228 0
M  V30 2555 C 248.806 -1.30766 5.97969 0
M  V30 2556 N 247.943 -2.32349 6.62539 0
M  V30 2557 H 252.783 0.263997 2.96828 0
M  V30 2558 H 250.32 0.142033 1.46413 0
M  V30 2559 H 252.278 -2.13887 3.58201 0
M  V30 2560 H 250.908 -2.11217 2.44105 0
M  V30 2561 H 249.96 -0.111419 3.80237 0
M  V30 2562 H 251.272 -0.365264 4.97461 0
M  V30 2563 H 250.426 -2.67327 5.44629 0
M  V30 2564 H 249.165 -2.48773 4.1948 0
M  V30 2565 H 248.17 -0.566902 5.4687 0
M  V30 2566 H 249.395 -0.774483 6.74669 0
M  V30 2567 H 247.341 -2.85511 5.90609 0
M  V30 2568 H 247.258 -1.8652 7.3263 0
M  V30 2569 H 248.526 -3.04481 7.17574 0
M  V30 2570 N 252.755 -1.56801 0.158532 0
M  V30 2571 C 254.004 -1.95665 -0.489702 0
M  V30 2572 C 254.317 -1.04654 -1.65248 0
M  V30 2573 O 255.523 -1.33146 -2.3661 0
M  V30 2574 C 253.979 -3.47874 -0.922582 0
M  V30 2575 C 253.587 -4.47489 0.213893 0
M  V30 2576 C 255.331 -3.95583 -1.53996 0
M  V30 2577 C 253.238 -5.90921 -0.237903 0
M  V30 2578 H 252.168 -0.730516 -0.186716 0
M  V30 2579 H 254.819 -1.81861 0.244722 0
M  V30 2580 H 253.201 -3.57051 -1.71261 0
M  V30 2581 H 254.375 -4.50017 0.991036 0
M  V30 2582 H 252.69 -4.09764 0.740407 0
M  V30 2583 H 255.287 -5.0019 -1.8898 0
M  V30 2584 H 255.63 -3.37789 -2.43319 0
M  V30 2585 H 256.163 -3.8937 -0.814611 0
M  V30 2586 H 252.902 -6.52559 0.620236 0
M  V30 2587 H 252.422 -5.91729 -0.980676 0
M  V30 2588 H 254.101 -6.43352 -0.686067 0
M  V30 2589 N 254.233 0.115231 -1.57178 0
M  V30 2590 C 255.649 0.468877 -1.52557 0
M  V30 2591 C 255.849 1.81649 -0.872125 0
M  V30 2592 O 254.905 2.48347 -0.45606 0
M  V30 2593 C 256.218 0.4499 -2.97315 0
M  V30 2594 C 257.766 0.533185 -3.08425 0
M  V30 2595 C 258.241 0.54456 -4.54751 0
M  V30 2596 N 259.732 0.605892 -4.5922 0
M  V30 2597 C 260.467 0.636203 -5.6986 0
M  V30 2598 N 259.963 0.623931 -6.89985 0
M  V30 2599 N 261.756 0.679496 -5.57978 0
M  V30 2600 H 253.907 -0.767712 -1.9804 0
M  V30 2601 H 256.17 -0.283609 -0.904583 0
M  V30 2602 H 255.876 -0.472721 -3.48509 0
M  V30 2603 H 255.75 1.27632 -3.5495 0
M  V30 2604 H 258.137 1.44623 -2.57232 0
M  V30 2605 H 258.218 -0.320995 -2.53778 0
M  V30 2606 H 257.862 -0.364452 -5.06591 0
M  V30 2607 H 257.792 1.41568 -5.07214 0
M  V30 2608 H 260.283 0.621386 -3.72756 0
M  V30 2609 H 260.596 0.649787 -7.70063 0
M  V30 2610 H 258.941 0.591296 -6.9248 0
M  V30 2611 H 262.132 0.686472 -4.63039 0
M  V30 2612 H 262.305 0.69965 -6.44212 0
M  V30 2613 N 255.711 1.52812 0.385517 0
M  V30 2614 C 256.957 1.68275 1.13188 0
M  V30 2615 C 257.29 0.423179 1.89533 0
M  V30 2616 O 256.565 -0.579113 1.85679 0
M  V30 2617 C 256.848 2.92001 2.1073 0
M  V30 2618 C 256.701 4.28067 1.38125 0
M  V30 2619 C 258.02 3.11283 3.11113 0
M  V30 2620 H 255.139 0.612352 0.410115 0
M  V30 2621 H 257.781 1.85415 0.414869 0
M  V30 2622 H 255.931 2.77519 2.71874 0
M  V30 2623 H 257.603 4.54324 0.799187 0
M  V30 2624 H 255.846 4.28388 0.683092 0
M  V30 2625 H 256.517 5.10733 2.09417 0
M  V30 2626 H 258.993 3.2482 2.6006 0
M  V30 2627 H 257.869 3.99325 3.76605 0
M  V30 2628 H 258.13 2.25656 3.80173 0
M  V30 2629 N 257.189 -0.644168 1.43834 0
M  V30 2630 C 258.137 -1.77793 1.49974 0
M  V30 2631 C 259.131 -1.65253 0.372536 0
M  V30 2632 O 260.337 -1.7149 0.546924 0
M  V30 2633 H 256.712 -0.58675 0.47035 0
M  V30 2634 H 258.683 -1.69736 2.45423 0
M  V30 2635 C 257.432 -3.16087 1.4486 0
M  V30 2636 H 256.755 -3.26378 2.30905 0
M  V30 2637 H 258.195 -3.95349 1.53217 0
M  V30 2638 C 256.654 -3.36484 0.167463 0
M  V30 2639 O 257.184 -3.94298 -0.767609 0
M  V30 2640 N 255.39 -2.90504 0.0747556 0
M  V30 2641 H 254.937 -2.4364 0.836507 0
M  V30 2642 H 254.895 -3.04527 -0.781714 0
M  V30 2643 N 258.668 -1.30515 -0.883378 0
M  V30 2644 C 259.631 -1.1701 -1.97082 0
M  V30 2645 C 260.631 -0.10089 -1.60483 0
M  V30 2646 O 261.821 -0.349127 -1.70666 0
M  V30 2647 C 258.953 -0.793045 -3.31547 0
M  V30 2648 H 260.146 -2.13622 -2.10489 0
M  V30 2649 H 257.699 -1.13935 -1.06998 0
M  V30 2650 H 258.434 0.172499 -3.23841 0
M  V30 2651 H 258.219 -1.56576 -3.5948 0
M  V30 2652 H 259.709 -0.722073 -4.1131 0
M  V30 2653 N 260.146 1.09593 -1.13257 0
M  V30 2654 C 261.392 1.82003 -0.89458 0
M  V30 2655 C 261.725 1.85402 0.577906 0
M  V30 2656 O 261 1.32099 1.42759 0
M  V30 2657 C 261.283 3.28237 -1.48096 0
M  V30 2658 C 261.136 3.3312 -3.02244 0
M  V30 2659 C 262.455 4.24871 -1.14774 0
M  V30 2660 H 259.574 0.66077 -0.326424 0
M  V30 2661 H 262.216 1.28389 -1.40058 0
M  V30 2662 H 260.366 3.74024 -1.05062 0
M  V30 2663 H 262.038 2.95748 -3.54021 0
M  V30 2664 H 260.281 2.72756 -3.37323 0
M  V30 2665 H 260.952 4.3613 -3.38371 0
M  V30 2666 H 263.428 3.87361 -1.51957 0
M  V30 2667 H 262.304 5.25532 -1.58452 0
M  V30 2668 H 262.565 4.42058 -0.0611849 0
M  V30 2669 N 261.624 0.925811 1.2754 0
M  V30 2670 C 262.572 0.413897 2.28888 0
M  V30 2671 C 263.566 -0.500779 1.61829 0
M  V30 2672 O 264.772 -0.38069 1.75928 0
M  V30 2673 H 261.147 0.115274 0.743112 0
M  V30 2674 H 263.118 1.28151 2.69481 0
M  V30 2675 C 261.867 -0.319792 3.46226 0
M  V30 2676 H 261.19 0.374846 3.98039 0
M  V30 2677 H 262.63 -0.642435 4.19105 0
M  V30 2678 C 261.089 -1.53209 3.00048 0
M  V30 2679 O 261.619 -2.6309 3.03557 0
M  V30 2680 N 259.825 -1.38326 2.55566 0
M  V30 2681 H 259.372 -0.489292 2.5291 0
M  V30 2682 H 259.33 -2.19564 2.25031 0
M  V30 2683 N 263.102 -1.41638 0.69111 0
M  V30 2684 C 264.513 -1.84346 0.295517 0
M  V30 2685 C 264.864 -1.57833 -1.16547 0
M  V30 2686 O 263.989 -1.04648 -1.89414 0
M  V30 2687 C 264.584 -3.34636 0.529575 0
M  V30 2688 C 263.143 -3.7593 0.187944 0
M  V30 2689 C 262.29 -2.65082 0.814052 0
M  V30 2690 H 265.241 -1.31253 0.892092 0
M  V30 2691 H 265.262 -3.79903 -0.213148 0
M  V30 2692 H 264.774 -3.53901 1.59297 0
M  V30 2693 H 262.875 -3.62268 -0.871367 0
M  V30 2694 H 262.988 -4.74808 0.63985 0
M  V30 2695 H 261.352 -2.53528 0.244017 0
M  V30 2696 H 262.135 -2.87167 1.88123 0
M  V30 2697 N 264.58 -0.43555 -1.51462 0
M  V30 2698 C 265.808 0.130242 -2.0649 0
M  V30 2699 C 266.223 1.36614 -1.30315 0
M  V30 2700 O 265.58 1.78869 -0.362223 0
M  V30 2701 C 265.631 0.454253 -3.58635 0
M  V30 2702 O 265.352 -0.73259 -4.31931 0
M  V30 2703 C 266.853 1.07091 -4.3017 0
M  V30 2704 H 264.073 0.00871669 -0.670943 0
M  V30 2705 H 266.617 -0.614117 -1.95061 0
M  V30 2706 H 264.772 1.14851 -3.69984 0
M  V30 2707 H 265.186 -0.455787 -5.22516 0
M  V30 2708 H 266.66 1.24764 -5.37716 0
M  V30 2709 H 267.137 2.05144 -3.88346 0
M  V30 2710 H 267.743 0.416089 -4.2326 0
M  V30 2711 N 266.058 1.56714 -0.166846 0
M  V30 2712 C 267.304 1.97039 0.479962 0
M  V30 2713 C 267.637 1.05264 1.63197 0
M  V30 2714 O 266.912 0.0988833 1.94248 0
M  V30 2715 C 267.195 3.46867 0.967212 0
M  V30 2716 C 267.048 4.49421 -0.18466 0
M  V30 2717 C 268.367 3.9968 1.84238 0
M  V30 2718 H 265.486 0.71641 0.172992 0
M  V30 2719 H 268.128 1.8832 -0.252079 0
M  V30 2720 H 266.278 3.54428 1.59101 0
M  V30 2721 H 267.95 4.53924 -0.821621 0
M  V30 2722 H 266.193 4.25573 -0.840837 0
M  V30 2723 H 266.864 5.51644 0.198317 0
M  V30 2724 H 269.34 3.94723 1.31655 0
M  V30 2725 H 268.216 5.04941 2.15234 0
M  V30 2726 H 268.477 3.43226 2.78654 0
M  V30 2727 N 267.536 -0.106894 1.57237 0
M  V30 2728 C 268.782 -0.81373 1.85759 0
M  V30 2729 C 269.115 -1.78952 0.754315 0
M  V30 2730 O 268.39 -1.93029 -0.23879 0
M  V30 2731 C 268.673 -1.55293 3.24894 0
M  V30 2732 C 268.526 -0.595929 4.45835 0
M  V30 2733 C 269.845 -2.5063 3.61763 0
M  V30 2734 H 266.964 -0.294369 0.67566 0
M  V30 2735 H 269.606 -0.0776472 1.89841 0
M  V30 2736 H 267.756 -2.1804 3.21544 0
M  V30 2737 H 269.428 0.0236262 4.61294 0
M  V30 2738 H 267.671 0.0916191 4.33703 0
M  V30 2739 H 268.342 -1.15004 5.39887 0
M  V30 2740 H 270.818 -1.97982 3.65981 0
M  V30 2741 H 269.694 -2.99376 4.60071 0
M  V30 2742 H 269.955 -3.3385 2.89821 0
M  V30 2743 N 269.014 -1.53014 -0.377408 0
M  V30 2744 C 269.947 -1.73382 -1.48371 0
M  V30 2745 C 270.925 -0.581879 -1.51832 0
M  V30 2746 O 272.109 -0.81307 -1.70063 0
M  V30 2747 C 269.236 -1.80192 -2.8679 0
M  V30 2748 C 268.282 -3.02056 -3.01105 0
M  V30 2749 S 269.115 -4.61811 -2.71093 0
M  V30 2750 C 270.271 -4.71453 -4.11683 0
M  V30 2751 H 270.504 -2.66946 -1.30872 0
M  V30 2752 H 268.037 -1.43453 -0.571012 0
M  V30 2753 H 269.995 -1.84802 -3.6655 0
M  V30 2754 H 268.656 -0.877008 -3.01608 0
M  V30 2755 H 267.849 -3.03396 -4.02451 0
M  V30 2756 H 267.451 -2.95498 -2.29253 0
M  V30 2757 H 269.743 -4.50781 -5.0577 0
M  V30 2758 H 270.686 -5.73487 -4.15353 0
M  V30 2759 H 271.094 -4.00189 -3.98132 0
M  V30 2760 N 270.492 0.636531 -1.44174 0
M  V30 2761 C 271.72 1.42353 -1.50144 0
M  V30 2762 C 272.135 1.88389 -0.124575 0
M  V30 2763 O 271.492 1.6051 0.868489 0
M  V30 2764 C 271.543 2.64744 -2.46156 0
M  V30 2765 O 271.264 2.20629 -3.7849 0
M  V30 2766 C 272.765 3.57929 -2.61537 0
M  V30 2767 H 269.985 0.436752 -0.5094 0
M  V30 2768 H 272.529 0.778933 -1.89084 0
M  V30 2769 H 270.684 3.25307 -2.10366 0
M  V30 2770 H 271.098 2.99938 -4.30276 0
M  V30 2771 H 272.572 4.40428 -3.32757 0
M  V30 2772 H 273.049 4.06382 -1.66585 0
M  V30 2773 H 273.655 3.03238 -2.98206 0
M  V30 2774 N 271.97 1.30982 0.876444 0
M  V30 2775 C 273.195 1.23373 1.66715 0
M  V30 2776 C 273.62 -0.19885 1.87046 0
M  V30 2777 O 272.978 -1.1427 1.40756 0
M  V30 2778 C 273.026 1.97644 3.01611 0
M  V30 2779 O 272.13 1.30935 3.91062 0
M  V30 2780 H 271.471 0.426279 0.509099 0
M  V30 2781 H 274.001 1.72944 1.09323 0
M  V30 2782 H 274.011 2.06992 3.51594 0
M  V30 2783 H 272.686 3.01829 2.86133 0
M  V30 2784 H 271.263 1.29996 3.49507 0
M  V30 2785 N 273.449 -1.08991 1.13837 0
M  V30 2786 C 274.382 -2.15049 0.763477 0
M  V30 2787 C 275.36 -1.60629 -0.252398 0
M  V30 2788 O 276.544 -1.87958 -0.142853 0
M  V30 2789 C 273.671 -3.38441 0.132545 0
M  V30 2790 C 272.717 -4.11596 1.11763 0
M  V30 2791 S 273.55 -4.6521 2.65216 0
M  V30 2792 C 274.706 -5.91896 2.03495 0
M  V30 2793 H 274.939 -2.46518 1.66182 0
M  V30 2794 H 272.472 -1.21008 0.958976 0
M  V30 2795 H 274.43 -4.09883 -0.225074 0
M  V30 2796 H 273.091 -3.05182 -0.743135 0
M  V30 2797 H 272.284 -5.00121 0.624076 0
M  V30 2798 H 271.886 -3.46038 1.41894 0
M  V30 2799 H 274.178 -6.63156 1.38675 0
M  V30 2800 H 275.121 -6.45938 2.9012 0
M  V30 2801 H 275.529 -5.44625 1.48471 0
M  V30 2802 N 274.927 -0.932562 -1.27047 0
M  V30 2803 C 276.175 -0.574422 -1.93765 0
M  V30 2804 C 276.496 0.887993 -1.73608 0
M  V30 2805 O 275.766 1.62999 -1.08665 0
M  V30 2806 H 274.346 -0.209451 -0.717035 0
M  V30 2807 H 277.008 -1.18601 -1.5466 0
M  V30 2808 H 276.104 -0.784841 -3.02071 0
M  V30 2809 N 276.405 1.4127 -0.698611 0
M  V30 2810 C 277.337 2.292 0.00399731 0
M  V30 2811 C 278.35 1.44944 0.741279 0
M  V30 2812 O 279.539 1.68416 0.591477 0
M  V30 2813 C 276.639 3.22875 1.02979 0
M  V30 2814 C 275.812 4.35904 0.36151 0
M  V30 2815 C 274.871 5.10134 1.29033 0
M  V30 2816 O 273.897 5.63809 0.781562 0
M  V30 2817 N 275.099 5.17885 2.6225 0
M  V30 2818 H 277.864 2.9014 -0.750921 0
M  V30 2819 H 275.425 1.52455 -0.544882 0
M  V30 2820 H 277.417 3.69404 1.65296 0
M  V30 2821 H 275.987 2.63221 1.68622 0
M  V30 2822 H 275.207 3.91719 -0.441584 0
M  V30 2823 H 276.495 5.08696 -0.103055 0
M  V30 2824 H 275.893 4.7573 3.061 0
M  V30 2825 H 274.45 5.6798 3.19754 0
M  V30 2826 N 277.883 0.443576 1.51229 0
M  V30 2827 C 278.846 -0.353132 2.26463 0
M  V30 2828 C 279.846 -0.944338 1.3015 0
M  V30 2829 O 281.036 -0.817813 1.5381 0
M  V30 2830 C 278.168 -1.50023 3.06114 0
M  V30 2831 H 279.361 0.3063 2.98332 0
M  V30 2832 H 276.914 0.196902 1.55055 0
M  V30 2833 H 277.649 -2.19553 2.38677 0
M  V30 2834 H 277.434 -1.08241 3.76864 0
M  V30 2835 H 278.924 -2.06296 3.63087 0
M  V30 2836 N 279.361 -1.56624 0.175154 0
M  V30 2837 C 280.589 -2.01374 -0.474971 0
M  V30 2838 C 281.004 -1.05537 -1.56548 0
M  V30 2839 O 280.361 -0.0568668 -1.82411 0
M  V30 2840 C 280.412 -3.45923 -1.04975 0
M  V30 2841 O 280.133 -4.381 -0.00276605 0
M  V30 2842 C 281.634 -4.06093 -1.77773 0
M  V30 2843 H 278.854 -0.659962 -0.121206 0
M  V30 2844 H 281.398 -2.02601 0.27801 0
M  V30 2845 H 279.553 -3.45458 -1.75321 0
M  V30 2846 H 279.967 -5.22753 -0.427681 0
M  V30 2847 H 281.441 -5.09147 -2.13245 0
M  V30 2848 H 281.918 -3.48405 -2.67414 0
M  V30 2849 H 282.524 -4.10272 -1.12059 0
M  V30 2850 N 280.839 0.0985539 -1.57292 0
M  V30 2851 C 282.085 0.798769 -1.87059 0
M  V30 2852 C 282.44 1.76514 -0.76555 0
M  V30 2853 O 281.733 1.90181 0.232752 0
M  V30 2854 C 281.927 1.56927 -3.21105 0
M  V30 2855 C 281.756 0.679026 -4.44544 0
M  V30 2856 C 280.526 0.326071 -5.04247 0
M  V30 2857 C 282.724 -0.0124715 -5.14298 0
M  V30 2858 N 280.706 -0.572702 -6.11223 0
M  V30 2859 C 282.077 -0.769446 -6.15207 0
M  V30 2860 C 284.132 -0.0867545 -4.97824 0
M  V30 2861 C 282.835 -1.59376 -7.01421 0
M  V30 2862 C 284.861 -0.897955 -5.84543 0
M  V30 2863 C 284.223 -1.64306 -6.84969 0
M  V30 2864 H 280.322 0.268568 -0.734435 0
M  V30 2865 H 282.906 0.0614664 -1.94603 0
M  V30 2866 H 281.077 2.27748 -3.1462 0
M  V30 2867 H 282.809 2.21641 -3.38611 0
M  V30 2868 H 279.564 0.67295 -4.68795 0
M  V30 2869 H 279.988 -1.01454 -6.69355 0
M  V30 2870 H 284.63 0.474963 -4.20124 0
M  V30 2871 H 282.348 -2.16655 -7.78515 0
M  V30 2872 H 285.934 -0.958059 -5.73858 0
M  V30 2873 H 284.814 -2.26065 -7.50909 0
M  V30 2874 N 282.317 1.53212 0.369288 0
M  V30 2875 C 283.542 1.73423 1.1375 0
M  V30 2876 C 283.967 0.460404 1.82378 0
M  V30 2877 O 283.325 -0.585298 1.71592 0
M  V30 2878 C 283.373 2.89769 2.1463 0
M  V30 2879 O 282.477 2.58119 3.21634 0
M  V30 2880 H 281.818 0.576061 0.330227 0
M  V30 2881 H 284.348 2.00083 0.427547 0
M  V30 2882 H 284.358 3.15829 2.58294 0
M  V30 2883 H 283.033 3.8217 1.64071 0
M  V30 2884 H 281.61 2.42864 2.82969 0
M  V30 2885 N 283.795 -0.628877 1.44509 0
M  V30 2886 C 285.072 -1.38733 1.37886 0
M  V30 2887 C 285.452 -2.11065 0.0387008 0
M  V30 2888 O 284.8 -2.06476 -0.97878 0
M  V30 2889 C 285.01 -2.35188 2.57852 0
M  V30 2890 C 286.358 -2.9845 3.02014 0
M  V30 2891 O 287.382 -2.45513 2.58073 0
M  V30 2892 O 286.241 -3.94487 3.78209 0
M  V30 2893 H 283.335 -0.621015 0.54614 0
M  V30 2894 H 285.881 -0.653744 1.56602 0
M  V30 2895 H 284.653 -1.80855 3.46998 0
M  V30 2896 H 284.276 -3.1596 2.4136 0
M  V30 2897 N 285.273 -1.31445 -0.869486 0
M  V30 2898 C 286.684 -1.19042 -1.43826 0
M  V30 2899 C 287.035 0.202919 -1.95148 0
M  V30 2900 O 286.16 1.10071 -1.86315 0
M  V30 2901 C 286.755 -2.15499 -2.6143 0
M  V30 2902 C 285.314 -2.07028 -3.14351 0
M  V30 2903 C 284.461 -2.04701 -1.87063 0
M  V30 2904 H 287.412 -1.43489 -0.677984 0
M  V30 2905 H 287.433 -1.74488 -3.38134 0
M  V30 2906 H 286.945 -3.16899 -2.24046 0
M  V30 2907 H 285.046 -1.08825 -3.56354 0
M  V30 2908 H 285.159 -2.96157 -3.766 0
M  V30 2909 H 283.523 -1.49724 -2.06046 0
M  V30 2910 H 284.306 -3.07857 -1.51917 0
M  V30 2911 N 286.751 1.08385 -1.14413 0
M  V30 2912 C 287.701 2.13509 -0.79987 0
M  V30 2913 C 288.685 1.5951 0.211059 0
M  V30 2914 O 289.877 1.76995 0.0133694 0
M  V30 2915 C 287.006 3.42162 -0.279297 0
M  V30 2916 C 286.092 4.03042 -1.31976 0
M  V30 2917 N 286.483 4.38327 -2.52395 0
M  V30 2918 C 284.781 4.30379 -1.17004 0
M  V30 2919 C 285.482 4.86428 -3.19003 0
M  V30 2920 N 284.458 4.84547 -2.46405 0
M  V30 2921 H 288.26 2.38609 -1.7159 0
M  V30 2922 H 285.774 1.2572 -1.02802 0
M  V30 2923 H 287.771 4.16898 -0.0143688 0
M  V30 2924 H 286.431 3.18511 0.630923 0
M  V30 2925 H 287.442 4.29349 -2.89621 0
M  V30 2926 H 284.119 4.16281 -0.318854 0
M  V30 2927 H 285.509 5.23107 -4.21674 0
M  V30 2928 N 288.23 0.939286 1.26551 0
M  V30 2929 C 289.177 0.446088 2.26448 0
M  V30 2930 C 290.147 -0.493234 1.58608 0
M  V30 2931 O 291.332 -0.409857 1.86346 0
M  V30 2932 C 288.472 -0.284375 3.43926 0
M  V30 2933 C 287.585 0.690399 4.26448 0
M  V30 2934 C 286.72 -0.0610712 5.31165 0
M  V30 2935 C 285.759 0.905649 6.05363 0
M  V30 2936 N 284.896 0.186055 7.01853 0
M  V30 2937 H 289.736 1.30291 2.68008 0
M  V30 2938 H 287.273 0.65371 1.31776 0
M  V30 2939 H 289.231 -0.724313 4.10864 0
M  V30 2940 H 287.861 -1.10535 3.03285 0
M  V30 2941 H 286.913 1.24885 3.59316 0
M  V30 2942 H 288.225 1.42873 4.779 0
M  V30 2943 H 287.379 -0.56038 6.04106 0
M  V30 2944 H 286.118 -0.832297 4.80546 0
M  V30 2945 H 285.123 1.4161 5.3125 0
M  V30 2946 H 286.348 1.67685 6.58072 0
M  V30 2947 H 284.294 -0.566714 6.53548 0
M  V30 2948 H 284.211 0.863752 7.51049 0
M  V30 2949 H 285.479 -0.292221 7.78952 0
M  V30 2950 N 289.708 -1.40897 0.706093 0
M  V30 2951 C 290.671 -2.29131 0.0562841 0
M  V30 2952 C 291.671 -1.44901 -0.697166 0
M  V30 2953 O 292.861 -1.65926 -0.530484 0
M  V30 2954 C 289.993 -3.27957 -0.93043 0
M  V30 2955 H 291.186 -2.88091 0.833284 0
M  V30 2956 H 288.739 -1.4906 0.470192 0
M  V30 2957 H 289.474 -2.73997 -1.73482 0
M  V30 2958 H 289.259 -3.90124 -0.393166 0
M  V30 2959 H 290.749 -3.94049 -1.38256 0
M  V30 2960 N 291.186 -0.45159 -1.50991 0
M  V30 2961 C 292.133 0.352625 -2.2809 0
M  V30 2962 C 293.103 1.0044 -1.32291 0
M  V30 2963 O 294.288 1.02058 -1.6121 0
M  V30 2964 C 291.428 1.43983 -3.13629 0
M  V30 2965 C 290.541 0.804772 -4.24438 0
M  V30 2966 C 289.676 1.86822 -4.97263 0
M  V30 2967 C 288.715 1.21236 -5.99973 0
M  V30 2968 N 287.852 2.2178 -6.66152 0
M  V30 2969 H 292.692 -0.311186 -2.96371 0
M  V30 2970 H 290.229 -0.165308 -1.46168 0
M  V30 2971 H 292.187 2.08161 -3.61559 0
M  V30 2972 H 290.817 2.07307 -2.47434 0
M  V30 2973 H 289.869 0.0509129 -3.80366 0
M  V30 2974 H 291.181 0.286076 -4.97979 0
M  V30 2975 H 290.335 2.58628 -5.48813 0
M  V30 2976 H 289.074 2.42068 -4.23385 0
M  V30 2977 H 288.079 0.479828 -5.47702 0
M  V30 2978 H 289.304 0.667051 -6.75816 0
M  V30 2979 H 287.25 2.76079 -5.95077 0
M  V30 2980 H 287.167 1.74841 -7.35504 0
M  V30 2981 H 288.435 2.93026 -7.22327 0
M  V30 2982 N 292.664 1.56529 -0.183458 0
M  V30 2983 C 293.892 2.01623 0.464285 0
M  V30 2984 C 294.307 1.06366 1.55986 0
M  V30 2985 O 293.664 0.0665398 1.82379 0
M  V30 2986 C 293.715 3.46475 1.03139 0
M  V30 2987 O 293.436 4.38095 -0.0204675 0
M  V30 2988 C 294.937 4.0703 1.75617 0
M  V30 2989 H 292.157 0.660596 0.117704 0
M  V30 2990 H 294.701 2.02451 -0.288751 0
M  V30 2991 H 292.856 3.46383 1.73486 0
M  V30 2992 H 293.27 5.22973 0.399952 0
M  V30 2993 H 294.744 5.10271 2.10542 0
M  V30 2994 H 295.221 3.49819 2.65563 0
M  V30 2995 H 295.827 4.1086 1.09882 0
M  V30 2996 N 294.142 -0.090211 1.57342 0
M  V30 2997 C 295.075 -1.14035 1.97664 0
M  V30 2998 C 296.053 -1.38576 0.850616 0
M  V30 2999 O 297.237 -1.52255 1.11134 0
M  V30 3000 C 294.364 -2.48854 2.2976 0
M  V30 3001 C 293.41 -2.40564 3.52181 0
M  V30 3002 S 294.243 -1.81745 5.03715 0
M  V30 3003 C 295.399 -3.18178 5.38993 0
M  V30 3004 H 295.632 -0.796636 2.86428 0
M  V30 3005 H 293.165 -0.298072 1.51496 0
M  V30 3006 H 295.123 -3.26413 2.48927 0
M  V30 3007 H 293.784 -2.80393 1.41558 0
M  V30 3008 H 292.977 -3.39942 3.72096 0
M  V30 3009 H 292.579 -1.71135 3.32549 0
M  V30 3010 H 294.871 -4.14461 5.35937 0
M  V30 3011 H 295.814 -3.03062 6.39968 0
M  V30 3012 H 296.222 -3.17935 4.66452 0
M  V30 3013 N 295.62 -1.53406 -0.361157 0
M  V30 3014 C 296.55 -1.83136 -1.44857 0
M  V30 3015 C 297.531 -0.685174 -1.5569 0
M  V30 3016 O 298.716 -0.93544 -1.70186 0
M  V30 3017 C 295.846 -2.02522 -2.82138 0
M  V30 3018 C 294.8 -3.18302 -2.86126 0
M  V30 3019 C 294.126 -3.22989 -4.26125 0
M  V30 3020 C 295.426 -4.56796 -2.53248 0
M  V30 3021 H 297.12 -2.74201 -1.20226 0
M  V30 3022 H 294.666 -1.31938 -0.576922 0
M  V30 3023 H 296.619 -2.21904 -3.58241 0
M  V30 3024 H 295.343 -1.08172 -3.08166 0
M  V30 3025 H 294.002 -2.98747 -2.12475 0
M  V30 3026 H 293.65 -2.26267 -4.49235 0
M  V30 3027 H 293.35 -4.00781 -4.29708 0
M  V30 3028 H 294.874 -3.44559 -5.04094 0
M  V30 3029 H 296.288 -4.7631 -3.19064 0
M  V30 3030 H 294.685 -5.36862 -2.68141 0
M  V30 3031 H 295.755 -4.61606 -1.48484 0
M  V30 3032 N 297.098 0.621204 -1.44841 0
M  V30 3033 C 298.046 1.75385 -1.52784 0
M  V30 3034 C 299.04 1.64639 -0.398779 0
M  V30 3035 O 300.246 1.70598 -0.574137 0
M  V30 3036 H 296.621 0.579193 -0.479625 0
M  V30 3037 H 298.592 1.6581 -2.48092 0
M  V30 3038 C 297.341 3.13742 -1.4987 0
M  V30 3039 H 296.664 3.22663 -2.36069 0
M  V30 3040 H 298.104 3.92861 -1.59487 0
M  V30 3041 C 296.563 3.36175 -0.220973 0
M  V30 3042 O 297.093 3.95469 0.704782 0
M  V30 3043 N 295.299 2.90348 -0.120963 0
M  V30 3044 H 294.846 2.42278 -0.875162 0
M  V30 3045 H 294.804 3.05732 0.733168 0
M  V30 3046 N 298.576 1.31904 0.862503 0
M  V30 3047 C 299.992 1.10724 1.14945 0
M  V30 3048 C 300.192 -0.117421 2.01158 0
M  V30 3049 O 299.248 -0.804595 2.39338 0
M  V30 3050 C 300.561 2.38267 1.83437 0
M  V30 3051 C 302.109 2.43949 1.96106 0
M  V30 3052 C 302.584 3.71394 2.68013 0
M  V30 3053 N 304.075 3.72331 2.75543 0
M  V30 3054 C 304.81 4.67641 3.31812 0
M  V30 3055 N 304.306 5.73313 3.88953 0
M  V30 3056 N 306.099 4.5515 3.29841 0
M  V30 3057 H 298.25 2.10436 0.288191 0
M  V30 3058 H 300.513 0.928705 0.190292 0
M  V30 3059 H 300.219 3.27759 1.27542 0
M  V30 3060 H 300.093 2.48633 2.83657 0
M  V30 3061 H 302.48 1.54922 2.51164 0
M  V30 3062 H 302.561 2.37543 0.949059 0
M  V30 3063 H 302.205 4.60791 2.13621 0
M  V30 3064 H 302.135 3.75069 3.69636 0
M  V30 3065 H 304.626 2.95947 2.34997 0
M  V30 3066 H 304.939 6.42107 4.30022 0
M  V30 3067 H 303.284 5.77077 3.87308 0
M  V30 3068 H 306.475 3.71766 2.84443 0
M  V30 3069 H 306.648 5.29604 3.73394 0
M  V30 3070 N 300.054 -1.07777 1.14986 0
M  V30 3071 C 301.303 -1.79669 0.916617 0
M  V30 3072 C 301.616 -1.87474 -0.557917 0
M  V30 3073 O 302.822 -2.55845 -0.908617 0
M  V30 3074 C 301.278 -3.22848 1.59051 0
M  V30 3075 C 300.886 -3.23257 3.10176 0
M  V30 3076 C 302.63 -3.99379 1.43864 0
M  V30 3077 C 300.537 -4.61063 3.70372 0
M  V30 3078 H 299.467 -0.673349 0.33929 0
M  V30 3079 H 302.118 -1.21003 1.37951 0
M  V30 3080 H 300.5 -3.8168 1.0553 0
M  V30 3081 H 301.674 -2.74095 3.70417 0
M  V30 3082 H 299.989 -2.60222 3.25074 0
M  V30 3083 H 302.586 -5.0122 1.86232 0
M  V30 3084 H 302.929 -4.14511 0.385564 0
M  V30 3085 H 303.462 -3.47032 1.94457 0
M  V30 3086 H 300.201 -4.51135 4.7556 0
M  V30 3087 H 299.721 -5.1048 3.14913 0
M  V30 3088 H 301.4 -5.30034 3.71043 0
M  V30 3089 N 301.532 -0.945985 -1.26051 0
M  V30 3090 C 302.943 -0.638096 -1.75457 0
M  V30 3091 C 303.294 0.846672 -1.76991 0
M  V30 3092 O 302.419 1.66262 -1.38513 0
M  V30 3093 C 303.014 -1.15157 -3.18629 0
M  V30 3094 C 301.573 -0.894004 -3.65629 0
M  V30 3095 C 300.72 -1.29967 -2.44957 0
M  V30 3096 H 303.671 -1.12376 -1.1206 0
M  V30 3097 H 303.692 -0.507615 -3.77099 0
M  V30 3098 H 303.204 -2.23222 -3.1748 0
M  V30 3099 H 301.305 0.172057 -3.72203 0
M  V30 3100 H 301.418 -1.52439 -4.54202 0
M  V30 3101 H 299.782 -0.718078 -2.44368 0
M  V30 3102 H 300.565 -2.38935 -2.46505 0
M  V30 3103 N 303.011 1.40521 -0.713556 0
M  V30 3104 C 303.941 2.33381 -0.0743864 0
M  V30 3105 C 304.922 1.52784 0.747735 0
M  V30 3106 O 306.107 1.81258 0.697071 0
M  V30 3107 C 303.237 3.36748 0.849598 0
M  V30 3108 C 302.191 4.27793 0.133247 0
M  V30 3109 C 301.517 5.21679 1.17281 0
M  V30 3110 C 302.817 5.12415 -1.01134 0
M  V30 3111 H 304.511 2.87081 -0.850007 0
M  V30 3112 H 302.057 1.38034 -0.410201 0
M  V30 3113 H 304.01 4.00648 1.30612 0
M  V30 3114 H 302.734 2.81439 1.65709 0
M  V30 3115 H 301.393 3.65342 -0.303426 0
M  V30 3116 H 301.041 4.62677 1.9733 0
M  V30 3117 H 300.741 5.83435 0.698397 0
M  V30 3118 H 302.265 5.88456 1.62947 0
M  V30 3119 H 303.679 5.69781 -0.634274 0
M  V30 3120 H 302.076 5.83203 -1.41399 0
M  V30 3121 H 303.146 4.48514 -1.84292 0
M  V30 3122 N 304.489 0.459591 1.5075 0
M  V30 3123 C 305.737 -0.0991532 2.01857 0
M  V30 3124 C 306.058 -1.41247 1.34441 0
M  V30 3125 O 305.328 -1.89775 0.486022 0
M  V30 3126 H 303.908 -0.039633 0.745948 0
M  V30 3127 H 306.57 0.607387 1.85194 0
M  V30 3128 H 305.666 -0.258998 3.11023 0
M  V30 3129 N 305.967 -1.56429 0.191757 0
M  V30 3130 C 306.914 -2.18936 -0.730454 0
M  V30 3131 C 307.884 -1.13557 -1.21219 0
M  V30 3132 O 309.069 -1.41794 -1.27668 0
M  V30 3133 C 306.209 -2.85013 -1.9458 0
M  V30 3134 C 305.322 -4.04909 -1.50574 0
M  V30 3135 C 304.457 -4.58853 -2.67634 0
M  V30 3136 C 303.496 -5.71114 -2.20217 0
M  V30 3137 N 302.633 -6.19478 -3.30442 0
M  V30 3138 H 307.473 -2.97389 -0.190664 0
M  V30 3139 H 305.01 -1.46869 -0.0823694 0
M  V30 3140 H 306.968 -3.21492 -2.65893 0
M  V30 3141 H 305.598 -2.09129 -2.45896 0
M  V30 3142 H 304.65 -3.74115 -0.688605 0
M  V30 3143 H 305.962 -4.86113 -1.11784 0
M  V30 3144 H 305.116 -4.97619 -3.47074 0
M  V30 3145 H 303.855 -3.76749 -3.09696 0
M  V30 3146 H 302.86 -5.31879 -1.3923 0
M  V30 3147 H 304.085 -6.55033 -1.79189 0
M  V30 3148 H 302.031 -5.40297 -3.72041 0
M  V30 3149 H 301.948 -6.95725 -2.9581 0
M  V30 3150 H 303.216 -6.62898 -4.10106 0
M  V30 3151 N 307.445 0.0818655 -1.57387 0
M  V30 3152 C 308.692 0.782914 -1.86753 0
M  V30 3153 C 309.02 1.78082 -0.782118 0
M  V30 3154 O 308.275 1.94426 0.22295 0
M  V30 3155 C 308.574 1.53513 -3.22752 0
M  V30 3156 C 308.24 0.678134 -4.45771 0
M  V30 3157 C 306.902 0.441929 -4.79166 0
M  V30 3158 C 309.254 0.0832243 -5.21134 0
M  V30 3159 C 306.582 -0.398833 -5.85343 0
M  V30 3160 C 308.934 -0.744935 -6.28199 0
M  V30 3161 C 307.598 -0.991107 -6.60101 0
M  V30 3162 H 306.868 0.286489 -0.683378 0
M  V30 3163 H 309.515 0.0439808 -1.91449 0
M  V30 3164 H 307.82 2.34599 -3.138 0
M  V30 3165 H 309.517 2.08218 -3.42705 0
M  V30 3166 H 306.107 0.872357 -4.19628 0
M  V30 3167 H 310.291 0.252847 -4.95655 0
M  V30 3168 H 305.547 -0.598405 -6.08465 0
M  V30 3169 H 309.721 -1.21271 -6.8576 0
M  V30 3170 H 307.348 -1.64437 -7.42202 0
M  V30 3171 N 308.923 1.53595 0.353017 0
M  V30 3172 C 309.886 1.80232 1.41594 0
M  V30 3173 C 310.886 0.673081 1.46035 0
M  V30 3174 O 312.076 0.941335 1.46576 0
M  V30 3175 C 309.208 1.93578 2.80607 0
M  V30 3176 H 310.401 2.75174 1.19244 0
M  V30 3177 H 307.954 1.44864 0.586872 0
M  V30 3178 H 308.689 1.00746 3.08254 0
M  V30 3179 H 308.474 2.75724 2.78781 0
M  V30 3180 H 309.964 2.15735 3.57558 0
M  V30 3181 N 310.401 -0.613514 1.45168 0
M  V30 3182 C 311.311 -1.75296 1.55912 0
M  V30 3183 C 312.327 -1.68244 0.443856 0
M  V30 3184 O 313.503 -1.88706 0.70371 0
M  V30 3185 C 310.568 -3.1174 1.5172 0
M  V30 3186 C 309.629 -3.30291 2.74238 0
M  V30 3187 C 308.862 -4.60226 2.70236 0
M  V30 3188 O 309.085 -5.42168 1.77229 0
M  V30 3189 O 308.019 -4.81361 3.61352 0
M  V30 3190 H 311.845 -1.69183 2.52212 0
M  V30 3191 H 309.43 -0.776886 1.27612 0
M  V30 3192 H 311.312 -3.93044 1.51968 0
M  V30 3193 H 309.987 -3.18357 0.585697 0
M  V30 3194 H 308.894 -2.48598 2.79553 0
M  V30 3195 H 310.227 -3.28547 3.66494 0
M  V30 3196 N 311.879 -1.3236 -0.855495 0
M  V30 3197 C 313.125 -1.23054 -1.612 0
M  V30 3198 C 313.458 0.207404 -1.93089 0
M  V30 3199 O 312.733 1.14432 -1.57275 0
M  V30 3200 C 313.016 -2.08937 -2.93287 0
M  V30 3201 C 312.869 -3.61105 -2.68185 0
M  V30 3202 C 314.188 -1.94986 -3.94549 0
M  V30 3203 H 311.307 -0.448364 -0.584926 0
M  V30 3204 H 313.949 -1.62297 -0.987917 0
M  V30 3205 H 312.099 -1.75599 -3.46551 0
M  V30 3206 H 313.771 -4.04652 -2.21483 0
M  V30 3207 H 312.014 -3.83813 -2.02164 0
M  V30 3208 H 312.685 -4.16522 -3.62234 0
M  V30 3209 H 315.161 -2.24189 -3.5054 0
M  V30 3210 H 314.037 -2.57356 -4.84829 0
M  V30 3211 H 314.298 -0.917263 -4.3248 0
M  V30 3212 N 313.357 1.07166 -1.15556 0
M  V30 3213 C 314.267 2.17947 -0.868116 0
M  V30 3214 C 315.283 1.73297 0.156297 0
M  V30 3215 O 316.459 2.01392 -0.0182327 0
M  V30 3216 C 313.524 3.44789 -0.36355 0
M  V30 3217 C 312.585 4.03996 -1.45209 0
M  V30 3218 C 311.818 5.24783 -0.971508 0
M  V30 3219 O 312.041 5.70109 0.182194 0
M  V30 3220 O 310.975 5.75715 -1.75603 0
M  V30 3221 H 314.801 2.4503 -1.79427 0
M  V30 3222 H 312.386 1.16539 -0.934824 0
M  V30 3223 H 314.268 4.21307 -0.0887113 0
M  V30 3224 H 312.943 3.19253 0.534708 0
M  V30 3225 H 311.85 3.29009 -1.78056 0
M  V30 3226 H 313.183 4.33808 -2.32533 0
M  V30 3227 N 314.835 0.952656 1.25548 0
M  V30 3228 C 315.785 0.442033 2.23674 0
M  V30 3229 C 316.769 -0.467632 1.53955 0
M  V30 3230 O 317.961 -0.301006 1.74422 0
M  V30 3231 C 315.09 -0.280816 3.4215 0
M  V30 3232 C 314.176 0.646803 4.19139 0
M  V30 3233 N 314.567 1.77759 4.73535 0
M  V30 3234 C 312.865 0.454617 4.43677 0
M  V30 3235 C 313.566 2.35658 5.31827 0
M  V30 3236 N 312.542 1.64333 5.18166 0
M  V30 3237 H 316.344 1.30505 2.63336 0
M  V30 3238 H 313.858 0.809904 1.40763 0
M  V30 3239 H 315.855 -0.663747 4.11582 0
M  V30 3240 H 314.515 -1.14046 3.04012 0
M  V30 3241 H 315.526 2.15949 4.7073 0
M  V30 3242 H 312.203 -0.362312 4.15925 0
M  V30 3243 H 313.593 3.30998 5.84713 0
M  V30 3244 N 316.313 -1.40141 0.720998 0
M  V30 3245 C 317.559 -2.01084 0.263231 0
M  V30 3246 C 317.892 -1.57052 -1.14229 0
M  V30 3247 O 317.167 -0.793027 -1.77599 0
M  V30 3248 C 317.45 -3.58401 0.349344 0
M  V30 3249 C 317.303 -4.12491 1.79363 0
M  V30 3250 C 318.622 -4.39231 -0.276351 0
M  V30 3251 H 315.741 -0.730572 0.0971228 0
M  V30 3252 H 318.383 -1.66543 0.914518 0
M  V30 3253 H 316.533 -3.87958 -0.205165 0
M  V30 3254 H 318.205 -3.93711 2.40394 0
M  V30 3255 H 316.448 -3.66576 2.31958 0
M  V30 3256 H 317.119 -5.21646 1.80524 0
M  V30 3257 H 319.595 -4.15637 0.196184 0
M  V30 3258 H 318.471 -5.48586 -0.185681 0
M  V30 3259 H 318.732 -4.20643 -1.36059 0
M  V30 3260 N 317.792 -0.46758 -1.50504 0
M  V30 3261 C 319.038 0.0887532 -2.02606 0
M  V30 3262 C 319.371 1.39686 -1.34913 0
M  V30 3263 O 318.646 1.88644 -0.473694 0
M  V30 3264 C 318.929 0.276206 -3.59039 0
M  V30 3265 C 318.782 -1.05267 -4.37309 0
M  V30 3266 C 320.101 1.03235 -4.27821 0
M  V30 3267 H 317.22 0.0307814 -0.736357 0
M  V30 3268 H 319.862 -0.612485 -1.79857 0
M  V30 3269 H 318.012 0.8735 -3.78553 0
M  V30 3270 H 319.684 -1.68628 -4.29374 0
M  V30 3271 H 317.927 -1.65015 -4.01189 0
M  V30 3272 H 318.598 -0.875197 -5.45018 0
M  V30 3273 H 321.074 0.526111 -4.12761 0
M  V30 3274 H 319.95 1.1323 -5.37094 0
M  V30 3275 H 320.211 2.06806 -3.90748 0
M  V30 3276 N 319.27 1.56325 -0.20005 0
M  V30 3277 C 320.218 2.20666 0.735482 0
M  V30 3278 C 321.212 1.17934 1.21605 0
M  V30 3279 O 322.418 1.36068 1.17837 0
M  V30 3280 H 318.793 0.70725 0.255542 0
M  V30 3281 H 320.764 2.9792 0.169166 0
M  V30 3282 C 319.513 2.88391 1.94232 0
M  V30 3283 H 318.836 3.67185 1.58161 0
M  V30 3284 H 320.276 3.3684 2.57517 0
M  V30 3285 C 318.735 1.89692 2.78421 0
M  V30 3286 O 319.265 1.40032 3.76502 0
M  V30 3287 N 317.471 1.57813 2.44015 0
M  V30 3288 H 317.018 1.9839 1.64314 0
M  V30 3289 H 316.976 0.920325 3.00628 0
M  V30 3290 N 320.748 -0.0735177 1.57428 0
M  V30 3291 C 321.711 -1.07192 2.02589 0
M  V30 3292 C 322.711 -1.31695 0.922661 0
M  V30 3293 O 323.901 -1.27445 1.18758 0
M  V30 3294 C 321.033 -2.41599 2.40506 0
M  V30 3295 H 322.226 -0.682727 2.92025 0
M  V30 3296 H 319.779 -0.319193 1.53006 0
M  V30 3297 H 320.514 -2.85354 1.5409 0
M  V30 3298 H 320.299 -2.25156 3.21009 0
M  V30 3299 H 321.789 -3.13367 2.76027 0
M  V30 3300 N 322.226 -1.5378 -0.344866 0
M  V30 3301 C 323.475 -1.7018 -1.08267 0
M  V30 3302 C 323.788 -0.471 -1.89845 0
M  V30 3303 O 324.994 -0.515917 -2.66553 0
M  V30 3304 C 323.45 -3.00923 -1.97417 0
M  V30 3305 C 323.058 -4.31335 -1.21053 0
M  V30 3306 C 324.802 -3.26688 -2.71063 0
M  V30 3307 C 322.709 -5.53153 -2.09225 0
M  V30 3308 H 321.639 -0.634138 -0.407903 0
M  V30 3309 H 324.29 -1.8028 -0.342246 0
M  V30 3310 H 322.672 -2.84676 -2.75274 0
M  V30 3311 H 323.846 -4.58281 -0.481159 0
M  V30 3312 H 322.161 -4.12173 -0.591813 0
M  V30 3313 H 324.758 -4.1489 -3.37299 0
M  V30 3314 H 325.101 -2.43639 -3.37558 0
M  V30 3315 H 325.634 -3.43705 -2.0028 0
M  V30 3316 H 322.373 -6.38741 -1.47274 0
M  V30 3317 H 321.893 -5.30458 -2.79955 0
M  V30 3318 H 323.572 -5.88744 -2.68308 0
M  V30 3319 N 323.704 0.605807 -1.45491 0
M  V30 3320 C 324.634 1.72709 -1.57143 0
M  V30 3321 C 325.615 1.6476 -0.422884 0
M  V30 3322 O 326.8 1.83132 -0.646247 0
M  V30 3323 C 323.93 3.11316 -1.53948 0
M  V30 3324 C 322.884 3.34077 -2.67537 0
M  V30 3325 C 322.21 4.72975 -2.49397 0
M  V30 3326 C 323.51 3.24158 -4.09535 0
M  V30 3327 H 325.204 1.63214 -2.51001 0
M  V30 3328 H 322.75 0.78379 -1.208 0
M  V30 3329 H 324.703 3.89557 -1.60696 0
M  V30 3330 H 323.427 3.21655 -0.566205 0
M  V30 3331 H 322.086 2.58227 -2.6022 0
M  V30 3332 H 321.734 4.8005 -1.50205 0
M  V30 3333 H 321.434 4.8916 -3.25571 0
M  V30 3334 H 322.958 5.53414 -2.58002 0
M  V30 3335 H 324.372 3.92271 -4.18086 0
M  V30 3336 H 322.769 3.51872 -4.86113 0
M  V30 3337 H 323.839 2.2157 -4.31317 0
M  V30 3338 N 325.182 1.32811 0.848464 0
M  V30 3339 C 326.429 1.23724 1.60308 0
M  V30 3340 C 326.757 -0.1994 1.93475 0
M  V30 3341 O 326.012 -1.15406 1.5805 0
M  V30 3342 C 326.311 2.04831 2.92881 0
M  V30 3343 C 325.977 3.54125 2.79117 0
M  V30 3344 C 324.639 3.94829 2.7507 0
M  V30 3345 C 326.991 4.49036 2.64606 0
M  V30 3346 C 324.319 5.28675 2.544 0
M  V30 3347 C 326.671 5.83033 2.4547 0
M  V30 3348 C 325.335 6.22931 2.39819 0
M  V30 3349 H 324.605 0.452737 0.586609 0
M  V30 3350 H 327.252 1.64301 0.983743 0
M  V30 3351 H 325.557 1.57001 3.58968 0
M  V30 3352 H 327.254 1.95164 3.50303 0
M  V30 3353 H 323.844 3.21801 2.83094 0
M  V30 3354 H 328.028 4.18505 2.66772 0
M  V30 3355 H 323.284 5.58637 2.48465 0
M  V30 3356 H 327.458 6.56186 2.33222 0
M  V30 3357 H 325.085 7.26584 2.23562 0
M  V30 3358 N 326.66 -1.06551 1.16123 0
M  V30 3359 C 327.59 -2.15935 0.88851 0
M  V30 3360 C 328.571 -1.69306 -0.164135 0
M  V30 3361 O 329.756 -1.94193 -0.0167857 0
M  V30 3362 C 326.886 -3.45149 0.385942 0
M  V30 3363 C 325.84 -4.05271 1.3762 0
M  V30 3364 C 325.166 -5.29664 0.732137 0
M  V30 3365 C 326.466 -4.44355 2.74493 0
M  V30 3366 H 328.16 -2.39006 1.80323 0
M  V30 3367 H 325.706 -1.14866 0.868435 0
M  V30 3368 H 327.659 -4.21004 0.182647 0
M  V30 3369 H 326.383 -3.21689 -0.564274 0
M  V30 3370 H 325.042 -3.3147 1.56599 0
M  V30 3371 H 324.69 -5.02499 -0.224483 0
M  V30 3372 H 324.39 -5.70848 1.39307 0
M  V30 3373 H 325.914 -6.08218 0.538802 0
M  V30 3374 H 327.328 -5.11303 2.59311 0
M  V30 3375 H 325.725 -4.96515 3.37035 0
M  V30 3376 H 326.795 -3.55339 3.29943 0
M  V30 3377 N 328.138 -0.959301 -1.25041 0
M  V30 3378 C 329.068 -0.501388 -2.28053 0
M  V30 3379 C 330.049 0.454673 -1.63911 0
M  V30 3380 O 331.234 0.352618 -1.90972 0
M  V30 3381 C 328.364 0.217224 -3.4662 0
M  V30 3382 C 327.318 -0.654034 -4.22973 0
M  V30 3383 C 326.644 0.195589 -5.34342 0
M  V30 3384 C 327.944 -1.93447 -4.85155 0
M  V30 3385 H 329.638 -1.36238 -2.66608 0
M  V30 3386 H 327.184 -0.656534 -1.28163 0
M  V30 3387 H 329.137 0.548732 -4.17812 0
M  V30 3388 H 327.861 1.1125 -3.07068 0
M  V30 3389 H 326.52 -0.968693 -3.5357 0
M  V30 3390 H 326.168 1.09076 -4.91031 0
M  V30 3391 H 325.868 -0.384091 -5.86343 0
M  V30 3392 H 327.392 0.521958 -6.08365 0
M  V30 3393 H 328.806 -1.66908 -5.48466 0
M  V30 3394 H 327.203 -2.46018 -5.47353 0
M  V30 3395 H 328.273 -2.63466 -4.07079 0
M  V30 3396 N 329.616 1.39756 -0.72842 0
M  V30 3397 C 330.841 2.05472 -0.282159 0
M  V30 3398 C 331.266 1.54549 1.07221 0
M  V30 3399 O 330.624 0.686372 1.67805 0
M  V30 3400 C 330.672 3.59462 -0.286264 0
M  V30 3401 O 329.776 4.05918 0.728298 0
M  V30 3402 H 329.117 0.651226 -0.129618 0
M  V30 3403 H 331.647 1.78915 -0.992499 0
M  V30 3404 H 331.657 4.07798 -0.128373 0
M  V30 3405 H 330.332 3.95889 -1.27456 0
M  V30 3406 H 328.909 3.69012 0.537081 0
M  V30 3407 N 331.094 0.475555 1.50254 0
M  V30 3408 C 332.371 -0.139685 1.95101 0
M  V30 3409 C 332.751 -1.56555 1.41611 0
M  V30 3410 O 332.099 -2.19956 0.618993 0
M  V30 3411 C 332.309 -0.0784298 3.48912 0
M  V30 3412 C 333.657 -0.265095 4.23772 0
M  V30 3413 O 334.681 -0.154808 3.55863 0
M  V30 3414 O 333.54 -0.488327 5.44314 0
M  V30 3415 H 330.634 -0.109236 0.819754 0
M  V30 3416 H 333.18 0.536276 1.61004 0
M  V30 3417 H 331.952 0.916918 3.80405 0
M  V30 3418 H 331.575 -0.795655 3.89558 0
M  V30 3419 N 332.573 -1.56217 0.208337 0
M  V30 3420 C 333.989 -1.58919 -0.14729 0
M  V30 3421 C 334.189 -1.22486 -1.59998 0
M  V30 3422 O 333.245 -0.953849 -2.3379 0
M  V30 3423 C 334.558 -3.00236 0.167048 0
M  V30 3424 C 336.106 -3.12813 0.108219 0
M  V30 3425 C 336.581 -4.56284 0.396049 0
M  V30 3426 N 338.072 -4.61912 0.345142 0
M  V30 3427 C 338.807 -5.70837 0.541523 0
M  V30 3428 N 338.303 -6.88178 0.798968 0
M  V30 3429 N 340.096 -5.60091 0.474867 0
M  V30 3430 H 332.247 -1.78177 1.15614 0
M  V30 3431 H 334.51 -0.827555 0.462446 0
M  V30 3432 H 334.216 -3.31499 1.1748 0
M  V30 3433 H 334.09 -3.7354 -0.524184 0
M  V30 3434 H 336.477 -2.81354 -0.890157 0
M  V30 3435 H 336.558 -2.41866 0.832729 0
M  V30 3436 H 336.202 -4.88458 1.3918 0
M  V30 3437 H 336.132 -5.25439 -0.349502 0
M  V30 3438 H 338.623 -3.77589 0.153316 0
M  V30 3439 H 338.936 -7.67095 0.93727 0
M  V30 3440 H 337.281 -6.89953 0.836013 0
M  V30 3441 H 340.472 -4.67297 0.274064 0
M  V30 3442 H 340.645 -6.44917 0.631326 0
M  V30 3443 N 334.051 0.0651679 -1.57465 0
M  V30 3444 C 335.276 0.779605 -1.9219 0
M  V30 3445 C 335.701 1.69988 -0.805333 0
M  V30 3446 O 335.059 1.79685 0.241435 0
M  V30 3447 C 335.107 1.54364 -3.2589 0
M  V30 3448 O 334.211 2.65474 -3.1559 0
M  V30 3449 H 333.552 0.212249 -0.629163 0
M  V30 3450 H 336.082 0.0314294 -2.04576 0
M  V30 3451 H 336.092 1.92146 -3.59922 0
M  V30 3452 H 334.767 0.868457 -4.06732 0
M  V30 3453 H 333.344 2.30501 -2.93128 0
M  V30 3454 N 335.529 1.53961 0.336706 0
M  V30 3455 C 336.777 1.71197 1.07405 0
M  V30 3456 C 337.098 0.481475 1.88962 0
M  V30 3457 O 336.368 -0.504585 1.8929 0
M  V30 3458 H 334.948 0.631185 0.399517 0
M  V30 3459 H 337.61 1.91232 0.376323 0
M  V30 3460 H 336.706 2.58587 1.74755 0
M  V30 3461 N 337.007 -0.598083 1.45811 0
M  V30 3462 C 337.94 -1.7223 1.49706 0
M  V30 3463 C 338.918 -1.58732 0.352535 0
M  V30 3464 O 340.102 -1.80162 0.554438 0
M  V30 3465 C 337.229 -3.10148 1.3611 0
M  V30 3466 C 336.275 -3.42209 2.54549 0
M  V30 3467 S 337.108 -3.35989 4.16979 0
M  V30 3468 C 338.264 -4.76471 4.05865 0
M  V30 3469 H 338.497 -1.68665 2.44826 0
M  V30 3470 H 336.03 -0.775541 1.33509 0
M  V30 3471 H 337.988 -3.8972 1.28953 0
M  V30 3472 H 336.649 -3.11219 0.424451 0
M  V30 3473 H 335.842 -4.42652 2.40988 0
M  V30 3474 H 335.444 -2.70173 2.58617 0
M  V30 3475 H 337.736 -5.665 3.71596 0
M  V30 3476 H 338.679 -4.95089 5.06253 0
M  V30 3477 H 339.087 -4.52599 3.37364 0
M  V30 3478 N 338.485 -1.33259 -0.841409 0
M  V30 3479 C 339.713 -1.27605 -1.62864 0
M  V30 3480 C 340.128 0.153507 -1.88175 0
M  V30 3481 O 339.485 1.09485 -1.46011 0
M  V30 3482 C 339.536 -2.04596 -2.98031 0
M  V30 3483 O 339.257 -3.41975 -2.73834 0
M  V30 3484 C 340.758 -2.06122 -3.92465 0
M  V30 3485 H 337.978 -0.439718 -0.506842 0
M  V30 3486 H 340.522 -1.75591 -1.04824 0
M  V30 3487 H 338.677 -1.60299 -3.5268 0
M  V30 3488 H 339.091 -3.81549 -3.59889 0
M  V30 3489 H 340.565 -2.64451 -4.84531 0
M  V30 3490 H 341.042 -1.05083 -4.26444 0
M  V30 3491 H 341.648 -2.50427 -3.43753 0
M  V30 3492 N 339.963 1.05934 -1.16686 0
M  V30 3493 C 341.191 1.8249 -0.974929 0
M  V30 3494 C 341.606 1.82679 0.476861 0
M  V30 3495 O 340.963 1.2486 1.33103 0
M  V30 3496 C 341.014 3.28943 -1.49929 0
M  V30 3497 O 340.735 3.28886 -2.89423 0
M  V30 3498 C 342.236 4.22215 -1.35089 0
M  V30 3499 H 339.456 0.575295 -0.345365 0
M  V30 3500 H 342 1.33631 -1.548 0
M  V30 3501 H 340.155 3.751 -0.968423 0
M  V30 3502 H 340.569 4.20493 -3.13506 0
M  V30 3503 H 342.043 5.22987 -1.76603 0
M  V30 3504 H 342.52 4.38195 -0.296935 0
M  V30 3505 H 343.126 3.81907 -1.87155 0
M  V30 3506 N 341.441 0.965919 1.2453 0
M  V30 3507 C 342.689 0.625593 1.92174 0
M  V30 3508 C 343.01 -0.841652 1.75901 0
M  V30 3509 O 342.28 -1.60061 1.12948 0
M  V30 3510 H 340.86 0.228388 0.71123 0
M  V30 3511 H 343.522 1.2266 1.51461 0
M  V30 3512 H 342.618 0.864653 2.99884 0
M  V30 3513 N 342.919 -1.39368 0.735821 0
M  V30 3514 C 344.144 -2.05319 0.293052 0
M  V30 3515 C 344.569 -1.55115 -1.064 0
M  V30 3516 O 343.927 -0.695261 -1.67439 0
M  V30 3517 C 343.975 -3.59305 0.305323 0
M  V30 3518 O 343.079 -4.06299 -0.706761 0
M  V30 3519 H 342.42 -0.650529 0.13307 0
M  V30 3520 H 344.95 -1.78386 1.00197 0
M  V30 3521 H 344.96 -4.07724 0.149997 0
M  V30 3522 H 343.635 -3.95207 1.29553 0
M  V30 3523 H 342.212 -3.69292 -0.517504 0
M  V30 3524 N 344.397 -0.483516 -1.5 0
M  V30 3525 C 345.625 0.0644831 -2.06799 0
M  V30 3526 C 346.04 1.32399 -1.34596 0
M  V30 3527 O 345.397 1.77626 -0.418946 0
M  V30 3528 C 345.448 0.339927 -3.59898 0
M  V30 3529 O 345.169 -0.869635 -4.29382 0
M  V30 3530 C 346.67 0.933515 -4.33359 0
M  V30 3531 H 343.89 -0.0126333 -0.670881 0
M  V30 3532 H 346.434 -0.675864 -1.93009 0
M  V30 3533 H 344.589 1.03022 -3.7345 0
M  V30 3534 H 345.003 -0.62179 -5.20801 0
M  V30 3535 H 346.477 1.07593 -5.41413 0
M  V30 3536 H 346.954 1.92685 -3.94676 0
M  V30 3537 H 347.56 0.281221 -4.24369 0
M  V30 3538 N 345.875 1.56104 -0.216619 0
M  V30 3539 C 346.805 2.23063 0.690296 0
M  V30 3540 C 347.786 1.20072 1.20485 0
M  V30 3541 O 348.971 1.48643 1.24976 0
M  V30 3542 C 346.101 2.90672 1.90072 0
M  V30 3543 C 345.055 4.00092 1.5202 0
M  V30 3544 C 344.381 4.54972 2.80899 0
M  V30 3545 C 345.681 5.17398 0.71391 0
M  V30 3546 H 347.375 2.99109 0.132038 0
M  V30 3547 H 344.921 1.43866 0.0620664 0
M  V30 3548 H 346.874 3.36204 2.54057 0
M  V30 3549 H 345.598 2.12066 2.48386 0
M  V30 3550 H 344.257 3.55283 0.903839 0
M  V30 3551 H 343.905 3.73102 3.37348 0
M  V30 3552 H 343.605 5.28817 2.56176 0
M  V30 3553 H 345.129 5.0322 3.45836 0
M  V30 3554 H 346.543 5.59342 1.25735 0
M  V30 3555 H 344.94 5.97444 0.563951 0
M  V30 3556 H 346.01 4.84088 -0.280527 0
M  V30 3557 N 347.353 -0.0568162 1.57498 0
M  V30 3558 C 348.764 -0.606858 1.76562 0
M  V30 3559 C 349.115 -1.77114 0.844094 0
M  V30 3560 O 348.24 -2.16376 0.0318911 0
M  V30 3561 C 348.835 -1.10766 3.20182 0
M  V30 3562 C 347.394 -1.60344 3.40539 0
M  V30 3563 C 346.541 -0.529311 2.72201 0
M  V30 3564 H 349.492 0.169393 1.57793 0
M  V30 3565 H 349.513 -1.97602 3.25167 0
M  V30 3566 H 349.025 -0.26006 3.87228 0
M  V30 3567 H 347.126 -2.47379 2.78629 0
M  V30 3568 H 347.239 -1.67006 4.4905 0
M  V30 3569 H 345.603 -0.977893 2.35179 0
M  V30 3570 H 346.386 0.308352 3.41912 0
M  V30 3571 N 348.832 -1.54138 -0.328536 0
M  V30 3572 C 350.078 -1.7236 -1.06865 0
M  V30 3573 C 350.411 -0.493231 -1.87832 0
M  V30 3574 O 349.686 0.5098 -1.877 0
M  V30 3575 C 349.969 -2.99621 -1.99747 0
M  V30 3576 C 349.822 -4.32899 -1.22143 0
M  V30 3577 C 351.141 -3.22615 -2.99345 0
M  V30 3578 H 348.26 -0.627151 -0.387105 0
M  V30 3579 H 350.902 -1.86827 -0.345767 0
M  V30 3580 H 349.052 -2.87418 -2.61387 0
M  V30 3581 H 350.724 -4.56978 -0.630017 0
M  V30 3582 H 348.967 -4.30628 -0.523628 0
M  V30 3583 H 349.638 -5.18154 -1.90318 0
M  V30 3584 H 352.114 -3.34248 -2.47826 0
M  V30 3585 H 350.99 -4.13027 -3.61524 0
M  V30 3586 H 351.251 -2.3961 -3.71536 0
M  V30 3587 N 350.31 0.590341 -1.46126 0
M  V30 3588 C 351.22 1.72793 -1.58681 0
M  V30 3589 C 352.236 1.67516 -0.470566 0
M  V30 3590 O 353.412 1.87562 -0.733642 0
M  V30 3591 C 350.477 3.09287 -1.5666 0
M  V30 3592 C 349.538 3.25886 -2.79458 0
M  V30 3593 C 348.771 4.55869 -2.77524 0
M  V30 3594 O 348.994 5.3928 -1.85832 0
M  V30 3595 O 347.928 4.75552 -3.68964 0
M  V30 3596 H 351.754 1.65149 -2.54872 0
M  V30 3597 H 349.339 0.756486 -1.28832 0
M  V30 3598 H 351.221 3.90577 -1.58202 0
M  V30 3599 H 349.896 3.17385 -0.636271 0
M  V30 3600 H 348.803 2.44119 -2.83472 0
M  V30 3601 H 350.136 3.22675 -3.71674 0
M  V30 3602 N 351.788 1.33704 0.83433 0
M  V30 3603 C 353.036 1.25169 1.58673 0
M  V30 3604 C 353.357 -0.18127 1.94156 0
M  V30 3605 O 352.627 -1.11113 1.6134 0
M  V30 3606 H 351.207 0.4603 0.58833 0
M  V30 3607 H 353.869 1.67478 0.996847 0
M  V30 3608 H 352.965 1.84856 2.51465 0
M  V30 3609 N 353.266 -1.05314 1.17247 0
M  V30 3610 C 354.514 -1.77941 0.958194 0
M  V30 3611 C 354.835 -1.88089 -0.514556 0
M  V30 3612 O 354.105 -1.39676 -1.37359 0
M  V30 3613 H 352.685 -0.659116 0.351533 0
M  V30 3614 H 355.347 -1.27166 1.47699 0
M  V30 3615 H 354.443 -2.79663 1.38546 0
M  V30 3616 N 354.744 -0.972509 -1.24016 0
M  V30 3617 C 355.991 -0.637034 -1.92219 0
M  V30 3618 C 356.319 0.828418 -1.75976 0
M  V30 3619 O 355.574 1.61206 -1.10955 0
M  V30 3620 C 355.873 -0.963694 -3.44162 0
M  V30 3621 C 355.539 -2.41807 -3.80579 0
M  V30 3622 C 354.201 -2.81556 -3.9023 0
M  V30 3623 C 356.553 -3.36172 -3.98293 0
M  V30 3624 C 353.881 -4.14702 -4.15017 0
M  V30 3625 C 356.233 -4.68952 -4.24578 0
M  V30 3626 C 354.897 -5.08472 -4.32449 0
M  V30 3627 H 354.167 -0.233107 -0.703379 0
M  V30 3628 H 356.814 -1.2249 -1.47202 0
M  V30 3629 H 355.119 -0.29365 -3.90698 0
M  V30 3630 H 356.816 -0.682449 -3.9515 0
M  V30 3631 H 353.406 -2.09988 -3.73635 0
M  V30 3632 H 357.59 -3.06644 -3.90234 0
M  V30 3633 H 352.846 -4.4494 -4.19331 0
M  V30 3634 H 357.02 -5.42037 -4.37229 0
M  V30 3635 H 354.647 -6.11665 -4.51409 0
M  V30 3636 N 356.222 1.38976 -0.743202 0
M  V30 3637 C 357.468 2.01114 -0.304109 0
M  V30 3638 C 357.823 1.57929 1.09892 0
M  V30 3639 O 357.116 0.801983 1.74008 0
M  V30 3640 C 357.31 3.55647 -0.353517 0
M  V30 3641 C 357.139 4.13837 -1.75981 0
M  V30 3642 C 355.909 4.46062 -2.37395 0
M  V30 3643 C 358.107 4.36812 -2.71477 0
M  V30 3644 N 356.089 4.898 -3.70093 0
M  V30 3645 C 357.46 4.82844 -3.88923 0
M  V30 3646 C 359.515 4.18893 -2.69134 0
M  V30 3647 C 358.218 5.12837 -5.04371 0
M  V30 3648 C 360.244 4.50005 -3.83731 0
M  V30 3649 C 359.606 4.96251 -4.99914 0
M  V30 3650 H 355.705 0.765931 -0.157716 0
M  V30 3651 H 358.289 1.68763 -0.970931 0
M  V30 3652 H 356.46 3.87368 0.282987 0
M  V30 3653 H 358.192 4.04564 0.104904 0
M  V30 3654 H 354.947 4.34145 -1.89248 0
M  V30 3655 H 355.371 5.16016 -4.38242 0
M  V30 3656 H 360.013 3.82335 -1.80499 0
M  V30 3657 H 357.731 5.48297 -5.9363 0
M  V30 3658 H 361.317 4.37755 -3.83225 0
M  V30 3659 H 360.197 5.19867 -5.87118 0
M  V30 3660 N 357.7 0.491464 1.49741 0
M  V30 3661 C 358.663 -0.280906 2.27472 0
M  V30 3662 C 359.663 -0.902454 1.33088 0
M  V30 3663 O 360.853 -0.768465 1.56334 0
M  V30 3664 C 357.985 -1.40209 3.10732 0
M  V30 3665 H 359.178 0.401056 2.97206 0
M  V30 3666 H 356.731 0.246131 1.5435 0
M  V30 3667 H 357.466 -2.11849 2.45541 0
M  V30 3668 H 357.251 -0.961969 3.80117 0
M  V30 3669 H 358.741 -1.9464 3.69466 0
M  V30 3670 N 359.178 -1.55987 0.224894 0
M  V30 3671 C 360.418 -2.00293 -0.407706 0
M  V30 3672 C 360.782 -1.1093 -1.56711 0
M  V30 3673 O 361.983 -1.44597 -2.26595 0
M  V30 3674 C 360.254 -3.47675 -0.82805 0
M  V30 3675 S 361.813 -4.14 -1.45429 0
M  V30 3676 H 358.631 -0.699152 -0.129256 0
M  V30 3677 H 361.233 -1.92609 0.334967 0
M  V30 3678 H 359.937 -4.10392 0.0253964 0
M  V30 3679 H 359.468 -3.59239 -1.60345 0
M  V30 3680 H 361.483 -4.13465 -2.74337 0
M  V30 3681 O 360.695 -0.0887553 -1.61256 0
M  V30 3682 H 361.386 0.514821 -1.86733 0
M  V30 END ATOM
M  V30 BEGIN BOND
M  V30 END BOND
M  V30 END CTAB
M  END
$$$$
