drugbank_target|Q9NRE1 Matrix metalloproteinase-26 (DB00786)
 OpenBabel12092120373D

  0  0  0     0  0            999 V3000
M  V30 BEGIN CTAB
M  V30 COUNTS 4088 4163 0 0 0
M  V30 BEGIN ATOM
M  V30 1 H -0.908 1.98254 -0.117106 0
M  V30 2 N 0 1.576 0 0
M  V30 3 C 0.933 2.03868 1.02534 0
M  V30 4 C 1.911 0.928543 1.3348 0
M  V30 5 O 3.095 1.19667 1.45644 0
M  V30 6 C 0.222 2.43627 2.35294 0
M  V30 7 C -0.732 3.65373 2.2001 0
M  V30 8 S 0.101 5.13292 1.52614 0
M  V30 9 C 1.257 5.56322 2.86805 0
M  V30 10 H 1.49 2.90518 0.631377 0
M  V30 11 H -0.977 1.52953 0.210867 0
M  V30 12 H 0.981 2.67203 3.11629 0
M  V30 13 H -0.358 1.57376 2.7183 0
M  V30 14 H -1.165 3.90944 3.18086 0
M  V30 15 H -1.563 3.418 1.51819 0
M  V30 16 H 0.729 5.58782 3.83104 0
M  V30 17 H 1.672 6.56266 2.65933 0
M  V30 18 H 2.08 4.83886 2.90714 0
M  V30 19 N 1.4781 -0.272755 1.55222 0
M  V30 20 C 2.4101 -1.35946 1.8453 0
M  V30 21 C 3.4231 -1.45525 0.729818 0
M  V30 22 O 4.6121 -1.47337 1.00767 0
M  V30 23 C 1.7121 -2.74069 1.99347 0
M  V30 24 C 0.8851 -2.87079 3.30007 0
M  V30 25 C -0.0559 -4.05879 3.34886 0
M  V30 26 O -1.0299 -3.96626 4.08261 0
M  V30 27 N 0.1721 -5.17857 2.62307 0
M  V30 28 H 2.9371 -1.11149 2.78327 0
M  V30 29 H 0.4981 -0.462869 1.55142 0
M  V30 30 H 2.4901 -3.51838 1.99981 0
M  V30 31 H 1.0601 -2.91688 1.12415 0
M  V30 32 H 0.2801 -1.96193 3.41909 0
M  V30 33 H 1.5681 -2.92701 4.16177 0
M  V30 34 H 0.9661 -5.28261 2.02377 0
M  V30 35 H -0.4769 -5.93855 2.68663 0
M  V30 36 N 2.9562 -1.48159 -0.537278 0
M  V30 37 C 3.8862 -1.65029 -1.6519 0
M  V30 38 C 4.8672 -0.499281 -1.62607 0
M  V30 39 O 6.0522 -0.730972 -1.79918 0
M  V30 40 C 3.1822 -1.68303 -3.03795 0
M  V30 41 C 2.1362 -2.8283 -3.21234 0
M  V30 42 C 1.4622 -2.71189 -4.60826 0
M  V30 43 C 2.7622 -4.24211 -3.04701 0
M  V30 44 H 4.4562 -2.58341 -1.51328 0
M  V30 45 H 2.0022 -1.24325 -0.726585 0
M  V30 46 H 3.9552 -1.78693 -3.81637 0
M  V30 47 H 2.6792 -0.715635 -3.18663 0
M  V30 48 H 1.3382 -2.71983 -2.45807 0
M  V30 49 H 0.9862 -1.72435 -4.7252 0
M  V30 50 H 0.6862 -3.48035 -4.7344 0
M  V30 51 H 2.2102 -2.83537 -5.40777 0
M  V30 52 H 3.6242 -4.3593 -3.72341 0
M  V30 53 H 2.0212 -5.01998 -3.28813 0
M  V30 54 H 3.0912 -4.41184 -2.01209 0
M  V30 55 N 4.4343 0.785586 -1.36625 0
M  V30 56 C 5.6803 1.54591 -1.31261 0
M  V30 57 C 6.0133 1.93906 0.106823 0
M  V30 58 O 5.2883 1.63007 1.06108 0
M  V30 59 C 5.5713 2.82038 -2.23889 0
M  V30 60 C 5.4243 2.49066 -3.74548 0
M  V30 61 C 6.7433 3.83887 -2.15217 0
M  V30 62 H 3.8623 0.560846 -0.478143 0
M  V30 63 H 6.5043 0.902278 -1.67209 0
M  V30 64 H 4.6543 3.36961 -1.93363 0
M  V30 65 H 6.3263 2.00164 -4.15611 0
M  V30 66 H 4.5693 1.81954 -3.93796 0
M  V30 67 H 5.2403 3.40109 -4.34776 0
M  V30 68 H 7.7163 3.38421 -2.42096 0
M  V30 69 H 6.5923 4.70806 -2.82193 0
M  V30 70 H 6.8533 4.27131 -1.14068 0
M  V30 71 N 5.9124 1.20967 1.01018 0
M  V30 72 C 7.1614 1.01796 1.74128 0
M  V30 73 C 7.4744 -0.449691 1.90361 0
M  V30 74 O 8.6804 -0.76068 2.60626 0
M  V30 75 C 7.1364 1.7727 3.13215 0
M  V30 76 C 6.7444 3.28171 3.04972 0
M  V30 77 C 8.4884 1.66489 3.90489 0
M  V30 78 C 6.3954 3.96156 4.39107 0
M  V30 79 H 5.3254 0.377276 0.652824 0
M  V30 80 H 7.9764 1.44651 1.12909 0
M  V30 81 H 6.3584 1.27205 3.75013 0
M  V30 82 H 7.5324 3.85499 2.52443 0
M  V30 83 H 5.8474 3.39437 2.41188 0
M  V30 84 H 8.4444 2.14617 4.89738 0
M  V30 85 H 8.7874 0.6222 4.11624 0
M  V30 86 H 9.3204 2.14003 3.35332 0
M  V30 87 H 6.0594 5.00604 4.23174 0
M  V30 88 H 5.5794 3.43617 4.91617 0
M  V30 89 H 7.2584 4.00774 5.07926 0
M  V30 90 N 7.3905 -1.2043 1.01659 0
M  V30 91 C 8.3205 -2.25466 0.607226 0
M  V30 92 C 9.3015 -1.65853 -0.377716 0
M  V30 93 O 10.4865 -1.92409 -0.263149 0
M  V30 94 C 7.6165 -3.47256 -0.0552949 0
M  V30 95 C 6.5705 -4.19462 0.850632 0
M  V30 96 C 5.8965 -5.34673 0.0538859 0
M  V30 97 C 7.1965 -4.75603 2.15868 0
M  V30 98 H 8.8905 -2.59962 1.48526 0
M  V30 99 H 6.4365 -1.2496 0.715605 0
M  V30 100 H 8.3895 -4.19917 -0.353233 0
M  V30 101 H 7.1135 -3.11924 -0.968045 0
M  V30 102 H 5.7725 -3.48667 1.13257 0
M  V30 103 H 5.4205 -4.95585 -0.860514 0
M  V30 104 H 5.1205 -5.83913 0.657192 0
M  V30 105 H 6.6445 -6.10138 -0.237598 0
M  V30 106 H 8.0585 -5.40083 1.92311 0
M  V30 107 H 6.4555 -5.3528 2.71284 0
M  V30 108 H 7.5255 -3.94346 2.82169 0
M  V30 109 N 8.8686 -0.792821 -1.36206 0
M  V30 110 C 10.2846 -0.474903 -1.52371 0
M  V30 111 C 10.4846 1.00622 -1.74578 0
M  V30 112 O 9.5406 1.79162 -1.77924 0
M  V30 113 C 10.8536 -1.3083 -2.70747 0
M  V30 114 C 12.4016 -1.30234 -2.84619 0
M  V30 115 C 12.8766 -2.11956 -4.06004 0
M  V30 116 N 14.3676 -2.09419 -4.13156 0
M  V30 117 C 15.1026 -2.69419 -5.06163 0
M  V30 118 N 14.5986 -3.3829 -6.04592 0
M  V30 119 N 16.3916 -2.59134 -4.98804 0
M  V30 120 H 8.5426 -1.75222 -1.20046 0
M  V30 121 H 10.8056 -0.745024 -0.586211 0
M  V30 122 H 10.5116 -2.35881 -2.6087 0
M  V30 123 H 10.3856 -0.95196 -3.6499 0
M  V30 124 H 12.7726 -0.259748 -2.93955 0
M  V30 125 H 12.8536 -1.69847 -1.91274 0
M  V30 126 H 12.4976 -3.16248 -3.97429 0
M  V30 127 H 12.4276 -1.69711 -4.98503 0
M  V30 128 H 14.9186 -1.59297 -3.42685 0
M  V30 129 H 15.2316 -3.81394 -6.7213 0
M  V30 130 H 13.5766 -3.42393 -6.04807 0
M  V30 131 H 16.7676 -2.04927 -4.20859 0
M  V30 132 H 16.9406 -3.06185 -5.711 0
M  V30 133 N 10.3467 1.47872 -0.545128 0
M  V30 134 C 11.5927 2.02793 -0.0166104 0
M  V30 135 C 11.9257 1.41987 1.32489 0
M  V30 136 O 11.2007 0.571045 1.85928 0
M  V30 137 C 11.4837 3.59989 0.0893294 0
M  V30 138 C 11.3367 4.3125 -1.27841 0
M  V30 139 C 12.6557 4.32606 0.808724 0
M  V30 140 H 9.7747 0.736962 -0.00751035 0
M  V30 141 H 12.4167 1.76433 -0.705085 0
M  V30 142 H 10.5667 3.82579 0.675681 0
M  V30 143 H 12.2387 4.20035 -1.90704 0
M  V30 144 H 10.4817 3.92076 -1.85632 0
M  V30 145 H 11.1527 5.39736 -1.15713 0
M  V30 146 H 13.6287 4.14936 0.310992 0
M  V30 147 H 12.5047 5.42251 0.851782 0
M  V30 148 H 12.7657 4.00963 1.86229 0
M  V30 149 N 11.8248 0.280983 1.55075 0
M  V30 150 C 13.0528 -0.337293 2.04132 0
M  V30 151 C 13.4678 -1.4903 1.15912 0
M  V30 152 O 12.8248 -1.81606 0.180459 0
M  V30 153 C 12.8758 -0.812706 3.52246 0
M  V30 154 O 12.5968 0.294387 4.3711 0
M  V30 155 C 14.0978 -1.4982 4.17216 0
M  V30 156 H 11.3178 -0.0761638 0.666663 0
M  V30 157 H 13.8618 0.414787 2.00249 0
M  V30 158 H 12.0168 -1.51486 3.56554 0
M  V30 159 H 12.4308 -0.0721325 5.2445 0
M  V30 160 H 13.9048 -1.7822 5.22438 0
M  V30 161 H 14.3818 -2.43168 3.65741 0
M  V30 162 H 14.9878 -0.839742 4.16927 0
M  V30 163 N 13.3029 -1.57598 0.00835791 0
M  V30 164 C 14.5519 -1.90107 -0.673968 0
M  V30 165 C 14.8649 -0.884275 -1.7447 0
M  V30 166 O 16.0709 -1.09987 -2.48224 0
M  V30 167 C 14.5269 -3.37497 -1.24995 0
M  V30 168 C 14.1349 -4.47491 -0.2136 0
M  V30 169 C 15.8789 -3.79104 -1.90999 0
M  V30 170 C 13.7859 -5.85963 -0.80005 0
M  V30 171 H 12.7159 -0.709393 -0.255495 0
M  V30 172 H 15.3669 -1.83365 0.0702693 0
M  V30 173 H 13.7489 -3.39102 -2.04513 0
M  V30 174 H 14.9229 -4.57414 0.557596 0
M  V30 175 H 13.2379 -4.14956 0.346474 0
M  V30 176 H 15.8349 -4.79901 -2.35795 0
M  V30 177 H 16.1779 -3.1306 -2.74407 0
M  V30 178 H 16.7109 -3.79833 -1.18203 0
M  V30 179 H 13.4499 -6.555 -0.00456708 0
M  V30 180 H 12.9699 -5.79687 -1.54021 0
M  V30 181 H 14.6489 -6.33884 -1.29615 0
M  V30 182 N 14.781 0.264519 -1.55364 0
M  V30 183 C 16.028 0.994986 -1.7637 0
M  V30 184 C 16.356 1.85976 -0.5695 0
M  V30 185 O 15.611 1.90509 0.44776 0
M  V30 186 C 15.91 1.9004 -3.02687 0
M  V30 187 C 15.576 1.19243 -4.34847 0
M  V30 188 C 14.238 0.996709 -4.70764 0
M  V30 189 C 16.59 0.689296 -5.16622 0
M  V30 190 C 13.918 0.285261 -5.86006 0
M  V30 191 C 16.27 -0.00860079 -6.32599 0
M  V30 192 C 14.934 -0.215963 -6.67151 0
M  V30 193 H 14.204 0.364091 -0.645383 0
M  V30 194 H 16.851 0.266543 -1.89636 0
M  V30 195 H 15.156 2.69533 -2.84357 0
M  V30 196 H 16.853 2.46695 -3.16137 0
M  V30 197 H 13.443 1.3549 -4.06621 0
M  V30 198 H 17.627 0.828108 -4.89342 0
M  V30 199 H 12.883 0.113961 -6.11294 0
M  V30 200 H 17.057 -0.406186 -6.95214 0
M  V30 201 H 14.684 -0.769217 -7.56298 0
M  V30 202 N 16.2591 1.48442 0.529413 0
M  V30 203 C 17.1891 1.65902 1.64313 0
M  V30 204 C 18.1701 0.507897 1.6234 0
M  V30 205 O 19.3551 0.740503 1.79528 0
M  V30 206 C 16.4851 1.69911 3.02898 0
M  V30 207 C 15.4391 2.8453 3.19729 0
M  V30 208 C 14.7651 2.73629 4.59381 0
M  V30 209 C 16.0651 4.25821 3.02447 0
M  V30 210 H 17.7591 2.5914 1.49955 0
M  V30 211 H 15.3051 1.24709 0.719982 0
M  V30 212 H 17.2581 1.80715 3.80684 0
M  V30 213 H 15.9821 0.732524 3.18279 0
M  V30 214 H 14.6411 2.73283 2.44361 0
M  V30 215 H 14.2891 1.74938 4.71599 0
M  V30 216 H 13.9891 3.50541 4.71588 0
M  V30 217 H 15.5131 2.86401 5.39265 0
M  V30 218 H 16.9271 4.37898 3.70024 0
M  V30 219 H 15.3241 5.03735 3.26146 0
M  V30 220 H 16.3941 4.42244 1.98867 0
M  V30 221 N 17.7372 -0.778329 1.37039 0
M  V30 222 C 19.1482 -1.35421 1.28523 0
M  V30 223 C 19.4992 -1.96075 -0.0700901 0
M  V30 224 O 18.6242 -1.93352 -0.971801 0
M  V30 225 C 19.2192 -2.46211 2.32735 0
M  V30 226 C 17.7782 -2.99585 2.27873 0
M  V30 227 C 16.9252 -1.72748 2.16918 0
M  V30 228 H 19.8762 -0.5791 1.47757 0
M  V30 229 H 19.8972 -3.2552 1.9702 0
M  V30 230 H 19.4092 -2.02036 3.31365 0
M  V30 231 H 17.5102 -3.48152 1.32745 0
M  V30 232 H 17.6232 -3.55646 3.21018 0
M  V30 233 H 15.9872 -1.95416 1.63354 0
M  V30 234 H 16.7702 -1.30686 3.17452 0
M  V30 235 N 19.2153 -1.21501 -1.00376 0
M  V30 236 C 20.4613 -1.04457 -1.74529 0
M  V30 237 C 20.8163 0.417386 -1.87818 0
M  V30 238 O 20.1093 1.30556 -1.40234 0
M  V30 239 C 20.3033 -1.67673 -3.15627 0
M  V30 240 C 20.1323 -3.19865 -3.16096 0
M  V30 241 C 18.9023 -3.88915 -3.22604 0
M  V30 242 C 21.1003 -4.16936 -3.01112 0
M  V30 243 N 19.0823 -5.28284 -3.12712 0
M  V30 244 C 20.4533 -5.43066 -2.99131 0
M  V30 245 C 22.5083 -4.07968 -2.85423 0
M  V30 246 C 21.2113 -6.6126 -2.83068 0
M  V30 247 C 23.2373 -5.258 -2.70718 0
M  V30 248 C 22.5993 -6.50842 -2.69414 0
M  V30 249 H 18.6983 -0.436584 -0.648782 0
M  V30 250 H 21.2823 -1.53875 -1.19293 0
M  V30 251 H 19.4533 -1.20822 -3.6913 0
M  V30 252 H 21.1853 -1.43824 -3.78281 0
M  V30 253 H 17.9403 -3.39847 -3.2985 0
M  V30 254 H 18.3643 -6.01284 -3.11105 0
M  V30 255 H 23.0063 -3.1209 -2.85236 0
M  V30 256 H 20.7243 -7.57298 -2.82002 0
M  V30 257 H 24.3103 -5.20683 -2.59577 0
M  V30 258 H 23.1903 -7.40485 -2.5817 0
M  V30 259 N 20.6934 1.19889 -1.02296 0
M  V30 260 C 21.9334 1.91125 -0.724602 0
M  V30 261 C 22.2974 1.77464 0.732835 0
M  V30 262 O 23.4984 2.43241 1.144 0
M  V30 263 C 21.7694 3.38187 -1.15604 0
M  V30 264 S 23.3284 4.27702 -0.980621 0
M  V30 265 H 20.1464 0.66018 -0.263976 0
M  V30 266 H 22.7484 1.44978 -1.31155 0
M  V30 267 H 21.4524 3.45653 -2.21251 0
M  V30 268 H 20.9834 3.89363 -0.562131 0
M  V30 269 H 22.9984 4.96073 0.112225 0
M  V30 270 N 22.1715 0.800033 1.35784 0
M  V30 271 C 23.4185 0.377342 1.98953 0
M  V30 272 C 23.7465 -1.05378 1.6348 0
M  V30 273 O 23.0015 -1.74459 0.886707 0
M  V30 274 C 23.3005 0.500276 3.53881 0
M  V30 275 C 22.9665 1.89375 4.09204 0
M  V30 276 C 21.6285 2.27499 4.24025 0
M  V30 277 C 23.9805 2.8057 4.39238 0
M  V30 278 C 21.3085 3.562 4.66195 0
M  V30 279 C 23.6605 4.0871 4.82844 0
M  V30 280 C 22.3245 4.46843 4.95871 0
M  V30 281 H 21.5945 0.138079 0.728021 0
M  V30 282 H 24.2415 1.01955 1.62103 0
M  V30 283 H 22.5465 -0.225405 3.91151 0
M  V30 284 H 24.2435 0.154097 4.00704 0
M  V30 285 H 20.8335 1.58753 3.98115 0
M  V30 286 H 25.0175 2.52367 4.27346 0
M  V30 287 H 20.2735 3.85602 4.74469 0
M  V30 288 H 24.4475 4.79481 5.05046 0
M  V30 289 H 22.0745 5.46623 5.28306 0
M  V30 290 N 23.6496 -1.47581 0.552962 0
M  V30 291 C 24.6126 -2.28439 -0.186605 0
M  V30 292 C 25.6126 -1.36706 -0.84665 0
M  V30 293 O 26.8026 -1.59378 -0.703164 0
M  V30 294 C 23.9346 -3.16264 -1.2724 0
M  V30 295 H 25.1276 -2.95294 0.523609 0
M  V30 296 H 22.6806 -1.532 0.309745 0
M  V30 297 H 23.4156 -2.54091 -2.01514 0
M  V30 298 H 23.2006 -3.83769 -0.803968 0
M  V30 299 H 24.6906 -3.77198 -1.79196 0
M  V30 300 N 25.1277 -0.289203 -1.54924 0
M  V30 301 C 26.3737 0.323998 -2.00195 0
M  V30 302 C 26.7067 1.54441 -1.17735 0
M  V30 303 O 25.9817 1.92875 -0.250878 0
M  V30 304 C 26.2647 0.692276 -3.53383 0
M  V30 305 C 26.1177 -0.536457 -4.46589 0
M  V30 306 C 27.4367 1.52335 -4.12895 0
M  V30 307 H 24.5557 0.116289 -0.727768 0
M  V30 308 H 27.1977 -0.398954 -1.85764 0
M  V30 309 H 25.3477 1.30822 -3.65811 0
M  V30 310 H 27.0197 -1.17499 -4.46085 0
M  V30 311 H 25.2627 -1.17192 -4.1767 0
M  V30 312 H 25.9337 -0.234806 -5.515 0
M  V30 313 H 28.4097 1.00302 -4.0383 0
M  V30 314 H 27.2857 1.74982 -5.20262 0
M  V30 315 H 27.5467 2.50886 -3.64018 0
M  V30 316 N 26.6058 1.57591 -0.0167156 0
M  V30 317 C 28.0168 1.79201 0.523834 0
M  V30 318 C 28.3678 0.925796 1.72984 0
M  V30 319 O 27.4928 0.132792 2.15992 0
M  V30 320 C 28.0878 3.25 0.957091 0
M  V30 321 C 26.6468 3.47648 1.44283 0
M  V30 322 C 25.7938 2.74374 0.401757 0
M  V30 323 H 28.7448 1.56831 -0.242816 0
M  V30 324 H 28.7658 3.34031 1.82219 0
M  V30 325 H 28.2778 3.88019 0.0791415 0
M  V30 326 H 26.3788 2.89866 2.34113 0
M  V30 327 H 26.4918 4.56352 1.45877 0
M  V30 328 H 24.8558 2.39485 0.867121 0
M  V30 329 H 25.6388 3.40102 -0.467513 0
M  V30 330 N 28.0839 -0.256276 1.55502 0
M  V30 331 C 29.3299 -0.987079 1.77157 0
M  V30 332 C 29.6629 -1.85327 0.580315 0
M  V30 333 O 28.9379 -1.89874 -0.421686 0
M  V30 334 C 29.2209 -1.85553 3.08613 0
M  V30 335 C 29.0739 -1.01816 4.38125 0
M  V30 336 C 30.3929 -2.8397 3.36228 0
M  V30 337 H 27.5119 -0.357428 0.644526 0
M  V30 338 H 30.1539 -0.258239 1.88237 0
M  V30 339 H 28.3039 -2.47695 2.99298 0
M  V30 340 H 29.9759 -0.416159 4.59419 0
M  V30 341 H 28.2189 -0.322178 4.32602 0
M  V30 342 H 28.8899 -1.65939 5.26468 0
M  V30 343 H 31.3659 -2.31964 3.45445 0
M  V30 344 H 30.2419 -3.41864 4.29442 0
M  V30 345 H 30.5029 -3.59955 2.56681 0
M  V30 346 N 29.562 -1.4872 -0.521534 0
M  V30 347 C 30.973 -1.50607 -1.10337 0
M  V30 348 C 31.324 -0.280612 -1.94183 0
M  V30 349 O 30.449 0.611507 -2.0758 0
M  V30 350 C 31.044 -2.72903 -2.00772 0
M  V30 351 C 29.603 -2.77634 -2.54158 0
M  V30 352 C 28.75 -2.44241 -1.31307 0
M  V30 353 H 31.701 -1.55714 -0.306388 0
M  V30 354 H 31.722 -2.519 -2.85178 0
M  V30 355 H 31.234 -3.62077 -1.39721 0
M  V30 356 H 29.335 -1.92689 -3.18907 0
M  V30 357 H 29.448 -3.79283 -2.92714 0
M  V30 358 H 27.812 -1.95577 -1.63161 0
M  V30 359 H 28.595 -3.35666 -0.719943 0
M  V30 360 N 31.0401 0.771051 -1.3745 0
M  V30 361 C 32.4511 1.34737 -1.29239 0
M  V30 362 C 32.8021 1.96109 0.0596908 0
M  V30 363 O 31.9271 1.93865 0.961534 0
M  V30 364 C 32.5221 2.44973 -2.34037 0
M  V30 365 C 31.0811 2.98372 -2.29458 0
M  V30 366 C 30.2281 1.71595 -2.17831 0
M  V30 367 H 33.1791 0.571256 -1.48062 0
M  V30 368 H 33.2001 3.24471 -1.98744 0
M  V30 369 H 32.7121 2.00276 -3.32432 0
M  V30 370 H 30.8131 3.47443 -1.34589 0
M  V30 371 H 30.9261 3.53939 -3.229 0
M  V30 372 H 29.2901 1.94547 -1.64388 0
M  V30 373 H 30.0731 1.29001 -3.18141 0
M  V30 374 N 32.5182 1.22032 0.997298 0
M  V30 375 C 33.4812 0.987909 2.06816 0
M  V30 376 C 34.4812 -0.0440084 1.6074 0
M  V30 377 O 35.6712 0.194053 1.73116 0
M  V30 378 C 32.8032 0.49132 3.37341 0
M  V30 379 H 33.9962 1.93803 2.28868 0
M  V30 380 H 31.5492 1.03838 1.16822 0
M  V30 381 H 32.2842 -0.463364 3.20973 0
M  V30 382 H 32.0692 1.23575 3.72118 0
M  V30 383 H 33.5592 0.348824 4.16141 0
M  V30 384 N 33.9963 -1.19345 1.0293 0
M  V30 385 C 34.9593 -2.20793 0.615069 0
M  V30 386 C 35.9593 -1.57553 -0.321533 0
M  V30 387 O 37.1493 -1.73862 -0.108483 0
M  V30 388 C 34.2813 -3.40754 -0.0999222 0
M  V30 389 H 35.4743 -2.58955 1.51269 0
M  V30 390 H 33.0273 -1.3303 0.820534 0
M  V30 391 H 33.7623 -3.0811 -1.01187 0
M  V30 392 H 33.5473 -3.87889 0.57309 0
M  V30 393 H 35.0373 -4.15898 -0.376645 0
M  V30 394 N 35.4744 -0.807222 -1.35358 0
M  V30 395 C 36.7514 -0.311126 -1.9311 0
M  V30 396 C 37.1314 1.19937 -1.73719 0
M  V30 397 O 36.4794 1.99918 -1.10657 0
M  V30 398 C 36.6894 -0.723226 -3.41424 0
M  V30 399 C 38.0374 -0.713078 -4.18569 0
M  V30 400 O 39.0614 -0.664811 -3.49941 0
M  V30 401 O 37.9204 -0.772022 -5.41019 0
M  V30 402 H 35.0144 -0.081526 -0.822972 0
M  V30 403 H 37.5604 -0.890962 -1.4443 0
M  V30 404 H 36.3324 -1.76426 -3.4927 0
M  V30 405 H 35.9554 -0.118232 -3.97424 0
M  V30 406 N 36.9525 1.47285 -0.560781 0
M  V30 407 C 37.9025 2.27073 0.205384 0
M  V30 408 C 38.8865 1.34569 0.882044 0
M  V30 409 O 40.0785 1.58899 0.77976 0
M  V30 410 C 37.2075 3.20414 1.23247 0
M  V30 411 C 36.2935 4.20399 0.559041 0
M  V30 412 N 36.6845 5.04423 -0.372927 0
M  V30 413 C 34.9825 4.38536 0.812522 0
M  V30 414 C 35.6835 5.76655 -0.764446 0
M  V30 415 N 34.6595 5.43471 -0.11848 0
M  V30 416 H 38.4615 2.89422 -0.511117 0
M  V30 417 H 35.9755 1.57868 -0.380975 0
M  V30 418 H 37.9725 3.76262 1.79534 0
M  V30 419 H 36.6325 2.59623 1.95002 0
M  V30 420 H 37.6435 5.1248 -0.747287 0
M  V30 421 H 34.3205 3.88913 1.51832 0
M  V30 422 H 35.7105 6.54238 -1.53045 0
M  V30 423 N 38.4306 0.297415 1.54768 0
M  V30 424 C 39.3776 -0.580276 2.23386 0
M  V30 425 C 40.3476 -1.13238 1.21517 0
M  V30 426 O 41.5326 -1.17757 1.50126 0
M  V30 427 C 38.6726 -1.74801 2.97555 0
M  V30 428 C 37.7856 -1.22764 4.1419 0
M  V30 429 C 36.9206 -2.35895 4.75949 0
M  V30 430 C 35.9596 -1.80974 5.84735 0
M  V30 431 N 35.0966 -2.87664 6.40464 0
M  V30 432 H 39.9366 0.0114833 2.97998 0
M  V30 433 H 37.4736 0.0174361 1.4709 0
M  V30 434 H 39.4316 -2.43475 3.38786 0
M  V30 435 H 38.0616 -2.31145 2.25326 0
M  V30 436 H 37.1136 -0.433271 3.77924 0
M  V30 437 H 38.4256 -0.785551 4.92575 0
M  V30 438 H 37.5796 -3.12523 5.20014 0
M  V30 439 H 36.3186 -2.83429 3.96887 0
M  V30 440 H 35.3236 -1.02834 5.40097 0
M  V30 441 H 36.5486 -1.34348 6.65678 0
M  V30 442 H 34.4946 -3.34538 5.64287 0
M  V30 443 H 34.4116 -2.4794 7.14186 0
M  V30 444 H 35.6796 -3.642 6.89187 0
M  V30 445 N 39.9087 -1.5758 0.0250728 0
M  V30 446 C 41.1567 -1.91255 -0.653151 0
M  V30 447 C 41.4777 -0.901691 -1.729 0
M  V30 448 O 40.7477 0.0573785 -1.95816 0
M  V30 449 H 39.3277 -0.705942 -0.244243 0
M  V30 450 H 41.9897 -1.94767 0.0719209 0
M  V30 451 H 41.0857 -2.91752 -1.10847 0
M  V30 452 N 41.3868 0.248026 -1.55636 0
M  V30 453 C 42.6328 0.973427 -1.78594 0
M  V30 454 C 42.9878 1.83007 -0.593823 0
M  V30 455 O 42.2808 1.87097 0.412961 0
M  V30 456 C 42.4748 1.86819 -3.04686 0
M  V30 457 C 42.3038 1.09965 -4.36048 0
M  V30 458 C 41.0738 0.805204 -4.98843 0
M  V30 459 C 43.2718 0.477783 -5.12076 0
M  V30 460 N 41.2538 0.0124859 -6.13899 0
M  V30 461 C 42.6248 -0.179565 -6.1974 0
M  V30 462 C 44.6798 0.388136 -4.96385 0
M  V30 463 C 43.3828 -0.91795 -7.13419 0
M  V30 464 C 45.4088 -0.336716 -5.90441 0
M  V30 465 C 44.7708 -0.982705 -6.97511 0
M  V30 466 H 40.8698 0.337348 -0.705493 0
M  V30 467 H 43.4538 0.24667 -1.93131 0
M  V30 468 H 41.6248 2.56698 -2.9148 0
M  V30 469 H 43.3568 2.52907 -3.15944 0
M  V30 470 H 40.1118 1.11671 -4.60246 0
M  V30 471 H 40.5358 -0.371933 -6.75978 0
M  V30 472 H 45.1778 0.873237 -4.13684 0
M  V30 473 H 42.8958 -1.41466 -7.95621 0
M  V30 474 H 46.4818 -0.406731 -5.80377 0
M  V30 475 H 45.3618 -1.53464 -7.69037 0
M  V30 476 N 42.8649 1.48995 0.513639 0
M  V30 477 C 44.1419 1.48338 1.27495 0
M  V30 478 C 44.5219 0.204065 2.10111 0
M  V30 479 O 43.8699 -0.813881 2.13514 0
M  V30 480 C 44.0799 2.75498 2.14247 0
M  V30 481 C 45.4279 3.24484 2.73852 0
M  V30 482 O 46.4519 2.76528 2.24523 0
M  V30 483 O 45.3109 4.07974 3.6362 0
M  V30 484 H 42.4049 0.593149 0.576284 0
M  V30 485 H 44.9509 1.61246 0.528948 0
M  V30 486 H 43.7229 3.60109 1.53092 0
M  V30 487 H 43.3459 2.6539 2.96064 0
M  V30 488 N 44.343 -0.763751 1.37857 0
M  V30 489 C 45.59 -1.52257 1.33506 0
M  V30 490 C 45.918 -1.94343 -0.078022 0
M  V30 491 O 45.173 -1.64958 -1.05297 0
M  V30 492 C 45.472 -2.79499 2.22745 0
M  V30 493 C 45.138 -2.56426 3.70886 0
M  V30 494 C 43.8 -2.49842 4.11257 0
M  V30 495 C 46.152 -2.36008 4.64704 0
M  V30 496 C 43.48 -2.20841 5.43549 0
M  V30 497 C 45.832 -2.0853 5.97242 0
M  V30 498 C 44.496 -2.00396 6.36709 0
M  V30 499 H 43.766 -0.557149 0.488534 0
M  V30 500 H 46.413 -0.879073 1.70131 0
M  V30 501 H 44.718 -3.48447 1.79142 0
M  V30 502 H 46.415 -3.37413 2.16688 0
M  V30 503 H 43.005 -2.62416 3.38874 0
M  V30 504 H 47.189 -2.40079 4.34368 0
M  V30 505 H 42.445 -2.13045 5.73081 0
M  V30 506 H 46.619 -1.91732 6.69486 0
M  V30 507 H 44.246 -1.77688 7.39142 0
M  V30 508 N 45.8211 -1.22559 -0.990812 0
M  V30 509 C 47.0671 -1.05297 -1.73322 0
M  V30 510 C 47.4001 0.410655 -1.89808 0
M  V30 511 O 46.6751 1.30439 -1.44277 0
M  V30 512 C 46.9581 -1.76713 -3.13759 0
M  V30 513 C 46.8111 -3.30684 -3.04907 0
M  V30 514 C 48.1301 -1.52121 -4.12974 0
M  V30 515 H 45.2491 -0.38392 -0.629106 0
M  V30 516 H 47.8911 -1.50926 -1.15418 0
M  V30 517 H 46.0411 -1.37924 -3.63193 0
M  V30 518 H 47.7131 -3.7893 -2.63077 0
M  V30 519 H 45.9561 -3.60253 -2.41661 0
M  V30 520 H 46.6271 -3.75833 -4.04294 0
M  V30 521 H 49.1031 -1.85819 -3.72304 0
M  V30 522 H 47.9791 -2.04582 -5.0935 0
M  V30 523 H 48.2401 -0.454257 -4.3976 0
M  V30 524 N 47.2992 1.18797 -1.03562 0
M  V30 525 C 48.2092 2.25913 -0.632505 0
M  V30 526 C 49.2252 1.70668 0.338882 0
M  V30 527 O 50.4012 2.00453 0.195076 0
M  V30 528 C 47.4662 3.467 0.00350942 0
M  V30 529 C 46.5272 4.17098 -1.01624 0
M  V30 530 C 45.7602 5.32119 -0.410478 0
M  V30 531 O 45.9832 5.64976 0.784725 0
M  V30 532 O 44.9172 5.9107 -1.13667 0
M  V30 533 H 48.7432 2.62648 -1.52478 0
M  V30 534 H 46.3282 1.25781 -0.806195 0
M  V30 535 H 48.2102 4.19878 0.35781 0
M  V30 536 H 46.8852 3.11798 0.869686 0
M  V30 537 H 45.7922 3.4601 -1.42224 0
M  V30 538 H 47.1252 4.55987 -1.85301 0
M  V30 539 N 48.7773 0.814389 1.34928 0
M  V30 540 C 50.0253 0.397636 1.9815 0
M  V30 541 C 50.3463 -1.04069 1.64908 0
M  V30 542 O 49.6163 -1.72121 0.93548 0
M  V30 543 H 48.1963 0.144043 0.732981 0
M  V30 544 H 50.8583 1.04195 1.6471 0
M  V30 545 H 49.9543 0.509688 3.0791 0
M  V30 546 N 50.2554 -1.46986 0.568584 0
M  V30 547 C 51.4854 -2.0653 0.0539173 0
M  V30 548 C 51.8934 -1.42004 -1.25026 0
M  V30 549 O 51.2364 -0.514541 -1.76347 0
M  V30 550 C 51.2984 -3.58938 -0.200854 0
M  V30 551 C 50.9624 -4.45572 1.01559 0
M  V30 552 C 51.9594 -4.82986 1.92407 0
M  V30 553 C 49.6444 -4.8692 1.23346 0
M  V30 554 C 51.6384 -5.60559 3.03402 0
M  V30 555 C 49.3254 -5.64255 2.34649 0
M  V30 556 C 50.3234 -6.00986 3.24507 0
M  V30 557 O 50.0114 -6.76761 4.33878 0
M  V30 558 H 49.7434 -0.674292 0.0480234 0
M  V30 559 H 52.2974 -1.89812 0.784896 0
M  V30 560 H 50.5274 -3.73911 -0.986279 0
M  V30 561 H 52.2164 -4.0046 -0.662294 0
M  V30 562 H 52.9824 -4.51633 1.76785 0
M  V30 563 H 48.8614 -4.57789 0.543178 0
M  V30 564 H 52.4054 -5.89147 3.73565 0
M  V30 565 H 48.3024 -5.95021 2.5024 0
M  V30 566 H 49.0704 -6.95168 4.32068 0
M  V30 567 N 51.7335 -0.305618 -1.54608 0
M  V30 568 C 52.9805 0.302298 -2.00231 0
M  V30 569 C 53.3085 1.5354 -1.19398 0
M  V30 570 O 52.5635 1.93973 -0.259423 0
M  V30 571 C 52.8625 0.698983 -3.50498 0
M  V30 572 C 52.5285 -0.432903 -4.48817 0
M  V30 573 C 51.1905 -0.743622 -4.75419 0
M  V30 574 C 53.5425 -1.19409 -5.07337 0
M  V30 575 C 50.8705 -1.81857 -5.57804 0
M  V30 576 C 53.2225 -2.25899 -5.90891 0
M  V30 577 C 51.8865 -2.57572 -6.15803 0
M  V30 578 H 51.1565 0.110619 -0.732697 0
M  V30 579 H 53.8035 -0.425674 -1.86709 0
M  V30 580 H 52.1085 1.50711 -3.61654 0
M  V30 581 H 53.8055 1.1806 -3.83227 0
M  V30 582 H 50.3955 -0.18063 -4.28219 0
M  V30 583 H 54.5795 -0.967295 -4.86782 0
M  V30 584 H 49.8355 -2.06864 -5.75341 0
M  V30 585 H 54.0095 -2.85335 -6.35261 0
M  V30 586 H 51.6365 -3.40998 -6.7943 0
M  V30 587 N 53.2116 1.57565 -0.0334293 0
M  V30 588 C 54.1616 2.06978 0.956237 0
M  V30 589 C 55.1456 0.971193 1.28283 0
M  V30 590 O 56.3376 1.23471 1.26822 0
M  V30 591 C 53.4666 2.60393 2.23719 0
M  V30 592 C 52.5526 3.7719 1.93877 0
M  V30 593 N 52.9436 4.87639 1.34321 0
M  V30 594 C 51.2416 3.85758 2.23845 0
M  V30 595 C 51.9426 5.68825 1.21709 0
M  V30 596 N 50.9186 5.1587 1.71404 0
M  V30 597 H 54.7206 2.89773 0.490815 0
M  V30 598 H 52.2346 1.61492 0.171478 0
M  V30 599 H 54.2316 2.94088 2.95496 0
M  V30 600 H 52.8916 1.79031 2.70884 0
M  V30 601 H 53.9026 5.07803 1.01767 0
M  V30 602 H 50.5796 3.1531 2.73653 0
M  V30 603 H 51.9696 6.67631 0.75621 0
M  V30 604 N 54.6897 -0.239769 1.55765 0
M  V30 605 C 55.6217 -1.32001 1.87372 0
M  V30 606 C 56.6347 -1.43944 0.760522 0
M  V30 607 O 57.8237 -1.45167 1.0387 0
M  V30 608 C 54.9237 -2.69779 2.05115 0
M  V30 609 C 54.0967 -2.80014 3.36022 0
M  V30 610 C 53.1557 -3.98684 3.4342 0
M  V30 611 O 52.1817 -3.87877 4.16582 0
M  V30 612 N 53.3837 -5.12176 2.73232 0
M  V30 613 H 56.1487 -1.0522 2.80622 0
M  V30 614 H 53.7097 -0.429857 1.56089 0
M  V30 615 H 55.7017 -3.47517 2.07399 0
M  V30 616 H 54.2717 -2.89237 1.18577 0
M  V30 617 H 53.4917 -1.88896 3.45994 0
M  V30 618 H 54.7797 -2.83808 4.22292 0
M  V30 619 H 54.1777 -5.2385 2.13536 0
M  V30 620 H 52.7347 -5.88022 2.81199 0
M  V30 621 N 56.1678 -1.49265 -0.50573 0
M  V30 622 C 57.4148 -1.58513 -1.26015 0
M  V30 623 C 57.7428 -0.26972 -1.92621 0
M  V30 624 O 56.9978 0.741997 -1.81088 0
M  V30 625 C 57.2968 -2.69008 -2.35308 0
M  V30 626 C 56.9628 -4.10662 -1.86192 0
M  V30 627 C 55.6248 -4.49212 -1.72516 0
M  V30 628 C 57.9768 -4.99336 -1.49375 0
M  V30 629 C 55.3048 -5.74214 -1.20394 0
M  V30 630 C 57.6568 -6.24852 -0.987072 0
M  V30 631 C 56.3208 -6.62236 -0.836669 0
M  V30 632 H 55.5908 -0.580041 -0.461122 0
M  V30 633 H 58.2378 -1.83078 -0.561665 0
M  V30 634 H 56.5428 -2.38396 -3.10926 0
M  V30 635 H 58.2398 -2.73373 -2.93374 0
M  V30 636 H 54.8298 -3.8023 -1.97795 0
M  V30 637 H 59.0138 -4.70212 -1.5879 0
M  V30 638 H 54.2698 -6.01883 -1.07458 0
M  V30 639 H 58.4438 -6.92944 -0.692983 0
M  V30 640 H 56.0708 -7.58979 -0.430607 0
M  V30 641 N 57.6459 0.756429 -1.3826 0
M  V30 642 C 58.8929 1.51547 -1.34312 0
M  V30 643 C 59.2209 1.94382 0.0677144 0
M  V30 644 O 58.4759 1.65514 1.04421 0
M  V30 645 C 58.7749 2.78313 -2.24224 0
M  V30 646 C 58.4409 2.54455 -3.72241 0
M  V30 647 C 57.1029 2.47657 -4.12576 0
M  V30 648 C 59.4549 2.3354 -4.65949 0
M  V30 649 C 56.7829 2.17956 -5.44713 0
M  V30 650 C 59.1349 2.05359 -5.9834 0
M  V30 651 C 57.7989 1.97016 -6.37762 0
M  V30 652 H 57.0689 0.55455 -0.491482 0
M  V30 653 H 59.7159 0.870039 -1.70595 0
M  V30 654 H 58.0209 3.47492 -1.80987 0
M  V30 655 H 59.7179 3.36259 -2.18474 0
M  V30 656 H 56.3079 2.60616 -3.40261 0
M  V30 657 H 60.4919 2.37772 -4.35635 0
M  V30 658 H 55.7479 2.10003 -5.74203 0
M  V30 659 H 59.9219 1.88179 -6.70494 0
M  V30 660 H 57.5489 1.73766 -7.40074 0
M  V30 661 N 59.124 1.23083 0.984299 0
M  V30 662 C 60.054 1.03292 2.09411 0
M  V30 663 C 61.035 -0.048923 1.7003 0
M  V30 664 O 62.22 0.114967 1.93859 0
M  V30 665 C 59.35 0.619155 3.41736 0
M  V30 666 C 58.304 1.64791 3.95004 0
M  V30 667 C 57.63 1.0897 5.23478 0
M  V30 668 C 58.93 3.03999 4.24714 0
M  V30 669 H 60.624 1.96119 2.26225 0
M  V30 670 H 58.17 0.944344 1.08711 0
M  V30 671 H 60.123 0.467777 4.18796 0
M  V30 672 H 58.847 -0.344786 3.24775 0
M  V30 673 H 57.506 1.78721 3.20085 0
M  V30 674 H 57.154 0.11686 5.02864 0
M  V30 675 H 56.854 1.77704 5.60085 0
M  V30 676 H 58.378 0.950093 6.03163 0
M  V30 677 H 59.792 2.93393 4.92538 0
M  V30 678 H 58.189 3.69936 4.72512 0
M  V30 679 H 59.259 3.53285 3.32142 0
M  V30 680 N 60.6021 -1.18246 1.0419 0
M  V30 681 C 61.8301 -1.92195 0.766072 0
M  V30 682 C 62.2451 -1.76247 -0.676933 0
M  V30 683 O 61.6021 -1.09293 -1.46155 0
M  V30 684 C 61.6531 -3.43568 1.12442 0
M  V30 685 O 61.3741 -3.59015 2.51078 0
M  V30 686 C 62.8751 -4.34613 0.873275 0
M  V30 687 H 60.0951 -0.610114 0.279288 0
M  V30 688 H 62.6391 -1.50007 1.38989 0
M  V30 689 H 60.7941 -3.8354 0.545542 0
M  V30 690 H 61.2081 -4.5273 2.64831 0
M  V30 691 H 62.6821 -5.39374 1.17385 0
M  V30 692 H 63.1591 -4.38781 -0.191909 0
M  V30 693 H 63.7651 -4.00341 1.43551 0
M  V30 694 N 62.0802 -0.821533 -1.34494 0
M  V30 695 C 63.0272 -0.240397 -2.29545 0
M  V30 696 C 63.9972 0.634031 -1.53523 0
M  V30 697 O 65.1822 0.575966 -1.81899 0
M  V30 698 C 62.3222 0.592869 -3.39969 0
M  V30 699 C 61.4352 -0.30365 -4.30932 0
M  V30 700 C 60.5702 0.539049 -5.28458 0
M  V30 701 C 59.6092 -0.356942 -6.11058 0
M  V30 702 N 58.7462 0.446603 -7.00678 0
M  V30 703 H 63.5862 -1.05632 -2.7865 0
M  V30 704 H 61.1232 -0.532413 -1.37127 0
M  V30 705 H 63.0812 1.09129 -4.02675 0
M  V30 706 H 61.7112 1.37392 -2.92102 0
M  V30 707 H 60.7632 -0.920276 -3.691 0
M  V30 708 H 62.0752 -0.992661 -4.88823 0
M  V30 709 H 61.2292 1.102 -5.96608 0
M  V30 710 H 59.9682 1.26157 -4.71101 0
M  V30 711 H 58.9732 -0.932047 -5.41842 0
M  V30 712 H 60.1982 -1.07755 -6.70497 0
M  V30 713 H 58.1442 1.15282 -6.45791 0
M  V30 714 H 58.0612 -0.184048 -7.55776 0
M  V30 715 H 59.3292 0.992352 -7.73158 0
M  V30 716 N 63.5583 1.46682 -0.576371 0
M  V30 717 C 64.5053 2.30241 0.160499 0
M  V30 718 C 65.4753 1.40233 0.890162 0
M  V30 719 O 66.6603 1.69186 0.882084 0
M  V30 720 C 63.8003 3.24578 1.1723 0
M  V30 721 C 62.9133 4.29684 0.446736 0
M  V30 722 C 62.0483 5.11154 1.44551 0
M  V30 723 C 61.0873 6.08015 0.70599 0
M  V30 724 N 60.2243 6.82376 1.65251 0
M  V30 725 H 65.0643 2.92727 -0.558127 0
M  V30 726 H 62.6013 1.44272 -0.287056 0
M  V30 727 H 64.5593 3.77711 1.77172 0
M  V30 728 H 63.1893 2.63916 1.85872 0
M  V30 729 H 62.2413 3.79458 -0.267594 0
M  V30 730 H 63.5533 4.98626 -0.131686 0
M  V30 731 H 62.7073 5.68533 2.11791 0
M  V30 732 H 61.4463 4.42158 2.05786 0
M  V30 733 H 60.4513 5.49796 0.0197725 0
M  V30 734 H 61.6763 6.79028 0.09912 0
M  V30 735 H 59.6223 6.16094 2.25308 0
M  V30 736 H 59.5393 7.47556 1.12673 0
M  V30 737 H 60.8073 7.44316 2.31546 0
M  V30 738 N 65.0364 0.313813 1.54444 0
M  V30 739 C 65.9464 -0.565714 2.27677 0
M  V30 740 C 66.9624 -1.13754 1.31666 0
M  V30 741 O 68.1384 -1.15959 1.64668 0
M  V30 742 C 65.2034 -1.71528 3.01296 0
M  V30 743 C 64.2644 -1.17624 4.12872 0
M  V30 744 C 63.4974 -2.27102 4.8297 0
M  V30 745 O 63.7204 -3.47256 4.52514 0
M  V30 746 O 62.6544 -1.9307 5.70094 0
M  V30 747 H 66.4804 0.0287296 3.03686 0
M  V30 748 H 64.0654 0.0798312 1.49187 0
M  V30 749 H 65.9474 -2.38476 3.4743 0
M  V30 750 H 64.6224 -2.29608 2.2817 0
M  V30 751 H 63.5294 -0.472124 3.71109 0
M  V30 752 H 64.8624 -0.640695 4.88012 0
M  V30 753 N 66.5145 -1.57545 0.0417849 0
M  V30 754 C 67.7395 -1.97035 -0.647455 0
M  V30 755 C 68.1645 -0.918775 -1.64135 0
M  V30 756 O 67.5225 0.119006 -1.80909 0
M  V30 757 C 67.5705 -3.35609 -1.31905 0
M  V30 758 O 66.6745 -3.3287 -2.43457 0
M  V30 759 H 66.0155 -0.64211 -0.169086 0
M  V30 760 H 68.5455 -2.04318 0.107399 0
M  V30 761 H 68.5555 -3.72126 -1.67291 0
M  V30 762 H 67.2305 -4.11685 -0.590586 0
M  V30 763 H 65.8075 -3.08087 -2.10088 0
M  V30 764 N 67.9926 0.231505 -1.5589 0
M  V30 765 C 69.4036 0.799327 -1.68724 0
M  V30 766 C 69.7546 1.85398 -0.642022 0
M  V30 767 O 68.8796 2.1539 0.208784 0
M  V30 768 C 69.4746 1.45664 -3.05888 0
M  V30 769 C 68.0336 1.97197 -3.20609 0
M  V30 770 C 67.1806 0.828552 -2.64632 0
M  V30 771 H 70.1316 0.00702616 -1.58698 0
M  V30 772 H 70.1526 2.32517 -3.01191 0
M  V30 773 H 69.6646 0.688808 -3.81939 0
M  V30 774 H 67.7656 2.76813 -2.4941 0
M  V30 775 H 67.8786 2.15878 -4.27707 0
M  V30 776 H 66.2426 1.23321 -2.22854 0
M  V30 777 H 67.0256 0.0735544 -3.43221 0
M  V30 778 N 69.4707 1.49531 0.497807 0
M  V30 779 C 70.4007 1.6935 1.60757 0
M  V30 780 C 71.3817 0.542218 1.61227 0
M  V30 781 O 72.5667 0.778417 1.77917 0
M  V30 782 C 69.6967 1.76298 2.99226 0
M  V30 783 C 68.6507 2.91248 3.13622 0
M  V30 784 C 67.9767 2.83312 4.53474 0
M  V30 785 C 69.2767 4.3214 2.93346 0
M  V30 786 H 70.9707 2.62263 1.44425 0
M  V30 787 H 68.5167 1.26208 0.693367 0
M  V30 788 H 70.4697 1.88749 3.76765 0
M  V30 789 H 69.1937 0.799871 3.16654 0
M  V30 790 H 67.8527 2.78404 2.38509 0
M  V30 791 H 67.5007 1.84902 4.67782 0
M  V30 792 H 67.2007 3.60465 4.64046 0
M  V30 793 H 68.7247 2.97775 5.33069 0
M  V30 794 H 70.1387 4.45649 3.60652 0
M  V30 795 H 68.5357 5.1054 3.15387 0
M  V30 796 H 69.6057 4.46363 1.89441 0
M  V30 797 N 70.9488 -0.749086 1.3866 0
M  V30 798 C 71.8788 -1.8764 1.38973 0
M  V30 799 C 72.8598 -1.68178 0.255004 0
M  V30 800 O 74.0448 -1.88704 0.458754 0
M  V30 801 C 71.1748 -3.25222 1.21851 0
M  V30 802 C 70.1288 -3.59295 2.32575 0
M  V30 803 C 69.4548 -4.95663 2.00555 0
M  V30 804 C 70.7548 -3.63709 3.7485 0
M  V30 805 H 72.4488 -1.87635 2.3331 0
M  V30 806 H 69.9948 -0.901329 1.12303 0
M  V30 807 H 71.9478 -4.03746 1.20695 0
M  V30 808 H 70.6718 -3.25719 0.239775 0
M  V30 809 H 69.3308 -2.83093 2.32925 0
M  V30 810 H 68.9788 -4.92724 1.01154 0
M  V30 811 H 68.6788 -5.19429 2.74714 0
M  V30 812 H 70.2028 -5.7656 2.01024 0
M  V30 813 H 71.6168 -4.32338 3.76506 0
M  V30 814 H 70.0138 -3.98986 4.48252 0
M  V30 815 H 71.0838 -2.63834 4.06841 0
M  V30 816 N 72.4269 -1.23603 -0.977757 0
M  V30 817 C 73.6549 -1.09646 -1.75458 0
M  V30 818 C 74.0699 0.351859 -1.85492 0
M  V30 819 O 73.4269 1.24327 -1.336 0
M  V30 820 C 73.4779 -1.71895 -3.18016 0
M  V30 821 O 73.1989 -3.11063 -3.08498 0
M  V30 822 C 74.6999 -1.63415 -4.12081 0
M  V30 823 H 71.9199 -0.38359 -0.550545 0
M  V30 824 H 74.4639 -1.63507 -1.22824 0
M  V30 825 H 72.6189 -1.22061 -3.67668 0
M  V30 826 H 73.0329 -3.41305 -3.9826 0
M  V30 827 H 74.5069 -2.11669 -5.09804 0
M  V30 828 H 74.9839 -0.593462 -4.35172 0
M  V30 829 H 75.5899 -2.12628 -3.68334 0
M  V30 830 N 73.905 1.17692 -1.04816 0
M  V30 831 C 74.837 2.21103 -0.603822 0
M  V30 832 C 75.85 1.59411 0.33046 0
M  V30 833 O 77.039 1.7807 0.12379 0
M  V30 834 C 74.139 3.38623 0.136898 0
M  V30 835 C 73.312 4.29888 -0.807137 0
M  V30 836 C 72.371 5.26088 -0.10836 0
M  V30 837 O 71.397 5.64353 -0.741232 0
M  V30 838 N 72.599 5.68882 1.15558 0
M  V30 839 H 75.364 2.59848 -1.49329 0
M  V30 840 H 72.925 1.32553 -0.929587 0
M  V30 841 H 74.917 4.00009 0.614401 0
M  V30 842 H 73.487 2.98508 0.927993 0
M  V30 843 H 72.707 3.65993 -1.46434 0
M  V30 844 H 73.995 4.87759 -1.44807 0
M  V30 845 H 73.393 5.39861 1.69015 0
M  V30 846 H 71.95 6.32429 1.57722 0
M  V30 847 N 75.3831 0.828654 1.34056 0
M  V30 848 C 76.2931 0.256725 2.33191 0
M  V30 849 C 77.3091 -0.611898 1.62886 0
M  V30 850 O 78.4851 -0.51844 1.94613 0
M  V30 851 C 75.5501 -0.567238 3.42028 0
M  V30 852 C 74.6111 0.324458 4.28072 0
M  V30 853 C 73.8441 -0.460274 5.31712 0
M  V30 854 O 74.0671 -1.693 5.44696 0
M  V30 855 O 73.0011 0.160391 6.01686 0
M  V30 856 H 76.8271 1.07739 2.83947 0
M  V30 857 H 74.4121 0.59093 1.37217 0
M  V30 858 H 76.2941 -1.03582 4.08471 0
M  V30 859 H 74.9691 -1.36513 2.93506 0
M  V30 860 H 73.8761 0.840659 3.64532 0
M  V30 861 H 75.2091 1.08685 4.8005 0
M  V30 862 N 76.8612 -1.46375 0.584142 0
M  V30 863 C 78.0892 -2.06761 0.0759296 0
M  V30 864 C 78.5042 -1.43266 -1.22965 0
M  V30 865 O 77.8612 -0.538458 -1.74376 0
M  V30 866 C 77.9122 -3.61375 -0.0950384 0
M  V30 867 O 77.6332 -4.22495 1.15887 0
M  V30 868 C 79.1342 -4.38693 -0.637434 0
M  V30 869 H 76.3542 -0.668479 0.0581075 0
M  V30 870 H 78.8982 -1.8798 0.805218 0
M  V30 871 H 77.0532 -3.79578 -0.774554 0
M  V30 872 H 77.4672 -5.15385 0.973598 0
M  V30 873 H 78.9412 -5.47464 -0.706237 0
M  V30 874 H 79.4182 -4.06836 -1.65472 0
M  V30 875 H 80.0242 -4.25299 0.00725967 0
M  V30 876 N 78.3393 -0.321999 -1.54275 0
M  V30 877 C 79.2713 0.578671 -2.21775 0
M  V30 878 C 80.2843 1.08109 -1.21722 0
M  V30 879 O 81.4733 0.994938 -1.482 0
M  V30 880 C 78.5733 1.80661 -2.86731 0
M  V30 881 C 77.7463 1.44314 -4.12907 0
M  V30 882 C 76.8053 2.52845 -4.61472 0
M  V30 883 O 75.8313 2.17054 -5.2619 0
M  V30 884 N 77.0333 3.83748 -4.35566 0
M  V30 885 H 79.7983 0.000709447 -2.997 0
M  V30 886 H 77.3593 -0.145132 -1.61248 0
M  V30 887 H 79.3513 2.52655 -3.16145 0
M  V30 888 H 77.9213 2.29245 -2.12521 0
M  V30 889 H 77.1413 0.554906 -3.90275 0
M  V30 890 H 78.4293 1.17598 -4.95023 0
M  V30 891 H 77.8273 4.15625 -3.83761 0
M  V30 892 H 76.3843 4.51977 -4.69638 0
M  V30 893 N 79.8174 1.5752 -0.0501392 0
M  V30 894 C 81.0454 1.96963 0.633492 0
M  V30 895 C 81.4604 0.927631 1.6444 0
M  V30 896 O 80.8174 -0.0882665 1.82286 0
M  V30 897 C 80.8684 3.36487 1.32132 0
M  V30 898 O 80.5894 4.36693 0.350894 0
M  V30 899 C 82.0904 3.90682 2.09481 0
M  V30 900 H 79.3104 0.648244 0.173266 0
M  V30 901 H 81.8544 2.0417 -0.116134 0
M  V30 902 H 80.0094 3.30434 2.02218 0
M  V30 903 H 80.4234 5.17702 0.841735 0
M  V30 904 H 81.8974 4.90591 2.5303 0
M  V30 905 H 82.3744 3.26053 2.94255 0
M  V30 906 H 82.9804 4.00069 1.44307 0
M  V30 907 N 81.2955 -0.223234 1.56011 0
M  V30 908 C 82.2275 -1.30006 1.88762 0
M  V30 909 C 83.2405 -1.43129 0.775746 0
M  V30 910 O 84.4295 -1.44057 1.05403 0
M  V30 911 C 81.5295 -2.67589 2.07965 0
M  V30 912 C 80.7025 -2.76434 3.38973 0
M  V30 913 C 79.7615 -3.95019 3.47629 0
M  V30 914 O 78.7875 -3.83436 4.20672 0
M  V30 915 N 79.9895 -5.09249 2.78649 0
M  V30 916 H 82.7545 -1.02238 2.81722 0
M  V30 917 H 80.3155 -0.413278 1.56536 0
M  V30 918 H 82.3075 -3.45297 2.11073 0
M  V30 919 H 80.8775 -2.87964 1.21638 0
M  V30 920 H 80.0975 -1.85216 3.47978 0
M  V30 921 H 81.3855 -2.79313 4.25278 0
M  V30 922 H 80.7835 -5.21556 2.19081 0
M  V30 923 H 79.3405 -5.85007 2.8742 0
M  V30 924 N 82.7736 -1.49793 -0.48987 0
M  V30 925 C 83.7036 -1.70201 -1.59856 0
M  V30 926 C 84.6846 -0.55076 -1.60937 0
M  V30 927 O 85.8696 -0.787841 -1.77501 0
M  V30 928 C 82.9996 -1.77882 -2.98287 0
M  V30 929 C 81.9536 -2.92907 -3.12073 0
M  V30 930 C 81.2796 -2.85712 -4.51965 0
M  V30 931 C 82.5796 -4.3369 -2.91051 0
M  V30 932 H 84.2736 -2.63025 -1.43032 0
M  V30 933 H 81.8196 -1.26574 -0.686664 0
M  V30 934 H 83.7726 -1.90744 -3.75759 0
M  V30 935 H 82.4966 -0.816653 -3.16225 0
M  V30 936 H 81.1556 -2.79665 -2.37029 0
M  V30 937 H 80.8036 -1.8738 -4.66795 0
M  V30 938 H 80.5036 -3.62921 -4.62128 0
M  V30 939 H 82.0276 -3.00598 -5.31482 0
M  V30 940 H 83.4416 -4.47555 -3.58284 0
M  V30 941 H 81.8386 -5.12205 -3.12675 0
M  V30 942 H 82.9086 -4.47362 -1.87071 0
M  V30 943 N 84.2517 0.741722 -1.39055 0
M  V30 944 C 85.1817 1.869 -1.39966 0
M  V30 945 C 86.1627 1.6804 -0.26392 0
M  V30 946 O 87.3477 1.88458 -0.468755 0
M  V30 947 C 84.4777 3.24572 -1.23574 0
M  V30 948 C 83.4317 3.58056 -2.34477 0
M  V30 949 C 82.7577 4.94593 -2.0318 0
M  V30 950 C 84.0577 3.61716 -3.76774 0
M  V30 951 H 85.7517 1.86395 -2.34302 0
M  V30 952 H 83.2977 0.895361 -1.1278 0
M  V30 953 H 85.2507 4.031 -1.22834 0
M  V30 954 H 83.9747 3.25587 -0.257045 0
M  V30 955 H 82.6337 2.81854 -2.34423 0
M  V30 956 H 82.2817 4.92181 -1.03765 0
M  V30 957 H 81.9817 5.17964 -2.77465 0
M  V30 958 H 83.5057 5.75486 -2.04079 0
M  V30 959 H 84.9197 4.30335 -3.78794 0
M  V30 960 H 83.3167 3.96603 -4.50362 0
M  V30 961 H 84.3867 2.61672 -4.08235 0
M  V30 962 N 85.7298 1.2412 0.971189 0
M  V30 963 C 86.6618 0.988349 2.06795 0
M  V30 964 C 87.6748 -0.0409541 1.62748 0
M  V30 965 O 88.8638 0.195673 1.77424 0
M  V30 966 C 85.9638 0.469023 3.35639 0
M  V30 967 C 85.1368 1.56065 4.08611 0
M  V30 968 C 84.1958 1.04458 5.15728 0
M  V30 969 O 83.2218 1.73553 5.42096 0
M  V30 970 N 84.4238 -0.122817 5.8037 0
M  V30 971 H 87.1888 1.93265 2.29061 0
M  V30 972 H 84.7498 1.15102 1.13856 0
M  V30 973 H 86.7418 0.108613 4.04554 0
M  V30 974 H 85.3118 -0.380919 3.1027 0
M  V30 975 H 84.5318 2.09341 3.34021 0
M  V30 976 H 85.8198 2.29449 4.54126 0
M  V30 977 H 85.2178 -0.700563 5.61345 0
M  V30 978 H 83.7748 -0.424404 6.50417 0
M  V30 979 N 87.2079 -1.17134 1.05439 0
M  V30 980 C 88.1399 -2.2078 0.615539 0
M  V30 981 C 89.1529 -1.59584 -0.322001 0
M  V30 982 O 90.3419 -1.78133 -0.114344 0
M  V30 983 C 87.4419 -3.38691 -0.118938 0
M  V30 984 C 86.6149 -4.29454 0.829924 0
M  V30 985 C 85.6739 -5.26024 0.136258 0
M  V30 986 O 84.6999 -5.63952 0.77115 0
M  V30 987 N 85.9019 -5.69487 -1.1254 0
M  V30 988 H 88.6669 -2.59052 1.50705 0
M  V30 989 H 86.2279 -1.32058 0.936603 0
M  V30 990 H 88.2199 -4.00329 -0.593179 0
M  V30 991 H 86.7899 -2.98996 -0.91215 0
M  V30 992 H 86.0099 -3.65211 1.48373 0
M  V30 993 H 87.2979 -4.86984 1.47392 0
M  V30 994 H 86.6959 -5.4075 -1.6615 0
M  V30 995 H 85.2529 -6.33257 -1.54366 0
M  V30 996 N 88.686 -0.835752 -1.33615 0
M  V30 997 C 89.933 -0.429959 -1.97883 0
M  V30 998 C 90.261 1.01006 -1.66217 0
M  V30 999 O 89.516 1.72047 -0.93265 0
M  V30 1000 C 89.815 -0.593925 -3.52431 0
M  V30 1001 C 89.481 -2.00158 -4.04039 0
M  V30 1002 C 88.143 -2.38662 -4.17844 0
M  V30 1003 C 90.495 -2.92117 -4.31644 0
M  V30 1004 C 87.823 -3.68435 -4.56588 0
M  V30 1005 C 90.175 -4.21368 -4.71838 0
M  V30 1006 C 88.839 -4.59833 -4.83849 0
M  V30 1007 H 88.109 -0.157333 -0.724104 0
M  V30 1008 H 90.756 -1.06217 -1.59343 0
M  V30 1009 H 89.061 0.121619 -3.91611 0
M  V30 1010 H 90.758 -0.260282 -4.00154 0
M  V30 1011 H 87.348 -1.69252 -3.93766 0
M  V30 1012 H 91.532 -2.63608 -4.20505 0
M  V30 1013 H 86.788 -3.98046 -4.64079 0
M  V30 1014 H 90.962 -4.92703 -4.92155 0
M  V30 1015 H 88.589 -5.60438 -5.13627 0
M  V30 1016 N 90.1641 1.46063 -0.591896 0
M  V30 1017 C 91.1141 2.27458 0.157172 0
M  V30 1018 C 92.0981 1.3641 0.853301 0
M  V30 1019 O 93.2901 1.60517 0.74588 0
M  V30 1020 C 90.4191 3.22956 1.16423 0
M  V30 1021 C 89.5051 4.2149 0.469742 0
M  V30 1022 N 89.8961 5.03519 -0.479839 0
M  V30 1023 C 88.1941 4.40161 0.719319 0
M  V30 1024 C 88.8951 5.74904 -0.886591 0
M  V30 1025 N 87.8711 5.43097 -0.233731 0
M  V30 1026 H 91.6731 2.88272 -0.572392 0
M  V30 1027 H 89.1871 1.57024 -0.414375 0
M  V30 1028 H 91.1841 3.79986 1.71513 0
M  V30 1029 H 89.8441 2.63701 1.89451 0
M  V30 1030 H 90.8551 5.1078 -0.855823 0
M  V30 1031 H 87.5321 3.92046 1.43548 0
M  V30 1032 H 88.9221 6.50844 -1.66888 0
M  V30 1033 N 91.6422 0.330177 1.54103 0
M  V30 1034 C 93.0582 -0.0222371 1.59585 0
M  V30 1035 C 93.2582 -1.49902 1.34654 0
M  V30 1036 O 92.3142 -2.25592 1.13421 0
M  V30 1037 C 93.6272 0.401932 2.98002 0
M  V30 1038 C 95.1752 0.353145 3.11001 0
M  V30 1039 C 95.6502 0.752576 4.51775 0
M  V30 1040 N 97.1412 0.706239 4.57784 0
M  V30 1041 C 97.8762 0.987417 5.64834 0
M  V30 1042 N 97.3722 1.33607 6.79795 0
M  V30 1043 N 99.1652 0.91254 5.54643 0
M  V30 1044 H 91.3162 1.29228 1.68564 0
M  V30 1045 H 93.5792 0.525906 0.78875 0
M  V30 1046 H 93.2852 1.4311 3.21267 0
M  V30 1047 H 93.1592 -0.229699 3.765 0
M  V30 1048 H 95.5462 -0.666822 2.87467 0
M  V30 1049 H 95.6272 1.0198 2.34593 0
M  V30 1050 H 95.2712 1.77049 4.76042 0
M  V30 1051 H 95.2012 0.0635409 5.26562 0
M  V30 1052 H 97.6922 0.44889 3.75224 0
M  V30 1053 H 98.0052 1.53582 7.57385 0
M  V30 1054 H 96.3502 1.37439 6.81275 0
M  V30 1055 H 99.5412 0.639601 4.6371 0
M  V30 1056 H 99.7142 1.13503 6.37982 0
M  V30 1057 N 93.1203 -1.57491 0.0584922 0
M  V30 1058 C 94.0683 -2.13148 -0.931168 0
M  V30 1059 C 95.0623 -1.06507 -1.31729 0
M  V30 1060 O 96.2683 -1.24906 -1.29609 0
M  V30 1061 H 92.6433 -0.68137 -0.31818 0
M  V30 1062 H 94.6143 -2.95187 -0.436707 0
M  V30 1063 C 93.3633 -2.69732 -2.19408 0
M  V30 1064 H 92.6863 -3.51454 -1.90578 0
M  V30 1065 H 94.1263 -3.12287 -2.86798 0
M  V30 1066 C 92.5853 -1.63855 -2.94369 0
M  V30 1067 O 93.1153 -1.05565 -3.87581 0
M  V30 1068 N 91.3213 -1.35202 -2.57233 0
M  V30 1069 H 90.8683 -1.82791 -1.81508 0
M  V30 1070 H 90.8263 -0.645922 -3.07693 0
M  V30 1071 N 94.5984 0.214957 -1.56127 0
M  V30 1072 C 95.8464 0.936518 -1.79091 0
M  V30 1073 C 96.1674 1.84606 -0.628148 0
M  V30 1074 O 95.4374 1.92664 0.35462 0
M  V30 1075 H 94.0174 0.3488 -0.660566 0
M  V30 1076 H 96.6794 0.22523 -1.93594 0
M  V30 1077 H 95.7754 1.53943 -2.71492 0
M  V30 1078 N 96.0765 1.50051 0.48192 0
M  V30 1079 C 97.3045 1.64237 1.25832 0
M  V30 1080 C 97.7195 0.321336 1.86045 0
M  V30 1081 O 97.0765 -0.695478 1.68729 0
M  V30 1082 C 97.1275 2.72548 2.37487 0
M  V30 1083 O 96.8485 3.99529 1.79745 0
M  V30 1084 C 98.3495 2.9761 3.28547 0
M  V30 1085 H 95.5695 0.55237 0.380957 0
M  V30 1086 H 98.1135 1.96207 0.576467 0
M  V30 1087 H 96.2685 2.43303 3.01467 0
M  V30 1088 H 96.6825 4.59342 2.5319 0
M  V30 1089 H 98.1565 3.77084 4.03127 0
M  V30 1090 H 98.6335 2.0826 3.86684 0
M  V30 1091 H 99.2395 3.28345 2.70314 0
M  V30 1092 N 97.5546 -0.734337 1.39446 0
M  V30 1093 C 98.8316 -1.48579 1.27215 0
M  V30 1094 C 99.2116 -2.1077 -0.117968 0
M  V30 1095 O 98.5596 -1.98646 -1.12924 0
M  V30 1096 C 98.7696 -2.53667 2.39696 0
M  V30 1097 C 100.118 -3.20031 2.79044 0
M  V30 1098 O 101.142 -2.6398 2.39151 0
M  V30 1099 O 100.001 -4.21455 3.47905 0
M  V30 1100 H 97.0946 -0.659816 0.49857 0
M  V30 1101 H 99.6406 -0.768106 1.51322 0
M  V30 1102 H 98.4126 -2.06096 3.32626 0
M  V30 1103 H 98.0356 -3.32994 2.17258 0
M  V30 1104 N 99.0327 -1.24633 -0.964593 0
M  V30 1105 C 99.9627 -1.06611 -2.07741 0
M  V30 1106 C 100.944 0.0218666 -1.70086 0
M  V30 1107 O 102.129 -0.145793 -1.93652 0
M  V30 1108 C 99.2587 -0.673444 -3.40708 0
M  V30 1109 C 98.2127 -1.71054 -3.92332 0
M  V30 1110 C 97.5387 -1.17285 -5.21678 0
M  V30 1111 C 98.8387 -3.10718 -4.19824 0
M  V30 1112 H 100.533 -1.99693 -2.23076 0
M  V30 1113 H 98.0787 -0.96152 -1.07195 0
M  V30 1114 H 100.032 -0.534345 -4.17998 0
M  V30 1115 H 98.7557 0.293073 -3.25282 0
M  V30 1116 H 97.4147 -1.83791 -3.17201 0
M  V30 1117 H 97.0627 -0.196847 -5.02615 0
M  V30 1118 H 96.7627 -1.86592 -5.57187 0
M  V30 1119 H 98.2867 -1.04593 -6.01575 0
M  V30 1120 H 99.7007 -3.01192 -4.87808 0
M  V30 1121 H 98.0977 -3.77406 -4.66567 0
M  V30 1122 H 99.1677 -3.58524 -3.26479 0
M  V30 1123 N 100.511 1.16574 -1.06058 0
M  V30 1124 C 101.441 2.23057 -0.690488 0
M  V30 1125 C 102.422 1.67141 0.315901 0
M  V30 1126 O 103.607 1.93253 0.191556 0
M  V30 1127 C 100.737 3.47222 -0.073625 0
M  V30 1128 C 99.6908 4.16016 -1.00573 0
M  V30 1129 C 99.0168 5.34104 -0.252289 0
M  V30 1130 C 100.317 4.67264 -2.33371 0
M  V30 1131 H 102.011 2.54271 -1.58072 0
M  V30 1132 H 99.5568 1.22218 -0.76149 0
M  V30 1133 H 101.51 4.20939 0.19714 0
M  V30 1134 H 100.234 3.15302 0.85161 0
M  V30 1135 H 98.8928 3.44223 -1.2612 0
M  V30 1136 H 98.5408 4.98437 0.675988 0
M  V30 1137 H 98.2408 5.81072 -0.873455 0
M  V30 1138 H 99.7648 6.10599 0.0109857 0
M  V30 1139 H 101.179 5.32573 -2.12223 0
M  V30 1140 H 99.5758 5.24843 -2.90963 0
M  V30 1141 H 100.646 3.83602 -2.96611 0
M  V30 1142 N 101.989 0.842826 1.3317 0
M  V30 1143 C 103.266 0.362216 1.92217 0
M  V30 1144 C 103.646 -1.15289 1.76838 0
M  V30 1145 O 102.994 -1.96914 1.15919 0
M  V30 1146 C 103.204 0.813495 3.39387 0
M  V30 1147 C 104.552 0.823804 4.16532 0
M  V30 1148 O 105.576 0.757358 3.48055 0
M  V30 1149 O 104.435 0.915193 5.38782 0
M  V30 1150 H 101.529 0.103317 0.820521 0
M  V30 1151 H 104.075 0.928942 1.42017 0
M  V30 1152 H 102.847 1.85624 3.4447 0
M  V30 1153 H 102.47 0.223561 3.96971 0
M  V30 1154 N 103.467 -1.45747 0.599634 0
M  V30 1155 C 104.4 -2.27547 -0.172552 0
M  V30 1156 C 105.378 -1.36657 -0.881116 0
M  V30 1157 O 106.562 -1.66081 -0.891595 0
M  V30 1158 C 103.689 -3.14829 -1.24903 0
M  V30 1159 C 102.735 -4.21603 -0.644465 0
M  V30 1160 S 103.568 -5.32754 0.541606 0
M  V30 1161 C 104.724 -6.23604 -0.535656 0
M  V30 1162 H 104.957 -2.92691 0.521468 0
M  V30 1163 H 102.49 -1.49473 0.386947 0
M  V30 1164 H 104.448 -3.65675 -1.86527 0
M  V30 1165 H 103.109 -2.48965 -1.91508 0
M  V30 1166 H 102.302 -4.82566 -1.45417 0
M  V30 1167 H 101.904 -3.73857 -0.103534 0
M  V30 1168 H 104.196 -6.62519 -1.41686 0
M  V30 1169 H 105.139 -7.0809 0.0376246 0
M  V30 1170 H 105.547 -5.58103 -0.84741 0
M  V30 1171 N 104.945 -0.338344 -1.53925 0
M  V30 1172 C 105.877 0.555117 -2.22376 0
M  V30 1173 C 106.89 1.06812 -1.22862 0
M  V30 1174 O 108.079 0.979163 -1.49247 0
M  V30 1175 C 105.179 1.77609 -2.88631 0
M  V30 1176 C 104.352 1.39927 -4.14414 0
M  V30 1177 C 103.411 2.47936 -4.64127 0
M  V30 1178 O 102.437 2.11461 -5.28463 0
M  V30 1179 N 103.639 3.79107 -4.39612 0
M  V30 1180 H 106.404 -0.0310778 -2.99684 0
M  V30 1181 H 103.965 -0.162226 -1.61085 0
M  V30 1182 H 105.957 2.49287 -3.18807 0
M  V30 1183 H 104.527 2.26978 -2.14941 0
M  V30 1184 H 103.747 0.513481 -3.90841 0
M  V30 1185 H 105.035 1.12341 -4.96243 0
M  V30 1186 H 104.433 4.11531 -3.88148 0
M  V30 1187 H 102.99 4.4697 -4.74406 0
M  V30 1188 N 106.423 1.57458 -0.0668435 0
M  V30 1189 C 107.356 2.08033 0.93795 0
M  V30 1190 C 108.334 0.984321 1.29421 0
M  V30 1191 O 109.518 1.25736 1.40437 0
M  V30 1192 C 106.645 2.53388 2.24749 0
M  V30 1193 C 105.691 3.74376 2.04315 0
M  V30 1194 S 106.524 5.19303 1.30706 0
M  V30 1195 C 107.68 5.67986 2.62951 0
M  V30 1196 H 107.913 2.92935 0.50759 0
M  V30 1197 H 105.446 1.5371 0.145804 0
M  V30 1198 H 107.404 2.8018 3.00016 0
M  V30 1199 H 106.065 1.68763 2.64911 0
M  V30 1200 H 105.258 4.04083 3.01218 0
M  V30 1201 H 104.86 3.47931 1.37186 0
M  V30 1202 H 107.152 5.74528 3.5906 0
M  V30 1203 H 108.095 6.66955 2.3786 0
M  V30 1204 H 108.503 4.95781 2.69929 0
M  V30 1205 N 107.901 -0.206675 1.56239 0
M  V30 1206 C 108.851 -1.26 1.90021 0
M  V30 1207 C 109.835 -1.41566 0.764721 0
M  V30 1208 O 111.027 -1.44131 1.02739 0
M  V30 1209 C 108.156 -2.6073 2.23326 0
M  V30 1210 C 107.242 -2.49005 3.43304 0
M  V30 1211 N 107.633 -2.06946 4.61527 0
M  V30 1212 C 105.931 -2.79927 3.47213 0
M  V30 1213 C 106.632 -2.06832 5.43687 0
M  V30 1214 N 105.608 -2.47892 4.83788 0
M  V30 1215 H 109.41 -0.925955 2.78932 0
M  V30 1216 H 106.924 -0.415172 1.57003 0
M  V30 1217 H 108.921 -3.36798 2.45708 0
M  V30 1218 H 107.581 -2.94968 1.35735 0
M  V30 1219 H 108.592 -1.77839 4.86409 0
M  V30 1220 H 105.269 -3.18438 2.70006 0
M  V30 1221 H 106.659 -1.76312 6.48354 0
M  V30 1222 N 109.379 -1.50304 -0.473955 0
M  V30 1223 C 110.342 -1.6841 -1.55469 0
M  V30 1224 C 111.342 -0.554905 -1.50922 0
M  V30 1225 O 112.532 -0.821882 -1.53593 0
M  V30 1226 C 109.664 -1.70667 -2.95102 0
M  V30 1227 H 110.857 -2.64828 -1.40733 0
M  V30 1228 H 108.41 -1.39742 -0.700132 0
M  V30 1229 H 109.145 -0.75932 -3.15285 0
M  V30 1230 H 108.93 -2.52698 -2.9981 0
M  V30 1231 H 110.42 -1.8664 -3.73571 0
M  V30 1232 N 110.857 0.726932 -1.39834 0
M  V30 1233 C 111.787 1.85405 -1.41941 0
M  V30 1234 C 112.768 1.67751 -0.281728 0
M  V30 1235 O 113.953 1.8795 -0.488717 0
M  V30 1236 C 111.083 3.23243 -1.2701 0
M  V30 1237 C 110.037 3.55549 -2.38262 0
M  V30 1238 C 109.363 4.9241 -2.08415 0
M  V30 1239 C 110.663 3.577 -3.80589 0
M  V30 1240 H 112.357 1.83899 -2.36266 0
M  V30 1241 H 109.903 0.883349 -1.13723 0
M  V30 1242 H 111.856 4.01775 -1.27103 0
M  V30 1243 H 110.58 3.25296 -0.291564 0
M  V30 1244 H 109.239 2.79351 -2.37399 0
M  V30 1245 H 108.887 4.91052 -1.0898 0
M  V30 1246 H 108.587 5.14992 -2.82943 0
M  V30 1247 H 110.111 5.73289 -2.10171 0
M  V30 1248 H 111.525 4.26293 -3.83337 0
M  V30 1249 H 109.922 3.91804 -4.54543 0
M  V30 1250 H 110.992 2.57328 -4.10987 0
M  V30 1251 N 112.336 1.25143 0.95797 0
M  V30 1252 C 113.266 1.07711 2.07173 0
M  V30 1253 C 114.247 -0.0128462 1.70095 0
M  V30 1254 O 115.432 0.156061 1.93572 0
M  V30 1255 C 112.562 0.691503 3.40346 0
M  V30 1256 C 111.516 1.73132 3.9142 0
M  V30 1257 C 110.842 1.20049 5.21049 0
M  V30 1258 C 112.142 3.1294 4.1817 0
M  V30 1259 H 113.836 2.00873 2.22014 0
M  V30 1260 H 111.382 0.967191 1.06684 0
M  V30 1261 H 113.335 0.556505 4.17709 0
M  V30 1262 H 112.059 -0.275819 3.25433 0
M  V30 1263 H 110.718 1.8547 3.16222 0
M  V30 1264 H 110.366 0.223499 5.02503 0
M  V30 1265 H 110.066 1.89545 5.56189 0
M  V30 1266 H 111.59 1.07782 6.01012 0
M  V30 1267 H 113.004 3.03775 4.86203 0
M  V30 1268 H 111.401 3.79875 4.64559 0
M  V30 1269 H 112.471 3.6025 3.24573 0
M  V30 1270 N 113.814 -1.1601 1.06675 0
M  V30 1271 C 114.764 -2.18512 0.650888 0
M  V30 1272 C 115.748 -1.57677 -0.320441 0
M  V30 1273 O 116.94 -1.76482 -0.135266 0
M  V30 1274 C 114.069 -3.43273 0.0429255 0
M  V30 1275 C 113.155 -4.11176 1.03898 0
M  V30 1276 N 113.546 -4.54672 2.216 0
M  V30 1277 C 111.844 -4.37417 0.870779 0
M  V30 1278 C 112.545 -5.07248 2.84736 0
M  V30 1279 N 111.521 -5.0037 2.12441 0
M  V30 1280 H 115.323 -2.49863 1.54745 0
M  V30 1281 H 112.837 -1.32503 0.938975 0
M  V30 1282 H 114.834 -4.16006 -0.272857 0
M  V30 1283 H 113.494 -3.13408 -0.84884 0
M  V30 1284 H 114.505 -4.4828 2.59356 0
M  V30 1285 H 111.182 -4.17488 0.0313293 0
M  V30 1286 H 112.572 -5.50912 3.84636 0
M  V30 1287 N 115.292 -0.849877 -1.32721 0
M  V30 1288 C 116.224 -0.248332 -2.27851 0
M  V30 1289 C 117.237 0.577218 -1.52224 0
M  V30 1290 O 118.426 0.402489 -1.73903 0
M  V30 1291 C 115.526 0.668107 -3.32249 0
M  V30 1292 C 114.699 -0.120534 -4.37234 0
M  V30 1293 C 113.758 0.720932 -5.21238 0
M  V30 1294 O 112.784 0.156166 -5.68986 0
M  V30 1295 N 113.986 2.03647 -5.43607 0
M  V30 1296 H 116.751 -1.06575 -2.80111 0
M  V30 1297 H 114.312 -0.709395 -1.45531 0
M  V30 1298 H 116.304 1.23627 -3.85355 0
M  V30 1299 H 114.874 1.38621 -2.80184 0
M  V30 1300 H 114.094 -0.870108 -3.84477 0
M  V30 1301 H 115.382 -0.662406 -5.0447 0
M  V30 1302 H 114.78 2.51871 -5.06535 0
M  V30 1303 H 113.337 2.55287 -5.99727 0
M  V30 1304 N 116.77 1.45427 -0.607355 0
M  V30 1305 C 118.181 1.85756 -0.187535 0
M  V30 1306 C 118.532 1.5077 1.25551 0
M  V30 1307 O 117.657 0.93427 1.95193 0
M  V30 1308 C 118.252 3.37154 -0.333572 0
M  V30 1309 C 116.811 3.76387 0.0315542 0
M  V30 1310 C 115.958 2.69377 -0.658117 0
M  V30 1311 H 118.909 1.36231 -0.81405 0
M  V30 1312 H 118.93 3.78014 0.43428 0
M  V30 1313 H 118.442 3.62586 -1.38393 0
M  V30 1314 H 116.543 3.56571 1.0811 0
M  V30 1315 H 116.656 4.77731 -0.361935 0
M  V30 1316 H 115.02 2.5452 -0.0957873 0
M  V30 1317 H 115.803 2.97646 -1.7106 0
M  V30 1318 N 118.248 0.346503 1.53744 0
M  V30 1319 C 119.198 -0.524953 2.21874 0
M  V30 1320 C 120.182 -1.06376 1.20718 0
M  V30 1321 O 121.374 -0.996972 1.46251 0
M  V30 1322 C 118.503 -1.6739 2.99726 0
M  V30 1323 C 117.589 -1.14888 4.08242 0
M  V30 1324 N 117.98 -0.345329 5.0462 0
M  V30 1325 C 116.278 -1.4255 4.22606 0
M  V30 1326 C 116.979 -0.0600706 5.81669 0
M  V30 1327 N 115.955 -0.65252 5.39669 0
M  V30 1328 H 119.757 0.0960091 2.93743 0
M  V30 1329 H 117.271 0.15352 1.61673 0
M  V30 1330 H 119.268 -2.3102 3.47038 0
M  V30 1331 H 117.928 -2.29811 2.29384 0
M  V30 1332 H 118.939 0.0138439 5.17898 0
M  V30 1333 H 115.616 -2.05389 3.63486 0
M  V30 1334 H 117.006 0.588321 6.69319 0
M  V30 1335 N 119.726 -1.57421 0.075193 0
M  V30 1336 C 120.966 -1.95495 -0.596757 0
M  V30 1337 C 121.33 -0.954886 -1.66571 0
M  V30 1338 O 122.531 -1.22341 -2.39345 0
M  V30 1339 C 120.802 -3.382 -1.15566 0
M  V30 1340 S 122.361 -3.98254 -1.84226 0
M  V30 1341 H 119.179 -0.683649 -0.195307 0
M  V30 1342 H 121.781 -1.94925 0.149859 0
M  V30 1343 H 120.485 -4.08766 -0.36588 0
M  V30 1344 H 120.016 -3.42321 -1.93856 0
M  V30 1345 H 122.031 -3.85435 -3.12497 0
M  V30 1346 N 121.204 0.198386 -1.56346 0
M  V30 1347 C 122.452 0.91747 -1.80075 0
M  V30 1348 C 122.773 1.83929 -0.647692 0
M  V30 1349 O 122.043 1.93029 0.334166 0
M  V30 1350 H 120.623 0.341774 -0.664228 0
M  V30 1351 H 123.285 0.204684 -1.93822 0
M  V30 1352 H 122.381 1.51055 -2.7311 0
M  V30 1353 N 122.682 1.50554 0.465978 0
M  V30 1354 C 123.928 1.62038 1.21949 0
M  V30 1355 C 124.261 0.322116 1.9151 0
M  V30 1356 O 123.536 -0.676723 1.82348 0
M  V30 1357 C 123.819 2.80421 2.25912 0
M  V30 1358 C 123.672 4.20144 1.60622 0
M  V30 1359 C 124.991 2.94354 3.27176 0
M  V30 1360 H 122.11 0.589752 0.441998 0
M  V30 1361 H 124.752 1.82956 0.51257 0
M  V30 1362 H 122.902 2.62717 2.86203 0
M  V30 1363 H 124.574 4.49449 1.03889 0
M  V30 1364 H 122.817 4.24165 0.909211 0
M  V30 1365 H 123.488 4.98914 2.36196 0
M  V30 1366 H 125.964 3.10578 2.76913 0
M  V30 1367 H 124.84 3.788 3.97242 0
M  V30 1368 H 125.101 2.05186 3.916 0
M  V30 1369 N 124.16 -0.719506 1.40217 0
M  V30 1370 C 125.571 -1.29848 1.34151 0
M  V30 1371 C 125.922 -1.96196 0.0131349 0
M  V30 1372 O 125.047 -1.973 -0.88892 0
M  V30 1373 C 125.642 -2.36118 2.42968 0
M  V30 1374 C 124.201 -2.8965 2.40374 0
M  V30 1375 C 123.348 -1.63393 2.24049 0
M  V30 1376 H 126.299 -0.51591 1.5008 0
M  V30 1377 H 126.32 -3.16871 2.10649 0
M  V30 1378 H 125.832 -1.878 3.39636 0
M  V30 1379 H 123.933 -3.42208 1.47392 0
M  V30 1380 H 124.046 -3.4171 3.35814 0
M  V30 1381 H 122.41 -1.88312 1.71495 0
M  V30 1382 H 123.193 -1.17104 3.2271 0
M  V30 1383 N 125.638 -1.25649 -0.95132 0
M  V30 1384 C 126.915 -1.01361 -1.67288 0
M  V30 1385 C 127.295 0.459135 -2.06046 0
M  V30 1386 O 126.643 1.43723 -1.7764 0
M  V30 1387 C 126.853 -1.95256 -2.89268 0
M  V30 1388 C 128.201 -2.23289 -3.61147 0
M  V30 1389 O 129.225 -1.93041 -2.99355 0
M  V30 1390 O 128.084 -2.74741 -4.72419 0
M  V30 1391 H 125.178 -0.38464 -0.732107 0
M  V30 1392 H 127.724 -1.36817 -1.00395 0
M  V30 1393 H 126.496 -2.94685 -2.57442 0
M  V30 1394 H 126.119 -1.60218 -3.6389 0
M  V30 1395 N 127.117 1.15442 -1.07289 0
M  V30 1396 C 128.365 1.85845 -0.794096 0
M  V30 1397 C 128.686 1.82692 0.681809 0
M  V30 1398 O 127.956 1.26741 1.49377 0
M  V30 1399 H 126.536 0.688089 -0.290763 0
M  V30 1400 H 129.198 1.39947 -1.3565 0
M  V30 1401 H 128.294 2.91001 -1.12804 0
M  V30 1402 N 128.595 0.856903 1.32268 0
M  V30 1403 C 129.82 0.474569 2.01897 0
M  V30 1404 C 130.245 -0.921766 1.63967 0
M  V30 1405 O 129.603 -1.60589 0.84148 0
M  V30 1406 C 129.651 0.623799 3.55164 0
M  V30 1407 O 128.755 -0.342459 4.10976 0
M  V30 1408 H 128.096 0.190422 0.63611 0
M  V30 1409 H 130.626 1.15672 1.68764 0
M  V30 1410 H 130.636 0.512169 4.04773 0
M  V30 1411 H 129.311 1.64202 3.82113 0
M  V30 1412 H 127.888 -0.18688 3.72431 0
M  V30 1413 N 130.073 -1.45103 0.615059 0
M  V30 1414 C 131.35 -1.95549 0.0448276 0
M  V30 1415 C 131.73 -1.55737 -1.4251 0
M  V30 1416 O 131.078 -0.823556 -2.13143 0
M  V30 1417 C 131.288 -3.48098 0.250785 0
M  V30 1418 C 132.636 -4.24384 0.135509 0
M  V30 1419 O 133.66 -3.55738 0.181299 0
M  V30 1420 O 132.519 -5.46493 0.0268878 0
M  V30 1421 H 129.613 -0.8264 -0.0314845 0
M  V30 1422 H 132.159 -1.55232 0.685642 0
M  V30 1423 H 130.931 -3.7007 1.27139 0
M  V30 1424 H 130.554 -3.95323 -0.424937 0
M  V30 1425 N 131.551 -0.354651 -1.53558 0
M  V30 1426 C 132.779 0.239515 -2.05509 0
M  V30 1427 C 133.194 1.4333 -1.2289 0
M  V30 1428 O 132.551 1.80538 -0.266899 0
M  V30 1429 C 132.602 0.643719 -3.55723 0
M  V30 1430 O 132.323 -0.502602 -4.35207 0
M  V30 1431 C 133.824 1.29743 -4.23889 0
M  V30 1432 H 131.044 0.0442697 -0.669538 0
M  V30 1433 H 133.588 -0.509856 -1.98042 0
M  V30 1434 H 131.743 1.34302 -3.63376 0
M  V30 1435 H 132.157 -0.178172 -5.24197 0
M  V30 1436 H 133.631 1.53091 -5.30346 0
M  V30 1437 H 134.108 2.25441 -3.76926 0
M  V30 1438 H 134.714 0.639865 -4.20459 0
M  V30 1439 N 133.029 1.57378 -0.0835403 0
M  V30 1440 C 134.254 1.98682 0.594987 0
M  V30 1441 C 134.679 0.961969 1.61641 0
M  V30 1442 O 134.037 -0.0709989 1.81161 0
M  V30 1443 C 134.085 3.38988 1.2296 0
M  V30 1444 O 133.189 3.39208 2.34546 0
M  V30 1445 H 132.53 0.646368 0.152002 0
M  V30 1446 H 135.06 2.03961 -0.161533 0
M  V30 1447 H 135.07 3.76431 1.57366 0
M  V30 1448 H 133.745 4.13107 0.481228 0
M  V30 1449 H 132.322 3.13548 2.01846 0
M  V30 1450 N 134.507 -0.190092 1.56449 0
M  V30 1451 C 135.756 -0.907912 1.80111 0
M  V30 1452 C 136.069 -1.84214 0.657619 0
M  V30 1453 O 137.275 -2.60094 0.778663 0
M  V30 1454 C 135.731 -1.66485 3.19078 0
M  V30 1455 C 135.339 -0.7752 4.41242 0
M  V30 1456 C 137.083 -2.37201 3.52045 0
M  V30 1457 C 134.99 -1.53129 5.71231 0
M  V30 1458 H 133.92 -0.34276 0.671589 0
M  V30 1459 H 136.571 -0.161109 1.82791 0
M  V30 1460 H 134.953 -2.45572 3.10661 0
M  V30 1461 H 136.127 -0.0226298 4.60794 0
M  V30 1462 H 134.442 -0.178627 4.16017 0
M  V30 1463 H 137.039 -2.94329 4.46402 0
M  V30 1464 H 137.382 -3.11632 2.76028 0
M  V30 1465 H 137.915 -1.65075 3.61932 0
M  V30 1466 H 134.654 -0.82967 6.50228 0
M  V30 1467 H 134.174 -2.25767 5.55688 0
M  V30 1468 H 135.853 -2.08377 6.12526 0
M  V30 1469 N 135.985 -1.50799 -0.457987 0
M  V30 1470 C 137.21 -1.66496 -1.23668 0
M  V30 1471 C 137.635 -0.353288 -1.84752 0
M  V30 1472 O 136.993 0.684346 -1.67888 0
M  V30 1473 C 137.041 -2.76763 -2.3116 0
M  V30 1474 O 136.145 -2.38928 -3.36136 0
M  V30 1475 H 135.486 -0.555828 -0.363252 0
M  V30 1476 H 138.016 -1.9725 -0.543474 0
M  V30 1477 H 138.026 -3.00232 -2.76269 0
M  V30 1478 H 136.701 -3.71954 -1.86073 0
M  V30 1479 H 135.278 -2.25953 -2.96647 0
M  V30 1480 N 137.463 0.71206 -1.40597 0
M  V30 1481 C 138.874 1.29135 -1.34837 0
M  V30 1482 C 139.225 1.96186 -0.0235395 0
M  V30 1483 O 138.35 1.97768 0.878444 0
M  V30 1484 C 138.945 2.34827 -2.44217 0
M  V30 1485 C 137.504 2.88371 -2.41907 0
M  V30 1486 C 136.651 1.62202 -2.24913 0
M  V30 1487 H 139.602 0.507944 -1.50352 0
M  V30 1488 H 139.623 3.15749 -2.12327 0
M  V30 1489 H 139.135 1.85996 -3.40627 0
M  V30 1490 H 137.236 3.41422 -1.49204 0
M  V30 1491 H 137.349 3.39925 -3.37621 0
M  V30 1492 H 135.713 1.874 -1.72492 0
M  V30 1493 H 136.496 1.15391 -3.23326 0
M  V30 1494 N 138.941 1.26152 0.944643 0
M  V30 1495 C 140.189 1.11271 1.6871 0
M  V30 1496 C 140.51 -0.345166 1.91921 0
M  V30 1497 O 139.78 -1.24387 1.51343 0
M  V30 1498 H 138.36 0.408783 0.625224 0
M  V30 1499 H 141.022 1.58427 1.1352 0
M  V30 1500 H 140.118 1.62879 2.66227 0
M  V30 1501 N 140.419 -1.14872 1.07899 0
M  V30 1502 C 141.835 -1.37776 0.805606 0
M  V30 1503 C 142.035 -1.92743 -0.587555 0
M  V30 1504 O 141.091 -2.13678 -1.34528 0
M  V30 1505 C 142.404 -2.34361 1.88402 0
M  V30 1506 C 143.952 -2.48012 1.90942 0
M  V30 1507 C 144.427 -3.47893 2.97883 0
M  V30 1508 N 145.918 -3.55433 2.97021 0
M  V30 1509 C 146.653 -4.32553 3.76412 0
M  V30 1510 N 146.149 -5.12959 4.65666 0
M  V30 1511 N 147.942 -4.27697 3.64735 0
M  V30 1512 H 140.093 -0.775365 1.97742 0
M  V30 1513 H 142.356 -0.403521 0.857831 0
M  V30 1514 H 142.062 -2.01098 2.88535 0
M  V30 1515 H 141.936 -3.34206 1.74889 0
M  V30 1516 H 144.323 -2.8057 0.914579 0
M  V30 1517 H 144.404 -1.48147 2.08534 0
M  V30 1518 H 144.048 -3.16069 3.97571 0
M  V30 1519 H 143.978 -4.47527 2.77538 0
M  V30 1520 H 146.469 -2.98048 2.32326 0
M  V30 1521 H 146.782 -5.69065 5.22862 0
M  V30 1522 H 145.127 -5.12245 4.69712 0
M  V30 1523 H 148.318 -3.63949 2.94378 0
M  V30 1524 H 148.491 -4.8755 4.26848 0
M  V30 1525 N 141.898 -0.863906 -1.31812 0
M  V30 1526 C 143.138 -0.47825 -1.98726 0
M  V30 1527 C 143.502 0.950397 -1.66828 0
M  V30 1528 O 144.703 1.44109 -2.26905 0
M  V30 1529 C 142.974 -0.721134 -3.50049 0
M  V30 1530 S 144.533 -0.434432 -4.36644 0
M  V30 1531 H 141.351 -0.178773 -0.688158 0
M  V30 1532 H 143.953 -1.11862 -1.60334 0
M  V30 1533 H 142.657 -1.75981 -3.70755 0
M  V30 1534 H 142.188 -0.0675315 -3.93342 0
M  V30 1535 H 144.203 0.735786 -4.90714 0
M  V30 1536 N 143.376 1.44774 -0.622745 0
M  V30 1537 C 144.323 2.30635 0.0871679 0
M  V30 1538 C 145.293 1.42994 0.845097 0
M  V30 1539 O 146.478 1.71907 0.827812 0
M  V30 1540 C 143.618 3.28144 1.06844 0
M  V30 1541 C 142.731 4.30888 0.309809 0
M  V30 1542 C 141.866 5.15494 1.28215 0
M  V30 1543 C 140.905 6.09953 0.512198 0
M  V30 1544 N 140.042 6.87287 1.43458 0
M  V30 1545 H 144.882 2.90803 -0.650974 0
M  V30 1546 H 142.419 1.43286 -0.33281 0
M  V30 1547 H 144.377 3.83157 1.65066 0
M  V30 1548 H 143.007 2.69695 1.77382 0
M  V30 1549 H 142.059 3.78414 -0.388181 0
M  V30 1550 H 143.371 4.97955 -0.290254 0
M  V30 1551 H 142.525 5.74983 1.93596 0
M  V30 1552 H 141.264 4.48481 1.91614 0
M  V30 1553 H 140.269 5.49581 -0.155151 0
M  V30 1554 H 141.494 6.78999 -0.116958 0
M  V30 1555 H 139.44 6.2295 2.05594 0
M  V30 1556 H 139.357 7.50763 0.888335 0
M  V30 1557 H 140.625 7.51306 2.07749 0
M  V30 1558 N 144.854 0.36279 1.53368 0
M  V30 1559 C 146.1 -0.220702 2.02199 0
M  V30 1560 C 146.455 -1.46649 1.24546 0
M  V30 1561 O 145.748 -1.88737 0.32996 0
M  V30 1562 C 145.942 -0.568417 3.52851 0
M  V30 1563 C 145.771 0.642126 4.45092 0
M  V30 1564 C 144.541 1.15335 4.91961 0
M  V30 1565 C 146.739 1.50649 4.91741 0
M  V30 1566 N 144.721 2.3242 5.68202 0
M  V30 1567 C 146.092 2.52404 5.66297 0
M  V30 1568 C 148.147 1.52969 4.73819 0
M  V30 1569 C 146.85 3.56331 6.24836 0
M  V30 1570 C 148.876 2.55789 5.33222 0
M  V30 1571 C 148.238 3.56268 6.07662 0
M  V30 1572 H 144.337 -0.0435508 0.780786 0
M  V30 1573 H 146.921 0.506704 1.87991 0
M  V30 1574 H 145.092 -1.2649 3.67226 0
M  V30 1575 H 146.824 -1.13676 3.88407 0
M  V30 1576 H 143.579 0.718412 4.68119 0
M  V30 1577 H 144.003 2.91591 6.10986 0
M  V30 1578 H 148.645 0.766418 4.15795 0
M  V30 1579 H 146.363 4.33543 6.81958 0
M  V30 1580 H 149.949 2.58435 5.21251 0
M  V30 1581 H 148.829 4.34524 6.52808 0
M  V30 1582 N 146.332 -1.57332 0.0918853 0
M  V30 1583 C 147.28 -2.15075 -0.885747 0
M  V30 1584 C 148.274 -1.09277 -1.29441 0
M  V30 1585 O 149.48 -1.27627 -1.26931 0
M  V30 1586 H 145.855 -0.687966 -0.303656 0
M  V30 1587 H 147.826 -2.96047 -0.373995 0
M  V30 1588 C 146.575 -2.74325 -2.13638 0
M  V30 1589 H 145.898 -3.55418 -1.8308 0
M  V30 1590 H 147.338 -3.183 -2.80109 0
M  V30 1591 C 145.797 -1.70062 -2.90827 0
M  V30 1592 O 146.327 -1.13763 -3.85254 0
M  V30 1593 N 144.533 -1.40628 -2.54307 0
M  V30 1594 H 144.08 -1.866 -1.7759 0
M  V30 1595 H 144.038 -0.711043 -3.06254 0
M  V30 1596 N 147.81 0.181792 -1.56548 0
M  V30 1597 C 148.757 1.22521 -1.95595 0
M  V30 1598 C 149.727 1.4454 -0.818373 0
M  V30 1599 O 150.912 1.57454 -1.07763 0
M  V30 1600 C 148.052 2.56193 -2.31212 0
M  V30 1601 C 147.165 2.41641 -3.58097 0
M  V30 1602 C 146.3 3.68108 -3.82975 0
M  V30 1603 C 145.339 3.48445 -5.03242 0
M  V30 1604 N 144.476 4.66956 -5.24306 0
M  V30 1605 H 149.316 0.885226 -2.84548 0
M  V30 1606 H 146.853 0.425718 -1.40805 0
M  V30 1607 H 148.811 3.34088 -2.49882 0
M  V30 1608 H 147.441 2.88208 -1.45382 0
M  V30 1609 H 146.493 1.54976 -3.474 0
M  V30 1610 H 147.805 2.23052 -4.46149 0
M  V30 1611 H 146.959 4.54441 -4.01956 0
M  V30 1612 H 145.698 3.89666 -2.93278 0
M  V30 1613 H 144.703 2.60499 -4.8417 0
M  V30 1614 H 145.928 3.2832 -5.9446 0
M  V30 1615 H 143.874 4.88752 -4.37559 0
M  V30 1616 H 143.791 4.51242 -6.06561 0
M  V30 1617 H 145.059 5.54602 -5.47756 0
M  V30 1618 N 149.288 1.51039 0.449983 0
M  V30 1619 C 150.238 1.67824 1.54335 0
M  V30 1620 C 151.222 0.5324 1.51836 0
M  V30 1621 O 152.414 0.787762 1.58503 0
M  V30 1622 C 149.543 1.7951 2.92628 0
M  V30 1623 C 148.629 2.99838 2.9993 0
M  V30 1624 N 149.02 4.23207 2.77001 0
M  V30 1625 C 147.318 2.98832 3.31082 0
M  V30 1626 C 148.019 5.04361 2.89818 0
M  V30 1627 N 146.995 4.38746 3.2094 0
M  V30 1628 H 150.797 2.60884 1.35339 0
M  V30 1629 H 148.311 1.48513 0.657085 0
M  V30 1630 H 150.308 1.89642 3.7127 0
M  V30 1631 H 148.968 0.876227 3.12654 0
M  V30 1632 H 149.979 4.5236 2.52172 0
M  V30 1633 H 146.656 2.16527 3.56963 0
M  V30 1634 H 148.046 6.12528 2.76151 0
M  V30 1635 N 150.766 -0.704594 1.40972 0
M  V30 1636 C 151.994 -1.49354 1.43182 0
M  V30 1637 C 152.409 -1.88768 0.0345508 0
M  V30 1638 O 151.766 -1.56184 -0.944081 0
M  V30 1639 C 151.817 -2.76187 2.33244 0
M  V30 1640 O 151.538 -2.38436 3.67532 0
M  V30 1641 C 153.039 -3.7 2.44162 0
M  V30 1642 H 150.259 -0.460559 0.487982 0
M  V30 1643 H 152.803 -0.868261 1.85153 0
M  V30 1644 H 150.958 -3.34974 1.94606 0
M  V30 1645 H 151.372 -3.20126 4.15475 0
M  V30 1646 H 152.846 -4.55803 3.11364 0
M  V30 1647 H 153.323 -4.13867 1.47006 0
M  V30 1648 H 153.929 -3.17121 2.83398 0
M  V30 1649 N 152.244 -1.26651 -0.937939 0
M  V30 1650 C 153.174 -1.10993 -2.05433 0
M  V30 1651 C 154.155 -0.0142161 -1.70094 0
M  V30 1652 O 155.34 -0.186837 -1.93299 0
M  V30 1653 C 152.47 -0.745561 -3.39203 0
M  V30 1654 C 151.424 -1.79337 -3.88616 0
M  V30 1655 C 150.75 -1.28324 -5.19073 0
M  V30 1656 C 152.05 -3.19553 -4.13138 0
M  V30 1657 H 153.744 -2.0438 -2.1879 0
M  V30 1658 H 151.29 -0.984041 -1.05131 0
M  V30 1659 H 153.243 -0.622888 -4.16771 0
M  V30 1660 H 151.967 0.22401 -3.25831 0
M  V30 1661 H 150.626 -1.90477 -3.13231 0
M  V30 1662 H 150.274 -0.303414 -5.02084 0
M  V30 1663 H 149.974 -1.98369 -5.53103 0
M  V30 1664 H 151.498 -1.1733 -5.99221 0
M  V30 1665 H 152.912 -3.11471 -4.81309 0
M  V30 1666 H 151.309 -3.87218 -4.58457 0
M  V30 1667 H 152.379 -3.65368 -3.18801 0
M  V30 1668 N 153.722 1.14298 -1.08507 0
M  V30 1669 C 154.95 1.89219 -0.836876 0
M  V30 1670 C 155.365 1.78638 0.611054 0
M  V30 1671 O 154.722 1.14643 1.41998 0
M  V30 1672 C 154.773 3.39158 -1.25116 0
M  V30 1673 O 154.494 3.49449 -2.64229 0
M  V30 1674 C 155.995 4.31073 -1.03398 0
M  V30 1675 H 153.215 0.599328 -0.301739 0
M  V30 1676 H 155.759 1.44746 -1.44461 0
M  V30 1677 H 153.914 3.81251 -0.687514 0
M  V30 1678 H 154.328 4.42589 -2.81452 0
M  V30 1679 H 155.802 5.34646 -1.37323 0
M  V30 1680 H 156.279 4.3919 0.0289259 0
M  V30 1681 H 156.885 3.94738 -1.58311 0
M  V30 1682 N 155.201 0.870884 1.31352 0
M  V30 1683 C 156.431 0.496049 2.00557 0
M  V30 1684 C 156.839 -0.916241 1.65534 0
M  V30 1685 O 156.182 -1.61188 0.881134 0
M  V30 1686 C 156.244 0.574418 3.54881 0
M  V30 1687 C 155.908 1.94849 4.1338 0
M  V30 1688 C 156.905 2.91611 4.30417 0
M  V30 1689 C 154.59 2.25005 4.49086 0
M  V30 1690 C 156.584 4.16672 4.82352 0
M  V30 1691 C 154.271 3.50315 5.00722 0
M  V30 1692 C 155.269 4.45964 5.17306 0
M  V30 1693 O 154.957 5.69052 5.67833 0
M  V30 1694 H 154.689 0.191664 0.64826 0
M  V30 1695 H 157.243 1.17409 1.68536 0
M  V30 1696 H 155.473 -0.160549 3.86367 0
M  V30 1697 H 157.162 0.212879 4.05341 0
M  V30 1698 H 157.928 2.69622 4.03149 0
M  V30 1699 H 153.807 1.51332 4.35453 0
M  V30 1700 H 157.351 4.91336 4.95211 0
M  V30 1701 H 153.248 3.72147 5.27424 0
M  V30 1702 H 154.016 5.71236 5.86201 0
M  V30 1703 N 156.679 -1.44442 0.630414 0
M  V30 1704 C 158.095 -1.56832 0.295973 0
M  V30 1705 C 158.295 -1.61806 -1.20088 0
M  V30 1706 O 157.351 -1.5607 -1.9849 0
M  V30 1707 C 158.664 -2.84031 0.987264 0
M  V30 1708 C 160.212 -2.97742 0.96534 0
M  V30 1709 C 160.687 -4.27743 1.63708 0
M  V30 1710 N 162.178 -4.34555 1.60364 0
M  V30 1711 C 162.913 -5.33862 2.09234 0
M  V30 1712 N 162.409 -6.39578 2.66292 0
M  V30 1713 N 164.202 -5.25366 1.99867 0
M  V30 1714 H 156.353 -1.39457 1.60205 0
M  V30 1715 H 158.616 -0.668237 0.672431 0
M  V30 1716 H 158.322 -2.86338 2.04215 0
M  V30 1717 H 158.196 -3.73534 0.524588 0
M  V30 1718 H 160.583 -2.94989 -0.0810639 0
M  V30 1719 H 160.664 -2.09589 1.4665 0
M  V30 1720 H 160.308 -4.31255 2.68293 0
M  V30 1721 H 160.238 -5.14752 1.11076 0
M  V30 1722 H 162.729 -3.58772 1.18705 0
M  V30 1723 H 163.042 -7.11637 3.01317 0
M  V30 1724 H 161.387 -6.40265 2.70343 0
M  V30 1725 H 164.578 -4.41688 1.55013 0
M  V30 1726 H 164.751 -6.02606 2.38265 0
M  V30 1727 N 158.157 -0.370918 -1.53173 0
M  V30 1728 C 159.406 0.218249 -2.00516 0
M  V30 1729 C 159.719 1.49429 -1.26215 0
M  V30 1730 O 160.925 2.16239 -1.64174 0
M  V30 1731 C 159.381 0.43948 -3.57207 0
M  V30 1732 C 158.989 -0.822244 -4.4039 0
M  V30 1733 C 160.733 0.986012 -4.1289 0
M  V30 1734 C 158.64 -0.570304 -5.88644 0
M  V30 1735 H 157.57 0.0853333 -0.749156 0
M  V30 1736 H 160.221 -0.490483 -1.76823 0
M  V30 1737 H 158.603 1.20961 -3.77074 0
M  V30 1738 H 159.777 -1.59557 -4.32294 0
M  V30 1739 H 158.092 -1.29238 -3.95836 0
M  V30 1740 H 160.689 1.18991 -5.21292 0
M  V30 1741 H 161.032 1.94972 -3.6782 0
M  V30 1742 H 161.565 0.27592 -3.96842 0
M  V30 1743 H 158.304 -1.50449 -6.38001 0
M  V30 1744 H 157.824 0.164427 -5.99575 0
M  V30 1745 H 159.503 -0.19784 -6.46697 0
M  V30 1746 N 159.635 1.57281 -0.100228 0
M  V30 1747 C 160.884 1.93713 0.561984 0
M  V30 1748 C 161.197 0.984492 1.69018 0
M  V30 1749 O 162.403 1.24273 2.41389 0
M  V30 1750 C 160.859 3.4421 1.05106 0
M  V30 1751 C 160.467 4.47975 -0.0476628 0
M  V30 1752 C 162.211 3.89595 1.68571 0
M  V30 1753 C 160.118 5.89631 0.457055 0
M  V30 1754 H 159.048 0.723082 0.2137 0
M  V30 1755 H 161.699 1.82644 -0.177057 0
M  V30 1756 H 160.081 3.50449 1.84395 0
M  V30 1757 H 161.255 4.53385 -0.823333 0
M  V30 1758 H 159.57 4.1223 -0.587816 0
M  V30 1759 H 162.167 4.92832 2.07414 0
M  V30 1760 H 162.51 3.28526 2.55688 0
M  V30 1761 H 163.043 3.86078 0.958562 0
M  V30 1762 H 159.782 6.54411 -0.377616 0
M  V30 1763 H 159.302 5.87681 1.19962 0
M  V30 1764 H 160.981 6.40363 0.92437 0
M  V30 1765 N 161.113 -0.173488 1.56642 0
M  V30 1766 C 162.061 -1.23417 1.97157 0
M  V30 1767 C 163.055 -1.45946 0.860013 0
M  V30 1768 O 164.261 -1.46551 1.04512 0
M  V30 1769 H 160.636 -0.414818 0.62724 0
M  V30 1770 H 162.607 -0.865582 2.8557 0
M  V30 1771 C 161.356 -2.5665 2.34576 0
M  V30 1772 H 160.679 -2.40137 3.19647 0
M  V30 1773 H 162.119 -3.2956 2.6677 0
M  V30 1774 C 160.578 -3.15245 1.18836 0
M  V30 1775 O 161.108 -3.98883 0.474869 0
M  V30 1776 N 159.314 -2.74303 0.959497 0
M  V30 1777 H 158.861 -2.0639 1.54146 0
M  V30 1778 H 158.819 -3.13844 0.186932 0
M  V30 1779 N 162.591 -1.51276 -0.441967 0
M  V30 1780 C 163.821 -1.67273 -1.21257 0
M  V30 1781 C 164.229 -0.367624 -1.85594 0
M  V30 1782 O 163.572 0.663349 -1.71305 0
M  V30 1783 C 163.634 -2.72807 -2.34129 0
M  V30 1784 C 163.298 -4.1554 -1.90198 0
M  V30 1785 C 164.295 -5.00471 -1.40801 0
M  V30 1786 C 161.98 -4.61616 -1.9803 0
M  V30 1787 C 163.974 -6.29536 -0.998174 0
M  V30 1788 C 161.661 -5.90679 -1.56658 0
M  V30 1789 C 162.659 -6.74466 -1.07633 0
M  V30 1790 O 162.347 -8.01116 -0.668459 0
M  V30 1791 H 162.079 -0.564614 -0.371734 0
M  V30 1792 H 164.633 -1.9843 -0.530521 0
M  V30 1793 H 162.863 -2.36954 -3.05597 0
M  V30 1794 H 164.552 -2.77729 -2.96009 0
M  V30 1795 H 165.318 -4.66079 -1.34148 0
M  V30 1796 H 161.197 -3.96526 -2.35135 0
M  V30 1797 H 164.741 -6.94885 -0.61482 0
M  V30 1798 H 160.638 -6.24586 -1.62979 0
M  V30 1799 H 161.406 -8.14633 -0.794722 0
M  V30 1800 N 164.069 0.697108 -1.41344 0
M  V30 1801 C 165.48 1.27697 -1.36199 0
M  V30 1802 C 165.831 1.9615 -0.0443463 0
M  V30 1803 O 164.956 1.98689 0.857419 0
M  V30 1804 C 165.551 2.32223 -2.46694 0
M  V30 1805 C 164.11 2.8579 -2.44952 0
M  V30 1806 C 163.257 1.59807 -2.26621 0
M  V30 1807 H 166.208 0.491968 -1.50882 0
M  V30 1808 H 166.229 3.1348 -2.15664 0
M  V30 1809 H 165.741 1.82373 -3.42581 0
M  V30 1810 H 163.842 3.3982 -1.52817 0
M  V30 1811 H 163.955 3.36325 -3.41207 0
M  V30 1812 H 162.319 1.8556 -1.7447 0
M  V30 1813 H 163.102 1.11956 -3.24532 0
M  V30 1814 N 165.547 1.27147 0.931209 0
M  V30 1815 C 166.497 1.06227 2.01742 0
M  V30 1816 C 167.481 -0.00859065 1.60898 0
M  V30 1817 O 168.673 0.209537 1.75755 0
M  V30 1818 C 165.802 0.707787 3.35924 0
M  V30 1819 C 164.888 1.81661 3.83223 0
M  V30 1820 N 165.279 3.05564 4.03069 0
M  V30 1821 C 163.577 1.70249 4.12227 0
M  V30 1822 C 164.278 3.77697 4.42403 0
M  V30 1823 N 163.254 3.0544 4.49675 0
M  V30 1824 H 167.056 2.00261 2.15111 0
M  V30 1825 H 164.57 1.1781 1.11779 0
M  V30 1826 H 166.567 0.539043 4.134 0
M  V30 1827 H 165.227 -0.224964 3.2392 0
M  V30 1828 H 166.238 3.41363 3.89476 0
M  V30 1829 H 162.915 0.840329 4.08956 0
M  V30 1830 H 164.305 4.84168 4.65866 0
M  V30 1831 N 167.025 -1.13721 1.09112 0
M  V30 1832 C 168.302 -1.81155 0.737706 0
M  V30 1833 C 168.682 -1.96253 -0.777683 0
M  V30 1834 O 168.03 -1.52807 -1.69889 0
M  V30 1835 C 168.24 -3.16392 1.47299 0
M  V30 1836 C 169.588 -3.91787 1.63671 0
M  V30 1837 O 170.612 -3.26005 1.43524 0
M  V30 1838 O 169.471 -5.0977 1.96969 0
M  V30 1839 H 166.565 -0.783518 0.26463 0
M  V30 1840 H 169.111 -1.20676 1.19312 0
M  V30 1841 H 167.883 -3.0061 2.50498 0
M  V30 1842 H 167.506 -3.8457 1.00953 0
M  V30 1843 N 168.503 -0.877838 -1.30888 0
M  V30 1844 C 169.436 -0.283995 -2.26426 0
M  V30 1845 C 170.414 0.591361 -1.51465 0
M  V30 1846 O 171.598 0.54304 -1.80509 0
M  V30 1847 C 168.725 0.597129 -3.33395 0
M  V30 1848 C 167.771 -0.207937 -4.25993 0
M  V30 1849 S 168.604 -1.59158 -5.11301 0
M  V30 1850 C 169.76 -0.716791 -6.21782 0
M  V30 1851 H 169.993 -1.09383 -2.76446 0
M  V30 1852 H 167.526 -0.676828 -1.38775 0
M  V30 1853 H 169.484 1.09978 -3.95493 0
M  V30 1854 H 168.145 1.38099 -2.82113 0
M  V30 1855 H 167.338 0.464163 -5.01858 0
M  V30 1856 H 166.94 -0.642963 -3.68432 0
M  V30 1857 H 169.232 0.0692833 -6.77465 0
M  V30 1858 H 170.175 -1.44682 -6.93161 0
M  V30 1859 H 170.583 -0.280855 -5.63801 0
M  V30 1860 N 169.982 1.44106 -0.638065 0
M  V30 1861 C 170.929 2.30715 0.062701 0
M  V30 1862 C 171.899 1.43882 0.829883 0
M  V30 1863 O 173.084 1.72775 0.809532 0
M  V30 1864 C 170.224 3.29258 1.03358 0
M  V30 1865 C 169.337 4.31192 0.26409 0
M  V30 1866 C 168.472 5.16825 1.22741 0
M  V30 1867 C 167.511 6.10462 0.447475 0
M  V30 1868 N 166.648 6.8877 1.36161 0
M  V30 1869 H 171.488 2.90096 -0.681781 0
M  V30 1870 H 169.025 1.42925 -0.347988 0
M  V30 1871 H 170.983 3.84886 1.60992 0
M  V30 1872 H 169.613 2.71562 1.74511 0
M  V30 1873 H 168.665 3.77981 -0.428295 0
M  V30 1874 H 169.977 4.97619 -0.343052 0
M  V30 1875 H 169.131 5.77004 1.87487 0
M  V30 1876 H 167.87 4.50488 1.86847 0
M  V30 1877 H 166.875 5.49386 -0.213433 0
M  V30 1878 H 168.1 6.78837 -0.188968 0
M  V30 1879 H 166.046 6.25096 1.98975 0
M  V30 1880 H 165.963 7.51663 0.808656 0
M  V30 1881 H 167.231 7.53467 1.99769 0
M  V30 1882 N 171.46 0.379036 1.52974 0
M  V30 1883 C 172.871 -0.0972525 1.86447 0
M  V30 1884 C 173.222 -1.47027 1.29914 0
M  V30 1885 O 172.347 -2.07135 0.626433 0
M  V30 1886 C 172.942 -0.183248 3.38304 0
M  V30 1887 C 171.501 -0.603812 3.71525 0
M  V30 1888 C 170.648 0.240632 2.76254 0
M  V30 1889 H 173.599 0.597316 1.4703 0
M  V30 1890 H 173.62 -1.00432 3.67006 0
M  V30 1891 H 173.132 0.816191 3.79421 0
M  V30 1892 H 171.233 -1.61099 3.35973 0
M  V30 1893 H 171.346 -0.369086 4.77676 0
M  V30 1894 H 169.71 -0.292548 2.53014 0
M  V30 1895 H 170.493 1.23786 3.20206 0
M  V30 1896 N 172.938 -1.57226 0.108567 0
M  V30 1897 C 174.163 -1.99604 -0.563303 0
M  V30 1898 C 174.588 -0.987563 -1.6009 0
M  V30 1899 O 173.946 0.0421687 -1.81251 0
M  V30 1900 C 173.994 -3.40902 -1.17552 0
M  V30 1901 O 173.098 -3.42896 -2.2912 0
M  V30 1902 H 172.439 -0.648704 -0.1417 0
M  V30 1903 H 174.969 -2.03679 0.193961 0
M  V30 1904 H 174.979 -3.78886 -1.51357 0
M  V30 1905 H 173.654 -4.1382 -0.415445 0
M  V30 1906 H 172.231 -3.1672 -1.96832 0
M  V30 1907 N 174.416 0.165178 -1.56732 0
M  V30 1908 C 175.379 1.18822 -1.95995 0
M  V30 1909 C 176.379 1.3685 -0.84431 0
M  V30 1910 O 177.569 1.34152 -1.11126 0
M  V30 1911 C 174.701 2.5521 -2.26011 0
M  V30 1912 H 175.894 0.851825 -2.87548 0
M  V30 1913 H 173.447 0.407857 -1.50885 0
M  V30 1914 H 174.182 2.93852 -1.37191 0
M  V30 1915 H 173.967 2.43489 -3.07336 0
M  V30 1916 H 175.457 3.28927 -2.57288 0
M  V30 1917 N 175.894 1.51508 0.433938 0
M  V30 1918 C 177.14 1.64588 1.18484 0
M  V30 1919 C 177.473 0.362666 1.90784 0
M  V30 1920 O 176.748 -0.637892 1.83742 0
M  V30 1921 C 177.031 2.85149 2.19913 0
M  V30 1922 C 176.884 4.23456 1.51674 0
M  V30 1923 C 178.203 3.01227 3.20858 0
M  V30 1924 H 175.322 0.598994 0.429389 0
M  V30 1925 H 177.964 1.84002 0.473647 0
M  V30 1926 H 176.114 2.68729 2.80566 0
M  V30 1927 H 177.786 4.51552 0.943322 0
M  V30 1928 H 176.029 4.25998 0.819035 0
M  V30 1929 H 176.7 5.03812 2.2556 0
M  V30 1930 H 179.176 3.16382 2.70263 0
M  V30 1931 H 178.052 3.87141 3.89118 0
M  V30 1932 H 178.313 2.13447 3.8716 0
M  V30 1933 N 177.372 -0.689602 1.41712 0
M  V30 1934 C 178.319 -1.80345 1.44029 0
M  V30 1935 C 179.289 -1.63478 0.293948 0
M  V30 1936 O 180.474 -1.84244 0.495869 0
M  V30 1937 C 177.614 -3.18272 1.33405 0
M  V30 1938 C 176.727 -3.46529 2.57956 0
M  V30 1939 C 175.862 -4.74103 2.39582 0
M  V30 1940 C 174.901 -4.95347 3.5958 0
M  V30 1941 N 174.038 -6.14151 3.40239 0
M  V30 1942 H 178.878 -1.77698 2.39222 0
M  V30 1943 H 176.415 -0.867688 1.18784 0
M  V30 1944 H 178.373 -3.97956 1.25246 0
M  V30 1945 H 177.003 -3.2008 0.418164 0
M  V30 1946 H 176.055 -2.61207 2.76542 0
M  V30 1947 H 177.367 -3.58126 3.47199 0
M  V30 1948 H 176.521 -5.61853 2.28924 0
M  V30 1949 H 175.26 -4.64763 1.47805 0
M  V30 1950 H 174.265 -4.06044 3.70686 0
M  V30 1951 H 175.49 -5.06542 4.52318 0
M  V30 1952 H 173.436 -6.06013 2.51167 0
M  V30 1953 H 173.353 -6.26543 4.23061 0
M  V30 1954 H 174.621 -7.04619 3.33365 0
M  V30 1955 N 178.85 -1.27639 -0.924453 0
M  V30 1956 C 180.127 -1.04887 -1.651 0
M  V30 1957 C 180.507 0.415327 -2.06974 0
M  V30 1958 O 179.855 1.39923 -1.80648 0
M  V30 1959 C 180.065 -2.01348 -2.85061 0
M  V30 1960 C 181.413 -2.30899 -3.56329 0
M  V30 1961 O 182.437 -1.99348 -2.95193 0
M  V30 1962 O 181.296 -2.84699 -4.66485 0
M  V30 1963 H 178.39 -0.400083 -0.723784 0
M  V30 1964 H 180.936 -1.38916 -0.974703 0
M  V30 1965 H 179.708 -3.0008 -2.51133 0
M  V30 1966 H 179.331 -1.679 -3.6041 0
M  V30 1967 N 180.328 1.1314 -1.09713 0
M  V30 1968 C 181.553 1.88862 -0.857081 0
M  V30 1969 C 181.978 1.78729 0.586304 0
M  V30 1970 O 181.336 1.13692 1.41222 0
M  V30 1971 C 181.384 3.36325 -1.30069 0
M  V30 1972 O 180.488 4.09815 -0.461007 0
M  V30 1973 H 179.829 0.587108 -0.310162 0
M  V30 1974 H 182.359 1.43129 -1.46203 0
M  V30 1975 H 182.369 3.87157 -1.28738 0
M  V30 1976 H 181.044 3.43017 -2.35185 0
M  V30 1977 H 179.621 3.68986 -0.538888 0
M  V30 1978 N 181.806 0.884767 1.30421 0
M  V30 1979 C 183.055 0.499164 1.95426 0
M  V30 1980 C 183.368 -0.95645 1.70621 0
M  V30 1981 O 184.574 -1.44889 2.29607 0
M  V30 1982 C 183.03 0.84177 3.49917 0
M  V30 1983 C 182.638 2.31514 3.83543 0
M  V30 1984 C 184.382 0.525355 4.21237 0
M  V30 1985 C 182.289 2.59939 5.31212 0
M  V30 1986 H 181.219 0.182944 0.73147 0
M  V30 1987 H 183.87 1.07971 1.48373 0
M  V30 1988 H 182.252 0.190311 3.95542 0
M  V30 1989 H 183.426 3.0109 3.48829 0
M  V30 1990 H 181.741 2.59907 3.25326 0
M  V30 1991 H 184.338 0.714762 5.29901 0
M  V30 1992 H 184.681 -0.535222 4.12845 0
M  V30 1993 H 185.214 1.134 3.81294 0
M  V30 1994 H 181.953 3.64736 5.44654 0
M  V30 1995 H 181.473 1.94972 5.67227 0
M  V30 1996 H 183.152 2.45429 5.98643 0
M  V30 1997 N 183.284 -1.43765 0.645699 0
M  V30 1998 C 184.514 -2.05953 0.163318 0
M  V30 1999 C 184.922 -1.48432 -1.17322 0
M  V30 2000 O 184.265 -0.607295 -1.73371 0
M  V30 2001 C 184.327 -3.59499 -0.0103065 0
M  V30 2002 C 183.991 -4.39563 1.25035 0
M  V30 2003 C 184.988 -4.72108 2.17739 0
M  V30 2004 C 182.673 -4.79697 1.48983 0
M  V30 2005 C 184.667 -5.43688 3.3269 0
M  V30 2006 C 182.354 -5.51023 2.64229 0
M  V30 2007 C 183.352 -5.8294 3.55908 0
M  V30 2008 O 183.04 -6.5281 4.69142 0
M  V30 2009 H 182.772 -0.670798 0.0836986 0
M  V30 2010 H 185.326 -1.85384 0.884407 0
M  V30 2011 H 183.556 -3.78613 -0.78669 0
M  V30 2012 H 185.245 -4.03408 -0.449087 0
M  V30 2013 H 186.011 -4.41627 2.00476 0
M  V30 2014 H 181.89 -4.54266 0.785078 0
M  V30 2015 H 185.434 -5.68517 4.04269 0
M  V30 2016 H 181.331 -5.8092 2.81429 0
M  V30 2017 H 182.099 -6.71288 4.6831 0
M  V30 2018 N 184.763 -0.387143 -1.52771 0
M  V30 2019 C 185.711 0.463953 -2.27926 0
M  V30 2020 C 186.705 1.06493 -1.31741 0
M  V30 2021 O 187.911 1.00565 -1.49287 0
M  V30 2022 H 184.286 0.16837 -0.732909 0
M  V30 2023 H 186.257 -0.19141 -2.97785 0
M  V30 2024 C 185.006 1.5803 -3.09713 0
M  V30 2025 H 184.329 1.12718 -3.83581 0
M  V30 2026 H 185.769 2.15008 -3.65442 0
M  V30 2027 C 184.228 2.53509 -2.2189 0
M  V30 2028 O 184.758 3.56863 -1.84422 0
M  V30 2029 N 182.964 2.23199 -1.86093 0
M  V30 2030 H 182.511 1.39185 -2.16761 0
M  V30 2031 H 182.469 2.87333 -1.27621 0
M  V30 2032 N 186.241 1.57166 -0.116904 0
M  V30 2033 C 187.204 2.14039 0.819742 0
M  V30 2034 C 188.204 1.07477 1.19605 0
M  V30 2035 O 189.394 1.33263 1.1219 0
M  V30 2036 C 186.526 2.67891 2.10826 0
M  V30 2037 H 187.719 2.98128 0.325511 0
M  V30 2038 H 185.272 1.55739 0.132312 0
M  V30 2039 H 186.007 1.87384 2.64685 0
M  V30 2040 H 185.792 3.45823 1.84793 0
M  V30 2041 H 187.282 3.11809 2.77785 0
M  V30 2042 N 187.719 -0.156864 1.56817 0
M  V30 2043 C 188.965 -0.872416 1.83076 0
M  V30 2044 C 189.298 -1.81261 0.697001 0
M  V30 2045 O 188.573 -1.92171 -0.30008 0
M  V30 2046 C 188.856 -1.65551 3.19789 0
M  V30 2047 C 188.709 -0.737467 4.43713 0
M  V30 2048 C 190.028 -2.62012 3.53606 0
M  V30 2049 H 187.147 -0.315715 0.665953 0
M  V30 2050 H 189.789 -0.138004 1.89498 0
M  V30 2051 H 187.939 -2.28159 3.14445 0
M  V30 2052 H 189.611 -0.123143 4.61136 0
M  V30 2053 H 187.854 -0.0464067 4.33775 0
M  V30 2054 H 188.525 -1.32122 5.35955 0
M  V30 2055 H 191.001 -2.09525 3.59497 0
M  V30 2056 H 189.877 -3.13861 4.50314 0
M  V30 2057 H 190.138 -3.42902 2.79053 0
M  V30 2058 N 189.197 -1.51736 -0.425897 0
M  V30 2059 C 190.422 -1.69082 -1.20108 0
M  V30 2060 C 190.847 -0.392398 -1.83962 0
M  V30 2061 O 190.205 0.64858 -1.69302 0
M  V30 2062 C 190.253 -2.81604 -2.25237 0
M  V30 2063 O 189.357 -2.46004 -3.30992 0
M  V30 2064 H 188.698 -0.563408 -0.35138 0
M  V30 2065 H 191.228 -1.98358 -0.501512 0
M  V30 2066 H 191.238 -3.06025 -2.69838 0
M  V30 2067 H 189.913 -3.75817 -1.78142 0
M  V30 2068 H 188.49 -2.32195 -2.91787 0
M  V30 2069 N 190.675 0.682077 -1.42076 0
M  V30 2070 C 191.924 1.43786 -1.41451 0
M  V30 2071 C 192.237 1.95574 -0.0317074 0
M  V30 2072 O 193.443 2.71326 0.0971462 0
M  V30 2073 C 191.899 2.60071 -2.48779 0
M  V30 2074 C 191.507 2.15013 -3.93031 0
M  V30 2075 C 193.251 3.37626 -2.57311 0
M  V30 2076 C 191.158 3.28336 -4.91883 0
M  V30 2077 H 190.088 0.540143 -0.526082 0
M  V30 2078 H 192.739 0.739157 -1.67955 0
M  V30 2079 H 191.121 3.32275 -2.15429 0
M  V30 2080 H 192.295 1.5001 -4.35699 0
M  V30 2081 H 190.61 1.50416 -3.88284 0
M  V30 2082 H 193.207 4.22012 -3.28345 0
M  V30 2083 H 193.55 3.83727 -1.61429 0
M  V30 2084 H 194.083 2.72488 -2.89819 0
M  V30 2085 H 190.822 2.87234 -5.89217 0
M  V30 2086 H 190.342 3.92145 -4.53853 0
M  V30 2087 H 192.021 3.93913 -5.13265 0
M  V30 2088 N 192.153 1.28127 0.917671 0
M  V30 2089 C 193.399 1.16232 1.66918 0
M  V30 2090 C 193.754 -0.28701 1.90247 0
M  V30 2091 O 193.047 -1.20586 1.48895 0
M  V30 2092 C 193.241 1.89018 3.03327 0
M  V30 2093 C 193.07 3.4088 2.9331 0
M  V30 2094 C 191.84 4.10214 2.95047 0
M  V30 2095 C 194.038 4.36689 2.71675 0
M  V30 2096 N 192.02 5.48571 2.75577 0
M  V30 2097 C 193.391 5.62382 2.6101 0
M  V30 2098 C 195.446 4.26661 2.56641 0
M  V30 2099 C 194.149 6.79189 2.36843 0
M  V30 2100 C 196.175 5.432 2.33853 0
M  V30 2101 C 195.537 6.67855 2.23939 0
M  V30 2102 H 191.636 0.48024 0.617166 0
M  V30 2103 H 194.22 1.61727 1.08409 0
M  V30 2104 H 192.391 1.45963 3.59929 0
M  V30 2105 H 194.123 1.69541 3.67475 0
M  V30 2106 H 190.878 3.61762 3.05655 0
M  V30 2107 H 191.302 6.21287 2.68945 0
M  V30 2108 H 195.944 3.30998 2.63059 0
M  V30 2109 H 193.662 7.74926 2.29164 0
M  V30 2110 H 197.248 5.37328 2.23091 0
M  V30 2111 H 196.128 7.56511 2.06546 0
M  V30 2112 N 193.631 -1.12557 1.10312 0
M  V30 2113 C 194.856 -1.88405 0.867085 0
M  V30 2114 C 195.281 -1.79038 -0.576817 0
M  V30 2115 O 194.639 -1.14439 -1.40618 0
M  V30 2116 C 194.687 -3.3563 1.31851 0
M  V30 2117 O 193.791 -4.09565 0.482734 0
M  V30 2118 H 193.132 -0.585455 0.313271 0
M  V30 2119 H 195.662 -1.42352 1.4696 0
M  V30 2120 H 195.672 -3.86469 1.3079 0
M  V30 2121 H 194.347 -3.41765 2.37001 0
M  V30 2122 H 192.924 -3.68695 0.558448 0
M  V30 2123 N 195.109 -0.891671 -1.2995 0
M  V30 2124 C 196.057 -0.353066 -2.29905 0
M  V30 2125 C 197.051 0.543509 -1.60444 0
M  V30 2126 O 198.257 0.4272 -1.74857 0
M  V30 2127 H 194.632 -0.095531 -0.745907 0
M  V30 2128 H 196.603 -1.20961 -2.72784 0
M  V30 2129 C 195.352 0.411475 -3.45257 0
M  V30 2130 H 194.675 -0.269182 -3.98893 0
M  V30 2131 H 196.115 0.753328 -4.17254 0
M  V30 2132 C 194.574 1.6111 -2.9588 0
M  V30 2133 O 195.104 2.71045 -2.96475 0
M  V30 2134 N 193.31 1.45054 -2.51809 0
M  V30 2135 H 192.857 0.556175 -2.51524 0
M  V30 2136 H 192.815 2.25453 -2.1913 0
M  V30 2137 N 196.587 1.43421 -0.653314 0
M  V30 2138 C 197.833 2.02111 -0.166992 0
M  V30 2139 C 198.166 1.51423 1.21592 0
M  V30 2140 O 197.441 0.707389 1.8118 0
M  V30 2141 C 197.724 3.5966 -0.177948 0
M  V30 2142 C 197.577 4.20579 -1.59478 0
M  V30 2143 C 198.896 4.37413 0.4856 0
M  V30 2144 H 196.015 0.734374 -0.0621557 0
M  V30 2145 H 198.657 1.70717 -0.834016 0
M  V30 2146 H 196.807 3.86537 0.390032 0
M  V30 2147 H 198.479 4.04732 -2.21336 0
M  V30 2148 H 196.722 3.77226 -2.14204 0
M  V30 2149 H 197.393 5.29665 -1.5543 0
M  V30 2150 H 199.869 4.161 0.00234528 0
M  V30 2151 H 198.745 5.47075 0.447207 0
M  V30 2152 H 199.006 4.13672 1.55974 0
M  V30 2153 N 198.065 0.39524 1.52563 0
M  V30 2154 C 199.293 -0.184943 2.06072 0
M  V30 2155 C 199.708 -1.40021 1.26647 0
M  V30 2156 O 199.065 -1.79767 0.314672 0
M  V30 2157 C 199.116 -0.549179 3.57304 0
M  V30 2158 O 198.837 0.617813 4.33722 0
M  V30 2159 C 200.338 -1.18459 4.2718 0
M  V30 2160 H 197.558 -0.0265025 0.670476 0
M  V30 2161 H 200.102 0.562184 1.96621 0
M  V30 2162 H 198.257 -1.2462 3.66809 0
M  V30 2163 H 198.671 0.317091 5.23541 0
M  V30 2164 H 200.145 -1.38976 5.34219 0
M  V30 2165 H 200.622 -2.15368 3.82771 0
M  V30 2166 H 201.228 -0.528163 4.22008 0
M  V30 2167 N 199.544 -1.57102 0.125237 0
M  V30 2168 C 200.955 -1.82384 -0.399142 0
M  V30 2169 C 201.306 -1.04276 -1.66195 0
M  V30 2170 O 200.431 -0.281269 -2.14564 0
M  V30 2171 C 201.026 -3.30821 -0.730932 0
M  V30 2172 C 199.585 -3.56762 -1.19992 0
M  V30 2173 C 198.732 -2.7649 -0.211792 0
M  V30 2174 H 201.683 -1.54786 0.350277 0
M  V30 2175 H 201.704 -3.4579 -1.58775 0
M  V30 2176 H 201.216 -3.87643 0.188345 0
M  V30 2177 H 199.317 -3.05305 -2.13588 0
M  V30 2178 H 199.43 -4.65317 -1.14093 0
M  V30 2179 H 197.794 -2.4489 -0.700085 0
M  V30 2180 H 198.577 -3.36073 0.700691 0
M  V30 2181 N 201.022 0.148545 -1.56898 0
M  V30 2182 C 201.952 1.18524 -2.01182 0
M  V30 2183 C 202.933 1.4489 -0.891123 0
M  V30 2184 O 204.118 1.55836 -1.15882 0
M  V30 2185 C 201.248 2.51879 -2.39112 0
M  V30 2186 C 200.202 2.40038 -3.54353 0
M  V30 2187 C 199.528 3.78089 -3.78091 0
M  V30 2188 C 200.828 1.88577 -4.87069 0
M  V30 2189 H 202.522 0.817029 -2.88036 0
M  V30 2190 H 200.068 0.391575 -1.38574 0
M  V30 2191 H 202.021 3.24627 -2.68692 0
M  V30 2192 H 200.745 2.90532 -1.49193 0
M  V30 2193 H 199.404 1.69742 -3.24936 0
M  V30 2194 H 199.052 4.14175 -2.85426 0
M  V30 2195 H 198.752 3.71028 -4.55645 0
M  V30 2196 H 200.276 4.52387 -4.10095 0
M  V30 2197 H 201.69 2.51117 -5.15377 0
M  V30 2198 H 200.087 1.9241 -5.68417 0
M  V30 2199 H 201.157 0.84136 -4.77545 0
M  V30 2200 N 202.5 1.5196 0.417844 0
M  V30 2201 C 203.749 1.6482 1.16264 0
M  V30 2202 C 204.062 0.379886 1.91876 0
M  V30 2203 O 205.268 0.388154 2.68711 0
M  V30 2204 C 203.724 2.91161 2.1155 0
M  V30 2205 C 203.332 4.25068 1.41495 0
M  V30 2206 C 205.076 3.13383 2.86341 0
M  V30 2207 C 202.983 5.42541 2.35379 0
M  V30 2208 H 201.913 0.613954 0.437694 0
M  V30 2209 H 204.564 1.78442 0.427871 0
M  V30 2210 H 202.946 2.71218 2.88543 0
M  V30 2211 H 204.12 4.55463 0.699263 0
M  V30 2212 H 202.435 4.0888 0.787792 0
M  V30 2213 H 205.032 3.98324 3.5671 0
M  V30 2214 H 205.375 2.27256 3.48798 0
M  V30 2215 H 205.908 3.33757 2.1645 0
M  V30 2216 H 202.647 6.30987 1.77582 0
M  V30 2217 H 202.167 5.16497 3.04945 0
M  V30 2218 H 203.846 5.75272 2.96093 0
M  V30 2219 N 203.978 -0.674533 1.42435 0
M  V30 2220 C 205.225 -1.43459 1.42919 0
M  V30 2221 C 205.553 -1.94446 0.0457312 0
M  V30 2222 O 204.808 -1.7132 -0.94593 0
M  V30 2223 C 205.107 -2.64767 2.40069 0
M  V30 2224 C 204.773 -2.3232 3.86443 0
M  V30 2225 C 203.435 -2.23182 4.26314 0
M  V30 2226 C 205.787 -2.05977 4.78773 0
M  V30 2227 C 203.115 -1.85827 5.56494 0
M  V30 2228 C 205.467 -1.70125 6.09295 0
M  V30 2229 C 204.131 -1.59498 6.48164 0
M  V30 2230 H 203.401 -0.524952 0.522978 0
M  V30 2231 H 206.048 -0.769097 1.75377 0
M  V30 2232 H 204.353 -3.36349 2.00939 0
M  V30 2233 H 206.05 -3.22949 2.37707 0
M  V30 2234 H 202.64 -2.40334 3.54877 0
M  V30 2235 H 206.824 -2.11969 4.48757 0
M  V30 2236 H 202.08 -1.76168 5.8547 0
M  V30 2237 H 206.254 -1.48767 6.80324 0
M  V30 2238 H 203.881 -1.30322 7.48946 0
M  V30 2239 N 205.456 -1.28612 -0.910864 0
M  V30 2240 C 206.388 -1.08589 -2.01844 0
M  V30 2241 C 207.401 -0.0367419 -1.62759 0
M  V30 2242 O 208.59 -0.280101 -1.76289 0
M  V30 2243 C 205.69 -0.628626 -3.33019 0
M  V30 2244 C 204.863 -1.75382 -4.00699 0
M  V30 2245 C 203.922 -1.28945 -5.10156 0
M  V30 2246 O 202.948 -1.9922 -5.33198 0
M  V30 2247 N 204.15 -0.154224 -5.80295 0
M  V30 2248 H 206.915 -2.03973 -2.19579 0
M  V30 2249 H 204.476 -1.20403 -1.08234 0
M  V30 2250 H 206.468 -0.301508 -4.03575 0
M  V30 2251 H 205.038 0.232451 -3.11735 0
M  V30 2252 H 204.258 -2.25039 -3.23653 0
M  V30 2253 H 205.546 -2.50854 -4.42662 0
M  V30 2254 H 204.944 0.43194 -5.64049 0
M  V30 2255 H 203.501 0.113599 -6.51701 0
M  V30 2256 N 206.934 1.1197 -1.10907 0
M  V30 2257 C 207.866 2.17592 -0.720175 0
M  V30 2258 C 208.879 1.60938 0.245495 0
M  V30 2259 O 210.068 1.78476 0.0292245 0
M  V30 2260 C 207.168 3.38873 -0.0427917 0
M  V30 2261 C 206.341 4.25006 -1.03388 0
M  V30 2262 C 205.4 5.24774 -0.387075 0
M  V30 2263 O 204.426 5.59631 -1.03934 0
M  V30 2264 N 205.628 5.74208 0.852407 0
M  V30 2265 H 208.393 2.51567 -1.62893 0
M  V30 2266 H 205.954 1.27439 -0.998543 0
M  V30 2267 H 207.946 4.02703 0.401501 0
M  V30 2268 H 206.516 3.03007 0.768456 0
M  V30 2269 H 205.736 3.57716 -1.65629 0
M  V30 2270 H 207.024 4.79397 -1.70458 0
M  V30 2271 H 206.422 5.48062 1.40161 0
M  V30 2272 H 204.979 6.39901 1.23977 0
M  V30 2273 N 208.412 0.89855 1.29475 0
M  V30 2274 C 209.658 0.524658 1.95896 0
M  V30 2275 C 209.991 -0.926468 1.70676 0
M  V30 2276 O 209.266 -1.65665 1.01908 0
M  V30 2277 C 209.549 0.81633 3.50725 0
M  V30 2278 C 209.402 2.31907 3.85408 0
M  V30 2279 C 210.721 0.302038 4.39062 0
M  V30 2280 H 207.84 0.19209 0.711527 0
M  V30 2281 H 210.482 1.12502 1.53112 0
M  V30 2282 H 208.632 0.305369 3.87298 0
M  V30 2283 H 210.304 2.89949 3.58786 0
M  V30 2284 H 208.547 2.78027 3.32992 0
M  V30 2285 H 209.218 2.47373 4.93468 0
M  V30 2286 H 211.694 0.739551 4.09475 0
M  V30 2287 H 210.57 0.535331 5.46283 0
M  V30 2288 H 210.831 -0.797216 4.34853 0
M  V30 2289 N 209.89 -1.43072 0.660911 0
M  V30 2290 C 210.822 -2.29108 -0.0647641 0
M  V30 2291 C 211.835 -1.42928 -0.779448 0
M  V30 2292 O 213.024 -1.66788 -0.635921 0
M  V30 2293 C 210.124 -3.20032 -1.11503 0
M  V30 2294 C 209.297 -4.34792 -0.476955 0
M  V30 2295 C 208.356 -5.06534 -1.42513 0
M  V30 2296 O 207.382 -5.61538 -0.930771 0
M  V30 2297 N 208.584 -5.1075 -2.75889 0
M  V30 2298 H 211.349 -2.92029 0.673731 0
M  V30 2299 H 208.91 -1.53846 0.50427 0
M  V30 2300 H 210.902 -3.64892 -1.75032 0
M  V30 2301 H 209.472 -2.58658 -1.75541 0
M  V30 2302 H 208.692 -3.92752 0.337572 0
M  V30 2303 H 209.98 -5.0879 -0.0318525 0
M  V30 2304 H 209.378 -4.67447 -3.18606 0
M  V30 2305 H 207.935 -5.59302 -3.347 0
M  V30 2306 N 211.368 -0.403325 -1.52352 0
M  V30 2307 C 212.316 0.439752 -2.28405 0
M  V30 2308 C 213.31 1.05089 -1.32863 0
M  V30 2309 O 214.516 0.989759 -1.50345 0
M  V30 2310 H 210.891 0.160587 -0.734653 0
M  V30 2311 H 212.862 -0.222983 -2.97566 0
M  V30 2312 C 211.611 1.54736 -3.11371 0
M  V30 2313 H 210.934 1.08643 -3.84755 0
M  V30 2314 H 212.374 2.1112 -3.67701 0
M  V30 2315 C 210.833 2.51141 -2.24566 0
M  V30 2316 O 211.363 3.54887 -1.88196 0
M  V30 2317 N 209.569 2.21213 -1.8845 0
M  V30 2318 H 209.116 1.36878 -2.18225 0
M  V30 2319 H 209.074 2.85963 -1.30662 0
M  V30 2320 N 212.846 1.57033 -0.133567 0
M  V30 2321 C 214.094 1.953 0.519848 0
M  V30 2322 C 214.415 1.01866 1.66278 0
M  V30 2323 O 213.685 0.0776513 1.95746 0
M  V30 2324 H 212.265 0.721091 0.195032 0
M  V30 2325 H 214.927 1.93809 -0.205921 0
M  V30 2326 H 214.023 2.98695 0.904854 0
M  V30 2327 N 214.325 -0.140222 1.56975 0
M  V30 2328 C 215.602 -0.880769 1.74648 0
M  V30 2329 C 215.982 -1.99036 0.703404 0
M  V30 2330 O 215.33 -2.26821 -0.27648 0
M  V30 2331 C 215.54 -1.417 3.18939 0
M  V30 2332 C 216.888 -1.87774 3.80823 0
M  V30 2333 O 217.912 -1.51427 3.2241 0
M  V30 2334 O 216.771 -2.54827 4.83452 0
M  V30 2335 H 213.865 -0.416713 0.714338 0
M  V30 2336 H 216.411 -0.125618 1.69234 0
M  V30 2337 H 215.183 -0.619902 3.86359 0
M  V30 2338 H 214.806 -2.23546 3.28805 0
M  V30 2339 N 215.803 -1.52179 -0.40978 0
M  V30 2340 C 216.766 -1.74853 -1.48186 0
M  V30 2341 C 217.766 -0.618417 -1.48433 0
M  V30 2342 O 218.956 -0.886286 -1.49969 0
M  V30 2343 C 216.088 -1.8303 -2.87598 0
M  V30 2344 H 217.281 -2.70559 -1.29374 0
M  V30 2345 H 214.834 -1.42586 -0.640233 0
M  V30 2346 H 215.569 -0.89236 -3.11781 0
M  V30 2347 H 215.354 -2.65187 -2.88822 0
M  V30 2348 H 216.844 -2.02316 -3.65319 0
M  V30 2349 N 217.281 0.66697 -1.42791 0
M  V30 2350 C 218.558 1.4234 -1.34159 0
M  V30 2351 C 218.938 2.11093 0.0172729 0
M  V30 2352 O 218.286 2.03808 1.03318 0
M  V30 2353 C 218.496 2.41942 -2.51526 0
M  V30 2354 C 219.844 3.06353 -2.93995 0
M  V30 2355 O 220.868 2.52269 -2.51473 0
M  V30 2356 O 219.727 4.04376 -3.67617 0
M  V30 2357 H 216.821 0.635277 -0.529483 0
M  V30 2358 H 219.367 0.695034 -1.54814 0
M  V30 2359 H 218.139 1.89991 -3.42081 0
M  V30 2360 H 217.762 3.22249 -2.32898 0
M  V30 2361 N 218.759 1.29093 0.90403 0
M  V30 2362 C 220.008 1.16187 1.64874 0
M  V30 2363 C 220.321 -0.286742 1.93487 0
M  V30 2364 O 221.527 -0.537062 2.66135 0
M  V30 2365 C 219.983 2.03177 2.97064 0
M  V30 2366 C 219.591 3.52836 2.76062 0
M  V30 2367 C 221.335 1.98984 3.74974 0
M  V30 2368 C 219.242 4.31945 4.03952 0
M  V30 2369 H 218.172 0.431246 0.618501 0
M  V30 2370 H 220.823 1.53699 1.00243 0
M  V30 2371 H 219.205 1.5853 3.62883 0
M  V30 2372 H 220.379 4.05507 2.18863 0
M  V30 2373 H 218.694 3.58656 2.11553 0
M  V30 2374 H 221.291 2.55351 4.69787 0
M  V30 2375 H 221.634 0.968815 4.0487 0
M  V30 2376 H 222.167 2.41652 3.15989 0
M  V30 2377 H 218.906 5.34667 3.79225 0
M  V30 2378 H 218.426 3.84045 4.60727 0
M  V30 2379 H 220.105 4.42379 4.72133 0
M  V30 2380 N 220.237 -1.11381 1.11499 0
M  V30 2381 C 221.184 -2.17439 0.773887 0
M  V30 2382 C 222.154 -1.64132 -0.254899 0
M  V30 2383 O 223.339 -1.90345 -0.13168 0
M  V30 2384 C 220.479 -3.44373 0.223917 0
M  V30 2385 C 219.592 -4.1168 1.30934 0
M  V30 2386 C 218.727 -5.263 0.71984 0
M  V30 2387 C 217.766 -5.85493 1.78507 0
M  V30 2388 N 216.903 -6.91507 1.21502 0
M  V30 2389 H 221.743 -2.45962 1.68246 0
M  V30 2390 H 219.28 -1.20744 0.840191 0
M  V30 2391 H 221.238 -4.17047 -0.112921 0
M  V30 2392 H 219.868 -3.16232 -0.647851 0
M  V30 2393 H 218.92 -3.37073 1.76312 0
M  V30 2394 H 220.232 -4.51729 2.11524 0
M  V30 2395 H 219.386 -6.05785 0.333094 0
M  V30 2396 H 218.125 -4.87559 -0.117377 0
M  V30 2397 H 217.13 -5.04686 2.18111 0
M  V30 2398 H 218.355 -6.26301 2.62533 0
M  V30 2399 H 216.301 -6.54783 0.399455 0
M  V30 2400 H 216.218 -7.30214 1.95763 0
M  V30 2401 H 217.486 -7.74795 0.855181 0
M  V30 2402 N 221.715 -0.905404 -1.28997 0
M  V30 2403 C 222.961 -0.535039 -1.95615 0
M  V30 2404 C 223.294 0.917404 -1.71165 0
M  V30 2405 O 222.569 1.65123 -1.02785 0
M  V30 2406 C 222.852 -0.834918 -3.50287 0
M  V30 2407 C 222.705 -2.33948 -3.84172 0
M  V30 2408 C 224.024 -0.325318 -4.38896 0
M  V30 2409 H 221.143 -0.195861 -0.710498 0
M  V30 2410 H 223.785 -1.13313 -1.52513 0
M  V30 2411 H 221.935 -0.325904 -3.87131 0
M  V30 2412 H 223.607 -2.91847 -3.57243 0
M  V30 2413 H 221.85 -2.79789 -3.31513 0
M  V30 2414 H 222.521 -2.49987 -4.92149 0
M  V30 2415 H 224.997 -0.761256 -4.09077 0
M  V30 2416 H 223.873 -0.564295 -5.45992 0
M  V30 2417 H 224.134 0.774144 -4.35269 0
M  V30 2418 N 223.193 1.4272 -0.668489 0
M  V30 2419 C 224.418 2.06484 -0.194758 0
M  V30 2420 C 224.843 1.49862 1.13679 0
M  V30 2421 O 224.201 0.614582 1.70565 0
M  V30 2422 C 224.249 3.60353 -0.133546 0
M  V30 2423 O 223.353 4.02464 0.899806 0
M  V30 2424 H 222.694 0.656137 -0.10188 0
M  V30 2425 H 225.224 1.82964 -0.915722 0
M  V30 2426 H 225.234 4.07976 0.0447041 0
M  V30 2427 H 223.909 4.00938 -1.1055 0
M  V30 2428 H 222.486 3.66402 0.693109 0
M  V30 2429 N 224.671 0.411399 1.52136 0
M  V30 2430 C 225.918 -0.163645 2.01838 0
M  V30 2431 C 226.246 -1.4495 1.29691 0
M  V30 2432 O 225.501 -1.91725 0.392431 0
M  V30 2433 C 225.8 -0.455872 3.54481 0
M  V30 2434 C 225.466 0.741055 4.44769 0
M  V30 2435 C 224.128 1.06936 4.69167 0
M  V30 2436 C 226.48 1.54075 4.97906 0
M  V30 2437 C 223.808 2.19851 5.43951 0
M  V30 2438 C 226.16 2.66067 5.73926 0
M  V30 2439 C 224.824 2.99381 5.96596 0
M  V30 2440 H 224.094 -0.0598821 0.738576 0
M  V30 2441 H 226.741 0.553283 1.83333 0
M  V30 2442 H 225.046 -1.2544 3.71177 0
M  V30 2443 H 226.743 -0.913802 3.90449 0
M  V30 2444 H 223.333 0.475192 4.25958 0
M  V30 2445 H 227.517 1.30033 4.78963 0
M  V30 2446 H 222.773 2.46006 5.59724 0
M  V30 2447 H 226.947 3.28419 6.14096 0
M  V30 2448 H 224.574 3.86992 6.54325 0
M  V30 2449 N 226.149 -1.5696 0.141893 0
M  V30 2450 C 227.395 -1.97034 -0.504884 0
M  V30 2451 C 227.75 -1.02518 -1.62812 0
M  V30 2452 O 227.043 -0.0592943 -1.91508 0
M  V30 2453 C 227.237 -3.41242 -1.06249 0
M  V30 2454 C 227.066 -4.497 0.00519653 0
M  V30 2455 C 225.836 -5.03338 0.444873 0
M  V30 2456 C 228.034 -5.08122 0.794767 0
M  V30 2457 N 226.016 -5.95395 1.49593 0
M  V30 2458 C 227.387 -5.96339 1.69645 0
M  V30 2459 C 229.442 -4.9071 0.843122 0
M  V30 2460 C 228.145 -6.69009 2.64233 0
M  V30 2461 C 230.171 -5.64077 1.77681 0
M  V30 2462 C 229.533 -6.51999 2.66603 0
M  V30 2463 H 225.632 -0.766745 -0.153707 0
M  V30 2464 H 228.216 -1.93273 0.235313 0
M  V30 2465 H 226.387 -3.45606 -1.77231 0
M  V30 2466 H 228.119 -3.68389 -1.67546 0
M  V30 2467 H 224.874 -4.73576 0.0480959 0
M  V30 2468 H 225.298 -6.46128 2.02107 0
M  V30 2469 H 229.94 -4.22459 0.169732 0
M  V30 2470 H 227.658 -7.36492 3.32575 0
M  V30 2471 H 231.244 -5.52602 1.81996 0
M  V30 2472 H 230.124 -7.07775 3.37675 0
M  V30 2473 N 227.627 0.131896 -1.57047 0
M  V30 2474 C 228.559 1.1878 -1.9602 0
M  V30 2475 C 229.572 1.38363 -0.857875 0
M  V30 2476 O 230.761 1.37666 -1.13623 0
M  V30 2477 C 227.861 2.55008 -2.23213 0
M  V30 2478 C 227.034 2.56201 -3.54513 0
M  V30 2479 C 226.093 3.7408 -3.70069 0
M  V30 2480 O 225.119 3.58258 -4.42312 0
M  V30 2481 N 226.321 4.92137 -3.07866 0
M  V30 2482 H 229.086 0.85639 -2.87204 0
M  V30 2483 H 226.647 0.321309 -1.5868 0
M  V30 2484 H 228.639 3.32404 -2.30846 0
M  V30 2485 H 227.209 2.80382 -1.3822 0
M  V30 2486 H 226.429 1.64613 -3.58185 0
M  V30 2487 H 227.717 2.54043 -4.4084 0
M  V30 2488 H 227.115 5.07895 -2.49116 0
M  V30 2489 H 225.672 5.67254 -3.21039 0
M  V30 2490 N 229.106 1.52395 0.401703 0
M  V30 2491 C 230.352 1.68019 1.14635 0
M  V30 2492 C 230.707 0.408722 1.88009 0
M  V30 2493 O 230 -0.597133 1.82057 0
M  V30 2494 C 230.194 2.84578 2.16217 0
M  V30 2495 C 230.023 4.22938 1.5282 0
M  V30 2496 C 228.793 4.88352 1.29772 0
M  V30 2497 C 230.991 5.04778 0.985094 0
M  V30 2498 N 228.973 6.10726 0.623455 0
M  V30 2499 C 230.344 6.1845 0.438172 0
M  V30 2500 C 232.399 4.90057 0.880275 0
M  V30 2501 C 231.102 7.19013 -0.203306 0
M  V30 2502 C 233.128 5.9086 0.252639 0
M  V30 2503 C 232.49 7.03829 -0.283573 0
M  V30 2504 H 228.589 0.668413 0.405892 0
M  V30 2505 H 231.173 1.89717 0.437674 0
M  V30 2506 H 229.344 2.64483 2.84435 0
M  V30 2507 H 231.076 2.89202 2.83098 0
M  V30 2508 H 227.831 4.46846 1.56926 0
M  V30 2509 H 228.255 6.76323 0.302733 0
M  V30 2510 H 232.897 4.02938 1.28065 0
M  V30 2511 H 230.615 8.05751 -0.615726 0
M  V30 2512 H 234.201 5.81543 0.172954 0
M  V30 2513 H 233.081 7.80493 -0.761575 0
M  V30 2514 N 230.584 -0.659388 1.43143 0
M  V30 2515 C 231.547 -1.75432 1.47501 0
M  V30 2516 C 232.547 -1.56707 0.360512 0
M  V30 2517 O 233.737 -1.62717 0.622002 0
M  V30 2518 C 230.869 -3.14239 1.32162 0
M  V30 2519 H 232.062 -1.7295 2.45006 0
M  V30 2520 H 229.615 -0.870469 1.29817 0
M  V30 2521 H 230.35 -3.22336 0.356401 0
M  V30 2522 H 230.135 -3.29235 2.12948 0
M  V30 2523 H 231.625 -3.94094 1.3813 0
M  V30 2524 N 232.062 -1.29571 -0.897171 0
M  V30 2525 C 233.012 -1.11539 -1.98855 0
M  V30 2526 C 233.996 -0.0340716 -1.60864 0
M  V30 2527 O 235.188 -0.256062 -1.75138 0
M  V30 2528 C 232.317 -0.796603 -3.3393 0
M  V30 2529 C 231.403 -1.91758 -3.78272 0
M  V30 2530 N 231.794 -3.16143 -3.94826 0
M  V30 2531 C 230.092 -1.81119 -4.07568 0
M  V30 2532 C 230.793 -3.89293 -4.32233 0
M  V30 2533 N 229.769 -3.17255 -4.41419 0
M  V30 2534 H 233.571 -2.05894 -2.09726 0
M  V30 2535 H 231.085 -1.20732 -1.08616 0
M  V30 2536 H 233.082 -0.648459 -4.11826 0
M  V30 2537 H 231.742 0.139003 -3.24402 0
M  V30 2538 H 232.753 -3.5157 -3.80288 0
M  V30 2539 H 229.43 -0.948461 -4.06584 0
M  V30 2540 H 230.82 -4.9635 -4.52865 0
M  V30 2541 N 233.54 1.10788 -1.12088 0
M  V30 2542 C 234.45 2.20599 -0.798338 0
M  V30 2543 C 235.466 1.72712 0.21135 0
M  V30 2544 O 236.642 2.01348 0.0458477 0
M  V30 2545 C 233.707 3.45771 -0.253674 0
M  V30 2546 C 232.768 4.08411 -1.32283 0
M  V30 2547 C 232.001 5.27608 -0.80406 0
M  V30 2548 O 232.224 5.69241 0.363478 0
M  V30 2549 O 231.158 5.8101 -1.57198 0
M  V30 2550 H 234.984 2.50614 -1.7154 0
M  V30 2551 H 232.569 1.19454 -0.897275 0
M  V30 2552 H 234.451 4.21376 0.0453691 0
M  V30 2553 H 233.126 3.1739 0.636005 0
M  V30 2554 H 232.033 3.34507 -1.67499 0
M  V30 2555 H 233.366 4.40986 -2.18614 0
M  V30 2556 N 235.018 0.912232 1.28515 0
M  V30 2557 C 236.295 0.463597 1.90027 0
M  V30 2558 C 236.675 -1.05753 1.82701 0
M  V30 2559 O 236.023 -1.90492 1.26194 0
M  V30 2560 C 236.233 0.992253 3.34597 0
M  V30 2561 C 237.581 1.04344 4.11579 0
M  V30 2562 O 238.605 0.94079 3.43551 0
M  V30 2563 O 237.464 1.1995 5.33174 0
M  V30 2564 H 234.558 0.146666 0.813891 0
M  V30 2565 H 237.104 1.00292 1.36893 0
M  V30 2566 H 235.876 2.03623 3.34146 0
M  V30 2567 H 235.499 0.433672 3.95228 0
M  V30 2568 N 236.496 -1.42363 0.676048 0
M  V30 2569 C 237.744 -2.01123 0.198437 0
M  V30 2570 C 238.065 -1.53731 -1.19966 0
M  V30 2571 O 237.335 -0.759518 -1.80577 0
M  V30 2572 H 235.915 -0.743678 0.0703721 0
M  V30 2573 H 238.577 -1.74263 0.872837 0
M  V30 2574 H 237.673 -3.11454 0.200686 0
M  V30 2575 N 237.974 -0.419461 -1.51915 0
M  V30 2576 C 239.22 0.145505 -2.02879 0
M  V30 2577 C 239.575 1.41926 -1.29903 0
M  V30 2578 O 238.868 1.87383 -0.399782 0
M  V30 2579 C 239.062 0.437067 -3.54717 0
M  V30 2580 C 238.891 -0.806877 -4.42402 0
M  V30 2581 C 237.661 -1.33514 -4.87342 0
M  V30 2582 C 239.859 -1.68796 -4.85811 0
M  V30 2583 N 237.841 -2.53349 -5.59185 0
M  V30 2584 C 239.212 -2.73247 -5.56539 0
M  V30 2585 C 241.267 -1.70449 -4.67816 0
M  V30 2586 C 239.97 -3.79276 -6.11181 0
M  V30 2587 C 241.996 -2.75403 -5.23361 0
M  V30 2588 C 241.358 -3.78575 -5.9402 0
M  V30 2589 H 237.457 0.0145424 -0.781865 0
M  V30 2590 H 240.041 -0.576126 -1.85981 0
M  V30 2591 H 238.212 1.12774 -3.71667 0
M  V30 2592 H 239.944 0.99182 -3.92358 0
M  V30 2593 H 236.699 -0.891657 -4.65131 0
M  V30 2594 H 237.123 -3.14066 -5.99743 0
M  V30 2595 H 241.765 -0.920209 -4.12664 0
M  V30 2596 H 239.483 -4.58554 -6.65397 0
M  V30 2597 H 243.069 -2.77603 -5.113 0
M  V30 2598 H 241.949 -4.58453 -6.36231 0
M  V30 2599 N 239.452 1.56882 -0.150215 0
M  V30 2600 C 240.863 1.82995 0.370076 0
M  V30 2601 C 241.214 1.06907 1.64515 0
M  V30 2602 O 240.339 0.315369 2.1409 0
M  V30 2603 C 240.934 3.31942 0.678208 0
M  V30 2604 C 239.493 3.58625 1.14301 0
M  V30 2605 C 238.64 2.76792 0.167778 0
M  V30 2606 H 241.591 1.54209 -0.374858 0
M  V30 2607 H 241.612 3.48272 1.53254 0
M  V30 2608 H 241.124 3.87294 -0.249991 0
M  V30 2609 H 239.225 3.08664 2.08704 0
M  V30 2610 H 239.338 4.67073 1.06676 0
M  V30 2611 H 237.702 2.45972 0.661037 0
M  V30 2612 H 238.485 3.34916 -0.754069 0
M  V30 2613 N 240.93 -0.123565 1.57115 0
M  V30 2614 C 242.177 -0.832153 1.84612 0
M  V30 2615 C 242.505 -1.80093 0.734627 0
M  V30 2616 O 241.76 -1.93766 -0.27442 0
M  V30 2617 C 242.059 -1.62016 3.18568 0
M  V30 2618 C 241.725 -0.796084 4.43817 0
M  V30 2619 C 240.387 -0.568816 4.77826 0
M  V30 2620 C 242.739 -0.221364 5.2073 0
M  V30 2621 C 240.067 0.243499 5.86194 0
M  V30 2622 C 242.419 0.578117 6.29953 0
M  V30 2623 C 241.083 0.815744 6.62497 0
M  V30 2624 H 240.353 -0.304507 0.675542 0
M  V30 2625 H 243 -0.0947248 1.91266 0
M  V30 2626 H 241.305 -2.42837 3.0747 0
M  V30 2627 H 243.002 -2.17231 3.37064 0
M  V30 2628 H 239.592 -0.983307 4.17168 0
M  V30 2629 H 243.776 -0.384173 4.94811 0
M  V30 2630 H 239.032 0.436871 6.09837 0
M  V30 2631 H 243.206 1.03046 6.88734 0
M  V30 2632 H 240.833 1.44701 7.46301 0
M  V30 2633 N 242.408 -1.52605 -0.393616 0
M  V30 2634 C 243.685 -1.58001 -1.15304 0
M  V30 2635 C 244.065 -0.370385 -2.07825 0
M  V30 2636 O 243.413 0.641638 -2.19306 0
M  V30 2637 C 243.623 -2.91652 -1.91677 0
M  V30 2638 C 244.971 -3.4522 -2.47201 0
M  V30 2639 O 245.995 -2.93495 -2.01839 0
M  V30 2640 O 244.854 -4.35579 -3.3005 0
M  V30 2641 H 241.948 -0.637068 -0.527327 0
M  V30 2642 H 244.494 -1.64939 -0.399141 0
M  V30 2643 H 243.266 -3.71136 -1.23992 0
M  V30 2644 H 242.889 -2.88077 -2.74039 0
M  V30 2645 N 243.887 0.651787 -1.4349 0
M  V30 2646 C 245.135 1.40888 -1.44897 0
M  V30 2647 C 245.456 1.94856 -0.0749086 0
M  V30 2648 O 244.726 1.74518 0.889956 0
M  V30 2649 H 243.306 0.522887 -0.533478 0
M  V30 2650 H 245.968 0.768609 -1.79104 0
M  V30 2651 H 245.064 2.25052 -2.16236 0
M  V30 2652 N 245.365 1.30045 0.890287 0
M  V30 2653 C 246.776 1.16738 1.45702 0
M  V30 2654 C 247.127 -0.233939 1.948 0
M  V30 2655 O 246.252 -1.13021 1.84541 0
M  V30 2656 C 246.847 2.11313 2.64825 0
M  V30 2657 C 245.406 2.02001 3.17604 0
M  V30 2658 C 244.553 2.01699 1.90296 0
M  V30 2659 H 247.504 1.42392 0.700726 0
M  V30 2660 H 247.525 1.69086 3.40867 0
M  V30 2661 H 247.037 3.13294 2.2906 0
M  V30 2662 H 245.138 1.03142 3.5804 0
M  V30 2663 H 245.251 2.90128 3.81264 0
M  V30 2664 H 243.615 1.46427 2.08402 0
M  V30 2665 H 244.398 3.05402 1.56795 0
M  V30 2666 N 246.843 -1.10192 1.12674 0
M  V30 2667 C 248.091 -1.81845 0.881861 0
M  V30 2668 C 248.412 -1.85737 -0.593867 0
M  V30 2669 O 247.682 -1.33724 -1.4316 0
M  V30 2670 H 246.262 -0.673432 0.323261 0
M  V30 2671 H 248.924 -1.33316 1.42172 0
M  V30 2672 H 248.02 -2.85288 1.2656 0
M  V30 2673 N 248.321 -0.919034 -1.28029 0
M  V30 2674 C 249.569 -0.553838 -1.94363 0
M  V30 2675 C 249.89 0.906357 -1.72656 0
M  V30 2676 O 249.16 1.64143 -1.0693 0
M  V30 2677 H 247.74 -0.201834 -0.719216 0
M  V30 2678 H 250.402 -1.16954 -1.55909 0
M  V30 2679 H 249.498 -0.752758 -3.02886 0
M  V30 2680 N 249.799 1.42003 -0.683588 0
M  V30 2681 C 251.048 2.00638 -0.206681 0
M  V30 2682 C 251.361 1.5472 1.19671 0
M  V30 2683 O 252.567 2.05833 1.77045 0
M  V30 2684 C 251.023 3.58487 -0.318632 0
M  V30 2685 C 250.631 4.1339 -1.72663 0
M  V30 2686 C 252.375 4.24384 0.0991141 0
M  V30 2687 C 250.282 5.63633 -1.79087 0
M  V30 2688 H 249.212 0.750408 -0.0735107 0
M  V30 2689 H 251.863 1.62624 -0.850048 0
M  V30 2690 H 250.245 3.94047 0.392781 0
M  V30 2691 H 251.419 3.89273 -2.46583 0
M  V30 2692 H 249.734 3.59976 -2.09299 0
M  V30 2693 H 252.331 5.34652 0.0713833 0
M  V30 2694 H 252.674 4.00505 1.13586 0
M  V30 2695 H 253.207 3.93816 -0.561599 0
M  V30 2696 H 249.946 5.92323 -2.80774 0
M  V30 2697 H 249.466 5.89714 -1.09535 0
M  V30 2698 H 251.145 6.28201 -1.5483 0
M  V30 2699 N 251.277 0.427512 1.51691 0
M  V30 2700 C 252.207 -0.3796 2.30394 0
M  V30 2701 C 253.188 -1.02982 1.35384 0
M  V30 2702 O 254.373 -1.03534 1.643 0
M  V30 2703 C 251.503 -1.48649 3.1388 0
M  V30 2704 C 250.457 -0.960294 4.17088 0
M  V30 2705 C 249.783 -2.16219 4.89033 0
M  V30 2706 C 251.083 -0.00153679 5.223 0
M  V30 2707 H 252.777 0.277164 2.98114 0
M  V30 2708 H 250.323 0.134739 1.43368 0
M  V30 2709 H 252.276 -2.05826 3.67714 0
M  V30 2710 H 251 -2.1714 2.43962 0
M  V30 2711 H 249.659 -0.410806 3.64291 0
M  V30 2712 H 249.307 -2.83307 4.15628 0
M  V30 2713 H 249.007 -1.81654 5.58816 0
M  V30 2714 H 250.531 -2.73968 5.45687 0
M  V30 2715 H 251.945 -0.482687 5.71264 0
M  V30 2716 H 250.342 0.256199 5.99553 0
M  V30 2717 H 251.412 0.938174 4.75738 0
M  V30 2718 N 252.755 -1.56801 0.158532 0
M  V30 2719 C 254.003 -1.96102 -0.488712 0
M  V30 2720 C 254.324 -1.04498 -1.64636 0
M  V30 2721 O 253.594 -0.108783 -1.95598 0
M  V30 2722 H 252.174 -0.724102 -0.183535 0
M  V30 2723 H 254.836 -1.93457 0.236728 0
M  V30 2724 H 253.932 -3.00097 -0.857219 0
M  V30 2725 N 254.233 0.115231 -1.57178 0
M  V30 2726 C 255.183 1.14707 -1.97044 0
M  V30 2727 C 256.167 1.36866 -0.845957 0
M  V30 2728 O 257.359 1.37895 -1.10968 0
M  V30 2729 C 254.488 2.47266 -2.38148 0
M  V30 2730 C 253.574 2.28566 -3.57237 0
M  V30 2731 N 253.965 1.79685 -4.72807 0
M  V30 2732 C 252.263 2.59208 -3.62943 0
M  V30 2733 C 252.964 1.74781 -5.54821 0
M  V30 2734 N 251.94 2.19264 -4.97417 0
M  V30 2735 H 255.742 0.761754 -2.83857 0
M  V30 2736 H 253.256 0.322928 -1.59157 0
M  V30 2737 H 255.253 3.219 -2.64927 0
M  V30 2738 H 253.913 2.86552 -1.52702 0
M  V30 2739 H 254.924 1.49177 -4.9595 0
M  V30 2740 H 251.601 3.02154 -2.88113 0
M  V30 2741 H 252.991 1.38212 -6.57531 0
M  V30 2742 N 255.711 1.52812 0.385517 0
M  V30 2743 C 256.674 1.77188 1.45386 0
M  V30 2744 C 257.674 0.641953 1.4743 0
M  V30 2745 O 258.864 0.910033 1.4854 0
M  V30 2746 C 255.996 1.87582 2.8465 0
M  V30 2747 H 257.189 2.72583 1.25054 0
M  V30 2748 H 254.742 1.43586 0.617467 0
M  V30 2749 H 255.477 0.941849 3.10322 0
M  V30 2750 H 255.262 2.69748 2.84567 0
M  V30 2751 H 256.752 2.08102 3.62054 0
M  V30 2752 N 257.189 -0.644168 1.43834 0
M  V30 2753 C 258.436 -1.40395 1.4593 0
M  V30 2754 C 258.764 -1.94305 0.0869658 0
M  V30 2755 O 258.019 -1.73288 -0.909378 0
M  V30 2756 C 258.318 -2.59615 2.45631 0
M  V30 2757 C 257.984 -2.2407 3.91284 0
M  V30 2758 C 256.646 -2.14089 4.30952 0
M  V30 2759 C 258.998 -1.95775 4.83034 0
M  V30 2760 C 256.326 -1.73981 5.6031 0
M  V30 2761 C 258.678 -1.57163 6.12766 0
M  V30 2762 C 257.342 -1.45713 6.51402 0
M  V30 2763 H 256.612 -0.513741 0.533995 0
M  V30 2764 H 259.259 -0.731724 1.76969 0
M  V30 2765 H 257.564 -3.32011 2.08028 0
M  V30 2766 H 259.261 -3.17834 2.44504 0
M  V30 2767 H 255.851 -2.32753 3.59895 0
M  V30 2768 H 260.035 -2.02403 4.53152 0
M  V30 2769 H 255.291 -1.63709 5.89075 0
M  V30 2770 H 259.465 -1.34303 6.83327 0
M  V30 2771 H 257.092 -1.14406 7.51542 0
M  V30 2772 N 258.668 -1.30515 -0.883378 0
M  V30 2773 C 259.598 -1.19607 -2.00541 0
M  V30 2774 C 260.579 -0.086346 -1.69881 0
M  V30 2775 O 261.764 -0.268654 -1.92333 0
M  V30 2776 C 258.894 -0.888758 -3.35736 0
M  V30 2777 C 257.848 -1.95659 -3.8066 0
M  V30 2778 C 257.174 -1.50224 -5.13164 0
M  V30 2779 C 258.474 -3.36788 -3.99213 0
M  V30 2780 H 260.168 -2.13476 -2.09925 0
M  V30 2781 H 257.714 -1.02775 -1.00863 0
M  V30 2782 H 259.667 -0.799094 -4.13754 0
M  V30 2783 H 258.391 0.0856125 -3.26488 0
M  V30 2784 H 257.05 -2.03591 -3.04871 0
M  V30 2785 H 256.698 -0.516092 -5.00345 0
M  V30 2786 H 256.398 -2.2165 -5.44192 0
M  V30 2787 H 257.922 -1.42639 -5.93706 0
M  V30 2788 H 259.336 -3.31605 -4.67665 0
M  V30 2789 H 257.733 -4.06314 -4.41621 0
M  V30 2790 H 258.803 -3.78561 -3.03017 0
M  V30 2791 N 260.146 1.09593 -1.13257 0
M  V30 2792 C 261.557 1.63229 -0.906274 0
M  V30 2793 C 261.908 1.8811 0.557578 0
M  V30 2794 O 261.033 1.62953 1.42391 0
M  V30 2795 C 261.628 2.96535 -1.63867 0
M  V30 2796 C 260.187 3.47003 -1.45828 0
M  V30 2797 C 259.334 2.2145 -1.66898 0
M  V30 2798 H 262.285 0.92978 -1.28611 0
M  V30 2799 H 262.306 3.64411 -1.09476 0
M  V30 2800 H 261.818 2.78394 -2.70404 0
M  V30 2801 H 259.919 3.70272 -0.415848 0
M  V30 2802 H 260.032 4.24551 -2.2202 0
M  V30 2803 H 258.396 2.30022 -1.09371 0
M  V30 2804 H 259.179 2.0583 -2.74752 0
M  V30 2805 N 261.624 0.925811 1.2754 0
M  V30 2806 C 262.572 0.413897 2.28888 0
M  V30 2807 C 263.566 -0.500779 1.61829 0
M  V30 2808 O 264.772 -0.38069 1.75928 0
M  V30 2809 H 261.147 0.115274 0.743112 0
M  V30 2810 H 263.118 1.28151 2.69481 0
M  V30 2811 C 261.867 -0.319792 3.46226 0
M  V30 2812 H 261.19 0.374846 3.98039 0
M  V30 2813 H 262.63 -0.642435 4.19105 0
M  V30 2814 C 261.089 -1.53209 3.00048 0
M  V30 2815 O 261.619 -2.6309 3.03557 0
M  V30 2816 N 259.825 -1.38326 2.55566 0
M  V30 2817 H 259.372 -0.489292 2.5291 0
M  V30 2818 H 259.33 -2.19564 2.25031 0
M  V30 2819 N 263.102 -1.41638 0.69111 0
M  V30 2820 C 264.327 -2.06148 0.227583 0
M  V30 2821 C 264.752 -1.51652 -1.11281 0
M  V30 2822 O 264.11 -0.64164 -1.69566 0
M  V30 2823 C 264.158 -3.60095 0.190858 0
M  V30 2824 O 263.262 -4.03845 -0.835664 0
M  V30 2825 H 262.603 -0.654434 0.112306 0
M  V30 2826 H 265.133 -1.81484 0.944714 0
M  V30 2827 H 265.143 -4.07995 0.020207 0
M  V30 2828 H 263.818 -3.99129 1.16915 0
M  V30 2829 H 262.395 -3.67458 -0.63473 0
M  V30 2830 N 264.58 -0.43555 -1.51462 0
M  V30 2831 C 265.828 0.131254 -2.01673 0
M  V30 2832 C 266.149 1.43368 -1.32177 0
M  V30 2833 O 265.419 1.90524 -0.455769 0
M  V30 2834 H 263.999 0.0514954 -0.745223 0
M  V30 2835 H 266.661 -0.577847 -1.86137 0
M  V30 2836 H 265.757 0.308446 -3.10572 0
M  V30 2837 N 266.058 1.56714 -0.166846 0
M  V30 2838 C 267.006 2.19056 0.782123 0
M  V30 2839 C 268 1.15328 1.24079 0
M  V30 2840 O 269.206 1.33537 1.20697 0
M  V30 2841 H 265.581 0.70167 0.270486 0
M  V30 2842 H 267.552 2.97494 0.232322 0
M  V30 2843 C 266.301 2.84206 2.00306 0
M  V30 2844 H 265.624 3.63748 1.65914 0
M  V30 2845 H 267.064 3.31302 2.64604 0
M  V30 2846 C 265.523 1.83744 2.82382 0
M  V30 2847 O 266.053 1.32014 3.79388 0
M  V30 2848 N 264.259 1.52601 2.47308 0
M  V30 2849 H 263.806 1.9486 1.68485 0
M  V30 2850 H 263.764 0.856351 3.02513 0
M  V30 2851 N 267.536 -0.106894 1.57237 0
M  V30 2852 C 268.947 -0.662723 1.74542 0
M  V30 2853 C 269.298 -1.7971 0.787319 0
M  V30 2854 O 268.423 -2.16368 -0.0369636 0
M  V30 2855 C 269.018 -1.20896 3.16496 0
M  V30 2856 C 267.577 -1.71096 3.35266 0
M  V30 2857 C 266.724 -0.615642 2.7038 0
M  V30 2858 H 269.675 0.119106 1.58252 0
M  V30 2859 H 269.696 -2.07847 3.18716 0
M  V30 2860 H 269.208 -0.383122 3.86204 0
M  V30 2861 H 267.309 -2.56119 2.70618 0
M  V30 2862 H 267.422 -1.81208 4.43509 0
M  V30 2863 H 265.786 -1.05222 2.31949 0
M  V30 2864 H 266.569 0.199419 3.4272 0
M  V30 2865 N 269.014 -1.53014 -0.377408 0
M  V30 2866 C 270.262 -1.6829 -1.11906 0
M  V30 2867 C 270.583 -0.431206 -1.90173 0
M  V30 2868 O 269.853 0.554595 -1.87886 0
M  V30 2869 H 268.433 -0.620371 -0.416112 0
M  V30 2870 H 271.095 -1.90167 -0.426893 0
M  V30 2871 H 270.191 -2.53862 -1.8155 0
M  V30 2872 N 270.492 0.636531 -1.44174 0
M  V30 2873 C 271.738 1.39826 -1.4689 0
M  V30 2874 C 272.071 1.93947 -0.0990585 0
M  V30 2875 O 271.346 1.73325 0.882544 0
M  V30 2876 C 271.629 2.56751 -2.5249 0
M  V30 2877 C 271.482 2.08014 -3.98811 0
M  V30 2878 C 272.801 3.58946 -2.54649 0
M  V30 2879 H 269.92 0.507075 -0.53483 0
M  V30 2880 H 272.562 0.720188 -1.75822 0
M  V30 2881 H 270.712 3.14597 -2.2795 0
M  V30 2882 H 272.384 1.5504 -4.34466 0
M  V30 2883 H 270.627 1.39242 -4.10846 0
M  V30 2884 H 271.298 2.92169 -4.68339 0
M  V30 2885 H 273.774 3.1089 -2.76563 0
M  V30 2886 H 272.65 4.38286 -3.3045 0
M  V30 2887 H 272.911 4.12655 -1.58646 0
M  V30 2888 N 271.97 1.30982 0.876444 0
M  V30 2889 C 273.216 1.20474 1.63138 0
M  V30 2890 C 273.549 -0.238096 1.92735 0
M  V30 2891 O 272.824 -1.1692 1.55435 0
M  V30 2892 C 273.107 2.04244 2.96574 0
M  V30 2893 C 272.96 3.56793 2.73896 0
M  V30 2894 C 274.279 1.88684 3.97601 0
M  V30 2895 H 271.398 0.439001 0.591985 0
M  V30 2896 H 274.04 1.60704 1.01361 0
M  V30 2897 H 272.19 1.70063 3.493 0
M  V30 2898 H 273.862 4.01077 2.27892 0
M  V30 2899 H 272.105 3.80548 2.08245 0
M  V30 2900 H 272.776 4.10706 3.68815 0
M  V30 2901 H 275.252 2.18584 3.54062 0
M  V30 2902 H 274.128 2.4961 4.88862 0
M  V30 2903 H 274.389 0.848343 4.33884 0
M  V30 2904 N 273.449 -1.08991 1.13837 0
M  V30 2905 C 274.399 -2.1393 0.788535 0
M  V30 2906 C 275.383 -1.59396 -0.219516 0
M  V30 2907 O 276.575 -1.76985 -0.0227557 0
M  V30 2908 C 273.704 -3.42305 0.261147 0
M  V30 2909 C 272.79 -4.03736 1.29837 0
M  V30 2910 N 273.181 -4.39659 2.50067 0
M  V30 2911 C 271.479 -4.30993 1.1472 0
M  V30 2912 C 272.18 -4.88113 3.16419 0
M  V30 2913 N 271.156 -4.85846 2.43832 0
M  V30 2914 H 274.958 -2.39516 1.70322 0
M  V30 2915 H 272.472 -1.26263 1.02134 0
M  V30 2916 H 274.469 -4.16899 -0.0077405 0
M  V30 2917 H 273.129 -3.18172 -0.647805 0
M  V30 2918 H 274.14 -4.30878 2.8734 0
M  V30 2919 H 270.817 -4.16444 0.296773 0
M  V30 2920 H 272.207 -5.25336 4.18894 0
M  V30 2921 N 274.927 -0.932562 -1.27047 0
M  V30 2922 C 276.174 -0.575559 -1.94148 0
M  V30 2923 C 276.502 0.883984 -1.73251 0
M  V30 2924 O 275.757 1.64655 -1.0577 0
M  V30 2925 C 276.056 -0.853713 -3.47054 0
M  V30 2926 C 275.722 -2.29577 -3.88079 0
M  V30 2927 C 274.384 -2.68999 -3.9899 0
M  V30 2928 C 276.736 -3.23331 -4.08787 0
M  V30 2929 C 274.064 -4.01289 -4.28 0
M  V30 2930 C 276.416 -4.55207 -4.39282 0
M  V30 2931 C 275.08 -4.94457 -4.48407 0
M  V30 2932 H 274.35 -0.210612 -0.710439 0
M  V30 2933 H 276.997 -1.17744 -1.51025 0
M  V30 2934 H 275.302 -0.169204 -3.91434 0
M  V30 2935 H 276.999 -0.55639 -3.97121 0
M  V30 2936 H 273.589 -1.97994 -3.80127 0
M  V30 2937 H 277.773 -2.94074 -3.99793 0
M  V30 2938 H 273.029 -4.31374 -4.33275 0
M  V30 2939 H 277.203 -5.27852 -4.54252 0
M  V30 2940 H 274.83 -5.96994 -4.7064 0
M  V30 2941 N 276.405 1.4127 -0.698611 0
M  V30 2942 C 277.682 1.94955 -0.158762 0
M  V30 2943 C 278.062 1.63781 1.33188 0
M  V30 2944 O 277.41 0.946423 2.07979 0
M  V30 2945 C 277.62 3.46044 -0.453309 0
M  V30 2946 C 278.968 4.22872 -0.382707 0
M  V30 2947 O 279.992 3.54076 -0.388396 0
M  V30 2948 O 278.851 5.45407 -0.345463 0
M  V30 2949 H 275.945 0.82683 -0.0167505 0
M  V30 2950 H 278.491 1.50971 -0.77498 0
M  V30 2951 H 277.263 3.62028 -1.48498 0
M  V30 2952 H 276.886 3.97128 0.19373 0
M  V30 2953 N 277.883 0.443576 1.51229 0
M  V30 2954 C 278.83 -0.364716 2.279 0
M  V30 2955 C 279.8 -1.0114 1.31757 0
M  V30 2956 O 280.985 -1.02912 1.60667 0
M  V30 2957 C 278.125 -1.45644 3.12861 0
M  V30 2958 C 277.238 -0.827269 4.24005 0
M  V30 2959 C 276.373 -1.89456 4.96266 0
M  V30 2960 C 275.412 -1.24416 5.99322 0
M  V30 2961 N 274.549 -2.25309 6.64966 0
M  V30 2962 H 279.389 0.295464 2.96532 0
M  V30 2963 H 276.926 0.157554 1.46254 0
M  V30 2964 H 278.884 -2.10076 3.6045 0
M  V30 2965 H 277.514 -2.08616 2.46331 0
M  V30 2966 H 276.566 -0.0710839 3.80334 0
M  V30 2967 H 277.878 -0.312481 4.9782 0
M  V30 2968 H 277.032 -2.61535 5.47434 0
M  V30 2969 H 275.771 -2.4431 4.22095 0
M  V30 2970 H 274.776 -0.508868 5.4744 0
M  V30 2971 H 276.001 -0.702882 6.75453 0
M  V30 2972 H 273.947 -2.79231 5.93604 0
M  V30 2973 H 273.864 -1.78739 7.34567 0
M  V30 2974 H 275.132 -2.96853 7.20763 0
M  V30 2975 N 279.361 -1.56624 0.175154 0
M  V30 2976 C 280.309 -2.19468 -0.770495 0
M  V30 2977 C 281.303 -1.15985 -1.23466 0
M  V30 2978 O 282.509 -1.34176 -1.19987 0
M  V30 2979 H 278.884 -0.703095 -0.266761 0
M  V30 2980 H 280.855 -2.97613 -0.216542 0
M  V30 2981 C 279.604 -2.85264 -1.98796 0
M  V30 2982 H 278.927 -3.64623 -1.63983 0
M  V30 2983 H 280.367 -3.327 -2.62843 0
M  V30 2984 C 278.826 -1.85239 -2.81404 0
M  V30 2985 O 279.356 -1.34024 -3.78682 0
M  V30 2986 N 277.562 -1.53911 -2.46495 0
M  V30 2987 H 277.109 -1.95751 -1.67449 0
M  V30 2988 H 277.067 -0.872382 -3.02054 0
M  V30 2989 N 280.839 0.0985539 -1.57292 0
M  V30 2990 C 281.749 1.13824 -2.05137 0
M  V30 2991 C 282.765 1.44076 -0.975604 0
M  V30 2992 O 283.941 1.54786 -1.28853 0
M  V30 2993 C 281.006 2.43969 -2.46333 0
M  V30 2994 C 280.067 2.2093 -3.68087 0
M  V30 2995 C 279.3 3.44869 -4.0731 0
M  V30 2996 O 279.523 4.52972 -3.46659 0
M  V30 2997 O 278.457 3.34661 -5.00285 0
M  V30 2998 H 282.283 0.761881 -2.93988 0
M  V30 2999 H 279.868 0.310818 -1.46131 0
M  V30 3000 H 281.75 3.20609 -2.73473 0
M  V30 3001 H 280.425 2.81038 -1.60621 0
M  V30 3002 H 279.332 1.42081 -3.46069 0
M  V30 3003 H 280.665 1.88755 -4.54568 0
M  V30 3004 N 282.317 1.53212 0.369288 0
M  V30 3005 C 283.267 1.75769 1.45222 0
M  V30 3006 C 284.251 0.612136 1.48801 0
M  V30 3007 O 285.443 0.870674 1.54105 0
M  V30 3008 C 282.572 1.94769 2.82701 0
M  V30 3009 C 281.658 3.15315 2.83615 0
M  V30 3010 N 282.049 4.37295 2.54178 0
M  V30 3011 C 280.347 3.15962 3.14776 0
M  V30 3012 C 281.048 5.19015 2.62675 0
M  V30 3013 N 280.024 4.55142 2.97232 0
M  V30 3014 H 283.826 2.67691 1.2132 0
M  V30 3015 H 281.34 1.51787 0.577438 0
M  V30 3016 H 283.337 2.09056 3.60696 0
M  V30 3017 H 281.997 1.04073 3.07569 0
M  V30 3018 H 283.008 4.65091 2.27839 0
M  V30 3019 H 279.685 2.35144 3.44983 0
M  V30 3020 H 281.075 6.26305 2.43294 0
M  V30 3021 N 283.795 -0.628877 1.44509 0
M  V30 3022 C 285.041 -1.38863 1.48623 0
M  V30 3023 C 285.396 -1.92038 0.117933 0
M  V30 3024 O 284.689 -1.70853 -0.86716 0
M  V30 3025 C 284.883 -2.56995 2.48371 0
M  V30 3026 C 284.712 -2.15385 3.94765 0
M  V30 3027 C 283.482 -2.02558 4.62924 0
M  V30 3028 C 285.68 -1.74158 4.83915 0
M  V30 3029 N 283.662 -1.54534 5.94132 0
M  V30 3030 C 285.033 -1.37396 6.04584 0
M  V30 3031 C 287.088 -1.61559 4.7096 0
M  V30 3032 C 285.791 -0.892948 7.13736 0
M  V30 3033 C 287.817 -1.14862 5.80139 0
M  V30 3034 C 287.179 -0.790516 6.9995 0
M  V30 3035 H 283.278 -0.502858 0.59888 0
M  V30 3036 H 285.862 -0.72121 1.8085 0
M  V30 3037 H 284.033 -3.21362 2.1813 0
M  V30 3038 H 285.765 -3.23801 2.42766 0
M  V30 3039 H 282.52 -2.23082 4.1777 0
M  V30 3040 H 282.944 -1.32815 6.63844 0
M  V30 3041 H 287.586 -1.87876 3.78764 0
M  V30 3042 H 285.304 -0.617291 8.05739 0
M  V30 3043 H 288.89 -1.05569 5.72142 0
M  V30 3044 H 287.77 -0.434713 7.82994 0
M  V30 3045 N 285.273 -1.31445 -0.869486 0
M  V30 3046 C 286.498 -1.24256 -1.66058 0
M  V30 3047 C 286.923 0.188928 -1.87149 0
M  V30 3048 O 286.281 1.13522 -1.4136 0
M  V30 3049 C 286.329 -1.9924 -3.00559 0
M  V30 3050 O 285.433 -1.33007 -3.90362 0
M  V30 3051 H 284.774 -0.428973 -0.506831 0
M  V30 3052 H 287.304 -1.73521 -1.08404 0
M  V30 3053 H 287.314 -2.08854 -3.50491 0
M  V30 3054 H 285.989 -3.03342 -2.84528 0
M  V30 3055 H 284.566 -1.31848 -3.48813 0
M  V30 3056 N 286.751 1.08385 -1.14413 0
M  V30 3057 C 287.714 2.13486 -0.834048 0
M  V30 3058 C 288.714 1.59988 0.161418 0
M  V30 3059 O 289.904 1.74071 -0.0669575 0
M  V30 3060 C 287.036 3.4003 -0.243354 0
M  V30 3061 H 288.229 2.42425 -1.7655 0
M  V30 3062 H 285.782 1.24101 -0.950189 0
M  V30 3063 H 286.517 3.16726 0.696807 0
M  V30 3064 H 286.302 3.80157 -0.960367 0
M  V30 3065 H 287.792 4.17577 -0.0436242 0
M  V30 3066 N 288.23 0.939286 1.26551 0
M  V30 3067 C 289.455 0.602008 1.98471 0
M  V30 3068 C 289.88 -0.815624 1.69497 0
M  V30 3069 O 289.238 -1.54912 0.941905 0
M  V30 3070 C 289.286 0.848407 3.50477 0
M  V30 3071 O 288.39 -0.0804009 4.12322 0
M  V30 3072 H 287.731 0.23049 0.622712 0
M  V30 3073 H 290.261 1.2617 1.61066 0
M  V30 3074 H 290.271 0.768553 4.00696 0
M  V30 3075 H 288.946 1.88171 3.70897 0
M  V30 3076 H 287.523 0.0503508 3.72866 0
M  V30 3077 N 289.708 -1.40897 0.706093 0
M  V30 3078 C 290.985 -1.94868 0.169099 0
M  V30 3079 C 291.365 -1.64485 -1.32318 0
M  V30 3080 O 290.713 -0.95744 -2.07474 0
M  V30 3081 C 290.923 -3.45798 0.471654 0
M  V30 3082 C 292.271 -4.22663 0.405127 0
M  V30 3083 O 293.295 -3.53865 0.407168 0
M  V30 3084 O 292.154 -5.45216 0.374383 0
M  V30 3085 H 289.248 -0.82673 0.0211352 0
M  V30 3086 H 291.794 -1.50558 0.782976 0
M  V30 3087 H 290.566 -3.61235 1.50416 0
M  V30 3088 H 290.189 -3.97225 -0.172666 0
M  V30 3089 N 291.186 -0.45159 -1.50991 0
M  V30 3090 C 292.414 0.108334 -2.06616 0
M  V30 3091 C 292.829 1.35224 -1.31757 0
M  V30 3092 O 292.186 1.78475 -0.381174 0
M  V30 3093 C 292.237 0.41619 -3.59096 0
M  V30 3094 O 291.958 -0.778361 -4.3113 0
M  V30 3095 C 293.459 1.02523 -4.31282 0
M  V30 3096 H 290.679 0.00159995 -0.670998 0
M  V30 3097 H 293.223 -0.634771 -1.94399 0
M  V30 3098 H 291.378 1.10921 -3.71181 0
M  V30 3099 H 291.792 -0.511181 -5.22003 0
M  V30 3100 H 293.266 1.19053 -5.39009 0
M  V30 3101 H 293.743 2.01013 -3.905 0
M  V30 3102 H 294.349 0.371173 -4.23677 0
M  V30 3103 N 292.664 1.56529 -0.183458 0
M  V30 3104 C 293.912 1.96855 0.457452 0
M  V30 3105 C 294.233 1.07104 1.62953 0
M  V30 3106 O 293.503 0.139887 1.954 0
M  V30 3107 H 292.083 0.72693 0.171992 0
M  V30 3108 H 294.745 1.93056 -0.267476 0
M  V30 3109 H 293.841 3.01423 0.809368 0
M  V30 3110 N 294.142 -0.090211 1.57342 0
M  V30 3111 C 295.372 -0.805055 1.90269 0
M  V30 3112 C 295.78 -1.72561 0.775842 0
M  V30 3113 O 295.123 -1.81839 -0.260843 0
M  V30 3114 C 295.185 -1.66734 3.18497 0
M  V30 3115 C 294.849 -0.918092 4.47683 0
M  V30 3116 C 295.846 -0.245674 5.19319 0
M  V30 3117 C 293.531 -0.890724 4.94339 0
M  V30 3118 C 295.525 0.444088 6.35851 0
M  V30 3119 C 293.212 -0.197179 6.10782 0
M  V30 3120 C 294.21 0.469044 6.81388 0
M  V30 3121 O 293.898 1.15146 7.95611 0
M  V30 3122 H 293.63 -0.235143 0.633785 0
M  V30 3123 H 296.184 -0.0703805 2.05279 0
M  V30 3124 H 294.414 -2.44437 2.99646 0
M  V30 3125 H 296.103 -2.25919 3.37217 0
M  V30 3126 H 296.869 -0.258246 4.84312 0
M  V30 3127 H 292.748 -1.39873 4.39268 0
M  V30 3128 H 296.292 0.964667 6.90898 0
M  V30 3129 H 292.189 -0.18247 6.45242 0
M  V30 3130 H 292.957 1.05885 8.11622 0
M  V30 3131 N 295.62 -1.53406 -0.361157 0
M  V30 3132 C 296.568 -1.80832 -1.46296 0
M  V30 3133 C 297.562 -0.677699 -1.55253 0
M  V30 3134 O 298.768 -0.860723 -1.58087 0
M  V30 3135 H 295.143 -0.572627 -0.487445 0
M  V30 3136 H 297.114 -2.73045 -1.20371 0
M  V30 3137 C 295.863 -2.01907 -2.8307 0
M  V30 3138 H 295.186 -2.88349 -2.76938 0
M  V30 3139 H 296.626 -2.25072 -3.59331 0
M  V30 3140 C 295.085 -0.799449 -3.27277 0
M  V30 3141 O 295.615 0.00971761 -4.01699 0
M  V30 3142 N 293.821 -0.621637 -2.83873 0
M  V30 3143 H 293.368 -1.28126 -2.23476 0
M  V30 3144 H 293.326 0.19298 -3.13807 0
M  V30 3145 N 297.098 0.621204 -1.44841 0
M  V30 3146 C 298.028 1.74366 -1.55303 0
M  V30 3147 C 299.009 1.65199 -0.405385 0
M  V30 3148 O 300.194 1.83807 -0.626787 0
M  V30 3149 C 297.324 3.12931 -1.50637 0
M  V30 3150 C 296.278 3.36896 -2.63979 0
M  V30 3151 C 295.604 4.75594 -2.44366 0
M  V30 3152 C 296.904 3.28483 -4.06074 0
M  V30 3153 H 298.598 1.65867 -2.49256 0
M  V30 3154 H 296.144 0.796558 -1.19962 0
M  V30 3155 H 298.097 3.9124 -1.56555 0
M  V30 3156 H 296.821 3.22237 -0.532057 0
M  V30 3157 H 295.48 2.60972 -2.57467 0
M  V30 3158 H 295.128 4.81616 -1.45105 0
M  V30 3159 H 294.828 4.92586 -3.20364 0
M  V30 3160 H 296.352 5.5612 -2.52117 0
M  V30 3161 H 297.766 3.96684 -4.13902 0
M  V30 3162 H 296.163 3.57008 -4.82354 0
M  V30 3163 H 297.233 2.26133 -4.28943 0
M  V30 3164 N 298.576 1.31904 0.862503 0
M  V30 3165 C 299.823 1.22017 1.61611 0
M  V30 3166 C 300.151 -0.21991 1.93253 0
M  V30 3167 O 299.406 -1.17076 1.56817 0
M  V30 3168 C 299.705 2.01713 2.95037 0
M  V30 3169 C 299.371 3.51145 2.82857 0
M  V30 3170 C 298.033 3.91889 2.79243 0
M  V30 3171 C 300.385 4.46204 2.69353 0
M  V30 3172 C 297.713 5.25947 2.59993 0
M  V30 3173 C 300.065 5.80397 2.5164 0
M  V30 3174 C 298.729 6.20352 2.46413 0
M  V30 3175 H 297.999 0.44649 0.591378 0
M  V30 3176 H 300.646 1.63248 1.00111 0
M  V30 3177 H 298.951 1.53185 3.60613 0
M  V30 3178 H 300.648 1.91437 3.52353 0
M  V30 3179 H 297.238 3.1878 2.86491 0
M  V30 3180 H 301.422 4.15652 2.71196 0
M  V30 3181 H 296.678 5.5597 2.54376 0
M  V30 3182 H 300.852 6.53676 2.40169 0
M  V30 3183 H 298.479 7.24172 2.31256 0
M  V30 3184 N 300.054 -1.07777 1.14986 0
M  V30 3185 C 300.984 -2.16865 0.865557 0
M  V30 3186 C 301.965 -1.69123 -0.182083 0
M  V30 3187 O 303.15 -1.94164 -0.0373815 0
M  V30 3188 C 300.28 -3.45539 0.349313 0
M  V30 3189 C 299.234 -4.06708 1.33313 0
M  V30 3190 C 298.56 -5.30411 0.675918 0
M  V30 3191 C 299.86 -4.47241 2.69764 0
M  V30 3192 H 301.554 -2.40905 1.77778 0
M  V30 3193 H 299.1 -1.15781 0.856203 0
M  V30 3194 H 301.053 -4.21174 0.137983 0
M  V30 3195 H 299.777 -3.21072 -0.598362 0
M  V30 3196 H 298.436 -3.33112 1.53075 0
M  V30 3197 H 298.084 -5.02232 -0.277767 0
M  V30 3198 H 297.784 -5.72293 1.33244 0
M  V30 3199 H 299.308 -6.08755 0.474262 0
M  V30 3200 H 300.722 -5.14025 2.53873 0
M  V30 3201 H 299.119 -5.00062 3.3175 0
M  V30 3202 H 300.189 -3.58818 3.26156 0
M  V30 3203 N 301.532 -0.945985 -1.26051 0
M  V30 3204 C 302.778 -0.597002 -1.93814 0
M  V30 3205 C 303.111 0.862484 -1.73997 0
M  V30 3206 O 302.386 1.61769 -1.07986 0
M  V30 3207 C 302.669 -0.945937 -3.47454 0
M  V30 3208 C 302.522 -2.46052 -3.76535 0
M  V30 3209 C 303.841 -0.464785 -4.37639 0
M  V30 3210 H 300.96 -0.218366 -0.703907 0
M  V30 3211 H 303.602 -1.18107 -1.48831 0
M  V30 3212 H 301.752 -0.448902 -3.85898 0
M  V30 3213 H 303.424 -3.03065 -3.47778 0
M  V30 3214 H 301.667 -2.90194 -3.22444 0
M  V30 3215 H 302.338 -2.65517 -4.83947 0
M  V30 3216 H 304.814 -0.891016 -4.06448 0
M  V30 3217 H 303.69 -0.737712 -5.4392 0
M  V30 3218 H 303.951 0.635274 -4.37512 0
M  V30 3219 N 303.011 1.40521 -0.713556 0
M  V30 3220 C 303.974 2.29098 -0.0684347 0
M  V30 3221 C 304.974 1.45268 0.689472 0
M  V30 3222 O 306.164 1.66205 0.521677 0
M  V30 3223 C 303.296 3.28446 0.913024 0
M  V30 3224 H 304.489 2.87645 -0.84855 0
M  V30 3225 H 302.042 1.48809 -0.47809 0
M  V30 3226 H 302.777 2.74913 1.72027 0
M  V30 3227 H 302.562 3.90327 0.372472 0
M  V30 3228 H 304.052 3.94777 1.36165 0
M  V30 3229 N 304.489 0.459591 1.5075 0
M  V30 3230 C 305.717 -0.0973749 2.06671 0
M  V30 3231 C 306.132 -1.34524 1.32472 0
M  V30 3232 O 305.489 -1.7827 0.390634 0
M  V30 3233 C 305.54 -0.39714 3.59312 0
M  V30 3234 O 305.261 0.801214 4.30711 0
M  V30 3235 C 306.762 -1.00234 4.31819 0
M  V30 3236 H 303.982 0.00195854 0.670997 0
M  V30 3237 H 306.526 0.645072 1.94059 0
M  V30 3238 H 304.681 -1.08951 3.71764 0
M  V30 3239 H 305.095 0.538857 5.21725 0
M  V30 3240 H 306.569 -1.16193 5.39632 0
M  V30 3241 H 307.046 -1.98939 3.91561 0
M  V30 3242 H 307.652 -0.348699 4.23868 0
M  V30 3243 N 305.967 -1.56429 0.191757 0
M  V30 3244 C 306.917 -2.15548 -0.743184 0
M  V30 3245 C 307.901 -1.09531 -1.17863 0
M  V30 3246 O 309.093 -1.35602 -1.13759 0
M  V30 3247 C 306.222 -2.81577 -1.96391 0
M  V30 3248 C 305.308 -3.9478 -1.54951 0
M  V30 3249 N 305.699 -4.98677 -0.845876 0
M  V30 3250 C 303.997 -4.06319 -1.83905 0
M  V30 3251 C 304.698 -5.78183 -0.638724 0
M  V30 3252 N 303.674 -5.30495 -1.18643 0
M  V30 3253 H 307.476 -2.9324 -0.196839 0
M  V30 3254 H 304.99 -1.62398 -0.0081603 0
M  V30 3255 H 306.987 -3.22321 -2.64415 0
M  V30 3256 H 305.647 -2.05371 -2.51501 0
M  V30 3257 H 306.658 -5.15464 -0.501704 0
M  V30 3258 H 303.335 -3.41238 -2.40548 0
M  V30 3259 H 304.725 -6.71851 -0.0807929 0
M  V30 3260 N 307.445 0.0818655 -1.57387 0
M  V30 3261 C 308.355 1.11642 -2.06333 0
M  V30 3262 C 309.371 1.43033 -0.99083 0
M  V30 3263 O 310.547 1.53411 -1.30488 0
M  V30 3264 C 307.612 2.41342 -2.48907 0
M  V30 3265 C 306.673 2.17014 -3.7041 0
M  V30 3266 C 305.906 3.4053 -4.10944 0
M  V30 3267 O 306.129 4.4927 -3.51444 0
M  V30 3268 O 305.063 3.29336 -5.03807 0
M  V30 3269 H 308.889 0.730657 -2.9478 0
M  V30 3270 H 306.474 0.295301 -1.46452 0
M  V30 3271 H 308.356 3.17691 -2.76858 0
M  V30 3272 H 307.031 2.79319 -1.63593 0
M  V30 3273 H 305.938 1.38403 -3.47556 0
M  V30 3274 H 307.271 1.83923 -4.56545 0
M  V30 3275 N 308.923 1.53595 0.353017 0
M  V30 3276 C 310.172 1.69603 1.09168 0
M  V30 3277 C 310.485 0.460925 1.90092 0
M  V30 3278 O 311.691 0.501774 2.66823 0
M  V30 3279 C 310.147 2.99872 1.9901 0
M  V30 3280 C 309.755 4.30687 1.23339 0
M  V30 3281 C 311.499 3.25246 2.72792 0
M  V30 3282 C 309.406 5.52036 2.12156 0
M  V30 3283 H 308.336 0.631966 0.411261 0
M  V30 3284 H 310.987 1.80096 0.351802 0
M  V30 3285 H 309.369 2.83212 2.7678 0
M  V30 3286 H 310.543 4.58019 0.505456 0
M  V30 3287 H 308.858 4.11853 0.613663 0
M  V30 3288 H 311.455 4.13095 3.39495 0
M  V30 3289 H 311.798 2.41846 3.38846 0
M  V30 3290 H 312.331 3.42638 2.021 0
M  V30 3291 H 309.07 6.37951 1.50659 0
M  V30 3292 H 308.59 5.28966 2.82764 0
M  V30 3293 H 310.269 5.87313 2.71427 0
M  V30 3294 N 310.401 -0.613514 1.45168 0
M  V30 3295 C 311.649 -1.36997 1.48581 0
M  V30 3296 C 311.97 -1.94589 0.126545 0
M  V30 3297 O 311.24 -1.76816 -0.843372 0
M  V30 3298 H 309.82 -0.508558 0.547154 0
M  V30 3299 H 312.482 -0.720853 1.81079 0
M  V30 3300 H 311.578 -2.1924 2.22127 0
M  V30 3301 N 311.879 -1.3236 -0.855495 0
M  V30 3302 C 312.829 -1.17809 -1.95205 0
M  V30 3303 C 313.813 -0.0852319 -1.60674 0
M  V30 3304 O 315.005 -0.311651 -1.74235 0
M  V30 3305 C 312.134 -0.902437 -3.31226 0
M  V30 3306 C 311.22 -2.03695 -3.7198 0
M  V30 3307 N 311.611 -3.28544 -3.84568 0
M  V30 3308 C 309.909 -1.93993 -4.016 0
M  V30 3309 C 310.61 -4.02847 -4.19629 0
M  V30 3310 N 309.586 -3.31138 -4.31102 0
M  V30 3311 H 313.388 -2.12462 -2.0307 0
M  V30 3312 H 310.902 -1.24127 -1.0472 0
M  V30 3313 H 312.899 -0.77915 -4.09554 0
M  V30 3314 H 311.559 0.0357267 -3.2468 0
M  V30 3315 H 312.57 -3.6349 -3.68911 0
M  V30 3316 H 309.247 -1.07733 -4.03361 0
M  V30 3317 H 310.637 -5.10506 -4.36845 0
M  V30 3318 N 313.357 1.07166 -1.15556 0
M  V30 3319 C 314.582 1.84053 -0.955988 0
M  V30 3320 C 315.007 1.81586 0.490739 0
M  V30 3321 O 314.365 1.21018 1.34997 0
M  V30 3322 C 314.413 3.28957 -1.47714 0
M  V30 3323 O 313.517 4.06795 -0.677593 0
M  V30 3324 H 312.858 0.569842 -0.340847 0
M  V30 3325 H 315.388 1.35178 -1.53584 0
M  V30 3326 H 315.398 3.79788 -1.4908 0
M  V30 3327 H 314.073 3.30068 -2.53037 0
M  V30 3328 H 312.65 3.6561 -0.733721 0
M  V30 3329 N 314.835 0.952656 1.25548 0
M  V30 3330 C 315.765 0.489287 2.28316 0
M  V30 3331 C 316.746 -0.463359 1.63667 0
M  V30 3332 O 317.931 -0.36274 1.90782 0
M  V30 3333 C 315.061 -0.235603 3.465 0
M  V30 3334 C 314.015 0.631593 4.23314 0
M  V30 3335 C 313.341 -0.223923 5.34231 0
M  V30 3336 C 314.641 1.90871 4.86174 0
M  V30 3337 H 316.335 1.34822 2.67326 0
M  V30 3338 H 313.881 0.649728 1.28509 0
M  V30 3339 H 315.834 -0.570882 4.17515 0
M  V30 3340 H 314.558 -1.12877 3.06474 0
M  V30 3341 H 313.217 0.949929 3.54079 0
M  V30 3342 H 312.865 -1.11678 4.90446 0
M  V30 3343 H 312.565 0.35299 5.86539 0
M  V30 3344 H 314.089 -0.554214 6.0808 0
M  V30 3345 H 315.503 1.63997 5.49343 0
M  V30 3346 H 313.9 2.43112 5.4865 0
M  V30 3347 H 314.97 2.61304 4.08471 0
M  V30 3348 N 316.313 -1.40141 0.720998 0
M  V30 3349 C 317.561 -2.0039 0.262323 0
M  V30 3350 C 317.882 -1.57469 -1.15015 0
M  V30 3351 O 317.152 -0.816582 -1.78069 0
M  V30 3352 H 315.732 -0.741063 0.093996 0
M  V30 3353 H 318.394 -1.71398 0.927835 0
M  V30 3354 H 317.49 -3.10658 0.299671 0
M  V30 3355 N 317.792 -0.46758 -1.50504 0
M  V30 3356 C 318.722 0.318381 -2.31319 0
M  V30 3357 C 319.703 0.993564 -1.38066 0
M  V30 3358 O 320.888 0.991411 -1.66987 0
M  V30 3359 C 318.018 1.40275 -3.17711 0
M  V30 3360 C 316.972 0.849373 -4.19487 0
M  V30 3361 C 316.298 2.03177 -4.94594 0
M  V30 3362 C 317.598 -0.136942 -5.2212 0
M  V30 3363 H 319.292 -0.356106 -2.97275 0
M  V30 3364 H 316.838 -0.172703 -1.42961 0
M  V30 3365 H 318.791 1.96004 -3.73042 0
M  V30 3366 H 317.515 2.10596 -2.49634 0
M  V30 3367 H 316.174 0.314076 -3.65252 0
M  V30 3368 H 315.822 2.72187 -4.22993 0
M  V30 3369 H 315.522 1.66774 -5.63436 0
M  V30 3370 H 317.046 2.59403 -5.52759 0
M  V30 3371 H 318.46 0.331056 -5.72343 0
M  V30 3372 H 316.857 -0.41507 -5.98663 0
M  V30 3373 H 317.927 -1.06398 -4.73083 0
M  V30 3374 N 319.27 1.56325 -0.20005 0
M  V30 3375 C 320.202 2.16555 0.750771 0
M  V30 3376 C 321.215 1.12871 1.1732 0
M  V30 3377 O 322.404 1.39943 1.10807 0
M  V30 3378 C 319.504 2.71684 2.02586 0
M  V30 3379 C 318.677 4.00321 1.76244 0
M  V30 3380 C 317.736 4.40227 2.88248 0
M  V30 3381 O 316.762 5.07552 2.57642 0
M  V30 3382 N 317.964 4.04138 4.16717 0
M  V30 3383 H 320.729 2.98772 0.235685 0
M  V30 3384 H 318.29 1.6189 -0.0182594 0
M  V30 3385 H 320.282 2.95363 2.76664 0
M  V30 3386 H 318.852 1.93893 2.45202 0
M  V30 3387 H 318.072 3.84723 0.85919 0
M  V30 3388 H 319.36 4.84279 1.56048 0
M  V30 3389 H 318.758 3.49993 4.44434 0
M  V30 3390 H 317.315 4.32756 4.87407 0
M  V30 3391 N 320.748 -0.0735177 1.57428 0
M  V30 3392 C 321.698 -1.09442 2.00016 0
M  V30 3393 C 322.682 -1.34575 0.881947 0
M  V30 3394 O 323.874 -1.34905 1.14585 0
M  V30 3395 C 321.003 -2.40865 2.4462 0
M  V30 3396 C 320.089 -2.19014 3.63172 0
M  V30 3397 N 320.48 -1.67087 4.77405 0
M  V30 3398 C 318.778 -2.49494 3.69688 0
M  V30 3399 C 319.479 -1.6001 5.5926 0
M  V30 3400 N 318.455 -2.05999 5.03056 0
M  V30 3401 H 322.257 -0.686227 2.85776 0
M  V30 3402 H 319.771 -0.280617 1.59957 0
M  V30 3403 H 321.768 -3.14763 2.73368 0
M  V30 3404 H 320.428 -2.82403 1.60246 0
M  V30 3405 H 321.439 -1.35975 4.99731 0
M  V30 3406 H 318.116 -2.94409 2.96023 0
M  V30 3407 H 319.506 -1.2073 6.60964 0
M  V30 3408 N 322.226 -1.5378 -0.344866 0
M  V30 3409 C 323.451 -1.75211 -1.10977 0
M  V30 3410 C 323.876 -0.48936 -1.81623 0
M  V30 3411 O 323.234 0.557925 -1.72502 0
M  V30 3412 C 323.282 -2.93147 -2.09993 0
M  V30 3413 O 322.386 -2.63203 -3.17487 0
M  V30 3414 H 321.727 -0.581241 -0.321021 0
M  V30 3415 H 324.257 -2.00738 -0.395661 0
M  V30 3416 H 324.267 -3.19898 -2.53237 0
M  V30 3417 H 322.942 -3.84731 -1.5797 0
M  V30 3418 H 321.519 -2.47336 -2.79069 0
M  V30 3419 N 323.704 0.605807 -1.45491 0
M  V30 3420 C 324.952 1.36207 -1.49305 0
M  V30 3421 C 325.273 1.94519 -0.136863 0
M  V30 3422 O 324.543 1.77261 0.833983 0
M  V30 3423 H 323.123 0.50565 -0.549843 0
M  V30 3424 H 325.785 0.711239 -1.81459 0
M  V30 3425 H 324.881 2.18058 -2.23287 0
M  V30 3426 N 325.182 1.32811 0.848464 0
M  V30 3427 C 326.13 1.22231 1.97895 0
M  V30 3428 C 327.124 0.125749 1.68933 0
M  V30 3429 O 328.33 0.289083 1.77663 0
M  V30 3430 H 324.705 0.379058 0.649476 0
M  V30 3431 H 326.676 2.17828 2.03945 0
M  V30 3432 C 325.425 0.968572 3.33937 0
M  V30 3433 H 324.748 1.80458 3.56756 0
M  V30 3434 H 326.188 0.934808 4.13567 0
M  V30 3435 C 324.647 -0.328628 3.35293 0
M  V30 3436 O 325.177 -1.33848 3.78745 0
M  V30 3437 N 323.383 -0.352788 2.88451 0
M  V30 3438 H 322.93 0.469541 2.53285 0
M  V30 3439 H 322.888 -1.22057 2.89741 0
M  V30 3440 N 326.66 -1.06551 1.16123 0
M  V30 3441 C 327.592 -2.13908 0.823171 0
M  V30 3442 C 328.605 -1.61926 -0.16843 0
M  V30 3443 O 329.794 -1.78412 0.055962 0
M  V30 3444 C 326.894 -3.38283 0.204424 0
M  V30 3445 C 326.067 -4.19589 1.23548 0
M  V30 3446 C 325.126 -5.2233 0.637011 0
M  V30 3447 O 324.152 -5.54034 1.30516 0
M  V30 3448 N 325.354 -5.77621 -0.577474 0
M  V30 3449 H 328.119 -2.43508 1.74711 0
M  V30 3450 H 325.68 -1.2253 1.05821 0
M  V30 3451 H 327.672 -4.0416 -0.208909 0
M  V30 3452 H 326.242 -3.06329 -0.623012 0
M  V30 3453 H 325.462 -3.49406 1.82507 0
M  V30 3454 H 326.75 -4.70718 1.93137 0
M  V30 3455 H 326.148 -5.54125 -1.13853 0
M  V30 3456 H 324.705 -6.45087 -0.933053 0
M  V30 3457 N 328.138 -0.959301 -1.25041 0
M  V30 3458 C 329.363 -0.633507 -1.97488 0
M  V30 3459 C 329.788 0.788555 -1.70773 0
M  V30 3460 O 329.146 1.53394 -0.966431 0
M  V30 3461 C 329.194 -0.904057 -3.49083 0
M  V30 3462 O 328.298 0.0147939 -4.12397 0
M  V30 3463 H 327.639 -0.240368 -0.618966 0
M  V30 3464 H 330.169 -1.28717 -1.59038 0
M  V30 3465 H 330.179 -0.832203 -3.99423 0
M  V30 3466 H 328.854 -1.94048 -3.67856 0
M  V30 3467 H 327.431 -0.109664 -3.72739 0
M  V30 3468 N 329.616 1.39756 -0.72842 0
M  V30 3469 C 330.841 2.05472 -0.282159 0
M  V30 3470 C 331.266 1.54549 1.07221 0
M  V30 3471 O 330.624 0.686372 1.67805 0
M  V30 3472 C 330.672 3.59462 -0.286264 0
M  V30 3473 O 329.776 4.05918 0.728298 0
M  V30 3474 H 329.117 0.651226 -0.129618 0
M  V30 3475 H 331.647 1.78915 -0.992499 0
M  V30 3476 H 331.657 4.07798 -0.128373 0
M  V30 3477 H 330.332 3.95889 -1.27456 0
M  V30 3478 H 328.909 3.69012 0.537081 0
M  V30 3479 N 331.094 0.475555 1.50254 0
M  V30 3480 C 332.343 -0.0795996 2.01543 0
M  V30 3481 C 332.656 -1.4038 1.36209 0
M  V30 3482 O 333.862 -2.04415 1.7868 0
M  V30 3483 C 332.318 -0.192363 3.59386 0
M  V30 3484 C 331.926 1.12367 4.33679 0
M  V30 3485 C 333.67 -0.699238 4.18701 0
M  V30 3486 C 331.577 0.974453 5.83317 0
M  V30 3487 H 330.507 -0.0335228 0.753254 0
M  V30 3488 H 333.158 0.611128 1.73025 0
M  V30 3489 H 331.54 -0.946974 3.84511 0
M  V30 3490 H 332.714 1.88958 4.20276 0
M  V30 3491 H 331.029 1.562 3.85993 0
M  V30 3492 H 333.626 -0.827978 5.28251 0
M  V30 3493 H 333.969 -1.69171 3.80377 0
M  V30 3494 H 334.502 -0.00188807 3.978 0
M  V30 3495 H 331.241 1.94042 6.26121 0
M  V30 3496 H 330.761 0.248998 5.99283 0
M  V30 3497 H 332.44 0.642867 6.43798 0
M  V30 3498 N 332.573 -1.56217 0.208337 0
M  V30 3499 C 333.506 -2.15633 -0.746842 0
M  V30 3500 C 334.484 -1.09685 -1.20034 0
M  V30 3501 O 335.668 -1.3787 -1.28547 0
M  V30 3502 C 332.795 -2.72594 -2.01023 0
M  V30 3503 C 331.841 -3.91251 -1.69779 0
M  V30 3504 S 332.674 -5.28962 -0.834209 0
M  V30 3505 C 333.83 -5.89353 -2.10745 0
M  V30 3506 H 334.063 -2.96315 -0.241789 0
M  V30 3507 H 331.596 -1.54398 -0.00682183 0
M  V30 3508 H 333.554 -3.06053 -2.73572 0
M  V30 3509 H 332.215 -1.91929 -2.48641 0
M  V30 3510 H 331.408 -4.29562 -2.63614 0
M  V30 3511 H 331.01 -3.58869 -1.05303 0
M  V30 3512 H 333.302 -6.04522 -3.05875 0
M  V30 3513 H 334.245 -6.85661 -1.76845 0
M  V30 3514 H 334.653 -5.1807 -2.24196 0
M  V30 3515 N 334.051 0.0651679 -1.57465 0
M  V30 3516 C 335.281 0.774683 -1.91526 0
M  V30 3517 C 335.689 1.71305 -0.803196 0
M  V30 3518 O 335.032 1.82231 0.231881 0
M  V30 3519 C 335.094 1.61645 -3.21109 0
M  V30 3520 C 334.758 0.846753 -4.49087 0
M  V30 3521 C 335.755 0.163024 -5.19644 0
M  V30 3522 C 333.44 0.811966 -4.95694 0
M  V30 3523 C 335.434 -0.54519 -6.35064 0
M  V30 3524 C 333.121 0.0999836 -6.11018 0
M  V30 3525 C 334.119 -0.577388 -6.80555 0
M  V30 3526 O 333.807 -1.27789 -7.93678 0
M  V30 3527 H 333.539 0.225031 -0.637446 0
M  V30 3528 H 336.093 0.0377134 -2.05365 0
M  V30 3529 H 334.323 2.39638 -3.03497 0
M  V30 3530 H 336.012 2.20525 -3.40769 0
M  V30 3531 H 336.778 0.181163 -4.84662 0
M  V30 3532 H 332.657 1.32867 -4.41438 0
M  V30 3533 H 336.201 -1.07446 -6.89276 0
M  V30 3534 H 332.098 0.0797945 -6.45451 0
M  V30 3535 H 332.866 -1.18784 -8.09835 0
M  V30 3536 N 335.529 1.53961 0.336706 0
M  V30 3537 C 336.94 1.62914 0.911925 0
M  V30 3538 C 337.291 0.514795 1.89326 0
M  V30 3539 O 336.416 -0.354395 2.13478 0
M  V30 3540 C 337.011 2.95304 1.66076 0
M  V30 3541 C 335.57 3.06496 2.18489 0
M  V30 3542 C 334.717 2.58403 1.00613 0
M  V30 3543 H 337.668 1.58285 0.114649 0
M  V30 3544 H 337.689 2.84727 2.5241 0
M  V30 3545 H 337.201 3.76387 0.946276 0
M  V30 3546 H 335.302 2.3006 2.93092 0
M  V30 3547 H 335.415 4.1208 2.44391 0
M  V30 3548 H 333.779 2.13977 1.38152 0
M  V30 3549 H 334.562 3.41932 0.306179 0
M  V30 3550 N 337.007 -0.598083 1.45811 0
M  V30 3551 C 338.235 -1.38322 1.53866 0
M  V30 3552 C 338.65 -1.87992 0.174479 0
M  V30 3553 O 338.007 -1.62756 -0.825627 0
M  V30 3554 C 338.058 -2.58125 2.53089 0
M  V30 3555 O 337.779 -2.10516 3.84206 0
M  V30 3556 C 339.28 -3.50869 2.70935 0
M  V30 3557 H 336.5 -0.423093 0.520801 0
M  V30 3558 H 339.044 -0.728527 1.91083 0
M  V30 3559 H 337.199 -3.19615 2.18917 0
M  V30 3560 H 337.613 -2.88425 4.38077 0
M  V30 3561 H 339.087 -4.31451 3.44317 0
M  V30 3562 H 339.564 -4.01822 1.77301 0
M  V30 3563 H 340.17 -2.95225 3.06141 0
M  V30 3564 N 338.485 -1.33259 -0.841409 0
M  V30 3565 C 339.715 -1.2742 -1.62628 0
M  V30 3566 C 340.123 0.157604 -1.88542 0
M  V30 3567 O 339.466 1.10938 -1.46419 0
M  V30 3568 C 339.528 -1.97797 -3.00194 0
M  V30 3569 C 339.192 -3.47109 -2.97261 0
M  V30 3570 C 340.189 -4.42358 -2.73159 0
M  V30 3571 C 337.874 -3.89247 -3.17478 0
M  V30 3572 C 339.868 -5.77718 -2.69296 0
M  V30 3573 C 337.555 -5.24713 -3.13241 0
M  V30 3574 C 338.553 -6.1876 -2.89181 0
M  V30 3575 O 338.241 -7.51745 -2.84843 0
M  V30 3576 H 337.973 -0.440436 -0.512827 0
M  V30 3577 H 340.527 -1.76153 -1.05638 0
M  V30 3578 H 338.757 -1.43652 -3.59028 0
M  V30 3579 H 340.446 -1.8549 -3.61038 0
M  V30 3580 H 341.212 -4.11127 -2.57294 0
M  V30 3581 H 337.091 -3.16456 -3.35226 0
M  V30 3582 H 340.635 -6.51097 -2.50436 0
M  V30 3583 H 336.532 -5.55569 -3.28654 0
M  V30 3584 H 337.3 -7.61262 -3.00702 0
M  V30 3585 N 339.963 1.05934 -1.16686 0
M  V30 3586 C 341.209 1.79211 -0.962023 0
M  V30 3587 C 341.564 1.85667 0.504545 0
M  V30 3588 O 340.857 1.33991 1.36956 0
M  V30 3589 C 341.051 3.23105 -1.52767 0
M  V30 3590 C 340.88 3.30673 -3.04771 0
M  V30 3591 C 339.65 3.40395 -3.73442 0
M  V30 3592 C 341.848 3.20234 -4.02436 0
M  V30 3593 N 339.83 3.37015 -5.13122 0
M  V30 3594 C 341.201 3.24138 -5.28521 0
M  V30 3595 C 343.256 3.04143 -3.9421 0
M  V30 3596 C 341.959 3.13607 -6.47336 0
M  V30 3597 C 343.985 2.94951 -5.12599 0
M  V30 3598 C 343.347 2.99481 -6.37566 0
M  V30 3599 H 339.446 0.668442 -0.405844 0
M  V30 3600 H 342.03 1.26341 -1.48142 0
M  V30 3601 H 340.201 3.74364 -1.03471 0
M  V30 3602 H 341.933 3.84579 -1.26021 0
M  V30 3603 H 338.688 3.45344 -3.2409 0
M  V30 3604 H 339.112 3.38815 -5.86117 0
M  V30 3605 H 343.754 2.99484 -2.98445 0
M  V30 3606 H 341.472 3.17022 -7.43319 0
M  V30 3607 H 345.058 2.83583 -5.08008 0
M  V30 3608 H 343.938 2.92431 -7.27636 0
M  V30 3609 N 341.441 0.965919 1.2453 0
M  V30 3610 C 342.671 0.643451 1.96324 0
M  V30 3611 C 343.079 -0.790927 1.71875 0
M  V30 3612 O 342.422 -1.54208 0.998273 0
M  V30 3613 C 342.484 0.836078 3.49643 0
M  V30 3614 C 342.148 2.24975 3.97788 0
M  V30 3615 C 343.145 3.22735 4.07601 0
M  V30 3616 C 340.83 2.57697 4.31158 0
M  V30 3617 C 342.824 4.51303 4.50116 0
M  V30 3618 C 340.511 3.86492 4.73357 0
M  V30 3619 C 341.509 4.83107 4.828 0
M  V30 3620 O 341.197 6.09605 5.24058 0
M  V30 3621 H 340.929 0.239223 0.632257 0
M  V30 3622 H 343.483 1.29587 1.59362 0
M  V30 3623 H 341.713 0.12649 3.86493 0
M  V30 3624 H 343.402 0.512965 4.02646 0
M  V30 3625 H 344.168 2.98783 3.82039 0
M  V30 3626 H 340.047 1.83216 4.23028 0
M  V30 3627 H 343.591 5.26716 4.57401 0
M  V30 3628 H 339.488 4.10245 4.98366 0
M  V30 3629 H 340.256 6.13146 5.42213 0
M  V30 3630 N 342.919 -1.39368 0.735821 0
M  V30 3631 C 343.869 -2.27885 0.0724287 0
M  V30 3632 C 344.853 -1.44301 -0.711756 0
M  V30 3633 O 346.045 -1.67206 -0.58063 0
M  V30 3634 C 343.174 -3.33029 -0.833454 0
M  V30 3635 C 342.26 -4.24078 -0.0433749 0
M  V30 3636 N 342.651 -4.96138 0.983903 0
M  V30 3637 C 340.949 -4.45164 -0.272905 0
M  V30 3638 C 341.65 -5.63069 1.4604 0
M  V30 3639 N 340.626 -5.37991 0.778857 0
M  V30 3640 H 344.428 -2.81052 0.859467 0
M  V30 3641 H 341.942 -1.5206 0.570227 0
M  V30 3642 H 343.939 -3.95311 -1.32419 0
M  V30 3643 H 342.599 -2.81421 -1.61964 0
M  V30 3644 H 343.61 -4.9958 1.36528 0
M  V30 3645 H 340.287 -4.04497 -1.03383 0
M  V30 3646 H 341.677 -6.30755 2.31511 0
M  V30 3647 N 344.397 -0.483516 -1.5 0
M  V30 3648 C 345.674 0.129337 -1.95172 0
M  V30 3649 C 346.054 1.55802 -1.4244 0
M  V30 3650 O 345.402 2.19625 -0.630649 0
M  V30 3651 C 345.612 0.0599251 -3.48949 0
M  V30 3652 C 346.96 0.242617 -4.23906 0
M  V30 3653 O 347.984 0.135933 -3.55941 0
M  V30 3654 O 346.843 0.459454 -5.44565 0
M  V30 3655 H 343.937 0.104887 -0.820322 0
M  V30 3656 H 346.483 -0.544807 -1.60717 0
M  V30 3657 H 345.255 -0.937079 -3.79914 0
M  V30 3658 H 344.878 0.774984 -3.89974 0
M  V30 3659 N 345.875 1.56104 -0.216619 0
M  V30 3660 C 347.286 1.844 0.292128 0
M  V30 3661 C 347.637 1.13788 1.59833 0
M  V30 3662 O 346.762 0.405888 2.12559 0
M  V30 3663 C 347.357 3.3452 0.53681 0
M  V30 3664 C 345.916 3.63151 0.989876 0
M  V30 3665 C 345.063 2.77255 0.0502302 0
M  V30 3666 H 348.014 1.52481 -0.439926 0
M  V30 3667 H 348.035 3.54459 1.38345 0
M  V30 3668 H 347.547 3.85885 -0.414031 0
M  V30 3669 H 345.648 3.17238 1.95425 0
M  V30 3670 H 345.761 4.71177 0.867698 0
M  V30 3671 H 344.125 2.48555 0.556117 0
M  V30 3672 H 344.908 3.31416 -0.89544 0
M  V30 3673 N 347.353 -0.0568162 1.57498 0
M  V30 3674 C 348.769 -0.411933 1.54192 0
M  V30 3675 C 348.969 -1.78287 0.938942 0
M  V30 3676 O 348.025 -2.46483 0.547919 0
M  V30 3677 C 349.338 -0.339244 2.9878 0
M  V30 3678 C 350.886 -0.418348 3.10192 0
M  V30 3679 C 351.361 -0.375407 4.56459 0
M  V30 3680 N 352.852 -0.435038 4.61153 0
M  V30 3681 C 353.587 -0.424265 5.71828 0
M  V30 3682 N 353.083 -0.367418 6.91825 0
M  V30 3683 N 354.876 -0.471938 5.60115 0
M  V30 3684 H 347.027 0.840684 1.95055 0
M  V30 3685 H 349.29 0.316987 0.893433 0
M  V30 3686 H 348.996 0.601742 3.46514 0
M  V30 3687 H 348.87 -1.14371 3.59443 0
M  V30 3688 H 351.257 -1.34976 2.62422 0
M  V30 3689 H 351.338 0.414962 2.52412 0
M  V30 3690 H 350.982 0.552219 5.04889 0
M  V30 3691 H 350.912 -1.22645 5.12119 0
M  V30 3692 H 353.403 -0.482612 3.74806 0
M  V30 3693 H 353.716 -0.363535 7.71944 0
M  V30 3694 H 352.061 -0.333879 6.94198 0
M  V30 3695 H 355.252 -0.514145 4.65268 0
M  V30 3696 H 355.425 -0.460073 6.46365 0
M  V30 3697 N 348.832 -1.54138 -0.328536 0
M  V30 3698 C 350.06 -1.76062 -1.08673 0
M  V30 3699 C 350.475 -0.506852 -1.81869 0
M  V30 3700 O 349.832 0.522223 -1.74869 0
M  V30 3701 C 349.883 -2.95054 -2.08866 0
M  V30 3702 O 349.604 -4.15583 -1.38644 0
M  V30 3703 C 351.105 -3.2915 -2.96943 0
M  V30 3704 H 348.325 -0.587889 -0.323461 0
M  V30 3705 H 350.869 -2.0101 -0.376175 0
M  V30 3706 H 349.024 -2.72394 -2.75464 0
M  V30 3707 H 349.438 -4.82481 -2.05699 0
M  V30 3708 H 350.912 -4.15723 -3.63151 0
M  V30 3709 H 351.389 -2.461 -3.63774 0
M  V30 3710 H 351.995 -3.53871 -2.35914 0
M  V30 3711 N 350.31 0.590341 -1.46126 0
M  V30 3712 C 351.557 1.34882 -1.5104 0
M  V30 3713 C 351.885 1.93849 -0.159021 0
M  V30 3714 O 351.14 1.76544 0.844436 0
M  V30 3715 C 351.439 2.5032 -2.55097 0
M  V30 3716 C 351.105 2.09394 -3.99331 0
M  V30 3717 C 349.767 1.97947 -4.38601 0
M  V30 3718 C 352.119 1.77712 -4.89967 0
M  V30 3719 C 349.447 1.53065 -5.66381 0
M  V30 3720 C 351.799 1.34312 -6.18177 0
M  V30 3721 C 350.463 1.21436 -6.56361 0
M  V30 3722 H 349.733 0.493568 -0.552695 0
M  V30 3723 H 352.38 0.665539 -1.79563 0
M  V30 3724 H 350.685 3.24062 -2.20207 0
M  V30 3725 H 352.382 3.08541 -2.56132 0
M  V30 3726 H 348.972 2.19235 -3.68285 0
M  V30 3727 H 353.156 1.85445 -4.60352 0
M  V30 3728 H 348.412 1.41733 -5.94745 0
M  V30 3729 H 352.586 1.08849 -6.87841 0
M  V30 3730 H 350.213 0.864345 -7.5527 0
M  V30 3731 N 351.788 1.33704 0.83433 0
M  V30 3732 C 352.72 1.20172 1.9517 0
M  V30 3733 C 353.733 0.131572 1.62267 0
M  V30 3734 O 354.922 0.382406 1.74356 0
M  V30 3735 C 352.022 0.821716 3.28787 0
M  V30 3736 C 351.195 1.98446 3.89792 0
M  V30 3737 C 350.254 1.58469 5.01771 0
M  V30 3738 O 349.28 2.29968 5.20676 0
M  V30 3739 N 350.482 0.492291 5.78409 0
M  V30 3740 H 353.247 2.16429 2.07313 0
M  V30 3741 H 350.808 1.26509 1.0103 0
M  V30 3742 H 352.8 0.536291 4.01131 0
M  V30 3743 H 351.37 -0.0503058 3.1256 0
M  V30 3744 H 350.59 2.43526 3.09982 0
M  V30 3745 H 351.878 2.76236 4.27283 0
M  V30 3746 H 351.276 -0.102349 5.65607 0
M  V30 3747 H 349.833 0.266555 6.51255 0
M  V30 3748 N 353.266 -1.05314 1.17247 0
M  V30 3749 C 354.196 -2.1498 0.911362 0
M  V30 3750 C 355.177 -1.69471 -0.146169 0
M  V30 3751 O 356.362 -1.942 0.003812 0
M  V30 3752 C 353.492 -3.4472 0.422528 0
M  V30 3753 C 352.446 -4.03789 1.4191 0
M  V30 3754 C 351.772 -5.28858 0.788274 0
M  V30 3755 C 353.072 -4.41418 2.7919 0
M  V30 3756 H 354.766 -2.3708 1.82848 0
M  V30 3757 H 352.312 -1.13938 0.880569 0
M  V30 3758 H 354.265 -4.20787 0.227289 0
M  V30 3759 H 352.989 -3.22269 -0.530123 0
M  V30 3760 H 351.648 -3.2979 1.60106 0
M  V30 3761 H 351.296 -5.02709 -0.171173 0
M  V30 3762 H 350.996 -5.69338 1.45353 0
M  V30 3763 H 352.52 -6.07612 0.603282 0
M  V30 3764 H 353.934 -5.08524 2.64719 0
M  V30 3765 H 352.331 -4.92913 3.42282 0
M  V30 3766 H 353.401 -3.51819 3.33693 0
M  V30 3767 N 354.744 -0.972509 -1.24016 0
M  V30 3768 C 355.969 -0.654417 -1.96805 0
M  V30 3769 C 356.394 0.770398 -1.716 0
M  V30 3770 O 355.752 1.52361 -0.982647 0
M  V30 3771 C 355.8 -0.941031 -3.48105 0
M  V30 3772 O 354.904 -0.0289472 -4.1239 0
M  V30 3773 H 354.245 -0.24692 -0.616382 0
M  V30 3774 H 356.775 -1.30396 -1.57664 0
M  V30 3775 H 356.785 -0.87452 -3.98517 0
M  V30 3776 H 355.46 -1.97939 -3.65777 0
M  V30 3777 H 354.037 -0.149192 -3.72601 0
M  V30 3778 N 356.222 1.38976 -0.743202 0
M  V30 3779 C 357.185 2.28901 -0.117014 0
M  V30 3780 C 358.185 1.46698 0.658503 0
M  V30 3781 O 359.375 1.67274 0.486305 0
M  V30 3782 C 356.507 3.30309 0.84315 0
M  V30 3783 H 357.7 2.8578 -0.909373 0
M  V30 3784 H 355.253 1.47761 -0.509547 0
M  V30 3785 H 355.988 2.785 1.66157 0
M  V30 3786 H 355.773 3.91029 0.289594 0
M  V30 3787 H 357.263 3.97577 1.2776 0
M  V30 3788 N 357.7 0.491464 1.49741 0
M  V30 3789 C 358.977 -0.118984 1.95238 0
M  V30 3790 C 359.357 -1.55044 1.43264 0
M  V30 3791 O 358.705 -2.19287 0.642287 0
M  V30 3792 C 358.915 -0.0414187 3.48975 0
M  V30 3793 C 360.263 -0.220133 4.24029 0
M  V30 3794 O 361.287 -0.117055 3.56008 0
M  V30 3795 O 360.146 -0.430567 5.44801 0
M  V30 3796 H 357.24 -0.100536 0.820866 0
M  V30 3797 H 359.786 0.553322 1.60426 0
M  V30 3798 H 358.558 0.957214 3.79412 0
M  V30 3799 H 358.181 -0.754292 3.9038 0
M  V30 3800 N 359.178 -1.55987 0.224894 0
M  V30 3801 C 360.455 -1.90232 -0.455083 0
M  V30 3802 C 360.835 -1.14269 -1.77499 0
M  V30 3803 O 360.183 -0.253079 -2.27094 0
M  V30 3804 C 360.393 -3.42993 -0.644758 0
M  V30 3805 C 361.741 -4.13821 -0.950669 0
M  V30 3806 O 362.765 -3.4861 -0.731423 0
M  V30 3807 O 361.624 -5.29128 -1.36695 0
M  V30 3808 H 358.718 -0.79108 -0.241084 0
M  V30 3809 H 361.264 -1.67581 0.267327 0
M  V30 3810 H 360.036 -3.90252 0.28613 0
M  V30 3811 H 359.659 -3.71434 -1.41853 0
M  V30 3812 N 360.656 0.0484629 -1.57525 0
M  V30 3813 C 361.905 0.742065 -1.87553 0
M  V30 3814 C 362.218 1.77545 -0.820802 0
M  V30 3815 O 363.424 2.52027 -1.00967 0
M  V30 3816 C 361.88 1.37081 -3.32771 0
M  V30 3817 C 361.488 0.374786 -4.4643 0
M  V30 3818 C 363.232 2.04542 -3.71972 0
M  V30 3819 C 361.139 1.01077 -5.82698 0
M  V30 3820 H 360.069 0.280903 -0.699721 0
M  V30 3821 H 362.72 -0.00411877 -1.835 0
M  V30 3822 H 361.102 2.16605 -3.31509 0
M  V30 3823 H 362.276 -0.392331 -4.59127 0
M  V30 3824 H 360.591 -0.196653 -4.15935 0
M  V30 3825 H 363.188 2.52943 -4.71088 0
M  V30 3826 H 363.531 2.85515 -3.02964 0
M  V30 3827 H 364.064 1.31819 -3.75325 0
M  V30 3828 H 360.803 0.240878 -6.55057 0
M  V30 3829 H 360.323 1.74819 -5.73758 0
M  V30 3830 H 362.002 1.52383 -6.28799 0
M  V30 3831 N 362.134 1.5431 0.320358 0
M  V30 3832 C 363.066 1.80262 1.41556 0
M  V30 3833 C 364.079 0.684723 1.477 0
M  V30 3834 O 365.268 0.961886 1.50366 0
M  V30 3835 C 362.368 1.90825 2.8007 0
M  V30 3836 C 361.541 3.21023 2.97091 0
M  V30 3837 C 360.6 3.22247 4.15985 0
M  V30 3838 O 359.626 3.95871 4.08992 0
M  V30 3839 N 360.828 2.46258 5.25678 0
M  V30 3840 H 363.593 2.74778 1.19655 0
M  V30 3841 H 361.154 1.53646 0.510358 0
M  V30 3842 H 363.146 1.89067 3.57821 0
M  V30 3843 H 361.716 1.03392 2.95006 0
M  V30 3844 H 360.936 3.35715 2.06614 0
M  V30 3845 H 362.224 4.0698 3.05361 0
M  V30 3846 H 361.622 1.86037 5.34235 0
M  V30 3847 H 360.179 2.50275 6.01835 0
M  V30 3848 N 363.613 -0.582584 1.46437 0
M  V30 3849 C 365.029 -0.905962 1.31394 0
M  V30 3850 C 365.229 -1.99468 0.285476 0
M  V30 3851 O 364.285 -2.50566 -0.311914 0
M  V30 3852 C 365.598 -1.3232 2.70022 0
M  V30 3853 C 367.146 -1.43604 2.78113 0
M  V30 3854 C 367.621 -1.88694 4.17323 0
M  V30 3855 N 369.112 -1.95887 4.19741 0
M  V30 3856 C 369.847 -2.32051 5.24347 0
M  V30 3857 N 369.343 -2.67006 6.39281 0
M  V30 3858 N 371.136 -2.32606 5.11713 0
M  V30 3859 H 363.287 0.1366 2.1196 0
M  V30 3860 H 365.55 -0.00155736 0.947999 0
M  V30 3861 H 365.256 -0.597242 3.46592 0
M  V30 3862 H 365.13 -2.28469 3.00136 0
M  V30 3863 H 367.517 -2.15286 2.01832 0
M  V30 3864 H 367.598 -0.457059 2.51684 0
M  V30 3865 H 367.242 -1.1759 4.941 0
M  V30 3866 H 367.172 -2.8755 4.4116 0
M  V30 3867 H 369.663 -1.71362 3.36814 0
M  V30 3868 H 369.976 -2.93554 7.14875 0
M  V30 3869 H 368.321 -2.64644 6.42642 0
M  V30 3870 H 371.512 -2.04721 4.2096 0
M  V30 3871 H 371.685 -2.60462 5.93349 0
M  V30 3872 N 365.091 -1.34144 -0.827227 0
M  V30 3873 C 366.34 -1.25602 -1.5782 0
M  V30 3874 C 366.653 0.173445 -1.94829 0
M  V30 3875 O 367.859 0.380984 -2.68814 0
M  V30 3876 C 366.315 -2.20151 -2.84713 0
M  V30 3877 C 365.923 -3.68331 -2.55021 0
M  V30 3878 C 367.667 -2.20508 -3.62735 0
M  V30 3879 C 365.574 -4.54762 -3.78082 0
M  V30 3880 H 364.504 -0.466573 -0.592306 0
M  V30 3881 H 367.155 -1.59283 -0.911116 0
M  V30 3882 H 365.537 -1.79417 -3.53023 0
M  V30 3883 H 366.711 -4.17577 -1.94849 0
M  V30 3884 H 365.026 -3.7038 -1.90283 0
M  V30 3885 H 367.623 -2.82306 -4.54101 0
M  V30 3886 H 367.966 -1.20322 -3.98533 0
M  V30 3887 H 368.499 -2.59664 -3.01362 0
M  V30 3888 H 365.238 -5.55867 -3.47407 0
M  V30 3889 H 364.758 -4.10254 -4.37552 0
M  V30 3890 H 366.437 -4.69153 -4.45538 0
M  V30 3891 N 366.569 1.04691 -1.17803 0
M  V30 3892 C 367.501 2.12571 -0.857097 0
M  V30 3893 C 368.514 1.62174 0.142647 0
M  V30 3894 O 369.703 1.78301 -0.0843387 0
M  V30 3895 C 366.803 3.37915 -0.258216 0
M  V30 3896 C 365.976 4.1757 -1.30207 0
M  V30 3897 C 365.035 5.2125 -0.720029 0
M  V30 3898 O 364.061 5.51888 -1.39314 0
M  V30 3899 N 365.263 5.78466 0.485507 0
M  V30 3900 H 368.028 2.40698 -1.78562 0
M  V30 3901 H 365.589 1.20831 -1.07757 0
M  V30 3902 H 367.581 4.04442 0.144584 0
M  V30 3903 H 366.151 3.07281 0.574199 0
M  V30 3904 H 365.371 3.46458 -1.88043 0
M  V30 3905 H 366.659 4.67586 -2.00601 0
M  V30 3906 H 366.057 5.55866 1.05022 0
M  V30 3907 H 364.614 6.4649 0.830307 0
M  V30 3908 N 368.047 0.979072 1.23499 0
M  V30 3909 C 368.997 0.489378 2.22686 0
M  V30 3910 C 369.981 -0.434871 1.54912 0
M  V30 3911 O 371.173 -0.263941 1.75021 0
M  V30 3912 C 368.302 -0.208178 3.42668 0
M  V30 3913 C 367.388 0.735563 4.17672 0
M  V30 3914 N 367.779 1.87763 4.69658 0
M  V30 3915 C 366.077 0.548625 4.42613 0
M  V30 3916 C 366.778 2.46886 5.26709 0
M  V30 3917 N 365.754 1.75287 5.14563 0
M  V30 3918 H 369.556 1.36062 2.60508 0
M  V30 3919 H 367.07 0.83958 1.39014 0
M  V30 3920 H 369.067 -0.576295 4.12898 0
M  V30 3921 H 367.727 -1.07572 3.06363 0
M  V30 3922 H 368.738 2.25885 4.66043 0
M  V30 3923 H 365.415 -0.274006 4.166 0
M  V30 3924 H 366.805 3.43326 5.77561 0
M  V30 3925 N 369.525 -1.3858 0.750561 0
M  V30 3926 C 370.455 -2.33102 0.136237 0
M  V30 3927 C 371.436 -1.54713 -0.706965 0
M  V30 3928 O 372.621 -1.83043 -0.648769 0
M  V30 3929 C 369.751 -3.38882 -0.760017 0
M  V30 3930 C 368.705 -4.27995 -0.0197785 0
M  V30 3931 C 368.031 -5.24605 -1.03408 0
M  V30 3932 C 369.331 -5.09554 1.14684 0
M  V30 3933 H 371.025 -2.84726 0.925822 0
M  V30 3934 H 368.571 -1.36898 0.446654 0
M  V30 3935 H 370.524 -4.0397 -1.19943 0
M  V30 3936 H 369.248 -2.85734 -1.58189 0
M  V30 3937 H 367.907 -3.64409 0.400184 0
M  V30 3938 H 367.555 -4.67746 -1.84994 0
M  V30 3939 H 367.255 -5.85081 -0.543464 0
M  V30 3940 H 368.779 -5.9257 -1.47288 0
M  V30 3941 H 370.193 -5.67899 0.785118 0
M  V30 3942 H 368.59 -5.7925 1.56812 0
M  V30 3943 H 369.66 -4.4347 1.96118 0
M  V30 3944 N 371.003 -0.499398 -1.49478 0
M  V30 3945 C 372.233 0.0424839 -2.06556 0
M  V30 3946 C 372.641 1.31514 -1.36018 0
M  V30 3947 O 371.984 1.78555 -0.431718 0
M  V30 3948 C 372.046 0.368074 -3.57611 0
M  V30 3949 C 371.71 -0.806631 -4.49825 0
M  V30 3950 C 372.707 -1.69667 -4.91436 0
M  V30 3951 C 370.392 -1.00498 -4.92144 0
M  V30 3952 C 372.386 -2.76923 -5.74101 0
M  V30 3953 C 370.073 -2.08072 -5.74586 0
M  V30 3954 C 371.071 -2.96119 -6.15469 0
M  V30 3955 O 370.759 -4.01836 -6.96264 0
M  V30 3956 H 370.491 -0.0165165 -0.675798 0
M  V30 3957 H 373.045 -0.695497 -1.93267 0
M  V30 3958 H 371.275 1.15963 -3.68903 0
M  V30 3959 H 372.964 0.848381 -3.96935 0
M  V30 3960 H 373.73 -1.55524 -4.59388 0
M  V30 3961 H 369.609 -0.329036 -4.59824 0
M  V30 3962 H 373.153 -3.45676 -6.05932 0
M  V30 3963 H 369.05 -2.22211 -6.06047 0
M  V30 3964 H 369.818 -3.9917 -7.14567 0
M  V30 3965 N 372.481 1.55866 -0.233164 0
M  V30 3966 C 373.729 1.9821 0.394593 0
M  V30 3967 C 374.05 1.12234 1.59463 0
M  V30 3968 O 373.32 0.201981 1.94856 0
M  V30 3969 H 371.9 0.732034 0.148778 0
M  V30 3970 H 374.562 1.92107 -0.32876 0
M  V30 3971 H 373.658 3.03845 0.713063 0
M  V30 3972 N 373.959 -0.0401083 1.57549 0
M  V30 3973 C 374.869 -1.06133 2.0922 0
M  V30 3974 C 375.885 -1.40356 1.0284 0
M  V30 3975 O 377.061 -1.49897 1.34509 0
M  V30 3976 C 374.126 -2.34658 2.55218 0
M  V30 3977 C 373.187 -2.07117 3.76033 0
M  V30 3978 C 372.42 -3.29514 4.19829 0
M  V30 3979 O 372.643 -4.39794 3.63232 0
M  V30 3980 O 371.577 -3.15863 5.12362 0
M  V30 3981 H 375.403 -0.652244 2.96613 0
M  V30 3982 H 372.988 -0.256368 1.47184 0
M  V30 3983 H 374.87 -3.10239 2.85184 0
M  V30 3984 H 373.545 -2.74883 1.70941 0
M  V30 3985 H 372.452 -1.29139 3.51104 0
M  V30 3986 H 373.785 -1.71754 4.61261 0
M  V30 3987 N 375.437 -1.54477 -0.31217 0
M  V30 3988 C 376.384 -1.84655 -1.38461 0
M  V30 3989 C 377.354 -0.694536 -1.50882 0
M  V30 3990 O 378.539 -0.942081 -1.6592 0
M  V30 3991 C 375.679 -2.0896 -2.74645 0
M  V30 3992 C 374.792 -3.36618 -2.70763 0
M  V30 3993 C 373.927 -3.50824 -3.98868 0
M  V30 3994 C 372.966 -4.72315 -3.89339 0
M  V30 3995 N 372.103 -4.83387 -5.09197 0
M  V30 3996 H 376.943 -2.76142 -1.12026 0
M  V30 3997 H 374.48 -1.36748 -0.542065 0
M  V30 3998 H 376.438 -2.21045 -3.53829 0
M  V30 3999 H 375.068 -1.20752 -2.99364 0
M  V30 4000 H 374.12 -3.33211 -1.83506 0
M  V30 4001 H 375.432 -4.25917 -2.59608 0
M  V30 4002 H 374.586 -3.62513 -4.86486 0
M  V30 4003 H 373.325 -2.59638 -4.12843 0
M  V30 4004 H 372.33 -4.6067 -3.00105 0
M  V30 4005 H 373.555 -5.64897 -3.76919 0
M  V30 4006 H 371.501 -3.9512 -5.23657 0
M  V30 4007 H 371.418 -5.66669 -5.00422 0
M  V30 4008 H 372.686 -4.9942 -5.98498 0
M  V30 4009 N 376.915 0.57481 -1.46744 0
M  V30 4010 C 378.155 1.34369 -1.54027 0
M  V30 4011 C 378.519 1.91051 -0.190642 0
M  V30 4012 O 379.72 2.68444 -0.138255 0
M  V30 4013 C 377.991 2.43706 -2.61423 0
M  V30 4014 S 379.55 3.30915 -2.88167 0
M  V30 4015 H 376.368 0.45768 -0.544105 0
M  V30 4016 H 378.97 0.659959 -1.84024 0
M  V30 4017 H 377.674 2.0047 -3.58106 0
M  V30 4018 H 377.205 3.16842 -2.33184 0
M  V30 4019 H 379.22 4.42742 -2.24039 0
M  V30 4020 N 378.394 1.34581 0.820102 0
M  V30 4021 C 379.619 1.30333 1.61332 0
M  V30 4022 C 380.044 -0.119339 1.87721 0
M  V30 4023 O 379.402 -1.08197 1.45475 0
M  V30 4024 C 379.45 2.10258 2.92957 0
M  V30 4025 O 378.554 1.47404 3.85157 0
M  V30 4026 H 377.895 0.447488 0.490561 0
M  V30 4027 H 380.425 1.77425 1.01889 0
M  V30 4028 H 380.435 2.21718 3.42498 0
M  V30 4029 H 379.11 3.13693 2.73074 0
M  V30 4030 H 377.687 1.44703 3.43679 0
M  V30 4031 N 379.872 -1.04064 1.18357 0
M  V30 4032 C 381.097 -1.81454 1.00445 0
M  V30 4033 C 381.522 -1.82823 -0.442423 0
M  V30 4034 O 380.88 -1.24555 -1.31741 0
M  V30 4035 C 380.928 -3.24925 1.56384 0
M  V30 4036 O 380.032 -4.04856 0.785209 0
M  V30 4037 H 379.373 -0.560604 0.355835 0
M  V30 4038 H 381.903 -1.31059 1.57114 0
M  V30 4039 H 381.913 -3.75702 1.59097 0
M  V30 4040 H 380.588 -3.23244 2.61699 0
M  V30 4041 H 379.165 -3.63537 0.830399 0
M  V30 4042 N 381.35 -0.985608 -1.22978 0
M  V30 4043 C 382.627 -0.573599 -1.87001 0
M  V30 4044 C 383.007 0.949213 -1.88555 0
M  V30 4045 O 382.355 1.82811 -1.37086 0
M  V30 4046 C 382.565 -1.18564 -3.28243 0
M  V30 4047 C 383.913 -1.28163 -4.04796 0
M  V30 4048 O 384.937 -1.13949 -3.37482 0
M  V30 4049 O 383.796 -1.50832 -5.25273 0
M  V30 4050 H 380.89 -0.193868 -0.803955 0
M  V30 4051 H 383.436 -1.08102 -1.30813 0
M  V30 4052 H 382.208 -2.22758 -3.21706 0
M  V30 4053 H 381.831 -0.663363 -3.92027 0
M  V30 4054 N 382.828 1.3818 -0.7579 0
M  V30 4055 C 384.077 1.99261 -0.312744 0
M  V30 4056 C 384.39 1.60846 1.11301 0
M  V30 4057 O 385.596 2.14929 1.65885 0
M  V30 4058 C 384.052 3.56294 -0.50821 0
M  V30 4059 C 383.66 4.03657 -1.94333 0
M  V30 4060 C 385.404 4.24313 -0.125982 0
M  V30 4061 C 383.311 5.53347 -2.08712 0
M  V30 4062 H 382.241 0.745456 -0.113185 0
M  V30 4063 H 384.892 1.57889 -0.935056 0
M  V30 4064 H 383.274 3.95575 0.183353 0
M  V30 4065 H 384.448 3.75655 -2.66871 0
M  V30 4066 H 382.763 3.48376 -2.28086 0
M  V30 4067 H 385.36 5.34279 -0.212125 0
M  V30 4068 H 385.703 4.05962 0.921964 0
M  V30 4069 H 386.236 3.90285 -0.769563 0
M  V30 4070 H 382.975 5.76607 -3.11777 0
M  V30 4071 H 382.495 5.83078 -1.4064 0
M  V30 4072 H 384.174 6.19111 -1.87912 0
M  V30 4073 N 384.306 0.507319 1.49211 0
M  V30 4074 C 385.717 0.0611118 1.866 0
M  V30 4075 C 386.068 -1.35488 1.41907 0
M  V30 4076 O 385.193 -2.0108 0.799726 0
M  V30 4077 C 385.788 0.104125 3.3864 0
M  V30 4078 C 384.347 -0.28677 3.75306 0
M  V30 4079 C 383.494 0.473893 2.73221 0
M  V30 4080 H 386.445 0.719775 1.41439 0
M  V30 4081 H 386.466 -0.689672 3.74198 0
M  V30 4082 H 385.978 1.13482 3.71138 0
M  V30 4083 H 384.079 -1.32046 3.48417 0
M  V30 4084 H 384.192 0.0370745 4.79086 0
M  V30 4085 H 382.556 -0.0770644 2.54583 0
M  V30 4086 H 383.339 1.50478 3.08563 0
M  V30 4087 O 385.823 -1.56889 0.38316 0
M  V30 4088 H 386.514 -1.93009 -0.163415 0
M  V30 END ATOM
M  V30 BEGIN BOND
M  V30 END BOND
M  V30 END CTAB
M  END
$$$$
