drugbank_target|Q9UBS5 Gamma-aminobutyric acid type B receptor subunit 1 (DB00181; DB00837; DB01956; DB02530; DB05010; DB06354; DB08891; DB08892)
 OpenBabel12092119273D

  0  0  0     0  0            999 V3000
M  V30 BEGIN CTAB
M  V30 COUNTS 15261 15449 0 0 0
M  V30 BEGIN ATOM
M  V30 1 H -0.908 1.98254 -0.117106 0
M  V30 2 N 0 1.576 0 0
M  V30 3 C 0.933 2.03868 1.02534 0
M  V30 4 C 1.911 0.928543 1.3348 0
M  V30 5 O 3.095 1.19667 1.45644 0
M  V30 6 C 0.222 2.43627 2.35294 0
M  V30 7 C -0.732 3.65373 2.2001 0
M  V30 8 S 0.101 5.13292 1.52614 0
M  V30 9 C 1.257 5.56322 2.86805 0
M  V30 10 H 1.49 2.90518 0.631377 0
M  V30 11 H -0.977 1.52953 0.210867 0
M  V30 12 H 0.981 2.67203 3.11629 0
M  V30 13 H -0.358 1.57376 2.7183 0
M  V30 14 H -1.165 3.90944 3.18086 0
M  V30 15 H -1.563 3.418 1.51819 0
M  V30 16 H 0.729 5.58782 3.83104 0
M  V30 17 H 1.672 6.56266 2.65933 0
M  V30 18 H 2.08 4.83886 2.90714 0
M  V30 19 N 1.4781 -0.272755 1.55222 0
M  V30 20 C 2.4081 -1.34136 1.91127 0
M  V30 21 C 3.3891 -1.51513 0.773168 0
M  V30 22 O 4.5741 -1.64552 1.03132 0
M  V30 23 C 1.7041 -2.70083 2.1834 0
M  V30 24 C 0.6581 -2.67437 3.34158 0
M  V30 25 C -0.0159 -4.06938 3.46851 0
M  V30 26 C 1.2841 -2.26686 4.70543 0
M  V30 27 H 2.9781 -1.04333 2.80633 0
M  V30 28 H 0.5241 -0.500454 1.35024 0
M  V30 29 H 2.4771 -3.44952 2.42046 0
M  V30 30 H 1.2011 -3.01469 1.25634 0
M  V30 31 H -0.1399 -1.95026 3.1042 0
M  V30 32 H -0.4919 -4.35547 2.51611 0
M  V30 33 H -0.7919 -4.06062 4.2472 0
M  V30 34 H 0.7321 -4.83545 3.72849 0
M  V30 35 H 2.1461 -2.91277 4.93792 0
M  V30 36 H 0.5431 -2.36971 5.5133 0
M  V30 37 H 1.6131 -1.21818 4.69349 0
M  V30 38 N 2.9562 -1.48159 -0.537278 0
M  V30 39 C 3.8862 -1.65029 -1.6519 0
M  V30 40 C 4.8672 -0.499281 -1.62607 0
M  V30 41 O 6.0522 -0.730972 -1.79918 0
M  V30 42 C 3.1822 -1.68303 -3.03795 0
M  V30 43 C 2.1362 -2.8283 -3.21234 0
M  V30 44 C 1.4622 -2.71189 -4.60826 0
M  V30 45 C 2.7622 -4.24211 -3.04701 0
M  V30 46 H 4.4562 -2.58341 -1.51328 0
M  V30 47 H 2.0022 -1.24325 -0.726585 0
M  V30 48 H 3.9552 -1.78693 -3.81637 0
M  V30 49 H 2.6792 -0.715635 -3.18663 0
M  V30 50 H 1.3382 -2.71983 -2.45807 0
M  V30 51 H 0.9862 -1.72435 -4.7252 0
M  V30 52 H 0.6862 -3.48035 -4.7344 0
M  V30 53 H 2.2102 -2.83537 -5.40777 0
M  V30 54 H 3.6242 -4.3593 -3.72341 0
M  V30 55 H 2.0212 -5.01998 -3.28813 0
M  V30 56 H 3.0912 -4.41184 -2.01209 0
M  V30 57 N 4.4343 0.785586 -1.36625 0
M  V30 58 C 5.3643 1.91259 -1.33949 0
M  V30 59 C 6.3453 1.68795 -0.210325 0
M  V30 60 O 7.5303 1.89854 -0.408561 0
M  V30 61 C 4.6603 3.28339 -1.13186 0
M  V30 62 C 3.6143 3.65335 -2.22967 0
M  V30 63 C 2.9403 5.00806 -1.87342 0
M  V30 64 C 4.2403 3.7352 -3.65075 0
M  V30 65 H 5.9343 1.93755 -2.28253 0
M  V30 66 H 3.4803 0.930788 -1.09874 0
M  V30 67 H 5.4333 4.06804 -1.09948 0
M  V30 68 H 4.1573 3.2624 -0.153332 0
M  V30 69 H 2.8163 2.89169 -2.25337 0
M  V30 70 H 2.4643 4.95233 -0.880545 0
M  V30 71 H 2.1643 5.26529 -2.60846 0
M  V30 72 H 3.6883 5.81687 -1.85667 0
M  V30 73 H 5.1023 4.42168 -3.64911 0
M  V30 74 H 3.4993 4.10731 -4.37516 0
M  V30 75 H 4.5693 2.74527 -3.99703 0
M  V30 76 N 5.9124 1.20967 1.01018 0
M  V30 77 C 6.8424 0.988272 2.11555 0
M  V30 78 C 7.8234 -0.0849778 1.69888 0
M  V30 79 O 9.0084 0.0738202 1.9406 0
M  V30 80 C 6.1384 0.546528 3.42973 0
M  V30 81 C 5.0924 1.56375 3.9841 0
M  V30 82 C 4.4184 0.97842 5.25672 0
M  V30 83 C 5.7184 2.94922 4.31066 0
M  V30 84 H 7.4124 1.91276 2.30334 0
M  V30 85 H 4.9584 0.921073 1.1069 0
M  V30 86 H 6.9114 0.378839 4.19694 0
M  V30 87 H 5.6354 -0.413598 3.23971 0
M  V30 88 H 4.2944 1.71891 3.23804 0
M  V30 89 H 3.9424 0.0101688 5.02999 0
M  V30 90 H 3.6424 1.65784 5.63728 0
M  V30 91 H 5.1664 0.821939 6.05043 0
M  V30 92 H 6.5804 2.8288 4.9865 0
M  V30 93 H 4.9774 3.5983 4.80253 0
M  V30 94 H 6.0474 3.4616 3.39561 0
M  V30 95 N 7.3905 -1.2043 1.01659 0
M  V30 96 C 8.3205 -2.25466 0.607226 0
M  V30 97 C 9.3015 -1.65853 -0.377716 0
M  V30 98 O 10.4865 -1.92409 -0.263149 0
M  V30 99 C 7.6165 -3.47256 -0.0552949 0
M  V30 100 C 6.5705 -4.19462 0.850632 0
M  V30 101 C 5.8965 -5.34673 0.0538859 0
M  V30 102 C 7.1965 -4.75603 2.15868 0
M  V30 103 H 8.8905 -2.59962 1.48526 0
M  V30 104 H 6.4365 -1.2496 0.715605 0
M  V30 105 H 8.3895 -4.19917 -0.353233 0
M  V30 106 H 7.1135 -3.11924 -0.968045 0
M  V30 107 H 5.7725 -3.48667 1.13257 0
M  V30 108 H 5.4205 -4.95585 -0.860514 0
M  V30 109 H 5.1205 -5.83913 0.657192 0
M  V30 110 H 6.6445 -6.10138 -0.237598 0
M  V30 111 H 8.0585 -5.40083 1.92311 0
M  V30 112 H 6.4555 -5.3528 2.71284 0
M  V30 113 H 7.5255 -3.94346 2.82169 0
M  V30 114 N 8.8686 -0.792821 -1.36206 0
M  V30 115 C 9.7986 -0.207853 -2.32573 0
M  V30 116 C 10.7796 0.659055 -1.56813 0
M  V30 117 O 11.9646 0.592176 -1.84951 0
M  V30 118 C 9.0946 0.655449 -3.41059 0
M  V30 119 C 8.0486 -0.111842 -4.27854 0
M  V30 120 C 7.3746 0.872274 -5.27537 0
M  V30 121 C 8.6746 -1.30299 -5.05786 0
M  V30 122 H 10.3686 -1.01294 -2.81744 0
M  V30 123 H 7.9146 -0.48854 -1.3546 0
M  V30 124 H 9.8676 1.07464 -4.07467 0
M  V30 125 H 8.5916 1.49328 -2.90463 0
M  V30 126 H 7.2506 -0.512053 -3.63006 0
M  V30 127 H 6.8986 1.70523 -4.73214 0
M  V30 128 H 6.5986 0.363291 -5.86476 0
M  V30 129 H 8.1226 1.28996 -5.96818 0
M  V30 130 H 9.5366 -0.959379 -5.65216 0
M  V30 131 H 7.9336 -1.7455 -5.74154 0
M  V30 132 H 9.0036 -2.09663 -4.37229 0
M  V30 133 N 10.3467 1.47872 -0.545128 0
M  V30 134 C 11.3097 2.28337 0.198717 0
M  V30 135 C 12.3097 1.36255 0.853888 0
M  V30 136 O 13.4997 1.59003 0.711606 0
M  V30 137 C 10.6317 3.15585 1.28915 0
M  V30 138 H 11.8247 2.95567 -0.507941 0
M  V30 139 H 9.3777 1.53362 -0.301616 0
M  V30 140 H 10.1127 2.53019 2.02859 0
M  V30 141 H 9.8977 3.83337 0.824309 0
M  V30 142 H 11.3877 3.76243 1.81194 0
M  V30 143 N 11.8248 0.280983 1.55075 0
M  V30 144 C 13.2358 -0.215629 1.85451 0
M  V30 145 C 13.5868 -1.54991 1.203 0
M  V30 146 O 12.7118 -2.10699 0.493435 0
M  V30 147 C 13.3068 -0.398026 3.36454 0
M  V30 148 C 11.8658 -0.838866 3.66933 0
M  V30 149 C 11.0128 0.064458 2.77225 0
M  V30 150 H 13.9638 0.502601 1.50531 0
M  V30 151 H 13.9848 -1.23569 3.59876 0
M  V30 152 H 13.4968 0.573241 3.83843 0
M  V30 153 H 11.5978 -1.8214 3.25048 0
M  V30 154 H 11.7108 -0.672123 4.74362 0
M  V30 155 H 10.0748 -0.452863 2.50642 0
M  V30 156 H 10.8578 1.03172 3.2743 0
M  V30 157 N 13.3029 -1.57598 0.00835791 0
M  V30 158 C 14.2329 -2.1198 -0.979113 0
M  V30 159 C 15.2139 -1.03091 -1.35301 0
M  V30 160 O 16.3989 -1.30818 -1.43528 0
M  V30 161 C 13.5289 -2.62995 -2.26828 0
M  V30 162 C 12.4829 -3.76485 -2.03576 0
M  V30 163 C 11.8089 -4.13846 -3.38579 0
M  V30 164 C 13.1089 -5.0342 -1.39161 0
M  V30 165 H 14.8029 -2.94738 -0.526281 0
M  V30 166 H 12.3489 -1.41783 -0.251704 0
M  V30 167 H 14.3019 -2.99669 -2.96271 0
M  V30 168 H 13.0259 -1.7737 -2.7424 0
M  V30 169 H 11.6849 -3.40217 -1.36557 0
M  V30 170 H 11.3329 -3.25232 -3.83709 0
M  V30 171 H 11.0329 -4.90312 -3.23834 0
M  V30 172 H 12.5569 -4.53086 -4.09323 0
M  V30 173 H 13.9709 -5.37812 -1.98573 0
M  V30 174 H 12.3679 -5.84746 -1.34878 0
M  V30 175 H 13.4379 -4.83548 -0.361868 0
M  V30 176 N 14.781 0.264519 -1.55364 0
M  V30 177 C 16.028 0.994986 -1.7637 0
M  V30 178 C 16.356 1.85976 -0.5695 0
M  V30 179 O 15.611 1.90509 0.44776 0
M  V30 180 C 15.91 1.9004 -3.02687 0
M  V30 181 C 15.576 1.19243 -4.34847 0
M  V30 182 C 14.238 0.996709 -4.70764 0
M  V30 183 C 16.59 0.689296 -5.16622 0
M  V30 184 C 13.918 0.285261 -5.86006 0
M  V30 185 C 16.27 -0.00860079 -6.32599 0
M  V30 186 C 14.934 -0.215963 -6.67151 0
M  V30 187 H 14.204 0.364091 -0.645383 0
M  V30 188 H 16.851 0.266543 -1.89636 0
M  V30 189 H 15.156 2.69533 -2.84357 0
M  V30 190 H 16.853 2.46695 -3.16137 0
M  V30 191 H 13.443 1.3549 -4.06621 0
M  V30 192 H 17.627 0.828108 -4.89342 0
M  V30 193 H 12.883 0.113961 -6.11294 0
M  V30 194 H 17.057 -0.406186 -6.95214 0
M  V30 195 H 14.684 -0.769217 -7.56298 0
M  V30 196 N 16.2591 1.48442 0.529413 0
M  V30 197 C 17.1891 1.65902 1.64313 0
M  V30 198 C 18.1701 0.507897 1.6234 0
M  V30 199 O 19.3551 0.740503 1.79528 0
M  V30 200 C 16.4851 1.69911 3.02898 0
M  V30 201 C 15.4391 2.8453 3.19729 0
M  V30 202 C 14.7651 2.73629 4.59381 0
M  V30 203 C 16.0651 4.25821 3.02447 0
M  V30 204 H 17.7591 2.5914 1.49955 0
M  V30 205 H 15.3051 1.24709 0.719982 0
M  V30 206 H 17.2581 1.80715 3.80684 0
M  V30 207 H 15.9821 0.732524 3.18279 0
M  V30 208 H 14.6411 2.73283 2.44361 0
M  V30 209 H 14.2891 1.74938 4.71599 0
M  V30 210 H 13.9891 3.50541 4.71588 0
M  V30 211 H 15.5131 2.86401 5.39265 0
M  V30 212 H 16.9271 4.37898 3.70024 0
M  V30 213 H 15.3241 5.03735 3.26146 0
M  V30 214 H 16.3941 4.42244 1.98867 0
M  V30 215 N 17.7372 -0.778329 1.37039 0
M  V30 216 C 19.1532 -1.07796 1.17695 0
M  V30 217 C 19.3532 -2.01498 0.00860115 0
M  V30 218 O 18.4092 -2.43901 -0.653352 0
M  V30 219 C 19.7222 -1.68178 2.49272 0
M  V30 220 C 21.2702 -1.80467 2.55735 0
M  V30 221 C 21.7452 -2.44263 3.87427 0
M  V30 222 N 23.2362 -2.51721 3.88833 0
M  V30 223 C 23.9712 -3.01919 4.87476 0
M  V30 224 N 23.4672 -3.5234 5.96513 0
M  V30 225 N 25.2602 -3.00733 4.74885 0
M  V30 226 H 17.4112 -0.156032 2.11826 0
M  V30 227 H 19.6742 -0.131844 0.938787 0
M  V30 228 H 19.3802 -1.06796 3.35093 0
M  V30 229 H 19.2542 -2.67554 2.65885 0
M  V30 230 H 21.6412 -2.40984 1.70325 0
M  V30 231 H 21.7222 -0.798656 2.43013 0
M  V30 232 H 21.3662 -1.84388 4.73248 0
M  V30 233 H 21.2962 -3.45458 3.9745 0
M  V30 234 H 23.7872 -2.1603 3.10063 0
M  V30 235 H 24.1002 -3.89027 6.67741 0
M  V30 236 H 22.4452 -3.50462 6.00168 0
M  V30 237 H 25.6362 -2.60638 3.88826 0
M  V30 238 H 25.8092 -3.39545 5.51918 0
M  V30 239 N 19.2153 -1.21501 -1.00376 0
M  V30 240 C 20.6263 -1.03146 -1.55621 0
M  V30 241 C 20.9773 0.408375 -1.91903 0
M  V30 242 O 20.1023 1.29177 -1.73616 0
M  V30 243 C 20.6973 -1.86612 -2.82775 0
M  V30 244 C 19.2563 -1.72586 -3.34501 0
M  V30 245 C 18.4033 -1.83747 -2.07683 0
M  V30 246 H 21.3543 -1.35505 -0.826081 0
M  V30 247 H 21.3753 -1.3771 -3.54706 0
M  V30 248 H 20.8873 -2.91399 -2.56336 0
M  V30 249 H 18.9883 -0.704877 -3.65872 0
M  V30 250 H 19.1013 -2.54623 -4.05837 0
M  V30 251 H 17.4653 -1.27069 -2.20739 0
M  V30 252 H 18.2483 -2.90044 -1.83655 0
M  V30 253 N 20.6934 1.19889 -1.02296 0
M  V30 254 C 22.1044 1.71124 -0.746568 0
M  V30 255 C 22.4554 1.81939 0.734335 0
M  V30 256 O 21.5804 1.48639 1.57275 0
M  V30 257 C 22.1754 3.10804 -1.34857 0
M  V30 258 C 20.7344 3.59323 -1.1209 0
M  V30 259 C 19.8814 2.3635 -1.45031 0
M  V30 260 H 22.8324 1.04813 -1.19163 0
M  V30 261 H 22.8534 3.73186 -0.742437 0
M  V30 262 H 22.3654 3.029 -2.42638 0
M  V30 263 H 20.4664 3.7255 -0.0610337 0
M  V30 264 H 20.5794 4.4378 -1.80544 0
M  V30 265 H 18.9434 2.39399 -0.869487 0
M  V30 266 H 19.7264 2.31081 -2.53883 0
M  V30 267 N 22.1715 0.800033 1.35784 0
M  V30 268 C 23.4195 0.376597 1.9856 0
M  V30 269 C 23.7405 -1.05812 1.63795 0
M  V30 270 O 23.0105 -1.73103 0.917171 0
M  V30 271 H 21.5905 0.136261 0.734467 0
M  V30 272 H 24.2525 1.02442 1.65806 0
M  V30 273 H 23.3485 0.477002 3.08433 0
M  V30 274 N 23.6496 -1.47581 0.552962 0
M  V30 275 C 24.6126 -2.28439 -0.186605 0
M  V30 276 C 25.6126 -1.36706 -0.84665 0
M  V30 277 O 26.8026 -1.59378 -0.703164 0
M  V30 278 C 23.9346 -3.16264 -1.2724 0
M  V30 279 H 25.1276 -2.95294 0.523609 0
M  V30 280 H 22.6806 -1.532 0.309745 0
M  V30 281 H 23.4156 -2.54091 -2.01514 0
M  V30 282 H 23.2006 -3.83769 -0.803968 0
M  V30 283 H 24.6906 -3.77198 -1.79196 0
M  V30 284 N 25.1277 -0.289203 -1.54924 0
M  V30 285 C 26.3757 0.322879 -1.99504 0
M  V30 286 C 26.6967 1.55313 -1.1791 0
M  V30 287 O 25.9667 1.94001 -0.272097 0
M  V30 288 H 24.5467 0.122291 -0.736922 0
M  V30 289 H 27.2087 -0.397802 -1.90797 0
M  V30 290 H 26.3047 0.603061 -3.06218 0
M  V30 291 N 26.6058 1.57591 -0.0167156 0
M  V30 292 C 27.8538 1.90906 0.663285 0
M  V30 293 C 28.1748 0.892509 1.73376 0
M  V30 294 O 27.4448 -0.0677623 1.95783 0
M  V30 295 H 26.0248 0.704637 0.247983 0
M  V30 296 H 28.6868 1.94803 -0.0615909 0
M  V30 297 H 27.7828 2.9116 1.12393 0
M  V30 298 N 28.0839 -0.256276 1.55502 0
M  V30 299 C 29.0469 -1.30047 1.88734 0
M  V30 300 C 30.0469 -1.4154 0.763086 0
M  V30 301 O 31.2369 -1.40403 1.03115 0
M  V30 302 C 28.3689 -2.67953 2.10747 0
M  V30 303 H 29.5619 -1.01802 2.82093 0
M  V30 304 H 27.1149 -0.495134 1.4825 0
M  V30 305 H 27.8499 -3.01351 1.19825 0
M  V30 306 H 27.6349 -2.60993 2.92617 0
M  V30 307 H 29.1249 -3.43368 2.37673 0
M  V30 308 N 29.562 -1.4872 -0.521534 0
M  V30 309 C 30.494 -1.59968 -1.64143 0
M  V30 310 C 31.507 -0.483463 -1.55456 0
M  V30 311 O 32.696 -0.75467 -1.61762 0
M  V30 312 C 29.796 -1.52127 -3.02838 0
M  V30 313 C 28.969 -2.78932 -3.36921 0
M  V30 314 C 28.028 -2.64428 -4.54933 0
M  V30 315 O 27.054 -3.38331 -4.57735 0
M  V30 316 N 28.256 -1.74606 -5.53618 0
M  V30 317 H 31.021 -2.56548 -1.54929 0
M  V30 318 H 28.582 -1.45551 -0.708988 0
M  V30 319 H 30.574 -1.40106 -3.79674 0
M  V30 320 H 29.144 -0.634868 -3.06085 0
M  V30 321 H 28.364 -3.05455 -2.4918 0
M  V30 322 H 29.652 -3.63041 -3.56481 0
M  V30 323 H 29.05 -1.13782 -5.54139 0
M  V30 324 H 27.607 -1.6852 -6.29638 0
M  V30 325 N 31.0401 0.771051 -1.3745 0
M  V30 326 C 32.2681 1.56015 -1.35893 0
M  V30 327 C 32.6831 1.88718 0.0555523 0
M  V30 328 O 32.0401 1.51502 1.01752 0
M  V30 329 C 32.0911 2.87001 -2.19801 0
M  V30 330 O 31.8121 2.557 -3.55738 0
M  V30 331 C 33.3131 3.81228 -2.26231 0
M  V30 332 H 30.5331 0.483317 -0.465453 0
M  V30 333 H 33.0771 0.955611 -1.80799 0
M  V30 334 H 31.2321 3.43877 -1.78402 0
M  V30 335 H 31.6461 3.39584 -3.99729 0
M  V30 336 H 33.1201 4.70139 -2.89263 0
M  V30 337 H 33.5971 4.20409 -1.27093 0
M  V30 338 H 34.2031 3.30281 -2.67945 0
M  V30 339 N 32.5182 1.22032 0.997298 0
M  V30 340 C 33.9292 1.0397 1.55071 0
M  V30 341 C 34.2802 -0.398192 1.92117 0
M  V30 342 O 33.4052 -1.28254 1.74298 0
M  V30 343 C 34.0002 1.88109 2.81781 0
M  V30 344 C 32.5592 1.74357 3.33581 0
M  V30 345 C 31.7062 1.84846 2.06706 0
M  V30 346 H 34.6572 1.35941 0.818883 0
M  V30 347 H 34.6782 1.39589 3.53971 0
M  V30 348 H 34.1902 2.92754 2.54787 0
M  V30 349 H 32.2912 0.72427 3.65493 0
M  V30 350 H 32.4042 2.56772 4.04481 0
M  V30 351 H 30.7682 1.28238 2.20062 0
M  V30 352 H 31.5512 2.91014 1.82114 0
M  V30 353 N 33.9963 -1.19345 1.0293 0
M  V30 354 C 34.9443 -2.24621 0.604001 0
M  V30 355 C 35.9383 -1.65452 -0.363587 0
M  V30 356 O 37.1443 -1.78497 -0.23212 0
M  V30 357 H 33.5193 -0.730858 0.177061 0
M  V30 358 H 35.4903 -2.5781 1.50255 0
M  V30 359 C 34.2393 -3.47688 -0.0289127 0
M  V30 360 H 33.5623 -3.93505 0.706651 0
M  V30 361 H 35.0023 -4.23011 -0.289432 0
M  V30 362 C 33.4613 -3.11817 -1.2756 0
M  V30 363 O 33.9913 -3.2451 -2.36762 0
M  V30 364 N 32.1973 -2.66246 -1.16453 0
M  V30 365 H 31.7443 -2.56118 -0.275914 0
M  V30 366 H 31.7023 -2.42617 -1.99961 0
M  V30 367 N 35.4744 -0.807222 -1.35358 0
M  V30 368 C 36.4374 -0.223665 -2.28106 0
M  V30 369 C 37.4374 0.589354 -1.4961 0
M  V30 370 O 38.6274 0.407745 -1.69361 0
M  V30 371 C 35.7594 0.688149 -3.33882 0
M  V30 372 H 36.9524 -1.04169 -2.81227 0
M  V30 373 H 34.5054 -0.577921 -1.45223 0
M  V30 374 H 35.2404 1.52984 -2.85948 0
M  V30 375 H 35.0254 0.10687 -3.91954 0
M  V30 376 H 36.5154 1.09075 -4.03104 0
M  V30 377 N 36.9525 1.47285 -0.560781 0
M  V30 378 C 38.1805 2.06855 -0.0430262 0
M  V30 379 C 38.5955 1.41291 1.25229 0
M  V30 380 O 37.9525 0.510648 1.7521 0
M  V30 381 C 38.0035 3.61178 0.152518 0
M  V30 382 O 37.7245 4.24285 -1.0915 0
M  V30 383 C 39.2255 4.37624 0.707145 0
M  V30 384 H 36.4455 0.669319 -0.0474652 0
M  V30 385 H 38.9895 1.89237 -0.77521 0
M  V30 386 H 37.1445 3.78298 0.834843 0
M  V30 387 H 37.5585 5.16868 -0.891482 0
M  V30 388 H 39.0325 5.46271 0.793244 0
M  V30 389 H 39.5095 4.04152 1.71923 0
M  V30 390 H 40.1155 4.25257 0.0604027 0
M  V30 391 N 38.4306 0.297415 1.54768 0
M  V30 392 C 39.6556 -0.318435 2.04941 0
M  V30 393 C 40.0806 -1.4701 1.17345 0
M  V30 394 O 39.4386 -1.80436 0.176758 0
M  V30 395 C 39.4866 -0.755749 3.52592 0
M  V30 396 O 38.5906 -1.86088 3.68028 0
M  V30 397 H 37.9316 -0.062421 0.661059 0
M  V30 398 H 40.4616 0.438215 1.99852 0
M  V30 399 H 40.4716 -1.04552 3.94376 0
M  V30 400 H 39.1466 0.0867233 4.1581 0
M  V30 401 H 37.7236 -1.57193 3.38149 0
M  V30 402 N 39.9087 -1.5758 0.0250728 0
M  V30 403 C 40.8187 -2.1343 -0.973905 0
M  V30 404 C 41.8347 -1.08556 -1.35984 0
M  V30 405 O 43.0107 -1.40592 -1.44207 0
M  V30 406 C 40.0757 -2.64703 -2.23904 0
M  V30 407 C 39.1367 -3.84276 -1.91391 0
M  V30 408 C 38.3697 -4.33095 -3.11873 0
M  V30 409 O 38.5927 -3.81107 -4.24398 0
M  V30 410 O 37.5267 -5.24984 -2.94406 0
M  V30 411 H 41.3527 -2.99057 -0.529036 0
M  V30 412 H 38.9377 -1.48118 -0.195288 0
M  V30 413 H 40.8197 -2.97769 -2.98181 0
M  V30 414 H 39.4947 -1.82161 -2.6758 0
M  V30 415 H 38.4017 -3.56143 -1.14511 0
M  V30 416 H 39.7347 -4.67968 -1.52534 0
M  V30 417 N 41.3868 0.248026 -1.55636 0
M  V30 418 C 42.6348 0.974295 -1.77065 0
M  V30 419 C 42.9558 1.85897 -0.588849 0
M  V30 420 O 42.2258 1.91868 0.395407 0
M  V30 421 H 40.8058 0.362733 -0.653019 0
M  V30 422 H 43.4678 0.266244 -1.93073 0
M  V30 423 H 42.5638 1.59667 -2.68166 0
M  V30 424 N 42.8649 1.48995 0.513639 0
M  V30 425 C 44.1049 1.59452 1.27885 0
M  V30 426 C 44.4689 0.269479 1.90099 0
M  V30 427 O 45.6699 0.249139 2.67643 0
M  V30 428 C 43.9409 2.71277 2.32688 0
M  V30 429 S 45.4999 3.01604 3.18717 0
M  V30 430 H 42.3179 0.562565 0.434789 0
M  V30 431 H 44.9199 1.86595 0.583301 0
M  V30 432 H 43.6239 3.66089 1.8549 0
M  V30 433 H 43.1549 2.46086 3.06929 0
M  V30 434 H 45.1699 2.42155 4.331 0
M  V30 435 N 44.343 -0.763751 1.37857 0
M  V30 436 C 45.275 -1.88664 1.30148 0
M  V30 437 C 46.288 -1.61365 0.215685 0
M  V30 438 O 47.477 -1.72134 0.472459 0
M  V30 439 C 44.577 -3.24075 0.991396 0
M  V30 440 C 43.75 -3.78958 2.18426 0
M  V30 441 C 42.809 -4.92862 1.8432 0
M  V30 442 O 41.835 -5.08027 2.56704 0
M  V30 443 N 43.037 -5.75071 0.792081 0
M  V30 444 H 45.802 -1.95791 2.26905 0
M  V30 445 H 43.363 -0.943226 1.31586 0
M  V30 446 H 45.355 -3.97804 0.743935 0
M  V30 447 H 43.925 -3.12399 0.112122 0
M  V30 448 H 43.145 -2.96913 2.59299 0
M  V30 449 H 44.433 -4.12357 2.98058 0
M  V30 450 H 43.831 -5.65375 0.191595 0
M  V30 451 H 42.388 -6.48991 0.60449 0
M  V30 452 N 45.8211 -1.22559 -0.990812 0
M  V30 453 C 47.0701 -1.04553 -1.72486 0
M  V30 454 C 47.3831 0.419349 -1.91052 0
M  V30 455 O 48.5891 0.719121 -2.61803 0
M  V30 456 C 47.0451 -1.82231 -3.10355 0
M  V30 457 C 46.6531 -3.32981 -2.99713 0
M  V30 458 C 48.3971 -1.7268 -3.87791 0
M  V30 459 C 46.3041 -4.03091 -4.32748 0
M  V30 460 H 45.2341 -0.387614 -0.646739 0
M  V30 461 H 47.8851 -1.46429 -1.10593 0
M  V30 462 H 46.2671 -1.33155 -3.72942 0
M  V30 463 H 47.4411 -3.89466 -2.46278 0
M  V30 464 H 45.7561 -3.43231 -2.35758 0
M  V30 465 H 48.3531 -2.22381 -4.86262 0
M  V30 466 H 48.6961 -0.687607 -4.10582 0
M  V30 467 H 49.2291 -2.1931 -3.31885 0
M  V30 468 H 45.9681 -5.07273 -4.15156 0
M  V30 469 H 45.4881 -3.51394 -4.86089 0
M  V30 470 H 47.1671 -4.08804 -5.01486 0
M  V30 471 N 47.2992 1.18797 -1.03562 0
M  V30 472 C 48.5482 1.87978 -0.731235 0
M  V30 473 C 48.8612 1.80911 0.743671 0
M  V30 474 O 50.0672 2.45407 1.16137 0
M  V30 475 C 48.5232 3.3721 -1.25768 0
M  V30 476 C 48.1312 3.52818 -2.76085 0
M  V30 477 C 49.8752 4.11825 -1.0296 0
M  V30 478 C 47.7822 4.9598 -3.22114 0
M  V30 479 H 46.7122 0.704063 -0.269835 0
M  V30 480 H 49.3632 1.34266 -1.25079 0
M  V30 481 H 47.7452 3.90359 -0.666011 0
M  V30 482 H 48.9192 3.09965 -3.40966 0
M  V30 483 H 47.2342 2.91602 -2.97249 0
M  V30 484 H 49.8312 5.17411 -1.34869 0
M  V30 485 H 50.1742 4.16287 0.0333546 0
M  V30 486 H 50.7072 3.64833 -1.58562 0
M  V30 487 H 47.4462 4.96684 -4.27768 0
M  V30 488 H 46.9662 5.39569 -2.61965 0
M  V30 489 H 48.6452 5.6467 -3.15844 0
M  V30 490 N 48.7773 0.814389 1.34928 0
M  V30 491 C 49.7273 0.202752 2.27097 0
M  V30 492 C 50.7113 -0.62799 1.48139 0
M  V30 493 O 51.9033 -0.483969 1.70255 0
M  V30 494 C 49.0323 -0.64146 3.37254 0
M  V30 495 C 48.1183 0.19944 4.23631 0
M  V30 496 N 48.5093 1.26628 4.89693 0
M  V30 497 C 46.8073 -0.0176433 4.45997 0
M  V30 498 C 47.5083 1.78031 5.53787 0
M  V30 499 N 46.4843 1.08553 5.32651 0
M  V30 500 H 50.2863 1.01893 2.75672 0
M  V30 501 H 47.8003 0.656332 1.48546 0
M  V30 502 H 49.7973 -1.09575 4.02243 0
M  V30 503 H 48.4573 -1.4559 2.9023 0
M  V30 504 H 49.4683 1.64901 4.90946 0
M  V30 505 H 46.1453 -0.800601 4.09752 0
M  V30 506 H 47.5353 2.67236 6.16469 0
M  V30 507 N 50.2554 -1.46986 0.568584 0
M  V30 508 C 51.6664 -1.86188 0.138219 0
M  V30 509 C 52.0174 -1.47388 -1.29504 0
M  V30 510 O 51.1424 -0.88219 -1.97602 0
M  V30 511 C 51.7374 -3.3792 0.244065 0
M  V30 512 C 50.2964 -3.76171 -0.131335 0
M  V30 513 C 49.4434 -2.71027 0.586465 0
M  V30 514 H 52.3944 -1.38342 0.777645 0
M  V30 515 H 52.4154 -3.76729 -0.534351 0
M  V30 516 H 51.9274 -3.66128 1.28731 0
M  V30 517 H 50.0284 -3.5358 -1.17526 0
M  V30 518 H 50.1414 -4.78523 0.235146 0
M  V30 519 H 48.5054 -2.54684 0.0282722 0
M  V30 520 H 49.2884 -3.02077 1.63109 0
M  V30 521 N 51.7335 -0.305618 -1.54608 0
M  V30 522 C 53.1445 0.186098 -1.8577 0
M  V30 523 C 53.4955 1.53058 -1.22751 0
M  V30 524 O 52.6205 2.09888 -0.526893 0
M  V30 525 C 53.2155 0.344449 -3.37044 0
M  V30 526 C 51.7745 0.780384 -3.68221 0
M  V30 527 C 50.9215 -0.108554 -2.77087 0
M  V30 528 H 53.8725 -0.526485 -1.49712 0
M  V30 529 H 53.8935 1.17828 -3.61796 0
M  V30 530 H 53.4055 -0.634235 -3.82883 0
M  V30 531 H 51.5065 1.76945 -3.27904 0
M  V30 532 H 51.6195 0.596572 -4.75371 0
M  V30 533 H 49.9835 0.412931 -2.5133 0
M  V30 534 H 50.7665 -1.08368 -3.25747 0
M  V30 535 N 53.2116 1.57565 -0.0334293 0
M  V30 536 C 54.4576 1.93088 0.639417 0
M  V30 537 C 54.8126 0.910589 1.69488 0
M  V30 538 O 54.1056 -0.0727725 1.91462 0
M  V30 539 C 54.2996 3.33112 1.29504 0
M  V30 540 C 54.1286 4.48667 0.304604 0
M  V30 541 C 52.8986 5.05207 -0.0970777 0
M  V30 542 C 55.0966 5.1239 -0.442845 0
M  V30 543 N 53.0786 6.04286 -1.08223 0
M  V30 544 C 54.4496 6.06609 -1.28161 0
M  V30 545 C 56.5046 4.95352 -0.50308 0
M  V30 546 C 55.2076 6.85622 -2.17519 0
M  V30 547 C 57.2336 5.74978 -1.38401 0
M  V30 548 C 56.5956 6.68816 -2.21054 0
M  V30 549 H 52.6946 0.754335 0.206161 0
M  V30 550 H 55.2786 1.94435 -0.101613 0
M  V30 551 H 53.4496 3.32576 2.00618 0
M  V30 552 H 55.1816 3.55972 1.92525 0
M  V30 553 H 51.9366 4.72782 0.278255 0
M  V30 554 H 52.3606 6.58516 -1.57117 0
M  V30 555 H 57.0026 4.22625 0.121694 0
M  V30 556 H 54.7206 7.57652 -2.81049 0
M  V30 557 H 58.3066 5.63826 -1.43496 0
M  V30 558 H 57.1866 7.29355 -2.88116 0
M  V30 559 N 54.6897 -0.239769 1.55765 0
M  V30 560 C 55.5997 -1.31831 1.94056 0
M  V30 561 C 56.6157 -1.52275 0.841925 0
M  V30 562 O 57.7917 -1.65759 1.14394 0
M  V30 563 C 54.8567 -2.65156 2.23368 0
M  V30 564 C 53.9177 -2.53173 3.46701 0
M  V30 565 C 53.1507 -3.8014 3.74606 0
M  V30 566 O 53.3737 -4.82343 3.04469 0
M  V30 567 O 52.3077 -3.78344 4.68123 0
M  V30 568 H 56.1337 -1.02347 2.85935 0
M  V30 569 H 53.7187 -0.441123 1.42739 0
M  V30 570 H 55.6007 -3.43929 2.43497 0
M  V30 571 H 54.2757 -2.94358 1.34666 0
M  V30 572 H 53.1827 -1.72662 3.31871 0
M  V30 573 H 54.5157 -2.28915 4.35728 0
M  V30 574 N 56.1678 -1.49265 -0.50573 0
M  V30 575 C 57.4158 -1.582 -1.25766 0
M  V30 576 C 57.7368 -0.268482 -1.93143 0
M  V30 577 O 57.0068 0.711833 -1.8251 0
M  V30 578 H 55.5868 -0.582873 -0.467191 0
M  V30 579 H 58.2488 -1.85865 -0.586525 0
M  V30 580 H 57.3448 -2.37563 -2.02412 0
M  V30 581 N 57.6459 0.756429 -1.3826 0
M  V30 582 C 58.8939 1.51248 -1.34047 0
M  V30 583 C 59.2149 1.94875 0.0698372 0
M  V30 584 O 58.4849 1.67436 1.01696 0
M  V30 585 H 57.0649 0.561018 -0.493222 0
M  V30 586 H 59.7269 0.899347 -1.7291 0
M  V30 587 H 58.8229 2.40472 -1.98947 0
M  V30 588 N 59.124 1.23083 0.984299 0
M  V30 589 C 60.373 1.05466 1.71929 0
M  V30 590 C 60.686 -0.409211 1.91272 0
M  V30 591 O 61.892 -0.705226 2.62181 0
M  V30 592 C 60.348 1.83874 3.09384 0
M  V30 593 C 59.956 3.34566 2.97943 0
M  V30 594 C 61.7 1.74734 3.8687 0
M  V30 595 C 59.607 4.05381 4.30605 0
M  V30 596 H 58.537 0.391039 0.644674 0
M  V30 597 H 61.188 1.47013 1.09815 0
M  V30 598 H 59.57 1.35131 3.72231 0
M  V30 599 H 60.744 3.90767 2.44209 0
M  V30 600 H 59.059 3.44476 2.33934 0
M  V30 601 H 61.656 2.24957 4.85076 0
M  V30 602 H 61.999 0.709372 4.10212 0
M  V30 603 H 62.532 2.21067 3.30717 0
M  V30 604 H 59.271 5.09467 4.1246 0
M  V30 605 H 58.791 3.53967 4.84218 0
M  V30 606 H 60.47 4.11458 4.99311 0
M  V30 607 N 60.6021 -1.18246 1.0419 0
M  V30 608 C 62.0181 -1.40269 0.761366 0
M  V30 609 C 62.2181 -1.90777 -0.648578 0
M  V30 610 O 61.2741 -2.0929 -1.41258 0
M  V30 611 C 62.5871 -2.40237 1.8085 0
M  V30 612 C 64.1351 -2.53961 1.82955 0
M  V30 613 C 64.6101 -3.57194 2.86664 0
M  V30 614 N 66.1011 -3.64702 2.85563 0
M  V30 615 C 66.8361 -4.44309 3.6246 0
M  V30 616 N 66.3321 -5.27514 4.49111 0
M  V30 617 N 68.1251 -4.39084 3.50944 0
M  V30 618 H 60.2761 -0.837882 1.95175 0
M  V30 619 H 62.5391 -0.430608 0.84456 0
M  V30 620 H 62.2451 -2.10176 2.81991 0
M  V30 621 H 62.1191 -3.39601 1.64168 0
M  V30 622 H 64.5061 -2.83338 0.824855 0
M  V30 623 H 64.5871 -1.54706 2.03715 0
M  V30 624 H 64.2311 -3.28558 3.87314 0
M  V30 625 H 64.1611 -4.5613 2.6316 0
M  V30 626 H 66.6521 -3.05289 2.22727 0
M  V30 627 H 66.9651 -5.85411 5.04493 0
M  V30 628 H 65.3101 -5.2693 4.53178 0
M  V30 629 H 68.5011 -3.7313 2.82651 0
M  V30 630 H 68.6741 -5.00883 4.11121 0
M  V30 631 N 62.0802 -0.821533 -1.34494 0
M  V30 632 C 63.3102 -0.421272 -2.02259 0
M  V30 633 C 63.7182 0.977047 -1.6202 0
M  V30 634 O 63.0612 1.64348 -0.820703 0
M  V30 635 C 63.1232 -0.44231 -3.56769 0
M  V30 636 C 62.7872 -1.79372 -4.20327 0
M  V30 637 C 63.7842 -2.75435 -4.40944 0
M  V30 638 C 61.4692 -2.08182 -4.57127 0
M  V30 639 C 63.4632 -3.98482 -4.97484 0
M  V30 640 C 61.1502 -3.31489 -5.13379 0
M  V30 641 C 62.1482 -4.26457 -5.33501 0
M  V30 642 O 61.8362 -5.47585 -5.88562 0
M  V30 643 H 61.5682 -0.167473 -0.654927 0
M  V30 644 H 64.1222 -1.11073 -1.72777 0
M  V30 645 H 62.3522 0.303836 -3.85505 0
M  V30 646 H 64.0412 -0.0622925 -4.05852 0
M  V30 647 H 64.8072 -2.54473 -4.12878 0
M  V30 648 H 60.6862 -1.35066 -4.4077 0
M  V30 649 H 64.2302 -4.72618 -5.13106 0
M  V30 650 H 60.1272 -3.52316 -5.40873 0
M  V30 651 H 60.8952 -5.49086 -6.06998 0
M  V30 652 N 63.5583 1.46682 -0.576371 0
M  V30 653 C 64.9743 1.57822 -0.237562 0
M  V30 654 C 65.1743 1.57237 1.26011 0
M  V30 655 O 64.2303 1.48596 2.04146 0
M  V30 656 C 65.5433 2.87499 -0.881168 0
M  V30 657 C 67.0913 3.01119 -0.85417 0
M  V30 658 C 67.5663 4.33524 -1.4772 0
M  V30 659 N 69.0573 4.40207 -1.44125 0
M  V30 660 C 69.7923 5.4126 -1.89276 0
M  V30 661 N 69.2883 6.49021 -2.42371 0
M  V30 662 N 71.0813 5.32422 -1.80231 0
M  V30 663 H 63.2323 1.45306 -1.54919 0
M  V30 664 H 65.4953 0.692733 -0.647167 0
M  V30 665 H 65.2013 2.9372 -1.93447 0
M  V30 666 H 65.0753 3.75224 -0.385592 0
M  V30 667 H 67.4623 2.94485 0.190491 0
M  V30 668 H 67.5433 2.14887 -1.3877 0
M  V30 669 H 67.1873 4.40916 -2.52103 0
M  V30 670 H 67.1173 5.1852 -0.918947 0
M  V30 671 H 69.6083 3.62931 -1.05307 0
M  V30 672 H 69.9213 7.2233 -2.74698 0
M  V30 673 H 68.2663 6.49858 -2.46393 0
M  V30 674 H 71.4573 4.47137 -1.38514 0
M  V30 675 H 71.6303 6.11034 -2.15735 0
M  V30 676 N 65.0364 0.313813 1.54444 0
M  V30 677 C 66.2844 -0.291099 1.99993 0
M  V30 678 C 66.6054 -1.53418 1.20366 0
M  V30 679 O 65.8754 -1.93544 0.302927 0
M  V30 680 H 64.4554 -0.110552 0.738774 0
M  V30 681 H 67.1174 0.428106 1.9014 0
M  V30 682 H 66.2134 -0.554268 3.07139 0
M  V30 683 N 66.5145 -1.57545 0.0417849 0
M  V30 684 C 67.4445 -2.14009 -0.933929 0
M  V30 685 C 68.4255 -1.05938 -1.33083 0
M  V30 686 O 69.6105 -1.33833 -1.40721 0
M  V30 687 C 66.7405 -2.67747 -2.21199 0
M  V30 688 C 65.6945 -3.80718 -1.95544 0
M  V30 689 C 65.0205 -4.20935 -3.29724 0
M  V30 690 C 66.3205 -5.06258 -1.28452 0
M  V30 691 H 68.0145 -2.95788 -0.463645 0
M  V30 692 H 65.5605 -1.42285 -0.221573 0
M  V30 693 H 67.5135 -3.05886 -2.89848 0
M  V30 694 H 66.2375 -1.83147 -2.70416 0
M  V30 695 H 64.8965 -3.43037 -1.2931 0
M  V30 696 H 64.5445 -3.33298 -3.76724 0
M  V30 697 H 64.2445 -4.9707 -3.13361 0
M  V30 698 H 65.7685 -4.61666 -3.9962 0
M  V30 699 H 67.1825 -5.41903 -1.8712 0
M  V30 700 H 65.5795 -5.87475 -1.22445 0
M  V30 701 H 66.6495 -4.84207 -0.259219 0
M  V30 702 N 67.9926 0.231505 -1.5589 0
M  V30 703 C 69.2206 0.974505 -1.82513 0
M  V30 704 C 69.6356 1.78344 -0.619591 0
M  V30 705 O 68.9926 1.77792 0.411848 0
M  V30 706 C 69.0436 1.90007 -3.07538 0
M  V30 707 O 68.7646 1.12385 -4.2344 0
M  V30 708 C 70.2656 2.75779 -3.47075 0
M  V30 709 H 67.4856 0.286065 -0.606966 0
M  V30 710 H 70.0296 0.249739 -2.02969 0
M  V30 711 H 68.1846 2.57891 -2.89086 0
M  V30 712 H 68.5986 1.75125 -4.944 0
M  V30 713 H 70.0726 3.36443 -4.37619 0
M  V30 714 H 70.5496 3.47672 -2.68367 0
M  V30 715 H 71.1556 2.13323 -3.67931 0
M  V30 716 N 69.4707 1.49531 0.497807 0
M  V30 717 C 70.8867 1.36365 0.829266 0
M  V30 718 C 71.0867 0.399184 1.97506 0
M  V30 719 O 70.1427 -0.167977 2.51941 0
M  V30 720 C 71.4557 2.77153 1.16647 0
M  V30 721 C 73.0037 2.85877 1.27449 0
M  V30 722 C 73.4787 4.2744 1.64497 0
M  V30 723 N 74.9697 4.30265 1.7154 0
M  V30 724 C 75.7047 5.3677 2.01656 0
M  V30 725 N 75.2007 6.53516 2.29976 0
M  V30 726 N 76.9937 5.24189 2.02934 0
M  V30 727 H 69.1447 2.10831 -0.257703 0
M  V30 728 H 71.4077 0.946534 -0.0527091 0
M  V30 729 H 71.1137 3.49442 0.397872 0
M  V30 730 H 70.9877 3.12722 2.10915 0
M  V30 731 H 73.3747 2.13824 2.0338 0
M  V30 732 H 73.4557 2.53887 0.312244 0
M  V30 733 H 73.0997 5.00021 0.891151 0
M  V30 734 H 73.0297 4.56896 2.61827 0
M  V30 735 H 75.5207 3.4607 1.51802 0
M  V30 736 H 75.8337 7.30506 2.52153 0
M  V30 737 H 74.1787 6.56737 2.27425 0
M  V30 738 H 77.3697 4.31988 1.80289 0
M  V30 739 H 77.5427 6.07286 2.26071 0
M  V30 740 N 70.9488 -0.749086 1.3866 0
M  V30 741 C 72.2258 -1.4992 1.25632 0
M  V30 742 C 72.6058 -2.10633 -0.140317 0
M  V30 743 O 71.9538 -1.97437 -1.15025 0
M  V30 744 C 72.1638 -2.56195 2.36992 0
M  V30 745 C 73.5118 -3.22972 2.75634 0
M  V30 746 O 74.5358 -2.66502 2.36337 0
M  V30 747 O 73.3948 -4.25122 3.43415 0
M  V30 748 H 70.4888 -0.665067 0.491544 0
M  V30 749 H 73.0348 -0.784113 1.50498 0
M  V30 750 H 71.8068 -2.09612 3.30422 0
M  V30 751 H 71.4298 -3.35279 2.13714 0
M  V30 752 N 72.4269 -1.23603 -0.977757 0
M  V30 753 C 73.3589 -0.977369 -2.07317 0
M  V30 754 C 74.3719 0.0495845 -1.62724 0
M  V30 755 O 75.5609 -0.186261 -1.77526 0
M  V30 756 C 72.6609 -0.451216 -3.35883 0
M  V30 757 C 71.8339 -1.53896 -4.09432 0
M  V30 758 C 70.8929 -1.01721 -5.16274 0
M  V30 759 O 69.9189 -1.70676 -5.43009 0
M  V30 760 N 71.1209 0.153594 -5.80297 0
M  V30 761 H 73.8859 -1.92047 -2.30082 0
M  V30 762 H 71.4469 -1.14497 -1.14465 0
M  V30 763 H 73.4389 -0.0871574 -4.04606 0
M  V30 764 H 72.0089 0.397368 -3.10064 0
M  V30 765 H 71.2289 -2.07566 -3.35127 0
M  V30 766 H 72.5169 -2.27037 -4.55337 0
M  V30 767 H 71.9149 0.730323 -5.60966 0
M  V30 768 H 70.4719 0.458892 -6.50183 0
M  V30 769 N 73.905 1.17692 -1.04816 0
M  V30 770 C 75.151 1.88137 -0.75711 0
M  V30 771 C 75.484 1.80604 0.713841 0
M  V30 772 O 74.759 1.21146 1.52164 0
M  V30 773 C 75.042 3.38318 -1.2334 0
M  V30 774 C 74.895 3.54622 -2.76701 0
M  V30 775 C 76.214 4.32214 -0.829415 0
M  V30 776 H 73.333 0.683163 -0.27651 0
M  V30 777 H 75.975 1.38424 -1.30149 0
M  V30 778 H 74.125 3.80787 -0.770286 0
M  V30 779 H 75.797 3.21194 -3.31107 0
M  V30 780 H 74.04 2.97026 -3.16161 0
M  V30 781 H 74.711 4.60028 -3.05088 0
M  V30 782 H 77.187 3.97565 -1.22805 0
M  V30 783 H 76.063 5.35838 -1.19033 0
M  V30 784 H 76.324 4.41294 0.266891 0
M  V30 785 N 75.3831 0.828654 1.34056 0
M  V30 786 C 76.3301 0.252567 2.29414 0
M  V30 787 C 77.3001 -0.62588 1.53857 0
M  V30 788 O 78.4851 -0.566312 1.82202 0
M  V30 789 C 75.6251 -0.574831 3.40279 0
M  V30 790 C 74.7381 0.326499 4.30764 0
M  V30 791 C 73.8731 -0.511016 5.28736 0
M  V30 792 C 72.9121 0.389342 6.1086 0
M  V30 793 N 72.0491 -0.409439 7.00905 0
M  V30 794 H 76.8891 1.07108 2.78086 0
M  V30 795 H 74.4261 0.539677 1.36843 0
M  V30 796 H 76.3841 -1.06992 4.03248 0
M  V30 797 H 75.0141 -1.35841 2.92826 0
M  V30 798 H 74.0661 0.939837 3.68607 0
M  V30 799 H 75.3781 1.01857 4.88289 0
M  V30 800 H 74.5321 -1.07035 5.97184 0
M  V30 801 H 73.2711 -1.23657 4.71763 0
M  V30 802 H 72.2761 0.960769 5.4134 0
M  V30 803 H 73.5011 1.1131 6.69916 0
M  V30 804 H 71.4471 -1.11856 6.46393 0
M  V30 805 H 71.3641 0.224126 7.55668 0
M  V30 806 H 72.6321 -0.951336 7.73673 0
M  V30 807 N 76.8612 -1.46375 0.584142 0
M  V30 808 C 77.8242 -2.28784 -0.138108 0
M  V30 809 C 78.8242 -1.38471 -0.817462 0
M  V30 810 O 80.0142 -1.60833 -0.669199 0
M  V30 811 C 77.1462 -3.18892 -1.20503 0
M  V30 812 H 78.3392 -2.94117 0.586127 0
M  V30 813 H 75.8922 -1.52509 0.342171 0
M  V30 814 H 76.6272 -2.58309 -1.96079 0
M  V30 815 H 76.4122 -3.85388 -0.722384 0
M  V30 816 H 77.9022 -3.80914 -1.71155 0
M  V30 817 N 78.3393 -0.321999 -1.54275 0
M  V30 818 C 79.5883 0.281931 -1.9972 0
M  V30 819 C 79.9013 1.53369 -1.21397 0
M  V30 820 O 81.1073 2.21352 -1.57211 0
M  V30 821 C 79.5633 0.5529 -3.55628 0
M  V30 822 C 79.1713 -0.681721 -4.42783 0
M  V30 823 C 80.9153 1.11687 -4.09544 0
M  V30 824 C 78.8223 -0.382742 -5.9016 0
M  V30 825 H 77.7523 0.109124 -0.746062 0
M  V30 826 H 80.4033 -0.43398 -1.78294 0
M  V30 827 H 78.7853 1.32896 -3.73035 0
M  V30 828 H 79.9593 -1.45723 -4.37151 0
M  V30 829 H 78.2743 -1.1658 -3.99748 0
M  V30 830 H 80.8713 1.35515 -5.17242 0
M  V30 831 H 81.2143 2.06575 -3.61431 0
M  V30 832 H 81.7473 0.402032 -3.95763 0
M  V30 833 H 78.4863 -1.30076 -6.42464 0
M  V30 834 H 78.0063 0.355094 -5.98748 0
M  V30 835 H 79.6853 0.00800157 -6.47 0
M  V30 836 N 79.8174 1.5752 -0.0501392 0
M  V30 837 C 80.7654 2.12651 0.942459 0
M  V30 838 C 81.7594 1.05807 1.32292 0
M  V30 839 O 82.9654 1.24217 1.3027 0
M  V30 840 H 79.3404 0.679673 0.321789 0
M  V30 841 H 81.3114 2.94951 0.452356 0
M  V30 842 C 80.0604 2.68565 2.20836 0
M  V30 843 H 79.3834 3.50439 1.92439 0
M  V30 844 H 80.8234 3.10761 2.8845 0
M  V30 845 C 79.2824 1.62291 2.95234 0
M  V30 846 O 79.8124 1.03508 3.88135 0
M  V30 847 N 78.0184 1.33836 2.57946 0
M  V30 848 H 77.5654 1.81826 1.82475 0
M  V30 849 H 77.5234 0.629595 3.08032 0
M  V30 850 N 81.2955 -0.223234 1.56011 0
M  V30 851 C 82.5425 -0.947875 1.78946 0
M  V30 852 C 82.8705 -1.844 0.618608 0
M  V30 853 O 82.1255 -1.91629 -0.397093 0
M  V30 854 C 82.4245 -1.81948 3.0762 0
M  V30 855 C 82.0905 -1.07672 4.37856 0
M  V30 856 C 80.7525 -0.871544 4.73242 0
M  V30 857 C 83.1045 -0.552081 5.18268 0
M  V30 858 C 80.4325 -0.129791 5.86556 0
M  V30 859 C 82.7845 0.17632 6.32354 0
M  V30 860 C 81.4485 0.39277 6.66343 0
M  V30 861 H 80.7185 -0.346852 0.654809 0
M  V30 862 H 83.3655 -0.216171 1.90276 0
M  V30 863 H 81.6705 -2.61899 2.91404 0
M  V30 864 H 83.3675 -2.38227 3.22566 0
M  V30 865 H 79.9575 -1.24662 4.1007 0
M  V30 866 H 84.1415 -0.698076 4.91366 0
M  V30 867 H 79.3975 0.048153 6.11381 0
M  V30 868 H 83.5715 0.590367 6.93893 0
M  V30 869 H 81.1985 0.969466 7.53993 0
M  V30 870 N 82.7736 -1.49793 -0.48987 0
M  V30 871 C 83.7036 -1.70201 -1.59856 0
M  V30 872 C 84.6846 -0.55076 -1.60937 0
M  V30 873 O 85.8696 -0.787841 -1.77501 0
M  V30 874 C 82.9996 -1.77882 -2.98287 0
M  V30 875 C 81.9536 -2.92907 -3.12073 0
M  V30 876 C 81.2796 -2.85712 -4.51965 0
M  V30 877 C 82.5796 -4.3369 -2.91051 0
M  V30 878 H 84.2736 -2.63025 -1.43032 0
M  V30 879 H 81.8196 -1.26574 -0.686664 0
M  V30 880 H 83.7726 -1.90744 -3.75759 0
M  V30 881 H 82.4966 -0.816653 -3.16225 0
M  V30 882 H 81.1556 -2.79665 -2.37029 0
M  V30 883 H 80.8036 -1.8738 -4.66795 0
M  V30 884 H 80.5036 -3.62921 -4.62128 0
M  V30 885 H 82.0276 -3.00598 -5.31482 0
M  V30 886 H 83.4416 -4.47555 -3.58284 0
M  V30 887 H 81.8386 -5.12205 -3.12675 0
M  V30 888 H 82.9086 -4.47362 -1.87071 0
M  V30 889 N 84.2517 0.741722 -1.39055 0
M  V30 890 C 85.6627 1.31966 -1.32068 0
M  V30 891 C 86.0137 1.96192 0.0180797 0
M  V30 892 O 85.1387 1.95861 0.920196 0
M  V30 893 C 85.7337 2.39954 -2.39181 0
M  V30 894 C 84.2927 2.93438 -2.35735 0
M  V30 895 C 83.4397 1.66936 -2.21422 0
M  V30 896 H 86.3907 0.539721 -1.4924 0
M  V30 897 H 86.4117 3.20182 -2.05581 0
M  V30 898 H 85.9237 1.9318 -3.36605 0
M  V30 899 H 84.0247 3.4451 -1.41929 0
M  V30 900 H 84.1377 3.4701 -3.30335 0
M  V30 901 H 82.5017 1.91016 -1.68478 0
M  V30 902 H 83.2847 1.22224 -3.20806 0
M  V30 903 N 85.7298 1.2412 0.971189 0
M  V30 904 C 86.9758 1.08041 1.71625 0
M  V30 905 C 87.3088 -0.380407 1.90438 0
M  V30 906 O 86.5838 -1.28127 1.46334 0
M  V30 907 C 86.8668 1.81682 3.10908 0
M  V30 908 C 86.7198 3.35493 2.99608 0
M  V30 909 C 88.0388 1.58671 4.10501 0
M  V30 910 H 85.1578 0.39388 0.622919 0
M  V30 911 H 87.7998 1.52743 1.13003 0
M  V30 912 H 85.9498 1.43684 3.60953 0
M  V30 913 H 87.6218 3.83068 2.57015 0
M  V30 914 H 85.8648 3.64052 2.35899 0
M  V30 915 H 86.5358 3.82217 3.98264 0
M  V30 916 H 89.0118 1.91719 3.69301 0
M  V30 917 H 87.8878 2.1266 5.06031 0
M  V30 918 H 88.1488 0.524161 4.38982 0
M  V30 919 N 87.2079 -1.17134 1.05439 0
M  V30 920 C 88.4849 -1.83411 0.679699 0
M  V30 921 C 88.8649 -1.9368 -0.839726 0
M  V30 922 O 88.2129 -1.47325 -1.74664 0
M  V30 923 C 88.4229 -3.20918 1.37159 0
M  V30 924 C 89.7709 -3.96796 1.51123 0
M  V30 925 O 90.7949 -3.30406 1.3308 0
M  V30 926 O 89.6539 -5.15778 1.80651 0
M  V30 927 H 86.7479 -0.79154 0.239569 0
M  V30 928 H 89.2939 -1.24411 1.15413 0
M  V30 929 H 88.0659 -3.08428 2.40807 0
M  V30 930 H 87.6889 -3.87587 0.886674 0
M  V30 931 N 88.686 -0.835752 -1.33615 0
M  V30 932 C 89.916 -0.442701 -2.01801 0
M  V30 933 C 90.324 0.959807 -1.63047 0
M  V30 934 O 89.667 1.63468 -0.838088 0
M  V30 935 C 89.729 -0.480125 -3.56279 0
M  V30 936 C 89.393 -1.8382 -4.18401 0
M  V30 937 C 90.39 -2.80097 -4.37998 0
M  V30 938 C 88.075 -2.13019 -4.54894 0
M  V30 939 C 90.069 -4.03736 -4.9323 0
M  V30 940 C 87.756 -3.36916 -5.09834 0
M  V30 941 C 88.754 -4.32091 -5.28948 0
M  V30 942 O 88.442 -5.53797 -5.82721 0
M  V30 943 H 88.174 -0.17441 -0.653114 0
M  V30 944 H 90.728 -1.129 -1.71589 0
M  V30 945 H 88.958 0.262931 -3.85805 0
M  V30 946 H 90.647 -0.105335 -4.05763 0
M  V30 947 H 91.413 -2.58838 -4.10156 0
M  V30 948 H 87.292 -1.39733 -4.39313 0
M  V30 949 H 90.836 -4.78034 -5.08064 0
M  V30 950 H 86.733 -3.58033 -5.37106 0
M  V30 951 H 87.501 -5.55494 -6.0114 0
M  V30 952 N 90.1641 1.46063 -0.591896 0
M  V30 953 C 91.0741 2.34192 0.13831 0
M  V30 954 C 92.0901 1.50305 0.876608 0
M  V30 955 O 93.2661 1.8315 0.837728 0
M  V30 956 C 90.3311 3.27656 1.13326 0
M  V30 957 C 89.3921 4.27445 0.39863 0
M  V30 958 C 88.6251 5.16443 1.34618 0
M  V30 959 O 88.8481 5.08553 2.58321 0
M  V30 960 O 87.7821 5.95843 0.851768 0
M  V30 961 H 91.6081 2.98002 -0.58552 0
M  V30 962 H 89.1931 1.45188 -0.352239 0
M  V30 963 H 91.0751 3.85291 1.70671 0
M  V30 964 H 89.7501 2.6643 1.83839 0
M  V30 965 H 88.6571 3.73471 -0.216895 0
M  V30 966 H 89.9901 4.91482 -0.265709 0
M  V30 967 N 91.6422 0.330177 1.54103 0
M  V30 968 C 92.8912 -0.271336 1.99867 0
M  V30 969 C 93.2042 -1.52723 1.22209 0
M  V30 970 O 94.4102 -2.20515 1.58383 0
M  V30 971 C 92.8662 -0.534032 3.55916 0
M  V30 972 C 92.4742 0.705193 4.42415 0
M  V30 973 C 94.2182 -1.09514 4.1013 0
M  V30 974 C 92.1252 0.414035 5.89949 0
M  V30 975 H 91.0552 -0.105166 0.74663 0
M  V30 976 H 93.7062 0.443429 1.78062 0
M  V30 977 H 92.0882 -1.30915 3.73734 0
M  V30 978 H 93.2622 1.4804 4.36372 0
M  V30 979 H 91.5772 1.18698 3.99124 0
M  V30 980 H 94.1742 -1.3277 5.17954 0
M  V30 981 H 94.5172 -2.04656 3.62521 0
M  V30 982 H 95.0502 -0.381038 3.95971 0
M  V30 983 H 91.7892 1.33481 6.41766 0
M  V30 984 H 91.3092 -0.323336 5.98928 0
M  V30 985 H 92.9882 0.0263105 6.46995 0
M  V30 986 N 93.1203 -1.57491 0.0584922 0
M  V30 987 C 94.0303 -2.15448 -0.928414 0
M  V30 988 C 95.0463 -1.11416 -1.3365 0
M  V30 989 O 96.2223 -1.4362 -1.41193 0
M  V30 990 C 93.2873 -2.69393 -2.18239 0
M  V30 991 C 92.3483 -3.88249 -1.83196 0
M  V30 992 C 91.5813 -4.39613 -3.02616 0
M  V30 993 O 91.8043 -3.90023 -4.16219 0
M  V30 994 O 90.7383 -5.31111 -2.83204 0
M  V30 995 H 94.5643 -3.00112 -0.465483 0
M  V30 996 H 92.1493 -1.48499 -0.163826 0
M  V30 997 H 94.0313 -3.04026 -2.91798 0
M  V30 998 H 92.7063 -1.87796 -2.63656 0
M  V30 999 H 91.6133 -3.58492 -1.06931 0
M  V30 1000 H 92.9463 -4.71098 -1.42573 0
M  V30 1001 N 94.5984 0.214957 -1.56127 0
M  V30 1002 C 95.8284 0.953707 -1.8327 0
M  V30 1003 C 96.2364 1.78181 -0.636262 0
M  V30 1004 O 95.5794 1.79191 0.404516 0
M  V30 1005 C 95.6414 1.91516 -3.0424 0
M  V30 1006 C 95.3054 1.27094 -4.38972 0
M  V30 1007 C 96.3024 0.657575 -5.15725 0
M  V30 1008 C 93.9874 1.28073 -4.85698 0
M  V30 1009 C 95.9814 0.0625968 -6.37369 0
M  V30 1010 C 93.6684 0.681914 -6.07283 0
M  V30 1011 C 94.6664 0.0739046 -6.8296 0
M  V30 1012 O 94.3544 -0.515582 -8.02245 0
M  V30 1013 H 94.0864 0.284764 -0.613095 0
M  V30 1014 H 96.6404 0.233283 -2.04071 0
M  V30 1015 H 94.8704 2.67475 -2.79274 0
M  V30 1016 H 96.5594 2.52001 -3.18198 0
M  V30 1017 H 97.3254 0.642288 -4.80728 0
M  V30 1018 H 93.2044 1.74337 -4.26764 0
M  V30 1019 H 96.7484 -0.412593 -6.96379 0
M  V30 1020 H 92.6454 0.694636 -6.41752 0
M  V30 1021 H 93.4134 -0.410544 -8.1747 0
M  V30 1022 N 96.0765 1.50051 0.48192 0
M  V30 1023 C 97.3225 1.60736 1.2366 0
M  V30 1024 C 97.6555 0.301786 1.91841 0
M  V30 1025 O 96.9305 -0.696025 1.8162 0
M  V30 1026 C 97.2135 2.78009 2.28874 0
M  V30 1027 C 97.0665 4.18416 1.65069 0
M  V30 1028 C 98.3855 2.90867 3.30279 0
M  V30 1029 H 95.5045 0.585031 0.448228 0
M  V30 1030 H 98.1465 1.82402 0.531946 0
M  V30 1031 H 96.2965 2.59667 2.88973 0
M  V30 1032 H 97.9685 4.48322 1.0865 0
M  V30 1033 H 96.2115 4.23177 0.954148 0
M  V30 1034 H 96.8825 4.96381 2.41474 0
M  V30 1035 H 99.3585 3.07623 2.80191 0
M  V30 1036 H 98.2345 3.74566 4.01238 0
M  V30 1037 H 98.4955 2.01021 3.93755 0
M  V30 1038 N 97.5546 -0.734337 1.39446 0
M  V30 1039 C 98.7946 -1.50655 1.38139 0
M  V30 1040 C 99.1586 -1.91986 -0.0228701 0
M  V30 1041 O 100.36 -2.68318 -0.160947 0
M  V30 1042 C 98.6306 -2.71251 2.32718 0
M  V30 1043 S 100.19 -3.60892 2.49605 0
M  V30 1044 H 97.0076 -0.515315 0.489869 0
M  V30 1045 H 99.6096 -0.860392 1.75549 0
M  V30 1046 H 98.3136 -2.39027 3.33608 0
M  V30 1047 H 97.8446 -3.40795 1.96526 0
M  V30 1048 H 99.8596 -4.64899 1.73446 0
M  V30 1049 N 99.0327 -1.24633 -0.964593 0
M  V30 1050 C 100.449 -1.01239 -1.2338 0
M  V30 1051 C 100.649 0.2769 -1.99588 0
M  V30 1052 O 99.7047 0.992241 -2.32187 0
M  V30 1053 C 101.018 -2.22937 -2.01791 0
M  V30 1054 C 102.566 -2.27594 -2.14872 0
M  V30 1055 C 103.041 -3.48921 -2.96678 0
M  V30 1056 N 104.532 -3.49257 -3.04259 0
M  V30 1057 C 105.267 -4.39795 -3.67924 0
M  V30 1058 N 104.763 -5.40591 -4.33281 0
M  V30 1059 N 106.556 -4.275 -3.64966 0
M  V30 1060 H 98.7067 -2.0748 -0.454502 0
M  V30 1061 H 100.97 -0.910647 -0.26349 0
M  V30 1062 H 100.676 -3.16587 -1.53184 0
M  V30 1063 H 100.55 -2.25306 -3.02518 0
M  V30 1064 H 102.937 -1.34473 -2.6268 0
M  V30 1065 H 103.018 -2.2925 -1.13482 0
M  V30 1066 H 102.662 -4.42359 -2.49562 0
M  V30 1067 H 102.592 -3.4451 -3.98272 0
M  V30 1068 H 105.083 -2.76337 -2.57771 0
M  V30 1069 H 105.396 -6.05904 -4.79687 0
M  V30 1070 H 103.741 -5.44475 -4.3194 0
M  V30 1071 H 106.932 -3.47987 -3.13086 0
M  V30 1072 H 107.105 -4.98258 -4.14298 0
M  V30 1073 N 100.511 1.16574 -1.06058 0
M  V30 1074 C 101.759 1.86677 -0.77434 0
M  V30 1075 C 102.08 1.81959 0.701147 0
M  V30 1076 O 101.35 1.2515 1.50713 0
M  V30 1077 H 99.9298 0.691134 -0.283449 0
M  V30 1078 H 102.592 1.41378 -1.34158 0
M  V30 1079 H 101.688 2.92181 -1.09711 0
M  V30 1080 N 101.989 0.842826 1.3317 0
M  V30 1081 C 102.899 0.281444 2.32906 0
M  V30 1082 C 103.915 -0.594587 1.63526 0
M  V30 1083 O 105.091 -0.49777 1.95152 0
M  V30 1084 C 102.156 -0.530929 3.42611 0
M  V30 1085 C 101.217 0.369843 4.27704 0
M  V30 1086 C 100.45 -0.403853 5.3217 0
M  V30 1087 O 100.673 -1.63513 5.46461 0
M  V30 1088 O 99.6069 0.224199 6.01482 0
M  V30 1089 H 103.433 1.10744 2.82789 0
M  V30 1090 H 101.018 0.60545 1.36582 0
M  V30 1091 H 102.9 -0.992437 4.09547 0
M  V30 1092 H 101.575 -1.33392 2.94938 0
M  V30 1093 H 100.482 0.879275 3.6362 0
M  V30 1094 H 101.815 1.13771 4.78871 0
M  V30 1095 N 103.467 -1.45747 0.599634 0
M  V30 1096 C 104.883 -1.57424 0.26264 0
M  V30 1097 C 105.083 -1.59222 -1.23493 0
M  V30 1098 O 104.139 -1.51825 -2.01756 0
M  V30 1099 C 105.452 -2.86061 0.926795 0
M  V30 1100 C 107 -2.99722 0.901967 0
M  V30 1101 C 107.475 -4.31119 1.54598 0
M  V30 1102 N 108.966 -4.37858 1.5111 0
M  V30 1103 C 109.701 -5.3818 1.97863 0
M  V30 1104 N 109.197 -6.45083 2.52666 0
M  V30 1105 N 110.99 -5.29487 1.88679 0
M  V30 1106 H 103.141 -1.42823 1.57211 0
M  V30 1107 H 105.404 -0.68235 0.658105 0
M  V30 1108 H 105.11 -2.90605 1.98095 0
M  V30 1109 H 104.984 -3.74563 0.445238 0
M  V30 1110 H 107.371 -2.9475 -0.143617 0
M  V30 1111 H 107.452 -2.12652 1.42171 0
M  V30 1112 H 107.096 -4.36849 2.59085 0
M  V30 1113 H 107.026 -5.16992 1.00132 0
M  V30 1114 H 109.517 -3.61209 1.11068 0
M  V30 1115 H 109.83 -7.17869 2.86155 0
M  V30 1116 H 108.175 -6.45856 2.56701 0
M  V30 1117 H 111.366 -4.44877 1.4561 0
M  V30 1118 H 111.539 -6.07524 2.25429 0
M  V30 1119 N 104.945 -0.338344 -1.53925 0
M  V30 1120 C 105.855 0.529421 -2.28548 0
M  V30 1121 C 106.871 1.11645 -1.3346 0
M  V30 1122 O 108.047 1.13325 -1.66492 0
M  V30 1123 C 105.112 1.66713 -3.03987 0
M  V30 1124 C 104.173 1.11041 -4.14691 0
M  V30 1125 C 103.406 2.19389 -4.86522 0
M  V30 1126 O 103.629 3.40013 -4.57982 0
M  V30 1127 O 102.563 1.83976 -5.73094 0
M  V30 1128 H 106.389 -0.0770399 -3.03602 0
M  V30 1129 H 103.974 -0.103555 -1.49041 0
M  V30 1130 H 105.856 2.32918 -3.5118 0
M  V30 1131 H 104.531 2.25949 -2.31794 0
M  V30 1132 H 103.438 0.413024 -3.71813 0
M  V30 1133 H 104.771 0.562975 -4.8897 0
M  V30 1134 N 106.423 1.57458 -0.0668435 0
M  V30 1135 C 107.669 1.93587 0.6043 0
M  V30 1136 C 108.002 0.946722 1.69561 0
M  V30 1137 O 107.277 -0.0248516 1.94484 0
M  V30 1138 C 107.56 3.40014 1.18585 0
M  V30 1139 C 107.413 4.49685 0.101529 0
M  V30 1140 C 108.732 3.87154 2.09284 0
M  V30 1141 H 105.851 0.703958 0.218202 0
M  V30 1142 H 108.493 1.89542 -0.131804 0
M  V30 1143 H 106.643 3.43592 1.81319 0
M  V30 1144 H 108.315 4.5823 -0.531279 0
M  V30 1145 H 106.558 4.30059 -0.568487 0
M  V30 1146 H 107.229 5.49266 0.54874 0
M  V30 1147 H 109.705 3.85551 1.56491 0
M  V30 1148 H 108.581 4.90231 2.46911 0
M  V30 1149 H 108.842 3.2481 2.99918 0
M  V30 1150 N 107.901 -0.206675 1.56239 0
M  V30 1151 C 109.147 -0.930218 1.80208 0
M  V30 1152 C 109.48 -1.83387 0.638981 0
M  V30 1153 O 108.755 -1.91119 -0.361066 0
M  V30 1154 C 109.038 -1.75641 3.1436 0
M  V30 1155 C 108.891 -0.878257 4.41142 0
M  V30 1156 C 110.21 -2.73129 3.45092 0
M  V30 1157 H 107.329 -0.336742 0.655571 0
M  V30 1158 H 109.971 -0.198222 1.88963 0
M  V30 1159 H 108.121 -2.38048 3.07027 0
M  V30 1160 H 109.793 -0.269787 4.6051 0
M  V30 1161 H 108.036 -0.184385 4.33408 0
M  V30 1162 H 108.707 -1.49106 5.3148 0
M  V30 1163 H 111.183 -2.20856 3.52649 0
M  V30 1164 H 110.059 -3.28028 4.40101 0
M  V30 1165 H 110.32 -3.51606 2.68003 0
M  V30 1166 N 109.379 -1.50304 -0.473955 0
M  V30 1167 C 110.627 -1.60832 -1.22382 0
M  V30 1168 C 110.948 -0.30939 -1.9253 0
M  V30 1169 O 110.218 0.67296 -1.83978 0
M  V30 1170 H 108.798 -0.592652 -0.454723 0
M  V30 1171 H 111.46 -1.87068 -0.546968 0
M  V30 1172 H 110.556 -2.41803 -1.97327 0
M  V30 1173 N 110.857 0.726932 -1.39834 0
M  V30 1174 C 112.268 1.30558 -1.3346 0
M  V30 1175 C 112.619 1.962 -0.00273003 0
M  V30 1176 O 111.744 1.96826 0.899371 0
M  V30 1177 C 112.339 2.37404 -2.41713 0
M  V30 1178 C 110.898 2.90921 -2.38835 0
M  V30 1179 C 110.045 1.64578 -2.2318 0
M  V30 1180 H 112.996 0.523862 -1.49804 0
M  V30 1181 H 113.017 3.17984 -2.08966 0
M  V30 1182 H 112.529 1.89599 -3.38635 0
M  V30 1183 H 110.63 3.42985 -1.45575 0
M  V30 1184 H 110.743 3.43487 -3.33997 0
M  V30 1185 H 109.107 1.89219 -1.70494 0
M  V30 1186 H 109.89 1.18814 -3.22084 0
M  V30 1187 N 112.336 1.25143 0.95797 0
M  V30 1188 C 113.283 1.05235 2.05412 0
M  V30 1189 C 114.253 -0.0374561 1.66058 0
M  V30 1190 O 115.438 0.119073 1.90428 0
M  V30 1191 C 112.578 0.673589 3.38462 0
M  V30 1192 C 111.691 1.8379 3.90954 0
M  V30 1193 C 110.826 1.40381 5.12315 0
M  V30 1194 C 109.865 2.53746 5.57027 0
M  V30 1195 N 109.002 2.11136 6.69601 0
M  V30 1196 H 113.842 1.99048 2.21774 0
M  V30 1197 H 111.379 0.991277 1.08683 0
M  V30 1198 H 113.337 0.434964 4.14926 0
M  V30 1199 H 111.967 -0.227554 3.21997 0
M  V30 1200 H 111.019 2.18992 3.11041 0
M  V30 1201 H 112.331 2.68937 4.20089 0
M  V30 1202 H 111.485 1.12464 5.96185 0
M  V30 1203 H 110.224 0.523015 4.84887 0
M  V30 1204 H 109.229 2.82412 4.71724 0
M  V30 1205 H 110.454 3.42398 5.86464 0
M  V30 1206 H 108.4 1.25468 6.4389 0
M  V30 1207 H 108.317 2.89832 6.98236 0
M  V30 1208 H 109.585 1.86385 7.56889 0
M  V30 1209 N 113.814 -1.1601 1.06675 0
M  V30 1210 C 115.06 -1.86909 0.786945 0
M  V30 1211 C 115.393 -1.81717 -0.685018 0
M  V30 1212 O 114.668 -1.23551 -1.50218 0
M  V30 1213 C 114.951 -3.36313 1.28707 0
M  V30 1214 C 114.804 -3.50175 2.82308 0
M  V30 1215 C 116.123 -4.3084 0.898071 0
M  V30 1216 H 113.242 -0.678677 0.287343 0
M  V30 1217 H 115.884 -1.36336 1.32334 0
M  V30 1218 H 114.034 -3.79513 0.830768 0
M  V30 1219 H 115.706 -3.15886 3.36175 0
M  V30 1220 H 113.949 -2.91959 3.20847 0
M  V30 1221 H 114.62 -4.55116 3.12368 0
M  V30 1222 H 117.096 -3.95561 1.29114 0
M  V30 1223 H 115.972 -5.33876 1.27543 0
M  V30 1224 H 116.233 -4.41662 -0.196651 0
M  V30 1225 N 115.292 -0.849877 -1.32721 0
M  V30 1226 C 116.708 -0.539102 -1.50219 0
M  V30 1227 C 116.908 0.931271 -1.78689 0
M  V30 1228 O 115.964 1.71455 -1.85363 0
M  V30 1229 C 117.277 -1.42196 -2.64954 0
M  V30 1230 C 118.825 -1.42189 -2.78839 0
M  V30 1231 C 119.3 -2.28985 -3.96648 0
M  V30 1232 N 120.791 -2.26754 -4.03902 0
M  V30 1233 C 121.526 -2.90644 -4.94281 0
M  V30 1234 N 121.022 -3.63629 -5.897 0
M  V30 1235 N 122.815 -2.80057 -4.87365 0
M  V30 1236 H 114.966 -1.80156 -1.12506 0
M  V30 1237 H 117.229 -0.769217 -0.554085 0
M  V30 1238 H 116.935 -2.46733 -2.50631 0
M  V30 1239 H 116.809 -1.10591 -3.60624 0
M  V30 1240 H 119.196 -0.38419 -2.92588 0
M  V30 1241 H 119.277 -1.77807 -1.83898 0
M  V30 1242 H 118.921 -3.32819 -3.83658 0
M  V30 1243 H 118.851 -1.90702 -4.90857 0
M  V30 1244 H 121.342 -1.73688 -3.3562 0
M  V30 1245 H 121.655 -4.09558 -6.55349 0
M  V30 1246 H 120 -3.67737 -5.89741 0
M  V30 1247 H 123.191 -2.22593 -4.11789 0
M  V30 1248 H 123.364 -3.30132 -5.57599 0
M  V30 1249 N 116.77 1.45427 -0.607355 0
M  V30 1250 C 117.717 2.3053 0.111625 0
M  V30 1251 C 118.687 1.4209 0.860216 0
M  V30 1252 O 119.872 1.71019 0.845998 0
M  V30 1253 C 117.012 3.26992 1.10319 0
M  V30 1254 C 116.125 4.30535 0.355493 0
M  V30 1255 C 115.26 5.14105 1.33676 0
M  V30 1256 C 114.299 6.09376 0.576862 0
M  V30 1257 N 113.436 6.85727 1.5074 0
M  V30 1258 H 118.276 2.91477 -0.620093 0
M  V30 1259 H 115.813 1.43631 -0.317594 0
M  V30 1260 H 117.771 3.81385 1.6912 0
M  V30 1261 H 116.401 2.67799 1.80232 0
M  V30 1262 H 115.453 3.78805 -0.348023 0
M  V30 1263 H 116.765 4.98235 -0.237423 0
M  V30 1264 H 115.919 5.72897 1.99684 0
M  V30 1265 H 114.658 4.46423 1.9636 0
M  V30 1266 H 113.663 5.49715 -0.0968519 0
M  V30 1267 H 114.888 6.79085 -0.0449341 0
M  V30 1268 H 112.834 6.20735 2.12189 0
M  V30 1269 H 112.751 7.49778 0.967913 0
M  V30 1270 H 114.019 7.4906 2.15706 0
M  V30 1271 N 118.248 0.346503 1.53744 0
M  V30 1272 C 119.488 -0.249413 2.02873 0
M  V30 1273 C 119.852 -1.47532 1.22876 0
M  V30 1274 O 121.053 -2.1456 1.61918 0
M  V30 1275 C 119.324 -0.552909 3.53097 0
M  V30 1276 S 120.883 -1.12521 4.24128 0
M  V30 1277 H 117.701 -0.074042 0.707134 0
M  V30 1278 H 120.303 0.48495 1.8939 0
M  V30 1279 H 119.007 0.347083 4.0893 0
M  V30 1280 H 118.538 -1.31686 3.70705 0
M  V30 1281 H 120.553 -2.41075 4.33702 0
M  V30 1282 N 119.726 -1.57421 0.075193 0
M  V30 1283 C 120.656 -2.15942 -0.888324 0
M  V30 1284 C 121.637 -1.08737 -1.30806 0
M  V30 1285 O 122.822 -1.36787 -1.37851 0
M  V30 1286 C 119.952 -2.72379 -2.1547 0
M  V30 1287 C 118.906 -3.8478 -1.87425 0
M  V30 1288 C 118.232 -4.27834 -3.20721 0
M  V30 1289 C 119.532 -5.08869 -1.17684 0
M  V30 1290 H 121.226 -2.96705 -0.400799 0
M  V30 1291 H 118.772 -1.42723 -0.191342 0
M  V30 1292 H 120.725 -3.11965 -2.83295 0
M  V30 1293 H 119.449 -1.88841 -2.6647 0
M  V30 1294 H 118.108 -3.45703 -1.22004 0
M  V30 1295 H 117.756 -3.41214 -3.6957 0
M  V30 1296 H 117.456 -5.03605 -3.02746 0
M  V30 1297 H 118.98 -4.70039 -3.89738 0
M  V30 1298 H 120.394 -5.4575 -1.75584 0
M  V30 1299 H 118.791 -5.8994 -1.09956 0
M  V30 1300 H 119.861 -4.84648 -0.156453 0
M  V30 1301 N 121.204 0.198386 -1.56346 0
M  V30 1302 C 122.167 1.22952 -1.93431 0
M  V30 1303 C 123.167 1.38611 -0.815092 0
M  V30 1304 O 124.357 1.36479 -1.08255 0
M  V30 1305 C 121.489 2.59946 -2.20546 0
M  V30 1306 H 122.682 0.912626 -2.85677 0
M  V30 1307 H 120.235 0.43977 -1.49986 0
M  V30 1308 H 120.97 2.96696 -1.30927 0
M  V30 1309 H 120.755 2.49953 -3.02102 0
M  V30 1310 H 122.245 3.3431 -2.50253 0
M  V30 1311 N 122.682 1.50554 0.465978 0
M  V30 1312 C 123.63 1.70324 1.58406 0
M  V30 1313 C 124.624 0.569139 1.59553 0
M  V30 1314 O 125.83 0.749776 1.63641 0
M  V30 1315 H 122.205 0.537688 0.525734 0
M  V30 1316 H 124.176 2.64104 1.38894 0
M  V30 1317 C 122.925 1.81928 2.96307 0
M  V30 1318 H 122.248 2.68586 2.96144 0
M  V30 1319 H 123.688 1.99784 3.73982 0
M  V30 1320 C 122.147 0.572095 3.32007 0
M  V30 1321 O 122.677 -0.286416 4.00678 0
M  V30 1322 N 120.883 0.424606 2.87481 0
M  V30 1323 H 120.43 1.12427 2.31771 0
M  V30 1324 H 120.388 -0.408697 3.11732 0
M  V30 1325 N 124.16 -0.719506 1.40217 0
M  V30 1326 C 125.408 -1.47641 1.3801 0
M  V30 1327 C 125.729 -1.94992 -0.018145 0
M  V30 1328 O 124.999 -1.70073 -0.972207 0
M  V30 1329 H 123.579 -0.547744 0.507923 0
M  V30 1330 H 126.241 -0.853187 1.75233 0
M  V30 1331 H 125.337 -2.35112 2.05253 0
M  V30 1332 N 125.638 -1.25649 -0.95132 0
M  V30 1333 C 126.863 -1.13443 -1.73624 0
M  V30 1334 C 127.288 0.307565 -1.85568 0
M  V30 1335 O 126.646 1.22282 -1.33854 0
M  V30 1336 C 126.694 -1.79723 -3.12621 0
M  V30 1337 O 125.798 -1.07912 -3.98031 0
M  V30 1338 H 125.139 -0.395872 -0.533086 0
M  V30 1339 H 127.669 -1.66276 -1.1922 0
M  V30 1340 H 127.679 -1.86141 -3.63064 0
M  V30 1341 H 126.354 -2.84633 -3.03244 0
M  V30 1342 H 124.931 -1.09398 -3.56492 0
M  V30 1343 N 127.117 1.15442 -1.07289 0
M  V30 1344 C 128.363 1.8672 -0.806679 0
M  V30 1345 C 128.718 1.80723 0.660084 0
M  V30 1346 O 128.011 1.21902 1.47819 0
M  V30 1347 C 128.205 3.3489 -1.24834 0
M  V30 1348 C 128.034 3.55313 -2.7565 0
M  V30 1349 C 126.804 3.7082 -3.4325 0
M  V30 1350 C 129.002 3.53188 -3.73848 0
M  V30 1351 N 126.984 3.7929 -4.82713 0
M  V30 1352 C 128.355 3.67765 -4.99149 0
M  V30 1353 C 130.41 3.36459 -3.67015 0
M  V30 1354 C 129.113 3.6734 -6.18428 0
M  V30 1355 C 131.139 3.37333 -4.85758 0
M  V30 1356 C 130.501 3.52438 -6.09891 0
M  V30 1357 H 126.6 0.700433 -0.347733 0
M  V30 1358 H 129.184 1.38441 -1.36902 0
M  V30 1359 H 127.355 3.81786 -0.713713 0
M  V30 1360 H 129.087 3.93875 -0.929745 0
M  V30 1361 H 125.842 3.71568 -2.93656 0
M  V30 1362 H 126.266 3.8727 -5.55294 0
M  V30 1363 H 130.908 3.237 -2.71989 0
M  V30 1364 H 128.626 3.78878 -7.13777 0
M  V30 1365 H 132.212 3.25617 -4.82146 0
M  V30 1366 H 131.092 3.53047 -7.00234 0
M  V30 1367 N 128.595 0.856903 1.32268 0
M  V30 1368 C 129.823 0.475439 2.01363 0
M  V30 1369 C 130.238 -0.928486 1.64392 0
M  V30 1370 O 129.595 -1.60624 0.866387 0
M  V30 1371 C 129.646 0.607545 3.56358 0
M  V30 1372 O 129.367 1.95617 3.92002 0
M  V30 1373 C 130.868 0.225382 4.42727 0
M  V30 1374 H 128.088 0.186636 0.644521 0
M  V30 1375 H 130.632 1.15446 1.68797 0
M  V30 1376 H 128.787 -0.0237719 3.87393 0
M  V30 1377 H 129.201 1.95455 4.86721 0
M  V30 1378 H 130.675 0.368813 5.50767 0
M  V30 1379 H 131.152 -0.834369 4.31202 0
M  V30 1380 H 131.758 0.831864 4.17085 0
M  V30 1381 N 130.073 -1.45103 0.615059 0
M  V30 1382 C 131.35 -1.95549 0.0448276 0
M  V30 1383 C 131.73 -1.55737 -1.4251 0
M  V30 1384 O 131.078 -0.823556 -2.13143 0
M  V30 1385 C 131.288 -3.48098 0.250785 0
M  V30 1386 C 132.636 -4.24384 0.135509 0
M  V30 1387 O 133.66 -3.55738 0.181299 0
M  V30 1388 O 132.519 -5.46493 0.0268878 0
M  V30 1389 H 129.613 -0.8264 -0.0314845 0
M  V30 1390 H 132.159 -1.55232 0.685642 0
M  V30 1391 H 130.931 -3.7007 1.27139 0
M  V30 1392 H 130.554 -3.95323 -0.424937 0
M  V30 1393 N 131.551 -0.354651 -1.53558 0
M  V30 1394 C 132.484 0.540273 -2.21712 0
M  V30 1395 C 133.462 1.09161 -1.2051 0
M  V30 1396 O 134.646 1.14979 -1.49372 0
M  V30 1397 C 131.773 1.74435 -2.90328 0
M  V30 1398 C 130.819 1.32146 -4.05512 0
M  V30 1399 S 131.652 0.331924 -5.3447 0
M  V30 1400 C 132.808 1.54258 -6.06593 0
M  V30 1401 H 133.041 -0.0385776 -2.97275 0
M  V30 1402 H 130.574 -0.138736 -1.53775 0
M  V30 1403 H 132.532 2.43507 -3.30476 0
M  V30 1404 H 131.193 2.29444 -2.1451 0
M  V30 1405 H 130.386 2.21952 -4.52497 0
M  V30 1406 H 129.988 0.710091 -3.67197 0
M  V30 1407 H 132.28 2.47534 -6.30661 0
M  V30 1408 H 133.223 1.11431 -6.99277 0
M  V30 1409 H 133.631 1.74367 -5.36895 0
M  V30 1410 N 133.029 1.57378 -0.0835403 0
M  V30 1411 C 134.306 1.85363 0.624507 0
M  V30 1412 C 134.686 0.978239 1.87066 0
M  V30 1413 O 134.034 0.0475908 2.2845 0
M  V30 1414 C 134.244 3.35795 0.950947 0
M  V30 1415 C 135.592 4.03581 1.31939 0
M  V30 1416 O 136.616 3.40609 1.04232 0
M  V30 1417 O 135.475 5.14672 1.83779 0
M  V30 1418 H 132.569 0.766162 0.311329 0
M  V30 1419 H 135.115 1.69307 -0.115362 0
M  V30 1420 H 133.887 3.91244 0.0663899 0
M  V30 1421 H 133.51 3.57154 1.74719 0
M  V30 1422 N 134.507 -0.190092 1.56449 0
M  V30 1423 C 135.735 -0.925772 1.85033 0
M  V30 1424 C 136.15 -1.76638 0.666658 0
M  V30 1425 O 135.507 -1.78822 -0.364565 0
M  V30 1426 C 135.558 -1.81786 3.12468 0
M  V30 1427 O 135.279 -1.01118 4.26271 0
M  V30 1428 C 136.78 -2.6648 3.54265 0
M  V30 1429 H 134 -0.269872 0.614337 0
M  V30 1430 H 136.544 -0.195837 2.0356 0
M  V30 1431 H 134.699 -2.50136 2.95822 0
M  V30 1432 H 135.113 -1.61956 4.98869 0
M  V30 1433 H 136.587 -3.24722 4.46385 0
M  V30 1434 H 137.064 -3.40434 2.77491 0
M  V30 1435 H 137.67 -2.03493 3.73458 0
M  V30 1436 N 135.985 -1.50799 -0.457987 0
M  V30 1437 C 137.396 -1.55152 -1.0385 0
M  V30 1438 C 137.747 -0.362719 -1.92818 0
M  V30 1439 O 136.872 0.522915 -2.09987 0
M  V30 1440 C 137.467 -2.81173 -1.89017 0
M  V30 1441 C 136.026 -2.88164 -2.42154 0
M  V30 1442 C 135.173 -2.49591 -1.20829 0
M  V30 1443 H 138.124 -1.56874 -0.240068 0
M  V30 1444 H 138.145 -2.63769 -2.74238 0
M  V30 1445 H 137.657 -3.67677 -1.24238 0
M  V30 1446 H 135.758 -2.06042 -3.10447 0
M  V30 1447 H 135.871 -3.91356 -2.76364 0
M  V30 1448 H 134.235 -2.02322 -1.54719 0
M  V30 1449 H 135.018 -3.38418 -0.576927 0
M  V30 1450 N 137.463 0.71206 -1.40597 0
M  V30 1451 C 138.688 1.50617 -1.42581 0
M  V30 1452 C 139.113 1.88079 -0.0282102 0
M  V30 1453 O 138.471 1.53511 0.964579 0
M  V30 1454 C 138.519 2.7557 -2.3258 0
M  V30 1455 O 137.623 3.72414 -1.77148 0
M  V30 1456 H 136.964 0.453966 -0.484573 0
M  V30 1457 H 139.494 0.876649 -1.84868 0
M  V30 1458 H 139.504 3.2406 -2.47889 0
M  V30 1459 H 138.179 2.47639 -3.34138 0
M  V30 1460 H 136.756 3.31276 -1.71204 0
M  V30 1461 N 138.941 1.26152 0.944643 0
M  V30 1462 C 140.357 1.03189 1.21754 0
M  V30 1463 C 140.557 -0.245112 2.00004 0
M  V30 1464 O 139.613 -0.955176 2.33736 0
M  V30 1465 C 140.926 2.26119 1.98219 0
M  V30 1466 C 142.474 2.30984 2.11224 0
M  V30 1467 C 142.949 3.53597 2.91089 0
M  V30 1468 N 144.44 3.54053 2.98664 0
M  V30 1469 C 145.175 4.45593 3.60881 0
M  V30 1470 N 144.671 5.47416 4.24626 0
M  V30 1471 N 146.464 4.33252 3.58119 0
M  V30 1472 H 138.615 2.08177 0.421437 0
M  V30 1473 H 140.878 0.914723 0.248969 0
M  V30 1474 H 140.584 3.18984 1.48128 0
M  V30 1475 H 140.458 2.3009 2.98895 0
M  V30 1476 H 142.845 1.38635 2.60508 0
M  V30 1477 H 142.926 2.31026 1.09821 0
M  V30 1478 H 142.57 4.46273 2.42493 0
M  V30 1479 H 142.5 3.50802 3.92741 0
M  V30 1480 H 144.991 2.80403 2.53343 0
M  V30 1481 H 145.304 6.13459 4.69987 0
M  V30 1482 H 143.649 5.51278 4.23223 0
M  V30 1483 H 146.84 3.52924 3.0751 0
M  V30 1484 H 147.013 5.04786 4.06319 0
M  V30 1485 N 140.419 -1.14872 1.07899 0
M  V30 1486 C 141.659 -1.8745 0.814965 0
M  V30 1487 C 142.023 -1.80758 -0.64733 0
M  V30 1488 O 143.224 -2.48422 -1.02664 0
M  V30 1489 C 141.495 -3.32286 1.31607 0
M  V30 1490 S 143.054 -4.22537 1.18357 0
M  V30 1491 H 139.872 -0.646833 0.295174 0
M  V30 1492 H 142.474 -1.38555 1.37923 0
M  V30 1493 H 141.178 -3.34703 2.37491 0
M  V30 1494 H 140.709 -3.86238 0.747261 0
M  V30 1495 H 142.724 -4.96044 0.124586 0
M  V30 1496 N 141.898 -0.863906 -1.31812 0
M  V30 1497 C 143.144 -0.472535 -1.97218 0
M  V30 1498 C 143.477 0.971394 -1.68159 0
M  V30 1499 O 142.752 1.68309 -0.974798 0
M  V30 1500 C 143.035 -0.723054 -3.52766 0
M  V30 1501 C 142.888 -2.21608 -3.91421 0
M  V30 1502 C 144.207 -0.185522 -4.39709 0
M  V30 1503 H 141.326 -0.173158 -0.71637 0
M  V30 1504 H 143.968 -1.08403 -1.56041 0
M  V30 1505 H 142.118 -0.202577 -3.87971 0
M  V30 1506 H 143.79 -2.80334 -3.66347 0
M  V30 1507 H 142.033 -2.691 -3.40246 0
M  V30 1508 H 142.704 -2.34203 -4.99853 0
M  V30 1509 H 145.18 -0.630726 -4.11292 0
M  V30 1510 H 144.056 -0.390306 -5.47511 0
M  V30 1511 H 144.317 0.912229 -4.32586 0
M  V30 1512 N 143.376 1.44774 -0.622745 0
M  V30 1513 C 144.792 1.56986 -0.287652 0
M  V30 1514 C 144.992 1.61167 1.20944 0
M  V30 1515 O 144.048 1.55015 1.99315 0
M  V30 1516 C 145.361 2.84551 -0.972188 0
M  V30 1517 C 146.909 2.9825 -0.949536 0
M  V30 1518 C 147.384 4.28605 -1.61437 0
M  V30 1519 N 148.875 4.35399 -1.58057 0
M  V30 1520 C 149.61 5.34964 -2.064 0
M  V30 1521 N 149.106 6.40981 -2.62897 0
M  V30 1522 N 150.899 5.26419 -1.97078 0
M  V30 1523 H 143.05 1.40304 -1.59463 0
M  V30 1524 H 145.313 0.671794 -0.668878 0
M  V30 1525 H 145.019 2.87417 -2.02693 0
M  V30 1526 H 144.893 3.73807 -0.504771 0
M  V30 1527 H 147.28 2.94941 0.0967067 0
M  V30 1528 H 147.361 2.10364 -1.45536 0
M  V30 1529 H 147.005 4.32672 -2.66002 0
M  V30 1530 H 146.935 5.15334 -1.08344 0
M  V30 1531 H 149.426 3.59397 -1.16801 0
M  V30 1532 H 149.739 7.13225 -2.97539 0
M  V30 1533 H 148.084 6.4169 -2.66943 0
M  V30 1534 H 151.275 4.42504 -1.52669 0
M  V30 1535 H 151.448 6.03861 -2.35066 0
M  V30 1536 N 144.854 0.36279 1.53368 0
M  V30 1537 C 146.103 -0.22888 2.00397 0
M  V30 1538 C 146.416 -1.50096 1.25421 0
M  V30 1539 O 147.622 -2.17106 1.63025 0
M  V30 1540 C 146.078 -0.458417 3.56969 0
M  V30 1541 C 145.686 0.798877 4.4082 0
M  V30 1542 C 147.43 -1.00789 4.12361 0
M  V30 1543 C 145.337 0.539078 5.88938 0
M  V30 1544 H 144.267 -0.089305 0.748693 0
M  V30 1545 H 146.918 0.481099 1.77081 0
M  V30 1546 H 145.3 -1.22959 3.76427 0
M  V30 1547 H 146.474 1.57262 4.33134 0
M  V30 1548 H 144.789 1.27137 3.96516 0
M  V30 1549 H 147.386 -1.21754 5.20653 0
M  V30 1550 H 147.729 -1.9692 3.66781 0
M  V30 1551 H 148.262 -0.296961 3.9669 0
M  V30 1552 H 145.001 1.47064 6.3879 0
M  V30 1553 H 144.521 -0.196222 5.99479 0
M  V30 1554 H 146.2 0.163542 6.46793 0
M  V30 1555 N 146.332 -1.57332 0.0918853 0
M  V30 1556 C 147.572 -1.96117 -0.575988 0
M  V30 1557 C 147.936 -0.972499 -1.65549 0
M  V30 1558 O 149.137 -1.24872 -2.38034 0
M  V30 1559 C 147.408 -3.39407 -1.11973 0
M  V30 1560 S 148.967 -4.00185 -1.79992 0
M  V30 1561 H 145.785 -0.685682 -0.188045 0
M  V30 1562 H 148.387 -1.94755 0.170525 0
M  V30 1563 H 147.091 -4.09131 -0.322504 0
M  V30 1564 H 146.622 -3.44358 -1.90214 0
M  V30 1565 H 148.637 -3.88728 -3.08391 0
M  V30 1566 N 147.81 0.181792 -1.56548 0
M  V30 1567 C 149.035 0.920019 -1.85877 0
M  V30 1568 C 149.46 1.75494 -0.677021 0
M  V30 1569 O 148.818 1.77399 0.374056 0
M  V30 1570 C 148.866 1.78112 -3.13542 0
M  V30 1571 O 147.97 2.88152 -2.95029 0
M  V30 1572 H 147.311 0.258334 -0.611686 0
M  V30 1573 H 149.841 0.183092 -2.03779 0
M  V30 1574 H 149.851 2.18314 -3.44678 0
M  V30 1575 H 148.526 1.16777 -3.99169 0
M  V30 1576 H 147.103 2.51609 -2.75222 0
M  V30 1577 N 149.288 1.51039 0.449983 0
M  V30 1578 C 150.235 1.71439 1.54523 0
M  V30 1579 C 151.205 0.555871 1.56522 0
M  V30 1580 O 152.39 0.788871 1.73728 0
M  V30 1581 C 149.53 1.83384 2.92343 0
M  V30 1582 C 148.643 3.10873 2.9997 0
M  V30 1583 C 147.778 3.13488 4.28834 0
M  V30 1584 C 146.817 4.35343 4.30282 0
M  V30 1585 N 145.954 4.35579 5.5065 0
M  V30 1586 H 150.794 2.64934 1.36433 0
M  V30 1587 H 148.331 1.31312 0.662982 0
M  V30 1588 H 150.289 1.88291 3.72293 0
M  V30 1589 H 148.919 0.933086 3.0902 0
M  V30 1590 H 147.971 3.15336 2.12761 0
M  V30 1591 H 149.283 4.00814 2.96901 0
M  V30 1592 H 148.437 3.17241 5.17149 0
M  V30 1593 H 147.176 2.21414 4.34543 0
M  V30 1594 H 146.181 4.3178 3.40362 0
M  V30 1595 H 147.406 5.28668 4.26248 0
M  V30 1596 H 145.352 3.46369 5.57104 0
M  V30 1597 H 145.269 5.19313 5.49409 0
M  V30 1598 H 146.537 4.43507 6.41032 0
M  V30 1599 N 150.766 -0.704594 1.40972 0
M  V30 1600 C 151.991 -1.49858 1.43378 0
M  V30 1601 C 152.416 -1.88061 0.038184 0
M  V30 1602 O 151.774 -1.5402 -0.956425 0
M  V30 1603 C 151.822 -2.74333 2.34038 0
M  V30 1604 O 150.926 -3.7147 1.7912 0
M  V30 1605 H 150.267 -0.45139 0.486974 0
M  V30 1606 H 152.797 -0.866832 1.8533 0
M  V30 1607 H 152.807 -3.22741 2.49604 0
M  V30 1608 H 151.482 -2.45863 3.35446 0
M  V30 1609 H 150.059 -3.30363 1.72958 0
M  V30 1610 N 152.244 -1.26651 -0.937939 0
M  V30 1611 C 153.474 -1.15006 -1.71631 0
M  V30 1612 C 153.882 0.297026 -1.86854 0
M  V30 1613 O 153.225 1.21493 -1.37786 0
M  V30 1614 C 153.287 -1.74984 -3.14039 0
M  V30 1615 C 152.951 -3.24103 -3.2219 0
M  V30 1616 C 153.948 -4.20877 -3.05219 0
M  V30 1617 C 151.633 -3.64625 -3.45476 0
M  V30 1618 C 153.627 -5.56151 -3.11408 0
M  V30 1619 C 151.314 -5.00032 -3.513 0
M  V30 1620 C 152.312 -5.95604 -3.34282 0
M  V30 1621 O 152 -7.28545 -3.3982 0
M  V30 1622 H 151.732 -0.401183 -0.544085 0
M  V30 1623 H 154.286 -1.67832 -1.18413 0
M  V30 1624 H 152.516 -1.16624 -3.68695 0
M  V30 1625 H 154.205 -1.58199 -3.73802 0
M  V30 1626 H 154.971 -3.90908 -2.87081 0
M  V30 1627 H 150.85 -2.90718 -3.57777 0
M  V30 1628 H 154.394 -6.30727 -2.98043 0
M  V30 1629 H 150.291 -5.29659 -3.68959 0
M  V30 1630 H 151.059 -7.3686 -3.56343 0
M  V30 1631 N 153.722 1.14298 -1.08507 0
M  V30 1632 C 154.652 2.21542 -0.737646 0
M  V30 1633 C 155.633 1.67773 0.280377 0
M  V30 1634 O 156.818 1.93616 0.150521 0
M  V30 1635 C 153.948 3.46988 -0.147259 0
M  V30 1636 C 152.902 4.13789 -1.09374 0
M  V30 1637 C 152.228 5.33449 -0.365524 0
M  V30 1638 C 153.528 4.62208 -2.4323 0
M  V30 1639 H 155.222 2.5086 -1.6343 0
M  V30 1640 H 152.768 1.20576 -0.787243 0
M  V30 1641 H 154.721 4.21262 0.107808 0
M  V30 1642 H 153.445 3.17037 0.784538 0
M  V30 1643 H 152.104 3.4147 -1.33393 0
M  V30 1644 H 151.752 4.99759 0.57011 0
M  V30 1645 H 151.452 5.79088 -0.996512 0
M  V30 1646 H 152.976 6.10485 -0.118534 0
M  V30 1647 H 154.39 5.27952 -2.23472 0
M  V30 1648 H 152.787 5.18553 -3.02031 0
M  V30 1649 H 153.857 3.77224 -3.04681 0
M  V30 1650 N 155.201 0.870884 1.31352 0
M  V30 1651 C 156.429 0.49677 2.00848 0
M  V30 1652 C 156.844 -0.910998 1.65367 0
M  V30 1653 O 156.201 -1.59696 0.883374 0
M  V30 1654 C 156.252 0.645308 3.55694 0
M  V30 1655 O 155.973 1.99764 3.89905 0
M  V30 1656 C 157.474 0.272326 4.42463 0
M  V30 1657 H 154.694 0.193462 0.642506 0
M  V30 1658 H 157.238 1.1723 1.67563 0
M  V30 1659 H 155.393 0.0173176 3.87396 0
M  V30 1660 H 155.807 2.00607 4.84621 0
M  V30 1661 H 157.281 0.427208 5.50344 0
M  V30 1662 H 157.758 -0.788587 4.32062 0
M  V30 1663 H 158.364 0.876054 4.1618 0
M  V30 1664 N 156.679 -1.44442 0.630414 0
M  V30 1665 C 157.609 -2.33418 -0.0618083 0
M  V30 1666 C 158.59 -1.48165 -0.835541 0
M  V30 1667 O 159.775 -1.76886 -0.801564 0
M  V30 1668 C 156.905 -3.31222 -1.04449 0
M  V30 1669 C 155.859 -4.26288 -0.382436 0
M  V30 1670 C 155.185 -5.13954 -1.47497 0
M  V30 1671 C 156.485 -5.1744 0.710865 0
M  V30 1672 H 158.179 -2.91548 0.681184 0
M  V30 1673 H 155.725 -1.40191 0.329026 0
M  V30 1674 H 157.678 -3.92351 -1.53748 0
M  V30 1675 H 156.402 -2.71299 -1.81836 0
M  V30 1676 H 155.061 -3.6649 0.0899054 0
M  V30 1677 H 154.709 -4.50385 -2.2397 0
M  V30 1678 H 154.409 -5.7837 -1.03737 0
M  V30 1679 H 155.933 -5.77955 -1.96979 0
M  V30 1680 H 157.347 -5.72509 0.300996 0
M  V30 1681 H 155.744 -5.90455 1.07156 0
M  V30 1682 H 156.814 -4.58496 1.57829 0
M  V30 1683 N 158.157 -0.370918 -1.53173 0
M  V30 1684 C 159.067 0.480823 -2.2962 0
M  V30 1685 C 160.083 1.08789 -1.35798 0
M  V30 1686 O 161.259 1.09768 -1.68858 0
M  V30 1687 C 158.324 1.60227 -3.07454 0
M  V30 1688 C 157.385 1.0222 -4.16953 0
M  V30 1689 C 156.618 2.0902 -4.91066 0
M  V30 1690 O 156.841 3.30222 -4.65091 0
M  V30 1691 O 155.775 1.71778 -5.76867 0
M  V30 1692 H 159.601 -0.141421 -3.03371 0
M  V30 1693 H 157.186 -0.135146 -1.48787 0
M  V30 1694 H 159.068 2.25417 -3.56041 0
M  V30 1695 H 157.743 2.20982 -2.36535 0
M  V30 1696 H 156.65 0.334064 -3.72605 0
M  V30 1697 H 157.983 0.459131 -4.90054 0
M  V30 1698 N 159.635 1.57281 -0.100228 0
M  V30 1699 C 160.583 2.15542 0.874328 0
M  V30 1700 C 161.577 1.09962 1.28859 0
M  V30 1701 O 162.783 1.28298 1.26252 0
M  V30 1702 H 159.158 0.689567 0.300003 0
M  V30 1703 H 161.129 2.96241 0.35829 0
M  V30 1704 C 159.878 2.75454 2.1218 0
M  V30 1705 H 159.201 3.56384 1.81193 0
M  V30 1706 H 160.641 3.19781 2.78417 0
M  V30 1707 C 159.1 1.71602 2.89921 0
M  V30 1708 O 159.63 1.15804 3.84646 0
M  V30 1709 N 157.836 1.41975 2.53558 0
M  V30 1710 H 157.383 1.87539 1.76598 0
M  V30 1711 H 157.341 0.727274 3.05873 0
M  V30 1712 N 161.113 -0.173488 1.56642 0
M  V30 1713 C 162.361 -0.888706 1.81512 0
M  V30 1714 C 162.682 -1.82875 0.676872 0
M  V30 1715 O 161.952 -1.93536 -0.303414 0
M  V30 1716 H 160.532 -0.331164 0.669582 0
M  V30 1717 H 163.194 -0.173823 1.94123 0
M  V30 1718 H 162.29 -1.46691 2.75478 0
M  V30 1719 N 162.591 -1.51276 -0.441967 0
M  V30 1720 C 163.538 -1.72256 -1.53612 0
M  V30 1721 C 164.508 -0.564164 -1.56225 0
M  V30 1722 O 165.693 -0.798074 -1.73307 0
M  V30 1723 C 162.833 -1.84932 -2.91366 0
M  V30 1724 C 161.946 -3.12459 -2.98317 0
M  V30 1725 C 161.081 -3.15758 -4.27166 0
M  V30 1726 C 160.12 -4.37619 -4.27967 0
M  V30 1727 N 159.257 -4.38493 -5.48333 0
M  V30 1728 H 164.097 -2.65654 -1.35026 0
M  V30 1729 H 161.634 -1.31662 -0.656009 0
M  V30 1730 H 163.592 -1.90263 -3.7129 0
M  V30 1731 H 162.222 -0.949461 -3.08521 0
M  V30 1732 H 161.274 -3.1646 -2.11086 0
M  V30 1733 H 162.586 -4.02382 -2.94771 0
M  V30 1734 H 161.74 -3.19979 -5.15459 0
M  V30 1735 H 160.479 -2.23715 -4.33362 0
M  V30 1736 H 159.484 -4.33579 -3.38067 0
M  V30 1737 H 160.709 -5.30921 -4.23438 0
M  V30 1738 H 158.655 -3.49318 -5.55259 0
M  V30 1739 H 158.572 -5.22219 -5.46647 0
M  V30 1740 H 159.84 -4.469 -6.38671 0
M  V30 1741 N 164.069 0.697108 -1.41344 0
M  V30 1742 C 165.315 1.4593 -1.40827 0
M  V30 1743 C 165.648 1.94193 -0.0167098 0
M  V30 1744 O 164.923 1.69425 0.955263 0
M  V30 1745 C 165.206 2.67229 -2.41373 0
M  V30 1746 C 165.059 2.24741 -3.8963 0
M  V30 1747 C 166.378 3.69423 -2.39196 0
M  V30 1748 H 163.497 0.529303 -0.512842 0
M  V30 1749 H 166.139 0.794112 -1.72609 0
M  V30 1750 H 164.289 3.23982 -2.14401 0
M  V30 1751 H 165.961 1.73327 -4.27499 0
M  V30 1752 H 164.204 1.56542 -4.0457 0
M  V30 1753 H 164.875 3.1177 -4.55525 0
M  V30 1754 H 167.351 3.2234 -2.63128 0
M  V30 1755 H 166.227 4.51907 -3.11563 0
M  V30 1756 H 166.488 4.19012 -1.41001 0
M  V30 1757 N 165.547 1.27147 0.931209 0
M  V30 1758 C 166.794 1.13278 1.67852 0
M  V30 1759 C 167.122 -0.32204 1.91815 0
M  V30 1760 O 166.377 -1.25224 1.50391 0
M  V30 1761 C 166.676 1.8579 3.05314 0
M  V30 1762 C 166.342 3.35657 3.01073 0
M  V30 1763 C 165.004 3.76536 2.99623 0
M  V30 1764 C 167.356 4.31299 2.92627 0
M  V30 1765 C 164.684 5.11426 2.87506 0
M  V30 1766 C 167.036 5.66242 2.82051 0
M  V30 1767 C 165.7 6.06418 2.7895 0
M  V30 1768 H 164.97 0.414515 0.614214 0
M  V30 1769 H 167.617 1.57712 1.08624 0
M  V30 1770 H 165.922 1.33854 3.68226 0
M  V30 1771 H 167.619 1.72491 3.62005 0
M  V30 1772 H 164.209 3.03146 3.02986 0
M  V30 1773 H 168.393 4.00692 2.92848 0
M  V30 1774 H 163.649 5.41705 2.83489 0
M  V30 1775 H 167.823 6.40026 2.74481 0
M  V30 1776 H 165.45 7.10895 2.69318 0
M  V30 1777 N 167.025 -1.13721 1.09112 0
M  V30 1778 C 167.955 -2.21148 0.749385 0
M  V30 1779 C 168.936 -1.6792 -0.271475 0
M  V30 1780 O 170.121 -1.93693 -0.140251 0
M  V30 1781 C 167.251 -3.46905 0.165659 0
M  V30 1782 C 166.205 -4.13203 1.11567 0
M  V30 1783 C 165.531 -5.33248 0.393809 0
M  V30 1784 C 166.831 -4.60912 2.45678 0
M  V30 1785 H 168.525 -2.4999 1.64758 0
M  V30 1786 H 166.071 -1.20156 0.793626 0
M  V30 1787 H 168.024 -4.21313 -0.085466 0
M  V30 1788 H 166.748 -3.17449 -0.767714 0
M  V30 1789 H 165.407 -3.40758 1.35202 0
M  V30 1790 H 165.055 -5.00054 -0.543599 0
M  V30 1791 H 164.755 -5.78552 1.02721 0
M  V30 1792 H 166.279 -6.10413 0.150908 0
M  V30 1793 H 167.693 -5.26759 2.26269 0
M  V30 1794 H 166.09 -5.16944 3.04776 0
M  V30 1795 H 167.16 -3.75603 3.06677 0
M  V30 1796 N 168.503 -0.877838 -1.30888 0
M  V30 1797 C 169.731 -0.507414 -2.00581 0
M  V30 1798 C 170.146 0.902216 -1.65848 0
M  V30 1799 O 169.503 1.59225 -0.891831 0
M  V30 1800 C 169.554 -0.664162 -3.55347 0
M  V30 1801 O 169.275 -2.01829 -3.8884 0
M  V30 1802 C 170.776 -0.295787 -4.42312 0
M  V30 1803 H 167.996 -0.196866 -0.641471 0
M  V30 1804 H 170.54 -1.18117 -1.66939 0
M  V30 1805 H 168.695 -0.0378619 -3.87381 0
M  V30 1806 H 169.109 -2.03174 -4.8355 0
M  V30 1807 H 170.583 -0.456388 -5.5011 0
M  V30 1808 H 171.06 0.765663 -4.32475 0
M  V30 1809 H 171.666 -0.898113 -4.15709 0
M  V30 1810 N 169.982 1.44106 -0.638065 0
M  V30 1811 C 171.23 2.01579 -0.145043 0
M  V30 1812 C 171.551 1.50496 1.24 0
M  V30 1813 O 170.821 0.711374 1.82527 0
M  V30 1814 H 169.401 0.745282 -0.05063 0
M  V30 1815 H 172.063 1.76516 -0.826327 0
M  V30 1816 H 171.159 3.11877 -0.118039 0
M  V30 1817 N 171.46 0.379036 1.52974 0
M  V30 1818 C 172.708 -0.206014 2.01047 0
M  V30 1819 C 173.029 -1.48175 1.26765 0
M  V30 1820 O 172.299 -1.92085 0.384743 0
M  V30 1821 H 170.879 -0.0791184 0.742798 0
M  V30 1822 H 173.541 0.508366 1.88153 0
M  V30 1823 H 172.637 -0.423501 3.09213 0
M  V30 1824 N 172.938 -1.57226 0.108567 0
M  V30 1825 C 174.215 -1.86333 -0.594939 0
M  V30 1826 C 174.595 -1.00788 -1.85486 0
M  V30 1827 O 173.943 -0.0839293 -2.28346 0
M  V30 1828 C 174.153 -3.37265 -0.897405 0
M  V30 1829 C 175.501 -4.05629 -1.25501 0
M  V30 1830 O 176.525 -3.42224 -0.987998 0
M  V30 1831 O 175.384 -5.17531 -1.75567 0
M  V30 1832 H 172.478 -0.771018 -0.2991 0
M  V30 1833 H 175.024 -1.69102 0.142283 0
M  V30 1834 H 173.796 -3.913 -0.00413806 0
M  V30 1835 H 173.419 -3.59889 -1.69014 0
M  V30 1836 N 174.416 0.165178 -1.56732 0
M  V30 1837 C 175.346 1.20651 -1.99914 0
M  V30 1838 C 176.327 1.45827 -0.875705 0
M  V30 1839 O 177.512 1.57057 -1.14223 0
M  V30 1840 C 174.642 2.54401 -2.36427 0
M  V30 1841 C 173.596 2.43782 -3.51787 0
M  V30 1842 C 172.922 3.82078 -3.7406 0
M  V30 1843 C 174.222 1.93732 -4.85041 0
M  V30 1844 H 175.916 0.847534 -2.87154 0
M  V30 1845 H 173.462 0.40625 -1.38151 0
M  V30 1846 H 175.415 3.27458 -2.65234 0
M  V30 1847 H 174.139 2.92098 -1.46103 0
M  V30 1848 H 172.798 1.73178 -3.23117 0
M  V30 1849 H 172.446 4.17179 -2.81017 0
M  V30 1850 H 172.146 3.7584 -4.51684 0
M  V30 1851 H 173.67 4.56712 -4.05274 0
M  V30 1852 H 175.084 2.56569 -5.12684 0
M  V30 1853 H 173.481 1.98428 -5.66345 0
M  V30 1854 H 174.551 0.891962 -4.76626 0
M  V30 1855 N 175.894 1.51508 0.433938 0
M  V30 1856 C 177.305 1.56784 1.01369 0
M  V30 1857 C 177.656 0.393349 1.92217 0
M  V30 1858 O 176.781 -0.489441 2.10792 0
M  V30 1859 C 177.376 2.84144 1.8452 0
M  V30 1860 C 175.935 2.9198 2.37539 0
M  V30 1861 C 175.082 2.51482 1.16843 0
M  V30 1862 H 178.033 1.57236 0.215081 0
M  V30 1863 H 178.054 2.68098 2.70007 0
M  V30 1864 H 177.566 3.69607 1.18373 0
M  V30 1865 H 175.667 2.10955 3.0713 0
M  V30 1866 H 175.78 3.95704 2.70103 0
M  V30 1867 H 174.144 2.04758 1.51481 0
M  V30 1868 H 174.927 3.39293 0.523015 0
M  V30 1869 N 177.372 -0.689602 1.41712 0
M  V30 1870 C 178.335 -1.78521 1.43746 0
M  V30 1871 C 179.335 -1.57436 0.327191 0
M  V30 1872 O 180.525 -1.64 0.587348 0
M  V30 1873 C 177.657 -3.16971 1.25467 0
M  V30 1874 H 178.85 -1.78108 2.41283 0
M  V30 1875 H 176.403 -0.89781 1.27942 0
M  V30 1876 H 177.138 -3.23019 0.287948 0
M  V30 1877 H 176.923 -3.33678 2.05917 0
M  V30 1878 H 178.413 -3.96935 1.2974 0
M  V30 1879 N 178.85 -1.27639 -0.924453 0
M  V30 1880 C 179.78 -1.13166 -2.04244 0
M  V30 1881 C 180.761 -0.032256 -1.70069 0
M  V30 1882 O 181.946 -0.207328 -1.9309 0
M  V30 1883 C 179.076 -0.781496 -3.38393 0
M  V30 1884 C 178.03 -1.83449 -3.86692 0
M  V30 1885 C 177.356 -1.33822 -5.17683 0
M  V30 1886 C 178.656 -3.23917 -4.09726 0
M  V30 1887 H 180.35 -2.06689 -2.1661 0
M  V30 1888 H 177.896 -0.995136 -1.04082 0
M  V30 1889 H 179.849 -0.667057 -4.16087 0
M  V30 1890 H 178.573 0.189439 -3.2605 0
M  V30 1891 H 177.232 -1.93789 -3.11193 0
M  V30 1892 H 176.88 -0.35665 -5.01734 0
M  V30 1893 H 176.58 -2.04224 -5.50968 0
M  V30 1894 H 178.104 -1.23679 -5.97943 0
M  V30 1895 H 179.518 -3.16559 -4.77978 0
M  V30 1896 H 177.915 -3.92059 -4.54324 0
M  V30 1897 H 178.985 -3.68729 -3.14908 0
M  V30 1898 N 180.328 1.1314 -1.09713 0
M  V30 1899 C 181.605 1.80762 -0.747302 0
M  V30 1900 C 181.985 1.96663 0.767265 0
M  V30 1901 O 181.333 1.53706 1.69076 0
M  V30 1902 C 181.543 3.15606 -1.48975 0
M  V30 1903 C 182.891 3.90914 -1.65746 0
M  V30 1904 O 183.915 3.25239 -1.45251 0
M  V30 1905 O 182.774 5.08718 -1.9967 0
M  V30 1906 H 179.868 0.782103 -0.268782 0
M  V30 1907 H 182.414 1.20041 -1.19951 0
M  V30 1908 H 181.186 2.99278 -2.52088 0
M  V30 1909 H 180.809 3.84029 -1.02991 0
M  V30 1910 N 181.806 0.884767 1.30421 0
M  V30 1911 C 183.054 0.502112 1.95763 0
M  V30 1912 C 183.375 -0.951815 1.70192 0
M  V30 1913 O 182.645 -1.6692 1.0254 0
M  V30 1914 H 181.225 0.182694 0.724315 0
M  V30 1915 H 183.887 1.1278 1.58955 0
M  V30 1916 H 182.983 0.672188 3.04775 0
M  V30 1917 N 183.284 -1.43765 0.645699 0
M  V30 1918 C 184.247 -2.29163 -0.0409488 0
M  V30 1919 C 185.247 -1.41813 -0.757996 0
M  V30 1920 O 186.437 -1.63527 -0.600382 0
M  V30 1921 C 183.569 -3.23716 -1.06869 0
M  V30 1922 H 184.762 -2.91366 0.710345 0
M  V30 1923 H 182.315 -1.5092 0.406547 0
M  V30 1924 H 183.05 -2.66393 -1.84947 0
M  V30 1925 H 182.835 -3.88105 -0.558277 0
M  V30 1926 H 184.325 -3.87831 -1.54845 0
M  V30 1927 N 184.763 -0.387143 -1.52771 0
M  V30 1928 C 186.179 -0.037007 -1.59557 0
M  V30 1929 C 186.379 1.44801 -1.40124 0
M  V30 1930 O 185.435 2.21227 -1.21716 0
M  V30 1931 C 186.748 -0.512256 -2.96305 0
M  V30 1932 C 188.296 -0.468328 -3.09476 0
M  V30 1933 C 188.771 -0.919731 -4.4867 0
M  V30 1934 N 190.262 -0.875656 -4.54848 0
M  V30 1935 C 190.997 -1.19637 -5.6078 0
M  V30 1936 N 190.493 -1.58745 -6.74368 0
M  V30 1937 N 192.286 -1.11776 -5.50874 0
M  V30 1938 H 184.437 -1.35395 -1.63652 0
M  V30 1939 H 186.7 -0.554818 -0.768688 0
M  V30 1940 H 186.406 -1.54935 -3.15734 0
M  V30 1941 H 186.28 0.089805 -3.77093 0
M  V30 1942 H 188.667 0.559671 -2.89744 0
M  V30 1943 H 188.748 -1.10616 -2.30646 0
M  V30 1944 H 188.392 -1.94595 -4.69143 0
M  V30 1945 H 188.322 -0.258927 -5.25963 0
M  V30 1946 H 190.813 -0.587843 -3.733 0
M  V30 1947 H 191.126 -1.81586 -7.51163 0
M  V30 1948 H 189.471 -1.6263 -6.75705 0
M  V30 1949 H 192.662 -0.811264 -4.61016 0
M  V30 1950 H 192.835 -1.37103 -6.3333 0
M  V30 1951 N 186.241 1.57166 -0.116904 0
M  V30 1952 C 187.487 1.95412 0.542405 0
M  V30 1953 C 187.82 1.00019 1.66463 0
M  V30 1954 O 187.095 0.0370346 1.94465 0
M  V30 1955 C 187.378 3.43615 1.07708 0
M  V30 1956 C 187.231 4.49781 -0.0415868 0
M  V30 1957 C 188.55 3.93616 1.96861 0
M  V30 1958 H 185.669 0.710543 0.195696 0
M  V30 1959 H 188.311 1.89027 -0.192038 0
M  V30 1960 H 186.461 3.49187 1.70296 0
M  V30 1961 H 188.133 4.56308 -0.676793 0
M  V30 1962 H 186.376 4.28033 -0.705019 0
M  V30 1963 H 187.047 5.50733 0.373717 0
M  V30 1964 H 189.523 3.90335 1.44146 0
M  V30 1965 H 188.399 4.97838 2.3119 0
M  V30 1966 H 188.66 3.34188 2.89432 0
M  V30 1967 N 187.719 -0.156864 1.56817 0
M  V30 1968 C 188.996 -0.899244 1.73704 0
M  V30 1969 C 189.376 -1.99771 0.682254 0
M  V30 1970 O 188.724 -2.26515 -0.300522 0
M  V30 1971 C 188.934 -1.45075 3.17418 0
M  V30 1972 C 190.282 -1.91802 3.7881 0
M  V30 1973 O 191.306 -1.54838 3.20786 0
M  V30 1974 O 190.165 -2.5994 4.80722 0
M  V30 1975 H 187.259 -0.424267 0.709878 0
M  V30 1976 H 189.805 -0.143561 1.69092 0
M  V30 1977 H 188.577 -0.660846 3.85679 0
M  V30 1978 H 188.2 -2.27021 3.26416 0
M  V30 1979 N 189.197 -1.51736 -0.425897 0
M  V30 1980 C 190.444 -1.6497 -1.17436 0
M  V30 1981 C 190.772 -0.371445 -1.9092 0
M  V30 1982 O 190.027 0.644963 -1.84767 0
M  V30 1983 C 190.326 -2.81103 -2.20717 0
M  V30 1984 C 189.992 -4.19954 -1.64162 0
M  V30 1985 C 188.654 -4.57725 -1.48462 0
M  V30 1986 C 191.006 -5.06552 -1.22696 0
M  V30 1987 C 188.334 -5.79789 -0.897873 0
M  V30 1988 C 190.686 -6.29205 -0.654464 0
M  V30 1989 C 189.35 -6.6574 -0.484456 0
M  V30 1990 H 188.62 -0.603668 -0.429727 0
M  V30 1991 H 191.267 -1.85798 -0.463829 0
M  V30 1992 H 189.572 -2.54542 -2.97852 0
M  V30 1993 H 191.269 -2.8854 -2.78471 0
M  V30 1994 H 187.859 -3.90181 -1.77361 0
M  V30 1995 H 192.043 -4.77968 -1.33642 0
M  V30 1996 H 187.299 -6.06733 -0.75402 0
M  V30 1997 H 191.473 -6.95643 -0.324694 0
M  V30 1998 H 189.1 -7.60195 -0.0276833 0
M  V30 1999 N 190.675 0.682077 -1.42076 0
M  V30 2000 C 192.091 0.994324 -1.24841 0
M  V30 2001 C 192.291 2.0096 -0.147389 0
M  V30 2002 O 191.347 2.47822 0.483782 0
M  V30 2003 C 192.66 1.50607 -2.60265 0
M  V30 2004 C 194.208 1.62421 -2.6756 0
M  V30 2005 C 194.683 2.16994 -4.03333 0
M  V30 2006 N 196.174 2.24337 -4.0525 0
M  V30 2007 C 196.909 2.67621 -5.07116 0
M  V30 2008 N 196.405 3.1041 -6.19368 0
M  V30 2009 N 198.198 2.67305 -4.94474 0
M  V30 2010 H 190.349 0.00973908 -2.12398 0
M  V30 2011 H 192.612 0.0668593 -0.945639 0
M  V30 2012 H 192.318 0.834583 -3.41654 0
M  V30 2013 H 192.192 2.48602 -2.83684 0
M  V30 2014 H 194.579 2.28678 -1.86521 0
M  V30 2015 H 194.66 0.629352 -2.47937 0
M  V30 2016 H 194.304 1.51349 -4.84826 0
M  V30 2017 H 194.234 3.17258 -4.20304 0
M  V30 2018 H 196.725 1.94158 -3.24209 0
M  V30 2019 H 197.038 3.42103 -6.92954 0
M  V30 2020 H 195.383 3.08286 -6.22884 0
M  V30 2021 H 198.574 2.33233 -4.05857 0
M  V30 2022 H 198.747 3.00718 -5.73997 0
M  V30 2023 N 192.153 1.28127 0.917671 0
M  V30 2024 C 193.393 1.163 1.68088 0
M  V30 2025 C 193.757 -0.284515 1.8988 0
M  V30 2026 O 194.958 -0.525413 2.63615 0
M  V30 2027 C 193.229 1.93546 3.00457 0
M  V30 2028 S 194.788 1.98048 3.91564 0
M  V30 2029 H 191.606 0.415005 0.577315 0
M  V30 2030 H 194.208 1.62173 1.09179 0
M  V30 2031 H 192.912 2.97888 2.82295 0
M  V30 2032 H 192.443 1.48207 3.64415 0
M  V30 2033 H 194.458 1.08415 4.84211 0
M  V30 2034 N 193.631 -1.12557 1.10312 0
M  V30 2035 C 194.908 -1.80363 0.756878 0
M  V30 2036 C 195.288 -1.97067 -0.756824 0
M  V30 2037 O 194.636 -1.54601 -1.68259 0
M  V30 2038 C 194.846 -3.14812 1.50647 0
M  V30 2039 C 196.194 -3.90029 1.67817 0
M  V30 2040 O 197.218 -3.24464 1.46974 0
M  V30 2041 O 196.077 -5.07652 2.02365 0
M  V30 2042 H 193.171 -0.780667 0.272926 0
M  V30 2043 H 195.717 -1.19404 1.20586 0
M  V30 2044 H 194.489 -2.97936 2.53672 0
M  V30 2045 H 194.112 -3.83478 1.05026 0
M  V30 2046 N 195.109 -0.891671 -1.2995 0
M  V30 2047 C 196.52 -0.563104 -1.78006 0
M  V30 2048 C 196.871 0.920978 -1.73241 0
M  V30 2049 O 195.996 1.71987 -1.31337 0
M  V30 2050 C 196.591 -1.01539 -3.23226 0
M  V30 2051 C 195.15 -0.738124 -3.69092 0
M  V30 2052 C 194.297 -1.19461 -2.50249 0
M  V30 2053 H 197.248 -1.07522 -1.16725 0
M  V30 2054 H 197.269 -0.347217 -3.78912 0
M  V30 2055 H 196.781 -2.09555 -3.26662 0
M  V30 2056 H 194.882 0.329766 -3.71138 0
M  V30 2057 H 194.995 -1.33037 -4.60259 0
M  V30 2058 H 193.359 -0.613787 -2.47194 0
M  V30 2059 H 194.142 -2.28265 -2.56417 0
M  V30 2060 N 196.587 1.43421 -0.653314 0
M  V30 2061 C 197.864 1.95361 -0.0966581 0
M  V30 2062 C 198.244 1.59461 1.38331 0
M  V30 2063 O 197.592 0.879777 2.10884 0
M  V30 2064 C 197.802 3.47311 -0.342988 0
M  V30 2065 C 199.15 4.23875 -0.24798 0
M  V30 2066 O 200.174 3.55133 -0.275553 0
M  V30 2067 O 199.033 5.4623 -0.171771 0
M  V30 2068 H 196.127 0.826945 0.00956291 0
M  V30 2069 H 198.673 1.5336 -0.726558 0
M  V30 2070 H 197.445 3.66569 -1.36906 0
M  V30 2071 H 197.068 3.9631 0.319975 0
M  V30 2072 N 198.065 0.39524 1.52563 0
M  V30 2073 C 199.312 -0.185044 2.01653 0
M  V30 2074 C 199.64 -1.46317 1.28146 0
M  V30 2075 O 198.895 -1.9213 0.372074 0
M  V30 2076 C 199.194 -0.493444 3.53977 0
M  V30 2077 C 198.86 0.69384 4.4553 0
M  V30 2078 C 197.522 1.01954 4.70275 0
M  V30 2079 C 199.874 1.48785 4.99512 0
M  V30 2080 C 197.202 2.14069 5.46252 0
M  V30 2081 C 199.554 2.59965 5.76716 0
M  V30 2082 C 198.218 2.93037 5.99738 0
M  V30 2083 H 197.488 -0.0677123 0.7379 0
M  V30 2084 H 200.135 0.533807 1.8391 0
M  V30 2085 H 198.44 -1.29369 3.69825 0
M  V30 2086 H 200.137 -0.955163 3.89458 0
M  V30 2087 H 196.727 0.429987 4.26438 0
M  V30 2088 H 200.911 1.24946 4.80315 0
M  V30 2089 H 196.167 2.40056 5.62302 0
M  V30 2090 H 200.341 3.21887 6.17545 0
M  V30 2091 H 197.968 3.8003 6.58393 0
M  V30 2092 N 199.544 -1.57102 0.125237 0
M  V30 2093 C 200.494 -2.12202 -0.833936 0
M  V30 2094 C 201.478 -1.04433 -1.22403 0
M  V30 2095 O 202.67 -1.30655 -1.19408 0
M  V30 2096 C 199.799 -2.72994 -2.08157 0
M  V30 2097 C 198.885 -3.87852 -1.71556 0
M  V30 2098 N 199.276 -4.9464 -1.05662 0
M  V30 2099 C 197.574 -3.98153 -2.00973 0
M  V30 2100 C 198.275 -5.74953 -0.883376 0
M  V30 2101 N 197.251 -5.24985 -1.41036 0
M  V30 2102 H 201.053 -2.92141 -0.321035 0
M  V30 2103 H 198.567 -1.62217 -0.0770315 0
M  V30 2104 H 200.564 -3.10816 -2.77847 0
M  V30 2105 H 199.224 -1.9452 -2.59985 0
M  V30 2106 H 200.235 -5.12872 -0.719878 0
M  V30 2107 H 196.912 -3.30728 -2.54804 0
M  V30 2108 H 198.302 -6.70904 -0.365675 0
M  V30 2109 N 201.022 0.148545 -1.56898 0
M  V30 2110 C 201.952 1.18524 -2.01182 0
M  V30 2111 C 202.933 1.4489 -0.891123 0
M  V30 2112 O 204.118 1.55836 -1.15882 0
M  V30 2113 C 201.248 2.51879 -2.39112 0
M  V30 2114 C 200.202 2.40038 -3.54353 0
M  V30 2115 C 199.528 3.78089 -3.78091 0
M  V30 2116 C 200.828 1.88577 -4.87069 0
M  V30 2117 H 202.522 0.817029 -2.88036 0
M  V30 2118 H 200.068 0.391575 -1.38574 0
M  V30 2119 H 202.021 3.24627 -2.68692 0
M  V30 2120 H 200.745 2.90532 -1.49193 0
M  V30 2121 H 199.404 1.69742 -3.24936 0
M  V30 2122 H 199.052 4.14175 -2.85426 0
M  V30 2123 H 198.752 3.71028 -4.55645 0
M  V30 2124 H 200.276 4.52387 -4.10095 0
M  V30 2125 H 201.69 2.51117 -5.15377 0
M  V30 2126 H 200.087 1.9241 -5.68417 0
M  V30 2127 H 201.157 0.84136 -4.77545 0
M  V30 2128 N 202.5 1.5196 0.417844 0
M  V30 2129 C 203.746 1.65836 1.16732 0
M  V30 2130 C 204.079 0.382881 1.90388 0
M  V30 2131 O 203.354 -0.618368 1.84408 0
M  V30 2132 C 203.637 2.87466 2.16876 0
M  V30 2133 C 203.49 4.25041 1.47174 0
M  V30 2134 C 204.809 3.04613 3.17646 0
M  V30 2135 H 201.928 0.603515 0.423011 0
M  V30 2136 H 204.57 1.84494 0.454105 0
M  V30 2137 H 202.72 2.71689 2.777 0
M  V30 2138 H 204.392 4.52527 0.895376 0
M  V30 2139 H 202.635 4.26843 0.773806 0
M  V30 2140 H 203.306 5.06176 2.20204 0
M  V30 2141 H 205.782 3.1923 2.66892 0
M  V30 2142 H 204.658 3.91247 3.8499 0
M  V30 2143 H 204.919 2.17541 3.84874 0
M  V30 2144 N 203.978 -0.674533 1.42435 0
M  V30 2145 C 205.226 -1.43175 1.42637 0
M  V30 2146 C 205.547 -1.94951 0.0438992 0
M  V30 2147 O 204.817 -1.7308 -0.917607 0
M  V30 2148 H 203.397 -0.531307 0.525092 0
M  V30 2149 H 206.059 -0.797006 1.77859 0
M  V30 2150 H 205.155 -2.28463 2.12629 0
M  V30 2151 N 205.456 -1.28612 -0.910864 0
M  V30 2152 C 206.681 -1.1891 -1.69927 0
M  V30 2153 C 207.106 0.248372 -1.86453 0
M  V30 2154 O 206.464 1.17961 -1.37676 0
M  V30 2155 C 206.512 -1.89578 -3.06745 0
M  V30 2156 O 205.616 -1.20521 -3.94396 0
M  V30 2157 H 204.957 -0.412632 -0.520222 0
M  V30 2158 H 207.487 -1.69985 -1.1387 0
M  V30 2159 H 207.497 -1.97597 -3.56958 0
M  V30 2160 H 206.172 -2.94136 -2.94035 0
M  V30 2161 H 204.749 -1.20684 -3.52831 0
M  V30 2162 N 206.934 1.1197 -1.10907 0
M  V30 2163 C 208.159 1.87942 -0.877064 0
M  V30 2164 C 208.584 1.79341 0.567314 0
M  V30 2165 O 207.942 1.15184 1.40009 0
M  V30 2166 C 207.99 3.34926 -1.33629 0
M  V30 2167 O 207.094 4.09303 -0.504447 0
M  V30 2168 H 206.435 0.583785 -0.316371 0
M  V30 2169 H 208.965 1.4157 -1.47712 0
M  V30 2170 H 208.975 3.8577 -1.32837 0
M  V30 2171 H 207.65 3.40504 -2.3881 0
M  V30 2172 H 206.227 3.68393 -0.577993 0
M  V30 2173 N 208.412 0.89855 1.29475 0
M  V30 2174 C 209.828 0.594483 1.48115 0
M  V30 2175 C 210.028 -0.86431 1.82022 0
M  V30 2176 O 209.084 -1.64457 1.91599 0
M  V30 2177 C 210.397 1.51932 2.59494 0
M  V30 2178 C 211.945 1.5244 2.7337 0
M  V30 2179 C 212.42 2.43548 3.87877 0
M  V30 2180 N 213.911 2.41589 3.95208 0
M  V30 2181 C 214.646 3.08789 4.83153 0
M  V30 2182 N 214.142 3.85265 5.75798 0
M  V30 2183 N 215.935 2.97952 4.76635 0
M  V30 2184 H 208.086 1.84207 1.05742 0
M  V30 2185 H 210.349 0.789251 0.525154 0
M  V30 2186 H 210.055 2.55865 2.41301 0
M  V30 2187 H 209.929 1.23899 3.56271 0
M  V30 2188 H 212.316 0.492518 2.90961 0
M  V30 2189 H 212.397 1.8451 1.77172 0
M  V30 2190 H 212.041 3.46829 3.71041 0
M  V30 2191 H 211.971 2.08788 4.83441 0
M  V30 2192 H 214.462 1.86025 3.28943 0
M  V30 2193 H 214.775 4.33598 6.39697 0
M  V30 2194 H 213.12 3.89371 5.75687 0
M  V30 2195 H 216.311 2.37723 4.03244 0
M  V30 2196 H 216.484 3.50599 5.44962 0
M  V30 2197 N 209.89 -1.43072 0.660911 0
M  V30 2198 C 211.115 -2.06584 0.183805 0
M  V30 2199 C 211.54 -1.49257 -1.14472 0
M  V30 2200 O 210.898 -0.605528 -1.70889 0
M  V30 2201 C 210.946 -3.60418 0.114434 0
M  V30 2202 O 210.05 -4.01981 -0.921137 0
M  V30 2203 H 209.391 -0.656669 0.0983994 0
M  V30 2204 H 211.921 -1.83447 0.906006 0
M  V30 2205 H 211.931 -4.07946 -0.0663394 0
M  V30 2206 H 210.606 -4.01519 1.08422 0
M  V30 2207 H 209.183 -3.66029 -0.71253 0
M  V30 2208 N 211.368 -0.403325 -1.52352 0
M  V30 2209 C 212.617 0.175668 -2.00934 0
M  V30 2210 C 212.93 1.46718 -1.29356 0
M  V30 2211 O 214.136 2.12708 -1.68724 0
M  V30 2212 C 212.592 0.363612 -3.58058 0
M  V30 2213 C 212.2 -0.915472 -4.38547 0
M  V30 2214 C 213.944 0.89821 -4.14888 0
M  V30 2215 C 211.851 -0.695035 -5.87302 0
M  V30 2216 H 210.781 0.0694234 -0.750797 0
M  V30 2217 H 213.432 -0.527879 -1.75743 0
M  V30 2218 H 211.814 1.12935 -3.79555 0
M  V30 2219 H 212.988 -1.68691 -4.28812 0
M  V30 2220 H 211.303 -1.37606 -3.93006 0
M  V30 2221 H 213.9 1.07907 -5.23699 0
M  V30 2222 H 214.243 1.87126 -3.71873 0
M  V30 2223 H 214.776 0.191681 -3.97338 0
M  V30 2224 H 211.515 -1.63948 -6.34666 0
M  V30 2225 H 211.035 0.0372116 -5.99788 0
M  V30 2226 H 212.714 -0.33497 -6.46132 0
M  V30 2227 N 212.846 1.57033 -0.133567 0
M  V30 2228 C 214.086 1.97575 0.523789 0
M  V30 2229 C 214.45 1.01605 1.62912 0
M  V30 2230 O 215.651 1.3114 2.3464 0
M  V30 2231 C 213.922 3.42256 1.02935 0
M  V30 2232 S 215.481 4.04817 1.69319 0
M  V30 2233 H 212.299 0.690427 0.169799 0
M  V30 2234 H 214.901 1.94234 -0.222101 0
M  V30 2235 H 213.605 4.09842 0.213917 0
M  V30 2236 H 213.136 3.4928 1.81017 0
M  V30 2237 H 215.151 3.96767 2.97977 0
M  V30 2238 N 214.325 -0.140222 1.56975 0
M  V30 2239 C 215.55 -0.870414 1.88251 0
M  V30 2240 C 215.975 -1.73637 0.723312 0
M  V30 2241 O 215.333 -1.78329 -0.32689 0
M  V30 2242 C 215.381 -1.69737 3.18154 0
M  V30 2243 O 214.485 -2.80229 3.02565 0
M  V30 2244 H 213.826 -0.242025 0.61832 0
M  V30 2245 H 216.356 -0.128999 2.04193 0
M  V30 2246 H 216.366 -2.09099 3.50345 0
M  V30 2247 H 215.041 -1.06152 4.02125 0
M  V30 2248 H 213.618 -2.44224 2.81796 0
M  V30 2249 N 215.803 -1.52179 -0.40978 0
M  V30 2250 C 216.735 -1.71703 -1.51825 0
M  V30 2251 C 217.748 -0.597445 -1.51441 0
M  V30 2252 O 218.937 -0.872582 -1.55719 0
M  V30 2253 C 216.037 -1.74171 -2.90719 0
M  V30 2254 C 215.21 -3.03156 -3.15302 0
M  V30 2255 C 214.269 -2.97445 -4.34065 0
M  V30 2256 O 213.295 -3.71352 -4.31377 0
M  V30 2257 N 214.497 -2.15191 -5.39141 0
M  V30 2258 H 217.262 -2.67334 -1.35472 0
M  V30 2259 H 214.823 -1.50409 -0.599069 0
M  V30 2260 H 216.815 -1.67884 -3.68235 0
M  V30 2261 H 215.385 -0.860166 -3.00533 0
M  V30 2262 H 214.605 -3.23097 -2.25836 0
M  V30 2263 H 215.893 -3.88484 -3.28569 0
M  V30 2264 H 215.291 -1.54573 -5.44173 0
M  V30 2265 H 213.848 -2.1476 -6.15403 0
M  V30 2266 N 217.281 0.66697 -1.42791 0
M  V30 2267 C 218.529 1.42417 -1.43394 0
M  V30 2268 C 218.85 1.94925 -0.0542373 0
M  V30 2269 O 218.12 1.73564 0.908415 0
M  V30 2270 H 216.7 0.528515 -0.527902 0
M  V30 2271 H 219.362 0.787562 -1.78279 0
M  V30 2272 H 218.458 2.27333 -2.13837 0
M  V30 2273 N 218.759 1.29093 0.90403 0
M  V30 2274 C 219.691 1.09658 2.01266 0
M  V30 2275 C 220.704 0.0453729 1.62737 0
M  V30 2276 O 221.893 0.289446 1.76138 0
M  V30 2277 C 218.993 0.646278 3.32681 0
M  V30 2278 C 218.166 1.77505 3.99763 0
M  V30 2279 C 217.225 1.31649 5.09465 0
M  V30 2280 O 216.251 2.02045 5.32134 0
M  V30 2281 N 217.453 0.184997 5.80205 0
M  V30 2282 H 220.218 2.05135 2.18494 0
M  V30 2283 H 217.779 1.20975 1.07594 0
M  V30 2284 H 219.771 0.322906 4.0341 0
M  V30 2285 H 218.341 -0.215916 3.11853 0
M  V30 2286 H 217.561 2.26752 3.22455 0
M  V30 2287 H 218.849 2.53198 4.41325 0
M  V30 2288 H 218.247 -0.402021 5.6427 0
M  V30 2289 H 216.804 -0.0790358 6.51752 0
M  V30 2290 N 220.237 -1.11381 1.11499 0
M  V30 2291 C 221.483 -1.83597 0.875423 0
M  V30 2292 C 221.838 -1.83048 -0.592555 0
M  V30 2293 O 221.131 -1.27304 -1.43193 0
M  V30 2294 C 221.325 -3.30026 1.37177 0
M  V30 2295 C 221.154 -3.44837 2.88647 0
M  V30 2296 C 219.924 -3.57825 3.56776 0
M  V30 2297 C 222.122 -3.3907 3.86699 0
M  V30 2298 N 220.104 -3.61113 4.96458 0
M  V30 2299 C 221.475 -3.48986 5.12454 0
M  V30 2300 C 223.53 -3.22605 3.7925 0
M  V30 2301 C 222.233 -3.44135 6.31636 0
M  V30 2302 C 224.259 -3.19072 4.97943 0
M  V30 2303 C 223.621 -3.29559 6.22551 0
M  V30 2304 H 219.72 -0.687044 0.37349 0
M  V30 2305 H 222.304 -1.33265 1.41946 0
M  V30 2306 H 220.475 -3.78874 0.854919 0
M  V30 2307 H 222.207 -3.90153 1.07529 0
M  V30 2308 H 218.962 -3.60414 3.07244 0
M  V30 2309 H 219.386 -3.66394 5.69284 0
M  V30 2310 H 224.028 -3.13382 2.83816 0
M  V30 2311 H 221.746 -3.52126 7.27347 0
M  V30 2312 H 225.332 -3.07498 4.93899 0
M  V30 2313 H 224.212 -3.26815 7.12855 0
M  V30 2314 N 221.715 -0.905404 -1.28997 0
M  V30 2315 C 222.94 -0.549175 -1.99997 0
M  V30 2316 C 223.365 0.860276 -1.67275 0
M  V30 2317 O 222.723 1.57355 -0.900502 0
M  V30 2318 C 222.771 -0.755185 -3.52604 0
M  V30 2319 O 221.875 0.189692 -4.11964 0
M  V30 2320 H 221.216 -0.213899 -0.628604 0
M  V30 2321 H 223.746 -1.21856 -1.64354 0
M  V30 2322 H 223.756 -0.662045 -4.02593 0
M  V30 2323 H 222.431 -1.78271 -3.75755 0
M  V30 2324 H 221.008 0.0485257 -3.72868 0
M  V30 2325 N 223.193 1.4272 -0.668489 0
M  V30 2326 C 224.421 2.05966 -0.196348 0
M  V30 2327 C 224.836 1.50191 1.14403 0
M  V30 2328 O 224.193 0.639208 1.7094 0
M  V30 2329 C 224.244 3.61314 -0.115815 0
M  V30 2330 O 223.965 4.1502 -1.40322 0
M  V30 2331 C 225.466 4.41663 0.380579 0
M  V30 2332 H 222.686 0.663954 -0.0969829 0
M  V30 2333 H 225.23 1.82966 -0.913446 0
M  V30 2334 H 223.385 3.83448 0.551931 0
M  V30 2335 H 223.799 5.08832 -1.27243 0
M  V30 2336 H 225.273 5.5065 0.385848 0
M  V30 2337 H 225.75 4.15792 1.41471 0
M  V30 2338 H 226.356 4.24534 -0.255209 0
M  V30 2339 N 224.671 0.411399 1.52136 0
M  V30 2340 C 226.082 -0.0576826 1.86611 0
M  V30 2341 C 226.433 -1.44238 1.33003 0
M  V30 2342 O 225.558 -2.05759 0.670228 0
M  V30 2343 C 226.153 -0.111448 3.38617 0
M  V30 2344 C 224.712 -0.52487 3.72723 0
M  V30 2345 C 223.859 0.299176 2.75681 0
M  V30 2346 H 226.81 0.628368 1.4573 0
M  V30 2347 H 226.831 -0.926252 3.69054 0
M  V30 2348 H 226.343 0.896488 3.77604 0
M  V30 2349 H 224.444 -1.53936 3.39315 0
M  V30 2350 H 224.557 -0.267681 4.78352 0
M  V30 2351 H 222.921 -0.238814 2.53578 0
M  V30 2352 H 223.704 1.3055 3.17508 0
M  V30 2353 N 226.149 -1.5696 0.141893 0
M  V30 2354 C 227.096 -2.16501 -0.799737 0
M  V30 2355 C 228.066 -1.09643 -1.24771 0
M  V30 2356 O 229.251 -1.3766 -1.32115 0
M  V30 2357 C 226.391 -2.78679 -2.03549 0
M  V30 2358 C 225.504 -3.99914 -1.6338 0
M  V30 2359 C 224.639 -4.50106 -2.82096 0
M  V30 2360 C 223.678 -5.63819 -2.38275 0
M  V30 2361 N 222.815 -6.08651 -3.49983 0
M  V30 2362 H 227.655 -2.96632 -0.285179 0
M  V30 2363 H 225.192 -1.46533 -0.129053 0
M  V30 2364 H 227.15 -3.1287 -2.75986 0
M  V30 2365 H 225.78 -2.012 -2.52425 0
M  V30 2366 H 224.832 -3.71735 -0.807279 0
M  V30 2367 H 226.144 -4.82311 -1.27192 0
M  V30 2368 H 225.298 -4.86325 -3.62729 0
M  V30 2369 H 224.037 -3.66706 -3.21525 0
M  V30 2370 H 223.042 -5.2718 -1.56081 0
M  V30 2371 H 224.267 -6.49 -1.99938 0
M  V30 2372 H 222.213 -5.28188 -3.89042 0
M  V30 2373 H 222.13 -6.85961 -3.17794 0
M  V30 2374 H 223.398 -6.49515 -4.30988 0
M  V30 2375 N 227.627 0.131896 -1.57047 0
M  V30 2376 C 229.038 0.690407 -1.73465 0
M  V30 2377 C 229.389 1.8094 -0.758629 0
M  V30 2378 O 228.514 2.16282 0.0713813 0
M  V30 2379 C 229.109 1.25916 -3.14532 0
M  V30 2380 C 227.668 1.76409 -3.32501 0
M  V30 2381 C 226.815 0.658579 -2.69366 0
M  V30 2382 H 229.766 -0.0939144 -1.58422 0
M  V30 2383 H 229.787 2.12892 -3.15369 0
M  V30 2384 H 229.299 0.444515 -3.85546 0
M  V30 2385 H 227.4 2.60391 -2.66509 0
M  V30 2386 H 227.513 1.88241 -4.4057 0
M  V30 2387 H 225.877 1.08899 -2.30246 0
M  V30 2388 H 226.66 -0.14487 -3.42994 0
M  V30 2389 N 229.106 1.52395 0.401703 0
M  V30 2390 C 230.056 1.72649 1.48917 0
M  V30 2391 C 231.04 0.580436 1.50066 0
M  V30 2392 O 232.232 0.83779 1.55917 0
M  V30 2393 C 229.361 1.88729 2.86769 0
M  V30 2394 C 228.447 3.09228 2.90239 0
M  V30 2395 N 228.838 4.31805 2.63396 0
M  V30 2396 C 227.136 3.09214 3.21408 0
M  V30 2397 C 227.837 5.13326 2.73625 0
M  V30 2398 N 226.813 4.48735 3.06819 0
M  V30 2399 H 230.615 2.65058 1.26971 0
M  V30 2400 H 228.129 1.50528 0.609504 0
M  V30 2401 H 230.126 2.01358 3.65049 0
M  V30 2402 H 228.786 0.975252 3.09708 0
M  V30 2403 H 229.797 4.60154 2.37653 0
M  V30 2404 H 226.474 2.27774 3.49893 0
M  V30 2405 H 227.864 6.21003 2.56524 0
M  V30 2406 N 230.584 -0.659388 1.43143 0
M  V30 2407 C 231.824 -1.43121 1.45931 0
M  V30 2408 C 232.188 -1.91838 0.0789298 0
M  V30 2409 O 233.389 -2.68794 -0.018491 0
M  V30 2410 C 231.66 -2.58534 2.46769 0
M  V30 2411 S 233.219 -3.47154 2.68384 0
M  V30 2412 H 230.037 -0.488624 0.516496 0
M  V30 2413 H 232.639 -0.766128 1.79863 0
M  V30 2414 H 231.343 -2.21007 3.45809 0
M  V30 2415 H 230.874 -3.29898 2.14315 0
M  V30 2416 H 232.889 -4.55051 1.97845 0
M  V30 2417 N 232.062 -1.29571 -0.897171 0
M  V30 2418 C 232.994 -1.10724 -2.00681 0
M  V30 2419 C 234.007 -0.0540026 -1.6271 0
M  V30 2420 O 235.196 -0.298783 -1.75982 0
M  V30 2421 C 232.296 -0.663912 -3.32333 0
M  V30 2422 C 231.469 -1.79622 -3.98816 0
M  V30 2423 C 230.528 -1.34349 -5.0876 0
M  V30 2424 O 229.554 -2.04864 -5.31055 0
M  V30 2425 N 230.756 -0.215764 -5.80099 0
M  V30 2426 H 233.521 -2.06291 -2.17403 0
M  V30 2427 H 231.082 -1.21544 -1.06951 0
M  V30 2428 H 233.074 -0.344295 -4.03233 0
M  V30 2429 H 231.644 0.199375 -3.11964 0
M  V30 2430 H 230.864 -2.28459 -3.21248 0
M  V30 2431 H 232.152 -2.55535 -4.39976 0
M  V30 2432 H 231.55 0.372091 -5.64475 0
M  V30 2433 H 230.107 0.0444707 -6.51785 0
M  V30 2434 N 233.54 1.10788 -1.12088 0
M  V30 2435 C 234.786 1.82942 -0.875226 0
M  V30 2436 C 235.119 1.84779 0.597538 0
M  V30 2437 O 234.394 1.30578 1.44152 0
M  V30 2438 C 234.677 3.29789 -1.44606 0
M  V30 2439 C 234.53 3.36307 -2.98693 0
M  V30 2440 C 235.849 4.26064 -1.10261 0
M  V30 2441 H 232.968 0.664195 -0.319397 0
M  V30 2442 H 235.61 1.29867 -1.38689 0
M  V30 2443 H 233.76 3.75118 -1.01089 0
M  V30 2444 H 235.432 2.99487 -3.50864 0
M  V30 2445 H 233.675 2.76318 -3.34411 0
M  V30 2446 H 234.346 4.39694 -3.33726 0
M  V30 2447 H 236.822 3.88951 -1.4784 0
M  V30 2448 H 235.698 5.27183 -1.52869 0
M  V30 2449 H 235.959 4.42098 -0.0142953 0
M  V30 2450 N 235.018 0.912232 1.28515 0
M  V30 2451 C 235.966 0.389597 2.29314 0
M  V30 2452 C 236.96 -0.517915 1.61289 0
M  V30 2453 O 238.166 -0.399328 1.75515 0
M  V30 2454 H 234.541 0.107386 0.744293 0
M  V30 2455 H 236.512 1.25286 2.70825 0
M  V30 2456 C 235.261 -0.356496 3.45868 0
M  V30 2457 H 234.584 0.332608 3.98414 0
M  V30 2458 H 236.024 -0.686851 4.184 0
M  V30 2459 C 234.483 -1.56383 2.98406 0
M  V30 2460 O 235.013 -2.66294 3.00749 0
M  V30 2461 N 233.219 -1.41029 2.54085 0
M  V30 2462 H 232.766 -0.516089 2.52377 0
M  V30 2463 H 232.724 -2.21939 2.22689 0
M  V30 2464 N 236.496 -1.42363 0.676048 0
M  V30 2465 C 237.912 -1.55811 0.345718 0
M  V30 2466 C 238.112 -1.65544 -1.14879 0
M  V30 2467 O 237.168 -1.62306 -1.93424 0
M  V30 2468 C 238.481 -2.80746 1.07713 0
M  V30 2469 C 240.029 -2.9452 1.05958 0
M  V30 2470 C 240.504 -4.22318 1.77233 0
M  V30 2471 N 241.995 -4.29233 1.74108 0
M  V30 2472 C 242.73 -5.26935 2.26113 0
M  V30 2473 N 242.226 -6.30783 2.86505 0
M  V30 2474 N 244.019 -5.18741 2.1648 0
M  V30 2475 H 236.17 -1.34289 1.6456 0
M  V30 2476 H 238.433 -0.646506 0.69335 0
M  V30 2477 H 238.139 -2.79696 2.13221 0
M  V30 2478 H 238.013 -3.71676 0.64316 0
M  V30 2479 H 240.4 -2.95097 0.0128255 0
M  V30 2480 H 240.481 -2.04817 1.53244 0
M  V30 2481 H 240.125 -4.22502 2.81877 0
M  V30 2482 H 240.055 -5.10958 1.27396 0
M  V30 2483 H 242.546 -3.54814 1.30059 0
M  V30 2484 H 242.859 -7.01691 3.23805 0
M  V30 2485 H 241.204 -6.31341 2.90575 0
M  V30 2486 H 244.395 -4.36533 1.68987 0
M  V30 2487 H 244.568 -5.94721 2.57316 0
M  V30 2488 N 237.974 -0.419461 -1.51915 0
M  V30 2489 C 239.202 0.152136 -2.0634 0
M  V30 2490 C 239.617 1.37988 -1.28859 0
M  V30 2491 O 238.974 1.79243 -0.343232 0
M  V30 2492 C 239.025 0.492266 -3.58133 0
M  V30 2493 O 238.746 -0.686736 -4.32684 0
M  V30 2494 C 240.247 1.11648 -4.2901 0
M  V30 2495 H 237.467 0.0158325 -0.670813 0
M  V30 2496 H 240.011 -0.593394 -1.95702 0
M  V30 2497 H 238.166 1.18769 -3.68745 0
M  V30 2498 H 238.58 -0.400341 -5.2297 0
M  V30 2499 H 240.054 1.3046 -5.36362 0
M  V30 2500 H 240.531 2.09251 -3.86148 0
M  V30 2501 H 241.137 0.460958 -4.22795 0
M  V30 2502 N 239.452 1.56882 -0.150215 0
M  V30 2503 C 240.863 1.82995 0.370076 0
M  V30 2504 C 241.214 1.06907 1.64515 0
M  V30 2505 O 240.339 0.315369 2.1409 0
M  V30 2506 C 240.934 3.31942 0.678208 0
M  V30 2507 C 239.493 3.58625 1.14301 0
M  V30 2508 C 238.64 2.76792 0.167778 0
M  V30 2509 H 241.591 1.54209 -0.374858 0
M  V30 2510 H 241.612 3.48272 1.53254 0
M  V30 2511 H 241.124 3.87294 -0.249991 0
M  V30 2512 H 239.225 3.08664 2.08704 0
M  V30 2513 H 239.338 4.67073 1.06676 0
M  V30 2514 H 237.702 2.45972 0.661037 0
M  V30 2515 H 238.485 3.34916 -0.754069 0
M  V30 2516 N 240.93 -0.123565 1.57115 0
M  V30 2517 C 241.88 -1.1575 1.96433 0
M  V30 2518 C 242.864 -1.37313 0.838686 0
M  V30 2519 O 244.056 -1.38482 1.10235 0
M  V30 2520 C 241.185 -2.48526 2.36833 0
M  V30 2521 C 240.271 -2.30457 3.5602 0
M  V30 2522 N 240.662 -1.8219 4.71848 0
M  V30 2523 C 238.96 -2.61129 3.61563 0
M  V30 2524 C 239.661 -1.77721 5.53886 0
M  V30 2525 N 238.637 -2.21899 4.96248 0
M  V30 2526 H 242.439 -0.776797 2.83449 0
M  V30 2527 H 239.953 -0.331364 1.58983 0
M  V30 2528 H 241.95 -3.233 2.63216 0
M  V30 2529 H 240.61 -2.87358 1.5118 0
M  V30 2530 H 241.621 -1.51805 4.95152 0
M  V30 2531 H 238.298 -3.03678 2.86507 0
M  V30 2532 H 239.688 -1.41697 6.56789 0
M  V30 2533 N 242.408 -1.52605 -0.393616 0
M  V30 2534 C 243.633 -1.71592 -1.16495 0
M  V30 2535 C 244.058 -0.43133 -1.83088 0
M  V30 2536 O 243.416 0.612523 -1.7064 0
M  V30 2537 C 243.464 -2.86318 -2.19213 0
M  V30 2538 O 242.568 -2.52969 -3.257 0
M  V30 2539 H 241.909 -0.570734 -0.33935 0
M  V30 2540 H 244.439 -1.99377 -0.459324 0
M  V30 2541 H 244.449 -3.1168 -2.63286 0
M  V30 2542 H 243.124 -3.79511 -1.7013 0
M  V30 2543 H 241.701 -2.38332 -2.86797 0
M  V30 2544 N 243.887 0.651787 -1.4349 0
M  V30 2545 C 244.797 1.79368 -1.5121 0
M  V30 2546 C 245.813 1.69361 -0.399093 0
M  V30 2547 O 246.989 1.90505 -0.653431 0
M  V30 2548 C 244.054 3.15653 -1.43401 0
M  V30 2549 C 243.115 3.37446 -2.65384 0
M  V30 2550 C 242.348 4.67229 -2.57939 0
M  V30 2551 O 242.571 5.46676 -1.62792 0
M  V30 2552 O 241.505 4.90773 -3.48462 0
M  V30 2553 H 245.331 1.7581 -2.47638 0
M  V30 2554 H 242.916 0.810447 -1.25507 0
M  V30 2555 H 244.798 3.96935 -1.41494 0
M  V30 2556 H 243.473 3.19798 -0.501085 0
M  V30 2557 H 242.38 2.55923 -2.72863 0
M  V30 2558 H 243.713 3.38148 -3.57654 0
M  V30 2559 N 245.365 1.30045 0.890287 0
M  V30 2560 C 246.781 1.08261 1.17268 0
M  V30 2561 C 246.981 -0.160063 2.00863 0
M  V30 2562 O 246.037 -0.855181 2.37577 0
M  V30 2563 C 247.35 2.34323 1.8845 0
M  V30 2564 C 248.898 2.39735 2.01237 0
M  V30 2565 C 249.373 3.65625 2.7583 0
M  V30 2566 N 250.864 3.66402 2.83379 0
M  V30 2567 C 251.599 4.60498 3.41657 0
M  V30 2568 N 251.095 5.64933 4.01026 0
M  V30 2569 N 252.888 4.48051 3.39421 0
M  V30 2570 H 245.039 2.09777 0.332762 0
M  V30 2571 H 247.302 0.92446 0.209948 0
M  V30 2572 H 247.008 3.2498 1.34465 0
M  V30 2573 H 246.882 2.4256 2.88867 0
M  V30 2574 H 249.269 1.4956 2.54393 0
M  V30 2575 H 249.35 2.35476 0.999232 0
M  V30 2576 H 248.994 4.56156 2.23347 0
M  V30 2577 H 248.924 3.67144 3.77509 0
M  V30 2578 H 251.415 2.90896 2.41222 0
M  V30 2579 H 251.728 6.32841 4.43545 0
M  V30 2580 H 250.073 5.68732 3.99461 0
M  V30 2581 H 253.264 3.65649 2.92264 0
M  V30 2582 H 253.437 5.21565 3.84544 0
M  V30 2583 N 246.843 -1.10192 1.12674 0
M  V30 2584 C 248.259 -1.34235 0.863317 0
M  V30 2585 C 248.459 -1.95062 -0.505277 0
M  V30 2586 O 247.515 -2.19192 -1.25345 0
M  V30 2587 C 248.828 -2.2616 1.98172 0
M  V30 2588 C 250.376 -2.3969 2.0129 0
M  V30 2589 C 250.851 -3.34946 3.1237 0
M  V30 2590 N 252.342 -3.42515 3.11829 0
M  V30 2591 C 253.077 -4.16199 3.94419 0
M  V30 2592 N 252.573 -4.92747 4.87004 0
M  V30 2593 N 254.366 -4.11843 3.82547 0
M  V30 2594 H 246.517 -0.690798 2.00853 0
M  V30 2595 H 248.78 -0.366774 0.874174 0
M  V30 2596 H 248.486 -1.8868 2.96804 0
M  V30 2597 H 248.36 -3.26488 1.88906 0
M  V30 2598 H 250.747 -2.76438 1.03276 0
M  V30 2599 H 250.828 -1.39169 2.14629 0
M  V30 2600 H 250.472 -2.98923 4.10619 0
M  V30 2601 H 250.402 -4.35353 2.96269 0
M  V30 2602 H 252.893 -2.87926 2.44759 0
M  V30 2603 H 253.206 -5.46376 5.46528 0
M  V30 2604 H 251.551 -4.91862 4.91016 0
M  V30 2605 H 254.742 -3.51136 3.0955 0
M  V30 2606 H 254.915 -4.69007 4.47142 0
M  V30 2607 N 248.321 -0.919034 -1.28029 0
M  V30 2608 C 249.284 -0.416182 -2.2539 0
M  V30 2609 C 250.284 0.460438 -1.54067 0
M  V30 2610 O 251.474 0.262744 -1.72207 0
M  V30 2611 C 248.606 0.402707 -3.38513 0
M  V30 2612 H 249.799 -1.27629 -2.71387 0
M  V30 2613 H 247.352 -0.698919 -1.39803 0
M  V30 2614 H 248.087 1.282 -2.97885 0
M  V30 2615 H 247.872 -0.225698 -3.9145 0
M  V30 2616 H 249.362 0.745191 -4.10897 0
M  V30 2617 N 249.799 1.42003 -0.683588 0
M  V30 2618 C 251.045 2.01712 -0.209825 0
M  V30 2619 C 251.378 1.53968 1.18353 0
M  V30 2620 O 250.653 0.745661 1.79639 0
M  V30 2621 C 250.936 3.59202 -0.254197 0
M  V30 2622 C 250.789 4.17102 -1.68363 0
M  V30 2623 C 252.108 4.38344 0.392709 0
M  V30 2624 H 249.227 0.732891 -0.0777189 0
M  V30 2625 H 251.869 1.68909 -0.87004 0
M  V30 2626 H 250.019 3.87278 0.307954 0
M  V30 2627 H 251.691 3.99946 -2.29871 0
M  V30 2628 H 249.934 3.72597 -2.22157 0
M  V30 2629 H 250.605 5.26249 -1.6663 0
M  V30 2630 H 253.081 4.16011 -0.0859162 0
M  V30 2631 H 251.957 5.47901 0.331063 0
M  V30 2632 H 252.218 4.16887 1.47164 0
M  V30 2633 N 251.277 0.427512 1.51691 0
M  V30 2634 C 252.507 -0.140986 2.06118 0
M  V30 2635 C 252.915 -1.37854 1.29588 0
M  V30 2636 O 252.258 -1.80411 0.346036 0
M  V30 2637 C 252.32 -0.538276 3.55447 0
M  V30 2638 C 251.984 0.591095 4.53161 0
M  V30 2639 C 252.981 1.46027 4.98971 0
M  V30 2640 C 250.666 0.769028 4.96378 0
M  V30 2641 C 252.66 2.49216 5.8666 0
M  V30 2642 C 250.347 1.80421 5.83859 0
M  V30 2643 C 251.345 2.66417 6.28897 0
M  V30 2644 O 251.033 3.68159 7.14643 0
M  V30 2645 H 250.765 -0.0157455 0.675817 0
M  V30 2646 H 253.319 0.602495 1.96365 0
M  V30 2647 H 251.549 -1.33432 3.6295 0
M  V30 2648 H 253.238 -1.0368 3.92435 0
M  V30 2649 H 254.004 1.33429 4.66285 0
M  V30 2650 H 249.883 0.109273 4.6087 0
M  V30 2651 H 253.427 3.16372 6.21735 0
M  V30 2652 H 249.324 1.93042 6.15959 0
M  V30 2653 H 250.092 3.64622 7.32798 0
M  V30 2654 N 252.755 -1.56801 0.158532 0
M  V30 2655 C 254.004 -1.95665 -0.489702 0
M  V30 2656 C 254.317 -1.04654 -1.65248 0
M  V30 2657 O 255.523 -1.33146 -2.3661 0
M  V30 2658 C 253.979 -3.47874 -0.922582 0
M  V30 2659 C 253.587 -4.47489 0.213893 0
M  V30 2660 C 255.331 -3.95583 -1.53996 0
M  V30 2661 C 253.238 -5.90921 -0.237903 0
M  V30 2662 H 252.168 -0.730516 -0.186716 0
M  V30 2663 H 254.819 -1.81861 0.244722 0
M  V30 2664 H 253.201 -3.57051 -1.71261 0
M  V30 2665 H 254.375 -4.50017 0.991036 0
M  V30 2666 H 252.69 -4.09764 0.740407 0
M  V30 2667 H 255.287 -5.0019 -1.8898 0
M  V30 2668 H 255.63 -3.37789 -2.43319 0
M  V30 2669 H 256.163 -3.8937 -0.814611 0
M  V30 2670 H 252.902 -6.52559 0.620236 0
M  V30 2671 H 252.422 -5.91729 -0.980676 0
M  V30 2672 H 254.101 -6.43352 -0.686067 0
M  V30 2673 N 254.233 0.115231 -1.57178 0
M  V30 2674 C 255.481 0.820727 -1.84685 0
M  V30 2675 C 255.802 1.80237 -0.744279 0
M  V30 2676 O 255.072 1.94529 0.231375 0
M  V30 2677 H 253.652 0.306084 -0.681411 0
M  V30 2678 H 256.314 0.101656 -1.94635 0
M  V30 2679 H 255.41 1.36366 -2.80733 0
M  V30 2680 N 255.711 1.52812 0.385517 0
M  V30 2681 C 256.674 1.77188 1.45386 0
M  V30 2682 C 257.674 0.641953 1.4743 0
M  V30 2683 O 258.864 0.910033 1.4854 0
M  V30 2684 C 255.996 1.87582 2.8465 0
M  V30 2685 H 257.189 2.72583 1.25054 0
M  V30 2686 H 254.742 1.43586 0.617467 0
M  V30 2687 H 255.477 0.941849 3.10322 0
M  V30 2688 H 255.262 2.69748 2.84567 0
M  V30 2689 H 256.752 2.08102 3.62054 0
M  V30 2690 N 257.189 -0.644168 1.43834 0
M  V30 2691 C 258.119 -1.76814 1.52509 0
M  V30 2692 C 259.1 -1.65823 0.379052 0
M  V30 2693 O 260.285 -1.84781 0.597466 0
M  V30 2694 C 257.415 -3.15288 1.4564 0
M  V30 2695 C 256.369 -3.41053 2.58586 0
M  V30 2696 C 255.695 -4.79421 2.36769 0
M  V30 2697 C 256.995 -3.34902 4.00797 0
M  V30 2698 H 258.689 -1.69812 2.46586 0
M  V30 2699 H 256.235 -0.815542 1.1868 0
M  V30 2700 H 258.188 -3.93681 1.50311 0
M  V30 2701 H 256.912 -3.23043 0.480725 0
M  V30 2702 H 255.571 -2.65035 2.53282 0
M  V30 2703 H 255.219 -4.83863 1.37424 0
M  V30 2704 H 254.919 -4.9762 3.12487 0
M  V30 2705 H 256.443 -5.6006 2.43238 0
M  V30 2706 H 257.857 -4.03218 4.07539 0
M  V30 2707 H 256.254 -3.64637 4.76613 0
M  V30 2708 H 257.324 -2.32928 4.25291 0
M  V30 2709 N 258.668 -1.30515 -0.883378 0
M  V30 2710 C 259.915 -1.1943 -1.63532 0
M  V30 2711 C 260.243 0.250627 -1.92878 0
M  V30 2712 O 259.498 1.19556 -1.54935 0
M  V30 2713 C 259.797 -1.96994 -2.98209 0
M  V30 2714 C 259.463 -3.466 -2.88408 0
M  V30 2715 C 258.125 -3.87397 -2.85442 0
M  V30 2716 C 260.477 -4.41863 -2.76418 0
M  V30 2717 C 257.805 -5.21745 -2.68327 0
M  V30 2718 C 260.157 -5.7632 -2.60841 0
M  V30 2719 C 258.821 -6.16354 -2.56251 0
M  V30 2720 H 258.091 -0.437025 -0.598406 0
M  V30 2721 H 260.738 -1.61635 -1.02696 0
M  V30 2722 H 259.043 -1.47429 -3.63004 0
M  V30 2723 H 260.74 -1.85808 -3.55354 0
M  V30 2724 H 257.33 -3.14182 -2.91527 0
M  V30 2725 H 261.514 -4.11285 -2.77775 0
M  V30 2726 H 256.77 -5.51853 -2.63189 0
M  V30 2727 H 260.944 -6.49772 -2.50538 0
M  V30 2728 H 258.571 -7.20401 -2.42748 0
M  V30 2729 N 260.146 1.09593 -1.13257 0
M  V30 2730 C 261.557 1.63229 -0.906274 0
M  V30 2731 C 261.908 1.8811 0.557578 0
M  V30 2732 O 261.033 1.62953 1.42391 0
M  V30 2733 C 261.628 2.96535 -1.63867 0
M  V30 2734 C 260.187 3.47003 -1.45828 0
M  V30 2735 C 259.334 2.2145 -1.66898 0
M  V30 2736 H 262.285 0.92978 -1.28611 0
M  V30 2737 H 262.306 3.64411 -1.09476 0
M  V30 2738 H 261.818 2.78394 -2.70404 0
M  V30 2739 H 259.919 3.70272 -0.415848 0
M  V30 2740 H 260.032 4.24551 -2.2202 0
M  V30 2741 H 258.396 2.30022 -1.09371 0
M  V30 2742 H 259.179 2.0583 -2.74752 0
M  V30 2743 N 261.624 0.925811 1.2754 0
M  V30 2744 C 262.557 0.367836 2.25216 0
M  V30 2745 C 263.535 -0.534738 1.53556 0
M  V30 2746 O 264.719 -0.475672 1.824 0
M  V30 2747 C 261.846 -0.47298 3.35381 0
M  V30 2748 C 260.892 0.365898 4.24928 0
M  V30 2749 S 261.725 1.78025 5.05042 0
M  V30 2750 C 262.881 0.947068 6.18693 0
M  V30 2751 H 263.114 1.19568 2.72196 0
M  V30 2752 H 260.647 0.727867 1.36167 0
M  V30 2753 H 262.605 -0.952242 3.99303 0
M  V30 2754 H 261.266 -1.27533 2.87044 0
M  V30 2755 H 260.459 -0.277582 5.03235 0
M  V30 2756 H 260.061 0.779261 3.65792 0
M  V30 2757 H 262.353 0.182201 6.77255 0
M  V30 2758 H 263.296 1.70309 6.87314 0
M  V30 2759 H 263.704 0.489913 5.6237 0
M  V30 2760 N 263.102 -1.41638 0.69111 0
M  V30 2761 C 264.327 -2.06148 0.227583 0
M  V30 2762 C 264.752 -1.51652 -1.11281 0
M  V30 2763 O 264.11 -0.64164 -1.69566 0
M  V30 2764 C 264.158 -3.60095 0.190858 0
M  V30 2765 O 263.262 -4.03845 -0.835664 0
M  V30 2766 H 262.603 -0.654434 0.112306 0
M  V30 2767 H 265.133 -1.81484 0.944714 0
M  V30 2768 H 265.143 -4.07995 0.020207 0
M  V30 2769 H 263.818 -3.99129 1.16915 0
M  V30 2770 H 262.395 -3.67458 -0.63473 0
M  V30 2771 N 264.58 -0.43555 -1.51462 0
M  V30 2772 C 265.828 0.131254 -2.01673 0
M  V30 2773 C 266.149 1.43368 -1.32177 0
M  V30 2774 O 265.419 1.90524 -0.455769 0
M  V30 2775 H 263.999 0.0514954 -0.745223 0
M  V30 2776 H 266.661 -0.577847 -1.86137 0
M  V30 2777 H 265.757 0.308446 -3.10572 0
M  V30 2778 N 266.058 1.56714 -0.166846 0
M  V30 2779 C 267.306 1.96358 0.478305 0
M  V30 2780 C 267.627 1.0537 1.6408 0
M  V30 2781 O 266.897 0.119154 1.95537 0
M  V30 2782 H 265.477 0.725065 0.179692 0
M  V30 2783 H 268.139 1.93329 -0.246985 0
M  V30 2784 H 267.235 3.00547 0.841292 0
M  V30 2785 N 267.536 -0.106894 1.57237 0
M  V30 2786 C 268.782 -0.808678 1.86633 0
M  V30 2787 C 269.137 -1.76917 0.756178 0
M  V30 2788 O 268.43 -1.90055 -0.242834 0
M  V30 2789 C 268.624 -1.58628 3.20268 0
M  V30 2790 C 268.453 -0.702592 4.44178 0
M  V30 2791 C 267.223 -0.352808 5.04067 0
M  V30 2792 C 269.421 -0.0148031 5.14298 0
M  V30 2793 N 267.403 0.540279 6.11518 0
M  V30 2794 C 268.774 0.736809 6.15606 0
M  V30 2795 C 270.829 0.0603524 4.97863 0
M  V30 2796 C 269.532 1.55654 7.02257 0
M  V30 2797 C 271.558 0.866942 5.85011 0
M  V30 2798 C 270.92 1.60671 6.85831 0
M  V30 2799 H 267.019 -0.27246 0.733001 0
M  V30 2800 H 269.603 -0.0717858 1.94568 0
M  V30 2801 H 267.774 -2.29413 3.13408 0
M  V30 2802 H 269.506 -2.23434 3.3743 0
M  V30 2803 H 266.261 -0.697802 4.68431 0
M  V30 2804 H 266.685 0.979029 6.69884 0
M  V30 2805 H 271.327 -0.497236 4.19866 0
M  V30 2806 H 269.045 2.12524 7.79653 0
M  V30 2807 H 272.631 0.927612 5.74358 0
M  V30 2808 H 271.511 2.2208 7.52097 0
M  V30 2809 N 269.014 -1.53014 -0.377408 0
M  V30 2810 C 270.425 -1.60438 -0.954798 0
M  V30 2811 C 270.776 -0.464418 -1.90624 0
M  V30 2812 O 269.901 0.41087 -2.12464 0
M  V30 2813 C 270.496 -2.90797 -1.73847 0
M  V30 2814 C 269.055 -3.00595 -2.26538 0
M  V30 2815 C 268.202 -2.55645 -1.07429 0
M  V30 2816 H 271.153 -1.57926 -0.156575 0
M  V30 2817 H 271.174 -2.77935 -2.5987 0
M  V30 2818 H 270.686 -3.73746 -1.04574 0
M  V30 2819 H 268.787 -2.22208 -2.99089 0
M  V30 2820 H 268.9 -4.05456 -2.5523 0
M  V30 2821 H 267.264 -2.10239 -1.43777 0
M  V30 2822 H 268.047 -3.41 -0.396728 0
M  V30 2823 N 270.492 0.636531 -1.44174 0
M  V30 2824 C 271.74 1.39343 -1.46383 0
M  V30 2825 C 272.061 1.94766 -0.0955715 0
M  V30 2826 O 271.331 1.75452 0.871395 0
M  V30 2827 H 269.911 0.517199 -0.538994 0
M  V30 2828 H 272.573 0.74957 -1.7991 0
M  V30 2829 H 271.669 2.22746 -2.18611 0
M  V30 2830 N 271.97 1.30982 0.876444 0
M  V30 2831 C 273.218 1.20058 1.62575 0
M  V30 2832 C 273.539 -0.242947 1.93481 0
M  V30 2833 O 272.809 -1.1619 1.57724 0
M  V30 2834 H 271.389 0.44135 0.602677 0
M  V30 2835 H 274.051 1.64222 1.04962 0
M  V30 2836 H 273.147 1.76762 2.57219 0
M  V30 2837 N 273.449 -1.08991 1.13837 0
M  V30 2838 C 274.381 -2.15606 0.777612 0
M  V30 2839 C 275.394 -1.61533 -0.202739 0
M  V30 2840 O 276.583 -1.78491 0.0181055 0
M  V30 2841 C 273.683 -3.3864 0.132623 0
M  V30 2842 C 272.856 -4.22115 1.1462 0
M  V30 2843 C 271.915 -5.23564 0.526074 0
M  V30 2844 O 270.941 -5.56678 1.18735 0
M  V30 2845 N 272.143 -5.76266 -0.699866 0
M  V30 2846 H 274.908 -2.47159 1.69506 0
M  V30 2847 H 272.469 -1.24747 1.03198 0
M  V30 2848 H 274.461 -4.03626 -0.29459 0
M  V30 2849 H 273.031 -3.04938 -0.687849 0
M  V30 2850 H 272.251 -3.53199 1.75055 0
M  V30 2851 H 273.539 -4.74709 1.83109 0
M  V30 2852 H 272.937 -5.51585 -1.25581 0
M  V30 2853 H 271.494 -6.42963 -1.06968 0
M  V30 2854 N 274.927 -0.932562 -1.27047 0
M  V30 2855 C 275.89 -0.440064 -2.24936 0
M  V30 2856 C 276.89 0.444071 -1.54547 0
M  V30 2857 O 278.08 0.244465 -1.72476 0
M  V30 2858 C 275.212 0.36678 -3.38921 0
M  V30 2859 H 276.405 -1.305 -2.70018 0
M  V30 2860 H 273.958 -0.713707 -1.39054 0
M  V30 2861 H 274.693 1.25033 -2.99228 0
M  V30 2862 H 274.478 -0.267204 -3.91188 0
M  V30 2863 H 275.968 0.701567 -4.11665 0
M  V30 2864 N 276.405 1.4127 -0.698611 0
M  V30 2865 C 277.645 2.03044 -0.235062 0
M  V30 2866 C 278.009 1.54146 1.14468 0
M  V30 2867 O 279.21 2.07867 1.70425 0
M  V30 2868 C 277.481 3.56192 -0.293651 0
M  V30 2869 S 279.04 4.38696 0.0954053 0
M  V30 2870 H 275.858 0.704697 -0.0944648 0
M  V30 2871 H 278.46 1.72656 -0.917064 0
M  V30 2872 H 277.164 3.89274 -1.29977 0
M  V30 2873 H 276.695 3.91285 0.407397 0
M  V30 2874 H 278.71 4.78257 1.3223 0
M  V30 2875 N 277.883 0.443576 1.51229 0
M  V30 2876 C 278.815 -0.400608 2.25672 0
M  V30 2877 C 279.828 -0.980945 1.29928 0
M  V30 2878 O 281.017 -0.874024 1.55638 0
M  V30 2879 C 278.117 -1.57304 3.00181 0
M  V30 2880 C 277.29 -1.11046 4.23069 0
M  V30 2881 C 276.349 -2.15374 4.80105 0
M  V30 2882 O 275.375 -1.74554 5.41774 0
M  V30 2883 N 276.577 -3.47922 4.64683 0
M  V30 2884 H 279.342 0.23745 2.98758 0
M  V30 2885 H 276.903 0.272809 1.59585 0
M  V30 2886 H 278.895 -2.26733 3.35223 0
M  V30 2887 H 277.465 -2.11632 2.30066 0
M  V30 2888 H 276.685 -0.243019 3.9345 0
M  V30 2889 H 277.973 -0.778888 5.02803 0
M  V30 2890 H 277.371 -3.83815 4.15575 0
M  V30 2891 H 275.928 -4.13228 5.0407 0
M  V30 2892 N 279.361 -1.56624 0.175154 0
M  V30 2893 C 280.772 -1.83561 -0.340916 0
M  V30 2894 C 281.123 -1.09511 -1.62794 0
M  V30 2895 O 280.248 -0.349389 -2.13561 0
M  V30 2896 C 280.843 -3.32979 -0.625313 0
M  V30 2897 C 279.402 -3.60399 -1.08581 0
M  V30 2898 C 278.549 -2.77024 -0.123722 0
M  V30 2899 H 281.5 -1.53593 0.399344 0
M  V30 2900 H 281.521 -3.50666 -1.47694 0
M  V30 2901 H 281.033 -3.86847 0.311575 0
M  V30 2902 H 279.134 -3.11945 -2.03767 0
M  V30 2903 H 279.247 -4.68711 -0.992317 0
M  V30 2904 H 277.611 -2.46993 -0.621821 0
M  V30 2905 H 278.394 -3.33674 0.807256 0
M  V30 2906 N 280.839 0.0985539 -1.57292 0
M  V30 2907 C 281.802 1.10402 -2.00858 0
M  V30 2908 C 282.802 1.33146 -0.901593 0
M  V30 2909 O 283.992 1.29318 -1.16716 0
M  V30 2910 C 281.124 2.45394 -2.36632 0
M  V30 2911 H 282.317 0.729099 -2.90902 0
M  V30 2912 H 279.87 0.343495 -1.52479 0
M  V30 2913 H 280.605 2.87769 -1.49531 0
M  V30 2914 H 280.39 2.30235 -3.17387 0
M  V30 2915 H 281.88 3.17718 -2.71007 0
M  V30 2916 N 282.317 1.53212 0.369288 0
M  V30 2917 C 283.563 1.69466 1.11397 0
M  V30 2918 C 283.896 0.443257 1.89074 0
M  V30 2919 O 283.171 -0.559386 1.86282 0
M  V30 2920 C 283.454 2.9422 2.07621 0
M  V30 2921 C 283.307 4.29508 1.33577 0
M  V30 2922 C 284.626 3.14565 3.07794 0
M  V30 2923 H 281.745 0.616667 0.403597 0
M  V30 2924 H 284.387 1.85845 0.395179 0
M  V30 2925 H 282.537 2.80387 2.68916 0
M  V30 2926 H 284.209 4.55147 0.750955 0
M  V30 2927 H 282.452 4.29088 0.637618 0
M  V30 2928 H 283.123 5.12926 2.03989 0
M  V30 2929 H 285.599 3.2756 2.56601 0
M  V30 2930 H 284.475 4.03297 3.72348 0
M  V30 2931 H 284.736 2.29675 3.77759 0
M  V30 2932 N 283.795 -0.628877 1.44509 0
M  V30 2933 C 284.705 -1.7694 1.54044 0
M  V30 2934 C 285.721 -1.68705 0.425987 0
M  V30 2935 O 286.897 -1.89442 0.683656 0
M  V30 2936 C 283.962 -3.13332 1.48405 0
M  V30 2937 C 283.023 -3.33181 2.70719 0
M  V30 2938 C 282.256 -4.63067 2.6534 0
M  V30 2939 O 282.479 -5.44017 1.71469 0
M  V30 2940 O 281.413 -4.85167 3.56226 0
M  V30 2941 H 285.239 -1.71848 2.50403 0
M  V30 2942 H 282.824 -0.790378 1.26781 0
M  V30 2943 H 284.706 -3.94634 1.47791 0
M  V30 2944 H 283.381 -3.1896 0.551898 0
M  V30 2945 H 282.288 -2.51549 2.769 0
M  V30 2946 H 283.621 -3.32416 3.62988 0
M  V30 2947 N 285.273 -1.31445 -0.869486 0
M  V30 2948 C 286.206 -1.13465 -1.97992 0
M  V30 2949 C 287.184 -0.0380291 -1.62556 0
M  V30 2950 O 288.368 -0.194544 -1.87493 0
M  V30 2951 C 285.495 -0.733822 -3.30655 0
M  V30 2952 C 284.541 -1.83356 -3.85075 0
M  V30 2953 S 285.374 -3.43909 -4.10472 0
M  V30 2954 C 286.53 -3.05763 -5.46132 0
M  V30 2955 H 286.763 -2.07471 -2.1294 0
M  V30 2956 H 284.296 -1.15936 -1.01972 0
M  V30 2957 H 286.254 -0.509306 -4.07328 0
M  V30 2958 H 284.915 0.187123 -3.13542 0
M  V30 2959 H 284.108 -1.50574 -4.80982 0
M  V30 2960 H 283.71 -2.01315 -3.15195 0
M  V30 2961 H 286.002 -2.54686 -6.27807 0
M  V30 2962 H 286.945 -4.00635 -5.83864 0
M  V30 2963 H 287.353 -2.43192 -5.09429 0
M  V30 2964 N 286.751 1.08385 -1.14413 0
M  V30 2965 C 287.714 2.13486 -0.834048 0
M  V30 2966 C 288.714 1.59988 0.161418 0
M  V30 2967 O 289.904 1.74071 -0.0669575 0
M  V30 2968 C 287.036 3.4003 -0.243354 0
M  V30 2969 H 288.229 2.42425 -1.7655 0
M  V30 2970 H 285.782 1.24101 -0.950189 0
M  V30 2971 H 286.517 3.16726 0.696807 0
M  V30 2972 H 286.302 3.80157 -0.960367 0
M  V30 2973 H 287.792 4.17577 -0.0436242 0
M  V30 2974 N 288.23 0.939286 1.26551 0
M  V30 2975 C 289.16 0.465044 2.28822 0
M  V30 2976 C 290.141 -0.480692 1.63167 0
M  V30 2977 O 291.326 -0.382955 1.90387 0
M  V30 2978 C 288.456 -0.27234 3.46231 0
M  V30 2979 C 287.41 0.58666 4.2396 0
M  V30 2980 C 286.736 -0.280573 5.33963 0
M  V30 2981 C 288.036 1.85704 4.88171 0
M  V30 2982 H 289.73 1.31979 2.68741 0
M  V30 2983 H 287.276 0.636061 1.29191 0
M  V30 2984 H 289.229 -0.615133 4.16886 0
M  V30 2985 H 287.953 -1.16121 3.0526 0
M  V30 2986 H 286.612 0.91232 3.55067 0
M  V30 2987 H 286.26 -1.16874 4.89234 0
M  V30 2988 H 285.96 0.29076 5.8688 0
M  V30 2989 H 287.484 -0.618678 6.07458 0
M  V30 2990 H 288.898 1.58161 5.51052 0
M  V30 2991 H 287.295 2.37279 5.51197 0
M  V30 2992 H 288.365 2.56957 4.11219 0
M  V30 2993 N 289.708 -1.40897 0.706093 0
M  V30 2994 C 290.618 -2.3455 0.0482286 0
M  V30 2995 C 291.634 -1.56796 -0.754396 0
M  V30 2996 O 292.81 -1.89228 -0.689538 0
M  V30 2997 C 289.875 -3.35625 -0.869303 0
M  V30 2998 C 288.936 -4.29261 -0.0576994 0
M  V30 2999 C 288.169 -5.25508 -0.931531 0
M  V30 3000 O 288.392 -5.27472 -2.17092 0
M  V30 3001 O 287.326 -6.00727 -0.375587 0
M  V30 3002 H 291.152 -2.92407 0.820476 0
M  V30 3003 H 288.737 -1.4193 0.4665 0
M  V30 3004 H 290.619 -3.97635 -1.39514 0
M  V30 3005 H 289.294 -2.80196 -1.62086 0
M  V30 3006 H 288.201 -3.70566 0.512988 0
M  V30 3007 H 289.534 -4.87817 0.655426 0
M  V30 3008 N 291.186 -0.45159 -1.50991 0
M  V30 3009 C 292.463 0.170707 -1.94854 0
M  V30 3010 C 292.843 1.58788 -1.39103 0
M  V30 3011 O 292.191 2.20913 -0.583921 0
M  V30 3012 C 292.401 0.133929 -3.48743 0
M  V30 3013 C 293.749 0.33248 -4.23296 0
M  V30 3014 O 294.773 0.211403 -3.55572 0
M  V30 3015 O 293.632 0.57486 -5.43468 0
M  V30 3016 H 290.726 0.122264 -0.817912 0
M  V30 3017 H 293.272 -0.510594 -1.61836 0
M  V30 3018 H 292.044 -0.856283 -3.81816 0
M  V30 3019 H 291.667 0.857529 -3.88242 0
M  V30 3020 N 292.664 1.56529 -0.183458 0
M  V30 3021 C 293.91 1.97537 0.459036 0
M  V30 3022 C 294.243 1.06989 1.62071 0
M  V30 3023 O 293.518 0.11948 1.94133 0
M  V30 3024 C 293.801 3.47874 0.930368 0
M  V30 3025 C 293.654 4.492 -0.232317 0
M  V30 3026 C 294.973 4.01612 1.79989 0
M  V30 3027 H 292.092 0.718204 0.165383 0
M  V30 3028 H 294.734 1.88042 -0.272038 0
M  V30 3029 H 292.884 3.56095 1.55333 0
M  V30 3030 H 294.556 4.53027 -0.86972 0
M  V30 3031 H 292.799 4.24657 -0.885928 0
M  V30 3032 H 293.47 5.51823 0.139796 0
M  V30 3033 H 295.946 3.96097 1.27461 0
M  V30 3034 H 294.822 5.07195 2.09867 0
M  V30 3035 H 295.083 3.46163 2.74998 0
M  V30 3036 N 294.142 -0.090211 1.57342 0
M  V30 3037 C 295.09 -1.12792 2.03422 0
M  V30 3038 C 296.084 -1.41182 0.936166 0
M  V30 3039 O 297.29 -1.40805 1.12133 0
M  V30 3040 H 293.665 -0.380986 0.648347 0
M  V30 3041 H 295.636 -0.71299 2.89757 0
M  V30 3042 C 294.385 -2.43855 2.47851 0
M  V30 3043 H 293.708 -2.22855 3.31927 0
M  V30 3044 H 295.148 -3.14955 2.83865 0
M  V30 3045 C 293.607 -3.08503 1.3538 0
M  V30 3046 O 294.137 -3.95805 0.685641 0
M  V30 3047 N 292.343 -2.68831 1.10355 0
M  V30 3048 H 291.89 -1.97929 1.64869 0
M  V30 3049 H 291.848 -3.12412 0.353031 0
M  V30 3050 N 295.62 -1.53406 -0.361157 0
M  V30 3051 C 296.845 -1.74024 -1.12829 0
M  V30 3052 C 297.27 -0.470069 -1.82132 0
M  V30 3053 O 296.628 0.57619 -1.719 0
M  V30 3054 C 296.676 -2.90903 -2.13091 0
M  V30 3055 O 295.78 -2.59821 -3.20261 0
M  V30 3056 H 295.121 -0.577804 -0.327168 0
M  V30 3057 H 297.651 -2.00307 -0.41693 0
M  V30 3058 H 297.661 -3.17194 -2.56616 0
M  V30 3059 H 296.336 -3.83034 -1.62042 0
M  V30 3060 H 294.913 -2.44362 -2.81677 0
M  V30 3061 N 297.098 0.621204 -1.44841 0
M  V30 3062 C 298.514 0.94048 -1.28946 0
M  V30 3063 C 298.714 2.00154 -0.23249 0
M  V30 3064 O 297.77 2.49651 0.378237 0
M  V30 3065 C 299.083 1.39433 -2.66419 0
M  V30 3066 C 300.631 1.50927 -2.74208 0
M  V30 3067 C 301.106 1.99692 -4.12174 0
M  V30 3068 N 302.597 2.06947 -4.144 0
M  V30 3069 C 303.332 2.45871 -5.1801 0
M  V30 3070 N 302.828 2.83862 -6.31977 0
M  V30 3071 N 304.621 2.46092 -5.05366 0
M  V30 3072 H 296.772 -0.0803548 -2.12248 0
M  V30 3073 H 299.035 0.0266913 -0.947624 0
M  V30 3074 H 298.741 0.688925 -3.44887 0
M  V30 3075 H 298.615 2.36347 -2.93973 0
M  V30 3076 H 301.002 2.20561 -1.96053 0
M  V30 3077 H 301.083 0.523627 -2.50383 0
M  V30 3078 H 300.727 1.30649 -4.90809 0
M  V30 3079 H 300.657 2.99146 -4.33381 0
M  V30 3080 H 303.148 1.80232 -3.32152 0
M  V30 3081 H 303.461 3.12405 -7.0684 0
M  V30 3082 H 301.806 2.8159 -6.35399 0
M  V30 3083 H 304.997 2.1581 -4.15384 0
M  V30 3084 H 305.17 2.76102 -5.86235 0
M  V30 3085 N 298.576 1.31904 0.862503 0
M  V30 3086 C 299.992 1.10724 1.14945 0
M  V30 3087 C 300.192 -0.117421 2.01158 0
M  V30 3088 O 299.248 -0.804595 2.39338 0
M  V30 3089 C 300.561 2.38267 1.83437 0
M  V30 3090 C 302.109 2.43949 1.96106 0
M  V30 3091 C 302.584 3.71394 2.68013 0
M  V30 3092 N 304.075 3.72331 2.75543 0
M  V30 3093 C 304.81 4.67641 3.31812 0
M  V30 3094 N 304.306 5.73313 3.88953 0
M  V30 3095 N 306.099 4.5515 3.29841 0
M  V30 3096 H 298.25 2.10436 0.288191 0
M  V30 3097 H 300.513 0.928705 0.190292 0
M  V30 3098 H 300.219 3.27759 1.27542 0
M  V30 3099 H 300.093 2.48633 2.83657 0
M  V30 3100 H 302.48 1.54922 2.51164 0
M  V30 3101 H 302.561 2.37543 0.949059 0
M  V30 3102 H 302.205 4.60791 2.13621 0
M  V30 3103 H 302.135 3.75069 3.69636 0
M  V30 3104 H 304.626 2.95947 2.34997 0
M  V30 3105 H 304.939 6.42107 4.30022 0
M  V30 3106 H 303.284 5.77077 3.87308 0
M  V30 3107 H 306.475 3.71766 2.84443 0
M  V30 3108 H 306.648 5.29604 3.73394 0
M  V30 3109 N 300.054 -1.07777 1.14986 0
M  V30 3110 C 301.331 -1.7699 0.832695 0
M  V30 3111 C 301.711 -2.001 -0.672561 0
M  V30 3112 O 301.059 -1.61598 -1.6155 0
M  V30 3113 C 301.269 -3.08139 1.63863 0
M  V30 3114 C 302.617 -3.8256 1.84208 0
M  V30 3115 O 303.641 -3.17939 1.60603 0
M  V30 3116 O 302.5 -4.98612 2.23714 0
M  V30 3117 H 299.594 -0.768389 0.305791 0
M  V30 3118 H 302.14 -1.14182 1.25541 0
M  V30 3119 H 300.912 -2.86909 2.6608 0
M  V30 3120 H 300.535 -3.78678 1.21197 0
M  V30 3121 N 301.532 -0.945985 -1.26051 0
M  V30 3122 C 302.781 -0.591836 -1.92822 0
M  V30 3123 C 303.094 0.873956 -1.7499 0
M  V30 3124 O 304.3 1.33769 -2.36259 0
M  V30 3125 C 302.756 -1.00776 -3.45503 0
M  V30 3126 C 302.364 -2.4955 -3.7206 0
M  V30 3127 C 304.108 -0.725735 -4.1825 0
M  V30 3128 C 302.015 -2.84988 -5.18205 0
M  V30 3129 H 300.945 -0.217635 -0.721908 0
M  V30 3130 H 303.596 -1.14927 -1.43052 0
M  V30 3131 H 301.978 -0.378812 -3.94184 0
M  V30 3132 H 303.152 -3.1739 -3.34066 0
M  V30 3133 H 301.467 -2.75133 -3.12555 0
M  V30 3134 H 304.064 -0.966771 -5.25887 0
M  V30 3135 H 304.407 0.337639 -4.14929 0
M  V30 3136 H 304.94 -1.31463 -3.7545 0
M  V30 3137 H 301.679 -3.90307 -5.26631 0
M  V30 3138 H 301.199 -2.21813 -5.57278 0
M  V30 3139 H 302.878 -2.73712 -5.86252 0
M  V30 3140 N 303.011 1.40521 -0.713556 0
M  V30 3141 C 303.941 2.33381 -0.0743864 0
M  V30 3142 C 304.922 1.52784 0.747735 0
M  V30 3143 O 306.107 1.81258 0.697071 0
M  V30 3144 C 303.237 3.36748 0.849598 0
M  V30 3145 C 302.191 4.27793 0.133247 0
M  V30 3146 C 301.517 5.21679 1.17281 0
M  V30 3147 C 302.817 5.12415 -1.01134 0
M  V30 3148 H 304.511 2.87081 -0.850007 0
M  V30 3149 H 302.057 1.38034 -0.410201 0
M  V30 3150 H 304.01 4.00648 1.30612 0
M  V30 3151 H 302.734 2.81439 1.65709 0
M  V30 3152 H 301.393 3.65342 -0.303426 0
M  V30 3153 H 301.041 4.62677 1.9733 0
M  V30 3154 H 300.741 5.83435 0.698397 0
M  V30 3155 H 302.265 5.88456 1.62947 0
M  V30 3156 H 303.679 5.69781 -0.634274 0
M  V30 3157 H 302.076 5.83203 -1.41399 0
M  V30 3158 H 303.146 4.48514 -1.84292 0
M  V30 3159 N 304.489 0.459591 1.5075 0
M  V30 3160 C 305.9 0.00171547 1.867 0
M  V30 3161 C 306.251 -1.39934 1.37525 0
M  V30 3162 O 305.376 -2.03523 0.735349 0
M  V30 3163 C 305.971 -0.00366298 3.388 0
M  V30 3164 C 304.53 -0.406026 3.74204 0
M  V30 3165 C 303.677 0.38673 2.7459 0
M  V30 3166 H 306.628 0.674413 1.43657 0
M  V30 3167 H 306.649 -0.808371 3.71814 0
M  V30 3168 H 306.161 1.01617 3.74561 0
M  V30 3169 H 304.262 -1.43063 3.4404 0
M  V30 3170 H 304.375 -0.115362 4.78961 0
M  V30 3171 H 302.739 -0.158019 2.54209 0
M  V30 3172 H 303.522 1.40585 3.13194 0
M  V30 3173 N 305.967 -1.56429 0.191757 0
M  V30 3174 C 307.244 -1.89224 -0.495332 0
M  V30 3175 C 307.624 -1.10478 -1.79883 0
M  V30 3176 O 306.972 -0.204852 -2.2758 0
M  V30 3177 C 307.182 -3.41548 -0.717367 0
M  V30 3178 C 308.53 -4.11711 -1.03823 0
M  V30 3179 O 309.554 -3.4698 -0.805204 0
M  V30 3180 O 308.413 -5.2611 -1.47887 0
M  V30 3181 H 305.507 -0.785788 -0.25781 0
M  V30 3182 H 308.053 -1.68111 0.231721 0
M  V30 3183 H 306.825 -3.90772 0.203287 0
M  V30 3184 H 306.448 -3.68342 -1.497 0
M  V30 3185 N 307.445 0.0818655 -1.57387 0
M  V30 3186 C 308.675 0.794954 -1.90694 0
M  V30 3187 C 309.083 1.72147 -0.784982 0
M  V30 3188 O 308.426 1.81974 0.251196 0
M  V30 3189 C 308.488 1.65042 -3.19376 0
M  V30 3190 C 308.152 0.894337 -4.48164 0
M  V30 3191 C 309.149 0.21813 -5.19442 0
M  V30 3192 C 306.834 0.864495 -4.94805 0
M  V30 3193 C 308.828 -0.477802 -6.35607 0
M  V30 3194 C 306.515 0.164785 -6.10878 0
M  V30 3195 C 307.513 -0.505173 -6.81129 0
M  V30 3196 O 307.201 -1.19363 -7.94989 0
M  V30 3197 H 306.933 0.231779 -0.635023 0
M  V30 3198 H 309.487 0.059493 -2.05314 0
M  V30 3199 H 307.717 2.42844 -3.00938 0
M  V30 3200 H 309.406 2.24127 -3.38411 0
M  V30 3201 H 310.172 0.232558 -4.84442 0
M  V30 3202 H 306.051 1.37542 -4.40004 0
M  V30 3203 H 309.595 -1.00129 -6.90377 0
M  V30 3204 H 305.492 0.148249 -6.4533 0
M  V30 3205 H 306.26 -1.10188 -8.11049 0
M  V30 3206 N 308.923 1.53595 0.353017 0
M  V30 3207 C 309.833 1.83897 1.45667 0
M  V30 3208 C 310.849 0.728334 1.58023 0
M  V30 3209 O 312.025 1.01968 1.73679 0
M  V30 3210 C 309.09 2.03383 2.80778 0
M  V30 3211 C 308.151 3.27262 2.77845 0
M  V30 3212 C 307.384 3.45809 4.06512 0
M  V30 3213 O 307.607 2.68387 5.03314 0
M  V30 3214 O 306.541 4.39207 4.11559 0
M  V30 3215 H 310.367 2.77686 1.2298 0
M  V30 3216 H 307.952 1.39132 0.544308 0
M  V30 3217 H 309.834 2.17698 3.60812 0
M  V30 3218 H 308.509 1.12783 3.03417 0
M  V30 3219 H 307.416 3.18359 1.96465 0
M  V30 3220 H 308.749 4.17824 2.60161 0
M  V30 3221 N 310.401 -0.613514 1.45168 0
M  V30 3222 C 311.331 -1.7354 1.56225 0
M  V30 3223 C 312.312 -1.64981 0.41414 0
M  V30 3224 O 313.497 -1.83472 0.636526 0
M  V30 3225 C 310.627 -3.12128 1.52295 0
M  V30 3226 C 309.581 -3.35491 2.65762 0
M  V30 3227 C 308.907 -4.74291 2.46885 0
M  V30 3228 C 310.207 -3.26325 4.0781 0
M  V30 3229 H 311.901 -1.64543 2.50132 0
M  V30 3230 H 309.447 -0.790185 1.20383 0
M  V30 3231 H 311.4 -3.90404 1.58628 0
M  V30 3232 H 310.124 -3.2195 0.549139 0
M  V30 3233 H 308.783 -2.59603 2.58847 0
M  V30 3234 H 308.431 -4.80839 1.47657 0
M  V30 3235 H 308.131 -4.9088 3.22972 0
M  V30 3236 H 309.655 -5.54775 2.55063 0
M  V30 3237 H 311.069 -3.94483 4.16 0
M  V30 3238 H 309.466 -3.54445 4.8424 0
M  V30 3239 H 310.536 -2.23855 4.30136 0
M  V30 3240 N 311.879 -1.3236 -0.855495 0
M  V30 3241 C 312.826 -1.21225 -1.964 0
M  V30 3242 C 313.796 -0.0946204 -1.6583 0
M  V30 3243 O 314.981 -0.27002 -1.8888 0
M  V30 3244 C 312.121 -0.940419 -3.32039 0
M  V30 3245 C 311.234 -2.14276 -3.75113 0
M  V30 3246 C 310.369 -1.80648 -4.9954 0
M  V30 3247 C 309.408 -2.97208 -5.35102 0
M  V30 3248 N 308.545 -2.63678 -6.50706 0
M  V30 3249 H 313.385 -2.16042 -2.05255 0
M  V30 3250 H 310.922 -1.07451 -1.00463 0
M  V30 3251 H 312.88 -0.763311 -4.10158 0
M  V30 3252 H 311.51 -0.0290413 -3.22787 0
M  V30 3253 H 310.562 -2.43017 -2.92655 0
M  V30 3254 H 311.874 -3.01468 -3.97389 0
M  V30 3255 H 311.028 -1.59484 -5.85363 0
M  V30 3256 H 309.767 -0.906678 -4.79198 0
M  V30 3257 H 308.772 -3.19004 -4.47791 0
M  V30 3258 H 309.997 -3.87918 -5.57401 0
M  V30 3259 H 307.943 -1.76238 -6.31883 0
M  V30 3260 H 307.86 -3.444 -6.72997 0
M  V30 3261 H 309.128 -2.45942 -7.39684 0
M  V30 3262 N 313.357 1.07166 -1.15556 0
M  V30 3263 C 314.287 2.16403 -0.877046 0
M  V30 3264 C 315.268 1.69217 0.173111 0
M  V30 3265 O 316.453 1.94181 0.027084 0
M  V30 3266 C 313.583 3.45349 -0.367632 0
M  V30 3267 C 312.537 4.05995 -1.35468 0
M  V30 3268 C 311.863 5.30045 -0.704038 0
M  V30 3269 C 313.163 4.45804 -2.72132 0
M  V30 3270 H 314.857 2.39959 -1.79053 0
M  V30 3271 H 312.403 1.15325 -0.862331 0
M  V30 3272 H 314.356 4.21095 -0.160317 0
M  V30 3273 H 313.08 3.21385 0.581326 0
M  V30 3274 H 311.739 3.32296 -1.54839 0
M  V30 3275 H 311.387 5.02373 0.251128 0
M  V30 3276 H 311.087 5.71579 -1.36277 0
M  V30 3277 H 312.611 6.08495 -0.50654 0
M  V30 3278 H 314.025 5.12671 -2.56595 0
M  V30 3279 H 312.422 4.98296 -3.34397 0
M  V30 3280 H 313.492 3.57083 -3.28054 0
M  V30 3281 N 314.835 0.952656 1.25548 0
M  V30 3282 C 316.084 0.602053 1.92505 0
M  V30 3283 C 316.397 -0.864663 1.75451 0
M  V30 3284 O 317.603 -1.32514 2.36965 0
M  V30 3285 C 316.059 1.02607 3.44963 0
M  V30 3286 C 315.667 2.51519 3.70732 0
M  V30 3287 C 317.411 0.747905 4.1786 0
M  V30 3288 C 315.318 2.87732 5.16686 0
M  V30 3289 H 314.248 0.22146 0.720744 0
M  V30 3290 H 316.899 1.15684 1.42441 0
M  V30 3291 H 315.281 0.399712 3.93978 0
M  V30 3292 H 316.455 3.19157 3.32378 0
M  V30 3293 H 314.77 2.76786 3.11092 0
M  V30 3294 H 317.367 0.994647 5.25367 0
M  V30 3295 H 317.71 -0.315629 4.15102 0
M  V30 3296 H 318.243 1.33452 3.74747 0
M  V30 3297 H 314.982 3.93095 5.24554 0
M  V30 3298 H 314.502 2.24765 5.56094 0
M  V30 3299 H 316.181 2.76817 5.84792 0
M  V30 3300 N 316.313 -1.40141 0.720998 0
M  V30 3301 C 317.263 -2.27949 0.0482544 0
M  V30 3302 C 318.247 -1.43538 -0.727021 0
M  V30 3303 O 319.439 -1.6658 -0.598332 0
M  V30 3304 C 316.568 -3.32126 -0.868729 0
M  V30 3305 C 315.654 -4.24008 -0.0883515 0
M  V30 3306 N 316.045 -4.97154 0.931226 0
M  V30 3307 C 314.343 -4.4485 -0.320105 0
M  V30 3308 C 315.044 -5.64587 1.4006 0
M  V30 3309 N 314.02 -5.38787 0.721752 0
M  V30 3310 H 317.822 -2.81948 0.829609 0
M  V30 3311 H 315.336 -1.52656 0.554067 0
M  V30 3312 H 317.333 -3.93884 -1.36605 0
M  V30 3313 H 315.993 -2.79687 -1.6494 0
M  V30 3314 H 317.004 -5.01 1.31222 0
M  V30 3315 H 313.681 -4.03378 -1.07668 0
M  V30 3316 H 315.071 -6.33175 2.24808 0
M  V30 3317 N 317.792 -0.46758 -1.50504 0
M  V30 3318 C 318.742 0.34698 -2.25344 0
M  V30 3319 C 319.726 0.964469 -1.2879 0
M  V30 3320 O 320.918 0.8776 -1.53711 0
M  V30 3321 C 318.047 1.43042 -3.1208 0
M  V30 3322 C 317.133 0.82084 -4.16081 0
M  V30 3323 N 317.524 -0.0567602 -5.05768 0
M  V30 3324 C 315.822 1.08517 -4.32597 0
M  V30 3325 C 316.523 -0.402343 -5.80307 0
M  V30 3326 N 315.499 0.221607 -5.43148 0
M  V30 3327 H 319.301 -0.329129 -2.92051 0
M  V30 3328 H 316.815 -0.281508 -1.59942 0
M  V30 3329 H 318.812 2.02712 -3.64299 0
M  V30 3330 H 317.472 2.10856 -2.46921 0
M  V30 3331 H 318.483 -0.425349 -5.1615 0
M  V30 3332 H 315.16 1.75855 -3.78657 0
M  V30 3333 H 316.55 -1.11834 -6.62528 0
M  V30 3334 N 319.27 1.56325 -0.20005 0
M  V30 3335 C 320.547 1.89484 0.48529 0
M  V30 3336 C 320.927 1.1143 1.79294 0
M  V30 3337 O 320.275 0.216919 2.27468 0
M  V30 3338 C 320.485 3.41923 0.699243 0
M  V30 3339 C 321.833 4.12256 1.01638 0
M  V30 3340 O 322.857 3.47402 0.786792 0
M  V30 3341 O 321.716 5.26887 1.45095 0
M  V30 3342 H 318.81 0.787144 0.253639 0
M  V30 3343 H 321.356 1.67985 -0.240633 0
M  V30 3344 H 320.128 3.90658 -0.224008 0
M  V30 3345 H 319.751 3.69131 1.47744 0
M  V30 3346 N 320.748 -0.0735177 1.57428 0
M  V30 3347 C 321.973 -0.789787 1.91774 0
M  V30 3348 C 322.398 -1.70413 0.796306 0
M  V30 3349 O 321.756 -1.79555 -0.250961 0
M  V30 3350 C 321.804 -1.5609 3.25067 0
M  V30 3351 O 320.908 -2.67144 3.14178 0
M  V30 3352 H 320.249 -0.215582 0.628029 0
M  V30 3353 H 322.779 -0.0422781 2.04556 0
M  V30 3354 H 322.789 -1.94052 3.58898 0
M  V30 3355 H 321.464 -0.890015 4.06265 0
M  V30 3356 H 320.041 -2.32052 2.91901 0
M  V30 3357 N 322.226 -1.5378 -0.344866 0
M  V30 3358 C 323.173 -1.81676 -1.42346 0
M  V30 3359 C 324.143 -0.662376 -1.52321 0
M  V30 3360 O 325.328 -0.906675 -1.67881 0
M  V30 3361 C 322.468 -2.03087 -2.79015 0
M  V30 3362 C 321.581 -3.30799 -2.77842 0
M  V30 3363 C 320.716 -3.42285 -4.0622 0
M  V30 3364 C 319.755 -4.6395 -3.9927 0
M  V30 3365 N 318.892 -4.72477 -5.19336 0
M  V30 3366 H 323.732 -2.73703 -1.17858 0
M  V30 3367 H 321.269 -1.35568 -0.570949 0
M  V30 3368 H 323.227 -2.1349 -3.58438 0
M  V30 3369 H 321.857 -1.14375 -3.01858 0
M  V30 3370 H 320.909 -3.29244 -1.90533 0
M  V30 3371 H 322.221 -4.20314 -2.68584 0
M  V30 3372 H 321.375 -3.52113 -4.94066 0
M  V30 3373 H 320.114 -2.50823 -4.18258 0
M  V30 3374 H 319.119 -4.54201 -3.09809 0
M  V30 3375 H 320.344 -5.56775 -3.88817 0
M  V30 3376 H 318.29 -3.83924 -5.3192 0
M  V30 3377 H 318.207 -5.55927 -5.12329 0
M  V30 3378 H 319.475 -4.86613 -6.08957 0
M  V30 3379 N 323.704 0.605807 -1.45491 0
M  V30 3380 C 324.944 1.37606 -1.51142 0
M  V30 3381 C 325.308 1.91413 -0.150075 0
M  V30 3382 O 326.509 2.68677 -0.0812828 0
M  V30 3383 C 324.78 2.49197 -2.56195 0
M  V30 3384 S 326.339 3.36953 -2.81083 0
M  V30 3385 H 323.157 0.469118 -0.534275 0
M  V30 3386 H 325.759 0.698845 -1.82583 0
M  V30 3387 H 324.463 2.0802 -3.53773 0
M  V30 3388 H 323.994 3.21717 -2.26411 0
M  V30 3389 H 326.009 4.47395 -2.14598 0
M  V30 3390 N 325.182 1.32811 0.848464 0
M  V30 3391 C 326.459 1.14334 1.58704 0
M  V30 3392 C 326.839 -0.293948 2.09043 0
M  V30 3393 O 326.187 -1.29153 1.88499 0
M  V30 3394 C 326.397 2.17626 2.72837 0
M  V30 3395 C 327.745 2.51282 3.42261 0
M  V30 3396 O 328.769 2.16219 2.83068 0
M  V30 3397 O 327.628 3.11413 4.49093 0
M  V30 3398 H 324.722 0.441601 0.699226 0
M  V30 3399 H 327.268 1.44362 0.892053 0
M  V30 3400 H 326.04 3.14211 2.3321 0
M  V30 3401 H 325.663 1.88628 3.50008 0
M  V30 3402 N 326.66 -1.06551 1.16123 0
M  V30 3403 C 328.071 -1.60768 0.949232 0
M  V30 3404 C 328.422 -1.89523 -0.507508 0
M  V30 3405 O 327.547 -1.66671 -1.38021 0
M  V30 3406 C 328.142 -2.92086 1.71671 0
M  V30 3407 C 326.701 -3.43015 1.54977 0
M  V30 3408 C 325.848 -2.16947 1.72711 0
M  V30 3409 H 328.799 -0.895354 1.31031 0
M  V30 3410 H 328.82 -3.6138 1.19099 0
M  V30 3411 H 328.332 -2.71127 2.7769 0
M  V30 3412 H 326.433 -3.69039 0.513873 0
M  V30 3413 H 326.546 -4.18516 2.33198 0
M  V30 3414 H 324.91 -2.27041 1.15431 0
M  V30 3415 H 325.693 -1.98473 2.80113 0
M  V30 3416 N 328.138 -0.959301 -1.25041 0
M  V30 3417 C 329.386 -0.615393 -1.92503 0
M  V30 3418 C 329.707 0.850969 -1.75452 0
M  V30 3419 O 328.977 1.60658 -1.12098 0
M  V30 3420 H 327.557 -0.224613 -0.712431 0
M  V30 3421 H 330.219 -1.21855 -1.5211 0
M  V30 3422 H 329.315 -0.848738 -3.00338 0
M  V30 3423 N 329.616 1.39756 -0.72842 0
M  V30 3424 C 330.548 2.29157 -0.0446202 0
M  V30 3425 C 331.561 1.46484 0.710367 0
M  V30 3426 O 332.75 1.69632 0.55562 0
M  V30 3427 C 329.85 3.24987 0.961071 0
M  V30 3428 C 329.023 4.36572 0.268967 0
M  V30 3429 C 328.082 5.12756 1.18184 0
M  V30 3430 O 327.108 5.6534 0.661794 0
M  V30 3431 N 328.31 5.23331 2.51206 0
M  V30 3432 H 331.075 2.88482 -0.812295 0
M  V30 3433 H 328.636 1.51265 -0.577098 0
M  V30 3434 H 330.628 3.72827 1.57423 0
M  V30 3435 H 329.198 2.66739 1.63 0
M  V30 3436 H 328.418 3.90694 -0.524574 0
M  V30 3437 H 329.706 5.08363 -0.210934 0
M  V30 3438 H 329.104 4.82116 2.9594 0
M  V30 3439 H 327.661 5.74634 3.07634 0
M  V30 3440 N 331.094 0.475555 1.50254 0
M  V30 3441 C 332.057 -0.305016 2.27161 0
M  V30 3442 C 333.057 -0.916519 1.32123 0
M  V30 3443 O 334.247 -0.785003 1.5551 0
M  V30 3444 C 331.379 -1.43496 3.09227 0
M  V30 3445 H 332.572 0.369511 2.97615 0
M  V30 3446 H 330.125 0.229747 1.54602 0
M  V30 3447 H 330.86 -2.14441 2.43281 0
M  V30 3448 H 330.645 -1.00223 3.79075 0
M  V30 3449 H 332.135 -1.98548 3.67381 0
M  V30 3450 N 332.573 -1.56217 0.208337 0
M  V30 3451 C 333.801 -2.02337 -0.43215 0
M  V30 3452 C 334.216 -1.08834 -1.54275 0
M  V30 3453 O 333.573 -0.0955462 -1.8225 0
M  V30 3454 C 333.624 -3.48072 -0.976138 0
M  V30 3455 O 333.345 -4.38007 0.0901621 0
M  V30 3456 C 334.846 -4.09773 -1.69119 0
M  V30 3457 H 332.066 -0.662385 -0.10718 0
M  V30 3458 H 334.61 -2.01966 0.320923 0
M  V30 3459 H 332.765 -3.49099 -1.67954 0
M  V30 3460 H 333.179 -5.23543 -0.316701 0
M  V30 3461 H 334.653 -5.13556 -2.02397 0
M  V30 3462 H 335.13 -3.53999 -2.59964 0
M  V30 3463 H 335.736 -4.12556 -1.03332 0
M  V30 3464 N 334.051 0.0651679 -1.57465 0
M  V30 3465 C 334.998 1.07675 -2.04144 0
M  V30 3466 C 335.968 1.38071 -0.923335 0
M  V30 3467 O 337.153 1.49026 -1.19146 0
M  V30 3468 C 334.293 2.38337 -2.49579 0
M  V30 3469 C 333.406 2.14413 -3.75035 0
M  V30 3470 C 332.541 3.38686 -4.09225 0
M  V30 3471 C 331.58 3.10156 -5.27702 0
M  V30 3472 N 330.717 4.26778 -5.57499 0
M  V30 3473 H 335.557 0.671716 -2.90331 0
M  V30 3474 H 333.094 0.3201 -1.43575 0
M  V30 3475 H 335.052 3.14632 -2.73975 0
M  V30 3476 H 333.682 2.7663 -1.6636 0
M  V30 3477 H 332.734 1.2878 -3.57939 0
M  V30 3478 H 334.046 1.89344 -4.61466 0
M  V30 3479 H 333.2 4.23373 -4.34558 0
M  V30 3480 H 331.939 3.66837 -3.21374 0
M  V30 3481 H 330.944 2.23866 -5.02159 0
M  V30 3482 H 332.169 2.8332 -6.17176 0
M  V30 3483 H 330.115 4.54948 -4.72608 0
M  V30 3484 H 330.032 4.05005 -6.38362 0
M  V30 3485 H 331.3 5.12443 -5.87386 0
M  V30 3486 N 335.529 1.53961 0.336706 0
M  V30 3487 C 336.759 1.75229 1.09446 0
M  V30 3488 C 337.167 0.494602 1.82621 0
M  V30 3489 O 336.51 -0.543764 1.75468 0
M  V30 3490 C 336.572 2.88288 2.1478 0
M  V30 3491 C 336.236 4.27656 1.6112 0
M  V30 3492 C 337.233 5.08981 1.0599 0
M  V30 3493 C 334.918 4.74161 1.6576 0
M  V30 3494 C 336.912 6.34916 0.562129 0
M  V30 3495 C 334.599 6.00067 1.15595 0
M  V30 3496 C 335.597 6.80278 0.609147 0
M  V30 3497 O 335.285 8.03818 0.114999 0
M  V30 3498 H 335.017 0.588881 0.331956 0
M  V30 3499 H 337.571 2.01614 0.392566 0
M  V30 3500 H 335.801 2.57443 2.88548 0
M  V30 3501 H 337.49 2.97461 2.76174 0
M  V30 3502 H 338.256 4.74213 1.01722 0
M  V30 3503 H 334.135 4.11781 2.07261 0
M  V30 3504 H 337.679 6.9747 0.134668 0
M  V30 3505 H 333.576 6.3433 1.19566 0
M  V30 3506 H 334.344 8.18172 0.231651 0
M  V30 3507 N 337.007 -0.598083 1.45811 0
M  V30 3508 C 337.937 -1.71873 1.58057 0
M  V30 3509 C 338.918 -1.64533 0.431615 0
M  V30 3510 O 340.103 -1.82787 0.65595 0
M  V30 3511 C 337.233 -3.10495 1.55597 0
M  V30 3512 C 336.187 -3.32654 2.69305 0
M  V30 3513 C 335.513 -4.71646 2.51902 0
M  V30 3514 C 336.813 -3.21981 4.11248 0
M  V30 3515 H 338.507 -1.61881 2.51863 0
M  V30 3516 H 336.053 -0.777372 1.21214 0
M  V30 3517 H 338.006 -3.88699 1.6276 0
M  V30 3518 H 336.73 -3.2135 0.583255 0
M  V30 3519 H 335.389 -2.56843 2.61586 0
M  V30 3520 H 335.037 -4.79246 1.52748 0
M  V30 3521 H 334.737 -4.87426 3.2816 0
M  V30 3522 H 336.261 -5.52038 2.60933 0
M  V30 3523 H 337.675 -3.90049 4.20161 0
M  V30 3524 H 336.072 -3.49289 4.87972 0
M  V30 3525 H 337.142 -2.1928 4.32486 0
M  V30 3526 N 338.485 -1.33259 -0.841409 0
M  V30 3527 C 339.715 -1.2742 -1.62628 0
M  V30 3528 C 340.123 0.157604 -1.88542 0
M  V30 3529 O 339.466 1.10938 -1.46419 0
M  V30 3530 C 339.528 -1.97797 -3.00194 0
M  V30 3531 C 339.192 -3.47109 -2.97261 0
M  V30 3532 C 340.189 -4.42358 -2.73159 0
M  V30 3533 C 337.874 -3.89247 -3.17478 0
M  V30 3534 C 339.868 -5.77718 -2.69296 0
M  V30 3535 C 337.555 -5.24713 -3.13241 0
M  V30 3536 C 338.553 -6.1876 -2.89181 0
M  V30 3537 O 338.241 -7.51745 -2.84843 0
M  V30 3538 H 337.973 -0.440436 -0.512827 0
M  V30 3539 H 340.527 -1.76153 -1.05638 0
M  V30 3540 H 338.757 -1.43652 -3.59028 0
M  V30 3541 H 340.446 -1.8549 -3.61038 0
M  V30 3542 H 341.212 -4.11127 -2.57294 0
M  V30 3543 H 337.091 -3.16456 -3.35226 0
M  V30 3544 H 340.635 -6.51097 -2.50436 0
M  V30 3545 H 336.532 -5.55569 -3.28654 0
M  V30 3546 H 337.3 -7.61262 -3.00702 0
M  V30 3547 N 339.963 1.05934 -1.16686 0
M  V30 3548 C 340.873 2.17014 -0.891183 0
M  V30 3549 C 341.889 1.73453 0.137907 0
M  V30 3550 O 343.065 2.01361 -0.039592 0
M  V30 3551 C 340.13 3.44384 -0.400099 0
M  V30 3552 C 339.191 4.02433 -1.49486 0
M  V30 3553 C 338.424 5.23723 -1.02711 0
M  V30 3554 O 338.647 5.7027 0.121716 0
M  V30 3555 O 337.581 5.7382 -1.81699 0
M  V30 3556 H 341.407 2.43113 -1.82015 0
M  V30 3557 H 338.992 1.15541 -0.947132 0
M  V30 3558 H 340.874 4.21189 -0.133392 0
M  V30 3559 H 339.549 3.19802 0.500817 0
M  V30 3560 H 338.456 3.27102 -1.81535 0
M  V30 3561 H 339.789 4.31317 -2.37121 0
M  V30 3562 N 341.441 0.965919 1.2453 0
M  V30 3563 C 342.371 0.513476 2.27784 0
M  V30 3564 C 343.352 -0.445974 1.6415 0
M  V30 3565 O 344.537 -0.342485 1.91156 0
M  V30 3566 C 341.667 -0.198839 3.4673 0
M  V30 3567 C 340.621 0.676456 4.2262 0
M  V30 3568 C 339.947 -0.167248 5.34438 0
M  V30 3569 C 341.247 1.96017 4.84123 0
M  V30 3570 H 342.941 1.3765 2.65881 0
M  V30 3571 H 340.487 0.663321 1.27813 0
M  V30 3572 H 342.44 -0.526567 4.18097 0
M  V30 3573 H 341.164 -1.0962 3.07654 0
M  V30 3574 H 339.823 0.98743 3.53052 0
M  V30 3575 H 339.471 -1.0647 4.91603 0
M  V30 3576 H 339.171 0.415181 5.86131 0
M  V30 3577 H 340.695 -0.489688 6.08633 0
M  V30 3578 H 342.109 1.69814 5.47573 0
M  V30 3579 H 340.506 2.48918 5.4604 0
M  V30 3580 H 341.576 2.65622 4.05676 0
M  V30 3581 N 342.919 -1.39368 0.735821 0
M  V30 3582 C 343.849 -2.33234 0.111506 0
M  V30 3583 C 344.83 -1.53954 -0.723334 0
M  V30 3584 O 346.015 -1.82344 -0.668147 0
M  V30 3585 C 343.145 -3.38057 -0.795917 0
M  V30 3586 C 342.099 -4.2795 -0.065172 0
M  V30 3587 C 341.425 -5.23479 -1.08967 0
M  V30 3588 C 342.725 -5.10741 1.09273 0
M  V30 3589 H 344.419 -2.85692 0.895571 0
M  V30 3590 H 341.965 -1.37364 0.432109 0
M  V30 3591 H 343.918 -4.02675 -1.24221 0
M  V30 3592 H 342.642 -2.8404 -1.61211 0
M  V30 3593 H 341.301 -3.64813 0.361511 0
M  V30 3594 H 340.949 -4.65758 -1.89944 0
M  V30 3595 H 340.649 -5.84472 -0.605489 0
M  V30 3596 H 342.173 -5.90974 -1.53565 0
M  V30 3597 H 343.587 -5.68699 0.724841 0
M  V30 3598 H 341.984 -5.8088 1.50659 0
M  V30 3599 H 343.054 -4.45525 1.91404 0
M  V30 3600 N 344.397 -0.483516 -1.5 0
M  V30 3601 C 345.627 0.0643896 -2.065 0
M  V30 3602 C 346.035 1.32949 -1.34615 0
M  V30 3603 O 345.378 1.79003 -0.412756 0
M  V30 3604 C 345.44 0.405983 -3.572 0
M  V30 3605 C 345.104 -0.758875 -4.50655 0
M  V30 3606 C 346.101 -1.64445 -4.93208 0
M  V30 3607 C 343.786 -0.952725 -4.93182 0
M  V30 3608 C 345.78 -2.70818 -5.77006 0
M  V30 3609 C 343.467 -2.01966 -5.76761 0
M  V30 3610 C 344.465 -2.89574 -6.18576 0
M  V30 3611 O 344.153 -3.94429 -7.00486 0
M  V30 3612 H 343.885 -0.00934786 -0.675935 0
M  V30 3613 H 346.439 -0.674959 -1.93993 0
M  V30 3614 H 344.669 1.19869 -3.67652 0
M  V30 3615 H 346.358 0.890433 -3.96013 0
M  V30 3616 H 347.124 -1.50643 -4.61012 0
M  V30 3617 H 343.003 -0.280247 -4.60147 0
M  V30 3618 H 346.547 -3.3923 -6.09565 0
M  V30 3619 H 342.444 -2.1577 -6.0837 0
M  V30 3620 H 343.212 -3.91568 -7.1876 0
M  V30 3621 N 345.875 1.56104 -0.216619 0
M  V30 3622 C 346.823 2.21434 0.712036 0
M  V30 3623 C 347.817 1.19218 1.20348 0
M  V30 3624 O 349.023 1.3731 1.16387 0
M  V30 3625 H 345.398 0.70992 0.248026 0
M  V30 3626 H 347.369 2.98083 0.137558 0
M  V30 3627 C 346.118 2.90434 1.91163 0
M  V30 3628 H 345.441 3.68842 1.54258 0
M  V30 3629 H 346.881 3.39552 2.5393 0
M  V30 3630 C 345.34 1.92635 2.76394 0
M  V30 3631 O 345.87 1.44017 3.74996 0
M  V30 3632 N 344.076 1.60392 2.42328 0
M  V30 3633 H 343.623 2.00122 1.622 0
M  V30 3634 H 343.581 0.952159 2.99635 0
M  V30 3635 N 347.353 -0.0568162 1.57498 0
M  V30 3636 C 348.63 -0.786954 1.79071 0
M  V30 3637 C 349.01 -1.95028 0.80792 0
M  V30 3638 O 348.358 -2.27968 -0.155858 0
M  V30 3639 C 348.568 -1.24594 3.26002 0
M  V30 3640 C 349.916 -1.67323 3.90241 0
M  V30 3641 O 350.94 -1.34124 3.29984 0
M  V30 3642 O 349.799 -2.28842 4.9628 0
M  V30 3643 H 346.893 -0.378262 0.735423 0
M  V30 3644 H 349.439 -0.035734 1.69662 0
M  V30 3645 H 348.211 -0.41423 3.89101 0
M  V30 3646 H 347.834 -2.05803 3.40192 0
M  V30 3647 N 348.832 -1.54138 -0.328536 0
M  V30 3648 C 350.243 -1.63395 -0.903272 0
M  V30 3649 C 350.594 -0.524828 -1.8905 0
M  V30 3650 O 349.719 0.343068 -2.13663 0
M  V30 3651 C 350.314 -2.9618 -1.64507 0
M  V30 3652 C 348.873 -3.0765 -2.1686 0
M  V30 3653 C 348.02 -2.58933 -0.992416 0
M  V30 3654 H 350.971 -1.58344 -0.106253 0
M  V30 3655 H 350.992 -2.86061 -2.50897 0
M  V30 3656 H 350.504 -3.76884 -0.926302 0
M  V30 3657 H 348.605 -2.31611 -2.91868 0
M  V30 3658 H 348.718 -4.1337 -2.42202 0
M  V30 3659 H 347.082 -2.14706 -1.37016 0
M  V30 3660 H 347.865 -3.42089 -0.288041 0
M  V30 3661 N 350.31 0.590341 -1.46126 0
M  V30 3662 C 351.559 1.34499 -1.50309 0
M  V30 3663 C 351.872 1.94977 -0.156021 0
M  V30 3664 O 353.078 2.71395 -0.0756037 0
M  V30 3665 C 351.534 2.43723 -2.64815 0
M  V30 3666 C 351.142 1.89582 -4.0591 0
M  V30 3667 C 352.886 3.20579 -2.78262 0
M  V30 3668 C 350.793 2.9639 -5.11769 0
M  V30 3669 H 349.723 0.505593 -0.559368 0
M  V30 3670 H 352.374 0.630848 -1.72315 0
M  V30 3671 H 350.756 3.17902 -2.36124 0
M  V30 3672 H 351.93 1.21997 -4.44357 0
M  V30 3673 H 350.245 1.25418 -3.97063 0
M  V30 3674 H 352.842 4.00276 -3.54519 0
M  V30 3675 H 353.185 3.72684 -1.85505 0
M  V30 3676 H 353.718 2.53505 -3.06562 0
M  V30 3677 H 350.457 2.49181 -6.06291 0
M  V30 3678 H 349.977 3.62487 -4.77873 0
M  V30 3679 H 351.656 3.60474 -5.37278 0
M  V30 3680 N 351.788 1.33704 0.83433 0
M  V30 3681 C 352.735 1.24335 1.94447 0
M  V30 3682 C 353.705 0.120991 1.65659 0
M  V30 3683 O 354.89 0.300035 1.88426 0
M  V30 3684 C 352.03 0.993124 3.30501 0
M  V30 3685 C 351.143 2.20217 3.71657 0
M  V30 3686 C 350.278 1.88572 4.96602 0
M  V30 3687 C 349.317 3.05683 5.30306 0
M  V30 3688 N 348.454 2.73997 6.46429 0
M  V30 3689 H 353.294 2.1928 2.01792 0
M  V30 3690 H 350.831 1.09035 0.987404 0
M  V30 3691 H 352.789 0.828467 4.08892 0
M  V30 3692 H 351.419 0.0803902 3.227 0
M  V30 3693 H 350.471 2.47642 2.88752 0
M  V30 3694 H 351.783 3.07752 3.92543 0
M  V30 3695 H 350.937 1.68776 5.82752 0
M  V30 3696 H 349.676 0.982799 4.77695 0
M  V30 3697 H 348.681 3.26088 4.42659 0
M  V30 3698 H 349.906 3.96737 5.51159 0
M  V30 3699 H 347.852 1.86268 6.28999 0
M  V30 3700 H 347.769 3.55064 6.67432 0
M  V30 3701 H 349.037 2.57679 7.35678 0
M  V30 3702 N 353.266 -1.05314 1.17247 0
M  V30 3703 C 354.515 -1.77685 0.954521 0
M  V30 3704 C 354.828 -1.88616 -0.518025 0
M  V30 3705 O 356.034 -2.57714 -0.854144 0
M  V30 3706 C 354.49 -3.19402 1.65863 0
M  V30 3707 C 354.098 -3.16605 3.16963 0
M  V30 3708 C 355.842 -3.96237 1.52303 0
M  V30 3709 C 353.749 -4.53103 3.80068 0
M  V30 3710 H 352.679 -0.666 0.353496 0
M  V30 3711 H 355.33 -1.1805 1.40486 0
M  V30 3712 H 353.712 -3.79355 1.13602 0
M  V30 3713 H 354.886 -2.66176 3.76148 0
M  V30 3714 H 353.201 -2.53268 3.30521 0
M  V30 3715 H 355.798 -4.97157 1.96822 0
M  V30 3716 H 356.141 -4.136 0.473401 0
M  V30 3717 H 356.674 -3.42829 2.01775 0
M  V30 3718 H 353.413 -4.40946 4.85023 0
M  V30 3719 H 352.933 -5.03686 3.2567 0
M  V30 3720 H 354.612 -5.22045 3.82202 0
M  V30 3721 N 354.744 -0.972509 -1.24016 0
M  V30 3722 C 355.993 -0.632603 -1.91523 0
M  V30 3723 C 356.306 0.836641 -1.76804 0
M  V30 3724 O 357.512 1.28728 -2.39043 0
M  V30 3725 C 355.968 -1.08082 -3.43287 0
M  V30 3726 C 355.576 -2.57386 -3.66683 0
M  V30 3727 C 357.32 -0.814288 -4.16617 0
M  V30 3728 C 355.227 -2.95915 -5.12043 0
M  V30 3729 H 354.157 -0.232898 -0.717129 0
M  V30 3730 H 356.808 -1.17936 -1.40582 0
M  V30 3731 H 355.19 -0.462339 -3.93292 0
M  V30 3732 H 356.364 -3.24405 -3.27258 0
M  V30 3733 H 354.679 -2.81701 -3.06649 0
M  V30 3734 H 357.276 -1.0781 -5.23718 0
M  V30 3735 H 357.619 0.24955 -4.15551 0
M  V30 3736 H 358.152 -1.39397 -3.72577 0
M  V30 3737 H 354.891 -4.0139 -5.18234 0
M  V30 3738 H 354.411 -2.33584 -5.52448 0
M  V30 3739 H 356.09 -2.86086 -5.80314 0
M  V30 3740 N 356.222 1.38976 -0.743202 0
M  V30 3741 C 357.152 2.33171 -0.123873 0
M  V30 3742 C 358.133 1.54336 0.71516 0
M  V30 3743 O 359.318 1.82696 0.658467 0
M  V30 3744 C 356.448 3.38474 0.777978 0
M  V30 3745 C 355.402 4.27979 0.0424758 0
M  V30 3746 C 354.728 5.2405 1.06189 0
M  V30 3747 C 356.028 5.10155 -1.1198 0
M  V30 3748 H 357.722 2.85213 -0.910709 0
M  V30 3749 H 355.268 1.37133 -0.439388 0
M  V30 3750 H 357.221 4.03328 1.22084 0
M  V30 3751 H 355.945 2.84891 1.59702 0
M  V30 3752 H 354.604 3.64616 -0.380853 0
M  V30 3753 H 354.252 4.66758 1.87472 0
M  V30 3754 H 353.952 5.84785 0.574485 0
M  V30 3755 H 355.476 5.9178 1.50428 0
M  V30 3756 H 356.89 5.68307 -0.75499 0
M  V30 3757 H 355.287 5.80073 -1.53738 0
M  V30 3758 H 356.357 4.44504 -1.93764 0
M  V30 3759 N 357.7 0.491464 1.49741 0
M  V30 3760 C 358.633 -0.338464 2.25676 0
M  V30 3761 C 359.611 -0.978676 1.29849 0
M  V30 3762 O 360.795 -1.01064 1.59117 0
M  V30 3763 C 357.922 -1.47588 3.04853 0
M  V30 3764 C 356.968 -0.951 4.15762 0
M  V30 3765 S 357.801 0.150626 5.35288 0
M  V30 3766 C 358.957 -0.990178 6.18018 0
M  V30 3767 H 359.19 0.306068 2.9572 0
M  V30 3768 H 356.723 0.276622 1.51902 0
M  V30 3769 H 358.681 -2.12764 3.51058 0
M  V30 3770 H 357.342 -2.09199 2.34296 0
M  V30 3771 H 356.535 -1.80311 4.70642 0
M  V30 3772 H 356.137 -0.376607 3.72099 0
M  V30 3773 H 358.429 -1.89748 6.50386 0
M  V30 3774 H 359.372 -0.480205 7.0647 0
M  V30 3775 H 359.78 -1.25321 5.50413 0
M  V30 3776 N 359.178 -1.55987 0.224894 0
M  V30 3777 C 360.589 -1.84553 -0.282345 0
M  V30 3778 C 360.94 -1.14634 -1.59227 0
M  V30 3779 O 360.065 -0.417155 -2.12341 0
M  V30 3780 C 360.66 -3.348 -0.519062 0
M  V30 3781 C 359.219 -3.63671 -0.970604 0
M  V30 3782 C 358.366 -2.77277 -0.0355261 0
M  V30 3783 H 361.317 -1.52245 0.448006 0
M  V30 3784 H 361.338 -3.55187 -1.36463 0
M  V30 3785 H 360.85 -3.8566 0.43449 0
M  V30 3786 H 358.951 -3.1827 -1.9374 0
M  V30 3787 H 359.064 -4.71631 -0.842698 0
M  V30 3788 H 357.428 -2.48846 -0.542927 0
M  V30 3789 H 358.211 -3.30937 0.913003 0
M  V30 3790 N 360.656 0.0484629 -1.57525 0
M  V30 3791 C 361.904 0.741657 -1.88 0
M  V30 3792 C 362.225 1.76918 -0.820054 0
M  V30 3793 O 361.495 1.95335 0.148661 0
M  V30 3794 H 360.075 0.276908 -0.69378 0
M  V30 3795 H 362.737 0.019013 -1.94891 0
M  V30 3796 H 361.833 1.24336 -2.86264 0
M  V30 3797 N 362.134 1.5431 0.320358 0
M  V30 3798 C 363.374 1.74395 1.0661 0
M  V30 3799 C 363.738 0.508602 1.85141 0
M  V30 3800 O 364.939 0.586856 2.62316 0
M  V30 3801 C 363.21 2.98619 1.96371 0
M  V30 3802 S 364.769 3.39621 2.77854 0
M  V30 3803 H 361.587 0.613204 0.359863 0
M  V30 3804 H 364.189 1.9249 0.341727 0
M  V30 3805 H 362.893 3.86673 1.3752 0
M  V30 3806 H 362.424 2.83055 2.73209 0
M  V30 3807 H 364.439 2.95172 3.98858 0
M  V30 3808 N 363.613 -0.582584 1.46437 0
M  V30 3809 C 364.838 -1.37168 1.55563 0
M  V30 3810 C 365.263 -1.87061 0.19743 0
M  V30 3811 O 364.621 -1.61572 -0.822451 0
M  V30 3812 C 364.669 -2.53511 2.56446 0
M  V30 3813 O 363.773 -3.54953 2.09958 0
M  V30 3814 H 363.114 -0.408494 0.523477 0
M  V30 3815 H 365.644 -0.706646 1.9201 0
M  V30 3816 H 365.654 -3.00426 2.76058 0
M  V30 3817 H 364.329 -2.16549 3.55076 0
M  V30 3818 H 362.906 -3.14516 2.00334 0
M  V30 3819 N 365.091 -1.34144 -0.827227 0
M  V30 3820 C 366.316 -1.29476 -1.62021 0
M  V30 3821 C 366.741 0.129292 -1.87655 0
M  V30 3822 O 366.099 1.08967 -1.449 0
M  V30 3823 C 366.147 -2.08702 -2.94068 0
M  V30 3824 O 365.251 -1.45359 -3.85933 0
M  V30 3825 H 364.592 -0.444881 -0.492927 0
M  V30 3826 H 367.122 -1.76882 -1.02829 0
M  V30 3827 H 367.132 -2.19898 -3.43669 0
M  V30 3828 H 365.807 -3.12241 -2.74734 0
M  V30 3829 H 364.384 -1.42879 -3.44442 0
M  V30 3830 N 366.569 1.04691 -1.17803 0
M  V30 3831 C 367.815 1.78045 -0.970969 0
M  V30 3832 C 368.148 1.87686 0.498751 0
M  V30 3833 O 367.423 1.38035 1.37027 0
M  V30 3834 C 367.706 3.2166 -1.61884 0
M  V30 3835 C 367.559 3.20001 -3.161 0
M  V30 3836 C 368.878 4.1962 -1.3269 0
M  V30 3837 H 365.997 0.64633 -0.354155 0
M  V30 3838 H 368.639 1.22333 -1.45378 0
M  V30 3839 H 366.789 3.69232 -1.20831 0
M  V30 3840 H 368.461 2.80467 -3.66246 0
M  V30 3841 H 366.704 2.58203 -3.48588 0
M  V30 3842 H 367.375 4.21386 -3.56564 0
M  V30 3843 H 369.851 3.80567 -1.68249 0
M  V30 3844 H 368.727 5.18339 -1.80599 0
M  V30 3845 H 368.988 4.414 -0.248622 0
M  V30 3846 N 368.047 0.979072 1.23499 0
M  V30 3847 C 369.272 0.664845 1.96455 0
M  V30 3848 C 369.697 -0.761287 1.72006 0
M  V30 3849 O 369.055 -1.51837 0.990713 0
M  V30 3850 C 369.103 0.959479 3.47601 0
M  V30 3851 O 368.207 0.0508168 4.12369 0
M  V30 3852 H 367.548 0.250185 0.615064 0
M  V30 3853 H 370.078 1.31231 1.5697 0
M  V30 3854 H 370.088 0.895642 3.98048 0
M  V30 3855 H 368.763 1.99876 3.64723 0
M  V30 3856 H 367.34 0.16895 3.72517 0
M  V30 3857 N 369.525 -1.3858 0.750561 0
M  V30 3858 C 370.753 -2.04471 0.316098 0
M  V30 3859 C 371.168 -1.56606 -1.05452 0
M  V30 3860 O 370.525 -0.737784 -1.66922 0
M  V30 3861 C 370.576 -3.60025 0.326275 0
M  V30 3862 O 370.297 -4.06133 1.6428 0
M  V30 3863 C 371.798 -4.43131 -0.122429 0
M  V30 3864 H 369.018 -0.65717 0.135528 0
M  V30 3865 H 371.562 -1.77329 1.01857 0
M  V30 3866 H 369.717 -3.86014 -0.327431 0
M  V30 3867 H 370.131 -5.00547 1.56693 0
M  V30 3868 H 371.605 -5.51963 -0.0641473 0
M  V30 3869 H 372.082 -4.23333 -1.16988 0
M  V30 3870 H 372.688 -4.22323 0.50229 0
M  V30 3871 N 371.003 -0.499398 -1.49478 0
M  V30 3872 C 371.933 0.269244 -2.31943 0
M  V30 3873 C 372.914 0.964054 -1.40143 0
M  V30 3874 O 374.099 0.955767 -1.69052 0
M  V30 3875 C 371.229 1.33504 -3.20615 0
M  V30 3876 C 370.183 0.760202 -4.21195 0
M  V30 3877 C 369.509 1.9264 -4.98792 0
M  V30 3878 C 370.809 -0.247661 -5.21712 0
M  V30 3879 H 372.503 -0.419082 -2.96452 0
M  V30 3880 H 370.049 -0.202988 -1.42562 0
M  V30 3881 H 372.002 1.88048 -3.77115 0
M  V30 3882 H 370.726 2.05253 -2.54045 0
M  V30 3883 H 369.385 0.23653 -3.65836 0
M  V30 3884 H 369.033 2.63154 -4.28671 0
M  V30 3885 H 368.733 1.54785 -5.66847 0
M  V30 3886 H 370.257 2.4762 -5.58137 0
M  V30 3887 H 371.671 0.209579 -5.72917 0
M  V30 3888 H 370.068 -0.541962 -5.97648 0
M  V30 3889 H 371.138 -1.16409 -4.7072 0
M  V30 3890 N 372.481 1.55866 -0.233164 0
M  V30 3891 C 373.727 1.98897 0.395959 0
M  V30 3892 C 374.06 1.12091 1.58585 0
M  V30 3893 O 373.335 0.181182 1.93654 0
M  V30 3894 C 373.618 3.50658 0.819224 0
M  V30 3895 C 373.471 4.48233 -0.375109 0
M  V30 3896 C 374.79 4.07135 1.67121 0
M  V30 3897 H 371.909 0.723102 0.142451 0
M  V30 3898 H 374.551 1.87082 -0.331725 0
M  V30 3899 H 372.701 3.60857 1.43925 0
M  V30 3900 H 374.373 4.50031 -1.01341 0
M  V30 3901 H 372.616 4.21624 -1.02058 0
M  V30 3902 H 373.287 5.51988 -0.0358328 0
M  V30 3903 H 375.763 3.99952 1.14795 0
M  V30 3904 H 374.639 5.13615 1.93625 0
M  V30 3905 H 374.9 3.54736 2.63846 0
M  V30 3906 N 373.959 -0.0401083 1.57549 0
M  V30 3907 C 374.922 -1.02871 2.04817 0
M  V30 3908 C 375.922 -1.29708 0.950388 0
M  V30 3909 O 377.112 -1.24897 1.21435 0
M  V30 3910 C 374.244 -2.36443 2.45576 0
M  V30 3911 H 375.437 -0.620631 2.93408 0
M  V30 3912 H 372.99 -0.286667 1.53649 0
M  V30 3913 H 373.725 -2.82021 1.60108 0
M  V30 3914 H 373.51 -2.18296 3.25713 0
M  V30 3915 H 375 -3.07441 2.82612 0
M  V30 3916 N 375.437 -1.54477 -0.31217 0
M  V30 3917 C 376.347 -1.87695 -1.4074 0
M  V30 3918 C 377.363 -0.769975 -1.56036 0
M  V30 3919 O 378.539 -1.06537 -1.70915 0
M  V30 3920 C 375.604 -2.10755 -2.75287 0
M  V30 3921 C 374.665 -3.34514 -2.69071 0
M  V30 3922 C 373.898 -3.56465 -3.97201 0
M  V30 3923 O 374.121 -2.81637 -4.96021 0
M  V30 3924 O 373.055 -4.49964 -3.9977 0
M  V30 3925 H 376.881 -2.80849 -1.15574 0
M  V30 3926 H 374.466 -1.40526 -0.507228 0
M  V30 3927 H 376.348 -2.27188 -3.54913 0
M  V30 3928 H 375.023 -1.20788 -3.0032 0
M  V30 3929 H 373.93 -3.23456 -1.87955 0
M  V30 3930 H 375.263 -4.24575 -2.48992 0
M  V30 3931 N 376.915 0.57481 -1.46744 0
M  V30 3932 C 377.878 1.66533 -1.57478 0
M  V30 3933 C 378.878 1.54338 -0.451263 0
M  V30 3934 O 380.068 1.58814 -0.715813 0
M  V30 3935 C 377.2 3.05999 -1.50259 0
M  V30 3936 H 378.393 1.58372 -2.54673 0
M  V30 3937 H 375.946 0.793301 -1.34672 0
M  V30 3938 H 376.681 3.19709 -0.543725 0
M  V30 3939 H 376.466 3.16259 -2.31781 0
M  V30 3940 H 377.956 3.8537 -1.60872 0
M  V30 3941 N 378.394 1.34581 0.820102 0
M  V30 3942 C 379.357 1.2628 1.91275 0
M  V30 3943 C 380.357 0.177344 1.59819 0
M  V30 3944 O 381.547 0.430156 1.68806 0
M  V30 3945 C 378.679 0.950327 3.27386 0
M  V30 3946 H 379.872 2.23421 2.00057 0
M  V30 3947 H 377.425 1.1891 1.0144 0
M  V30 3948 H 378.16 -0.0177938 3.24295 0
M  V30 3949 H 377.945 1.73549 3.51601 0
M  V30 3950 H 379.435 0.917492 4.07396 0
M  V30 3951 N 379.872 -1.04064 1.18357 0
M  V30 3952 C 381.288 -1.2947 0.933258 0
M  V30 3953 C 381.488 -1.97466 -0.401169 0
M  V30 3954 O 380.544 -2.25528 -1.13549 0
M  V30 3955 C 381.857 -2.15337 2.09882 0
M  V30 3956 C 383.405 -2.28683 2.13712 0
M  V30 3957 C 383.88 -3.17917 3.29686 0
M  V30 3958 N 385.371 -3.25504 3.29547 0
M  V30 3959 C 386.106 -3.94706 4.15926 0
M  V30 3960 N 385.602 -4.66239 5.12439 0
M  V30 3961 N 387.395 -3.90986 4.0384 0
M  V30 3962 H 379.546 -0.583359 2.04232 0
M  V30 3963 H 381.809 -0.319921 0.892387 0
M  V30 3964 H 381.515 -1.72682 3.06389 0
M  V30 3965 H 381.389 -3.16015 2.05947 0
M  V30 3966 H 383.776 -2.70575 1.17784 0
M  V30 3967 H 383.857 -1.27596 2.21705 0
M  V30 3968 H 383.501 -2.76736 4.25887 0
M  V30 3969 H 383.431 -4.19036 3.1893 0
M  V30 3970 H 385.922 -2.74547 2.59677 0
M  V30 3971 H 386.235 -5.16638 5.74722 0
M  V30 3972 H 384.58 -4.65143 5.16398 0
M  V30 3973 H 387.771 -3.34234 3.27727 0
M  V30 3974 H 387.944 -4.44646 4.71375 0
M  V30 3975 N 381.35 -0.985608 -1.22978 0
M  V30 3976 C 382.283 -0.47487 -2.23204 0
M  V30 3977 C 383.261 0.460865 -1.55932 0
M  V30 3978 O 384.445 0.388105 -1.84461 0
M  V30 3979 C 381.572 0.312427 -3.37256 0
M  V30 3980 C 380.618 -0.568219 -4.22698 0
M  V30 3981 S 381.451 -2.01919 -4.95973 0
M  V30 3982 C 382.607 -1.24118 -6.1347 0
M  V30 3983 H 382.84 -1.32419 -2.66181 0
M  V30 3984 H 380.373 -0.792005 -1.32539 0
M  V30 3985 H 382.331 0.760645 -4.03391 0
M  V30 3986 H 380.992 1.13693 -2.92801 0
M  V30 3987 H 380.185 0.0371657 -5.03986 0
M  V30 3988 H 379.787 -0.952897 -3.61657 0
M  V30 3989 H 382.079 -0.505121 -6.75614 0
M  V30 3990 H 383.022 -2.02907 -6.78406 0
M  V30 3991 H 383.43 -0.757669 -5.59392 0
M  V30 3992 N 382.828 1.3818 -0.7579 0
M  V30 3993 C 384.074 2.0078 -0.325423 0
M  V30 3994 C 384.429 1.59085 1.08211 0
M  V30 3995 O 383.722 0.820394 1.73148 0
M  V30 3996 C 383.916 3.55252 -0.391218 0
M  V30 3997 C 383.745 4.11947 -1.8036 0
M  V30 3998 C 382.515 4.43519 -2.42113 0
M  V30 3999 C 384.713 4.33908 -2.76095 0
M  V30 4000 N 382.695 4.85847 -3.75267 0
M  V30 4001 C 384.066 4.78692 -3.94023 0
M  V30 4002 C 386.121 4.16015 -2.73561 0
M  V30 4003 C 384.824 5.07459 -5.09782 0
M  V30 4004 C 386.85 4.45909 -3.88483 0
M  V30 4005 C 386.212 4.90921 -5.0515 0
M  V30 4006 H 382.311 0.764215 -0.165831 0
M  V30 4007 H 384.895 1.67724 -0.988776 0
M  V30 4008 H 383.066 3.87646 0.241886 0
M  V30 4009 H 384.798 4.04653 0.061989 0
M  V30 4010 H 381.553 4.32113 -1.93842 0
M  V30 4011 H 381.977 5.11339 -4.4369 0
M  V30 4012 H 386.619 3.80399 -1.84544 0
M  V30 4013 H 384.337 5.4197 -5.99412 0
M  V30 4014 H 387.923 4.33666 -3.87847 0
M  V30 4015 H 386.803 5.1361 -5.92599 0
M  V30 4016 N 384.306 0.507319 1.49211 0
M  V30 4017 C 385.254 -0.281364 2.30892 0
M  V30 4018 C 386.248 -0.95687 1.39787 0
M  V30 4019 O 387.454 -0.883838 1.56807 0
M  V30 4020 H 383.829 -0.109597 0.743971 0
M  V30 4021 H 385.8 0.42744 2.95323 0
M  V30 4022 C 384.549 -1.32918 3.21291 0
M  V30 4023 H 383.872 -0.818799 3.91326 0
M  V30 4024 H 385.312 -1.85288 3.81372 0
M  V30 4025 C 383.771 -2.35074 2.41333 0
M  V30 4026 O 384.301 -3.4108 2.12197 0
M  V30 4027 N 382.507 -2.07705 2.03241 0
M  V30 4028 H 382.054 -1.2152 2.27136 0
M  V30 4029 H 382.012 -2.76283 1.50051 0
M  V30 4030 N 385.784 -1.5574 0.241426 0
M  V30 4031 C 386.714 -2.24133 -0.654722 0
M  V30 4032 C 387.695 -1.21974 -1.1856 0
M  V30 4033 O 388.88 -1.50612 -1.22595 0
M  V30 4034 C 386.01 -2.93659 -1.85423 0
M  V30 4035 C 384.964 -4.0246 -1.45636 0
M  V30 4036 C 384.29 -4.59383 -2.73626 0
M  V30 4037 C 385.59 -5.18468 -0.631506 0
M  V30 4038 H 387.284 -2.99281 -0.0844353 0
M  V30 4039 H 384.83 -1.43947 -0.0391707 0
M  V30 4040 H 386.783 -3.40203 -2.48676 0
M  V30 4041 H 385.507 -2.15991 -2.44981 0
M  V30 4042 H 384.166 -3.56676 -0.847202 0
M  V30 4043 H 383.814 -3.78422 -3.3137 0
M  V30 4044 H 383.514 -5.32826 -2.4773 0
M  V30 4045 H 385.038 -5.08658 -3.37786 0
M  V30 4046 H 386.452 -5.61272 -1.1682 0
M  V30 4047 H 384.849 -5.98266 -0.468831 0
M  V30 4048 H 385.919 -4.8358 0.357506 0
M  V30 4049 N 387.262 0.0317525 -1.57568 0
M  V30 4050 C 388.511 0.722131 -1.8833 0
M  V30 4051 C 388.824 1.76664 -0.839587 0
M  V30 4052 O 390.03 2.50942 -1.03635 0
M  V30 4053 C 388.486 1.33544 -3.34207 0
M  V30 4054 C 388.094 0.327415 -4.46802 0
M  V30 4055 C 389.838 2.00585 -3.7412 0
M  V30 4056 C 387.745 0.948915 -5.83738 0
M  V30 4057 H 386.675 0.273466 -0.702661 0
M  V30 4058 H 389.326 -0.0235811 -1.83485 0
M  V30 4059 H 387.708 2.13077 -3.33788 0
M  V30 4060 H 388.882 -0.441006 -4.58685 0
M  V30 4061 H 387.197 -0.240758 -4.15703 0
M  V30 4062 H 389.794 2.47932 -4.73744 0
M  V30 4063 H 390.137 2.82285 -3.05975 0
M  V30 4064 H 390.67 1.27831 -3.76702 0
M  V30 4065 H 387.409 0.171387 -6.55276 0
M  V30 4066 H 386.929 1.68724 -5.7558 0
M  V30 4067 H 388.608 1.45705 -6.3038 0
M  V30 4068 N 388.74 1.54641 0.303973 0
M  V30 4069 C 389.986 1.74038 1.04109 0
M  V30 4070 C 390.319 0.523051 1.87024 0
M  V30 4071 O 389.594 -0.479874 1.88487 0
M  V30 4072 C 389.877 3.02761 1.94955 0
M  V30 4073 C 389.73 4.34787 1.1524 0
M  V30 4074 C 391.049 3.27336 2.94175 0
M  V30 4075 H 388.168 0.63323 0.377079 0
M  V30 4076 H 390.81 1.87354 0.316001 0
M  V30 4077 H 388.96 2.9154 2.56782 0
M  V30 4078 H 390.632 4.57922 0.557236 0
M  V30 4079 H 388.875 4.31407 0.455053 0
M  V30 4080 H 389.546 5.21116 1.8205 0
M  V30 4081 H 392.022 3.38148 2.42477 0
M  V30 4082 H 390.898 4.18726 3.54908 0
M  V30 4083 H 391.159 2.45491 3.67677 0
M  V30 4084 N 390.218 -0.567019 1.47046 0
M  V30 4085 C 391.148 -1.68482 1.61667 0
M  V30 4086 C 392.129 -1.6358 0.466418 0
M  V30 4087 O 393.314 -1.81354 0.694574 0
M  V30 4088 C 390.444 -3.07124 1.62148 0
M  V30 4089 C 389.398 -3.26867 2.76301 0
M  V30 4090 C 388.724 -4.66196 2.61849 0
M  V30 4091 C 390.024 -3.13186 4.17986 0
M  V30 4092 H 391.718 -1.56502 2.5524 0
M  V30 4093 H 389.264 -0.751486 1.22836 0
M  V30 4094 H 391.217 -3.8516 1.70968 0
M  V30 4095 H 389.941 -3.2004 0.651287 0
M  V30 4096 H 388.6 -2.51237 2.66975 0
M  V30 4097 H 388.248 -4.75898 1.62879 0
M  V30 4098 H 387.948 -4.80356 3.38425 0
M  V30 4099 H 389.472 -5.46379 2.72584 0
M  V30 4100 H 390.886 -3.81049 4.2834 0
M  V30 4101 H 389.283 -3.3886 4.95272 0
M  V30 4102 H 390.353 -2.10057 4.3704 0
M  V30 4103 N 391.696 -1.35014 -0.812953 0
M  V30 4104 C 392.921 -1.31187 -1.60639 0
M  V30 4105 C 393.346 0.109382 -1.87782 0
M  V30 4106 O 392.704 1.07424 -1.46047 0
M  V30 4107 C 392.752 -2.11809 -2.91838 0
M  V30 4108 O 391.856 -1.49444 -3.8437 0
M  V30 4109 H 391.197 -0.450084 -0.488181 0
M  V30 4110 H 393.727 -1.77963 -1.00947 0
M  V30 4111 H 393.737 -2.23531 -3.41318 0
M  V30 4112 H 392.412 -3.15137 -2.71407 0
M  V30 4113 H 390.989 -1.46524 -3.42907 0
M  V30 4114 N 393.175 1.03435 -1.18907 0
M  V30 4115 C 394.405 1.8012 -1.01195 0
M  V30 4116 C 394.813 1.8395 0.442613 0
M  V30 4117 O 394.156 1.27836 1.31923 0
M  V30 4118 C 394.218 3.26792 -1.49823 0
M  V30 4119 C 393.882 3.46609 -2.97844 0
M  V30 4120 C 394.879 3.37278 -3.95651 0
M  V30 4121 C 392.564 3.73001 -3.36416 0
M  V30 4122 C 394.558 3.54054 -5.30023 0
M  V30 4123 C 392.245 3.89423 -4.70949 0
M  V30 4124 C 393.243 3.79951 -5.67562 0
M  V30 4125 O 392.931 3.95895 -6.99659 0
M  V30 4126 H 392.663 0.573865 -0.357289 0
M  V30 4127 H 395.217 1.31207 -1.58031 0
M  V30 4128 H 393.447 3.76703 -0.873578 0
M  V30 4129 H 395.136 3.85055 -1.28404 0
M  V30 4130 H 395.902 3.16846 -3.67197 0
M  V30 4131 H 391.781 3.79469 -2.61772 0
M  V30 4132 H 395.325 3.46577 -6.05417 0
M  V30 4133 H 391.222 4.09351 -4.99101 0
M  V30 4134 H 391.99 4.13019 -7.06653 0
M  V30 4135 N 394.653 0.992116 1.22453 0
M  V30 4136 C 395.901 0.666215 1.90804 0
M  V30 4137 C 396.222 -0.804152 1.77647 0
M  V30 4138 O 395.492 -1.57629 1.16318 0
M  V30 4139 H 394.072 0.243423 0.706225 0
M  V30 4140 H 396.734 1.25845 1.48825 0
M  V30 4141 H 395.83 0.928069 2.97982 0
M  V30 4142 N 396.131 -1.37776 0.765217 0
M  V30 4143 C 397.356 -2.04651 0.336537 0
M  V30 4144 C 397.781 -1.57337 -1.03086 0
M  V30 4145 O 397.139 -0.730621 -1.65927 0
M  V30 4146 C 397.187 -3.58577 0.381468 0
M  V30 4147 O 396.291 -4.07706 -0.62042 0
M  V30 4148 H 395.632 -0.64756 0.146838 0
M  V30 4149 H 398.162 -1.76221 1.03959 0
M  V30 4150 H 398.172 -4.07314 0.236448 0
M  V30 4151 H 396.847 -3.9237 1.37907 0
M  V30 4152 H 395.424 -3.70306 -0.439056 0
M  V30 4153 N 397.609 -0.515225 -1.4894 0
M  V30 4154 C 398.834 0.022727 -2.07388 0
M  V30 4155 C 399.259 1.2876 -1.37122 0
M  V30 4156 O 398.617 1.76067 -0.432431 0
M  V30 4157 C 398.665 0.244869 -3.59768 0
M  V30 4158 O 397.769 1.31667 -3.90817 0
M  V30 4159 H 397.11 -0.0325506 -0.663202 0
M  V30 4160 H 399.64 -0.718918 -1.91553 0
M  V30 4161 H 399.65 0.47205 -4.0526 0
M  V30 4162 H 398.325 -0.679194 -4.10317 0
M  V30 4163 H 396.902 1.07331 -3.5712 0
M  V30 4164 N 399.087 1.5561 -0.249682 0
M  V30 4165 C 400.312 2.03865 0.381305 0
M  V30 4166 C 400.737 1.12769 1.50548 0
M  V30 4167 O 400.095 0.121189 1.80895 0
M  V30 4168 C 400.143 3.50101 0.863816 0
M  V30 4169 O 399.247 3.62132 1.97318 0
M  V30 4170 H 398.588 0.658827 0.0827194 0
M  V30 4171 H 401.118 2.01105 -0.376552 0
M  V30 4172 H 401.128 3.90975 1.1663 0
M  V30 4173 H 399.803 4.1588 0.0411816 0
M  V30 4174 H 398.38 3.33155 1.67517 0
M  V30 4175 N 400.565 -0.0233959 1.57583 0
M  V30 4176 C 401.976 -0.56927 1.77809 0
M  V30 4177 C 402.327 -1.75284 0.881472 0
M  V30 4178 O 401.452 -2.1626 0.0777805 0
M  V30 4179 C 402.047 -1.03949 3.22459 0
M  V30 4180 C 400.606 -1.53084 3.43864 0
M  V30 4181 C 399.753 -0.471454 2.73263 0
M  V30 4182 H 402.704 0.202825 1.57399 0
M  V30 4183 H 402.725 -1.90661 3.29285 0
M  V30 4184 H 402.237 -0.177865 3.87692 0
M  V30 4185 H 400.338 -2.41414 2.83814 0
M  V30 4186 H 400.451 -1.57443 4.52491 0
M  V30 4187 H 398.815 -0.927788 2.37201 0
M  V30 4188 H 399.598 0.380808 3.41181 0
M  V30 4189 N 402.043 -1.548 -0.295768 0
M  V30 4190 C 403.006 -1.85363 -1.34808 0
M  V30 4191 C 404.006 -0.726817 -1.43436 0
M  V30 4192 O 405.196 -0.995088 -1.42981 0
M  V30 4193 C 402.328 -2.03859 -2.73229 0
M  V30 4194 H 403.521 -2.7941 -1.08949 0
M  V30 4195 H 401.074 -1.46942 -0.532702 0
M  V30 4196 H 401.809 -1.12117 -3.04303 0
M  V30 4197 H 401.594 -2.8588 -2.68356 0
M  V30 4198 H 403.084 -2.28857 -3.49305 0
M  V30 4199 N 403.521 0.559213 -1.47345 0
M  V30 4200 C 404.451 1.67622 -1.62558 0
M  V30 4201 C 405.432 1.63331 -0.475087 0
M  V30 4202 O 406.617 1.80983 -0.704182 0
M  V30 4203 C 403.747 3.0626 -1.63774 0
M  V30 4204 C 402.701 3.25397 -2.7803 0
M  V30 4205 C 402.027 4.64801 -2.64318 0
M  V30 4206 C 403.327 3.10965 -4.19641 0
M  V30 4207 H 405.021 1.55146 -2.56067 0
M  V30 4208 H 402.567 0.744961 -1.23233 0
M  V30 4209 H 404.52 3.84247 -1.73008 0
M  V30 4210 H 403.244 3.1969 -0.66825 0
M  V30 4211 H 401.903 2.49817 -2.68304 0
M  V30 4212 H 401.551 4.75028 -1.65401 0
M  V30 4213 H 401.251 4.78555 -3.40968 0
M  V30 4214 H 402.775 5.44926 -2.75478 0
M  V30 4215 H 404.189 3.78772 -4.30354 0
M  V30 4216 H 402.586 3.36229 -4.97062 0
M  V30 4217 H 403.656 2.07736 -4.38148 0
M  V30 4218 N 404.999 1.35443 0.805782 0
M  V30 4219 C 406.224 1.32037 1.59941 0
M  V30 4220 C 406.649 -0.0994215 1.87837 0
M  V30 4221 O 406.007 -1.06648 1.46615 0
M  V30 4222 C 406.055 2.13354 2.90711 0
M  V30 4223 O 405.159 1.5148 3.83572 0
M  V30 4224 H 404.5 0.452666 0.485787 0
M  V30 4225 H 407.03 1.78496 1.00002 0
M  V30 4226 H 407.04 2.25338 3.40128 0
M  V30 4227 H 405.715 3.16572 2.69732 0
M  V30 4228 H 404.292 1.4834 3.42125 0
M  V30 4229 N 406.477 -1.02803 1.19454 0
M  V30 4230 C 407.425 -2.13213 0.929673 0
M  V30 4231 C 408.419 -1.69011 -0.114806 0
M  V30 4232 O 409.625 -1.79967 0.0345147 0
M  V30 4233 H 406 -0.69662 0.28324 0
M  V30 4234 H 407.971 -2.32744 1.86743 0
M  V30 4235 C 406.72 -3.4429 0.485797 0
M  V30 4236 H 406.043 -3.7872 1.28105 0
M  V30 4237 H 407.483 -4.22638 0.339582 0
M  V30 4238 C 405.942 -3.27258 -0.800244 0
M  V30 4239 O 406.472 -3.55967 -1.86146 0
M  V30 4240 N 404.678 -2.80545 -0.75781 0
M  V30 4241 H 404.225 -2.57382 0.106039 0
M  V30 4242 H 404.183 -2.6953 -1.61867 0
M  V30 4243 N 407.956 -0.998596 -1.21925 0
M  V30 4244 C 409.372 -0.710303 -1.42923 0
M  V30 4245 C 409.572 0.716933 -1.88314 0
M  V30 4246 O 408.628 1.48712 -2.04062 0
M  V30 4247 C 409.941 -1.72072 -2.466 0
M  V30 4248 C 411.489 -1.73681 -2.60392 0
M  V30 4249 C 411.964 -2.73601 -3.67296 0
M  V30 4250 N 413.455 -2.7223 -3.7476 0
M  V30 4251 C 414.19 -3.46206 -4.57087 0
M  V30 4252 N 413.686 -4.29802 -5.43362 0
M  V30 4253 N 415.479 -3.34886 -4.51451 0
M  V30 4254 H 407.63 -1.92028 -0.9077 0
M  V30 4255 H 409.893 -0.828487 -0.460775 0
M  V30 4256 H 409.599 -2.74231 -2.20206 0
M  V30 4257 H 409.473 -1.51818 -3.45299 0
M  V30 4258 H 411.86 -0.722173 -2.86127 0
M  V30 4259 H 411.941 -1.98005 -1.61949 0
M  V30 4260 H 411.585 -3.75217 -3.42307 0
M  V30 4261 H 411.515 -2.46545 -4.65321 0
M  V30 4262 H 414.006 -2.11576 -3.1312 0
M  V30 4263 H 414.319 -4.83061 -6.03218 0
M  V30 4264 H 412.664 -4.33887 -5.42925 0
M  V30 4265 H 415.855 -2.69015 -3.83078 0
M  V30 4266 H 416.028 -3.92796 -5.15379 0
M  V30 4267 N 409.434 1.37368 -0.772513 0
M  V30 4268 C 410.366 2.28899 -0.117502 0
M  V30 4269 C 411.379 1.4867 0.663405 0
M  V30 4270 O 412.568 1.71314 0.501372 0
M  V30 4271 C 409.668 3.2788 0.857192 0
M  V30 4272 C 408.841 4.37207 0.129938 0
M  V30 4273 C 407.9 5.16257 1.01811 0
M  V30 4274 O 406.926 5.67159 0.481601 0
M  V30 4275 N 408.128 5.31058 2.3443 0
M  V30 4276 H 410.893 2.85752 -0.903662 0
M  V30 4277 H 408.454 1.49353 -0.62493 0
M  V30 4278 H 410.446 3.77647 1.45482 0
M  V30 4279 H 409.016 2.7179 1.54432 0
M  V30 4280 H 408.236 3.88827 -0.648605 0
M  V30 4281 H 409.524 5.07434 -0.372559 0
M  V30 4282 H 408.922 4.91287 2.80452 0
M  V30 4283 H 407.479 5.84131 2.89197 0
M  V30 4284 N 410.912 0.523116 1.48665 0
M  V30 4285 C 412.328 0.180511 1.58576 0
M  V30 4286 C 412.528 -1.31597 1.52592 0
M  V30 4287 O 411.584 -2.0937 1.4114 0
M  V30 4288 C 412.897 0.776949 2.90489 0
M  V30 4289 C 414.445 0.745058 3.04003 0
M  V30 4290 C 414.92 1.31995 4.38567 0
M  V30 4291 N 416.411 1.28162 4.45117 0
M  V30 4292 C 417.146 1.6964 5.47731 0
M  V30 4293 N 416.642 2.18816 6.57337 0
M  V30 4294 N 418.435 1.6092 5.38573 0
M  V30 4295 H 410.586 1.4958 1.50797 0
M  V30 4296 H 412.849 0.621772 0.715614 0
M  V30 4297 H 412.555 1.82732 3.00503 0
M  V30 4298 H 412.429 0.25007 3.7637 0
M  V30 4299 H 414.816 -0.296532 2.93606 0
M  V30 4300 H 414.897 1.30933 2.1975 0
M  V30 4301 H 414.541 2.36043 4.49718 0
M  V30 4302 H 414.471 0.731418 5.21496 0
M  V30 4303 H 416.962 0.92155 3.66491 0
M  V30 4304 H 417.275 2.48478 7.31764 0
M  V30 4305 H 415.62 2.22805 6.58318 0
M  V30 4306 H 418.811 1.22304 4.5184 0
M  V30 4307 H 418.984 1.93567 6.18414 0
M  V30 4308 N 412.39 -1.55475 0.257931 0
M  V30 4309 C 413.637 -1.99207 -0.363728 0
M  V30 4310 C 413.965 -1.1462 -1.57139 0
M  V30 4311 O 413.22 -0.199653 -1.94679 0
M  V30 4312 C 413.519 -3.48183 -0.806433 0
M  V30 4313 C 413.185 -4.49936 0.294684 0
M  V30 4314 C 411.847 -4.77481 0.597076 0
M  V30 4315 C 414.199 -5.10769 1.03751 0
M  V30 4316 C 411.527 -5.63132 1.64618 0
M  V30 4317 C 413.879 -5.97558 2.07622 0
M  V30 4318 C 412.543 -6.23432 2.38514 0
M  V30 4319 H 411.813 -0.728949 -0.133097 0
M  V30 4320 H 414.46 -1.8793 0.368059 0
M  V30 4321 H 412.765 -3.56848 -1.61761 0
M  V30 4322 H 414.462 -3.79415 -1.29789 0
M  V30 4323 H 411.052 -4.28572 0.0488649 0
M  V30 4324 H 415.236 -4.89527 0.817149 0
M  V30 4325 H 410.492 -5.8143 1.89074 0
M  V30 4326 H 414.666 -6.43735 2.65666 0
M  V30 4327 H 412.293 -6.89594 3.19943 0
M  V30 4328 N 413.868 0.0150385 -1.57593 0
M  V30 4329 C 415.279 0.559832 -1.78109 0
M  V30 4330 C 415.63 1.74814 -0.890756 0
M  V30 4331 O 414.755 2.16216 -0.0892482 0
M  V30 4332 C 415.35 1.02238 -3.23006 0
M  V30 4333 C 413.909 1.51258 -3.44671 0
M  V30 4334 C 413.056 0.456955 -2.73509 0
M  V30 4335 H 416.007 -0.211169 -1.57289 0
M  V30 4336 H 416.028 1.88912 -3.30292 0
M  V30 4337 H 415.54 0.157302 -3.87781 0
M  V30 4338 H 413.641 2.39905 -2.8509 0
M  V30 4339 H 413.754 1.55042 -4.5332 0
M  V30 4340 H 412.118 0.915196 -2.37689 0
M  V30 4341 H 412.901 -0.398896 -3.40975 0
M  V30 4342 N 415.346 1.54954 0.287554 0
M  V30 4343 C 416.574 1.78881 1.03967 0
M  V30 4344 C 416.989 0.554894 1.80462 0
M  V30 4345 O 416.346 -0.475676 1.76192 0
M  V30 4346 C 416.397 3.00488 2.0097 0
M  V30 4347 O 416.118 4.19113 1.27577 0
M  V30 4348 C 417.619 3.36907 2.88112 0
M  V30 4349 H 414.839 0.596259 0.307761 0
M  V30 4350 H 417.383 2.01937 0.322749 0
M  V30 4351 H 415.538 2.79601 2.68145 0
M  V30 4352 H 415.952 4.87765 1.92835 0
M  V30 4353 H 417.426 4.25205 3.52001 0
M  V30 4354 H 417.903 2.55659 3.57121 0
M  V30 4355 H 418.509 3.60001 2.26449 0
M  V30 4356 N 416.824 -0.551391 1.4764 0
M  V30 4357 C 418.071 -1.3083 1.54563 0
M  V30 4358 C 418.399 -1.93359 0.210361 0
M  V30 4359 O 417.654 -1.78721 -0.797332 0
M  V30 4360 C 417.953 -2.43469 2.61644 0
M  V30 4361 C 417.619 -1.98732 4.04742 0
M  V30 4362 C 416.281 -1.86248 4.43695 0
M  V30 4363 C 418.633 -1.64659 4.94507 0
M  V30 4364 C 415.961 -1.37995 5.70241 0
M  V30 4365 C 418.313 -1.17875 6.21521 0
M  V30 4366 C 416.977 -1.03992 6.5935 0
M  V30 4367 H 416.247 -0.478741 0.565587 0
M  V30 4368 H 418.894 -0.617697 1.81264 0
M  V30 4369 H 417.199 -3.18109 2.28722 0
M  V30 4370 H 418.896 -3.01642 2.64222 0
M  V30 4371 H 415.486 -2.09393 3.73968 0
M  V30 4372 H 419.67 -1.73174 4.65107 0
M  V30 4373 H 414.926 -1.25915 5.98294 0
M  V30 4374 H 419.1 -0.905739 6.90485 0
M  V30 4375 H 416.727 -0.663794 7.57296 0
M  V30 4376 N 418.302 -1.35869 -0.798587 0
M  V30 4377 C 419.549 -1.29588 -1.55606 0
M  V30 4378 C 419.877 0.127456 -1.94082 0
M  V30 4379 O 419.132 1.09461 -1.62225 0
M  V30 4380 C 419.431 -2.1556 -2.85077 0
M  V30 4381 C 419.097 -3.6424 -2.65781 0
M  V30 4382 C 417.759 -4.04766 -2.60227 0
M  V30 4383 C 420.111 -4.58547 -2.47758 0
M  V30 4384 C 417.439 -5.37753 -2.34603 0
M  V30 4385 C 419.791 -5.91742 -2.23662 0
M  V30 4386 C 418.455 -6.31402 -2.16534 0
M  V30 4387 H 417.725 -0.474197 -0.569402 0
M  V30 4388 H 420.372 -1.67839 -0.922086 0
M  V30 4389 H 418.677 -1.70216 -3.52893 0
M  V30 4390 H 420.374 -2.08031 -3.42818 0
M  V30 4391 H 416.964 -3.32086 -2.70956 0
M  V30 4392 H 421.148 -4.28117 -2.51056 0
M  V30 4393 H 416.404 -5.67474 -2.2756 0
M  V30 4394 H 420.578 -6.6439 -2.08708 0
M  V30 4395 H 418.205 -7.34381 -1.96441 0
M  V30 4396 N 419.78 1.02168 -1.19998 0
M  V30 4397 C 421.196 1.27969 -0.953737 0
M  V30 4398 C 421.396 1.98079 0.369703 0
M  V30 4399 O 420.452 2.27306 1.09947 0
M  V30 4400 C 421.765 2.11971 -2.13281 0
M  V30 4401 C 423.313 2.25255 -2.17323 0
M  V30 4402 C 423.788 3.12632 -3.34702 0
M  V30 4403 N 425.279 3.2022 -3.34684 0
M  V30 4404 C 426.014 3.88039 -4.22153 0
M  V30 4405 N 425.51 4.58027 -5.19791 0
M  V30 4406 N 427.303 3.84511 -4.10009 0
M  V30 4407 H 419.454 0.550794 -2.05134 0
M  V30 4408 H 421.717 0.305683 -0.897364 0
M  V30 4409 H 421.423 1.67785 -3.09097 0
M  V30 4410 H 421.297 3.12699 -2.10949 0
M  V30 4411 H 423.684 2.68667 -1.22073 0
M  V30 4412 H 423.765 1.24053 -2.23706 0
M  V30 4413 H 423.409 2.69926 -4.30235 0
M  V30 4414 H 423.339 4.13909 -3.25556 0
M  V30 4415 H 425.83 2.70382 -2.64012 0
M  V30 4416 H 426.143 5.07429 -5.82868 0
M  V30 4417 H 424.488 4.56869 -5.23733 0
M  V30 4418 H 427.679 3.28978 -3.33003 0
M  V30 4419 H 427.852 4.3709 -4.78389 0
M  V30 4420 N 421.258 1.00505 1.21394 0
M  V30 4421 C 422.486 0.706609 1.9446 0
M  V30 4422 C 422.901 -0.73081 1.74082 0
M  V30 4423 O 422.258 -1.49446 1.04747 0
M  V30 4424 C 422.309 1.01824 3.46863 0
M  V30 4425 O 422.03 2.39919 3.66566 0
M  V30 4426 C 423.531 0.739216 4.37093 0
M  V30 4427 H 420.751 0.260394 0.618414 0
M  V30 4428 H 423.295 1.34311 1.54211 0
M  V30 4429 H 421.45 0.427343 3.85036 0
M  V30 4430 H 421.864 2.50784 4.6066 0
M  V30 4431 H 423.338 1.00744 5.42729 0
M  V30 4432 H 423.815 -0.326746 4.37983 0
M  V30 4433 H 424.421 1.31173 4.04566 0
M  V30 4434 N 422.737 -1.36956 0.779787 0
M  V30 4435 C 423.687 -2.27539 0.144892 0
M  V30 4436 C 424.671 -1.46493 -0.665488 0
M  V30 4437 O 425.863 -1.68968 -0.527141 0
M  V30 4438 C 422.992 -3.35512 -0.727082 0
M  V30 4439 C 422.078 -4.24001 0.0915642 0
M  V30 4440 N 422.469 -4.92757 1.14125 0
M  V30 4441 C 420.767 -4.45807 -0.131141 0
M  V30 4442 C 421.468 -5.58138 1.6388 0
M  V30 4443 N 420.444 -5.35241 0.94962 0
M  V30 4444 H 424.246 -2.78176 0.948446 0
M  V30 4445 H 421.76 -1.50169 0.618315 0
M  V30 4446 H 423.757 -3.99324 -1.19776 0
M  V30 4447 H 422.417 -2.86431 -1.52929 0
M  V30 4448 H 423.428 -4.94984 1.52353 0
M  V30 4449 H 420.105 -4.07582 -0.904621 0
M  V30 4450 H 421.495 -6.23071 2.51461 0
M  V30 4451 N 424.215 -0.530993 -1.48385 0
M  V30 4452 C 425.626 -0.0907905 -1.86479 0
M  V30 4453 C 425.977 1.33213 -1.44044 0
M  V30 4454 O 425.102 1.99783 -0.831615 0
M  V30 4455 C 425.697 -0.157987 -3.38431 0
M  V30 4456 C 424.256 0.227026 -3.75715 0
M  V30 4457 C 423.403 -0.5173 -2.72432 0
M  V30 4458 H 426.354 -0.742186 -1.40276 0
M  V30 4459 H 426.375 0.630053 -3.75247 0
M  V30 4460 H 425.887 -1.19372 -3.69286 0
M  V30 4461 H 423.988 1.26486 -3.50474 0
M  V30 4462 H 424.101 -0.113288 -4.78966 0
M  V30 4463 H 422.465 0.0365527 -2.54674 0
M  V30 4464 H 423.248 -1.55368 -3.0613 0
M  V30 4465 N 425.693 1.55336 -0.266172 0
M  V30 4466 C 426.918 2.04258 0.359661 0
M  V30 4467 C 427.343 1.14359 1.49344 0
M  V30 4468 O 426.701 0.140369 1.80756 0
M  V30 4469 C 426.749 3.50997 0.826635 0
M  V30 4470 O 425.853 3.64204 1.93466 0
M  V30 4471 H 425.194 0.659668 0.075727 0
M  V30 4472 H 427.724 2.00694 -0.39786 0
M  V30 4473 H 427.734 3.9219 1.12477 0
M  V30 4474 H 426.409 4.159 -0.00293032 0
M  V30 4475 H 424.986 3.34913 1.63974 0
M  V30 4476 N 427.171 -0.0066808 1.57599 0
M  V30 4477 C 428.134 -0.985035 2.06953 0
M  V30 4478 C 429.134 -1.27663 0.977687 0
M  V30 4479 O 430.324 -1.22293 1.24057 0
M  V30 4480 C 427.456 -2.3118 2.50536 0
M  V30 4481 H 428.649 -0.558255 2.94658 0
M  V30 4482 H 426.202 -0.254011 1.54222 0
M  V30 4483 H 426.937 -2.78561 1.66054 0
M  V30 4484 H 426.722 -2.11338 3.3027 0
M  V30 4485 H 428.212 -3.01377 2.8907 0
M  V30 4486 N 428.649 -1.55105 -0.279332 0
M  V30 4487 C 429.877 -1.7943 -1.03017 0
M  V30 4488 C 430.292 -0.564456 -1.80165 0
M  V30 4489 O 429.649 0.466326 -1.76442 0
M  V30 4490 C 429.7 -3.0155 -1.99374 0
M  V30 4491 O 429.421 -4.19784 -1.25352 0
M  V30 4492 C 430.922 -3.3843 -2.86321 0
M  V30 4493 H 428.142 -0.597882 -0.304594 0
M  V30 4494 H 430.686 -2.02105 -0.312035 0
M  V30 4495 H 428.841 -2.81019 -2.66659 0
M  V30 4496 H 429.255 -4.88781 -1.90246 0
M  V30 4497 H 430.729 -4.27066 -3.49741 0
M  V30 4498 H 431.206 -2.57549 -3.5576 0
M  V30 4499 H 431.812 -3.61197 -2.24536 0
M  V30 4500 N 430.127 0.543554 -1.4793 0
M  V30 4501 C 431.057 1.65888 -1.64327 0
M  V30 4502 C 432.038 1.62818 -0.492383 0
M  V30 4503 O 433.223 1.80226 -0.723338 0
M  V30 4504 C 430.353 3.04506 -1.67013 0
M  V30 4505 C 429.307 3.2243 -2.81466 0
M  V30 4506 C 428.633 4.61972 -2.69233 0
M  V30 4507 C 429.933 3.06496 -4.22915 0
M  V30 4508 H 431.627 1.52421 -2.57698 0
M  V30 4509 H 429.173 0.731849 -1.24016 0
M  V30 4510 H 431.126 3.82391 -1.77074 0
M  V30 4511 H 429.85 3.18964 -0.70212 0
M  V30 4512 H 428.509 2.46957 -2.70938 0
M  V30 4513 H 428.157 4.73247 -1.7043 0
M  V30 4514 H 427.857 4.74911 -3.46025 0
M  V30 4515 H 429.381 5.41974 -2.81242 0
M  V30 4516 H 430.795 3.74186 -4.34348 0
M  V30 4517 H 429.192 3.30938 -5.006 0
M  V30 4518 H 430.262 2.03077 -4.40327 0
M  V30 4519 N 431.605 1.3629 0.791371 0
M  V30 4520 C 432.555 1.26988 1.89362 0
M  V30 4521 C 433.539 0.161795 1.60084 0
M  V30 4522 O 434.731 0.394426 1.72549 0
M  V30 4523 C 431.86 1.05944 3.26544 0
M  V30 4524 C 430.946 2.21211 3.61838 0
M  V30 4525 N 431.337 3.46518 3.68455 0
M  V30 4526 C 429.635 2.12933 3.91887 0
M  V30 4527 C 430.336 4.2241 3.99931 0
M  V30 4528 N 429.312 3.51329 4.14812 0
M  V30 4529 H 433.114 2.21908 1.92702 0
M  V30 4530 H 430.628 1.28982 0.986787 0
M  V30 4531 H 432.625 0.973666 4.05371 0
M  V30 4532 H 431.285 0.119223 3.24481 0
M  V30 4533 H 432.296 3.80677 3.51148 0
M  V30 4534 H 428.973 1.26855 3.97761 0
M  V30 4535 H 430.363 5.30767 4.1199 0
M  V30 4536 N 433.083 -1.0153 1.20538 0
M  V30 4537 C 434.031 -2.12215 0.952235 0
M  V30 4538 C 435.025 -1.69123 -0.0968735 0
M  V30 4539 O 436.231 -1.7992 0.0536006 0
M  V30 4540 H 432.606 -0.693576 0.290613 0
M  V30 4541 H 434.577 -2.3075 1.89201 0
M  V30 4542 C 433.326 -3.43755 0.522287 0
M  V30 4543 H 432.649 -3.7734 1.32115 0
M  V30 4544 H 434.089 -4.22254 0.384389 0
M  V30 4545 C 432.548 -3.28088 -0.765489 0
M  V30 4546 O 433.078 -3.57921 -1.8236 0
M  V30 4547 N 431.284 -2.81333 -0.728011 0
M  V30 4548 H 430.831 -2.57255 0.133332 0
M  V30 4549 H 430.789 -2.71232 -1.58999 0
M  V30 4550 N 434.561 -1.01147 -1.20859 0
M  V30 4551 C 435.972 -0.730205 -1.71828 0
M  V30 4552 C 436.323 0.751662 -1.8123 0
M  V30 4553 O 435.448 1.58686 -1.47132 0
M  V30 4554 C 436.043 -1.31885 -3.12077 0
M  V30 4555 C 434.602 -1.08656 -3.60376 0
M  V30 4556 C 433.749 -1.42769 -2.37723 0
M  V30 4557 H 436.7 -1.18158 -1.05945 0
M  V30 4558 H 436.721 -0.706793 -3.73878 0
M  V30 4559 H 436.233 -2.39737 -3.05201 0
M  V30 4560 H 434.334 -0.0254814 -3.72591 0
M  V30 4561 H 434.447 -1.76301 -4.45483 0
M  V30 4562 H 432.811 -0.846603 -2.40218 0
M  V30 4563 H 433.594 -2.51666 -2.33493 0
M  V30 4564 N 436.039 1.36541 -0.78704 0
M  V30 4565 C 437.267 2.03561 -0.370199 0
M  V30 4566 C 437.682 1.59347 1.01263 0
M  V30 4567 O 437.039 0.781781 1.64907 0
M  V30 4568 C 437.09 3.59033 -0.421614 0
M  V30 4569 O 436.811 4.01634 -1.7499 0
M  V30 4570 C 438.312 4.433 0.00489763 0
M  V30 4571 H 435.532 0.653346 -0.152904 0
M  V30 4572 H 438.076 1.74566 -1.06522 0
M  V30 4573 H 436.231 3.86746 0.224971 0
M  V30 4574 H 436.645 4.96217 -1.69909 0
M  V30 4575 H 438.119 5.51939 -0.0822184 0
M  V30 4576 H 438.596 4.26285 1.05723 0
M  V30 4577 H 439.202 4.20843 -0.614085 0
M  V30 4578 N 437.518 0.538854 1.48102 0
M  V30 4579 C 438.934 0.19732 1.58376 0
M  V30 4580 C 439.134 -1.29971 1.5398 0
M  V30 4581 O 438.19 -2.07861 1.43352 0
M  V30 4582 C 439.503 0.807716 2.89649 0
M  V30 4583 C 441.051 0.77726 3.03196 0
M  V30 4584 C 441.526 1.36639 4.37143 0
M  V30 4585 N 443.017 1.32875 4.43732 0
M  V30 4586 C 443.752 1.7544 5.45901 0
M  V30 4587 N 443.248 2.25776 6.54979 0
M  V30 4588 N 445.041 1.66623 5.36836 0
M  V30 4589 H 437.192 1.5117 1.49202 0
M  V30 4590 H 439.455 0.629327 0.708979 0
M  V30 4591 H 439.161 1.85909 2.98548 0
M  V30 4592 H 439.035 0.289975 3.76084 0
M  V30 4593 H 441.422 -0.265374 2.93904 0
M  V30 4594 H 441.503 1.33256 2.18349 0
M  V30 4595 H 441.147 2.408 4.47189 0
M  V30 4596 H 441.077 0.786689 5.20691 0
M  V30 4597 H 443.568 0.96037 3.65493 0
M  V30 4598 H 443.881 2.56226 7.29087 0
M  V30 4599 H 442.226 2.29775 6.55918 0
M  V30 4600 H 445.417 1.27089 4.50517 0
M  V30 4601 H 445.59 2.00115 6.16326 0
M  V30 4602 N 438.996 -1.55193 0.274407 0
M  V30 4603 C 440.242 -1.99877 -0.343086 0
M  V30 4604 C 440.575 -1.16256 -1.55558 0
M  V30 4605 O 439.85 -0.232462 -1.93106 0
M  V30 4606 C 440.133 -3.52706 -0.725965 0
M  V30 4607 C 439.986 -4.47081 0.493818 0
M  V30 4608 C 441.305 -4.11422 -1.56268 0
M  V30 4609 H 438.424 -0.726625 -0.123229 0
M  V30 4610 H 441.066 -1.86136 0.38121 0
M  V30 4611 H 439.216 -3.64546 -1.34307 0
M  V30 4612 H 440.888 -4.47186 1.13237 0
M  V30 4613 H 439.131 -4.1877 1.13201 0
M  V30 4614 H 439.802 -5.51699 0.18217 0
M  V30 4615 H 442.278 -4.02855 -1.04151 0
M  V30 4616 H 441.154 -5.18568 -1.79939 0
M  V30 4617 H 441.415 -3.61607 -2.54348 0
M  V30 4618 N 440.474 -0.00167713 -1.576 0
M  V30 4619 C 441.421 0.989195 -2.08527 0
M  V30 4620 C 442.391 1.34031 -0.981065 0
M  V30 4621 O 443.576 1.43839 -1.2536 0
M  V30 4622 C 440.716 2.27537 -2.59463 0
M  V30 4623 C 439.829 1.98314 -3.83791 0
M  V30 4624 C 438.964 3.21025 -4.23222 0
M  V30 4625 C 438.003 2.87495 -5.40382 0
M  V30 4626 N 437.14 4.02749 -5.75098 0
M  V30 4627 H 441.98 0.547973 -2.92919 0
M  V30 4628 H 439.517 0.258917 -1.44803 0
M  V30 4629 H 441.475 3.02729 -2.87073 0
M  V30 4630 H 440.105 2.69325 -1.77943 0
M  V30 4631 H 439.157 1.13482 -3.63078 0
M  V30 4632 H 440.469 1.69601 -4.69081 0
M  V30 4633 H 439.623 4.04561 -4.52123 0
M  V30 4634 H 438.362 3.52877 -3.36644 0
M  V30 4635 H 437.367 2.02367 -5.11202 0
M  V30 4636 H 438.592 2.56889 -6.28637 0
M  V30 4637 H 436.538 4.34494 -4.91478 0
M  V30 4638 H 436.455 3.77566 -6.54966 0
M  V30 4639 H 437.723 4.87068 -6.08592 0
M  V30 4640 N 441.952 1.55251 0.271103 0
M  V30 4641 C 442.882 1.9127 1.33933 0
M  V30 4642 C 443.863 0.77478 1.5143 0
M  V30 4643 O 445.048 1.03307 1.64442 0
M  V30 4644 C 442.178 2.18627 2.69851 0
M  V30 4645 C 441.132 3.34442 2.67081 0
M  V30 4646 C 440.458 3.47284 4.06569 0
M  V30 4647 C 441.758 4.70784 2.26185 0
M  V30 4648 H 443.452 2.80744 1.04035 0
M  V30 4649 H 440.998 1.35077 0.499017 0
M  V30 4650 H 442.951 2.42413 3.44694 0
M  V30 4651 H 441.675 1.25955 3.01335 0
M  V30 4652 H 440.334 3.10627 1.94695 0
M  V30 4653 H 439.982 2.52074 4.35279 0
M  V30 4654 H 439.682 4.25152 4.0561 0
M  V30 4655 H 441.206 3.73363 4.83148 0
M  V30 4656 H 442.62 4.94102 2.90751 0
M  V30 4657 H 441.017 5.51582 2.36384 0
M  V30 4658 H 442.087 4.69478 1.21319 0
M  V30 4659 N 443.43 -0.535701 1.48216 0
M  V30 4660 C 444.677 -1.29183 1.55942 0
M  V30 4661 C 445.005 -1.93125 0.230857 0
M  V30 4662 O 444.26 -1.79556 -0.778331 0
M  V30 4663 C 444.559 -2.4068 2.64212 0
M  V30 4664 C 444.225 -1.94428 4.06827 0
M  V30 4665 C 442.887 -1.81532 4.45645 0
M  V30 4666 C 445.239 -1.59405 4.96225 0
M  V30 4667 C 442.567 -1.31939 5.71672 0
M  V30 4668 C 444.919 -1.11276 6.22736 0
M  V30 4669 C 443.583 -0.969924 6.60416 0
M  V30 4670 H 442.853 -0.472715 0.570632 0
M  V30 4671 H 445.5 -0.598437 1.81909 0
M  V30 4672 H 443.805 -3.15666 2.32083 0
M  V30 4673 H 445.502 -2.98822 2.67407 0
M  V30 4674 H 442.092 -2.05415 3.76168 0
M  V30 4675 H 446.276 -1.68231 4.66917 0
M  V30 4676 H 441.532 -1.19562 5.99596 0
M  V30 4677 H 445.706 -0.832453 6.91407 0
M  V30 4678 H 443.333 -0.583436 7.57958 0
M  V30 4679 N 444.908 -1.36708 -0.784132 0
M  V30 4680 C 445.818 -1.3363 -1.92822 0
M  V30 4681 C 446.834 -0.237686 -1.72369 0
M  V30 4682 O 448.01 -0.470962 -1.95816 0
M  V30 4683 C 445.075 -1.13011 -3.27764 0
M  V30 4684 C 444.136 -2.32397 -3.60957 0
M  V30 4685 C 443.369 -2.12752 -4.89461 0
M  V30 4686 O 443.592 -1.10541 -5.59586 0
M  V30 4687 O 442.526 -3.00653 -5.21432 0
M  V30 4688 H 446.352 -2.29964 -1.98369 0
M  V30 4689 H 443.937 -1.1731 -0.925136 0
M  V30 4690 H 445.819 -1.03451 -4.08504 0
M  V30 4691 H 444.494 -0.19743 -3.23097 0
M  V30 4692 H 443.401 -2.47527 -2.80502 0
M  V30 4693 H 444.734 -3.2419 -3.70354 0
M  V30 4694 N 446.386 1.0089 -1.21074 0
M  V30 4695 C 447.333 2.09588 -0.966512 0
M  V30 4696 C 448.303 1.65761 0.106089 0
M  V30 4697 O 449.488 1.90758 -0.0402287 0
M  V30 4698 C 446.628 3.40958 -0.533058 0
M  V30 4699 C 445.741 3.9822 -1.67467 0
M  V30 4700 C 444.876 5.17682 -1.19076 0
M  V30 4701 C 443.915 5.67043 -2.30496 0
M  V30 4702 N 443.052 6.77759 -1.83267 0
M  V30 4703 H 447.892 2.29815 -1.89708 0
M  V30 4704 H 445.429 1.12689 -0.945489 0
M  V30 4705 H 447.387 4.1637 -0.263019 0
M  V30 4706 H 446.017 3.20781 0.360505 0
M  V30 4707 H 445.069 3.1983 -2.05944 0
M  V30 4708 H 446.381 4.3085 -2.51336 0
M  V30 4709 H 445.535 6.00326 -0.877151 0
M  V30 4710 H 444.274 4.86635 -0.322066 0
M  V30 4711 H 443.279 4.82999 -2.62664 0
M  V30 4712 H 444.504 6.00121 -3.17855 0
M  V30 4713 H 442.45 6.48527 -0.987356 0
M  V30 4714 H 442.367 7.09624 -2.60711 0
M  V30 4715 H 443.635 7.63949 -1.54928 0
M  V30 4716 N 447.864 1.01787 1.20321 0
M  V30 4717 C 449.11 0.718699 1.90279 0
M  V30 4718 C 449.465 -0.743669 1.77447 0
M  V30 4719 O 448.758 -1.53345 1.14874 0
M  V30 4720 C 448.952 1.09076 3.40349 0
M  V30 4721 C 448.781 2.58775 3.67784 0
M  V30 4722 C 447.551 3.25578 3.86428 0
M  V30 4723 C 449.749 3.56966 3.70243 0
M  V30 4724 N 447.731 4.64495 4.01395 0
M  V30 4725 C 449.102 4.8145 3.90649 0
M  V30 4726 C 451.157 3.5092 3.53213 0
M  V30 4727 C 449.86 6.00619 3.95789 0
M  V30 4728 C 451.886 4.69493 3.59625 0
M  V30 4729 C 451.248 5.92786 3.80505 0
M  V30 4730 H 447.347 0.31468 0.715891 0
M  V30 4731 H 449.931 1.30295 1.44677 0
M  V30 4732 H 448.102 0.534839 3.847 0
M  V30 4733 H 449.834 0.744997 3.97784 0
M  V30 4734 H 446.589 2.76003 3.84862 0
M  V30 4735 H 447.013 5.36624 4.12752 0
M  V30 4736 H 451.655 2.56593 3.36035 0
M  V30 4737 H 449.373 6.95326 4.11762 0
M  V30 4738 H 452.959 4.66432 3.47754 0
M  V30 4739 H 451.839 6.83003 3.85327 0
M  V30 4740 N 449.342 -1.36122 0.79427 0
M  V30 4741 C 450.59 -1.98718 0.368177 0
M  V30 4742 C 450.911 -1.63345 -1.06506 0
M  V30 4743 O 450.181 -0.909825 -1.73491 0
M  V30 4744 H 448.761 -0.735038 0.133146 0
M  V30 4745 H 451.423 -1.66239 1.01739 0
M  V30 4746 H 450.519 -3.08633 0.463923 0
M  V30 4747 N 450.82 -0.546701 -1.47814 0
M  V30 4748 C 452.066 -0.0269594 -2.03382 0
M  V30 4749 C 452.421 1.30406 -1.41464 0
M  V30 4750 O 451.714 1.8332 -0.557151 0
M  V30 4751 C 451.908 0.134869 -3.57145 0
M  V30 4752 C 451.737 -1.17891 -4.33972 0
M  V30 4753 C 450.507 -1.74336 -4.74273 0
M  V30 4754 C 452.705 -2.09361 -4.69758 0
M  V30 4755 N 450.687 -2.99829 -5.35701 0
M  V30 4756 C 452.058 -3.19431 -5.31379 0
M  V30 4757 C 454.113 -2.09484 -4.51687 0
M  V30 4758 C 452.816 -4.2971 -5.76838 0
M  V30 4759 C 454.842 -3.18767 -4.98138 0
M  V30 4760 C 454.204 -4.27557 -5.59799 0
M  V30 4761 H 450.303 -0.0517733 -0.780284 0
M  V30 4762 H 452.887 -0.731673 -1.80429 0
M  V30 4763 H 451.058 0.80869 -3.79888 0
M  V30 4764 H 452.79 0.655726 -3.99352 0
M  V30 4765 H 449.545 -1.28265 -4.559 0
M  V30 4766 H 449.969 -3.63765 -5.70968 0
M  V30 4767 H 454.611 -1.26663 -4.03381 0
M  V30 4768 H 452.329 -5.13297 -6.24141 0
M  V30 4769 H 455.915 -3.19937 -4.85934 0
M  V30 4770 H 454.795 -5.10725 -5.95088 0
M  V30 4771 N 452.299 1.55045 -0.282633 0
M  V30 4772 C 453.246 2.22822 0.601566 0
M  V30 4773 C 454.216 1.20431 1.14392 0
M  V30 4774 O 455.401 1.48996 1.19184 0
M  V30 4775 C 452.541 2.95873 1.77632 0
M  V30 4776 C 451.654 4.12999 1.26711 0
M  V30 4777 C 450.789 4.73676 2.40426 0
M  V30 4778 C 449.828 5.82981 1.86545 0
M  V30 4779 N 448.965 6.3769 2.93762 0
M  V30 4780 H 453.805 2.97995 0.0169528 0
M  V30 4781 H 451.342 1.471 -0.00339964 0
M  V30 4782 H 453.3 3.36447 2.46697 0
M  V30 4783 H 451.93 2.2311 2.33285 0
M  V30 4784 H 450.982 3.77494 0.469314 0
M  V30 4785 H 452.294 4.91803 0.832518 0
M  V30 4786 H 451.448 5.17008 3.17471 0
M  V30 4787 H 450.187 3.94164 2.87203 0
M  V30 4788 H 449.192 5.39092 1.07983 0
M  V30 4789 H 450.417 6.64366 1.40694 0
M  V30 4790 H 448.363 5.61069 3.39908 0
M  V30 4791 H 448.28 7.11788 2.54744 0
M  V30 4792 H 449.548 6.8568 3.7076 0
M  V30 4793 N 453.777 0.010035 1.57597 0
M  V30 4794 C 454.724 -0.978122 2.09049 0
M  V30 4795 C 455.694 -1.33509 0.988159 0
M  V30 4796 O 456.879 -1.43172 1.26121 0
M  V30 4797 C 454.019 -2.26158 2.60666 0
M  V30 4798 C 453.132 -1.96275 3.84838 0
M  V30 4799 C 452.267 -3.18776 4.24918 0
M  V30 4800 C 451.306 -2.84625 5.41899 0
M  V30 4801 N 450.443 -3.99693 5.77226 0
M  V30 4802 H 455.283 -0.532431 2.93205 0
M  V30 4803 H 452.82 -0.251234 1.44939 0
M  V30 4804 H 454.778 -3.01202 2.88675 0
M  V30 4805 H 453.408 -2.68378 1.79369 0
M  V30 4806 H 452.46 -1.11555 3.63675 0
M  V30 4807 H 453.772 -1.67111 4.69974 0
M  V30 4808 H 452.926 -4.02157 4.54262 0
M  V30 4809 H 451.665 -3.51087 3.38511 0
M  V30 4810 H 450.67 -1.99653 5.12268 0
M  V30 4811 H 451.895 -2.53551 6.29991 0
M  V30 4812 H 449.841 -4.31882 4.93776 0
M  V30 4813 H 449.758 -3.74087 6.56959 0
M  V30 4814 H 451.026 -4.83834 6.11167 0
M  V30 4815 N 455.255 -1.55392 -0.262866 0
M  V30 4816 C 456.504 -1.75679 -0.990943 0
M  V30 4817 C 456.817 -0.57097 -1.87081 0
M  V30 4818 O 458.023 -0.656486 -2.63444 0
M  V30 4819 C 456.479 -3.10964 -1.81188 0
M  V30 4820 C 456.087 -4.37146 -0.980188 0
M  V30 4821 C 457.831 -3.40597 -2.53365 0
M  V30 4822 C 455.738 -5.63466 -1.7961 0
M  V30 4823 H 454.668 -0.654868 -0.373716 0
M  V30 4824 H 457.319 -1.81841 -0.246203 0
M  V30 4825 H 455.701 -2.98867 -2.59797 0
M  V30 4826 H 456.875 -4.60187 -0.237558 0
M  V30 4827 H 455.19 -4.14731 -0.372497 0
M  V30 4828 H 457.787 -4.32186 -3.14833 0
M  V30 4829 H 458.13 -2.6119 -3.24169 0
M  V30 4830 H 458.663 -3.53838 -1.81779 0
M  V30 4831 H 455.402 -6.4565 -1.13209 0
M  V30 4832 H 454.922 -5.44552 -2.51443 0
M  V30 4833 H 456.601 -6.02139 -2.36723 0
M  V30 4834 N 456.733 0.527833 -1.48498 0
M  V30 4835 C 457.696 1.61439 -1.62696 0
M  V30 4836 C 458.696 1.52824 -0.500136 0
M  V30 4837 O 459.886 1.56456 -0.765976 0
M  V30 4838 C 457.018 3.01063 -1.59918 0
M  V30 4839 H 458.211 1.50189 -2.59583 0
M  V30 4840 H 455.764 0.750055 -1.37127 0
M  V30 4841 H 456.499 3.17818 -0.645163 0
M  V30 4842 H 456.284 3.08725 -2.41726 0
M  V30 4843 H 457.774 3.80057 -1.73051 0
M  V30 4844 N 458.211 1.37122 0.776871 0
M  V30 4845 C 459.439 1.3523 1.5659 0
M  V30 4846 C 459.854 -0.0635518 1.88693 0
M  V30 4847 O 459.211 -1.02394 1.51069 0
M  V30 4848 C 459.262 2.18583 2.8793 0
M  V30 4849 O 458.983 3.5465 2.57206 0
M  V30 4850 C 460.484 2.24612 3.82183 0
M  V30 4851 H 457.704 0.4634 0.485285 0
M  V30 4852 H 460.248 1.80392 0.963266 0
M  V30 4853 H 458.403 1.76943 3.4463 0
M  V30 4854 H 458.817 3.98286 3.41275 0
M  V30 4855 H 460.291 2.87267 4.71361 0
M  V30 4856 H 460.768 1.25309 4.20944 0
M  V30 4857 H 461.374 2.66543 3.31414 0
M  V30 4858 N 459.689 -1.00246 1.21608 0
M  V30 4859 C 460.938 -1.73476 1.02902 0
M  V30 4860 C 461.251 -1.90643 -0.437561 0
M  V30 4861 O 462.457 -2.61105 -0.74407 0
M  V30 4862 C 460.913 -3.12079 1.79261 0
M  V30 4863 C 460.521 -3.02877 3.30106 0
M  V30 4864 C 462.265 -3.89421 1.68972 0
M  V30 4865 C 460.172 -4.36575 3.98944 0
M  V30 4866 H 459.102 -0.650408 0.381425 0
M  V30 4867 H 461.753 -1.11985 1.45367 0
M  V30 4868 H 460.135 -3.74196 1.2959 0
M  V30 4869 H 461.309 -2.49983 3.87098 0
M  V30 4870 H 459.624 -2.39022 3.40965 0
M  V30 4871 H 462.221 -4.88362 2.17731 0
M  V30 4872 H 462.564 -4.1122 0.648397 0
M  V30 4873 H 463.097 -3.33963 2.16133 0
M  V30 4874 H 459.836 -4.19978 5.03288 0
M  V30 4875 H 459.356 -4.8942 3.4674 0
M  V30 4876 H 461.035 -5.05364 4.04 0
M  V30 4877 N 461.167 -1.02423 -1.1978 0
M  V30 4878 C 462.099 -0.559152 -2.22275 0
M  V30 4879 C 463.112 0.36251 -1.58713 0
M  V30 4880 O 464.301 0.159641 -1.77785 0
M  V30 4881 C 461.401 0.205094 -3.38279 0
M  V30 4882 C 460.574 -0.720361 -4.31427 0
M  V30 4883 C 459.633 -0.00234368 -5.262 0
M  V30 4884 O 458.659 -0.627378 -5.65732 0
M  V30 4885 N 459.861 1.26996 -5.66438 0
M  V30 4886 H 462.626 -1.44064 -2.62804 0
M  V30 4887 H 460.187 -0.902692 -1.34399 0
M  V30 4888 H 462.179 0.694868 -3.9869 0
M  V30 4889 H 460.749 0.987947 -2.96578 0
M  V30 4890 H 459.969 -1.39031 -3.68869 0
M  V30 4891 H 461.257 -1.3495 -4.90577 0
M  V30 4892 H 460.655 1.79858 -5.36347 0
M  V30 4893 H 459.212 1.70432 -6.29123 0
M  V30 4894 N 462.645 1.35699 -0.801477 0
M  V30 4895 C 463.577 2.28598 -0.166028 0
M  V30 4896 C 464.59 1.50044 0.631721 0
M  V30 4897 O 465.779 1.72339 0.464921 0
M  V30 4898 C 462.879 3.29625 0.787451 0
M  V30 4899 C 462.052 4.37384 0.037171 0
M  V30 4900 C 461.111 5.183 0.908375 0
M  V30 4901 O 460.137 5.68053 0.361189 0
M  V30 4902 N 461.339 5.35912 2.23112 0
M  V30 4903 H 464.104 2.83771 -0.964071 0
M  V30 4904 H 461.665 1.47994 -0.656469 0
M  V30 4905 H 463.657 3.80648 1.37439 0
M  V30 4906 H 462.227 2.75004 1.48632 0
M  V30 4907 H 461.447 3.87364 -0.730935 0
M  V30 4908 H 462.735 5.0653 -0.480109 0
M  V30 4909 H 462.133 4.97125 2.69968 0
M  V30 4910 H 460.69 5.90133 2.76741 0
M  V30 4911 N 464.123 0.554532 1.47522 0
M  V30 4912 C 465.351 0.034257 2.06872 0
M  V30 4913 C 465.766 -1.25826 1.40759 0
M  V30 4914 O 465.123 -1.75425 0.503217 0
M  V30 4915 C 465.174 -0.167827 3.6111 0
M  V30 4916 O 464.895 1.07351 4.24744 0
M  V30 4917 C 466.396 -0.72569 4.3732 0
M  V30 4918 H 463.616 0.0446275 0.669514 0
M  V30 4919 H 466.16 0.767181 1.89564 0
M  V30 4920 H 464.315 -0.850872 3.7794 0
M  V30 4921 H 464.729 0.869563 5.17242 0
M  V30 4922 H 466.203 -0.816394 5.45929 0
M  V30 4923 H 466.68 -1.73635 4.0342 0
M  V30 4924 H 467.286 -0.0784292 4.25228 0
M  V30 4925 N 465.601 -1.54893 0.290851 0
M  V30 4926 C 466.829 -2.04343 -0.324288 0
M  V30 4927 C 467.244 -1.16859 -1.48289 0
M  V30 4928 O 466.601 -0.192018 -1.81487 0
M  V30 4929 C 466.652 -3.52756 -0.79026 0
M  V30 4930 O 466.373 -4.36913 0.322213 0
M  V30 4931 C 467.874 -4.18161 -1.4716 0
M  V30 4932 H 465.094 -0.667135 -0.0719173 0
M  V30 4933 H 467.638 -1.99981 0.427529 0
M  V30 4934 H 465.793 -3.57511 -1.49213 0
M  V30 4935 H 466.207 -5.24486 -0.0387372 0
M  V30 4936 H 467.681 -5.23562 -1.7489 0
M  V30 4937 H 468.158 -3.67282 -2.40834 0
M  V30 4938 H 468.764 -4.17454 -0.813178 0
M  V30 4939 N 467.08 -0.0183926 -1.57589 0
M  V30 4940 C 467.99 0.982943 -2.13015 0
M  V30 4941 C 469.006 1.36443 -1.07979 0
M  V30 4942 O 470.182 1.44802 -1.3998 0
M  V30 4943 C 467.247 2.25024 -2.63752 0
M  V30 4944 C 466.308 1.93018 -3.83461 0
M  V30 4945 C 465.541 3.13706 -4.31769 0
M  V30 4946 O 465.764 4.2601 -3.79305 0
M  V30 4947 O 464.698 2.96629 -5.23732 0
M  V30 4948 H 468.524 0.541709 -2.9883 0
M  V30 4949 H 466.109 0.201565 -1.48034 0
M  V30 4950 H 467.991 2.99441 -2.96502 0
M  V30 4951 H 466.666 2.68349 -1.81026 0
M  V30 4952 H 465.573 1.16019 -3.55655 0
M  V30 4953 H 466.906 1.54516 -4.67317 0
M  V30 4954 N 468.558 1.5553 0.254621 0
M  V30 4955 C 469.804 1.77262 0.985193 0
M  V30 4956 C 470.137 0.582286 1.85265 0
M  V30 4957 O 469.412 -0.419666 1.89919 0
M  V30 4958 C 469.695 3.0881 1.85225 0
M  V30 4959 C 469.548 4.38233 1.0135 0
M  V30 4960 C 470.867 3.3653 2.83612 0
M  V30 4961 H 467.986 0.644906 0.356742 0
M  V30 4962 H 470.628 1.88264 0.256236 0
M  V30 4963 H 468.778 2.99562 2.47376 0
M  V30 4964 H 470.45 4.59463 0.411269 0
M  V30 4965 H 468.693 4.32636 0.317574 0
M  V30 4966 H 469.364 5.26644 1.65379 0
M  V30 4967 H 471.84 3.45691 2.31596 0
M  V30 4968 H 470.716 4.29805 3.41407 0
M  V30 4969 H 470.977 2.57064 3.59681 0
M  V30 4970 N 470.036 -0.519951 1.48776 0
M  V30 4971 C 471.283 -1.27522 1.57303 0
M  V30 4972 C 471.611 -1.92869 0.251328 0
M  V30 4973 O 470.866 -1.80372 -0.759243 0
M  V30 4974 C 471.165 -2.37864 2.6675 0
M  V30 4975 C 470.831 -1.90103 4.08867 0
M  V30 4976 C 469.493 -1.76795 4.47546 0
M  V30 4977 C 471.845 -1.54133 4.97888 0
M  V30 4978 C 469.173 -1.25868 5.73039 0
M  V30 4979 C 471.525 -1.04665 6.23881 0
M  V30 4980 C 470.189 -0.899823 6.61407 0
M  V30 4981 H 469.459 -0.466636 0.575614 0
M  V30 4982 H 472.106 -0.579109 1.82534 0
M  V30 4983 H 470.411 -3.13186 2.35418 0
M  V30 4984 H 472.108 -2.95969 2.70561 0
M  V30 4985 H 468.698 -2.01414 3.78326 0
M  V30 4986 H 472.882 -1.6327 4.68675 0
M  V30 4987 H 468.138 -1.13196 6.0083 0
M  V30 4988 H 472.312 -0.759074 6.92251 0
M  V30 4989 H 469.939 -0.503011 7.58534 0
M  V30 4990 N 471.514 -1.37532 -0.769588 0
M  V30 4991 C 472.742 -1.36059 -1.55871 0
M  V30 4992 C 473.157 0.053544 -1.88724 0
M  V30 4993 O 472.514 1.01591 -1.5161 0
M  V30 4994 C 472.565 -2.20107 -2.86767 0
M  V30 4995 O 472.286 -3.56009 -2.55321 0
M  V30 4996 C 473.787 -2.26636 -3.80987 0
M  V30 4997 H 471.007 -0.465967 -0.482821 0
M  V30 4998 H 473.551 -1.80901 -0.953686 0
M  V30 4999 H 471.706 -1.78768 -3.43687 0
M  V30 5000 H 472.12 -4.0009 -3.39158 0
M  V30 5001 H 473.594 -2.89763 -4.69831 0
M  V30 5002 H 474.071 -1.2754 -4.20274 0
M  V30 5003 H 474.677 -2.68296 -3.29996 0
M  V30 5004 N 472.992 0.995999 -1.22138 0
M  V30 5005 C 474.217 1.77601 -1.0711 0
M  V30 5006 C 474.642 1.84339 0.374264 0
M  V30 5007 O 474 1.29359 1.27028 0
M  V30 5008 C 474.048 3.18897 -1.68336 0
M  V30 5009 O 473.152 4.01663 -0.934928 0
M  V30 5010 H 472.493 0.547011 -0.376397 0
M  V30 5011 H 475.023 1.25137 -1.6187 0
M  V30 5012 H 475.033 3.69539 -1.72931 0
M  V30 5013 H 473.708 3.13308 -2.73516 0
M  V30 5014 H 472.285 3.60204 -0.964751 0
M  V30 5015 N 474.47 1.03057 1.19235 0
M  V30 5016 C 475.698 0.747697 1.92917 0
M  V30 5017 C 476.113 -0.69372 1.75593 0
M  V30 5018 O 475.47 -1.47191 1.07894 0
M  V30 5019 C 475.521 1.09159 3.44625 0
M  V30 5020 O 475.242 2.47641 3.61394 0
M  V30 5021 C 476.743 0.831763 4.35427 0
M  V30 5022 H 473.963 0.273453 0.612751 0
M  V30 5023 H 476.507 1.37552 1.51327 0
M  V30 5024 H 474.662 0.508919 3.84043 0
M  V30 5025 H 475.076 2.60499 4.55237 0
M  V30 5026 H 476.55 1.12233 5.4047 0
M  V30 5027 H 477.027 -0.233769 4.38577 0
M  V30 5028 H 477.633 1.39725 4.01693 0
M  V30 5029 N 475.948 -1.35272 0.808662 0
M  V30 5030 C 476.878 -2.32315 0.234981 0
M  V30 5031 C 477.859 -1.57572 -0.64071 0
M  V30 5032 O 479.044 -1.8563 -0.570551 0
M  V30 5033 C 476.174 -3.41801 -0.615601 0
M  V30 5034 C 475.128 -4.27694 0.161767 0
M  V30 5035 C 474.454 -5.28519 -0.810649 0
M  V30 5036 C 475.754 -5.04231 1.36193 0
M  V30 5037 H 477.448 -2.80543 1.04575 0
M  V30 5038 H 474.994 -1.3488 0.504315 0
M  V30 5039 H 476.947 -4.08693 -1.02702 0
M  V30 5040 H 475.671 -2.92186 -1.45928 0
M  V30 5041 H 474.33 -3.62384 0.554382 0
M  V30 5042 H 473.978 -4.75171 -1.64988 0
M  V30 5043 H 473.678 -5.8686 -0.294822 0
M  V30 5044 H 475.202 -5.98283 -1.22023 0
M  V30 5045 H 476.616 -5.64058 1.02528 0
M  V30 5046 H 475.013 -5.72077 1.81239 0
M  V30 5047 H 476.083 -4.34753 2.14751 0
M  V30 5048 N 477.426 -0.562348 -1.47226 0
M  V30 5049 C 478.703 0.0256985 -1.95583 0
M  V30 5050 C 479.083 1.48032 -1.50498 0
M  V30 5051 O 478.431 2.15973 -0.746181 0
M  V30 5052 C 478.641 -0.125129 -3.48776 0
M  V30 5053 C 479.989 0.0175728 -4.24596 0
M  V30 5054 O 481.013 -0.0529341 -3.56161 0
M  V30 5055 O 479.872 0.170145 -5.46235 0
M  V30 5056 H 476.966 0.0612565 -0.824728 0
M  V30 5057 H 479.512 -0.629233 -1.57603 0
M  V30 5058 H 478.284 -1.13715 -3.74412 0
M  V30 5059 H 477.907 0.567178 -3.93534 0
M  V30 5060 N 478.904 1.54736 -0.299062 0
M  V30 5061 C 480.181 1.92187 0.363802 0
M  V30 5062 C 480.561 1.22607 1.71845 0
M  V30 5063 O 479.909 0.361141 2.25628 0
M  V30 5064 C 480.119 3.45678 0.480377 0
M  V30 5065 C 481.467 4.17885 0.752147 0
M  V30 5066 O 482.491 3.51702 0.564264 0
M  V30 5067 O 481.35 5.35048 1.11294 0
M  V30 5068 H 478.444 0.801681 0.203066 0
M  V30 5069 H 480.99 1.66115 -0.346978 0
M  V30 5070 H 479.762 3.88443 -0.471999 0
M  V30 5071 H 479.385 3.77779 1.2397 0
M  V30 5072 N 480.382 0.0267497 1.57577 0
M  V30 5073 C 481.312 -0.954308 2.13108 0
M  V30 5074 C 482.293 -1.34088 1.04663 0
M  V30 5075 O 483.478 -1.41992 1.32484 0
M  V30 5076 C 480.608 -2.23744 2.65624 0
M  V30 5077 C 479.562 -1.99168 3.78835 0
M  V30 5078 C 478.888 -3.33726 4.17769 0
M  V30 5079 C 480.188 -1.33277 5.0501 0
M  V30 5080 H 481.882 -0.491848 2.95332 0
M  V30 5081 H 479.428 -0.23514 1.42067 0
M  V30 5082 H 481.381 -2.92754 3.03106 0
M  V30 5083 H 480.105 -2.72151 1.80558 0
M  V30 5084 H 478.764 -1.32577 3.41788 0
M  V30 5085 H 478.412 -3.79888 3.29688 0
M  V30 5086 H 478.112 -3.18089 4.94058 0
M  V30 5087 H 479.636 -4.04008 4.57832 0
M  V30 5088 H 481.05 -1.92283 5.40093 0
M  V30 5089 H 479.447 -1.28045 5.8628 0
M  V30 5090 H 480.517 -0.305411 4.83937 0
M  V30 5091 N 481.861 -1.55662 -0.24637 0
M  V30 5092 C 482.771 -1.93495 -1.32653 0
M  V30 5093 C 483.787 -0.835462 -1.5263 0
M  V30 5094 O 484.963 -1.1369 -1.66242 0
M  V30 5095 C 482.028 -2.22242 -2.66101 0
M  V30 5096 C 481.089 -3.45625 -2.54641 0
M  V30 5097 C 480.322 -3.72991 -3.81724 0
M  V30 5098 O 480.545 -3.02421 -4.8363 0
M  V30 5099 O 479.479 -4.66515 -3.80325 0
M  V30 5100 H 483.305 -2.85498 -1.03559 0
M  V30 5101 H 480.89 -1.42551 -0.44717 0
M  V30 5102 H 482.772 -2.42037 -3.44958 0
M  V30 5103 H 481.447 -1.33417 -2.94926 0
M  V30 5104 H 480.354 -3.31136 -1.74067 0
M  V30 5105 H 481.687 -4.34754 -2.3076 0
M  V30 5106 N 483.339 0.512053 -1.4905 0
M  V30 5107 C 484.249 1.64139 -1.67617 0
M  V30 5108 C 485.265 1.64786 -0.558701 0
M  V30 5109 O 486.441 1.8341 -0.832034 0
M  V30 5110 C 483.506 3.00548 -1.72835 0
M  V30 5111 C 482.567 3.10615 -2.96339 0
M  V30 5112 C 481.8 4.40517 -3.01298 0
M  V30 5113 O 482.023 5.28671 -2.14157 0
M  V30 5114 O 480.957 4.55325 -3.93653 0
M  V30 5115 H 484.783 1.51407 -2.63267 0
M  V30 5116 H 482.368 0.687131 -1.32661 0
M  V30 5117 H 484.25 3.81641 -1.78683 0
M  V30 5118 H 482.925 3.13566 -0.803616 0
M  V30 5119 H 481.832 2.2875 -2.96014 0
M  V30 5120 H 483.165 3.0252 -3.88256 0
M  V30 5121 N 484.817 1.37938 0.762283 0
M  V30 5122 C 486.233 1.18945 1.06415 0
M  V30 5123 C 486.433 0.0321163 2.01474 0
M  V30 5124 O 485.489 -0.624844 2.44647 0
M  V30 5125 C 486.802 2.51218 1.65258 0
M  V30 5126 C 488.35 2.57824 1.7747 0
M  V30 5127 C 488.825 3.90251 2.39725 0
M  V30 5128 N 490.316 3.91744 2.47166 0
M  V30 5129 C 491.051 4.90966 2.96209 0
M  V30 5130 N 490.547 6.00585 3.45354 0
M  V30 5131 N 492.34 4.78363 2.9517 0
M  V30 5132 H 484.491 2.11994 0.131301 0
M  V30 5133 H 486.754 0.940262 0.120879 0
M  V30 5134 H 486.46 3.36317 1.02878 0
M  V30 5135 H 486.334 2.68989 2.64433 0
M  V30 5136 H 488.721 1.73126 2.3898 0
M  V30 5137 H 488.802 2.43928 0.770241 0
M  V30 5138 H 488.446 4.75368 1.78852 0
M  V30 5139 H 488.376 4.01454 3.40796 0
M  V30 5140 H 490.867 3.12563 2.12397 0
M  V30 5141 H 491.18 6.72236 3.81207 0
M  V30 5142 H 489.525 6.04217 3.43434 0
M  V30 5143 H 492.716 3.91841 2.56082 0
M  V30 5144 H 492.889 5.55843 3.33081 0
M  V30 5145 N 486.295 -0.989507 1.22664 0
M  V30 5146 C 487.541 -1.7321 1.05481 0
M  V30 5147 C 487.874 -1.89852 -0.408635 0
M  V30 5148 O 487.149 -1.44416 -1.30285 0
M  V30 5149 C 487.432 -3.1357 1.77047 0
M  V30 5150 C 487.285 -3.04555 3.31008 0
M  V30 5151 C 488.604 -4.12812 1.5256 0
M  V30 5152 H 485.723 -0.628697 0.384589 0
M  V30 5153 H 488.365 -1.15258 1.51049 0
M  V30 5154 H 486.515 -3.63046 1.3831 0
M  V30 5155 H 488.187 -2.62674 3.7921 0
M  V30 5156 H 486.43 -2.41278 3.6051 0
M  V30 5157 H 487.101 -4.03894 3.76263 0
M  V30 5158 H 489.577 -3.72106 1.86215 0
M  V30 5159 H 488.453 -5.09132 2.05124 0
M  V30 5160 H 488.714 -4.39711 0.458936 0
M  V30 5161 N 487.773 -1.03688 -1.18687 0
M  V30 5162 C 488.72 -0.624624 -2.22187 0
M  V30 5163 C 489.69 0.365636 -1.62026 0
M  V30 5164 O 490.875 0.260481 -1.89014 0
M  V30 5165 C 488.015 0.0101738 -3.45099 0
M  V30 5166 C 487.128 -1.02709 -4.19613 0
M  V30 5167 C 486.263 -0.361213 -5.2997 0
M  V30 5168 C 485.302 -1.38384 -5.96252 0
M  V30 5169 N 484.439 -0.743196 -6.98155 0
M  V30 5170 H 489.279 -1.51176 -2.56807 0
M  V30 5171 H 486.816 -0.75636 -1.26165 0
M  V30 5172 H 488.774 0.395528 -4.15321 0
M  V30 5173 H 487.404 0.860848 -3.1111 0
M  V30 5174 H 486.456 -1.53043 -3.48256 0
M  V30 5175 H 487.768 -1.80398 -4.65036 0
M  V30 5176 H 486.922 0.0785537 -6.06649 0
M  V30 5177 H 485.661 0.447799 -4.8564 0
M  V30 5178 H 484.666 -1.83378 -5.18317 0
M  V30 5179 H 485.891 -2.19448 -6.42666 0
M  V30 5180 H 483.837 0.0455789 -6.55984 0
M  V30 5181 H 483.754 -1.45784 -7.41811 0
M  V30 5182 H 485.022 -0.327698 -7.78811 0
M  V30 5183 N 489.251 1.34841 -0.815825 0
M  V30 5184 C 490.161 2.33425 -0.234462 0
M  V30 5185 C 491.177 1.62295 0.627413 0
M  V30 5186 O 492.353 1.94109 0.536987 0
M  V30 5187 C 489.418 3.41471 0.599849 0
M  V30 5188 C 488.479 4.28362 -0.283596 0
M  V30 5189 C 487.712 5.31248 0.51099 0
M  V30 5190 O 487.935 5.43056 1.7449 0
M  V30 5191 O 486.869 6.01812 -0.10297 0
M  V30 5192 H 490.695 2.84962 -1.05024 0
M  V30 5193 H 488.28 1.37774 -0.577809 0
M  V30 5194 H 490.162 4.07464 1.07475 0
M  V30 5195 H 488.837 2.9219 1.39308 0
M  V30 5196 H 487.744 3.65318 -0.805836 0
M  V30 5197 H 489.077 4.81066 -1.041 0
M  V30 5198 N 490.729 0.570148 1.46925 0
M  V30 5199 C 491.692 -0.159933 2.28641 0
M  V30 5200 C 492.692 -0.830638 1.37685 0
M  V30 5201 O 493.882 -0.684516 1.60187 0
M  V30 5202 C 491.014 -1.2354 3.17727 0
M  V30 5203 H 492.207 0.558035 2.94662 0
M  V30 5204 H 489.76 0.327603 1.52828 0
M  V30 5205 H 490.495 -1.98535 2.56426 0
M  V30 5206 H 490.28 -0.759125 3.84681 0
M  V30 5207 H 491.77 -1.74782 3.79264 0
M  V30 5208 N 492.207 -1.54576 0.307264 0
M  V30 5209 C 493.455 -1.99867 -0.299574 0
M  V30 5210 C 493.776 -1.19714 -1.53927 0
M  V30 5211 O 493.046 -0.29472 -1.9367 0
M  V30 5212 H 491.626 -0.738299 -0.113683 0
M  V30 5213 H 494.288 -1.9032 0.420042 0
M  V30 5214 H 493.384 -3.06901 -0.567283 0
M  V30 5215 N 493.685 -0.035106 -1.57561 0
M  V30 5216 C 494.934 0.641604 -1.91223 0
M  V30 5217 C 495.247 1.72944 -0.913761 0
M  V30 5218 O 496.453 2.46321 -1.14185 0
M  V30 5219 C 494.909 1.19249 -3.3957 0
M  V30 5220 C 494.517 0.137616 -4.47789 0
M  V30 5221 C 496.261 1.84537 -3.82291 0
M  V30 5222 C 494.168 0.700478 -5.87237 0
M  V30 5223 H 493.098 0.243417 -0.713627 0
M  V30 5224 H 495.749 -0.101382 -1.8322 0
M  V30 5225 H 494.131 1.98728 -3.42525 0
M  V30 5226 H 495.305 -0.635153 -4.56402 0
M  V30 5227 H 493.62 -0.416855 -4.14308 0
M  V30 5228 H 496.217 2.27616 -4.83834 0
M  V30 5229 H 496.56 2.69054 -3.17672 0
M  V30 5230 H 497.093 1.11739 -3.81784 0
M  V30 5231 H 493.832 -0.106693 -6.55413 0
M  V30 5232 H 493.352 1.4416 -5.82218 0
M  V30 5233 H 495.031 1.18837 -6.35993 0
M  V30 5234 N 495.163 1.55791 0.238111 0
M  V30 5235 C 496.073 1.94196 1.31625 0
M  V30 5236 C 497.089 0.843545 1.52185 0
M  V30 5237 O 498.265 1.1457 1.65637 0
M  V30 5238 C 495.33 2.2365 2.64918 0
M  V30 5239 C 494.391 3.46971 2.52804 0
M  V30 5240 C 493.624 3.7501 3.79741 0
M  V30 5241 O 493.847 3.04982 4.82019 0
M  V30 5242 O 492.781 4.68525 3.77846 0
M  V30 5243 H 496.607 2.86044 1.02043 0
M  V30 5244 H 494.192 1.42786 0.439603 0
M  V30 5245 H 496.074 2.43863 3.4367 0
M  V30 5246 H 494.749 1.34979 2.94215 0
M  V30 5247 H 493.656 3.32055 1.72309 0
M  V30 5248 H 494.989 4.35971 2.28451 0
M  V30 5249 N 496.642 -0.504142 1.49319 0
M  V30 5250 C 497.891 -1.25507 1.57895 0
M  V30 5251 C 498.204 -1.93735 0.269433 0
M  V30 5252 O 499.41 -2.70492 0.233706 0
M  V30 5253 C 497.866 -2.27869 2.78574 0
M  V30 5254 C 497.474 -1.65594 4.16272 0
M  V30 5255 C 499.218 -3.0381 2.96479 0
M  V30 5256 C 497.125 -2.66048 5.28178 0
M  V30 5257 H 496.055 -0.47212 0.587894 0
M  V30 5258 H 498.706 -0.52931 1.757 0
M  V30 5259 H 497.088 -3.03594 2.54257 0
M  V30 5260 H 498.262 -0.958826 4.50714 0
M  V30 5261 H 496.577 -1.02055 4.037 0
M  V30 5262 H 499.174 -3.78925 3.77253 0
M  V30 5263 H 499.517 -3.61235 2.06918 0
M  V30 5264 H 500.05 -2.352 3.20821 0
M  V30 5265 H 496.789 -2.13408 6.19788 0
M  V30 5266 H 496.309 -3.34009 4.98195 0
M  V30 5267 H 497.988 -3.28536 5.57381 0
M  V30 5268 N 498.12 -1.38341 -0.754957 0
M  V30 5269 C 499.348 -1.37704 -1.54419 0
M  V30 5270 C 499.763 0.0335243 -1.8877 0
M  V30 5271 O 499.12 0.999773 -1.52679 0
M  V30 5272 C 499.171 -2.23136 -2.84416 0
M  V30 5273 O 498.892 -3.58697 -2.51531 0
M  V30 5274 C 500.393 -2.30664 -3.78562 0
M  V30 5275 H 497.613 -0.471061 -0.477852 0
M  V30 5276 H 500.157 -1.81902 -0.934446 0
M  V30 5277 H 498.312 -1.82403 -3.41772 0
M  V30 5278 H 498.726 -4.03665 -3.34896 0
M  V30 5279 H 500.2 -2.9473 -4.66732 0
M  V30 5280 H 500.677 -1.3199 -4.18898 0
M  V30 5281 H 501.283 -2.71781 -3.27131 0
M  V30 5282 N 499.598 0.982988 -1.23187 0
M  V30 5283 C 500.845 1.72392 -1.06241 0
M  V30 5284 C 501.173 1.9032 0.40108 0
M  V30 5285 O 500.428 1.45084 1.31336 0
M  V30 5286 C 500.727 3.12736 -1.73006 0
M  V30 5287 C 500.393 3.14695 -3.22921 0
M  V30 5288 C 499.055 3.14937 -3.63824 0
M  V30 5289 C 501.407 3.10211 -4.1883 0
M  V30 5290 C 498.735 3.08408 -4.99101 0
M  V30 5291 C 501.087 3.05224 -5.54095 0
M  V30 5292 C 499.751 3.03787 -5.94365 0
M  V30 5293 H 499.021 0.630829 -0.388762 0
M  V30 5294 H 501.668 1.15053 -1.53085 0
M  V30 5295 H 499.973 3.73446 -1.18514 0
M  V30 5296 H 501.67 3.68828 -1.57374 0
M  V30 5297 H 498.26 3.15262 -2.90358 0
M  V30 5298 H 502.444 3.09166 -3.8824 0
M  V30 5299 H 497.7 3.05646 -5.29519 0
M  V30 5300 H 501.874 3.00712 -6.28128 0
M  V30 5301 H 499.501 2.98483 -6.99151 0
M  V30 5302 N 501.076 1.04316 1.18135 0
M  V30 5303 C 502.492 0.762858 1.40188 0
M  V30 5304 C 502.692 -0.646547 1.90846 0
M  V30 5305 O 501.748 -1.41036 2.0944 0
M  V30 5306 C 503.061 1.81106 2.40044 0
M  V30 5307 C 504.609 1.83226 2.53766 0
M  V30 5308 C 505.084 2.87044 3.56889 0
M  V30 5309 N 506.575 2.85951 3.64398 0
M  V30 5310 C 507.31 3.62932 4.43923 0
M  V30 5311 N 506.806 4.49672 5.27036 0
M  V30 5312 N 508.599 3.51411 4.38711 0
M  V30 5313 H 500.75 1.95264 0.835805 0
M  V30 5314 H 503.013 0.845017 0.429709 0
M  V30 5315 H 502.719 2.82214 2.09876 0
M  V30 5316 H 502.593 1.64529 3.39426 0
M  V30 5317 H 504.98 0.827869 2.8325 0
M  V30 5318 H 505.061 2.03879 1.54489 0
M  V30 5319 H 504.705 3.87663 3.28145 0
M  V30 5320 H 504.635 2.63645 4.5585 0
M  V30 5321 H 507.126 2.23051 3.05052 0
M  V30 5322 H 507.439 5.05116 5.84874 0
M  V30 5323 H 505.784 4.53738 5.26447 0
M  V30 5324 H 508.975 2.83047 3.72829 0
M  V30 5325 H 509.148 4.11654 5.00445 0
M  V30 5326 N 502.554 -1.34406 0.822964 0
M  V30 5327 C 503.486 -2.28305 0.202375 0
M  V30 5328 C 504.499 -1.5103 -0.60777 0
M  V30 5329 O 505.688 -1.73057 -0.437444 0
M  V30 5330 C 502.788 -3.30836 -0.734911 0
M  V30 5331 C 501.961 -4.37388 0.0324177 0
M  V30 5332 C 501.02 -5.1968 -0.825803 0
M  V30 5333 O 500.046 -5.68556 -0.270771 0
M  V30 5334 N 501.248 -5.39393 -2.14558 0
M  V30 5335 H 504.013 -2.82201 1.00909 0
M  V30 5336 H 501.574 -1.4693 0.67993 0
M  V30 5337 H 503.566 -3.82786 -1.31365 0
M  V30 5338 H 502.136 -2.77334 -1.44238 0
M  V30 5339 H 501.356 -3.86152 0.792469 0
M  V30 5340 H 502.644 -5.05702 0.560633 0
M  V30 5341 H 502.042 -5.01357 -2.62025 0
M  V30 5342 H 500.599 -5.94461 -2.67318 0
M  V30 5343 N 504.032 -0.577932 -1.46621 0
M  V30 5344 C 505.257 -0.0652536 -2.07297 0
M  V30 5345 C 505.682 1.22828 -1.4246 0
M  V30 5346 O 505.04 1.74075 -0.506718 0
M  V30 5347 C 505.088 0.0920589 -3.60482 0
M  V30 5348 O 504.192 1.14972 -3.96049 0
M  V30 5349 H 503.533 -0.06065 -0.661224 0
M  V30 5350 H 506.063 -0.799515 -1.88332 0
M  V30 5351 H 506.073 0.299741 -4.06897 0
M  V30 5352 H 504.748 -0.852612 -4.07067 0
M  V30 5353 H 503.325 0.920879 -3.61351 0
M  V30 5354 N 505.51 1.54411 -0.315457 0
M  V30 5355 C 506.757 2.00419 0.289543 0
M  V30 5356 C 507.085 1.20373 1.52776 0
M  V30 5357 O 506.34 0.271769 1.93804 0
M  V30 5358 C 506.639 3.50936 0.676652 0
M  V30 5359 C 506.305 4.48532 -0.461472 0
M  V30 5360 C 504.967 4.74936 -0.773879 0
M  V30 5361 C 507.319 5.06567 -1.22637 0
M  V30 5362 C 504.647 5.56634 -1.85405 0
M  V30 5363 C 506.999 5.89441 -2.29657 0
M  V30 5364 C 505.663 6.1415 -2.61488 0
M  V30 5365 H 504.933 0.733386 0.105951 0
M  V30 5366 H 507.58 1.86434 -0.437554 0
M  V30 5367 H 505.885 3.62606 1.48405 0
M  V30 5368 H 507.582 3.83971 1.15618 0
M  V30 5369 H 504.172 4.28096 -0.207893 0
M  V30 5370 H 508.356 4.86157 -0.998271 0
M  V30 5371 H 503.612 5.74012 -2.10523 0
M  V30 5372 H 507.786 6.33432 -2.89374 0
M  V30 5373 H 505.413 6.77245 -3.45317 0
M  V30 5374 N 506.988 0.0434614 1.5754 0
M  V30 5375 C 508.235 -0.632035 1.92384 0
M  V30 5376 C 508.563 -1.71304 0.921157 0
M  V30 5377 O 507.818 -1.95583 -0.067744 0
M  V30 5378 C 508.117 -1.2738 3.3393 0
M  V30 5379 C 507.783 -0.321757 4.49751 0
M  V30 5380 C 506.445 -0.0597611 4.81163 0
M  V30 5381 C 508.797 0.331158 5.20147 0
M  V30 5382 C 506.125 0.862715 5.80322 0
M  V30 5383 C 508.477 1.24178 6.20292 0
M  V30 5384 C 507.141 1.51252 6.50138 0
M  V30 5385 H 506.411 -0.231278 0.703983 0
M  V30 5386 H 509.058 0.108294 1.91194 0
M  V30 5387 H 507.363 -2.08921 3.3145 0
M  V30 5388 H 509.06 -1.80326 3.58167 0
M  V30 5389 H 505.65 -0.53614 4.25233 0
M  V30 5390 H 509.834 0.141826 4.96097 0
M  V30 5391 H 505.09 1.08003 6.01785 0
M  V30 5392 H 509.264 1.75381 6.73954 0
M  V30 5393 H 506.891 2.22897 7.26788 0
M  V30 5394 N 508.466 -1.55915 -0.229846 0
M  V30 5395 C 509.691 -1.8296 -0.976743 0
M  V30 5396 C 510.116 -0.622735 -1.77493 0
M  V30 5397 O 509.474 0.428431 -1.76165 0
M  V30 5398 C 509.522 -3.07916 -1.8767 0
M  V30 5399 O 508.626 -2.86028 -2.97088 0
M  V30 5400 H 507.967 -0.603453 -0.277021 0
M  V30 5401 H 510.497 -2.0312 -0.245669 0
M  V30 5402 H 510.507 -3.37802 -2.2881 0
M  V30 5403 H 509.182 -3.95389 -1.28996 0
M  V30 5404 H 507.759 -2.67355 -2.59954 0
M  V30 5405 N 509.944 0.496216 -1.49584 0
M  V30 5406 C 511.221 1.25755 -1.49816 0
M  V30 5407 C 511.601 2.09859 -0.228572 0
M  V30 5408 O 510.949 2.14449 0.788908 0
M  V30 5409 C 511.159 2.11017 -2.7798 0
M  V30 5410 C 512.507 2.70047 -3.27658 0
M  V30 5411 O 513.531 2.21281 -2.79129 0
M  V30 5412 O 512.39 3.58834 -4.1219 0
M  V30 5413 H 509.484 0.569322 -0.599834 0
M  V30 5414 H 512.03 0.510094 -1.61852 0
M  V30 5415 H 510.802 1.48879 -3.61871 0
M  V30 5416 H 510.425 2.92947 -2.68827 0
M  V30 5417 N 511.423 1.38739 0.74761 0
M  V30 5418 C 512.834 1.31507 1.32524 0
M  V30 5419 C 513.185 -0.0263963 1.96182 0
M  V30 5420 O 512.31 -0.92849 1.95469 0
M  V30 5421 C 512.905 2.38162 2.40966 0
M  V30 5422 C 511.464 2.34489 2.94434 0
M  V30 5423 C 510.611 2.20712 1.67873 0
M  V30 5424 H 513.562 1.4901 0.546043 0
M  V30 5425 H 513.583 2.04222 3.21051 0
M  V30 5426 H 513.095 3.35783 1.94605 0
M  V30 5427 H 511.196 1.40467 3.45108 0
M  V30 5428 H 511.309 3.28861 3.48407 0
M  V30 5429 H 509.673 1.67667 1.91729 0
M  V30 5430 H 510.456 3.20285 1.23582 0
M  V30 5431 N 512.901 -0.976442 1.23707 0
M  V30 5432 C 513.864 -2.0511 1.02287 0
M  V30 5433 C 514.864 -1.60791 -0.0167195 0
M  V30 5434 O 516.054 -1.72761 0.223408 0
M  V30 5435 C 513.186 -3.36458 0.548507 0
M  V30 5436 H 514.379 -2.25545 1.9766 0
M  V30 5437 H 511.932 -1.15042 1.05806 0
M  V30 5438 H 512.667 -3.21713 -0.408818 0
M  V30 5439 H 512.452 -3.69967 1.29874 0
M  V30 5440 H 513.942 -4.15489 0.419406 0
M  V30 5441 N 514.379 -1.04941 -1.1758 0
M  V30 5442 C 515.625 -0.759112 -1.88057 0
M  V30 5443 C 515.958 0.711918 -1.8068 0
M  V30 5444 O 515.233 1.52035 -1.21308 0
M  V30 5445 C 515.516 -1.237 -3.38187 0
M  V30 5446 C 515.369 -2.77078 -3.54327 0
M  V30 5447 C 516.688 -0.834014 -4.32125 0
M  V30 5448 H 513.807 -0.277237 -0.682868 0
M  V30 5449 H 516.449 -1.30296 -1.38286 0
M  V30 5450 H 514.599 -0.774337 -3.80705 0
M  V30 5451 H 516.271 -3.31449 -3.20842 0
M  V30 5452 H 514.514 -3.16477 -2.96689 0
M  V30 5453 H 515.185 -3.05577 -4.59703 0
M  V30 5454 H 517.661 -1.23228 -3.97434 0
M  V30 5455 H 516.537 -1.19603 -5.35711 0
M  V30 5456 H 516.798 0.262195 -4.41322 0
M  V30 5457 N 515.857 1.33968 -0.830081 0
M  V30 5458 C 517.268 1.80439 -0.479455 0
M  V30 5459 C 517.619 1.68756 1.00079 0
M  V30 5460 O 516.744 1.23171 1.77927 0
M  V30 5461 C 517.339 3.27611 -0.863505 0
M  V30 5462 C 515.898 3.72133 -0.565145 0
M  V30 5463 C 515.045 2.55549 -1.07657 0
M  V30 5464 H 517.996 1.21614 -1.0196 0
M  V30 5465 H 518.017 3.8012 -0.170083 0
M  V30 5466 H 517.529 3.36082 -1.94089 0
M  V30 5467 H 515.63 3.69196 0.502536 0
M  V30 5468 H 515.743 4.65963 -1.11422 0
M  V30 5469 H 514.107 2.49788 -0.497807 0
M  V30 5470 H 514.89 2.66786 -2.16055 0
M  V30 5471 N 517.335 0.585699 1.46312 0
M  V30 5472 C 518.581 0.0725284 2.0267 0
M  V30 5473 C 518.914 -1.28523 1.45586 0
M  V30 5474 O 518.189 -1.84283 0.622101 0
M  V30 5475 C 518.472 0.0099788 3.60099 0
M  V30 5476 C 518.325 1.39685 4.27561 0
M  V30 5477 C 519.644 -0.689117 4.34671 0
M  V30 5478 H 516.763 0.0278307 0.736474 0
M  V30 5479 H 519.405 0.753472 1.74421 0
M  V30 5480 H 517.555 -0.56992 3.84297 0
M  V30 5481 H 519.227 2.02215 4.14617 0
M  V30 5482 H 517.47 1.96374 3.86807 0
M  V30 5483 H 518.141 1.30553 5.36339 0
M  V30 5484 H 520.617 -0.196446 4.15636 0
M  V30 5485 H 519.493 -0.701921 5.44393 0
M  V30 5486 H 519.754 -1.75101 4.05946 0
M  V30 5487 N 518.813 -1.54241 0.323641 0
M  V30 5488 C 519.76 -2.24339 -0.542277 0
M  V30 5489 C 520.73 -1.23421 -1.11159 0
M  V30 5490 O 521.915 -1.52104 -1.15192 0
M  V30 5491 C 519.055 -3.00479 -1.69725 0
M  V30 5492 C 518.168 -4.16214 -1.15716 0
M  V30 5493 C 517.303 -4.79884 -2.27783 0
M  V30 5494 C 516.342 -5.87722 -1.71023 0
M  V30 5495 N 515.479 -6.45254 -2.76752 0
M  V30 5496 H 520.319 -2.97935 0.0620613 0
M  V30 5497 H 517.856 -1.47039 0.0423993 0
M  V30 5498 H 519.814 -3.42869 -2.3769 0
M  V30 5499 H 518.444 -2.29217 -2.27288 0
M  V30 5500 H 517.496 -3.78605 -0.369063 0
M  V30 5501 H 518.808 -4.93838 -0.701832 0
M  V30 5502 H 517.962 -5.25243 -3.03651 0
M  V30 5503 H 516.701 -4.01641 -2.76652 0
M  V30 5504 H 515.706 -5.41765 -0.936518 0
M  V30 5505 H 516.931 -6.67863 -1.2303 0
M  V30 5506 H 514.877 -5.69884 -3.24912 0
M  V30 5507 H 514.794 -7.18292 -2.35782 0
M  V30 5508 H 516.062 -6.95269 -3.5245 0
M  V30 5509 N 520.291 -0.0518155 -1.57515 0
M  V30 5510 C 521.239 0.940195 -2.12751 0
M  V30 5511 C 522.233 1.3218 -1.05948 0
M  V30 5512 O 523.439 1.30138 -1.24355 0
M  V30 5513 H 519.814 0.321066 -0.680015 0
M  V30 5514 H 521.785 0.449217 -2.94999 0
M  V30 5515 C 520.534 2.2055 -2.68799 0
M  V30 5516 H 519.857 1.92066 -3.50643 0
M  V30 5517 H 521.297 2.88119 -3.11068 0
M  V30 5518 C 519.756 2.95061 -1.62605 0
M  V30 5519 O 520.286 3.88025 -1.03921 0
M  V30 5520 N 518.492 2.57804 -1.34111 0
M  V30 5521 H 518.039 1.82281 -1.8202 0
M  V30 5522 H 517.997 3.07964 -0.632872 0
M  V30 5523 N 521.769 1.56035 0.221574 0
M  V30 5524 C 522.699 1.95434 1.2778 0
M  V30 5525 C 523.68 0.822564 1.48889 0
M  V30 5526 O 524.865 1.08486 1.61072 0
M  V30 5527 C 521.995 2.27102 2.62759 0
M  V30 5528 C 520.949 3.4277 2.56306 0
M  V30 5529 C 520.275 3.60043 3.95314 0
M  V30 5530 C 521.575 4.77742 2.11093 0
M  V30 5531 H 523.269 2.83912 0.950504 0
M  V30 5532 H 520.815 1.36596 0.455791 0
M  V30 5533 H 522.768 2.53256 3.36807 0
M  V30 5534 H 521.492 1.35478 2.97176 0
M  V30 5535 H 520.151 3.16664 1.84715 0
M  V30 5536 H 519.799 2.65794 4.27039 0
M  V30 5537 H 519.499 4.37841 3.91879 0
M  V30 5538 H 521.023 3.88545 4.71025 0
M  V30 5539 H 522.437 5.03102 2.74885 0
M  V30 5540 H 520.834 5.58823 2.18716 0
M  V30 5541 H 521.904 4.731 1.06321 0
M  V30 5542 N 523.247 -0.488276 1.49845 0
M  V30 5543 C 524.194 -1.58836 1.67451 0
M  V30 5544 C 525.164 -1.57886 0.515857 0
M  V30 5545 O 526.349 -1.75679 0.744403 0
M  V30 5546 C 523.489 -2.96915 1.75885 0
M  V30 5547 C 522.602 -3.07784 3.03138 0
M  V30 5548 C 521.737 -4.36673 3.02473 0
M  V30 5549 C 520.776 -4.41222 4.24252 0
M  V30 5550 N 519.913 -5.61557 4.21424 0
M  V30 5551 H 524.753 -1.43131 2.61376 0
M  V30 5552 H 522.29 -0.696186 1.29583 0
M  V30 5553 H 524.248 -3.76965 1.78755 0
M  V30 5554 H 522.878 -3.11295 0.85414 0
M  V30 5555 H 521.93 -2.20717 3.09819 0
M  V30 5556 H 523.242 -3.07005 3.93128 0
M  V30 5557 H 522.396 -5.25055 3.03977 0
M  V30 5558 H 521.135 -4.40037 2.10283 0
M  V30 5559 H 520.14 -3.5124 4.22978 0
M  V30 5560 H 521.365 -4.39564 5.17649 0
M  V30 5561 H 519.311 -5.65738 3.32078 0
M  V30 5562 H 519.228 -5.62447 5.05163 0
M  V30 5563 H 520.496 -6.52111 4.2705 0
M  V30 5564 N 524.725 -1.39134 -0.740242 0
M  V30 5565 C 526.141 -1.20623 -1.0451 0
M  V30 5566 C 526.341 -0.0641651 -2.01398 0
M  V30 5567 O 525.397 0.585843 -2.4561 0
M  V30 5568 C 526.71 -2.53815 -1.6124 0
M  V30 5569 C 528.258 -2.60615 -1.73346 0
M  V30 5570 C 528.733 -3.94015 -2.33486 0
M  V30 5571 N 530.224 -3.95627 -2.40902 0
M  V30 5572 C 530.959 -4.95616 -2.88361 0
M  V30 5573 N 530.455 -6.06003 -3.35756 0
M  V30 5574 N 532.248 -4.82998 -2.87523 0
M  V30 5575 H 524.399 -2.12176 -0.0975576 0
M  V30 5576 H 526.662 -0.942066 -0.105904 0
M  V30 5577 H 526.368 -3.37911 -0.975144 0
M  V30 5578 H 526.242 -2.73162 -2.6012 0
M  V30 5579 H 528.629 -1.76906 -2.36195 0
M  V30 5580 H 528.71 -2.45123 -0.731336 0
M  V30 5581 H 528.354 -4.78153 -1.71267 0
M  V30 5582 H 528.284 -4.06825 -3.34366 0
M  V30 5583 H 530.775 -3.15903 -2.07398 0
M  V30 5584 H 531.088 -6.78215 -3.70464 0
M  V30 5585 H 529.433 -6.09604 -3.33778 0
M  V30 5586 H 532.624 -3.95866 -2.49816 0
M  V30 5587 H 532.797 -5.61072 -3.24196 0
M  V30 5588 N 526.204 0.969867 -1.24223 0
M  V30 5589 C 527.136 2.0669 -0.99055 0
M  V30 5590 C 528.149 1.62753 0.0392222 0
M  V30 5591 O 529.338 1.77403 -0.197561 0
M  V30 5592 C 526.438 3.35589 -0.472594 0
M  V30 5593 C 525.611 4.08444 -1.56499 0
M  V30 5594 C 524.67 5.15616 -1.05007 0
M  V30 5595 O 523.696 5.41911 -1.7413 0
M  V30 5596 N 524.898 5.80383 0.116641 0
M  V30 5597 H 527.663 2.28855 -1.93508 0
M  V30 5598 H 525.224 1.13733 -1.15223 0
M  V30 5599 H 527.216 4.04542 -0.112919 0
M  V30 5600 H 525.786 3.10311 0.377617 0
M  V30 5601 H 525.006 3.33798 -2.09696 0
M  V30 5602 H 526.294 4.53882 -2.29932 0
M  V30 5603 H 525.692 5.6142 0.694589 0
M  V30 5604 H 524.249 6.50462 0.417483 0
M  V30 5605 N 527.682 1.05563 1.17022 0
M  V30 5606 C 528.959 0.68165 1.83338 0
M  V30 5607 C 529.339 -0.837665 1.93769 0
M  V30 5608 O 528.687 -1.74507 1.47511 0
M  V30 5609 C 528.897 1.375 3.20772 0
M  V30 5610 C 530.245 1.51545 3.96635 0
M  V30 5611 O 531.269 1.33431 3.30264 0
M  V30 5612 O 530.128 1.812 5.15586 0
M  V30 5613 H 527.222 0.240412 0.791285 0
M  V30 5614 H 529.768 1.15545 1.24288 0
M  V30 5615 H 528.54 2.41135 3.08171 0
M  V30 5616 H 528.163 0.890798 3.87493 0
M  V30 5617 N 529.16 -1.33526 0.837174 0
M  V30 5618 C 530.123 -2.27551 0.274421 0
M  V30 5619 C 531.123 -1.50886 -0.555881 0
M  V30 5620 O 532.313 -1.70227 -0.369918 0
M  V30 5621 C 529.445 -3.35332 -0.613605 0
M  V30 5622 H 530.638 -2.78837 1.10408 0
M  V30 5623 H 528.191 -1.439 0.610126 0
M  V30 5624 H 528.926 -2.89285 -1.46577 0
M  V30 5625 H 528.711 -3.92095 -0.0195341 0
M  V30 5626 H 530.201 -4.05433 -1.00068 0
M  V30 5627 N 530.638 -0.59345 -1.46 0
M  V30 5628 C 532.054 -0.255965 -1.57534 0
M  V30 5629 C 532.254 1.24167 -1.58697 0
M  V30 5630 O 531.31 2.02398 -1.50968 0
M  V30 5631 C 532.623 -0.91466 -2.86451 0
M  V30 5632 C 534.171 -0.889253 -3.00102 0
M  V30 5633 C 534.646 -1.52769 -4.3177 0
M  V30 5634 N 536.137 -1.49253 -4.38495 0
M  V30 5635 C 536.872 -1.9558 -5.39014 0
M  V30 5636 N 536.368 -2.49929 -6.46148 0
M  V30 5637 N 538.161 -1.86432 -5.30282 0
M  V30 5638 H 530.312 -1.56604 -1.43489 0
M  V30 5639 H 532.575 -0.655207 -0.685133 0
M  V30 5640 H 532.281 -1.96861 -2.91442 0
M  V30 5641 H 532.155 -0.429356 -3.74748 0
M  V30 5642 H 534.542 0.156111 -2.94687 0
M  V30 5643 H 534.623 -1.41268 -2.13253 0
M  V30 5644 H 534.267 -2.57231 -4.37944 0
M  V30 5645 H 534.197 -0.979398 -5.17412 0
M  V30 5646 H 536.688 -1.09536 -3.61677 0
M  V30 5647 H 537.001 -2.83109 -7.19075 0
M  V30 5648 H 535.346 -2.53961 -6.46938 0
M  V30 5649 H 538.537 -1.43722 -4.4549 0
M  V30 5650 H 538.71 -2.22852 -6.08474 0
M  V30 5651 N 532.116 1.54067 -0.331816 0
M  V30 5652 C 533.365 1.99895 0.269209 0
M  V30 5653 C 533.678 1.22371 1.52593 0
M  V30 5654 O 534.884 1.58618 2.20347 0
M  V30 5655 C 533.34 3.55972 0.530244 0
M  V30 5656 C 532.948 4.4234 -0.709901 0
M  V30 5657 C 534.692 4.10247 1.09077 0
M  V30 5658 C 532.599 5.89905 -0.420312 0
M  V30 5659 H 531.529 0.746741 0.104371 0
M  V30 5660 H 534.18 1.78014 -0.445324 0
M  V30 5661 H 532.562 3.73873 1.30518 0
M  V30 5662 H 533.736 4.36215 -1.48504 0
M  V30 5663 H 532.051 3.98997 -1.19123 0
M  V30 5664 H 534.648 5.18095 1.32219 0
M  V30 5665 H 534.991 3.62739 2.0427 0
M  V30 5666 H 535.524 3.96011 0.376824 0
M  V30 5667 H 532.263 6.41623 -1.34164 0
M  V30 5668 H 531.783 5.98962 0.316962 0
M  V30 5669 H 533.462 6.46991 -0.0331956 0
M  V30 5670 N 533.594 0.0601682 1.57485 0
M  V30 5671 C 534.843 -0.611101 1.9222 0
M  V30 5672 C 535.156 -1.71469 0.941159 0
M  V30 5673 O 536.362 -2.44473 1.18089 0
M  V30 5674 C 534.818 -1.13832 3.41424 0
M  V30 5675 C 534.426 -0.0663596 4.47951 0
M  V30 5676 C 536.17 -1.78432 3.85178 0
M  V30 5677 C 534.077 -0.606965 5.88277 0
M  V30 5678 H 533.007 -0.232033 0.71741 0
M  V30 5679 H 535.658 0.130518 1.83035 0
M  V30 5680 H 534.04 -1.93254 3.45643 0
M  V30 5681 H 535.214 0.707682 4.55333 0
M  V30 5682 H 533.529 0.482715 4.13593 0
M  V30 5683 H 536.126 -2.1989 4.87394 0
M  V30 5684 H 536.469 -2.63966 3.21913 0
M  V30 5685 H 537.002 -1.05651 3.83514 0
M  V30 5686 H 533.741 0.21095 6.5516 0
M  V30 5687 H 533.261 -1.34879 5.84438 0
M  V30 5688 H 534.94 -1.08704 6.37803 0
M  V30 5689 N 535.072 -1.5615 -0.213296 0
M  V30 5690 C 536.318 -1.79812 -0.937849 0
M  V30 5691 C 536.651 -0.631201 -1.83656 0
M  V30 5692 O 535.926 0.369165 -1.90964 0
M  V30 5693 C 536.209 -3.13613 -1.76972 0
M  V30 5694 C 536.062 -4.40766 -0.89695 0
M  V30 5695 C 537.381 -3.43931 -2.7459 0
M  V30 5696 H 534.5 -0.654138 -0.339518 0
M  V30 5697 H 537.142 -1.88877 -0.20623 0
M  V30 5698 H 535.292 -3.06015 -2.39347 0
M  V30 5699 H 536.964 -4.60392 -0.289306 0
M  V30 5700 H 535.207 -4.33326 -0.202756 0
M  V30 5701 H 535.878 -5.30843 -1.51358 0
M  V30 5702 H 538.354 -3.5171 -2.22349 0
M  V30 5703 H 537.23 -4.38706 -3.29891 0
M  V30 5704 H 537.491 -2.6651 -3.52739 0
M  V30 5705 N 536.55 0.480323 -1.50102 0
M  V30 5706 C 537.798 1.23063 -1.60312 0
M  V30 5707 C 538.119 1.92659 -0.301226 0
M  V30 5708 O 537.389 1.83691 0.680753 0
M  V30 5709 H 535.969 0.457231 -0.590719 0
M  V30 5710 H 538.631 0.554893 -1.86834 0
M  V30 5711 H 537.727 1.9835 -2.40964 0
M  V30 5712 N 538.028 1.39524 0.732853 0
M  V30 5713 C 538.958 1.41153 1.86005 0
M  V30 5714 C 539.939 0.274614 1.67869 0
M  V30 5715 O 541.124 0.480745 1.88155 0
M  V30 5716 C 538.254 1.25638 3.23778 0
M  V30 5717 C 537.208 2.36752 3.56556 0
M  V30 5718 C 536.534 2.06326 4.93289 0
M  V30 5719 C 537.834 3.79069 3.5931 0
M  V30 5720 H 539.528 2.35484 1.84899 0
M  V30 5721 H 537.074 1.13348 0.888162 0
M  V30 5722 H 539.027 1.25398 4.0231 0
M  V30 5723 H 537.751 0.277772 3.25417 0
M  V30 5724 H 536.41 2.36213 2.80355 0
M  V30 5725 H 536.058 1.06897 4.9151 0
M  V30 5726 H 535.758 2.80757 5.16187 0
M  V30 5727 H 537.282 2.07739 5.74175 0
M  V30 5728 H 538.696 3.81526 4.27914 0
M  V30 5729 H 537.093 4.52878 3.93728 0
M  V30 5730 H 538.163 4.09893 2.59068 0
M  V30 5731 N 539.506 -0.963266 1.24736 0
M  V30 5732 C 540.753 -1.7068 1.0897 0
M  V30 5733 C 541.081 -1.90934 -0.370751 0
M  V30 5734 O 540.336 -1.47155 -1.29011 0
M  V30 5735 C 540.635 -3.09944 1.7796 0
M  V30 5736 C 540.301 -3.09518 3.27887 0
M  V30 5737 C 538.963 -3.09109 3.68789 0
M  V30 5738 C 541.315 -3.03509 4.23712 0
M  V30 5739 C 538.643 -3.00429 5.03944 0
M  V30 5740 C 540.995 -2.96371 5.5888 0
M  V30 5741 C 539.659 -2.94293 5.99123 0
M  V30 5742 H 538.929 -0.624564 0.398749 0
M  V30 5743 H 541.576 -1.12603 1.54896 0
M  V30 5744 H 539.881 -3.71513 1.2444 0
M  V30 5745 H 541.578 -3.66278 1.63222 0
M  V30 5746 H 538.168 -3.10603 2.95337 0
M  V30 5747 H 542.352 -3.0295 3.93109 0
M  V30 5748 H 537.608 -2.97183 5.34314 0
M  V30 5749 H 541.782 -2.90681 6.32833 0
M  V30 5750 H 539.409 -2.87322 7.03811 0
M  V30 5751 N 540.985 -1.06182 -1.16461 0
M  V30 5752 C 542.215 -0.797425 -1.9059 0
M  V30 5753 C 542.623 0.651845 -1.77616 0
M  V30 5754 O 541.966 1.45788 -1.11766 0
M  V30 5755 C 542.028 -1.11128 -3.41893 0
M  V30 5756 C 541.692 -2.55874 -3.78652 0
M  V30 5757 C 542.689 -3.54104 -3.80665 0
M  V30 5758 C 540.374 -2.91144 -4.09317 0
M  V30 5759 C 542.368 -4.85645 -4.12829 0
M  V30 5760 C 540.055 -4.22885 -4.41148 0
M  V30 5761 C 541.053 -5.19945 -4.42883 0
M  V30 5762 O 540.741 -6.49322 -4.73959 0
M  V30 5763 H 540.473 -0.288709 -0.611247 0
M  V30 5764 H 543.027 -1.41841 -1.4856 0
M  V30 5765 H 541.257 -0.433217 -3.84266 0
M  V30 5766 H 542.946 -0.831306 -3.97296 0
M  V30 5767 H 543.712 -3.28197 -3.57088 0
M  V30 5768 H 539.591 -2.16252 -4.07131 0
M  V30 5769 H 543.135 -5.61398 -4.14099 0
M  V30 5770 H 539.032 -4.48551 -4.6419 0
M  V30 5771 H 539.8 -6.54294 -4.91774 0
M  V30 5772 N 542.463 1.3308 -0.844243 0
M  V30 5773 C 543.373 2.32876 -0.283922 0
M  V30 5774 C 544.389 1.63589 0.592846 0
M  V30 5775 O 545.565 1.95205 0.495693 0
M  V30 5776 C 542.63 3.42667 0.527283 0
M  V30 5777 C 541.691 4.27664 -0.374394 0
M  V30 5778 C 540.924 5.32212 0.39819 0
M  V30 5779 O 541.147 5.46635 1.62932 0
M  V30 5780 O 540.081 6.01458 -0.2306 0
M  V30 5781 H 543.907 2.82671 -1.11045 0
M  V30 5782 H 541.492 1.36518 -0.606903 0
M  V30 5783 H 543.374 4.09652 0.988078 0
M  V30 5784 H 542.049 2.95079 1.33078 0
M  V30 5785 H 540.956 3.63526 -0.883144 0
M  V30 5786 H 542.289 4.78749 -1.1428 0
M  V30 5787 N 543.941 0.601185 1.45683 0
M  V30 5788 C 545.169 0.100054 2.06658 0
M  V30 5789 C 545.584 -1.21285 1.44691 0
M  V30 5790 O 544.941 -1.73735 0.558772 0
M  V30 5791 C 544.992 -0.0528579 3.61461 0
M  V30 5792 O 544.713 1.20809 4.21114 0
M  V30 5793 C 546.214 -0.586193 4.39407 0
M  V30 5794 H 543.434 0.065905 0.667756 0
M  V30 5795 H 545.978 0.827101 1.87028 0
M  V30 5796 H 544.133 -0.730203 3.80456 0
M  V30 5797 H 544.547 1.03368 5.14213 0
M  V30 5798 H 546.021 -0.642297 5.4825 0
M  V30 5799 H 546.498 -1.60713 4.0874 0
M  V30 5800 H 547.104 0.0568935 4.25262 0
M  V30 5801 N 545.419 -1.53889 0.339982 0
M  V30 5802 C 546.329 -2.28604 -0.526988 0
M  V30 5803 C 547.345 -1.33578 -1.11503 0
M  V30 5804 O 548.521 -1.66612 -1.13148 0
M  V30 5805 C 545.586 -3.04164 -1.66389 0
M  V30 5806 C 544.647 -4.14809 -1.10599 0
M  V30 5807 C 543.88 -4.86756 -2.18871 0
M  V30 5808 O 544.103 -4.58343 -3.39526 0
M  V30 5809 O 543.037 -5.73289 -1.83366 0
M  V30 5810 H 546.863 -3.03594 0.0802707 0
M  V30 5811 H 544.448 -1.4903 0.105141 0
M  V30 5812 H 546.33 -3.51427 -2.32544 0
M  V30 5813 H 545.005 -2.32035 -2.25703 0
M  V30 5814 H 543.912 -3.71857 -0.409067 0
M  V30 5815 H 545.245 -4.89029 -0.557771 0
M  V30 5816 N 546.897 -0.0685191 -1.57451 0
M  V30 5817 C 547.86 0.885173 -2.11417 0
M  V30 5818 C 548.86 1.22853 -1.03748 0
M  V30 5819 O 550.05 1.16235 -1.2975 0
M  V30 5820 C 547.182 2.18964 -2.61281 0
M  V30 5821 H 548.375 0.417034 -2.96986 0
M  V30 5822 H 545.928 0.18014 -1.55258 0
M  V30 5823 H 546.663 2.70321 -1.79156 0
M  V30 5824 H 546.448 1.9534 -3.39977 0
M  V30 5825 H 547.938 2.87242 -3.0312 0
M  V30 5826 N 548.375 1.56261 0.205012 0
M  V30 5827 C 549.791 1.49623 0.555433 0
M  V30 5828 C 549.991 0.766719 1.86343 0
M  V30 5829 O 549.047 0.313158 2.50551 0
M  V30 5830 C 550.36 2.94253 0.619347 0
M  V30 5831 C 551.908 3.04868 0.708855 0
M  V30 5832 C 552.383 4.50888 0.803969 0
M  V30 5833 N 553.874 4.54999 0.867758 0
M  V30 5834 C 554.609 5.65284 0.96135 0
M  V30 5835 N 554.105 6.85282 1.01786 0
M  V30 5836 N 555.898 5.53174 0.997771 0
M  V30 5837 H 548.049 2.0211 -0.653094 0
M  V30 5838 H 550.312 0.919333 -0.231366 0
M  V30 5839 H 550.018 3.50643 -0.272458 0
M  V30 5840 H 549.892 3.47063 1.47741 0
M  V30 5841 H 552.279 2.48532 1.5911 0
M  V30 5842 H 552.36 2.55199 -0.175205 0
M  V30 5843 H 552.004 5.07846 -0.0738798 0
M  V30 5844 H 551.934 4.98279 1.70369 0
M  V30 5845 H 554.425 3.68588 0.833735 0
M  V30 5846 H 554.738 7.65081 1.08951 0
M  V30 5847 H 553.083 6.8796 0.986706 0
M  V30 5848 H 556.274 4.5835 0.950392 0
M  V30 5849 H 556.447 6.39151 1.06725 0
M  V30 5850 N 549.853 -0.472356 1.50355 0
M  V30 5851 C 550.8 -1.57051 1.69126 0
M  V30 5852 C 551.77 -1.5733 0.532574 0
M  V30 5853 O 552.955 -1.7488 0.762994 0
M  V30 5854 C 550.095 -2.95033 1.79024 0
M  V30 5855 C 549.208 -3.04552 3.06386 0
M  V30 5856 C 548.343 -4.33441 3.07087 0
M  V30 5857 C 547.382 -4.36697 4.28908 0
M  V30 5858 N 546.519 -5.57056 4.27356 0
M  V30 5859 H 551.359 -1.40351 2.62879 0
M  V30 5860 H 548.896 -0.682403 1.30314 0
M  V30 5861 H 550.854 -3.75048 1.82744 0
M  V30 5862 H 549.484 -3.10371 0.887109 0
M  V30 5863 H 548.536 -2.17419 3.12143 0
M  V30 5864 H 549.848 -3.02818 3.96362 0
M  V30 5865 H 549.002 -5.21801 3.09529 0
M  V30 5866 H 547.741 -4.37782 2.14939 0
M  V30 5867 H 546.746 -3.46734 4.2668 0
M  V30 5868 H 547.971 -4.34049 5.22282 0
M  V30 5869 H 545.917 -5.62184 3.3806 0
M  V30 5870 H 545.834 -5.57058 5.111 0
M  V30 5871 H 547.102 -6.47545 4.33942 0
M  V30 5872 N 551.331 -1.39911 -0.725443 0
M  V30 5873 C 552.577 -1.37858 -1.48738 0
M  V30 5874 C 552.91 0.0224187 -1.94187 0
M  V30 5875 O 552.185 0.989204 -1.67466 0
M  V30 5876 C 552.468 -2.3594 -2.72038 0
M  V30 5877 C 552.321 -3.85023 -2.32546 0
M  V30 5878 C 553.64 -2.31704 -3.74167 0
M  V30 5879 H 550.759 -0.502074 -0.539528 0
M  V30 5880 H 553.401 -1.70974 -0.828728 0
M  V30 5881 H 551.551 -2.0783 -3.28236 0
M  V30 5882 H 553.223 -4.2392 -1.81905 0
M  V30 5883 H 551.466 -4.01334 -1.64661 0
M  V30 5884 H 552.137 -4.49152 -3.20884 0
M  V30 5885 H 554.613 -2.5658 -3.27576 0
M  V30 5886 H 553.489 -3.02395 -4.58092 0
M  V30 5887 H 553.75 -1.3253 -4.21768 0
M  V30 5888 N 552.809 0.956637 -1.25245 0
M  V30 5889 C 554.056 1.701 -1.09874 0
M  V30 5890 C 554.384 1.91128 0.36062 0
M  V30 5891 O 553.639 1.47837 1.28229 0
M  V30 5892 C 553.938 3.08996 -1.79601 0
M  V30 5893 C 553.604 3.07774 -3.29523 0
M  V30 5894 C 552.266 3.07149 -3.70423 0
M  V30 5895 C 554.618 3.01257 -4.25316 0
M  V30 5896 C 551.946 2.97752 -5.0553 0
M  V30 5897 C 554.298 2.93403 -5.60444 0
M  V30 5898 C 552.962 2.91111 -6.00675 0
M  V30 5899 H 552.232 0.62244 -0.402056 0
M  V30 5900 H 554.879 1.1178 -1.55491 0
M  V30 5901 H 553.184 3.70848 -1.26408 0
M  V30 5902 H 554.881 3.65407 -1.65162 0
M  V30 5903 H 551.471 3.09032 -2.9698 0
M  V30 5904 H 555.655 3.00861 -3.9471 0
M  V30 5905 H 550.911 2.94346 -5.35883 0
M  V30 5906 H 555.085 2.87321 -6.34366 0
M  V30 5907 H 552.712 2.83586 -7.05325 0
M  V30 5908 N 554.287 1.06798 1.15896 0
M  V30 5909 C 555.527 0.797041 1.8822 0
M  V30 5910 C 555.891 -0.664549 1.80133 0
M  V30 5911 O 557.092 -1.0503 2.47431 0
M  V30 5912 C 555.363 1.28431 3.33527 0
M  V30 5913 S 556.922 1.14319 4.23647 0
M  V30 5914 H 553.74 0.288988 0.649621 0
M  V30 5915 H 556.342 1.36594 1.39865 0
M  V30 5916 H 555.046 2.34286 3.36954 0
M  V30 5917 H 554.577 0.710371 3.86933 0
M  V30 5918 H 556.592 0.0772467 4.9614 0
M  V30 5919 N 555.766 -1.3263 0.851289 0
M  V30 5920 C 556.676 -2.32722 0.296268 0
M  V30 5921 C 557.692 -1.63901 -0.584162 0
M  V30 5922 O 558.868 -1.95465 -0.485334 0
M  V30 5923 C 555.933 -3.42942 -0.509103 0
M  V30 5924 C 554.994 -4.2746 0.397069 0
M  V30 5925 C 554.227 -5.32416 -0.36996 0
M  V30 5926 O 554.45 -5.47491 -1.6003 0
M  V30 5927 O 553.384 -6.01327 0.262493 0
M  V30 5928 H 557.21 -2.82078 1.12543 0
M  V30 5929 H 554.795 -1.36194 0.614135 0
M  V30 5930 H 556.677 -4.1017 -0.96634 0
M  V30 5931 H 555.352 -2.95781 -1.31512 0
M  V30 5932 H 554.259 -3.63053 0.902411 0
M  V30 5933 H 555.592 -4.78136 1.16818 0
M  V30 5934 N 557.244 -0.608902 -1.45362 0
M  V30 5935 C 558.49 -0.104762 -2.02529 0
M  V30 5936 C 558.823 1.26191 -1.47613 0
M  V30 5937 O 558.098 1.8327 -0.65134 0
M  V30 5938 C 558.381 -0.0672661 -3.60037 0
M  V30 5939 C 558.234 -1.4647 -4.25284 0
M  V30 5940 C 559.553 0.619877 -4.35713 0
M  V30 5941 H 556.672 -0.0395438 -0.735938 0
M  V30 5942 H 559.314 -0.781126 -1.73201 0
M  V30 5943 H 557.464 0.50871 -3.85155 0
M  V30 5944 H 559.136 -2.08785 -4.11347 0
M  V30 5945 H 557.379 -2.02502 -3.83634 0
M  V30 5946 H 558.05 -1.39069 -5.34195 0
M  V30 5947 H 560.526 0.130297 -4.15896 0
M  V30 5948 H 559.402 0.615224 -5.45441 0
M  V30 5949 H 559.663 1.68621 -4.0868 0
M  V30 5950 N 558.722 1.53707 -0.348139 0
M  V30 5951 C 559.952 2.05108 0.247864 0
M  V30 5952 C 560.36 1.22252 1.44399 0
M  V30 5953 O 559.703 0.251853 1.81965 0
M  V30 5954 C 559.765 3.52171 0.722187 0
M  V30 5955 C 559.429 4.5562 -0.354902 0
M  V30 5956 C 560.426 5.05883 -1.19911 0
M  V30 5957 C 558.111 4.99703 -0.510145 0
M  V30 5958 C 560.105 5.98814 -2.18406 0
M  V30 5959 C 557.792 5.92443 -1.49848 0
M  V30 5960 C 558.79 6.41887 -2.33389 0
M  V30 5961 O 558.478 7.32802 -3.3054 0
M  V30 5962 H 558.21 0.674086 0.0508296 0
M  V30 5963 H 560.764 1.99229 -0.49968 0
M  V30 5964 H 558.994 3.55529 1.52105 0
M  V30 5965 H 560.683 3.8652 1.23925 0
M  V30 5966 H 561.449 4.72586 -1.09028 0
M  V30 5967 H 557.328 4.60816 0.130274 0
M  V30 5968 H 560.872 6.3733 -2.83649 0
M  V30 5969 H 556.769 6.25155 -1.60786 0
M  V30 5970 H 557.537 7.50749 -3.26064 0
M  V30 5971 N 560.2 0.0768682 1.57412 0
M  V30 5972 C 561.147 -0.888577 2.13009 0
M  V30 5973 C 562.117 -1.29198 1.0439 0
M  V30 5974 O 563.302 -1.37694 1.3208 0
M  V30 5975 C 560.442 -2.14899 2.70023 0
M  V30 5976 C 559.555 -1.79777 3.92816 0
M  V30 5977 C 558.69 -3.00467 4.38056 0
M  V30 5978 C 557.729 -2.61385 5.53484 0
M  V30 5979 N 556.866 -3.74851 5.93659 0
M  V30 5980 H 561.706 -0.407593 2.95199 0
M  V30 5981 H 559.243 -0.189534 1.45874 0
M  V30 5982 H 561.201 -2.88688 3.0119 0
M  V30 5983 H 559.831 -2.60529 1.9059 0
M  V30 5984 H 558.883 -0.960301 3.68079 0
M  V30 5985 H 560.195 -1.47027 4.76639 0
M  V30 5986 H 559.349 -3.82529 4.7091 0
M  V30 5987 H 558.088 -3.36413 3.53097 0
M  V30 5988 H 557.093 -1.77746 5.20275 0
M  V30 5989 H 558.318 -2.26603 6.40178 0
M  V30 5990 H 556.264 -4.1055 5.11649 0
M  V30 5991 H 556.181 -3.45887 6.72234 0
M  V30 5992 H 557.449 -4.57477 6.31138 0
M  V30 5993 N 561.678 -1.56367 -0.196722 0
M  V30 5994 C 562.588 -1.97617 -1.2643 0
M  V30 5995 C 563.604 -0.883598 -1.49895 0
M  V30 5996 O 564.78 -1.18921 -1.62541 0
M  V30 5997 C 561.845 -2.30595 -2.58895 0
M  V30 5998 C 560.906 -3.53551 -2.43516 0
M  V30 5999 C 560.139 -3.84946 -3.69665 0
M  V30 6000 O 560.362 -3.17655 -4.73763 0
M  V30 6001 O 559.296 -4.78379 -3.65291 0
M  V30 6002 H 563.122 -2.88648 -0.944233 0
M  V30 6003 H 560.707 -1.43901 -0.401592 0
M  V30 6004 H 562.589 -2.52889 -3.37083 0
M  V30 6005 H 561.264 -1.42732 -2.90533 0
M  V30 6006 H 560.171 -3.36507 -1.63445 0
M  V30 6007 H 561.504 -4.41875 -2.16812 0
M  V30 6008 N 563.156 0.464375 -1.50603 0
M  V30 6009 C 564.572 0.798684 -1.38178 0
M  V30 6010 C 564.772 1.96568 -0.44308 0
M  V30 6011 O 563.828 2.52252 0.111814 0
M  V30 6012 C 565.141 1.10444 -2.79683 0
M  V30 6013 C 566.689 1.2105 -2.88645 0
M  V30 6014 C 567.164 1.54934 -4.30998 0
M  V30 6015 N 568.655 1.61913 -4.3398 0
M  V30 6016 C 569.39 1.8965 -5.41129 0
M  V30 6017 N 568.886 2.15361 -6.58477 0
M  V30 6018 N 570.679 1.91207 -5.28579 0
M  V30 6019 H 562.83 -0.304603 -2.10204 0
M  V30 6020 H 565.093 -0.0737804 -0.945125 0
M  V30 6021 H 564.799 0.319934 -3.50242 0
M  V30 6022 H 564.673 2.03896 -3.17342 0
M  V30 6023 H 567.06 1.98567 -2.18301 0
M  V30 6024 H 567.141 0.255613 -2.5452 0
M  V30 6025 H 566.785 0.779549 -5.01882 0
M  V30 6026 H 566.715 2.51584 -4.62615 0
M  V30 6027 H 569.206 1.44055 -3.49366 0
M  V30 6028 H 569.519 2.35818 -7.35941 0
M  V30 6029 H 567.864 2.1274 -6.6164 0
M  V30 6030 H 571.055 1.70622 -4.35897 0
M  V30 6031 H 571.228 2.12488 -6.12171 0
M  V30 6032 N 564.634 1.40294 0.718013 0
M  V30 6033 C 565.564 1.43118 1.84498 0
M  V30 6034 C 566.545 0.292403 1.67568 0
M  V30 6035 O 567.73 0.500675 1.87635 0
M  V30 6036 C 564.86 1.29065 3.22427 0
M  V30 6037 C 563.814 2.40521 3.54025 0
M  V30 6038 C 563.14 2.11546 4.91073 0
M  V30 6039 C 564.44 3.82859 3.55269 0
M  V30 6040 H 566.134 2.37432 1.82391 0
M  V30 6041 H 563.68 1.14283 0.87609 0
M  V30 6042 H 565.633 1.29658 4.00957 0
M  V30 6043 H 564.357 0.312271 3.25104 0
M  V30 6044 H 563.016 2.39173 2.77834 0
M  V30 6045 H 562.664 1.12104 4.90348 0
M  V30 6046 H 562.364 2.86216 5.1318 0
M  V30 6047 H 563.888 2.13817 5.71939 0
M  V30 6048 H 565.302 3.86044 4.23843 0
M  V30 6049 H 563.699 4.57029 3.88902 0
M  V30 6050 H 564.769 4.12617 2.54706 0
M  V30 6051 N 566.112 -0.949982 1.2575 0
M  V30 6052 C 567.359 -1.69515 1.10774 0
M  V30 6053 C 567.687 -1.91316 -0.350479 0
M  V30 6054 O 566.942 -1.48515 -1.27443 0
M  V30 6055 C 567.241 -3.08039 1.81237 0
M  V30 6056 C 566.907 -3.06023 3.31151 0
M  V30 6057 C 565.569 -3.0518 3.72047 0
M  V30 6058 C 567.921 -2.98998 4.26907 0
M  V30 6059 C 565.249 -2.95067 5.07102 0
M  V30 6060 C 567.601 -2.90426 5.61992 0
M  V30 6061 C 566.265 -2.87922 6.0221 0
M  V30 6062 H 565.535 -0.6203 0.405351 0
M  V30 6063 H 568.182 -1.10953 1.56082 0
M  V30 6064 H 566.487 -3.70172 1.28373 0
M  V30 6065 H 568.184 -3.64526 1.67098 0
M  V30 6066 H 564.774 -3.07453 2.98614 0
M  V30 6067 H 568.958 -2.98764 3.963 0
M  V30 6068 H 564.214 -2.915 5.37436 0
M  V30 6069 H 568.388 -2.83952 6.35881 0
M  V30 6070 H 566.015 -2.79841 7.06819 0
M  V30 6071 N 567.59 -1.07411 -1.15328 0
M  V30 6072 C 568.838 -0.796073 -1.85761 0
M  V30 6073 C 569.159 0.679864 -1.82764 0
M  V30 6074 O 568.429 1.49242 -1.269 0
M  V30 6075 H 567.009 -0.291495 -0.687779 0
M  V30 6076 H 569.671 -1.35799 -1.39802 0
M  V30 6077 H 568.767 -1.13114 -2.90881 0
M  V30 6078 N 569.068 1.32177 -0.85831 0
M  V30 6079 C 570.015 2.28794 -0.303607 0
M  V30 6080 C 570.985 1.55213 0.591453 0
M  V30 6081 O 572.17 1.83418 0.525585 0
M  V30 6082 C 569.31 3.41475 0.49889 0
M  V30 6083 C 568.423 4.2993 -0.422373 0
M  V30 6084 C 567.558 5.29743 0.393111 0
M  V30 6085 C 566.597 6.09842 -0.525317 0
M  V30 6086 N 565.734 7.01643 0.253208 0
M  V30 6087 H 570.574 2.75631 -1.13276 0
M  V30 6088 H 568.111 1.35606 -0.570026 0
M  V30 6089 H 570.069 4.05531 0.979826 0
M  V30 6090 H 568.699 2.95779 1.29284 0
M  V30 6091 H 567.751 3.66422 -1.02171 0
M  V30 6092 H 569.063 4.85899 -1.12709 0
M  V30 6093 H 568.217 5.9942 0.937056 0
M  V30 6094 H 566.956 4.744 1.13117 0
M  V30 6095 H 565.961 5.39066 -1.08112 0
M  V30 6096 H 567.186 6.6727 -1.26205 0
M  V30 6097 H 565.132 6.48725 0.974295 0
M  V30 6098 H 565.049 7.54981 -0.392398 0
M  V30 6099 H 566.317 7.756 0.778761 0
M  V30 6100 N 570.547 0.616602 1.45037 0
M  V30 6101 C 571.494 -0.0969439 2.30596 0
M  V30 6102 C 572.464 -0.851151 1.42635 0
M  V30 6103 O 573.649 -0.835092 1.71554 0
M  V30 6104 C 570.789 -1.08234 3.27688 0
M  V30 6105 C 569.902 -0.328072 4.30752 0
M  V30 6106 C 569.037 -1.30399 5.14946 0
M  V30 6107 C 568.076 -0.538049 6.09731 0
M  V30 6108 N 567.213 -1.46371 6.86673 0
M  V30 6109 H 572.053 0.63864 2.91076 0
M  V30 6110 H 569.59 0.326733 1.43425 0
M  V30 6111 H 571.548 -1.66688 3.82454 0
M  V30 6112 H 570.178 -1.78523 2.68941 0
M  V30 6113 H 569.23 0.372136 3.78575 0
M  V30 6114 H 570.542 0.269142 4.98073 0
M  V30 6115 H 569.696 -1.96032 5.74157 0
M  V30 6116 H 568.435 -1.93514 4.47665 0
M  V30 6117 H 567.44 0.131852 5.49642 0
M  V30 6118 H 568.665 0.0881732 6.79043 0
M  V30 6119 H 566.611 -2.08233 6.22073 0
M  V30 6120 H 566.528 -0.920152 7.50379 0
M  V30 6121 H 567.796 -2.10932 7.50418 0
M  V30 6122 N 572.025 -1.5352 0.356285 0
M  V30 6123 C 573.255 -2.05236 -0.236983 0
M  V30 6124 C 573.663 -1.23016 -1.43749 0
M  V30 6125 O 573.006 -0.2615 -1.81829 0
M  V30 6126 C 573.068 -3.52549 -0.7035 0
M  V30 6127 C 572.732 -4.55425 0.379059 0
M  V30 6128 C 573.729 -5.0524 1.22592 0
M  V30 6129 C 571.414 -4.99425 0.536638 0
M  V30 6130 C 573.408 -5.97647 2.21578 0
M  V30 6131 C 571.095 -5.9164 1.52988 0
M  V30 6132 C 572.093 -6.4064 2.3679 0
M  V30 6133 O 571.781 -7.31039 3.34421 0
M  V30 6134 H 571.513 -0.674346 -0.047254 0
M  V30 6135 H 574.067 -1.98962 0.510238 0
M  V30 6136 H 572.297 -3.56331 -1.50217 0
M  V30 6137 H 573.986 -3.87171 -1.21873 0
M  V30 6138 H 574.752 -4.72002 1.11532 0
M  V30 6139 H 570.631 -4.60879 -0.105834 0
M  V30 6140 H 574.175 -6.35816 2.87025 0
M  V30 6141 H 570.072 -6.24293 1.64099 0
M  V30 6142 H 570.84 -7.49009 3.30041 0
M  V30 6143 N 573.503 -0.0852151 -1.57369 0
M  V30 6144 C 574.749 0.581666 -1.94279 0
M  V30 6145 C 575.082 1.68444 -0.966446 0
M  V30 6146 O 574.357 1.945 0.00215277 0
M  V30 6147 C 574.64 1.14609 -3.41375 0
M  V30 6148 C 574.493 0.0490414 -4.49773 0
M  V30 6149 C 575.812 2.04751 -3.8957 0
M  V30 6150 H 572.931 0.209972 -0.706456 0
M  V30 6151 H 575.573 -0.153915 -1.89376 0
M  V30 6152 H 573.723 1.77297 -3.45685 0
M  V30 6153 H 575.395 -0.584721 -4.57579 0
M  V30 6154 H 573.638 -0.618638 -4.29366 0
M  V30 6155 H 574.309 0.484601 -5.49869 0
M  V30 6156 H 576.785 1.51981 -3.87351 0
M  V30 6157 H 575.661 2.41173 -4.93079 0
M  V30 6158 H 575.922 2.96107 -3.28288 0
M  V30 6159 N 574.981 1.5647 0.188427 0
M  V30 6160 C 576.227 1.82181 0.904534 0
M  V30 6161 C 576.582 0.663258 1.80606 0
M  V30 6162 O 575.875 -0.341231 1.88537 0
M  V30 6163 C 576.069 3.11596 1.7505 0
M  V30 6164 C 575.898 4.39928 0.932372 0
M  V30 6165 C 574.668 5.01554 0.61417 0
M  V30 6166 C 576.866 5.13527 0.281936 0
M  V30 6167 N 574.848 6.13499 -0.221896 0
M  V30 6168 C 576.219 6.18603 -0.416037 0
M  V30 6169 C 578.274 4.97505 0.198345 0
M  V30 6170 C 576.977 7.09394 -1.18965 0
M  V30 6171 C 579.003 5.88725 -0.561887 0
M  V30 6172 C 578.365 6.93251 -1.24828 0
M  V30 6173 H 574.464 0.717858 0.310168 0
M  V30 6174 H 577.048 1.93932 0.172757 0
M  V30 6175 H 575.219 3.01068 2.45383 0
M  V30 6176 H 576.951 3.25369 2.4066 0
M  V30 6177 H 573.706 4.64174 0.940187 0
M  V30 6178 H 574.13 6.74065 -0.629735 0
M  V30 6179 H 578.772 4.16716 0.714665 0
M  V30 6180 H 576.49 7.8964 -1.71737 0
M  V30 6181 H 580.076 5.78401 -0.628009 0
M  V30 6182 H 578.956 7.62618 -1.82712 0
M  V30 6183 N 576.459 -0.456382 1.50847 0
M  V30 6184 C 577.706 -1.20736 1.62571 0
M  V30 6185 C 578.034 -1.9163 0.332904 0
M  V30 6186 O 577.289 -1.8343 -0.682058 0
M  V30 6187 C 577.588 -2.26336 2.76599 0
M  V30 6188 C 577.254 -1.7259 4.16562 0
M  V30 6189 C 575.916 -1.57654 4.54641 0
M  V30 6190 C 578.268 -1.32877 5.03977 0
M  V30 6191 C 575.596 -1.0145 5.77862 0
M  V30 6192 C 577.948 -0.7811 6.27759 0
M  V30 6193 C 576.612 -0.618488 6.64628 0
M  V30 6194 H 575.882 -0.441803 0.594888 0
M  V30 6195 H 578.529 -0.501169 1.84826 0
M  V30 6196 H 576.834 -3.0292 2.48489 0
M  V30 6197 H 578.531 -2.84227 2.82871 0
M  V30 6198 H 575.121 -1.85187 3.86528 0
M  V30 6199 H 579.305 -1.43245 4.75179 0
M  V30 6200 H 574.561 -0.876109 6.0509 0
M  V30 6201 H 578.735 -0.464783 6.94847 0
M  V30 6202 H 576.362 -0.180838 7.59985 0
M  V30 6203 N 577.937 -1.40673 -0.710563 0
M  V30 6204 C 578.867 -1.44095 -1.83736 0
M  V30 6205 C 579.848 -0.301286 -1.67411 0
M  V30 6206 O 581.033 -0.510618 -1.87367 0
M  V30 6207 C 578.163 -1.30773 -3.21738 0
M  V30 6208 C 577.117 -2.42395 -3.52745 0
M  V30 6209 C 576.443 -2.14147 -4.89944 0
M  V30 6210 C 577.743 -3.84738 -3.53234 0
M  V30 6211 H 579.437 -2.38396 -1.81129 0
M  V30 6212 H 576.983 -1.14746 -0.870017 0
M  V30 6213 H 578.936 -1.31783 -4.00264 0
M  V30 6214 H 577.66 -0.329507 -3.24934 0
M  V30 6215 H 576.319 -2.40643 -2.76562 0
M  V30 6216 H 575.967 -1.14703 -4.89747 0
M  V30 6217 H 575.667 -2.88934 -5.11655 0
M  V30 6218 H 577.191 -2.16848 -5.70797 0
M  V30 6219 H 578.605 -3.88286 -4.2179 0
M  V30 6220 H 577.002 -4.59085 -3.86473 0
M  V30 6221 H 578.072 -4.13962 -2.52514 0
M  V30 6222 N 579.415 0.9433 -1.26252 0
M  V30 6223 C 580.664 1.68369 -1.11062 0
M  V30 6224 C 580.977 1.92514 0.346104 0
M  V30 6225 O 582.183 2.64358 0.618646 0
M  V30 6226 C 580.639 3.03171 -1.93946 0
M  V30 6227 C 580.247 2.86782 -3.4418 0
M  V30 6228 C 581.991 3.80916 -1.87359 0
M  V30 6229 C 579.898 4.17044 -4.19319 0
M  V30 6230 H 578.828 0.631469 -0.412023 0
M  V30 6231 H 581.479 1.04922 -1.50544 0
M  V30 6232 H 579.861 3.67587 -1.47296 0
M  V30 6233 H 581.035 2.31229 -3.98585 0
M  V30 6234 H 579.35 2.22482 -3.51981 0
M  V30 6235 H 581.947 4.77417 -2.40784 0
M  V30 6236 H 582.29 4.07658 -0.843857 0
M  V30 6237 H 582.823 3.2327 -2.31821 0
M  V30 6238 H 579.562 3.95487 -5.22753 0
M  V30 6239 H 579.082 4.72319 -3.69696 0
M  V30 6240 H 580.761 4.85513 -4.27651 0
M  V30 6241 N 580.893 1.08022 1.14757 0
M  V30 6242 C 582.141 0.805913 1.85336 0
M  V30 6243 C 582.462 -0.670162 1.83122 0
M  V30 6244 O 581.732 -1.48567 1.2769 0
M  V30 6245 H 580.312 0.295138 0.686223 0
M  V30 6246 H 582.974 1.36538 1.3908 0
M  V30 6247 H 582.07 1.14655 2.90277 0
M  V30 6248 N 582.371 -1.3172 0.865308 0
M  V30 6249 C 583.617 -1.97559 0.483944 0
M  V30 6250 C 583.972 -1.67181 -0.95227 0
M  V30 6251 O 583.265 -0.955392 -1.66081 0
M  V30 6252 C 583.459 -3.5102 0.672283 0
M  V30 6253 C 583.288 -3.96312 2.12525 0
M  V30 6254 C 582.058 -4.22877 2.76591 0
M  V30 6255 C 584.256 -4.10596 3.09702 0
M  V30 6256 N 582.238 -4.5449 4.12689 0
M  V30 6257 C 583.609 -4.45867 4.30816 0
M  V30 6258 C 585.664 -3.92961 3.05755 0
M  V30 6259 C 584.367 -4.65344 5.48495 0
M  V30 6260 C 586.393 -4.13628 4.22688 0
M  V30 6261 C 585.755 -4.49227 5.42563 0
M  V30 6262 H 581.854 -0.74862 0.226035 0
M  V30 6263 H 584.438 -1.59336 1.11893 0
M  V30 6264 H 582.609 -3.88342 0.0669224 0
M  V30 6265 H 584.341 -4.03865 0.259765 0
M  V30 6266 H 581.096 -4.15343 2.27567 0
M  V30 6267 H 581.52 -4.74464 4.82921 0
M  V30 6268 H 586.162 -3.64531 2.14188 0
M  V30 6269 H 583.88 -4.92624 6.40584 0
M  V30 6270 H 587.466 -4.01474 4.21082 0
M  V30 6271 H 586.346 -4.64895 6.31539 0
M  V30 6272 N 583.85 -0.624285 -1.44708 0
M  V30 6273 C 585.08 -0.132726 -2.06173 0
M  V30 6274 C 585.488 1.19513 -1.46674 0
M  V30 6275 O 584.831 1.74254 -0.581491 0
M  V30 6276 C 584.893 0.0636732 -3.59444 0
M  V30 6277 C 584.557 -1.18496 -4.4137 0
M  V30 6278 C 585.553 -2.10706 -4.75288 0
M  V30 6279 C 583.239 -1.41846 -4.81856 0
M  V30 6280 C 585.233 -3.24582 -5.48567 0
M  V30 6281 C 582.92 -2.5602 -5.54885 0
M  V30 6282 C 583.918 -3.47215 -5.88159 0
M  V30 6283 O 583.606 -4.59399 -6.59703 0
M  V30 6284 H 583.338 -0.0737313 -0.671967 0
M  V30 6285 H 585.892 -0.856789 -1.86677 0
M  V30 6286 H 584.122 0.842809 -3.77404 0
M  V30 6287 H 585.811 0.508924 -4.02697 0
M  V30 6288 H 586.577 -1.93898 -4.44554 0
M  V30 6289 H 582.456 -0.717556 -4.55381 0
M  V30 6290 H 586 -3.95785 -5.74456 0
M  V30 6291 H 581.897 -2.72774 -5.85034 0
M  V30 6292 H 582.665 -4.58293 -6.78166 0
M  V30 6293 N 585.328 1.53329 -0.364422 0
M  V30 6294 C 586.291 2.24323 0.470292 0
M  V30 6295 C 587.291 1.25068 1.01067 0
M  V30 6296 O 588.481 1.49354 0.896605 0
M  V30 6297 C 585.613 2.97908 1.65722 0
M  V30 6298 H 586.806 2.9952 -0.150917 0
M  V30 6299 H 584.359 1.55868 -0.116092 0
M  V30 6300 H 585.094 2.2695 2.31655 0
M  V30 6301 H 584.879 3.70732 1.27671 0
M  V30 6302 H 586.369 3.5188 2.24878 0
M  V30 6303 N 586.806 0.0935595 1.57322 0
M  V30 6304 C 588.083 -0.612692 1.85756 0
M  V30 6305 C 588.463 -1.86439 0.99013 0
M  V30 6306 O 587.811 -2.28416 0.0621362 0
M  V30 6307 C 588.021 -0.929547 3.36393 0
M  V30 6308 C 589.369 -1.29366 4.04413 0
M  V30 6309 O 590.393 -1.02061 3.41265 0
M  V30 6310 O 589.252 -1.80498 5.15832 0
M  V30 6311 H 586.346 -0.306444 0.768128 0
M  V30 6312 H 588.892 0.126141 1.69231 0
M  V30 6313 H 587.664 -0.0414766 3.91278 0
M  V30 6314 H 587.287 -1.72441 3.5826 0
M  V30 6315 N 588.284 -1.56567 -0.180126 0
M  V30 6316 C 589.232 -1.96632 -1.24251 0
M  V30 6317 C 590.226 -0.853818 -1.46309 0
M  V30 6318 O 591.432 -1.0389 -1.46993 0
M  V30 6319 H 587.807 -0.625476 -0.417473 0
M  V30 6320 H 589.778 -2.85201 -0.877679 0
M  V30 6321 C 588.527 -2.33486 -2.57642 0
M  V30 6322 H 587.85 -3.18626 -2.4149 0
M  V30 6323 H 589.29 -2.65371 -3.30688 0
M  V30 6324 C 587.749 -1.17499 -3.15746 0
M  V30 6325 O 588.279 -0.457956 -3.99081 0
M  V30 6326 N 586.485 -0.94786 -2.74707 0
M  V30 6327 H 586.032 -1.53269 -2.07042 0
M  V30 6328 H 585.99 -0.173626 -3.1392 0
M  V30 6329 N 589.762 0.448376 -1.51087 0
M  V30 6330 C 591.008 1.19748 -1.64414 0
M  V30 6331 C 591.363 1.89177 -0.350715 0
M  V30 6332 O 590.656 1.80135 0.652834 0
M  V30 6333 C 590.85 2.24866 -2.77795 0
M  V30 6334 C 590.679 1.65753 -4.18038 0
M  V30 6335 C 589.449 1.44728 -4.8413 0
M  V30 6336 C 591.647 1.13985 -5.0151 0
M  V30 6337 N 589.629 0.810962 -6.0852 0
M  V30 6338 C 591 0.628141 -6.1681 0
M  V30 6339 C 593.055 1.03055 -4.87118 0
M  V30 6340 C 591.758 0.0178906 -7.19298 0
M  V30 6341 C 593.784 0.434212 -5.89804 0
M  V30 6342 C 593.146 -0.0670069 -7.04368 0
M  V30 6343 H 589.245 0.426254 -0.655615 0
M  V30 6344 H 591.829 0.495806 -1.88281 0
M  V30 6345 H 590 2.92434 -2.55611 0
M  V30 6346 H 591.732 2.91857 -2.8036 0
M  V30 6347 H 588.487 1.70593 -4.41809 0
M  V30 6348 H 588.911 0.510563 -6.75072 0
M  V30 6349 H 593.553 1.40395 -3.9881 0
M  V30 6350 H 591.271 -0.367662 -8.07263 0
M  V30 6351 H 594.857 0.3517 -5.80736 0
M  V30 6352 H 593.737 -0.521209 -7.82466 0
M  V30 6353 N 591.24 1.41047 0.703093 0
M  V30 6354 C 592.487 1.4 1.46309 0
M  V30 6355 C 592.815 0.00654574 1.94499 0
M  V30 6356 O 592.07 -0.980255 1.6938 0
M  V30 6357 C 592.369 2.34686 2.6955 0
M  V30 6358 C 592.035 3.81684 2.40058 0
M  V30 6359 C 590.697 4.21731 2.31725 0
M  V30 6360 C 593.049 4.74525 2.15581 0
M  V30 6361 C 590.377 5.52637 1.97001 0
M  V30 6362 C 592.729 6.05744 1.82366 0
M  V30 6363 C 591.393 6.44819 1.72524 0
M  V30 6364 H 590.663 0.512295 0.535382 0
M  V30 6365 H 593.31 1.73792 0.804275 0
M  V30 6366 H 591.615 1.94122 3.40329 0
M  V30 6367 H 593.312 2.31152 3.27673 0
M  V30 6368 H 589.902 3.49963 2.47435 0
M  V30 6369 H 594.086 4.44395 2.20968 0
M  V30 6370 H 589.342 5.81802 1.87928 0
M  V30 6371 H 593.516 6.77189 1.62444 0
M  V30 6372 H 591.143 7.46168 1.45385 0
M  V30 6373 N 592.718 -0.936591 1.26751 0
M  V30 6374 C 593.665 -2.03597 1.08706 0
M  V30 6375 C 594.635 -1.66097 -0.00926542 0
M  V30 6376 O 595.82 -1.90199 0.151377 0
M  V30 6377 C 592.96 -3.3727 0.73094 0
M  V30 6378 C 592.073 -3.87778 1.90399 0
M  V30 6379 C 591.208 -5.09859 1.49056 0
M  V30 6380 C 590.247 -5.5264 2.63164 0
M  V30 6381 N 589.384 -6.65921 2.22471 0
M  V30 6382 H 594.224 -2.18364 2.02784 0
M  V30 6383 H 591.761 -1.06985 1.00958 0
M  V30 6384 H 593.719 -4.14128 0.505328 0
M  V30 6385 H 592.349 -3.22337 -0.172868 0
M  V30 6386 H 591.401 -3.07279 2.2424 0
M  V30 6387 H 592.713 -4.15464 2.76028 0
M  V30 6388 H 591.867 -5.9419 1.22567 0
M  V30 6389 H 590.606 -4.8393 0.60524 0
M  V30 6390 H 589.611 -4.66863 2.90377 0
M  V30 6391 H 590.836 -5.80568 3.52303 0
M  V30 6392 H 588.782 -6.41667 1.36379 0
M  V30 6393 H 588.699 -6.93216 3.01641 0
M  V30 6394 H 589.967 -7.53616 1.99205 0
M  V30 6395 N 594.196 -1.08629 -1.14182 0
M  V30 6396 C 595.445 -0.812271 -1.84621 0
M  V30 6397 C 595.758 0.664313 -1.83973 0
M  V30 6398 O 596.964 1.05357 -2.50224 0
M  V30 6399 C 595.42 -1.4031 -3.31423 0
M  V30 6400 C 595.028 -2.91164 -3.40481 0
M  V30 6401 C 596.772 -1.20767 -4.06959 0
M  V30 6402 C 594.679 -3.43373 -4.81507 0
M  V30 6403 H 593.609 -0.30019 -0.691666 0
M  V30 6404 H 596.26 -1.30798 -1.28701 0
M  V30 6405 H 594.642 -0.835096 -3.87094 0
M  V30 6406 H 595.816 -3.5412 -2.94848 0
M  V30 6407 H 594.131 -3.09646 -2.78403 0
M  V30 6408 H 596.728 -1.57237 -5.11058 0
M  V30 6409 H 597.071 -0.147664 -4.16038 0
M  V30 6410 H 597.604 -1.74274 -3.57594 0
M  V30 6411 H 594.343 -4.48958 -4.77616 0
M  V30 6412 H 593.863 -2.85176 -5.27669 0
M  V30 6413 H 595.542 -3.40095 -5.50404 0
M  V30 6414 N 595.674 1.31259 -0.872281 0
M  V30 6415 C 596.904 2.00504 -0.498183 0
M  V30 6416 C 597.312 1.65632 0.914479 0
M  V30 6417 O 596.655 0.882849 1.61095 0
M  V30 6418 C 596.717 3.5482 -0.578194 0
M  V30 6419 C 596.381 4.13172 -1.95289 0
M  V30 6420 C 597.378 4.30107 -2.92069 0
M  V30 6421 C 595.063 4.48846 -2.25483 0
M  V30 6422 C 597.057 4.81908 -4.17185 0
M  V30 6423 C 594.744 5.00349 -3.50847 0
M  V30 6424 C 595.742 5.16831 -4.46514 0
M  V30 6425 O 595.43 5.67228 -5.69656 0
M  V30 6426 H 595.162 0.648055 -0.192354 0
M  V30 6427 H 597.716 1.6841 -1.17589 0
M  V30 6428 H 595.946 3.86383 0.156438 0
M  V30 6429 H 597.635 4.05318 -0.217192 0
M  V30 6430 H 598.401 4.02862 -2.7005 0
M  V30 6431 H 594.28 4.35292 -1.51795 0
M  V30 6432 H 597.824 4.94688 -4.91863 0
M  V30 6433 H 593.721 5.27028 -3.72708 0
M  V30 6434 H 594.489 5.85592 -5.7186 0
M  V30 6435 N 597.152 0.631951 1.44375 0
M  V30 6436 C 598.429 0.067646 1.95483 0
M  V30 6437 C 598.809 -1.40683 1.57389 0
M  V30 6438 O 598.157 -2.12167 0.848375 0
M  V30 6439 C 598.367 0.291392 3.47781 0
M  V30 6440 C 599.715 0.185028 4.24197 0
M  V30 6441 O 600.739 0.222803 3.55503 0
M  V30 6442 O 599.598 0.0906642 5.46425 0
M  V30 6443 H 596.692 -0.0218379 0.826712 0
M  V30 6444 H 599.238 0.703711 1.54421 0
M  V30 6445 H 598.01 1.31449 3.68561 0
M  V30 6446 H 597.633 -0.378772 3.95792 0
M  V30 6447 N 598.631 -1.53133 0.372548 0
M  V30 6448 C 600.042 -1.86404 -0.105155 0
M  V30 6449 C 600.393 -1.29289 -1.47576 0
M  V30 6450 O 599.518 -0.617646 -2.07398 0
M  V30 6451 C 600.113 -3.38223 -0.197588 0
M  V30 6452 C 598.672 -3.71266 -0.619556 0
M  V30 6453 C 597.819 -2.76353 0.228919 0
M  V30 6454 H 600.77 -1.47282 0.591077 0
M  V30 6455 H 600.791 -3.66577 -1.01987 0
M  V30 6456 H 600.303 -3.79763 0.800099 0
M  V30 6457 H 598.404 -3.35287 -1.62522 0
M  V30 6458 H 598.517 -4.77515 -0.389332 0
M  V30 6459 H 596.881 -2.52888 -0.303271 0
M  V30 6460 H 597.664 -3.20728 1.22428 0
M  V30 6461 N 600.109 -0.101901 -1.5727 0
M  V30 6462 C 601.334 0.571759 -1.99363 0
M  V30 6463 C 601.759 1.60507 -0.980768 0
M  V30 6464 O 601.117 1.81231 0.0498517 0
M  V30 6465 C 601.165 1.18996 -3.404 0
M  V30 6466 O 600.269 2.30572 -3.41922 0
M  V30 6467 H 599.61 0.144449 -0.648098 0
M  V30 6468 H 602.14 -0.185325 -2.03759 0
M  V30 6469 H 602.15 1.52962 -3.78241 0
M  V30 6470 H 600.825 0.432984 -4.1364 0
M  V30 6471 H 599.402 1.98173 -3.15883 0
M  V30 6472 N 601.587 1.56661 0.17182 0
M  V30 6473 C 602.836 1.81158 0.886831 0
M  V30 6474 C 603.149 0.679072 1.83434 0
M  V30 6475 O 604.355 0.808964 2.59168 0
M  V30 6476 C 602.811 3.20999 1.6275 0
M  V30 6477 C 602.419 4.42117 0.723652 0
M  V30 6478 C 604.163 3.5479 2.33076 0
M  V30 6479 C 602.07 5.7298 1.46452 0
M  V30 6480 H 601 0.675543 0.334899 0
M  V30 6481 H 603.651 1.82967 0.139765 0
M  V30 6482 H 602.033 3.13506 2.4193 0
M  V30 6483 H 603.207 4.60789 -0.0311485 0
M  V30 6484 H 601.522 4.16197 0.130063 0
M  V30 6485 H 604.119 4.49806 2.89099 0
M  V30 6486 H 604.462 2.79646 3.08389 0
M  V30 6487 H 604.995 3.63834 1.6084 0
M  V30 6488 H 601.734 6.51152 0.753729 0
M  V30 6489 H 601.254 5.58285 2.19266 0
M  V30 6490 H 602.933 6.14916 2.01214 0
M  V30 6491 N 603.065 -0.440357 1.51323 0
M  V30 6492 C 604.013 -1.55492 1.72988 0
M  V30 6493 C 605.007 -1.58564 0.596138 0
M  V30 6494 O 606.213 -1.62345 0.777443 0
M  V30 6495 H 602.588 -0.516532 0.546533 0
M  V30 6496 H 604.559 -1.34392 2.66423 0
M  V30 6497 C 603.308 -2.93176 1.86931 0
M  V30 6498 H 602.631 -2.91543 2.73574 0
M  V30 6499 H 604.071 -3.70537 2.06103 0
M  V30 6500 C 602.53 -3.30988 0.628365 0
M  V30 6501 O 603.06 -4.01106 -0.218367 0
M  V30 6502 N 601.266 -2.86719 0.473339 0
M  V30 6503 H 600.813 -2.2983 1.16345 0
M  V30 6504 H 600.771 -3.12381 -0.355727 0
M  V30 6505 N 604.543 -1.41418 -0.695603 0
M  V30 6506 C 605.783 -1.42241 -1.46788 0
M  V30 6507 C 606.147 -0.0300827 -1.91976 0
M  V30 6508 O 607.348 0.0868914 -2.6866 0
M  V30 6509 C 605.619 -2.4011 -2.6473 0
M  V30 6510 S 607.178 -2.59462 -3.53871 0
M  V30 6511 H 603.996 -0.503893 -0.50161 0
M  V30 6512 H 606.598 -1.77855 -0.811654 0
M  V30 6513 H 605.302 -3.40073 -2.29736 0
M  V30 6514 H 604.833 -2.05849 -3.35246 0
M  V30 6515 H 606.848 -1.862 -4.59939 0
M  V30 6516 N 606.021 0.929856 -1.27246 0
M  V30 6517 C 607.249 1.71144 -1.16265 0
M  V30 6518 C 607.664 1.867 0.280786 0
M  V30 6519 O 607.021 1.38249 1.19136 0
M  V30 6520 C 607.072 3.11222 -1.83911 0
M  V30 6521 O 606.793 2.96398 -3.22614 0
M  V30 6522 C 608.294 4.05541 -1.79028 0
M  V30 6523 H 605.514 0.535499 -0.404328 0
M  V30 6524 H 608.058 1.16492 -1.68077 0
M  V30 6525 H 606.213 3.6274 -1.36009 0
M  V30 6526 H 606.627 3.8494 -3.56261 0
M  V30 6527 H 608.101 5.01351 -2.30978 0
M  V30 6528 H 608.578 4.32589 -0.759168 0
M  V30 6529 H 609.184 3.59947 -2.26535 0
M  V30 6530 N 607.499 1.09233 1.13605 0
M  V30 6531 C 608.745 0.828385 1.8511 0
M  V30 6532 C 609.078 -0.64437 1.83198 0
M  V30 6533 O 608.353 -1.47428 1.26867 0
M  V30 6534 C 608.636 1.36167 3.33363 0
M  V30 6535 C 608.489 2.90038 3.438 0
M  V30 6536 C 609.808 0.993819 4.28732 0
M  V30 6537 H 606.927 0.30239 0.672108 0
M  V30 6538 H 609.569 1.35339 1.33355 0
M  V30 6539 H 607.719 0.9151 3.77569 0
M  V30 6540 H 609.391 3.43128 3.08319 0
M  V30 6541 H 607.634 3.27271 2.84739 0
M  V30 6542 H 608.305 3.22428 4.48045 0
M  V30 6543 H 610.781 1.37893 3.92587 0
M  V30 6544 H 609.657 1.39403 5.30903 0
M  V30 6545 H 609.918 -0.0982206 4.41991 0
M  V30 6546 N 608.977 -1.30795 0.87923 0
M  V30 6547 C 610.254 -1.91145 0.415086 0
M  V30 6548 C 610.634 -1.7995 -1.10368 0
M  V30 6549 O 609.982 -1.21305 -1.93642 0
M  V30 6550 C 610.192 -3.37014 0.906778 0
M  V30 6551 C 611.54 -4.14101 0.938358 0
M  V30 6552 O 612.564 -3.45834 0.853053 0
M  V30 6553 O 611.423 -5.36054 1.06342 0
M  V30 6554 H 608.517 -0.81736 0.125905 0
M  V30 6555 H 611.063 -1.39401 0.967753 0
M  V30 6556 H 609.835 -3.3922 1.95053 0
M  V30 6557 H 609.458 -3.96204 0.332948 0
M  V30 6558 N 610.455 -0.639598 -1.44038 0
M  V30 6559 C 611.365 0.0612377 -2.3452 0
M  V30 6560 C 612.381 0.826717 -1.53106 0
M  V30 6561 O 613.557 0.777059 -1.85806 0
M  V30 6562 C 610.622 1.02492 -3.31204 0
M  V30 6563 C 609.683 0.25788 -4.28525 0
M  V30 6564 C 608.916 1.17566 -5.2059 0
M  V30 6565 O 609.139 2.41461 -5.16771 0
M  V30 6566 O 608.073 0.655407 -5.98321 0
M  V30 6567 H 611.899 -0.68318 -2.95916 0
M  V30 6568 H 609.484 -0.399784 -1.43952 0
M  V30 6569 H 611.366 1.57911 -3.90694 0
M  V30 6570 H 610.041 1.7498 -2.7233 0
M  V30 6571 H 608.948 -0.339566 -3.72556 0
M  V30 6572 H 610.281 -0.427154 -4.90343 0
M  V30 6573 N 611.933 1.52934 -0.380664 0
M  V30 6574 C 612.866 2.22597 0.502564 0
M  V30 6575 C 613.844 1.22345 1.071 0
M  V30 6576 O 615.028 1.51302 1.12428 0
M  V30 6577 C 612.155 2.93246 1.69482 0
M  V30 6578 C 611.201 4.07696 1.25244 0
M  V30 6579 S 612.034 5.34957 0.241159 0
M  V30 6580 C 613.19 6.09124 1.4394 0
M  V30 6581 H 613.423 2.97167 -0.089029 0
M  V30 6582 H 610.956 1.53518 -0.164817 0
M  V30 6583 H 612.914 3.34562 2.37863 0
M  V30 6584 H 611.575 2.18373 2.2577 0
M  V30 6585 H 610.768 4.56199 2.1424 0
M  V30 6586 H 610.37 3.68349 0.647664 0
M  V30 6587 H 612.662 6.34771 2.36794 0
M  V30 6588 H 613.605 7.01068 0.995464 0
M  V30 6589 H 614.013 5.39777 1.65229 0
M  V30 6590 N 613.412 0.11024 1.57214 0
M  V30 6591 C 614.64 -0.557834 1.99238 0
M  V30 6592 C 615.055 -1.60778 0.989734 0
M  V30 6593 O 614.412 -1.82491 -0.0186092 0
M  V30 6594 C 614.463 -1.19189 3.41286 0
M  V30 6595 O 614.184 -0.183919 4.37714 0
M  V30 6596 C 615.685 -1.94413 3.98395 0
M  V30 6597 H 612.905 -0.148392 0.654386 0
M  V30 6598 H 615.449 0.193996 2.03578 0
M  V30 6599 H 613.604 -1.89456 3.37913 0
M  V30 6600 H 614.018 -0.643475 5.20538 0
M  V30 6601 H 615.492 -2.34116 4.99894 0
M  V30 6602 H 615.969 -2.81592 3.3705 0
M  V30 6603 H 616.575 -1.28928 4.05287 0
M  V30 6604 N 614.89 -1.56749 -0.16351 0
M  V30 6605 C 615.8 -2.00255 -1.2221 0
M  V30 6606 C 616.816 -0.915194 -1.47987 0
M  V30 6607 O 617.992 -1.22342 -1.59982 0
M  V30 6608 C 615.057 -2.36035 -2.53946 0
M  V30 6609 C 614.118 -3.58637 -2.35962 0
M  V30 6610 C 613.351 -3.92701 -3.61416 0
M  V30 6611 O 613.574 -3.27632 -4.66919 0
M  V30 6612 O 612.508 -4.86019 -3.55062 0
M  V30 6613 H 616.334 -2.90586 -0.882794 0
M  V30 6614 H 613.919 -1.44721 -0.370978 0
M  V30 6615 H 615.801 -2.59982 -3.31643 0
M  V30 6616 H 614.476 -1.48863 -2.8744 0
M  V30 6617 H 613.383 -3.39898 -1.5627 0
M  V30 6618 H 614.716 -4.46374 -2.0739 0
M  V30 6619 N 616.368 0.432326 -1.51554 0
M  V30 6620 C 617.331 1.50765 -1.72634 0
M  V30 6621 C 618.331 1.49334 -0.596314 0
M  V30 6622 O 619.521 1.51268 -0.863925 0
M  V30 6623 C 616.653 2.90284 -1.7874 0
M  V30 6624 H 617.846 1.33377 -2.68609 0
M  V30 6625 H 615.399 0.661329 -1.4162 0
M  V30 6626 H 616.134 3.13071 -0.845977 0
M  V30 6627 H 615.919 2.92727 -2.6087 0
M  V30 6628 H 617.409 3.68282 -1.96871 0
M  V30 6629 N 617.846 1.41785 0.688094 0
M  V30 6630 C 619.092 1.41753 1.4503 0
M  V30 6631 C 619.425 0.0290745 1.94178 0
M  V30 6632 O 618.7 -0.944456 1.7003 0
M  V30 6633 C 618.983 2.43069 2.65686 0
M  V30 6634 C 618.836 3.91053 2.22256 0
M  V30 6635 C 620.155 2.41543 3.67893 0
M  V30 6636 H 617.274 0.516202 0.526027 0
M  V30 6637 H 619.916 1.73111 0.783105 0
M  V30 6638 H 618.066 2.1646 3.2261 0
M  V30 6639 H 619.738 4.28594 1.70602 0
M  V30 6640 H 617.981 4.05559 1.53963 0
M  V30 6641 H 618.652 4.57501 3.08863 0
M  V30 6642 H 621.128 2.65175 3.20658 0
M  V30 6643 H 620.004 3.14434 4.49914 0
M  V30 6644 H 620.265 1.43666 4.18106 0
M  V30 6645 N 619.324 -0.923095 1.27737 0
M  V30 6646 C 620.234 -2.05765 1.12685 0
M  V30 6647 C 621.25 -1.73911 0.0557197 0
M  V30 6648 O 622.426 -1.99674 0.263137 0
M  V30 6649 C 619.491 -3.37804 0.780363 0
M  V30 6650 C 618.552 -3.83326 1.93286 0
M  V30 6651 C 617.785 -5.09064 1.60281 0
M  V30 6652 O 618.008 -5.6809 0.512828 0
M  V30 6653 O 616.942 -5.50071 2.44347 0
M  V30 6654 H 620.768 -2.21378 2.07907 0
M  V30 6655 H 618.353 -1.04299 1.06968 0
M  V30 6656 H 620.235 -4.17097 0.600668 0
M  V30 6657 H 618.91 -3.23387 -0.142291 0
M  V30 6658 H 617.817 -3.049 2.16764 0
M  V30 6659 H 619.15 -4.02292 2.83588 0
M  V30 6660 N 620.802 -1.09834 -1.13024 0
M  V30 6661 C 622.05 -0.835297 -1.8403 0
M  V30 6662 C 622.371 0.640944 -1.84165 0
M  V30 6663 O 621.641 1.46517 -1.30037 0
M  V30 6664 H 620.221 -0.306018 -0.681441 0
M  V30 6665 H 622.883 -1.38734 -1.36891 0
M  V30 6666 H 621.979 -1.19258 -2.88416 0
M  V30 6667 N 622.28 1.30327 -0.886154 0
M  V30 6668 C 623.23 2.25668 -0.325248 0
M  V30 6669 C 624.214 1.51318 0.546972 0
M  V30 6670 O 625.406 1.72623 0.391203 0
M  V30 6671 C 622.535 3.40229 0.458167 0
M  V30 6672 C 621.621 4.21933 -0.428208 0
M  V30 6673 N 622.012 4.82129 -1.52921 0
M  V30 6674 C 620.31 4.45439 -0.223535 0
M  V30 6675 C 621.011 5.43351 -2.07714 0
M  V30 6676 N 619.987 5.26002 -1.37195 0
M  V30 6677 H 623.789 2.69759 -1.1665 0
M  V30 6678 H 621.303 1.4478 -0.735691 0
M  V30 6679 H 623.3 4.07579 0.876648 0
M  V30 6680 H 621.96 2.97678 1.29684 0
M  V30 6681 H 622.971 4.81312 -1.91205 0
M  V30 6682 H 619.648 4.13481 0.577875 0
M  V30 6683 H 621.038 6.01118 -3.00178 0
M  V30 6684 N 623.758 0.647228 1.43697 0
M  V30 6685 C 625.007 0.155552 2.01099 0
M  V30 6686 C 625.32 -1.23569 1.51624 0
M  V30 6687 O 626.526 -1.82226 2.01261 0
M  V30 6688 C 624.982 0.227296 3.59182 0
M  V30 6689 C 624.59 1.62086 4.17651 0
M  V30 6690 C 626.334 -0.207085 4.23995 0
M  V30 6691 C 624.241 1.64685 5.68008 0
M  V30 6692 H 623.171 0.0543895 0.752036 0
M  V30 6693 H 625.822 0.808386 1.64734 0
M  V30 6694 H 624.204 -0.492937 3.9292 0
M  V30 6695 H 625.378 2.36597 3.95422 0
M  V30 6696 H 623.693 2.0007 3.65186 0
M  V30 6697 H 626.29 -0.207426 5.34298 0
M  V30 6698 H 626.633 -1.23742 3.97484 0
M  V30 6699 H 627.166 0.461193 3.95118 0
M  V30 6700 H 623.905 2.65608 5.99277 0
M  V30 6701 H 623.425 0.944914 5.9231 0
M  V30 6702 H 625.104 1.38792 6.31938 0
M  V30 6703 N 625.236 -1.5273 0.388769 0
M  V30 6704 C 626.464 -2.05992 -0.193677 0
M  V30 6705 C 626.879 -1.26053 -1.40557 0
M  V30 6706 O 626.236 -0.307049 -1.79898 0
M  V30 6707 C 626.287 -3.57068 -0.564321 0
M  V30 6708 O 626.008 -4.3398 0.599422 0
M  V30 6709 C 627.509 -4.26674 -1.20269 0
M  V30 6710 H 624.729 -0.670358 -0.0293445 0
M  V30 6711 H 627.273 -1.96857 0.553844 0
M  V30 6712 H 625.428 -3.66277 -1.26174 0
M  V30 6713 H 625.842 -5.2367 0.294895 0
M  V30 6714 H 627.316 -5.33625 -1.4124 0
M  V30 6715 H 627.793 -3.81854 -2.16989 0
M  V30 6716 H 628.399 -4.2178 -0.546047 0
M  V30 6717 N 626.714 -0.118576 -1.57153 0
M  V30 6718 C 627.942 0.54726 -1.99531 0
M  V30 6719 C 628.357 1.60251 -0.998246 0
M  V30 6720 O 627.714 1.82498 0.00893106 0
M  V30 6721 C 627.765 1.17378 -3.41913 0
M  V30 6722 O 627.486 0.160703 -4.37805 0
M  V30 6723 C 628.987 1.92297 -3.9942 0
M  V30 6724 H 626.207 0.144919 -0.655164 0
M  V30 6725 H 628.751 -0.20479 -2.03472 0
M  V30 6726 H 626.906 1.87661 -3.38913 0
M  V30 6727 H 627.32 0.61586 -5.20872 0
M  V30 6728 H 628.794 2.31462 -5.01128 0
M  V30 6729 H 629.271 2.79801 -3.38538 0
M  V30 6730 H 629.877 1.26777 -4.05965 0
M  V30 6731 N 628.193 1.56834 0.155195 0
M  V30 6732 C 629.103 2.009 1.21146 0
M  V30 6733 C 630.119 0.923029 1.475 0
M  V30 6734 O 631.295 1.23189 1.59331 0
M  V30 6735 C 628.36 2.37378 2.52691 0
M  V30 6736 C 627.421 3.59883 2.34057 0
M  V30 6737 C 626.654 3.94612 3.59329 0
M  V30 6738 O 626.877 3.30104 4.65175 0
M  V30 6739 O 625.811 4.87895 3.52479 0
M  V30 6740 H 629.637 2.9105 0.867371 0
M  V30 6741 H 627.222 1.44916 0.363298 0
M  V30 6742 H 629.104 2.61737 3.3026 0
M  V30 6743 H 627.779 1.50385 2.86646 0
M  V30 6744 H 626.686 3.40722 1.54465 0
M  V30 6745 H 628.019 4.47468 2.0502 0
M  V30 6746 N 629.671 -0.424282 1.51781 0
M  V30 6747 C 630.92 -1.16961 1.64326 0
M  V30 6748 C 631.233 -1.92035 0.371749 0
M  V30 6749 O 632.439 -2.68873 0.37676 0
M  V30 6750 C 630.895 -2.12782 2.90262 0
M  V30 6751 C 630.503 -1.43295 4.24465 0
M  V30 6752 C 632.247 -2.87667 3.12166 0
M  V30 6753 C 630.154 -2.37676 5.41538 0
M  V30 6754 H 629.084 -0.440293 0.612093 0
M  V30 6755 H 631.735 -0.435431 1.78259 0
M  V30 6756 H 630.117 -2.8969 2.69992 0
M  V30 6757 H 631.291 -0.718564 4.55163 0
M  V30 6758 H 629.606 -0.805118 4.08542 0
M  V30 6759 H 632.203 -3.58395 3.96808 0
M  V30 6760 H 632.546 -3.49758 2.25776 0
M  V30 6761 H 633.079 -2.17863 3.32837 0
M  V30 6762 H 629.818 -1.80255 6.30229 0
M  V30 6763 H 629.338 -3.07132 5.15199 0
M  V30 6764 H 631.017 -2.98529 5.74012 0
M  V30 6765 N 631.149 -1.42148 -0.680565 0
M  V30 6766 C 632.395 -1.42521 -1.44277 0
M  V30 6767 C 632.728 -0.0393718 -1.9416 0
M  V30 6768 O 632.003 0.935425 -1.70529 0
M  V30 6769 C 632.286 -2.44475 -2.64394 0
M  V30 6770 C 632.139 -3.92226 -2.20179 0
M  V30 6771 C 633.458 -2.43491 -3.66606 0
M  V30 6772 H 630.577 -0.518985 -0.523282 0
M  V30 6773 H 633.219 -1.73524 -0.773914 0
M  V30 6774 H 631.369 -2.18168 -3.21458 0
M  V30 6775 H 633.041 -4.29493 -1.68327 0
M  V30 6776 H 631.284 -4.0637 -1.5181 0
M  V30 6777 H 631.955 -4.59133 -3.06433 0
M  V30 6778 H 634.431 -2.66872 -3.19247 0
M  V30 6779 H 633.307 -3.16816 -4.4824 0
M  V30 6780 H 633.568 -1.45881 -4.17338 0
M  V30 6781 N 632.627 0.916307 -1.28225 0
M  V30 6782 C 633.56 2.01954 -1.06254 0
M  V30 6783 C 634.538 1.62587 0.0205983 0
M  V30 6784 O 635.722 1.88073 -0.126824 0
M  V30 6785 C 632.849 3.33086 -0.614141 0
M  V30 6786 C 631.895 3.91435 -1.69354 0
M  V30 6787 S 632.728 4.22603 -3.28887 0
M  V30 6788 C 633.884 5.568 -2.85876 0
M  V30 6789 H 634.117 2.20281 -1.99659 0
M  V30 6790 H 631.65 1.06085 -1.12184 0
M  V30 6791 H 633.608 4.089 -0.36213 0
M  V30 6792 H 632.269 3.12664 0.300036 0
M  V30 6793 H 631.462 4.86098 -1.33136 0
M  V30 6794 H 631.064 3.22248 -1.89821 0
M  V30 6795 H 633.356 6.3658 -2.31888 0
M  V30 6796 H 634.299 5.97927 -3.79326 0
M  V30 6797 H 634.707 5.17865 -2.24669 0
M  V30 6798 N 634.105 1.10431 1.1244 0
M  V30 6799 C 635.035 0.775143 2.20258 0
M  V30 6800 C 636.016 -0.25186 1.68225 0
M  V30 6801 O 637.201 -0.117637 1.93843 0
M  V30 6802 C 634.331 0.206133 3.46688 0
M  V30 6803 C 633.285 1.16382 4.11873 0
M  V30 6804 C 632.611 0.456014 5.32752 0
M  V30 6805 C 633.911 2.5104 4.58013 0
M  V30 6806 H 635.605 1.67665 2.4805 0
M  V30 6807 H 633.151 0.807595 1.19222 0
M  V30 6808 H 635.104 -0.036291 4.21384 0
M  V30 6809 H 633.828 -0.730614 3.18323 0
M  V30 6810 H 632.487 1.39169 3.39157 0
M  V30 6811 H 632.135 -0.485203 5.00654 0
M  V30 6812 H 631.835 1.09466 5.77314 0
M  V30 6813 H 633.359 0.222135 6.10196 0
M  V30 6814 H 634.773 2.32401 5.24083 0
M  V30 6815 H 633.17 3.10789 5.13352 0
M  V30 6816 H 634.24 3.11039 3.71998 0
M  V30 6817 N 635.583 -1.29855 0.893053 0
M  V30 6818 C 636.531 -2.29867 0.355512 0
M  V30 6819 C 637.525 -1.60502 -0.541801 0
M  V30 6820 O 638.731 -1.74902 -0.425339 0
M  V30 6821 H 635.106 -0.745805 0.0963247 0
M  V30 6822 H 637.077 -2.72655 1.21252 0
M  V30 6823 C 635.826 -3.453 -0.407801 0
M  V30 6824 H 635.149 -3.98864 0.273426 0
M  V30 6825 H 636.589 -4.17334 -0.748887 0
M  V30 6826 C 635.048 -2.96051 -1.60795 0
M  V30 6827 O 635.578 -2.96763 -2.7073 0
M  V30 6828 N 633.784 -2.51963 -1.44786 0
M  V30 6829 H 633.331 -2.51583 -0.553498 0
M  V30 6830 H 633.289 -2.1937 -2.2522 0
M  V30 6831 N 637.061 -0.65484 -1.43351 0
M  V30 6832 C 638.472 -0.248506 -1.85039 0
M  V30 6833 C 638.823 1.20526 -1.54816 0
M  V30 6834 O 637.948 1.92016 -0.99794 0
M  V30 6835 C 638.543 -0.444241 -3.35875 0
M  V30 6836 C 637.102 -0.0922108 -3.76287 0
M  V30 6837 C 636.249 -0.746327 -2.67068 0
M  V30 6838 H 639.2 -0.8584 -1.33481 0
M  V30 6839 H 639.221 0.309762 -3.79237 0
M  V30 6840 H 638.733 -1.50239 -3.5784 0
M  V30 6841 H 636.834 0.96328 -3.59933 0
M  V30 6842 H 636.947 -0.518807 -4.76283 0
M  V30 6843 H 635.311 -0.179416 -2.54067 0
M  V30 6844 H 636.094 -1.80754 -2.91861 0
M  V30 6845 N 638.539 1.52521 -0.396863 0
M  V30 6846 C 639.502 2.2527 0.422604 0
M  V30 6847 C 640.502 1.27184 0.983913 0
M  V30 6848 O 641.692 1.51222 0.864723 0
M  V30 6849 C 638.824 3.01356 1.59365 0
M  V30 6850 H 640.017 2.99133 -0.214416 0
M  V30 6851 H 637.57 1.55587 -0.149128 0
M  V30 6852 H 638.305 2.31813 2.26789 0
M  V30 6853 H 638.09 3.73357 1.19779 0
M  V30 6854 H 639.58 3.56571 2.17363 0
M  V30 6855 N 640.017 0.126909 1.57088 0
M  V30 6856 C 640.965 -0.837618 2.16995 0
M  V30 6857 C 641.959 -1.26974 1.12133 0
M  V30 6858 O 643.165 -1.24056 1.30423 0
M  V30 6859 H 639.54 -0.288256 0.694559 0
M  V30 6860 H 641.511 -0.307957 2.96807 0
M  V30 6861 C 640.26 -2.07474 2.79016 0
M  V30 6862 H 639.583 -1.75117 3.59408 0
M  V30 6863 H 641.023 -2.72949 3.24461 0
M  V30 6864 C 639.482 -2.86967 1.76498 0
M  V30 6865 O 640.012 -3.82625 1.22316 0
M  V30 6866 N 638.218 -2.51111 1.46258 0
M  V30 6867 H 637.765 -1.73389 1.90509 0
M  V30 6868 H 637.723 -3.04594 0.779085 0
M  V30 6869 N 641.495 -1.56914 -0.146875 0
M  V30 6870 C 642.723 -1.87515 -0.874394 0
M  V30 6871 C 643.138 -0.715116 -1.74733 0
M  V30 6872 O 642.495 0.315113 -1.79759 0
M  V30 6873 C 642.546 -3.17362 -1.731 0
M  V30 6874 O 642.267 -4.28897 -0.893245 0
M  V30 6875 C 643.768 -3.61479 -2.56609 0
M  V30 6876 H 640.988 -0.621546 -0.252827 0
M  V30 6877 H 643.532 -2.04023 -0.139627 0
M  V30 6878 H 641.687 -3.02608 -2.41883 0
M  V30 6879 H 642.101 -5.03146 -1.48137 0
M  V30 6880 H 643.575 -4.5517 -3.12289 0
M  V30 6881 H 644.052 -2.86773 -3.32653 0
M  V30 6882 H 644.658 -3.78927 -1.93117 0
M  V30 6883 N 642.974 0.416227 -1.52004 0
M  V30 6884 C 644.39 0.754319 -1.40649 0
M  V30 6885 C 644.59 1.95059 -0.505392 0
M  V30 6886 O 643.646 2.5248 0.0315057 0
M  V30 6887 C 644.959 1.0149 -2.83055 0
M  V30 6888 C 646.507 1.11805 -2.9235 0
M  V30 6889 C 646.982 1.41144 -4.35709 0
M  V30 6890 N 648.473 1.48024 -4.38911 0
M  V30 6891 C 649.208 1.72338 -5.46889 0
M  V30 6892 N 648.704 1.94303 -6.64995 0
M  V30 6893 N 650.497 1.74294 -5.34395 0
M  V30 6894 H 642.648 -0.371324 -2.09129 0
M  V30 6895 H 644.911 -0.103811 -0.942299 0
M  V30 6896 H 644.617 0.208345 -3.51082 0
M  V30 6897 H 644.491 1.93697 -3.23668 0
M  V30 6898 H 646.878 1.91521 -2.24508 0
M  V30 6899 H 646.959 0.17451 -2.55204 0
M  V30 6900 H 646.603 0.619484 -5.04108 0
M  V30 6901 H 646.533 2.36739 -4.70385 0
M  V30 6902 H 649.024 1.32868 -3.53772 0
M  V30 6903 H 649.337 2.12286 -7.43071 0
M  V30 6904 H 647.682 1.91582 -6.68073 0
M  V30 6905 H 650.873 1.56667 -4.41104 0
M  V30 6906 H 651.046 1.92904 -6.18621 0
M  V30 6907 N 644.452 1.42507 0.673017 0
M  V30 6908 C 645.677 1.4668 1.46627 0
M  V30 6909 C 646.102 0.080066 1.8793 0
M  V30 6910 O 645.46 -0.921879 1.56112 0
M  V30 6911 C 645.508 2.40091 2.69051 0
M  V30 6912 O 644.612 1.8735 3.67387 0
M  V30 6913 H 643.953 0.496908 0.44043 0
M  V30 6914 H 646.483 1.87215 0.825334 0
M  V30 6915 H 646.493 2.56731 3.17101 0
M  V30 6916 H 645.168 3.4084 2.3833 0
M  V30 6917 H 643.745 1.80274 3.26429 0
M  V30 6918 N 645.93 -0.909495 1.28709 0
M  V30 6919 C 647.179 -1.65365 1.15487 0
M  V30 6920 C 647.492 -1.93364 -0.294941 0
M  V30 6921 O 648.698 -2.65905 -0.548338 0
M  V30 6922 C 647.154 -2.97923 2.01916 0
M  V30 6923 C 646.762 -2.77556 3.51663 0
M  V30 6924 C 648.506 -3.75814 1.97393 0
M  V30 6925 C 646.413 -4.0578 4.30229 0
M  V30 6926 H 645.343 -0.620323 0.42862 0
M  V30 6927 H 647.994 -1.00894 1.53273 0
M  V30 6928 H 646.376 -3.63552 1.5699 0
M  V30 6929 H 647.55 -2.2058 4.04575 0
M  V30 6930 H 645.865 -2.13072 3.57756 0
M  V30 6931 H 648.462 -4.70866 2.53357 0
M  V30 6932 H 648.805 -4.05277 0.951643 0
M  V30 6933 H 649.338 -3.1701 2.40311 0
M  V30 6934 H 646.077 -3.81488 5.33055 0
M  V30 6935 H 645.597 -4.62351 3.82089 0
M  V30 6936 H 647.276 -4.74004 4.40374 0
M  V30 6937 N 647.408 -1.11026 -1.11852 0
M  V30 6938 C 648.633 -0.879064 -1.87849 0
M  V30 6939 C 649.058 0.565406 -1.79401 0
M  V30 6940 O 648.416 1.39886 -1.15333 0
M  V30 6941 C 648.464 -1.33985 -3.34784 0
M  V30 6942 O 647.568 -0.508803 -4.09249 0
M  V30 6943 H 646.909 -0.316992 -0.583448 0
M  V30 6944 H 649.439 -1.47863 -1.41413 0
M  V30 6945 H 649.449 -1.33248 -3.85628 0
M  V30 6946 H 648.124 -2.39172 -3.40249 0
M  V30 6947 H 646.701 -0.581913 -3.68332 0
M  V30 6948 N 648.886 1.2938 -0.899927 0
M  V30 6949 C 649.834 2.29675 -0.367698 0
M  V30 6950 C 650.828 1.60787 0.533282 0
M  V30 6951 O 652.034 1.75126 0.416058 0
M  V30 6952 H 648.409 0.745284 -0.100279 0
M  V30 6953 H 650.38 2.72008 -1.22696 0
M  V30 6954 C 649.129 3.45512 0.389483 0
M  V30 6955 H 648.452 3.98713 -0.294575 0
M  V30 6956 H 649.892 4.17725 0.726744 0
M  V30 6957 C 648.351 2.969 1.59223 0
M  V30 6958 O 648.881 2.98195 2.69152 0
M  V30 6959 N 647.087 2.52728 1.43447 0
M  V30 6960 H 646.634 2.51873 0.540148 0
M  V30 6961 H 646.592 2.20561 2.24054 0
M  V30 6962 N 650.364 0.662433 1.43002 0
M  V30 6963 C 651.297 -0.073459 2.28082 0
M  V30 6964 C 652.275 -0.820869 1.40358 0
M  V30 6965 O 653.459 -0.818545 1.698 0
M  V30 6966 C 650.586 -1.11097 3.19961 0
M  V30 6967 C 649.632 -0.460557 4.24006 0
M  V30 6968 S 650.465 0.772717 5.29896 0
M  V30 6969 C 651.621 -0.264028 6.25343 0
M  V30 6970 H 651.854 0.648227 2.90147 0
M  V30 6971 H 649.387 0.451566 1.47649 0
M  V30 6972 H 651.345 -1.70452 3.73439 0
M  V30 6973 H 650.006 -1.80503 2.57056 0
M  V30 6974 H 649.199 -1.24299 4.88432 0
M  V30 6975 H 648.801 0.0591038 3.73953 0
M  V30 6976 H 651.093 -1.12748 6.68052 0
M  V30 6977 H 652.036 0.345443 7.07257 0
M  V30 6978 H 652.444 -0.603964 5.6126 0
M  V30 6979 N 651.842 -1.52309 0.404946 0
M  V30 6980 C 653.07 -2.06185 -0.171818 0
M  V30 6981 C 653.485 -1.27536 -1.39212 0
M  V30 6982 O 652.842 -0.326112 -1.79563 0
M  V30 6983 C 652.893 -3.57647 -0.526417 0
M  V30 6984 O 652.614 -4.3332 0.645417 0
M  V30 6985 C 654.115 -4.27925 -1.15736 0
M  V30 6986 H 651.335 -0.670632 -0.0222328 0
M  V30 6987 H 653.879 -1.96259 0.574692 0
M  V30 6988 H 652.034 -3.67595 -1.22282 0
M  V30 6989 H 652.448 -5.23328 0.35042 0
M  V30 6990 H 653.922 -5.35093 -1.35572 0
M  V30 6991 H 654.399 -3.84134 -2.12926 0
M  V30 6992 H 655.005 -4.22335 -0.501281 0
M  V30 6993 N 653.32 -0.135238 -1.57019 0
M  V30 6994 C 654.545 0.529343 -2.00531 0
M  V30 6995 C 654.97 1.58391 -1.01459 0
M  V30 6996 O 654.328 1.81296 0.0113986 0
M  V30 6997 C 654.376 1.11748 -3.42848 0
M  V30 6998 O 653.48 2.23267 -3.46736 0
M  V30 6999 H 652.821 0.130669 -0.651016 0
M  V30 7000 H 655.351 -0.228503 -2.0332 0
M  V30 7001 H 655.361 1.44905 -3.81401 0
M  V30 7002 H 654.036 0.345147 -4.14465 0
M  V30 7003 H 652.613 1.91428 -3.20015 0
M  V30 7004 N 654.798 1.5699 0.138552 0
M  V30 7005 C 655.73 1.95515 1.1961 0
M  V30 7006 C 656.743 0.852002 1.38726 0
M  V30 7007 O 657.932 1.13038 1.38147 0
M  V30 7008 C 655.032 2.2213 2.55952 0
M  V30 7009 C 654.205 3.53424 2.57702 0
M  V30 7010 C 653.264 3.6848 3.75645 0
M  V30 7011 O 652.29 4.4079 3.60129 0
M  V30 7012 N 653.492 3.05777 4.93438 0
M  V30 7013 H 656.257 2.86838 0.868557 0
M  V30 7014 H 653.818 1.58542 0.328033 0
M  V30 7015 H 655.81 2.29435 3.33379 0
M  V30 7016 H 654.38 1.3703 2.80965 0
M  V30 7017 H 653.6 3.57484 1.6613 0
M  V30 7018 H 654.888 4.39759 2.55909 0
M  V30 7019 H 654.286 2.46961 5.08947 0
M  V30 7020 H 652.843 3.18631 5.6861 0
M  V30 7021 N 656.276 -0.40816 1.52223 0
M  V30 7022 C 657.186 -1.52202 1.78526 0
M  V30 7023 C 658.202 -1.60546 0.670892 0
M  V30 7024 O 659.378 -1.77242 0.956404 0
M  V30 7025 C 656.443 -2.87928 1.93128 0
M  V30 7026 C 655.504 -2.89463 3.17033 0
M  V30 7027 C 654.737 -4.18715 3.30929 0
M  V30 7028 O 654.96 -5.12662 2.50067 0
M  V30 7029 O 653.894 -4.27125 4.24084 0
M  V30 7030 H 657.72 -1.32911 2.73072 0
M  V30 7031 H 655.305 -0.594112 1.37079 0
M  V30 7032 H 657.187 -3.68426 2.04549 0
M  V30 7033 H 655.862 -3.07285 1.01772 0
M  V30 7034 H 654.769 -2.07815 3.11069 0
M  V30 7035 H 656.102 -2.75055 4.08174 0
M  V30 7036 N 657.755 -1.42862 -0.66545 0
M  V30 7037 C 659.002 -1.4383 -1.42546 0
M  V30 7038 C 659.33 -0.0581114 -1.94413 0
M  V30 7039 O 658.585 0.935002 -1.71919 0
M  V30 7040 C 658.884 -2.4175 -2.63233 0
M  V30 7041 C 658.55 -3.87915 -2.29854 0
M  V30 7042 C 657.212 -4.27726 -2.20463 0
M  V30 7043 C 659.564 -4.80074 -2.02924 0
M  V30 7044 C 656.892 -5.57666 -1.82279 0
M  V30 7045 C 659.244 -6.10366 -1.66242 0
M  V30 7046 C 657.908 -6.49167 -1.55367 0
M  V30 7047 H 657.178 -0.52631 -0.521612 0
M  V30 7048 H 659.825 -1.75863 -0.757914 0
M  V30 7049 H 658.13 -2.03077 -3.35063 0
M  V30 7050 H 659.827 -2.39759 -3.21429 0
M  V30 7051 H 656.417 -3.564 -2.3807 0
M  V30 7052 H 660.601 -4.50097 -2.09108 0
M  V30 7053 H 655.857 -5.8658 -1.72436 0
M  V30 7054 H 660.031 -6.81258 -1.44432 0
M  V30 7055 H 657.658 -7.49761 -1.2555 0
M  V30 7056 N 659.233 0.902656 -1.29189 0
M  V30 7057 C 660.479 1.65532 -1.17163 0
M  V30 7058 C 660.812 1.92216 0.276879 0
M  V30 7059 O 660.087 1.53048 1.20027 0
M  V30 7060 C 660.37 3.00629 -1.98228 0
M  V30 7061 C 660.223 2.81029 -3.51202 0
M  V30 7062 C 661.542 4.01321 -1.80635 0
M  V30 7063 H 658.661 0.60071 -0.426985 0
M  V30 7064 H 661.303 1.04578 -1.5863 0
M  V30 7065 H 659.453 3.52656 -1.62991 0
M  V30 7066 H 661.125 2.35927 -3.96404 0
M  V30 7067 H 659.368 2.1587 -3.76275 0
M  V30 7068 H 660.039 3.77014 -4.03192 0
M  V30 7069 H 662.515 3.58394 -2.11406 0
M  V30 7070 H 661.391 4.93792 -2.3971 0
M  V30 7071 H 661.652 4.35505 -0.760754 0
M  V30 7072 N 660.711 1.11618 1.11262 0
M  V30 7073 C 661.621 0.78898 2.20935 0
M  V30 7074 C 662.637 -0.21867 1.7262 0
M  V30 7075 O 663.813 -0.0543826 2.01327 0
M  V30 7076 C 660.878 0.239014 3.45875 0
M  V30 7077 C 659.939 1.3055 4.08968 0
M  V30 7078 C 659.172 0.781687 5.27944 0
M  V30 7079 O 659.395 -0.387605 5.69082 0
M  V30 7080 O 658.329 1.54734 5.81671 0
M  V30 7081 H 662.155 1.70477 2.51339 0
M  V30 7082 H 659.74 0.892203 1.19834 0
M  V30 7083 H 661.622 -0.0632312 4.21353 0
M  V30 7084 H 660.297 -0.649454 3.17118 0
M  V30 7085 H 659.204 1.66079 3.35214 0
M  V30 7086 H 660.537 2.16743 4.41909 0
M  V30 7087 N 662.189 -1.289 0.906776 0
M  V30 7088 C 663.136 -2.2751 0.388313 0
M  V30 7089 C 664.106 -1.57301 -0.533439 0
M  V30 7090 O 665.291 -1.85243 -0.457148 0
M  V30 7091 C 662.431 -3.43091 -0.37181 0
M  V30 7092 C 661.544 -4.28066 0.581647 0
M  V30 7093 C 660.679 -5.30837 -0.19623 0
M  V30 7094 C 659.718 -6.07472 0.751294 0
M  V30 7095 N 658.855 -7.021 0.00737727 0
M  V30 7096 H 663.695 -2.71237 1.23428 0
M  V30 7097 H 661.232 -1.33397 0.619962 0
M  V30 7098 H 663.19 -4.08888 -0.828641 0
M  V30 7099 H 661.82 -3.00374 -1.18218 0
M  V30 7100 H 660.872 -3.62378 1.157 0
M  V30 7101 H 662.184 -4.81382 1.30665 0
M  V30 7102 H 661.338 -6.02485 -0.71394 0
M  V30 7103 H 660.077 -4.78272 -0.954324 0
M  V30 7104 H 659.082 -5.34682 1.28044 0
M  V30 7105 H 660.307 -6.62126 1.50883 0
M  V30 7106 H 658.253 -6.51894 -0.732854 0
M  V30 7107 H 658.17 -7.53004 0.672334 0
M  V30 7108 H 659.438 -7.77956 -0.490365 0
M  V30 7109 N 663.667 -0.670007 -1.42649 0
M  V30 7110 C 664.597 -0.00258501 -2.335 0
M  V30 7111 C 665.578 0.794364 -1.50412 0
M  V30 7112 O 666.763 0.75248 -1.79029 0
M  V30 7113 C 663.893 0.952748 -3.33976 0
M  V30 7114 C 662.847 0.264733 -4.2718 0
M  V30 7115 C 662.173 1.33267 -5.17826 0
M  V30 7116 C 663.473 -0.853289 -5.15283 0
M  V30 7117 H 665.167 -0.761326 -2.89559 0
M  V30 7118 H 662.713 -0.367561 -1.3923 0
M  V30 7119 H 664.666 1.4287 -3.96442 0
M  V30 7120 H 663.39 1.74285 -2.7621 0
M  V30 7121 H 662.049 -0.190938 -3.66102 0
M  V30 7122 H 661.697 2.11464 -4.5639 0
M  V30 7123 H 661.397 0.877476 -5.81011 0
M  V30 7124 H 662.921 1.80965 -5.83167 0
M  V30 7125 H 664.335 -0.458763 -5.71462 0
M  V30 7126 H 662.732 -1.23398 -5.87276 0
M  V30 7127 H 663.802 -1.70412 -4.53969 0
M  V30 7128 N 665.145 1.52092 -0.413018 0
M  V30 7129 C 666.373 2.06274 0.160881 0
M  V30 7130 C 666.788 1.28273 1.38533 0
M  V30 7131 O 666.145 0.33563 1.79387 0
M  V30 7132 C 666.196 3.57921 0.507443 0
M  V30 7133 O 665.917 4.32971 -0.668388 0
M  V30 7134 C 667.418 4.28533 1.13465 0
M  V30 7135 H 664.638 0.67074 0.0186759 0
M  V30 7136 H 667.182 1.95951 -0.585092 0
M  V30 7137 H 665.337 3.68238 1.20331 0
M  V30 7138 H 665.751 5.23135 -0.378169 0
M  V30 7139 H 667.225 5.35804 1.32732 0
M  V30 7140 H 667.702 3.85258 2.10886 0
M  V30 7141 H 668.308 4.22595 0.478876 0
M  V30 7142 N 666.623 0.143563 1.56945 0
M  V30 7143 C 667.57 -0.797433 2.16586 0
M  V30 7144 C 668.54 -1.24654 1.09775 0
M  V30 7145 O 669.725 -1.31968 1.37801 0
M  V30 7146 C 666.865 -2.03253 2.78895 0
M  V30 7147 C 665.978 -1.62954 4.00087 0
M  V30 7148 C 665.113 -2.81617 4.50406 0
M  V30 7149 C 664.152 -2.37675 5.64072 0
M  V30 7150 N 663.289 -3.49335 6.09023 0
M  V30 7151 H 668.129 -0.282023 2.96662 0
M  V30 7152 H 665.666 -0.127494 1.46546 0
M  V30 7153 H 667.624 -2.75653 3.13163 0
M  V30 7154 H 666.254 -2.52211 2.01469 0
M  V30 7155 H 665.306 -0.803322 3.71821 0
M  V30 7156 H 666.618 -1.26679 4.82446 0
M  V30 7157 H 665.772 -3.62212 4.86711 0
M  V30 7158 H 664.511 -3.21134 3.67048 0
M  V30 7159 H 663.516 -1.55519 5.27346 0
M  V30 7160 H 664.741 -1.99247 6.49213 0
M  V30 7161 H 662.687 -3.8848 5.28601 0
M  V30 7162 H 662.604 -3.17064 6.86299 0
M  V30 7163 H 663.872 -4.30297 6.49973 0
M  V30 7164 N 668.101 -1.57061 -0.130224 0
M  V30 7165 C 669.517 -1.52103 -0.483413 0
M  V30 7166 C 669.717 -0.854752 -1.82473 0
M  V30 7167 O 668.773 -0.432342 -2.48771 0
M  V30 7168 C 670.086 -2.96872 -0.47825 0
M  V30 7169 C 671.634 -3.07902 -0.562592 0
M  V30 7170 C 672.109 -4.54211 -0.587929 0
M  V30 7171 N 673.6 -4.58621 -0.649684 0
M  V30 7172 C 674.335 -5.69227 -0.690551 0
M  V30 7173 N 673.831 -6.89358 -0.689743 0
M  V30 7174 N 675.624 -5.57304 -0.732708 0
M  V30 7175 H 667.775 -1.98764 0.748779 0
M  V30 7176 H 670.038 -0.907248 0.274965 0
M  V30 7177 H 669.744 -3.48944 0.439444 0
M  V30 7178 H 669.618 -3.53716 -1.31013 0
M  V30 7179 H 672.005 -2.5584 -1.47071 0
M  V30 7180 H 672.086 -2.54073 0.296764 0
M  V30 7181 H 671.73 -5.06915 0.316096 0
M  V30 7182 H 671.66 -5.0584 -1.46401 0
M  V30 7183 H 674.151 -3.72146 -0.656927 0
M  V30 7184 H 674.464 -7.69408 -0.723239 0
M  V30 7185 H 672.809 -6.91884 -0.657347 0
M  V30 7186 H 676 -4.62363 -0.730625 0
M  V30 7187 H 676.173 -6.43515 -0.76109 0
M  V30 7188 N 669.579 0.400081 -1.52437 0
M  V30 7189 C 670.509 1.4947 -1.7939 0
M  V30 7190 C 671.49 1.57383 -0.645329 0
M  V30 7191 O 672.675 1.72511 -0.891826 0
M  V30 7192 C 669.805 2.87201 -1.95276 0
M  V30 7193 C 668.759 2.94134 -3.10917 0
M  V30 7194 C 668.085 4.34207 -3.1204 0
M  V30 7195 C 669.385 2.64791 -4.50203 0
M  V30 7196 H 671.079 1.27165 -2.71052 0
M  V30 7197 H 668.625 0.610312 -1.30427 0
M  V30 7198 H 670.578 3.63772 -2.12715 0
M  V30 7199 H 669.302 3.10819 -1.00294 0
M  V30 7200 H 667.961 2.20009 -2.93243 0
M  V30 7201 H 667.609 4.54848 -2.14761 0
M  V30 7202 H 667.309 4.39768 -3.89715 0
M  V30 7203 H 668.833 5.127 -3.31619 0
M  V30 7204 H 670.247 3.31083 -4.68035 0
M  V30 7205 H 668.644 2.81717 -5.29864 0
M  V30 7206 H 669.714 1.60184 -4.57678 0
M  V30 7207 N 671.057 1.43213 0.657864 0
M  V30 7208 C 672.004 1.48011 1.77092 0
M  V30 7209 C 672.974 0.330291 1.62783 0
M  V30 7210 O 674.159 0.536787 1.83094 0
M  V30 7211 C 671.299 1.40461 3.15222 0
M  V30 7212 C 670.412 2.65612 3.40697 0
M  V30 7213 C 669.547 2.50083 4.68649 0
M  V30 7214 C 668.586 3.70525 4.87214 0
M  V30 7215 N 667.723 3.53835 6.0642 0
M  V30 7216 H 672.563 2.43121 1.72326 0
M  V30 7217 H 670.1 1.20687 0.841013 0
M  V30 7218 H 672.058 1.34079 3.95068 0
M  V30 7219 H 670.688 0.489359 3.19069 0
M  V30 7220 H 669.74 2.82292 2.54982 0
M  V30 7221 H 671.052 3.5509 3.50303 0
M  V30 7222 H 670.206 2.41383 5.56614 0
M  V30 7223 H 668.945 1.58121 4.61356 0
M  V30 7224 H 667.95 3.79639 3.97686 0
M  V30 7225 H 669.175 4.63489 4.96341 0
M  V30 7226 H 667.121 2.64604 6.00267 0
M  V30 7227 H 667.038 4.36912 6.16963 0
M  V30 7228 H 668.306 3.48978 6.97019 0
M  V30 7229 N 672.536 -0.895792 1.29666 0
M  V30 7230 C 673.952 -1.17726 1.07763 0
M  V30 7231 C 674.152 -2.00794 -0.168576 0
M  V30 7232 O 673.208 -2.37213 -0.865244 0
M  V30 7233 C 674.521 -1.89441 2.33522 0
M  V30 7234 C 676.069 -2.02251 2.3888 0
M  V30 7235 C 676.544 -2.77378 3.64452 0
M  V30 7236 N 678.035 -2.8493 3.65198 0
M  V30 7237 C 678.77 -3.43606 4.59045 0
M  V30 7238 N 678.266 -4.03417 5.63228 0
M  V30 7239 N 680.059 -3.41317 4.46608 0
M  V30 7240 H 672.21 -0.341652 2.09634 0
M  V30 7241 H 674.473 -0.213865 0.923561 0
M  V30 7242 H 674.179 -1.35842 3.24407 0
M  V30 7243 H 674.053 -2.89893 2.41334 0
M  V30 7244 H 676.44 -2.55025 1.4848 0
M  V30 7245 H 676.521 -1.0092 2.3505 0
M  V30 7246 H 676.165 -2.25279 4.55205 0
M  V30 7247 H 676.095 -3.79062 3.65541 0
M  V30 7248 H 678.586 -2.42453 2.89871 0
M  V30 7249 H 678.899 -4.46224 6.30955 0
M  V30 7250 H 677.244 -4.01868 5.67033 0
M  V30 7251 H 680.435 -2.93812 3.64407 0
M  V30 7252 H 680.608 -3.86751 5.1993 0
M  V30 7253 N 674.014 -1.12206 -1.10668 0
M  V30 7254 C 674.964 -0.75669 -2.15077 0
M  V30 7255 C 675.948 0.243154 -1.59052 0
M  V30 7256 O 677.14 0.0490268 -1.76932 0
M  V30 7257 C 674.269 -0.210303 -3.42655 0
M  V30 7258 C 673.355 -1.23829 -4.05619 0
M  V30 7259 N 673.746 -2.43513 -4.43323 0
M  V30 7260 C 672.044 -1.08309 -4.32649 0
M  V30 7261 C 672.745 -3.09138 -4.92756 0
M  V30 7262 N 671.721 -2.36593 -4.89413 0
M  V30 7263 H 675.523 -1.66747 -2.42018 0
M  V30 7264 H 673.037 -1.00248 -1.27765 0
M  V30 7265 H 675.034 0.0696287 -4.16842 0
M  V30 7266 H 673.694 0.694967 -3.17176 0
M  V30 7267 H 674.705 -2.80912 -4.35097 0
M  V30 7268 H 671.382 -0.234919 -4.16839 0
M  V30 7269 H 672.772 -4.11049 -5.31496 0
M  V30 7270 N 675.492 1.28418 -0.913599 0
M  V30 7271 C 676.903 1.77024 -0.593237 0
M  V30 7272 C 677.254 1.74779 0.891441 0
M  V30 7273 O 676.379 1.34237 1.69733 0
M  V30 7274 C 676.974 3.21456 -1.07011 0
M  V30 7275 C 675.533 3.67786 -0.800664 0
M  V30 7276 C 674.68 2.48185 -1.23691 0
M  V30 7277 H 677.631 1.14883 -1.09487 0
M  V30 7278 H 677.652 3.78269 -0.411481 0
M  V30 7279 H 677.164 3.23058 -2.1507 0
M  V30 7280 H 675.265 3.71644 0.266725 0
M  V30 7281 H 675.378 4.57934 -1.4083 0
M  V30 7282 H 673.742 2.46116 -0.655655 0
M  V30 7283 H 674.525 2.52506 -2.32585 0
M  V30 7284 N 676.97 0.677563 1.42291 0
M  V30 7285 C 677.88 0.000962654 2.346 0
M  V30 7286 C 678.896 -0.785833 1.55244 0
M  V30 7287 O 680.072 -0.727523 1.87801 0
M  V30 7288 C 677.137 -0.936746 3.33805 0
M  V30 7289 C 676.198 -0.144173 4.29058 0
M  V30 7290 C 675.431 -1.03722 5.23524 0
M  V30 7291 O 675.654 -2.27675 5.22992 0
M  V30 7292 O 674.588 -0.496542 5.99848 0
M  V30 7293 H 678.414 0.761397 2.94001 0
M  V30 7294 H 675.999 0.43781 1.42841 0
M  V30 7295 H 677.881 -1.47497 3.94744 0
M  V30 7296 H 676.556 -1.67698 2.76874 0
M  V30 7297 H 675.463 0.438224 3.71524 0
M  V30 7298 H 676.796 0.55701 4.89038 0
M  V30 7299 N 678.448 -1.51871 0.421078 0
M  V30 7300 C 679.358 -2.31077 -0.405069 0
M  V30 7301 C 680.374 -1.39301 -1.04265 0
M  V30 7302 O 681.55 -1.72376 -1.04157 0
M  V30 7303 C 678.615 -3.12556 -1.50032 0
M  V30 7304 C 677.676 -4.20088 -0.884559 0
M  V30 7305 C 676.909 -4.97673 -1.92762 0
M  V30 7306 O 677.132 -4.75696 -3.14753 0
M  V30 7307 O 676.066 -5.82203 -1.52719 0
M  V30 7308 H 679.892 -3.02742 0.241086 0
M  V30 7309 H 677.477 -1.48263 0.183991 0
M  V30 7310 H 679.359 -3.6326 -2.13589 0
M  V30 7311 H 678.034 -2.43672 -2.13086 0
M  V30 7312 H 676.941 -3.73502 -0.211379 0
M  V30 7313 H 678.274 -4.91298 -0.297763 0
M  V30 7314 N 679.926 -0.151884 -1.56866 0
M  V30 7315 C 681.154 0.504813 -2.00647 0
M  V30 7316 C 681.569 1.58098 -1.03201 0
M  V30 7317 O 680.926 1.82476 -0.0297814 0
M  V30 7318 C 680.977 1.10099 -3.44326 0
M  V30 7319 O 680.698 0.0678021 -4.38048 0
M  V30 7320 C 682.199 1.83782 -4.03409 0
M  V30 7321 H 679.419 0.130989 -0.65809 0
M  V30 7322 H 681.963 -0.247903 -2.02992 0
M  V30 7323 H 680.118 1.8043 -3.42817 0
M  V30 7324 H 680.532 0.505237 -5.22061 0
M  V30 7325 H 682.006 2.2078 -5.05925 0
M  V30 7326 H 682.483 2.72557 -3.44397 0
M  V30 7327 H 683.089 1.18138 -4.08563 0
M  V30 7328 N 681.404 1.57128 0.121893 0
M  V30 7329 C 682.652 1.84335 0.828548 0
M  V30 7330 C 682.973 0.736632 1.80551 0
M  V30 7331 O 682.243 -0.23962 1.94429 0
M  V30 7332 H 680.823 0.680108 0.30897 0
M  V30 7333 H 683.485 1.9459 0.109906 0
M  V30 7334 H 682.581 2.80152 1.37554 0
M  V30 7335 N 682.882 -0.391992 1.52647 0
M  V30 7336 C 684.13 -1.13507 1.67214 0
M  V30 7337 C 684.451 -1.90575 0.41304 0
M  V30 7338 O 683.721 -1.87348 -0.572498 0
M  V30 7339 H 682.301 -0.422013 0.616372 0
M  V30 7340 H 684.963 -0.44502 1.89751 0
M  V30 7341 H 684.059 -1.83964 2.52118 0
M  V30 7342 N 684.36 -1.4356 -0.65026 0
M  V30 7343 C 685.607 -1.45333 -1.41012 0
M  V30 7344 C 685.935 -0.0787282 -1.94341 0
M  V30 7345 O 685.19 0.916715 -1.72901 0
M  V30 7346 C 685.489 -2.44528 -2.60654 0
M  V30 7347 C 685.155 -3.90331 -2.25727 0
M  V30 7348 C 683.817 -4.3004 -2.15914 0
M  V30 7349 C 686.169 -4.822 -1.97821 0
M  V30 7350 C 683.497 -5.59568 -1.76354 0
M  V30 7351 C 685.849 -6.12095 -1.59759 0
M  V30 7352 C 684.513 -6.50778 -1.48473 0
M  V30 7353 H 683.783 -0.531813 -0.516 0
M  V30 7354 H 686.43 -1.76657 -0.739219 0
M  V30 7355 H 684.735 -2.06619 -3.3289 0
M  V30 7356 H 686.432 -2.43155 -3.18868 0
M  V30 7357 H 683.022 -3.58905 -2.34276 0
M  V30 7358 H 687.206 -4.5229 -2.04322 0
M  V30 7359 H 682.462 -5.88376 -1.66205 0
M  V30 7360 H 686.636 -6.82751 -1.37198 0
M  V30 7361 H 684.263 -7.5105 -1.17591 0
M  V30 7362 N 685.838 0.888903 -1.30139 0
M  V30 7363 C 686.77 1.99972 -1.11999 0
M  V30 7364 C 687.783 1.62673 -0.0643619 0
M  V30 7365 O 688.972 1.75788 -0.309983 0
M  V30 7366 C 686.072 3.31904 -0.685059 0
M  V30 7367 C 685.245 3.97665 -1.82158 0
M  V30 7368 C 684.304 5.07894 -1.37585 0
M  V30 7369 O 683.33 5.2974 -2.08241 0
M  V30 7370 N 684.532 5.7995 -0.252697 0
M  V30 7371 H 687.297 2.16085 -2.07671 0
M  V30 7372 H 684.858 1.06175 -1.22223 0
M  V30 7373 H 686.85 4.03005 -0.369964 0
M  V30 7374 H 685.42 3.12084 0.179507 0
M  V30 7375 H 684.64 3.19787 -2.305 0
M  V30 7376 H 685.928 4.3834 -2.58332 0
M  V30 7377 H 685.326 5.647 0.336141 0
M  V30 7378 H 683.883 6.518 0.00296813 0
M  V30 7379 N 687.317 1.12792 1.10072 0
M  V30 7380 C 688.227 0.812369 2.20086 0
M  V30 7381 C 689.243 -0.200349 1.72843 0
M  V30 7382 O 690.419 -0.0330262 2.01373 0
M  V30 7383 C 687.484 0.275685 3.45602 0
M  V30 7384 C 686.545 1.34881 4.07561 0
M  V30 7385 C 685.778 0.837639 5.27086 0
M  V30 7386 O 686.001 -0.327224 5.69461 0
M  V30 7387 O 684.935 1.60894 5.79997 0
M  V30 7388 H 688.761 1.73133 2.49517 0
M  V30 7389 H 686.346 0.904863 1.18881 0
M  V30 7390 H 688.228 -0.0185375 4.21396 0
M  V30 7391 H 686.903 -0.615783 3.17789 0
M  V30 7392 H 685.81 1.69625 3.33434 0
M  V30 7393 H 687.143 2.21418 4.39585 0
M  V30 7394 N 688.795 -1.27931 0.920396 0
M  V30 7395 C 689.758 -2.25345 0.41858 0
M  V30 7396 C 690.758 -1.54116 -0.458798 0
M  V30 7397 O 691.948 -1.72235 -0.260912 0
M  V30 7398 C 689.08 -3.38556 -0.399104 0
M  V30 7399 H 690.273 -2.71251 1.27918 0
M  V30 7400 H 687.826 -1.39728 0.700406 0
M  V30 7401 H 688.561 -2.98021 -1.27882 0
M  V30 7402 H 688.346 -3.91426 0.229863 0
M  V30 7403 H 689.836 -4.10976 -0.740817 0
M  V30 7404 N 690.273 -0.685099 -1.4193 0
M  V30 7405 C 691.684 -0.287699 -1.8447 0
M  V30 7406 C 692.035 1.17215 -1.57338 0
M  V30 7407 O 691.16 1.89856 -1.03845 0
M  V30 7408 C 691.755 -0.515385 -3.34857 0
M  V30 7409 C 690.314 -0.172006 -3.76007 0
M  V30 7410 C 689.461 -0.802808 -2.65425 0
M  V30 7411 H 692.412 -0.88652 -1.3163 0
M  V30 7412 H 692.433 0.229251 -3.79809 0
M  V30 7413 H 691.945 -1.57796 -3.54573 0
M  V30 7414 H 690.046 0.886716 -3.61895 0
M  V30 7415 H 690.159 -0.619717 -4.75075 0
M  V30 7416 H 688.523 -0.233267 -2.5363 0
M  V30 7417 H 689.306 -1.86904 -2.87961 0
M  V30 7418 N 691.751 1.51645 -0.429126 0
M  V30 7419 C 692.681 2.30434 0.377148 0
M  V30 7420 C 693.662 1.35493 1.02838 0
M  V30 7421 O 694.847 1.6441 1.03359 0
M  V30 7422 C 691.977 3.14038 1.48315 0
M  V30 7423 C 690.931 4.1719 0.955855 0
M  V30 7424 C 690.257 4.89263 2.15698 0
M  V30 7425 C 691.557 5.223 -0.00402136 0
M  V30 7426 H 693.251 2.98085 -0.280336 0
M  V30 7427 H 690.797 1.43354 -0.136265 0
M  V30 7428 H 692.75 3.67933 2.05435 0
M  V30 7429 H 691.474 2.44193 2.16881 0
M  V30 7430 H 690.133 3.64335 0.406929 0
M  V30 7431 H 689.781 4.15929 2.82864 0
M  V30 7432 H 689.481 5.59009 1.81059 0
M  V30 7433 H 691.005 5.45978 2.73387 0
M  V30 7434 H 692.419 5.71315 0.476607 0
M  V30 7435 H 690.816 5.99525 -0.26258 0
M  V30 7436 H 691.886 4.75638 -0.943236 0
M  V30 7437 N 693.229 0.160201 1.56784 0
M  V30 7438 C 694.192 -0.760405 2.16219 0
M  V30 7439 C 695.192 -1.16595 1.10735 0
M  V30 7440 O 696.382 -1.08472 1.36306 0
M  V30 7441 C 693.514 -2.03358 2.73603 0
M  V30 7442 H 694.707 -0.243173 2.98912 0
M  V30 7443 H 692.26 -0.0893139 1.56045 0
M  V30 7444 H 692.995 -2.59416 1.94612 0
M  V30 7445 H 692.78 -1.75186 3.50788 0
M  V30 7446 H 694.27 -2.69081 3.19351 0
M  V30 7447 N 694.707 -1.5719 -0.113559 0
M  V30 7448 C 695.937 -1.89053 -0.833212 0
M  V30 7449 C 696.345 -0.750139 -1.73694 0
M  V30 7450 O 695.688 0.287808 -1.81431 0
M  V30 7451 C 695.75 -3.15986 -1.71443 0
M  V30 7452 C 695.414 -4.46271 -0.984449 0
M  V30 7453 C 696.411 -5.18897 -0.322741 0
M  V30 7454 C 694.096 -4.92963 -0.964011 0
M  V30 7455 C 696.09 -6.3644 0.349646 0
M  V30 7456 C 693.777 -6.10422 -0.287828 0
M  V30 7457 C 694.775 -6.82009 0.36784 0
M  V30 7458 O 694.463 -7.97233 1.03322 0
M  V30 7459 H 694.195 -0.630225 -0.244526 0
M  V30 7460 H 696.749 -2.05152 -0.100847 0
M  V30 7461 H 694.979 -2.95984 -2.48858 0
M  V30 7462 H 696.668 -3.33826 -2.309 0
M  V30 7463 H 697.434 -4.83875 -0.330114 0
M  V30 7464 H 693.313 -4.37143 -1.46379 0
M  V30 7465 H 696.857 -6.92254 0.861996 0
M  V30 7466 H 692.754 -6.449 -0.278237 0
M  V30 7467 H 693.522 -8.13105 0.938247 0
M  V30 7468 N 696.185 0.383891 -1.52853 0
M  V30 7469 C 697.462 1.14296 -1.58732 0
M  V30 7470 C 697.842 2.07585 -0.383611 0
M  V30 7471 O 697.19 2.1971 0.627661 0
M  V30 7472 C 697.4 1.89816 -2.92867 0
M  V30 7473 C 698.748 2.44998 -3.46787 0
M  V30 7474 O 699.772 1.99966 -2.94774 0
M  V30 7475 O 698.631 3.2727 -4.37672 0
M  V30 7476 H 695.725 0.52326 -0.640413 0
M  V30 7477 H 698.271 0.388631 -1.6519 0
M  V30 7478 H 697.043 1.21626 -3.71918 0
M  V30 7479 H 696.666 2.72199 -2.89816 0
M  V30 7480 N 697.663 1.43903 0.642637 0
M  V30 7481 C 698.626 1.49538 1.73698 0
M  V30 7482 C 699.626 0.378776 1.56275 0
M  V30 7483 O 700.816 0.64095 1.6198 0
M  V30 7484 C 697.948 1.35821 3.12675 0
M  V30 7485 H 699.141 2.47008 1.70079 0
M  V30 7486 H 696.694 1.30824 0.85526 0
M  V30 7487 H 697.429 0.393994 3.21898 0
M  V30 7488 H 697.214 2.16776 3.26727 0
M  V30 7489 H 698.704 1.4272 3.92455 0
M  V30 7490 N 699.141 -0.881989 1.30609 0
M  V30 7491 C 700.39 -1.62878 1.18969 0
M  V30 7492 C 700.703 -1.93946 -0.253859 0
M  V30 7493 O 701.909 -2.67008 -0.491813 0
M  V30 7494 C 700.365 -2.93573 2.0819 0
M  V30 7495 C 699.973 -2.70034 3.57471 0
M  V30 7496 C 701.717 -3.71543 2.0532 0
M  V30 7497 C 699.624 -3.96563 4.38739 0
M  V30 7498 H 698.554 -0.611092 0.441682 0
M  V30 7499 H 701.205 -0.976201 1.55379 0
M  V30 7500 H 699.587 -3.6014 1.64666 0
M  V30 7501 H 700.761 -2.11949 4.09163 0
M  V30 7502 H 699.076 -2.05435 3.62195 0
M  V30 7503 H 701.673 -4.65386 2.63288 0
M  V30 7504 H 702.016 -4.03167 1.03739 0
M  V30 7505 H 702.549 -3.11842 2.46981 0
M  V30 7506 H 699.288 -3.70095 5.41027 0
M  V30 7507 H 698.808 -4.54142 3.9181 0
M  V30 7508 H 700.487 -4.64557 4.50329 0
M  V30 7509 N 700.619 -1.13374 -1.09472 0
M  V30 7510 C 701.865 -0.906459 -1.82085 0
M  V30 7511 C 702.22 0.5614 -1.84027 0
M  V30 7512 O 701.513 1.41012 -1.29716 0
M  V30 7513 C 701.707 -1.42759 -3.2765 0
M  V30 7514 C 701.536 -2.94459 -3.39888 0
M  V30 7515 C 700.306 -3.62798 -3.51718 0
M  V30 7516 C 702.504 -3.92398 -3.32457 0
M  V30 7517 N 700.486 -5.02516 -3.52635 0
M  V30 7518 C 701.857 -5.18304 -3.40237 0
M  V30 7519 C 703.912 -3.84671 -3.16122 0
M  V30 7520 C 702.615 -6.37386 -3.33364 0
M  V30 7521 C 704.641 -5.03287 -3.10574 0
M  V30 7522 C 704.003 -6.28055 -3.18945 0
M  V30 7523 H 700.102 -0.385097 -0.680606 0
M  V30 7524 H 702.686 -1.44187 -1.30836 0
M  V30 7525 H 700.857 -0.919102 -3.77369 0
M  V30 7526 H 702.589 -1.14136 -3.88272 0
M  V30 7527 H 699.344 -3.13317 -3.55147 0
M  V30 7528 H 699.768 -5.75421 -3.56679 0
M  V30 7529 H 704.41 -2.89094 -3.0852 0
M  V30 7530 H 702.128 -7.33219 -3.3973 0
M  V30 7531 H 705.714 -4.99047 -2.9907 0
M  V30 7532 H 704.594 -7.18299 -3.14668 0
M  V30 7533 N 702.098 1.27442 -0.927168 0
M  V30 7534 C 703.061 2.2512 -0.430525 0
M  V30 7535 C 704.061 1.54357 0.450619 0
M  V30 7536 O 705.251 1.72371 0.251774 0
M  V30 7537 C 702.383 3.38763 0.381144 0
M  V30 7538 H 703.576 2.70569 -1.29354 0
M  V30 7539 H 701.129 1.39355 -0.707806 0
M  V30 7540 H 701.864 2.98695 1.263 0
M  V30 7541 H 701.649 3.91298 -0.250618 0
M  V30 7542 H 703.139 4.11364 0.719012 0
M  V30 7543 N 703.576 0.692616 1.41565 0
M  V30 7544 C 704.506 0.0397325 2.33466 0
M  V30 7545 C 705.487 -0.770334 1.51657 0
M  V30 7546 O 706.672 -0.723903 1.80203 0
M  V30 7547 C 703.802 -0.899495 3.3545 0
M  V30 7548 C 702.756 -0.196738 4.27548 0
M  V30 7549 C 702.082 -1.25012 5.19881 0
M  V30 7550 C 703.382 0.935158 5.1386 0
M  V30 7551 H 705.076 0.807296 2.88311 0
M  V30 7552 H 702.622 0.389665 1.38628 0
M  V30 7553 H 704.575 -1.36545 3.98665 0
M  V30 7554 H 703.299 -1.69869 2.78948 0
M  V30 7555 H 701.958 0.249158 3.65752 0
M  V30 7556 H 701.606 -2.04177 4.59696 0
M  V30 7557 H 701.306 -0.784931 5.82334 0
M  V30 7558 H 702.83 -1.71665 5.85972 0
M  V30 7559 H 704.244 0.549619 5.70659 0
M  V30 7560 H 702.641 1.32726 5.85238 0
M  V30 7561 H 703.711 1.77613 4.512 0
M  V30 7562 N 705.054 -1.51416 0.437162 0
M  V30 7563 C 706.017 -2.26312 -0.362729 0
M  V30 7564 C 707.017 -1.29748 -0.949847 0
M  V30 7565 O 708.207 -1.53462 -0.824325 0
M  V30 7566 C 705.339 -3.05475 -1.5132 0
M  V30 7567 H 706.532 -2.98459 0.29365 0
M  V30 7568 H 704.085 -1.55137 0.190327 0
M  V30 7569 H 704.82 -2.37744 -2.20563 0
M  V30 7570 H 704.605 -3.76401 -1.09838 0
M  V30 7571 H 706.095 -3.62209 -2.07833 0
M  V30 7572 N 706.532 -0.168513 -1.56696 0
M  V30 7573 C 707.462 0.758563 -2.20835 0
M  V30 7574 C 708.443 1.24121 -1.1631 0
M  V30 7575 O 709.628 1.29487 -1.4473 0
M  V30 7576 C 706.758 1.9892 -2.8469 0
M  V30 7577 C 705.712 1.64252 -3.95228 0
M  V30 7578 C 705.038 2.94757 -4.46119 0
M  V30 7579 C 706.338 0.872675 -5.14958 0
M  V30 7580 H 708.032 0.223953 -2.98561 0
M  V30 7581 H 705.578 0.106277 -1.43607 0
M  V30 7582 H 707.531 2.64275 -3.28233 0
M  V30 7583 H 706.255 2.5479 -2.04327 0
M  V30 7584 H 704.914 1.01266 -3.52336 0
M  V30 7585 H 704.562 3.48662 -3.62552 0
M  V30 7586 H 704.262 2.72316 -5.2069 0
M  V30 7587 H 705.786 3.61147 -4.92347 0
M  V30 7588 H 707.2 1.42875 -5.55211 0
M  V30 7589 H 705.597 0.747402 -5.95428 0
M  V30 7590 H 706.667 -0.131535 -4.84722 0
M  V30 7591 N 708.01 1.57248 0.105221 0
M  V30 7592 C 708.973 2.00388 1.11252 0
M  V30 7593 C 709.973 0.89594 1.33527 0
M  V30 7594 O 711.163 1.16166 1.29811 0
M  V30 7595 C 708.295 2.35589 2.46395 0
M  V30 7596 H 709.488 2.90591 0.741424 0
M  V30 7597 H 707.041 1.52332 0.349956 0
M  V30 7598 H 707.776 1.4831 2.884 0
M  V30 7599 H 707.561 3.16408 2.31578 0
M  V30 7600 H 709.051 2.69658 3.18864 0
M  V30 7601 N 709.488 -0.375779 1.53054 0
M  V30 7602 C 710.418 -1.46598 1.81745 0
M  V30 7603 C 711.399 -1.56337 0.670286 0
M  V30 7604 O 712.584 -1.71071 0.919158 0
M  V30 7605 C 709.714 -2.84058 1.99821 0
M  V30 7606 C 708.668 -2.8915 3.15557 0
M  V30 7607 C 707.994 -4.29187 3.18908 0
M  V30 7608 C 709.294 -2.57595 4.54359 0
M  V30 7609 H 710.988 -1.22837 2.73041 0
M  V30 7610 H 708.534 -0.589485 1.31381 0
M  V30 7611 H 710.487 -3.60342 2.18475 0
M  V30 7612 H 709.211 -3.09184 1.05226 0
M  V30 7613 H 707.87 -2.15316 2.96706 0
M  V30 7614 H 707.518 -4.51374 2.2197 0
M  V30 7615 H 707.218 -4.33512 3.96662 0
M  V30 7616 H 708.742 -5.07359 3.39734 0
M  V30 7617 H 710.156 -3.23595 4.73243 0
M  V30 7618 H 708.553 -2.73252 5.34279 0
M  V30 7619 H 709.623 -1.52882 4.60169 0
M  V30 7620 N 710.966 -1.44241 -0.634997 0
M  V30 7621 C 711.914 -1.51103 -1.76835 0
M  V30 7622 C 712.908 -0.383051 -1.65012 0
M  V30 7623 O 714.114 -0.557832 -1.71138 0
M  V30 7624 H 710.489 -0.474076 -0.583743 0
M  V30 7625 H 712.46 -2.46499 -1.68169 0
M  V30 7626 C 711.209 -1.4687 -3.15158 0
M  V30 7627 H 710.532 -2.32979 -3.24901 0
M  V30 7628 H 711.972 -1.55731 -3.94365 0
M  V30 7629 C 710.431 -0.188884 -3.3637 0
M  V30 7630 O 710.961 0.742487 -3.94778 0
M  V30 7631 N 709.167 -0.0932516 -2.9045 0
M  V30 7632 H 708.714 -0.852004 -2.43102 0
M  V30 7633 H 708.672 0.762308 -3.05018 0
M  V30 7634 N 712.444 0.87505 -1.31075 0
M  V30 7635 C 713.391 1.98178 -1.18296 0
M  V30 7636 C 714.361 1.65952 -0.0699923 0
M  V30 7637 O 715.546 1.8926 -0.241951 0
M  V30 7638 C 712.686 3.33399 -0.891024 0
M  V30 7639 C 711.799 3.78253 -2.08684 0
M  V30 7640 C 710.934 5.02166 -1.73212 0
M  V30 7641 C 709.973 5.39455 -2.89231 0
M  V30 7642 N 709.11 6.54549 -2.53989 0
M  V30 7643 H 713.95 2.0844 -2.12971 0
M  V30 7644 H 711.487 1.02047 -1.05948 0
M  V30 7645 H 713.445 4.11246 -0.702338 0
M  V30 7646 H 712.075 3.22794 0.0188799 0
M  V30 7647 H 711.127 2.9623 -2.38646 0
M  V30 7648 H 712.439 4.01821 -2.95536 0
M  V30 7649 H 711.593 5.87666 -1.50777 0
M  V30 7650 H 710.332 4.80491 -0.83544 0
M  V30 7651 H 709.337 4.52477 -3.12321 0
M  V30 7652 H 710.562 5.63098 -3.79601 0
M  V30 7653 H 708.508 6.3443 -1.66838 0
M  V30 7654 H 708.425 6.78035 -3.34372 0
M  V30 7655 H 709.693 7.43254 -2.34934 0
M  V30 7656 N 713.922 1.13953 1.08869 0
M  V30 7657 C 715.15 0.92817 1.84912 0
M  V30 7658 C 715.565 -0.523197 1.81406 0
M  V30 7659 O 714.922 -1.36237 1.21432 0
M  V30 7660 C 714.973 1.41509 3.32652 0
M  V30 7661 O 714.694 2.80959 3.36145 0
M  V30 7662 C 716.195 1.243 4.25517 0
M  V30 7663 H 713.415 0.330612 0.583898 0
M  V30 7664 H 715.959 1.51349 1.37527 0
M  V30 7665 H 714.114 0.872648 3.77444 0
M  V30 7666 H 714.528 3.02704 4.28335 0
M  V30 7667 H 716.002 1.63237 5.27312 0
M  V30 7668 H 716.479 0.18532 4.38809 0
M  V30 7669 H 717.085 1.77375 3.86546 0
M  V30 7670 N 715.4 -1.26948 0.933913 0
M  V30 7671 C 716.625 -1.98724 0.593589 0
M  V30 7672 C 717.05 -1.6915 -0.822801 0
M  V30 7673 O 716.408 -0.93533 -1.5531 0
M  V30 7674 C 716.456 -3.50834 0.833542 0
M  V30 7675 O 715.56 -4.12284 -0.0978788 0
M  V30 7676 H 714.901 -0.623683 0.227849 0
M  V30 7677 H 717.431 -1.61599 1.25486 0
M  V30 7678 H 717.441 -4.01018 0.75156 0
M  V30 7679 H 716.116 -3.71691 1.86597 0
M  V30 7680 H 714.693 -3.72884 0.0345443 0
M  V30 7681 N 716.879 -0.700114 -1.41195 0
M  V30 7682 C 718.127 -0.232546 -2.00758 0
M  V30 7683 C 718.448 1.1734 -1.55745 0
M  V30 7684 O 717.718 1.79262 -0.790058 0
M  V30 7685 H 716.298 -0.0829845 -0.742376 0
M  V30 7686 H 718.96 -0.902289 -1.72756 0
M  V30 7687 H 718.056 -0.253521 -3.11069 0
M  V30 7688 N 718.357 1.51182 -0.445186 0
M  V30 7689 C 719.605 2.01753 0.11841 0
M  V30 7690 C 719.926 1.33087 1.42523 0
M  V30 7691 O 719.196 0.467891 1.9023 0
M  V30 7692 H 717.776 0.745536 0.0467492 0
M  V30 7693 H 720.438 1.85765 -0.589688 0
M  V30 7694 H 719.534 3.10762 0.288665 0
M  V30 7695 N 719.835 0.176821 1.56605 0
M  V30 7696 C 721.083 -0.465793 1.96659 0
M  V30 7697 C 721.404 -1.63406 1.06412 0
M  V30 7698 O 720.674 -1.95457 0.131603 0
M  V30 7699 H 719.254 -0.175072 0.726195 0
M  V30 7700 H 721.916 0.25929 1.93168 0
M  V30 7701 H 721.012 -0.822138 3.01077 0
M  V30 7702 N 721.313 -1.57302 -0.09688 0
M  V30 7703 C 722.561 -1.8563 -0.799117 0
M  V30 7704 C 722.882 -0.765263 -1.79356 0
M  V30 7705 O 722.152 0.208657 -1.94786 0
M  V30 7706 H 720.732 -0.684937 -0.298111 0
M  V30 7707 H 723.394 -1.9474 -0.0789341 0
M  V30 7708 H 722.49 -2.82305 -1.3308 0
M  V30 7709 N 722.791 0.367657 -1.53252 0
M  V30 7710 C 724.207 0.709191 -1.42978 0
M  V30 7711 C 724.407 1.93352 -0.567193 0
M  V30 7712 O 723.463 2.52453 -0.0488349 0
M  V30 7713 C 724.776 0.924338 -2.86141 0
M  V30 7714 C 726.324 1.02448 -2.95759 0
M  V30 7715 C 726.799 1.27211 -4.39979 0
M  V30 7716 N 728.29 1.33986 -4.43398 0
M  V30 7717 C 729.025 1.54852 -5.52095 0
M  V30 7718 N 728.521 1.73049 -6.7084 0
M  V30 7719 N 730.314 1.57205 -5.39669 0
M  V30 7720 H 722.465 -0.437669 -2.07842 0
M  V30 7721 H 724.728 -0.133737 -0.938519 0
M  V30 7722 H 724.434 0.0965455 -3.51567 0
M  V30 7723 H 724.308 1.83302 -3.29667 0
M  V30 7724 H 726.695 1.84282 -2.30487 0
M  V30 7725 H 726.776 0.0932301 -2.5563 0
M  V30 7726 H 726.42 0.458792 -5.05824 0
M  V30 7727 H 726.35 2.21654 -4.77679 0
M  V30 7728 H 728.841 1.21545 -3.5782 0
M  V30 7729 H 729.154 1.88538 -7.49449 0
M  V30 7730 H 727.499 1.70231 -6.7383 0
M  V30 7731 H 730.69 1.42555 -4.45865 0
M  V30 7732 H 730.863 1.73126 -6.24445 0
M  V30 7733 N 724.269 1.44576 0.627338 0
M  V30 7734 C 725.494 1.51271 1.41887 0
M  V30 7735 C 725.919 0.139814 1.8758 0
M  V30 7736 O 725.277 -0.871746 1.58966 0
M  V30 7737 C 725.325 2.48529 2.61277 0
M  V30 7738 O 724.429 1.98944 3.61241 0
M  V30 7739 H 723.77 0.510668 0.424399 0
M  V30 7740 H 726.3 1.89746 0.765356 0
M  V30 7741 H 726.31 2.66689 3.08773 0
M  V30 7742 H 724.985 3.48249 2.27366 0
M  V30 7743 H 723.562 1.90568 3.20528 0
M  V30 7744 N 725.747 -0.868086 1.31537 0
M  V30 7745 C 726.995 -1.61807 1.21091 0
M  V30 7746 C 727.316 -1.93631 -0.230623 0
M  V30 7747 O 726.586 -1.5846 -1.15183 0
M  V30 7748 H 725.166 -0.599854 0.445178 0
M  V30 7749 H 727.828 -1.03915 1.64887 0
M  V30 7750 H 726.924 -2.56088 1.78396 0
M  V30 7751 N 727.225 -1.14528 -1.08264 0
M  V30 7752 C 728.471 -0.91576 -1.80947 0
M  V30 7753 C 728.804 0.55623 -1.86064 0
M  V30 7754 O 728.079 1.41207 -1.33756 0
M  V30 7755 C 728.362 -1.51917 -3.26486 0
M  V30 7756 C 728.215 -3.06111 -3.2957 0
M  V30 7757 C 729.534 -1.19724 -4.23502 0
M  V30 7758 H 726.653 -0.334113 -0.656915 0
M  V30 7759 H 729.295 -1.41547 -1.26746 0
M  V30 7760 H 727.445 -1.0942 -3.72773 0
M  V30 7761 H 729.117 -3.57448 -2.91597 0
M  V30 7762 H 727.36 -3.40483 -2.688 0
M  V30 7763 H 728.031 -3.43438 -4.32151 0
M  V30 7764 H 730.507 -1.56467 -3.85561 0
M  V30 7765 H 729.383 -1.64575 -5.23647 0
M  V30 7766 H 729.644 -0.112771 -4.41956 0
M  V30 7767 N 728.703 1.26451 -0.940633 0
M  V30 7768 C 730.119 1.4608 -0.642859 0
M  V30 7769 C 730.319 1.84765 0.803998 0
M  V30 7770 O 729.375 1.96902 1.58069 0
M  V30 7771 C 730.688 2.54359 -1.60381 0
M  V30 7772 C 732.236 2.6821 -1.61345 0
M  V30 7773 C 732.711 3.79659 -2.56169 0
M  V30 7774 N 734.202 3.87051 -2.54452 0
M  V30 7775 C 734.937 4.72739 -3.24507 0
M  V30 7776 N 734.433 5.6282 -4.03987 0
M  V30 7777 N 736.226 4.66581 -3.13462 0
M  V30 7778 H 728.377 0.996289 -1.87584 0
M  V30 7779 H 730.64 0.498921 -0.80609 0
M  V30 7780 H 730.346 2.32758 -2.6366 0
M  V30 7781 H 730.22 3.52005 -1.35545 0
M  V30 7782 H 732.607 2.89184 -0.587913 0
M  V30 7783 H 732.688 1.7101 -1.90235 0
M  V30 7784 H 732.332 3.59438 -3.58841 0
M  V30 7785 H 732.262 4.76315 -2.2457 0
M  V30 7786 H 734.753 3.22649 -1.96739 0
M  V30 7787 H 735.066 6.25095 -4.54396 0
M  V30 7788 H 733.411 5.62574 -4.08088 0
M  V30 7789 H 736.602 3.9521 -2.50852 0
M  V30 7790 H 736.775 5.33141 -3.68327 0
M  V30 7791 N 730.181 0.707592 1.40822 0
M  V30 7792 C 731.111 0.0644925 2.33411 0
M  V30 7793 C 732.092 -0.754205 1.52466 0
M  V30 7794 O 733.277 -0.704749 1.80961 0
M  V30 7795 C 730.407 -0.863865 3.36385 0
M  V30 7796 C 729.361 -0.15138 4.27732 0
M  V30 7797 C 728.687 -1.19491 5.21177 0
M  V30 7798 C 729.987 0.989607 5.12839 0
M  V30 7799 H 731.681 0.837829 2.87438 0
M  V30 7800 H 729.227 0.404346 1.38207 0
M  V30 7801 H 731.18 -1.32309 4.0009 0
M  V30 7802 H 729.904 -1.66901 2.80734 0
M  V30 7803 H 728.563 0.287937 3.65467 0
M  V30 7804 H 728.211 -1.9929 4.61836 0
M  V30 7805 H 727.911 -0.723123 5.83134 0
M  V30 7806 H 729.435 -1.6544 5.8776 0
M  V30 7807 H 730.849 0.610114 5.70044 0
M  V30 7808 H 729.246 1.38926 5.83798 0
M  V30 7809 H 730.316 1.82389 4.49291 0
M  V30 7810 N 731.66 -1.50943 0.453197 0
M  V30 7811 C 732.57 -2.31884 -0.355963 0
M  V30 7812 C 733.586 -1.41481 -1.01287 0
M  V30 7813 O 734.762 -1.74546 -1.00477 0
M  V30 7814 C 731.827 -3.15668 -1.43369 0
M  V30 7815 C 730.888 -4.2187 -0.795253 0
M  V30 7816 C 730.121 -5.0165 -1.82162 0
M  V30 7817 O 730.344 -4.82266 -3.04592 0
M  V30 7818 O 729.278 -5.85311 -1.40336 0
M  V30 7819 H 733.104 -3.02162 0.305248 0
M  V30 7820 H 730.689 -1.47839 0.215398 0
M  V30 7821 H 732.571 -3.67709 -2.05836 0
M  V30 7822 H 731.246 -2.48137 -2.07869 0
M  V30 7823 H 730.153 -3.73867 -0.132106 0
M  V30 7824 H 731.486 -4.9182 -0.193484 0
M  V30 7825 N 733.138 -0.185124 -1.56509 0
M  V30 7826 C 734.415 0.503348 -1.89013 0
M  V30 7827 C 734.795 1.80349 -1.09715 0
M  V30 7828 O 734.143 2.27665 -0.195203 0
M  V30 7829 C 734.353 0.731839 -3.41241 0
M  V30 7830 C 735.701 1.05568 -4.11267 0
M  V30 7831 O 736.725 0.819906 -3.46635 0
M  V30 7832 O 735.584 1.50116 -5.25478 0
M  V30 7833 H 732.678 0.261139 -0.784688 0
M  V30 7834 H 735.224 -0.224592 -1.68207 0
M  V30 7835 H 733.996 -0.18672 -3.90854 0
M  V30 7836 H 733.619 1.5126 -3.67704 0
M  V30 7837 N 734.616 1.57351 0.0885366 0
M  V30 7838 C 735.863 1.86419 0.790824 0
M  V30 7839 C 736.191 0.774561 1.78412 0
M  V30 7840 O 735.446 -0.23119 1.9433 0
M  V30 7841 C 735.745 3.22098 1.5488 0
M  V30 7842 C 735.411 4.4548 0.697025 0
M  V30 7843 C 734.073 4.78975 0.462237 0
M  V30 7844 C 736.425 5.21094 0.105315 0
M  V30 7845 C 733.753 5.85507 -0.374016 0
M  V30 7846 C 736.105 6.28509 -0.718298 0
M  V30 7847 C 734.769 6.60515 -0.963116 0
M  V30 7848 H 734.039 0.682157 0.289383 0
M  V30 7849 H 736.686 1.91429 0.0520961 0
M  V30 7850 H 734.991 3.12803 2.35927 0
M  V30 7851 H 736.688 3.41819 2.09669 0
M  V30 7852 H 733.278 4.19255 0.890137 0
M  V30 7853 H 737.462 4.95544 0.273856 0
M  V30 7854 H 732.718 6.08713 -0.572606 0
M  V30 7855 H 736.892 6.86268 -1.18362 0
M  V30 7856 H 734.519 7.42893 -1.6129 0
M  V30 7857 N 736.094 -0.359525 1.53444 0
M  V30 7858 C 737.042 -1.46104 1.80987 0
M  V30 7859 C 738.036 -1.55181 0.679351 0
M  V30 7860 O 739.242 -1.57995 0.862405 0
M  V30 7861 H 735.617 -0.486835 0.573145 0
M  V30 7862 H 737.588 -1.2008 2.73173 0
M  V30 7863 C 736.337 -2.82855 2.02208 0
M  V30 7864 H 735.66 -2.76631 2.88644 0
M  V30 7865 H 737.1 -3.59091 2.25455 0
M  V30 7866 C 735.559 -3.27192 0.802931 0
M  V30 7867 O 736.089 -4.017 -0.00544286 0
M  V30 7868 N 734.295 -2.83807 0.624657 0
M  V30 7869 H 733.842 -2.23339 1.28364 0
M  V30 7870 H 733.8 -3.13828 -0.189641 0
M  V30 7871 N 737.572 -1.44907 -0.619662 0
M  V30 7872 C 738.802 -1.51575 -1.40387 0
M  V30 7873 C 739.21 -0.14309 -1.88658 0
M  V30 7874 O 738.553 0.863403 -1.62145 0
M  V30 7875 C 738.615 -2.42858 -2.65067 0
M  V30 7876 C 738.279 -3.8982 -2.38515 0
M  V30 7877 C 739.276 -4.80047 -1.99627 0
M  V30 7878 C 736.961 -4.34628 -2.51801 0
M  V30 7879 C 738.955 -6.13086 -1.74369 0
M  V30 7880 C 736.642 -5.67712 -2.26156 0
M  V30 7881 C 737.64 -6.56759 -1.875 0
M  V30 7882 O 737.328 -7.87377 -1.62148 0
M  V30 7883 H 737.06 -0.51612 -0.436573 0
M  V30 7884 H 739.614 -1.90664 -0.763959 0
M  V30 7885 H 737.844 -1.98717 -3.31735 0
M  V30 7886 H 739.533 -2.40346 -3.27091 0
M  V30 7887 H 740.299 -4.46697 -1.8891 0
M  V30 7888 H 736.178 -3.65568 -2.80857 0
M  V30 7889 H 739.722 -6.8255 -1.44122 0
M  V30 7890 H 735.619 -6.0062 -2.36486 0
M  V30 7891 H 736.387 -7.99288 -1.763 0
M  V30 7892 N 739.05 0.861098 -1.31996 0
M  V30 7893 C 739.998 1.99052 -1.20337 0
M  V30 7894 C 740.992 1.69045 -0.109623 0
M  V30 7895 O 742.198 1.77931 -0.272117 0
M  V30 7896 H 738.573 0.653064 -0.372843 0
M  V30 7897 H 740.544 2.06015 -2.15872 0
M  V30 7898 C 739.293 3.34846 -0.936663 0
M  V30 7899 H 738.616 3.58462 -1.77045 0
M  V30 7900 H 740.056 4.1444 -0.895302 0
M  V30 7901 C 738.515 3.34965 0.360607 0
M  V30 7902 O 739.045 3.7745 1.37456 0
M  V30 7903 N 737.251 2.88101 0.380296 0
M  V30 7904 H 736.798 2.53721 -0.445351 0
M  V30 7905 H 736.756 2.88563 1.24816 0
M  V30 7906 N 740.528 1.15101 1.07655 0
M  V30 7907 C 741.476 0.840714 2.16875 0
M  V30 7908 C 742.47 -0.184594 1.68391 0
M  V30 7909 O 743.676 -0.0399315 1.79956 0
M  V30 7910 H 740.051 0.254192 0.707736 0
M  V30 7911 H 742.022 1.76959 2.40266 0
M  V30 7912 C 740.771 0.343018 3.46004 0
M  V30 7913 H 740.094 1.12335 3.83694 0
M  V30 7914 H 741.534 0.16453 4.23681 0
M  V30 7915 C 739.993 -0.934881 3.23669 0
M  V30 7916 O 740.523 -2.00706 3.47965 0
M  V30 7917 N 738.729 -0.873167 2.77172 0
M  V30 7918 H 738.276 -0.000479072 2.576 0
M  V30 7919 H 738.234 -1.72873 2.62607 0
M  V30 7920 N 742.006 -1.2595 0.947325 0
M  V30 7921 C 742.938 -2.25336 0.41906 0
M  V30 7922 C 743.951 -1.56135 -0.461051 0
M  V30 7923 O 745.14 -1.76438 -0.270505 0
M  V30 7924 C 742.24 -3.36334 -0.416233 0
M  V30 7925 C 741.413 -4.35088 0.449162 0
M  V30 7926 C 740.472 -5.25185 -0.326716 0
M  V30 7927 O 739.498 -5.68548 0.272374 0
M  V30 7928 N 740.7 -5.57388 -1.6217 0
M  V30 7929 H 743.465 -2.71298 1.27348 0
M  V30 7930 H 741.026 -1.39781 0.81688 0
M  V30 7931 H 743.018 -3.93564 -0.942826 0
M  V30 7932 H 741.588 -2.89819 -1.17148 0
M  V30 7933 H 740.808 -3.76841 1.15692 0
M  V30 7934 H 742.096 -4.98056 1.04008 0
M  V30 7935 H 741.494 -5.2405 -2.13046 0
M  V30 7936 H 740.051 -6.17234 -2.0944 0
M  V30 7937 N 743.484 -0.715051 -1.40445 0
M  V30 7938 C 744.712 -0.263959 -2.05209 0
M  V30 7939 C 745.127 1.09403 -1.53871 0
M  V30 7940 O 744.484 1.68746 -0.695064 0
M  V30 7941 C 744.535 -0.234545 -3.60738 0
M  V30 7942 O 744.256 -1.53891 -4.10182 0
M  V30 7943 C 745.757 0.235164 -4.42676 0
M  V30 7944 H 742.977 -0.11876 -0.660407 0
M  V30 7945 H 745.521 -0.973107 -1.79864 0
M  V30 7946 H 743.676 0.425563 -3.85055 0
M  V30 7947 H 744.09 -1.43903 -5.04373 0
M  V30 7948 H 745.564 0.204598 -5.51621 0
M  V30 7949 H 746.041 1.27724 -4.20218 0
M  V30 7950 H 746.647 -0.394649 -4.23465 0
M  V30 7951 N 744.962 1.50701 -0.461195 0
M  V30 7952 C 746.211 2.01458 0.0988277 0
M  V30 7953 C 746.524 1.34863 1.41673 0
M  V30 7954 O 747.73 1.76721 2.06111 0
M  V30 7955 C 746.186 3.59186 0.226648 0
M  V30 7956 C 745.794 4.34732 -1.08223 0
M  V30 7957 C 747.538 4.18015 0.73916 0
M  V30 7958 C 745.445 5.8422 -0.918747 0
M  V30 7959 H 744.375 0.7529 0.040709 0
M  V30 7960 H 747.026 1.736 -0.594589 0
M  V30 7961 H 745.408 3.83589 0.983621 0
M  V30 7962 H 746.582 4.22059 -1.84939 0
M  V30 7963 H 744.897 3.87466 -1.52509 0
M  V30 7964 H 747.494 5.27436 0.878347 0
M  V30 7965 H 747.837 3.78746 1.72793 0
M  V30 7966 H 748.37 3.9778 0.0398469 0
M  V30 7967 H 745.109 6.27944 -1.88059 0
M  V30 7968 H 744.629 5.99493 -0.191801 0
M  V30 7969 H 746.308 6.44382 -0.581405 0
M  V30 7970 N 746.441 0.193421 1.56409 0
M  V30 7971 C 747.669 -0.451438 2.01915 0
M  V30 7972 C 748.084 -1.55306 1.07357 0
M  V30 7973 O 747.441 -1.82333 0.0781512 0
M  V30 7974 C 747.492 -1.00931 3.47124 0
M  V30 7975 O 747.213 0.0483623 4.38073 0
M  V30 7976 C 748.714 -1.73021 4.0814 0
M  V30 7977 H 745.934 -0.113495 0.661332 0
M  V30 7978 H 748.478 0.301636 2.02263 0
M  V30 7979 H 746.633 -1.71277 3.47481 0
M  V30 7980 H 747.047 -0.366644 5.23217 0
M  V30 7981 H 748.521 -2.07289 5.11601 0
M  V30 7982 H 748.998 -2.6333 3.51502 0
M  V30 7983 H 749.604 -1.07264 4.11551 0
M  V30 7984 N 747.919 -1.57396 -0.0801906 0
M  V30 7985 C 749.196 -1.77883 -0.813451 0
M  V30 7986 C 749.576 -0.778879 -1.96206 0
M  V30 7987 O 748.924 0.189683 -2.27711 0
M  V30 7988 C 749.134 -3.24116 -1.2942 0
M  V30 7989 C 750.482 -3.87714 -1.73098 0
M  V30 7990 O 751.506 -3.27956 -1.39007 0
M  V30 7991 O 750.365 -4.92828 -2.36184 0
M  V30 7992 H 747.459 -0.729727 -0.389138 0
M  V30 7993 H 750.005 -1.69591 -0.0609166 0
M  V30 7994 H 748.777 -3.88443 -0.471947 0
M  V30 7995 H 748.4 -3.371 -2.1083 0
M  V30 7996 N 749.397 0.351382 -1.53633 0
M  V30 7997 C 750.329 1.45159 -1.77374 0
M  V30 7998 C 751.342 1.4905 -0.654826 0
M  V30 7999 O 752.531 1.52274 -0.931396 0
M  V30 8000 C 749.631 2.83858 -1.85143 0
M  V30 8001 C 748.804 3.03498 -3.14972 0
M  V30 8002 C 747.863 4.22393 -3.138 0
M  V30 8003 O 746.889 4.16885 -3.87551 0
M  V30 8004 N 748.091 5.30533 -2.35617 0
M  V30 8005 H 750.856 1.25167 -2.72311 0
M  V30 8006 H 748.417 0.54121 -1.52586 0
M  V30 8007 H 750.409 3.61557 -1.8182 0
M  V30 8008 H 748.979 2.9703 -0.974275 0
M  V30 8009 H 748.199 2.13336 -3.31484 0
M  V30 8010 H 749.487 3.13498 -4.00745 0
M  V30 8011 H 748.885 5.37875 -1.75235 0
M  V30 8012 H 747.442 6.06756 -2.38098 0
M  V30 8013 N 750.875 1.45233 0.611969 0
M  V30 8014 C 752.124 1.48296 1.36716 0
M  V30 8015 C 752.437 0.12706 1.95187 0
M  V30 8016 O 753.643 0.0353066 2.71477 0
M  V30 8017 C 752.099 2.61168 2.47627 0
M  V30 8018 C 751.707 4.03051 1.95587 0
M  V30 8019 C 753.451 2.73472 3.24674 0
M  V30 8020 C 751.358 5.07312 3.03954 0
M  V30 8021 H 750.288 0.5518 0.513841 0
M  V30 8022 H 752.939 1.7136 0.656359 0
M  V30 8023 H 751.321 2.31379 3.21372 0
M  V30 8024 H 752.495 4.42497 1.2858 0
M  V30 8025 H 750.81 3.95158 1.31298 0
M  V30 8026 H 753.407 3.48537 4.05494 0
M  V30 8027 H 753.75 1.79953 3.75397 0
M  V30 8028 H 754.283 3.02765 2.58028 0
M  V30 8029 H 751.022 6.02525 2.58154 0
M  V30 8030 H 750.542 4.7244 3.69541 0
M  V30 8031 H 752.221 5.31867 3.6841 0
M  V30 8032 N 752.353 -0.854086 1.3245 0
M  V30 8033 C 753.583 -1.63836 1.25862 0
M  V30 8034 C 753.991 -1.88383 -0.175588 0
M  V30 8035 O 753.334 -1.45353 -1.1233 0
M  V30 8036 C 753.396 -3.02068 1.94923 0
M  V30 8037 C 753.06 -3.0056 3.44257 0
M  V30 8038 C 754.057 -2.77368 4.39731 0
M  V30 8039 C 751.742 -3.21177 3.862 0
M  V30 8040 C 753.736 -2.74797 5.75122 0
M  V30 8041 C 751.423 -3.18234 5.217 0
M  V30 8042 C 752.421 -2.95072 6.15972 0
M  V30 8043 O 752.109 -2.92003 7.48992 0
M  V30 8044 H 751.841 -0.517007 0.435523 0
M  V30 8045 H 754.395 -1.07314 1.75137 0
M  V30 8046 H 752.625 -3.60382 1.40219 0
M  V30 8047 H 754.314 -3.62791 1.82037 0
M  V30 8048 H 755.08 -2.61205 4.08653 0
M  V30 8049 H 750.959 -3.38231 3.13243 0
M  V30 8050 H 754.503 -2.56638 6.48678 0
M  V30 8051 H 750.4 -3.33941 5.52407 0
M  V30 8052 H 751.168 -3.07953 7.58358 0
M  V30 8053 N 753.831 -1.1567 -1.07043 0
M  V30 8054 C 755.247 -0.900006 -1.31803 0
M  V30 8055 C 755.447 0.451293 -1.96381 0
M  V30 8056 O 754.503 1.19252 -2.22565 0
M  V30 8057 C 755.816 -2.04334 -2.20609 0
M  V30 8058 C 757.364 -2.07823 -2.34048 0
M  V30 8059 C 757.839 -3.21488 -3.26204 0
M  V30 8060 N 759.33 -3.21156 -3.33786 0
M  V30 8061 C 760.065 -4.05746 -4.05163 0
M  V30 8062 N 759.561 -5.00407 -4.79129 0
M  V30 8063 N 761.354 -3.93759 -4.01136 0
M  V30 8064 H 753.505 -2.02681 -0.635146 0
M  V30 8065 H 755.768 -0.883956 -0.342528 0
M  V30 8066 H 755.474 -3.01895 -1.80423 0
M  V30 8067 H 755.348 -1.97838 -3.21154 0
M  V30 8068 H 757.735 -1.1086 -2.73485 0
M  V30 8069 H 757.816 -2.18386 -1.33197 0
M  V30 8070 H 757.46 -4.18706 -2.87485 0
M  V30 8071 H 757.39 -3.08162 -4.27017 0
M  V30 8072 H 759.881 -2.52606 -2.81067 0
M  V30 8073 H 760.194 -5.61387 -5.31097 0
M  V30 8074 H 758.539 -5.04393 -4.78135 0
M  V30 8075 H 761.73 -3.19115 -3.42466 0
M  V30 8076 H 761.903 -4.59906 -4.56498 0
M  V30 8077 N 755.309 1.25446 -0.953992 0
M  V30 8078 C 756.272 2.24156 -0.478179 0
M  V30 8079 C 757.272 1.55278 0.417776 0
M  V30 8080 O 758.462 1.72866 0.215155 0
M  V30 8081 C 755.594 3.39495 0.309202 0
M  V30 8082 H 756.787 2.67764 -1.35064 0
M  V30 8083 H 754.34 1.37822 -0.737206 0
M  V30 8084 H 755.075 3.01307 1.19936 0
M  V30 8085 H 754.86 3.90679 -0.333562 0
M  V30 8086 H 756.35 4.12796 0.631594 0
M  V30 8087 N 756.787 0.722489 1.40064 0
M  V30 8088 C 757.72 0.0233443 2.28188 0
M  V30 8089 C 758.698 -0.7606 1.43714 0
M  V30 8090 O 759.882 -0.745791 1.73119 0
M  V30 8091 C 757.009 -0.974264 3.24385 0
M  V30 8092 C 756.055 -0.280307 4.25578 0
M  V30 8093 S 756.888 0.996769 5.26141 0
M  V30 8094 C 758.044 0.00143923 6.259 0
M  V30 8095 H 758.277 0.770705 2.87137 0
M  V30 8096 H 755.81 0.513783 1.45601 0
M  V30 8097 H 757.768 -1.5446 3.80332 0
M  V30 8098 H 756.429 -1.69438 2.6448 0
M  V30 8099 H 755.622 -1.03471 4.93264 0
M  V30 8100 H 755.224 0.217657 3.73366 0
M  V30 8101 H 757.516 -0.843126 6.72233 0
M  V30 8102 H 758.459 0.645104 7.05155 0
M  V30 8103 H 758.867 -0.365371 5.63316 0
M  V30 8104 N 758.265 -1.50454 0.469181 0
M  V30 8105 C 759.213 -2.30101 -0.340033 0
M  V30 8106 C 760.207 -1.37306 -0.992135 0
M  V30 8107 O 761.413 -1.54506 -0.923458 0
M  V30 8108 H 757.788 -0.740941 -0.128495 0
M  V30 8109 H 759.759 -2.96315 0.352144 0
M  V30 8110 C 758.508 -3.17804 -1.41052 0
M  V30 8111 H 757.831 -3.89115 -0.918124 0
M  V30 8112 H 759.271 -3.76533 -1.94934 0
M  V30 8113 C 757.73 -2.35272 -2.4114 0
M  V30 8114 O 758.26 -2.03448 -3.4637 0
M  V30 8115 N 756.466 -1.97889 -2.1281 0
M  V30 8116 H 756.013 -2.2397 -1.27261 0
M  V30 8117 H 755.971 -1.42971 -2.80012 0
M  V30 8118 N 759.743 -0.201713 -1.56304 0
M  V30 8119 C 760.968 0.443815 -2.02596 0
M  V30 8120 C 761.393 1.53945 -1.08086 0
M  V30 8121 O 760.751 1.81182 -0.0655056 0
M  V30 8122 C 760.799 0.971066 -3.47279 0
M  V30 8123 O 759.903 2.0836 -3.55893 0
M  V30 8124 H 759.244 0.10294 -0.655972 0
M  V30 8125 H 761.774 -0.314533 -2.02168 0
M  V30 8126 H 761.784 1.28598 -3.87204 0
M  V30 8127 H 760.459 0.169048 -4.15556 0
M  V30 8128 H 759.036 1.77683 -3.27846 0
M  V30 8129 N 761.222 1.57436 0.0718424 0
M  V30 8130 C 762.447 1.91858 0.787745 0
M  V30 8131 C 762.872 0.798119 1.70328 0
M  V30 8132 O 762.23 -0.24905 1.79581 0
M  V30 8133 C 762.278 3.25232 1.55744 0
M  V30 8134 O 761.382 3.14462 2.6681 0
M  V30 8135 H 760.723 0.628258 0.214914 0
M  V30 8136 H 763.253 2.04561 0.0401012 0
M  V30 8137 H 763.263 3.59105 1.9367 0
M  V30 8138 H 761.938 4.0636 0.885691 0
M  V30 8139 H 760.515 2.92148 2.31741 0
M  V30 8140 N 762.7 -0.34323 1.53817 0
M  V30 8141 C 763.925 -1.1079 1.75329 0
M  V30 8142 C 764.35 -1.81571 0.491293 0
M  V30 8143 O 763.708 -1.72561 -0.556089 0
M  V30 8144 C 763.756 -2.09681 2.9337 0
M  V30 8145 O 762.86 -3.17207 2.63541 0
M  V30 8146 H 762.201 -0.320402 0.581583 0
M  V30 8147 H 764.731 -0.393525 2.0078 0
M  V30 8148 H 764.741 -2.52897 3.20168 0
M  V30 8149 H 763.416 -1.5756 3.84899 0
M  V30 8150 H 761.993 -2.78806 2.47632 0
M  V30 8151 N 764.178 -1.45556 -0.604258 0
M  V30 8152 C 765.425 -1.49746 -1.36317 0
M  V30 8153 C 765.753 -0.140516 -1.93992 0
M  V30 8154 O 765.008 0.861244 -1.7573 0
M  V30 8155 C 765.307 -2.52697 -2.52743 0
M  V30 8156 C 764.973 -3.97315 -2.13195 0
M  V30 8157 C 763.635 -4.36692 -2.02123 0
M  V30 8158 C 765.987 -4.88249 -1.8238 0
M  V30 8159 C 763.315 -5.64895 -1.58463 0
M  V30 8160 C 765.667 -6.16867 -1.40205 0
M  V30 8161 C 764.331 -6.55172 -1.27694 0
M  V30 8162 H 763.601 -0.54796 -0.49882 0
M  V30 8163 H 766.248 -1.7892 -0.682643 0
M  V30 8164 H 764.553 -2.17105 -3.26148 0
M  V30 8165 H 766.25 -2.53176 -3.10971 0
M  V30 8166 H 762.84 -3.66176 -2.22739 0
M  V30 8167 H 767.024 -4.58561 -1.89829 0
M  V30 8168 H 762.28 -5.93365 -1.47402 0
M  V30 8169 H 766.454 -6.86771 -1.15408 0
M  V30 8170 H 764.081 -7.54411 -0.936375 0
M  V30 8171 N 765.656 0.84705 -1.32902 0
M  V30 8172 C 766.566 1.98845 -1.2449 0
M  V30 8173 C 767.582 1.7329 -0.15702 0
M  V30 8174 O 768.758 1.978 -0.379104 0
M  V30 8175 C 765.823 3.32679 -0.975985 0
M  V30 8176 C 764.884 3.71405 -2.15306 0
M  V30 8177 C 764.117 4.98853 -1.89688 0
M  V30 8178 O 764.34 5.64134 -0.843168 0
M  V30 8179 O 763.274 5.34889 -2.76002 0
M  V30 8180 H 767.1 2.0888 -2.2046 0
M  V30 8181 H 764.685 0.978852 -1.12867 0
M  V30 8182 H 766.567 4.12885 -0.842826 0
M  V30 8183 H 765.242 3.23667 -0.0464954 0
M  V30 8184 H 764.149 2.91743 -2.34172 0
M  V30 8185 H 765.482 3.85073 -3.06561 0
M  V30 8186 N 767.134 1.16236 1.06428 0
M  V30 8187 C 768.382 0.941171 1.78847 0
M  V30 8188 C 768.703 -0.53248 1.87589 0
M  V30 8189 O 767.973 -1.38686 1.38358 0
M  V30 8190 H 766.553 0.345228 0.66244 0
M  V30 8191 H 769.215 1.46479 1.28569 0
M  V30 8192 H 768.311 1.35871 2.80972 0
M  V30 8193 N 768.612 -1.24939 0.960631 0
M  V30 8194 C 769.858 -1.93104 0.61958 0
M  V30 8195 C 770.191 -1.74991 -0.84212 0
M  V30 8196 O 769.466 -1.09867 -1.60498 0
M  V30 8197 C 769.749 -3.46326 0.986422 0
M  V30 8198 C 769.602 -3.73638 2.50429 0
M  V30 8199 C 770.921 -4.37067 0.515827 0
M  V30 8200 H 768.04 -0.701311 0.226566 0
M  V30 8201 H 770.682 -1.47442 1.19836 0
M  V30 8202 H 768.832 -3.85348 0.493907 0
M  V30 8203 H 770.504 -3.44217 3.07103 0
M  V30 8204 H 768.747 -3.19035 2.93937 0
M  V30 8205 H 769.418 -4.80815 2.71147 0
M  V30 8206 H 771.894 -4.05381 0.938389 0
M  V30 8207 H 770.77 -5.43022 0.80114 0
M  V30 8208 H 771.031 -4.38224 -0.584171 0
M  V30 8209 N 770.09 -0.729906 -1.39679 0
M  V30 8210 C 771.315 -0.284345 -2.05442 0
M  V30 8211 C 771.74 1.07056 -1.54663 0
M  V30 8212 O 771.098 1.67732 -0.688157 0
M  V30 8213 C 771.146 -0.290089 -3.59431 0
M  V30 8214 O 770.25 0.723978 -4.05995 0
M  V30 8215 H 769.591 -0.130311 -0.651088 0
M  V30 8216 H 772.121 -0.994403 -1.78809 0
M  V30 8217 H 772.131 -0.132712 -4.07784 0
M  V30 8218 H 770.806 -1.27877 -3.95753 0
M  V30 8219 H 769.383 0.533154 -3.69069 0
M  V30 8220 N 771.568 1.50203 -0.477153 0
M  V30 8221 C 772.816 2.01959 0.0755889 0
M  V30 8222 C 773.137 1.3608 1.39668 0
M  V30 8223 O 772.407 0.508136 1.89195 0
M  V30 8224 H 770.987 0.74636 0.0309248 0
M  V30 8225 H 773.649 1.84473 -0.628959 0
M  V30 8226 H 772.745 3.11305 0.222683 0
M  V30 8227 N 773.046 0.209999 1.56195 0
M  V30 8228 C 773.996 -0.717978 2.164 0
M  V30 8229 C 774.98 -1.16577 1.10899 0
M  V30 8230 O 776.172 -1.12169 1.3692 0
M  V30 8231 C 773.301 -1.93091 2.8385 0
M  V30 8232 C 772.387 -1.50333 3.96561 0
M  V30 8233 N 772.778 -0.787621 4.9963 0
M  V30 8234 C 771.076 -1.79151 4.08437 0
M  V30 8235 C 771.777 -0.571204 5.78889 0
M  V30 8236 N 770.753 -1.12444 5.31843 0
M  V30 8237 H 774.555 -0.162603 2.9345 0
M  V30 8238 H 772.069 0.0107928 1.62396 0
M  V30 8239 H 774.066 -2.60635 3.25384 0
M  V30 8240 H 772.726 -2.49087 2.08293 0
M  V30 8241 H 773.737 -0.441513 5.16015 0
M  V30 8242 H 770.414 -2.36549 3.44022 0
M  V30 8243 H 771.804 -0.00237941 6.719 0
M  V30 8244 N 774.524 -1.57472 -0.0634922 0
M  V30 8245 C 775.77 -1.87932 -0.762194 0
M  V30 8246 C 776.103 -0.803377 -1.76804 0
M  V30 8247 O 775.378 0.185468 -1.93614 0
M  V30 8248 C 775.661 -3.29053 -1.46275 0
M  V30 8249 C 775.514 -4.47309 -0.472755 0
M  V30 8250 C 776.833 -3.68537 -2.40558 0
M  V30 8251 H 773.952 -0.683521 -0.275624 0
M  V30 8252 H 776.594 -1.89983 -0.0252651 0
M  V30 8253 H 774.744 -3.27435 -2.0909 0
M  V30 8254 H 776.416 -4.61053 0.150828 0
M  V30 8255 H 774.659 -4.33286 0.211187 0
M  V30 8256 H 775.33 -5.42853 -1.00072 0
M  V30 8257 H 777.806 -3.71302 -1.87814 0
M  V30 8258 H 776.682 -4.68152 -2.86574 0
M  V30 8259 H 776.943 -2.98917 -3.25731 0
M  V30 8260 N 776.003 0.335068 -1.53997 0
M  V30 8261 C 777.249 1.07594 -1.71905 0
M  V30 8262 C 777.582 1.88039 -0.485264 0
M  V30 8263 O 776.857 1.87482 0.517752 0
M  V30 8264 C 777.14 2.01016 -2.98772 0
M  V30 8265 C 776.993 1.23977 -4.32377 0
M  V30 8266 C 778.312 3.0071 -3.21343 0
M  V30 8267 H 775.431 0.38976 -0.625505 0
M  V30 8268 H 778.073 0.353684 -1.86679 0
M  V30 8269 H 776.223 2.62603 -2.86307 0
M  V30 8270 H 777.895 0.649383 -4.56706 0
M  V30 8271 H 776.138 0.541878 -4.30402 0
M  V30 8272 H 776.809 1.92512 -5.17342 0
M  V30 8273 H 779.285 2.4924 -3.33194 0
M  V30 8274 H 778.161 3.63272 -4.11491 0
M  V30 8275 H 778.422 3.72549 -2.38033 0
M  V30 8276 N 777.481 1.45874 0.596531 0
M  V30 8277 C 778.728 1.50467 1.35521 0
M  V30 8278 C 779.056 0.150802 1.93915 0
M  V30 8279 O 778.311 -0.851913 1.76184 0
M  V30 8280 C 778.61 2.54034 2.51399 0
M  V30 8281 C 778.276 3.9844 2.11085 0
M  V30 8282 C 776.938 4.37758 1.99804 0
M  V30 8283 C 779.29 4.89209 1.79788 0
M  V30 8284 C 776.618 5.65727 1.55465 0
M  V30 8285 C 778.97 6.17602 1.36931 0
M  V30 8286 C 777.634 6.5584 1.24218 0
M  V30 8287 H 776.904 0.550597 0.495907 0
M  V30 8288 H 779.551 1.79279 0.673145 0
M  V30 8289 H 777.856 2.18832 3.24992 0
M  V30 8290 H 779.553 2.54822 3.09624 0
M  V30 8291 H 776.143 3.67353 2.20794 0
M  V30 8292 H 780.327 4.59562 1.87395 0
M  V30 8293 H 775.583 5.94139 1.44253 0
M  V30 8294 H 779.757 6.87373 1.11764 0
M  V30 8295 H 777.384 7.54897 0.896353 0
M  V30 8296 N 778.959 -0.83999 1.33349 0
M  V30 8297 C 780.236 -1.57973 1.15342 0
M  V30 8298 C 780.616 -2.09226 -0.280632 0
M  V30 8299 O 779.964 -1.89317 -1.2795 0
M  V30 8300 C 780.174 -2.71446 2.19359 0
M  V30 8301 C 781.522 -3.40654 2.53456 0
M  V30 8302 O 782.546 -2.81686 2.18017 0
M  V30 8303 O 781.405 -4.47101 3.14266 0
M  V30 8304 H 778.499 -0.6964 0.446044 0
M  V30 8305 H 781.045 -0.882843 1.44927 0
M  V30 8306 H 779.817 -2.31205 3.1569 0
M  V30 8307 H 779.44 -3.488 1.90852 0
M  V30 8308 N 780.437 -1.16799 -1.0581 0
M  V30 8309 C 781.4 -0.881396 -2.11575 0
M  V30 8310 C 782.4 0.12574 -1.60308 0
M  V30 8311 O 783.59 -0.105716 -1.73879 0
M  V30 8312 C 780.722 -0.319037 -3.39404 0
M  V30 8313 H 781.915 -1.81907 -2.38432 0
M  V30 8314 H 779.468 -0.977597 -1.21954 0
M  V30 8315 H 780.203 0.626082 -3.18199 0
M  V30 8316 H 779.988 -1.04481 -3.77923 0
M  V30 8317 H 781.478 -0.13663 -4.17376 0
M  V30 8318 N 781.915 1.24427 -0.967243 0
M  V30 8319 C 783.14 1.9708 -0.646069 0
M  V30 8320 C 783.565 1.71272 0.777665 0
M  V30 8321 O 782.923 0.976179 1.52776 0
M  V30 8322 C 782.971 3.48501 -0.926266 0
M  V30 8323 O 782.075 4.12398 -0.0114653 0
M  V30 8324 H 781.416 0.617423 -0.244304 0
M  V30 8325 H 783.946 1.58215 -1.29727 0
M  V30 8326 H 783.956 3.98885 -0.857619 0
M  V30 8327 H 782.631 3.66613 -1.96386 0
M  V30 8328 H 781.208 3.72661 -0.133396 0
M  V30 8329 N 783.393 0.737304 1.3929 0
M  V30 8330 C 784.641 0.285691 2.00071 0
M  V30 8331 C 784.962 -1.13169 1.58801 0
M  V30 8332 O 784.232 -1.77104 0.837308 0
M  V30 8333 H 782.812 0.102638 0.739915 0
M  V30 8334 H 785.474 0.947775 1.70303 0
M  V30 8335 H 784.57 0.335906 3.10287 0
M  V30 8336 N 784.871 -1.49948 0.485112 0
M  V30 8337 C 786.096 -2.073 -0.0645059 0
M  V30 8338 C 786.521 -1.345 -1.31497 0
M  V30 8339 O 785.879 -0.39687 -1.76903 0
M  V30 8340 C 785.927 -3.59201 -0.317304 0
M  V30 8341 O 785.031 -3.88085 -1.39514 0
M  V30 8342 H 784.372 -0.663723 0.0191822 0
M  V30 8343 H 786.902 -1.92963 0.680179 0
M  V30 8344 H 786.912 -4.04227 -0.553604 0
M  V30 8345 H 785.587 -4.11602 0.596387 0
M  V30 8346 H 784.164 -3.54885 -1.14504 0
M  V30 8347 N 786.349 -0.21828 -1.56081 0
M  V30 8348 C 787.765 0.137168 -1.59009 0
M  V30 8349 C 787.965 1.59215 -1.23503 0
M  V30 8350 O 787.021 2.33178 -0.968716 0
M  V30 8351 C 788.334 -0.186162 -3.00123 0
M  V30 8352 C 789.882 -0.128135 -3.12738 0
M  V30 8353 C 790.357 -0.425094 -4.56023 0
M  V30 8354 N 791.848 -0.374547 -4.61683 0
M  V30 8355 C 792.583 -0.57786 -5.70481 0
M  V30 8356 N 792.079 -0.842771 -6.87655 0
M  V30 8357 N 793.872 -0.510521 -5.59777 0
M  V30 8358 H 786.023 -1.16746 -1.77437 0
M  V30 8359 H 788.286 -0.467706 -0.824594 0
M  V30 8360 H 787.992 -1.19589 -3.30744 0
M  V30 8361 H 787.866 0.500388 -3.73866 0
M  V30 8362 H 790.253 0.872224 -2.81915 0
M  V30 8363 H 790.334 -0.848112 -2.41331 0
M  V30 8364 H 789.978 -1.42288 -4.87562 0
M  V30 8365 H 789.908 0.316038 -5.25651 0
M  V30 8366 H 792.399 -0.177356 -3.77484 0
M  V30 8367 H 792.712 -0.986095 -7.66483 0
M  V30 8368 H 791.057 -0.879929 -6.89407 0
M  V30 8369 H 794.248 -0.303813 -4.67113 0
M  V30 8370 H 794.421 -0.672378 -6.44502 0
M  V30 8371 N 787.827 1.57504 0.0551401 0
M  V30 8372 C 788.76 2.00155 1.09604 0
M  V30 8373 C 789.738 0.881274 1.36647 0
M  V30 8374 O 790.922 1.14498 1.49742 0
M  V30 8375 C 788.049 2.35246 2.43674 0
M  V30 8376 C 787.095 3.57452 2.32659 0
M  V30 8377 S 787.928 5.07639 1.7048 0
M  V30 8378 C 789.084 5.45947 3.06093 0
M  V30 8379 H 789.317 2.88131 0.732635 0
M  V30 8380 H 786.85 1.52122 0.264252 0
M  V30 8381 H 788.808 2.56136 3.20787 0
M  V30 8382 H 787.469 1.47769 2.7717 0
M  V30 8383 H 786.662 3.79576 3.31569 0
M  V30 8384 H 786.264 3.36279 1.63685 0
M  V30 8385 H 788.556 5.45036 4.0242 0
M  V30 8386 H 789.499 6.4656 2.88732 0
M  V30 8387 H 789.907 4.73419 3.07466 0
M  V30 8388 N 789.305 -0.326896 1.54172 0
M  V30 8389 C 790.268 -1.38515 1.8261 0
M  V30 8390 C 791.268 -1.44872 0.697771 0
M  V30 8391 O 792.458 -1.44957 0.966078 0
M  V30 8392 C 789.59 -2.77281 1.98313 0
M  V30 8393 H 790.783 -1.14556 2.77159 0
M  V30 8394 H 788.336 -0.562199 1.45839 0
M  V30 8395 H 789.071 -3.065 1.05964 0
M  V30 8396 H 788.856 -2.74061 2.80416 0
M  V30 8397 H 790.346 -3.53845 2.21773 0
M  V30 8398 N 790.784 -1.46188 -0.588786 0
M  V30 8399 C 792.03 -1.52396 -1.34711 0
M  V30 8400 C 792.385 -0.170846 -1.9164 0
M  V30 8401 O 791.678 0.819714 -1.7318 0
M  V30 8402 C 791.872 -2.55364 -2.50048 0
M  V30 8403 C 791.701 -4.00554 -2.04417 0
M  V30 8404 C 790.471 -4.68334 -1.89715 0
M  V30 8405 C 792.669 -4.88533 -1.60747 0
M  V30 8406 N 790.651 -5.98167 -1.38091 0
M  V30 8407 C 792.022 -6.08143 -1.20672 0
M  V30 8408 C 794.077 -4.75236 -1.4851 0
M  V30 8409 C 792.78 -7.15927 -0.695782 0
M  V30 8410 C 794.806 -5.83085 -0.988196 0
M  V30 8411 C 794.168 -7.01864 -0.59719 0
M  V30 8412 H 790.267 -0.61252 -0.486151 0
M  V30 8413 H 792.851 -1.8277 -0.671063 0
M  V30 8414 H 791.022 -2.2691 -3.15225 0
M  V30 8415 H 792.754 -2.51603 -3.16983 0
M  V30 8416 H 789.509 -4.23763 -2.11476 0
M  V30 8417 H 789.933 -6.67254 -1.14458 0
M  V30 8418 H 794.575 -3.83801 -1.7736 0
M  V30 8419 H 792.293 -8.07135 -0.394857 0
M  V30 8420 H 795.879 -5.74836 -0.897504 0
M  V30 8421 H 794.759 -7.83895 -0.218621 0
M  V30 8422 N 792.262 0.832906 -1.33792 0
M  V30 8423 C 793.49 1.62048 -1.28639 0
M  V30 8424 C 793.905 1.88269 0.141522 0
M  V30 8425 O 793.262 1.46706 1.08553 0
M  V30 8426 C 793.313 2.96722 -2.0649 0
M  V30 8427 O 793.034 2.7165 -3.43712 0
M  V30 8428 C 794.535 3.91144 -2.08617 0
M  V30 8429 H 791.755 0.504032 -0.442937 0
M  V30 8430 H 794.299 1.03704 -1.76255 0
M  V30 8431 H 792.454 3.51652 -1.62541 0
M  V30 8432 H 792.868 3.57453 -3.83833 0
M  V30 8433 H 794.342 4.82837 -2.67531 0
M  V30 8434 H 794.819 4.25766 -1.07796 0
M  V30 8435 H 795.425 3.42152 -2.52611 0
M  V30 8436 N 793.74 1.17359 1.05189 0
M  V30 8437 C 794.67 0.91365 2.14883 0
M  V30 8438 C 795.651 -0.144365 1.69486 0
M  V30 8439 O 796.836 0.00587861 1.94199 0
M  V30 8440 C 793.966 0.426196 3.44675 0
M  V30 8441 C 792.92 1.4234 4.03638 0
M  V30 8442 C 792.246 0.793902 5.28773 0
M  V30 8443 C 793.546 2.7966 4.41121 0
M  V30 8444 H 795.24 1.831 2.36885 0
M  V30 8445 H 792.786 0.881781 1.13845 0
M  V30 8446 H 794.739 0.231767 4.20762 0
M  V30 8447 H 793.463 -0.526693 3.22325 0
M  V30 8448 H 792.122 1.60457 3.2962 0
M  V30 8449 H 791.77 -0.165824 5.02727 0
M  V30 8450 H 791.47 1.45959 5.69183 0
M  V30 8451 H 792.994 0.609747 6.07548 0
M  V30 8452 H 794.408 2.6526 5.08242 0
M  V30 8453 H 792.805 3.42807 4.92548 0
M  V30 8454 H 793.875 3.34068 3.51464 0
M  V30 8455 N 795.218 -1.23913 0.973828 0
M  V30 8456 C 796.467 -1.91455 0.63464 0
M  V30 8457 C 796.78 -1.76893 -0.834759 0
M  V30 8458 O 797.986 -2.3918 -1.28473 0
M  V30 8459 C 796.442 -3.43172 1.08447 0
M  V30 8460 C 796.05 -3.66409 2.57776 0
M  V30 8461 C 797.794 -4.1653 0.818721 0
M  V30 8462 C 795.701 -5.11728 2.9646 0
M  V30 8463 H 794.631 -0.716881 0.233661 0
M  V30 8464 H 797.282 -1.40457 1.18085 0
M  V30 8465 H 795.664 -3.93242 0.466524 0
M  V30 8466 H 796.838 -3.26913 3.24753 0
M  V30 8467 H 795.153 -3.06349 2.82027 0
M  V30 8468 H 797.75 -5.23603 1.08367 0
M  V30 8469 H 798.093 -4.15578 -0.245128 0
M  V30 8470 H 798.626 -3.72428 1.39793 0
M  V30 8471 H 795.365 -5.17806 4.01941 0
M  V30 8472 H 794.885 -5.52199 2.34172 0
M  V30 8473 H 796.564 -5.80009 2.86703 0
M  V30 8474 N 796.696 -0.74468 -1.38897 0
M  V30 8475 C 797.606 -0.112892 -2.34328 0
M  V30 8476 C 798.622 0.71087 -1.58816 0
M  V30 8477 O 799.798 0.637092 -1.91058 0
M  V30 8478 C 796.863 0.776417 -3.37894 0
M  V30 8479 C 795.924 -0.0606999 -4.29257 0
M  V30 8480 C 795.157 0.786258 -5.27877 0
M  V30 8481 O 795.38 2.02463 -5.33259 0
M  V30 8482 O 794.314 0.209781 -6.01534 0
M  V30 8483 H 798.14 -0.900801 -2.90033 0
M  V30 8484 H 795.725 -0.505462 -1.4059 0
M  V30 8485 H 797.607 1.28496 -4.01331 0
M  V30 8486 H 796.282 1.54297 -2.84559 0
M  V30 8487 H 795.189 -0.614984 -3.69011 0
M  V30 8488 H 796.522 -0.789702 -4.85824 0
M  V30 8489 N 798.174 1.49689 -0.493057 0
M  V30 8490 C 799.106 2.26867 0.326195 0
M  V30 8491 C 800.119 1.33083 0.937697 0
M  V30 8492 O 801.308 1.58427 0.822382 0
M  V30 8493 C 798.408 3.0519 1.4735 0
M  V30 8494 C 797.581 4.26491 0.970767 0
M  V30 8495 C 796.64 4.86926 1.99473 0
M  V30 8496 O 795.666 5.47221 1.56647 0
M  V30 8497 N 796.868 4.75871 3.32456 0
M  V30 8498 H 799.633 2.97816 -0.335547 0
M  V30 8499 H 797.194 1.58602 -0.325129 0
M  V30 8500 H 799.186 3.42496 2.15589 0
M  V30 8501 H 797.756 2.369 2.03954 0
M  V30 8502 H 796.976 3.94036 0.113529 0
M  V30 8503 H 798.264 5.05092 0.613156 0
M  V30 8504 H 797.662 4.2797 3.69944 0
M  V30 8505 H 796.219 5.17383 3.96431 0
M  V30 8506 N 799.652 0.226554 1.55963 0
M  V30 8507 C 800.582 -0.676079 2.23498 0
M  V30 8508 C 801.563 -1.19718 1.20837 0
M  V30 8509 O 802.748 -1.24027 1.49436 0
M  V30 8510 C 799.878 -1.88217 2.91876 0
M  V30 8511 C 798.832 -1.4947 4.01052 0
M  V30 8512 C 798.158 -2.77997 4.56751 0
M  V30 8513 C 799.458 -0.680951 5.17842 0
M  V30 8514 H 801.152 -0.112989 2.99187 0
M  V30 8515 H 798.698 -0.0529046 1.43903 0
M  V30 8516 H 800.651 -2.51911 3.37815 0
M  V30 8517 H 799.375 -2.47031 2.13643 0
M  V30 8518 H 798.034 -0.881199 3.55852 0
M  V30 8519 H 797.682 -3.34966 3.75243 0
M  V30 8520 H 797.382 -2.52803 5.30438 0
M  V30 8521 H 798.906 -3.42625 5.05411 0
M  V30 8522 H 800.32 -1.22171 5.60131 0
M  V30 8523 H 798.717 -0.525898 5.97791 0
M  V30 8524 H 799.787 0.311346 4.83899 0
M  V30 8525 N 801.13 -1.57531 -0.0467866 0
M  V30 8526 C 802.062 -2.02156 -1.08007 0
M  V30 8527 C 803.075 -0.931434 -1.33522 0
M  V30 8528 O 804.264 -1.209 -1.31321 0
M  V30 8529 C 801.364 -2.36675 -2.42566 0
M  V30 8530 C 800.537 -3.67848 -2.36658 0
M  V30 8531 C 799.596 -3.89754 -3.53523 0
M  V30 8532 O 798.622 -4.61036 -3.33818 0
M  V30 8533 N 799.824 -3.34025 -4.74771 0
M  V30 8534 H 802.589 -2.91414 -0.699845 0
M  V30 8535 H 800.15 -1.60185 -0.235041 0
M  V30 8536 H 802.142 -2.48482 -3.19435 0
M  V30 8537 H 800.712 -1.53178 -2.72498 0
M  V30 8538 H 799.932 -3.66561 -1.45005 0
M  V30 8539 H 801.22 -4.53931 -2.29835 0
M  V30 8540 H 800.618 -2.76214 -4.93683 0
M  V30 8541 H 799.175 -3.51241 -5.49066 0
M  V30 8542 N 802.608 0.318715 -1.54344 0
M  V30 8543 C 803.856 1.054 -1.72439 0
M  V30 8544 C 804.177 1.88388 -0.503495 0
M  V30 8545 O 803.447 1.89866 0.48246 0
M  V30 8546 H 802.027 0.392124 -0.635805 0
M  V30 8547 H 804.689 0.35398 -1.91659 0
M  V30 8548 H 803.785 1.71726 -2.60608 0
M  V30 8549 N 804.086 1.46499 0.581025 0
M  V30 8550 C 805.334 1.51596 1.33653 0
M  V30 8551 C 805.655 0.169859 1.94259 0
M  V30 8552 O 804.925 -0.803776 1.78651 0
M  V30 8553 H 803.505 0.558346 0.496244 0
M  V30 8554 H 806.167 1.8264 0.680338 0
M  V30 8555 H 805.263 2.26956 2.14237 0
M  V30 8556 N 805.565 -0.825799 1.34232 0
M  V30 8557 C 806.79 -1.61883 1.29648 0
M  V30 8558 C 807.215 -1.87669 -0.127295 0
M  V30 8559 O 806.573 -1.45016 -1.08813 0
M  V30 8560 C 806.621 -2.93846 2.09014 0
M  V30 8561 O 805.725 -3.85778 1.4577 0
M  V30 8562 H 805.066 -0.492454 0.445405 0
M  V30 8563 H 807.596 -1.02641 1.76992 0
M  V30 8564 H 807.606 -3.43435 2.20264 0
M  V30 8565 H 806.281 -2.74401 3.12533 0
M  V30 8566 H 804.858 -3.4429 1.43245 0
M  V30 8567 N 807.043 -1.17915 -1.04565 0
M  V30 8568 C 808.273 -0.994716 -1.81077 0
M  V30 8569 C 808.681 0.460146 -1.83519 0
M  V30 8570 O 808.024 1.33136 -1.26572 0
M  V30 8571 C 808.086 -1.46698 -3.28207 0
M  V30 8572 C 807.75 -2.94523 -3.49436 0
M  V30 8573 C 808.747 -3.92414 -3.41038 0
M  V30 8574 C 806.432 -3.32841 -3.76194 0
M  V30 8575 C 808.426 -5.2662 -3.59096 0
M  V30 8576 C 806.113 -4.67212 -3.93899 0
M  V30 8577 C 807.111 -5.6391 -3.8535 0
M  V30 8578 O 806.799 -6.95849 -4.02554 0
M  V30 8579 H 806.531 -0.351797 -0.577248 0
M  V30 8580 H 809.085 -1.56772 -1.32709 0
M  V30 8581 H 807.315 -0.837592 -3.7752 0
M  V30 8582 H 809.004 -1.24724 -3.86263 0
M  V30 8583 H 809.77 -3.64157 -3.20336 0
M  V30 8584 H 805.649 -2.58139 -3.81949 0
M  V30 8585 H 809.193 -6.02082 -3.52339 0
M  V30 8586 H 805.09 -4.95172 -4.14095 0
M  V30 8587 H 805.858 -7.02679 -4.19743 0
M  V30 8588 N 808.521 1.23394 -0.980386 0
M  V30 8589 C 809.468 2.24859 -0.520298 0
M  V30 8590 C 810.438 1.60144 0.440821 0
M  V30 8591 O 811.623 1.87593 0.348369 0
M  V30 8592 C 808.763 3.44675 0.171145 0
M  V30 8593 C 807.876 4.23947 -0.830233 0
M  V30 8594 C 807.011 5.31079 -0.113597 0
M  V30 8595 C 806.05 6.02058 -1.10419 0
M  V30 8596 N 805.187 7.00862 -0.416709 0
M  V30 8597 H 810.027 2.63579 -1.39032 0
M  V30 8598 H 807.564 1.29556 -0.696682 0
M  V30 8599 H 809.522 4.13024 0.588838 0
M  V30 8600 H 808.152 3.06755 1.00504 0
M  V30 8601 H 807.204 3.55016 -1.36631 0
M  V30 8602 H 808.516 4.72945 -1.58508 0
M  V30 8603 H 807.67 6.05622 0.36146 0
M  V30 8604 H 806.409 4.83022 0.673854 0
M  V30 8605 H 805.414 5.26307 -1.59 0
M  V30 8606 H 806.639 6.52203 -1.8923 0
M  V30 8607 H 804.585 6.55057 0.351535 0
M  V30 8608 H 804.502 7.47804 -1.11021 0
M  V30 8609 H 805.77 7.79492 0.0359606 0
M  V30 8610 N 809.999 0.752036 1.385 0
M  V30 8611 C 810.946 0.123288 2.3047 0
M  V30 8612 C 811.916 -0.711326 1.50098 0
M  V30 8613 O 813.101 -0.667775 1.78733 0
M  V30 8614 C 810.241 -0.765085 3.36512 0
M  V30 8615 C 809.354 0.0839885 4.31918 0
M  V30 8616 C 808.489 -0.807243 5.25031 0
M  V30 8617 C 807.528 0.0455583 6.12083 0
M  V30 8618 N 806.665 -0.802547 6.97498 0
M  V30 8619 H 811.505 0.913169 2.83664 0
M  V30 8620 H 809.042 0.46195 1.39658 0
M  V30 8621 H 811 -1.29476 3.966 0
M  V30 8622 H 809.63 -1.52077 2.84732 0
M  V30 8623 H 808.682 0.731276 3.73305 0
M  V30 8624 H 809.994 0.74265 4.9324 0
M  V30 8625 H 809.148 -1.40414 5.90228 0
M  V30 8626 H 807.887 -1.49964 4.64071 0
M  V30 8627 H 806.892 0.655137 5.45883 0
M  V30 8628 H 808.117 0.734994 6.75111 0
M  V30 8629 H 806.063 -1.47992 6.39089 0
M  V30 8630 H 805.98 -0.200747 7.55733 0
M  V30 8631 H 807.248 -1.38447 7.67107 0
M  V30 8632 N 811.477 -1.49425 0.500989 0
M  V30 8633 C 812.726 -2.01649 -0.04538 0
M  V30 8634 C 813.039 -1.38572 -1.38047 0
M  V30 8635 O 814.245 -1.82124 -2.01353 0
M  V30 8636 C 812.701 -3.5966 -0.131337 0
M  V30 8637 C 812.309 -4.3171 1.19711 0
M  V30 8638 C 814.053 -4.19828 -0.628071 0
M  V30 8639 C 811.96 -5.81579 1.07332 0
M  V30 8640 H 810.89 -0.753715 -0.0207329 0
M  V30 8641 H 813.541 -1.71962 0.640407 0
M  V30 8642 H 811.923 -3.86063 -0.881574 0
M  V30 8643 H 813.097 -4.17008 1.96064 0
M  V30 8644 H 811.412 -3.83286 1.62729 0
M  V30 8645 H 814.009 -5.2958 -0.738198 0
M  V30 8646 H 814.352 -3.83194 -1.6269 0
M  V30 8647 H 814.885 -3.97746 0.0656314 0
M  V30 8648 H 811.624 -6.22738 2.04642 0
M  V30 8649 H 811.144 -5.98774 0.350679 0
M  V30 8650 H 812.823 -6.42614 0.752047 0
M  V30 8651 N 812.955 -0.234822 -1.55841 0
M  V30 8652 C 814.203 0.392483 -1.98252 0
M  V30 8653 C 814.524 1.59344 -1.12404 0
M  V30 8654 O 813.794 1.94834 -0.204055 0
M  V30 8655 H 812.374 0.147999 -0.732192 0
M  V30 8656 H 815.036 -0.330804 -1.92072 0
M  V30 8657 H 814.132 0.709829 -3.03921 0
M  V30 8658 N 814.433 1.57553 0.0384317 0
M  V30 8659 C 815.663 1.92813 0.742064 0
M  V30 8660 C 816.071 0.832157 1.69917 0
M  V30 8661 O 815.414 -0.200917 1.82598 0
M  V30 8662 C 815.476 3.23806 1.56172 0
M  V30 8663 C 815.14 4.50459 0.770407 0
M  V30 8664 C 816.137 5.19846 0.0748006 0
M  V30 8665 C 813.822 4.97001 0.727714 0
M  V30 8666 C 815.816 6.34047 -0.652902 0
M  V30 8667 C 813.503 6.111 -0.00373992 0
M  V30 8668 C 814.501 6.79477 -0.692816 0
M  V30 8669 O 814.189 7.91395 -1.41241 0
M  V30 8670 H 813.921 0.641174 0.214179 0
M  V30 8671 H 816.475 2.054 0.00285095 0
M  V30 8672 H 814.705 3.0752 2.34453 0
M  V30 8673 H 816.394 3.44463 2.14709 0
M  V30 8674 H 817.16 4.84899 0.098875 0
M  V30 8675 H 813.039 4.43629 1.25355 0
M  V30 8676 H 816.583 6.87353 -1.1913 0
M  V30 8677 H 812.48 6.45493 -0.0297703 0
M  V30 8678 H 813.248 8.07702 -1.32512 0
M  V30 8679 N 815.911 -0.310526 1.54511 0
M  V30 8680 C 817.141 -1.06456 1.77061 0
M  V30 8681 C 817.549 -1.81755 0.525528 0
M  V30 8682 O 816.892 -1.76365 -0.513904 0
M  V30 8683 C 816.954 -2.09856 2.91892 0
M  V30 8684 C 816.618 -1.53838 4.30329 0
M  V30 8685 C 817.615 -0.973358 5.10707 0
M  V30 8686 C 815.3 -1.57688 4.76906 0
M  V30 8687 C 817.294 -0.454283 6.35779 0
M  V30 8688 C 814.981 -1.05393 6.01943 0
M  V30 8689 C 815.979 -0.493595 6.81214 0
M  V30 8690 O 815.667 0.0214506 8.03897 0
M  V30 8691 H 815.399 -0.321913 0.594431 0
M  V30 8692 H 817.953 -0.358289 2.02251 0
M  V30 8693 H 816.183 -2.84137 2.62304 0
M  V30 8694 H 817.872 -2.71085 3.02106 0
M  V30 8695 H 818.638 -0.936588 4.75871 0
M  V30 8696 H 814.517 -2.00242 4.1524 0
M  V30 8697 H 818.061 -0.0162657 6.97598 0
M  V30 8698 H 813.958 -1.08782 6.36268 0
M  V30 8699 H 814.726 -0.0927478 8.18447 0
M  V30 8700 N 817.389 -1.46805 -0.573248 0
M  V30 8701 C 818.666 -1.43082 -1.33368 0
M  V30 8702 C 819.046 -0.119252 -2.10763 0
M  V30 8703 O 818.394 0.899239 -2.10062 0
M  V30 8704 C 818.604 -2.66643 -2.25172 0
M  V30 8705 C 819.952 -3.13188 -2.86702 0
M  V30 8706 O 820.976 -2.67258 -2.35482 0
M  V30 8707 O 819.835 -3.92994 -3.79761 0
M  V30 8708 H 816.929 -0.569451 -0.599712 0
M  V30 8709 H 819.475 -1.58984 -0.59348 0
M  V30 8710 H 818.247 -3.53649 -1.67475 0
M  V30 8711 H 817.87 -2.53247 -3.06516 0
M  V30 8712 N 818.867 0.818669 -1.34668 0
M  V30 8713 C 820.092 1.61193 -1.30505 0
M  V30 8714 C 820.517 1.87734 0.117341 0
M  V30 8715 O 819.875 1.45591 1.08042 0
M  V30 8716 C 819.923 2.92733 -2.1057 0
M  V30 8717 O 819.027 3.85 -1.47813 0
M  V30 8718 H 818.368 0.490085 -0.44801 0
M  V30 8719 H 820.898 1.01701 -1.77534 0
M  V30 8720 H 820.908 3.42262 -2.22082 0
M  V30 8721 H 819.583 2.7274 -3.13984 0
M  V30 8722 H 818.16 3.43525 -1.45069 0
M  V30 8723 N 820.346 1.18468 1.03938 0
M  V30 8724 C 821.574 1.00576 1.80809 0
M  V30 8725 C 821.989 -0.445786 1.83462 0
M  V30 8726 O 821.346 -1.30964 1.27101 0
M  V30 8727 C 821.397 1.55491 3.26351 0
M  V30 8728 O 821.118 2.94963 3.23926 0
M  V30 8729 C 822.619 1.42236 4.19862 0
M  V30 8730 H 819.839 0.35508 0.56935 0
M  V30 8731 H 822.383 1.57046 1.30984 0
M  V30 8732 H 820.538 1.03195 3.73403 0
M  V30 8733 H 820.952 3.20598 4.15111 0
M  V30 8734 H 822.426 1.85455 5.19914 0
M  V30 8735 H 822.903 0.371267 4.37628 0
M  V30 8736 H 823.509 1.9361 3.78675 0
M  V30 8737 N 821.824 -1.22873 0.986916 0
M  V30 8738 C 822.771 -2.2458 0.532215 0
M  V30 8739 C 823.741 -1.60375 -0.432322 0
M  V30 8740 O 824.926 -1.87775 -0.338416 0
M  V30 8741 C 822.066 -3.44761 -0.152864 0
M  V30 8742 C 821.179 -4.23501 0.852704 0
M  V30 8743 C 820.314 -5.31011 0.14176 0
M  V30 8744 C 819.353 -6.01464 1.1361 0
M  V30 8745 N 818.49 -7.00631 0.453871 0
M  V30 8746 H 823.33 -2.62838 1.40428 0
M  V30 8747 H 820.867 -1.29185 0.703543 0
M  V30 8748 H 822.825 -4.1333 -0.566926 0
M  V30 8749 H 821.455 -3.07284 -0.988756 0
M  V30 8750 H 820.507 -3.54286 1.38512 0
M  V30 8751 H 821.819 -4.72097 1.61014 0
M  V30 8752 H 820.973 -6.05805 -0.329337 0
M  V30 8753 H 819.712 -4.83373 -0.648229 0
M  V30 8754 H 818.717 -5.25456 1.61789 0
M  V30 8755 H 819.942 -6.5119 1.92686 0
M  V30 8756 H 817.888 -6.55235 -0.316791 0
M  V30 8757 H 817.805 -7.47204 1.14986 0
M  V30 8758 H 819.073 -7.795 0.00537823 0
M  V30 8759 N 823.302 -0.75937 -1.38099 0
M  V30 8760 C 824.579 -0.243371 -1.9408 0
M  V30 8761 C 824.959 1.25942 -1.69416 0
M  V30 8762 O 824.307 2.03667 -1.03595 0
M  V30 8763 C 824.517 -0.603328 -3.43745 0
M  V30 8764 C 825.865 -0.566195 -4.20808 0
M  V30 8765 O 826.889 -0.541969 -3.52053 0
M  V30 8766 O 825.748 -0.582261 -5.43389 0
M  V30 8767 H 822.842 -0.0526825 -0.82532 0
M  V30 8768 H 825.388 -0.839884 -1.47459 0
M  V30 8769 H 824.16 -1.64098 -3.55229 0
M  V30 8770 H 823.783 0.0208887 -3.97595 0
M  V30 8771 N 824.78 1.49157 -0.508906 0
M  V30 8772 C 826.057 1.95363 0.0961913 0
M  V30 8773 C 826.437 1.45064 1.53362 0
M  V30 8774 O 825.785 0.667835 2.18523 0
M  V30 8775 C 825.995 3.49 0.000688881 0
M  V30 8776 C 827.343 4.24257 0.170632 0
M  V30 8777 O 828.367 3.5612 0.0754994 0
M  V30 8778 O 827.226 5.45267 0.366957 0
M  V30 8779 H 824.32 0.821984 0.0909489 0
M  V30 8780 H 826.866 1.59769 -0.572007 0
M  V30 8781 H 825.638 3.78269 -1.00143 0
M  V30 8782 H 825.261 3.91233 0.708682 0
M  V30 8783 N 826.258 0.243083 1.55714 0
M  V30 8784 C 827.188 -0.652336 2.24203 0
M  V30 8785 C 828.169 -1.1843 1.221 0
M  V30 8786 O 829.354 -1.22435 1.50743 0
M  V30 8787 C 826.484 -1.85111 2.93856 0
M  V30 8788 C 825.438 -1.45208 4.02615 0
M  V30 8789 C 824.764 -2.73137 4.59674 0
M  V30 8790 C 826.064 -0.625988 5.18535 0
M  V30 8791 H 827.758 -0.0812504 2.9929 0
M  V30 8792 H 825.304 -0.0376388 1.43951 0
M  V30 8793 H 827.257 -2.48314 3.40468 0
M  V30 8794 H 825.981 -2.44751 2.16251 0
M  V30 8795 H 824.64 -0.843406 3.56766 0
M  V30 8796 H 824.288 -3.30967 3.78774 0
M  V30 8797 H 823.988 -2.47163 5.33089 0
M  V30 8798 H 825.512 -3.37245 5.09017 0
M  V30 8799 H 826.926 -1.16223 5.61396 0
M  V30 8800 H 825.323 -0.462465 5.98315 0
M  V30 8801 H 826.393 0.362652 4.83542 0
M  V30 8802 N 827.736 -1.57571 -0.0300757 0
M  V30 8803 C 828.961 -1.93879 -0.736601 0
M  V30 8804 C 829.386 -0.842998 -1.68152 0
M  V30 8805 O 828.744 0.20135 -1.80178 0
M  V30 8806 C 828.792 -3.29247 -1.47066 0
M  V30 8807 O 827.896 -3.21426 -2.58378 0
M  V30 8808 H 827.237 -0.633735 -0.198181 0
M  V30 8809 H 829.767 -2.04595 0.0141485 0
M  V30 8810 H 829.777 -3.64113 -1.84081 0
M  V30 8811 H 828.452 -4.08565 -0.77764 0
M  V30 8812 H 827.029 -2.98189 -2.23914 0
M  V30 8813 N 829.214 0.302327 -1.54673 0
M  V30 8814 C 830.46 1.03532 -1.75079 0
M  V30 8815 C 830.815 1.84972 -0.52943 0
M  V30 8816 O 830.108 1.85537 0.478169 0
M  V30 8817 C 830.302 1.97365 -2.97963 0
M  V30 8818 C 830.131 1.25154 -4.31934 0
M  V30 8819 C 828.901 0.979243 -4.95721 0
M  V30 8820 C 831.099 0.656653 -5.10091 0
M  V30 8821 N 829.081 0.227265 -6.13479 0
M  V30 8822 C 830.452 0.0373759 -6.19989 0
M  V30 8823 C 832.507 0.561571 -4.94723 0
M  V30 8824 C 831.21 -0.667782 -7.16194 0
M  V30 8825 C 833.236 -0.12993 -5.91257 0
M  V30 8826 C 832.598 -0.738063 -7.00523 0
M  V30 8827 H 828.697 0.361824 -0.693258 0
M  V30 8828 H 831.281 0.314091 -1.9215 0
M  V30 8829 H 829.452 2.66739 -2.8232 0
M  V30 8830 H 831.184 2.63806 -3.06902 0
M  V30 8831 H 827.939 1.27706 -4.56057 0
M  V30 8832 H 828.363 -0.135199 -6.76865 0
M  V30 8833 H 833.005 1.01744 -4.10375 0
M  V30 8834 H 830.723 -1.13542 -8.00084 0
M  V30 8835 H 834.309 -0.203423 -5.81444 0
M  V30 8836 H 833.189 -1.26463 -7.73936 0
M  V30 8837 N 830.692 1.47107 0.565454 0
M  V30 8838 C 831.917 1.57153 1.35343 0
M  V30 8839 C 832.342 0.219247 1.86818 0
M  V30 8840 O 831.7 -0.803539 1.62521 0
M  V30 8841 C 831.748 2.59387 2.50501 0
M  V30 8842 O 830.852 2.14086 3.52478 0
M  V30 8843 H 830.193 0.528209 0.402357 0
M  V30 8844 H 832.723 1.92821 0.684189 0
M  V30 8845 H 832.733 2.79546 2.97184 0
M  V30 8846 H 831.408 3.57579 2.12391 0
M  V30 8847 H 829.985 2.03991 3.12157 0
M  V30 8848 N 832.17 -0.811516 1.35101 0
M  V30 8849 C 833.117 -1.92308 1.27617 0
M  V30 8850 C 834.087 -1.6543 0.149091 0
M  V30 8851 O 835.272 -1.8789 0.331974 0
M  V30 8852 C 832.412 -3.28768 1.04908 0
M  V30 8853 C 831.525 -3.67865 2.26493 0
M  V30 8854 C 830.66 -4.9333 1.96974 0
M  V30 8855 C 829.699 -5.25041 3.1464 0
M  V30 8856 N 828.836 -6.41685 2.84929 0
M  V30 8857 H 833.676 -1.98041 2.22674 0
M  V30 8858 H 831.213 -0.968755 1.10696 0
M  V30 8859 H 833.171 -4.07426 0.897749 0
M  V30 8860 H 831.801 -3.22517 0.135151 0
M  V30 8861 H 830.853 -2.84507 2.52507 0
M  V30 8862 H 832.165 -3.87263 3.14371 0
M  V30 8863 H 831.319 -5.79803 1.78643 0
M  V30 8864 H 830.058 -4.75958 1.06374 0
M  V30 8865 H 829.063 -4.3706 3.33554 0
M  V30 8866 H 830.288 -5.44346 4.06035 0
M  V30 8867 H 828.234 -6.25747 1.96918 0
M  V30 8868 H 828.151 -6.6131 3.66341 0
M  V30 8869 H 829.419 -7.31198 2.70128 0
M  V30 8870 N 833.648 -1.19017 -1.03309 0
M  V30 8871 C 834.876 -1.01534 -1.80273 0
M  V30 8872 C 835.291 0.43605 -1.83696 0
M  V30 8873 O 834.648 1.30288 -1.27794 0
M  V30 8874 C 834.699 -1.5722 -3.25522 0
M  V30 8875 O 834.42 -2.96677 -3.22358 0
M  V30 8876 C 835.921 -1.4446 -4.19102 0
M  V30 8877 H 833.141 -0.358094 -0.567459 0
M  V30 8878 H 835.685 -1.57738 -1.3015 0
M  V30 8879 H 833.84 -1.05174 -3.7285 0
M  V30 8880 H 834.254 -3.22795 -4.13405 0
M  V30 8881 H 835.728 -1.88209 -5.18923 0
M  V30 8882 H 836.205 -0.394471 -4.37425 0
M  V30 8883 H 836.811 -1.95616 -3.77643 0
M  V30 8884 N 835.127 1.22348 -0.993418 0
M  V30 8885 C 836.404 1.86632 -0.585495 0
M  V30 8886 C 836.784 1.89156 0.937187 0
M  V30 8887 O 836.132 1.38247 1.81934 0
M  V30 8888 C 836.342 3.27481 -1.20652 0
M  V30 8889 C 837.69 4.03971 -1.30738 0
M  V30 8890 O 838.714 3.3675 -1.16096 0
M  V30 8891 O 837.573 5.24302 -1.54173 0
M  V30 8892 H 834.667 0.802704 -0.198984 0
M  V30 8893 H 837.213 1.30122 -1.08933 0
M  V30 8894 H 835.985 3.20281 -2.24802 0
M  V30 8895 H 835.608 3.91597 -0.688312 0
M  V30 8896 N 836.605 0.766683 1.37694 0
M  V30 8897 C 837.552 0.147725 2.30327 0
M  V30 8898 C 838.522 -0.695366 1.50844 0
M  V30 8899 O 839.707 -0.64878 1.79431 0
M  V30 8900 C 836.847 -0.72935 3.37305 0
M  V30 8901 C 835.96 0.129795 4.31805 0
M  V30 8902 C 835.095 -0.751511 5.25857 0
M  V30 8903 C 834.134 0.110475 6.12 0
M  V30 8904 N 833.271 -0.728522 6.9831 0
M  V30 8905 H 838.111 0.943204 2.82679 0
M  V30 8906 H 835.648 0.476736 1.3916 0
M  V30 8907 H 837.606 -1.25263 3.97951 0
M  V30 8908 H 836.236 -1.49048 2.86329 0
M  V30 8909 H 835.288 0.770829 3.72508 0
M  V30 8910 H 836.6 0.794923 4.92425 0
M  V30 8911 H 835.754 -1.34146 5.91684 0
M  V30 8912 H 834.493 -1.45034 4.65636 0
M  V30 8913 H 833.498 0.712999 5.45157 0
M  V30 8914 H 834.723 0.806557 6.74293 0
M  V30 8915 H 832.669 -1.41206 6.40622 0
M  V30 8916 H 832.586 -0.12058 7.55904 0
M  V30 8917 H 833.854 -1.30303 7.68532 0
M  V30 8918 N 838.083 -1.48885 0.516809 0
M  V30 8919 C 839.329 -2.03395 -0.0140225 0
M  V30 8920 C 839.684 -1.38808 -1.33229 0
M  V30 8921 O 838.977 -0.520104 -1.84406 0
M  V30 8922 C 839.171 -3.56801 -0.206798 0
M  V30 8923 C 839 -4.36259 1.09124 0
M  V30 8924 C 837.77 -4.77689 1.64745 0
M  V30 8925 C 839.968 -4.73881 1.99854 0
M  V30 8926 N 837.95 -5.41634 2.88975 0
M  V30 8927 C 839.321 -5.37707 3.08661 0
M  V30 8928 C 841.376 -4.55816 2.00341 0
M  V30 8929 C 840.079 -5.85379 4.18001 0
M  V30 8930 C 842.105 -5.04459 3.08666 0
M  V30 8931 C 841.467 -5.68299 4.16191 0
M  V30 8932 H 837.566 -0.781169 0.036042 0
M  V30 8933 H 840.15 -1.81867 0.695173 0
M  V30 8934 H 838.321 -3.78181 -0.885064 0
M  V30 8935 H 840.053 -3.9795 -0.736053 0
M  V30 8936 H 836.808 -4.58392 1.19054 0
M  V30 8937 H 837.232 -5.78181 3.52187 0
M  V30 8938 H 841.874 -4.05851 1.18511 0
M  V30 8939 H 839.592 -6.34356 5.00618 0
M  V30 8940 H 843.178 -4.92281 3.10082 0
M  V30 8941 H 842.058 -6.05257 4.98631 0
M  V30 8942 N 839.561 -0.251338 -1.55583 0
M  V30 8943 C 840.81 0.372681 -1.98227 0
M  V30 8944 C 841.123 1.58743 -1.1428 0
M  V30 8945 O 842.329 2.28289 -1.46957 0
M  V30 8946 C 840.785 0.714439 -3.52738 0
M  V30 8947 C 840.393 -0.479168 -4.4543 0
M  V30 8948 C 842.137 1.3024 -4.04027 0
M  V30 8949 C 840.044 -0.113318 -5.91291 0
M  V30 8950 H 838.974 0.14302 -0.740312 0
M  V30 8951 H 841.625 -0.352253 -1.80087 0
M  V30 8952 H 840.007 1.49762 -3.66589 0
M  V30 8953 H 841.181 -1.25644 -4.4334 0
M  V30 8954 H 839.496 -0.982359 -4.04646 0
M  V30 8955 H 842.093 1.58953 -5.10527 0
M  V30 8956 H 842.436 2.22837 -3.51638 0
M  V30 8957 H 842.969 0.582024 -3.93519 0
M  V30 8958 H 839.708 -1.00654 -6.47726 0
M  V30 8959 H 839.228 0.627666 -5.96507 0
M  V30 8960 H 840.907 0.30293 -6.4629 0
M  V30 8961 N 841.039 1.57585 0.0217189 0
M  V30 8962 C 842.287 1.89231 0.709641 0
M  V30 8963 C 842.608 0.849964 1.75501 0
M  V30 8964 O 841.878 -0.115485 1.95559 0
M  V30 8965 H 840.458 0.69838 0.265092 0
M  V30 8966 H 843.12 1.94895 -0.0140688 0
M  V30 8967 H 842.216 2.88333 1.19459 0
M  V30 8968 N 842.517 -0.29412 1.54831 0
M  V30 8969 C 843.765 -1.02643 1.74094 0
M  V30 8970 C 844.086 -1.87563 0.533402 0
M  V30 8971 O 843.356 -1.9061 -0.452192 0
M  V30 8972 H 841.936 -0.381959 0.641963 0
M  V30 8973 H 844.598 -0.323444 1.92197 0
M  V30 8974 H 843.694 -1.67558 2.63307 0
M  V30 8975 N 843.995 -1.47404 -0.557645 0
M  V30 8976 C 845.22 -1.57868 -1.34508 0
M  V30 8977 C 845.645 -0.229151 -1.86699 0
M  V30 8978 O 845.003 0.794908 -1.62944 0
M  V30 8979 C 845.051 -2.60712 -2.49122 0
M  V30 8980 O 844.155 -2.15952 -3.51338 0
M  V30 8981 H 843.496 -0.530335 -0.399551 0
M  V30 8982 H 846.026 -1.93181 -0.673954 0
M  V30 8983 H 846.036 -2.81118 -2.95697 0
M  V30 8984 H 844.711 -3.58701 -2.10491 0
M  V30 8985 H 843.288 -2.05644 -3.11071 0
M  V30 8986 N 845.473 0.80434 -1.35529 0
M  V30 8987 C 846.884 1.37849 -1.25915 0
M  V30 8988 C 847.235 1.95905 0.107495 0
M  V30 8989 O 846.36 1.91462 1.00852 0
M  V30 8990 C 846.955 2.50608 -2.27994 0
M  V30 8991 C 845.514 3.03879 -2.22114 0
M  V30 8992 C 844.661 1.76856 -2.13582 0
M  V30 8993 H 847.612 0.607192 -1.46625 0
M  V30 8994 H 847.633 3.29221 -1.90772 0
M  V30 8995 H 847.145 2.08323 -3.27449 0
M  V30 8996 H 845.246 3.50622 -1.26077 0
M  V30 8997 H 845.359 3.61707 -3.14173 0
M  V30 8998 H 843.723 1.98498 -1.59595 0
M  V30 8999 H 844.506 1.36721 -3.14901 0
M  V30 9000 N 846.951 1.19563 1.02676 0
M  V30 9001 C 848.362 1.00158 1.57561 0
M  V30 9002 C 848.713 -0.444922 1.91089 0
M  V30 9003 O 847.838 -1.32466 1.71119 0
M  V30 9004 C 848.433 1.81181 2.86284 0
M  V30 9005 C 846.992 1.66171 3.37734 0
M  V30 9006 C 846.139 1.7975 2.11152 0
M  V30 9007 H 849.09 1.33904 0.85179 0
M  V30 9008 H 849.111 1.30916 3.57269 0
M  V30 9009 H 848.623 2.86454 2.6185 0
M  V30 9010 H 846.724 0.634927 3.6715 0
M  V30 9011 H 846.837 2.46832 4.10622 0
M  V30 9012 H 845.201 1.22833 2.23123 0
M  V30 9013 H 845.984 2.86487 1.89157 0
M  V30 9014 N 848.429 -1.21819 0.999893 0
M  V30 9015 C 849.392 -2.22227 0.561044 0
M  V30 9016 C 850.392 -1.56722 -0.359858 0
M  V30 9017 O 851.582 -1.73546 -0.150848 0
M  V30 9018 C 848.714 -3.40409 -0.182987 0
M  V30 9019 H 849.907 -2.62567 1.44909 0
M  V30 9020 H 847.46 -1.34991 0.78785 0
M  V30 9021 H 848.195 -3.05551 -1.08671 0
M  V30 9022 H 847.98 -3.89171 0.47833 0
M  V30 9023 H 849.47 -4.14856 -0.477952 0
M  V30 9024 N 849.908 -0.773975 -1.37286 0
M  V30 9025 C 851.185 -0.263942 -1.93811 0
M  V30 9026 C 851.565 1.24138 -1.70743 0
M  V30 9027 O 850.913 2.02557 -1.05749 0
M  V30 9028 C 851.123 -0.639753 -3.43086 0
M  V30 9029 C 852.471 -0.610796 -4.20184 0
M  V30 9030 O 853.495 -0.579278 -3.51458 0
M  V30 9031 O 852.354 -0.639862 -5.42741 0
M  V30 9032 H 849.448 -0.0614331 -0.824715 0
M  V30 9033 H 851.994 -0.855477 -1.46559 0
M  V30 9034 H 850.766 -1.67856 -3.53469 0
M  V30 9035 H 850.389 -0.0212827 -3.97594 0
M  V30 9036 N 851.386 1.48609 -0.524698 0
M  V30 9037 C 852.318 2.27508 0.278 0
M  V30 9038 C 853.331 1.35042 0.909258 0
M  V30 9039 O 854.52 1.60136 0.788592 0
M  V30 9040 C 851.62 3.08247 1.40843 0
M  V30 9041 C 850.793 4.28455 0.880083 0
M  V30 9042 C 849.852 4.91048 1.891 0
M  V30 9043 O 848.878 5.5042 1.45005 0
M  V30 9044 N 850.08 4.82816 3.22288 0
M  V30 9045 H 852.845 2.97037 -0.398642 0
M  V30 9046 H 850.406 1.57876 -0.358698 0
M  V30 9047 H 852.398 3.46992 2.08276 0
M  V30 9048 H 850.968 2.41173 1.98883 0
M  V30 9049 H 850.188 3.94189 0.0299228 0
M  V30 9050 H 851.476 5.06279 0.505881 0
M  V30 9051 H 850.874 4.3572 3.60783 0
M  V30 9052 H 849.431 5.25676 3.85368 0
M  V30 9053 N 852.864 0.259585 1.55447 0
M  V30 9054 C 854.092 -0.365392 2.03648 0
M  V30 9055 C 854.507 -1.50613 1.13847 0
M  V30 9056 O 853.864 -1.81837 0.155414 0
M  V30 9057 C 853.915 -0.861172 3.51093 0
M  V30 9058 O 853.636 0.234121 4.37474 0
M  V30 9059 C 855.137 -1.55555 4.15111 0
M  V30 9060 H 852.357 -0.0853439 0.66555 0
M  V30 9061 H 854.901 0.387151 2.00802 0
M  V30 9062 H 853.056 -1.56385 3.54433 0
M  V30 9063 H 853.47 -0.1444 5.24301 0
M  V30 9064 H 854.944 -1.85403 5.19932 0
M  V30 9065 H 855.421 -2.48185 3.62355 0
M  V30 9066 H 856.027 -0.89712 4.15731 0
M  V30 9067 N 854.342 -1.57594 -0.0133615 0
M  V30 9068 C 855.272 -2.10611 -1.00823 0
M  V30 9069 C 856.253 -1.01217 -1.36708 0
M  V30 9070 O 857.438 -1.28827 -1.45318 0
M  V30 9071 C 854.568 -2.59844 -2.30431 0
M  V30 9072 C 853.522 -3.73644 -2.08745 0
M  V30 9073 C 852.848 -4.09141 -3.4425 0
M  V30 9074 C 854.148 -5.01454 -1.46086 0
M  V30 9075 H 855.842 -2.93985 -0.566849 0
M  V30 9076 H 853.388 -1.41423 -0.271219 0
M  V30 9077 H 855.341 -2.95557 -3.00373 0
M  V30 9078 H 854.065 -1.73573 -2.76658 0
M  V30 9079 H 852.724 -3.38303 -1.41232 0
M  V30 9080 H 852.372 -3.19914 -3.88155 0
M  V30 9081 H 852.072 -4.85802 -3.3056 0
M  V30 9082 H 853.596 -4.47402 -4.15528 0
M  V30 9083 H 855.01 -5.35024 -2.05966 0
M  V30 9084 H 853.407 -5.82832 -1.42924 0
M  V30 9085 H 854.477 -4.83003 -0.428471 0
M  V30 9086 N 855.82 0.285905 -1.54985 0
M  V30 9087 C 857.066 1.02071 -1.75241 0
M  V30 9088 C 857.399 1.864 -0.544842 0
M  V30 9089 O 856.674 1.89034 0.457844 0
M  V30 9090 C 856.957 1.91409 -3.05016 0
M  V30 9091 C 856.81 1.10158 -4.36102 0
M  V30 9092 C 858.129 2.90335 -3.30747 0
M  V30 9093 H 855.248 0.369663 -0.637588 0
M  V30 9094 H 857.89 0.294114 -1.8771 0
M  V30 9095 H 856.04 2.53362 -2.94517 0
M  V30 9096 H 857.712 0.503756 -4.58541 0
M  V30 9097 H 855.955 0.404675 -4.31908 0
M  V30 9098 H 856.626 1.75956 -5.23205 0
M  V30 9099 H 859.102 2.38514 -3.40955 0
M  V30 9100 H 857.978 3.49997 -4.2284 0
M  V30 9101 H 858.239 3.64787 -2.49765 0
M  V30 9102 N 857.298 1.47698 0.54982 0
M  V30 9103 C 858.547 1.53961 1.30303 0
M  V30 9104 C 858.86 0.209731 1.94472 0
M  V30 9105 O 860.066 0.150418 2.71083 0
M  V30 9106 C 858.522 2.71436 2.36328 0
M  V30 9107 C 858.13 4.10983 1.78316 0
M  V30 9108 C 859.874 2.86996 3.12783 0
M  V30 9109 C 857.781 5.19747 2.82164 0
M  V30 9110 H 856.711 0.573098 0.489975 0
M  V30 9111 H 859.362 1.73989 0.583089 0
M  V30 9112 H 857.744 2.44801 3.11269 0
M  V30 9113 H 858.918 4.47552 1.09697 0
M  V30 9114 H 857.233 4.00371 1.1442 0
M  V30 9115 H 859.83 3.65422 3.90347 0
M  V30 9116 H 860.173 1.95712 3.67427 0
M  V30 9117 H 860.706 3.13436 2.44954 0
M  V30 9118 H 857.445 6.12932 2.32366 0
M  V30 9119 H 856.965 4.87688 3.49171 0
M  V30 9120 H 858.644 5.47014 3.4552 0
M  V30 9121 N 858.776 -0.797141 1.35954 0
M  V30 9122 C 859.723 -1.90944 1.2965 0
M  V30 9123 C 860.693 -1.65262 0.166628 0
M  V30 9124 O 861.878 -1.87527 0.351883 0
M  V30 9125 C 859.018 -3.27637 1.08389 0
M  V30 9126 C 858.131 -3.65442 2.30382 0
M  V30 9127 C 857.266 -4.91213 2.02195 0
M  V30 9128 C 856.305 -5.21674 3.20191 0
M  V30 9129 N 855.442 -6.38627 2.91719 0
M  V30 9130 H 860.282 -1.95668 2.24762 0
M  V30 9131 H 857.819 -0.95696 1.11717 0
M  V30 9132 H 859.777 -4.06451 0.940912 0
M  V30 9133 H 858.407 -3.22355 0.169351 0
M  V30 9134 H 857.459 -2.81813 2.55511 0
M  V30 9135 H 858.771 -3.83907 3.18461 0
M  V30 9136 H 857.925 -5.77876 1.84783 0
M  V30 9137 H 856.664 -4.74803 1.11416 0
M  V30 9138 H 855.669 -4.33498 3.38171 0
M  V30 9139 H 856.894 -5.40009 4.11786 0
M  V30 9140 H 854.84 -6.23623 2.03543 0
M  V30 9141 H 854.757 -6.57387 3.73334 0
M  V30 9142 H 856.025 -7.28292 2.77868 0
M  V30 9143 N 860.254 -1.20106 -1.0204 0
M  V30 9144 C 861.482 -1.0344 -1.79186 0
M  V30 9145 C 861.897 0.416542 -1.84148 0
M  V30 9146 O 861.254 1.28925 -1.29168 0
M  V30 9147 C 861.305 -1.60663 -3.23836 0
M  V30 9148 O 861.026 -3.00079 -3.19193 0
M  V30 9149 C 862.527 -1.48897 -4.17546 0
M  V30 9150 H 859.747 -0.364093 -0.563629 0
M  V30 9151 H 862.291 -1.5911 -1.28469 0
M  V30 9152 H 860.446 -1.09122 -3.71714 0
M  V30 9153 H 860.86 -3.27162 -4.09958 0
M  V30 9154 H 862.334 -1.93703 -5.16898 0
M  V30 9155 H 862.811 -0.440843 -4.36982 0
M  V30 9156 H 863.417 -1.9961 -3.75547 0
M  V30 9157 N 861.732 1.21287 -1.00634 0
M  V30 9158 C 862.979 1.90389 -0.6898 0
M  V30 9159 C 863.307 1.78193 0.779574 0
M  V30 9160 O 862.562 1.15358 1.58085 0
M  V30 9161 C 862.861 3.41374 -1.05824 0
M  V30 9162 C 862.527 3.73766 -2.5221 0
M  V30 9163 C 861.189 3.82317 -2.92211 0
M  V30 9164 C 863.541 3.88871 -3.47028 0
M  V30 9165 C 860.869 4.03423 -4.2599 0
M  V30 9166 C 863.221 4.11484 -4.80483 0
M  V30 9167 C 861.885 4.18263 -5.20204 0
M  V30 9168 H 861.155 0.696683 -0.252416 0
M  V30 9169 H 863.802 1.43769 -1.26502 0
M  V30 9170 H 862.107 3.8974 -0.401281 0
M  V30 9171 H 863.804 3.93118 -0.79116 0
M  V30 9172 H 860.394 3.67702 -2.20212 0
M  V30 9173 H 864.578 3.8163 -3.17289 0
M  V30 9174 H 859.834 4.06902 -4.56334 0
M  V30 9175 H 864.008 4.22115 -5.53888 0
M  V30 9176 H 861.635 4.34369 -6.23881 0
M  V30 9177 N 863.21 0.781244 1.36873 0
M  V30 9178 C 864.626 0.461968 1.52768 0
M  V30 9179 C 864.826 -1.02099 1.73719 0
M  V30 9180 O 863.882 -1.80665 1.76399 0
M  V30 9181 C 865.195 1.2853 2.71846 0
M  V30 9182 C 866.743 1.27817 2.85713 0
M  V30 9183 C 867.218 2.08506 4.07786 0
M  V30 9184 N 868.709 2.05909 4.14917 0
M  V30 9185 C 869.444 2.65118 5.08429 0
M  V30 9186 N 868.94 3.33152 6.07438 0
M  V30 9187 N 870.733 2.54896 5.00983 0
M  V30 9188 H 862.884 1.74198 1.21527 0
M  V30 9189 H 865.147 0.740027 0.592506 0
M  V30 9190 H 864.853 2.3366 2.62861 0
M  V30 9191 H 864.727 0.920981 3.65784 0
M  V30 9192 H 867.114 0.234817 2.94164 0
M  V30 9193 H 867.195 1.68219 1.92707 0
M  V30 9194 H 866.839 3.12867 4.00096 0
M  V30 9195 H 866.769 1.65479 4.99924 0
M  V30 9196 H 869.26 1.56386 3.44023 0
M  V30 9197 H 869.573 3.75681 6.75339 0
M  V30 9198 H 867.918 3.37253 6.07689 0
M  V30 9199 H 871.109 2.01352 4.22581 0
M  V30 9200 H 871.282 3.01332 5.73675 0
M  V30 9201 N 864.689 -1.48329 0.532571 0
M  V30 9202 C 865.936 -2.025 -0.000582356 0
M  V30 9203 C 866.264 -1.40942 -1.34036 0
M  V30 9204 O 865.519 -0.545545 -1.87942 0
M  V30 9205 C 865.818 -3.57 -0.168943 0
M  V30 9206 C 865.484 -4.37357 1.0968 0
M  V30 9207 C 864.146 -4.59033 1.44369 0
M  V30 9208 C 866.498 -4.83882 1.93669 0
M  V30 9209 C 863.826 -5.24481 2.62939 0
M  V30 9210 C 866.178 -5.50637 3.11419 0
M  V30 9211 C 864.842 -5.70551 3.46451 0
M  V30 9212 H 864.112 -0.741 -0.000213099 0
M  V30 9213 H 866.759 -1.78282 0.699117 0
M  V30 9214 H 865.064 -3.80072 -0.951429 0
M  V30 9215 H 866.761 -3.9654 -0.596422 0
M  V30 9216 H 863.351 -4.20748 0.816655 0
M  V30 9217 H 867.535 -4.66936 1.6818 0
M  V30 9218 H 862.791 -5.38096 2.9028 0
M  V30 9219 H 866.965 -5.85655 3.76803 0
M  V30 9220 H 864.592 -6.21037 4.38425 0
M  V30 9221 N 866.167 -0.267825 -1.55308 0
M  V30 9222 C 867.097 0.616585 -2.25212 0
M  V30 9223 C 868.078 1.16472 -1.23969 0
M  V30 9224 O 869.263 1.20021 -1.52672 0
M  V30 9225 C 866.393 1.80412 -2.96764 0
M  V30 9226 C 865.347 1.38784 -4.04874 0
M  V30 9227 C 864.673 2.65789 -4.63961 0
M  V30 9228 C 865.973 0.543415 -5.19465 0
M  V30 9229 H 867.667 0.0336257 -2.99381 0
M  V30 9230 H 865.213 0.0147328 -1.43992 0
M  V30 9231 H 867.166 2.42866 -3.44375 0
M  V30 9232 H 865.89 2.4128 -2.20118 0
M  V30 9233 H 864.549 0.786541 -3.58063 0
M  V30 9234 H 864.197 3.24899 -3.83992 0
M  V30 9235 H 863.897 2.38651 -5.36954 0
M  V30 9236 H 865.421 3.29104 -5.14318 0
M  V30 9237 H 866.835 1.07277 -5.63174 0
M  V30 9238 H 865.232 0.367219 -5.98975 0
M  V30 9239 H 866.302 -0.439534 -4.82904 0
M  V30 9240 N 867.645 1.57599 0.00500368 0
M  V30 9241 C 868.87 1.95026 0.705663 0
M  V30 9242 C 869.295 0.869643 1.6679 0
M  V30 9243 O 868.653 -0.172659 1.80476 0
M  V30 9244 C 868.701 3.31545 1.4181 0
M  V30 9245 O 867.805 3.25495 2.53232 0
M  V30 9246 H 867.146 0.636808 0.188074 0
M  V30 9247 H 869.676 2.04547 -0.046696 0
M  V30 9248 H 869.686 3.66996 1.78265 0
M  V30 9249 H 868.361 4.09751 0.712543 0
M  V30 9250 H 866.938 3.01714 2.19142 0
M  V30 9251 N 869.123 -0.277682 1.55134 0
M  V30 9252 C 870.055 -1.36531 1.84098 0
M  V30 9253 C 871.068 -1.45756 0.725194 0
M  V30 9254 O 872.257 -1.47656 1.00299 0
M  V30 9255 C 869.357 -2.74701 1.98476 0
M  V30 9256 C 868.53 -2.88125 3.29094 0
M  V30 9257 C 867.589 -4.0694 3.33596 0
M  V30 9258 O 866.615 -3.9792 4.06999 0
M  V30 9259 N 867.817 -5.18687 2.60661 0
M  V30 9260 H 870.582 -1.12032 2.77973 0
M  V30 9261 H 868.143 -0.467793 1.54995 0
M  V30 9262 H 870.135 -3.52471 1.98863 0
M  V30 9263 H 868.705 -2.92043 1.11488 0
M  V30 9264 H 867.925 -1.97277 3.41285 0
M  V30 9265 H 869.213 -2.94021 4.15246 0
M  V30 9266 H 868.611 -5.28901 2.00699 0
M  V30 9267 H 867.168 -5.94705 2.66776 0
M  V30 9268 N 870.601 -1.47988 -0.541979 0
M  V30 9269 C 871.548 -1.61615 -1.6477 0
M  V30 9270 C 872.518 -0.458602 -1.59644 0
M  V30 9271 O 873.703 -0.680585 -1.78249 0
M  V30 9272 C 870.843 -1.65066 -3.03063 0
M  V30 9273 C 869.956 -2.91845 -3.18513 0
M  V30 9274 C 869.091 -2.86534 -4.47294 0
M  V30 9275 C 868.13 -4.0807 -4.5623 0
M  V30 9276 N 867.267 -4.00905 -5.76385 0
M  V30 9277 H 872.107 -2.56046 -1.52461 0
M  V30 9278 H 869.644 -1.26989 -0.742449 0
M  V30 9279 H 871.602 -1.65049 -3.83164 0
M  V30 9280 H 870.232 -0.74136 -3.14171 0
M  V30 9281 H 869.284 -3.01661 -2.31743 0
M  V30 9282 H 870.596 -3.81804 -3.20978 0
M  V30 9283 H 869.75 -2.84851 -5.35672 0
M  V30 9284 H 868.489 -1.94283 -4.47332 0
M  V30 9285 H 867.494 -4.10041 -3.66261 0
M  V30 9286 H 868.719 -5.01465 -4.5794 0
M  V30 9287 H 866.665 -3.11467 -5.77342 0
M  V30 9288 H 866.582 -4.84557 -5.80293 0
M  V30 9289 H 867.85 -4.03263 -6.67083 0
M  V30 9290 N 872.079 0.78992 -1.36375 0
M  V30 9291 C 873.009 1.91683 -1.33341 0
M  V30 9292 C 873.99 1.68861 -0.204965 0
M  V30 9293 O 875.175 1.89982 -0.402531 0
M  V30 9294 C 872.305 3.28696 -1.12143 0
M  V30 9295 C 871.259 3.66041 -2.21806 0
M  V30 9296 C 870.585 5.01399 -1.85751 0
M  V30 9297 C 871.885 3.74677 -3.63888 0
M  V30 9298 H 873.579 1.94478 -2.27637 0
M  V30 9299 H 871.125 0.934271 -1.09578 0
M  V30 9300 H 873.078 4.07151 -1.08656 0
M  V30 9301 H 871.802 3.26287 -0.142974 0
M  V30 9302 H 870.461 2.89883 -2.24418 0
M  V30 9303 H 870.109 4.9551 -0.864817 0
M  V30 9304 H 869.809 5.27355 -2.59173 0
M  V30 9305 H 871.333 5.82274 -1.83819 0
M  V30 9306 H 872.747 4.43324 -3.63506 0
M  V30 9307 H 871.144 4.12118 -4.3621 0
M  V30 9308 H 872.214 2.75795 -3.9883 0
M  V30 9309 N 873.557 1.20646 1.01402 0
M  V30 9310 C 874.804 1.01819 1.7504 0
M  V30 9311 C 875.132 -0.449386 1.89237 0
M  V30 9312 O 874.387 -1.34985 1.41695 0
M  V30 9313 C 874.686 1.64991 3.17037 0
M  V30 9314 C 874.352 3.14808 3.22811 0
M  V30 9315 C 873.014 3.55692 3.24094 0
M  V30 9316 C 875.366 4.108 3.2077 0
M  V30 9317 C 872.694 4.9109 3.2101 0
M  V30 9318 C 875.046 5.46147 3.19227 0
M  V30 9319 C 873.71 5.86441 3.18815 0
M  V30 9320 H 872.98 0.372582 0.640518 0
M  V30 9321 H 875.627 1.50108 1.18911 0
M  V30 9322 H 873.932 1.08971 3.76341 0
M  V30 9323 H 875.629 1.47937 3.72714 0
M  V30 9324 H 872.219 2.8224 3.2255 0
M  V30 9325 H 876.403 3.80246 3.18946 0
M  V30 9326 H 871.659 5.21569 3.19023 0
M  V30 9327 H 875.833 6.20272 3.166 0
M  V30 9328 H 873.46 6.91328 3.16179 0
M  V30 9329 N 875.035 -1.20752 1.01276 0
M  V30 9330 C 876.284 -1.8934 0.695229 0
M  V30 9331 C 876.597 -1.79459 -0.77806 0
M  V30 9332 O 877.803 -2.43146 -1.20799 0
M  V30 9333 C 876.259 -3.39548 1.1931 0
M  V30 9334 C 875.867 -3.58023 2.69302 0
M  V30 9335 C 877.611 -4.13714 0.950823 0
M  V30 9336 C 875.518 -5.02037 3.1259 0
M  V30 9337 H 874.448 -0.709084 0.25635 0
M  V30 9338 H 877.099 -1.36629 1.22494 0
M  V30 9339 H 875.481 -3.91559 0.591395 0
M  V30 9340 H 876.655 -3.16416 3.34989 0
M  V30 9341 H 874.97 -2.97222 2.9163 0
M  V30 9342 H 877.567 -5.19891 1.24971 0
M  V30 9343 H 877.91 -4.16147 -0.112791 0
M  V30 9344 H 878.443 -3.67792 1.51571 0
M  V30 9345 H 875.182 -5.04757 4.18211 0
M  V30 9346 H 874.702 -5.44469 2.51621 0
M  V30 9347 H 876.381 -5.70594 3.0501 0
M  V30 9348 N 876.513 -0.788492 -1.36457 0
M  V30 9349 C 877.738 -0.371224 -2.04051 0
M  V30 9350 C 878.163 1.004 -1.59064 0
M  V30 9351 O 877.521 1.64663 -0.758679 0
M  V30 9352 C 877.569 -0.442275 -3.57877 0
M  V30 9353 O 876.673 0.55113 -4.08701 0
M  V30 9354 H 876.014 -0.157808 -0.644975 0
M  V30 9355 H 878.544 -1.06935 -1.74431 0
M  V30 9356 H 878.554 -0.305548 -4.06854 0
M  V30 9357 H 877.229 -1.44547 -3.89973 0
M  V30 9358 H 875.806 0.37614 -3.70998 0
M  V30 9359 N 877.991 1.48044 -0.54043 0
M  V30 9360 C 879.237 2.02797 -0.0101718 0
M  V30 9361 C 879.57 1.41565 1.32939 0
M  V30 9362 O 878.845 0.565139 1.86109 0
M  V30 9363 C 879.128 3.59959 0.100758 0
M  V30 9364 C 878.981 4.31654 -1.26471 0
M  V30 9365 C 880.3 4.32347 0.822455 0
M  V30 9366 H 877.419 0.736982 -0.00517052 0
M  V30 9367 H 880.061 1.76656 -0.69948 0
M  V30 9368 H 878.211 3.82363 0.687824 0
M  V30 9369 H 879.883 4.20639 -1.89369 0
M  V30 9370 H 878.126 3.92663 -1.84386 0
M  V30 9371 H 878.797 5.401 -1.13998 0
M  V30 9372 H 881.273 4.14835 0.324164 0
M  V30 9373 H 880.149 5.41978 0.868993 0
M  V30 9374 H 880.41 4.00369 1.87501 0
M  V30 9375 N 879.47 0.276058 1.55163 0
M  V30 9376 C 880.695 -0.346648 2.04483 0
M  V30 9377 C 881.12 -1.48613 1.15308 0
M  V30 9378 O 880.478 -1.80663 0.151875 0
M  V30 9379 C 880.526 -0.804268 3.51517 0
M  V30 9380 O 879.63 -1.91143 3.65429 0
M  V30 9381 H 878.971 -0.0715251 0.660136 0
M  V30 9382 H 881.501 0.410631 2.00437 0
M  V30 9383 H 881.511 -1.09977 3.92898 0
M  V30 9384 H 880.186 0.0294123 4.1589 0
M  V30 9385 H 878.763 -1.61839 3.3595 0
M  V30 9386 N 880.948 -1.576 0.00335426 0
M  V30 9387 C 882.194 -1.90996 -0.681799 0
M  V30 9388 C 882.527 -0.877643 -1.73237 0
M  V30 9389 O 881.802 0.103183 -1.94226 0
M  V30 9390 C 882.085 -3.34961 -1.32187 0
M  V30 9391 C 881.938 -4.48911 -0.28261 0
M  V30 9392 C 883.257 -3.78408 -2.24711 0
M  V30 9393 H 880.376 -0.694596 -0.246386 0
M  V30 9394 H 883.018 -1.89919 0.055336 0
M  V30 9395 H 881.168 -3.36008 -1.95014 0
M  V30 9396 H 882.84 -4.59999 0.346241 0
M  V30 9397 H 881.083 -4.32 0.394768 0
M  V30 9398 H 881.754 -5.46609 -0.769576 0
M  V30 9399 H 884.23 -3.78934 -1.71897 0
M  V30 9400 H 883.106 -4.79885 -2.66461 0
M  V30 9401 H 883.367 -3.12464 -3.1276 0
M  V30 9402 N 882.426 0.269451 -1.5528 0
M  V30 9403 C 883.356 1.33729 -1.91413 0
M  V30 9404 C 884.337 1.51348 -0.776391 0
M  V30 9405 O 885.522 1.64332 -1.03482 0
M  V30 9406 C 882.652 2.69618 -2.18914 0
M  V30 9407 C 881.606 2.66725 -3.34726 0
M  V30 9408 C 880.932 4.06199 -3.47716 0
M  V30 9409 C 882.232 2.25684 -4.71025 0
M  V30 9410 H 883.926 1.03736 -2.80854 0
M  V30 9411 H 881.472 0.497579 -1.3513 0
M  V30 9412 H 883.425 3.44436 -2.42779 0
M  V30 9413 H 882.149 3.01201 -1.26275 0
M  V30 9414 H 880.808 1.94365 -3.10834 0
M  V30 9415 H 880.456 4.3501 -2.52537 0
M  V30 9416 H 880.156 4.05157 -4.25583 0
M  V30 9417 H 881.68 4.8275 -3.73877 0
M  V30 9418 H 883.094 2.90225 -4.94411 0
M  V30 9419 H 881.491 2.35797 -5.51833 0
M  V30 9420 H 882.561 1.20819 -4.69607 0
M  V30 9421 N 883.904 1.48273 0.534124 0
M  V30 9422 C 885.129 1.59988 1.31979 0
M  V30 9423 C 885.554 0.258824 1.86311 0
M  V30 9424 O 884.912 -0.768885 1.64188 0
M  V30 9425 C 884.96 2.64642 2.44943 0
M  V30 9426 O 884.064 2.21515 3.47858 0
M  V30 9427 H 883.405 0.536625 0.391063 0
M  V30 9428 H 885.935 1.94229 0.643135 0
M  V30 9429 H 885.945 2.85786 2.91187 0
M  V30 9430 H 884.62 3.62004 2.04758 0
M  V30 9431 H 883.197 2.10567 3.0776 0
M  V30 9432 N 885.382 -0.782676 1.36792 0
M  V30 9433 C 886.607 -1.57676 1.34733 0
M  V30 9434 C 887.032 -1.87979 -0.0675253 0
M  V30 9435 O 886.39 -1.48404 -1.04144 0
M  V30 9436 C 886.438 -2.87047 2.18257 0
M  V30 9437 O 885.542 -3.80946 1.57969 0
M  V30 9438 H 884.883 -0.478034 0.460846 0
M  V30 9439 H 887.413 -0.969578 1.80168 0
M  V30 9440 H 887.423 -3.36254 2.31079 0
M  V30 9441 H 886.098 -2.64319 3.21104 0
M  V30 9442 H 884.675 -3.39558 1.54126 0
M  V30 9443 N 886.86 -1.21182 -1.00761 0
M  V30 9444 C 887.79 -0.992773 -2.11344 0
M  V30 9445 C 888.771 0.0813618 -1.69905 0
M  V30 9446 O 889.956 -0.0779503 -1.94043 0
M  V30 9447 C 887.086 -0.553826 -3.42856 0
M  V30 9448 C 886.04 -1.57223 -3.98077 0
M  V30 9449 C 885.366 -0.989605 -5.25463 0
M  V30 9450 C 886.666 -2.95839 -4.30438 0
M  V30 9451 H 888.36 -1.91766 -2.29927 0
M  V30 9452 H 885.906 -0.923426 -1.10494 0
M  V30 9453 H 887.859 -0.387771 -4.19612 0
M  V30 9454 H 886.583 0.406702 -3.24058 0
M  V30 9455 H 885.242 -1.7258 -3.23437 0
M  V30 9456 H 884.89 -0.0208743 -5.02996 0
M  V30 9457 H 884.59 -1.66984 -5.63374 0
M  V30 9458 H 886.114 -0.834815 -6.04866 0
M  V30 9459 H 887.528 -2.8394 -4.98047 0
M  V30 9460 H 885.925 -3.60851 -4.79486 0
M  V30 9461 H 886.995 -3.46882 -3.38823 0
M  V30 9462 N 888.338 1.20213 -1.01915 0
M  V30 9463 C 889.586 1.89272 -0.708552 0
M  V30 9464 C 889.907 1.79394 0.76438 0
M  V30 9465 O 889.177 1.198 1.54999 0
M  V30 9466 H 887.757 0.700628 -0.259094 0
M  V30 9467 H 890.419 1.45985 -1.29129 0
M  V30 9468 H 889.515 2.95841 -0.994215 0
M  V30 9469 N 889.816 0.795718 1.36037 0
M  V30 9470 C 891.065 0.367575 1.98322 0
M  V30 9471 C 891.378 -1.06823 1.63854 0
M  V30 9472 O 892.584 -1.59895 2.19421 0
M  V30 9473 C 891.04 0.606272 3.54757 0
M  V30 9474 C 890.648 2.0539 3.98144 0
M  V30 9475 C 892.392 0.242947 4.23804 0
M  V30 9476 C 890.299 2.23893 5.47381 0
M  V30 9477 H 889.229 0.133699 0.742052 0
M  V30 9478 H 891.88 0.978242 1.5525 0
M  V30 9479 H 890.262 -0.0741957 3.9593 0
M  V30 9480 H 891.436 2.77129 3.68152 0
M  V30 9481 H 889.751 2.37607 3.41953 0
M  V30 9482 H 892.348 0.359382 5.33491 0
M  V30 9483 H 892.691 -0.809661 4.08351 0
M  V30 9484 H 893.224 0.876899 3.88015 0
M  V30 9485 H 889.963 3.27559 5.6779 0
M  V30 9486 H 889.483 1.56666 5.78978 0
M  V30 9487 H 891.162 2.04914 6.13693 0
M  V30 9488 N 891.294 -1.47756 0.548274 0
M  V30 9489 C 892.54 -2.02789 0.0209265 0
M  V30 9490 C 892.873 -1.42268 -1.32187 0
M  V30 9491 O 892.148 -0.575001 -1.85806 0
M  V30 9492 C 892.431 -3.60007 -0.0816674 0
M  V30 9493 C 892.284 -4.30977 1.28759 0
M  V30 9494 C 893.603 -4.32777 -0.799515 0
M  V30 9495 H 890.722 -0.736944 0.00907884 0
M  V30 9496 H 893.364 -1.76282 0.708839 0
M  V30 9497 H 891.514 -3.82722 -0.667537 0
M  V30 9498 H 893.186 -4.19629 1.91597 0
M  V30 9499 H 891.429 -3.9168 1.86466 0
M  V30 9500 H 892.1 -5.39488 1.16861 0
M  V30 9501 H 894.576 -4.15001 -0.30216 0
M  V30 9502 H 893.452 -5.42431 -0.840239 0
M  V30 9503 H 893.713 -4.01358 -1.85375 0
M  V30 9504 N 892.772 -0.284283 -1.55015 0
M  V30 9505 C 893.702 0.592663 -2.25853 0
M  V30 9506 C 894.683 1.15151 -1.25197 0
M  V30 9507 O 895.868 1.18395 -1.53936 0
M  V30 9508 C 892.998 1.77254 -2.98661 0
M  V30 9509 C 891.952 1.34482 -4.06323 0
M  V30 9510 C 891.278 2.60853 -4.66754 0
M  V30 9511 C 892.578 0.488288 -5.20013 0
M  V30 9512 H 894.272 0.00187041 -2.994 0
M  V30 9513 H 891.818 -0.000540402 -1.44 0
M  V30 9514 H 893.771 2.39199 -3.46932 0
M  V30 9515 H 892.495 2.38931 -2.22664 0
M  V30 9516 H 891.154 0.748519 -3.58877 0
M  V30 9517 H 890.802 3.20808 -3.87416 0
M  V30 9518 H 890.502 2.32942 -5.39455 0
M  V30 9519 H 892.026 3.23631 -5.1778 0
M  V30 9520 H 893.44 1.01298 -5.6428 0
M  V30 9521 H 891.837 0.303669 -5.99331 0
M  V30 9522 H 892.907 -0.490727 -4.8241 0
M  V30 9523 N 894.251 1.57596 -0.0117121 0
M  V30 9524 C 895.214 2.08089 0.960816 0
M  V30 9525 C 896.214 0.992519 1.26514 0
M  V30 9526 O 897.404 1.25475 1.20837 0
M  V30 9527 C 894.536 2.53217 2.28241 0
M  V30 9528 H 895.729 2.9529 0.523829 0
M  V30 9529 H 893.282 1.54508 0.235995 0
M  V30 9530 H 894.017 1.69294 2.76604 0
M  V30 9531 H 893.802 3.32714 2.0747 0
M  V30 9532 H 895.292 2.92568 2.97983 0
M  V30 9533 N 895.729 -0.261212 1.5542 0
M  V30 9534 C 896.975 -0.992699 1.76843 0
M  V30 9535 C 897.308 -1.8551 0.574428 0
M  V30 9536 O 896.583 -1.89739 -0.427713 0
M  V30 9537 C 896.866 -1.86532 3.08022 0
M  V30 9538 C 896.719 -1.03206 4.378 0
M  V30 9539 C 898.038 -2.85036 3.35324 0
M  V30 9540 H 895.157 -0.359473 0.643388 0
M  V30 9541 H 897.799 -0.264214 1.88154 0
M  V30 9542 H 895.949 -2.48644 2.9851 0
M  V30 9543 H 897.621 -0.430743 4.59285 0
M  V30 9544 H 895.864 -0.335911 4.32497 0
M  V30 9545 H 896.535 -1.6761 5.25938 0
M  V30 9546 H 899.011 -2.3306 3.44706 0
M  V30 9547 H 897.887 -3.43226 4.28354 0
M  V30 9548 H 898.148 -3.60768 2.55537 0
M  V30 9549 N 897.207 -1.48554 -0.526253 0
M  V30 9550 C 898.453 -1.56994 -1.28378 0
M  V30 9551 C 898.786 -0.244701 -1.92652 0
M  V30 9552 O 898.061 0.749636 -1.79473 0
M  V30 9553 C 898.344 -2.71092 -2.37026 0
M  V30 9554 C 898.197 -4.13331 -1.77418 0
M  V30 9555 C 899.516 -2.80934 -3.38769 0
M  V30 9556 H 896.635 -0.571466 -0.465398 0
M  V30 9557 H 899.277 -1.80742 -0.585861 0
M  V30 9558 H 897.427 -2.50973 -2.96555 0
M  V30 9559 H 899.099 -4.44899 -1.21912 0
M  V30 9560 H 897.342 -4.20158 -1.07936 0
M  V30 9561 H 898.013 -4.88994 -2.56104 0
M  V30 9562 H 900.489 -2.9917 -2.892 0
M  V30 9563 H 899.365 -3.62489 -4.12181 0
M  V30 9564 H 899.626 -1.89244 -3.99549 0
M  V30 9565 N 898.685 0.775411 -1.37205 0
M  V30 9566 C 899.925 1.54689 -1.33606 0
M  V30 9567 C 900.289 1.91834 0.0798549 0
M  V30 9568 O 901.49 2.67722 0.240531 0
M  V30 9569 C 899.761 2.7804 -2.24563 0
M  V30 9570 S 901.32 3.68143 -2.38781 0
M  V30 9571 H 898.138 0.529631 -0.474355 0
M  V30 9572 H 900.74 0.912128 -1.72918 0
M  V30 9573 H 899.444 2.48825 -3.26365 0
M  V30 9574 H 898.975 3.46479 -1.86322 0
M  V30 9575 H 900.99 4.69843 -1.59568 0
M  V30 9576 N 900.163 1.21714 1.00117 0
M  V30 9577 C 901.093 1.00397 2.10815 0
M  V30 9578 C 902.074 -0.0723502 1.69946 0
M  V30 9579 O 903.259 0.0882398 1.93999 0
M  V30 9580 C 900.389 0.572001 3.42557 0
M  V30 9581 C 899.343 1.59331 3.97237 0
M  V30 9582 C 898.669 1.01746 5.2493 0
M  V30 9583 C 899.969 2.98117 4.28863 0
M  V30 9584 H 901.663 1.92983 2.28906 0
M  V30 9585 H 899.209 0.929273 1.10002 0
M  V30 9586 H 901.162 0.410018 4.19401 0
M  V30 9587 H 899.886 -0.38951 3.24269 0
M  V30 9588 H 898.545 1.74293 3.22518 0
M  V30 9589 H 898.193 0.0475491 5.02978 0
M  V30 9590 H 897.893 1.69969 5.62481 0
M  V30 9591 H 899.417 0.866881 6.04415 0
M  V30 9592 H 900.831 2.86578 4.96534 0
M  V30 9593 H 899.228 3.63389 4.77565 0
M  V30 9594 H 900.298 3.48674 3.36979 0
M  V30 9595 N 901.641 -1.19671 1.02551 0
M  V30 9596 C 902.866 -1.93774 0.739363 0
M  V30 9597 C 903.291 -1.74787 -0.695064 0
M  V30 9598 O 902.649 -1.04796 -1.47944 0
M  V30 9599 C 902.697 -3.43684 1.09149 0
M  V30 9600 O 901.801 -4.11874 0.208213 0
M  V30 9601 H 901.142 -0.605064 0.273484 0
M  V30 9602 H 903.672 -1.51846 1.37128 0
M  V30 9603 H 903.682 -3.94339 1.04695 0
M  V30 9604 H 902.357 -3.56826 2.13654 0
M  V30 9605 H 900.934 -3.716 0.311045 0
M  V30 9606 N 903.119 -0.802921 -1.35613 0
M  V30 9607 C 904.366 -0.381576 -1.98872 0
M  V30 9608 C 904.694 1.0503 -1.63704 0
M  V30 9609 O 903.949 1.7427 -0.890418 0
M  V30 9610 C 904.248 -0.507806 -3.53774 0
M  V30 9611 C 903.914 -1.90245 -4.088 0
M  V30 9612 C 902.576 -2.28401 -4.2354 0
M  V30 9613 C 904.928 -2.81504 -4.3864 0
M  V30 9614 C 902.256 -3.57192 -4.65436 0
M  V30 9615 C 904.608 -4.09737 -4.81973 0
M  V30 9616 C 903.272 -4.47897 -4.94919 0
M  V30 9617 H 902.542 -0.139629 -0.727726 0
M  V30 9618 H 905.189 -1.023 -1.61886 0
M  V30 9619 H 903.494 0.21708 -3.91198 0
M  V30 9620 H 905.191 -0.162625 -4.0067 0
M  V30 9621 H 901.781 -1.596 -3.97776 0
M  V30 9622 H 905.965 -2.53276 -4.26808 0
M  V30 9623 H 901.221 -3.86611 -4.73648 0
M  V30 9624 H 905.395 -4.80555 -5.04024 0
M  V30 9625 H 903.022 -5.47747 -5.27141 0
M  V30 9626 N 904.597 1.47463 -0.556102 0
M  V30 9627 C 905.545 2.31692 0.205299 0
M  V30 9628 C 906.539 1.42857 0.910394 0
M  V30 9629 O 907.745 1.59628 0.831806 0
M  V30 9630 H 904.12 0.747172 0.0850775 0
M  V30 9631 H 906.091 2.93758 -0.524305 0
M  V30 9632 C 904.84 3.25487 1.22283 0
M  V30 9633 H 904.163 3.93806 0.689697 0
M  V30 9634 H 905.603 3.87257 1.7265 0
M  V30 9635 C 904.062 2.48931 2.27013 0
M  V30 9636 O 904.592 2.23296 3.33919 0
M  V30 9637 N 902.798 2.0996 2.00911 0
M  V30 9638 H 902.345 2.31008 1.13986 0
M  V30 9639 H 902.303 1.59053 2.712 0
M  V30 9640 N 906.075 0.2925 1.54862 0
M  V30 9641 C 907.324 -0.319994 1.99146 0
M  V30 9642 C 907.637 -1.55658 1.18448 0
M  V30 9643 O 908.843 -2.24312 1.52959 0
M  V30 9644 C 907.299 -0.620665 3.54508 0
M  V30 9645 C 906.907 0.597098 4.44003 0
M  V30 9646 C 908.651 -1.19482 4.07338 0
M  V30 9647 C 906.558 0.270049 5.90783 0
M  V30 9648 H 905.488 -0.123342 0.743843 0
M  V30 9649 H 908.139 0.399876 1.7909 0
M  V30 9650 H 906.521 -1.3999 3.7043 0
M  V30 9651 H 907.695 1.37354 4.39853 0
M  V30 9652 H 906.01 1.0893 4.019 0
M  V30 9653 H 908.607 -1.45362 5.14562 0
M  V30 9654 H 908.95 -2.13435 3.57423 0
M  V30 9655 H 909.483 -0.477485 3.94924 0
M  V30 9656 H 906.222 1.17791 6.4483 0
M  V30 9657 H 905.742 -0.469292 5.97961 0
M  V30 9658 H 907.421 -0.131471 6.46866 0
M  V30 9659 N 907.553 -1.57587 0.0200696 0
M  V30 9660 C 908.783 -1.95435 -0.669991 0
M  V30 9661 C 909.191 -0.894647 -1.66711 0
M  V30 9662 O 908.534 0.133009 -1.83218 0
M  V30 9663 C 908.596 -3.29379 -1.44047 0
M  V30 9664 C 908.26 -4.53008 -0.602691 0
M  V30 9665 C 909.257 -5.19766 0.118188 0
M  V30 9666 C 906.942 -4.99359 -0.542754 0
M  V30 9667 C 908.936 -6.31187 0.887774 0
M  V30 9668 C 906.623 -6.10665 0.230543 0
M  V30 9669 C 907.621 -6.76438 0.944522 0
M  V30 9670 O 907.309 -7.85608 1.70516 0
M  V30 9671 H 907.041 -0.648681 -0.190234 0
M  V30 9672 H 909.595 -2.05269 0.0733838 0
M  V30 9673 H 907.825 -3.1601 -2.22878 0
M  V30 9674 H 909.514 -3.52194 -2.01777 0
M  V30 9675 H 910.28 -4.84932 0.0811604 0
M  V30 9676 H 906.159 -4.47976 -1.08804 0
M  V30 9677 H 909.703 -6.82458 1.44558 0
M  V30 9678 H 905.6 -6.44938 0.26932 0
M  V30 9679 H 906.368 -8.02228 1.62398 0
M  V30 9680 N 909.032 0.252966 -1.55557 0
M  V30 9681 C 909.98 1.33289 -1.90622 0
M  V30 9682 C 910.974 1.50133 -0.784638 0
M  V30 9683 O 912.18 1.51679 -0.969196 0
M  V30 9684 H 908.555 0.446196 -0.605321 0
M  V30 9685 H 910.526 1.00977 -2.80796 0
M  V30 9686 C 909.275 2.68254 -2.21213 0
M  V30 9687 H 908.598 2.5609 -3.07014 0
M  V30 9688 H 910.038 3.42707 -2.49656 0
M  V30 9689 C 908.497 3.20884 -1.02642 0
M  V30 9690 O 909.027 4.00783 -0.271292 0
M  V30 9691 N 907.233 2.7883 -0.818682 0
M  V30 9692 H 906.78 2.13966 -1.43444 0
M  V30 9693 H 906.738 3.14388 -0.0269989 0
M  V30 9694 N 910.51 1.48831 0.518367 0
M  V30 9695 C 911.735 1.61379 1.30275 0
M  V30 9696 C 912.16 0.278571 1.86026 0
M  V30 9697 O 911.518 -0.751427 1.64995 0
M  V30 9698 C 911.566 2.67225 2.42122 0
M  V30 9699 O 910.67 2.25192 3.45489 0
M  V30 9700 H 910.011 0.540742 0.385349 0
M  V30 9701 H 912.541 1.949 0.622498 0
M  V30 9702 H 912.551 2.88859 2.8814 0
M  V30 9703 H 911.226 3.64155 2.00907 0
M  V30 9704 H 909.803 2.13819 3.05509 0
M  V30 9705 N 911.988 -0.768124 1.37614 0
M  V30 9706 C 912.938 -1.8718 1.30184 0
M  V30 9707 C 913.922 -1.59787 0.188943 0
M  V30 9708 O 915.114 -1.71855 0.423656 0
M  V30 9709 C 912.243 -3.24698 1.11471 0
M  V30 9710 C 911.329 -3.58031 2.27321 0
M  V30 9711 N 911.72 -3.6252 3.52722 0
M  V30 9712 C 910.018 -3.88216 2.19554 0
M  V30 9713 C 910.719 -3.92704 4.29137 0
M  V30 9714 N 909.695 -4.08789 3.58319 0
M  V30 9715 H 913.497 -1.88907 2.25147 0
M  V30 9716 H 911.011 -0.964753 1.30638 0
M  V30 9717 H 913.008 -4.0366 1.04233 0
M  V30 9718 H 911.668 -3.24232 0.174281 0
M  V30 9719 H 912.679 -3.44636 3.86583 0
M  V30 9720 H 909.356 -3.95551 1.33588 0
M  V30 9721 H 910.746 -4.02922 5.37683 0
M  V30 9722 N 913.466 -1.22244 -0.994698 0
M  V30 9723 C 914.712 -1.04746 -1.73655 0
M  V30 9724 C 915.045 0.41668 -1.89677 0
M  V30 9725 O 914.32 1.30897 -1.43862 0
M  V30 9726 C 914.603 -1.75716 -3.14318 0
M  V30 9727 C 914.456 -3.29714 -3.05955 0
M  V30 9728 C 915.775 -1.50809 -4.13455 0
M  V30 9729 H 912.894 -0.381921 -0.630322 0
M  V30 9730 H 915.536 -1.50559 -1.15897 0
M  V30 9731 H 913.686 -1.3677 -3.63629 0
M  V30 9732 H 915.358 -3.78093 -2.64279 0
M  V30 9733 H 913.601 -3.59484 -2.42804 0
M  V30 9734 H 914.272 -3.74547 -4.05485 0
M  V30 9735 H 916.748 -1.84636 -3.72892 0
M  V30 9736 H 915.624 -2.02964 -5.09997 0
M  V30 9737 H 915.885 -0.440292 -4.39902 0
M  V30 9738 N 914.944 1.19125 -1.03184 0
M  V30 9739 C 916.36 1.40909 -0.749447 0
M  V30 9740 C 916.56 1.9022 0.664729 0
M  V30 9741 O 915.616 2.08085 1.43028 0
M  V30 9742 C 916.929 2.41761 -1.78807 0
M  V30 9743 C 918.477 2.55503 -1.80796 0
M  V30 9744 C 918.952 3.59612 -2.83626 0
M  V30 9745 N 920.443 3.6711 -2.82461 0
M  V30 9746 C 921.178 4.47366 -3.5868 0
M  V30 9747 N 920.674 5.31302 -4.44623 0
M  V30 9748 N 922.467 4.42044 -3.47208 0
M  V30 9749 H 914.618 0.854399 -1.94458 0
M  V30 9750 H 916.881 0.437753 -0.840878 0
M  V30 9751 H 916.587 2.12559 -2.80199 0
M  V30 9752 H 916.461 3.40981 -1.61283 0
M  V30 9753 H 918.848 2.84027 -0.800803 0
M  V30 9754 H 918.929 1.56427 -2.02396 0
M  V30 9755 H 918.573 3.3183 -3.84515 0
M  V30 9756 H 918.503 4.58345 -2.59283 0
M  V30 9757 H 920.994 3.07166 -2.2013 0
M  V30 9758 H 921.307 5.89667 -4.99512 0
M  V30 9759 H 919.652 5.30753 -4.48694 0
M  V30 9760 H 922.843 3.75513 -2.79477 0
M  V30 9761 H 923.016 5.0435 -4.06859 0
M  V30 9762 N 916.422 0.810101 1.35185 0
M  V30 9763 C 917.652 0.404109 2.02609 0
M  V30 9764 C 918.06 -0.990748 1.61186 0
M  V30 9765 O 917.403 -1.65038 0.80674 0
M  V30 9766 C 917.465 0.412047 3.57131 0
M  V30 9767 C 917.129 1.75802 4.21832 0
M  V30 9768 C 918.126 2.71687 4.43263 0
M  V30 9769 C 915.811 2.04299 4.58876 0
M  V30 9770 C 917.805 3.9425 5.00845 0
M  V30 9771 C 915.492 3.27125 5.16171 0
M  V30 9772 C 916.49 4.21918 5.37098 0
M  V30 9773 O 916.178 5.42576 5.93184 0
M  V30 9774 H 915.91 0.161914 0.656323 0
M  V30 9775 H 918.464 1.09605 1.73712 0
M  V30 9776 H 916.694 -0.336509 3.85233 0
M  V30 9777 H 918.383 0.0278817 4.0589 0
M  V30 9778 H 919.149 2.50964 4.15021 0
M  V30 9779 H 915.028 1.31324 4.41899 0
M  V30 9780 H 918.572 4.68251 5.17094 0
M  V30 9781 H 914.469 3.47718 5.43841 0
M  V30 9782 H 915.237 5.43921 6.11631 0
M  V30 9783 N 917.9 -1.47166 0.563914 0
M  V30 9784 C 919.149 -2.0166 0.0401871 0
M  V30 9785 C 919.462 -1.44303 -1.32046 0
M  V30 9786 O 920.668 -1.905 -1.93448 0
M  V30 9787 C 919.124 -3.59894 0.0213257 0
M  V30 9788 C 918.732 -4.26244 1.37914 0
M  V30 9789 C 920.476 -4.22114 -0.449442 0
M  V30 9790 C 918.383 -5.76503 1.31902 0
M  V30 9791 H 917.313 -0.753916 0.0112534 0
M  V30 9792 H 919.964 -1.69091 0.712766 0
M  V30 9793 H 918.346 -3.89454 -0.717038 0
M  V30 9794 H 919.52 -4.08317 2.13574 0
M  V30 9795 H 917.835 -3.76039 1.78839 0
M  V30 9796 H 920.432 -5.32234 -0.51292 0
M  V30 9797 H 920.775 -3.89749 -1.46291 0
M  V30 9798 H 921.308 -3.9711 0.23427 0
M  V30 9799 H 918.047 -6.13498 2.3087 0
M  V30 9800 H 917.567 -5.96748 0.604324 0
M  V30 9801 H 919.246 -6.38846 1.02392 0
M  V30 9802 N 919.378 -0.300708 -1.54705 0
M  V30 9803 C 920.31 0.609179 -2.20956 0
M  V30 9804 C 921.323 1.09776 -1.20221 0
M  V30 9805 O 922.512 1.01527 -1.46815 0
M  V30 9806 C 919.612 1.84595 -2.84214 0
M  V30 9807 C 918.785 1.49991 -4.10879 0
M  V30 9808 C 917.844 2.5918 -4.57943 0
M  V30 9809 O 916.87 2.24285 -5.23149 0
M  V30 9810 N 918.072 3.89714 -4.30236 0
M  V30 9811 H 920.837 0.0420111 -2.99671 0
M  V30 9812 H 918.398 -0.122896 -1.61433 0
M  V30 9813 H 920.39 2.56988 -3.12633 0
M  V30 9814 H 918.96 2.32152 -2.09342 0
M  V30 9815 H 918.18 0.608637 -3.89473 0
M  V30 9816 H 919.468 1.24409 -4.93356 0
M  V30 9817 H 918.866 4.20874 -3.77997 0
M  V30 9818 H 917.423 4.58406 -4.63365 0
M  V30 9819 N 920.856 1.57574 -0.0284266 0
M  V30 9820 C 921.804 2.11332 0.971675 0
M  V30 9821 C 922.798 1.03974 1.33738 0
M  V30 9822 O 924.004 1.22409 1.31969 0
M  V30 9823 H 920.379 0.675174 0.331125 0
M  V30 9824 H 922.35 2.943 0.49296 0
M  V30 9825 C 921.099 2.65496 2.24516 0
M  V30 9826 H 920.422 3.47753 1.9725 0
M  V30 9827 H 921.862 3.06757 2.92705 0
M  V30 9828 C 920.321 1.58207 2.97443 0
M  V30 9829 O 920.851 0.981496 3.89525 0
M  V30 9830 N 919.057 1.30269 2.59766 0
M  V30 9831 H 918.604 1.79294 1.84963 0
M  V30 9832 H 918.562 0.587085 3.0887 0
M  V30 9833 N 922.334 -0.244713 1.55689 0
M  V30 9834 C 923.559 -0.994157 1.8202 0
M  V30 9835 C 923.984 -1.78079 0.60577 0
M  V30 9836 O 923.342 -1.75748 -0.445221 0
M  V30 9837 C 923.39 -1.90599 3.06111 0
M  V30 9838 O 922.494 -2.99804 2.8318 0
M  V30 9839 H 921.835 -0.282767 0.600782 0
M  V30 9840 H 924.365 -0.26504 2.02876 0
M  V30 9841 H 924.375 -2.32023 3.35603 0
M  V30 9842 H 923.05 -1.32763 3.9414 0
M  V30 9843 H 921.627 -2.62493 2.64862 0
M  V30 9844 N 923.813 -1.49104 -0.510467 0
M  V30 9845 C 924.745 -1.61183 -1.6295 0
M  V30 9846 C 925.758 -0.495003 -1.55092 0
M  V30 9847 O 926.947 -0.766671 -1.61197 0
M  V30 9848 C 924.047 -1.54373 -3.01699 0
M  V30 9849 C 923.22 -2.81428 -3.34838 0
M  V30 9850 C 922.279 -2.67802 -4.52956 0
M  V30 9851 O 921.305 -3.41723 -4.55208 0
M  V30 9852 N 922.507 -1.78715 -5.52305 0
M  V30 9853 H 925.272 -2.57693 -1.53018 0
M  V30 9854 H 922.833 -1.46073 -0.698152 0
M  V30 9855 H 924.825 -1.42924 -3.78622 0
M  V30 9856 H 923.395 -0.657597 -3.05605 0
M  V30 9857 H 922.615 -3.07299 -2.46903 0
M  V30 9858 H 923.903 -3.6568 -3.53773 0
M  V30 9859 H 923.301 -1.17897 -5.53278 0
M  V30 9860 H 921.858 -1.73194 -6.28369 0
M  V30 9861 N 925.291 0.760815 -1.38019 0
M  V30 9862 C 926.702 1.33773 -1.30237 0
M  V30 9863 C 927.053 1.96148 0.0451153 0
M  V30 9864 O 926.178 1.94574 0.9471 0
M  V30 9865 C 926.773 2.43227 -2.35851 0
M  V30 9866 C 925.332 2.96659 -2.31669 0
M  V30 9867 C 924.479 1.69972 -2.191 0
M  V30 9868 H 927.43 0.560237 -1.48482 0
M  V30 9869 H 927.451 3.22985 -2.01149 0
M  V30 9870 H 926.963 1.978 -3.33911 0
M  V30 9871 H 925.064 3.46433 -1.37167 0
M  V30 9872 H 925.177 3.51529 -3.25521 0
M  V30 9873 H 923.541 1.9332 -1.65829 0
M  V30 9874 H 924.324 1.26633 -3.19091 0
M  V30 9875 N 926.769 1.22769 0.988202 0
M  V30 9876 C 927.717 0.999271 2.10041 0
M  V30 9877 C 928.711 -0.0591767 1.69297 0
M  V30 9878 O 929.917 0.0936653 1.79756 0
M  V30 9879 H 926.292 0.30599 0.686931 0
M  V30 9880 H 928.263 1.94294 2.26478 0
M  V30 9881 C 927.012 0.59873 3.42506 0
M  V30 9882 H 926.335 1.40487 3.74304 0
M  V30 9883 H 927.775 0.478353 4.21293 0
M  V30 9884 C 926.234 -0.692216 3.29712 0
M  V30 9885 O 926.764 -1.74342 3.61895 0
M  V30 9886 N 924.97 -0.665163 2.82885 0
M  V30 9887 H 924.517 0.190604 2.56894 0
M  V30 9888 H 924.475 -1.52917 2.74706 0
M  V30 9889 N 928.247 -1.18576 1.03814 0
M  V30 9890 C 929.177 -2.24334 0.647795 0
M  V30 9891 C 930.158 -1.66508 -0.34774 0
M  V30 9892 O 931.343 -1.92852 -0.228401 0
M  V30 9893 C 928.473 -3.47299 0.00734922 0
M  V30 9894 C 927.427 -4.17859 0.926152 0
M  V30 9895 C 926.753 -5.34489 0.150317 0
M  V30 9896 C 928.053 -4.71632 2.24411 0
M  V30 9897 H 929.747 -2.57241 1.53191 0
M  V30 9898 H 927.293 -1.23649 0.738028 0
M  V30 9899 H 929.246 -4.20486 -0.277434 0
M  V30 9900 H 927.97 -3.13619 -0.911626 0
M  V30 9901 H 926.629 -3.46567 1.19528 0
M  V30 9902 H 926.277 -4.97056 -0.770985 0
M  V30 9903 H 925.977 -5.82633 0.762407 0
M  V30 9904 H 927.501 -6.10467 -0.127508 0
M  V30 9905 H 928.915 -5.36526 2.02021 0
M  V30 9906 H 927.312 -5.303 2.80894 0
M  V30 9907 H 928.382 -3.89192 2.89236 0
M  V30 9908 N 929.725 -0.817259 -1.34754 0
M  V30 9909 C 930.673 -0.223352 -2.31525 0
M  V30 9910 C 931.667 0.632785 -1.57137 0
M  V30 9911 O 932.873 0.524757 -1.72181 0
M  V30 9912 H 929.248 -0.0534765 -0.750096 0
M  V30 9913 H 931.219 -1.05446 -2.79148 0
M  V30 9914 C 929.968 0.604784 -3.424 0
M  V30 9915 H 929.291 -0.0446664 -3.99775 0
M  V30 9916 H 930.731 0.986543 -4.12363 0
M  V30 9917 C 929.19 1.77478 -2.86362 0
M  V30 9918 O 929.72 2.87273 -2.8078 0
M  V30 9919 N 927.926 1.58971 -2.43263 0
M  V30 9920 H 927.473 0.696598 -2.48003 0
M  V30 9921 H 927.431 2.37408 -2.06119 0
M  V30 9922 N 931.203 1.46865 -0.571711 0
M  V30 9923 C 932.151 2.31897 0.180714 0
M  V30 9924 C 933.145 1.43815 0.895191 0
M  V30 9925 O 934.351 1.60501 0.814828 0
M  V30 9926 H 930.726 0.748032 0.077148 0
M  V30 9927 H 932.697 2.93185 -0.555432 0
M  V30 9928 C 931.446 3.26766 1.18824 0
M  V30 9929 H 930.769 3.94515 0.64789 0
M  V30 9930 H 932.209 3.89067 1.68532 0
M  V30 9931 C 930.668 2.51325 2.2436 0
M  V30 9932 O 931.198 2.26825 3.31532 0
M  V30 9933 N 929.404 2.12079 1.98673 0
M  V30 9934 H 928.951 2.32204 1.1153 0
M  V30 9935 H 928.909 1.61921 2.69498 0
M  V30 9936 N 932.681 0.308908 1.54543 0
M  V30 9937 C 933.611 -0.556657 2.26768 0
M  V30 9938 C 934.592 -1.13145 1.27013 0
M  V30 9939 O 935.777 -1.15931 1.558 0
M  V30 9940 C 932.907 -1.72481 3.01443 0
M  V30 9941 C 931.861 -1.28001 4.08411 0
M  V30 9942 C 931.187 -2.53395 4.70845 0
M  V30 9943 C 932.487 -0.405497 5.20724 0
M  V30 9944 H 934.181 0.0457618 2.99365 0
M  V30 9945 H 931.727 0.0234495 1.43981 0
M  V30 9946 H 933.68 -2.3365 3.50693 0
M  V30 9947 H 932.404 -2.35359 2.26437 0
M  V30 9948 H 931.063 -0.69133 3.60022 0
M  V30 9949 H 930.711 -3.14604 3.92471 0
M  V30 9950 H 930.411 -2.2433 5.43093 0
M  V30 9951 H 931.935 -3.15352 5.22863 0
M  V30 9952 H 933.349 -0.923076 5.6582 0
M  V30 9953 H 931.746 -0.208282 5.99738 0
M  V30 9954 H 932.816 0.567412 4.81569 0
M  V30 9955 N 934.159 -1.57557 0.0367827 0
M  V30 9956 C 935.387 -1.96419 -0.650168 0
M  V30 9957 C 935.802 -0.913656 -1.6522 0
M  V30 9958 O 935.159 0.103718 -1.82205 0
M  V30 9959 C 935.21 -3.35355 -1.3498 0
M  V30 9960 O 934.931 -4.36379 -0.387905 0
M  V30 9961 C 936.432 -3.88892 -2.12786 0
M  V30 9962 H 933.652 -0.646751 -0.178756 0
M  V30 9963 H 936.196 -2.04261 0.0988197 0
M  V30 9964 H 934.351 -3.28708 -2.05012 0
M  V30 9965 H 934.765 -5.16969 -0.885596 0
M  V30 9966 H 936.239 -4.88428 -2.5718 0
M  V30 9967 H 936.716 -3.23547 -2.97008 0
M  V30 9968 H 937.322 -3.98831 -1.47694 0
M  V30 9969 N 935.637 0.236453 -1.55816 0
M  V30 9970 C 936.6 1.27633 -1.90375 0
M  V30 9971 C 937.6 1.40557 -0.781048 0
M  V30 9972 O 938.79 1.39078 -1.04895 0
M  V30 9973 C 935.922 2.65247 -2.14142 0
M  V30 9974 H 937.115 0.982019 -2.83366 0
M  V30 9975 H 934.668 0.476215 -1.48869 0
M  V30 9976 H 935.403 2.99801 -1.23653 0
M  V30 9977 H 935.188 2.57246 -2.95917 0
M  V30 9978 H 936.678 3.40313 -2.42026 0
M  V30 9979 N 937.115 1.49373 0.502552 0
M  V30 9980 C 938.361 1.59016 1.25864 0
M  V30 9981 C 938.694 0.27532 1.92238 0
M  V30 9982 O 937.969 -0.720988 1.80643 0
M  V30 9983 C 938.252 2.74828 2.32683 0
M  V30 9984 C 938.105 4.16102 1.7082 0
M  V30 9985 C 939.424 2.86288 3.34256 0
M  V30 9986 H 936.543 0.578798 0.456248 0
M  V30 9987 H 939.185 1.81651 0.557032 0
M  V30 9988 H 937.335 2.5566 2.92524 0
M  V30 9989 H 939.007 4.46782 1.14818 0
M  V30 9990 H 937.25 4.21822 1.01238 0
M  V30 9991 H 937.921 4.93006 2.48292 0
M  V30 9992 H 940.397 3.03733 2.84404 0
M  V30 9993 H 939.273 3.69001 4.06362 0
M  V30 9994 H 939.534 1.95576 3.96488 0
M  V30 9995 N 938.594 -0.753485 1.38421 0
M  V30 9996 C 939.842 -1.50962 1.34368 0
M  V30 9997 C 940.163 -1.94889 -0.0656895 0
M  V30 9998 O 939.433 -1.67652 -1.01339 0
M  V30 9999 H 938.013 -0.559967 0.494415 0
M  V30 10000 H 940.675 -0.895665 1.73101 0
M  V30 10001 H 939.771 -2.40048 1.99458 0
M  V30 10002 N 940.072 -1.23292 -0.981677 0
M  V30 10003 C 941.312 -1.07597 -1.73788 0
M  V30 10004 C 941.676 0.380762 -1.88187 0
M  V30 10005 O 942.877 0.658866 -2.606 0
M  V30 10006 C 941.148 -1.78008 -3.09916 0
M  V30 10007 S 942.707 -1.77868 -4.01134 0
M  V30 10008 H 939.525 -0.385092 -0.597683 0
M  V30 10009 H 942.127 -1.56408 -1.17289 0
M  V30 10010 H 940.831 -2.83139 -2.97087 0
M  V30 10011 H 940.362 -1.29473 -3.71484 0
M  V30 10012 H 942.377 -0.836368 -4.89101 0
M  V30 10013 N 941.55 1.18024 -1.04442 0
M  V30 10014 C 942.775 1.92573 -0.770097 0
M  V30 10015 C 943.2 1.75871 0.667169 0
M  V30 10016 O 942.558 1.07136 1.46258 0
M  V30 10017 C 942.606 3.41904 -1.14602 0
M  V30 10018 O 941.71 4.11491 -0.273712 0
M  V30 10019 H 941.051 0.600636 -0.283076 0
M  V30 10020 H 943.581 1.49645 -1.39526 0
M  V30 10021 H 943.591 3.92623 -1.10956 0
M  V30 10022 H 942.266 3.53382 -2.19304 0
M  V30 10023 H 940.843 3.71059 -0.370124 0
M  V30 10024 N 943.028 0.824394 1.34319 0
M  V30 10025 C 943.958 0.262077 2.32025 0
M  V30 10026 C 944.939 -0.622277 1.58309 0
M  V30 10027 O 946.124 -0.548848 1.86283 0
M  V30 10028 C 943.254 -0.57567 3.42496 0
M  V30 10029 C 942.208 0.21167 4.27476 0
M  V30 10030 C 941.534 -0.748913 5.29429 0
M  V30 10031 C 942.834 1.42068 5.02607 0
M  V30 10032 H 944.528 1.07842 2.79304 0
M  V30 10033 H 942.074 0.520022 1.34282 0
M  V30 10034 H 944.027 -0.979251 4.09864 0
M  V30 10035 H 942.751 -1.42508 2.93869 0
M  V30 10036 H 941.41 0.596636 3.61712 0
M  V30 10037 H 941.058 -1.59432 4.77064 0
M  V30 10038 H 940.758 -0.226313 5.87164 0
M  V30 10039 H 942.282 -1.15032 5.99667 0
M  V30 10040 H 943.696 1.09103 5.62823 0
M  V30 10041 H 942.093 1.87903 5.69923 0
M  V30 10042 H 943.163 2.1981 4.32217 0
M  V30 10043 N 944.506 -1.46559 0.579492 0
M  V30 10044 C 945.469 -2.28739 -0.145371 0
M  V30 10045 C 946.469 -1.38211 -0.821854 0
M  V30 10046 O 947.659 -1.6062 -0.674302 0
M  V30 10047 C 944.791 -3.18507 -1.21515 0
M  V30 10048 H 945.984 -2.94301 0.576786 0
M  V30 10049 H 943.537 -1.52616 0.337327 0
M  V30 10050 H 944.272 -2.57685 -1.96899 0
M  V30 10051 H 944.057 -3.85157 -0.734616 0
M  V30 10052 H 945.547 -3.80369 -1.72363 0
M  V30 10053 N 945.984 -0.3171 -1.54377 0
M  V30 10054 C 946.914 0.544623 -2.2706 0
M  V30 10055 C 947.895 1.12469 -1.27611 0
M  V30 10056 O 949.08 1.15103 -1.56413 0
M  V30 10057 C 946.21 1.70879 -3.02353 0
M  V30 10058 C 945.164 1.25833 -4.09084 0
M  V30 10059 C 944.49 2.50894 -4.72182 0
M  V30 10060 C 945.79 0.377876 -5.20931 0
M  V30 10061 H 947.484 -0.0616372 -2.99337 0
M  V30 10062 H 945.03 -0.0310848 -1.43966 0
M  V30 10063 H 946.983 2.31787 -3.51927 0
M  V30 10064 H 945.707 2.34155 -2.27682 0
M  V30 10065 H 944.366 0.672228 -3.60384 0
M  V30 10066 H 944.014 3.12518 -3.94134 0
M  V30 10067 H 943.714 2.21447 -5.44275 0
M  V30 10068 H 945.238 3.12575 -5.24528 0
M  V30 10069 H 946.652 0.893056 -5.66302 0
M  V30 10070 H 945.049 0.176474 -5.9984 0
M  V30 10071 H 946.119 -0.592943 -4.81261 0
M  V30 10072 N 947.462 1.57535 -0.0451378 0
M  V30 10073 C 948.425 2.1008 0.916461 0
M  V30 10074 C 949.425 1.01913 1.2438 0
M  V30 10075 O 950.615 1.2801 1.18148 0
M  V30 10076 C 947.747 2.58001 2.22818 0
M  V30 10077 H 948.94 2.96334 0.461076 0
M  V30 10078 H 946.493 1.54974 0.203169 0
M  V30 10079 H 947.228 1.75123 2.72951 0
M  V30 10080 H 947.013 3.3704 2.00366 0
M  V30 10081 H 948.503 2.98822 2.9171 0
M  V30 10082 N 948.94 -0.228186 1.55939 0
M  V30 10083 C 949.903 -1.26621 1.91049 0
M  V30 10084 C 950.903 -1.40141 0.788491 0
M  V30 10085 O 952.093 -1.3852 1.05631 0
M  V30 10086 C 949.225 -2.64108 2.15545 0
M  V30 10087 H 950.418 -0.966978 2.83883 0
M  V30 10088 H 947.971 -0.468313 1.49119 0
M  V30 10089 H 948.706 -2.99141 1.25241 0
M  V30 10090 H 948.491 -2.55673 2.97277 0
M  V30 10091 H 949.981 -3.39025 2.43827 0
M  V30 10092 N 950.418 -1.49637 -0.494624 0
M  V30 10093 C 951.664 -1.59681 -1.25019 0
M  V30 10094 C 951.997 -0.285511 -1.9209 0
M  V30 10095 O 951.272 0.711398 -1.81023 0
M  V30 10096 C 951.555 -2.76058 -2.31222 0
M  V30 10097 C 951.408 -4.17002 -1.68611 0
M  V30 10098 C 952.727 -2.88056 -3.32734 0
M  V30 10099 H 949.846 -0.581209 -0.453172 0
M  V30 10100 H 952.488 -1.81944 -0.547391 0
M  V30 10101 H 950.638 -2.57207 -2.91164 0
M  V30 10102 H 952.31 -4.47385 -1.12447 0
M  V30 10103 H 950.553 -4.22352 -0.989991 0
M  V30 10104 H 951.224 -4.94316 -2.45674 0
M  V30 10105 H 953.7 -3.05237 -2.82789 0
M  V30 10106 H 952.576 -3.71151 -4.04399 0
M  V30 10107 H 952.837 -1.97676 -3.95445 0
M  V30 10108 N 951.896 0.746133 -1.38819 0
M  V30 10109 C 953.143 1.50545 -1.35434 0
M  V30 10110 C 953.471 1.94427 0.0532669 0
M  V30 10111 O 952.726 1.66285 1.03188 0
M  V30 10112 C 953.025 2.76639 -2.26286 0
M  V30 10113 C 952.691 2.51682 -3.74122 0
M  V30 10114 C 951.353 2.44584 -4.14406 0
M  V30 10115 C 953.705 2.30071 -4.67672 0
M  V30 10116 C 951.033 2.13902 -5.46318 0
M  V30 10117 C 953.385 2.00907 -5.99849 0
M  V30 10118 C 952.049 1.92271 -6.39209 0
M  V30 10119 H 951.319 0.550883 -0.49559 0
M  V30 10120 H 953.966 0.857337 -1.71237 0
M  V30 10121 H 952.271 3.46138 -1.83564 0
M  V30 10122 H 953.968 3.34626 -2.20967 0
M  V30 10123 H 950.558 2.5808 -3.42188 0
M  V30 10124 H 954.742 2.34528 -4.3739 0
M  V30 10125 H 949.998 2.0573 -5.75748 0
M  V30 10126 H 954.172 1.83191 -6.71874 0
M  V30 10127 H 951.799 1.68261 -7.41345 0
M  V30 10128 N 953.375 1.23811 0.975125 0
M  V30 10129 C 954.786 1.0675 1.53171 0
M  V30 10130 C 955.137 -0.363475 1.92804 0
M  V30 10131 O 954.262 -1.25089 1.76583 0
M  V30 10132 C 954.857 1.93161 2.78342 0
M  V30 10133 C 953.416 1.80346 3.30382 0
M  V30 10134 C 952.563 1.88544 2.03338 0
M  V30 10135 H 955.514 1.37396 0.79423 0
M  V30 10136 H 955.535 1.45951 3.51395 0
M  V30 10137 H 955.047 2.97302 2.49465 0
M  V30 10138 H 953.148 0.790077 3.64127 0
M  V30 10139 H 953.261 2.64026 3.99784 0
M  V30 10140 H 951.625 1.32186 2.17713 0
M  V30 10141 H 952.408 2.94252 1.76836 0
M  V30 10142 N 954.853 -1.17469 1.05066 0
M  V30 10143 C 955.783 -2.23635 0.671552 0
M  V30 10144 C 956.764 -1.66867 -0.33006 0
M  V30 10145 O 957.949 -1.93084 -0.207933 0
M  V30 10146 C 955.079 -3.47272 0.0441845 0
M  V30 10147 C 954.033 -4.16854 0.97042 0
M  V30 10148 C 953.359 -5.34299 0.206998 0
M  V30 10149 C 954.659 -4.69225 2.29401 0
M  V30 10150 H 956.353 -2.55602 1.55911 0
M  V30 10151 H 953.899 -1.2286 0.751101 0
M  V30 10152 H 955.852 -4.20756 -0.23282 0
M  V30 10153 H 954.576 -3.14568 -0.878311 0
M  V30 10154 H 953.235 -3.4528 1.23197 0
M  V30 10155 H 952.883 -4.97846 -0.718222 0
M  V30 10156 H 952.583 -5.81792 0.82416 0
M  V30 10157 H 954.107 -6.10568 -0.0627525 0
M  V30 10158 H 955.521 -5.34353 2.077 0
M  V30 10159 H 953.918 -5.27291 2.86503 0
M  V30 10160 H 954.988 -3.86102 2.93348 0
M  V30 10161 N 956.331 -0.831506 -1.3388 0
M  V30 10162 C 957.579 -0.422837 -1.97627 0
M  V30 10163 C 957.9 1.01961 -1.6622 0
M  V30 10164 O 957.17 1.70916 -0.957323 0
M  V30 10165 H 955.75 -0.153365 -0.731087 0
M  V30 10166 H 958.412 -1.06284 -1.6337 0
M  V30 10167 H 957.508 -0.548858 -3.07236 0
M  V30 10168 N 957.809 1.4625 -0.587256 0
M  V30 10169 C 958.739 2.33132 0.131076 0
M  V30 10170 C 959.72 1.45619 0.879158 0
M  V30 10171 O 960.905 1.74428 0.853723 0
M  V30 10172 C 958.035 3.27975 1.14236 0
M  V30 10173 C 956.989 4.24965 0.508819 0
M  V30 10174 C 956.315 5.09349 1.62689 0
M  V30 10175 C 957.615 5.19322 -0.55694 0
M  V30 10176 H 959.309 2.93442 -0.594333 0
M  V30 10177 H 956.855 1.41106 -0.287263 0
M  V30 10178 H 958.808 3.87614 1.65328 0
M  V30 10179 H 957.532 2.65781 1.8981 0
M  V30 10180 H 956.191 3.66595 0.0189337 0
M  V30 10181 H 955.839 4.43537 2.37242 0
M  V30 10182 H 955.539 5.75036 1.20861 0
M  V30 10183 H 957.063 5.71852 2.14049 0
M  V30 10184 H 958.477 5.73151 -0.130903 0
M  V30 10185 H 956.874 5.93376 -0.895801 0
M  V30 10186 H 957.944 4.62979 -1.44148 0
M  V30 10187 N 959.287 0.325282 1.54207 0
M  V30 10188 C 960.564 -0.33113 1.92777 0
M  V30 10189 C 960.944 -1.69739 1.25506 0
M  V30 10190 O 960.292 -2.24983 0.399385 0
M  V30 10191 C 960.502 -0.421636 3.46444 0
M  V30 10192 C 961.85 -0.681111 4.19101 0
M  V30 10193 O 962.874 -0.504488 3.52609 0
M  V30 10194 O 961.733 -1.02196 5.3686 0
M  V30 10195 H 958.827 -0.18943 0.805013 0
M  V30 10196 H 961.373 0.375123 1.65502 0
M  V30 10197 H 960.145 0.537862 3.87586 0
M  V30 10198 H 959.768 -1.1754 3.79829 0
M  V30 10199 N 960.765 -1.57509 0.0534917 0
M  V30 10200 C 962.013 -1.92402 -0.618548 0
M  V30 10201 C 962.334 -0.93273 -1.71246 0
M  V30 10202 O 961.604 0.0220495 -1.95888 0
M  V30 10203 H 960.184 -0.710233 -0.23147 0
M  V30 10204 H 962.846 -1.94606 0.10704 0
M  V30 10205 H 961.942 -2.93704 -1.05566 0
M  V30 10206 N 962.243 0.219913 -1.56058 0
M  V30 10207 C 963.473 0.959521 -1.82967 0
M  V30 10208 C 963.881 1.78382 -0.630602 0
M  V30 10209 O 963.224 1.79062 0.410203 0
M  V30 10210 C 963.286 1.92481 -3.0363 0
M  V30 10211 C 962.95 1.28487 -4.38566 0
M  V30 10212 C 963.947 0.673946 -5.15513 0
M  V30 10213 C 961.632 1.29615 -4.85289 0
M  V30 10214 C 963.626 0.0828324 -6.37346 0
M  V30 10215 C 961.313 0.701191 -6.07064 0
M  V30 10216 C 962.311 0.0955877 -6.82933 0
M  V30 10217 O 961.999 -0.490109 -8.02405 0
M  V30 10218 H 961.731 0.286709 -0.612188 0
M  V30 10219 H 964.285 0.239761 -2.03996 0
M  V30 10220 H 962.515 2.6836 -2.78424 0
M  V30 10221 H 964.204 2.5301 -3.17397 0
M  V30 10222 H 964.97 0.657548 -4.80522 0
M  V30 10223 H 960.849 1.75691 -4.26208 0
M  V30 10224 H 964.393 -0.390482 -6.96506 0
M  V30 10225 H 960.29 0.715007 -6.41528 0
M  V30 10226 H 961.058 -0.384588 -8.17596 0
M  V30 10227 N 963.721 1.49897 0.486681 0
M  V30 10228 C 964.671 1.6401 1.58381 0
M  V30 10229 C 965.655 0.495215 1.5309 0
M  V30 10230 O 966.847 0.748876 1.60377 0
M  V30 10231 C 963.976 1.72321 2.96918 0
M  V30 10232 C 963.062 2.92435 3.07152 0
M  V30 10233 N 963.453 4.16326 2.87238 0
M  V30 10234 C 961.751 2.90669 3.38271 0
M  V30 10235 C 962.452 4.97144 3.02031 0
M  V30 10236 N 961.428 4.3079 3.31544 0
M  V30 10237 H 965.23 2.57506 1.41661 0
M  V30 10238 H 962.744 1.46867 0.693106 0
M  V30 10239 H 964.741 1.80532 3.75784 0
M  V30 10240 H 963.401 0.799724 3.14697 0
M  V30 10241 H 964.412 4.46076 2.63128 0
M  V30 10242 H 961.089 2.07758 3.62137 0
M  V30 10243 H 962.479 6.05611 2.91006 0
M  V30 10244 N 965.199 -0.738761 1.39212 0
M  V30 10245 C 966.448 -1.49368 1.35543 0
M  V30 10246 C 966.761 -1.95543 -0.0471091 0
M  V30 10247 O 967.967 -2.70714 -0.206376 0
M  V30 10248 C 966.423 -2.69882 2.381 0
M  V30 10249 C 966.031 -2.30672 3.8405 0
M  V30 10250 C 967.775 -3.47718 2.435 0
M  V30 10251 C 965.682 -3.47886 4.78256 0
M  V30 10252 H 964.612 -0.560898 0.503894 0
M  V30 10253 H 967.263 -0.806221 1.6484 0
M  V30 10254 H 965.645 -3.40684 2.01867 0
M  V30 10255 H 966.819 -1.67441 4.29302 0
M  V30 10256 H 965.134 -1.65936 3.81909 0
M  V30 10257 H 967.731 -4.34897 3.11077 0
M  V30 10258 H 968.074 -3.89919 1.45838 0
M  V30 10259 H 968.607 -2.83942 2.78606 0
M  V30 10260 H 965.346 -3.10739 5.77167 0
M  V30 10261 H 964.866 -4.10111 4.37686 0
M  V30 10262 H 966.545 -4.14271 4.96979 0
M  V30 10263 N 966.677 -1.24326 -0.968545 0
M  V30 10264 C 967.925 -1.08032 -1.70803 0
M  V30 10265 C 968.246 0.381728 -1.91227 0
M  V30 10266 O 967.516 1.27253 -1.48942 0
M  V30 10267 H 966.096 -0.396777 -0.632912 0
M  V30 10268 H 968.758 -1.56232 -1.16523 0
M  V30 10269 H 967.854 -1.57769 -2.69287 0
M  V30 10270 N 968.156 1.1691 -1.05688 0
M  V30 10271 C 969.572 1.39288 -0.779167 0
M  V30 10272 C 969.772 1.91587 0.624231 0
M  V30 10273 O 968.828 2.11072 1.38582 0
M  V30 10274 C 970.141 2.37914 -1.83895 0
M  V30 10275 C 971.689 2.51611 -1.86175 0
M  V30 10276 C 972.164 3.53514 -2.9119 0
M  V30 10277 N 973.655 3.61036 -2.90184 0
M  V30 10278 C 974.39 4.39657 -3.68088 0
M  V30 10279 N 973.886 5.21752 -4.55793 0
M  V30 10280 N 975.679 4.3458 -3.56507 0
M  V30 10281 H 967.83 0.81296 -1.96226 0
M  V30 10282 H 970.093 0.419818 -0.849975 0
M  V30 10283 H 969.799 2.06568 -2.84645 0
M  V30 10284 H 969.673 3.37483 -1.68479 0
M  V30 10285 H 972.06 2.82264 -0.86087 0
M  V30 10286 H 972.141 1.52099 -2.05668 0
M  V30 10287 H 971.785 3.23599 -3.91467 0
M  V30 10288 H 971.715 4.52742 -2.68947 0
M  V30 10289 H 974.206 3.02428 -2.26596 0
M  V30 10290 H 974.519 5.78939 -5.11907 0
M  V30 10291 H 972.864 5.21116 -4.59851 0
M  V30 10292 H 976.055 3.69501 -2.87379 0
M  V30 10293 H 976.228 4.95607 -4.17466 0
M  V30 10294 N 969.634 0.838594 1.33437 0
M  V30 10295 C 970.582 0.260158 2.31141 0
M  V30 10296 C 971.576 -0.607706 1.58124 0
M  V30 10297 O 972.782 -0.497298 1.72994 0
M  V30 10298 H 969.157 0.0654031 0.74915 0
M  V30 10299 H 971.128 1.09874 2.77435 0
M  V30 10300 C 969.877 -0.550234 3.43319 0
M  V30 10301 H 969.2 0.108262 3.99653 0
M  V30 10302 H 970.64 -0.920815 4.1388 0
M  V30 10303 C 969.099 -1.729 2.89149 0
M  V30 10304 O 969.629 -2.82769 2.85315 0
M  V30 10305 N 967.835 -1.5508 2.45761 0
M  V30 10306 H 967.382 -0.657055 2.49079 0
M  V30 10307 H 967.34 -2.34099 2.0987 0
M  V30 10308 N 971.112 -1.45937 0.595003 0
M  V30 10309 C 972.044 -2.28575 -0.169137 0
M  V30 10310 C 973.057 -1.39226 -0.843792 0
M  V30 10311 O 974.246 -1.63716 -0.711291 0
M  V30 10312 C 971.346 -3.14616 -1.25976 0
M  V30 10313 C 970.519 -4.32166 -0.67466 0
M  V30 10314 C 969.578 -4.99511 -1.65456 0
M  V30 10315 O 968.604 -5.56712 -1.18578 0
M  V30 10316 N 969.806 -4.97643 -2.98885 0
M  V30 10317 H 972.571 -2.94797 0.539908 0
M  V30 10318 H 970.132 -1.55985 0.433614 0
M  V30 10319 H 972.124 -3.56534 -1.91483 0
M  V30 10320 H 970.694 -2.50387 -1.8715 0
M  V30 10321 H 969.914 -3.93882 0.158184 0
M  V30 10322 H 971.202 -5.08116 -0.263753 0
M  V30 10323 H 970.6 -4.52438 -3.39583 0
M  V30 10324 H 969.157 -5.43463 -3.59848 0
M  V30 10325 N 972.59 -0.333456 -1.54032 0
M  V30 10326 C 973.837 0.266133 -2.00744 0
M  V30 10327 C 974.165 1.51361 -1.22148 0
M  V30 10328 O 973.42 1.93473 -0.294368 0
M  V30 10329 C 973.719 0.63565 -3.51702 0
M  V30 10330 C 973.385 -0.513786 -4.47963 0
M  V30 10331 C 972.047 -0.829253 -4.74001 0
M  V30 10332 C 974.399 -1.2854 -5.05101 0
M  V30 10333 C 971.727 -1.91888 -5.54433 0
M  V30 10334 C 974.079 -2.3652 -5.86721 0
M  V30 10335 C 972.743 -2.68637 -6.11057 0
M  V30 10336 H 972.013 0.097385 -0.734573 0
M  V30 10337 H 974.66 -0.459282 -1.85911 0
M  V30 10338 H 972.965 1.44163 -3.64313 0
M  V30 10339 H 974.662 1.11129 -3.85294 0
M  V30 10340 H 971.252 -0.25784 -4.27824 0
M  V30 10341 H 975.436 -1.05494 -4.84958 0
M  V30 10342 H 970.692 -2.17208 -5.71516 0
M  V30 10343 H 974.866 -2.96747 -6.30011 0
M  V30 10344 H 972.493 -3.53197 -6.73169 0
M  V30 10345 N 974.068 1.57479 -0.061844 0
M  V30 10346 C 975.479 1.80627 0.472295 0
M  V30 10347 C 975.83 0.97496 1.70261 0
M  V30 10348 O 974.955 0.1946 2.15523 0
M  V30 10349 C 975.55 3.27608 0.863616 0
M  V30 10350 C 974.109 3.51638 1.34267 0
M  V30 10351 C 973.256 2.75412 0.323009 0
M  V30 10352 H 976.207 1.56072 -0.287634 0
M  V30 10353 H 976.228 3.39113 1.72577 0
M  V30 10354 H 975.74 3.88087 -0.0320226 0
M  V30 10355 H 973.841 2.96452 2.25714 0
M  V30 10356 H 973.954 4.60342 1.32747 0
M  V30 10357 H 972.318 2.4187 0.798175 0
M  V30 10358 H 973.101 3.38623 -0.564729 0
M  V30 10359 N 975.546 -0.211634 1.56173 0
M  V30 10360 C 976.793 -0.93455 1.79645 0
M  V30 10361 C 977.121 -1.83936 0.632294 0
M  V30 10362 O 976.376 -1.91919 -0.382841 0
M  V30 10363 C 976.675 -1.79657 3.08963 0
M  V30 10364 C 976.341 -1.04415 4.38644 0
M  V30 10365 C 975.003 -0.836351 4.73876 0
M  V30 10366 C 977.355 -0.51355 5.18664 0
M  V30 10367 C 974.683 -0.0861976 5.86637 0
M  V30 10368 C 977.035 0.223309 6.32206 0
M  V30 10369 C 975.699 0.442279 6.66033 0
M  V30 10370 H 974.969 -0.341976 0.657368 0
M  V30 10371 H 977.616 -0.202024 1.90431 0
M  V30 10372 H 975.921 -2.59726 2.93342 0
M  V30 10373 H 977.618 -2.35823 3.24328 0
M  V30 10374 H 974.208 -1.21611 4.10985 0
M  V30 10375 H 978.392 -0.661541 4.91871 0
M  V30 10376 H 973.648 0.0935866 6.11328 0
M  V30 10377 H 977.822 0.641917 6.93435 0
M  V30 10378 H 975.449 1.02547 7.53252 0
M  V30 10379 N 977.024 -1.50153 -0.478725 0
M  V30 10380 C 978.27 -1.60998 -1.23318 0
M  V30 10381 C 978.603 -0.305868 -1.91776 0
M  V30 10382 O 977.878 0.692158 -1.81767 0
M  V30 10383 C 978.161 -2.78495 -2.28282 0
M  V30 10384 C 978.014 -4.18767 -1.64178 0
M  V30 10385 C 979.333 -2.91569 -3.2966 0
M  V30 10386 H 976.452 -0.585983 -0.446982 0
M  V30 10387 H 979.094 -1.82514 -0.528063 0
M  V30 10388 H 977.244 -2.60281 -2.8842 0
M  V30 10389 H 978.916 -4.48552 -1.07696 0
M  V30 10390 H 977.159 -4.23379 -0.94514 0
M  V30 10391 H 977.83 -4.96894 -2.40417 0
M  V30 10392 H 980.306 -3.08219 -2.79536 0
M  V30 10393 H 979.182 -3.75419 -4.0044 0
M  V30 10394 H 979.443 -2.01859 -3.93326 0
M  V30 10395 N 978.502 0.731368 -1.39602 0
M  V30 10396 C 979.742 1.5036 -1.3846 0
M  V30 10397 C 980.106 1.91991 0.018784 0
M  V30 10398 O 981.307 2.68351 0.155236 0
M  V30 10399 C 979.578 2.70755 -2.33295 0
M  V30 10400 S 981.137 3.6036 -2.50372 0
M  V30 10401 H 977.955 0.514271 -0.490964 0
M  V30 10402 H 980.557 0.856654 -1.75732 0
M  V30 10403 H 979.261 2.38316 -3.34116 0
M  V30 10404 H 978.792 3.40376 -1.97251 0
M  V30 10405 H 980.807 4.64529 -1.74435 0
M  V30 10406 N 979.98 1.24838 0.961938 0
M  V30 10407 C 980.912 1.00369 2.06055 0
M  V30 10408 C 981.925 -0.0288583 1.62774 0
M  V30 10409 O 983.114 0.208853 1.77274 0
M  V30 10410 C 980.214 0.493953 3.35281 0
M  V30 10411 C 979.387 1.59097 4.07439 0
M  V30 10412 C 978.446 1.08288 5.14937 0
M  V30 10413 O 977.472 1.77577 5.40791 0
M  V30 10414 N 978.674 -0.0796836 5.80445 0
M  V30 10415 H 981.439 1.94962 2.27618 0
M  V30 10416 H 979 1.15945 1.12997 0
M  V30 10417 H 980.992 0.138675 4.04462 0
M  V30 10418 H 979.562 -0.357851 3.10545 0
M  V30 10419 H 978.782 2.11817 3.32456 0
M  V30 10420 H 980.07 2.32817 4.52409 0
M  V30 10421 H 979.468 -0.658827 5.6185 0
M  V30 10422 H 978.025 -0.376057 6.50714 0
M  V30 10423 N 981.458 -1.16348 1.06306 0
M  V30 10424 C 982.421 -2.18941 0.678053 0
M  V30 10425 C 983.421 -1.58409 -0.276277 0
M  V30 10426 O 984.611 -1.74101 -0.0586435 0
M  V30 10427 C 981.743 -3.409 -0.00228684 0
M  V30 10428 H 982.936 -2.54516 1.58624 0
M  V30 10429 H 980.489 -1.30625 0.858298 0
M  V30 10430 H 981.224 -3.10881 -0.923212 0
M  V30 10431 H 981.009 -3.86089 0.683949 0
M  V30 10432 H 982.499 -4.16806 -0.257374 0
M  V30 10433 N 982.937 -0.845659 -1.3299 0
M  V30 10434 C 984.353 -0.53433 -1.5039 0
M  V30 10435 C 984.553 0.936939 -1.78392 0
M  V30 10436 O 983.609 1.72043 -1.84818 0
M  V30 10437 C 984.922 -1.41354 -2.65404 0
M  V30 10438 C 986.47 -1.41303 -2.79289 0
M  V30 10439 C 986.945 -2.27724 -3.97373 0
M  V30 10440 N 988.436 -2.25471 -4.0462 0
M  V30 10441 C 989.171 -2.89074 -4.95201 0
M  V30 10442 N 988.667 -3.61755 -5.90851 0
M  V30 10443 N 990.46 -2.78508 -4.88251 0
M  V30 10444 H 982.611 -1.79798 -1.13078 0
M  V30 10445 H 984.874 -0.767454 -0.556524 0
M  V30 10446 H 984.58 -2.45936 -2.51413 0
M  V30 10447 H 984.454 -1.09445 -3.60973 0
M  V30 10448 H 986.841 -0.374899 -2.92709 0
M  V30 10449 H 986.922 -1.77222 -1.84461 0
M  V30 10450 H 986.566 -3.316 -3.84713 0
M  V30 10451 H 986.496 -1.89142 -4.9146 0
M  V30 10452 H 988.987 -1.72622 -3.3617 0
M  V30 10453 H 989.3 -4.07475 -6.56646 0
M  V30 10454 H 987.645 -3.65863 -5.90906 0
M  V30 10455 H 990.836 -2.21285 -4.12493 0
M  V30 10456 H 991.009 -3.2836 -5.58645 0
M  V30 10457 N 984.415 1.45619 -0.602734 0
M  V30 10458 C 985.345 2.33258 0.106342 0
M  V30 10459 C 986.326 1.46543 0.863664 0
M  V30 10460 O 987.511 1.75324 0.835175 0
M  V30 10461 C 984.641 3.29168 1.10751 0
M  V30 10462 C 983.595 4.25481 0.463717 0
M  V30 10463 C 982.921 5.11046 1.57278 0
M  V30 10464 C 984.221 5.18702 -0.61199 0
M  V30 10465 H 985.915 2.92795 -0.625423 0
M  V30 10466 H 983.461 1.40793 -0.302213 0
M  V30 10467 H 985.414 3.89346 1.61208 0
M  V30 10468 H 984.138 2.6778 1.8698 0
M  V30 10469 H 982.797 3.66595 -0.0199496 0
M  V30 10470 H 982.445 4.46029 2.32524 0
M  V30 10471 H 982.145 5.76286 1.14755 0
M  V30 10472 H 983.669 5.74091 2.07972 0
M  V30 10473 H 985.083 5.72979 -0.191686 0
M  V30 10474 H 983.48 5.92393 -0.958686 0
M  V30 10475 H 984.55 4.61424 -1.4905 0
M  V30 10476 N 985.893 0.34162 1.53853 0
M  V30 10477 C 987.139 -0.248546 2.01876 0
M  V30 10478 C 987.494 -1.48352 1.22513 0
M  V30 10479 O 986.787 -1.89174 0.303919 0
M  V30 10480 C 986.981 -0.616989 3.52034 0
M  V30 10481 C 986.81 0.580727 4.45935 0
M  V30 10482 C 985.58 1.08544 4.93504 0
M  V30 10483 C 987.778 1.43858 4.93771 0
M  V30 10484 N 985.76 2.24568 5.71351 0
M  V30 10485 C 987.131 2.44575 5.69722 0
M  V30 10486 C 989.186 1.46425 4.75882 0
M  V30 10487 C 987.889 3.47687 6.29688 0
M  V30 10488 C 989.915 2.48416 5.36697 0
M  V30 10489 C 989.277 3.4786 6.12514 0
M  V30 10490 H 985.376 -0.0543067 0.780112 0
M  V30 10491 H 987.96 0.480749 1.88671 0
M  V30 10492 H 986.131 -1.31539 3.65448 0
M  V30 10493 H 987.863 -1.19018 3.86803 0
M  V30 10494 H 984.618 0.653832 4.69065 0
M  V30 10495 H 985.042 2.83143 6.14946 0
M  V30 10496 H 989.684 0.709044 4.16812 0
M  V30 10497 H 987.402 4.24103 6.87868 0
M  V30 10498 H 990.988 2.51227 5.24763 0
M  V30 10499 H 989.868 4.25486 6.58734 0
M  V30 10500 N 987.371 -1.57444 0.0701946 0
M  V30 10501 C 988.301 -2.15659 -0.895176 0
M  V30 10502 C 989.282 -1.08321 -1.31151 0
M  V30 10503 O 990.467 -1.36349 -1.38284 0
M  V30 10504 C 987.597 -2.71693 -2.16334 0
M  V30 10505 C 986.551 -3.84183 -1.88645 0
M  V30 10506 C 985.877 -4.26814 -3.22078 0
M  V30 10507 C 987.177 -5.08493 -1.19299 0
M  V30 10508 H 988.871 -2.96576 -0.410217 0
M  V30 10509 H 986.417 -1.42662 -0.195872 0
M  V30 10510 H 988.37 -3.11064 -2.84284 0
M  V30 10511 H 987.094 -1.87994 -2.67069 0
M  V30 10512 H 985.753 -3.45314 -1.23101 0
M  V30 10513 H 985.401 -3.40039 -3.70651 0
M  V30 10514 H 985.101 -5.02642 -3.04344 0
M  V30 10515 H 986.625 -4.68799 -3.91228 0
M  V30 10516 H 988.039 -5.4519 -1.77316 0
M  V30 10517 H 986.436 -5.89588 -1.11828 0
M  V30 10518 H 987.506 -4.84595 -0.171839 0
M  V30 10519 N 988.849 0.203349 -1.56283 0
M  V30 10520 C 989.779 1.2549 -1.96912 0
M  V30 10521 C 990.76 1.47919 -0.839884 0
M  V30 10522 O 991.945 1.59795 -1.10359 0
M  V30 10523 C 989.075 2.6009 -2.30153 0
M  V30 10524 C 988.029 2.52289 -3.45738 0
M  V30 10525 C 987.355 3.91086 -3.64632 0
M  V30 10526 C 988.655 2.05503 -4.80173 0
M  V30 10527 H 990.349 0.917306 -2.85002 0
M  V30 10528 H 987.895 0.439818 -1.37119 0
M  V30 10529 H 989.848 3.33829 -2.5717 0
M  V30 10530 H 988.572 2.95574 -1.38937 0
M  V30 10531 H 987.231 1.81006 -3.18798 0
M  V30 10532 H 986.879 4.23908 -2.7076 0
M  V30 10533 H 986.579 3.86742 -4.42385 0
M  V30 10534 H 988.103 4.66459 -3.94016 0
M  V30 10535 H 989.517 2.68995 -5.06275 0
M  V30 10536 H 987.914 2.1218 -5.61337 0
M  V30 10537 H 988.984 1.00793 -4.74309 0
M  V30 10538 N 990.327 1.50405 0.470755 0
M  V30 10539 C 991.575 1.61092 1.2204 0
M  V30 10540 C 991.896 0.313487 1.92464 0
M  V30 10541 O 991.166 -0.669043 1.84121 0
M  V30 10542 H 989.746 0.593618 0.45346 0
M  V30 10543 H 992.408 1.87184 0.542985 0
M  V30 10544 H 991.504 2.42222 1.96812 0
M  V30 10545 N 991.805 -0.723954 1.39988 0
M  V30 10546 C 992.735 -1.85103 1.42335 0
M  V30 10547 C 993.716 -1.6769 0.285297 0
M  V30 10548 O 994.901 -1.87846 0.492716 0
M  V30 10549 C 992.031 -3.22972 1.27697 0
M  V30 10550 C 990.985 -3.55041 2.39018 0
M  V30 10551 C 990.311 -4.91965 2.09462 0
M  V30 10552 C 991.611 -3.56889 3.8135 0
M  V30 10553 H 993.305 -1.83396 2.36656 0
M  V30 10554 H 990.851 -0.880926 1.13911 0
M  V30 10555 H 992.804 -4.01503 1.27958 0
M  V30 10556 H 991.528 -3.25233 0.298487 0
M  V30 10557 H 990.187 -2.78845 2.37993 0
M  V30 10558 H 989.835 -4.90819 1.10025 0
M  V30 10559 H 989.535 -5.14389 2.84038 0
M  V30 10560 H 991.059 -5.7284 2.11391 0
M  V30 10561 H 992.473 -4.25476 3.84243 0
M  V30 10562 H 990.87 -3.90836 4.55376 0
M  V30 10563 H 991.94 -2.56452 4.11534 0
M  V30 10564 N 993.283 -1.25346 -0.955304 0
M  V30 10565 C 994.531 -1.09837 -1.69647 0
M  V30 10566 C 994.852 0.361425 -1.91621 0
M  V30 10567 O 994.122 1.25666 -1.50283 0
M  V30 10568 H 992.702 -0.403467 -0.628668 0
M  V30 10569 H 995.364 -1.57459 -1.14859 0
M  V30 10570 H 994.46 -1.60616 -2.67598 0
M  V30 10571 N 994.761 1.15782 -1.06922 0
M  V30 10572 C 996.008 1.86465 -0.789752 0
M  V30 10573 C 996.336 1.82075 0.684022 0
M  V30 10574 O 995.591 1.23576 1.51748 0
M  V30 10575 C 995.89 3.35284 -1.2377 0
M  V30 10576 C 995.556 3.59871 -2.71668 0
M  V30 10577 C 994.218 3.6629 -3.12066 0
M  V30 10578 C 996.57 3.69929 -3.67154 0
M  V30 10579 C 993.898 3.80275 -4.46775 0
M  V30 10580 C 996.25 3.85436 -5.01619 0
M  V30 10581 C 994.914 3.901 -5.41644 0
M  V30 10582 H 994.184 0.682324 -0.288991 0
M  V30 10583 H 996.831 1.36861 -1.33945 0
M  V30 10584 H 995.136 3.87065 -0.607309 0
M  V30 10585 H 996.833 3.88371 -0.998431 0
M  V30 10586 H 993.423 3.55512 -2.39393 0
M  V30 10587 H 997.607 3.64274 -3.37073 0
M  V30 10588 H 992.863 3.8214 -4.77262 0
M  V30 10589 H 997.037 3.92161 -5.75485 0
M  V30 10590 H 994.664 4.00688 -6.46029 0
M  V30 10591 N 996.239 0.8527 1.3254 0
M  V30 10592 C 997.464 0.468157 2.02047 0
M  V30 10593 C 997.889 -0.926967 1.63673 0
M  V30 10594 O 997.247 -1.60855 0.836378 0
M  V30 10595 C 997.295 0.612519 3.5536 0
M  V30 10596 O 996.399 -0.355506 4.10865 0
M  V30 10597 H 995.74 0.188401 0.636711 0
M  V30 10598 H 998.27 1.15135 1.6913 0
M  V30 10599 H 998.28 0.499315 4.04933 0
M  V30 10600 H 996.955 1.62988 3.82632 0
M  V30 10601 H 995.532 -0.198703 3.7237 0
M  V30 10602 N 997.718 -1.45297 0.610449 0
M  V30 10603 C 998.648 -2.33311 -0.0939698 0
M  V30 10604 C 999.629 -1.46999 -0.85588 0
M  V30 10605 O 1000.81 -1.75764 -0.825865 0
M  V30 10606 C 997.944 -3.29751 -1.09003 0
M  V30 10607 C 996.898 -4.2572 -0.441146 0
M  V30 10608 C 996.224 -5.11873 -1.54566 0
M  V30 10609 C 997.524 -5.1837 0.639489 0
M  V30 10610 H 999.218 -2.92459 0.640941 0
M  V30 10611 H 996.764 -1.40631 0.309675 0
M  V30 10612 H 998.717 -3.90195 -1.59141 0
M  V30 10613 H 997.441 -2.68768 -1.85557 0
M  V30 10614 H 996.1 -3.66579 0.0393908 0
M  V30 10615 H 995.748 -4.47256 -2.30155 0
M  V30 10616 H 995.448 -5.76886 -1.11698 0
M  V30 10617 H 996.972 -5.75185 -2.04925 0
M  V30 10618 H 998.386 -5.7287 0.22207 0
M  V30 10619 H 996.783 -5.91876 0.990089 0
M  V30 10620 H 997.853 -4.60627 1.51495 0
M  V30 10621 N 999.196 -0.349774 -1.5367 0
M  V30 10622 C 1000.44 0.244343 -2.00617 0
M  V30 10623 C 1000.76 1.50567 -1.23914 0
M  V30 10624 O 1000.03 1.92784 -0.348016 0
M  V30 10625 H 998.615 0.0932792 -0.741153 0
M  V30 10626 H 1001.28 -0.472367 -1.89089 0
M  V30 10627 H 1000.37 0.482433 -3.08349 0
M  V30 10628 N 1000.67 1.57404 -0.0785433 0
M  V30 10629 C 1001.9 1.97787 0.596995 0
M  V30 10630 C 1002.31 0.955904 1.63276 0
M  V30 10631 O 1001.65 -0.0649169 1.83585 0
M  V30 10632 C 1001.72 3.34499 1.31723 0
M  V30 10633 C 1001.38 4.54933 0.434144 0
M  V30 10634 C 1002.38 5.18969 -0.311015 0
M  V30 10635 C 1000.06 5.01029 0.357046 0
M  V30 10636 C 1002.06 6.27457 -1.12142 0
M  V30 10637 C 999.744 6.09389 -0.457029 0
M  V30 10638 C 1000.74 6.72466 -1.19493 0
M  V30 10639 O 1000.43 7.78738 -1.99556 0
M  V30 10640 H 1000.16 0.655294 0.166028 0
M  V30 10641 H 1002.72 2.04855 -0.149517 0
M  V30 10642 H 1000.95 3.24064 2.10996 0
M  V30 10643 H 1002.63 3.5944 1.88567 0
M  V30 10644 H 1003.4 4.84297 -0.261084 0
M  V30 10645 H 999.28 4.51706 0.921026 0
M  V30 10646 H 1002.82 6.76622 -1.69788 0
M  V30 10647 H 998.721 6.43494 -0.508499 0
M  V30 10648 H 999.489 7.95648 -1.9206 0
M  V30 10649 N 1002.15 -0.195058 1.56388 0
M  V30 10650 C 1003.4 -0.913636 1.8027 0
M  V30 10651 C 1003.72 -1.83791 0.651606 0
M  V30 10652 O 1002.99 -1.931 -0.330057 0
M  V30 10653 H 1001.57 -0.34036 0.664954 0
M  V30 10654 H 1004.23 -0.200559 1.93865 0
M  V30 10655 H 1003.33 -1.50473 2.7343 0
M  V30 10656 N 1003.63 -1.50653 -0.462772 0
M  V30 10657 C 1004.85 -1.66103 -1.24196 0
M  V30 10658 C 1005.28 -0.347421 -1.84864 0
M  V30 10659 O 1004.64 0.689673 -1.6767 0
M  V30 10660 C 1004.69 -2.76027 -2.32037 0
M  V30 10661 O 1003.79 -2.37859 -3.36893 0
M  V30 10662 H 1003.13 -0.554672 -0.365014 0
M  V30 10663 H 1005.66 -1.97076 -0.549734 0
M  V30 10664 H 1005.67 -2.99354 -2.77221 0
M  V30 10665 H 1004.35 -3.71361 -1.87253 0
M  V30 10666 H 1002.92 -2.2501 -2.97363 0
M  V30 10667 N 1005.11 0.71652 -1.4037 0
M  V30 10668 C 1006.04 1.84012 -1.34963 0
M  V30 10669 C 1007.02 1.61102 -0.22017 0
M  V30 10670 O 1008.2 1.84127 -0.403676 0
M  V30 10671 C 1005.33 3.20334 -1.10017 0
M  V30 10672 C 1004.38 3.62072 -2.25402 0
M  V30 10673 S 1005.21 3.69295 -3.8779 0
M  V30 10674 C 1006.37 5.08378 -3.65107 0
M  V30 10675 H 1006.6 1.88318 -2.30052 0
M  V30 10676 H 1004.13 0.883208 -1.26644 0
M  V30 10677 H 1006.09 3.99042 -0.963097 0
M  V30 10678 H 1004.75 3.13662 -0.16584 0
M  V30 10679 H 1003.94 4.61051 -2.03587 0
M  V30 10680 H 1003.55 2.90619 -2.35408 0
M  V30 10681 H 1005.84 5.95268 -3.23516 0
M  V30 10682 H 1006.78 5.35228 -4.63613 0
M  V30 10683 H 1007.19 4.78927 -2.98813 0
M  V30 10684 N 1006.59 1.25851 0.948643 0
M  V30 10685 C 1007.83 1.10954 1.69397 0
M  V30 10686 C 1008.16 -0.348443 1.91353 0
M  V30 10687 O 1007.42 -1.27285 1.48651 0
M  V30 10688 C 1007.72 1.81565 3.07846 0
M  V30 10689 C 1007.38 3.31477 3.0567 0
M  V30 10690 C 1006.04 3.72371 3.04784 0
M  V30 10691 C 1008.4 4.27225 2.98543 0
M  V30 10692 C 1005.72 5.07416 2.94527 0
M  V30 10693 C 1008.08 5.62301 2.89828 0
M  V30 10694 C 1006.74 6.02516 2.87281 0
M  V30 10695 H 1006.01 0.406011 0.619868 0
M  V30 10696 H 1008.66 1.562 1.10787 0
M  V30 10697 H 1006.96 1.28767 3.70035 0
M  V30 10698 H 1008.66 1.67486 3.64348 0
M  V30 10699 H 1005.25 2.98941 3.07135 0
M  V30 10700 H 1009.43 3.96618 2.98342 0
M  V30 10701 H 1004.69 5.37746 2.90928 0
M  V30 10702 H 1008.86 6.36182 2.83276 0
M  V30 10703 H 1006.49 7.07116 2.79089 0
M  V30 10704 N 1008.06 -1.15214 1.07534 0
M  V30 10705 C 1009.29 -1.89922 0.820804 0
M  V30 10706 C 1009.71 -1.78114 -0.626177 0
M  V30 10707 O 1009.06 -1.13435 -1.42964 0
M  V30 10708 C 1009.12 -3.40207 1.22236 0
M  V30 10709 O 1008.84 -3.51676 2.61257 0
M  V30 10710 C 1010.34 -4.31934 0.997393 0
M  V30 10711 H 1007.56 -0.601865 0.296647 0
M  V30 10712 H 1010.1 -1.45965 1.43229 0
M  V30 10713 H 1008.26 -3.8182 0.655167 0
M  V30 10714 H 1008.67 -4.44959 2.77689 0
M  V30 10715 H 1010.14 -5.35791 1.32785 0
M  V30 10716 H 1010.62 -4.3915 -0.0661599 0
M  V30 10717 H 1011.23 -3.96066 1.54958 0
M  V30 10718 N 1009.54 -0.859717 -1.32086 0
M  V30 10719 C 1010.49 -0.306042 -2.28762 0
M  V30 10720 C 1011.46 0.589801 -1.55276 0
M  V30 10721 O 1012.64 0.523633 -1.83474 0
M  V30 10722 C 1009.78 0.495256 -3.41528 0
M  V30 10723 C 1008.9 -0.426947 -4.29885 0
M  V30 10724 C 1008.03 0.387474 -5.29785 0
M  V30 10725 C 1007.07 -0.531807 -6.09785 0
M  V30 10726 N 1006.21 0.245741 -7.0167 0
M  V30 10727 H 1011.05 -1.1357 -2.7551 0
M  V30 10728 H 1008.59 -0.571468 -1.35546 0
M  V30 10729 H 1010.54 0.97551 -4.05635 0
M  V30 10730 H 1009.17 1.28969 -2.95917 0
M  V30 10731 H 1008.23 -1.02561 -3.66313 0
M  V30 10732 H 1009.54 -1.13226 -4.85779 0
M  V30 10733 H 1008.69 0.930677 -5.99519 0
M  V30 10734 H 1007.43 1.12612 -4.74521 0
M  V30 10735 H 1006.44 -1.08685 -5.3895 0
M  V30 10736 H 1007.66 -1.26915 -6.67135 0
M  V30 10737 H 1005.61 0.967391 -6.48828 0
M  V30 10738 H 1005.52 -0.400432 -7.54939 0
M  V30 10739 H 1006.79 0.770507 -7.75683 0
M  V30 10740 N 1011.02 1.44971 -0.618145 0
M  V30 10741 C 1012.27 2.01372 -0.115004 0
M  V30 10742 C 1012.58 1.49104 1.26599 0
M  V30 10743 O 1013.79 1.97549 1.86244 0
M  V30 10744 C 1012.24 3.59567 -0.154883 0
M  V30 10745 C 1011.85 4.20832 -1.53639 0
M  V30 10746 C 1013.6 4.23491 0.292468 0
M  V30 10747 C 1011.5 5.7121 -1.53208 0
M  V30 10748 H 1010.43 0.752979 -0.0392267 0
M  V30 10749 H 1013.08 1.66329 -0.775032 0
M  V30 10750 H 1011.47 3.91847 0.572001 0
M  V30 10751 H 1012.64 4.00109 -2.28582 0
M  V30 10752 H 1010.96 3.69143 -1.92672 0
M  V30 10753 H 1013.55 5.33771 0.315032 0
M  V30 10754 H 1013.9 3.9491 1.31725 0
M  V30 10755 H 1014.43 3.95967 -0.381493 0
M  V30 10756 H 1011.17 6.04506 -2.53481 0
M  V30 10757 H 1010.69 5.94094 -0.825387 0
M  V30 10758 H 1012.37 6.34606 -1.26032 0
M  V30 10759 N 1012.5 0.357919 1.53482 0
M  V30 10760 C 1013.74 -0.22712 2.02128 0
M  V30 10761 C 1014.1 -1.47044 1.2408 0
M  V30 10762 O 1013.39 -1.88841 0.323966 0
M  V30 10763 C 1013.59 -0.579617 3.52669 0
M  V30 10764 C 1013.42 0.627992 4.45294 0
M  V30 10765 C 1012.19 1.13772 4.92325 0
M  V30 10766 C 1014.38 1.49087 4.92217 0
M  V30 10767 N 1012.37 2.30615 5.68937 0
M  V30 10768 C 1013.74 2.50604 5.67096 0
M  V30 10769 C 1015.79 1.51464 4.74303 0
M  V30 10770 C 1014.49 3.54346 6.25964 0
M  V30 10771 C 1016.52 2.54095 5.34032 0
M  V30 10772 C 1015.88 3.54337 6.0879 0
M  V30 10773 H 1011.98 -0.0460295 0.780644 0
M  V30 10774 H 1014.57 0.500733 1.88151 0
M  V30 10775 H 1012.74 -1.27656 3.66822 0
M  V30 10776 H 1014.47 -1.14908 3.88044 0
M  V30 10777 H 1011.22 0.703546 4.68345 0
M  V30 10778 H 1011.65 2.8965 6.11909 0
M  V30 10779 H 1016.29 0.753213 4.16037 0
M  V30 10780 H 1014.01 4.31375 6.83331 0
M  V30 10781 H 1017.59 2.56779 5.22069 0
M  V30 10782 H 1016.47 4.32449 6.54184 0
M  V30 10783 N 1013.98 -1.5736 0.0868897 0
M  V30 10784 C 1015.22 -1.95147 -0.573512 0
M  V30 10785 C 1015.58 -0.967591 -1.66299 0
M  V30 10786 O 1014.87 0.00774571 -1.91598 0
M  V30 10787 C 1015.06 -3.37316 -1.18123 0
M  V30 10788 C 1014.89 -4.49443 -0.152145 0
M  V30 10789 C 1013.66 -5.04586 0.268496 0
M  V30 10790 C 1015.86 -5.10592 0.616502 0
M  V30 10791 N 1013.84 -6.00264 1.28671 0
M  V30 10792 C 1015.21 -6.0191 1.48677 0
M  V30 10793 C 1017.27 -4.93359 0.67092 0
M  V30 10794 C 1015.97 -6.77844 2.40664 0
M  V30 10795 C 1018 -5.69949 1.57837 0
M  V30 10796 C 1017.36 -6.60927 2.43628 0
M  V30 10797 H 1013.46 -0.760898 -0.180439 0
M  V30 10798 H 1016.04 -1.93978 0.167548 0
M  V30 10799 H 1014.21 -3.39194 -1.89214 0
M  V30 10800 H 1015.95 -3.62301 -1.80332 0
M  V30 10801 H 1012.7 -4.73454 -0.117625 0
M  V30 10802 H 1013.13 -6.52804 1.79377 0
M  V30 10803 H 1017.77 -4.22794 0.0218207 0
M  V30 10804 H 1015.49 -7.47677 3.06603 0
M  V30 10805 H 1019.07 -5.58631 1.6255 0
M  V30 10806 H 1017.95 -7.19156 3.12705 0
M  V30 10807 N 1015.45 0.186762 -1.56489 0
M  V30 10808 C 1016.7 0.907194 -1.81378 0
M  V30 10809 C 1017.03 1.82558 -0.662283 0
M  V30 10810 O 1016.31 1.91564 0.336699 0
M  V30 10811 C 1016.59 1.71624 -3.16571 0
M  V30 10812 C 1016.44 0.822009 -4.42225 0
M  V30 10813 C 1017.76 2.68713 -3.48542 0
M  V30 10814 H 1014.88 0.328366 -0.659806 0
M  V30 10815 H 1017.52 0.174142 -1.892 0
M  V30 10816 H 1015.67 2.34119 -3.10033 0
M  V30 10817 H 1017.35 0.211122 -4.60817 0
M  V30 10818 H 1015.59 0.129178 -4.33608 0
M  V30 10819 H 1016.26 1.42326 -5.33336 0
M  V30 10820 H 1018.74 2.16348 -3.55433 0
M  V30 10821 H 1017.61 3.22397 -4.44242 0
M  V30 10822 H 1017.87 3.48165 -2.72459 0
M  V30 10823 N 1016.93 1.50896 0.454776 0
M  V30 10824 C 1017.88 1.67333 1.54867 0
M  V30 10825 C 1018.87 0.527576 1.52005 0
M  V30 10826 O 1020.06 0.782726 1.58753 0
M  V30 10827 C 1017.19 1.7858 2.93196 0
M  V30 10828 C 1016.27 2.98884 3.0088 0
M  V30 10829 N 1016.66 4.22326 2.78343 0
M  V30 10830 C 1014.96 2.97779 3.32029 0
M  V30 10831 C 1015.66 5.03439 2.91418 0
M  V30 10832 N 1014.64 4.37725 3.22332 0
M  V30 10833 H 1018.44 2.60453 1.36167 0
M  V30 10834 H 1015.96 1.48304 0.661797 0
M  V30 10835 H 1017.95 1.88463 3.7187 0
M  V30 10836 H 1016.61 0.866296 3.1293 0
M  V30 10837 H 1017.62 4.51557 2.53607 0
M  V30 10838 H 1014.3 2.15393 3.57648 0
M  V30 10839 H 1015.69 6.11648 2.78095 0
M  V30 10840 N 1018.41 -0.709066 1.40748 0
M  V30 10841 C 1019.64 -1.49808 1.42707 0
M  V30 10842 C 1020.05 -1.88778 0.0285574 0
M  V30 10843 O 1019.41 -1.55883 -0.949035 0
M  V30 10844 C 1019.46 -2.76926 2.32366 0
M  V30 10845 O 1019.18 -2.39602 3.66773 0
M  V30 10846 C 1020.68 -3.70773 2.42986 0
M  V30 10847 H 1017.9 -0.462106 0.486517 0
M  V30 10848 H 1020.45 -0.874135 1.84876 0
M  V30 10849 H 1018.6 -3.3559 1.93541 0
M  V30 10850 H 1019.02 -3.21443 4.14457 0
M  V30 10851 H 1020.49 -4.56789 3.09916 0
M  V30 10852 H 1020.97 -4.14332 1.45691 0
M  V30 10853 H 1021.57 -3.18019 2.8239 0
M  V30 10854 N 1019.89 -1.26353 -0.941956 0
M  V30 10855 C 1021.14 -1.12017 -1.69056 0
M  V30 10856 C 1021.47 0.335856 -1.91274 0
M  V30 10857 O 1020.74 1.24677 -1.49285 0
M  V30 10858 C 1021.03 -1.88889 -3.06583 0
M  V30 10859 C 1020.88 -3.42394 -2.91696 0
M  V30 10860 C 1022.2 -1.68209 -4.06686 0
M  V30 10861 H 1019.32 -0.408311 -0.613556 0
M  V30 10862 H 1021.96 -1.55339 -1.09407 0
M  V30 10863 H 1020.11 -1.5207 -3.57501 0
M  V30 10864 H 1021.78 -3.88962 -2.48005 0
M  V30 10865 H 1020.02 -3.69459 -2.27338 0
M  V30 10866 H 1020.7 -3.91408 -3.89235 0
M  V30 10867 H 1023.17 -2.00286 -3.64726 0
M  V30 10868 H 1022.05 -2.24412 -5.00929 0
M  V30 10869 H 1022.31 -0.626474 -4.37639 0
M  V30 10870 N 1021.37 1.14642 -1.08144 0
M  V30 10871 C 1022.61 1.85617 -0.809484 0
M  V30 10872 C 1022.94 1.8279 0.664672 0
M  V30 10873 O 1022.2 1.25178 1.50429 0
M  V30 10874 C 1022.5 3.33953 -1.2732 0
M  V30 10875 C 1022.16 3.56969 -2.7547 0
M  V30 10876 C 1020.82 3.6296 -3.15933 0
M  V30 10877 C 1023.18 3.66014 -3.71057 0
M  V30 10878 C 1020.5 3.75515 -4.50783 0
M  V30 10879 C 1022.86 3.80094 -5.05679 0
M  V30 10880 C 1021.52 3.84333 -5.45751 0
M  V30 10881 H 1020.79 0.67922 -0.296211 0
M  V30 10882 H 1023.44 1.35433 -1.35389 0
M  V30 10883 H 1021.74 3.86399 -0.648329 0
M  V30 10884 H 1023.44 3.87291 -1.03957 0
M  V30 10885 H 1020.03 3.52953 -2.4315 0
M  V30 10886 H 1024.21 3.60679 -3.40917 0
M  V30 10887 H 1019.47 3.77057 -4.81288 0
M  V30 10888 H 1023.64 3.86035 -5.79612 0
M  V30 10889 H 1021.27 3.93814 -6.50242 0
M  V30 10890 N 1022.85 0.866709 1.31628 0
M  V30 10891 C 1024.07 0.49039 2.01004 0
M  V30 10892 C 1024.49 -0.916244 1.65077 0
M  V30 10893 O 1023.85 -1.59975 0.8783 0
M  V30 10894 C 1023.9 0.634011 3.55897 0
M  V30 10895 O 1023.62 1.98525 3.90537 0
M  V30 10896 C 1025.12 0.258277 4.42547 0
M  V30 10897 H 1022.34 0.191421 0.643117 0
M  V30 10898 H 1024.88 1.16698 1.67934 0
M  V30 10899 H 1023.04 0.00501801 3.874 0
M  V30 10900 H 1023.45 1.99067 4.85255 0
M  V30 10901 H 1024.93 0.409733 5.50477 0
M  V30 10902 H 1025.4 -0.802301 4.3181 0
M  V30 10903 H 1026.01 0.862837 4.16456 0
M  V30 10904 N 1024.32 -1.44642 0.625825 0
M  V30 10905 C 1025.27 -2.30653 -0.082259 0
M  V30 10906 C 1026.24 -1.43174 -0.842052 0
M  V30 10907 O 1027.43 -1.72082 -0.824151 0
M  V30 10908 C 1024.57 -3.2837 -1.06146 0
M  V30 10909 C 1023.68 -4.30953 -0.300638 0
M  V30 10910 C 1022.81 -5.15766 -1.27118 0
M  V30 10911 C 1021.85 -6.10061 -0.499215 0
M  V30 10912 N 1020.99 -6.87591 -1.41995 0
M  V30 10913 H 1025.83 -2.90664 0.657161 0
M  V30 10914 H 1023.37 -1.43215 0.335859 0
M  V30 10915 H 1025.32 -3.83507 -1.6425 0
M  V30 10916 H 1023.95 -2.70072 -1.76807 0
M  V30 10917 H 1023.01 -3.78331 0.396234 0
M  V30 10918 H 1024.32 -4.97892 0.300851 0
M  V30 10919 H 1023.47 -5.75394 -1.92372 0
M  V30 10920 H 1022.21 -4.48888 -1.9066 0
M  V30 10921 H 1021.22 -5.49547 0.166848 0
M  V30 10922 H 1022.44 -6.78973 0.131409 0
M  V30 10923 H 1020.39 -6.23387 -2.04267 0
M  V30 10924 H 1020.3 -7.5095 -0.872354 0
M  V30 10925 H 1021.57 -7.51746 -2.0615 0
M  V30 10926 N 1025.8 -0.366053 -1.5329 0
M  V30 10927 C 1026.75 0.480205 -2.25749 0
M  V30 10928 C 1027.72 1.07713 -1.2644 0
M  V30 10929 O 1028.9 1.10953 -1.55222 0
M  V30 10930 C 1026.04 1.61374 -3.05045 0
M  V30 10931 C 1025.16 1.04194 -4.19246 0
M  V30 10932 C 1024.29 2.14462 -4.85983 0
M  V30 10933 C 1023.33 1.5475 -5.92215 0
M  V30 10934 N 1022.47 2.58852 -6.52641 0
M  V30 10935 H 1027.31 -0.144199 -2.97651 0
M  V30 10936 H 1024.84 -0.0829321 -1.46866 0
M  V30 10937 H 1026.8 2.28144 -3.49294 0
M  V30 10938 H 1025.43 2.2088 -2.35397 0
M  V30 10939 H 1024.48 0.264514 -3.79479 0
M  V30 10940 H 1025.8 0.565379 -4.95585 0
M  V30 10941 H 1024.95 2.89051 -5.33418 0
M  V30 10942 H 1023.69 2.6547 -4.09117 0
M  V30 10943 H 1022.69 0.786759 -5.44142 0
M  V30 10944 H 1023.92 1.04566 -6.71001 0
M  V30 10945 H 1021.87 3.09073 -5.78627 0
M  V30 10946 H 1021.78 2.15884 -7.24521 0
M  V30 10947 H 1023.05 3.33142 -7.04724 0
M  V30 10948 N 1027.28 1.57312 -0.0952337 0
M  V30 10949 C 1028.19 2.17556 0.877877 0
M  V30 10950 C 1029.21 1.14505 1.31014 0
M  V30 10951 O 1030.38 1.46876 1.37802 0
M  V30 10952 C 1027.45 2.74413 2.11892 0
M  V30 10953 C 1026.51 3.92419 1.74085 0
M  V30 10954 C 1025.74 4.46556 2.92273 0
M  V30 10955 O 1025.96 3.99631 4.07002 0
M  V30 10956 O 1024.9 5.37576 2.70732 0
M  V30 10957 H 1028.72 3.01116 0.395312 0
M  V30 10958 H 1026.31 1.48841 0.129123 0
M  V30 10959 H 1028.19 3.10754 2.84622 0
M  V30 10960 H 1026.87 1.93899 2.59201 0
M  V30 10961 H 1025.77 3.6089 0.985346 0
M  V30 10962 H 1027.11 4.74298 1.31539 0
M  V30 10963 N 1028.76 -0.17846 1.56586 0
M  V30 10964 C 1029.67 -1.24115 1.9908 0
M  V30 10965 C 1030.68 -1.48854 0.901031 0
M  V30 10966 O 1031.86 -1.61142 1.2081 0
M  V30 10967 C 1028.92 -2.56187 2.33601 0
M  V30 10968 C 1027.99 -2.39373 3.56369 0
M  V30 10969 C 1027.22 -3.65147 3.89234 0
M  V30 10970 O 1027.44 -4.70024 3.23162 0
M  V30 10971 O 1026.38 -3.59683 4.82609 0
M  V30 10972 H 1030.2 -0.910482 2.89731 0
M  V30 10973 H 1027.79 -0.38477 1.4436 0
M  V30 10974 H 1029.67 -3.34109 2.56806 0
M  V30 10975 H 1028.34 -2.88847 1.46113 0
M  V30 10976 H 1027.25 -1.59506 3.38391 0
M  V30 10977 H 1028.58 -2.1164 4.44375 0
M  V30 10978 N 1030.24 -1.51135 -0.446768 0
M  V30 10979 C 1031.18 -1.71767 -1.54158 0
M  V30 10980 C 1032.15 -0.559201 -1.56404 0
M  V30 10981 O 1033.34 -0.792567 -1.7356 0
M  V30 10982 C 1030.48 -1.84006 -2.91952 0
M  V30 10983 C 1029.59 -3.11511 -2.99308 0
M  V30 10984 C 1028.73 -3.144 -4.28166 0
M  V30 10985 C 1027.76 -4.36258 -4.29355 0
M  V30 10986 N 1026.9 -4.3675 -5.49722 0
M  V30 10987 H 1031.74 -2.65224 -1.35869 0
M  V30 10988 H 1029.28 -1.31453 -0.660186 0
M  V30 10989 H 1031.24 -1.89083 -3.71892 0
M  V30 10990 H 1029.87 -0.939661 -3.08821 0
M  V30 10991 H 1028.92 -3.15788 -2.12089 0
M  V30 10992 H 1030.23 -4.01445 -2.96047 0
M  V30 10993 H 1029.38 -3.18341 -5.16473 0
M  V30 10994 H 1028.12 -2.22338 -4.3407 0
M  V30 10995 H 1027.13 -4.32503 -3.39442 0
M  V30 10996 H 1028.35 -5.29574 -4.25122 0
M  V30 10997 H 1026.3 -3.47554 -5.56365 0
M  V30 10998 H 1026.22 -5.20481 -5.48302 0
M  V30 10999 H 1027.48 -4.4487 -6.40086 0
M  V30 11000 N 1031.71 0.701592 -1.41122 0
M  V30 11001 C 1032.66 1.81559 -1.42495 0
M  V30 11002 C 1033.63 1.63722 -0.280078 0
M  V30 11003 O 1034.82 1.84658 -0.480231 0
M  V30 11004 C 1031.96 3.19392 -1.30702 0
M  V30 11005 C 1031.07 3.48704 -2.55009 0
M  V30 11006 C 1030.2 4.76118 -2.35554 0
M  V30 11007 C 1029.24 4.98378 -3.55367 0
M  V30 11008 N 1028.38 6.17014 -3.3502 0
M  V30 11009 H 1033.22 1.7972 -2.37707 0
M  V30 11010 H 1030.76 0.877727 -1.18044 0
M  V30 11011 H 1032.71 3.99004 -1.21867 0
M  V30 11012 H 1031.34 3.20423 -0.391012 0
M  V30 11013 H 1030.4 2.63542 -2.74317 0
M  V30 11014 H 1031.71 3.61057 -3.44151 0
M  V30 11015 H 1030.86 5.63774 -2.24152 0
M  V30 11016 H 1029.6 4.66 -1.43859 0
M  V30 11017 H 1028.61 4.09172 -3.6723 0
M  V30 11018 H 1029.83 5.10359 -4.48007 0
M  V30 11019 H 1027.78 6.0812 -2.4602 0
M  V30 11020 H 1027.69 6.30107 -4.17733 0
M  V30 11021 H 1028.96 7.0742 -3.27379 0
M  V30 11022 N 1033.19 1.2685 0.935242 0
M  V30 11023 C 1034.1 1.10716 2.06831 0
M  V30 11024 C 1035.12 0.0391222 1.73956 0
M  V30 11025 O 1036.29 0.244071 1.99916 0
M  V30 11026 C 1033.36 0.748093 3.38533 0
M  V30 11027 C 1032.42 1.89619 3.85153 0
M  V30 11028 C 1031.65 1.55416 5.1057 0
M  V30 11029 O 1031.88 0.458596 5.68553 0
M  V30 11030 O 1030.81 2.39087 5.52378 0
M  V30 11031 H 1034.64 2.05785 2.23352 0
M  V30 11032 H 1032.22 1.05967 1.05315 0
M  V30 11033 H 1034.1 0.560841 4.17651 0
M  V30 11034 H 1032.78 -0.173142 3.23237 0
M  V30 11035 H 1031.68 2.13845 3.06954 0
M  V30 11036 H 1033.02 2.79737 4.04979 0
M  V30 11037 N 1034.67 -1.14067 1.0875 0
M  V30 11038 C 1035.92 -1.85677 0.830392 0
M  V30 11039 C 1036.27 -1.81549 -0.637016 0
M  V30 11040 O 1035.56 -1.23774 -1.46255 0
M  V30 11041 C 1035.76 -3.33273 1.29089 0
M  V30 11042 C 1035.59 -3.51774 2.80153 0
M  V30 11043 C 1034.36 -3.66419 3.47944 0
M  V30 11044 C 1036.56 -3.48399 3.78316 0
M  V30 11045 N 1034.54 -3.73112 4.87504 0
M  V30 11046 C 1035.91 -3.61378 5.03791 0
M  V30 11047 C 1037.96 -3.31758 3.7127 0
M  V30 11048 C 1036.67 -3.59435 6.23056 0
M  V30 11049 C 1038.69 -3.31119 4.90014 0
M  V30 11050 C 1038.05 -3.44643 6.1433 0
M  V30 11051 H 1034.15 -0.695948 0.356625 0
M  V30 11052 H 1036.74 -1.36687 1.38654 0
M  V30 11053 H 1034.91 -3.80846 0.762274 0
M  V30 11054 H 1036.64 -3.92659 0.979828 0
M  V30 11055 H 1033.4 -3.67799 2.98364 0
M  V30 11056 H 1033.82 -3.80167 5.6018 0
M  V30 11057 H 1038.46 -3.2021 2.76089 0
M  V30 11058 H 1036.18 -3.69758 7.18544 0
M  V30 11059 H 1039.77 -3.1945 4.86254 0
M  V30 11060 H 1038.65 -3.44101 7.04673 0
M  V30 11061 N 1036.15 -0.873678 -1.31166 0
M  V30 11062 C 1037.56 -0.566109 -1.49223 0
M  V30 11063 C 1037.76 0.898889 -1.80339 0
M  V30 11064 O 1036.82 1.68084 -1.88425 0
M  V30 11065 C 1038.13 -1.46952 -2.62346 0
M  V30 11066 C 1039.68 -1.47195 -2.76229 0
M  V30 11067 C 1040.16 -2.36102 -3.92454 0
M  V30 11068 N 1041.65 -2.34003 -3.99746 0
M  V30 11069 C 1042.38 -2.99513 -4.88958 0
M  V30 11070 N 1041.88 -3.74206 -5.83045 0
M  V30 11071 N 1043.67 -2.88802 -4.82234 0
M  V30 11072 H 1035.82 -1.82156 -1.09239 0
M  V30 11073 H 1038.09 -0.779086 -0.54012 0
M  V30 11074 H 1037.79 -2.51213 -2.4614 0
M  V30 11075 H 1037.67 -1.17077 -3.5857 0
M  V30 11076 H 1040.05 -0.436902 -2.91848 0
M  V30 11077 H 1040.13 -1.81095 -1.80661 0
M  V30 11078 H 1039.78 -3.39685 -3.77593 0
M  V30 11079 H 1039.71 -1.99524 -4.87337 0
M  V30 11080 H 1042.2 -1.79713 -3.32433 0
M  V30 11081 H 1042.51 -4.21312 -6.47855 0
M  V30 11082 H 1040.86 -3.78314 -5.83012 0
M  V30 11083 H 1044.05 -2.29984 -4.07707 0
M  V30 11084 H 1044.22 -3.40136 -5.51554 0
M  V30 11085 N 1037.63 1.44308 -0.633487 0
M  V30 11086 C 1038.57 2.30694 0.0700257 0
M  V30 11087 C 1039.54 1.43618 0.834447 0
M  V30 11088 O 1040.73 1.72517 0.815014 0
M  V30 11089 C 1037.87 3.28929 1.04403 0
M  V30 11090 C 1036.98 4.31106 0.277779 0
M  V30 11091 C 1036.12 5.16433 1.24381 0
M  V30 11092 C 1035.16 6.10317 0.466855 0
M  V30 11093 N 1034.29 6.88335 1.38347 0
M  V30 11094 H 1039.13 2.90311 -0.672567 0
M  V30 11095 H 1036.67 1.43034 -0.343449 0
M  V30 11096 H 1038.63 3.84373 1.62214 0
M  V30 11097 H 1037.26 2.71006 1.75372 0
M  V30 11098 H 1036.31 3.78115 -0.416292 0
M  V30 11099 H 1037.62 4.97725 -0.327251 0
M  V30 11100 H 1036.78 5.76406 1.89318 0
M  V30 11101 H 1035.51 4.49893 1.88276 0
M  V30 11102 H 1034.52 5.49451 -0.195989 0
M  V30 11103 H 1035.74 6.78894 -0.167414 0
M  V30 11104 H 1033.69 6.24461 2.00959 0
M  V30 11105 H 1033.61 7.51402 0.832517 0
M  V30 11106 H 1034.88 7.52829 2.0216 0
M  V30 11107 N 1039.1 0.374177 1.53094 0
M  V30 11108 C 1040.33 -0.213325 2.05797 0
M  V30 11109 C 1040.75 -1.41753 1.24706 0
M  V30 11110 O 1040.1 -1.80183 0.289868 0
M  V30 11111 C 1040.16 -0.598367 3.56513 0
M  V30 11112 O 1039.88 0.557983 4.34532 0
M  V30 11113 C 1041.38 -1.24334 4.25507 0
M  V30 11114 H 1038.6 -0.0357398 0.670048 0
M  V30 11115 H 1041.14 0.535035 1.97377 0
M  V30 11116 H 1039.3 -1.29663 3.65056 0
M  V30 11117 H 1039.71 0.244911 5.23928 0
M  V30 11118 H 1041.18 -1.46325 5.32253 0
M  V30 11119 H 1041.66 -2.20622 3.79766 0
M  V30 11120 H 1042.27 -0.586269 4.2124 0
M  V30 11121 N 1040.58 -1.57259 0.103575 0
M  V30 11122 C 1041.51 -2.17509 -0.84923 0
M  V30 11123 C 1042.49 -1.11079 -1.28824 0
M  V30 11124 O 1043.68 -1.39252 -1.35361 0
M  V30 11125 C 1040.81 -2.76221 -2.10522 0
M  V30 11126 C 1039.76 -3.88098 -1.80454 0
M  V30 11127 C 1039.09 -4.33549 -3.12952 0
M  V30 11128 C 1040.39 -5.10909 -1.08486 0
M  V30 11129 H 1042.08 -2.9738 -0.347217 0
M  V30 11130 H 1039.63 -1.43045 -0.165568 0
M  V30 11131 H 1041.58 -3.17024 -2.77621 0
M  V30 11132 H 1040.31 -1.93617 -2.63021 0
M  V30 11133 H 1038.96 -3.47847 -1.15749 0
M  V30 11134 H 1038.61 -3.47825 -3.63355 0
M  V30 11135 H 1038.31 -5.08984 -2.93614 0
M  V30 11136 H 1039.84 -4.76992 -3.81196 0
M  V30 11137 H 1041.25 -5.48828 -1.65711 0
M  V30 11138 H 1039.65 -5.91828 -0.992973 0
M  V30 11139 H 1040.72 -4.84851 -0.0690108 0
M  V30 11140 N 1042.06 0.170153 -1.56679 0
M  V30 11141 C 1042.97 1.23057 -1.99735 0
M  V30 11142 C 1043.99 1.48374 -0.908912 0
M  V30 11143 O 1045.16 1.60499 -1.21663 0
M  V30 11144 C 1042.23 2.54944 -2.34956 0
M  V30 11145 C 1041.29 2.3748 -3.57634 0
M  V30 11146 C 1040.52 3.63078 -3.91165 0
M  V30 11147 O 1040.74 4.68304 -3.2565 0
M  V30 11148 O 1039.68 3.57119 -4.8451 0
M  V30 11149 H 1043.5 0.895104 -2.9021 0
M  V30 11150 H 1041.09 0.377109 -1.44562 0
M  V30 11151 H 1042.97 3.32742 -2.58574 0
M  V30 11152 H 1041.65 2.88068 -1.47643 0
M  V30 11153 H 1040.55 1.57709 -3.39232 0
M  V30 11154 H 1041.89 2.0928 -4.45491 0
M  V30 11155 N 1043.54 1.5137 0.438746 0
M  V30 11156 C 1044.95 1.56462 1.01866 0
M  V30 11157 C 1045.3 0.387244 1.9234 0
M  V30 11158 O 1044.43 -0.496131 2.10636 0
M  V30 11159 C 1045.02 2.83557 1.85421 0
M  V30 11160 C 1043.58 2.91224 2.38464 0
M  V30 11161 C 1042.73 2.51109 1.17641 0
M  V30 11162 H 1045.68 1.57167 0.220072 0
M  V30 11163 H 1045.7 2.6724 2.70857 0
M  V30 11164 H 1045.21 3.69229 1.19546 0
M  V30 11165 H 1043.31 2.09979 3.07798 0
M  V30 11166 H 1043.42 3.94844 2.71358 0
M  V30 11167 H 1041.79 2.04276 1.5213 0
M  V30 11168 H 1042.57 3.39125 0.533785 0
M  V30 11169 N 1045.02 -0.694098 1.41492 0
M  V30 11170 C 1046.26 -1.45493 1.42138 0
M  V30 11171 C 1046.62 -1.92376 0.0302688 0
M  V30 11172 O 1045.91 -1.66723 -0.944142 0
M  V30 11173 C 1046.1 -2.6805 2.36398 0
M  V30 11174 C 1045.93 -2.33157 3.84536 0
M  V30 11175 C 1044.7 -2.2345 4.53209 0
M  V30 11176 C 1046.9 -1.96037 4.75473 0
M  V30 11177 N 1044.88 -1.81457 5.8647 0
M  V30 11178 C 1046.25 -1.64814 5.97693 0
M  V30 11179 C 1048.31 -1.8286 4.63106 0
M  V30 11180 C 1047.01 -1.21738 7.08923 0
M  V30 11181 C 1049.04 -1.41188 5.74299 0
M  V30 11182 C 1048.4 -1.10877 6.95619 0
M  V30 11183 H 1044.5 -0.529635 0.575335 0
M  V30 11184 H 1047.08 -0.802901 1.77374 0
M  V30 11185 H 1045.25 -3.30972 2.03254 0
M  V30 11186 H 1046.99 -3.34531 2.27753 0
M  V30 11187 H 1043.74 -2.41894 4.07166 0
M  V30 11188 H 1044.17 -1.62938 6.571 0
M  V30 11189 H 1048.81 -2.04947 3.69806 0
M  V30 11190 H 1046.53 -0.983947 8.02087 0
M  V30 11191 H 1050.11 -1.3154 5.66735 0
M  V30 11192 H 1048.99 -0.791191 7.80199 0
M  V30 11193 N 1046.49 -1.27344 -0.928501 0
M  V30 11194 C 1047.44 -1.10001 -2.029 0
M  V30 11195 C 1048.41 -0.00131084 -1.661 0
M  V30 11196 O 1049.6 -0.163485 -1.90098 0
M  V30 11197 C 1046.74 -0.7524 -3.36798 0
M  V30 11198 C 1045.85 -1.92865 -3.86558 0
M  V30 11199 C 1044.98 -1.52299 -5.08899 0
M  V30 11200 C 1044.02 -2.66677 -5.50953 0
M  V30 11201 N 1043.16 -2.26706 -6.64491 0
M  V30 11202 H 1048 -2.0417 -2.17068 0
M  V30 11203 H 1045.54 -1.01637 -1.0634 0
M  V30 11204 H 1047.5 -0.531687 -4.13798 0
M  V30 11205 H 1046.13 0.15234 -3.2244 0
M  V30 11206 H 1045.18 -2.26192 -3.05845 0
M  V30 11207 H 1046.49 -2.78668 -4.13698 0
M  V30 11208 H 1045.64 -1.26348 -5.93398 0
M  V30 11209 H 1044.38 -0.636042 -4.83535 0
M  V30 11210 H 1043.39 -2.93344 -4.65004 0
M  V30 11211 H 1044.61 -3.55992 -5.78313 0
M  V30 11212 H 1042.56 -1.40462 -6.40786 0
M  V30 11213 H 1042.48 -3.06049 -6.91281 0
M  V30 11214 H 1043.74 -2.04 -7.52333 0
M  V30 11215 N 1047.97 1.13488 -1.09353 0
M  V30 11216 C 1048.9 2.20988 -0.75409 0
M  V30 11217 C 1049.88 1.67977 0.267901 0
M  V30 11218 O 1051.07 1.93722 0.136128 0
M  V30 11219 C 1048.2 3.46869 -0.173042 0
M  V30 11220 C 1047.15 4.12965 -1.12446 0
M  V30 11221 C 1046.48 5.33163 -0.405157 0
M  V30 11222 C 1047.78 4.60388 -2.46658 0
M  V30 11223 H 1049.47 2.49639 -1.6529 0
M  V30 11224 H 1047.02 1.19987 -0.796182 0
M  V30 11225 H 1048.97 4.21331 0.0764988 0
M  V30 11226 H 1047.7 3.17611 0.760956 0
M  V30 11227 H 1046.35 3.40469 -1.35927 0
M  V30 11228 H 1046 5.00169 0.532955 0
M  V30 11229 H 1045.7 5.78332 -1.03952 0
M  V30 11230 H 1047.23 6.1038 -0.163899 0
M  V30 11231 H 1048.64 5.26276 -2.27389 0
M  V30 11232 H 1047.04 5.16294 -3.05876 0
M  V30 11233 H 1048.11 3.74949 -3.07476 0
M  V30 11234 N 1049.45 0.880621 1.30701 0
M  V30 11235 C 1050.68 0.51094 2.00182 0
M  V30 11236 C 1051.09 -0.903914 1.66211 0
M  V30 11237 O 1050.43 -1.60529 0.893089 0
M  V30 11238 C 1050.49 0.600775 3.54445 0
M  V30 11239 C 1050.16 1.97915 4.1192 0
M  V30 11240 C 1051.16 2.94802 4.28238 0
M  V30 11241 C 1048.84 2.28336 4.47401 0
M  V30 11242 C 1050.83 4.20245 4.79242 0
M  V30 11243 C 1048.52 3.54026 4.98105 0
M  V30 11244 C 1049.52 4.49796 5.13978 0
M  V30 11245 O 1049.21 5.73256 5.63589 0
M  V30 11246 H 1048.94 0.196477 0.646818 0
M  V30 11247 H 1051.49 1.18659 1.67658 0
M  V30 11248 H 1049.72 -0.131832 3.86475 0
M  V30 11249 H 1051.41 0.242996 4.05172 0
M  V30 11250 H 1052.18 2.7261 4.01134 0
M  V30 11251 H 1048.06 1.54564 4.34317 0
M  V30 11252 H 1051.6 4.95003 4.91546 0
M  V30 11253 H 1047.5 3.76057 5.24644 0
M  V30 11254 H 1048.27 5.75577 5.81939 0
M  V30 11255 N 1050.93 -1.4397 0.641131 0
M  V30 11256 C 1051.89 -2.29149 -0.0482243 0
M  V30 11257 C 1052.89 -1.41572 -0.762495 0
M  V30 11258 O 1054.08 -1.63335 -0.605571 0
M  V30 11259 C 1051.21 -3.23375 -1.07896 0
M  V30 11260 H 1052.41 -2.9159 0.70109 0
M  V30 11261 H 1049.96 -1.51048 0.401754 0
M  V30 11262 H 1050.7 -2.65804 -1.85792 0
M  V30 11263 H 1050.48 -3.87926 -0.570597 0
M  V30 11264 H 1051.97 -3.87337 -1.56075 0
M  V30 11265 N 1052.41 -0.382291 -1.52893 0
M  V30 11266 C 1053.64 0.202408 -2.05908 0
M  V30 11267 C 1054.05 1.4109 -1.25456 0
M  V30 11268 O 1053.41 1.80027 -0.29942 0
M  V30 11269 C 1053.46 0.579452 -3.56826 0
M  V30 11270 O 1053.18 -0.58102 -4.3423 0
M  V30 11271 C 1054.68 1.22076 -4.2616 0
M  V30 11272 H 1051.9 0.0321859 -0.670228 0
M  V30 11273 H 1054.44 -0.545494 -1.9709 0
M  V30 11274 H 1052.6 1.27726 -3.65739 0
M  V30 11275 H 1053.01 -0.272693 -5.23791 0
M  V30 11276 H 1054.49 1.435 -5.33021 0
M  V30 11277 H 1054.96 2.18605 -3.80931 0
M  V30 11278 H 1055.57 0.563922 -4.21545 0
M  V30 11279 N 1053.89 1.57202 -0.111913 0
M  V30 11280 C 1055.13 1.95239 0.548607 0
M  V30 11281 C 1055.46 0.994897 1.6678 0
M  V30 11282 O 1054.74 0.0308603 1.94476 0
M  V30 11283 C 1055.02 3.43271 1.08798 0
M  V30 11284 C 1054.88 4.49792 -0.0273064 0
M  V30 11285 C 1056.19 3.92989 1.98109 0
M  V30 11286 H 1053.31 0.709919 0.197951 0
M  V30 11287 H 1055.96 1.89087 -0.186036 0
M  V30 11288 H 1054.11 3.48644 1.71404 0
M  V30 11289 H 1055.78 4.56521 -0.662302 0
M  V30 11290 H 1054.02 4.28254 -0.691426 0
M  V30 11291 H 1054.69 5.50612 0.391201 0
M  V30 11292 H 1057.17 3.89875 1.45385 0
M  V30 11293 H 1056.04 4.97101 2.32769 0
M  V30 11294 H 1056.3 3.33267 2.90492 0
M  V30 11295 N 1055.36 -0.161842 1.56767 0
M  V30 11296 C 1056.61 -0.875192 1.82167 0
M  V30 11297 C 1056.93 -1.82367 0.690444 0
M  V30 11298 O 1056.2 -1.93756 -0.289023 0
M  V30 11299 H 1054.78 -0.326178 0.672024 0
M  V30 11300 H 1057.44 -0.159392 1.94247 0
M  V30 11301 H 1056.54 -1.44639 2.76561 0
M  V30 11302 N 1056.84 -1.516 -0.430713 0
M  V30 11303 C 1057.77 -1.76342 -1.53054 0
M  V30 11304 C 1058.75 -0.61349 -1.58652 0
M  V30 11305 O 1059.94 -0.856888 -1.74273 0
M  V30 11306 C 1057.07 -1.8945 -2.91077 0
M  V30 11307 C 1056.02 -3.04928 -3.00339 0
M  V30 11308 C 1055.35 -3.03228 -4.40405 0
M  V30 11309 C 1056.65 -4.44777 -2.73808 0
M  V30 11310 H 1058.34 -2.68435 -1.326 0
M  V30 11311 H 1055.89 -1.29171 -0.636466 0
M  V30 11312 H 1057.84 -2.05343 -3.67984 0
M  V30 11313 H 1056.56 -0.940114 -3.12777 0
M  V30 11314 H 1055.22 -2.88751 -2.25872 0
M  V30 11315 H 1054.87 -2.05553 -4.59083 0
M  V30 11316 H 1054.57 -3.80776 -4.47531 0
M  V30 11317 H 1056.1 -3.21222 -5.19277 0
M  V30 11318 H 1057.51 -4.6127 -3.40445 0
M  V30 11319 H 1055.91 -5.2408 -2.92335 0
M  V30 11320 H 1056.98 -4.54358 -1.69372 0
M  V30 11321 N 1058.32 0.686584 -1.41858 0
M  V30 11322 C 1059.25 1.81264 -1.47193 0
M  V30 11323 C 1060.23 1.66875 -0.329657 0
M  V30 11324 O 1061.42 1.86473 -0.542347 0
M  V30 11325 C 1058.55 3.19472 -1.36216 0
M  V30 11326 C 1057.5 3.4858 -2.48347 0
M  V30 11327 C 1056.83 4.86239 -2.22432 0
M  V30 11328 C 1058.13 3.46653 -3.90678 0
M  V30 11329 H 1059.82 1.77057 -2.41436 0
M  V30 11330 H 1057.37 0.850415 -1.16206 0
M  V30 11331 H 1059.32 3.97969 -1.38558 0
M  V30 11332 H 1058.04 3.24327 -0.384611 0
M  V30 11333 H 1056.7 2.72437 -2.45303 0
M  V30 11334 H 1056.35 4.8773 -1.22999 0
M  V30 11335 H 1056.05 5.06677 -2.97577 0
M  V30 11336 H 1057.57 5.67034 -2.26505 0
M  V30 11337 H 1058.99 4.15139 -3.95389 0
M  V30 11338 H 1057.38 3.78625 -4.65578 0
M  V30 11339 H 1058.45 2.45451 -4.18189 0
M  V30 11340 N 1059.8 1.27835 0.921735 0
M  V30 11341 C 1061.04 1.14692 1.67253 0
M  V30 11342 C 1061.38 -0.305384 1.91784 0
M  V30 11343 O 1060.65 -1.22286 1.51249 0
M  V30 11344 C 1060.93 1.93743 3.03539 0
M  V30 11345 C 1060.79 3.46991 2.86212 0
M  V30 11346 C 1062.11 1.74658 4.03959 0
M  V30 11347 H 1059.23 0.418021 0.606983 0
M  V30 11348 H 1061.87 1.5706 1.06922 0
M  V30 11349 H 1060.02 1.57738 3.55037 0
M  V30 11350 H 1061.69 3.92858 2.41785 0
M  V30 11351 H 1059.93 3.73029 2.21432 0
M  V30 11352 H 1060.6 3.97551 3.82958 0
M  V30 11353 H 1063.08 2.06063 3.61493 0
M  V30 11354 H 1061.96 2.32353 4.97296 0
M  V30 11355 H 1062.22 0.696019 4.36587 0
M  V30 11356 N 1061.28 -1.12907 1.09954 0
M  V30 11357 C 1062.52 -1.83941 0.837255 0
M  V30 11358 C 1062.84 -1.84234 -0.638984 0
M  V30 11359 O 1062.11 -1.30193 -1.46378 0
M  V30 11360 H 1060.69 -0.681115 0.306743 0
M  V30 11361 H 1063.36 -1.36743 1.38879 0
M  V30 11362 H 1062.45 -2.88289 1.19565 0
M  V30 11363 N 1062.75 -0.88754 -1.30232 0
M  V30 11364 C 1063.69 -0.300814 -2.26209 0
M  V30 11365 C 1064.66 0.580088 -1.519 0
M  V30 11366 O 1065.85 0.529611 -1.80907 0
M  V30 11367 C 1062.98 0.572336 -3.33829 0
M  V30 11368 C 1062.02 -0.239589 -4.25827 0
M  V30 11369 S 1062.85 -1.62953 -5.10104 0
M  V30 11370 C 1064.01 -0.762979 -6.21232 0
M  V30 11371 H 1064.24 -1.11435 -2.75626 0
M  V30 11372 H 1061.78 -0.687123 -1.38268 0
M  V30 11373 H 1063.73 1.07036 -3.963 0
M  V30 11374 H 1062.4 1.35999 -2.83131 0
M  V30 11375 H 1061.59 0.426854 -5.02189 0
M  V30 11376 H 1061.19 -0.670325 -3.67944 0
M  V30 11377 H 1063.48 0.0189354 -6.77497 0
M  V30 11378 H 1064.43 -1.49829 -6.92067 0
M  V30 11379 H 1064.83 -0.322747 -5.63577 0
M  V30 11380 N 1064.23 1.43628 -0.648757 0
M  V30 11381 C 1065.51 1.95391 -0.0904551 0
M  V30 11382 C 1065.89 1.59021 1.38837 0
M  V30 11383 O 1065.24 0.873078 2.11163 0
M  V30 11384 C 1065.45 3.47418 -0.33196 0
M  V30 11385 C 1066.8 4.23952 -0.234521 0
M  V30 11386 O 1067.82 3.55218 -0.264276 0
M  V30 11387 O 1066.68 5.46282 -0.154428 0
M  V30 11388 H 1063.77 0.82691 0.0121884 0
M  V30 11389 H 1066.32 1.5359 -0.721685 0
M  V30 11390 H 1065.09 3.67001 -1.35741 0
M  V30 11391 H 1064.71 3.96207 0.332556 0
M  V30 11392 N 1065.71 0.390394 1.52688 0
M  V30 11393 C 1066.96 -0.191729 2.01892 0
M  V30 11394 C 1067.29 -1.4637 1.27631 0
M  V30 11395 O 1066.56 -1.90809 0.377094 0
M  V30 11396 C 1066.85 -0.458535 3.57169 0
M  V30 11397 C 1066.7 0.828796 4.42098 0
M  V30 11398 C 1068.02 -1.2487 4.22014 0
M  V30 11399 H 1065.14 -0.0682091 0.733837 0
M  V30 11400 H 1067.78 0.520176 1.82741 0
M  V30 11401 H 1065.93 -1.06498 3.73618 0
M  V30 11402 H 1067.6 1.46562 4.37398 0
M  V30 11403 H 1065.85 1.44388 4.09066 0
M  V30 11404 H 1066.52 0.596746 5.48765 0
M  V30 11405 H 1068.99 -0.735452 4.09549 0
M  V30 11406 H 1067.87 -1.40412 5.30637 0
M  V30 11407 H 1068.13 -2.2642 3.79719 0
M  V30 11408 N 1067.19 -1.57141 0.120249 0
M  V30 11409 C 1068.12 -2.18398 -0.826112 0
M  V30 11410 C 1069.1 -1.12439 -1.27638 0
M  V30 11411 O 1070.28 -1.40679 -1.33877 0
M  V30 11412 C 1067.41 -2.78438 -2.0758 0
M  V30 11413 C 1066.37 -3.89991 -1.76327 0
M  V30 11414 C 1065.69 -4.36844 -3.08336 0
M  V30 11415 C 1066.99 -5.12031 -1.03062 0
M  V30 11416 H 1068.69 -2.97731 -0.315656 0
M  V30 11417 H 1066.23 -1.43213 -0.150387 0
M  V30 11418 H 1068.19 -3.19951 -2.74243 0
M  V30 11419 H 1066.91 -1.96396 -2.60953 0
M  V30 11420 H 1065.57 -3.49055 -1.12053 0
M  V30 11421 H 1065.22 -3.51659 -3.59646 0
M  V30 11422 H 1064.92 -5.1207 -2.88199 0
M  V30 11423 H 1066.44 -4.81009 -3.76116 0
M  V30 11424 H 1067.86 -5.50555 -1.59881 0
M  V30 11425 H 1066.25 -5.92848 -0.930146 0
M  V30 11426 H 1067.32 -4.84897 -0.017582 0
M  V30 11427 N 1068.67 0.153526 -1.5685 0
M  V30 11428 C 1069.89 0.882335 -1.87143 0
M  V30 11429 C 1070.31 1.75034 -0.707702 0
M  V30 11430 O 1069.67 1.79624 0.32273 0
M  V30 11431 C 1069.72 1.74444 -3.16625 0
M  V30 11432 O 1069.44 0.911419 -4.28515 0
M  V30 11433 C 1070.94 2.58139 -3.60388 0
M  V30 11434 H 1068.16 0.25546 -0.620469 0
M  V30 11435 H 1070.7 0.148275 -2.03962 0
M  V30 11436 H 1068.86 2.43163 -3.0158 0
M  V30 11437 H 1069.27 1.50268 -5.02513 0
M  V30 11438 H 1070.75 3.14215 -4.53842 0
M  V30 11439 H 1071.22 3.33865 -2.85361 0
M  V30 11440 H 1071.83 1.94721 -3.78105 0
M  V30 11441 N 1070.14 1.51827 0.422667 0
M  V30 11442 C 1071.07 1.77152 1.52117 0
M  V30 11443 C 1072.06 0.621895 1.58324 0
M  V30 11444 O 1073.24 0.866118 1.73816 0
M  V30 11445 C 1070.37 1.90991 2.90068 0
M  V30 11446 C 1069.32 3.06516 2.98717 0
M  V30 11447 C 1068.65 3.05559 4.38791 0
M  V30 11448 C 1069.95 4.46223 2.71445 0
M  V30 11449 H 1071.64 2.69135 1.31175 0
M  V30 11450 H 1069.19 1.29507 0.629607 0
M  V30 11451 H 1071.14 2.07291 3.6689 0
M  V30 11452 H 1069.87 0.956688 3.12274 0
M  V30 11453 H 1068.53 2.89945 2.24338 0
M  V30 11454 H 1068.17 2.07985 4.57986 0
M  V30 11455 H 1067.87 3.83144 4.45505 0
M  V30 11456 H 1069.4 3.23971 5.17566 0
M  V30 11457 H 1070.81 4.63069 3.37994 0
M  V30 11458 H 1069.21 5.25623 2.89552 0
M  V30 11459 H 1070.28 4.5525 1.6696 0
M  V30 11460 N 1071.62 -0.679052 1.4222 0
M  V30 11461 C 1072.59 -1.77448 1.45069 0
M  V30 11462 C 1073.59 -1.57189 0.338882 0
M  V30 11463 O 1074.78 -1.63559 0.599519 0
M  V30 11464 C 1071.91 -3.1603 1.27819 0
M  V30 11465 H 1073.1 -1.7631 2.426 0
M  V30 11466 H 1070.65 -0.888277 1.28605 0
M  V30 11467 H 1071.39 -3.22796 0.311946 0
M  V30 11468 H 1071.17 -3.32138 2.08391 0
M  V30 11469 H 1072.66 -3.9596 1.32686 0
M  V30 11470 N 1073.1 -1.28322 -0.914942 0
M  V30 11471 C 1074.35 -1.14785 -1.65853 0
M  V30 11472 C 1074.66 0.303135 -1.93237 0
M  V30 11473 O 1075.87 0.559606 -2.6567 0
M  V30 11474 C 1074.32 -2.00652 -2.98776 0
M  V30 11475 C 1073.93 -3.50483 -2.79044 0
M  V30 11476 C 1075.68 -1.95798 -3.76648 0
M  V30 11477 C 1073.58 -4.28505 -4.076 0
M  V30 11478 H 1072.51 -0.425987 -0.622135 0
M  V30 11479 H 1075.16 -1.52844 -1.01543 0
M  V30 11480 H 1073.55 -1.55447 -3.64214 0
M  V30 11481 H 1074.72 -4.03636 -2.22293 0
M  V30 11482 H 1073.04 -3.5685 -2.14586 0
M  V30 11483 H 1075.63 -2.51359 -4.71935 0
M  V30 11484 H 1075.98 -0.934455 -4.05677 0
M  V30 11485 H 1076.51 -2.38965 -3.18026 0
M  V30 11486 H 1073.25 -5.31433 -3.83744 0
M  V30 11487 H 1072.77 -3.80125 -4.63966 0
M  V30 11488 H 1074.45 -4.3836 -4.75867 0
M  V30 11489 N 1074.58 1.12322 -1.10551 0
M  V30 11490 C 1075.82 1.84333 -0.859826 0
M  V30 11491 C 1076.18 1.82539 0.608052 0
M  V30 11492 O 1075.47 1.26086 1.44267 0
M  V30 11493 C 1075.67 3.31177 -1.34375 0
M  V30 11494 C 1075.5 3.47272 -2.85714 0
M  V30 11495 C 1074.27 3.60837 -3.5373 0
M  V30 11496 C 1076.46 3.42336 -3.83811 0
M  V30 11497 N 1074.45 3.65309 -4.93378 0
M  V30 11498 C 1075.82 3.53318 -5.09477 0
M  V30 11499 C 1077.87 3.25809 -3.76501 0
M  V30 11500 C 1076.57 3.49477 -6.28695 0
M  V30 11501 C 1078.6 3.23282 -4.9522 0
M  V30 11502 C 1077.96 3.34826 -6.19735 0
M  V30 11503 H 1074.06 0.690186 -0.367651 0
M  V30 11504 H 1076.65 1.34463 -1.40811 0
M  V30 11505 H 1074.82 3.79585 -0.822767 0
M  V30 11506 H 1076.55 3.91051 -1.04217 0
M  V30 11507 H 1073.3 3.63005 -3.04178 0
M  V30 11508 H 1073.73 3.71207 -5.66157 0
M  V30 11509 H 1078.37 3.15777 -2.81149 0
M  V30 11510 H 1076.09 3.5828 -7.24335 0
M  V30 11511 H 1079.67 3.11674 -4.91274 0
M  V30 11512 H 1078.55 3.32847 -7.10058 0
M  V30 11513 N 1076.06 0.894434 1.2976 0
M  V30 11514 C 1076.99 0.325525 2.26877 0
M  V30 11515 C 1078 -0.525218 1.54095 0
M  V30 11516 O 1079.19 -0.343231 1.75169 0
M  V30 11517 C 1076.29 -0.554952 3.34325 0
M  V30 11518 C 1075.46 0.268868 4.36573 0
M  V30 11519 C 1074.52 -0.543601 5.23385 0
M  V30 11520 O 1073.55 0.0370454 5.69188 0
M  V30 11521 N 1074.75 -1.85079 5.50205 0
M  V30 11522 H 1077.52 1.16021 2.76332 0
M  V30 11523 H 1075.08 0.758382 1.43039 0
M  V30 11524 H 1077.07 -1.10476 3.89329 0
M  V30 11525 H 1075.64 -1.29031 2.84727 0
M  V30 11526 H 1074.86 1.0001 3.81302 0
M  V30 11527 H 1076.15 0.833248 5.01931 0
M  V30 11528 H 1075.54 -2.34533 5.14792 0
M  V30 11529 H 1074.1 -2.34784 6.08046 0
M  V30 11530 N 1077.53 -1.43282 0.656365 0
M  V30 11531 C 1078.78 -2.00996 0.168354 0
M  V30 11532 C 1079.1 -1.52408 -1.22601 0
M  V30 11533 O 1080.3 -2.02417 -1.80941 0
M  V30 11534 C 1078.76 -3.5903 0.250161 0
M  V30 11535 C 1078.37 -4.1661 1.64742 0
M  V30 11536 C 1080.11 -4.24118 -0.180084 0
M  V30 11537 C 1078.02 -5.66948 1.68299 0
M  V30 11538 H 1076.95 -0.751674 0.0591769 0
M  V30 11539 H 1079.6 -1.64216 0.818859 0
M  V30 11540 H 1077.98 -3.93226 -0.467908 0
M  V30 11541 H 1079.15 -3.93908 2.3911 0
M  V30 11542 H 1077.47 -3.63905 2.02391 0
M  V30 11543 H 1080.07 -5.34419 -0.173401 0
M  V30 11544 H 1080.41 -3.98264 -1.21208 0
M  V30 11545 H 1080.94 -3.94816 0.486343 0
M  V30 11546 H 1077.68 -5.97573 2.69419 0
M  V30 11547 H 1077.2 -5.91697 0.98261 0
M  V30 11548 H 1078.88 -6.31041 1.42813 0
M  V30 11549 N 1079.01 -0.398486 -1.52479 0
M  V30 11550 C 1080.26 0.181019 -2.0199 0
M  V30 11551 C 1080.59 1.45691 -1.28405 0
M  V30 11552 O 1079.87 1.90607 -0.387207 0
M  V30 11553 C 1080.15 0.439587 -3.57407 0
M  V30 11554 C 1080 -0.85223 -4.41653 0
M  V30 11555 C 1081.32 1.2263 -4.2267 0
M  V30 11556 H 1078.44 0.0643164 -0.734188 0
M  V30 11557 H 1081.08 -0.52986 -1.82462 0
M  V30 11558 H 1079.23 1.04516 -3.74177 0
M  V30 11559 H 1080.91 -1.48879 -4.36615 0
M  V30 11560 H 1079.15 -1.46555 -4.08294 0
M  V30 11561 H 1079.82 -0.625839 -5.48441 0
M  V30 11562 H 1082.3 0.713722 -4.09933 0
M  V30 11563 H 1081.17 1.37596 -5.31374 0
M  V30 11564 H 1081.43 2.24403 -3.80914 0
M  V30 11565 N 1080.49 1.57075 -0.12858 0
M  V30 11566 C 1081.77 1.87075 0.571162 0
M  V30 11567 C 1082.15 1.03141 1.84188 0
M  V30 11568 O 1081.5 0.113001 2.2822 0
M  V30 11569 C 1081.71 3.3838 0.854383 0
M  V30 11570 C 1083.05 4.07194 1.20326 0
M  V30 11571 O 1084.08 3.43454 0.944338 0
M  V30 11572 O 1082.94 5.19725 1.68963 0
M  V30 11573 H 1080.03 0.774764 0.289258 0
M  V30 11574 H 1082.58 1.68908 -0.163806 0
M  V30 11575 H 1081.35 3.91273 -0.0456925 0
M  V30 11576 H 1080.97 3.62012 1.64418 0
M  V30 11577 N 1081.97 -0.145205 1.5693 0
M  V30 11578 C 1083.38 -0.705089 1.72874 0
M  V30 11579 C 1083.73 -1.81577 0.743261 0
M  V30 11580 O 1082.86 -2.16214 -0.0897153 0
M  V30 11581 C 1083.45 -1.28578 3.13454 0
M  V30 11582 C 1082.01 -1.79221 3.30994 0
M  V30 11583 C 1081.16 -0.681392 2.68798 0
M  V30 11584 H 1084.11 0.0804798 1.58496 0
M  V30 11585 H 1084.13 -2.15558 3.13552 0
M  V30 11586 H 1083.64 -0.477186 3.85155 0
M  V30 11587 H 1081.74 -2.62642 2.64292 0
M  V30 11588 H 1081.86 -1.91969 4.38959 0
M  V30 11589 H 1080.22 -1.10847 2.29314 0
M  V30 11590 H 1081 0.115786 3.43105 0
M  V30 11591 N 1083.45 -1.52049 -0.414609 0
M  V30 11592 C 1084.38 -1.77956 -1.51175 0
M  V30 11593 C 1085.36 -0.630282 -1.57992 0
M  V30 11594 O 1086.54 -0.875324 -1.73354 0
M  V30 11595 C 1083.67 -1.92527 -2.89051 0
M  V30 11596 C 1082.63 -3.08096 -2.97087 0
M  V30 11597 C 1081.95 -3.07882 -4.37164 0
M  V30 11598 C 1083.25 -4.47656 -2.69075 0
M  V30 11599 H 1084.95 -2.69827 -1.29746 0
M  V30 11600 H 1082.49 -1.29839 -0.62273 0
M  V30 11601 H 1084.45 -2.09234 -3.65786 0
M  V30 11602 H 1083.17 -0.973235 -3.11762 0
M  V30 11603 H 1081.83 -2.91131 -2.22797 0
M  V30 11604 H 1081.48 -2.10411 -4.56877 0
M  V30 11605 H 1081.18 -3.85501 -4.43467 0
M  V30 11606 H 1082.7 -3.26712 -5.15841 0
M  V30 11607 H 1084.12 -4.64855 -3.35534 0
M  V30 11608 H 1082.51 -5.27151 -2.8676 0
M  V30 11609 H 1083.58 -4.56129 -1.64544 0
M  V30 11610 N 1084.93 0.6715 -1.42579 0
M  V30 11611 C 1085.88 1.77767 -1.42769 0
M  V30 11612 C 1086.86 1.58106 -0.298568 0
M  V30 11613 O 1088.05 1.68528 -0.541037 0
M  V30 11614 C 1085.18 3.16248 -1.33574 0
M  V30 11615 C 1084.27 3.41521 -2.51445 0
M  V30 11616 N 1084.66 3.37361 -3.76857 0
M  V30 11617 C 1082.96 3.7217 -2.45776 0
M  V30 11618 C 1083.66 3.62209 -4.5517 0
M  V30 11619 N 1082.63 3.83134 -3.85628 0
M  V30 11620 H 1086.43 1.72949 -2.37626 0
M  V30 11621 H 1083.95 0.872467 -1.36974 0
M  V30 11622 H 1085.95 3.9552 -1.31793 0
M  V30 11623 H 1084.61 3.22261 -0.397223 0
M  V30 11624 H 1085.62 3.17187 -4.09406 0
M  V30 11625 H 1082.29 3.85408 -1.6052 0
M  V30 11626 H 1083.68 3.64925 -5.64162 0
M  V30 11627 N 1086.4 1.28806 0.908124 0
M  V30 11628 C 1087.82 1.06634 1.18749 0
M  V30 11629 C 1088.02 -0.187729 2.00624 0
M  V30 11630 O 1087.08 -0.88784 2.36376 0
M  V30 11631 C 1088.39 2.31703 1.91661 0
M  V30 11632 C 1089.94 2.36939 2.04521 0
M  V30 11633 C 1090.41 3.61789 2.80843 0
M  V30 11634 N 1091.9 3.62462 2.88402 0
M  V30 11635 C 1092.64 4.55746 3.47971 0
M  V30 11636 N 1092.13 5.59353 4.08774 0
M  V30 11637 N 1093.93 4.43331 3.45564 0
M  V30 11638 H 1086.08 2.09299 0.36164 0
M  V30 11639 H 1088.34 0.921479 0.222668 0
M  V30 11640 H 1088.05 3.23096 1.38931 0
M  V30 11641 H 1087.92 2.38556 2.92183 0
M  V30 11642 H 1090.31 1.4604 2.5643 0
M  V30 11643 H 1090.39 2.34077 1.03159 0
M  V30 11644 H 1090.03 4.53035 2.29612 0
M  V30 11645 H 1089.96 3.61907 3.82532 0
M  V30 11646 H 1092.45 2.87544 2.45208 0
M  V30 11647 H 1092.77 6.26668 4.52224 0
M  V30 11648 H 1091.11 5.63173 4.07261 0
M  V30 11649 H 1094.3 3.61587 2.97276 0
M  V30 11650 H 1094.48 5.16216 3.91695 0
M  V30 11651 N 1087.88 -1.11734 1.11145 0
M  V30 11652 C 1089.11 -1.87215 0.880811 0
M  V30 11653 C 1089.52 -1.80016 -0.569195 0
M  V30 11654 O 1088.88 -1.17926 -1.39283 0
M  V30 11655 C 1088.93 -3.36146 1.32998 0
M  V30 11656 O 1088.65 -3.43187 2.72313 0
M  V30 11657 C 1090.15 -4.28542 1.1343 0
M  V30 11658 H 1087.37 -0.592123 0.315645 0
M  V30 11659 H 1089.92 -1.41335 1.478 0
M  V30 11660 H 1088.07 -3.79542 0.776308 0
M  V30 11661 H 1088.49 -4.359 2.91705 0
M  V30 11662 H 1089.96 -5.31295 1.49764 0
M  V30 11663 H 1090.44 -4.39138 0.0735859 0
M  V30 11664 H 1091.04 -3.90935 1.67481 0
M  V30 11665 N 1089.36 -0.901303 -1.29284 0
M  V30 11666 C 1090.61 -0.52401 -1.94774 0
M  V30 11667 C 1090.92 0.934645 -1.71825 0
M  V30 11668 O 1092.13 1.41953 -2.31434 0
M  V30 11669 C 1090.58 -0.886262 -3.48817 0
M  V30 11670 C 1090.19 -2.3638 -3.80564 0
M  V30 11671 C 1091.94 -0.578955 -4.20533 0
M  V30 11672 C 1089.84 -2.66682 -5.27858 0
M  V30 11673 H 1088.77 -0.192244 -0.72908 0
M  V30 11674 H 1091.42 -1.09852 -1.46986 0
M  V30 11675 H 1089.81 -0.240666 -3.95268 0
M  V30 11676 H 1090.98 -3.05508 -3.44966 0
M  V30 11677 H 1089.29 -2.64029 -3.2199 0
M  V30 11678 H 1091.89 -0.782185 -5.28948 0
M  V30 11679 H 1092.23 0.482605 -4.13493 0
M  V30 11680 H 1092.77 -1.18246 -3.79819 0
M  V30 11681 H 1089.51 -3.71643 -5.39965 0
M  V30 11682 H 1089.03 -2.02179 -5.64698 0
M  V30 11683 H 1090.71 -2.53033 -5.95469 0
M  V30 11684 N 1090.84 1.42931 -0.663954 0
M  V30 11685 C 1091.75 2.3459 0.0214234 0
M  V30 11686 C 1092.76 1.54487 0.800611 0
M  V30 11687 O 1093.94 1.87098 0.74541 0
M  V30 11688 C 1091 3.32896 0.968556 0
M  V30 11689 C 1090.07 4.28901 0.185108 0
M  V30 11690 C 1089.3 5.2251 1.08713 0
M  V30 11691 O 1089.52 5.20795 2.32655 0
M  V30 11692 O 1088.46 5.99347 0.553758 0
M  V30 11693 H 1092.28 2.94714 -0.733308 0
M  V30 11694 H 1089.87 1.43252 -0.424159 0
M  V30 11695 H 1091.75 3.93318 1.51257 0
M  V30 11696 H 1090.42 2.75261 1.70333 0
M  V30 11697 H 1089.33 3.71926 -0.402752 0
M  V30 11698 H 1090.66 4.89547 -0.510319 0
M  V30 11699 N 1092.32 0.406567 1.52266 0
M  V30 11700 C 1093.54 -0.169624 2.06204 0
M  V30 11701 C 1093.96 -1.39076 1.27684 0
M  V30 11702 O 1093.32 -1.79528 0.328023 0
M  V30 11703 C 1093.37 -0.522611 3.57702 0
M  V30 11704 O 1093.09 0.650028 4.33251 0
M  V30 11705 C 1094.59 -1.15281 4.28048 0
M  V30 11706 H 1091.81 -0.0215191 0.670655 0
M  V30 11707 H 1094.35 0.576781 1.96198 0
M  V30 11708 H 1092.51 -1.21891 3.67725 0
M  V30 11709 H 1092.92 0.355989 5.23291 0
M  V30 11710 H 1094.4 -1.35002 5.35237 0
M  V30 11711 H 1094.87 -2.12517 3.84361 0
M  V30 11712 H 1095.48 -0.496786 4.22389 0
M  V30 11713 N 1093.79 -1.57004 0.136909 0
M  V30 11714 C 1095.04 -1.95797 -0.516711 0
M  V30 11715 C 1095.37 -1.02123 -1.65533 0
M  V30 11716 O 1094.62 -0.0484835 -1.9564 0
M  V30 11717 C 1094.92 -3.40903 -1.07331 0
M  V30 11718 C 1094.59 -4.50867 -0.0541941 0
M  V30 11719 C 1093.25 -4.80669 0.225988 0
M  V30 11720 C 1095.6 -5.17264 0.639361 0
M  V30 11721 C 1092.93 -5.74177 1.2057 0
M  V30 11722 C 1095.28 -6.11827 1.60783 0
M  V30 11723 C 1093.95 -6.40012 1.89581 0
M  V30 11724 H 1093.22 -0.716471 -0.189078 0
M  V30 11725 H 1095.86 -1.90213 0.221605 0
M  V30 11726 H 1094.17 -3.43268 -1.88876 0
M  V30 11727 H 1095.87 -3.6824 -1.58745 0
M  V30 11728 H 1092.46 -4.27666 -0.282754 0
M  V30 11729 H 1096.64 -4.9438 0.436085 0
M  V30 11730 H 1091.9 -5.94312 1.43538 0
M  V30 11731 H 1096.07 -6.62354 2.15081 0
M  V30 11732 H 1093.7 -7.12274 2.65649 0
M  V30 11733 N 1095.27 0.136881 -1.57004 0
M  V30 11734 C 1096.24 1.15267 -1.98106 0
M  V30 11735 C 1097.24 1.35305 -0.868856 0
M  V30 11736 O 1098.43 1.32126 -1.13527 0
M  V30 11737 C 1095.56 2.51092 -2.30577 0
M  V30 11738 H 1096.75 0.799821 -2.89038 0
M  V30 11739 H 1094.3 0.380576 -1.51596 0
M  V30 11740 H 1095.04 2.9133 -1.42469 0
M  V30 11741 H 1094.82 2.37906 -3.11678 0
M  V30 11742 H 1096.31 3.24232 -2.63179 0
M  V30 11743 N 1096.75 1.52266 0.40654 0
M  V30 11744 C 1097.7 1.75794 1.4955 0
M  V30 11745 C 1098.67 0.600472 1.54866 0
M  V30 11746 O 1099.85 0.838305 1.71397 0
M  V30 11747 C 1096.99 1.91682 2.86971 0
M  V30 11748 C 1096.11 3.19337 2.90943 0
M  V30 11749 C 1095.24 3.25641 4.1968 0
M  V30 11750 C 1094.28 4.47488 4.17637 0
M  V30 11751 N 1093.42 4.51171 5.37949 0
M  V30 11752 H 1098.26 2.68733 1.28789 0
M  V30 11753 H 1095.79 1.33157 0.625102 0
M  V30 11754 H 1097.75 1.98877 3.66748 0
M  V30 11755 H 1096.38 1.02121 3.06221 0
M  V30 11756 H 1095.43 3.21301 2.03642 0
M  V30 11757 H 1096.75 4.09153 2.85299 0
M  V30 11758 H 1095.9 3.31922 5.07851 0
M  V30 11759 H 1094.64 2.33769 4.28023 0
M  V30 11760 H 1093.64 4.41351 3.27856 0
M  V30 11761 H 1094.87 5.40659 4.10932 0
M  V30 11762 H 1092.81 3.62182 5.46955 0
M  V30 11763 H 1092.73 5.34835 5.3431 0
M  V30 11764 H 1094 4.61685 6.28066 0
M  V30 11765 N 1098.23 -0.663929 1.42933 0
M  V30 11766 C 1099.14 -1.80643 1.49683 0
M  V30 11767 C 1100.15 -1.69694 0.38472 0
M  V30 11768 O 1101.33 -1.91052 0.637256 0
M  V30 11769 C 1098.4 -3.16858 1.4072 0
M  V30 11770 C 1097.46 -3.39684 2.62514 0
M  V30 11771 C 1096.69 -4.69399 2.53969 0
M  V30 11772 O 1096.91 -5.48037 1.58152 0
M  V30 11773 O 1095.85 -4.93709 3.44289 0
M  V30 11774 H 1099.67 -1.77903 2.46138 0
M  V30 11775 H 1097.26 -0.821059 1.24816 0
M  V30 11776 H 1099.14 -3.9812 1.38124 0
M  V30 11777 H 1097.81 -3.20211 0.473954 0
M  V30 11778 H 1096.72 -2.58227 2.70684 0
M  V30 11779 H 1098.05 -3.41169 3.54774 0
M  V30 11780 N 1099.71 -1.29285 -0.901281 0
M  V30 11781 C 1100.62 -1.16161 -2.03823 0
M  V30 11782 C 1101.63 -0.0852298 -1.73791 0
M  V30 11783 O 1102.81 -0.29699 -1.99198 0
M  V30 11784 C 1099.87 -0.837586 -3.3643 0
M  V30 11785 C 1098.93 -1.99764 -3.7999 0
M  V30 11786 C 1098.17 -1.68898 -5.0627 0
M  V30 11787 O 1098.39 -0.609177 -5.67138 0
M  V30 11788 O 1097.32 -2.53648 -5.45845 0
M  V30 11789 H 1101.15 -2.11635 -2.17817 0
M  V30 11790 H 1098.74 -1.08722 -1.02468 0
M  V30 11791 H 1100.62 -0.671376 -4.16017 0
M  V30 11792 H 1099.29 0.0873811 -3.23582 0
M  V30 11793 H 1098.2 -2.21908 -3.01177 0
M  V30 11794 H 1099.53 -2.90376 -3.9742 0
M  V30 11795 N 1101.18 1.11143 -1.11736 0
M  V30 11796 C 1102.6 1.64462 -0.883693 0
M  V30 11797 C 1102.95 1.87324 0.583448 0
M  V30 11798 O 1102.07 1.60975 1.44623 0
M  V30 11799 C 1102.67 2.98765 -1.59764 0
M  V30 11800 C 1101.23 3.4898 -1.41032 0
M  V30 11801 C 1100.37 2.23729 -1.63831 0
M  V30 11802 H 1103.32 0.947415 -1.27317 0
M  V30 11803 H 1103.34 3.65885 -1.04443 0
M  V30 11804 H 1102.86 2.82094 -2.66542 0
M  V30 11805 H 1100.96 3.7081 -0.364781 0
M  V30 11806 H 1101.07 4.27571 -2.16148 0
M  V30 11807 H 1099.43 2.31507 -1.06191 0
M  V30 11808 H 1100.22 2.09597 -2.7189 0
M  V30 11809 N 1102.66 0.908147 1.28804 0
M  V30 11810 C 1103.61 0.390734 2.27468 0
M  V30 11811 C 1104.58 -0.531765 1.57358 0
M  V30 11812 O 1105.76 -0.455177 1.85291 0
M  V30 11813 C 1102.9 -0.368159 3.43131 0
M  V30 11814 C 1102.02 0.586202 4.28004 0
M  V30 11815 C 1101.15 -0.190581 5.30858 0
M  V30 11816 C 1100.19 0.757758 6.07391 0
M  V30 11817 N 1099.33 0.0148488 7.02098 0
M  V30 11818 H 1104.17 1.23717 2.71105 0
M  V30 11819 H 1101.71 0.621382 1.33331 0
M  V30 11820 H 1103.66 -0.824289 4.08976 0
M  V30 11821 H 1102.29 -1.17898 3.00499 0
M  V30 11822 H 1101.35 1.16086 3.62254 0
M  V30 11823 H 1102.66 1.31177 4.81242 0
M  V30 11824 H 1101.81 -0.707528 6.0256 0
M  V30 11825 H 1100.55 -0.949234 4.78373 0
M  V30 11826 H 1099.56 1.28613 5.34545 0
M  V30 11827 H 1100.78 1.51588 6.61965 0
M  V30 11828 H 1098.73 -0.725916 6.51971 0
M  V30 11829 H 1098.64 0.680347 7.52932 0
M  V30 11830 H 1099.91 -0.482086 7.78008 0
M  V30 11831 N 1104.14 -1.42577 0.671525 0
M  V30 11832 C 1105.05 -2.34598 -0.00898225 0
M  V30 11833 C 1106.07 -1.54909 -0.792407 0
M  V30 11834 O 1107.24 -1.87491 -0.735477 0
M  V30 11835 C 1104.31 -3.33405 -0.950888 0
M  V30 11836 C 1103.37 -4.28993 -0.16236 0
M  V30 11837 C 1102.6 -5.2308 -1.0594 0
M  V30 11838 O 1102.82 -5.22022 -2.2989 0
M  V30 11839 O 1101.76 -5.99632 -0.521966 0
M  V30 11840 H 1105.58 -2.94321 0.748927 0
M  V30 11841 H 1103.17 -1.43025 0.43175 0
M  V30 11842 H 1105.05 -3.94115 -1.49169 0
M  V30 11843 H 1103.73 -2.7616 -1.68871 0
M  V30 11844 H 1102.63 -3.71707 0.42247 0
M  V30 11845 H 1103.97 -4.8927 0.536274 0
M  V30 11846 N 1105.62 -0.414636 -1.52048 0
M  V30 11847 C 1106.9 0.218172 -1.94379 0
M  V30 11848 C 1107.28 1.62133 -1.35189 0
M  V30 11849 O 1106.62 2.22271 -0.529877 0
M  V30 11850 C 1106.83 0.218932 -3.48313 0
M  V30 11851 C 1108.18 0.435604 -4.2236 0
M  V30 11852 O 1109.21 0.298049 -3.54951 0
M  V30 11853 O 1108.06 0.707217 -5.41905 0
M  V30 11854 H 1105.16 0.142173 -0.814688 0
M  V30 11855 H 1107.7 -0.470977 -1.63033 0
M  V30 11856 H 1106.48 -0.76292 -3.83791 0
M  V30 11857 H 1106.1 0.951949 -3.86036 0
M  V30 11858 N 1107.1 1.56929 -0.145233 0
M  V30 11859 C 1108.35 1.95243 0.506273 0
M  V30 11860 C 1108.66 1.0325 1.66129 0
M  V30 11861 O 1109.86 1.31135 2.37731 0
M  V30 11862 C 1108.32 3.47079 0.952042 0
M  V30 11863 C 1107.93 4.47654 -0.175947 0
M  V30 11864 C 1109.67 3.94263 1.57344 0
M  V30 11865 C 1107.58 5.90698 0.287993 0
M  V30 11866 H 1106.51 0.728906 0.192903 0
M  V30 11867 H 1109.16 1.82062 -0.229295 0
M  V30 11868 H 1107.54 3.55587 1.74282 0
M  V30 11869 H 1108.72 4.50841 -0.952848 0
M  V30 11870 H 1107.03 4.10377 -0.70564 0
M  V30 11871 H 1109.63 4.9857 1.93214 0
M  V30 11872 H 1109.97 3.35714 2.46174 0
M  V30 11873 H 1110.5 3.88665 0.847593 0
M  V30 11874 H 1107.24 6.53061 -0.564889 0
M  V30 11875 H 1106.76 5.90876 1.03081 0
M  V30 11876 H 1108.44 6.42747 0.740586 0
M  V30 11877 N 1108.58 -0.128553 1.57075 0
M  V30 11878 C 1109.85 -0.867766 1.75297 0
M  V30 11879 C 1110.23 -1.98508 0.718176 0
M  V30 11880 O 1109.58 -2.2702 -0.259616 0
M  V30 11881 C 1109.79 -1.39326 3.19983 0
M  V30 11882 C 1111.14 -1.84939 3.82208 0
M  V30 11883 O 1112.16 -1.49027 3.23527 0
M  V30 11884 O 1111.02 -2.51227 4.85332 0
M  V30 11885 H 1108.12 -0.411393 0.717415 0
M  V30 11886 H 1110.66 -0.113038 1.69323 0
M  V30 11887 H 1109.43 -0.591172 3.86809 0
M  V30 11888 H 1109.06 -2.21097 3.30457 0
M  V30 11889 N 1110.05 -1.5248 -0.398459 0
M  V30 11890 C 1111.3 -1.67309 -1.1461 0
M  V30 11891 C 1111.63 -0.407095 -1.89885 0
M  V30 11892 O 1110.91 0.594834 -1.85181 0
M  V30 11893 C 1111.19 -2.90204 -2.13198 0
M  V30 11894 C 1111.04 -4.26881 -1.4175 0
M  V30 11895 C 1112.36 -3.08634 -3.13741 0
M  V30 11896 H 1109.48 -0.608853 -0.415292 0
M  V30 11897 H 1112.12 -1.85057 -0.430573 0
M  V30 11898 H 1110.27 -2.75204 -2.74218 0
M  V30 11899 H 1111.95 -4.53631 -0.837676 0
M  V30 11900 H 1110.19 -4.27793 -0.719387 0
M  V30 11901 H 1110.86 -5.08939 -2.1374 0
M  V30 11902 H 1113.34 -3.22603 -2.62805 0
M  V30 11903 H 1112.21 -3.96117 -3.79977 0
M  V30 11904 H 1112.47 -2.22425 -3.82073 0
M  V30 11905 N 1111.53 0.65634 -1.43283 0
M  V30 11906 C 1112.76 1.44906 -1.48382 0
M  V30 11907 C 1113.18 1.87823 -0.101993 0
M  V30 11908 O 1112.54 1.57178 0.903597 0
M  V30 11909 C 1112.59 2.66231 -2.43215 0
M  V30 11910 O 1111.69 3.65176 -1.91625 0
M  V30 11911 H 1111.03 0.434601 -0.502014 0
M  V30 11912 H 1113.56 0.803429 -1.88165 0
M  V30 11913 H 1113.57 3.14083 -2.60414 0
M  V30 11914 H 1112.25 2.34336 -3.43598 0
M  V30 11915 H 1110.82 3.24302 -1.84072 0
M  V30 11916 N 1113.01 1.29761 0.894412 0
M  V30 11917 C 1114.26 1.17409 1.64006 0
M  V30 11918 C 1114.57 -0.272355 1.93695 0
M  V30 11919 O 1115.78 -0.517269 2.66527 0
M  V30 11920 C 1114.23 2.05379 2.95546 0
M  V30 11921 C 1113.84 3.54878 2.73433 0
M  V30 11922 C 1115.59 2.01765 3.73485 0
M  V30 11923 C 1113.49 4.34935 4.00731 0
M  V30 11924 H 1112.42 0.43583 0.615279 0
M  V30 11925 H 1115.07 1.5444 0.990983 0
M  V30 11926 H 1113.46 1.61222 3.61695 0
M  V30 11927 H 1114.63 4.07122 2.15844 0
M  V30 11928 H 1112.94 3.60218 2.08882 0
M  V30 11929 H 1115.54 2.58835 4.67877 0
M  V30 11930 H 1115.88 0.998876 4.04139 0
M  V30 11931 H 1116.42 2.43994 3.14184 0
M  V30 11932 H 1113.16 5.3747 3.75241 0
M  V30 11933 H 1112.68 3.87458 4.5786 0
M  V30 11934 H 1114.36 4.45875 4.68833 0
M  V30 11935 N 1114.49 -1.10549 1.12324 0
M  V30 11936 C 1115.42 -2.18911 0.812416 0
M  V30 11937 C 1116.4 -1.68628 -0.22327 0
M  V30 11938 O 1117.58 -1.94015 -0.0847184 0
M  V30 11939 C 1114.71 -3.46288 0.264947 0
M  V30 11940 C 1113.67 -4.09838 1.23356 0
M  V30 11941 C 1112.99 -5.31901 0.546374 0
M  V30 11942 C 1114.29 -4.53686 2.58778 0
M  V30 11943 H 1115.99 -2.45169 1.71851 0
M  V30 11944 H 1113.53 -1.17834 0.827715 0
M  V30 11945 H 1115.49 -4.21385 0.0352364 0
M  V30 11946 H 1114.21 -3.19517 -0.676479 0
M  V30 11947 H 1112.87 -3.36746 1.44906 0
M  V30 11948 H 1112.52 -5.01406 -0.400157 0
M  V30 11949 H 1112.22 -5.75372 1.19249 0
M  V30 11950 H 1113.74 -6.09731 0.325673 0
M  V30 11951 H 1115.16 -5.20063 2.41263 0
M  V30 11952 H 1113.55 -5.08003 3.19457 0
M  V30 11953 H 1114.62 -3.66665 3.17309 0
M  V30 11954 N 1115.97 -0.914965 -1.28321 0
M  V30 11955 C 1117.38 -0.59512 -1.76961 0
M  V30 11956 C 1117.73 0.88958 -1.74874 0
M  V30 11957 O 1116.85 1.6959 -1.34418 0
M  V30 11958 C 1117.45 -1.07353 -3.21342 0
M  V30 11959 C 1116.01 -0.804577 -3.677 0
M  V30 11960 C 1115.15 -1.23955 -2.48053 0
M  V30 11961 H 1118.1 -1.0961 -1.14767 0
M  V30 11962 H 1118.13 -0.415506 -3.78225 0
M  V30 11963 H 1117.64 -2.15413 -3.22829 0
M  V30 11964 H 1115.74 0.26277 -3.71672 0
M  V30 11965 H 1115.85 -1.41317 -4.57784 0
M  V30 11966 H 1114.22 -0.658274 -2.46046 0
M  V30 11967 H 1115 -2.32853 -2.52258 0
M  V30 11968 N 1117.44 1.42219 -0.679077 0
M  V30 11969 C 1118.38 2.29172 0.035583 0
M  V30 11970 C 1119.39 1.43909 0.761183 0
M  V30 11971 O 1120.58 1.67584 0.61463 0
M  V30 11972 C 1117.68 3.21426 1.07419 0
M  V30 11973 C 1116.85 4.35364 0.421547 0
M  V30 11974 C 1115.91 5.08307 1.36051 0
M  V30 11975 O 1114.94 5.62678 0.859186 0
M  V30 11976 N 1116.14 5.14222 2.69362 0
M  V30 11977 H 1118.9 2.91147 -0.710865 0
M  V30 11978 H 1116.46 1.53192 -0.523821 0
M  V30 11979 H 1118.46 3.67091 1.70371 0
M  V30 11980 H 1117.03 2.60873 1.72233 0
M  V30 11981 H 1116.25 3.9229 -0.387559 0
M  V30 11982 H 1117.53 5.08789 -0.0329421 0
M  V30 11983 H 1116.93 4.71467 3.12627 0
M  V30 11984 H 1115.49 5.63519 3.27551 0
M  V30 11985 N 1118.92 0.422693 1.51826 0
M  V30 11986 C 1119.85 -0.386913 2.30272 0
M  V30 11987 C 1120.83 -1.03411 1.35056 0
M  V30 11988 O 1122.02 -1.04055 1.6397 0
M  V30 11989 C 1119.15 -1.49645 3.13407 0
M  V30 11990 C 1118.1 -0.973532 4.16781 0
M  V30 11991 C 1117.43 -2.1777 4.88344 0
M  V30 11992 C 1118.73 -0.0181194 5.22297 0
M  V30 11993 H 1120.42 0.267697 2.98201 0
M  V30 11994 H 1117.97 0.130186 1.4341 0
M  V30 11995 H 1119.92 -2.06993 3.67059 0
M  V30 11996 H 1118.64 -2.17914 2.43272 0
M  V30 11997 H 1117.3 -0.42237 3.64159 0
M  V30 11998 H 1116.95 -2.84625 4.14726 0
M  V30 11999 H 1116.65 -1.83427 5.58237 0
M  V30 12000 H 1118.18 -2.75699 5.44814 0
M  V30 12001 H 1119.59 -0.500822 5.71108 0
M  V30 12002 H 1117.99 0.237163 5.99631 0
M  V30 12003 H 1119.06 0.923065 4.76033 0
M  V30 12004 N 1120.4 -1.5685 0.153553 0
M  V30 12005 C 1121.31 -2.20664 -0.796528 0
M  V30 12006 C 1122.33 -1.19289 -1.26674 0
M  V30 12007 O 1123.5 -1.51889 -1.32256 0
M  V30 12008 C 1120.57 -2.82088 -2.01561 0
M  V30 12009 C 1119.63 -3.9861 -1.59401 0
M  V30 12010 C 1118.86 -4.57096 -2.75498 0
M  V30 12011 O 1119.08 -4.14462 -3.9189 0
M  V30 12012 O 1118.02 -5.47254 -2.50593 0
M  V30 12013 H 1121.84 -3.02376 -0.283282 0
M  V30 12014 H 1119.43 -1.49218 -0.0737927 0
M  V30 12015 H 1121.31 -3.21103 -2.72893 0
M  V30 12016 H 1119.99 -2.03385 -2.51826 0
M  V30 12017 H 1118.89 -3.64299 -0.850725 0
M  V30 12018 H 1120.23 -4.78853 -1.13845 0
M  V30 12019 N 1121.88 0.120221 -1.57141 0
M  V30 12020 C 1122.83 1.15332 -1.96679 0
M  V30 12021 C 1123.81 1.37134 -0.841607 0
M  V30 12022 O 1125 1.38247 -1.10529 0
M  V30 12023 C 1122.13 2.48021 -2.37361 0
M  V30 12024 C 1121.22 2.29699 -3.5651 0
M  V30 12025 N 1121.61 1.81186 -4.72234 0
M  V30 12026 C 1119.91 2.60359 -3.62118 0
M  V30 12027 C 1120.61 1.76542 -5.54263 0
M  V30 12028 N 1119.58 2.20843 -4.96719 0
M  V30 12029 H 1123.39 0.770763 -2.83613 0
M  V30 12030 H 1120.9 0.327979 -1.59054 0
M  V30 12031 H 1122.9 3.22739 -2.63903 0
M  V30 12032 H 1121.56 2.87036 -1.51791 0
M  V30 12033 H 1122.57 1.50751 -4.95474 0
M  V30 12034 H 1119.25 3.03067 -2.87152 0
M  V30 12035 H 1120.64 1.40298 -6.57089 0
M  V30 12036 N 1123.36 1.52689 0.390367 0
M  V30 12037 C 1124.6 1.69354 1.1445 0
M  V30 12038 C 1124.96 0.423677 1.87267 0
M  V30 12039 O 1126.16 0.466669 2.64718 0
M  V30 12040 C 1124.43 2.89356 2.0978 0
M  V30 12041 S 1125.99 3.26602 2.93047 0
M  V30 12042 H 1122.81 0.596162 0.387442 0
M  V30 12043 H 1125.41 1.90732 0.429119 0
M  V30 12044 H 1124.12 3.80003 1.55004 0
M  V30 12045 H 1123.65 2.70307 2.85828 0
M  V30 12046 H 1125.66 2.76683 4.11899 0
M  V30 12047 N 1124.83 -0.648732 1.43629 0
M  V30 12048 C 1126.06 -1.44117 1.49148 0
M  V30 12049 C 1126.48 -1.87767 0.111952 0
M  V30 12050 O 1125.84 -1.57655 -0.895249 0
M  V30 12051 C 1125.89 -2.64938 2.44623 0
M  V30 12052 O 1124.99 -3.64155 1.93559 0
M  V30 12053 H 1124.34 -0.431933 0.504312 0
M  V30 12054 H 1126.87 -0.793439 1.88589 0
M  V30 12055 H 1126.88 -3.12698 2.62076 0
M  V30 12056 H 1125.55 -2.3251 3.44836 0
M  V30 12057 H 1124.13 -3.23322 1.85789 0
M  V30 12058 N 1126.31 -1.30234 -0.887518 0
M  V30 12059 C 1127.54 -1.21955 -1.67755 0
M  V30 12060 C 1127.96 0.214701 -1.86871 0
M  V30 12061 O 1127.32 1.15459 -1.39782 0
M  V30 12062 C 1127.37 -1.95079 -3.03276 0
M  V30 12063 O 1126.47 -1.27615 -3.92158 0
M  V30 12064 H 1125.81 -0.421948 -0.512695 0
M  V30 12065 H 1128.34 -1.72011 -1.10785 0
M  V30 12066 H 1128.35 -2.04004 -3.53336 0
M  V30 12067 H 1127.03 -2.99392 -2.88682 0
M  V30 12068 H 1125.61 -1.27029 -3.50597 0
M  V30 12069 N 1127.79 1.09952 -1.12909 0
M  V30 12070 C 1129.21 1.34051 -0.866172 0
M  V30 12071 C 1129.41 1.95169 0.501125 0
M  V30 12072 O 1128.46 2.19458 1.24878 0
M  V30 12073 C 1129.78 2.25738 -1.98653 0
M  V30 12074 C 1131.32 2.39261 -2.01799 0
M  V30 12075 C 1131.8 3.3428 -3.13083 0
M  V30 12076 N 1133.29 3.41851 -3.12558 0
M  V30 12077 C 1134.02 4.15358 -3.95304 0
M  V30 12078 N 1133.52 4.91709 -4.88051 0
M  V30 12079 N 1135.31 4.11027 -3.83423 0
M  V30 12080 H 1127.46 0.686521 -2.00999 0
M  V30 12081 H 1129.73 0.364913 -0.874953 0
M  V30 12082 H 1129.43 1.88048 -2.97205 0
M  V30 12083 H 1129.31 3.26085 -1.89601 0
M  V30 12084 H 1131.69 2.76218 -1.03864 0
M  V30 12085 H 1131.78 1.38712 -2.14925 0
M  V30 12086 H 1131.42 2.98048 -4.11254 0
M  V30 12087 H 1131.35 4.34721 -2.97195 0
M  V30 12088 H 1133.84 2.87405 -2.45371 0
M  V30 12089 H 1134.15 5.45212 -5.47689 0
M  V30 12090 H 1132.5 4.90816 -4.92061 0
M  V30 12091 H 1135.69 3.50477 -3.10296 0
M  V30 12092 H 1135.86 4.68054 -4.4814 0
M  V30 12093 N 1129.27 0.921757 1.27833 0
M  V30 12094 C 1130.22 0.414838 2.27041 0
M  V30 12095 C 1131.19 -0.515045 1.57913 0
M  V30 12096 O 1132.37 -0.435499 1.85763 0
M  V30 12097 C 1129.51 -0.331744 3.43502 0
M  V30 12098 C 1128.62 0.631565 4.27358 0
M  V30 12099 C 1127.76 -0.134265 5.3103 0
M  V30 12100 C 1126.8 0.822138 6.06554 0
M  V30 12101 N 1125.93 0.0893149 7.02043 0
M  V30 12102 H 1130.77 1.26585 2.69778 0
M  V30 12103 H 1128.31 0.635488 1.32665 0
M  V30 12104 H 1130.27 -0.780866 4.09827 0
M  V30 12105 H 1128.9 -1.14704 3.01733 0
M  V30 12106 H 1127.95 1.19922 3.61003 0
M  V30 12107 H 1129.26 1.36274 4.79824 0
M  V30 12108 H 1128.42 -0.643579 6.03277 0
M  V30 12109 H 1127.16 -0.898443 4.79353 0
M  V30 12110 H 1126.16 1.34275 5.33151 0
M  V30 12111 H 1127.39 1.586 6.6032 0
M  V30 12112 H 1125.33 -0.656725 6.52704 0
M  V30 12113 H 1125.25 0.760167 7.52169 0
M  V30 12114 H 1126.52 -0.399541 7.78475 0
M  V30 12115 N 1130.75 -1.41857 0.686609 0
M  V30 12116 C 1131.68 -2.28174 -0.0347358 0
M  V30 12117 C 1132.66 -1.41732 -0.796928 0
M  V30 12118 O 1133.84 -1.71165 -0.789607 0
M  V30 12119 C 1130.97 -3.21801 -1.0565 0
M  V30 12120 C 1130.01 -4.24727 -0.388523 0
M  V30 12121 S 1130.85 -5.28508 0.862546 0
M  V30 12122 C 1132 -6.25701 -0.157849 0
M  V30 12123 H 1132.24 -2.89005 0.697381 0
M  V30 12124 H 1129.77 -1.46861 0.476562 0
M  V30 12125 H 1131.73 -3.76278 -1.64089 0
M  V30 12126 H 1130.39 -2.60082 -1.76114 0
M  V30 12127 H 1129.58 -4.90471 -1.15991 0
M  V30 12128 H 1129.18 -3.73799 0.122567 0
M  V30 12129 H 1131.48 -6.6987 -1.01393 0
M  V30 12130 H 1132.42 -7.06569 0.465437 0
M  V30 12131 H 1132.83 -5.62204 -0.508614 0
M  V30 12132 N 1132.22 -0.430739 -1.51599 0
M  V30 12133 C 1133.17 0.398482 -2.29161 0
M  V30 12134 C 1134.17 1.02676 -1.34737 0
M  V30 12135 O 1135.37 0.96248 -1.52106 0
M  V30 12136 H 1131.75 0.14731 -0.737431 0
M  V30 12137 H 1133.72 -0.276619 -2.97115 0
M  V30 12138 C 1132.47 1.49094 -3.14112 0
M  V30 12139 H 1131.79 1.01685 -3.86652 0
M  V30 12140 H 1133.23 2.04453 -3.7145 0
M  V30 12141 C 1131.69 2.47049 -2.29059 0
M  V30 12142 O 1132.22 3.51435 -1.94567 0
M  V30 12143 N 1130.43 2.17778 -1.92409 0
M  V30 12144 H 1129.97 1.3292 -2.20658 0
M  V30 12145 H 1129.93 2.8356 -1.35798 0
M  V30 12146 N 1133.7 1.56767 -0.161869 0
M  V30 12147 C 1134.93 2.00964 0.492027 0
M  V30 12148 C 1135.35 1.04206 1.57437 0
M  V30 12149 O 1134.7 0.0413998 1.82453 0
M  V30 12150 C 1134.75 3.4502 1.07904 0
M  V30 12151 O 1134.47 4.38082 0.0399085 0
M  V30 12152 C 1135.98 4.04572 1.81209 0
M  V30 12153 H 1133.2 0.658911 0.126797 0
M  V30 12154 H 1135.74 2.0283 -0.260824 0
M  V30 12155 H 1133.89 3.43959 1.78243 0
M  V30 12156 H 1134.31 5.22372 0.471985 0
M  V30 12157 H 1135.78 5.07321 2.17554 0
M  V30 12158 H 1136.26 3.46126 2.70359 0
M  V30 12159 H 1136.87 4.09307 1.15534 0
M  V30 12160 N 1135.18 -0.111886 1.57202 0
M  V30 12161 C 1136.43 -0.8146 1.86376 0
M  V30 12162 C 1136.78 -1.77156 0.750558 0
M  V30 12163 O 1136.07 -1.89977 -0.248867 0
M  V30 12164 C 1136.27 -1.59644 3.19763 0
M  V30 12165 C 1136.1 -0.71669 4.43952 0
M  V30 12166 C 1134.87 -0.36881 5.03952 0
M  V30 12167 C 1137.07 -0.0311316 5.14291 0
M  V30 12168 N 1135.05 0.520861 6.11686 0
M  V30 12169 C 1136.42 0.71726 6.15837 0
M  V30 12170 C 1138.47 0.0445453 4.9788 0
M  V30 12171 C 1137.18 1.53423 7.02747 0
M  V30 12172 C 1139.2 0.848364 5.85283 0
M  V30 12173 C 1138.56 1.58493 6.86338 0
M  V30 12174 H 1134.66 -0.274785 0.732132 0
M  V30 12175 H 1137.25 -0.0779628 1.94544 0
M  V30 12176 H 1135.42 -2.30407 3.12678 0
M  V30 12177 H 1137.15 -2.24504 3.36719 0
M  V30 12178 H 1133.91 -0.712671 4.68207 0
M  V30 12179 H 1134.33 0.957756 6.70191 0
M  V30 12180 H 1138.97 -0.510564 4.19706 0
M  V30 12181 H 1136.69 2.10047 7.80324 0
M  V30 12182 H 1140.28 0.909372 5.74649 0
M  V30 12183 H 1139.16 2.19691 7.52798 0
M  V30 12184 N 1136.66 -1.52894 -0.382264 0
M  V30 12185 C 1137.59 -1.81122 -1.47367 0
M  V30 12186 C 1138.57 -0.663653 -1.56619 0
M  V30 12187 O 1139.75 -0.911898 -1.71459 0
M  V30 12188 C 1136.88 -1.98615 -2.84902 0
M  V30 12189 C 1135.84 -3.14328 -2.90485 0
M  V30 12190 C 1135.16 -3.17086 -4.30535 0
M  V30 12191 C 1136.46 -4.53263 -2.59519 0
M  V30 12192 H 1138.16 -2.72518 -1.23993 0
M  V30 12193 H 1135.7 -1.3113 -0.595049 0
M  V30 12194 H 1137.66 -2.16946 -3.61265 0
M  V30 12195 H 1136.38 -1.03915 -3.09628 0
M  V30 12196 H 1135.04 -2.95791 -2.16572 0
M  V30 12197 H 1134.69 -2.20055 -4.52311 0
M  V30 12198 H 1134.39 -3.94821 -4.3519 0
M  V30 12199 H 1135.91 -3.3758 -5.08795 0
M  V30 12200 H 1137.33 -4.71867 -3.25598 0
M  V30 12201 H 1135.72 -5.33115 -2.75514 0
M  V30 12202 H 1136.79 -4.59516 -1.54831 0
M  V30 12203 N 1138.14 0.641106 -1.43971 0
M  V30 12204 C 1139.39 1.39807 -1.4594 0
M  V30 12205 C 1139.71 1.94795 -0.0893874 0
M  V30 12206 O 1138.98 1.75175 0.876962 0
M  V30 12207 H 1137.56 0.518908 -0.537349 0
M  V30 12208 H 1140.22 0.755278 -1.79671 0
M  V30 12209 H 1139.31 2.23439 -2.17903 0
M  V30 12210 N 1139.62 1.30703 0.880598 0
M  V30 12211 C 1140.86 1.19142 1.62752 0
M  V30 12212 C 1141.18 -0.251795 1.93973 0
M  V30 12213 O 1142.38 -0.488971 2.67061 0
M  V30 12214 C 1140.84 2.08503 2.93351 0
M  V30 12215 C 1140.45 3.57758 2.69653 0
M  V30 12216 C 1142.19 2.05715 3.71324 0
M  V30 12217 C 1140.1 4.39161 3.96096 0
M  V30 12218 H 1139.03 0.442332 0.610622 0
M  V30 12219 H 1141.68 1.55483 0.974547 0
M  V30 12220 H 1140.06 1.65049 3.59965 0
M  V30 12221 H 1141.24 4.09388 2.11513 0
M  V30 12222 H 1139.55 3.62414 2.0505 0
M  V30 12223 H 1142.15 2.63783 4.65105 0
M  V30 12224 H 1142.49 1.04168 4.03057 0
M  V30 12225 H 1143.02 2.47313 3.11579 0
M  V30 12226 H 1139.76 5.4142 3.69519 0
M  V30 12227 H 1139.28 3.92293 4.53725 0
M  V30 12228 H 1140.96 4.50823 4.64077 0
M  V30 12229 N 1141.09 -1.09351 1.1349 0
M  V30 12230 C 1142.34 -1.81543 0.897123 0
M  V30 12231 C 1142.67 -1.85754 -0.576703 0
M  V30 12232 O 1141.92 -1.32213 -1.44285 0
M  V30 12233 C 1142.22 -3.27498 1.43108 0
M  V30 12234 C 1141.89 -3.4342 2.92188 0
M  V30 12235 C 1140.55 -3.47473 3.32891 0
M  V30 12236 C 1142.9 -3.47894 3.88097 0
M  V30 12237 C 1140.23 -3.5358 4.68186 0
M  V30 12238 C 1142.58 -3.55535 5.23238 0
M  V30 12239 C 1141.25 -3.57857 5.63467 0
M  V30 12240 H 1140.52 -0.664314 0.32828 0
M  V30 12241 H 1143.16 -1.28819 1.41697 0
M  V30 12242 H 1141.47 -3.82865 0.831946 0
M  V30 12243 H 1143.17 -3.8189 1.22316 0
M  V30 12244 H 1139.76 -3.4095 2.59713 0
M  V30 12245 H 1143.94 -3.44002 3.57737 0
M  V30 12246 H 1139.2 -3.53665 4.9873 0
M  V30 12247 H 1143.37 -3.57942 5.9737 0
M  V30 12248 H 1141 -3.62341 6.68291 0
M  V30 12249 N 1142.57 -0.928524 -1.27343 0
M  V30 12250 C 1143.8 -0.584884 -1.98148 0
M  V30 12251 C 1144.21 0.841603 -1.69451 0
M  V30 12252 O 1143.55 1.57104 -0.952053 0
M  V30 12253 C 1143.61 -0.731911 -3.51971 0
M  V30 12254 C 1143.28 -2.13067 -4.04291 0
M  V30 12255 C 1144.28 -3.10492 -4.17002 0
M  V30 12256 C 1141.96 -2.44784 -4.38619 0
M  V30 12257 C 1143.95 -4.37742 -4.63315 0
M  V30 12258 C 1141.64 -3.72269 -4.84622 0
M  V30 12259 C 1142.64 -4.68562 -4.9693 0
M  V30 12260 O 1142.33 -5.93779 -5.41924 0
M  V30 12261 H 1142.06 -0.220347 -0.63908 0
M  V30 12262 H 1144.61 -1.24799 -1.63139 0
M  V30 12263 H 1142.84 -0.0116966 -3.86698 0
M  V30 12264 H 1144.53 -0.393206 -4.03991 0
M  V30 12265 H 1145.3 -2.8731 -3.9074 0
M  V30 12266 H 1141.18 -1.70577 -4.28281 0
M  V30 12267 H 1144.72 -5.12905 -4.72836 0
M  V30 12268 H 1140.62 -3.95269 -5.10326 0
M  V30 12269 H 1141.39 -5.96779 -5.60176 0
M  V30 12270 N 1144.05 1.41491 -0.694123 0
M  V30 12271 C 1145.3 2.00854 -0.224033 0
M  V30 12272 C 1145.62 1.55246 1.17999 0
M  V30 12273 O 1144.89 0.782452 1.79595 0
M  V30 12274 H 1143.47 0.742721 -0.0798368 0
M  V30 12275 H 1146.13 1.73137 -0.894958 0
M  V30 12276 H 1145.23 3.11173 -0.240332 0
M  V30 12277 N 1145.53 0.438773 1.51369 0
M  V30 12278 C 1146.76 -0.125665 2.06217 0
M  V30 12279 C 1147.17 -1.36887 1.30609 0
M  V30 12280 O 1146.51 -1.80149 0.359433 0
M  V30 12281 C 1146.57 -0.511846 3.55838 0
M  V30 12282 C 1146.23 0.624755 4.52709 0
M  V30 12283 C 1147.23 1.49731 4.97872 0
M  V30 12284 C 1144.92 0.805895 4.95793 0
M  V30 12285 C 1146.91 2.53569 5.84792 0
M  V30 12286 C 1144.6 1.84755 5.82502 0
M  V30 12287 C 1145.6 2.71083 6.269 0
M  V30 12288 O 1145.28 3.7346 7.11887 0
M  V30 12289 H 1145.02 -0.0107227 0.675915 0
M  V30 12290 H 1147.57 0.617071 1.95912 0
M  V30 12291 H 1145.8 -1.30731 3.63932 0
M  V30 12292 H 1147.49 -1.0076 3.93195 0
M  V30 12293 H 1148.25 1.36891 4.65281 0
M  V30 12294 H 1144.13 0.14352 4.60777 0
M  V30 12295 H 1147.68 3.20984 6.19367 0
M  V30 12296 H 1143.57 1.97614 6.14507 0
M  V30 12297 H 1144.34 3.70058 7.30068 0
M  V30 12298 N 1147.01 -1.56678 0.170181 0
M  V30 12299 C 1147.95 -2.17909 -0.760556 0
M  V30 12300 C 1148.92 -1.11875 -1.22773 0
M  V30 12301 O 1150.11 -1.40021 -1.2961 0
M  V30 12302 C 1147.25 -2.82305 -1.9849 0
M  V30 12303 C 1146.36 -4.02796 -1.5614 0
M  V30 12304 C 1145.5 -4.55121 -2.73932 0
M  V30 12305 C 1144.53 -5.68025 -2.28067 0
M  V30 12306 N 1143.67 -6.14865 -3.38947 0
M  V30 12307 H 1148.51 -2.97098 -0.231629 0
M  V30 12308 H 1146.05 -1.46742 -0.102602 0
M  V30 12309 H 1148.01 -3.17797 -2.70298 0
M  V30 12310 H 1146.64 -2.05721 -2.48755 0
M  V30 12311 H 1145.69 -3.73131 -0.740097 0
M  V30 12312 H 1147 -4.84526 -1.18472 0
M  V30 12313 H 1146.15 -4.92789 -3.53898 0
M  V30 12314 H 1144.89 -3.72445 -3.14858 0
M  V30 12315 H 1143.9 -5.2991 -1.46546 0
M  V30 12316 H 1145.12 -6.52501 -1.88199 0
M  V30 12317 H 1143.07 -5.35119 -3.79452 0
M  V30 12318 H 1142.99 -6.91582 -3.05369 0
M  V30 12319 H 1144.25 -6.57183 -4.19203 0
M  V30 12320 N 1148.48 0.103547 -1.57259 0
M  V30 12321 C 1149.73 0.806979 -1.8529 0
M  V30 12322 C 1150.05 1.79679 -0.757653 0
M  V30 12323 O 1149.32 1.94695 0.216913 0
M  V30 12324 H 1147.9 0.301012 -0.683667 0
M  V30 12325 H 1150.56 0.0871886 -1.94705 0
M  V30 12326 H 1149.66 1.34275 -2.81738 0
M  V30 12327 N 1149.96 1.53094 0.37415 0
M  V30 12328 C 1150.89 1.81901 1.46404 0
M  V30 12329 C 1151.87 0.671949 1.56265 0
M  V30 12330 O 1153.06 0.920978 1.70973 0
M  V30 12331 C 1150.19 2.00123 2.83845 0
M  V30 12332 C 1149.14 3.15864 2.88814 0
M  V30 12333 C 1148.47 3.19364 4.28848 0
M  V30 12334 C 1149.77 4.54633 2.57112 0
M  V30 12335 H 1151.46 2.73172 1.22546 0
M  V30 12336 H 1149.01 1.31444 0.588087 0
M  V30 12337 H 1150.96 2.18859 3.6011 0
M  V30 12338 H 1149.68 1.05555 3.09072 0
M  V30 12339 H 1148.34 2.96935 2.15 0
M  V30 12340 H 1147.99 2.2245 4.51137 0
M  V30 12341 H 1147.69 3.97123 4.3309 0
M  V30 12342 H 1149.22 3.40273 5.06997 0
M  V30 12343 H 1150.63 4.73587 3.23091 0
M  V30 12344 H 1149.03 5.34569 2.72683 0
M  V30 12345 H 1150.1 4.60331 1.52392 0
M  V30 12346 N 1151.44 -0.633461 1.44309 0
M  V30 12347 C 1152.37 -1.75676 1.53819 0
M  V30 12348 C 1153.35 -1.65537 0.391365 0
M  V30 12349 O 1154.54 -1.84332 0.611181 0
M  V30 12350 C 1151.67 -3.14197 1.47979 0
M  V30 12351 C 1150.62 -3.39122 2.61113 0
M  V30 12352 C 1149.95 -4.77648 2.40325 0
M  V30 12353 C 1151.25 -3.31914 4.03274 0
M  V30 12354 H 1152.94 -1.67974 2.47841 0
M  V30 12355 H 1150.49 -0.8067 1.19283 0
M  V30 12356 H 1152.44 -3.92553 1.53233 0
M  V30 12357 H 1151.16 -3.22677 0.504718 0
M  V30 12358 H 1149.82 -2.63145 2.55245 0
M  V30 12359 H 1149.47 -4.82829 1.41016 0
M  V30 12360 H 1149.17 -4.95284 3.16177 0
M  V30 12361 H 1150.69 -5.58237 2.47394 0
M  V30 12362 H 1152.11 -4.00178 4.10524 0
M  V30 12363 H 1150.5 -3.61085 4.7931 0
M  V30 12364 H 1151.57 -2.29761 4.2701 0
M  V30 12365 N 1152.92 -1.31168 -0.873655 0
M  V30 12366 C 1153.85 -1.21094 -1.99646 0
M  V30 12367 C 1154.83 -0.0989684 -1.69812 0
M  V30 12368 O 1156.01 -0.282939 -1.92128 0
M  V30 12369 C 1153.14 -0.913684 -3.35066 0
M  V30 12370 C 1152.1 -1.98482 -3.79195 0
M  V30 12371 C 1151.42 -1.54033 -5.12033 0
M  V30 12372 C 1152.72 -3.39745 -3.96699 0
M  V30 12373 H 1154.42 -2.1503 -2.08333 0
M  V30 12374 H 1151.96 -1.03521 -1.00097 0
M  V30 12375 H 1153.92 -0.829821 -4.13149 0
M  V30 12376 H 1152.64 0.0613471 -3.26542 0
M  V30 12377 H 1151.3 -2.05851 -3.03349 0
M  V30 12378 H 1150.95 -0.553261 -4.99948 0
M  V30 12379 H 1150.65 -2.25688 -5.4253 0
M  V30 12380 H 1152.17 -1.47047 -5.92629 0
M  V30 12381 H 1153.59 -3.35071 -4.65188 0
M  V30 12382 H 1151.98 -4.09585 -4.38589 0
M  V30 12383 H 1153.05 -3.80802 -3.00196 0
M  V30 12384 N 1154.4 1.08748 -1.14068 0
M  V30 12385 C 1155.33 2.17591 -0.84714 0
M  V30 12386 C 1156.31 1.68962 0.196415 0
M  V30 12387 O 1157.49 1.94125 0.0538415 0
M  V30 12388 C 1154.62 3.45823 -0.320005 0
M  V30 12389 C 1153.58 4.07824 -1.2986 0
M  V30 12390 C 1152.9 5.30965 -0.630925 0
M  V30 12391 C 1154.2 4.49512 -2.65963 0
M  V30 12392 H 1155.9 2.42404 -1.75729 0
M  V30 12393 H 1153.44 1.16502 -0.846356 0
M  V30 12394 H 1155.4 4.21276 -0.102271 0
M  V30 12395 H 1154.12 3.20553 0.625561 0
M  V30 12396 H 1152.78 3.34398 -1.50245 0
M  V30 12397 H 1152.43 5.01979 0.320337 0
M  V30 12398 H 1152.13 5.73402 -1.28388 0
M  V30 12399 H 1153.65 6.09136 -0.422635 0
M  V30 12400 H 1155.06 5.16159 -2.49506 0
M  V30 12401 H 1153.46 5.02857 -3.27498 0
M  V30 12402 H 1154.53 3.6157 -3.23102 0
M  V30 12403 N 1155.87 0.935264 1.26849 0
M  V30 12404 C 1156.8 0.457776 2.28969 0
M  V30 12405 C 1157.79 -0.48587 1.63013 0
M  V30 12406 O 1158.97 -0.388998 1.90264 0
M  V30 12407 C 1156.1 -0.283332 3.46142 0
M  V30 12408 C 1155.05 0.573196 4.24144 0
M  V30 12409 C 1154.38 -0.297525 5.33872 0
M  V30 12410 C 1155.68 1.84153 4.88759 0
M  V30 12411 H 1157.37 1.31125 2.69159 0
M  V30 12412 H 1154.92 0.631956 1.29392 0
M  V30 12413 H 1156.87 -0.628366 4.16689 0
M  V30 12414 H 1155.6 -1.1709 3.04889 0
M  V30 12415 H 1154.26 0.901043 3.55354 0
M  V30 12416 H 1153.9 -1.18427 4.8886 0
M  V30 12417 H 1153.6 0.272126 5.8697 0
M  V30 12418 H 1155.13 -0.637961 6.07258 0
M  V30 12419 H 1156.54 1.5641 5.51551 0
M  V30 12420 H 1154.94 2.35528 5.51948 0
M  V30 12421 H 1156.01 2.5565 4.12033 0
M  V30 12422 N 1157.35 -1.41121 0.701616 0
M  V30 12423 C 1158.6 -2.00733 0.234682 0
M  V30 12424 C 1158.92 -1.55869 -1.17174 0
M  V30 12425 O 1158.19 -0.791965 -1.79178 0
M  V30 12426 H 1156.77 -0.742288 0.0837745 0
M  V30 12427 H 1159.43 -1.7266 0.904127 0
M  V30 12428 H 1158.53 -3.11041 0.256831 0
M  V30 12429 N 1158.83 -0.446794 -1.51134 0
M  V30 12430 C 1160.08 0.118047 -2.01354 0
M  V30 12431 C 1160.39 1.42953 -1.33505 0
M  V30 12432 O 1161.6 2.07788 -1.74747 0
M  V30 12433 C 1160.05 0.260912 -3.58953 0
M  V30 12434 C 1159.66 -1.0407 -4.35745 0
M  V30 12435 C 1161.41 0.779014 -4.17291 0
M  V30 12436 C 1159.31 -0.862958 -5.8507 0
M  V30 12437 H 1158.24 0.0478915 -0.752478 0
M  V30 12438 H 1160.89 -0.577997 -1.74159 0
M  V30 12439 H 1159.28 1.02018 -3.82633 0
M  V30 12440 H 1160.45 -1.80903 -4.23805 0
M  V30 12441 H 1158.77 -1.48805 -3.88904 0
M  V30 12442 H 1161.36 0.928636 -5.26574 0
M  V30 12443 H 1161.71 1.76399 -3.7708 0
M  V30 12444 H 1162.24 0.0778022 -3.97724 0
M  V30 12445 H 1158.98 -1.82059 -6.2971 0
M  V30 12446 H 1158.5 -0.134588 -5.99649 0
M  V30 12447 H 1160.18 -0.51989 -6.44908 0
M  V30 12448 N 1160.31 1.56586 -0.178487 0
M  V30 12449 C 1161.56 1.97098 0.464617 0
M  V30 12450 C 1161.88 1.06476 1.62767 0
M  V30 12451 O 1161.14 0.100337 1.95443 0
M  V30 12452 C 1161.44 3.43629 0.982552 0
M  V30 12453 C 1161.1 4.50853 -0.0653645 0
M  V30 12454 C 1159.77 4.79901 -0.353349 0
M  V30 12455 C 1162.12 5.15387 -0.776279 0
M  V30 12456 C 1159.45 5.70779 -1.35751 0
M  V30 12457 C 1161.8 6.07349 -1.76948 0
M  V30 12458 C 1160.46 6.34761 -2.06483 0
M  V30 12459 H 1159.73 0.721232 0.170016 0
M  V30 12460 H 1162.38 1.89559 -0.271959 0
M  V30 12461 H 1160.68 3.48155 1.79709 0
M  V30 12462 H 1162.38 3.7232 1.48926 0
M  V30 12463 H 1158.97 4.28266 0.169266 0
M  V30 12464 H 1163.15 4.9305 -0.567008 0
M  V30 12465 H 1158.41 5.90298 -1.59244 0
M  V30 12466 H 1162.58 6.56419 -2.32567 0
M  V30 12467 H 1160.21 7.0498 -2.84441 0
M  V30 12468 N 1161.79 -0.095206 1.57312 0
M  V30 12469 C 1162.72 -1.11627 2.05089 0
M  V30 12470 C 1163.7 -1.41782 0.939787 0
M  V30 12471 O 1164.88 -1.51813 1.21105 0
M  V30 12472 C 1162.01 -2.43618 2.47523 0
M  V30 12473 C 1160.97 -2.27872 3.62296 0
M  V30 12474 C 1160.29 -3.65038 3.90706 0
M  V30 12475 C 1161.59 -1.71936 4.93189 0
M  V30 12476 H 1163.29 -0.718795 2.90644 0
M  V30 12477 H 1160.83 -0.344315 1.39823 0
M  V30 12478 H 1162.79 -3.1532 2.79556 0
M  V30 12479 H 1161.51 -2.85301 1.58968 0
M  V30 12480 H 1160.17 -1.58615 3.3051 0
M  V30 12481 H 1159.82 -4.04249 2.99319 0
M  V30 12482 H 1159.52 -3.55349 4.67976 0
M  V30 12483 H 1161.04 -4.38208 4.25213 0
M  V30 12484 H 1162.45 -2.33479 5.23603 0
M  V30 12485 H 1160.85 -1.73006 5.74621 0
M  V30 12486 H 1161.92 -0.678789 4.80125 0
M  V30 12487 N 1163.26 -1.53291 -0.366026 0
M  V30 12488 C 1164.23 -1.79025 -1.43117 0
M  V30 12489 C 1165.23 -0.660676 -1.46601 0
M  V30 12490 O 1166.42 -0.928875 -1.47369 0
M  V30 12491 C 1163.55 -1.91192 -2.82238 0
M  V30 12492 H 1164.74 -2.74154 -1.21572 0
M  V30 12493 H 1162.3 -1.44361 -0.599132 0
M  V30 12494 H 1163.03 -0.98129 -3.09097 0
M  V30 12495 H 1162.82 -2.7335 -2.81109 0
M  V30 12496 H 1164.31 -2.12696 -3.59375 0
M  V30 12497 N 1164.74 0.6258 -1.44643 0
M  V30 12498 C 1165.97 1.41028 -1.50979 0
M  V30 12499 C 1166.38 1.88717 -0.135092 0
M  V30 12500 O 1165.72 1.61778 0.870268 0
M  V30 12501 C 1165.79 2.66094 -2.41732 0
M  V30 12502 C 1165.45 2.40166 -3.88805 0
M  V30 12503 C 1166.45 2.01661 -4.79196 0
M  V30 12504 C 1164.13 2.53641 -4.33557 0
M  V30 12505 C 1166.13 1.76966 -6.12341 0
M  V30 12506 C 1163.81 2.2856 -5.66748 0
M  V30 12507 C 1164.81 1.90282 -6.55959 0
M  V30 12508 O 1164.5 1.65484 -7.86683 0
M  V30 12509 H 1164.23 0.438757 -0.514265 0
M  V30 12510 H 1166.78 0.772034 -1.90339 0
M  V30 12511 H 1165.01 3.32575 -1.97309 0
M  V30 12512 H 1166.7 3.28107 -2.38957 0
M  V30 12513 H 1167.47 1.90802 -4.45892 0
M  V30 12514 H 1163.35 2.82404 -3.64375 0
M  V30 12515 H 1166.89 1.47014 -6.81933 0
M  V30 12516 H 1162.79 2.3903 -5.99612 0
M  V30 12517 H 1163.56 1.79686 -7.98533 0
M  V30 12518 N 1166.22 1.31629 0.866686 0
M  V30 12519 C 1167.13 1.21524 2.00671 0
M  V30 12520 C 1168.15 0.131277 1.73504 0
M  V30 12521 O 1169.32 0.349699 1.98341 0
M  V30 12522 C 1166.39 0.926491 3.34091 0
M  V30 12523 C 1165.45 2.09769 3.7456 0
M  V30 12524 C 1164.68 1.82262 5.01614 0
M  V30 12525 O 1164.9 0.759329 5.65323 0
M  V30 12526 O 1163.84 2.68031 5.38928 0
M  V30 12527 H 1167.66 2.17335 2.1213 0
M  V30 12528 H 1165.25 1.11401 0.995499 0
M  V30 12529 H 1167.13 0.78144 4.14091 0
M  V30 12530 H 1165.81 -0.00155829 3.237 0
M  V30 12531 H 1164.71 2.29816 2.95187 0
M  V30 12532 H 1166.05 3.0081 3.89582 0
M  V30 12533 N 1167.7 -1.08142 1.14644 0
M  V30 12534 C 1168.93 -1.84318 0.939926 0
M  V30 12535 C 1169.34 -1.81735 -0.511636 0
M  V30 12536 O 1168.7 -1.22297 -1.35461 0
M  V30 12537 C 1168.75 -3.31744 1.43625 0
M  V30 12538 O 1168.47 -3.3435 2.83094 0
M  V30 12539 C 1169.97 -4.24717 1.27007 0
M  V30 12540 H 1167.19 -0.581781 0.334323 0
M  V30 12541 H 1169.74 -1.36561 1.52221 0
M  V30 12542 H 1167.89 -3.7688 0.896664 0
M  V30 12543 H 1168.31 -4.26399 3.05425 0
M  V30 12544 H 1169.78 -5.26262 1.66591 0
M  V30 12545 H 1170.26 -4.38682 0.213257 0
M  V30 12546 H 1170.86 -3.85409 1.79833 0
M  V30 12547 N 1169.18 -0.941978 -1.26351 0
M  V30 12548 C 1170.12 -0.450906 -2.26353 0
M  V30 12549 C 1171.09 0.489857 -1.58712 0
M  V30 12550 O 1172.28 0.40589 -1.86433 0
M  V30 12551 C 1169.42 0.277054 -3.43986 0
M  V30 12552 C 1168.53 -0.699474 -4.263 0
M  V30 12553 C 1167.67 0.0497661 -5.31177 0
M  V30 12554 C 1166.71 -0.918531 -6.05169 0
M  V30 12555 N 1165.84 -0.200993 -7.01812 0
M  V30 12556 H 1170.68 -1.30861 -2.6773 0
M  V30 12557 H 1168.22 -0.656514 -1.31637 0
M  V30 12558 H 1170.18 0.715567 -4.11018 0
M  V30 12559 H 1168.81 1.09889 -3.0352 0
M  V30 12560 H 1167.86 -1.2565 -3.59049 0
M  V30 12561 H 1169.17 -1.4389 -4.77595 0
M  V30 12562 H 1168.33 0.547521 -6.04224 0
M  V30 12563 H 1167.07 0.822068 -4.80722 0
M  V30 12564 H 1166.07 -1.4274 -5.30947 0
M  V30 12565 H 1167.3 -1.69085 -6.57713 0
M  V30 12566 H 1165.24 0.552803 -6.53667 0
M  V30 12567 H 1165.16 -0.879735 -7.50864 0
M  V30 12568 H 1166.43 0.275642 -7.79012 0
M  V30 12569 N 1170.66 1.40747 -0.709091 0
M  V30 12570 C 1171.88 2.05841 -0.253816 0
M  V30 12571 C 1172.31 1.53056 1.09341 0
M  V30 12572 O 1171.66 0.663181 1.68735 0
M  V30 12573 C 1171.71 3.59822 -0.236699 0
M  V30 12574 O 1170.82 4.04876 0.784168 0
M  V30 12575 H 1170.16 0.65295 -0.120631 0
M  V30 12576 H 1172.69 1.80266 -0.967749 0
M  V30 12577 H 1172.7 4.07936 -0.0721616 0
M  V30 12578 H 1171.37 3.97608 -1.21988 0
M  V30 12579 H 1169.95 3.68237 0.587884 0
M  V30 12580 N 1172.13 0.454803 1.50895 0
M  V30 12581 C 1173.38 -0.105927 2.02523 0
M  V30 12582 C 1173.71 -1.40825 1.33724 0
M  V30 12583 O 1172.99 -1.89038 0.457683 0
M  V30 12584 C 1173.27 -0.306635 3.58792 0
M  V30 12585 C 1173.12 1.01556 4.38185 0
M  V30 12586 C 1174.44 -1.06858 4.2693 0
M  V30 12587 H 1171.56 -0.0370232 0.736069 0
M  V30 12588 H 1174.2 0.597215 1.8037 0
M  V30 12589 H 1172.35 -0.905563 3.77799 0
M  V30 12590 H 1174.03 1.64981 4.30789 0
M  V30 12591 H 1172.27 1.61608 4.02574 0
M  V30 12592 H 1172.94 0.828959 5.4574 0
M  V30 12593 H 1175.42 -0.561086 4.123 0
M  V30 12594 H 1174.29 -1.1778 5.36115 0
M  V30 12595 H 1174.55 -2.10111 3.8898 0
M  V30 12596 N 1173.61 -1.56489 0.186789 0
M  V30 12597 C 1174.84 -2.02163 -0.463126 0
M  V30 12598 C 1175.26 -1.06612 -1.54969 0
M  V30 12599 O 1174.62 -0.0482139 -1.81236 0
M  V30 12600 C 1174.67 -3.46337 -1.00416 0
M  V30 12601 O 1173.77 -3.53889 -2.11747 0
M  V30 12602 H 1173.11 -0.65496 -0.109194 0
M  V30 12603 H 1175.64 -2.02459 0.295227 0
M  V30 12604 H 1175.65 -3.85959 -1.32287 0
M  V30 12605 H 1174.33 -4.15376 -0.208693 0
M  V30 12606 H 1172.9 -3.26136 -1.80803 0
M  V30 12607 N 1175.09 0.086862 -1.5736 0
M  V30 12608 C 1176.32 0.802167 -1.90717 0
M  V30 12609 C 1176.73 1.71875 -0.781304 0
M  V30 12610 O 1176.09 1.80831 0.246255 0
M  V30 12611 C 1176.14 1.60858 -3.23739 0
M  V30 12612 O 1175.86 0.728851 -4.31995 0
M  V30 12613 C 1177.36 2.42621 -3.71012 0
M  V30 12614 H 1174.58 0.228914 -0.630745 0
M  V30 12615 H 1177.13 0.061634 -2.04407 0
M  V30 12616 H 1175.28 2.30153 -3.11622 0
M  V30 12617 H 1175.7 1.2882 -5.08435 0
M  V30 12618 H 1177.17 2.94683 -4.66761 0
M  V30 12619 H 1177.65 3.21462 -2.99264 0
M  V30 12620 H 1178.25 1.78509 -3.86024 0
M  V30 12621 N 1176.57 1.53483 0.357892 0
M  V30 12622 C 1177.48 1.83434 1.4625 0
M  V30 12623 C 1178.49 0.723313 1.58254 0
M  V30 12624 O 1179.67 1.01416 1.74002 0
M  V30 12625 C 1176.73 2.0249 2.81423 0
M  V30 12626 C 1175.8 3.26378 2.78883 0
M  V30 12627 C 1175.03 3.44516 4.07608 0
M  V30 12628 O 1175.25 2.66787 5.04163 0
M  V30 12629 O 1174.19 4.37898 4.12952 0
M  V30 12630 H 1178.01 2.77294 1.23861 0
M  V30 12631 H 1175.6 1.38958 0.548722 0
M  V30 12632 H 1177.48 2.16552 3.61501 0
M  V30 12633 H 1176.15 1.11819 3.03773 0
M  V30 12634 H 1175.06 3.17733 1.97475 0
M  V30 12635 H 1176.39 4.16996 2.61486 0
M  V30 12636 N 1178.05 -0.61812 1.44973 0
M  V30 12637 C 1178.99 -1.72942 1.52838 0
M  V30 12638 C 1179.96 -1.6181 0.375056 0
M  V30 12639 O 1181.15 -1.81544 0.587075 0
M  V30 12640 C 1178.29 -3.11228 1.49101 0
M  V30 12641 C 1177.4 -3.33243 2.74906 0
M  V30 12642 C 1176.54 -4.61574 2.62912 0
M  V30 12643 C 1175.57 -4.76811 3.8382 0
M  V30 12644 N 1174.71 -5.96432 3.70424 0
M  V30 12645 H 1179.55 -1.65556 2.47781 0
M  V30 12646 H 1177.09 -0.807411 1.2296 0
M  V30 12647 H 1179.05 -3.9122 1.44923 0
M  V30 12648 H 1177.68 -3.17598 0.577163 0
M  V30 12649 H 1176.73 -2.471 2.89216 0
M  V30 12650 H 1178.04 -3.40377 3.64616 0
M  V30 12651 H 1177.19 -5.49746 2.56641 0
M  V30 12652 H 1175.93 -4.5682 1.70784 0
M  V30 12653 H 1174.94 -3.87066 3.90461 0
M  V30 12654 H 1176.16 -4.83371 4.77001 0
M  V30 12655 H 1174.11 -5.92742 2.81057 0
M  V30 12656 H 1174.03 -6.0468 4.5376 0
M  V30 12657 H 1175.29 -6.8713 3.68067 0
M  V30 12658 N 1179.52 -1.32087 -0.859693 0
M  V30 12659 C 1180.77 -1.21716 -1.60836 0
M  V30 12660 C 1181.09 0.220904 -1.94349 0
M  V30 12661 O 1182.29 0.446422 -2.67805 0
M  V30 12662 C 1180.75 -2.13143 -2.89997 0
M  V30 12663 C 1180.36 -3.62003 -2.63928 0
M  V30 12664 C 1182.1 -2.11596 -3.68004 0
M  V30 12665 C 1180.01 -4.45407 -3.89059 0
M  V30 12666 H 1178.94 -0.45199 -0.603507 0
M  V30 12667 H 1181.59 -1.57013 -0.949687 0
M  V30 12668 H 1179.97 -1.70755 -3.57294 0
M  V30 12669 H 1181.14 -4.12701 -2.04974 0
M  V30 12670 H 1179.46 -3.6563 -1.99258 0
M  V30 12671 H 1182.06 -2.71149 -4.6085 0
M  V30 12672 H 1182.4 -1.10568 -4.01348 0
M  V30 12673 H 1182.93 -2.52238 -3.07605 0
M  V30 12674 H 1179.67 -5.4723 -3.60859 0
M  V30 12675 H 1179.19 -3.99462 -4.47427 0
M  V30 12676 H 1180.87 -4.58149 -4.56846 0
M  V30 12677 N 1181 1.07532 -1.15215 0
M  V30 12678 C 1181.95 2.16785 -0.843022 0
M  V30 12679 C 1182.94 1.68411 0.182802 0
M  V30 12680 O 1184.15 1.7996 0.0380164 0
M  V30 12681 H 1180.52 0.707465 -0.254945 0
M  V30 12682 H 1182.5 2.40078 -1.77215 0
M  V30 12683 C 1181.24 3.45967 -0.346699 0
M  V30 12684 H 1180.57 3.83574 -1.12744 0
M  V30 12685 H 1182.01 4.23663 -0.169039 0
M  V30 12686 C 1180.47 3.23768 0.931437 0
M  V30 12687 O 1181 3.48179 2.00336 0
M  V30 12688 N 1179.2 2.77264 0.870217 0
M  V30 12689 H 1178.75 2.576 -0.00226223 0
M  V30 12690 H 1178.71 2.6279 1.72594 0
M  V30 12691 N 1182.48 0.948665 1.2585 0
M  V30 12692 C 1183.76 0.517832 1.88621 0
M  V30 12693 C 1184.14 -1.00477 1.85654 0
M  V30 12694 O 1183.49 -1.868 1.31598 0
M  V30 12695 C 1183.7 1.08768 3.31618 0
M  V30 12696 C 1185.04 1.16089 4.08422 0
M  V30 12697 O 1186.07 1.0388 3.40716 0
M  V30 12698 O 1184.93 1.35172 5.29519 0
M  V30 12699 H 1182.02 0.169916 0.809356 0
M  V30 12700 H 1184.57 1.04171 1.33964 0
M  V30 12701 H 1183.34 2.13109 3.28177 0
M  V30 12702 H 1182.96 0.54669 3.93824 0
M  V30 12703 N 1183.96 -1.40369 0.716545 0
M  V30 12704 C 1184.91 -2.27963 0.0410169 0
M  V30 12705 C 1185.89 -1.43307 -0.731575 0
M  V30 12706 O 1187.08 -1.66389 -0.603618 0
M  V30 12707 C 1184.21 -3.31849 -0.87927 0
M  V30 12708 C 1183.3 -4.23978 -0.101813 0
M  V30 12709 N 1183.69 -4.97447 0.915437 0
M  V30 12710 C 1181.99 -4.44746 -0.334227 0
M  V30 12711 C 1182.69 -5.65029 1.38266 0
M  V30 12712 N 1181.67 -5.39014 0.704642 0
M  V30 12713 H 1185.47 -2.8221 0.820653 0
M  V30 12714 H 1182.98 -1.52831 0.549217 0
M  V30 12715 H 1184.98 -3.93448 -1.37855 0
M  V30 12716 H 1183.64 -2.79162 -1.65827 0
M  V30 12717 H 1184.65 -5.01414 1.29631 0
M  V30 12718 H 1181.33 -4.03034 -1.08948 0
M  V30 12719 H 1182.72 -6.33886 2.22797 0
M  V30 12720 N 1185.44 -0.462799 -1.50652 0
M  V30 12721 C 1186.85 -0.11648 -1.59174 0
M  V30 12722 C 1187.05 1.37638 -1.47167 0
M  V30 12723 O 1186.11 2.14886 -1.3259 0
M  V30 12724 C 1187.42 -0.659289 -2.93383 0
M  V30 12725 C 1188.97 -0.62198 -3.06758 0
M  V30 12726 C 1189.44 -1.14219 -4.43529 0
M  V30 12727 N 1190.94 -1.10125 -4.49919 0
M  V30 12728 C 1191.67 -1.47436 -5.54121 0
M  V30 12729 N 1191.17 -1.92156 -6.65618 0
M  V30 12730 N 1192.96 -1.39091 -5.44619 0
M  V30 12731 H 1185.11 -1.43383 -1.56701 0
M  V30 12732 H 1187.37 -0.592438 -0.740082 0
M  V30 12733 H 1187.08 -1.70477 -3.07621 0
M  V30 12734 H 1186.95 -0.0982388 -3.77072 0
M  V30 12735 H 1189.34 0.414576 -2.92173 0
M  V30 12736 H 1189.42 -1.21974 -2.24847 0
M  V30 12737 H 1189.07 -2.17734 -4.58862 0
M  V30 12738 H 1189 -0.52073 -5.24019 0
M  V30 12739 H 1191.49 -0.773154 -3.69906 0
M  V30 12740 H 1191.8 -2.18796 -7.4118 0
M  V30 12741 H 1190.14 -1.96103 -6.6676 0
M  V30 12742 H 1193.34 -1.04001 -4.564 0
M  V30 12743 H 1193.51 -1.68496 -6.2571 0
M  V30 12744 N 1186.91 1.56388 -0.195085 0
M  V30 12745 C 1187.88 2.17859 0.712053 0
M  V30 12746 C 1188.88 1.13304 1.141 0
M  V30 12747 O 1190.07 1.38689 1.05409 0
M  V30 12748 C 1187.2 2.78065 1.97213 0
M  V30 12749 H 1188.39 2.9938 0.176529 0
M  V30 12750 H 1185.95 1.56205 0.0545322 0
M  V30 12751 H 1186.68 2.00342 2.55017 0
M  V30 12752 H 1186.47 3.54603 1.67329 0
M  V30 12753 H 1187.96 3.25266 2.619 0
M  V30 12754 N 1188.39 -0.0785156 1.57404 0
M  V30 12755 C 1189.64 -0.780092 1.87196 0
M  V30 12756 C 1189.97 -1.77562 0.78647 0
M  V30 12757 O 1189.25 -1.93428 -0.203935 0
M  V30 12758 C 1189.53 -1.49408 3.27642 0
M  V30 12759 C 1189.38 -0.515416 4.46837 0
M  V30 12760 C 1190.7 -2.44064 3.66225 0
M  V30 12761 H 1187.82 -0.282134 0.680859 0
M  V30 12762 H 1190.46 -0.0433926 1.8995 0
M  V30 12763 H 1188.61 -2.12205 3.25425 0
M  V30 12764 H 1190.28 0.106827 4.61176 0
M  V30 12765 H 1188.53 0.169832 4.33467 0
M  V30 12766 H 1189.2 -1.05247 5.41874 0
M  V30 12767 H 1191.67 -1.91349 3.69493 0
M  V30 12768 H 1190.55 -2.91029 4.65396 0
M  V30 12769 H 1190.81 -3.28569 2.95796 0
M  V30 12770 N 1189.87 -1.5367 -0.349747 0
M  V30 12771 C 1191.12 -1.70281 -1.08853 0
M  V30 12772 C 1191.44 -0.465438 -1.89364 0
M  V30 12773 O 1190.71 0.520615 -1.88856 0
M  V30 12774 H 1189.29 -0.627775 -0.404854 0
M  V30 12775 H 1191.95 -1.90906 -0.392523 0
M  V30 12776 H 1191.05 -2.57096 -1.76941 0
M  V30 12777 N 1191.35 0.610423 -1.45298 0
M  V30 12778 C 1192.28 1.73493 -1.48241 0
M  V30 12779 C 1193.26 1.59025 -0.339065 0
M  V30 12780 O 1194.44 1.80625 -0.539144 0
M  V30 12781 C 1191.57 3.11291 -1.33476 0
M  V30 12782 C 1190.62 3.44355 -2.51638 0
M  V30 12783 S 1191.45 3.39512 -4.14116 0
M  V30 12784 C 1192.61 4.79895 -4.01811 0
M  V30 12785 H 1192.84 1.70734 -2.43387 0
M  V30 12786 H 1190.37 0.786833 -1.32847 0
M  V30 12787 H 1192.33 3.90799 -1.25644 0
M  V30 12788 H 1190.99 3.11568 -0.39805 0
M  V30 12789 H 1190.18 4.44679 -2.37226 0
M  V30 12790 H 1189.79 2.72356 -2.56317 0
M  V30 12791 H 1192.08 5.6963 -3.6678 0
M  V30 12792 H 1193.02 4.99363 -5.02038 0
M  V30 12793 H 1193.43 4.55443 -3.33515 0
M  V30 12794 N 1192.83 1.32541 0.852676 0
M  V30 12795 C 1193.79 1.21578 1.94297 0
M  V30 12796 C 1194.79 0.138318 1.60204 0
M  V30 12797 O 1195.98 0.388864 1.69804 0
M  V30 12798 C 1193.11 0.870209 3.29606 0
M  V30 12799 H 1194.3 2.18476 2.05446 0
M  V30 12800 H 1191.86 1.16401 1.0431 0
M  V30 12801 H 1192.59 -0.0968698 3.24155 0
M  V30 12802 H 1192.38 1.64924 3.55728 0
M  V30 12803 H 1193.87 0.817874 4.09513 0
M  V30 12804 N 1194.3 -1.0692 1.15784 0
M  V30 12805 C 1195.55 -1.78983 0.929944 0
M  V30 12806 C 1195.87 -1.87884 -0.543969 0
M  V30 12807 O 1197.07 -2.56513 -0.889578 0
M  V30 12808 C 1195.53 -3.21657 1.61446 0
M  V30 12809 C 1195.14 -3.20943 3.12569 0
M  V30 12810 C 1196.88 -3.98299 1.46828 0
M  V30 12811 C 1194.79 -4.58298 3.73788 0
M  V30 12812 H 1193.72 -0.670809 0.344284 0
M  V30 12813 H 1196.37 -1.19975 1.38846 0
M  V30 12814 H 1194.75 -3.80885 1.08364 0
M  V30 12815 H 1195.92 -2.71334 3.72444 0
M  V30 12816 H 1194.24 -2.57799 3.26999 0
M  V30 12817 H 1196.84 -4.99822 1.89952 0
M  V30 12818 H 1197.18 -4.14213 0.416358 0
M  V30 12819 H 1197.71 -3.45577 1.97031 0
M  V30 12820 H 1194.45 -4.47588 4.789 0
M  V30 12821 H 1193.97 -5.08126 3.18698 0
M  V30 12822 H 1195.65 -5.27262 3.74972 0
M  V30 12823 N 1195.78 -0.955326 -1.25345 0
M  V30 12824 C 1197.01 -0.626783 -1.96863 0
M  V30 12825 C 1197.42 0.80547 -1.71198 0
M  V30 12826 O 1196.76 1.55049 -0.985163 0
M  V30 12827 C 1196.83 -0.806404 -3.50339 0
M  V30 12828 C 1196.49 -2.21595 -3.99681 0
M  V30 12829 C 1197.49 -3.19268 -4.10322 0
M  V30 12830 C 1195.17 -2.54032 -4.33328 0
M  V30 12831 C 1197.17 -4.47471 -4.53926 0
M  V30 12832 C 1194.85 -3.82465 -4.76617 0
M  V30 12833 C 1195.85 -4.78997 -4.86879 0
M  V30 12834 O 1195.54 -6.0514 -5.29208 0
M  V30 12835 H 1195.27 -0.233854 -0.634262 0
M  V30 12836 H 1197.82 -1.28232 -1.60455 0
M  V30 12837 H 1196.05 -0.0937184 -3.86586 0
M  V30 12838 H 1197.74 -0.47881 -4.03066 0
M  V30 12839 H 1198.51 -2.95534 -3.84558 0
M  V30 12840 H 1194.39 -1.79623 -4.24566 0
M  V30 12841 H 1197.93 -5.22819 -4.6185 0
M  V30 12842 H 1193.83 -4.06005 -5.01827 0
M  V30 12843 H 1194.6 -6.08527 -5.47392 0
M  V30 12844 N 1197.26 1.39987 -0.723979 0
M  V30 12845 C 1198.21 2.32507 -0.0658033 0
M  V30 12846 C 1199.2 1.52484 0.737908 0
M  V30 12847 O 1200.41 1.68225 0.640332 0
M  V30 12848 H 1196.78 0.751996 -0.00247717 0
M  V30 12849 H 1198.76 2.85657 -0.862696 0
M  V30 12850 C 1197.5 3.37509 0.835628 0
M  V30 12851 H 1196.83 3.99157 0.226589 0
M  V30 12852 H 1198.27 4.04722 1.26396 0
M  V30 12853 C 1196.73 2.73665 1.96492 0
M  V30 12854 O 1197.26 2.60649 3.05655 0
M  V30 12855 N 1195.46 2.3192 1.75104 0
M  V30 12856 H 1195.01 2.42707 0.863204 0
M  V30 12857 H 1194.97 1.89542 2.50841 0
M  V30 12858 N 1198.74 0.470782 1.50404 0
M  V30 12859 C 1199.99 -0.0844409 2.02624 0
M  V30 12860 C 1200.32 -1.39398 1.3521 0
M  V30 12861 O 1199.59 -1.88542 0.477707 0
M  V30 12862 C 1199.88 -0.268563 3.59097 0
M  V30 12863 C 1199.73 1.06198 4.37084 0
M  V30 12864 C 1201.05 -1.02324 4.28039 0
M  V30 12865 H 1198.17 -0.0292141 0.736421 0
M  V30 12866 H 1200.81 0.616312 1.79726 0
M  V30 12867 H 1198.96 -0.865441 3.78738 0
M  V30 12868 H 1200.63 1.69541 4.29015 0
M  V30 12869 H 1198.87 1.65868 4.00837 0
M  V30 12870 H 1199.55 0.886795 5.4483 0
M  V30 12871 H 1202.02 -0.517325 4.12872 0
M  V30 12872 H 1200.9 -1.12087 5.37334 0
M  V30 12873 H 1201.16 -2.05974 3.91187 0
M  V30 12874 N 1200.22 -1.56282 0.203376 0
M  V30 12875 C 1201.18 -2.18233 -0.700489 0
M  V30 12876 C 1202.18 -1.13908 -1.13497 0
M  V30 12877 O 1203.37 -1.39246 -1.04672 0
M  V30 12878 C 1200.5 -2.79107 -1.95735 0
M  V30 12879 H 1201.7 -2.99469 -0.160649 0
M  V30 12880 H 1199.25 -1.56232 -0.0462475 0
M  V30 12881 H 1199.98 -2.01691 -2.53951 0
M  V30 12882 H 1199.77 -3.55486 -1.65446 0
M  V30 12883 H 1201.26 -3.2665 -2.60172 0
M  V30 12884 N 1201.7 0.070167 -1.57444 0
M  V30 12885 C 1202.94 0.770153 -1.87607 0
M  V30 12886 C 1203.27 1.77143 -0.795875 0
M  V30 12887 O 1202.55 1.93533 0.193674 0
M  V30 12888 C 1202.83 1.47668 -3.2843 0
M  V30 12889 C 1202.69 0.491712 -4.47104 0
M  V30 12890 C 1204 2.42118 -3.67514 0
M  V30 12891 H 1201.12 0.278519 -0.682346 0
M  V30 12892 H 1203.77 0.0333184 -1.89971 0
M  V30 12893 H 1201.92 2.10476 -3.26546 0
M  V30 12894 H 1203.59 -0.131283 -4.61113 0
M  V30 12895 H 1201.83 -0.192817 -4.33371 0
M  V30 12896 H 1202.5 1.02372 -5.42424 0
M  V30 12897 H 1204.98 1.89387 -3.70502 0
M  V30 12898 H 1203.85 2.88556 -4.66933 0
M  V30 12899 H 1204.11 3.26995 -2.97534 0
M  V30 12900 N 1203.17 1.53854 0.341593 0
M  V30 12901 C 1204.1 1.84966 1.42513 0
M  V30 12902 C 1205.08 0.704944 1.54805 0
M  V30 12903 O 1206.27 0.957036 1.68981 0
M  V30 12904 C 1203.4 2.06099 2.79536 0
M  V30 12905 C 1202.35 3.21919 2.82049 0
M  V30 12906 C 1201.68 3.28389 4.21977 0
M  V30 12907 C 1202.98 4.59984 2.4741 0
M  V30 12908 H 1204.67 2.7571 1.16724 0
M  V30 12909 H 1202.22 1.32662 0.560073 0
M  V30 12910 H 1204.17 2.26448 3.55386 0
M  V30 12911 H 1202.9 1.12087 3.06764 0
M  V30 12912 H 1201.56 3.01429 2.08653 0
M  V30 12913 H 1201.2 2.3197 4.46317 0
M  V30 12914 H 1200.9 4.0622 4.24569 0
M  V30 12915 H 1202.43 3.50951 4.99666 0
M  V30 12916 H 1203.84 4.80334 3.12973 0
M  V30 12917 H 1202.24 5.40233 2.61282 0
M  V30 12918 H 1203.31 4.6346 1.42594 0
M  V30 12919 N 1204.65 -0.602709 1.4562 0
M  V30 12920 C 1205.89 -1.37284 1.51435 0
M  V30 12921 C 1206.26 -1.9138 0.154148 0
M  V30 12922 O 1207.46 -2.68659 0.0870009 0
M  V30 12923 C 1205.73 -2.48651 2.56724 0
M  V30 12924 S 1207.29 -3.36354 2.818 0
M  V30 12925 H 1204.1 -0.46798 0.535272 0
M  V30 12926 H 1206.71 -0.694957 1.82731 0
M  V30 12927 H 1205.41 -2.07267 3.54215 0
M  V30 12928 H 1204.94 -3.21234 2.27095 0
M  V30 12929 H 1206.96 -4.46937 2.15549 0
M  V30 12930 N 1206.13 -1.32992 -0.845635 0
M  V30 12931 C 1207.06 -1.25301 -1.97033 0
M  V30 12932 C 1208.04 -0.134966 -1.69564 0
M  V30 12933 O 1209.23 -0.323629 -1.91484 0
M  V30 12934 C 1206.36 -0.984551 -3.33052 0
M  V30 12935 C 1205.31 -2.06481 -3.749 0
M  V30 12936 C 1204.64 -1.6486 -5.08651 0
M  V30 12937 C 1205.94 -3.48083 -3.89404 0
M  V30 12938 H 1207.63 -2.194 -2.03725 0
M  V30 12939 H 1205.18 -1.05621 -0.978783 0
M  V30 12940 H 1207.13 -0.917269 -4.11296 0
M  V30 12941 H 1205.85 -0.00793116 -3.26599 0
M  V30 12942 H 1204.51 -2.1224 -2.98915 0
M  V30 12943 H 1204.16 -0.659183 -4.98662 0
M  V30 12944 H 1203.86 -2.37145 -5.37621 0
M  V30 12945 H 1205.38 -1.59585 -5.89377 0
M  V30 12946 H 1206.8 -3.44863 -4.57976 0
M  V30 12947 H 1205.19 -4.18796 -4.29802 0
M  V30 12948 H 1206.26 -3.87084 -2.92051 0
M  V30 12949 N 1207.61 1.06304 -1.1635 0
M  V30 12950 C 1208.86 1.78487 -0.939423 0
M  V30 12951 C 1209.17 1.8817 0.533998 0
M  V30 12952 O 1210.38 2.56981 0.875962 0
M  V30 12953 C 1208.83 3.20796 -1.63149 0
M  V30 12954 C 1208.44 3.19281 -3.14267 0
M  V30 12955 C 1210.18 3.97514 -1.48938 0
M  V30 12956 C 1208.09 4.56309 -3.76213 0
M  V30 12957 H 1207.02 0.668973 -0.347837 0
M  V30 12958 H 1209.67 1.19237 -1.3948 0
M  V30 12959 H 1208.05 3.80305 -1.10382 0
M  V30 12960 H 1209.23 2.69356 -3.73877 0
M  V30 12961 H 1207.54 2.56062 -3.28362 0
M  V30 12962 H 1210.14 4.98808 -1.926 0
M  V30 12963 H 1210.48 4.13986 -0.438319 0
M  V30 12964 H 1211.02 3.44528 -1.98861 0
M  V30 12965 H 1207.75 4.45042 -4.81267 0
M  V30 12966 H 1207.27 5.06429 -3.21388 0
M  V30 12967 H 1208.95 5.25266 -3.77762 0
M  V30 12968 N 1209.09 0.96196 1.24836 0
M  V30 12969 C 1210.31 0.63814 1.96813 0
M  V30 12970 C 1210.73 -0.79127 1.71419 0
M  V30 12971 O 1210.09 -1.5302 0.994546 0
M  V30 12972 C 1210.14 0.89626 3.50213 0
M  V30 12973 O 1209.86 2.26947 3.74735 0
M  V30 12974 C 1211.36 0.585836 4.39412 0
M  V30 12975 H 1208.58 0.238598 0.627146 0
M  V30 12976 H 1211.12 1.28833 1.58815 0
M  V30 12977 H 1209.28 0.292368 3.86295 0
M  V30 12978 H 1209.69 2.34514 4.69152 0
M  V30 12979 H 1211.17 0.816935 5.45921 0
M  V30 12980 H 1211.64 -0.479784 4.36572 0
M  V30 12981 H 1212.25 1.16938 4.08908 0
M  V30 12982 N 1210.56 -1.39601 0.731392 0
M  V30 12983 C 1211.53 -2.28992 0.0976037 0
M  V30 12984 C 1212.53 -1.46135 -0.670917 0
M  V30 12985 O 1213.72 -1.66856 -0.50047 0
M  V30 12986 C 1210.85 -3.29582 -0.871124 0
M  V30 12987 H 1212.04 -2.86541 0.885112 0
M  V30 12988 H 1209.59 -1.48188 0.497002 0
M  V30 12989 H 1210.33 -2.77082 -1.68512 0
M  V30 12990 H 1210.11 -3.9077 -0.322735 0
M  V30 12991 H 1211.6 -3.96479 -1.31126 0
M  V30 12992 N 1212.04 -0.478751 -1.50152 0
M  V30 12993 C 1213.45 -0.0254907 -1.86683 0
M  V30 12994 C 1213.8 1.38171 -1.39295 0
M  V30 12995 O 1212.93 2.0257 -0.761207 0
M  V30 12996 C 1213.52 -0.0394819 -3.38777 0
M  V30 12997 C 1212.08 0.35834 -3.7469 0
M  V30 12998 C 1211.23 -0.421667 -2.74075 0
M  V30 12999 H 1214.18 -0.692653 -1.42787 0
M  V30 13000 H 1214.2 0.760957 -3.72813 0
M  V30 13001 H 1213.71 -1.06378 -3.73236 0
M  V30 13002 H 1211.82 1.38671 -3.45834 0
M  V30 13003 H 1211.93 0.0543589 -4.79069 0
M  V30 13004 H 1210.29 0.125634 -2.5439 0
M  V30 13005 H 1211.08 -1.44562 -3.11379 0
M  V30 13006 N 1213.52 1.56172 -0.211661 0
M  V30 13007 C 1214.77 1.98332 0.423332 0
M  V30 13008 C 1215.1 1.09895 1.60115 0
M  V30 13009 O 1214.37 0.154477 1.93886 0
M  V30 13010 C 1214.66 3.49495 0.86747 0
M  V30 13011 C 1214.51 4.48708 -0.313302 0
M  V30 13012 C 1215.83 4.04793 1.72716 0
M  V30 13013 H 1212.95 0.72107 0.152402 0
M  V30 13014 H 1215.59 1.87521 -0.305912 0
M  V30 13015 H 1213.74 3.58839 1.48885 0
M  V30 13016 H 1215.41 4.51385 -0.951291 0
M  V30 13017 H 1213.66 4.2299 -0.96238 0
M  V30 13018 H 1214.33 5.51985 0.0402402 0
M  V30 13019 H 1216.8 3.98332 1.20296 0
M  V30 13020 H 1215.68 5.10898 2.00684 0
M  V30 13021 H 1215.94 3.51067 2.68709 0
M  V30 13022 N 1215 -0.0618163 1.57479 0
M  V30 13023 C 1216.23 -0.771724 1.91969 0
M  V30 13024 C 1216.64 -1.7061 0.808549 0
M  V30 13025 O 1216 -1.812 -0.217455 0
M  V30 13026 C 1216.05 -1.55687 3.26257 0
M  V30 13027 O 1215.77 -0.660032 4.331 0
M  V30 13028 C 1217.27 -2.36688 3.74825 0
M  V30 13029 H 1214.49 -0.21885 0.634307 0
M  V30 13030 H 1217.04 -0.0291068 2.04479 0
M  V30 13031 H 1215.19 -2.25167 3.15244 0
M  V30 13032 H 1215.6 -1.20715 5.1042 0
M  V30 13033 H 1217.08 -2.8722 4.7139 0
M  V30 13034 H 1217.56 -3.1666 3.0434 0
M  V30 13035 H 1218.16 -1.72346 3.88815 0
M  V30 13036 N 1216.48 -1.54033 -0.333429 0
M  V30 13037 C 1217.41 -1.7756 -1.43345 0
M  V30 13038 C 1218.39 -0.625126 -1.50103 0
M  V30 13039 O 1219.57 -0.861444 -1.67665 0
M  V30 13040 C 1216.7 -1.88332 -2.81511 0
M  V30 13041 C 1215.74 -3.10556 -2.92331 0
M  V30 13042 S 1216.58 -4.69385 -2.57755 0
M  V30 13043 C 1217.73 -4.8305 -3.98011 0
M  V30 13044 H 1217.97 -2.70584 -1.23172 0
M  V30 13045 H 1215.5 -1.4503 -0.529691 0
M  V30 13046 H 1217.46 -1.95224 -3.61106 0
M  V30 13047 H 1216.12 -0.963031 -2.98972 0
M  V30 13048 H 1215.31 -3.14798 -3.93596 0
M  V30 13049 H 1214.91 -3.01943 -2.20696 0
M  V30 13050 H 1217.21 -4.65081 -4.92652 0
M  V30 13051 H 1218.15 -5.85148 -3.98757 0
M  V30 13052 H 1218.56 -4.11427 -3.86507 0
M  V30 13053 N 1217.95 0.594978 -1.45938 0
M  V30 13054 C 1219.2 1.34976 -1.49881 0
M  V30 13055 C 1219.52 1.95025 -0.14983 0
M  V30 13056 O 1220.72 2.71417 -0.0669868 0
M  V30 13057 C 1219.18 2.44563 -2.6404 0
M  V30 13058 C 1218.79 1.9087 -4.05306 0
M  V30 13059 C 1220.53 3.21461 -2.77242 0
M  V30 13060 C 1218.44 2.98013 -5.10825 0
M  V30 13061 H 1217.37 0.507366 -0.55776 0
M  V30 13062 H 1220.02 0.636316 -1.72114 0
M  V30 13063 H 1218.4 3.1865 -2.35114 0
M  V30 13064 H 1219.57 1.23408 -4.43968 0
M  V30 13065 H 1217.89 1.26678 -3.96663 0
M  V30 13066 H 1220.49 4.01399 -3.53246 0
M  V30 13067 H 1220.83 3.73271 -1.84321 0
M  V30 13068 H 1221.36 2.54477 -3.05756 0
M  V30 13069 H 1218.1 2.51104 -6.05497 0
M  V30 13070 H 1217.62 3.64003 -4.7672 0
M  V30 13071 H 1219.3 3.62178 -5.36131 0
M  V30 13072 N 1219.43 1.33438 0.838571 0
M  V30 13073 C 1220.36 1.26344 1.96365 0
M  V30 13074 C 1221.34 0.143956 1.6949 0
M  V30 13075 O 1222.53 0.333779 1.9131 0
M  V30 13076 C 1219.66 1.0022 3.32526 0
M  V30 13077 C 1218.61 2.08466 3.73799 0
M  V30 13078 C 1217.94 1.67555 5.07769 0
M  V30 13079 C 1219.24 3.50144 3.87552 0
M  V30 13080 H 1220.93 2.20478 2.02558 0
M  V30 13081 H 1218.48 1.06139 0.973168 0
M  V30 13082 H 1220.43 0.939068 4.10803 0
M  V30 13083 H 1219.16 0.0252514 3.2659 0
M  V30 13084 H 1217.81 2.13822 2.97785 0
M  V30 13085 H 1217.46 0.685619 4.98305 0
M  V30 13086 H 1217.16 2.39993 5.36356 0
M  V30 13087 H 1218.69 1.62708 5.88522 0
M  V30 13088 H 1220.1 3.47287 4.56141 0
M  V30 13089 H 1218.5 4.21069 4.27575 0
M  V30 13090 H 1219.57 3.88628 2.89994 0
M  V30 13091 N 1220.91 -1.05686 1.16912 0
M  V30 13092 C 1222.14 -1.82821 0.979348 0
M  V30 13093 C 1222.56 -1.82196 -0.467575 0
M  V30 13094 O 1221.92 -1.22727 -1.33445 0
M  V30 13095 C 1221.97 -3.2705 1.51891 0
M  V30 13096 O 1221.07 -4.05899 0.729341 0
M  V30 13097 H 1220.41 -0.565455 0.348076 0
M  V30 13098 H 1222.94 -1.33211 1.55293 0
M  V30 13099 H 1222.95 -3.77859 1.53904 0
M  V30 13100 H 1221.63 -3.26819 2.5722 0
M  V30 13101 H 1220.2 -3.64646 0.780221 0
M  V30 13102 N 1222.39 -0.968567 -1.24324 0
M  V30 13103 C 1223.61 -0.648166 -1.97012 0
M  V30 13104 C 1224.04 0.775842 -1.71354 0
M  V30 13105 O 1223.4 1.52672 -0.977804 0
M  V30 13106 C 1223.44 -0.929974 -3.48402 0
M  V30 13107 O 1222.55 -0.015854 -4.12397 0
M  V30 13108 H 1221.89 -0.244961 -0.617163 0
M  V30 13109 H 1224.42 -1.29895 -1.58077 0
M  V30 13110 H 1224.43 -0.861863 -3.98793 0
M  V30 13111 H 1223.1 -1.96776 -3.66404 0
M  V30 13112 H 1221.68 -0.137361 -3.72647 0
M  V30 13113 N 1223.87 1.39211 -0.738786 0
M  V30 13114 C 1224.8 2.29117 -0.0616489 0
M  V30 13115 C 1225.81 1.47008 0.699462 0
M  V30 13116 O 1227 1.70041 0.542998 0
M  V30 13117 C 1224.1 3.25692 0.936893 0
M  V30 13118 C 1223.27 4.3676 0.236515 0
M  V30 13119 C 1222.33 5.1362 1.1437 0
M  V30 13120 O 1221.36 5.65816 0.619762 0
M  V30 13121 N 1222.56 5.25184 2.4731 0
M  V30 13122 H 1225.33 2.8787 -0.833711 0
M  V30 13123 H 1222.89 1.50832 -0.588323 0
M  V30 13124 H 1224.88 3.73987 1.54648 0
M  V30 13125 H 1223.45 2.67943 1.61014 0
M  V30 13126 H 1222.67 3.90293 -0.553594 0
M  V30 13127 H 1223.96 5.08192 -0.248707 0
M  V30 13128 H 1223.35 4.84302 2.92349 0
M  V30 13129 H 1221.91 5.76905 3.03355 0
M  V30 13130 N 1225.34 0.486708 1.49896 0
M  V30 13131 C 1226.28 -0.335809 2.26727 0
M  V30 13132 C 1227.29 -0.94333 1.32684 0
M  V30 13133 O 1228.48 -0.82909 1.58077 0
M  V30 13134 C 1225.58 -1.48642 3.04563 0
M  V30 13135 C 1224.75 -0.988837 4.26076 0
M  V30 13136 C 1223.81 -2.01535 4.86076 0
M  V30 13137 O 1222.84 -1.58966 5.46552 0
M  V30 13138 N 1224.04 -3.34471 4.74457 0
M  V30 13139 H 1226.8 0.322919 2.97955 0
M  V30 13140 H 1224.36 0.318403 1.58738 0
M  V30 13141 H 1226.36 -2.17039 3.41579 0
M  V30 13142 H 1224.93 -2.04956 2.36033 0
M  V30 13143 H 1224.15 -0.130232 3.93985 0
M  V30 13144 H 1225.43 -0.634562 5.04827 0
M  V30 13145 H 1224.83 -3.71755 4.26398 0
M  V30 13146 H 1223.39 -3.98621 5.15698 0
M  V30 13147 N 1226.82 -1.56058 0.219941 0
M  V30 13148 C 1228.1 -1.90087 -0.46112 0
M  V30 13149 C 1228.48 -1.13705 -1.77861 0
M  V30 13150 O 1227.83 -0.245868 -2.27173 0
M  V30 13151 C 1228.04 -3.42786 -0.655644 0
M  V30 13152 C 1229.39 -4.13517 -0.963803 0
M  V30 13153 O 1230.41 -3.48376 -0.742488 0
M  V30 13154 O 1229.27 -5.28692 -1.38374 0
M  V30 13155 H 1226.36 -0.790311 -0.243595 0
M  V30 13156 H 1228.91 -1.67665 0.262005 0
M  V30 13157 H 1227.68 -3.90341 0.273738 0
M  V30 13158 H 1227.3 -3.70982 -1.43032 0
M  V30 13159 N 1228.3 0.053464 -1.57509 0
M  V30 13160 C 1229.26 1.04604 -2.03938 0
M  V30 13161 C 1230.26 1.30509 -0.939357 0
M  V30 13162 O 1231.45 1.25922 -1.20371 0
M  V30 13163 C 1228.59 2.38516 -2.43563 0
M  V30 13164 H 1229.78 0.645484 -2.92871 0
M  V30 13165 H 1227.33 0.299683 -1.534 0
M  V30 13166 H 1228.07 2.83368 -1.57712 0
M  V30 13167 H 1227.85 2.2105 -3.23851 0
M  V30 13168 H 1229.34 3.09826 -2.79996 0
M  V30 13169 N 1229.78 1.54207 0.325255 0
M  V30 13170 C 1230.74 1.82757 1.38321 0
M  V30 13171 C 1231.74 0.699312 1.44797 0
M  V30 13172 O 1232.93 0.96762 1.44854 0
M  V30 13173 C 1230.06 1.98608 2.7707 0
M  V30 13174 H 1231.26 2.7728 1.14261 0
M  V30 13175 H 1228.81 1.45899 0.560647 0
M  V30 13176 H 1229.55 1.0629 3.06387 0
M  V30 13177 H 1229.33 2.80707 2.73763 0
M  V30 13178 H 1230.82 2.2215 3.53609 0
M  V30 13179 N 1231.26 -0.58723 1.46251 0
M  V30 13180 C 1232.5 -1.3456 1.51327 0
M  V30 13181 C 1232.83 -1.93815 0.163146 0
M  V30 13182 O 1232.09 -1.76723 -0.840677 0
M  V30 13183 C 1232.39 -2.49776 2.5563 0
M  V30 13184 C 1232.05 -2.08543 3.99776 0
M  V30 13185 C 1230.71 -1.97013 4.39021 0
M  V30 13186 C 1233.07 -1.76669 4.90344 0
M  V30 13187 C 1230.39 -1.5186 5.66706 0
M  V30 13188 C 1232.75 -1.32996 6.18462 0
M  V30 13189 C 1231.41 -1.20039 6.56618 0
M  V30 13190 H 1230.68 -0.492391 0.553744 0
M  V30 13191 H 1233.33 -0.661715 1.79704 0
M  V30 13192 H 1231.63 -3.23592 2.20897 0
M  V30 13193 H 1233.33 -3.07995 2.56788 0
M  V30 13194 H 1229.92 -2.18451 3.68751 0
M  V30 13195 H 1234.1 -1.84465 4.60746 0
M  V30 13196 H 1229.36 -1.40467 5.95045 0
M  V30 13197 H 1233.53 -1.07385 6.88071 0
M  V30 13198 H 1231.16 -0.848268 7.55452 0
M  V30 13199 N 1232.74 -1.33881 -0.831482 0
M  V30 13200 C 1233.7 -1.24654 -1.92339 0
M  V30 13201 C 1234.7 -0.163788 -1.59964 0
M  V30 13202 O 1235.89 -0.415829 -1.69164 0
M  V30 13203 C 1233.02 -0.922537 -3.2818 0
M  V30 13204 H 1234.21 -2.21717 -2.01944 0
M  V30 13205 H 1231.77 -1.18046 -1.02445 0
M  V30 13206 H 1232.5 0.0452872 -3.24268 0
M  V30 13207 H 1232.29 -1.70562 -3.53059 0
M  V30 13208 H 1233.78 -0.88292 -4.0816 0
M  V30 13209 N 1234.21 1.05064 -1.1747 0
M  V30 13210 C 1235.46 1.78089 -0.963883 0
M  V30 13211 C 1235.79 1.87766 0.507365 0
M  V30 13212 O 1235.04 1.37477 1.39279 0
M  V30 13213 C 1235.34 3.21961 -1.55164 0
M  V30 13214 C 1235.01 3.32339 -3.04732 0
M  V30 13215 C 1233.67 3.34878 -3.45557 0
M  V30 13216 C 1236.02 3.3325 -4.00741 0
M  V30 13217 C 1233.35 3.35959 -4.80987 0
M  V30 13218 C 1235.7 3.3587 -5.36073 0
M  V30 13219 C 1234.37 3.36697 -5.7636 0
M  V30 13220 H 1233.64 0.651672 -0.35271 0
M  V30 13221 H 1236.28 1.23471 -1.4638 0
M  V30 13222 H 1234.59 3.79514 -0.973471 0
M  V30 13223 H 1236.29 3.77087 -1.36406 0
M  V30 13224 H 1232.88 3.31076 -2.72188 0
M  V30 13225 H 1237.06 3.30488 -3.70258 0
M  V30 13226 H 1232.32 3.34911 -5.11512 0
M  V30 13227 H 1236.49 3.35524 -6.10243 0
M  V30 13228 H 1234.12 3.37288 -6.81279 0
M  V30 13229 N 1235.69 0.975146 1.23809 0
M  V30 13230 C 1236.65 0.516157 2.23312 0
M  V30 13231 C 1237.65 -0.39136 1.55965 0
M  V30 13232 O 1238.84 -0.185783 1.73206 0
M  V30 13233 C 1235.98 -0.251534 3.39971 0
M  V30 13234 H 1237.17 1.3959 2.65433 0
M  V30 13235 H 1234.72 0.760493 1.36551 0
M  V30 13236 H 1235.46 -1.14805 3.03299 0
M  V30 13237 H 1235.24 0.399825 3.90056 0
M  V30 13238 H 1236.73 -0.561438 4.13809 0
M  V30 13239 N 1237.17 -1.38817 0.746158 0
M  V30 13240 C 1238.39 -2.05096 0.308302 0
M  V30 13241 C 1238.82 -1.55902 -1.05244 0
M  V30 13242 O 1238.18 -0.707685 -1.66918 0
M  V30 13243 C 1238.23 -3.59068 0.332016 0
M  V30 13244 O 1237.33 -4.06813 -0.676547 0
M  V30 13245 H 1236.67 -0.649523 0.1379 0
M  V30 13246 H 1239.2 -1.77637 1.0152 0
M  V30 13247 H 1239.21 -4.07601 0.180293 0
M  V30 13248 H 1237.89 -3.94234 1.32487 0
M  V30 13249 H 1236.46 -3.69666 -0.490046 0
M  V30 13250 N 1238.65 -0.49465 -1.49636 0
M  V30 13251 C 1239.58 0.276606 -2.31856 0
M  V30 13252 C 1240.56 0.968499 -1.39836 0
M  V30 13253 O 1241.74 0.96113 -1.68748 0
M  V30 13254 C 1238.87 1.34522 -3.20189 0
M  V30 13255 C 1237.83 0.773571 -4.20951 0
M  V30 13256 C 1237.15 1.94223 -4.98178 0
M  V30 13257 C 1238.45 -0.231096 -5.21788 0
M  V30 13258 H 1240.15 -0.409668 -2.96584 0
M  V30 13259 H 1237.69 -0.198461 -1.42626 0
M  V30 13260 H 1239.65 1.89244 -3.76517 0
M  V30 13261 H 1238.37 2.06059 -2.53392 0
M  V30 13262 H 1237.03 0.248144 -3.65759 0
M  V30 13263 H 1236.68 2.64514 -4.27834 0
M  V30 13264 H 1236.38 1.56584 -5.66353 0
M  V30 13265 H 1237.9 2.49391 -5.57348 0
M  V30 13266 H 1239.32 0.227768 -5.72847 0
M  V30 13267 H 1237.71 -0.522984 -5.97817 0
M  V30 13268 H 1238.78 -1.14914 -4.71087 0
M  V30 13269 N 1240.13 1.55939 -0.228214 0
M  V30 13270 C 1241.09 2.1932 0.665681 0
M  V30 13271 C 1242.09 1.15699 1.11671 0
M  V30 13272 O 1243.28 1.40893 1.02444 0
M  V30 13273 C 1240.41 2.82185 1.9127 0
M  V30 13274 H 1241.6 2.99687 0.112986 0
M  V30 13275 H 1239.16 1.56285 0.0213865 0
M  V30 13276 H 1239.89 2.05706 2.5071 0
M  V30 13277 H 1239.68 3.58073 1.5977 0
M  V30 13278 H 1241.17 3.30748 2.54942 0
M  V30 13279 N 1241.6 -0.0451101 1.57535 0
M  V30 13280 C 1242.85 -0.738072 1.87711 0
M  V30 13281 C 1243.17 -1.7737 0.824579 0
M  V30 13282 O 1244.37 -2.51812 1.01503 0
M  V30 13283 C 1242.83 -1.36373 3.33062 0
M  V30 13284 C 1242.44 -0.365283 4.46508 0
M  V30 13285 C 1244.18 -2.0375 3.72406 0
M  V30 13286 C 1242.09 -0.998371 5.82912 0
M  V30 13287 H 1241.02 -0.279413 0.700317 0
M  V30 13288 H 1243.67 0.00802425 1.83498 0
M  V30 13289 H 1242.05 -2.15899 3.31969 0
M  V30 13290 H 1243.22 0.402102 4.59042 0
M  V30 13291 H 1241.54 0.205505 4.15893 0
M  V30 13292 H 1244.14 -2.51939 4.71625 0
M  V30 13293 H 1244.48 -2.84869 3.03571 0
M  V30 13294 H 1245.01 -1.3102 3.75604 0
M  V30 13295 H 1241.75 -0.226935 6.55107 0
M  V30 13296 H 1241.27 -1.73598 5.74129 0
M  V30 13297 H 1242.95 -1.51044 6.29122 0
M  V30 13298 N 1243.08 -1.54377 -0.317073 0
M  V30 13299 C 1244.33 -1.73149 -1.05581 0
M  V30 13300 C 1244.66 -0.507176 -1.8746 0
M  V30 13301 O 1243.94 0.495837 -1.88074 0
M  V30 13302 C 1244.22 -3.01098 -1.97515 0
M  V30 13303 C 1244.07 -4.33794 -1.18922 0
M  V30 13304 C 1245.39 -3.24831 -2.9694 0
M  V30 13305 H 1242.51 -0.630011 -0.382434 0
M  V30 13306 H 1245.15 -1.87079 -0.331873 0
M  V30 13307 H 1243.3 -2.89352 -2.59244 0
M  V30 13308 H 1244.97 -4.57433 -0.596039 0
M  V30 13309 H 1243.22 -4.31005 -0.491612 0
M  V30 13310 H 1243.89 -5.19554 -1.86462 0
M  V30 13311 H 1246.36 -3.3608 -2.45335 0
M  V30 13312 H 1245.24 -4.15702 -3.58445 0
M  V30 13313 H 1245.5 -2.42365 -3.69745 0
M  V30 13314 N 1244.56 0.579466 -1.4656 0
M  V30 13315 C 1245.81 1.33756 -1.52038 0
M  V30 13316 C 1246.14 1.93725 -0.173423 0
M  V30 13317 O 1245.39 1.77167 0.831293 0
M  V30 13318 C 1245.69 2.48417 -2.56951 0
M  V30 13319 C 1245.36 2.0642 -4.00876 0
M  V30 13320 C 1244.02 1.94682 -4.4006 0
M  V30 13321 C 1246.37 1.74066 -4.91274 0
M  V30 13322 C 1243.7 1.48852 -5.67503 0
M  V30 13323 C 1246.05 1.29714 -6.19158 0
M  V30 13324 C 1244.71 1.16555 -6.57245 0
M  V30 13325 H 1243.98 0.489447 -0.556347 0
M  V30 13326 H 1246.63 0.652176 -1.80053 0
M  V30 13327 H 1244.94 3.22416 -2.2261 0
M  V30 13328 H 1246.63 3.06629 -2.58418 0
M  V30 13329 H 1243.22 2.16492 -3.69904 0
M  V30 13330 H 1247.41 1.82019 -4.61717 0
M  V30 13331 H 1242.66 1.3731 -5.95782 0
M  V30 13332 H 1246.84 1.03734 -6.88631 0
M  V30 13333 H 1244.46 0.808193 -7.55892 0
M  V30 13334 N 1246.04 1.3432 0.824371 0
M  V30 13335 C 1247.26 1.2982 1.61745 0
M  V30 13336 C 1247.69 -0.125298 1.87682 0
M  V30 13337 O 1247.05 -1.08658 1.45131 0
M  V30 13338 C 1247.09 2.09327 2.93623 0
M  V30 13339 O 1246.2 1.4618 3.85623 0
M  V30 13340 H 1245.54 0.445929 0.491979 0
M  V30 13341 H 1248.07 1.77101 1.02452 0
M  V30 13342 H 1248.08 2.20629 3.43201 0
M  V30 13343 H 1246.75 3.12825 2.74069 0
M  V30 13344 H 1245.33 1.43611 3.44137 0
M  V30 13345 N 1247.52 -1.0444 1.18026 0
M  V30 13346 C 1248.74 -1.81772 0.998684 0
M  V30 13347 C 1249.17 -1.82682 -0.448225 0
M  V30 13348 O 1248.52 -1.24136 -1.32136 0
M  V30 13349 C 1248.57 -3.2542 1.55352 0
M  V30 13350 O 1247.68 -4.05103 0.772351 0
M  V30 13351 H 1247.02 -0.561731 0.354054 0
M  V30 13352 H 1249.55 -1.31557 1.56697 0
M  V30 13353 H 1249.56 -3.76206 1.57903 0
M  V30 13354 H 1248.23 -3.24073 2.60672 0
M  V30 13355 H 1246.81 -3.63798 0.818852 0
M  V30 13356 N 1248.99 -0.981699 -1.2329 0
M  V30 13357 C 1250.22 -0.668399 -1.95489 0
M  V30 13358 C 1250.63 0.768976 -1.72868 0
M  V30 13359 O 1249.98 1.52925 -1.01783 0
M  V30 13360 C 1250.04 -0.880535 -3.4855 0
M  V30 13361 C 1249.7 -2.30023 -3.9489 0
M  V30 13362 C 1250.7 -3.27899 -4.03458 0
M  V30 13363 C 1248.38 -2.63167 -4.27842 0
M  V30 13364 C 1250.38 -4.56999 -4.44332 0
M  V30 13365 C 1248.06 -3.92489 -4.68397 0
M  V30 13366 C 1249.06 -4.89216 -4.76609 0
M  V30 13367 O 1248.75 -6.16229 -5.16253 0
M  V30 13368 H 1248.48 -0.247255 -0.629159 0
M  V30 13369 H 1251.04 -1.31606 -1.57699 0
M  V30 13370 H 1249.27 -0.175698 -3.86301 0
M  V30 13371 H 1250.96 -0.564198 -4.0196 0
M  V30 13372 H 1251.72 -3.03624 -3.78203 0
M  V30 13373 H 1247.6 -1.88588 -4.20661 0
M  V30 13374 H 1251.14 -5.32498 -4.50656 0
M  V30 13375 H 1247.04 -4.16558 -4.93102 0
M  V30 13376 H 1247.81 -6.20001 -5.34361 0
M  V30 13377 N 1250.47 1.3842 -0.753509 0
M  V30 13378 C 1251.72 1.99359 -0.306416 0
M  V30 13379 C 1252.03 1.60492 1.11811 0
M  V30 13380 O 1253.24 2.14401 1.66567 0
M  V30 13381 C 1251.7 3.56453 -0.496895 0
M  V30 13382 C 1251.3 4.04272 -1.9305 0
M  V30 13383 C 1253.05 4.24351 -0.11251 0
M  V30 13384 C 1250.96 5.54007 -2.06955 0
M  V30 13385 H 1249.89 0.745812 -0.110818 0
M  V30 13386 H 1252.54 1.58185 -0.930039 0
M  V30 13387 H 1250.92 3.95515 0.195912 0
M  V30 13388 H 1252.09 3.765 -2.65677 0
M  V30 13389 H 1250.41 3.49098 -2.26979 0
M  V30 13390 H 1253 5.34344 -0.195161 0
M  V30 13391 H 1253.35 4.05668 0.934849 0
M  V30 13392 H 1253.88 3.90528 -0.757168 0
M  V30 13393 H 1250.62 5.77594 -3.09944 0
M  V30 13394 H 1250.14 5.83522 -1.38788 0
M  V30 13395 H 1251.82 6.19704 -1.85945 0
M  V30 13396 N 1251.95 0.502579 1.49372 0
M  V30 13397 C 1253.18 -0.0381429 2.06865 0
M  V30 13398 C 1253.59 -1.30674 1.36271 0
M  V30 13399 O 1252.95 -1.77078 0.441532 0
M  V30 13400 C 1253 -0.294068 3.60302 0
M  V30 13401 O 1252.72 0.924244 4.2824 0
M  V30 13402 C 1254.22 -0.878253 4.34513 0
M  V30 13403 H 1251.44 0.0211756 0.670666 0
M  V30 13404 H 1253.99 0.700387 1.92132 0
M  V30 13405 H 1252.14 -0.982583 3.74732 0
M  V30 13406 H 1252.56 0.688062 5.19967 0
M  V30 13407 H 1254.03 -1.0069 5.42739 0
M  V30 13408 H 1254.51 -1.87643 3.97098 0
M  V30 13409 H 1255.11 -0.227157 4.24693 0
M  V30 13410 N 1253.43 -1.55816 0.23648 0
M  V30 13411 C 1254.36 -2.23924 -0.661834 0
M  V30 13412 C 1255.34 -1.21597 -1.18946 0
M  V30 13413 O 1256.52 -1.50222 -1.23073 0
M  V30 13414 C 1253.65 -2.93069 -1.86355 0
M  V30 13415 C 1252.61 -4.01996 -1.46913 0
M  V30 13416 C 1251.93 -4.58512 -2.75083 0
M  V30 13417 C 1253.23 -5.18265 -0.647964 0
M  V30 13418 H 1254.93 -2.99253 -0.0939368 0
M  V30 13419 H 1252.47 -1.43934 -0.0437407 0
M  V30 13420 H 1254.43 -3.39412 -2.49755 0
M  V30 13421 H 1253.15 -2.15212 -2.45665 0
M  V30 13422 H 1251.81 -3.56406 -0.858522 0
M  V30 13423 H 1251.46 -3.77368 -3.3257 0
M  V30 13424 H 1251.16 -5.32037 -2.49421 0
M  V30 13425 H 1252.68 -5.07583 -3.39399 0
M  V30 13426 H 1254.1 -5.60898 -1.18602 0
M  V30 13427 H 1252.49 -5.98114 -0.487823 0
M  V30 13428 H 1253.56 -4.83691 0.342151 0
M  V30 13429 N 1254.91 0.036755 -1.57557 0
M  V30 13430 C 1256.15 0.730186 -1.89199 0
M  V30 13431 C 1256.49 1.75414 -0.833271 0
M  V30 13432 O 1255.76 1.93901 0.152579 0
M  V30 13433 C 1256.04 1.40669 -3.31488 0
M  V30 13434 C 1255.9 0.396764 -4.48047 0
M  V30 13435 C 1257.22 2.34268 -3.72567 0
M  V30 13436 H 1254.33 0.263983 -0.6881 0
M  V30 13437 H 1256.98 -0.0069847 -1.89999 0
M  V30 13438 H 1255.13 2.03502 -3.30937 0
M  V30 13439 H 1256.8 -0.229062 -4.60731 0
M  V30 13440 H 1255.04 -0.284698 -4.32865 0
M  V30 13441 H 1255.71 0.908436 -5.44474 0
M  V30 13442 H 1258.19 1.81485 -3.74436 0
M  V30 13443 H 1257.06 2.78587 -4.72949 0
M  V30 13444 H 1257.33 3.20611 -3.04403 0
M  V30 13445 N 1256.39 1.54543 0.308881 0
M  V30 13446 C 1257.63 1.73706 1.04661 0
M  V30 13447 C 1257.96 0.517111 1.87189 0
M  V30 13448 O 1257.24 -0.485856 1.88334 0
M  V30 13449 C 1257.52 3.02141 1.95916 0
M  V30 13450 C 1257.38 4.34419 1.1662 0
M  V30 13451 C 1258.69 3.26401 2.95213 0
M  V30 13452 H 1255.81 0.63203 0.379087 0
M  V30 13453 H 1258.46 1.87253 0.321947 0
M  V30 13454 H 1256.61 2.90723 2.57706 0
M  V30 13455 H 1258.28 4.57743 0.571772 0
M  V30 13456 H 1256.52 4.3126 0.468747 0
M  V30 13457 H 1257.19 5.20535 1.83704 0
M  V30 13458 H 1259.67 3.37377 2.43549 0
M  V30 13459 H 1258.54 4.17597 3.56235 0
M  V30 13460 H 1258.8 2.44322 3.68455 0
M  V30 13461 N 1257.86 -0.571685 1.46866 0
M  V30 13462 C 1258.79 -1.68994 1.61131 0
M  V30 13463 C 1259.77 -1.63728 0.461222 0
M  V30 13464 O 1260.96 -1.81574 0.688813 0
M  V30 13465 C 1258.09 -3.07638 1.61172 0
M  V30 13466 C 1257.04 -3.27742 2.75262 0
M  V30 13467 C 1256.37 -4.67025 2.60368 0
M  V30 13468 C 1257.67 -3.14511 4.16989 0
M  V30 13469 H 1259.36 -1.57311 2.54742 0
M  V30 13470 H 1256.91 -0.755382 1.22597 0
M  V30 13471 H 1258.86 -3.857 1.69744 0
M  V30 13472 H 1257.59 -3.20245 0.641122 0
M  V30 13473 H 1256.25 -2.52083 2.66176 0
M  V30 13474 H 1255.89 -4.76413 1.61368 0
M  V30 13475 H 1255.59 -4.81428 3.36899 0
M  V30 13476 H 1257.12 -5.47242 2.70848 0
M  V30 13477 H 1258.53 -3.82407 4.27128 0
M  V30 13478 H 1256.93 -3.40431 4.94193 0
M  V30 13479 H 1258 -2.11443 4.36371 0
M  V30 13480 N 1259.34 -1.34755 -0.817236 0
M  V30 13481 C 1260.59 -1.27432 -1.57377 0
M  V30 13482 C 1260.92 0.15419 -1.93888 0
M  V30 13483 O 1260.17 1.11686 -1.60701 0
M  V30 13484 C 1260.47 -2.11611 -2.8802 0
M  V30 13485 C 1260.14 -3.60543 -2.70776 0
M  V30 13486 C 1258.8 -4.01141 -2.6578 0
M  V30 13487 C 1261.15 -4.55089 -2.54053 0
M  V30 13488 C 1258.48 -5.34469 -2.41991 0
M  V30 13489 C 1260.83 -5.88603 -2.31795 0
M  V30 13490 C 1259.49 -6.28358 -2.25215 0
M  V30 13491 H 1258.76 -0.466305 -0.575882 0
M  V30 13492 H 1261.41 -1.66552 -0.945128 0
M  V30 13493 H 1259.72 -1.65336 -3.55206 0
M  V30 13494 H 1261.41 -2.03287 -3.45652 0
M  V30 13495 H 1258 -3.2832 -2.75506 0
M  V30 13496 H 1262.19 -4.24617 -2.56932 0
M  V30 13497 H 1257.44 -5.64284 -2.35359 0
M  V30 13498 H 1261.62 -6.61451 -2.17844 0
M  V30 13499 H 1259.24 -7.31604 -2.06543 0
M  V30 13500 N 1260.82 1.03812 -1.18578 0
M  V30 13501 C 1262.07 1.77319 -0.984173 0
M  V30 13502 C 1262.4 1.88052 0.484789 0
M  V30 13503 O 1261.67 1.3905 1.35998 0
M  V30 13504 C 1261.96 3.20448 -1.6427 0
M  V30 13505 C 1261.81 3.17643 -3.1847 0
M  V30 13506 C 1263.13 4.18623 -1.35805 0
M  V30 13507 H 1260.25 0.643681 -0.358949 0
M  V30 13508 H 1262.89 1.21249 -1.46283 0
M  V30 13509 H 1261.04 3.68324 -1.23572 0
M  V30 13510 H 1262.71 2.77738 -3.6832 0
M  V30 13511 H 1260.95 2.55606 -3.50497 0
M  V30 13512 H 1261.63 4.18724 -3.59686 0
M  V30 13513 H 1264.1 3.79306 -1.71073 0
M  V30 13514 H 1262.98 5.16982 -1.84446 0
M  V30 13515 H 1263.24 4.41203 -0.281418 0
M  V30 13516 N 1262.3 0.988223 1.22768 0
M  V30 13517 C 1263.71 0.697281 1.7319 0
M  V30 13518 C 1264.06 -0.786111 1.79763 0
M  V30 13519 O 1263.18 -1.61465 1.44077 0
M  V30 13520 C 1263.78 1.25905 3.14537 0
M  V30 13521 C 1262.34 1.01759 3.62384 0
M  V30 13522 C 1261.49 1.38207 2.40404 0
M  V30 13523 H 1264.44 1.16114 1.08181 0
M  V30 13524 H 1264.46 0.635315 3.75159 0
M  V30 13525 H 1263.97 2.33869 3.09721 0
M  V30 13526 H 1262.07 -0.045627 3.72572 0
M  V30 13527 H 1262.18 1.67767 4.48766 0
M  V30 13528 H 1260.55 0.800607 2.4179 0
M  V30 13529 H 1261.33 2.47165 2.38253 0
M  V30 13530 N 1263.78 -1.38018 0.760839 0
M  V30 13531 C 1264.72 -2.30387 0.13796 0
M  V30 13532 C 1265.69 -1.50548 -0.701754 0
M  V30 13533 O 1266.88 -1.79154 -0.656381 0
M  V30 13534 C 1264.02 -3.36993 -0.743642 0
M  V30 13535 C 1263.13 -4.31856 0.111489 0
M  V30 13536 C 1262.27 -5.25534 -0.773796 0
M  V30 13537 C 1261.3 -6.12042 0.0845311 0
M  V30 13538 N 1260.44 -6.97995 -0.758118 0
M  V30 13539 H 1265.28 -2.83077 0.931212 0
M  V30 13540 H 1262.82 -1.39361 0.470833 0
M  V30 13541 H 1264.78 -3.97417 -1.26948 0
M  V30 13542 H 1263.41 -2.85695 -1.50261 0
M  V30 13543 H 1262.46 -3.72832 0.755031 0
M  V30 13544 H 1263.77 -4.92758 0.774042 0
M  V30 13545 H 1262.92 -5.9111 -1.36653 0
M  V30 13546 H 1261.66 -4.65017 -1.47006 0
M  V30 13547 H 1260.67 -5.45455 0.689883 0
M  V30 13548 H 1261.89 -6.74629 0.777966 0
M  V30 13549 H 1259.84 -6.40018 -1.4392 0
M  V30 13550 H 1259.76 -7.55846 -0.152623 0
M  V30 13551 H 1261.02 -7.67973 -1.33559 0
M  V30 13552 N 1265.25 -0.510493 -1.49103 0
M  V30 13553 C 1266.19 0.309697 -2.26089 0
M  V30 13554 C 1267.16 0.962061 -1.31084 0
M  V30 13555 O 1268.35 0.990296 -1.60391 0
M  V30 13556 C 1265.48 1.43693 -3.06708 0
M  V30 13557 C 1264.52 0.897978 -4.1694 0
M  V30 13558 S 1265.35 -0.218781 -5.35053 0
M  V30 13559 C 1266.51 0.911396 -6.19229 0
M  V30 13560 H 1266.74 -0.343702 -2.95307 0
M  V30 13561 H 1264.28 -0.295944 -1.51537 0
M  V30 13562 H 1266.23 2.08277 -3.53739 0
M  V30 13563 H 1264.9 2.06198 -2.36941 0
M  V30 13564 H 1264.09 1.74303 -4.729 0
M  V30 13565 H 1263.69 0.329192 -3.72548 0
M  V30 13566 H 1265.98 1.8145 -6.5275 0
M  V30 13567 H 1266.93 0.390201 -7.07024 0
M  V30 13568 H 1267.33 1.18301 -5.51965 0
M  V30 13569 N 1266.73 1.55688 -0.24474 0
M  V30 13570 C 1268.15 1.59219 0.110159 0
M  V30 13571 C 1268.35 1.26187 1.57096 0
M  V30 13572 O 1267.4 1.00815 2.31501 0
M  V30 13573 C 1268.72 2.99764 -0.237075 0
M  V30 13574 C 1270.26 3.12475 -0.181198 0
M  V30 13575 C 1270.74 4.55236 -0.502435 0
M  V30 13576 N 1272.23 4.60981 -0.452855 0
M  V30 13577 C 1272.97 5.69418 -0.674605 0
M  V30 13578 N 1272.46 6.86125 -0.959366 0
M  V30 13579 N 1274.25 5.5883 -0.605459 0
M  V30 13580 H 1266.41 1.7543 -1.19741 0
M  V30 13581 H 1268.67 0.816537 -0.481634 0
M  V30 13582 H 1268.37 3.28666 -1.25185 0
M  V30 13583 H 1268.25 3.74662 0.436859 0
M  V30 13584 H 1270.64 2.83355 0.824248 0
M  V30 13585 H 1270.72 2.39857 -0.888952 0
M  V30 13586 H 1270.36 4.85077 -1.50543 0
M  V30 13587 H 1270.29 5.26111 0.226773 0
M  V30 13588 H 1272.78 3.77128 -0.241401 0
M  V30 13589 H 1273.09 7.64699 -1.11605 0
M  V30 13590 H 1271.44 6.87814 -0.996816 0
M  V30 13591 H 1274.63 4.6653 -0.383053 0
M  V30 13592 H 1274.8 6.43268 -0.781673 0
M  V30 13593 N 1268.21 -0.0283989 1.57574 0
M  V30 13594 C 1269.63 -0.384054 1.5491 0
M  V30 13595 C 1269.83 -1.76564 0.970947 0
M  V30 13596 O 1268.88 -2.45455 0.592288 0
M  V30 13597 C 1270.19 -0.285297 2.99344 0
M  V30 13598 C 1271.74 -0.36233 3.10896 0
M  V30 13599 C 1272.22 -0.293014 4.57062 0
M  V30 13600 N 1273.71 -0.351788 4.61862 0
M  V30 13601 C 1274.44 -0.321054 5.725 0
M  V30 13602 N 1273.94 -0.242573 6.92375 0
M  V30 13603 N 1275.73 -0.370832 5.60875 0
M  V30 13604 H 1267.88 0.87573 1.93506 0
M  V30 13605 H 1270.15 0.33305 0.887571 0
M  V30 13606 H 1269.85 0.664146 3.45372 0
M  V30 13607 H 1269.73 -1.07869 3.61447 0
M  V30 13608 H 1272.11 -1.30221 2.64814 0
M  V30 13609 H 1272.19 0.460422 2.51622 0
M  V30 13610 H 1271.84 0.643197 5.03811 0
M  V30 13611 H 1271.77 -1.13388 5.14248 0
M  V30 13612 H 1274.26 -0.414929 3.75615 0
M  V30 13613 H 1274.57 -0.224239 7.72475 0
M  V30 13614 H 1272.92 -0.208612 6.94687 0
M  V30 13615 H 1276.11 -0.430141 4.6612 0
M  V30 13616 H 1276.28 -0.343412 6.47089 0
M  V30 13617 N 1269.69 -1.54705 -0.300681 0
M  V30 13618 C 1270.62 -1.88679 -1.37559 0
M  V30 13619 C 1271.6 -0.74574 -1.52881 0
M  V30 13620 O 1272.78 -1.0015 -1.66384 0
M  V30 13621 C 1269.91 -2.13438 -2.73974 0
M  V30 13622 C 1268.87 -3.29284 -2.73415 0
M  V30 13623 C 1268.19 -3.39462 -4.13122 0
M  V30 13624 C 1269.49 -4.66382 -2.35128 0
M  V30 13625 H 1271.19 -2.78707 -1.09373 0
M  V30 13626 H 1268.73 -1.341 -0.524704 0
M  V30 13627 H 1270.69 -2.35791 -3.49257 0
M  V30 13628 H 1269.41 -1.20181 -3.03684 0
M  V30 13629 H 1268.07 -3.06855 -2.00588 0
M  V30 13630 H 1267.72 -2.43721 -4.4001 0
M  V30 13631 H 1267.42 -4.17334 -4.1365 0
M  V30 13632 H 1268.94 -3.64075 -4.90185 0
M  V30 13633 H 1270.36 -4.88463 -3.00128 0
M  V30 13634 H 1268.75 -5.4697 -2.46867 0
M  V30 13635 H 1269.82 -4.67078 -1.30256 0
M  V30 13636 N 1271.17 0.563888 -1.47167 0
M  V30 13637 C 1272.42 1.31766 -1.5271 0
M  V30 13638 C 1272.73 1.94664 -0.191164 0
M  V30 13639 O 1273.93 2.71214 -0.124543 0
M  V30 13640 C 1272.39 2.38907 -2.69168 0
M  V30 13641 C 1272 1.8223 -4.09263 0
M  V30 13642 C 1273.74 3.15508 -2.83999 0
M  V30 13643 C 1271.65 2.87111 -5.17031 0
M  V30 13644 H 1270.58 0.495421 -0.568396 0
M  V30 13645 H 1273.23 0.599665 -1.73425 0
M  V30 13646 H 1271.61 3.13591 -2.4182 0
M  V30 13647 H 1272.79 1.13963 -4.46485 0
M  V30 13648 H 1271.1 1.18235 -3.99261 0
M  V30 13649 H 1273.7 3.93816 -3.61681 0
M  V30 13650 H 1274.04 3.69277 -1.92197 0
M  V30 13651 H 1274.57 2.47934 -3.11085 0
M  V30 13652 H 1271.31 2.38204 -6.10687 0
M  V30 13653 H 1270.83 3.53809 -4.84334 0
M  V30 13654 H 1272.51 3.50724 -5.43692 0
M  V30 13655 N 1272.64 1.35187 0.810078 0
M  V30 13656 C 1273.87 1.31371 1.59841 0
M  V30 13657 C 1274.29 -0.109547 1.88482 0
M  V30 13658 O 1273.64 -1.06047 1.48527 0
M  V30 13659 C 1273.7 2.11496 2.93175 0
M  V30 13660 O 1273.42 3.48273 2.65777 0
M  V30 13661 C 1274.92 2.15226 3.87547 0
M  V30 13662 H 1272.14 0.451428 0.496441 0
M  V30 13663 H 1274.68 1.7799 1.00697 0
M  V30 13664 H 1272.84 1.68486 3.48843 0
M  V30 13665 H 1273.25 3.89845 3.50886 0
M  V30 13666 H 1274.72 2.75687 4.78226 0
M  V30 13667 H 1275.2 1.15007 4.23875 0
M  V30 13668 H 1275.81 2.58382 3.37815 0
M  V30 13669 N 1274.12 -1.03182 1.19127 0
M  V30 13670 C 1275.54 -1.28773 0.942854 0
M  V30 13671 C 1275.74 -1.97759 -0.386483 0
M  V30 13672 O 1274.79 -2.26365 -1.1187 0
M  V30 13673 C 1276.11 -2.13771 2.11476 0
M  V30 13674 C 1277.66 -2.27089 2.15406 0
M  V30 13675 C 1278.13 -3.15458 3.32039 0
M  V30 13676 N 1279.62 -3.23046 3.31957 0
M  V30 13677 C 1280.36 -3.91604 4.18848 0
M  V30 13678 N 1279.85 -4.62418 5.15889 0
M  V30 13679 N 1281.65 -3.87974 4.06734 0
M  V30 13680 H 1273.8 -0.568165 2.0466 0
M  V30 13681 H 1276.06 -0.31328 0.89474 0
M  V30 13682 H 1275.77 -1.704 3.07663 0
M  V30 13683 H 1275.64 -3.14476 2.0829 0
M  V30 13684 H 1278.03 -2.69693 1.19791 0
M  V30 13685 H 1278.11 -1.25945 2.22647 0
M  V30 13686 H 1277.75 -2.73564 4.27931 0
M  V30 13687 H 1277.68 -4.16654 3.22035 0
M  V30 13688 H 1280.17 -2.7261 2.6171 0
M  V30 13689 H 1280.49 -5.12353 5.78545 0
M  V30 13690 H 1278.83 -4.61293 5.1984 0
M  V30 13691 H 1282.02 -3.31789 3.30202 0
M  V30 13692 H 1282.19 -4.4113 4.74666 0
M  V30 13693 N 1275.6 -0.99472 -1.22242 0
M  V30 13694 C 1276.85 -0.670275 -1.90661 0
M  V30 13695 C 1277.17 0.800369 -1.77818 0
M  V30 13696 O 1276.44 1.57381 -1.16653 0
M  V30 13697 H 1275.02 -0.244925 -0.705706 0
M  V30 13698 H 1277.68 -1.26162 -1.48557 0
M  V30 13699 H 1276.78 -0.934408 -2.97784 0
M  V30 13700 N 1277.08 1.37613 -0.768148 0
M  V30 13701 C 1277.99 2.34103 -0.152649 0
M  V30 13702 C 1279 1.6 0.683811 0
M  V30 13703 O 1280.18 1.92112 0.604572 0
M  V30 13704 C 1277.25 3.39164 0.718954 0
M  V30 13705 C 1276.31 4.29092 -0.13355 0
M  V30 13706 C 1275.54 5.29135 0.696547 0
M  V30 13707 O 1275.76 5.36618 1.93383 0
M  V30 13708 O 1274.7 6.01804 0.107652 0
M  V30 13709 H 1278.52 2.88462 -0.949899 0
M  V30 13710 H 1276.11 1.39711 -0.529252 0
M  V30 13711 H 1277.99 4.03454 1.21665 0
M  V30 13712 H 1276.66 2.87137 1.49445 0
M  V30 13713 H 1275.57 3.67914 -0.677528 0
M  V30 13714 H 1276.9 4.84413 -0.872048 0
M  V30 13715 N 1278.56 0.518393 1.4883 0
M  V30 13716 C 1279.8 -0.0118581 2.03397 0
M  V30 13717 C 1280.16 -1.33082 1.3895 0
M  V30 13718 O 1279.45 -1.8435 0.522066 0
M  V30 13719 C 1279.64 -0.203001 3.56823 0
M  V30 13720 C 1279.47 1.09588 4.36143 0
M  V30 13721 C 1278.24 1.65254 4.77514 0
M  V30 13722 C 1280.44 2.00358 4.73668 0
M  V30 13723 N 1278.42 2.89551 5.41326 0
M  V30 13724 C 1279.79 3.09233 5.37378 0
M  V30 13725 C 1281.85 2.00826 4.55602 0
M  V30 13726 C 1280.55 4.18623 5.84933 0
M  V30 13727 C 1282.58 3.09203 5.0413 0
M  V30 13728 C 1281.94 4.16796 5.67856 0
M  V30 13729 H 1278.04 0.0368733 0.78113 0
M  V30 13730 H 1280.62 0.697108 1.81792 0
M  V30 13731 H 1278.79 -0.881039 3.78275 0
M  V30 13732 H 1280.53 -0.731818 3.98028 0
M  V30 13733 H 1277.28 1.19541 4.58265 0
M  V30 13734 H 1277.71 3.52802 5.77806 0
M  V30 13735 H 1282.35 1.18942 4.05725 0
M  V30 13736 H 1280.07 5.01293 6.33823 0
M  V30 13737 H 1283.65 3.10605 4.91951 0
M  V30 13738 H 1282.53 4.99275 6.04726 0
M  V30 13739 N 1280.03 -1.55556 0.252993 0
M  V30 13740 C 1280.97 -2.18978 -0.676837 0
M  V30 13741 C 1281.98 -1.16788 -1.13421 0
M  V30 13742 O 1283.17 -1.43623 -1.05993 0
M  V30 13743 C 1280.27 -2.78404 -1.93248 0
M  V30 13744 C 1279.44 -4.06072 -1.62555 0
M  V30 13745 C 1278.5 -4.49757 -2.7314 0
M  V30 13746 O 1277.53 -5.16005 -2.40266 0
M  V30 13747 N 1278.73 -4.18049 -4.0276 0
M  V30 13748 H 1281.49 -2.994 -0.134142 0
M  V30 13749 H 1279.05 -1.61734 0.0731965 0
M  V30 13750 H 1281.05 -3.04583 -2.6648 0
M  V30 13751 H 1279.62 -2.02104 -2.3848 0
M  V30 13752 H 1278.84 -3.87417 -0.728115 0
M  V30 13753 H 1280.12 -4.89297 -1.39521 0
M  V30 13754 H 1279.52 -3.64876 -4.32298 0
M  V30 13755 H 1278.08 -4.4905 -4.72438 0
M  V30 13756 N 1281.51 0.0200419 -1.57587 0
M  V30 13757 C 1282.74 0.724241 -1.94344 0
M  V30 13758 C 1283.16 1.67612 -0.853688 0
M  V30 13759 O 1282.52 1.80303 0.189873 0
M  V30 13760 C 1282.57 1.44967 -3.30177 0
M  V30 13761 O 1281.67 2.56326 -3.23064 0
M  V30 13762 H 1281.01 0.194142 -0.634984 0
M  V30 13763 H 1283.54 -0.0271756 -2.04582 0
M  V30 13764 H 1283.55 1.81758 -3.65278 0
M  V30 13765 H 1282.23 0.75161 -4.09052 0
M  V30 13766 H 1280.81 2.22011 -2.99609 0
M  V30 13767 N 1282.99 1.54862 0.292472 0
M  V30 13768 C 1283.9 1.89472 1.38339 0
M  V30 13769 C 1284.92 0.789783 1.55043 0
M  V30 13770 O 1286.09 1.08705 1.69544 0
M  V30 13771 C 1283.16 2.14244 2.72581 0
M  V30 13772 C 1282.22 3.37913 2.64789 0
M  V30 13773 C 1281.45 3.61494 3.92629 0
M  V30 13774 O 1281.67 2.87931 4.92394 0
M  V30 13775 O 1280.61 4.55019 3.94007 0
M  V30 13776 H 1284.43 2.82298 1.11989 0
M  V30 13777 H 1282.02 1.41161 0.489291 0
M  V30 13778 H 1283.9 2.31689 3.51991 0
M  V30 13779 H 1282.58 1.24603 2.98757 0
M  V30 13780 H 1281.48 3.25823 1.83821 0
M  V30 13781 H 1282.82 4.27711 2.43565 0
M  V30 13782 N 1284.47 -0.556076 1.47464 0
M  V30 13783 C 1285.43 -1.64515 1.59586 0
M  V30 13784 C 1286.43 -1.53751 0.470881 0
M  V30 13785 O 1287.62 -1.57889 0.735979 0
M  V30 13786 C 1284.75 -3.0406 1.54143 0
M  V30 13787 H 1285.95 -1.55116 2.56669 0
M  V30 13788 H 1283.5 -0.776087 1.35671 0
M  V30 13789 H 1284.23 -3.18991 0.584395 0
M  V30 13790 H 1284.02 -3.13282 2.3579 0
M  V30 13791 H 1285.51 -3.8329 1.65766 0
M  V30 13792 N 1285.95 -1.35615 -0.802897 0
M  V30 13793 C 1286.88 -1.24695 -1.92312 0
M  V30 13794 C 1287.89 -0.169409 -1.61916 0
M  V30 13795 O 1289.08 -0.422995 -1.73416 0
M  V30 13796 C 1286.18 -0.898229 -3.2678 0
M  V30 13797 C 1285.35 -2.07489 -3.85054 0
M  V30 13798 C 1284.41 -1.70137 -4.97936 0
M  V30 13799 O 1283.44 -2.42057 -5.15167 0
M  V30 13800 N 1284.64 -0.627153 -5.77102 0
M  V30 13801 H 1287.41 -2.21208 -2.02205 0
M  V30 13802 H 1284.97 -1.28832 -0.980503 0
M  V30 13803 H 1286.96 -0.629766 -3.9977 0
M  V30 13804 H 1285.53 -0.0226571 -3.12592 0
M  V30 13805 H 1284.75 -2.50694 -3.04214 0
M  V30 13806 H 1286.04 -2.86133 -4.2072 0
M  V30 13807 H 1285.44 -0.0296879 -5.65692 0
M  V30 13808 H 1283.99 -0.41848 -6.50455 0
M  V30 13809 N 1287.43 1.02549 -1.19673 0
M  V30 13810 C 1288.7 1.73106 -0.9107 0
M  V30 13811 C 1289.08 2.02897 0.582769 0
M  V30 13812 O 1288.43 1.68633 1.54192 0
M  V30 13813 C 1288.64 3.00535 -1.77425 0
M  V30 13814 C 1289.99 3.73976 -2.01065 0
M  V30 13815 O 1291.01 3.1047 -1.74605 0
M  V30 13816 O 1289.87 4.88153 -2.457 0
M  V30 13817 H 1286.97 0.754006 -0.339711 0
M  V30 13818 H 1289.51 1.08477 -1.30502 0
M  V30 13819 H 1288.28 2.74773 -2.78595 0
M  V30 13820 H 1287.91 3.72904 -1.37943 0
M  V30 13821 N 1288.9 1.00119 1.21713 0
M  V30 13822 C 1290.13 0.700431 1.94683 0
M  V30 13823 C 1290.55 -0.736333 1.73849 0
M  V30 13824 O 1289.9 -1.49778 1.04272 0
M  V30 13825 C 1289.95 1.00722 3.47185 0
M  V30 13826 O 1289.68 2.38754 3.67326 0
M  V30 13827 C 1291.18 0.725335 4.37326 0
M  V30 13828 H 1288.4 0.25843 0.619238 0
M  V30 13829 H 1290.94 1.3382 1.54636 0
M  V30 13830 H 1289.1 0.415117 3.85169 0
M  V30 13831 H 1289.51 2.49321 4.61454 0
M  V30 13832 H 1290.98 0.990202 5.43046 0
M  V30 13833 H 1291.46 -0.340649 4.37877 0
M  V30 13834 H 1292.07 1.29888 4.04981 0
M  V30 13835 N 1290.38 -1.37203 0.775435 0
M  V30 13836 C 1291.31 -2.27933 0.110444 0
M  V30 13837 C 1292.29 -1.46513 -0.705179 0
M  V30 13838 O 1293.48 -1.7584 -0.679154 0
M  V30 13839 C 1290.6 -3.27868 -0.84971 0
M  V30 13840 C 1289.65 -4.26338 -0.117627 0
M  V30 13841 S 1290.48 -5.21952 1.19691 0
M  V30 13842 C 1291.64 -6.25438 0.240393 0
M  V30 13843 H 1291.87 -2.83985 0.879766 0
M  V30 13844 H 1289.4 -1.43533 0.568996 0
M  V30 13845 H 1291.36 -3.85952 -1.39827 0
M  V30 13846 H 1290.02 -2.70756 -1.59217 0
M  V30 13847 H 1289.22 -4.96855 -0.845639 0
M  V30 13848 H 1288.82 -3.72263 0.360041 0
M  V30 13849 H 1291.11 -6.74962 -0.585867 0
M  V30 13850 H 1292.05 -7.02178 0.913846 0
M  V30 13851 H 1292.46 -5.64301 -0.150043 0
M  V30 13852 N 1291.86 -0.526279 -1.48553 0
M  V30 13853 C 1292.81 0.238513 -2.29564 0
M  V30 13854 C 1293.78 0.937222 -1.37133 0
M  V30 13855 O 1294.96 0.93897 -1.66096 0
M  V30 13856 C 1292.1 1.28173 -3.20415 0
M  V30 13857 C 1291.21 0.592244 -4.27921 0
M  V30 13858 C 1290.35 1.61808 -5.05956 0
M  V30 13859 C 1289.39 0.911846 -6.0527 0
M  V30 13860 N 1288.53 1.88305 -6.76377 0
M  V30 13861 H 1293.37 -0.458502 -2.94452 0
M  V30 13862 H 1290.9 -0.237948 -1.45163 0
M  V30 13863 H 1292.86 1.89883 -3.71484 0
M  V30 13864 H 1291.49 1.94718 -2.57458 0
M  V30 13865 H 1290.54 -0.138714 -3.80147 0
M  V30 13866 H 1291.85 0.0375427 -4.98786 0
M  V30 13867 H 1291.01 2.30956 -5.61021 0
M  V30 13868 H 1289.75 2.20667 -4.34922 0
M  V30 13869 H 1288.75 0.206273 -5.49413 0
M  V30 13870 H 1289.98 0.329415 -6.78301 0
M  V30 13871 H 1287.92 2.46079 -6.08096 0
M  V30 13872 H 1287.84 1.37969 -7.43304 0
M  V30 13873 H 1289.11 2.56663 -7.36033 0
M  V30 13874 N 1293.34 1.5542 -0.261239 0
M  V30 13875 C 1294.57 2.03687 0.363225 0
M  V30 13876 C 1294.98 1.14007 1.50492 0
M  V30 13877 O 1294.34 0.157349 1.8182 0
M  V30 13878 C 1294.39 3.51184 0.857435 0
M  V30 13879 O 1294.11 4.37449 -0.238776 0
M  V30 13880 C 1295.61 4.15277 1.55113 0
M  V30 13881 H 1292.83 0.665641 0.0846356 0
M  V30 13882 H 1295.37 2.00761 -0.389288 0
M  V30 13883 H 1293.53 3.54599 1.56008 0
M  V30 13884 H 1293.94 5.24316 0.138821 0
M  V30 13885 H 1295.42 5.20129 1.8485 0
M  V30 13886 H 1295.89 3.62619 2.47799 0
M  V30 13887 H 1296.5 4.15826 0.892695 0
M  V30 13888 N 1294.82 -0.0116844 1.57596 0
M  V30 13889 C 1296.06 -0.697577 1.89679 0
M  V30 13890 C 1296.38 -1.74956 0.861122 0
M  V30 13891 O 1295.65 -1.95629 -0.103031 0
M  V30 13892 H 1294.23 -0.26064 0.700054 0
M  V30 13893 H 1296.9 0.0264782 1.94882 0
M  V30 13894 H 1295.99 -1.17621 2.89088 0
M  V30 13895 N 1296.29 -1.55015 -0.284256 0
M  V30 13896 C 1297.52 -1.79431 -1.04016 0
M  V30 13897 C 1297.94 -0.560254 -1.79563 0
M  V30 13898 O 1297.3 0.489804 -1.74558 0
M  V30 13899 C 1297.35 -3.01162 -1.98328 0
M  V30 13900 O 1296.45 -2.75459 -3.06914 0
M  V30 13901 H 1295.79 -0.593391 -0.297965 0
M  V30 13902 H 1298.32 -2.02136 -0.316585 0
M  V30 13903 H 1298.33 -3.29589 -2.40489 0
M  V30 13904 H 1297.01 -3.90634 -1.42751 0
M  V30 13905 H 1295.59 -2.58096 -2.69148 0
M  V30 13906 N 1297.77 0.548248 -1.47757 0
M  V30 13907 C 1299 1.335 -1.58722 0
M  V30 13908 C 1299.42 1.86549 -0.241034 0
M  V30 13909 O 1298.78 1.63447 0.784517 0
M  V30 13910 C 1298.83 2.47457 -2.62293 0
M  V30 13911 O 1297.93 3.49956 -2.18185 0
M  V30 13912 H 1297.27 0.396166 -0.532868 0
M  V30 13913 H 1299.8 0.66164 -1.93607 0
M  V30 13914 H 1299.81 2.93901 -2.82995 0
M  V30 13915 H 1298.49 2.08203 -3.60034 0
M  V30 13916 H 1297.06 3.09755 -2.0762 0
M  V30 13917 N 1299.25 1.36039 0.795694 0
M  V30 13918 C 1300.48 1.33059 1.58439 0
M  V30 13919 C 1300.89 -0.0895496 1.88588 0
M  V30 13920 O 1300.25 -1.04466 1.49643 0
M  V30 13921 C 1300.3 2.14594 2.90915 0
M  V30 13922 O 1300.02 3.51072 2.62069 0
M  V30 13923 C 1301.52 2.19324 3.85242 0
M  V30 13924 H 1298.74 0.456668 0.491625 0
M  V30 13925 H 1301.29 1.79048 0.988035 0
M  V30 13926 H 1299.44 1.72177 3.47036 0
M  V30 13927 H 1299.86 3.93545 3.46732 0
M  V30 13928 H 1301.33 2.80744 4.75276 0
M  V30 13929 H 1301.81 1.19496 4.22631 0
M  V30 13930 H 1302.41 2.6195 3.35056 0
M  V30 13931 N 1300.73 -1.01913 1.20215 0
M  V30 13932 C 1301.68 -2.12516 0.945493 0
M  V30 13933 C 1302.67 -1.69091 -0.102243 0
M  V30 13934 O 1303.88 -1.79936 0.047888 0
M  V30 13935 H 1300.25 -0.694496 0.288409 0
M  V30 13936 H 1302.22 -2.31349 1.88468 0
M  V30 13937 C 1300.97 -3.43919 0.51137 0
M  V30 13938 H 1300.29 -3.77758 1.30916 0
M  V30 13939 H 1301.73 -4.22374 0.370981 0
M  V30 13940 C 1300.19 -3.27844 -0.775902 0
M  V30 13941 O 1300.72 -3.5734 -1.83496 0
M  V30 13942 N 1298.93 -2.81101 -0.73694 0
M  V30 13943 H 1298.48 -2.57296 0.125164 0
M  V30 13944 H 1298.43 -2.70726 -1.59859 0
M  V30 13945 N 1302.21 -1.00763 -1.2118 0
M  V30 13946 C 1303.15 -0.563428 -2.25673 0
M  V30 13947 C 1304.15 0.393342 -1.6477 0
M  V30 13948 O 1305.35 0.264246 -1.7805 0
M  V30 13949 H 1301.73 -0.163862 -0.73393 0
M  V30 13950 H 1303.7 -1.45585 -2.60476 0
M  V30 13951 C 1302.45 0.0915599 -3.47579 0
M  V30 13952 H 1301.77 -0.635628 -3.94715 0
M  V30 13953 H 1303.21 0.36561 -4.22421 0
M  V30 13954 C 1301.67 1.33159 -3.09468 0
M  V30 13955 O 1302.2 2.42571 -3.20191 0
M  V30 13956 N 1300.41 1.21231 -2.64105 0
M  V30 13957 H 1299.95 0.322021 -2.55579 0
M  V30 13958 H 1299.91 2.04301 -2.38974 0
M  V30 13959 N 1303.68 1.3679 -0.7827 0
M  V30 13960 C 1304.63 2.32019 -0.164358 0
M  V30 13961 C 1305.63 1.55476 0.672571 0
M  V30 13962 O 1306.83 1.7079 0.568406 0
M  V30 13963 H 1303.21 0.751214 -0.0343697 0
M  V30 13964 H 1305.18 2.81741 -0.983077 0
M  V30 13965 C 1303.93 3.4075 0.691727 0
M  V30 13966 H 1303.25 3.99759 0.0570885 0
M  V30 13967 H 1304.69 4.09719 1.09117 0
M  V30 13968 C 1303.15 2.81753 1.84708 0
M  V30 13969 O 1303.68 2.73378 2.94325 0
M  V30 13970 N 1301.89 2.39138 1.6511 0
M  V30 13971 H 1301.43 2.46149 0.759487 0
M  V30 13972 H 1301.39 2.0001 2.42576 0
M  V30 13973 N 1305.16 0.53415 1.48272 0
M  V30 13974 C 1306.07 -0.230062 2.33469 0
M  V30 13975 C 1307.09 -0.934889 1.46751 0
M  V30 13976 O 1308.26 -0.908921 1.79724 0
M  V30 13977 C 1305.33 -1.2609 3.22958 0
M  V30 13978 C 1304.39 -0.565983 4.25553 0
M  V30 13979 C 1303.62 -1.54771 5.10766 0
M  V30 13980 O 1303.85 -2.7807 4.9803 0
M  V30 13981 O 1302.78 -1.08482 5.92043 0
M  V30 13982 H 1306.61 0.468182 3.0007 0
M  V30 13983 H 1304.19 0.29502 1.46458 0
M  V30 13984 H 1306.07 -1.85652 3.783 0
M  V30 13985 H 1304.75 -1.94148 2.59014 0
M  V30 13986 H 1303.66 0.0702391 3.74034 0
M  V30 13987 H 1304.99 0.0727277 4.92146 0
M  V30 13988 N 1306.64 -1.55279 0.269478 0
M  V30 13989 C 1307.55 -2.25965 -0.63065 0
M  V30 13990 C 1308.57 -1.28357 -1.17476 0
M  V30 13991 O 1309.74 -1.61281 -1.20625 0
M  V30 13992 C 1306.81 -2.96263 -1.80081 0
M  V30 13993 C 1305.87 -4.09336 -1.29394 0
M  V30 13994 C 1305.1 -4.76272 -2.40833 0
M  V30 13995 O 1305.32 -4.42389 -3.60066 0
M  V30 13996 O 1304.26 -5.64334 -2.09309 0
M  V30 13997 H 1308.08 -3.03644 -0.0582069 0
M  V30 13998 H 1305.67 -1.49354 0.0370966 0
M  V30 13999 H 1307.55 -3.40461 -2.48322 0
M  V30 14000 H 1306.23 -2.21505 -2.36045 0
M  V30 14001 H 1305.13 -3.69605 -0.578154 0
M  V30 14002 H 1306.47 -4.85978 -0.780117 0
M  V30 14003 N 1308.12 0.00332656 -1.576 0
M  V30 14004 C 1309.03 1.01221 -2.1164 0
M  V30 14005 C 1310.04 1.37918 -1.06088 0
M  V30 14006 O 1311.22 1.46717 -1.37971 0
M  V30 14007 C 1308.29 2.28638 -2.60626 0
M  V30 14008 C 1307.35 1.98284 -3.80765 0
M  V30 14009 C 1306.58 3.19626 -4.27405 0
M  V30 14010 O 1306.8 4.31196 -3.73398 0
M  V30 14011 O 1305.74 3.03819 -5.19594 0
M  V30 14012 H 1309.56 0.582839 -2.98055 0
M  V30 14013 H 1307.15 0.221947 -1.47742 0
M  V30 14014 H 1309.03 3.03498 -2.92347 0
M  V30 14015 H 1307.7 2.70819 -1.7731 0
M  V30 14016 H 1306.61 1.2091 -3.54022 0
M  V30 14017 H 1307.94 1.60942 -4.65144 0
M  V30 14018 N 1309.6 1.55164 0.276031 0
M  V30 14019 C 1310.54 1.87836 1.34113 0
M  V30 14020 C 1311.51 0.729562 1.4922 0
M  V30 14021 O 1312.7 0.980549 1.63676 0
M  V30 14022 C 1309.84 2.15313 2.69693 0
M  V30 14023 C 1308.95 3.42845 2.62833 0
M  V30 14024 C 1308.09 3.60038 3.90572 0
M  V30 14025 C 1307.13 4.81273 3.7821 0
M  V30 14026 N 1306.26 4.95139 4.97777 0
M  V30 14027 H 1311.1 2.78681 1.0555 0
M  V30 14028 H 1308.64 1.37976 0.510001 0
M  V30 14029 H 1310.6 2.29243 3.48573 0
M  V30 14030 H 1309.23 1.27706 2.96464 0
M  V30 14031 H 1308.28 3.37403 1.75679 0
M  V30 14032 H 1309.59 4.3186 2.49597 0
M  V30 14033 H 1308.75 3.73769 4.77893 0
M  V30 14034 H 1307.48 2.69203 4.06671 0
M  V30 14035 H 1306.49 4.67549 2.89271 0
M  V30 14036 H 1307.71 5.7354 3.63632 0
M  V30 14037 H 1305.66 4.07234 5.14292 0
M  V30 14038 H 1305.58 5.78194 4.8706 0
M  V30 14039 H 1306.85 5.13253 5.86679 0
M  V30 14040 N 1311.07 -0.540404 1.48045 0
M  V30 14041 C 1312.3 -1.32656 1.59427 0
M  V30 14042 C 1312.72 -1.86419 0.250924 0
M  V30 14043 O 1312.08 -1.63861 -0.775838 0
M  V30 14044 C 1312.13 -2.46062 2.63602 0
M  V30 14045 O 1311.23 -3.48794 2.20038 0
M  V30 14046 H 1310.58 -0.393334 0.534962 0
M  V30 14047 H 1313.11 -0.651363 1.93955 0
M  V30 14048 H 1313.12 -2.92396 2.84549 0
M  V30 14049 H 1311.79 -2.06291 3.61133 0
M  V30 14050 H 1310.37 -3.0865 2.0926 0
M  V30 14051 N 1312.55 -1.36459 -0.788468 0
M  V30 14052 C 1313.97 -1.16893 -1.08666 0
M  V30 14053 C 1314.17 0.00633808 -2.01499 0
M  V30 14054 O 1313.22 0.671417 -2.4341 0
M  V30 14055 C 1314.54 -2.48018 -1.70022 0
M  V30 14056 C 1316.09 -2.5439 -1.82358 0
M  V30 14057 C 1316.56 -3.85605 -2.47129 0
M  V30 14058 N 1318.05 -3.86956 -2.54597 0
M  V30 14059 C 1318.79 -4.85224 -3.05525 0
M  V30 14060 N 1318.28 -5.93885 -3.56753 0
M  V30 14061 N 1320.08 -4.72643 -3.04246 0
M  V30 14062 H 1312.23 -2.11705 -0.171733 0
M  V30 14063 H 1314.49 -0.937784 -0.1388 0
M  V30 14064 H 1314.2 -3.34292 -1.09277 0
M  V30 14065 H 1314.07 -2.63894 -2.69518 0
M  V30 14066 H 1316.46 -1.68534 -2.4224 0
M  V30 14067 H 1316.54 -2.42414 -0.816651 0
M  V30 14068 H 1316.18 -4.71868 -1.87891 0
M  V30 14069 H 1316.11 -3.94878 -3.48395 0
M  V30 14070 H 1318.6 -3.08453 -2.18323 0
M  V30 14071 H 1318.92 -6.64839 -3.93966 0
M  V30 14072 H 1317.26 -5.97553 -3.54902 0
M  V30 14073 H 1320.45 -3.86883 -2.63513 0
M  V30 14074 H 1320.62 -5.49385 -3.43627 0
M  V30 14075 N 1314.03 1.01274 -1.20754 0
M  V30 14076 C 1314.96 2.11763 -0.983805 0
M  V30 14077 C 1315.94 1.69869 0.0885635 0
M  V30 14078 O 1317.13 1.94075 -0.0697239 0
M  V30 14079 C 1314.26 3.43087 -0.539287 0
M  V30 14080 C 1313.21 3.9874 -1.55534 0
M  V30 14081 C 1312.54 5.25877 -0.967322 0
M  V30 14082 C 1313.84 4.31688 -2.94012 0
M  V30 14083 H 1315.53 2.30737 -1.90789 0
M  V30 14084 H 1313.08 1.10884 -0.918734 0
M  V30 14085 H 1315.03 4.19773 -0.369979 0
M  V30 14086 H 1313.75 3.23883 0.420435 0
M  V30 14087 H 1312.41 3.24166 -1.71207 0
M  V30 14088 H 1312.06 5.03 0.000448307 0
M  V30 14089 H 1311.76 5.64077 -1.64594 0
M  V30 14090 H 1313.28 6.05215 -0.809167 0
M  V30 14091 H 1314.7 4.99246 -2.81827 0
M  V30 14092 H 1313.1 4.81011 -3.58815 0
M  V30 14093 H 1314.17 3.4029 -3.45442 0
M  V30 14094 N 1315.51 1.01404 1.20644 0
M  V30 14095 C 1316.44 0.602465 2.25594 0
M  V30 14096 C 1317.42 -0.381216 1.65773 0
M  V30 14097 O 1318.61 -0.267209 1.92353 0
M  V30 14098 C 1315.74 -0.0626245 3.47244 0
M  V30 14099 C 1314.69 0.841776 4.1964 0
M  V30 14100 C 1314.02 0.0426002 5.34683 0
M  V30 14101 C 1315.32 2.14864 4.76058 0
M  V30 14102 H 1317.01 1.47977 2.60275 0
M  V30 14103 H 1314.56 0.712966 1.25111 0
M  V30 14104 H 1316.51 -0.362095 4.19841 0
M  V30 14105 H 1315.23 -0.974627 3.11719 0
M  V30 14106 H 1313.89 1.12521 3.48905 0
M  V30 14107 H 1313.54 -0.870973 4.95402 0
M  V30 14108 H 1313.24 0.644866 5.84051 0
M  V30 14109 H 1314.76 -0.250476 6.10086 0
M  V30 14110 H 1316.18 1.9117 5.40488 0
M  V30 14111 H 1314.57 2.70153 5.35852 0
M  V30 14112 H 1315.64 2.81336 3.9494 0
M  V30 14113 N 1316.99 -1.36373 0.789944 0
M  V30 14114 C 1317.9 -2.3383 0.189873 0
M  V30 14115 C 1318.91 -1.61068 -0.65827 0
M  V30 14116 O 1320.09 -1.93049 -0.573932 0
M  V30 14117 C 1317.15 -3.40264 -0.664905 0
M  V30 14118 C 1316.22 -4.28825 0.201798 0
M  V30 14119 C 1315.45 -5.30176 -0.612278 0
M  V30 14120 O 1315.67 -5.39627 -1.84821 0
M  V30 14121 O 1314.61 -6.01899 -0.0118964 0
M  V30 14122 H 1318.43 -2.86915 0.995671 0
M  V30 14123 H 1316.02 -1.38852 0.551412 0
M  V30 14124 H 1317.9 -4.05339 -1.15231 0
M  V30 14125 H 1316.57 -2.89478 -1.44858 0
M  V30 14126 H 1315.48 -3.66789 0.735974 0
M  V30 14127 H 1316.81 -4.82965 0.949003 0
M  V30 14128 N 1318.47 -0.542005 -1.47987 0
M  V30 14129 C 1319.41 0.214151 -2.29804 0
M  V30 14130 C 1320.38 0.922625 -1.38119 0
M  V30 14131 O 1321.57 0.921301 -1.67083 0
M  V30 14132 C 1318.71 1.24768 -3.21756 0
M  V30 14133 C 1317.82 0.546824 -4.28525 0
M  V30 14134 C 1316.96 1.56432 -5.07644 0
M  V30 14135 C 1315.99 0.847598 -6.06203 0
M  V30 14136 N 1315.13 1.81121 -6.78336 0
M  V30 14137 H 1319.97 -0.489707 -2.93949 0
M  V30 14138 H 1317.51 -0.253331 -1.44902 0
M  V30 14139 H 1319.47 1.85933 -3.73477 0
M  V30 14140 H 1318.1 1.91976 -2.59509 0
M  V30 14141 H 1317.15 -0.179026 -3.79978 0
M  V30 14142 H 1318.46 -0.0153623 -4.98798 0
M  V30 14143 H 1317.61 2.24992 -5.63439 0
M  V30 14144 H 1316.35 2.16041 -4.37238 0
M  V30 14145 H 1315.36 0.147989 -5.49601 0
M  V30 14146 H 1316.58 0.257454 -6.78612 0
M  V30 14147 H 1314.53 2.39615 -6.10672 0
M  V30 14148 H 1314.45 1.30077 -7.44725 0
M  V30 14149 H 1315.71 2.48842 -7.38714 0
M  V30 14150 N 1319.94 1.55134 -0.277709 0
M  V30 14151 C 1320.85 2.26296 0.618658 0
M  V30 14152 C 1321.87 1.28978 1.16794 0
M  V30 14153 O 1323.05 1.61918 1.19768 0
M  V30 14154 C 1320.11 2.97214 1.78508 0
M  V30 14155 C 1319.17 4.10016 1.27221 0
M  V30 14156 C 1318.4 4.77543 2.38304 0
M  V30 14157 O 1318.63 4.44293 3.57715 0
M  V30 14158 O 1317.56 5.65437 2.06313 0
M  V30 14159 H 1321.39 3.03671 0.0421031 0
M  V30 14160 H 1318.97 1.49332 -0.0450166 0
M  V30 14161 H 1320.85 3.41773 2.46513 0
M  V30 14162 H 1319.53 2.22753 2.34867 0
M  V30 14163 H 1318.44 3.69907 0.558544 0
M  V30 14164 H 1319.77 4.86385 0.754333 0
M  V30 14165 N 1321.42 0.00503138 1.57599 0
M  V30 14166 C 1322.37 -1.00294 2.09866 0
M  V30 14167 C 1323.36 -1.35267 1.01977 0
M  V30 14168 O 1324.57 -1.33772 1.20437 0
M  V30 14169 H 1320.94 -0.341112 0.670184 0
M  V30 14170 H 1322.92 -0.536595 2.93536 0
M  V30 14171 C 1321.66 -2.28432 2.62133 0
M  V30 14172 H 1320.99 -2.02391 3.44787 0
M  V30 14173 H 1322.43 -2.97227 3.02378 0
M  V30 14174 C 1320.89 -2.99758 1.53774 0
M  V30 14175 O 1321.42 -3.90939 0.923563 0
M  V30 14176 N 1319.62 -2.61671 1.26398 0
M  V30 14177 H 1319.17 -1.87605 1.76528 0
M  V30 14178 H 1319.13 -3.09707 0.541168 0
M  V30 14179 N 1322.9 -1.55308 -0.267798 0
M  V30 14180 C 1324.32 -1.47264 -0.61526 0
M  V30 14181 C 1324.52 -0.691025 -1.8928 0
M  V30 14182 O 1323.57 -0.211964 -2.51609 0
M  V30 14183 C 1324.88 -2.91519 -0.73739 0
M  V30 14184 C 1326.43 -3.01764 -0.831102 0
M  V30 14185 C 1326.91 -4.47283 -0.984965 0
M  V30 14186 N 1328.4 -4.51134 -1.05036 0
M  V30 14187 C 1329.13 -5.60952 -1.1883 0
M  V30 14188 N 1328.63 -6.80625 -1.29311 0
M  V30 14189 N 1330.42 -5.48705 -1.21982 0
M  V30 14190 H 1322.57 -2.04577 0.57114 0
M  V30 14191 H 1324.84 -0.927908 0.194141 0
M  V30 14192 H 1324.54 -3.51456 0.130974 0
M  V30 14193 H 1324.42 -3.40829 -1.61603 0
M  V30 14194 H 1326.8 -2.4192 -1.68993 0
M  V30 14195 H 1326.88 -2.55698 0.0722509 0
M  V30 14196 H 1326.53 -5.07732 -0.130776 0
M  V30 14197 H 1326.46 -4.91011 -1.90305 0
M  V30 14198 H 1328.95 -3.6493 -0.981551 0
M  V30 14199 H 1329.26 -7.60071 -1.39685 0
M  V30 14200 H 1327.61 -6.83426 -1.26306 0
M  V30 14201 H 1330.8 -4.5415 -1.13428 0
M  V30 14202 H 1330.97 -6.34332 -1.32388 0
M  V30 14203 N 1324.38 0.532545 -1.4833 0
M  V30 14204 C 1325.29 1.66433 -1.65339 0
M  V30 14205 C 1326.3 1.65541 -0.535939 0
M  V30 14206 O 1327.48 1.84539 -0.806679 0
M  V30 14207 C 1324.54 3.02901 -1.68676 0
M  V30 14208 C 1323.61 3.14669 -2.92031 0
M  V30 14209 C 1322.84 4.44627 -2.95199 0
M  V30 14210 O 1323.06 5.31572 -2.06851 0
M  V30 14211 O 1322 4.60707 -3.87341 0
M  V30 14212 H 1325.82 1.5502 -2.61156 0
M  V30 14213 H 1323.41 0.705348 -1.31701 0
M  V30 14214 H 1325.29 3.84068 -1.73407 0
M  V30 14215 H 1323.96 3.14644 -0.760327 0
M  V30 14216 H 1322.87 2.32807 -2.92834 0
M  V30 14217 H 1324.2 3.07841 -3.8405 0
M  V30 14218 N 1325.86 1.36875 0.78122 0
M  V30 14219 C 1326.79 1.34559 1.9083 0
M  V30 14220 C 1327.77 0.215713 1.68727 0
M  V30 14221 O 1328.95 0.41462 1.89722 0
M  V30 14222 C 1326.08 1.14233 3.27976 0
M  V30 14223 C 1325.04 2.24132 3.64621 0
M  V30 14224 C 1324.36 1.8894 5.00206 0
M  V30 14225 C 1325.66 3.66266 3.72353 0
M  V30 14226 H 1327.36 2.28871 1.93025 0
M  V30 14227 H 1324.9 1.10171 0.927275 0
M  V30 14228 H 1326.85 1.11246 4.06451 0
M  V30 14229 H 1325.58 0.163747 3.26189 0
M  V30 14230 H 1324.24 2.26259 2.88448 0
M  V30 14231 H 1323.89 0.896351 4.94949 0
M  V30 14232 H 1323.59 2.62525 5.25694 0
M  V30 14233 H 1325.11 1.87523 5.81092 0
M  V30 14234 H 1326.52 3.66321 4.41001 0
M  V30 14235 H 1324.92 4.38825 4.09332 0
M  V30 14236 H 1325.99 4.00578 2.7325 0
M  V30 14237 N 1327.33 -1.00632 1.21289 0
M  V30 14238 C 1328.24 -2.12829 0.986957 0
M  V30 14239 C 1329.26 -1.73895 -0.0605152 0
M  V30 14240 O 1330.44 -2.00985 0.129238 0
M  V30 14241 C 1327.5 -3.4226 0.553089 0
M  V30 14242 C 1326.56 -3.95376 1.67262 0
M  V30 14243 C 1325.79 -5.18629 1.25936 0
M  V30 14244 O 1326.02 -5.70246 0.132402 0
M  V30 14245 O 1324.95 -5.65157 2.07077 0
M  V30 14246 H 1328.78 -2.34765 1.92663 0
M  V30 14247 H 1326.36 -1.11208 0.997654 0
M  V30 14248 H 1328.24 -4.20177 0.320856 0
M  V30 14249 H 1326.92 -3.21716 -0.357881 0
M  V30 14250 H 1325.83 -3.18692 1.95924 0
M  V30 14251 H 1327.16 -4.20328 2.56097 0
M  V30 14252 N 1328.81 -1.02043 -1.20104 0
M  V30 14253 C 1329.76 -0.593945 -2.23027 0
M  V30 14254 C 1330.73 0.387931 -1.61506 0
M  V30 14255 O 1331.91 0.286504 -1.88637 0
M  V30 14256 C 1329.05 0.0577309 -3.45052 0
M  V30 14257 C 1328.17 -0.969169 -4.20988 0
M  V30 14258 C 1327.3 -0.288143 -5.30418 0
M  V30 14259 C 1326.34 -1.30154 -5.98102 0
M  V30 14260 N 1325.48 -0.646912 -6.99113 0
M  V30 14261 H 1330.32 -1.47623 -2.58866 0
M  V30 14262 H 1327.85 -0.738901 -1.27195 0
M  V30 14263 H 1329.81 0.452726 -4.14736 0
M  V30 14264 H 1328.44 0.90364 -3.09894 0
M  V30 14265 H 1327.49 -1.48229 -3.50332 0
M  V30 14266 H 1328.81 -1.73972 -4.67477 0
M  V30 14267 H 1327.96 0.162149 -6.06483 0
M  V30 14268 H 1326.7 0.514683 -4.84977 0
M  V30 14269 H 1325.7 -1.76218 -5.20795 0
M  V30 14270 H 1326.93 -2.10571 -6.45629 0
M  V30 14271 H 1324.88 0.135976 -6.55859 0
M  V30 14272 H 1324.79 -1.35548 -7.43749 0
M  V30 14273 H 1326.06 -0.220339 -7.79189 0
M  V30 14274 N 1330.29 1.35952 -0.797165 0
M  V30 14275 C 1331.54 1.98283 -0.369685 0
M  V30 14276 C 1331.85 1.63968 1.06649 0
M  V30 14277 O 1333.06 2.19591 1.59662 0
M  V30 14278 C 1331.51 3.54692 -0.610046 0
M  V30 14279 C 1331.12 3.97925 -2.05814 0
M  V30 14280 C 1332.87 4.23778 -0.247457 0
M  V30 14281 C 1330.77 5.47142 -2.24475 0
M  V30 14282 H 1329.7 0.741909 -0.134489 0
M  V30 14283 H 1332.35 1.55146 -0.979893 0
M  V30 14284 H 1330.74 3.95938 0.0699822 0
M  V30 14285 H 1331.91 3.67857 -2.77521 0
M  V30 14286 H 1330.23 3.417 -2.37971 0
M  V30 14287 H 1332.82 5.33452 -0.365059 0
M  V30 14288 H 1333.17 4.08436 0.805315 0
M  V30 14289 H 1333.7 3.87921 -0.881028 0
M  V30 14290 H 1330.44 5.67441 -3.28163 0
M  V30 14291 H 1329.96 5.78811 -1.57282 0
M  V30 14292 H 1331.64 6.13475 -2.05567 0
M  V30 14293 N 1331.77 0.549846 1.47697 0
M  V30 14294 C 1333.02 0.0209424 2.01689 0
M  V30 14295 C 1333.33 -1.33417 1.43036 0
M  V30 14296 O 1334.54 -1.95257 1.88646 0
M  V30 14297 C 1332.99 -0.0130171 3.59898 0
M  V30 14298 C 1332.6 1.3384 4.2754 0
M  V30 14299 C 1334.34 -0.489701 4.21666 0
M  V30 14300 C 1332.25 1.26395 5.77735 0
M  V30 14301 H 1331.18 0.00405885 0.753989 0
M  V30 14302 H 1333.83 0.696599 1.69764 0
M  V30 14303 H 1332.21 -0.754168 3.88752 0
M  V30 14304 H 1333.39 2.09668 4.10336 0
M  V30 14305 H 1331.7 1.75242 3.77729 0
M  V30 14306 H 1334.3 -0.563684 5.31721 0
M  V30 14307 H 1334.64 -1.50004 3.88336 0
M  V30 14308 H 1335.18 0.196366 3.97315 0
M  V30 14309 H 1331.92 2.25005 6.15673 0
M  V30 14310 H 1331.44 0.547353 5.97297 0
M  V30 14311 H 1333.11 0.962918 6.39794 0
M  V30 14312 N 1333.25 -1.54984 0.285932 0
M  V30 14313 C 1334.21 -2.2164 -0.583824 0
M  V30 14314 C 1335.21 -1.19764 -1.073 0
M  V30 14315 O 1336.4 -1.44598 -0.971439 0
M  V30 14316 C 1333.53 -2.8909 -1.80665 0
M  V30 14317 H 1334.72 -2.999 -0.00168109 0
M  V30 14318 H 1332.28 -1.56257 0.0366325 0
M  V30 14319 H 1333.01 -2.14869 -2.42903 0
M  V30 14320 H 1332.8 -3.63756 -1.4637 0
M  V30 14321 H 1334.29 -3.39982 -2.42491 0
M  V30 14322 N 1334.72 -0.0133892 -1.57594 0
M  V30 14323 C 1335.63 0.989701 -2.12702 0
M  V30 14324 C 1336.65 1.36785 -1.07545 0
M  V30 14325 O 1337.83 1.45246 -1.39519 0
M  V30 14326 C 1334.89 2.2586 -2.63036 0
M  V30 14327 C 1333.95 1.94234 -3.82847 0
M  V30 14328 C 1333.19 3.15075 -4.30771 0
M  V30 14329 O 1333.41 4.27212 -3.7795 0
M  V30 14330 O 1332.34 2.98291 -5.22787 0
M  V30 14331 H 1336.17 0.551194 -2.98656 0
M  V30 14332 H 1333.75 0.206264 -1.47969 0
M  V30 14333 H 1335.64 3.0038 -2.9555 0
M  V30 14334 H 1334.31 2.68923 -1.80173 0
M  V30 14335 H 1333.22 1.17148 -3.55285 0
M  V30 14336 H 1334.55 1.55999 -4.66824 0
M  V30 14337 N 1336.2 1.55448 0.259558 0
M  V30 14338 C 1337.15 1.89248 1.32113 0
M  V30 14339 C 1338.12 0.745348 1.48438 0
M  V30 14340 O 1339.3 0.997854 1.62627 0
M  V30 14341 C 1336.44 2.18161 2.67394 0
M  V30 14342 C 1335.56 3.45614 2.59182 0
M  V30 14343 C 1334.69 3.6416 3.86731 0
M  V30 14344 C 1333.73 4.85258 3.73084 0
M  V30 14345 N 1332.87 5.00391 4.92497 0
M  V30 14346 H 1337.71 2.79785 1.02589 0
M  V30 14347 H 1335.25 1.38509 0.495338 0
M  V30 14348 H 1337.2 2.32927 3.46122 0
M  V30 14349 H 1335.83 1.30843 2.95093 0
M  V30 14350 H 1334.89 3.39248 1.72091 0
M  V30 14351 H 1336.2 4.34483 2.45002 0
M  V30 14352 H 1335.35 3.78817 4.73902 0
M  V30 14353 H 1334.09 2.73501 4.03793 0
M  V30 14354 H 1333.1 4.70591 2.84296 0
M  V30 14355 H 1334.32 5.77365 3.57528 0
M  V30 14356 H 1332.27 4.12666 5.09944 0
M  V30 14357 H 1332.18 5.83328 4.809 0
M  V30 14358 H 1333.45 5.19446 5.81202 0
M  V30 14359 N 1337.68 -0.524672 1.4861 0
M  V30 14360 C 1338.59 -1.65554 1.6622 0
M  V30 14361 C 1339.61 -1.65254 0.54471 0
M  V30 14362 O 1340.78 -1.84109 0.816454 0
M  V30 14363 C 1337.85 -3.02003 1.7028 0
M  V30 14364 C 1336.91 -3.13116 2.93695 0
M  V30 14365 C 1336.14 -4.43055 2.97553 0
M  V30 14366 O 1336.36 -5.30468 2.09667 0
M  V30 14367 O 1335.3 -4.58646 3.89779 0
M  V30 14368 H 1339.12 -1.53633 2.61974 0
M  V30 14369 H 1336.71 -0.698354 1.32073 0
M  V30 14370 H 1338.59 -3.83143 1.75441 0
M  V30 14371 H 1337.27 -3.14236 0.777002 0
M  V30 14372 H 1336.17 -2.31251 2.94064 0
M  V30 14373 H 1337.51 -3.058 3.85677 0
M  V30 14374 N 1339.16 -1.37287 -0.77395 0
M  V30 14375 C 1340.07 -1.35059 -1.91823 0
M  V30 14376 C 1341.08 -0.250489 -1.72188 0
M  V30 14377 O 1342.26 -0.485501 -1.95461 0
M  V30 14378 C 1339.33 -1.15444 -3.26915 0
M  V30 14379 C 1338.39 -2.35073 -3.5922 0
M  V30 14380 C 1337.62 -2.16384 -4.87867 0
M  V30 14381 O 1337.84 -1.14696 -5.58749 0
M  V30 14382 O 1336.78 -3.0452 -5.19183 0
M  V30 14383 H 1340.6 -2.31432 -1.96654 0
M  V30 14384 H 1338.19 -1.17994 -0.916392 0
M  V30 14385 H 1340.07 -1.06484 -4.07724 0
M  V30 14386 H 1338.74 -0.221435 -3.22942 0
M  V30 14387 H 1337.65 -2.49604 -2.78655 0
M  V30 14388 H 1338.98 -3.26933 -3.67934 0
M  V30 14389 N 1340.64 0.999871 -1.21821 0
M  V30 14390 C 1342.05 1.26228 -0.976664 0
M  V30 14391 C 1342.25 1.98714 0.333915 0
M  V30 14392 O 1341.31 2.29252 1.05829 0
M  V30 14393 C 1342.62 2.08089 -2.1707 0
M  V30 14394 C 1344.17 2.21298 -2.21351 0
M  V30 14395 C 1344.64 3.06544 -3.40287 0
M  V30 14396 N 1346.14 3.14131 -3.40405 0
M  V30 14397 C 1346.87 3.80362 -4.29083 0
M  V30 14398 N 1346.37 4.48577 -5.27968 0
M  V30 14399 N 1348.16 3.77053 -4.16878 0
M  V30 14400 H 1340.31 0.513704 -2.06094 0
M  V30 14401 H 1342.57 0.289447 -0.902732 0
M  V30 14402 H 1342.28 1.62183 -3.12073 0
M  V30 14403 H 1342.15 3.08843 -2.16554 0
M  V30 14404 H 1344.54 2.66422 -1.269 0
M  V30 14405 H 1344.62 1.19997 -2.25908 0
M  V30 14406 H 1344.27 2.62122 -4.35034 0
M  V30 14407 H 1344.2 4.0797 -3.32969 0
M  V30 14408 H 1346.69 2.65576 -2.68846 0
M  V30 14409 H 1347 4.96833 -5.91926 0
M  V30 14410 H 1345.34 4.47348 -5.31888 0
M  V30 14411 H 1348.54 3.22918 -3.38883 0
M  V30 14412 H 1348.71 4.2839 -4.86195 0
M  V30 14413 N 1342.11 1.02678 1.19562 0
M  V30 14414 C 1343.36 0.723086 1.89471 0
M  V30 14415 C 1343.69 -0.746269 1.79289 0
M  V30 14416 O 1342.97 -1.54322 1.18384 0
M  V30 14417 C 1343.25 1.17224 3.40486 0
M  V30 14418 C 1343.1 2.70266 3.5955 0
M  V30 14419 C 1344.42 0.751397 4.33638 0
M  V30 14420 H 1341.54 0.264155 0.688034 0
M  V30 14421 H 1344.18 1.27633 1.40747 0
M  V30 14422 H 1342.33 0.701544 3.82113 0
M  V30 14423 H 1344.01 3.25266 3.27108 0
M  V30 14424 H 1342.25 3.10758 3.02675 0
M  V30 14425 H 1342.92 2.96748 4.65451 0
M  V30 14426 H 1345.4 1.15621 3.99714 0
M  V30 14427 H 1344.27 1.09358 5.37896 0
M  V30 14428 H 1344.53 -0.346367 4.40741 0
M  V30 14429 N 1343.59 -1.35528 0.804364 0
M  V30 14430 C 1344.82 -2.03604 0.395013 0
M  V30 14431 C 1345.24 -1.60225 -0.985371 0
M  V30 14432 O 1344.6 -0.777844 -1.63766 0
M  V30 14433 C 1344.65 -3.57337 0.484011 0
M  V30 14434 O 1343.75 -4.09316 -0.503395 0
M  V30 14435 H 1343.09 -0.643089 0.165325 0
M  V30 14436 H 1345.62 -1.73171 1.08963 0
M  V30 14437 H 1345.63 -4.0647 0.353009 0
M  V30 14438 H 1344.31 -3.8826 1.49088 0
M  V30 14439 H 1342.89 -3.71412 -0.332817 0
M  V30 14440 N 1345.07 -0.557671 -1.47404 0
M  V30 14441 C 1345.98 0.19289 -2.33806 0
M  V30 14442 C 1347 0.911424 -1.4822 0
M  V30 14443 O 1348.17 0.880214 -1.81147 0
M  V30 14444 C 1345.24 1.20937 -3.24923 0
M  V30 14445 C 1344.3 0.498209 -4.26399 0
M  V30 14446 C 1343.53 1.46626 -5.13163 0
M  V30 14447 O 1343.76 2.70111 -5.0239 0
M  V30 14448 O 1342.69 0.990497 -5.93694 0
M  V30 14449 H 1346.52 -0.515861 -2.99287 0
M  V30 14450 H 1344.1 -0.318283 -1.4597 0
M  V30 14451 H 1345.98 1.7961 -3.81206 0
M  V30 14452 H 1344.66 1.90003 -2.6207 0
M  V30 14453 H 1343.56 -0.129736 -3.73875 0
M  V30 14454 H 1344.9 -0.151015 -4.91968 0
M  V30 14455 N 1346.55 1.54831 -0.294147 0
M  V30 14456 C 1347.48 2.26226 0.57827 0
M  V30 14457 C 1348.46 1.25928 1.14351 0
M  V30 14458 O 1349.65 1.54687 1.17412 0
M  V30 14459 C 1346.78 2.99783 1.75349 0
M  V30 14460 C 1345.73 4.07171 1.31892 0
M  V30 14461 C 1345.06 4.68406 2.57876 0
M  V30 14462 C 1346.36 5.20313 0.455167 0
M  V30 14463 H 1348.05 2.99395 -0.0171936 0
M  V30 14464 H 1345.6 1.43997 -0.00970944 0
M  V30 14465 H 1347.55 3.48448 2.36986 0
M  V30 14466 H 1346.27 2.24181 2.37509 0
M  V30 14467 H 1344.93 3.59346 0.725653 0
M  V30 14468 H 1344.58 3.89451 3.18335 0
M  V30 14469 H 1344.28 5.40927 2.29502 0
M  V30 14470 H 1345.8 5.1983 3.20327 0
M  V30 14471 H 1347.22 5.64913 0.977026 0
M  V30 14472 H 1345.61 5.99512 0.265501 0
M  V30 14473 H 1346.68 4.82088 -0.521434 0
M  V30 14474 N 1348.03 0.0217466 1.57585 0
M  V30 14475 C 1349.44 -0.334576 1.56054 0
M  V30 14476 C 1349.64 -1.73386 1.02663 0
M  V30 14477 O 1348.7 -2.43447 0.670078 0
M  V30 14478 C 1350.01 -0.189919 3.001 0
M  V30 14479 C 1351.56 -0.263238 3.11891 0
M  V30 14480 C 1352.04 -0.147455 4.57763 0
M  V30 14481 N 1353.53 -0.204672 4.62748 0
M  V30 14482 C 1354.26 -0.138755 5.73232 0
M  V30 14483 N 1353.76 -0.0221762 6.92796 0
M  V30 14484 N 1355.55 -0.192206 5.61771 0
M  V30 14485 H 1347.7 0.936849 1.90622 0
M  V30 14486 H 1349.96 0.361119 0.876526 0
M  V30 14487 H 1349.67 0.773687 3.43084 0
M  V30 14488 H 1349.54 -0.963148 3.64696 0
M  V30 14489 H 1351.93 -1.2173 2.68823 0
M  V30 14490 H 1352.01 0.540241 2.5003 0
M  V30 14491 H 1351.66 0.803155 5.0151 0
M  V30 14492 H 1351.59 -0.969703 5.17595 0
M  V30 14493 H 1354.08 -0.29522 3.76745 0
M  V30 14494 H 1354.39 0.021631 7.72797 0
M  V30 14495 H 1352.74 0.0125033 6.94999 0
M  V30 14496 H 1355.93 -0.28163 4.67252 0
M  V30 14497 H 1356.1 -0.137372 6.47854 0
M  V30 14498 N 1349.51 -1.55583 -0.251311 0
M  V30 14499 C 1350.46 -1.86337 -1.31387 0
M  V30 14500 C 1351.44 -0.723887 -1.43697 0
M  V30 14501 O 1352.63 -0.985717 -1.47012 0
M  V30 14502 C 1349.76 -2.15772 -2.67016 0
M  V30 14503 C 1348.85 -3.36036 -2.58729 0
M  V30 14504 N 1349.24 -4.55414 -2.20071 0
M  V30 14505 C 1347.54 -3.39058 -2.89751 0
M  V30 14506 C 1348.24 -5.37544 -2.22309 0
M  V30 14507 N 1347.21 -4.76494 -2.61638 0
M  V30 14508 H 1351.01 -2.76168 -1.00541 0
M  V30 14509 H 1348.53 -1.55751 -0.459941 0
M  V30 14510 H 1350.53 -2.35967 -3.43693 0
M  V30 14511 H 1349.19 -1.27237 -2.98732 0
M  V30 14512 H 1350.2 -4.8112 -1.91688 0
M  V30 14513 H 1346.87 -2.60781 -3.26036 0
M  V30 14514 H 1348.26 -6.43042 -1.94798 0
M  V30 14515 N 1350.98 0.516783 -1.48886 0
M  V30 14516 C 1351.92 1.63632 -1.60491 0
M  V30 14517 C 1352.93 1.55301 -0.488424 0
M  V30 14518 O 1354.12 1.6152 -0.75983 0
M  V30 14519 C 1351.22 3.02351 -1.53093 0
M  V30 14520 C 1350.39 3.36028 -2.80006 0
M  V30 14521 C 1349.45 4.54087 -2.65879 0
M  V30 14522 O 1348.48 4.56652 -3.3979 0
M  V30 14523 N 1349.68 5.53058 -1.76372 0
M  V30 14524 H 1352.44 1.54109 -2.57042 0
M  V30 14525 H 1350 0.704338 -1.45776 0
M  V30 14526 H 1352 3.79225 -1.41318 0
M  V30 14527 H 1350.57 3.05881 -0.644637 0
M  V30 14528 H 1349.79 2.48204 -3.06249 0
M  V30 14529 H 1351.07 3.5532 -3.64177 0
M  V30 14530 H 1350.47 5.53773 -1.1555 0
M  V30 14531 H 1349.03 6.29097 -1.70529 0
M  V30 14532 N 1352.46 1.37696 0.766659 0
M  V30 14533 C 1353.39 1.36576 1.89392 0
M  V30 14534 C 1354.37 0.233597 1.68488 0
M  V30 14535 O 1355.56 0.434719 1.89272 0
M  V30 14536 C 1352.69 1.17705 3.26746 0
M  V30 14537 C 1351.64 2.27987 3.62224 0
M  V30 14538 C 1350.97 1.94235 4.98174 0
M  V30 14539 C 1352.27 3.70195 3.68447 0
M  V30 14540 H 1353.96 2.30905 1.90587 0
M  V30 14541 H 1351.51 1.11148 0.915538 0
M  V30 14542 H 1353.46 1.15551 4.05248 0
M  V30 14543 H 1352.18 0.198334 3.25997 0
M  V30 14544 H 1350.84 2.29306 2.86032 0
M  V30 14545 H 1350.49 0.948796 4.93971 0
M  V30 14546 H 1350.19 2.68086 5.2288 0
M  V30 14547 H 1351.72 1.93676 5.7907 0
M  V30 14548 H 1353.13 3.70978 4.37091 0
M  V30 14549 H 1351.53 4.43142 4.04654 0
M  V30 14550 H 1352.6 4.03453 2.68986 0
M  V30 14551 N 1353.94 -0.993397 1.22349 0
M  V30 14552 C 1354.87 -2.08543 0.950925 0
M  V30 14553 C 1355.88 -1.62648 -0.0702741 0
M  V30 14554 O 1357.07 -1.77748 0.16367 0
M  V30 14555 C 1354.17 -3.36429 0.408466 0
M  V30 14556 C 1353.35 -4.11356 1.48676 0
M  V30 14557 C 1352.41 -5.17526 0.951478 0
M  V30 14558 O 1351.43 -5.45135 1.63757 0
M  V30 14559 N 1352.63 -5.80055 -0.227378 0
M  V30 14560 H 1355.4 -2.32506 1.89106 0
M  V30 14561 H 1352.96 -1.15911 1.13032 0
M  V30 14562 H 1354.95 -4.04684 0.0356968 0
M  V30 14563 H 1353.52 -3.09534 -0.436767 0
M  V30 14564 H 1352.74 -3.37739 2.03288 0
M  V30 14565 H 1354.03 -4.58187 2.21228 0
M  V30 14566 H 1353.43 -5.59992 -0.801601 0
M  V30 14567 H 1351.98 -6.49546 -0.541538 0
M  V30 14568 N 1355.42 -1.03311 -1.19015 0
M  V30 14569 C 1356.64 -0.751686 -1.93299 0
M  V30 14570 C 1357.07 0.68392 -1.75226 0
M  V30 14571 O 1356.43 1.47274 -1.05736 0
M  V30 14572 C 1356.47 -1.11335 -3.42982 0
M  V30 14573 O 1355.58 -0.234434 -4.11733 0
M  V30 14574 H 1354.92 -0.277331 -0.60331 0
M  V30 14575 H 1357.45 -1.38092 -1.5097 0
M  V30 14576 H 1357.46 -1.07204 -3.93664 0
M  V30 14577 H 1356.13 -2.15922 -3.55458 0
M  V30 14578 H 1354.71 -0.3347 -3.71395 0
M  V30 14579 N 1356.9 1.35099 -0.81154 0
M  V30 14580 C 1358.31 1.51701 -0.495883 0
M  V30 14581 C 1358.51 1.7595 0.982035 0
M  V30 14582 O 1357.57 1.8038 1.7669 0
M  V30 14583 C 1358.88 2.68916 -1.34554 0
M  V30 14584 C 1360.43 2.82795 -1.34149 0
M  V30 14585 C 1360.9 4.0304 -2.17538 0
M  V30 14586 N 1362.39 4.10227 -2.151 0
M  V30 14587 C 1363.13 5.02397 -2.76377 0
M  V30 14588 N 1362.63 5.99866 -3.46601 0
M  V30 14589 N 1364.42 4.95181 -2.65992 0
M  V30 14590 H 1356.57 1.17617 -1.76862 0
M  V30 14591 H 1358.83 0.575875 -0.753042 0
M  V30 14592 H 1358.54 2.57591 -2.39458 0
M  V30 14593 H 1358.41 3.63641 -1.00223 0
M  V30 14594 H 1360.8 2.93568 -0.300285 0
M  V30 14595 H 1360.88 1.88912 -1.7247 0
M  V30 14596 H 1360.52 3.93027 -3.21702 0
M  V30 14597 H 1360.45 4.96114 -1.76574 0
M  V30 14598 H 1362.95 3.40454 -1.6401 0
M  V30 14599 H 1363.26 6.66803 -3.90632 0
M  V30 14600 H 1361.6 6.00025 -3.50706 0
M  V30 14601 H 1364.79 4.17991 -2.10715 0
M  V30 14602 H 1364.97 5.6682 -3.14036 0
M  V30 14603 N 1358.37 0.56548 1.47106 0
M  V30 14604 C 1359.31 -0.215154 2.28188 0
M  V30 14605 C 1360.32 -0.871671 1.37498 0
M  V30 14606 O 1361.51 -0.744131 1.6225 0
M  V30 14607 C 1358.61 -1.32289 3.12014 0
M  V30 14608 C 1357.78 -0.761594 4.30719 0
M  V30 14609 C 1356.84 -1.75486 4.96076 0
M  V30 14610 O 1355.87 -1.29771 5.5421 0
M  V30 14611 N 1357.07 -3.0885 4.9152 0
M  V30 14612 H 1359.83 0.480405 2.95825 0
M  V30 14613 H 1357.39 0.402099 1.56827 0
M  V30 14614 H 1359.39 -1.98628 3.52603 0
M  V30 14615 H 1357.96 -1.92156 2.46566 0
M  V30 14616 H 1357.18 0.078794 3.94121 0
M  V30 14617 H 1358.46 -0.366072 5.07481 0
M  V30 14618 H 1357.86 -3.4863 4.45504 0
M  V30 14619 H 1356.42 -3.70725 5.36103 0
M  V30 14620 N 1359.85 -1.54672 0.302354 0
M  V30 14621 C 1360.78 -2.21021 -0.606828 0
M  V30 14622 C 1361.8 -1.20337 -1.09648 0
M  V30 14623 O 1362.99 -1.46923 -1.0137 0
M  V30 14624 C 1360.09 -2.84411 -1.84293 0
M  V30 14625 C 1359.26 -4.11038 -1.49554 0
M  V30 14626 C 1358.32 -4.58219 -2.58693 0
M  V30 14627 O 1357.34 -5.23387 -2.23728 0
M  V30 14628 N 1358.55 -4.30651 -3.89256 0
M  V30 14629 H 1361.31 -2.99675 -0.0388221 0
M  V30 14630 H 1358.87 -1.6142 0.124614 0
M  V30 14631 H 1360.86 -3.12906 -2.56655 0
M  V30 14632 H 1359.43 -2.09589 -2.31929 0
M  V30 14633 H 1358.65 -3.89538 -0.604492 0
M  V30 14634 H 1359.94 -4.93488 -1.23884 0
M  V30 14635 H 1359.34 -3.78445 -4.20471 0
M  V30 14636 H 1357.9 -4.63853 -4.57913 0
M  V30 14637 N 1361.33 -0.0301034 -1.57571 0
M  V30 14638 C 1362.26 0.94977 -2.13311 0
M  V30 14639 C 1363.24 1.33865 -1.04948 0
M  V30 14640 O 1364.43 1.4171 -1.32786 0
M  V30 14641 C 1361.56 2.23178 -2.66099 0
M  V30 14642 C 1360.51 1.98362 -3.79258 0
M  V30 14643 C 1359.84 3.32836 -4.18479 0
M  V30 14644 C 1361.14 1.32201 -5.05292 0
M  V30 14645 H 1362.83 0.485562 -2.95436 0
M  V30 14646 H 1360.38 0.232116 -1.42117 0
M  V30 14647 H 1362.33 2.92108 -3.03728 0
M  V30 14648 H 1361.05 2.71766 -1.81137 0
M  V30 14649 H 1359.71 1.31849 -3.42069 0
M  V30 14650 H 1359.36 3.79185 -3.30496 0
M  V30 14651 H 1359.06 3.17037 -4.94733 0
M  V30 14652 H 1360.58 4.03032 -4.58691 0
M  V30 14653 H 1362 1.91133 -5.40501 0
M  V30 14654 H 1360.4 1.26797 -5.86551 0
M  V30 14655 H 1361.47 0.29511 -4.84001 0
M  V30 14656 N 1362.81 1.55714 0.243056 0
M  V30 14657 C 1364.22 1.48224 0.591754 0
M  V30 14658 C 1364.42 0.72105 1.88157 0
M  V30 14659 O 1363.48 0.251966 2.5124 0
M  V30 14660 C 1364.79 2.92655 0.690918 0
M  V30 14661 C 1366.34 3.03048 0.782988 0
M  V30 14662 C 1366.82 4.48794 0.913682 0
M  V30 14663 N 1368.31 4.52748 0.978454 0
M  V30 14664 C 1369.04 5.62771 1.09891 0
M  V30 14665 N 1368.54 6.82596 1.18467 0
M  V30 14666 N 1370.33 5.50576 1.13237 0
M  V30 14667 H 1362.48 2.03642 -0.603614 0
M  V30 14668 H 1364.75 0.924702 -0.208878 0
M  V30 14669 H 1364.45 3.51203 -0.186871 0
M  V30 14670 H 1364.33 3.43357 1.5616 0
M  V30 14671 H 1366.71 2.44578 1.65123 0
M  V30 14672 H 1366.79 2.55551 -0.112921 0
M  V30 14673 H 1366.44 5.07875 0.0499835 0
M  V30 14674 H 1366.37 4.93976 1.82469 0
M  V30 14675 H 1368.86 3.66445 0.92337 0
M  V30 14676 H 1369.17 7.62197 1.27576 0
M  V30 14677 H 1367.52 6.85349 1.15418 0
M  V30 14678 H 1370.71 4.55897 1.06188 0
M  V30 14679 H 1370.88 6.36358 1.2228 0
M  V30 14680 N 1364.29 -0.50888 1.49158 0
M  V30 14681 C 1365.51 -1.29245 1.62205 0
M  V30 14682 C 1365.94 -1.85845 0.29041 0
M  V30 14683 O 1365.29 -1.6547 -0.740906 0
M  V30 14684 C 1365.34 -2.40415 2.68762 0
M  V30 14685 O 1364.45 -3.44048 2.27387 0
M  V30 14686 H 1363.79 -0.381898 0.543185 0
M  V30 14687 H 1366.32 -0.610076 1.95293 0
M  V30 14688 H 1366.33 -2.86295 2.90688 0
M  V30 14689 H 1365 -1.98584 3.65427 0
M  V30 14690 H 1363.58 -3.04141 2.1576 0
M  V30 14691 N 1365.76 -1.381 -0.759346 0
M  V30 14692 C 1367.18 -1.19171 -1.06162 0
M  V30 14693 C 1367.38 -0.0364043 -2.01467 0
M  V30 14694 O 1366.44 0.619635 -2.44779 0
M  V30 14695 C 1367.75 -2.51569 -1.64723 0
M  V30 14696 C 1369.3 -2.58201 -1.76921 0
M  V30 14697 C 1369.77 -3.9076 -2.38894 0
M  V30 14698 N 1371.26 -3.92269 -2.46331 0
M  V30 14699 C 1372 -4.91595 -2.95164 0
M  V30 14700 N 1371.49 -6.01318 -3.44075 0
M  V30 14701 N 1373.29 -4.7899 -2.94152 0
M  V30 14702 H 1365.44 -2.12021 -0.126788 0
M  V30 14703 H 1367.7 -0.940517 -0.118877 0
M  V30 14704 H 1367.41 -3.36535 -1.02162 0
M  V30 14705 H 1367.28 -2.69551 -2.6386 0
M  V30 14706 H 1369.67 -1.73634 -2.38611 0
M  V30 14707 H 1369.75 -2.44092 -0.765047 0
M  V30 14708 H 1369.39 -4.75747 -1.7784 0
M  V30 14709 H 1369.32 -4.02179 -3.39941 0
M  V30 14710 H 1371.81 -3.13015 -2.11731 0
M  V30 14711 H 1372.13 -6.73046 -3.79776 0
M  V30 14712 H 1370.47 -6.04946 -3.42148 0
M  V30 14713 H 1373.66 -3.92385 -2.55248 0
M  V30 14714 H 1373.84 -5.5655 -3.31897 0
M  V30 14715 N 1367.24 0.986894 -1.22875 0
M  V30 14716 C 1368.66 1.25185 -0.989997 0
M  V30 14717 C 1368.86 1.99057 0.31282 0
M  V30 14718 O 1367.91 2.30361 1.03392 0
M  V30 14719 C 1369.23 2.05775 -2.19265 0
M  V30 14720 C 1370.78 2.18938 -2.23686 0
M  V30 14721 C 1371.25 3.02917 -3.43519 0
M  V30 14722 N 1372.74 3.10503 -3.43718 0
M  V30 14723 C 1373.48 3.75789 -4.33094 0
M  V30 14724 N 1372.97 4.42952 -5.32696 0
M  V30 14725 N 1374.77 3.72611 -4.20854 0
M  V30 14726 H 1366.92 0.491816 -2.06628 0
M  V30 14727 H 1369.18 0.279856 -0.905751 0
M  V30 14728 H 1368.89 1.58864 -3.13776 0
M  V30 14729 H 1368.76 3.06529 -2.19818 0
M  V30 14730 H 1371.15 2.65061 -1.29718 0
M  V30 14731 H 1371.23 1.17595 -2.27168 0
M  V30 14732 H 1370.87 2.57493 -4.3779 0
M  V30 14733 H 1370.8 4.04415 -3.37277 0
M  V30 14734 H 1373.29 2.62709 -2.71647 0
M  V30 14735 H 1373.61 4.90527 -5.97162 0
M  V30 14736 H 1371.95 4.41681 -5.36603 0
M  V30 14737 H 1375.14 3.19305 -3.42289 0
M  V30 14738 H 1375.31 4.2321 -4.90711 0
M  V30 14739 N 1368.72 1.0394 1.18466 0
M  V30 14740 C 1369.67 0.59975 2.1997 0
M  V30 14741 C 1370.65 -0.357127 1.56887 0
M  V30 14742 O 1371.85 -0.176388 1.76119 0
M  V30 14743 C 1368.98 -0.0371434 3.4328 0
M  V30 14744 C 1368.06 0.942805 4.13488 0
M  V30 14745 N 1368.45 2.10936 4.59717 0
M  V30 14746 C 1366.75 0.768529 4.39329 0
M  V30 14747 C 1367.45 2.72829 5.1375 0
M  V30 14748 N 1366.43 2.00713 5.05188 0
M  V30 14749 H 1370.23 1.48875 2.53403 0
M  V30 14750 H 1367.74 0.907817 1.34657 0
M  V30 14751 H 1369.74 -0.369803 4.15257 0
M  V30 14752 H 1368.4 -0.921701 3.11343 0
M  V30 14753 H 1369.41 2.48831 4.54207 0
M  V30 14754 H 1366.09 -0.0660446 4.17448 0
M  V30 14755 H 1367.48 3.71684 5.59733 0
M  V30 14756 N 1370.2 -1.34667 0.818693 0
M  V30 14757 C 1371.61 -1.80839 0.46414 0
M  V30 14758 C 1371.96 -1.67902 -1.01506 0
M  V30 14759 O 1371.09 -1.21658 -1.78964 0
M  V30 14760 C 1371.68 -3.28331 0.835698 0
M  V30 14761 C 1370.24 -3.72599 0.533575 0
M  V30 14762 C 1369.39 -2.56452 1.05487 0
M  V30 14763 H 1372.34 -1.22474 1.00925 0
M  V30 14764 H 1372.36 -3.8025 0.13785 0
M  V30 14765 H 1371.87 -3.37715 1.91233 0
M  V30 14766 H 1369.97 -3.68756 -0.533819 0
M  V30 14767 H 1370.08 -4.66891 1.07468 0
M  V30 14768 H 1368.45 -2.50201 0.476612 0
M  V30 14769 H 1369.23 -2.68608 2.13786 0
M  V30 14770 N 1371.68 -0.573274 -1.46804 0
M  V30 14771 C 1373.09 -0.144162 -1.86143 0
M  V30 14772 C 1373.44 1.29033 -1.47801 0
M  V30 14773 O 1372.56 1.97319 -0.888494 0
M  V30 14774 C 1373.16 -0.254851 -3.3784 0
M  V30 14775 C 1371.72 0.119325 -3.76211 0
M  V30 14776 C 1370.86 -0.595115 -2.70839 0
M  V30 14777 H 1373.82 -0.782057 -1.38093 0
M  V30 14778 H 1373.84 0.522321 -3.76898 0
M  V30 14779 H 1373.35 -1.29899 -3.65715 0
M  V30 14780 H 1371.45 1.16396 -3.53953 0
M  V30 14781 H 1371.56 -0.250421 -4.78445 0
M  V30 14782 H 1369.93 -0.0364028 -2.54674 0
M  V30 14783 H 1370.71 -1.64072 -3.01555 0
M  V30 14784 N 1373.15 1.5451 -0.310553 0
M  V30 14785 C 1374.38 2.04739 0.29824 0
M  V30 14786 C 1374.8 1.18737 1.46788 0
M  V30 14787 O 1374.15 0.215114 1.81228 0
M  V30 14788 C 1374.21 3.53734 0.745274 0
M  V30 14789 O 1373.93 4.36468 -0.377826 0
M  V30 14790 C 1375.43 4.20001 1.41823 0
M  V30 14791 H 1372.65 0.667997 0.0634159 0
M  V30 14792 H 1375.19 1.9942 -0.452961 0
M  V30 14793 H 1373.35 3.59383 1.44648 0
M  V30 14794 H 1373.76 5.24492 -0.0280567 0
M  V30 14795 H 1375.23 5.25747 1.68209 0
M  V30 14796 H 1375.71 3.70319 2.36137 0
M  V30 14797 H 1376.32 4.18455 0.759951 0
M  V30 14798 N 1374.63 0.0384594 1.57553 0
M  V30 14799 C 1376.04 -0.499057 1.79906 0
M  V30 14800 C 1376.4 -1.7169 0.949577 0
M  V30 14801 O 1375.52 -2.15788 0.162584 0
M  V30 14802 C 1376.12 -0.912155 3.2629 0
M  V30 14803 C 1374.67 -1.39473 3.49606 0
M  V30 14804 C 1373.82 -0.363859 2.74902 0
M  V30 14805 H 1376.77 0.264433 1.56481 0
M  V30 14806 H 1376.79 -1.77592 3.36513 0
M  V30 14807 H 1376.31 -0.0255928 3.88092 0
M  V30 14808 H 1374.41 -2.3009 2.93068 0
M  V30 14809 H 1374.52 -1.39566 4.58321 0
M  V30 14810 H 1372.88 -0.833993 2.40659 0
M  V30 14811 H 1373.67 0.514398 3.39424 0
M  V30 14812 N 1376.11 -1.55841 -0.234795 0
M  V30 14813 C 1377.52 -1.68555 -0.802886 0
M  V30 14814 C 1377.87 -0.638107 -1.85533 0
M  V30 14815 O 1377 0.21333 -2.15346 0
M  V30 14816 C 1377.59 -3.0558 -1.46309 0
M  V30 14817 C 1376.15 -3.20192 -1.97874 0
M  V30 14818 C 1375.3 -2.64457 -0.834136 0
M  V30 14819 H 1378.25 -1.58697 -0.0103759 0
M  V30 14820 H 1378.27 -3.007 -2.33152 0
M  V30 14821 H 1377.78 -3.81792 -0.696868 0
M  V30 14822 H 1375.88 -2.48825 -2.77339 0
M  V30 14823 H 1376 -4.27251 -2.1678 0
M  V30 14824 H 1374.36 -2.22593 -1.23791 0
M  V30 14825 H 1375.14 -3.43205 -0.0807988 0
M  V30 14826 N 1377.59 0.500963 -1.49426 0
M  V30 14827 C 1378.5 1.62889 -1.68833 0
M  V30 14828 C 1379.52 1.64367 -0.570932 0
M  V30 14829 O 1380.69 1.82786 -0.845641 0
M  V30 14830 C 1377.76 2.99255 -1.75063 0
M  V30 14831 C 1376.82 3.08404 -2.9864 0
M  V30 14832 C 1376.05 4.38266 -3.04564 0
M  V30 14833 O 1376.27 5.27065 -2.1808 0
M  V30 14834 O 1375.21 4.52387 -3.97026 0
M  V30 14835 H 1379.03 1.49446 -2.64385 0
M  V30 14836 H 1376.62 0.677254 -1.33168 0
M  V30 14837 H 1378.5 3.80303 -1.81515 0
M  V30 14838 H 1377.18 3.1296 -0.826896 0
M  V30 14839 H 1376.08 2.26544 -2.97706 0
M  V30 14840 H 1377.42 2.99626 -3.90494 0
M  V30 14841 N 1379.07 1.38501 0.752011 0
M  V30 14842 C 1380.48 1.31086 1.32941 0
M  V30 14843 C 1380.83 -0.0326248 1.96173 0
M  V30 14844 O 1379.95 -0.934692 1.95173 0
M  V30 14845 C 1380.55 2.37395 2.41721 0
M  V30 14846 C 1379.11 2.33553 2.95177 0
M  V30 14847 C 1378.26 2.20178 1.68573 0
M  V30 14848 H 1381.21 1.48836 0.550771 0
M  V30 14849 H 1381.23 2.03202 3.21697 0
M  V30 14850 H 1380.74 3.35164 1.9567 0
M  V30 14851 H 1378.84 1.39371 3.45553 0
M  V30 14852 H 1378.95 3.27753 3.49449 0
M  V30 14853 H 1377.32 1.67057 1.9226 0
M  V30 14854 H 1378.1 3.19891 1.24599 0
M  V30 14855 N 1380.55 -0.980364 1.23396 0
M  V30 14856 C 1381.77 -1.76223 1.09363 0
M  V30 14857 C 1382.2 -1.84801 -0.350759 0
M  V30 14858 O 1381.55 -1.30966 -1.2537 0
M  V30 14859 C 1381.6 -3.16728 1.72383 0
M  V30 14860 O 1380.71 -4.00439 0.986002 0
M  V30 14861 H 1380.05 -0.542174 0.383332 0
M  V30 14862 H 1382.58 -1.23066 1.6345 0
M  V30 14863 H 1382.59 -3.67307 1.77623 0
M  V30 14864 H 1381.26 -3.098 2.77483 0
M  V30 14865 H 1379.84 -3.58946 1.01054 0
M  V30 14866 N 1382.02 -1.04567 -1.17913 0
M  V30 14867 C 1383.27 -0.750538 -1.87647 0
M  V30 14868 C 1383.59 0.72423 -1.81052 0
M  V30 14869 O 1382.86 1.52292 -1.23223 0
M  V30 14870 H 1381.44 -0.274636 -0.694683 0
M  V30 14871 H 1384.1 -1.32349 -1.43072 0
M  V30 14872 H 1383.2 -1.05987 -2.93553 0
M  V30 14873 N 1383.5 1.34231 -0.825823 0
M  V30 14874 C 1384.75 1.97805 -0.414456 0
M  V30 14875 C 1385.07 1.65786 1.02664 0
M  V30 14876 O 1384.34 0.950069 1.7132 0
M  V30 14877 H 1382.92 0.73173 -0.150265 0
M  V30 14878 H 1385.58 1.63819 -1.05591 0
M  V30 14879 H 1384.68 3.07466 -0.535829 0
M  V30 14880 N 1384.98 0.581051 1.46498 0
M  V30 14881 C 1385.91 -0.140957 2.33074 0
M  V30 14882 C 1386.89 -0.885323 1.45245 0
M  V30 14883 O 1388.08 -0.86111 1.74065 0
M  V30 14884 C 1385.21 -1.15625 3.27488 0
M  V30 14885 C 1384.16 -0.526829 4.24745 0
M  V30 14886 C 1383.49 -1.64847 5.08655 0
M  V30 14887 C 1384.79 0.53492 5.19554 0
M  V30 14888 H 1386.48 0.581888 2.93691 0
M  V30 14889 H 1384.03 0.281278 1.41226 0
M  V30 14890 H 1385.98 -1.6697 3.8691 0
M  V30 14891 H 1384.7 -1.90935 2.64974 0
M  V30 14892 H 1383.36 -0.0344738 3.66584 0
M  V30 14893 H 1383.01 -2.3912 4.42528 0
M  V30 14894 H 1382.71 -1.23298 5.74518 0
M  V30 14895 H 1384.23 -2.16472 5.7094 0
M  V30 14896 H 1385.65 0.106606 5.73201 0
M  V30 14897 H 1384.04 0.870639 5.93751 0
M  V30 14898 H 1385.11 1.42184 4.63586 0
M  V30 14899 N 1386.46 -1.54343 0.318742 0
M  V30 14900 C 1387.87 -1.85922 -0.170309 0
M  V30 14901 C 1388.22 -1.24047 -1.52009 0
M  V30 14902 O 1387.34 -0.544705 -2.09432 0
M  V30 14903 C 1387.94 -3.37325 -0.315802 0
M  V30 14904 C 1386.5 -3.68871 -0.749073 0
M  V30 14905 C 1385.65 -2.76985 0.13209 0
M  V30 14906 H 1388.6 -1.4926 0.539185 0
M  V30 14907 H 1388.62 -3.62784 -1.14751 0
M  V30 14908 H 1388.13 -3.8233 0.66674 0
M  V30 14909 H 1386.23 -3.29396 -1.74153 0
M  V30 14910 H 1386.34 -4.75861 -0.556164 0
M  V30 14911 H 1384.71 -2.51672 -0.391564 0
M  V30 14912 H 1385.49 -3.24815 1.11131 0
M  V30 14913 N 1387.94 -0.0468143 -1.5753 0
M  V30 14914 C 1389.35 0.309707 -1.56566 0
M  V30 14915 C 1389.55 1.7173 -1.05408 0
M  V30 14916 O 1388.61 2.4235 -0.708723 0
M  V30 14917 C 1389.92 0.142151 -3.00364 0
M  V30 14918 C 1391.47 0.213585 -3.1227 0
M  V30 14919 C 1391.94 0.0746102 -4.57939 0
M  V30 14920 N 1393.43 0.131027 -4.63015 0
M  V30 14921 C 1394.17 0.0475409 -5.7338 0
M  V30 14922 N 1393.67 -0.0880445 -6.92744 0
M  V30 14923 N 1395.46 0.102809 -5.62006 0
M  V30 14924 H 1387.61 -0.967057 -1.89108 0
M  V30 14925 H 1389.87 -0.375018 -0.870669 0
M  V30 14926 H 1389.58 -0.828171 -3.4181 0
M  V30 14927 H 1389.45 0.905006 -3.66182 0
M  V30 14928 H 1391.84 1.17438 -2.70726 0
M  V30 14929 H 1391.92 -0.57995 -2.49139 0
M  V30 14930 H 1391.56 -0.882839 -5.00168 0
M  V30 14931 H 1391.49 0.887235 -5.19072 0
M  V30 14932 H 1393.99 0.235246 -3.77167 0
M  V30 14933 H 1394.3 -0.144574 -7.72665 0
M  V30 14934 H 1392.64 -0.12307 -6.94891 0
M  V30 14935 H 1395.83 0.207259 -4.67641 0
M  V30 14936 H 1396.01 0.0342865 -6.47991 0
M  V30 14937 N 1389.41 1.55964 0.226527 0
M  V30 14938 C 1390.66 1.78392 0.94977 0
M  V30 14939 C 1390.98 0.614444 1.85066 0
M  V30 14940 O 1390.25 -0.368894 1.92395 0
M  V30 14941 H 1388.83 0.657962 0.353688 0
M  V30 14942 H 1391.5 1.93422 0.239577 0
M  V30 14943 H 1390.59 2.70343 1.55952 0
M  V30 14944 N 1390.89 -0.493031 1.4969 0
M  V30 14945 C 1392.3 -1.0744 1.52688 0
M  V30 14946 C 1392.65 -1.93612 0.317652 0
M  V30 14947 O 1391.78 -2.0871 -0.571745 0
M  V30 14948 C 1392.37 -1.95523 2.76688 0
M  V30 14949 C 1390.93 -2.48808 2.82438 0
M  V30 14950 C 1390.08 -1.26617 2.46705 0
M  V30 14951 H 1393.03 -0.276589 1.56271 0
M  V30 14952 H 1393.05 -2.80315 2.57301 0
M  V30 14953 H 1392.56 -1.32779 3.6468 0
M  V30 14954 H 1390.67 -3.15168 1.98746 0
M  V30 14955 H 1390.78 -2.85416 3.84805 0
M  V30 14956 H 1389.14 -1.59396 1.98658 0
M  V30 14957 H 1389.93 -0.655695 3.3698 0
M  V30 14958 N 1392.37 -1.38898 -0.744656 0
M  V30 14959 C 1393.78 -1.31789 -1.32244 0
M  V30 14960 C 1394.13 0.0222208 -1.96187 0
M  V30 14961 O 1393.26 0.924328 -1.95666 0
M  V30 14962 C 1393.85 -2.38674 -2.40458 0
M  V30 14963 C 1392.41 -2.35116 -2.93935 0
M  V30 14964 C 1391.56 -2.21069 -1.67403 0
M  V30 14965 H 1394.51 -1.49126 -0.54287 0
M  V30 14966 H 1394.53 -2.04905 -3.20615 0
M  V30 14967 H 1394.04 -3.36197 -1.9389 0
M  V30 14968 H 1392.14 -1.41201 -3.44809 0
M  V30 14969 H 1392.26 -3.29602 -3.47706 0
M  V30 14970 H 1390.62 -1.68074 -1.91372 0
M  V30 14971 H 1391.4 -3.20547 -1.229 0
M  V30 14972 N 1393.85 0.973806 -1.23914 0
M  V30 14973 C 1394.76 2.10138 -1.04304 0
M  V30 14974 C 1395.77 1.73994 0.0143888 0
M  V30 14975 O 1396.95 2.00572 -0.182481 0
M  V30 14976 C 1394.02 3.40673 -0.643639 0
M  V30 14977 C 1393.08 3.90802 -1.77686 0
M  V30 14978 C 1392.31 5.15108 -1.39642 0
M  V30 14979 O 1392.53 5.69695 -0.283546 0
M  V30 14980 O 1391.47 5.59468 -2.21988 0
M  V30 14981 H 1395.29 2.29574 -1.9882 0
M  V30 14982 H 1392.88 1.08524 -1.02679 0
M  V30 14983 H 1394.76 4.19178 -0.432145 0
M  V30 14984 H 1393.43 3.22551 0.272458 0
M  V30 14985 H 1392.34 3.13385 -2.04305 0
M  V30 14986 H 1393.67 4.1339 -2.67151 0
M  V30 14987 N 1395.33 1.05191 1.17357 0
M  V30 14988 C 1396.74 0.788105 1.69251 0
M  V30 14989 C 1397.09 -0.689717 1.83677 0
M  V30 14990 O 1396.21 -1.53601 1.52433 0
M  V30 14991 C 1396.81 1.42401 3.07421 0
M  V30 14992 C 1395.37 1.20825 3.5648 0
M  V30 14993 C 1394.51 1.50756 2.3274 0
M  V30 14994 H 1397.47 1.21686 1.01874 0
M  V30 14995 H 1397.49 0.833285 3.71264 0
M  V30 14996 H 1397 2.49958 2.96889 0
M  V30 14997 H 1395.1 0.15193 3.7229 0
M  V30 14998 H 1395.21 1.91319 4.39242 0
M  V30 14999 H 1393.58 0.927649 2.37206 0
M  V30 15000 H 1394.36 2.59446 2.24817 0
M  V30 15001 N 1396.8 -1.33791 0.83293 0
M  V30 15002 C 1398.22 -1.80336 0.483294 0
M  V30 15003 C 1398.57 -1.68969 -0.997195 0
M  V30 15004 O 1397.69 -1.23549 -1.77664 0
M  V30 15005 C 1398.29 -3.27427 0.870475 0
M  V30 15006 C 1396.85 -3.72012 0.573064 0
M  V30 15007 C 1395.99 -2.55319 1.08201 0
M  V30 15008 H 1398.94 -1.21396 1.02218 0
M  V30 15009 H 1398.96 -3.80083 0.178173 0
M  V30 15010 H 1398.48 -3.35668 1.94804 0
M  V30 15011 H 1396.58 -3.69302 -0.494678 0
M  V30 15012 H 1396.69 -4.65725 1.12414 0
M  V30 15013 H 1395.05 -2.49681 0.503123 0
M  V30 15014 H 1395.84 -2.66326 2.16623 0
M  V30 15015 N 1398.28 -0.588812 -1.46187 0
M  V30 15016 C 1399.56 -0.00958331 -1.95598 0
M  V30 15017 C 1399.94 1.45294 -1.53144 0
M  V30 15018 O 1399.29 2.14592 -0.785015 0
M  V30 15019 C 1399.5 -0.188018 -3.48493 0
M  V30 15020 C 1400.85 -0.0590152 -4.24559 0
M  V30 15021 O 1401.87 -0.117167 -3.56007 0
M  V30 15022 O 1400.73 0.0715924 -5.46453 0
M  V30 15023 H 1397.82 0.0463708 -0.825699 0
M  V30 15024 H 1400.37 -0.657558 -1.56443 0
M  V30 15025 H 1399.14 -1.20449 -3.723 0
M  V30 15026 H 1398.76 0.496103 -3.94493 0
M  V30 15027 N 1399.76 1.54172 -0.326923 0
M  V30 15028 C 1401.18 1.59579 0.0256055 0
M  V30 15029 C 1401.38 1.34337 1.50186 0
M  V30 15030 O 1400.43 1.12945 2.25831 0
M  V30 15031 C 1401.75 2.98086 -0.395641 0
M  V30 15032 C 1403.29 3.11075 -0.346579 0
M  V30 15033 C 1403.77 4.51932 -0.743039 0
M  V30 15034 N 1405.26 4.57932 -0.696575 0
M  V30 15035 C 1405.99 5.65041 -0.975493 0
M  V30 15036 N 1405.49 6.80075 -1.32172 0
M  V30 15037 N 1407.28 5.54835 -0.900831 0
M  V30 15038 H 1399.43 1.68836 -1.28872 0
M  V30 15039 H 1401.7 0.789858 -0.52424 0
M  V30 15040 H 1401.4 3.21568 -1.42431 0
M  V30 15041 H 1401.28 3.76451 0.237645 0
M  V30 15042 H 1403.66 2.87326 0.672889 0
M  V30 15043 H 1403.75 2.34807 -1.01484 0
M  V30 15044 H 1403.39 4.76415 -1.76044 0
M  V30 15045 H 1403.32 5.26574 -0.0524263 0
M  V30 15046 H 1405.81 3.75318 -0.440969 0
M  V30 15047 H 1406.12 7.57708 -1.51983 0
M  V30 15048 H 1404.47 6.81563 -1.36001 0
M  V30 15049 H 1407.66 4.63844 -0.629812 0
M  V30 15050 H 1407.83 6.3822 -1.12156 0
M  V30 15051 N 1401.24 0.0551678 1.57503 0
M  V30 15052 C 1402.17 -0.915714 2.14795 0
M  V30 15053 C 1403.15 -1.32179 1.07065 0
M  V30 15054 O 1404.33 -1.39579 1.35023 0
M  V30 15055 C 1401.46 -2.18916 2.69616 0
M  V30 15056 C 1400.42 -1.92303 3.82366 0
M  V30 15057 C 1399.74 -3.26136 4.23721 0
M  V30 15058 C 1401.04 -1.24146 5.07331 0
M  V30 15059 H 1402.74 -0.438499 2.96171 0
M  V30 15060 H 1400.28 -0.209477 1.42468 0
M  V30 15061 H 1402.24 -2.87239 3.08337 0
M  V30 15062 H 1400.96 -2.6885 1.85437 0
M  V30 15063 H 1399.62 -1.26391 3.44123 0
M  V30 15064 H 1399.27 -3.73879 3.36487 0
M  V30 15065 H 1398.97 -3.09126 4.99715 0
M  V30 15066 H 1400.49 -3.95684 4.65045 0
M  V30 15067 H 1401.91 -1.8251 5.43473 0
M  V30 15068 H 1400.3 -1.17449 5.88494 0
M  V30 15069 H 1401.37 -0.218073 4.84409 0
M  V30 15070 N 1402.72 -1.56081 -0.218252 0
M  V30 15071 C 1403.94 -1.83681 -0.963119 0
M  V30 15072 C 1404.37 -0.635909 -1.77025 0
M  V30 15073 O 1403.72 0.415327 -1.76479 0
M  V30 15074 C 1403.77 -3.09302 -1.85376 0
M  V30 15075 O 1402.88 -2.88228 -2.94955 0
M  V30 15076 H 1402.22 -0.605495 -0.272529 0
M  V30 15077 H 1404.75 -2.03297 -0.230567 0
M  V30 15078 H 1404.76 -3.39493 -2.26294 0
M  V30 15079 H 1403.43 -3.96337 -1.26054 0
M  V30 15080 H 1402.01 -2.69279 -2.57959 0
M  V30 15081 N 1404.2 0.485086 -1.49949 0
M  V30 15082 C 1405.44 1.24816 -1.61865 0
M  V30 15083 C 1405.8 1.8955 -0.305741 0
M  V30 15084 O 1407 2.67118 -0.300216 0
M  V30 15085 C 1405.27 2.27464 -2.75672 0
M  V30 15086 S 1406.83 3.12898 -3.07637 0
M  V30 15087 H 1403.65 0.423964 -0.570767 0
M  V30 15088 H 1406.25 0.547552 -1.87676 0
M  V30 15089 H 1404.95 1.78464 -3.69566 0
M  V30 15090 H 1404.49 3.02172 -2.51904 0
M  V30 15091 H 1406.5 4.28395 -2.50384 0
M  V30 15092 N 1405.67 1.39291 0.737279 0
M  V30 15093 C 1406.95 1.26901 1.48847 0
M  V30 15094 C 1407.33 -0.122417 2.10745 0
M  V30 15095 O 1406.68 -1.13343 1.98408 0
M  V30 15096 C 1406.89 2.3916 2.54172 0
M  V30 15097 C 1408.24 2.78368 3.20619 0
M  V30 15098 O 1409.26 2.38593 2.64484 0
M  V30 15099 O 1408.12 3.47014 4.22189 0
M  V30 15100 H 1405.21 0.497176 0.660867 0
M  V30 15101 H 1407.76 1.51159 0.771299 0
M  V30 15102 H 1406.53 3.3219 2.06797 0
M  V30 15103 H 1406.15 2.16555 3.33451 0
M  V30 15104 N 1407.15 -0.967221 1.24429 0
M  V30 15105 C 1408.4 -1.70688 1.08213 0
M  V30 15106 C 1408.72 -1.91268 -0.379693 0
M  V30 15107 O 1407.99 -1.49077 -1.27094 0
M  V30 15108 H 1406.57 -0.632489 0.39745 0
M  V30 15109 H 1409.23 -1.16356 1.56356 0
M  V30 15110 H 1408.33 -2.69119 1.58055 0
M  V30 15111 N 1408.63 -1.05812 -1.16797 0
M  V30 15112 C 1409.85 -0.792518 -1.91661 0
M  V30 15113 C 1410.28 0.646598 -1.76637 0
M  V30 15114 O 1409.64 1.44998 -1.08836 0
M  V30 15115 C 1409.69 -1.18585 -3.40544 0
M  V30 15116 O 1408.79 -0.321716 -4.11143 0
M  V30 15117 H 1408.13 -0.290066 -0.597292 0
M  V30 15118 H 1410.66 -1.41263 -1.48007 0
M  V30 15119 H 1410.67 -1.1553 -3.91301 0
M  V30 15120 H 1409.35 -2.23413 -3.50798 0
M  V30 15121 H 1407.92 -0.413403 -3.70601 0
M  V30 15122 N 1410.11 1.33347 -0.840014 0
M  V30 15123 C 1411.52 1.50615 -0.52795 0
M  V30 15124 C 1411.72 1.77993 0.944493 0
M  V30 15125 O 1410.78 1.84087 1.72824 0
M  V30 15126 C 1412.09 2.66001 -1.40228 0
M  V30 15127 C 1413.64 2.79886 -1.40117 0
M  V30 15128 C 1414.12 3.98335 -2.26038 0
M  V30 15129 N 1415.61 4.05572 -2.23753 0
M  V30 15130 C 1416.34 4.96422 -2.86972 0
M  V30 15131 N 1415.84 5.9238 -3.59247 0
M  V30 15132 N 1417.63 4.89428 -2.76436 0
M  V30 15133 H 1409.78 1.13839 -1.79317 0
M  V30 15134 H 1412.04 0.559772 -0.765088 0
M  V30 15135 H 1411.75 2.52453 -2.44868 0
M  V30 15136 H 1411.62 3.61434 -1.07914 0
M  V30 15137 H 1414.01 2.92865 -0.362487 0
M  V30 15138 H 1414.09 1.85211 -1.76439 0
M  V30 15139 H 1413.74 3.86115 -3.29966 0
M  V30 15140 H 1413.67 4.92257 -1.87057 0
M  V30 15141 H 1416.16 3.36899 -1.71195 0
M  V30 15142 H 1416.47 6.58367 -4.04688 0
M  V30 15143 H 1414.82 5.92451 -3.63354 0
M  V30 15144 H 1418.01 4.13428 -2.19534 0
M  V30 15145 H 1418.18 5.60032 -3.25989 0
M  V30 15146 N 1411.59 0.596556 1.45873 0
M  V30 15147 C 1412.83 0.0875879 2.02611 0
M  V30 15148 C 1413.16 -1.27438 1.46538 0
M  V30 15149 O 1412.44 -1.83815 0.635779 0
M  V30 15150 C 1412.72 0.0367394 3.60081 0
M  V30 15151 C 1412.58 1.42859 4.26511 0
M  V30 15152 C 1413.89 -0.656795 4.35171 0
M  V30 15153 H 1411.01 0.0333031 0.736247 0
M  V30 15154 H 1413.66 0.766413 1.73857 0
M  V30 15155 H 1411.81 -0.541345 3.8471 0
M  V30 15156 H 1413.48 2.0529 4.13102 0
M  V30 15157 H 1411.72 1.99243 3.85337 0
M  V30 15158 H 1412.39 1.34535 5.35354 0
M  V30 15159 H 1414.87 -0.165553 4.15771 0
M  V30 15160 H 1413.74 -0.661445 5.449 0
M  V30 15161 H 1414 -1.72079 4.07236 0
M  V30 15162 N 1413.06 -1.53996 0.335095 0
M  V30 15163 C 1414.01 -2.21479 -0.541388 0
M  V30 15164 C 1415 -1.19926 -1.07268 0
M  V30 15165 O 1416.19 -1.45508 -1.00779 0
M  V30 15166 C 1413.32 -2.98477 -1.69607 0
M  V30 15167 C 1412.4 -4.07379 -1.17912 0
M  V30 15168 N 1412.8 -5.0435 -0.382732 0
M  V30 15169 C 1411.09 -4.21537 -1.45679 0
M  V30 15170 C 1411.79 -5.81608 -0.103194 0
M  V30 15171 N 1410.77 -5.39171 -0.692513 0
M  V30 15172 H 1414.57 -2.93806 0.0742285 0
M  V30 15173 H 1412.09 -1.61782 0.141529 0
M  V30 15174 H 1414.08 -3.45316 -2.33587 0
M  V30 15175 H 1412.74 -2.27674 -2.31505 0
M  V30 15176 H 1413.75 -5.17894 -0.0245533 0
M  V30 15177 H 1410.43 -3.61953 -2.08078 0
M  V30 15178 H 1411.82 -6.69737 0.538682 0
M  V30 15179 N 1414.54 -0.0635198 -1.57472 0
M  V30 15180 C 1415.47 0.90431 -2.15278 0
M  V30 15181 C 1416.45 1.31609 -1.07764 0
M  V30 15182 O 1417.64 1.38861 -1.35762 0
M  V30 15183 C 1414.77 2.17483 -2.70774 0
M  V30 15184 C 1413.72 1.90272 -3.8338 0
M  V30 15185 C 1413.05 3.23885 -4.25444 0
M  V30 15186 C 1414.35 1.21454 -5.07983 0
M  V30 15187 H 1416.04 0.422786 -2.964 0
M  V30 15188 H 1413.59 0.201918 -1.42577 0
M  V30 15189 H 1415.54 2.856 -3.09856 0
M  V30 15190 H 1414.26 2.67863 -1.86861 0
M  V30 15191 H 1412.92 1.24564 -3.44789 0
M  V30 15192 H 1412.57 3.72089 -3.38465 0
M  V30 15193 H 1412.27 3.06472 -5.01347 0
M  V30 15194 H 1413.8 3.93212 -4.67137 0
M  V30 15195 H 1415.21 1.79625 -5.44433 0
M  V30 15196 H 1413.61 1.14327 -5.89109 0
M  V30 15197 H 1414.68 0.19238 -4.84518 0
M  V30 15198 N 1416.02 1.56195 0.209972 0
M  V30 15199 C 1416.95 1.96378 1.26324 0
M  V30 15200 C 1417.93 0.833606 1.48273 0
M  V30 15201 O 1419.12 1.0968 1.60262 0
M  V30 15202 C 1416.25 2.29048 2.61064 0
M  V30 15203 C 1415.2 3.44665 2.53752 0
M  V30 15204 C 1414.53 3.6297 3.92628 0
M  V30 15205 C 1415.83 4.79297 2.07536 0
M  V30 15206 H 1417.52 2.8461 0.929379 0
M  V30 15207 H 1415.07 1.36931 0.445627 0
M  V30 15208 H 1417.02 2.55752 3.34916 0
M  V30 15209 H 1415.74 1.37682 2.96161 0
M  V30 15210 H 1414.4 3.18028 1.82356 0
M  V30 15211 H 1414.05 2.68961 4.25052 0
M  V30 15212 H 1413.75 4.40741 3.88614 0
M  V30 15213 H 1415.27 3.92035 4.68125 0
M  V30 15214 H 1416.69 5.05131 2.71138 0
M  V30 15215 H 1415.08 5.60433 2.14557 0
M  V30 15216 H 1416.15 4.73877 1.02802 0
M  V30 15217 N 1417.5 -0.477127 1.50204 0
M  V30 15218 C 1418.73 -1.25126 1.64399 0
M  V30 15219 C 1419.14 -1.86401 0.32424 0
M  V30 15220 O 1418.48 -1.69711 -0.703119 0
M  V30 15221 C 1418.54 -2.40428 2.67273 0
M  V30 15222 C 1418.2 -1.99837 4.10992 0
M  V30 15223 C 1419.2 -1.52435 4.97051 0
M  V30 15224 C 1416.89 -2.08742 4.56872 0
M  V30 15225 C 1418.88 -1.14472 6.27037 0
M  V30 15226 C 1416.57 -1.70391 5.86865 0
M  V30 15227 C 1417.57 -1.23333 6.71772 0
M  V30 15228 O 1417.25 -0.855111 7.99339 0
M  V30 15229 H 1416.99 -0.384801 0.555791 0
M  V30 15230 H 1419.54 -0.576654 1.97139 0
M  V30 15231 H 1417.77 -3.1104 2.29763 0
M  V30 15232 H 1419.46 -3.02406 2.7075 0
M  V30 15233 H 1420.22 -1.44981 4.62823 0
M  V30 15234 H 1416.1 -2.44319 3.90934 0
M  V30 15235 H 1419.65 -0.776712 6.93263 0
M  V30 15236 H 1415.54 -1.77501 6.20615 0
M  V30 15237 H 1416.31 -0.984492 8.12558 0
M  V30 15238 N 1418.98 -1.3968 -0.729882 0
M  V30 15239 C 1419.92 -1.38808 -1.84393 0
M  V30 15240 C 1420.89 -0.247035 -1.64253 0
M  V30 15241 O 1422.08 -0.44293 -1.85588 0
M  V30 15242 C 1419.22 -1.2424 -3.2196 0
M  V30 15243 C 1418.33 -2.47932 -3.53771 0
M  V30 15244 C 1417.47 -2.25913 -4.80767 0
M  V30 15245 C 1416.51 -3.45254 -5.05436 0
M  V30 15246 N 1415.64 -3.2252 -6.23638 0
M  V30 15247 H 1420.48 -2.34038 -1.84473 0
M  V30 15248 H 1418.02 -1.16252 -0.901332 0
M  V30 15249 H 1419.98 -1.13804 -4.01378 0
M  V30 15250 H 1418.61 -0.326375 -3.21146 0
M  V30 15251 H 1417.66 -2.68952 -2.69015 0
M  V30 15252 H 1418.97 -3.36806 -3.67917 0
M  V30 15253 H 1418.13 -2.12748 -5.68175 0
M  V30 15254 H 1416.86 -1.34441 -4.68804 0
M  V30 15255 H 1415.87 -3.58912 -4.16488 0
M  V30 15256 H 1417.09 -4.37634 -5.19282 0
M  V30 15257 H 1415.04 -2.33718 -6.12953 0
M  V30 15258 H 1414.96 -4.04954 -6.38395 0
M  V30 15259 H 1416.23 -3.1306 -7.13872 0
M  V30 15260 O 1420.49 0.871124 -1.35991 0
M  V30 15261 H 1421.18 1.50971 -1.21356 0
M  V30 END ATOM
M  V30 BEGIN BOND
M  V30 END BOND
M  V30 END CTAB
M  END
$$$$
