drugbank_target|P49336 Cyclin-dependent kinase 8 (DB03496)
 OpenBabel12092120073D

  0  0  0     0  0            999 V3000
M  V30 BEGIN CTAB
M  V30 COUNTS 7454 7557 0 0 0
M  V30 BEGIN ATOM
M  V30 1 H -0.908 1.98254 -0.117106 0
M  V30 2 N 0 1.576 0 0
M  V30 3 C 0.933 2.03868 1.02534 0
M  V30 4 C 1.911 0.928543 1.3348 0
M  V30 5 O 3.095 1.19667 1.45644 0
M  V30 6 C 0.222 2.43627 2.35294 0
M  V30 7 C -0.732 3.65373 2.2001 0
M  V30 8 S 0.101 5.13292 1.52614 0
M  V30 9 C 1.257 5.56322 2.86805 0
M  V30 10 H 1.49 2.90518 0.631377 0
M  V30 11 H -0.977 1.52953 0.210867 0
M  V30 12 H 0.981 2.67203 3.11629 0
M  V30 13 H -0.358 1.57376 2.7183 0
M  V30 14 H -1.165 3.90944 3.18086 0
M  V30 15 H -1.563 3.418 1.51819 0
M  V30 16 H 0.729 5.58782 3.83104 0
M  V30 17 H 1.672 6.56266 2.65933 0
M  V30 18 H 2.08 4.83886 2.90714 0
M  V30 19 N 1.4781 -0.272755 1.55222 0
M  V30 20 C 2.7551 -1.02562 1.66555 0
M  V30 21 C 3.1351 -2.04282 0.532189 0
M  V30 22 O 2.4831 -2.23662 -0.467717 0
M  V30 23 C 2.6931 -1.6822 3.05782 0
M  V30 24 C 4.0411 -2.19373 3.63539 0
M  V30 25 O 5.0651 -1.78206 3.08417 0
M  V30 26 O 3.9241 -2.94883 4.60115 0
M  V30 27 H 1.0181 -0.475755 0.676451 0
M  V30 28 H 3.5641 -0.268593 1.67561 0
M  V30 29 H 2.3361 -0.945112 3.79715 0
M  V30 30 H 1.9591 -2.50609 3.08676 0
M  V30 31 N 2.9562 -1.48159 -0.537278 0
M  V30 32 C 4.1862 -1.59223 -1.3165 0
M  V30 33 C 4.5942 -0.248849 -1.87556 0
M  V30 34 O 3.9372 0.770949 -1.6674 0
M  V30 35 C 3.9992 -2.57365 -2.51005 0
M  V30 36 C 3.6632 -4.02603 -2.16239 0
M  V30 37 C 4.6602 -4.90503 -1.72344 0
M  V30 38 C 2.3452 -4.48088 -2.26986 0
M  V30 39 C 4.3392 -6.21913 -1.39651 0
M  V30 40 C 2.0262 -5.7952 -1.93906 0
M  V30 41 C 3.0242 -6.66255 -1.50309 0
M  V30 42 O 2.7122 -7.95243 -1.17659 0
M  V30 43 H 2.4442 -0.539831 -0.406889 0
M  V30 44 H 4.9982 -1.94655 -0.655641 0
M  V30 45 H 3.2282 -2.1704 -3.20048 0
M  V30 46 H 4.9172 -2.58342 -3.13072 0
M  V30 47 H 5.6832 -4.56604 -1.63517 0
M  V30 48 H 1.5622 -3.80769 -2.59877 0
M  V30 49 H 5.1062 -6.89569 -1.0555 0
M  V30 50 H 1.0032 -6.12957 -2.02371 0
M  V30 51 H 1.7712 -8.0793 -1.31119 0
M  V30 52 N 4.4343 0.785586 -1.36625 0
M  V30 53 C 5.7113 1.53198 -1.21613 0
M  V30 54 C 6.0913 2.10187 0.196113 0
M  V30 55 O 5.4393 1.94318 1.20219 0
M  V30 56 C 5.6493 2.62388 -2.30116 0
M  V30 57 C 6.9973 3.30167 -2.66974 0
M  V30 58 O 8.0213 2.72674 -2.29188 0
M  V30 59 O 6.8803 4.34077 -3.32023 0
M  V30 60 H 3.9743 0.677865 -0.473738 0
M  V30 61 H 6.5203 0.823739 -1.48367 0
M  V30 62 H 5.2923 2.18299 -3.24748 0
M  V30 63 H 4.9153 3.40827 -2.0475 0
M  V30 64 N 5.9124 1.20967 1.01018 0
M  V30 65 C 7.1594 1.02374 1.74716 0
M  V30 66 C 7.4874 -0.443375 1.89379 0
M  V30 67 O 6.7424 -1.34535 1.42123 0
M  V30 68 C 7.0414 1.65997 3.16512 0
M  V30 69 C 6.7074 3.15831 3.2181 0
M  V30 70 C 5.3694 3.56719 3.22963 0
M  V30 71 C 7.7214 4.11816 3.19464 0
M  V30 72 C 5.0494 4.92107 3.19449 0
M  V30 73 C 7.4014 5.47158 3.17491 0
M  V30 74 C 6.0654 5.87451 3.16951 0
M  V30 75 H 5.3354 0.374614 0.639332 0
M  V30 76 H 7.9824 1.50485 1.18434 0
M  V30 77 H 6.2874 1.10166 3.75993 0
M  V30 78 H 7.9844 1.49119 3.72242 0
M  V30 79 H 4.5744 2.83263 3.21652 0
M  V30 80 H 8.7584 3.81257 3.17737 0
M  V30 81 H 4.0144 5.22579 3.17366 0
M  V30 82 H 8.1884 6.21274 3.14629 0
M  V30 83 H 5.8154 6.92329 3.13983 0
M  V30 84 N 7.3905 -1.2043 1.01659 0
M  V30 85 C 8.3375 -2.23215 0.586822 0
M  V30 86 C 9.3075 -1.61382 -0.393085 0
M  V30 87 O 10.4925 -1.88544 -0.292525 0
M  V30 88 C 7.6325 -3.45032 -0.0687464 0
M  V30 89 C 6.7455 -4.21296 0.955724 0
M  V30 90 C 5.8805 -5.30507 0.271208 0
M  V30 91 C 4.9195 -5.98515 1.28244 0
M  V30 92 N 4.0565 -6.99316 0.62459 0
M  V30 93 H 8.8965 -2.59336 1.46796 0
M  V30 94 H 6.4335 -1.27431 0.734836 0
M  V30 95 H 8.3915 -4.1459 -0.465965 0
M  V30 96 H 7.0215 -3.09604 -0.913529 0
M  V30 97 H 6.0735 -3.50803 1.4711 0
M  V30 98 H 7.3855 -4.6803 1.72479 0
M  V30 99 H 6.5395 -6.06428 -0.18151 0
M  V30 100 H 5.2785 -4.8481 -0.530163 0
M  V30 101 H 4.2835 -5.21355 1.74554 0
M  V30 102 H 5.5085 -6.46298 2.08509 0
M  V30 103 H 3.4545 -6.55812 -0.156914 0
M  V30 104 H 3.3715 -7.44178 1.33172 0
M  V30 105 H 4.6395 -7.79255 0.195462 0
M  V30 106 N 8.8686 -0.792821 -1.36206 0
M  V30 107 C 10.1146 -0.36733 -1.99446 0
M  V30 108 C 10.4476 1.05917 -1.62774 0
M  V30 109 O 9.7226 1.7324 -0.88421 0
M  V30 110 C 10.0056 -0.535044 -3.56103 0
M  V30 111 C 9.8586 -2.00548 -4.02617 0
M  V30 112 C 11.1776 0.0478191 -4.40074 0
M  V30 113 H 8.2966 -0.134941 -0.724541 0
M  V30 114 H 10.9386 -0.999794 -1.61568 0
M  V30 115 H 9.0886 0.00336329 -3.885 0
M  V30 116 H 10.7606 -2.60521 -3.80692 0
M  V30 117 H 9.0036 -2.50686 -3.54032 0
M  V30 118 H 9.6746 -2.07377 -5.11565 0
M  V30 119 H 12.1506 -0.411822 -4.14057 0
M  V30 120 H 11.0266 -0.0995336 -5.4881 0
M  V30 121 H 11.2876 1.14025 -4.27142 0
M  V30 122 N 10.3467 1.47872 -0.545128 0
M  V30 123 C 11.2937 2.29849 0.2093 0
M  V30 124 C 12.2637 1.38313 0.919707 0
M  V30 125 O 13.4487 1.67277 0.917772 0
M  V30 126 C 10.5887 3.22019 1.24088 0
M  V30 127 C 9.7017 4.2864 0.537778 0
M  V30 128 C 8.8367 5.07973 1.5536 0
M  V30 129 C 7.8757 6.06381 0.8348 0
M  V30 130 N 7.0127 6.78717 1.79688 0
M  V30 131 H 11.8527 2.93845 -0.49591 0
M  V30 132 H 9.3897 1.44848 -0.256389 0
M  V30 133 H 11.3477 3.73868 1.85144 0
M  V30 134 H 9.9777 2.59914 1.91428 0
M  V30 135 H 9.0297 3.7994 -0.187046 0
M  V30 136 H 10.3417 4.98793 -0.0258907 0
M  V30 137 H 9.4957 5.63912 2.23803 0
M  V30 138 H 8.2347 4.37693 2.15118 0
M  V30 139 H 7.2397 5.49631 0.136388 0
M  V30 140 H 8.4647 6.78665 0.24313 0
M  V30 141 H 6.4107 6.11177 2.38326 0
M  V30 142 H 6.3277 7.44998 1.28505 0
M  V30 143 H 7.5957 7.39237 2.47282 0
M  V30 144 N 11.8248 0.280983 1.55075 0
M  V30 145 C 12.7548 -0.597469 2.25727 0
M  V30 146 C 13.7358 -1.15417 1.24952 0
M  V30 147 O 14.9208 -1.18722 1.53684 0
M  V30 148 C 12.0508 -1.7789 2.98283 0
M  V30 149 C 11.0048 -1.35347 4.06036 0
M  V30 150 C 10.3308 -2.61846 4.66198 0
M  V30 151 C 11.6308 -0.499354 5.19907 0
M  V30 152 H 13.3248 -0.00824265 2.99399 0
M  V30 153 H 10.8708 -0.0025244 1.44 0
M  V30 154 H 12.8238 -2.39937 3.46422 0
M  V30 155 H 11.5478 -2.39405 2.22155 0
M  V30 156 H 10.2068 -0.756156 3.58717 0
M  V30 157 H 9.8548 -3.21632 3.86732 0
M  V30 158 H 9.5548 -2.3409 5.38958 0
M  V30 159 H 11.0788 -3.24732 5.1709 0
M  V30 160 H 12.4928 -1.02498 5.64063 0
M  V30 161 H 10.8898 -0.316424 5.99265 0
M  V30 162 H 11.9598 0.480459 4.82514 0
M  V30 163 N 13.3029 -1.57598 0.00835791 0
M  V30 164 C 14.5279 -1.95617 -0.689103 0
M  V30 165 C 14.9529 -0.883753 -1.66046 0
M  V30 166 O 14.3109 0.157352 -1.80616 0
M  V30 167 C 14.3589 -3.32736 -1.38994 0
M  V30 168 O 13.4629 -3.27631 -2.50463 0
M  V30 169 H 12.8039 -0.638379 -0.182668 0
M  V30 170 H 15.3339 -2.045 0.064036 0
M  V30 171 H 15.3439 -3.68494 -1.75147 0
M  V30 172 H 14.0189 -4.1034 -0.677778 0
M  V30 173 H 12.5959 -3.03561 -2.16576 0
M  V30 174 N 14.781 0.264519 -1.55364 0
M  V30 175 C 16.006 1.01726 -1.80739 0
M  V30 176 C 16.431 1.78836 -0.583044 0
M  V30 177 O 15.789 1.75167 0.467566 0
M  V30 178 C 15.837 1.94482 -3.03659 0
M  V30 179 O 14.941 3.03386 -2.7934 0
M  V30 180 H 14.282 0.290395 -0.597132 0
M  V30 181 H 16.812 0.290854 -2.02522 0
M  V30 182 H 16.822 2.36278 -3.32621 0
M  V30 183 H 15.497 1.37772 -3.92418 0
M  V30 184 H 14.074 2.65844 -2.61498 0
M  V30 185 N 16.2591 1.48442 0.529413 0
M  V30 186 C 17.1691 1.6569 1.66084 0
M  V30 187 C 18.1851 0.539432 1.65427 0
M  V30 188 O 19.3611 0.810572 1.84368 0
M  V30 189 C 16.4261 1.69315 3.02545 0
M  V30 190 C 15.4871 2.92694 3.14052 0
M  V30 191 C 14.7201 2.96137 4.44003 0
M  V30 192 O 14.9431 2.07973 5.31134 0
M  V30 193 O 13.8771 3.88312 4.59888 0
M  V30 194 H 17.7031 2.61483 1.54469 0
M  V30 195 H 15.2881 1.3185 0.702567 0
M  V30 196 H 17.1701 1.74217 3.83701 0
M  V30 197 H 15.8451 0.766966 3.14483 0
M  V30 198 H 14.7521 2.93324 2.32189 0
M  V30 199 H 16.0851 3.84699 3.0703 0
M  V30 200 N 17.7372 -0.778329 1.37039 0
M  V30 201 C 19.1532 -1.07796 1.17695 0
M  V30 202 C 19.3532 -2.01498 0.00860115 0
M  V30 203 O 18.4092 -2.43901 -0.653352 0
M  V30 204 C 19.7222 -1.68178 2.49272 0
M  V30 205 C 21.2702 -1.80467 2.55735 0
M  V30 206 C 21.7452 -2.44263 3.87427 0
M  V30 207 N 23.2362 -2.51721 3.88833 0
M  V30 208 C 23.9712 -3.01919 4.87476 0
M  V30 209 N 23.4672 -3.5234 5.96513 0
M  V30 210 N 25.2602 -3.00733 4.74885 0
M  V30 211 H 17.4112 -0.156032 2.11826 0
M  V30 212 H 19.6742 -0.131844 0.938787 0
M  V30 213 H 19.3802 -1.06796 3.35093 0
M  V30 214 H 19.2542 -2.67554 2.65885 0
M  V30 215 H 21.6412 -2.40984 1.70325 0
M  V30 216 H 21.7222 -0.798656 2.43013 0
M  V30 217 H 21.3662 -1.84388 4.73248 0
M  V30 218 H 21.2962 -3.45458 3.9745 0
M  V30 219 H 23.7872 -2.1603 3.10063 0
M  V30 220 H 24.1002 -3.89027 6.67741 0
M  V30 221 H 22.4452 -3.50462 6.00168 0
M  V30 222 H 25.6362 -2.60638 3.88826 0
M  V30 223 H 25.8092 -3.39545 5.51918 0
M  V30 224 N 19.2153 -1.21501 -1.00376 0
M  V30 225 C 20.1253 -0.991447 -2.12621 0
M  V30 226 C 21.1413 0.0568446 -1.73907 0
M  V30 227 O 22.3173 -0.13348 -2.00957 0
M  V30 228 C 19.3823 -0.560312 -3.42142 0
M  V30 229 C 18.4433 -1.68096 -3.95022 0
M  V30 230 C 17.6763 -1.2703 -5.18362 0
M  V30 231 O 17.8993 -0.144438 -5.70217 0
M  V30 232 O 16.8333 -2.08269 -5.64719 0
M  V30 233 H 20.6593 -1.93158 -2.34358 0
M  V30 234 H 18.2443 -0.999999 -1.10997 0
M  V30 235 H 20.1263 -0.329724 -4.20108 0
M  V30 236 H 18.8013 0.351089 -3.2179 0
M  V30 237 H 17.7083 -1.96597 -3.18278 0
M  V30 238 H 19.0413 -2.56983 -4.19786 0
M  V30 239 N 20.6934 1.19889 -1.02296 0
M  V30 240 C 22.1094 1.41462 -0.738954 0
M  V30 241 C 22.3094 1.89721 0.678846 0
M  V30 242 O 21.3654 2.07016 1.4457 0
M  V30 243 C 22.6784 2.43083 -1.77005 0
M  V30 244 C 24.2264 2.5684 -1.78892 0
M  V30 245 C 24.7014 3.61709 -2.80945 0
M  V30 246 N 26.1924 3.69199 -2.79725 0
M  V30 247 C 26.9274 4.50019 -3.55345 0
M  V30 248 N 26.4234 5.34592 -4.40662 0
M  V30 249 N 28.2164 4.44612 -3.43914 0
M  V30 250 H 20.3674 0.868827 -1.93817 0
M  V30 251 H 22.6304 0.44399 -0.837602 0
M  V30 252 H 22.3364 2.14636 -2.78612 0
M  V30 253 H 22.2104 3.4217 -1.58744 0
M  V30 254 H 24.5974 2.84614 -0.779674 0
M  V30 255 H 24.6784 1.57927 -2.01228 0
M  V30 256 H 24.3224 3.34678 -3.82038 0
M  V30 257 H 24.2524 4.60259 -2.5587 0
M  V30 258 H 26.7434 3.08794 -2.17842 0
M  V30 259 H 27.0564 5.93363 -4.95116 0
M  V30 260 H 25.4014 5.34073 -4.44737 0
M  V30 261 H 28.5924 3.7758 -2.76679 0
M  V30 262 H 28.7654 5.0736 -4.031 0
M  V30 263 N 22.1715 0.800033 1.35784 0
M  V30 264 C 23.4175 0.377901 1.99248 0
M  V30 265 C 23.7505 -1.05052 1.63333 0
M  V30 266 O 23.0255 -1.72768 0.893385 0
M  V30 267 C 23.3085 0.553922 3.55814 0
M  V30 268 C 23.1615 2.0268 4.01548 0
M  V30 269 C 24.4805 -0.0244802 4.40093 0
M  V30 270 H 21.5995 0.138782 0.723815 0
M  V30 271 H 24.2415 1.00835 1.61035 0
M  V30 272 H 22.3915 0.0172398 3.88496 0
M  V30 273 H 24.0635 2.62536 3.79305 0
M  V30 274 H 22.3065 2.5256 3.52698 0
M  V30 275 H 22.9775 2.10087 5.10458 0
M  V30 276 H 25.4535 0.433775 4.13833 0
M  V30 277 H 24.3295 0.128637 5.48749 0
M  V30 278 H 24.5905 -1.11758 4.27741 0
M  V30 279 N 23.6496 -1.47581 0.552962 0
M  V30 280 C 24.5596 -2.33743 -0.200353 0
M  V30 281 C 25.5756 -1.47928 -0.916151 0
M  V30 282 O 26.7516 -1.80865 -0.885993 0
M  V30 283 C 23.8166 -3.24536 -1.21973 0
M  V30 284 C 22.8776 -4.26238 -0.511819 0
M  V30 285 C 22.1106 -5.12693 -1.48263 0
M  V30 286 O 22.3336 -5.01525 -2.71714 0
M  V30 287 O 21.2676 -5.93375 -1.00945 0
M  V30 288 H 25.0936 -2.9945 0.506304 0
M  V30 289 H 22.6786 -1.46071 0.313622 0
M  V30 290 H 24.5606 -3.80631 -1.80827 0
M  V30 291 H 23.2356 -2.61462 -1.90839 0
M  V30 292 H 22.1426 -3.73914 0.117799 0
M  V30 293 H 23.4756 -4.92014 0.135308 0
M  V30 294 N 25.1277 -0.289203 -1.54924 0
M  V30 295 C 26.4047 0.376032 -1.91951 0
M  V30 296 C 26.7847 1.72622 -1.21511 0
M  V30 297 O 26.1327 2.25853 -0.346767 0
M  V30 298 C 26.3427 0.502378 -3.45365 0
M  V30 299 C 27.6907 0.778741 -4.17398 0
M  V30 300 O 28.7147 0.586647 -3.51336 0
M  V30 301 O 27.5737 1.14698 -5.34328 0
M  V30 302 H 24.6677 0.208167 -0.800372 0
M  V30 303 H 27.2137 -0.336394 -1.66332 0
M  V30 304 H 25.9857 -0.447255 -3.88736 0
M  V30 305 H 25.6087 1.26373 -3.76982 0
M  V30 306 N 26.6058 1.57591 -0.0167156 0
M  V30 307 C 27.5358 2.12496 0.967858 0
M  V30 308 C 28.5168 1.03807 1.34752 0
M  V30 309 O 29.7018 1.31577 1.42833 0
M  V30 310 C 26.8318 2.64194 2.25431 0
M  V30 311 C 25.7858 3.77559 2.01576 0
M  V30 312 C 25.1118 4.15636 3.36379 0
M  V30 313 C 26.4118 5.04151 1.36489 0
M  V30 314 H 28.1058 2.95013 0.510643 0
M  V30 315 H 25.6518 1.41915 0.244181 0
M  V30 316 H 27.6048 3.01236 2.94678 0
M  V30 317 H 26.3288 1.78821 2.73296 0
M  V30 318 H 24.9878 3.40937 1.34751 0
M  V30 319 H 24.6358 3.27263 3.81979 0
M  V30 320 H 24.3358 4.92022 3.21229 0
M  V30 321 H 25.8598 4.5525 4.06915 0
M  V30 322 H 27.2738 5.38857 1.95718 0
M  V30 323 H 25.6708 5.85453 1.31776 0
M  V30 324 H 26.7408 4.83733 0.336219 0
M  V30 325 N 28.0839 -0.256276 1.55502 0
M  V30 326 C 29.3309 -0.985619 1.76895 0
M  V30 327 C 29.6589 -1.85671 0.579355 0
M  V30 328 O 28.9139 -1.90744 -0.437651 0
M  V30 329 C 29.2129 -1.88432 3.03691 0
M  V30 330 C 28.8789 -1.16936 4.35473 0
M  V30 331 C 27.5409 -0.97173 4.71286 0
M  V30 332 C 29.8929 -0.661889 5.1698 0
M  V30 333 C 27.2209 -0.254179 5.86149 0
M  V30 334 C 29.5729 0.042149 6.32586 0
M  V30 335 C 28.2369 0.25134 6.67027 0
M  V30 336 H 27.5069 -0.360663 0.647304 0
M  V30 337 H 30.1539 -0.256483 1.89775 0
M  V30 338 H 28.4589 -2.68021 2.85783 0
M  V30 339 H 30.1559 -2.45015 3.1744 0
M  V30 340 H 26.7459 -1.33332 4.07333 0
M  V30 341 H 30.9299 -0.802145 4.89775 0
M  V30 342 H 26.1859 -0.0815408 6.11346 0
M  V30 343 H 30.3599 0.443049 6.94989 0
M  V30 344 H 27.9869 0.809314 7.5588 0
M  V30 345 N 29.562 -1.4872 -0.521534 0
M  V30 346 C 30.472 -1.66569 -1.65203 0
M  V30 347 C 31.488 -0.548197 -1.65139 0
M  V30 348 O 32.664 -0.820339 -1.83936 0
M  V30 349 C 29.729 -1.70917 -3.01642 0
M  V30 350 C 28.79 -2.94356 -3.12495 0
M  V30 351 C 28.023 -2.98487 -4.42426 0
M  V30 352 O 28.246 -2.10786 -5.30024 0
M  V30 353 O 27.18 -3.90746 -4.57822 0
M  V30 354 H 31.006 -2.62298 -1.5308 0
M  V30 355 H 28.591 -1.3222 -0.695565 0
M  V30 356 H 30.473 -1.7625 -3.82771 0
M  V30 357 H 29.148 -0.783633 -3.14071 0
M  V30 358 H 28.055 -2.94552 -2.3063 0
M  V30 359 H 29.388 -3.86322 -3.04986 0
M  V30 360 N 31.0401 0.771051 -1.3745 0
M  V30 361 C 32.2701 1.55789 -1.35696 0
M  V30 362 C 32.6781 1.89107 0.0594523 0
M  V30 363 O 32.0211 1.51984 1.03183 0
M  V30 364 C 32.0831 2.89515 -2.13123 0
M  V30 365 C 31.7471 2.78829 -3.62082 0
M  V30 366 C 32.7441 2.49812 -4.5595 0
M  V30 367 C 30.4291 2.9683 -4.05213 0
M  V30 368 C 32.4231 2.38923 -5.90927 0
M  V30 369 C 30.1101 2.85562 -5.40276 0
M  V30 370 C 31.1081 2.56649 -6.32946 0
M  V30 371 O 30.7961 2.45408 -7.65526 0
M  V30 372 H 30.5281 0.489257 -0.466481 0
M  V30 373 H 33.0821 0.963446 -1.81403 0
M  V30 374 H 31.3121 3.51081 -1.62107 0
M  V30 375 H 33.0011 3.50915 -2.03994 0
M  V30 376 H 33.7671 2.3559 -4.23937 0
M  V30 377 H 29.6461 3.18335 -3.33442 0
M  V30 378 H 33.1901 2.16277 -6.63227 0
M  V30 379 H 29.0871 2.99351 -5.71891 0
M  V30 380 H 29.8551 2.60753 -7.75855 0
M  V30 381 N 32.5182 1.22032 0.997298 0
M  V30 382 C 33.4282 1.00271 2.12092 0
M  V30 383 C 34.4442 -0.047621 1.73935 0
M  V30 384 O 35.6202 0.144136 2.00884 0
M  V30 385 C 32.6852 0.578449 3.4184 0
M  V30 386 C 31.7462 1.70189 3.94125 0
M  V30 387 C 30.9792 1.29778 5.17681 0
M  V30 388 O 31.2022 0.174676 5.70132 0
M  V30 389 O 30.1362 2.11261 5.63607 0
M  V30 390 H 33.9622 1.94398 2.3333 0
M  V30 391 H 31.5472 1.00587 1.10465 0
M  V30 392 H 33.4292 0.351998 4.19927 0
M  V30 393 H 32.1042 -0.334019 3.21972 0
M  V30 394 H 31.0112 1.98282 3.1723 0
M  V30 395 H 32.3442 2.59206 4.18417 0
M  V30 396 N 33.9963 -1.19345 1.0293 0
M  V30 397 C 35.2443 -1.88665 0.724574 0
M  V30 398 C 35.5653 -1.80036 -0.749144 0
M  V30 399 O 34.8353 -1.2111 -1.53978 0
M  V30 400 H 33.4153 -0.698406 0.265025 0
M  V30 401 H 36.0773 -1.44885 1.30362 0
M  V30 402 H 35.1733 -2.94987 1.01926 0
M  V30 403 N 35.4744 -0.807222 -1.35358 0
M  V30 404 C 36.7144 -0.393534 -2.00576 0
M  V30 405 C 37.0784 1.0203 -1.62647 0
M  V30 406 O 38.2794 1.53603 -2.20589 0
M  V30 407 C 36.5504 -0.572017 -3.52793 0
M  V30 408 S 38.1094 -0.248845 -4.38094 0
M  V30 409 H 34.9274 -0.149425 -0.695121 0
M  V30 410 H 37.5294 -1.04961 -1.64935 0
M  V30 411 H 36.2334 -1.60097 -3.77885 0
M  V30 412 H 35.7644 0.099359 -3.93275 0
M  V30 413 H 37.7794 0.943253 -4.87152 0
M  V30 414 N 36.9525 1.47285 -0.560781 0
M  V30 415 C 37.8995 2.30058 0.18491 0
M  V30 416 C 38.8695 1.39281 0.904986 0
M  V30 417 O 40.0545 1.68241 0.899979 0
M  V30 418 C 37.1945 3.23317 1.20666 0
M  V30 419 C 36.3075 4.29186 0.492285 0
M  V30 420 C 35.4425 5.09592 1.49964 0
M  V30 421 C 34.4815 6.07232 0.770439 0
M  V30 422 N 33.6185 6.80584 1.72479 0
M  V30 423 H 38.4585 2.93302 -0.527048 0
M  V30 424 H 35.9955 1.44568 -0.271738 0
M  V30 425 H 37.9535 3.75811 1.81168 0
M  V30 426 H 36.5835 2.61929 1.88661 0
M  V30 427 H 35.6355 3.7972 -0.227333 0
M  V30 428 H 36.9475 4.98738 -0.0787929 0
M  V30 429 H 36.1015 5.66254 2.17809 0
M  V30 430 H 34.8405 4.3995 2.10464 0
M  V30 431 H 33.8455 5.49745 0.0780846 0
M  V30 432 H 35.0705 6.78884 0.171134 0
M  V30 433 H 33.0165 6.1367 2.3183 0
M  V30 434 H 32.9335 7.46319 1.20596 0
M  V30 435 H 34.2015 7.41818 2.39428 0
M  V30 436 N 38.4306 0.297415 1.54768 0
M  V30 437 C 39.6766 -0.313376 2.00364 0
M  V30 438 C 40.0096 -1.53815 1.18553 0
M  V30 439 O 39.2846 -1.92739 0.261103 0
M  V30 440 C 39.5676 -0.673525 3.53745 0
M  V30 441 C 39.4206 0.560133 4.46299 0
M  V30 442 C 40.7396 -1.50143 4.13697 0
M  V30 443 H 37.8586 -0.112428 0.728374 0
M  V30 444 H 40.5006 0.4088 1.8555 0
M  V30 445 H 38.6506 -1.28881 3.665 0
M  V30 446 H 40.3226 1.19863 4.45455 0
M  V30 447 H 38.5656 1.19405 4.17043 0
M  V30 448 H 39.2366 0.26405 5.51368 0
M  V30 449 H 41.7126 -0.981588 4.04356 0
M  V30 450 H 40.5886 -1.72221 5.21182 0
M  V30 451 H 40.8496 -2.48952 3.65343 0
M  V30 452 N 39.9087 -1.5758 0.0250728 0
M  V30 453 C 41.1567 -1.91255 -0.653151 0
M  V30 454 C 41.4777 -0.901691 -1.729 0
M  V30 455 O 40.7477 0.0573785 -1.95816 0
M  V30 456 H 39.3277 -0.705942 -0.244243 0
M  V30 457 H 41.9897 -1.94767 0.0719209 0
M  V30 458 H 41.0857 -2.91752 -1.10847 0
M  V30 459 N 41.3868 0.248026 -1.55636 0
M  V30 460 C 42.8028 0.596483 -1.48035 0
M  V30 461 C 43.0028 1.88386 -0.715039 0
M  V30 462 O 42.0588 2.51319 -0.243944 0
M  V30 463 C 43.3718 0.700258 -2.92433 0
M  V30 464 C 44.9198 0.792659 -3.02797 0
M  V30 465 C 45.3948 0.928005 -4.485 0
M  V30 466 N 46.8858 0.992903 -4.52433 0
M  V30 467 C 47.6208 1.11687 -5.62418 0
M  V30 468 N 47.1168 1.20645 -6.82214 0
M  V30 469 N 48.9098 1.14994 -5.50212 0
M  V30 470 H 41.0608 -0.597109 -2.03834 0
M  V30 471 H 43.3238 -0.205925 -0.925364 0
M  V30 472 H 43.0298 -0.175658 -3.51261 0
M  V30 473 H 42.9038 1.57255 -3.42857 0
M  V30 474 H 45.2908 1.65903 -2.4405 0
M  V30 475 H 45.3718 -0.104762 -2.55585 0
M  V30 476 H 45.0158 0.0661971 -5.07857 0
M  V30 477 H 44.9458 1.84045 -4.93391 0
M  V30 478 H 47.4368 0.935064 -3.66149 0
M  V30 479 H 47.7498 1.30008 -7.61786 0
M  V30 480 H 46.0948 1.17605 -6.84977 0
M  V30 481 H 49.2858 1.07643 -4.55555 0
M  V30 482 H 49.4588 1.24311 -6.35965 0
M  V30 483 N 42.8649 1.48995 0.513639 0
M  V30 484 C 44.1129 1.57531 1.26604 0
M  V30 485 C 44.4339 0.258236 1.93283 0
M  V30 486 O 43.7039 -0.721502 1.8213 0
M  V30 487 H 42.2839 0.580387 0.470276 0
M  V30 488 H 44.9459 1.85552 0.596373 0
M  V30 489 H 44.0419 2.36486 2.03669 0
M  V30 490 N 44.343 -0.763751 1.37857 0
M  V30 491 C 45.571 -1.55293 1.36718 0
M  V30 492 C 45.986 -1.88745 -0.0455434 0
M  V30 493 O 45.343 -1.52039 -1.00947 0
M  V30 494 C 45.394 -2.85831 2.2132 0
M  V30 495 O 45.115 -2.5381 3.57089 0
M  V30 496 C 46.616 -3.80023 2.28249 0
M  V30 497 H 43.836 -0.480841 0.468009 0
M  V30 498 H 46.38 -0.946009 1.81303 0
M  V30 499 H 44.535 -3.42926 1.80223 0
M  V30 500 H 44.949 -3.37459 4.01524 0
M  V30 501 H 46.423 -4.68599 2.91752 0
M  V30 502 H 46.9 -4.1973 1.2932 0
M  V30 503 H 47.506 -3.28855 2.69693 0
M  V30 504 N 45.8211 -1.22559 -0.990812 0
M  V30 505 C 47.0511 -1.07623 -1.76355 0
M  V30 506 C 47.4591 0.37601 -1.85426 0
M  V30 507 O 46.8021 1.27228 -1.32509 0
M  V30 508 C 46.8641 -1.61507 -3.21179 0
M  V30 509 C 46.5281 -3.10146 -3.35646 0
M  V30 510 C 47.5251 -4.07553 -3.22796 0
M  V30 511 C 45.2101 -3.49644 -3.60631 0
M  V30 512 C 47.2041 -5.42442 -3.34716 0
M  V30 513 C 44.8911 -4.84682 -3.72192 0
M  V30 514 C 45.8891 -5.8089 -3.59243 0
M  V30 515 O 45.5771 -7.13476 -3.70415 0
M  V30 516 H 45.3091 -0.377745 -0.560611 0
M  V30 517 H 47.8631 -1.62658 -1.25425 0
M  V30 518 H 46.0931 -1.00881 -3.73309 0
M  V30 519 H 47.7821 -1.42202 -3.80175 0
M  V30 520 H 48.5481 -3.78381 -3.03403 0
M  V30 521 H 44.4271 -2.75282 -3.69785 0
M  V30 522 H 47.9711 -6.17518 -3.24526 0
M  V30 523 H 43.8681 -5.13534 -3.91092 0
M  V30 524 H 44.6361 -7.21083 -3.87275 0
M  V30 525 N 47.2992 1.18797 -1.03562 0
M  V30 526 C 48.5472 1.88278 -0.734569 0
M  V30 527 C 48.8682 1.8043 0.739586 0
M  V30 528 O 48.1382 1.21925 1.53333 0
M  V30 529 H 46.7182 0.696991 -0.268725 0
M  V30 530 H 49.3802 1.44192 -1.31129 0
M  V30 531 H 48.4762 2.94443 -1.03489 0
M  V30 532 N 48.7773 0.814389 1.34928 0
M  V30 533 C 49.7273 0.202752 2.27097 0
M  V30 534 C 50.7113 -0.62799 1.48139 0
M  V30 535 O 51.9033 -0.483969 1.70255 0
M  V30 536 C 49.0323 -0.64146 3.37254 0
M  V30 537 C 48.1183 0.19944 4.23631 0
M  V30 538 N 48.5093 1.26628 4.89693 0
M  V30 539 C 46.8073 -0.0176433 4.45997 0
M  V30 540 C 47.5083 1.78031 5.53787 0
M  V30 541 N 46.4843 1.08553 5.32651 0
M  V30 542 H 50.2863 1.01893 2.75672 0
M  V30 543 H 47.8003 0.656332 1.48546 0
M  V30 544 H 49.7973 -1.09575 4.02243 0
M  V30 545 H 48.4573 -1.4559 2.9023 0
M  V30 546 H 49.4683 1.64901 4.90946 0
M  V30 547 H 46.1453 -0.800601 4.09752 0
M  V30 548 H 47.5353 2.67236 6.16469 0
M  V30 549 N 50.2554 -1.46986 0.568584 0
M  V30 550 C 51.5014 -2.02741 0.0488709 0
M  V30 551 C 51.8344 -1.44077 -1.30214 0
M  V30 552 O 51.1094 -0.600552 -1.84996 0
M  V30 553 C 51.3924 -3.60086 -0.032047 0
M  V30 554 C 51.2454 -4.29162 1.34686 0
M  V30 555 C 52.5644 -4.33838 -0.739798 0
M  V30 556 H 49.6834 -0.736749 0.0192338 0
M  V30 557 H 52.3254 -1.75289 0.733065 0
M  V30 558 H 50.4754 -3.83606 -0.61473 0
M  V30 559 H 52.1474 -4.16948 1.97362 0
M  V30 560 H 50.3904 -3.89073 1.91846 0
M  V30 561 H 51.0614 -5.37826 1.24285 0
M  V30 562 H 53.5374 -4.15378 -0.244939 0
M  V30 563 H 52.4134 -5.43537 -0.765406 0
M  V30 564 H 52.6744 -4.03875 -1.79827 0
M  V30 565 N 51.7335 -0.305618 -1.54608 0
M  V30 566 C 52.9635 0.304333 -2.04346 0
M  V30 567 C 53.3715 1.47715 -1.18224 0
M  V30 568 O 52.7145 1.82591 -0.201577 0
M  V30 569 C 52.7765 0.819031 -3.50046 0
M  V30 570 C 52.4405 -0.22912 -4.56425 0
M  V30 571 C 53.4375 -1.05914 -5.08997 0
M  V30 572 C 51.1225 -0.372148 -5.0092 0
M  V30 573 C 53.1165 -2.01809 -6.04609 0
M  V30 574 C 50.8035 -1.33454 -5.9635 0
M  V30 575 C 51.8015 -2.15599 -6.48079 0
M  V30 576 O 51.4895 -3.10205 -7.41639 0
M  V30 577 H 51.2215 0.0693996 -0.672428 0
M  V30 578 H 53.7755 -0.444548 -2.00532 0
M  V30 579 H 52.0055 1.61852 -3.51199 0
M  V30 580 H 53.6945 1.34537 -3.82955 0
M  V30 581 H 54.4605 -0.959538 -4.75413 0
M  V30 582 H 50.3395 0.257304 -4.60281 0
M  V30 583 H 53.8835 -2.65966 -6.44909 0
M  V30 584 H 49.7805 -1.43485 -6.29351 0
M  V30 585 H 50.5485 -3.05237 -7.59455 0
M  V30 586 N 53.2116 1.57565 -0.0334293 0
M  V30 587 C 54.1586 2.10478 0.946981 0
M  V30 588 C 55.1286 1.00787 1.32027 0
M  V30 589 O 56.3136 1.28232 1.41284 0
M  V30 590 C 53.4536 2.63994 2.22263 0
M  V30 591 C 52.5666 3.87709 1.90541 0
M  V30 592 C 51.7016 4.29604 3.12433 0
M  V30 593 C 50.7406 5.46065 2.76549 0
M  V30 594 N 49.8776 5.83096 3.9108 0
M  V30 595 H 54.7176 2.93963 0.488846 0
M  V30 596 H 52.2546 1.45296 0.22969 0
M  V30 597 H 54.2126 2.93114 2.96884 0
M  V30 598 H 52.8426 1.83333 2.65685 0
M  V30 599 H 51.8946 3.65291 1.06144 0
M  V30 600 H 53.2066 4.72403 1.60116 0
M  V30 601 H 52.3606 4.60182 3.9537 0
M  V30 602 H 51.0996 3.43685 3.46023 0
M  V30 603 H 50.1046 5.15176 1.92026 0
M  V30 604 H 51.3296 6.33685 2.44171 0
M  V30 605 H 49.2756 5.00132 4.24504 0
M  V30 606 H 49.1926 6.6244 3.64293 0
M  V30 607 H 50.4606 6.18282 4.74708 0
M  V30 608 N 54.6897 -0.239769 1.55765 0
M  V30 609 C 55.6527 -1.28038 1.90103 0
M  V30 610 C 56.6527 -1.40723 0.778055 0
M  V30 611 O 57.8427 -1.39301 1.04599 0
M  V30 612 C 54.9747 -2.65702 2.13577 0
M  V30 613 H 56.1677 -0.988048 2.83157 0
M  V30 614 H 53.7207 -0.479382 1.48767 0
M  V30 615 H 54.4557 -3.00063 1.23015 0
M  V30 616 H 54.2407 -2.57875 2.95369 0
M  V30 617 H 55.7307 -3.40828 2.41301 0
M  V30 618 N 56.1678 -1.49265 -0.50573 0
M  V30 619 C 57.1148 -1.65585 -1.6078 0
M  V30 620 C 58.0848 -0.497396 -1.58478 0
M  V30 621 O 59.2698 -0.72385 -1.76536 0
M  V30 622 C 56.4098 -1.72408 -2.98948 0
M  V30 623 C 55.5228 -2.99525 -3.11301 0
M  V30 624 C 54.6578 -2.97356 -4.40174 0
M  V30 625 C 53.6968 -4.19074 -4.46143 0
M  V30 626 N 52.8338 -4.14841 -5.66437 0
M  V30 627 H 57.6738 -2.59688 -1.46172 0
M  V30 628 H 55.2108 -1.28761 -0.711261 0
M  V30 629 H 57.1688 -1.74344 -3.79025 0
M  V30 630 H 55.7988 -0.817753 -3.1227 0
M  V30 631 H 54.8508 -3.07222 -2.24318 0
M  V30 632 H 56.1628 -3.89518 -3.11572 0
M  V30 633 H 55.3168 -2.97829 -5.28567 0
M  V30 634 H 54.0558 -2.05133 -4.42461 0
M  V30 635 H 53.0608 -4.1885 -3.56153 0
M  V30 636 H 54.2858 -5.12483 -4.45575 0
M  V30 637 H 52.2318 -3.25453 -5.69575 0
M  V30 638 H 52.1488 -4.98564 -5.68304 0
M  V30 639 H 53.4168 -4.1941 -6.57051 0
M  V30 640 N 57.6459 0.756429 -1.3826 0
M  V30 641 C 59.0619 1.0591 -1.19395 0
M  V30 642 C 59.2619 2.01459 -0.0406567 0
M  V30 643 O 58.3179 2.44909 0.614467 0
M  V30 644 C 59.6309 1.64191 -2.51916 0
M  V30 645 C 61.1789 1.76376 -2.58574 0
M  V30 646 C 61.6539 2.38069 -3.91264 0
M  V30 647 N 63.1449 2.45503 -3.92788 0
M  V30 648 C 63.8799 2.94126 -4.92217 0
M  V30 649 N 63.3759 3.42805 -6.02043 0
M  V30 650 N 65.1689 2.9314 -4.7961 0
M  V30 651 H 57.3199 0.122313 -2.12048 0
M  V30 652 H 59.5829 0.116892 -0.940766 0
M  V30 653 H 59.2889 1.01451 -3.3675 0
M  V30 654 H 59.1629 2.6329 -2.70108 0
M  V30 655 H 61.5499 2.38244 -1.74137 0
M  V30 656 H 61.6309 0.759894 -2.44252 0
M  V30 657 H 61.2749 1.76835 -4.76121 0
M  V30 658 H 61.2049 3.39091 -4.02895 0
M  V30 659 H 63.6959 2.1107 -3.13461 0
M  V30 660 H 64.0089 3.78354 -6.73846 0
M  V30 661 H 62.3539 3.4087 -6.05667 0
M  V30 662 H 65.5449 2.54419 -3.92923 0
M  V30 663 H 65.7179 3.30721 -5.5725 0
M  V30 664 N 59.124 1.23083 0.984299 0
M  V30 665 C 60.071 1.00854 2.07598 0
M  V30 666 C 61.041 -0.0726709 1.65941 0
M  V30 667 O 62.226 0.0786535 1.90638 0
M  V30 668 C 59.366 0.601645 3.39815 0
M  V30 669 C 58.479 1.75456 3.94765 0
M  V30 670 C 57.614 1.29482 5.15177 0
M  V30 671 C 56.653 2.41873 5.62284 0
M  V30 672 N 55.79 1.96885 6.73929 0
M  V30 673 H 60.63 1.943 2.25946 0
M  V30 674 H 58.167 0.968001 1.10762 0
M  V30 675 H 60.125 0.346854 4.15756 0
M  V30 676 H 58.755 -0.295803 3.21442 0
M  V30 677 H 57.807 2.12346 3.15616 0
M  V30 678 H 59.119 2.59965 4.25699 0
M  V30 679 H 58.273 0.997923 5.98437 0
M  V30 680 H 57.012 0.420046 4.85888 0
M  V30 681 H 56.017 2.72342 4.77608 0
M  V30 682 H 57.242 3.29881 5.93595 0
M  V30 683 H 55.188 1.11782 6.46406 0
M  V30 684 H 55.105 2.74956 7.04227 0
M  V30 685 H 56.373 1.70289 7.60672 0
M  V30 686 N 60.6021 -1.18246 1.0419 0
M  V30 687 C 61.8791 -1.84121 0.660208 0
M  V30 688 C 62.2591 -1.92778 -0.860221 0
M  V30 689 O 61.6071 -1.45464 -1.76217 0
M  V30 690 C 61.8171 -3.22355 1.33747 0
M  V30 691 C 63.1651 -3.98376 1.46906 0
M  V30 692 O 64.1891 -3.31799 1.29568 0
M  V30 693 O 63.0481 -5.17665 1.75171 0
M  V30 694 H 60.1421 -0.794036 0.231161 0
M  V30 695 H 62.6881 -1.25628 1.14087 0
M  V30 696 H 61.4601 -3.10964 2.37522 0
M  V30 697 H 61.0831 -3.88506 0.845515 0
M  V30 698 N 62.0802 -0.821533 -1.34494 0
M  V30 699 C 63.3282 -0.408139 -1.97936 0
M  V30 700 C 63.6492 1.03193 -1.65457 0
M  V30 701 O 62.9192 1.71622 -0.944595 0
M  V30 702 H 61.4992 -0.147928 -0.732206 0
M  V30 703 H 64.1612 -1.05067 -1.64155 0
M  V30 704 H 63.2572 -0.52601 -3.07635 0
M  V30 705 N 63.5583 1.46682 -0.576371 0
M  V30 706 C 64.5053 2.30241 0.160499 0
M  V30 707 C 65.4753 1.40233 0.890162 0
M  V30 708 O 66.6603 1.69186 0.882084 0
M  V30 709 C 63.8003 3.24578 1.1723 0
M  V30 710 C 62.9133 4.29684 0.446736 0
M  V30 711 C 62.0483 5.11154 1.44551 0
M  V30 712 C 61.0873 6.08015 0.70599 0
M  V30 713 N 60.2243 6.82376 1.65251 0
M  V30 714 H 65.0643 2.92727 -0.558127 0
M  V30 715 H 62.6013 1.44272 -0.287056 0
M  V30 716 H 64.5593 3.77711 1.77172 0
M  V30 717 H 63.1893 2.63916 1.85872 0
M  V30 718 H 62.2413 3.79458 -0.267594 0
M  V30 719 H 63.5533 4.98626 -0.131686 0
M  V30 720 H 62.7073 5.68533 2.11791 0
M  V30 721 H 61.4463 4.42158 2.05786 0
M  V30 722 H 60.4513 5.49796 0.0197725 0
M  V30 723 H 61.6763 6.79028 0.09912 0
M  V30 724 H 59.6223 6.16094 2.25308 0
M  V30 725 H 59.5393 7.47556 1.12673 0
M  V30 726 H 60.8073 7.44316 2.31546 0
M  V30 727 N 65.0364 0.313813 1.54444 0
M  V30 728 C 66.3134 -0.345447 1.92525 0
M  V30 729 C 66.6934 -1.70667 1.24242 0
M  V30 730 O 66.0414 -2.25273 0.382654 0
M  V30 731 C 66.2514 -0.44737 3.46121 0
M  V30 732 C 67.5994 -0.712238 4.18584 0
M  V30 733 O 68.6234 -0.530678 3.52225 0
M  V30 734 O 67.4824 -1.06183 5.36085 0
M  V30 735 H 64.5764 -0.195407 0.803583 0
M  V30 736 H 67.1224 0.362813 1.65776 0
M  V30 737 H 65.8944 0.509043 3.87975 0
M  V30 738 H 65.5174 -1.20359 3.78945 0
M  V30 739 N 66.5145 -1.57545 0.0417849 0
M  V30 740 C 67.7915 -1.83642 -0.673433 0
M  V30 741 C 68.1715 -0.928298 -1.89594 0
M  V30 742 O 67.5195 0.0129955 -2.28496 0
M  V30 743 C 67.7295 -3.33155 -1.03964 0
M  V30 744 C 69.0775 -3.99941 -1.42592 0
M  V30 745 O 70.1015 -3.37725 -1.13226 0
M  V30 746 O 68.9605 -5.09619 -1.9736 0
M  V30 747 H 66.0545 -0.757638 -0.331533 0
M  V30 748 H 68.6005 -1.69554 0.070433 0
M  V30 749 H 67.3725 -3.9093 -0.170098 0
M  V30 750 H 66.9955 -3.52396 -1.84126 0
M  V30 751 N 67.9926 0.231505 -1.5589 0
M  V30 752 C 68.9396 1.28682 -1.91598 0
M  V30 753 C 69.9096 1.47071 -0.771974 0
M  V30 754 O 71.0946 1.60802 -1.027 0
M  V30 755 C 68.2346 2.6342 -2.22944 0
M  V30 756 C 67.3476 2.52912 -3.50228 0
M  V30 757 C 66.4826 3.80106 -3.7107 0
M  V30 758 C 65.5216 3.64279 -4.91902 0
M  V30 759 N 64.6586 4.834 -5.09184 0
M  V30 760 H 69.4986 0.975305 -2.81588 0
M  V30 761 H 67.0356 0.470299 -1.39379 0
M  V30 762 H 68.9936 3.41869 -2.39126 0
M  V30 763 H 67.6236 2.92687 -1.36139 0
M  V30 764 H 66.6756 1.6595 -3.42294 0
M  V30 765 H 67.9876 2.37133 -4.38827 0
M  V30 766 H 67.1416 4.66999 -3.87295 0
M  V30 767 H 65.8806 3.98799 -2.80733 0
M  V30 768 H 64.8856 2.7577 -4.75637 0
M  V30 769 H 66.1106 3.47067 -5.83714 0
M  V30 770 H 64.0566 5.02425 -4.21788 0
M  V30 771 H 63.9736 4.70311 -5.91898 0
M  V30 772 H 65.2416 5.71747 -5.29835 0
M  V30 773 N 69.4707 1.49531 0.497807 0
M  V30 774 C 70.7477 1.49682 1.25915 0
M  V30 775 C 71.1277 0.226339 2.09883 0
M  V30 776 O 70.4757 -0.791189 2.14365 0
M  V30 777 C 70.6857 2.77755 2.11313 0
M  V30 778 C 72.0337 3.27371 2.70395 0
M  V30 779 O 73.0577 2.78894 2.21578 0
M  V30 780 O 71.9167 4.11808 3.59272 0
M  V30 781 H 69.0107 0.599228 0.56996 0
M  V30 782 H 71.5567 1.61798 0.511816 0
M  V30 783 H 70.3287 3.61713 1.49264 0
M  V30 784 H 69.9517 2.68515 2.93233 0
M  V30 785 N 70.9488 -0.749086 1.3866 0
M  V30 786 C 72.1788 -1.53611 1.38157 0
M  V30 787 C 72.5868 -1.89177 -0.0293595 0
M  V30 788 O 71.9298 -1.53606 -1.00752 0
M  V30 789 C 71.9918 -2.86087 2.17702 0
M  V30 790 C 71.6558 -2.73034 3.66472 0
M  V30 791 C 72.6528 -2.42526 4.59866 0
M  V30 792 C 70.3378 -2.90345 4.09884 0
M  V30 793 C 72.3318 -2.29492 5.94653 0
M  V30 794 C 70.0188 -2.7693 5.4475 0
M  V30 795 C 71.0168 -2.46547 6.36949 0
M  V30 796 O 70.7048 -2.33199 7.69333 0
M  V30 797 H 70.4368 -0.481773 0.474205 0
M  V30 798 H 72.9908 -0.934465 1.82912 0
M  V30 799 H 71.2208 -3.48458 1.67672 0
M  V30 800 H 72.9098 -3.47625 2.09551 0
M  V30 801 H 73.6758 -2.28816 4.27631 0
M  V30 802 H 69.5548 -3.1299 3.38464 0
M  V30 803 H 73.0988 -2.05698 6.66584 0
M  V30 804 H 68.9958 -2.90215 5.76581 0
M  V30 805 H 69.7638 -2.48376 7.79905 0
M  V30 806 N 72.4269 -1.23603 -0.977757 0
M  V30 807 C 73.3899 -1.02069 -2.05218 0
M  V30 808 C 74.3899 0.0184305 -1.60789 0
M  V30 809 O 75.5799 -0.221569 -1.72785 0
M  V30 810 C 72.7119 -0.544926 -3.36517 0
M  V30 811 H 73.9049 -1.9742 -2.25755 0
M  V30 812 H 71.4579 -1.05684 -1.15155 0
M  V30 813 H 72.1929 0.412241 -3.21669 0
M  V30 814 H 71.9779 -1.2948 -3.70105 0
M  V30 815 H 73.4679 -0.414985 -4.15533 0
M  V30 816 N 73.905 1.17692 -1.04816 0
M  V30 817 C 74.835 2.23777 -0.666791 0
M  V30 818 C 75.816 1.66796 0.33361 0
M  V30 819 O 77.001 1.93039 0.212042 0
M  V30 820 C 74.131 3.47281 -0.0367933 0
M  V30 821 C 73.085 4.17059 -0.961546 0
M  V30 822 C 72.411 5.34342 -0.195626 0
M  V30 823 C 73.711 4.69713 -2.28402 0
M  V30 824 H 75.405 2.55933 -1.55367 0
M  V30 825 H 72.951 1.23019 -0.748484 0
M  V30 826 H 74.904 4.20706 0.241775 0
M  V30 827 H 73.628 3.14381 0.885004 0
M  V30 828 H 72.287 3.45541 -1.22462 0
M  V30 829 H 71.935 4.97692 0.728816 0
M  V30 830 H 71.635 5.81966 -0.811775 0
M  V30 831 H 73.159 6.10553 0.0757473 0
M  V30 832 H 74.573 5.34794 -2.06563 0
M  V30 833 H 72.97 5.279 -2.8538 0
M  V30 834 H 74.04 3.86726 -2.92525 0
M  V30 835 N 75.3831 0.828654 1.34056 0
M  V30 836 C 76.3301 0.252567 2.29414 0
M  V30 837 C 77.3001 -0.62588 1.53857 0
M  V30 838 O 78.4851 -0.566312 1.82202 0
M  V30 839 C 75.6251 -0.574831 3.40279 0
M  V30 840 C 74.7381 0.326499 4.30764 0
M  V30 841 C 73.8731 -0.511016 5.28736 0
M  V30 842 C 72.9121 0.389342 6.1086 0
M  V30 843 N 72.0491 -0.409439 7.00905 0
M  V30 844 H 76.8891 1.07108 2.78086 0
M  V30 845 H 74.4261 0.539677 1.36843 0
M  V30 846 H 76.3841 -1.06992 4.03248 0
M  V30 847 H 75.0141 -1.35841 2.92826 0
M  V30 848 H 74.0661 0.939837 3.68607 0
M  V30 849 H 75.3781 1.01857 4.88289 0
M  V30 850 H 74.5321 -1.07035 5.97184 0
M  V30 851 H 73.2711 -1.23657 4.71763 0
M  V30 852 H 72.2761 0.960769 5.4134 0
M  V30 853 H 73.5011 1.1131 6.69916 0
M  V30 854 H 71.4471 -1.11856 6.46393 0
M  V30 855 H 71.3641 0.224126 7.55668 0
M  V30 856 H 72.6321 -0.951336 7.73673 0
M  V30 857 N 76.8612 -1.46375 0.584142 0
M  V30 858 C 77.7932 -2.28443 -0.186119 0
M  V30 859 C 78.8062 -1.38596 -0.854115 0
M  V30 860 O 79.9952 -1.63183 -0.723438 0
M  V30 861 C 77.0952 -3.13671 -1.28311 0
M  V30 862 C 76.2682 -4.31652 -0.706758 0
M  V30 863 C 75.3272 -4.98267 -1.69163 0
M  V30 864 O 74.3532 -5.55815 -1.22712 0
M  V30 865 N 75.5552 -4.95408 -3.02575 0
M  V30 866 H 78.3202 -2.9519 0.517986 0
M  V30 867 H 75.8812 -1.56303 0.42201 0
M  V30 868 H 77.8732 -3.55101 -1.94128 0
M  V30 869 H 76.4432 -2.48989 -1.89005 0
M  V30 870 H 75.6632 -3.93989 0.128908 0
M  V30 871 H 76.9512 -5.07906 -0.301506 0
M  V30 872 H 76.3492 -4.49902 -3.42936 0
M  V30 873 H 74.9062 -5.40774 -3.63877 0
M  V30 874 N 78.3393 -0.321999 -1.54275 0
M  V30 875 C 79.5883 0.281931 -1.9972 0
M  V30 876 C 79.9013 1.53369 -1.21397 0
M  V30 877 O 81.1073 2.21352 -1.57211 0
M  V30 878 C 79.5633 0.5529 -3.55628 0
M  V30 879 C 79.1713 -0.681721 -4.42783 0
M  V30 880 C 80.9153 1.11687 -4.09544 0
M  V30 881 C 78.8223 -0.382742 -5.9016 0
M  V30 882 H 77.7523 0.109124 -0.746062 0
M  V30 883 H 80.4033 -0.43398 -1.78294 0
M  V30 884 H 78.7853 1.32896 -3.73035 0
M  V30 885 H 79.9593 -1.45723 -4.37151 0
M  V30 886 H 78.2743 -1.1658 -3.99748 0
M  V30 887 H 80.8713 1.35515 -5.17242 0
M  V30 888 H 81.2143 2.06575 -3.61431 0
M  V30 889 H 81.7473 0.402032 -3.95763 0
M  V30 890 H 78.4863 -1.30076 -6.42464 0
M  V30 891 H 78.0063 0.355094 -5.98748 0
M  V30 892 H 79.6853 0.00800157 -6.47 0
M  V30 893 N 79.8174 1.5752 -0.0501392 0
M  V30 894 C 80.7274 2.14952 0.939827 0
M  V30 895 C 81.7434 1.10706 1.34239 0
M  V30 896 O 82.9194 1.42869 1.41952 0
M  V30 897 C 79.9844 2.68232 2.19665 0
M  V30 898 C 79.0454 3.87272 1.85253 0
M  V30 899 C 78.2784 4.38002 3.04943 0
M  V30 900 O 78.5014 3.87811 4.18281 0
M  V30 901 O 77.4354 5.29602 2.86017 0
M  V30 902 H 81.2614 2.9986 0.481392 0
M  V30 903 H 78.8464 1.4841 0.171699 0
M  V30 904 H 80.7284 3.02475 2.93406 0
M  V30 905 H 79.4034 1.86395 2.64648 0
M  V30 906 H 78.3104 3.5792 1.0883 0
M  V30 907 H 79.6434 4.70336 1.4507 0
M  V30 908 N 81.2955 -0.223234 1.56011 0
M  V30 909 C 82.5435 -0.946003 1.78592 0
M  V30 910 C 82.8645 -1.84936 0.618349 0
M  V30 911 O 82.1345 -1.92473 -0.364833 0
M  V30 912 H 80.7145 -0.352298 0.658707 0
M  V30 913 H 83.3765 -0.235494 1.93472 0
M  V30 914 H 82.4725 -1.55381 2.70672 0
M  V30 915 N 82.7736 -1.49793 -0.48987 0
M  V30 916 C 84.0016 -1.63568 -1.26701 0
M  V30 917 C 84.4166 -0.311465 -1.86213 0
M  V30 918 O 83.7736 0.704416 -1.68357 0
M  V30 919 C 83.8246 -2.71284 -2.38929 0
M  V30 920 O 83.5456 -3.9857 -1.81861 0
M  V30 921 C 85.0466 -2.95864 -3.3012 0
M  V30 922 H 82.2666 -0.550342 -0.383881 0
M  V30 923 H 84.8106 -1.95898 -0.586864 0
M  V30 924 H 82.9656 -2.417 -3.02753 0
M  V30 925 H 83.3796 -4.57993 -2.55622 0
M  V30 926 H 84.8536 -3.74941 -4.05121 0
M  V30 927 H 85.3306 -2.06206 -3.87783 0
M  V30 928 H 85.9366 -3.26907 -2.72051 0
M  V30 929 N 84.2517 0.741722 -1.39055 0
M  V30 930 C 85.4997 1.49818 -1.35643 0
M  V30 931 C 85.8207 1.94938 0.0491642 0
M  V30 932 O 85.0907 1.68505 0.999141 0
M  V30 933 H 83.6707 0.555755 -0.499144 0
M  V30 934 H 86.3327 0.880957 -1.73854 0
M  V30 935 H 85.4287 2.38348 -2.01486 0
M  V30 936 N 85.7298 1.2412 0.971189 0
M  V30 937 C 86.9788 1.07284 1.70801 0
M  V30 938 C 87.2918 -0.388902 1.91695 0
M  V30 939 O 88.4978 -0.677379 2.62914 0
M  V30 940 C 86.9538 1.87145 3.07416 0
M  V30 941 C 86.5618 3.37707 2.94377 0
M  V30 942 C 88.3058 1.78828 3.84995 0
M  V30 943 C 86.2128 4.09925 4.26281 0
M  V30 944 H 85.1428 0.397854 0.64049 0
M  V30 945 H 87.7938 1.4817 1.0825 0
M  V30 946 H 86.1758 1.39071 3.70777 0
M  V30 947 H 87.3498 3.93335 2.4005 0
M  V30 948 H 85.6648 3.46938 2.30267 0
M  V30 949 H 88.2618 2.30089 4.82662 0
M  V30 950 H 88.6048 0.75284 4.09436 0
M  V30 951 H 89.1378 2.24563 3.28354 0
M  V30 952 H 85.8768 5.13813 4.07033 0
M  V30 953 H 85.3968 3.59083 4.80437 0
M  V30 954 H 87.0758 4.1673 4.94919 0
M  V30 955 N 87.2079 -1.17134 1.05439 0
M  V30 956 C 88.4329 -1.91913 0.786396 0
M  V30 957 C 88.8579 -1.7643 -0.652234 0
M  V30 958 O 88.2159 -1.08372 -1.45345 0
M  V30 959 C 88.2639 -3.40921 1.17497 0
M  V30 960 O 87.3679 -4.11244 0.308589 0
M  V30 961 H 86.7089 -0.598215 0.288158 0
M  V30 962 H 89.2389 -1.48457 1.4079 0
M  V30 963 H 89.2489 -3.91668 1.14281 0
M  V30 964 H 87.9239 -3.5151 2.22292 0
M  V30 965 H 86.5009 -3.70731 0.40157 0
M  V30 966 N 88.686 -0.835752 -1.33615 0
M  V30 967 C 89.619 -0.211815 -2.27215 0
M  V30 968 C 90.597 0.639249 -1.49507 0
M  V30 969 O 91.781 0.600193 -1.78689 0
M  V30 970 C 88.908 0.702893 -3.31326 0
M  V30 971 C 87.954 -0.0723049 -4.26439 0
M  V30 972 S 88.787 -1.42811 -5.16106 0
M  V30 973 C 89.943 -0.518613 -6.23748 0
M  V30 974 H 90.176 -1.00533 -2.79786 0
M  V30 975 H 87.709 -0.632336 -1.40858 0
M  V30 976 H 89.667 1.22505 -3.91794 0
M  V30 977 H 88.328 1.47004 -2.77576 0
M  V30 978 H 87.521 0.62359 -5.00127 0
M  V30 979 H 87.123 -0.525424 -3.70291 0
M  V30 980 H 89.415 0.284778 -6.76901 0
M  V30 981 H 90.358 -1.22556 -6.97413 0
M  V30 982 H 90.766 -0.101344 -5.64409 0
M  V30 983 N 90.1641 1.46063 -0.591896 0
M  V30 984 C 91.3891 2.07226 -0.0850314 0
M  V30 985 C 91.8141 1.43625 1.21463 0
M  V30 986 O 91.1721 0.523305 1.73583 0
M  V30 987 C 91.2201 3.60554 0.0576567 0
M  V30 988 O 90.3241 3.97128 1.11188 0
M  V30 989 H 89.6651 0.660615 -0.0669568 0
M  V30 990 H 92.1951 1.8756 -0.81745 0
M  V30 991 H 92.2051 4.07165 0.2609 0
M  V30 992 H 90.8801 4.06235 -0.891416 0
M  V30 993 H 89.4571 3.62213 0.886356 0
M  V30 994 N 91.6422 0.330177 1.54103 0
M  V30 995 C 92.6052 -0.520144 2.2322 0
M  V30 996 C 93.6052 -1.03828 1.22786 0
M  V30 997 O 94.7952 -0.929652 1.4732 0
M  V30 998 C 91.9272 -1.72317 2.94142 0
M  V30 999 H 93.1202 0.0841605 2.99782 0
M  V30 1000 H 90.6732 0.0813433 1.56088 0
M  V30 1001 H 91.4082 -2.36653 2.21734 0
M  V30 1002 H 91.1932 -1.35898 3.67796 0
M  V30 1003 H 92.6832 -2.3266 3.46784 0
M  V30 1004 N 93.1203 -1.57491 0.0584922 0
M  V30 1005 C 94.3603 -1.94851 -0.617458 0
M  V30 1006 C 94.7243 -0.937165 -1.67575 0
M  V30 1007 O 95.9253 -1.19795 -2.40629 0
M  V30 1008 C 94.1963 -3.36955 -1.19147 0
M  V30 1009 S 95.7553 -3.96277 -1.8844 0
M  V30 1010 H 92.5733 -0.681539 -0.202547 0
M  V30 1011 H 95.1753 -1.95073 0.129176 0
M  V30 1012 H 93.8793 -4.08355 -0.409215 0
M  V30 1013 H 93.4103 -3.40245 -1.97476 0
M  V30 1014 H 95.4253 -3.82099 -3.16568 0
M  V30 1015 N 94.5984 0.214957 -1.56127 0
M  V30 1016 C 96.0144 0.564948 -1.49267 0
M  V30 1017 C 96.2144 1.86827 -0.754838 0
M  V30 1018 O 95.2704 2.50745 -0.297198 0
M  V30 1019 C 96.5834 0.638071 -2.93852 0
M  V30 1020 C 98.1314 0.728253 -3.0441 0
M  V30 1021 C 98.6064 0.832663 -4.50367 0
M  V30 1022 N 100.097 0.896712 -4.54437 0
M  V30 1023 C 100.832 0.997324 -5.6466 0
M  V30 1024 N 100.328 1.06147 -6.8462 0
M  V30 1025 N 102.121 1.03297 -5.52527 0
M  V30 1026 H 94.2724 -0.640211 -2.02522 0
M  V30 1027 H 96.5354 -0.225507 -0.920788 0
M  V30 1028 H 96.2414 -0.250126 -3.50809 0
M  V30 1029 H 96.1154 1.49947 -3.46115 0
M  V30 1030 H 98.5024 1.60689 -2.47514 0
M  V30 1031 H 98.5834 -0.158952 -2.55306 0
M  V30 1032 H 98.2274 -0.0415417 -5.07883 0
M  V30 1033 H 98.1574 1.73538 -4.97184 0
M  V30 1034 H 100.648 0.857188 -3.6805 0
M  V30 1035 H 100.961 1.1382 -7.64372 0
M  V30 1036 H 99.3064 1.03049 -6.87318 0
M  V30 1037 H 102.497 0.979558 -4.57736 0
M  V30 1038 H 102.67 1.10793 -6.38458 0
M  V30 1039 N 96.0765 1.50051 0.48192 0
M  V30 1040 C 96.9865 1.7089 1.60728 0
M  V30 1041 C 98.0025 0.591788 1.63627 0
M  V30 1042 O 99.1785 0.868817 1.81696 0
M  V30 1043 C 96.2435 1.78855 2.97005 0
M  V30 1044 C 95.3045 3.02537 3.04581 0
M  V30 1045 C 94.5375 3.10112 4.34357 0
M  V30 1046 O 94.7605 2.24765 5.24249 0
M  V30 1047 O 93.6945 4.02747 4.47301 0
M  V30 1048 H 97.5205 2.66264 1.46072 0
M  V30 1049 H 95.1055 1.34018 0.660264 0
M  V30 1050 H 96.9875 1.86336 3.77964 0
M  V30 1051 H 95.6625 0.866628 3.11883 0
M  V30 1052 H 94.5695 3.00563 2.22739 0
M  V30 1053 H 95.9025 3.94272 2.94636 0
M  V30 1054 N 97.5546 -0.734337 1.39446 0
M  V30 1055 C 98.8036 -1.48937 1.36017 0
M  V30 1056 C 99.1166 -1.95557 -0.0409005 0
M  V30 1057 O 100.323 -2.70779 -0.19778 0
M  V30 1058 C 98.7786 -2.69125 2.38955 0
M  V30 1059 C 98.3866 -2.29452 3.8478 0
M  V30 1060 C 100.131 -3.46944 2.44603 0
M  V30 1061 C 98.0376 -3.46366 4.79358 0
M  V30 1062 H 96.9676 -0.559296 0.505672 0
M  V30 1063 H 99.6186 -0.800983 1.65095 0
M  V30 1064 H 98.0006 -3.40041 2.02948 0
M  V30 1065 H 99.1746 -1.66077 4.29831 0
M  V30 1066 H 97.4896 -1.64723 3.82433 0
M  V30 1067 H 100.087 -4.33907 3.12456 0
M  V30 1068 H 100.43 -3.89454 1.47076 0
M  V30 1069 H 100.963 -2.83056 2.79507 0
M  V30 1070 H 97.7016 -3.08905 5.78151 0
M  V30 1071 H 97.2216 -4.08719 4.38986 0
M  V30 1072 H 98.9006 -4.12691 4.98292 0
M  V30 1073 N 99.0327 -1.24633 -0.964593 0
M  V30 1074 C 99.9957 -1.0424 -2.04124 0
M  V30 1075 C 100.996 0.00137563 -1.608 0
M  V30 1076 O 102.186 -0.239883 -1.7254 0
M  V30 1077 C 99.3177 -0.580588 -3.3592 0
M  V30 1078 H 100.511 -1.99803 -2.23649 0
M  V30 1079 H 98.0637 -1.06899 -1.14027 0
M  V30 1080 H 98.7987 0.3781 -3.22088 0
M  V30 1081 H 98.5837 -1.33398 -3.6871 0
M  V30 1082 H 100.074 -0.459034 -4.15069 0
M  V30 1083 N 100.511 1.16574 -1.06058 0
M  V30 1084 C 101.441 2.23057 -0.690488 0
M  V30 1085 C 102.422 1.67141 0.315901 0
M  V30 1086 O 103.607 1.93253 0.191556 0
M  V30 1087 C 100.737 3.47222 -0.073625 0
M  V30 1088 C 99.6908 4.16016 -1.00573 0
M  V30 1089 C 99.0168 5.34104 -0.252289 0
M  V30 1090 C 100.317 4.67264 -2.33371 0
M  V30 1091 H 102.011 2.54271 -1.58072 0
M  V30 1092 H 99.5568 1.22218 -0.76149 0
M  V30 1093 H 101.51 4.20939 0.19714 0
M  V30 1094 H 100.234 3.15302 0.85161 0
M  V30 1095 H 98.8928 3.44223 -1.2612 0
M  V30 1096 H 98.5408 4.98437 0.675988 0
M  V30 1097 H 98.2408 5.81072 -0.873455 0
M  V30 1098 H 99.7648 6.10599 0.0109857 0
M  V30 1099 H 101.179 5.32573 -2.12223 0
M  V30 1100 H 99.5758 5.24843 -2.90963 0
M  V30 1101 H 100.646 3.83602 -2.96611 0
M  V30 1102 N 101.989 0.842826 1.3317 0
M  V30 1103 C 102.919 0.294028 2.31641 0
M  V30 1104 C 103.9 -0.600401 1.59151 0
M  V30 1105 O 105.085 -0.523124 1.87022 0
M  V30 1106 C 102.215 -0.528416 3.43257 0
M  V30 1107 C 101.169 0.27056 4.27144 0
M  V30 1108 C 100.495 -0.675881 5.30411 0
M  V30 1109 C 101.795 1.48981 5.00602 0
M  V30 1110 H 103.489 1.11681 2.77791 0
M  V30 1111 H 101.035 0.538478 1.33553 0
M  V30 1112 H 102.988 -0.922674 4.11175 0
M  V30 1113 H 101.712 -1.38445 2.95805 0
M  V30 1114 H 100.371 0.646427 3.60856 0
M  V30 1115 H 100.019 -1.52842 4.79216 0
M  V30 1116 H 99.7189 -0.145374 5.8742 0
M  V30 1117 H 101.243 -1.06757 6.01195 0
M  V30 1118 H 102.657 1.16849 5.61266 0
M  V30 1119 H 101.054 1.95739 5.6728 0
M  V30 1120 H 102.124 2.25746 4.29147 0
M  V30 1121 N 103.467 -1.45747 0.599634 0
M  V30 1122 C 104.883 -1.57424 0.26264 0
M  V30 1123 C 105.083 -1.59222 -1.23493 0
M  V30 1124 O 104.139 -1.51825 -2.01756 0
M  V30 1125 C 105.452 -2.86061 0.926795 0
M  V30 1126 C 107 -2.99722 0.901967 0
M  V30 1127 C 107.475 -4.31119 1.54598 0
M  V30 1128 N 108.966 -4.37858 1.5111 0
M  V30 1129 C 109.701 -5.3818 1.97863 0
M  V30 1130 N 109.197 -6.45083 2.52666 0
M  V30 1131 N 110.99 -5.29487 1.88679 0
M  V30 1132 H 103.141 -1.42823 1.57211 0
M  V30 1133 H 105.404 -0.68235 0.658105 0
M  V30 1134 H 105.11 -2.90605 1.98095 0
M  V30 1135 H 104.984 -3.74563 0.445238 0
M  V30 1136 H 107.371 -2.9475 -0.143617 0
M  V30 1137 H 107.452 -2.12652 1.42171 0
M  V30 1138 H 107.096 -4.36849 2.59085 0
M  V30 1139 H 107.026 -5.16992 1.00132 0
M  V30 1140 H 109.517 -3.61209 1.11068 0
M  V30 1141 H 109.83 -7.17869 2.86155 0
M  V30 1142 H 108.175 -6.45856 2.56701 0
M  V30 1143 H 111.366 -4.44877 1.4561 0
M  V30 1144 H 111.539 -6.07524 2.25429 0
M  V30 1145 N 104.945 -0.338344 -1.53925 0
M  V30 1146 C 105.855 0.529421 -2.28548 0
M  V30 1147 C 106.871 1.11645 -1.3346 0
M  V30 1148 O 108.047 1.13325 -1.66492 0
M  V30 1149 C 105.112 1.66713 -3.03987 0
M  V30 1150 C 104.173 1.11041 -4.14691 0
M  V30 1151 C 103.406 2.19389 -4.86522 0
M  V30 1152 O 103.629 3.40013 -4.57982 0
M  V30 1153 O 102.563 1.83976 -5.73094 0
M  V30 1154 H 106.389 -0.0770399 -3.03602 0
M  V30 1155 H 103.974 -0.103555 -1.49041 0
M  V30 1156 H 105.856 2.32918 -3.5118 0
M  V30 1157 H 104.531 2.25949 -2.31794 0
M  V30 1158 H 103.438 0.413024 -3.71813 0
M  V30 1159 H 104.771 0.562975 -4.8897 0
M  V30 1160 N 106.423 1.57458 -0.0668435 0
M  V30 1161 C 107.353 2.15468 0.899764 0
M  V30 1162 C 108.334 1.08042 1.31381 0
M  V30 1163 O 109.519 1.36054 1.38574 0
M  V30 1164 C 106.649 2.71232 2.16911 0
M  V30 1165 C 105.603 3.83781 1.89463 0
M  V30 1166 C 104.929 4.26127 3.22986 0
M  V30 1167 C 106.229 5.08238 1.20381 0
M  V30 1168 H 107.923 2.96488 0.416529 0
M  V30 1169 H 105.469 1.4262 0.198908 0
M  V30 1170 H 107.422 3.10458 2.84945 0
M  V30 1171 H 106.146 1.87426 2.67468 0
M  V30 1172 H 104.805 3.45051 1.23836 0
M  V30 1173 H 104.453 3.39249 3.71374 0
M  V30 1174 H 104.153 5.01993 3.05413 0
M  V30 1175 H 105.677 4.67966 3.92225 0
M  V30 1176 H 107.091 5.44811 1.78475 0
M  V30 1177 H 105.488 5.89349 1.13083 0
M  V30 1178 H 106.558 4.84558 0.182153 0
M  V30 1179 N 107.901 -0.206675 1.56239 0
M  V30 1180 C 108.848 -1.25617 1.93621 0
M  V30 1181 C 109.818 -1.45824 0.795274 0
M  V30 1182 O 111.003 -1.59148 1.05245 0
M  V30 1183 C 108.143 -2.59839 2.27107 0
M  V30 1184 C 107.256 -2.47308 3.54207 0
M  V30 1185 C 106.391 -3.74155 3.7707 0
M  V30 1186 C 105.43 -3.56407 4.97635 0
M  V30 1187 N 104.567 -4.75238 5.1681 0
M  V30 1188 H 109.407 -0.930383 2.83104 0
M  V30 1189 H 106.944 -0.448065 1.4011 0
M  V30 1190 H 108.902 -3.38021 2.44535 0
M  V30 1191 H 107.532 -2.90485 1.40778 0
M  V30 1192 H 106.584 -1.60483 3.4489 0
M  V30 1193 H 107.896 -2.30122 4.42544 0
M  V30 1194 H 107.05 -4.60778 3.94675 0
M  V30 1195 H 105.789 -3.94282 2.87042 0
M  V30 1196 H 104.794 -2.68168 4.79964 0
M  V30 1197 H 106.019 -3.37736 5.89161 0
M  V30 1198 H 103.965 -4.95651 4.29728 0
M  V30 1199 H 103.882 -4.60835 5.99306 0
M  V30 1200 H 105.15 -5.63246 5.38864 0
M  V30 1201 N 109.379 -1.50304 -0.473955 0
M  V30 1202 C 110.329 -1.65347 -1.56985 0
M  V30 1203 C 111.313 -0.508176 -1.52664 0
M  V30 1204 O 112.505 -0.762446 -1.59737 0
M  V30 1205 C 109.634 -1.74832 -2.95447 0
M  V30 1206 C 108.72 -2.95028 -3.04662 0
M  V30 1207 N 109.111 -4.18747 -2.83698 0
M  V30 1208 C 107.409 -2.93527 -3.35795 0
M  V30 1209 C 108.11 -4.99687 -2.97805 0
M  V30 1210 N 107.086 -4.33585 -3.2788 0
M  V30 1211 H 110.888 -2.58698 -1.39472 0
M  V30 1212 H 108.402 -1.47449 -0.680629 0
M  V30 1213 H 110.399 -1.83712 -3.7424 0
M  V30 1214 H 109.059 -0.826376 -3.14008 0
M  V30 1215 H 110.07 -4.48291 -2.59337 0
M  V30 1216 H 106.747 -2.10821 -3.60362 0
M  V30 1217 H 108.137 -6.08057 -2.85861 0
M  V30 1218 N 110.857 0.726932 -1.39834 0
M  V30 1219 C 112.268 1.30558 -1.3346 0
M  V30 1220 C 112.619 1.962 -0.00273003 0
M  V30 1221 O 111.744 1.96826 0.899371 0
M  V30 1222 C 112.339 2.37404 -2.41713 0
M  V30 1223 C 110.898 2.90921 -2.38835 0
M  V30 1224 C 110.045 1.64578 -2.2318 0
M  V30 1225 H 112.996 0.523862 -1.49804 0
M  V30 1226 H 113.017 3.17984 -2.08966 0
M  V30 1227 H 112.529 1.89599 -3.38635 0
M  V30 1228 H 110.63 3.42985 -1.45575 0
M  V30 1229 H 110.743 3.43487 -3.33997 0
M  V30 1230 H 109.107 1.89219 -1.70494 0
M  V30 1231 H 109.89 1.18814 -3.22084 0
M  V30 1232 N 112.336 1.25143 0.95797 0
M  V30 1233 C 113.284 1.05019 2.07542 0
M  V30 1234 C 114.278 -0.0178751 1.69391 0
M  V30 1235 O 115.484 0.137472 1.79474 0
M  V30 1236 H 111.859 0.32265 0.679265 0
M  V30 1237 H 113.83 1.99759 2.21673 0
M  V30 1238 C 112.579 0.682074 3.40944 0
M  V30 1239 H 111.902 1.49573 3.70767 0
M  V30 1240 H 113.342 0.580945 4.20001 0
M  V30 1241 C 111.801 -0.611608 3.31302 0
M  V30 1242 O 112.331 -1.65465 3.66038 0
M  V30 1243 N 110.537 -0.595982 2.84423 0
M  V30 1244 H 110.084 0.253192 2.56353 0
M  V30 1245 H 110.042 -1.46173 2.78354 0
M  V30 1246 N 113.814 -1.1601 1.06675 0
M  V30 1247 C 115.06 -1.86909 0.786945 0
M  V30 1248 C 115.393 -1.81717 -0.685018 0
M  V30 1249 O 114.668 -1.23551 -1.50218 0
M  V30 1250 C 114.951 -3.36313 1.28707 0
M  V30 1251 C 114.804 -3.50175 2.82308 0
M  V30 1252 C 116.123 -4.3084 0.898071 0
M  V30 1253 H 113.242 -0.678677 0.287343 0
M  V30 1254 H 115.884 -1.36336 1.32334 0
M  V30 1255 H 114.034 -3.79513 0.830768 0
M  V30 1256 H 115.706 -3.15886 3.36175 0
M  V30 1257 H 113.949 -2.91959 3.20847 0
M  V30 1258 H 114.62 -4.55116 3.12368 0
M  V30 1259 H 117.096 -3.95561 1.29114 0
M  V30 1260 H 115.972 -5.33876 1.27543 0
M  V30 1261 H 116.233 -4.41662 -0.196651 0
M  V30 1262 N 115.292 -0.849877 -1.32721 0
M  V30 1263 C 116.541 -0.447175 -1.96681 0
M  V30 1264 C 116.854 1.00135 -1.68025 0
M  V30 1265 O 118.06 1.50926 -2.25685 0
M  V30 1266 C 116.516 -0.7487 -3.52026 0
M  V30 1267 C 116.124 -2.21264 -3.89546 0
M  V30 1268 C 117.868 -0.413487 -4.22481 0
M  V30 1269 C 115.775 -2.45763 -5.37917 0
M  V30 1270 H 114.705 -0.163486 -0.736063 0
M  V30 1271 H 117.356 -1.03999 -1.51183 0
M  V30 1272 H 115.738 -0.0853727 -3.95908 0
M  V30 1273 H 116.912 -2.91736 -3.56689 0
M  V30 1274 H 115.227 -2.5119 -3.32103 0
M  V30 1275 H 117.824 -0.574017 -5.3161 0
M  V30 1276 H 118.167 0.644492 -4.11281 0
M  V30 1277 H 118.7 -1.03251 -3.84167 0
M  V30 1278 H 115.439 -3.50168 -5.54132 0
M  V30 1279 H 114.959 -1.79864 -5.72197 0
M  V30 1280 H 116.638 -2.29471 -6.0494 0
M  V30 1281 N 116.77 1.45427 -0.607355 0
M  V30 1282 C 117.995 2.07124 -0.107006 0
M  V30 1283 C 118.42 1.44906 1.19933 0
M  V30 1284 O 117.778 0.541687 1.73019 0
M  V30 1285 C 117.826 3.60595 0.0194119 0
M  V30 1286 O 116.93 3.98285 1.0697 0
M  V30 1287 H 116.271 0.659868 -0.0739597 0
M  V30 1288 H 118.801 1.86683 -0.837297 0
M  V30 1289 H 118.811 4.07419 0.2177 0
M  V30 1290 H 117.486 4.05266 -0.934453 0
M  V30 1291 H 116.063 3.63133 0.847889 0
M  V30 1292 N 118.248 0.346503 1.53744 0
M  V30 1293 C 119.178 -0.501193 2.28058 0
M  V30 1294 C 120.159 -1.10014 1.29734 0
M  V30 1295 O 121.344 -1.12097 1.58581 0
M  V30 1296 C 118.474 -1.65078 3.05559 0
M  V30 1297 C 117.428 -1.18003 4.11411 0
M  V30 1298 C 116.754 -2.41837 4.76884 0
M  V30 1299 C 118.054 -0.278394 5.21558 0
M  V30 1300 H 119.748 0.11875 2.99164 0
M  V30 1301 H 117.294 0.0585531 1.43881 0
M  V30 1302 H 119.247 -2.25028 3.56287 0
M  V30 1303 H 117.971 -2.29767 2.32109 0
M  V30 1304 H 116.63 -0.603331 3.61601 0
M  V30 1305 H 116.278 -3.0494 4.00026 0
M  V30 1306 H 115.978 -2.1102 5.48402 0
M  V30 1307 H 117.502 -3.02508 5.30397 0
M  V30 1308 H 118.916 -0.784823 5.67903 0
M  V30 1309 H 117.313 -0.0619707 6.00068 0
M  V30 1310 H 118.383 0.684677 4.80042 0
M  V30 1311 N 119.726 -1.57421 0.075193 0
M  V30 1312 C 120.658 -2.09904 -0.920483 0
M  V30 1313 C 121.671 -1.03191 -1.25918 0
M  V30 1314 O 122.86 -1.30695 -1.21577 0
M  V30 1315 C 119.96 -2.54726 -2.23534 0
M  V30 1316 C 119.133 -3.8505 -2.07498 0
M  V30 1317 C 118.192 -4.15929 -3.22319 0
M  V30 1318 O 117.218 -4.85474 -2.9716 0
M  V30 1319 N 118.42 -3.69745 -4.47514 0
M  V30 1320 H 121.185 -2.95954 -0.472359 0
M  V30 1321 H 118.746 -1.61523 -0.110444 0
M  V30 1322 H 120.738 -2.72443 -2.9926 0
M  V30 1323 H 119.308 -1.73795 -2.59835 0
M  V30 1324 H 118.528 -3.76679 -1.16219 0
M  V30 1325 H 119.816 -4.70348 -1.94038 0
M  V30 1326 H 119.214 -3.13569 -4.7084 0
M  V30 1327 H 117.771 -3.92655 -5.20255 0
M  V30 1328 N 121.204 0.198386 -1.56346 0
M  V30 1329 C 122.151 1.24589 -1.94284 0
M  V30 1330 C 123.121 1.454 -0.802997 0
M  V30 1331 O 124.306 1.58588 -1.06087 0
M  V30 1332 C 121.446 2.58631 -2.28482 0
M  V30 1333 C 120.559 2.45426 -3.55514 0
M  V30 1334 C 119.694 3.7215 -3.79049 0
M  V30 1335 C 118.733 3.53763 -4.99518 0
M  V30 1336 N 117.87 4.72491 -5.19323 0
M  V30 1337 H 122.71 0.915356 -2.83593 0
M  V30 1338 H 120.247 0.440629 -1.40346 0
M  V30 1339 H 122.205 3.3672 -2.46324 0
M  V30 1340 H 120.835 2.89734 -1.42317 0
M  V30 1341 H 119.887 1.58652 -3.45737 0
M  V30 1342 H 121.199 2.27772 -4.43758 0
M  V30 1343 H 120.353 4.58679 -3.97113 0
M  V30 1344 H 119.092 3.92754 -2.89129 0
M  V30 1345 H 118.097 2.65619 -4.8138 0
M  V30 1346 H 119.322 3.34607 -5.90944 0
M  V30 1347 H 117.268 4.93365 -4.3235 0
M  V30 1348 H 117.185 4.5765 -6.01741 0
M  V30 1349 H 118.453 5.6038 -5.41843 0
M  V30 1350 N 122.682 1.50554 0.465978 0
M  V30 1351 C 123.928 1.62038 1.21949 0
M  V30 1352 C 124.261 0.322116 1.9151 0
M  V30 1353 O 123.536 -0.676723 1.82348 0
M  V30 1354 C 123.819 2.80421 2.25912 0
M  V30 1355 C 123.672 4.20144 1.60622 0
M  V30 1356 C 124.991 2.94354 3.27176 0
M  V30 1357 H 122.11 0.589752 0.441998 0
M  V30 1358 H 124.752 1.82956 0.51257 0
M  V30 1359 H 122.902 2.62717 2.86203 0
M  V30 1360 H 124.574 4.49449 1.03889 0
M  V30 1361 H 122.817 4.24165 0.909211 0
M  V30 1362 H 123.488 4.98914 2.36196 0
M  V30 1363 H 125.964 3.10578 2.76913 0
M  V30 1364 H 124.84 3.788 3.97242 0
M  V30 1365 H 125.101 2.05186 3.916 0
M  V30 1366 N 124.16 -0.719506 1.40217 0
M  V30 1367 C 125.407 -1.47933 1.38283 0
M  V30 1368 C 125.735 -1.94493 -0.0161536 0
M  V30 1369 O 124.99 -1.68224 -0.999956 0
M  V30 1370 C 125.289 -2.72271 2.31524 0
M  V30 1371 C 124.955 -2.44496 3.78857 0
M  V30 1372 C 123.617 -2.36631 4.18998 0
M  V30 1373 C 125.969 -2.21104 4.71977 0
M  V30 1374 C 123.297 -2.03437 5.503 0
M  V30 1375 C 125.649 -1.89423 6.03574 0
M  V30 1376 C 124.313 -1.80038 6.42762 0
M  V30 1377 H 123.583 -0.541325 0.506012 0
M  V30 1378 H 126.23 -0.824502 1.72842 0
M  V30 1379 H 124.535 -3.42572 1.90137 0
M  V30 1380 H 126.232 -3.30348 2.27313 0
M  V30 1381 H 122.822 -2.51503 3.47051 0
M  V30 1382 H 127.006 -2.26139 4.41786 0
M  V30 1383 H 122.262 -1.94705 5.79569 0
M  V30 1384 H 126.436 -1.70336 6.75247 0
M  V30 1385 H 124.063 -1.54083 7.44421 0
M  V30 1386 N 125.638 -1.25649 -0.95132 0
M  V30 1387 C 126.568 -1.08808 -2.06599 0
M  V30 1388 C 127.549 0.00382547 -1.701 0
M  V30 1389 O 128.734 -0.166325 -1.93486 0
M  V30 1390 C 125.864 -0.709542 -3.39975 0
M  V30 1391 C 124.818 -1.75206 -3.90496 0
M  V30 1392 C 124.144 -1.22811 -5.20405 0
M  V30 1393 C 125.444 -3.15153 -4.16504 0
M  V30 1394 H 127.138 -2.02048 -2.20946 0
M  V30 1395 H 124.684 -0.972835 -1.06169 0
M  V30 1396 H 126.637 -0.578649 -4.17408 0
M  V30 1397 H 125.361 0.258556 -3.25575 0
M  V30 1398 H 124.02 -1.87145 -3.15234 0
M  V30 1399 H 123.668 -0.250145 -5.02378 0
M  V30 1400 H 123.368 -1.92492 -5.55176 0
M  V30 1401 H 124.892 -1.10968 -6.00432 0
M  V30 1402 H 126.306 -3.06349 -4.84586 0
M  V30 1403 H 124.703 -3.82333 -4.62538 0
M  V30 1404 H 125.773 -3.61966 -3.22658 0
M  V30 1405 N 127.117 1.15442 -1.07289 0
M  V30 1406 C 128.342 1.90638 -0.816828 0
M  V30 1407 C 128.767 1.77445 0.624083 0
M  V30 1408 O 128.125 1.10671 1.43602 0
M  V30 1409 C 128.173 3.39008 -1.22906 0
M  V30 1410 O 127.277 4.10701 -0.373975 0
M  V30 1411 H 126.618 0.593555 -0.297638 0
M  V30 1412 H 129.148 1.46198 -1.43134 0
M  V30 1413 H 129.158 3.89801 -1.20497 0
M  V30 1414 H 127.833 3.47929 -2.27856 0
M  V30 1415 H 126.41 3.70046 -0.460499 0
M  V30 1416 N 128.595 0.856903 1.32268 0
M  V30 1417 C 129.545 0.274899 2.26337 0
M  V30 1418 C 130.529 -0.580543 1.50062 0
M  V30 1419 O 131.721 -0.429559 1.71708 0
M  V30 1420 C 128.85 -0.533841 3.39124 0
M  V30 1421 C 127.936 0.334114 4.22782 0
M  V30 1422 N 128.327 1.42143 4.85416 0
M  V30 1423 C 126.625 0.124256 4.45827 0
M  V30 1424 C 127.326 1.95559 5.47843 0
M  V30 1425 N 126.302 1.25444 5.28928 0
M  V30 1426 H 130.104 1.10612 2.72291 0
M  V30 1427 H 127.618 0.703258 1.46383 0
M  V30 1428 H 129.615 -0.96722 4.05525 0
M  V30 1429 H 128.275 -1.36283 2.94715 0
M  V30 1430 H 129.286 1.80436 4.85451 0
M  V30 1431 H 125.963 -0.669837 4.12092 0
M  V30 1432 H 127.353 2.86714 6.07655 0
M  V30 1433 N 130.073 -1.45103 0.615059 0
M  V30 1434 C 131.036 -2.29025 -0.0895485 0
M  V30 1435 C 132.036 -1.40174 -0.787906 0
M  V30 1436 O 133.226 -1.62217 -0.634933 0
M  V30 1437 C 130.358 -3.21376 -1.13711 0
M  V30 1438 H 131.551 -2.92807 0.648382 0
M  V30 1439 H 129.104 -1.51749 0.374444 0
M  V30 1440 H 129.839 -2.6241 -1.90556 0
M  V30 1441 H 129.624 -3.86834 -0.640475 0
M  V30 1442 H 131.114 -3.84459 -1.63036 0
M  V30 1443 N 131.551 -0.354651 -1.53558 0
M  V30 1444 C 132.828 0.294281 -1.93374 0
M  V30 1445 C 133.208 1.67313 -1.28723 0
M  V30 1446 O 132.556 2.24179 -0.442247 0
M  V30 1447 C 132.766 0.355445 -3.47185 0
M  V30 1448 C 134.114 0.601007 -4.20325 0
M  V30 1449 O 135.138 0.437106 -3.53508 0
M  V30 1450 O 133.997 0.919322 -5.38712 0
M  V30 1451 H 131.091 0.174033 -0.808481 0
M  V30 1452 H 133.637 -0.406638 -1.64756 0
M  V30 1453 H 132.409 -0.611729 -3.86489 0
M  V30 1454 H 132.032 1.1027 -3.82003 0
M  V30 1455 N 133.029 1.57378 -0.0835403 0
M  V30 1456 C 134.445 1.57246 0.273109 0
M  V30 1457 C 134.645 1.09385 1.69225 0
M  V30 1458 O 133.701 0.765051 2.40631 0
M  V30 1459 C 135.014 3.00614 0.0720628 0
M  V30 1460 C 136.562 3.12684 0.1407 0
M  V30 1461 C 137.037 4.57989 -0.0322094 0
M  V30 1462 N 138.528 4.63194 0.0230085 0
M  V30 1463 C 139.263 5.73335 -0.0861941 0
M  V30 1464 N 138.759 6.9235 -0.24958 0
M  V30 1465 N 140.552 5.62093 -0.0282886 0
M  V30 1466 H 132.703 1.86801 -1.0109 0
M  V30 1467 H 134.966 0.861687 -0.395222 0
M  V30 1468 H 134.672 3.39786 -0.907662 0
M  V30 1469 H 134.546 3.68193 0.81936 0
M  V30 1470 H 136.933 2.73391 1.11092 0
M  V30 1471 H 137.014 2.47719 -0.637896 0
M  V30 1472 H 136.658 4.97973 -0.999247 0
M  V30 1473 H 136.588 5.21 0.765937 0
M  V30 1474 H 139.079 3.77613 0.14722 0
M  V30 1475 H 139.392 7.72117 -0.324733 0
M  V30 1476 H 137.737 6.94415 -0.285097 0
M  V30 1477 H 140.928 4.67997 0.0981408 0
M  V30 1478 H 141.101 6.47895 -0.116845 0
M  V30 1479 N 134.507 -0.190092 1.56449 0
M  V30 1480 C 135.454 -1.23557 1.94942 0
M  V30 1481 C 136.424 -1.44972 0.810696 0
M  V30 1482 O 137.609 -1.58023 1.06927 0
M  V30 1483 C 134.749 -2.57416 2.2985 0
M  V30 1484 C 133.862 -2.43537 3.5681 0
M  V30 1485 C 132.997 -3.70134 3.81017 0
M  V30 1486 C 132.036 -3.51109 5.01387 0
M  V30 1487 N 131.173 -4.6973 5.21822 0
M  V30 1488 H 136.013 -0.900304 2.84075 0
M  V30 1489 H 133.55 -0.43318 1.40577 0
M  V30 1490 H 135.508 -3.35409 2.48106 0
M  V30 1491 H 134.138 -2.88975 1.43852 0
M  V30 1492 H 133.19 -1.56816 3.46573 0
M  V30 1493 H 134.502 -2.25415 4.4496 0
M  V30 1494 H 133.656 -4.56566 3.9954 0
M  V30 1495 H 132.395 -3.91215 2.91207 0
M  V30 1496 H 131.4 -2.63063 4.82782 0
M  V30 1497 H 132.625 -3.31468 5.9271 0
M  V30 1498 H 130.571 -4.91065 4.34961 0
M  V30 1499 H 130.488 -4.54452 6.0416 0
M  V30 1500 H 131.756 -5.57499 5.44808 0
M  V30 1501 N 135.985 -1.50799 -0.457987 0
M  V30 1502 C 137.231 -1.62683 -1.21088 0
M  V30 1503 C 137.564 -0.332268 -1.91336 0
M  V30 1504 O 136.839 0.667043 -1.82704 0
M  V30 1505 C 137.122 -2.81615 -2.24422 0
M  V30 1506 C 136.975 -4.20989 -1.58392 0
M  V30 1507 C 138.294 -2.96085 -3.2561 0
M  V30 1508 H 135.413 -0.592087 -0.438864 0
M  V30 1509 H 138.055 -1.83225 -0.50286 0
M  V30 1510 H 136.205 -2.64231 -2.84806 0
M  V30 1511 H 137.877 -4.49994 -1.01504 0
M  V30 1512 H 136.12 -4.24641 -0.886704 0
M  V30 1513 H 136.791 -5.0016 -2.33547 0
M  V30 1514 H 139.267 -3.12042 -2.75262 0
M  V30 1515 H 138.143 -3.80902 -3.95228 0
M  V30 1516 H 138.404 -2.0726 -3.90507 0
M  V30 1517 N 137.463 0.71206 -1.40597 0
M  V30 1518 C 138.709 1.47292 -1.40274 0
M  V30 1519 C 139.064 1.92399 -0.00576812 0
M  V30 1520 O 138.357 1.65507 0.965297 0
M  V30 1521 C 138.551 2.71039 -2.32965 0
M  V30 1522 C 138.38 2.38035 -3.81536 0
M  V30 1523 C 137.15 2.29203 -4.50327 0
M  V30 1524 C 139.348 2.02076 -4.72938 0
M  V30 1525 N 137.33 1.88911 -5.84111 0
M  V30 1526 C 138.701 1.72412 -5.95545 0
M  V30 1527 C 140.756 1.88742 -4.60739 0
M  V30 1528 C 139.459 1.30756 -7.07316 0
M  V30 1529 C 141.485 1.4849 -5.72455 0
M  V30 1530 C 140.847 1.19726 -6.94151 0
M  V30 1531 H 136.946 0.536919 -0.568544 0
M  V30 1532 H 139.53 0.825424 -1.76337 0
M  V30 1533 H 137.701 3.33533 -1.99023 0
M  V30 1534 H 139.433 3.37404 -2.23474 0
M  V30 1535 H 136.188 2.47059 -4.04053 0
M  V30 1536 H 136.612 1.71293 -6.54972 0
M  V30 1537 H 141.254 2.0964 -3.67166 0
M  V30 1538 H 138.972 1.08601 -8.00769 0
M  V30 1539 H 142.558 1.38747 -5.65014 0
M  V30 1540 H 141.438 0.890482 -7.79128 0
M  V30 1541 N 138.941 1.26152 0.944643 0
M  V30 1542 C 139.871 1.09902 2.06019 0
M  V30 1543 C 140.852 0.00519538 1.70099 0
M  V30 1544 O 142.037 0.176583 1.93396 0
M  V30 1545 C 139.167 0.727562 3.39594 0
M  V30 1546 C 138.121 1.77274 3.89561 0
M  V30 1547 C 137.447 1.25569 5.19747 0
M  V30 1548 C 138.747 3.17357 4.14827 0
M  V30 1549 H 140.441 2.03217 2.19871 0
M  V30 1550 H 137.987 0.978452 1.05652 0
M  V30 1551 H 139.94 0.600777 4.17095 0
M  V30 1552 H 138.664 -0.241287 3.25707 0
M  V30 1553 H 137.323 1.88814 3.14237 0
M  V30 1554 H 136.971 0.276783 5.02238 0
M  V30 1555 H 136.671 1.95433 5.54148 0
M  V30 1556 H 138.195 1.1415 5.99835 0
M  V30 1557 H 139.609 3.08914 4.82954 0
M  V30 1558 H 138.006 3.84781 4.60504 0
M  V30 1559 H 139.076 3.63673 3.20734 0
M  V30 1560 N 140.419 -1.14872 1.07899 0
M  V30 1561 C 141.349 -2.2193 0.725887 0
M  V30 1562 C 142.33 -1.67622 -0.28927 0
M  V30 1563 O 143.515 -1.93533 -0.160787 0
M  V30 1564 C 140.645 -3.47061 0.128856 0
M  V30 1565 C 139.599 -4.14363 1.07178 0
M  V30 1566 C 138.925 -5.33636 0.337229 0
M  V30 1567 C 140.225 -4.63492 2.40775 0
M  V30 1568 H 141.919 -2.51724 1.62097 0
M  V30 1569 H 139.465 -1.20991 0.780838 0
M  V30 1570 H 141.418 -4.21199 -0.130147 0
M  V30 1571 H 140.142 -3.16617 -0.80134 0
M  V30 1572 H 138.801 -3.42173 1.3158 0
M  V30 1573 H 138.449 -4.99449 -0.596606 0
M  V30 1574 H 138.149 -5.79609 0.965788 0
M  V30 1575 H 139.673 -6.10539 0.0861567 0
M  V30 1576 H 141.087 -5.2913 2.20669 0
M  V30 1577 H 139.484 -5.20148 2.99276 0
M  V30 1578 H 140.554 -3.78834 3.02676 0
M  V30 1579 N 141.898 -0.863906 -1.31812 0
M  V30 1580 C 143.145 -0.471836 -1.96926 0
M  V30 1581 C 143.473 0.974578 -1.68322 0
M  V30 1582 O 142.728 1.7003 -0.968933 0
M  V30 1583 C 143.027 -0.668547 -3.51091 0
M  V30 1584 C 142.693 -2.08683 -3.99703 0
M  V30 1585 C 141.355 -2.47471 -4.12688 0
M  V30 1586 C 143.707 -3.01207 -4.25351 0
M  V30 1587 C 141.035 -3.78037 -4.4867 0
M  V30 1588 C 143.387 -4.31282 -4.62794 0
M  V30 1589 C 142.051 -4.69992 -4.73987 0
M  V30 1590 H 141.321 -0.172657 -0.720604 0
M  V30 1591 H 143.968 -1.09573 -1.57054 0
M  V30 1592 H 142.273 0.0385252 -3.91781 0
M  V30 1593 H 143.97 -0.345102 -3.99512 0
M  V30 1594 H 140.56 -1.77566 -3.90087 0
M  V30 1595 H 144.744 -2.72469 -4.14819 0
M  V30 1596 H 140 -4.078 -4.55532 0
M  V30 1597 H 144.174 -5.03031 -4.81594 0
M  V30 1598 H 141.801 -5.71207 -5.01624 0
M  V30 1599 N 143.376 1.44774 -0.622745 0
M  V30 1600 C 144.653 1.95522 -0.0551974 0
M  V30 1601 C 145.033 1.5649 1.41683 0
M  V30 1602 O 144.381 0.834848 2.12703 0
M  V30 1603 C 144.591 3.4796 -0.269242 0
M  V30 1604 C 145.939 4.24306 -0.158014 0
M  V30 1605 O 146.963 3.55637 -0.200162 0
M  V30 1606 O 145.822 5.46471 -0.0558693 0
M  V30 1607 H 142.916 0.826556 0.0271015 0
M  V30 1608 H 145.462 1.54866 -0.693864 0
M  V30 1609 H 144.234 3.6939 -1.29099 0
M  V30 1610 H 143.857 3.95543 0.403966 0
M  V30 1611 N 144.854 0.36279 1.53368 0
M  V30 1612 C 146.084 -0.228281 2.05335 0
M  V30 1613 C 146.492 -1.43226 1.23625 0
M  V30 1614 O 145.835 -1.81717 0.269206 0
M  V30 1615 C 145.897 -0.688549 3.52845 0
M  V30 1616 C 145.561 0.398362 4.5526 0
M  V30 1617 C 146.558 1.24732 5.04716 0
M  V30 1618 C 144.243 0.557805 4.99193 0
M  V30 1619 C 146.237 2.2411 5.96702 0
M  V30 1620 C 143.924 1.55495 5.90986 0
M  V30 1621 C 144.922 2.39503 6.39631 0
M  V30 1622 O 144.61 3.37517 7.29615 0
M  V30 1623 H 144.342 -0.044395 0.674541 0
M  V30 1624 H 146.896 0.518668 1.98744 0
M  V30 1625 H 145.126 -1.48706 3.56964 0
M  V30 1626 H 146.815 -1.20231 3.87685 0
M  V30 1627 H 147.581 1.13532 4.71525 0
M  V30 1628 H 143.46 -0.0862959 4.60919 0
M  V30 1629 H 147.004 2.89718 6.34594 0
M  V30 1630 H 142.901 1.66744 6.23592 0
M  V30 1631 H 143.669 3.33213 7.47604 0
M  V30 1632 N 146.332 -1.57332 0.0918853 0
M  V30 1633 C 147.295 -2.12708 -0.85369 0
M  V30 1634 C 148.295 -1.05561 -1.213 0
M  V30 1635 O 149.485 -1.31461 -1.14296 0
M  V30 1636 C 146.617 -2.64503 -2.15061 0
M  V30 1637 H 147.81 -2.97573 -0.3729 0
M  V30 1638 H 145.363 -1.55509 -0.157072 0
M  V30 1639 H 146.098 -1.83149 -2.67632 0
M  V30 1640 H 145.883 -3.4284 -1.90272 0
M  V30 1641 H 147.373 -3.07351 -2.82711 0
M  V30 1642 N 147.81 0.181792 -1.56548 0
M  V30 1643 C 148.72 1.24538 -1.98815 0
M  V30 1644 C 149.736 1.49045 -0.897861 0
M  V30 1645 O 150.912 1.61399 -1.20467 0
M  V30 1646 C 147.977 2.56683 -2.33055 0
M  V30 1647 C 147.038 2.40131 -3.55859 0
M  V30 1648 C 146.271 3.65975 -3.88456 0
M  V30 1649 O 146.494 4.70711 -3.22161 0
M  V30 1650 O 145.428 3.6071 -4.81842 0
M  V30 1651 H 149.254 0.916647 -2.89536 0
M  V30 1652 H 146.839 0.387842 -1.44278 0
M  V30 1653 H 148.721 3.34655 -2.56094 0
M  V30 1654 H 147.396 2.89157 -1.45498 0
M  V30 1655 H 146.303 1.60226 -3.38051 0
M  V30 1656 H 147.636 2.12585 -4.43924 0
M  V30 1657 N 149.288 1.51039 0.449983 0
M  V30 1658 C 150.238 1.67824 1.54335 0
M  V30 1659 C 151.222 0.5324 1.51836 0
M  V30 1660 O 152.414 0.787762 1.58503 0
M  V30 1661 C 149.543 1.7951 2.92628 0
M  V30 1662 C 148.629 2.99838 2.9993 0
M  V30 1663 N 149.02 4.23207 2.77001 0
M  V30 1664 C 147.318 2.98832 3.31082 0
M  V30 1665 C 148.019 5.04361 2.89818 0
M  V30 1666 N 146.995 4.38746 3.2094 0
M  V30 1667 H 150.797 2.60884 1.35339 0
M  V30 1668 H 148.311 1.48513 0.657085 0
M  V30 1669 H 150.308 1.89642 3.7127 0
M  V30 1670 H 148.968 0.876227 3.12654 0
M  V30 1671 H 149.979 4.5236 2.52172 0
M  V30 1672 H 146.656 2.16527 3.56963 0
M  V30 1673 H 148.046 6.12528 2.76151 0
M  V30 1674 N 150.766 -0.704594 1.40972 0
M  V30 1675 C 152.043 -1.45847 1.30338 0
M  V30 1676 C 152.423 -2.10973 -0.0732344 0
M  V30 1677 O 151.771 -2.00997 -1.08685 0
M  V30 1678 C 151.981 -2.48525 2.45023 0
M  V30 1679 C 153.329 -3.1404 2.8577 0
M  V30 1680 O 154.353 -2.58848 2.44696 0
M  V30 1681 O 153.212 -4.13981 3.56766 0
M  V30 1682 H 150.306 -0.649092 0.512454 0
M  V30 1683 H 152.852 -0.735836 1.52917 0
M  V30 1684 H 151.624 -1.98994 3.36923 0
M  V30 1685 H 151.247 -3.2831 2.24272 0
M  V30 1686 N 152.244 -1.26651 -0.937939 0
M  V30 1687 C 153.174 -1.10993 -2.05433 0
M  V30 1688 C 154.155 -0.0142161 -1.70094 0
M  V30 1689 O 155.34 -0.186837 -1.93299 0
M  V30 1690 C 152.47 -0.745561 -3.39203 0
M  V30 1691 C 151.424 -1.79337 -3.88616 0
M  V30 1692 C 150.75 -1.28324 -5.19073 0
M  V30 1693 C 152.05 -3.19553 -4.13138 0
M  V30 1694 H 153.744 -2.0438 -2.1879 0
M  V30 1695 H 151.29 -0.984041 -1.05131 0
M  V30 1696 H 153.243 -0.622888 -4.16771 0
M  V30 1697 H 151.967 0.22401 -3.25831 0
M  V30 1698 H 150.626 -1.90477 -3.13231 0
M  V30 1699 H 150.274 -0.303414 -5.02084 0
M  V30 1700 H 149.974 -1.98369 -5.53103 0
M  V30 1701 H 151.498 -1.1733 -5.99221 0
M  V30 1702 H 152.912 -3.11471 -4.81309 0
M  V30 1703 H 151.309 -3.87218 -4.58457 0
M  V30 1704 H 152.379 -3.65368 -3.18801 0
M  V30 1705 N 153.722 1.14298 -1.08507 0
M  V30 1706 C 154.968 1.85854 -0.826438 0
M  V30 1707 C 155.323 1.81413 0.640878 0
M  V30 1708 O 154.616 1.23463 1.46518 0
M  V30 1709 C 154.81 3.33547 -1.28379 0
M  V30 1710 C 154.639 3.52369 -2.79403 0
M  V30 1711 C 153.409 3.67159 -3.47164 0
M  V30 1712 C 155.607 3.49203 -3.77573 0
M  V30 1713 N 153.589 3.74149 -4.86709 0
M  V30 1714 C 154.96 3.6245 -5.03021 0
M  V30 1715 C 157.015 3.32547 -3.70563 0
M  V30 1716 C 155.718 3.60761 -6.2229 0
M  V30 1717 C 157.744 3.32162 -4.89308 0
M  V30 1718 C 157.106 3.45949 -6.13595 0
M  V30 1719 H 153.205 0.696705 -0.355143 0
M  V30 1720 H 155.789 1.36981 -1.38362 0
M  V30 1721 H 153.96 3.81008 -0.754166 0
M  V30 1722 H 155.692 3.92867 -0.971469 0
M  V30 1723 H 152.447 3.68433 -2.9758 0
M  V30 1724 H 152.871 3.81359 -5.5937 0
M  V30 1725 H 157.513 3.20797 -2.75407 0
M  V30 1726 H 155.231 3.71286 -7.17755 0
M  V30 1727 H 158.817 3.20485 -4.85573 0
M  V30 1728 H 157.697 3.456 -7.03939 0
M  V30 1729 N 155.201 0.870884 1.31352 0
M  V30 1730 C 156.151 0.298889 2.26032 0
M  V30 1731 C 157.135 -0.564595 1.50669 0
M  V30 1732 O 158.327 -0.411323 1.72154 0
M  V30 1733 C 155.456 -0.497842 3.39671 0
M  V30 1734 C 154.542 0.378937 4.22404 0
M  V30 1735 N 154.933 1.47284 4.83881 0
M  V30 1736 C 153.231 0.171535 4.4567 0
M  V30 1737 C 153.932 2.01359 5.45738 0
M  V30 1738 N 152.908 1.31047 5.27568 0
M  V30 1739 H 156.71 1.13494 2.71102 0
M  V30 1740 H 154.224 0.718745 1.45629 0
M  V30 1741 H 156.221 -0.924155 4.06528 0
M  V30 1742 H 154.881 -1.33149 2.96144 0
M  V30 1743 H 155.892 1.85575 4.8351 0
M  V30 1744 H 152.569 -0.626091 4.12779 0
M  V30 1745 H 153.959 2.93143 6.0458 0
M  V30 1746 N 156.679 -1.44442 0.630414 0
M  V30 1747 C 157.928 -2.01267 0.132073 0
M  V30 1748 C 158.241 -1.50172 -1.25331 0
M  V30 1749 O 159.447 -1.9912 -1.84562 0
M  V30 1750 C 157.903 -3.59422 0.185362 0
M  V30 1751 C 157.511 -4.19514 1.57201 0
M  V30 1752 C 159.255 -4.23724 -0.256553 0
M  V30 1753 C 157.162 -5.69891 1.58045 0
M  V30 1754 H 156.092 -0.752619 0.0456092 0
M  V30 1755 H 158.743 -1.65666 0.789106 0
M  V30 1756 H 157.125 -3.92318 -0.538759 0
M  V30 1757 H 158.299 -3.98156 2.31966 0
M  V30 1758 H 156.614 -3.67496 1.95795 0
M  V30 1759 H 159.211 -5.34019 -0.269767 0
M  V30 1760 H 159.554 -3.96013 -1.28372 0
M  V30 1761 H 160.087 -3.95629 0.41505 0
M  V30 1762 H 156.826 -6.02336 2.58597 0
M  V30 1763 H 156.346 -5.93373 0.875725 0
M  V30 1764 H 158.025 -6.33515 1.31408 0
M  V30 1765 N 158.157 -0.370918 -1.53173 0
M  V30 1766 C 159.406 0.218249 -2.00516 0
M  V30 1767 C 159.719 1.49429 -1.26215 0
M  V30 1768 O 160.925 2.16239 -1.64174 0
M  V30 1769 C 159.381 0.43948 -3.57207 0
M  V30 1770 C 158.989 -0.822244 -4.4039 0
M  V30 1771 C 160.733 0.986012 -4.1289 0
M  V30 1772 C 158.64 -0.570304 -5.88644 0
M  V30 1773 H 157.57 0.0853333 -0.749156 0
M  V30 1774 H 160.221 -0.490483 -1.76823 0
M  V30 1775 H 158.603 1.20961 -3.77074 0
M  V30 1776 H 159.777 -1.59557 -4.32294 0
M  V30 1777 H 158.092 -1.29238 -3.95836 0
M  V30 1778 H 160.689 1.18991 -5.21292 0
M  V30 1779 H 161.032 1.94972 -3.6782 0
M  V30 1780 H 161.565 0.27592 -3.96842 0
M  V30 1781 H 158.304 -1.50449 -6.38001 0
M  V30 1782 H 157.824 0.164427 -5.99575 0
M  V30 1783 H 159.503 -0.19784 -6.46697 0
M  V30 1784 N 159.635 1.57281 -0.100228 0
M  V30 1785 C 160.582 2.14305 0.856858 0
M  V30 1786 C 161.552 1.06296 1.27634 0
M  V30 1787 O 162.737 1.34109 1.35718 0
M  V30 1788 C 159.877 2.73184 2.10866 0
M  V30 1789 C 158.99 3.95442 1.73925 0
M  V30 1790 C 158.125 4.42468 2.93931 0
M  V30 1791 C 157.164 5.57303 2.5314 0
M  V30 1792 N 156.301 5.99158 3.65997 0
M  V30 1793 H 161.141 2.95772 0.363726 0
M  V30 1794 H 158.678 1.46139 0.167858 0
M  V30 1795 H 160.636 3.05442 2.84185 0
M  V30 1796 H 159.266 1.94437 2.57671 0
M  V30 1797 H 158.318 3.69464 0.905554 0
M  V30 1798 H 159.63 4.78769 1.39935 0
M  V30 1799 H 158.784 4.76537 3.75496 0
M  V30 1800 H 157.523 3.58052 3.31134 0
M  V30 1801 H 156.528 5.22857 1.70003 0
M  V30 1802 H 157.753 6.43471 2.17075 0
M  V30 1803 H 155.699 5.17687 4.02909 0
M  V30 1804 H 155.616 6.77295 3.35869 0
M  V30 1805 H 156.884 6.3786 4.48057 0
M  V30 1806 N 161.113 -0.173488 1.56642 0
M  V30 1807 C 162.36 -0.890465 1.81871 0
M  V30 1808 C 162.688 -1.82339 0.67696 0
M  V30 1809 O 161.943 -1.92795 -0.335926 0
M  V30 1810 C 162.242 -1.72069 3.13252 0
M  V30 1811 C 161.908 -0.936878 4.41059 0
M  V30 1812 C 160.57 -0.720545 4.75775 0
M  V30 1813 C 162.922 -0.386919 5.19762 0
M  V30 1814 C 160.25 0.0568829 5.86672 0
M  V30 1815 C 162.602 0.37741 6.31473 0
M  V30 1816 C 161.266 0.604563 6.64757 0
M  V30 1817 H 160.536 -0.325844 0.665512 0
M  V30 1818 H 163.183 -0.155527 1.90867 0
M  V30 1819 H 161.488 -2.52496 2.99588 0
M  V30 1820 H 163.185 -2.27844 3.29982 0
M  V30 1821 H 159.775 -1.11553 4.13828 0
M  V30 1822 H 163.959 -0.541398 4.93338 0
M  V30 1823 H 159.215 0.242635 6.10918 0
M  V30 1824 H 163.389 0.810825 6.91664 0
M  V30 1825 H 161.016 1.20885 7.50527 0
M  V30 1826 N 162.591 -1.51276 -0.441967 0
M  V30 1827 C 163.541 -1.6864 -1.53442 0
M  V30 1828 C 164.525 -0.540444 -1.51552 0
M  V30 1829 O 165.717 -0.796157 -1.58083 0
M  V30 1830 C 162.846 -1.8106 -2.91672 0
M  V30 1831 C 161.932 -3.01424 -2.98336 0
M  V30 1832 N 162.323 -4.2467 -2.74752 0
M  V30 1833 C 160.621 -3.00584 -3.29493 0
M  V30 1834 C 161.322 -5.05891 -2.87139 0
M  V30 1835 N 160.298 -4.40442 -3.18609 0
M  V30 1836 H 164.1 -2.61598 -1.33954 0
M  V30 1837 H 161.614 -1.4886 -0.6492 0
M  V30 1838 H 163.611 -1.91609 -3.70259 0
M  V30 1839 H 162.271 -0.892795 -3.12185 0
M  V30 1840 H 163.282 -4.53691 -2.49769 0
M  V30 1841 H 159.959 -2.18417 -3.55809 0
M  V30 1842 H 161.349 -6.13983 -2.72899 0
M  V30 1843 N 164.069 0.697108 -1.41344 0
M  V30 1844 C 165.485 1.00751 -1.2378 0
M  V30 1845 C 165.685 2.01105 -0.126066 0
M  V30 1846 O 164.741 2.47295 0.51004 0
M  V30 1847 C 166.054 1.53359 -2.58653 0
M  V30 1848 C 167.602 1.6525 -2.65822 0
M  V30 1849 C 168.077 2.2126 -4.01009 0
M  V30 1850 N 169.568 2.28622 -4.02847 0
M  V30 1851 C 170.303 2.72984 -5.04249 0
M  V30 1852 N 169.799 3.16962 -6.16041 0
M  V30 1853 N 171.592 2.72534 -4.91611 0
M  V30 1854 H 163.743 0.0322662 -2.12375 0
M  V30 1855 H 166.006 0.0768853 -0.944877 0
M  V30 1856 H 165.712 0.870773 -3.4075 0
M  V30 1857 H 165.586 2.51597 -2.81032 0
M  V30 1858 H 167.973 2.30644 -1.84086 0
M  V30 1859 H 168.054 0.655614 -2.47256 0
M  V30 1860 H 167.698 1.56482 -4.83193 0
M  V30 1861 H 167.628 3.21698 -4.16915 0
M  V30 1862 H 170.119 1.97585 -3.22131 0
M  V30 1863 H 170.432 3.49434 -6.89287 0
M  V30 1864 H 168.777 3.14875 -6.1958 0
M  V30 1865 H 171.968 2.37525 -4.0336 0
M  V30 1866 H 172.141 3.06789 -5.70775 0
M  V30 1867 N 165.547 1.27147 0.931209 0
M  V30 1868 C 166.51 1.09615 2.01289 0
M  V30 1869 C 167.51 0.0412581 1.60747 0
M  V30 1870 O 168.7 0.285545 1.71844 0
M  V30 1871 C 165.832 0.669447 3.34262 0
M  V30 1872 H 167.025 2.05662 2.18273 0
M  V30 1873 H 164.578 1.09885 1.11153 0
M  V30 1874 H 165.313 -0.292572 3.22978 0
M  V30 1875 H 165.098 1.43127 3.65044 0
M  V30 1876 H 166.588 0.568921 4.13706 0
M  V30 1877 N 167.025 -1.13721 1.09112 0
M  V30 1878 C 168.25 -1.89314 0.847053 0
M  V30 1879 C 168.675 -1.78416 -0.595774 0
M  V30 1880 O 168.033 -1.12942 -1.41823 0
M  V30 1881 C 168.081 -3.3701 1.28284 0
M  V30 1882 O 167.185 -4.10054 0.439267 0
M  V30 1883 H 166.526 -0.588745 0.307044 0
M  V30 1884 H 169.056 -1.43902 1.45442 0
M  V30 1885 H 169.066 -3.87834 1.26683 0
M  V30 1886 H 167.741 -3.4426 2.33363 0
M  V30 1887 H 166.318 -3.69266 0.519312 0
M  V30 1888 N 168.503 -0.877838 -1.30888 0
M  V30 1889 C 169.45 -0.337538 -2.28318 0
M  V30 1890 C 170.42 0.568346 -1.56074 0
M  V30 1891 O 171.605 0.498298 -1.84178 0
M  V30 1892 C 168.745 0.448142 -3.42178 0
M  V30 1893 C 167.858 -0.48615 -4.29256 0
M  V30 1894 C 166.993 0.314427 -5.30269 0
M  V30 1895 C 166.032 -0.615791 -6.08995 0
M  V30 1896 N 165.169 0.14902 -7.01942 0
M  V30 1897 H 170.009 -1.17356 -2.73919 0
M  V30 1898 H 167.546 -0.590094 -1.34745 0
M  V30 1899 H 169.504 0.919517 -4.06941 0
M  V30 1900 H 168.134 1.24879 -2.97666 0
M  V30 1901 H 167.186 -1.076 -3.64865 0
M  V30 1902 H 168.498 -1.19909 -4.84173 0
M  V30 1903 H 167.652 0.847969 -6.00745 0
M  V30 1904 H 166.391 1.06062 -4.76027 0
M  V30 1905 H 165.396 -1.16102 -5.37401 0
M  V30 1906 H 166.621 -1.36097 -6.65323 0
M  V30 1907 H 164.567 0.877884 -6.50099 0
M  V30 1908 H 164.484 -0.504433 -7.54315 0
M  V30 1909 H 165.752 0.663537 -7.76671 0
M  V30 1910 N 169.982 1.44106 -0.638065 0
M  V30 1911 C 170.945 2.29138 0.0531013 0
M  V30 1912 C 171.945 1.41409 0.765506 0
M  V30 1913 O 173.135 1.63206 0.609046 0
M  V30 1914 C 170.267 3.23144 1.08584 0
M  V30 1915 H 171.46 2.91739 -0.694883 0
M  V30 1916 H 169.013 1.51134 -0.398538 0
M  V30 1917 H 169.748 2.65408 1.86357 0
M  V30 1918 H 169.533 3.87804 0.578852 0
M  V30 1919 H 171.023 3.87004 1.56899 0
M  V30 1920 N 171.46 0.379036 1.52974 0
M  V30 1921 C 172.408 -0.476033 2.27677 0
M  V30 1922 C 173.402 -1.0719 1.31174 0
M  V30 1923 O 174.608 -1.01355 1.48752 0
M  V30 1924 H 170.983 -0.172255 0.732006 0
M  V30 1925 H 172.954 0.175615 2.97883 0
M  V30 1926 C 171.703 -1.5967 3.0887 0
M  V30 1927 H 171.026 -1.1475 3.82978 0
M  V30 1928 H 172.466 -2.16943 3.64296 0
M  V30 1929 C 170.925 -2.54682 2.20542 0
M  V30 1930 O 171.455 -3.57836 1.82527 0
M  V30 1931 N 169.661 -2.24183 1.84907 0
M  V30 1932 H 169.208 -1.40333 2.1602 0
M  V30 1933 H 169.166 -2.88006 1.26096 0
M  V30 1934 N 172.938 -1.57226 0.108567 0
M  V30 1935 C 173.885 -2.14756 -0.845481 0
M  V30 1936 C 174.855 -1.06971 -1.27068 0
M  V30 1937 O 176.04 -1.34827 -1.35005 0
M  V30 1938 C 173.18 -2.74298 -2.09415 0
M  V30 1939 C 172.293 -3.96358 -1.71826 0
M  V30 1940 C 171.428 -4.44021 -2.9158 0
M  V30 1941 C 170.467 -5.58637 -2.50181 0
M  V30 1942 N 169.604 -6.01091 -3.62814 0
M  V30 1943 H 174.444 -2.95961 -0.348035 0
M  V30 1944 H 171.981 -1.46226 -0.160106 0
M  V30 1945 H 173.939 -3.06945 -2.82561 0
M  V30 1946 H 172.569 -1.95801 -2.56636 0
M  V30 1947 H 171.621 -3.69939 -0.885947 0
M  V30 1948 H 172.933 -4.79504 -1.37394 0
M  V30 1949 H 172.087 -4.78522 -3.72963 0
M  V30 1950 H 170.826 -3.59803 -3.29231 0
M  V30 1951 H 169.831 -5.23751 -1.67228 0
M  V30 1952 H 171.056 -6.44613 -2.13659 0
M  V30 1953 H 169.002 -5.19817 -4.00158 0
M  V30 1954 H 168.919 -6.79066 -3.32273 0
M  V30 1955 H 170.187 -6.40227 -4.44668 0
M  V30 1956 N 174.416 0.165178 -1.56732 0
M  V30 1957 C 175.363 1.2044 -1.96883 0
M  V30 1958 C 176.333 1.43664 -0.833657 0
M  V30 1959 O 177.518 1.56302 -1.09427 0
M  V30 1960 C 174.658 2.53727 -2.33916 0
M  V30 1961 C 173.771 2.3783 -3.6064 0
M  V30 1962 C 172.906 3.64026 -3.86857 0
M  V30 1963 C 171.945 3.43088 -5.06909 0
M  V30 1964 N 171.082 4.61369 -5.29229 0
M  V30 1965 H 175.922 0.854996 -2.85471 0
M  V30 1966 H 173.459 0.41076 -1.41249 0
M  V30 1967 H 175.417 3.31419 -2.53411 0
M  V30 1968 H 174.047 2.8665 -1.48431 0
M  V30 1969 H 173.099 1.51282 -3.49024 0
M  V30 1970 H 174.411 2.18308 -4.4849 0
M  V30 1971 H 173.565 4.50152 -4.06753 0
M  V30 1972 H 172.304 3.86533 -2.97394 0
M  V30 1973 H 171.309 2.55349 -4.86906 0
M  V30 1974 H 172.534 3.21997 -5.97909 0
M  V30 1975 H 170.48 4.84084 -4.42718 0
M  V30 1976 H 170.397 4.44783 -6.11313 0
M  V30 1977 H 171.665 5.48761 -5.53608 0
M  V30 1978 N 175.894 1.51508 0.433938 0
M  V30 1979 C 177.305 1.56784 1.01369 0
M  V30 1980 C 177.656 0.393349 1.92217 0
M  V30 1981 O 176.781 -0.489441 2.10792 0
M  V30 1982 C 177.376 2.84144 1.8452 0
M  V30 1983 C 175.935 2.9198 2.37539 0
M  V30 1984 C 175.082 2.51482 1.16843 0
M  V30 1985 H 178.033 1.57236 0.215081 0
M  V30 1986 H 178.054 2.68098 2.70007 0
M  V30 1987 H 177.566 3.69607 1.18373 0
M  V30 1988 H 175.667 2.10955 3.0713 0
M  V30 1989 H 175.78 3.95704 2.70103 0
M  V30 1990 H 174.144 2.04758 1.51481 0
M  V30 1991 H 174.927 3.39293 0.523015 0
M  V30 1992 N 177.372 -0.689602 1.41712 0
M  V30 1993 C 178.618 -1.45181 1.41599 0
M  V30 1994 C 178.951 -1.94181 0.0270081 0
M  V30 1995 O 178.226 -1.6993 -0.946265 0
M  V30 1996 C 178.509 -2.65945 2.42787 0
M  V30 1997 C 178.362 -2.22672 3.90816 0
M  V30 1998 C 179.681 -3.68149 2.41151 0
M  V30 1999 H 176.8 -0.526576 0.515642 0
M  V30 2000 H 179.442 -0.784947 1.73028 0
M  V30 2001 H 177.592 -3.2284 2.16116 0
M  V30 2002 H 179.264 -1.71058 4.28412 0
M  V30 2003 H 177.507 -1.54394 4.05395 0
M  V30 2004 H 178.178 -3.0935 4.57172 0
M  V30 2005 H 180.654 -3.2094 2.64834 0
M  V30 2006 H 179.53 -4.50248 3.13955 0
M  V30 2007 H 179.791 -4.18259 1.43221 0
M  V30 2008 N 178.85 -1.27639 -0.924453 0
M  V30 2009 C 179.782 -1.06442 -2.02985 0
M  V30 2010 C 180.795 -0.0194771 -1.62788 0
M  V30 2011 O 181.984 -0.261388 -1.76576 0
M  V30 2012 C 179.084 -0.59327 -3.33667 0
M  V30 2013 C 178.257 -1.71123 -4.02537 0
M  V30 2014 C 177.316 -1.23527 -5.11495 0
M  V30 2015 O 176.342 -1.93553 -5.35281 0
M  V30 2016 N 177.544 -0.0926678 -5.80426 0
M  V30 2017 H 180.309 -2.01633 -2.2173 0
M  V30 2018 H 177.87 -1.19248 -1.09505 0
M  V30 2019 H 179.862 -0.258686 -4.03872 0
M  V30 2020 H 178.432 0.265502 -3.1147 0
M  V30 2021 H 177.652 -2.21593 -3.26022 0
M  V30 2022 H 178.94 -2.46145 -4.45298 0
M  V30 2023 H 178.338 0.491741 -5.63559 0
M  V30 2024 H 176.895 0.182714 -6.51544 0
M  V30 2025 N 180.328 1.1314 -1.09713 0
M  V30 2026 C 181.258 2.20748 -0.761102 0
M  V30 2027 C 182.239 1.68061 0.262566 0
M  V30 2028 O 183.424 1.93765 0.129977 0
M  V30 2029 C 180.554 3.46812 -0.184054 0
M  V30 2030 C 179.508 4.12606 -1.13757 0
M  V30 2031 C 178.834 5.33031 -0.422083 0
M  V30 2032 C 180.134 4.59603 -2.48118 0
M  V30 2033 H 181.828 2.49113 -1.66082 0
M  V30 2034 H 179.374 1.19734 -0.799987 0
M  V30 2035 H 181.327 4.21353 0.0631215 0
M  V30 2036 H 180.051 3.17851 0.750868 0
M  V30 2037 H 178.71 3.40036 -1.37007 0
M  V30 2038 H 178.358 5.00335 0.517072 0
M  V30 2039 H 178.058 5.77999 -1.05788 0
M  V30 2040 H 179.582 6.10325 -0.183277 0
M  V30 2041 H 180.996 5.25552 -2.29059 0
M  V30 2042 H 179.393 5.15321 -3.07514 0
M  V30 2043 H 180.463 3.73971 -3.08665 0
M  V30 2044 N 181.806 0.884767 1.30421 0
M  V30 2045 C 183.217 0.553656 1.78302 0
M  V30 2046 C 183.568 -0.930153 1.7275 0
M  V30 2047 O 182.693 -1.72681 1.30423 0
M  V30 2048 C 183.288 0.998234 3.2376 0
M  V30 2049 C 181.847 0.71854 3.69478 0
M  V30 2050 C 180.994 1.18132 2.50879 0
M  V30 2051 H 183.945 1.06901 1.17294 0
M  V30 2052 H 183.966 0.327118 3.79091 0
M  V30 2053 H 183.478 2.0782 3.27769 0
M  V30 2054 H 181.579 -0.349444 3.70958 0
M  V30 2055 H 181.692 1.30595 4.60958 0
M  V30 2056 H 180.056 0.600669 2.47516 0
M  V30 2057 H 180.839 2.26902 2.57624 0
M  V30 2058 N 183.284 -1.43765 0.645699 0
M  V30 2059 C 184.7 -1.56509 0.312591 0
M  V30 2060 C 184.9 -1.6307 -1.18365 0
M  V30 2061 O 183.956 -1.58167 -1.96824 0
M  V30 2062 C 185.269 -2.82968 1.01733 0
M  V30 2063 C 186.817 -2.96701 0.996865 0
M  V30 2064 C 187.292 -4.25982 1.68236 0
M  V30 2065 N 188.783 -4.32829 1.64964 0
M  V30 2066 C 189.518 -5.31613 2.14885 0
M  V30 2067 N 189.014 -6.36718 2.73061 0
M  V30 2068 N 190.807 -5.23217 2.05428 0
M  V30 2069 H 182.958 -1.3775 1.61675 0
M  V30 2070 H 185.221 -0.661067 0.679481 0
M  V30 2071 H 184.927 -2.84156 2.0724 0
M  V30 2072 H 184.801 -3.72957 0.564177 0
M  V30 2073 H 187.188 -2.95058 -0.0497719 0
M  V30 2074 H 187.269 -2.08022 1.48865 0
M  V30 2075 H 186.913 -4.28386 2.72852 0
M  V30 2076 H 186.843 -5.13545 1.16529 0
M  V30 2077 H 189.334 -3.57493 1.22503 0
M  V30 2078 H 189.647 -7.08401 3.08848 0
M  V30 2079 H 187.992 -6.37362 2.77118 0
M  V30 2080 H 191.183 -4.40019 1.59689 0
M  V30 2081 H 191.356 -6.00045 2.44643 0
M  V30 2082 N 184.763 -0.387143 -1.52771 0
M  V30 2083 C 186.011 0.195349 -2.01154 0
M  V30 2084 C 186.332 1.475 -1.27549 0
M  V30 2085 O 185.602 1.91878 -0.394924 0
M  V30 2086 H 184.182 0.075178 -0.743207 0
M  V30 2087 H 186.844 -0.518337 -1.87881 0
M  V30 2088 H 185.94 0.407096 -3.09434 0
M  V30 2089 N 186.241 1.57166 -0.116904 0
M  V30 2090 C 187.174 2.10912 0.871291 0
M  V30 2091 C 188.152 1.025 1.26224 0
M  V30 2092 O 189.336 1.3014 1.36366 0
M  V30 2093 C 186.463 2.6041 2.16574 0
M  V30 2094 C 185.509 3.80687 1.92302 0
M  V30 2095 S 186.342 5.23199 1.14119 0
M  V30 2096 C 187.498 5.76064 2.44748 0
M  V30 2097 H 187.731 2.94401 0.414138 0
M  V30 2098 H 185.264 1.54096 0.096829 0
M  V30 2099 H 187.222 2.89583 2.9095 0
M  V30 2100 H 185.883 1.77106 2.59408 0
M  V30 2101 H 185.076 4.13462 2.8821 0
M  V30 2102 H 184.678 3.5212 1.26047 0
M  V30 2103 H 186.97 5.8566 3.406 0
M  V30 2104 H 187.913 6.74184 2.16521 0
M  V30 2105 H 188.321 5.04117 2.54019 0
M  V30 2106 N 187.719 -0.156864 1.56817 0
M  V30 2107 C 188.965 -0.872416 1.83076 0
M  V30 2108 C 189.298 -1.81261 0.697001 0
M  V30 2109 O 188.573 -1.92171 -0.30008 0
M  V30 2110 C 188.856 -1.65551 3.19789 0
M  V30 2111 C 188.709 -0.737467 4.43713 0
M  V30 2112 C 190.028 -2.62012 3.53606 0
M  V30 2113 H 187.147 -0.315715 0.665953 0
M  V30 2114 H 189.789 -0.138004 1.89498 0
M  V30 2115 H 187.939 -2.28159 3.14445 0
M  V30 2116 H 189.611 -0.123143 4.61136 0
M  V30 2117 H 187.854 -0.0464067 4.33775 0
M  V30 2118 H 188.525 -1.32122 5.35955 0
M  V30 2119 H 191.001 -2.09525 3.59497 0
M  V30 2120 H 189.877 -3.13861 4.50314 0
M  V30 2121 H 190.138 -3.42902 2.79053 0
M  V30 2122 N 189.197 -1.51736 -0.425897 0
M  V30 2123 C 190.144 -1.73875 -1.51776 0
M  V30 2124 C 191.114 -0.580702 -1.55618 0
M  V30 2125 O 192.299 -0.81641 -1.72451 0
M  V30 2126 C 189.439 -1.88012 -2.89388 0
M  V30 2127 C 188.552 -3.15606 -2.94986 0
M  V30 2128 C 187.687 -3.20271 -4.23793 0
M  V30 2129 C 186.726 -4.42134 -4.23302 0
M  V30 2130 N 185.863 -4.44284 -5.43651 0
M  V30 2131 H 190.703 -2.67071 -1.32201 0
M  V30 2132 H 188.24 -1.32351 -0.642008 0
M  V30 2133 H 190.198 -1.9419 -3.69251 0
M  V30 2134 H 188.828 -0.98213 -3.07496 0
M  V30 2135 H 187.88 -3.18681 -2.07717 0
M  V30 2136 H 189.192 -4.05486 -2.90486 0
M  V30 2137 H 188.346 -3.25428 -5.12036 0
M  V30 2138 H 187.085 -2.28299 -4.30965 0
M  V30 2139 H 186.09 -4.3714 -3.3345 0
M  V30 2140 H 187.315 -5.35382 -4.17783 0
M  V30 2141 H 185.261 -3.55188 -5.51523 0
M  V30 2142 H 185.178 -5.27988 -5.41078 0
M  V30 2143 H 186.446 -4.53649 -6.33895 0
M  V30 2144 N 190.675 0.682077 -1.42076 0
M  V30 2145 C 191.9 1.47558 -1.45744 0
M  V30 2146 C 192.325 1.87977 -0.0680981 0
M  V30 2147 O 191.683 1.55522 0.9318 0
M  V30 2148 C 191.731 2.70575 -2.38373 0
M  V30 2149 O 190.835 3.68573 -1.85007 0
M  V30 2150 H 190.176 0.443585 -0.494093 0
M  V30 2151 H 192.706 0.837238 -1.86686 0
M  V30 2152 H 192.716 3.18729 -2.54707 0
M  V30 2153 H 191.391 2.40495 -3.39315 0
M  V30 2154 H 189.968 3.2757 -1.78192 0
M  V30 2155 N 192.153 1.28127 0.917671 0
M  V30 2156 C 193.083 1.14248 2.03641 0
M  V30 2157 C 194.064 0.0412748 1.7005 0
M  V30 2158 O 195.249 0.217566 1.92977 0
M  V30 2159 C 192.379 0.799431 3.37974 0
M  V30 2160 C 191.333 1.85497 3.85713 0
M  V30 2161 C 190.659 1.36565 5.16966 0
M  V30 2162 C 191.959 3.26085 4.08002 0
M  V30 2163 H 193.653 2.07835 2.15511 0
M  V30 2164 H 191.199 1.00064 1.03553 0
M  V30 2165 H 193.152 0.689114 4.15727 0
M  V30 2166 H 191.876 -0.172145 3.26146 0
M  V30 2167 H 190.535 1.95437 3.10161 0
M  V30 2168 H 190.183 0.383253 5.01538 0
M  V30 2169 H 189.883 2.07143 5.49878 0
M  V30 2170 H 191.407 1.26848 5.97279 0
M  V30 2171 H 192.821 3.19089 4.76293 0
M  V30 2172 H 191.218 3.94462 4.52238 0
M  V30 2173 H 192.288 3.70394 3.12948 0
M  V30 2174 N 193.631 -1.12557 1.10312 0
M  V30 2175 C 194.561 -2.20341 0.772798 0
M  V30 2176 C 195.542 -1.68198 -0.25365 0
M  V30 2177 O 196.727 -1.93831 -0.119699 0
M  V30 2178 C 193.857 -3.46709 0.202443 0
M  V30 2179 C 192.811 -4.11996 1.15943 0
M  V30 2180 C 192.137 -5.328 0.450345 0
M  V30 2181 C 193.437 -4.5828 2.50552 0
M  V30 2182 H 195.131 -2.48229 1.674 0
M  V30 2183 H 192.677 -1.19308 0.806326 0
M  V30 2184 H 194.63 -4.2138 -0.0407752 0
M  V30 2185 H 193.354 -3.18245 -0.734001 0
M  V30 2186 H 192.013 -3.39305 1.38808 0
M  V30 2187 H 191.661 -5.00602 -0.490531 0
M  V30 2188 H 191.361 -5.7743 1.08851 0
M  V30 2189 H 192.885 -6.10219 0.215642 0
M  V30 2190 H 194.299 -5.2433 2.31843 0
M  V30 2191 H 192.696 -5.13683 3.10242 0
M  V30 2192 H 193.766 -3.72329 3.10643 0
M  V30 2193 N 195.109 -0.891671 -1.2995 0
M  V30 2194 C 196.339 -0.527893 -1.99742 0
M  V30 2195 C 196.747 0.88979 -1.66971 0
M  V30 2196 O 196.09 1.59766 -0.906667 0
M  V30 2197 C 196.152 -0.630804 -3.53922 0
M  V30 2198 C 195.816 -2.01401 -4.10228 0
M  V30 2199 C 196.813 -2.98422 -4.25724 0
M  V30 2200 C 194.498 -2.32121 -4.45449 0
M  V30 2201 C 196.492 -4.24293 -4.75662 0
M  V30 2202 C 194.179 -3.58237 -4.95086 0
M  V30 2203 C 195.177 -4.54137 -5.10146 0
M  V30 2204 O 194.865 -5.78014 -5.58708 0
M  V30 2205 H 194.597 -0.201953 -0.645129 0
M  V30 2206 H 197.151 -1.20076 -1.66646 0
M  V30 2207 H 195.381 0.0990616 -3.86573 0
M  V30 2208 H 197.07 -0.277338 -4.04951 0
M  V30 2209 H 197.836 -2.76001 -3.98809 0
M  V30 2210 H 193.715 -1.5824 -4.32991 0
M  V30 2211 H 197.259 -4.99153 -4.87332 0
M  V30 2212 H 193.156 -3.80491 -5.21437 0
M  V30 2213 H 193.924 -5.8049 -5.77039 0
M  V30 2214 N 196.587 1.43421 -0.653314 0
M  V30 2215 C 197.519 2.29071 0.0769134 0
M  V30 2216 C 198.532 1.42513 0.787017 0
M  V30 2217 O 199.721 1.66449 0.644757 0
M  V30 2218 C 196.821 3.19436 1.13199 0
M  V30 2219 C 195.994 4.34533 0.500006 0
M  V30 2220 C 195.053 5.05771 1.45198 0
M  V30 2221 O 194.079 5.61037 0.960538 0
M  V30 2222 N 195.281 5.0928 2.78594 0
M  V30 2223 H 198.046 2.92382 -0.658235 0
M  V30 2224 H 195.607 1.54112 -0.496104 0
M  V30 2225 H 197.599 3.63958 1.76964 0
M  V30 2226 H 196.169 2.57724 1.7691 0
M  V30 2227 H 195.389 3.92925 -0.316738 0
M  V30 2228 H 196.677 5.08766 0.0588345 0
M  V30 2229 H 196.075 4.65751 3.2108 0
M  V30 2230 H 194.632 5.57519 3.37662 0
M  V30 2231 N 198.065 0.39524 1.52563 0
M  V30 2232 C 199.314 -0.186321 2.00838 0
M  V30 2233 C 199.627 -1.47402 1.28577 0
M  V30 2234 O 200.833 -2.13599 1.67593 0
M  V30 2235 C 199.289 -0.382595 3.57861 0
M  V30 2236 C 198.897 0.892202 4.39026 0
M  V30 2237 C 200.641 -0.9202 4.14406 0
M  V30 2238 C 198.548 0.66388 5.87662 0
M  V30 2239 H 197.478 -0.0734041 0.750418 0
M  V30 2240 H 200.129 0.518552 1.76021 0
M  V30 2241 H 198.511 -1.14946 3.7895 0
M  V30 2242 H 199.685 1.66414 4.29701 0
M  V30 2243 H 198 1.35519 3.9373 0
M  V30 2244 H 200.597 -1.10683 5.23119 0
M  V30 2245 H 200.94 -1.89096 3.70875 0
M  V30 2246 H 201.473 -0.212751 3.97231 0
M  V30 2247 H 198.212 1.6058 6.35527 0
M  V30 2248 H 197.732 -0.0690193 5.9976 0
M  V30 2249 H 199.411 0.300699 6.46301 0
M  V30 2250 N 199.544 -1.57102 0.125237 0
M  V30 2251 C 200.474 -2.18659 -0.819174 0
M  V30 2252 C 201.455 -1.12843 -1.27281 0
M  V30 2253 O 202.64 -1.41104 -1.33429 0
M  V30 2254 C 199.77 -2.79096 -2.06695 0
M  V30 2255 C 198.724 -3.90548 -1.75088 0
M  V30 2256 C 198.05 -4.37821 -3.06948 0
M  V30 2257 C 199.35 -5.12356 -1.01435 0
M  V30 2258 H 201.044 -2.9783 -0.306202 0
M  V30 2259 H 198.59 -1.4326 -0.145839 0
M  V30 2260 H 200.543 -3.2082 -2.73226 0
M  V30 2261 H 199.267 -1.97223 -2.60328 0
M  V30 2262 H 197.926 -3.49409 -1.10944 0
M  V30 2263 H 197.574 -3.52799 -3.58527 0
M  V30 2264 H 197.274 -5.12982 -2.86571 0
M  V30 2265 H 198.798 -4.822 -3.74587 0
M  V30 2266 H 200.212 -5.5106 -1.58132 0
M  V30 2267 H 198.609 -5.9314 -0.911319 0
M  V30 2268 H 199.679 -4.849 -0.00218681 0
M  V30 2269 N 201.022 0.148545 -1.56898 0
M  V30 2270 C 202.299 0.890019 -1.74178 0
M  V30 2271 C 202.679 1.99407 -0.692839 0
M  V30 2272 O 202.027 2.26671 0.288505 0
M  V30 2273 C 202.237 1.43389 -3.18183 0
M  V30 2274 C 203.585 1.89791 -3.79822 0
M  V30 2275 O 204.609 1.53134 -3.21603 0
M  V30 2276 O 203.468 2.57387 -4.82093 0
M  V30 2277 H 200.562 0.420496 -0.712118 0
M  V30 2278 H 203.108 0.134591 -1.69165 0
M  V30 2279 H 201.88 0.640383 -3.86024 0
M  V30 2280 H 201.503 2.25287 -3.27615 0
M  V30 2281 N 202.5 1.5196 0.417844 0
M  V30 2282 C 203.748 1.65263 1.16329 0
M  V30 2283 C 204.069 0.380634 1.91249 0
M  V30 2284 O 203.339 -0.604214 1.86349 0
M  V30 2285 H 201.919 0.60912 0.432414 0
M  V30 2286 H 204.581 1.88969 0.477162 0
M  V30 2287 H 203.677 2.4896 1.88217 0
M  V30 2288 N 203.978 -0.674533 1.42435 0
M  V30 2289 C 205.227 -1.43034 1.42212 0
M  V30 2290 C 205.54 -1.95555 0.0420788 0
M  V30 2291 O 206.746 -2.71374 -0.0827558 0
M  V30 2292 C 205.202 -2.58748 2.50155 0
M  V30 2293 C 204.81 -2.12925 3.94166 0
M  V30 2294 C 206.554 -3.36257 2.59098 0
M  V30 2295 C 204.461 -3.25723 4.93618 0
M  V30 2296 H 203.391 -0.537345 0.528939 0
M  V30 2297 H 206.042 -0.73024 1.68344 0
M  V30 2298 H 204.424 -3.31128 2.17188 0
M  V30 2299 H 205.598 -1.47697 4.36488 0
M  V30 2300 H 203.913 -1.48354 3.89076 0
M  V30 2301 H 206.51 -4.20264 3.30578 0
M  V30 2302 H 206.853 -3.82866 1.63461 0
M  V30 2303 H 207.386 -2.70947 2.9126 0
M  V30 2304 H 204.125 -2.84105 5.90732 0
M  V30 2305 H 203.645 -3.89732 4.55926 0
M  V30 2306 H 205.324 -3.91186 5.15347 0
M  V30 2307 N 205.456 -1.28612 -0.910864 0
M  V30 2308 C 206.406 -1.09423 -2.00026 0
M  V30 2309 C 207.39 -0.0170079 -1.60891 0
M  V30 2310 O 208.582 -0.237472 -1.754 0
M  V30 2311 C 205.711 -0.76114 -3.34756 0
M  V30 2312 C 204.797 -1.87735 -3.80285 0
M  V30 2313 N 205.188 -3.11938 -3.98156 0
M  V30 2314 C 203.486 -1.76786 -4.09467 0
M  V30 2315 C 204.187 -3.84687 -4.36338 0
M  V30 2316 N 203.163 -3.12555 -4.44759 0
M  V30 2317 H 206.965 -2.03658 -2.11898 0
M  V30 2318 H 204.479 -1.19573 -1.09891 0
M  V30 2319 H 206.476 -0.604743 -4.12491 0
M  V30 2320 H 205.136 0.173403 -3.24237 0
M  V30 2321 H 206.147 -3.47516 -3.83996 0
M  V30 2322 H 202.824 -0.905284 -4.07567 0
M  V30 2323 H 204.214 -4.91518 -4.58104 0
M  V30 2324 N 206.934 1.1197 -1.10907 0
M  V30 2325 C 208.164 1.8713 -0.875553 0
M  V30 2326 C 208.572 1.8016 0.577843 0
M  V30 2327 O 207.915 1.17699 1.41042 0
M  V30 2328 C 207.977 3.37005 -1.2517 0
M  V30 2329 C 207.641 3.67748 -2.71313 0
M  V30 2330 C 208.638 3.65698 -3.69542 0
M  V30 2331 C 206.323 3.96928 -3.07821 0
M  V30 2332 C 208.317 3.92395 -5.023 0
M  V30 2333 C 206.004 4.23284 -4.40765 0
M  V30 2334 C 207.002 4.21005 -5.37814 0
M  V30 2335 O 206.69 4.46704 -6.68364 0
M  V30 2336 H 206.422 0.598786 -0.313737 0
M  V30 2337 H 208.976 1.42568 -1.47863 0
M  V30 2338 H 207.206 3.82146 -0.591741 0
M  V30 2339 H 208.895 3.93519 -0.994877 0
M  V30 2340 H 209.661 3.43211 -3.42682 0
M  V30 2341 H 205.54 3.97841 -2.32902 0
M  V30 2342 H 209.084 3.90531 -5.78041 0
M  V30 2343 H 204.981 4.45246 -4.67361 0
M  V30 2344 H 205.749 4.64299 -6.74069 0
M  V30 2345 N 208.412 0.89855 1.29475 0
M  V30 2346 C 209.342 0.39201 2.30186 0
M  V30 2347 C 210.323 -0.532359 1.61555 0
M  V30 2348 O 211.508 -0.443331 1.89072 0
M  V30 2349 C 208.638 -0.382353 3.45189 0
M  V30 2350 C 207.592 0.451483 4.25612 0
M  V30 2351 C 206.918 -0.450307 5.328 0
M  V30 2352 C 208.218 1.70079 4.93832 0
M  V30 2353 H 209.912 1.23362 2.72804 0
M  V30 2354 H 207.458 0.594638 1.31149 0
M  V30 2355 H 209.411 -0.747451 4.14718 0
M  V30 2356 H 208.135 -1.25774 3.01411 0
M  V30 2357 H 206.794 0.798897 3.57789 0
M  V30 2358 H 206.442 -1.32379 4.85268 0
M  V30 2359 H 206.142 0.103902 5.87508 0
M  V30 2360 H 207.666 -0.811623 6.05182 0
M  V30 2361 H 209.08 1.40549 5.55805 0
M  V30 2362 H 207.477 2.19623 5.58467 0
M  V30 2363 H 208.547 2.43744 4.19186 0
M  V30 2364 N 209.89 -1.43072 0.660911 0
M  V30 2365 C 210.84 -2.27948 -0.04847 0
M  V30 2366 C 211.824 -1.40325 -0.787246 0
M  V30 2367 O 213.016 -1.63893 -0.668446 0
M  V30 2368 C 210.145 -3.28143 -1.00881 0
M  V30 2369 C 209.231 -4.23252 -0.268108 0
M  V30 2370 N 209.622 -5.00656 0.719528 0
M  V30 2371 C 207.92 -4.43092 -0.508493 0
M  V30 2372 C 208.621 -5.70019 1.15988 0
M  V30 2373 N 207.597 -5.41364 0.492584 0
M  V30 2374 H 211.399 -2.85213 0.709279 0
M  V30 2375 H 208.913 -1.54869 0.488822 0
M  V30 2376 H 210.91 -3.87736 -1.53188 0
M  V30 2377 H 209.57 -2.7244 -1.76654 0
M  V30 2378 H 210.581 -5.06115 1.09855 0
M  V30 2379 H 207.258 -3.98449 -1.24679 0
M  V30 2380 H 208.648 -6.4214 1.97751 0
M  V30 2381 N 211.368 -0.403325 -1.52352 0
M  V30 2382 C 212.331 0.413051 -2.25447 0
M  V30 2383 C 213.331 0.978513 -1.276 0
M  V30 2384 O 214.521 0.858305 -1.51587 0
M  V30 2385 C 211.653 1.58087 -3.02029 0
M  V30 2386 H 212.846 -0.227094 -2.99039 0
M  V30 2387 H 210.399 -0.155722 -1.55522 0
M  V30 2388 H 211.134 2.25804 -2.32772 0
M  V30 2389 H 210.919 1.18195 -3.73861 0
M  V30 2390 H 212.409 2.1585 -3.57489 0
M  V30 2391 N 212.846 1.57033 -0.133567 0
M  V30 2392 C 213.794 2.17348 0.828412 0
M  V30 2393 C 214.788 1.12671 1.26498 0
M  V30 2394 O 215.994 1.30947 1.23502 0
M  V30 2395 H 212.369 0.695775 0.285309 0
M  V30 2396 H 214.34 2.96935 0.295372 0
M  V30 2397 C 213.089 2.79893 2.06289 0
M  V30 2398 H 212.412 3.60147 1.73592 0
M  V30 2399 H 213.852 3.25615 2.71572 0
M  V30 2400 C 212.311 1.77713 2.86216 0
M  V30 2401 O 212.841 1.23937 3.82103 0
M  V30 2402 N 211.047 1.47321 2.50489 0
M  V30 2403 H 210.594 1.91243 1.7258 0
M  V30 2404 H 210.552 0.79199 3.04261 0
M  V30 2405 N 214.325 -0.140222 1.56975 0
M  V30 2406 C 215.571 -0.848084 1.84876 0
M  V30 2407 C 215.926 -1.78481 0.718481 0
M  V30 2408 O 215.219 -1.89497 -0.283093 0
M  V30 2409 C 215.413 -1.65386 3.16832 0
M  V30 2410 C 215.242 -0.79665 4.42587 0
M  V30 2411 C 214.012 -0.459648 5.03205 0
M  V30 2412 C 216.21 -0.12389 5.14151 0
M  V30 2413 N 214.192 0.410446 6.12526 0
M  V30 2414 C 215.563 0.606064 6.17031 0
M  V30 2415 C 217.618 -0.0452654 4.97879 0
M  V30 2416 C 216.321 1.40723 7.054 0
M  V30 2417 C 218.347 0.742658 5.86718 0
M  V30 2418 C 217.709 1.46087 6.89085 0
M  V30 2419 H 213.808 -0.287946 0.727056 0
M  V30 2420 H 216.392 -0.11304 1.94372 0
M  V30 2421 H 214.563 -2.36009 3.08471 0
M  V30 2422 H 216.295 -2.30541 3.32615 0
M  V30 2423 H 213.05 -0.797006 4.66846 0
M  V30 2424 H 213.474 0.836716 6.7181 0
M  V30 2425 H 218.116 -0.586184 4.18717 0
M  V30 2426 H 215.834 1.95938 7.83986 0
M  V30 2427 H 219.42 0.805574 5.76196 0
M  V30 2428 H 218.3 2.06077 7.56639 0
M  V30 2429 N 215.803 -1.52179 -0.40978 0
M  V30 2430 C 217.049 -1.66453 -1.15851 0
M  V30 2431 C 217.382 -0.392972 -1.90182 0
M  V30 2432 O 216.657 0.608579 -1.84734 0
M  V30 2433 C 216.94 -2.88612 -2.15349 0
M  V30 2434 C 216.793 -4.25815 -1.44918 0
M  V30 2435 C 218.112 -3.06294 -3.16026 0
M  V30 2436 H 215.231 -0.60575 -0.419805 0
M  V30 2437 H 217.873 -1.84732 -0.444314 0
M  V30 2438 H 216.023 -2.73158 -2.76255 0
M  V30 2439 H 217.695 -4.52995 -0.871365 0
M  V30 2440 H 215.938 -4.27247 -0.751159 0
M  V30 2441 H 216.609 -5.07337 -2.17516 0
M  V30 2442 H 219.085 -3.20641 -2.65195 0
M  V30 2443 H 217.961 -3.93283 -3.8291 0
M  V30 2444 H 218.222 -2.19579 -3.83715 0
M  V30 2445 N 217.281 0.66697 -1.42791 0
M  V30 2446 C 218.211 1.79218 -1.49677 0
M  V30 2447 C 219.192 1.66405 -0.352623 0
M  V30 2448 O 220.377 1.85708 -0.567993 0
M  V30 2449 C 217.507 3.17565 -1.40605 0
M  V30 2450 C 216.461 3.45124 -2.53127 0
M  V30 2451 C 215.787 4.83127 -2.29112 0
M  V30 2452 C 217.087 3.41236 -3.95418 0
M  V30 2453 H 218.781 1.73713 -2.43853 0
M  V30 2454 H 216.327 0.83432 -1.17367 0
M  V30 2455 H 218.28 3.96022 -1.44029 0
M  V30 2456 H 217.004 3.23767 -0.429271 0
M  V30 2457 H 215.663 2.69031 -2.49034 0
M  V30 2458 H 215.311 4.85988 -1.29709 0
M  V30 2459 H 215.011 5.02528 -3.04531 0
M  V30 2460 H 216.535 5.63859 -2.34297 0
M  V30 2461 H 217.949 4.09651 -4.01073 0
M  V30 2462 H 216.346 3.72173 -4.70752 0
M  V30 2463 H 217.416 2.39665 -4.21532 0
M  V30 2464 N 218.759 1.29093 0.90403 0
M  V30 2465 C 219.709 1.10482 1.99443 0
M  V30 2466 C 220.693 0.0255401 1.6088 0
M  V30 2467 O 221.885 0.24677 1.75271 0
M  V30 2468 C 219.014 0.778882 3.34348 0
M  V30 2469 C 218.1 1.89749 3.79284 0
M  V30 2470 N 218.491 3.14045 3.96497 0
M  V30 2471 C 216.789 1.78955 4.08523 0
M  V30 2472 C 217.49 3.86996 4.34292 0
M  V30 2473 N 216.466 3.14909 4.43095 0
M  V30 2474 H 220.268 2.04778 2.10815 0
M  V30 2475 H 217.782 1.20155 1.09255 0
M  V30 2476 H 219.779 0.62661 4.12164 0
M  V30 2477 H 218.439 -0.156205 3.24324 0
M  V30 2478 H 219.45 3.49548 3.82148 0
M  V30 2479 H 216.127 0.926886 4.07081 0
M  V30 2480 H 217.517 4.93941 4.55491 0
M  V30 2481 N 220.237 -1.11381 1.11499 0
M  V30 2482 C 221.653 -1.35143 0.849031 0
M  V30 2483 C 221.853 -1.94515 -0.525938 0
M  V30 2484 O 220.909 -2.1785 -1.27662 0
M  V30 2485 C 222.222 -2.28249 1.95762 0
M  V30 2486 C 223.77 -2.41812 1.98736 0
M  V30 2487 C 224.245 -3.3824 3.088 0
M  V30 2488 N 225.736 -3.45803 3.08179 0
M  V30 2489 C 226.471 -4.20358 3.89982 0
M  V30 2490 N 225.967 -4.97884 4.8175 0
M  V30 2491 N 227.76 -4.15877 3.78157 0
M  V30 2492 H 219.911 -0.712062 2.00109 0
M  V30 2493 H 222.174 -0.376025 0.870235 0
M  V30 2494 H 221.88 -1.91817 2.94787 0
M  V30 2495 H 221.754 -3.28473 1.85433 0
M  V30 2496 H 224.141 -2.77518 1.00338 0
M  V30 2497 H 224.222 -1.41437 2.13141 0
M  V30 2498 H 223.866 -3.03261 4.07425 0
M  V30 2499 H 223.796 -4.38471 2.91635 0
M  V30 2500 H 226.287 -2.90506 2.41691 0
M  V30 2501 H 226.6 -5.52142 5.40702 0
M  V30 2502 H 224.945 -4.97043 4.85771 0
M  V30 2503 H 228.136 -3.544 3.05808 0
M  V30 2504 H 228.309 -4.73723 4.42143 0
M  V30 2505 N 221.715 -0.905404 -1.28997 0
M  V30 2506 C 222.992 -0.453513 -1.9027 0
M  V30 2507 C 223.372 1.06721 -1.82137 0
M  V30 2508 O 222.72 1.91159 -1.25182 0
M  V30 2509 C 222.93 -0.974494 -3.35119 0
M  V30 2510 C 224.278 -1.0216 -4.12127 0
M  V30 2511 O 225.302 -0.922557 -3.44046 0
M  V30 2512 O 224.161 -1.17121 -5.33802 0
M  V30 2513 H 221.255 -0.142347 -0.814657 0
M  V30 2514 H 223.801 -0.995642 -1.37423 0
M  V30 2515 H 222.573 -2.01848 -3.35221 0
M  V30 2516 H 222.196 -0.412706 -3.95452 0
M  V30 2517 N 223.193 1.4272 -0.668489 0
M  V30 2518 C 224.123 2.335 -0.000100175 0
M  V30 2519 C 225.104 1.50328 0.795964 0
M  V30 2520 O 226.289 1.78949 0.754385 0
M  V30 2521 C 223.419 3.33874 0.956302 0
M  V30 2522 C 222.373 4.27152 0.269278 0
M  V30 2523 C 221.699 5.17684 1.33818 0
M  V30 2524 C 222.999 5.15373 -0.847805 0
M  V30 2525 H 224.693 2.89639 -0.758244 0
M  V30 2526 H 222.239 1.39269 -0.366079 0
M  V30 2527 H 224.192 3.9629 1.43292 0
M  V30 2528 H 222.916 2.76025 1.74579 0
M  V30 2529 H 221.575 3.66123 -0.187042 0
M  V30 2530 H 221.223 4.56165 2.1195 0
M  V30 2531 H 220.923 5.80918 0.883659 0
M  V30 2532 H 222.447 5.82974 1.81586 0
M  V30 2533 H 223.861 5.7151 -0.452681 0
M  V30 2534 H 222.258 5.87407 -1.22773 0
M  V30 2535 H 223.328 4.5415 -1.69929 0
M  V30 2536 N 224.671 0.411399 1.52136 0
M  V30 2537 C 225.618 -0.412975 2.27075 0
M  V30 2538 C 226.588 -1.03912 1.29582 0
M  V30 2539 O 227.773 -1.06296 1.58448 0
M  V30 2540 C 224.913 -1.52247 3.09701 0
M  V30 2541 C 224.026 -0.917021 4.22155 0
M  V30 2542 C 223.161 -1.9994 4.92135 0
M  V30 2543 C 222.2 -1.37101 5.96548 0
M  V30 2544 N 221.337 -2.39364 6.60038 0
M  V30 2545 H 226.177 0.232499 2.97092 0
M  V30 2546 H 223.714 0.126496 1.46555 0
M  V30 2547 H 225.672 -2.17674 3.55913 0
M  V30 2548 H 224.302 -2.13794 2.41851 0
M  V30 2549 H 223.354 -0.151742 3.80097 0
M  V30 2550 H 224.666 -0.418006 4.97045 0
M  V30 2551 H 223.82 -2.73088 5.41763 0
M  V30 2552 H 222.559 -2.53208 4.16818 0
M  V30 2553 H 221.564 -0.624873 5.46237 0
M  V30 2554 H 222.789 -0.845998 6.7381 0
M  V30 2555 H 220.735 -2.91759 5.87548 0
M  V30 2556 H 220.652 -1.9428 7.3061 0
M  V30 2557 H 221.92 -3.12074 7.14304 0
M  V30 2558 N 226.149 -1.5696 0.141893 0
M  V30 2559 C 227.56 -1.82797 -0.379776 0
M  V30 2560 C 227.911 -1.06033 -1.6508 0
M  V30 2561 O 227.036 -0.304011 -2.14254 0
M  V30 2562 C 227.631 -3.31578 -0.695802 0
M  V30 2563 C 226.19 -3.58014 -1.16201 0
M  V30 2564 C 225.337 -2.76699 -0.182455 0
M  V30 2565 H 228.288 -1.54406 0.366675 0
M  V30 2566 H 228.309 -3.47454 -1.55099 0
M  V30 2567 H 227.821 -3.87421 0.229449 0
M  V30 2568 H 225.922 -3.07553 -2.10338 0
M  V30 2569 H 226.035 -4.66501 -1.09151 0
M  V30 2570 H 224.399 -2.45618 -0.674072 0
M  V30 2571 H 225.182 -3.35311 0.736297 0
M  V30 2572 N 227.627 0.131896 -1.57047 0
M  V30 2573 C 228.59 1.14638 -1.98471 0
M  V30 2574 C 229.59 1.35029 -0.873148 0
M  V30 2575 O 230.78 1.31764 -1.13946 0
M  V30 2576 C 227.912 2.50358 -2.31373 0
M  V30 2577 H 229.105 0.79064 -2.8929 0
M  V30 2578 H 226.658 0.375761 -1.51716 0
M  V30 2579 H 227.393 2.90876 -1.43393 0
M  V30 2580 H 227.178 2.36915 -3.12432 0
M  V30 2581 H 228.668 3.23395 -2.64207 0
M  V30 2582 N 229.106 1.52395 0.401703 0
M  V30 2583 C 230.054 1.7689 1.51039 0
M  V30 2584 C 231.048 0.636298 1.56996 0
M  V30 2585 O 232.254 0.818507 1.60314 0
M  V30 2586 H 228.629 0.559502 0.502456 0
M  V30 2587 H 230.6 2.69757 1.27568 0
M  V30 2588 C 229.349 1.94331 2.88324 0
M  V30 2589 H 228.672 2.80905 2.84486 0
M  V30 2590 H 230.112 2.15466 3.65172 0
M  V30 2591 C 228.571 0.712396 3.29282 0
M  V30 2592 O 229.101 -0.116218 4.01532 0
M  V30 2593 N 227.307 0.546154 2.85422 0
M  V30 2594 H 226.854 1.22156 2.26794 0
M  V30 2595 H 226.812 -0.276113 3.13185 0
M  V30 2596 N 230.584 -0.659388 1.43143 0
M  V30 2597 C 231.833 -1.41518 1.43721 0
M  V30 2598 C 232.146 -1.95499 0.0628176 0
M  V30 2599 O 233.352 -2.71446 -0.0539683 0
M  V30 2600 C 231.808 -2.5608 2.52885 0
M  V30 2601 C 231.416 -2.08733 3.96402 0
M  V30 2602 C 233.16 -3.3349 2.62649 0
M  V30 2603 C 231.067 -3.20469 4.97045 0
M  V30 2604 H 229.997 -0.531705 0.534608 0
M  V30 2605 H 232.648 -0.712343 1.69109 0
M  V30 2606 H 231.03 -3.28805 2.20688 0
M  V30 2607 H 232.204 -1.43059 4.3803 0
M  V30 2608 H 230.519 -1.44219 3.90627 0
M  V30 2609 H 233.116 -4.16734 3.35017 0
M  V30 2610 H 233.459 -3.8111 1.67513 0
M  V30 2611 H 233.992 -2.67842 2.94118 0
M  V30 2612 H 230.731 -2.77824 5.93712 0
M  V30 2613 H 230.251 -3.84874 4.60034 0
M  V30 2614 H 231.93 -3.85698 5.19467 0
M  V30 2615 N 232.062 -1.29571 -0.897171 0
M  V30 2616 C 232.992 -1.17473 -2.01798 0
M  V30 2617 C 233.973 -0.068323 -1.69963 0
M  V30 2618 O 235.158 -0.248239 -1.92607 0
M  V30 2619 C 232.288 -0.853099 -3.36659 0
M  V30 2620 C 231.242 -1.9161 -3.82713 0
M  V30 2621 C 230.568 -1.44773 -5.14728 0
M  V30 2622 C 231.868 -3.32535 -4.02763 0
M  V30 2623 H 233.562 -2.11237 -2.12177 0
M  V30 2624 H 231.108 -1.01699 -1.01948 0
M  V30 2625 H 233.061 -0.755165 -4.14578 0
M  V30 2626 H 231.785 0.120236 -3.26379 0
M  V30 2627 H 230.444 -2.00346 -3.07013 0
M  V30 2628 H 230.092 -0.462995 -5.00865 0
M  V30 2629 H 229.792 -2.15865 -5.46513 0
M  V30 2630 H 231.316 -1.36334 -5.95185 0
M  V30 2631 H 232.73 -3.26626 -4.71156 0
M  V30 2632 H 231.127 -4.01607 -4.45905 0
M  V30 2633 H 232.197 -3.75326 -3.07016 0
M  V30 2634 N 233.54 1.10788 -1.12088 0
M  V30 2635 C 234.786 1.82942 -0.875226 0
M  V30 2636 C 235.119 1.84779 0.597538 0
M  V30 2637 O 234.394 1.30578 1.44152 0
M  V30 2638 C 234.677 3.29789 -1.44606 0
M  V30 2639 C 234.53 3.36307 -2.98693 0
M  V30 2640 C 235.849 4.26064 -1.10261 0
M  V30 2641 H 232.968 0.664195 -0.319397 0
M  V30 2642 H 235.61 1.29867 -1.38689 0
M  V30 2643 H 233.76 3.75118 -1.01089 0
M  V30 2644 H 235.432 2.99487 -3.50864 0
M  V30 2645 H 233.675 2.76318 -3.34411 0
M  V30 2646 H 234.346 4.39694 -3.33726 0
M  V30 2647 H 236.822 3.88951 -1.4784 0
M  V30 2648 H 235.698 5.27183 -1.52869 0
M  V30 2649 H 235.959 4.42098 -0.0142953 0
M  V30 2650 N 235.018 0.912232 1.28515 0
M  V30 2651 C 235.951 0.343928 2.25593 0
M  V30 2652 C 236.929 -0.550994 1.5298 0
M  V30 2653 O 238.113 -0.494991 1.81885 0
M  V30 2654 C 235.24 -0.508525 3.34861 0
M  V30 2655 C 234.286 0.320808 4.25292 0
M  V30 2656 S 235.119 1.72658 5.06902 0
M  V30 2657 C 236.275 0.881394 6.19663 0
M  V30 2658 H 236.508 1.16674 2.73449 0
M  V30 2659 H 234.041 0.713384 1.36931 0
M  V30 2660 H 235.999 -0.994539 3.9827 0
M  V30 2661 H 234.66 -1.30571 2.85675 0
M  V30 2662 H 233.853 -0.330941 5.02912 0
M  V30 2663 H 233.455 0.74042 3.66598 0
M  V30 2664 H 235.747 0.110359 6.7741 0
M  V30 2665 H 236.69 1.63009 6.89082 0
M  V30 2666 H 237.098 0.430239 5.62858 0
M  V30 2667 N 236.496 -1.42363 0.676048 0
M  V30 2668 C 237.744 -2.01123 0.198437 0
M  V30 2669 C 238.065 -1.53731 -1.19966 0
M  V30 2670 O 237.335 -0.759518 -1.80577 0
M  V30 2671 H 235.915 -0.743678 0.0703721 0
M  V30 2672 H 238.577 -1.74263 0.872837 0
M  V30 2673 H 237.673 -3.11454 0.200686 0
M  V30 2674 N 237.974 -0.419461 -1.51915 0
M  V30 2675 C 238.884 0.407528 -2.31033 0
M  V30 2676 C 239.9 1.04413 -1.3919 0
M  V30 2677 O 241.076 1.0434 -1.72265 0
M  V30 2678 C 238.141 1.50365 -3.12396 0
M  V30 2679 C 237.202 0.889029 -4.19994 0
M  V30 2680 C 236.435 1.93291 -4.97468 0
M  V30 2681 O 236.658 3.15259 -4.75361 0
M  V30 2682 O 235.592 1.53339 -5.8204 0
M  V30 2683 H 239.418 -0.237865 -3.02767 0
M  V30 2684 H 237.003 -0.182413 -1.48282 0
M  V30 2685 H 238.885 2.13975 -3.63032 0
M  V30 2686 H 237.56 2.13345 -2.43445 0
M  V30 2687 H 236.467 0.215353 -3.7348 0
M  V30 2688 H 237.8 0.302991 -4.91267 0
M  V30 2689 N 239.452 1.56882 -0.150215 0
M  V30 2690 C 240.7 1.9584 0.499105 0
M  V30 2691 C 241.021 1.03623 1.65188 0
M  V30 2692 O 240.291 0.0984084 1.95653 0
M  V30 2693 H 238.871 0.723119 0.187373 0
M  V30 2694 H 241.533 1.9358 -0.226466 0
M  V30 2695 H 240.629 2.99638 0.873122 0
M  V30 2696 N 240.93 -0.123565 1.57115 0
M  V30 2697 C 242.341 -0.681198 1.73829 0
M  V30 2698 C 242.692 -1.80535 0.768214 0
M  V30 2699 O 241.817 -2.16317 -0.0599103 0
M  V30 2700 C 242.412 -1.24246 3.15196 0
M  V30 2701 C 240.971 -1.74643 3.33432 0
M  V30 2702 C 240.118 -0.644284 2.69711 0
M  V30 2703 H 243.069 0.102315 1.5837 0
M  V30 2704 H 243.09 -2.11216 3.16493 0
M  V30 2705 H 242.602 -0.424062 3.85776 0
M  V30 2706 H 240.703 -2.58974 2.67886 0
M  V30 2707 H 240.816 -1.85902 4.41562 0
M  V30 2708 H 239.18 -1.07676 2.3082 0
M  V30 2709 H 239.963 0.163058 3.42913 0
M  V30 2710 N 242.408 -1.52605 -0.393616 0
M  V30 2711 C 243.318 -1.79971 -1.50492 0
M  V30 2712 C 244.334 -0.686181 -1.59899 0
M  V30 2713 O 245.51 -0.973274 -1.76322 0
M  V30 2714 C 242.575 -1.95867 -2.86072 0
M  V30 2715 C 241.636 -3.19781 -2.86424 0
M  V30 2716 C 240.869 -3.34909 -4.15538 0
M  V30 2717 O 241.092 -2.54948 -5.10253 0
M  V30 2718 O 240.026 -4.28141 -4.23059 0
M  V30 2719 H 243.852 -2.74328 -1.30299 0
M  V30 2720 H 241.437 -1.3764 -0.581005 0
M  V30 2721 H 243.319 -2.08056 -3.66457 0
M  V30 2722 H 241.994 -1.04699 -3.063 0
M  V30 2723 H 240.901 -3.13038 -2.04837 0
M  V30 2724 H 242.234 -4.1078 -2.71147 0
M  V30 2725 N 243.887 0.651787 -1.4349 0
M  V30 2726 C 245.303 0.96762 -1.26922 0
M  V30 2727 C 245.503 2.00602 -0.189982 0
M  V30 2728 O 244.559 2.48793 0.431107 0
M  V30 2729 C 245.872 1.45052 -2.63401 0
M  V30 2730 C 247.42 1.5671 -2.70945 0
M  V30 2731 C 247.895 2.0839 -4.07845 0
M  V30 2732 N 249.386 2.1569 -4.09917 0
M  V30 2733 C 250.121 2.56804 -5.12679 0
M  V30 2734 N 249.617 2.97203 -6.25813 0
M  V30 2735 N 251.41 2.56756 -5.00033 0
M  V30 2736 H 243.561 -0.0353158 -2.12371 0
M  V30 2737 H 245.824 0.0467858 -0.946845 0
M  V30 2738 H 245.53 0.761926 -3.43348 0
M  V30 2739 H 245.404 2.42529 -2.88894 0
M  V30 2740 H 247.791 2.2467 -1.9133 0
M  V30 2741 H 247.872 0.57662 -2.49216 0
M  V30 2742 H 247.516 1.41031 -4.87927 0
M  V30 2743 H 247.446 3.08271 -4.26938 0
M  V30 2744 H 249.937 1.87237 -3.28254 0
M  V30 2745 H 250.25 3.27328 -7.00055 0
M  V30 2746 H 248.595 2.95004 -6.29283 0
M  V30 2747 H 251.786 2.24572 -4.10713 0
M  V30 2748 H 251.959 2.88475 -5.80247 0
M  V30 2749 N 245.365 1.30045 0.890287 0
M  V30 2750 C 246.613 1.18327 1.63839 0
M  V30 2751 C 246.934 -0.263455 1.93212 0
M  V30 2752 O 246.204 -1.17856 1.56482 0
M  V30 2753 H 244.784 0.434933 0.607324 0
M  V30 2754 H 247.446 1.631 1.06698 0
M  V30 2755 H 246.542 1.74024 2.59079 0
M  V30 2756 N 246.843 -1.10192 1.12674 0
M  V30 2757 C 248.259 -1.34235 0.863317 0
M  V30 2758 C 248.459 -1.95062 -0.505277 0
M  V30 2759 O 247.515 -2.19192 -1.25345 0
M  V30 2760 C 248.828 -2.2616 1.98172 0
M  V30 2761 C 250.376 -2.3969 2.0129 0
M  V30 2762 C 250.851 -3.34946 3.1237 0
M  V30 2763 N 252.342 -3.42515 3.11829 0
M  V30 2764 C 253.077 -4.16199 3.94419 0
M  V30 2765 N 252.573 -4.92747 4.87004 0
M  V30 2766 N 254.366 -4.11843 3.82547 0
M  V30 2767 H 246.517 -0.690798 2.00853 0
M  V30 2768 H 248.78 -0.366774 0.874174 0
M  V30 2769 H 248.486 -1.8868 2.96804 0
M  V30 2770 H 248.36 -3.26488 1.88906 0
M  V30 2771 H 250.747 -2.76438 1.03276 0
M  V30 2772 H 250.828 -1.39169 2.14629 0
M  V30 2773 H 250.472 -2.98923 4.10619 0
M  V30 2774 H 250.402 -4.35353 2.96269 0
M  V30 2775 H 252.893 -2.87926 2.44759 0
M  V30 2776 H 253.206 -5.46376 5.46528 0
M  V30 2777 H 251.551 -4.91862 4.91016 0
M  V30 2778 H 254.742 -3.51136 3.0955 0
M  V30 2779 H 254.915 -4.69007 4.47142 0
M  V30 2780 N 248.321 -0.919034 -1.28029 0
M  V30 2781 C 249.567 -0.555757 -1.95036 0
M  V30 2782 C 249.9 0.899198 -1.72128 0
M  V30 2783 O 249.175 1.64023 -1.04531 0
M  V30 2784 C 249.458 -0.872024 -3.49382 0
M  V30 2785 C 249.311 -2.3801 -3.81669 0
M  V30 2786 C 250.63 -0.37185 -4.38526 0
M  V30 2787 H 247.749 -0.203386 -0.708381 0
M  V30 2788 H 250.391 -1.14924 -1.51303 0
M  V30 2789 H 248.541 -0.366946 -3.86763 0
M  V30 2790 H 250.213 -2.9562 -3.54128 0
M  V30 2791 H 248.456 -2.83289 -3.28526 0
M  V30 2792 H 249.127 -2.55192 -4.8947 0
M  V30 2793 H 251.603 -0.804602 -4.08247 0
M  V30 2794 H 250.479 -0.622173 -5.45362 0
M  V30 2795 H 250.74 0.727934 -4.36066 0
M  V30 2796 N 249.799 1.42003 -0.683588 0
M  V30 2797 C 250.746 2.30798 -0.0107309 0
M  V30 2798 C 251.716 1.4645 0.783688 0
M  V30 2799 O 252.901 1.75263 0.754156 0
M  V30 2800 C 250.041 3.3238 0.928306 0
M  V30 2801 C 249.154 4.31814 0.126776 0
M  V30 2802 C 248.289 5.20468 1.06236 0
M  V30 2803 C 247.328 6.11577 0.253035 0
M  V30 2804 N 246.465 6.92754 1.14179 0
M  V30 2805 H 251.305 2.8778 -0.773727 0
M  V30 2806 H 248.842 1.41745 -0.393283 0
M  V30 2807 H 250.8 3.89813 1.48666 0
M  V30 2808 H 249.43 2.76976 1.65783 0
M  V30 2809 H 248.482 3.76427 -0.54833 0
M  V30 2810 H 249.794 4.96276 -0.501192 0
M  V30 2811 H 248.948 5.82677 1.69035 0
M  V30 2812 H 247.687 4.56204 1.7242 0
M  V30 2813 H 246.692 5.48428 -0.388108 0
M  V30 2814 H 247.917 6.77892 -0.404839 0
M  V30 2815 H 245.863 6.3111 1.78987 0
M  V30 2816 H 245.78 7.53855 0.569111 0
M  V30 2817 H 247.048 7.59441 1.75697 0
M  V30 2818 N 251.277 0.427512 1.51691 0
M  V30 2819 C 252.526 -0.143679 2.01188 0
M  V30 2820 C 252.839 -1.44642 1.31674 0
M  V30 2821 O 254.045 -2.09997 1.72086 0
M  V30 2822 C 252.501 -0.306602 3.58592 0
M  V30 2823 C 252.109 0.985125 4.37035 0
M  V30 2824 C 253.853 -0.832091 4.16265 0
M  V30 2825 C 251.76 0.788382 5.86122 0
M  V30 2826 H 250.69 -0.0574701 0.751807 0
M  V30 2827 H 253.341 0.555772 1.74881 0
M  V30 2828 H 251.723 -1.06882 3.81303 0
M  V30 2829 H 252.897 1.75492 4.26074 0
M  V30 2830 H 251.212 1.4384 3.90767 0
M  V30 2831 H 253.809 -0.995617 5.25349 0
M  V30 2832 H 254.152 -1.81186 3.74803 0
M  V30 2833 H 254.685 -0.128444 3.97593 0
M  V30 2834 H 251.424 1.74025 6.31978 0
M  V30 2835 H 250.944 0.0582143 5.99772 0
M  V30 2836 H 252.623 0.437722 6.45518 0
M  V30 2837 N 252.755 -1.56801 0.158532 0
M  V30 2838 C 253.718 -2.16138 -0.762705 0
M  V30 2839 C 254.718 -1.1061 -1.16713 0
M  V30 2840 O 255.908 -1.36191 -1.08617 0
M  V30 2841 C 253.04 -2.73386 -2.03649 0
M  V30 2842 H 254.233 -2.98886 -0.246354 0
M  V30 2843 H 251.786 -1.56035 -0.0909744 0
M  V30 2844 H 252.521 -1.94335 -2.59623 0
M  V30 2845 H 252.306 -3.50601 -1.75559 0
M  V30 2846 H 253.796 -3.19065 -2.6942 0
M  V30 2847 N 254.233 0.115231 -1.57178 0
M  V30 2848 C 255.51 0.852873 -1.76027 0
M  V30 2849 C 255.89 1.97892 -0.73498 0
M  V30 2850 O 255.238 2.27232 0.24036 0
M  V30 2851 C 255.448 1.36608 -3.21153 0
M  V30 2852 C 256.796 1.81692 -3.83762 0
M  V30 2853 O 257.82 1.46278 -3.24779 0
M  V30 2854 O 256.679 2.47104 -4.87444 0
M  V30 2855 H 253.773 0.405296 -0.720877 0
M  V30 2856 H 256.319 0.0986785 -1.69413 0
M  V30 2857 H 255.091 0.558357 -3.87296 0
M  V30 2858 H 254.714 2.18287 -3.3232 0
M  V30 2859 N 255.711 1.52812 0.385517 0
M  V30 2860 C 256.644 1.72592 1.49289 0
M  V30 2861 C 257.622 0.573819 1.52138 0
M  V30 2862 O 258.806 0.80404 1.70492 0
M  V30 2863 C 255.933 1.78669 2.87741 0
M  V30 2864 C 254.979 3.00455 3.02703 0
M  V30 2865 S 255.812 4.60366 2.73538 0
M  V30 2866 C 256.968 4.69263 4.14177 0
M  V30 2867 H 257.201 2.66248 1.32285 0
M  V30 2868 H 254.734 1.43148 0.578611 0
M  V30 2869 H 256.692 1.82855 3.67524 0
M  V30 2870 H 255.353 0.861 3.02069 0
M  V30 2871 H 254.546 3.01258 4.04054 0
M  V30 2872 H 254.148 2.94278 2.30817 0
M  V30 2873 H 256.44 4.48092 5.08153 0
M  V30 2874 H 257.383 5.71276 4.18388 0
M  V30 2875 H 257.791 3.98072 4.00249 0
M  V30 2876 N 257.189 -0.644168 1.43834 0
M  V30 2877 C 258.437 -1.40117 1.45642 0
M  V30 2878 C 258.758 -1.94814 0.0852413 0
M  V30 2879 O 258.028 -1.74988 -0.880688 0
M  V30 2880 H 256.608 -0.52005 0.536243 0
M  V30 2881 H 259.27 -0.7591 1.7951 0
M  V30 2882 H 258.366 -2.23902 2.17427 0
M  V30 2883 N 258.668 -1.30515 -0.883378 0
M  V30 2884 C 259.915 -1.1943 -1.63532 0
M  V30 2885 C 260.243 0.250627 -1.92878 0
M  V30 2886 O 259.498 1.19556 -1.54935 0
M  V30 2887 C 259.797 -1.96994 -2.98209 0
M  V30 2888 C 259.463 -3.466 -2.88408 0
M  V30 2889 C 258.125 -3.87397 -2.85442 0
M  V30 2890 C 260.477 -4.41863 -2.76418 0
M  V30 2891 C 257.805 -5.21745 -2.68327 0
M  V30 2892 C 260.157 -5.7632 -2.60841 0
M  V30 2893 C 258.821 -6.16354 -2.56251 0
M  V30 2894 H 258.091 -0.437025 -0.598406 0
M  V30 2895 H 260.738 -1.61635 -1.02696 0
M  V30 2896 H 259.043 -1.47429 -3.63004 0
M  V30 2897 H 260.74 -1.85808 -3.55354 0
M  V30 2898 H 257.33 -3.14182 -2.91527 0
M  V30 2899 H 261.514 -4.11285 -2.77775 0
M  V30 2900 H 256.77 -5.51853 -2.63189 0
M  V30 2901 H 260.944 -6.49772 -2.50538 0
M  V30 2902 H 258.571 -7.20401 -2.42748 0
M  V30 2903 N 260.146 1.09593 -1.13257 0
M  V30 2904 C 261.109 2.14359 -0.811358 0
M  V30 2905 C 262.109 1.59808 0.178377 0
M  V30 2906 O 263.299 1.74132 -0.0484911 0
M  V30 2907 C 260.431 3.40269 -0.207276 0
M  V30 2908 H 261.624 2.44284 -1.73969 0
M  V30 2909 H 259.177 1.25102 -0.936973 0
M  V30 2910 H 259.912 3.15969 0.73036 0
M  V30 2911 H 259.697 3.81154 -0.919992 0
M  V30 2912 H 261.187 4.176 0.000667944 0
M  V30 2913 N 261.624 0.925811 1.2754 0
M  V30 2914 C 263.04 0.625767 1.46821 0
M  V30 2915 C 263.24 -0.825506 1.83814 0
M  V30 2916 O 262.296 -1.60356 1.95044 0
M  V30 2917 C 263.609 1.57402 2.56213 0
M  V30 2918 C 265.157 1.58204 2.70075 0
M  V30 2919 C 265.632 2.51721 3.82623 0
M  V30 2920 N 267.123 2.49917 3.89994 0
M  V30 2921 C 267.858 3.18968 4.76494 0
M  V30 2922 N 267.354 3.97391 5.67496 0
M  V30 2923 N 269.147 3.07996 4.70208 0
M  V30 2924 H 261.298 1.86409 1.01811 0
M  V30 2925 H 263.561 0.800213 0.508295 0
M  V30 2926 H 263.267 2.60925 2.35819 0
M  V30 2927 H 263.141 1.31428 3.53563 0
M  V30 2928 H 265.528 0.554124 2.89851 0
M  V30 2929 H 265.609 1.88226 1.73218 0
M  V30 2930 H 265.253 3.54622 3.63601 0
M  V30 2931 H 265.183 2.18996 4.78903 0
M  V30 2932 H 267.674 1.9296 3.24923 0
M  V30 2933 H 267.987 4.4707 6.30356 0
M  V30 2934 H 266.332 4.01495 5.67298 0
M  V30 2935 H 269.523 2.46223 3.9811 0
M  V30 2936 H 269.696 3.6208 5.37403 0
M  V30 2937 N 263.102 -1.41638 0.69111 0
M  V30 2938 C 264.032 -2.3347 0.037248 0
M  V30 2939 C 265.013 -1.51575 -0.771947 0
M  V30 2940 O 266.198 -1.80126 -0.72582 0
M  V30 2941 C 263.328 -3.35354 -0.903064 0
M  V30 2942 C 262.282 -4.27526 -0.201288 0
M  V30 2943 C 261.608 -5.19747 -1.25565 0
M  V30 2944 C 262.908 -5.13959 0.929689 0
M  V30 2945 H 264.602 -2.88397 0.804227 0
M  V30 2946 H 262.148 -1.38669 0.388189 0
M  V30 2947 H 264.101 -3.98519 -1.36969 0
M  V30 2948 H 262.825 -2.78767 -1.70166 0
M  V30 2949 H 261.484 -3.65779 0.245265 0
M  V30 2950 H 261.132 -4.59479 -2.04666 0
M  V30 2951 H 260.832 -5.8225 -0.791128 0
M  V30 2952 H 262.356 -5.85789 -1.72288 0
M  V30 2953 H 263.77 -5.70718 0.543546 0
M  V30 2954 H 262.167 -5.85379 1.32103 0
M  V30 2955 H 263.237 -4.51389 1.77133 0
M  V30 2956 N 264.58 -0.43555 -1.51462 0
M  V30 2957 C 265.827 0.131514 -2.02072 0
M  V30 2958 C 266.155 1.42868 -1.31981 0
M  V30 2959 O 265.41 1.91076 -0.422883 0
M  V30 2960 C 265.709 0.39942 -3.55161 0
M  V30 2961 C 265.375 -0.81172 -4.43533 0
M  V30 2962 C 264.037 -1.14387 -4.67407 0
M  V30 2963 C 266.389 -1.61976 -4.95392 0
M  V30 2964 C 263.717 -2.28477 -5.40384 0
M  V30 2965 C 266.069 -2.75164 -5.6962 0
M  V30 2966 C 264.733 -3.08835 -5.91758 0
M  V30 2967 H 264.003 0.0481244 -0.739436 0
M  V30 2968 H 266.65 -0.58238 -1.8243 0
M  V30 2969 H 264.955 1.19519 -3.73125 0
M  V30 2970 H 266.652 0.85157 -3.91854 0
M  V30 2971 H 263.242 -0.542898 -4.25148 0
M  V30 2972 H 267.426 -1.37637 -4.76833 0
M  V30 2973 H 262.682 -2.5488 -5.55739 0
M  V30 2974 H 266.856 -3.38147 -6.08793 0
M  V30 2975 H 264.483 -3.97353 -6.48086 0
M  V30 2976 N 266.058 1.56714 -0.166846 0
M  V30 2977 C 267.006 2.19056 0.782123 0
M  V30 2978 C 268 1.15328 1.24079 0
M  V30 2979 O 269.206 1.33537 1.20697 0
M  V30 2980 H 265.581 0.70167 0.270486 0
M  V30 2981 H 267.552 2.97494 0.232322 0
M  V30 2982 C 266.301 2.84206 2.00306 0
M  V30 2983 H 265.624 3.63748 1.65914 0
M  V30 2984 H 267.064 3.31302 2.64604 0
M  V30 2985 C 265.523 1.83744 2.82382 0
M  V30 2986 O 266.053 1.32014 3.79388 0
M  V30 2987 N 264.259 1.52601 2.47308 0
M  V30 2988 H 263.806 1.9486 1.68485 0
M  V30 2989 H 263.764 0.856351 3.02513 0
M  V30 2990 N 267.536 -0.106894 1.57237 0
M  V30 2991 C 268.761 -0.830287 1.90055 0
M  V30 2992 C 269.186 -1.72064 0.75998 0
M  V30 2993 O 268.544 -1.78982 -0.288991 0
M  V30 2994 C 268.592 -1.6295 3.21683 0
M  V30 2995 O 267.696 -2.73748 3.08441 0
M  V30 2996 H 267.037 -0.228855 0.623315 0
M  V30 2997 H 269.567 -0.085658 2.04421 0
M  V30 2998 H 269.577 -2.01621 3.54701 0
M  V30 2999 H 268.252 -0.975989 4.04286 0
M  V30 3000 H 266.829 -2.38192 2.86913 0
M  V30 3001 N 269.014 -1.53014 -0.377408 0
M  V30 3002 C 270.425 -1.60438 -0.954798 0
M  V30 3003 C 270.776 -0.464418 -1.90624 0
M  V30 3004 O 269.901 0.41087 -2.12464 0
M  V30 3005 C 270.496 -2.90797 -1.73847 0
M  V30 3006 C 269.055 -3.00595 -2.26538 0
M  V30 3007 C 268.202 -2.55645 -1.07429 0
M  V30 3008 H 271.153 -1.57926 -0.156575 0
M  V30 3009 H 271.174 -2.77935 -2.5987 0
M  V30 3010 H 270.686 -3.73746 -1.04574 0
M  V30 3011 H 268.787 -2.22208 -2.99089 0
M  V30 3012 H 268.9 -4.05456 -2.5523 0
M  V30 3013 H 267.264 -2.10239 -1.43777 0
M  V30 3014 H 268.047 -3.41 -0.396728 0
M  V30 3015 N 270.492 0.636531 -1.44174 0
M  V30 3016 C 271.422 1.76003 -1.53444 0
M  V30 3017 C 272.403 1.65619 -0.387841 0
M  V30 3018 O 273.588 1.84461 -0.607257 0
M  V30 3019 C 270.718 3.14511 -1.4731 0
M  V30 3020 C 269.672 3.39677 -2.60391 0
M  V30 3021 C 268.998 4.78159 -2.39308 0
M  V30 3022 C 270.298 3.32772 -4.02567 0
M  V30 3023 H 271.992 1.68501 -2.47483 0
M  V30 3024 H 269.538 0.809237 -1.19111 0
M  V30 3025 H 271.491 3.92878 -1.52397 0
M  V30 3026 H 270.215 3.22783 -0.49785 0
M  V30 3027 H 268.874 2.63688 -2.54684 0
M  V30 3028 H 268.522 4.83128 -1.39988 0
M  V30 3029 H 268.222 4.95956 -3.15122 0
M  V30 3030 H 269.746 5.58762 -2.46205 0
M  V30 3031 H 271.16 4.01051 -4.09672 0
M  V30 3032 H 269.557 3.62104 -4.7854 0
M  V30 3033 H 270.627 2.30669 -4.2652 0
M  V30 3034 N 271.97 1.30982 0.876444 0
M  V30 3035 C 272.917 1.18085 1.98304 0
M  V30 3036 C 273.887 0.0682263 1.6596 0
M  V30 3037 O 275.072 0.239937 1.89285 0
M  V30 3038 C 272.212 0.887475 3.33493 0
M  V30 3039 C 271.325 2.08281 3.78475 0
M  V30 3040 C 270.46 1.72678 5.0235 0
M  V30 3041 C 269.499 2.88657 5.39762 0
M  V30 3042 N 268.636 2.53292 6.54819 0
M  V30 3043 H 273.476 2.1275 2.08666 0
M  V30 3044 H 271.013 1.05839 1.02159 0
M  V30 3045 H 272.971 0.697961 4.1132 0
M  V30 3046 H 271.601 -0.022315 3.22792 0
M  V30 3047 H 270.653 2.3833 2.96484 0
M  V30 3048 H 271.965 2.95108 4.02135 0
M  V30 3049 H 271.119 1.50151 5.87826 0
M  V30 3050 H 269.858 0.830327 4.8058 0
M  V30 3051 H 268.863 3.1184 4.52809 0
M  V30 3052 H 270.088 3.79002 5.63502 0
M  V30 3053 H 268.034 1.66163 6.34607 0
M  V30 3054 H 267.951 3.3365 6.7839 0
M  V30 3055 H 269.219 2.34143 7.43503 0
M  V30 3056 N 273.449 -1.08991 1.13837 0
M  V30 3057 C 274.86 -1.62746 0.914917 0
M  V30 3058 C 275.211 -1.88403 -0.547594 0
M  V30 3059 O 274.336 -1.63706 -1.41525 0
M  V30 3060 C 274.931 -2.95662 1.65437 0
M  V30 3061 C 273.49 -3.46225 1.47666 0
M  V30 3062 C 272.637 -2.20562 1.6807 0
M  V30 3063 H 275.588 -0.922946 1.29102 0
M  V30 3064 H 275.609 -3.63825 1.11407 0
M  V30 3065 H 275.121 -2.76956 2.71877 0
M  V30 3066 H 273.222 -3.70046 0.435478 0
M  V30 3067 H 273.335 -4.23368 2.24268 0
M  V30 3068 H 271.699 -2.29439 1.10589 0
M  V30 3069 H 272.482 -2.0437 2.7584 0
M  V30 3070 N 274.927 -0.932562 -1.27047 0
M  V30 3071 C 275.857 -0.452902 -2.29066 0
M  V30 3072 C 276.838 0.489338 -1.62909 0
M  V30 3073 O 278.023 0.393046 -1.90181 0
M  V30 3074 C 275.153 0.290698 -3.46081 0
M  V30 3075 C 274.107 -0.564168 -4.24265 0
M  V30 3076 C 273.433 0.308886 -5.33807 0
M  V30 3077 C 274.733 -1.83112 -4.89149 0
M  V30 3078 H 276.427 -1.30552 -2.69437 0
M  V30 3079 H 273.973 -0.629201 -1.29526 0
M  V30 3080 H 275.926 0.637233 -4.16554 0
M  V30 3081 H 274.65 1.17738 -3.0464 0
M  V30 3082 H 273.309 -0.893477 -3.55545 0
M  V30 3083 H 272.957 1.19467 -4.88607 0
M  V30 3084 H 272.657 -0.259633 -5.87026 0
M  V30 3085 H 274.181 0.650884 -6.07121 0
M  V30 3086 H 275.595 -1.55236 -5.51883 0
M  V30 3087 H 273.992 -2.34353 -5.52448 0
M  V30 3088 H 275.062 -2.54772 -4.12576 0
M  V30 3089 N 276.405 1.4127 -0.698611 0
M  V30 3090 C 277.368 2.29158 -0.044132 0
M  V30 3091 C 278.368 1.44529 0.704841 0
M  V30 3092 O 279.558 1.65643 0.539276 0
M  V30 3093 C 276.69 3.27459 0.947809 0
M  V30 3094 H 277.883 2.88529 -0.817994 0
M  V30 3095 H 275.436 1.49307 -0.46228 0
M  V30 3096 H 276.171 2.73073 1.74933 0
M  V30 3097 H 275.956 3.8991 0.41385 0
M  V30 3098 H 277.446 3.93311 1.40344 0
M  V30 3099 N 277.883 0.443576 1.51229 0
M  V30 3100 C 279.16 -0.181038 1.9476 0
M  V30 3101 C 279.54 -1.59523 1.38259 0
M  V30 3102 O 278.888 -2.2122 0.572198 0
M  V30 3103 C 279.098 -0.152422 3.48667 0
M  V30 3104 C 280.446 -0.354923 4.23114 0
M  V30 3105 O 281.47 -0.230257 3.55455 0
M  V30 3106 O 280.329 -0.603674 5.43156 0
M  V30 3107 H 277.423 -0.1266 0.817252 0
M  V30 3108 H 279.969 0.502004 1.62105 0
M  V30 3109 H 278.741 0.836022 3.82265 0
M  V30 3110 H 278.364 -0.878107 3.87782 0
M  V30 3111 N 279.361 -1.56624 0.175154 0
M  V30 3112 C 280.291 -2.21155 -0.749195 0
M  V30 3113 C 281.272 -1.16836 -1.23626 0
M  V30 3114 O 282.457 -1.45277 -1.28873 0
M  V30 3115 C 279.587 -2.8553 -1.97711 0
M  V30 3116 C 278.541 -3.95921 -1.62575 0
M  V30 3117 C 277.867 -4.47365 -2.92864 0
M  V30 3118 C 279.167 -5.15323 -0.850838 0
M  V30 3119 H 280.861 -2.98653 -0.211295 0
M  V30 3120 H 278.407 -1.43651 -0.100188 0
M  V30 3121 H 280.36 -3.2935 -2.62881 0
M  V30 3122 H 279.084 -2.05406 -2.53921 0
M  V30 3123 H 277.743 -3.52762 -0.997719 0
M  V30 3124 H 277.391 -3.64027 -3.47122 0
M  V30 3125 H 277.091 -5.21839 -2.70106 0
M  V30 3126 H 278.615 -4.93873 -3.59056 0
M  V30 3127 H 280.029 -5.55812 -1.40521 0
M  V30 3128 H 278.426 -5.95739 -0.722154 0
M  V30 3129 H 279.496 -4.84661 0.152082 0
M  V30 3130 N 280.839 0.0985539 -1.57292 0
M  V30 3131 C 282.116 0.834155 -1.76921 0
M  V30 3132 C 282.496 1.97101 -0.755928 0
M  V30 3133 O 281.844 2.27474 0.216245 0
M  V30 3134 C 282.054 1.33194 -3.22584 0
M  V30 3135 C 283.402 1.77611 -3.85668 0
M  V30 3136 O 284.426 1.42825 -3.26312 0
M  V30 3137 O 283.285 2.4192 -4.90038 0
M  V30 3138 H 280.379 0.397628 -0.725135 0
M  V30 3139 H 282.925 0.0807044 -1.69508 0
M  V30 3140 H 281.697 0.517248 -3.87866 0
M  V30 3141 H 281.32 2.1475 -3.34616 0
M  V30 3142 N 282.317 1.53212 0.369288 0
M  V30 3143 C 283.728 1.60943 0.946276 0
M  V30 3144 C 284.079 0.47452 1.90375 0
M  V30 3145 O 283.204 -0.399597 2.12679 0
M  V30 3146 C 283.799 2.91715 1.72302 0
M  V30 3147 C 282.358 3.01792 2.24941 0
M  V30 3148 C 281.505 2.56211 1.06072 0
M  V30 3149 H 284.456 1.58007 0.148198 0
M  V30 3150 H 284.477 2.79309 2.58393 0
M  V30 3151 H 283.989 3.74295 1.0259 0
M  V30 3152 H 282.09 2.23791 2.97906 0
M  V30 3153 H 282.203 4.06803 2.53077 0
M  V30 3154 H 280.567 2.10998 1.4266 0
M  V30 3155 H 281.35 3.41206 0.378639 0
M  V30 3156 N 283.795 -0.628877 1.44509 0
M  V30 3157 C 285.041 -1.39045 1.47629 0
M  V30 3158 C 285.374 -1.93892 0.109343 0
M  V30 3159 O 284.649 -1.7379 -0.87334 0
M  V30 3160 C 284.932 -2.55408 2.53848 0
M  V30 3161 C 284.785 -2.05896 3.99909 0
M  V30 3162 C 286.104 -3.5759 2.56549 0
M  V30 3163 H 283.223 -0.504232 0.537512 0
M  V30 3164 H 285.865 -0.710854 1.76201 0
M  V30 3165 H 284.015 -3.13384 2.29615 0
M  V30 3166 H 285.687 -1.52734 4.35282 0
M  V30 3167 H 283.93 -1.37061 4.11578 0
M  V30 3168 H 284.601 -2.89681 4.69882 0
M  V30 3169 H 287.077 -3.09419 2.78207 0
M  V30 3170 H 285.953 -4.36527 3.32769 0
M  V30 3171 H 286.214 -4.11808 1.60832 0
M  V30 3172 N 285.273 -1.31445 -0.869486 0
M  V30 3173 C 286.519 -1.21337 -1.62496 0
M  V30 3174 C 286.852 0.227872 -1.92858 0
M  V30 3175 O 286.127 1.16094 -1.56053 0
M  V30 3176 C 286.41 -2.05814 -2.95487 0
M  V30 3177 C 286.263 -3.5824 -2.72 0
M  V30 3178 C 287.582 -1.9079 -3.96594 0
M  V30 3179 H 284.701 -0.442135 -0.589649 0
M  V30 3180 H 287.343 -1.6124 -1.00507 0
M  V30 3181 H 285.493 -1.71913 -3.48394 0
M  V30 3182 H 287.165 -4.0228 -2.25762 0
M  V30 3183 H 285.408 -3.81647 -2.06224 0
M  V30 3184 H 286.079 -4.12657 -3.66631 0
M  V30 3185 H 288.555 -2.20459 -3.52898 0
M  V30 3186 H 287.431 -2.52199 -4.87531 0
M  V30 3187 H 287.692 -0.871341 -4.33428 0
M  V30 3188 N 286.751 1.08385 -1.14413 0
M  V30 3189 C 287.997 1.81044 -0.913834 0
M  V30 3190 C 288.33 1.86004 0.558209 0
M  V30 3191 O 287.605 1.33606 1.4135 0
M  V30 3192 C 287.888 3.26648 -1.51569 0
M  V30 3193 C 287.741 3.29895 -3.0576 0
M  V30 3194 C 289.06 4.23629 -1.19273 0
M  V30 3195 H 286.179 0.65727 -0.333414 0
M  V30 3196 H 288.821 1.26896 -1.41412 0
M  V30 3197 H 286.971 3.72889 -1.09023 0
M  V30 3198 H 288.643 2.91977 -3.57137 0
M  V30 3199 H 286.886 2.69163 -3.40197 0
M  V30 3200 H 287.557 4.32516 -3.42977 0
M  V30 3201 H 290.033 3.85727 -1.56057 0
M  V30 3202 H 288.909 5.23822 -1.64017 0
M  V30 3203 H 289.17 4.41968 -0.108068 0
M  V30 3204 N 288.23 0.939286 1.26551 0
M  V30 3205 C 289.458 0.602536 1.97932 0
M  V30 3206 C 289.873 -0.82206 1.69964 0
M  V30 3207 O 289.23 -1.54789 0.966784 0
M  V30 3208 C 289.281 0.832946 3.51773 0
M  V30 3209 O 289.002 2.20151 3.78768 0
M  V30 3210 C 290.503 0.506483 4.40397 0
M  V30 3211 H 287.723 0.227248 0.631347 0
M  V30 3212 H 290.267 1.25948 1.61113 0
M  V30 3213 H 288.422 0.222644 3.8676 0
M  V30 3214 H 288.836 2.26013 4.73306 0
M  V30 3215 H 290.31 0.718333 5.47306 0
M  V30 3216 H 290.787 -0.558451 4.35635 0
M  V30 3217 H 291.393 1.09543 4.10951 0
M  V30 3218 N 289.708 -1.40897 0.706093 0
M  V30 3219 C 290.955 -2.01054 0.241531 0
M  V30 3220 C 291.283 -1.55956 -1.16223 0
M  V30 3221 O 290.538 -0.766336 -1.80072 0
M  V30 3222 C 290.837 -3.5646 0.259099 0
M  V30 3223 C 290.503 -4.21106 1.61184 0
M  V30 3224 C 289.165 -4.38479 1.98216 0
M  V30 3225 C 291.517 -4.57256 2.50132 0
M  V30 3226 C 288.845 -4.89282 3.2376 0
M  V30 3227 C 291.197 -5.09454 3.7502 0
M  V30 3228 C 289.861 -5.25037 4.12181 0
M  V30 3229 H 289.131 -0.73571 0.0883825 0
M  V30 3230 H 291.778 -1.68645 0.907257 0
M  V30 3231 H 290.083 -3.88721 -0.490189 0
M  V30 3232 H 291.78 -4.00826 -0.11804 0
M  V30 3233 H 288.37 -4.07966 1.31384 0
M  V30 3234 H 292.554 -4.43479 2.228 0
M  V30 3235 H 287.81 -4.99531 3.52532 0
M  V30 3236 H 291.984 -5.36404 4.44121 0
M  V30 3237 H 289.611 -5.64164 5.09532 0
M  V30 3238 N 291.186 -0.45159 -1.50991 0
M  V30 3239 C 292.432 0.102439 -2.03142 0
M  V30 3240 C 292.787 1.39138 -1.32884 0
M  V30 3241 O 292.08 1.86493 -0.439438 0
M  V30 3242 C 292.274 0.361728 -3.55565 0
M  V30 3243 C 292.103 -0.900535 -4.40591 0
M  V30 3244 C 290.873 -1.43821 -4.844 0
M  V30 3245 C 293.071 -1.79063 -4.82121 0
M  V30 3246 N 291.053 -2.65153 -5.53685 0
M  V30 3247 C 292.424 -2.84991 -5.50618 0
M  V30 3248 C 294.479 -1.80334 -4.64095 0
M  V30 3249 C 293.182 -3.92155 -6.02998 0
M  V30 3250 C 295.208 -2.86442 -5.17402 0
M  V30 3251 C 294.57 -3.9109 -5.85857 0
M  V30 3252 H 290.669 -0.00204537 -0.781997 0
M  V30 3253 H 293.253 -0.615446 -1.84717 0
M  V30 3254 H 291.424 1.04865 -3.73976 0
M  V30 3255 H 293.156 0.908372 -3.94374 0
M  V30 3256 H 289.911 -0.990117 -4.63135 0
M  V30 3257 H 290.335 -3.26717 -5.92946 0
M  V30 3258 H 294.977 -1.00753 -4.1062 0
M  V30 3259 H 292.695 -4.72565 -6.55521 0
M  V30 3260 H 296.281 -2.88386 -5.05297 0
M  V30 3261 H 295.161 -4.71845 -6.26364 0
M  V30 3262 N 292.664 1.56529 -0.183458 0
M  V30 3263 C 293.894 2.01331 0.463612 0
M  V30 3264 C 294.302 1.06278 1.5653 0
M  V30 3265 O 293.645 0.0577976 1.83609 0
M  V30 3266 C 293.707 3.42547 1.09096 0
M  V30 3267 C 293.371 4.56817 0.129442 0
M  V30 3268 C 294.368 5.15734 -0.656807 0
M  V30 3269 C 292.053 5.02295 0.02174 0
M  V30 3270 C 294.047 6.1857 -1.53784 0
M  V30 3271 C 291.734 6.04978 -0.862864 0
M  V30 3272 C 292.732 6.62988 -1.64123 0
M  V30 3273 O 292.42 7.63677 -2.51103 0
M  V30 3274 H 292.152 0.664917 0.121907 0
M  V30 3275 H 294.706 2.034 -0.285954 0
M  V30 3276 H 292.936 3.37428 1.88889 0
M  V30 3277 H 294.625 3.71228 1.64148 0
M  V30 3278 H 295.391 4.81473 -0.583839 0
M  V30 3279 H 291.27 4.56847 0.617392 0
M  V30 3280 H 294.814 6.63777 -2.14583 0
M  V30 3281 H 290.711 6.38663 -0.93699 0
M  V30 3282 H 291.479 7.81049 -2.44753 0
M  V30 3283 N 294.142 -0.090211 1.57342 0
M  V30 3284 C 295.558 -0.444547 1.53284 0
M  V30 3285 C 295.758 -1.80238 0.900914 0
M  V30 3286 O 294.814 -2.4759 0.495513 0
M  V30 3287 C 296.127 -0.402543 2.97993 0
M  V30 3288 C 297.675 -0.48405 3.09234 0
M  V30 3289 C 298.15 -0.472144 4.5556 0
M  V30 3290 N 299.641 -0.532757 4.60126 0
M  V30 3291 C 300.376 -0.545462 5.708 0
M  V30 3292 N 299.872 -0.514082 6.9089 0
M  V30 3293 N 301.665 -0.59064 5.58988 0
M  V30 3294 H 293.816 0.799121 1.96794 0
M  V30 3295 H 296.079 0.297965 0.899956 0
M  V30 3296 H 295.785 0.528106 3.47712 0
M  V30 3297 H 295.659 -1.21969 3.56936 0
M  V30 3298 H 298.046 -1.40512 2.595 0
M  V30 3299 H 298.127 0.361328 2.53235 0
M  V30 3300 H 297.771 0.445 5.05947 0
M  V30 3301 H 297.701 -1.3348 5.09402 0
M  V30 3302 H 300.192 -0.562006 3.73698 0
M  V30 3303 H 300.505 -0.527195 7.71 0
M  V30 3304 H 298.85 -0.481054 6.93333 0
M  V30 3305 H 302.041 -0.61272 4.64073 0
M  V30 3306 H 302.214 -0.597073 6.45243 0
M  V30 3307 N 295.62 -1.53406 -0.361157 0
M  V30 3308 C 296.583 -1.79479 -1.42548 0
M  V30 3309 C 297.583 -0.665327 -1.4639 0
M  V30 3310 O 298.773 -0.933549 -1.47073 0
M  V30 3311 C 295.905 -1.92087 -2.8163 0
M  V30 3312 H 297.098 -2.74538 -1.20701 0
M  V30 3313 H 294.651 -1.4455 -0.594546 0
M  V30 3314 H 295.386 -0.991099 -3.08784 0
M  V30 3315 H 295.171 -2.74241 -2.80239 0
M  V30 3316 H 296.661 -2.13836 -3.58697 0
M  V30 3317 N 297.098 0.621204 -1.44841 0
M  V30 3318 C 298.509 1.20298 -1.42777 0
M  V30 3319 C 298.86 1.95639 -0.148259 0
M  V30 3320 O 297.985 2.02955 0.750892 0
M  V30 3321 C 298.58 2.1882 -2.58657 0
M  V30 3322 C 297.139 2.72403 -2.59756 0
M  V30 3323 C 296.286 1.4757 -2.34773 0
M  V30 3324 H 299.237 0.411297 -1.53278 0
M  V30 3325 H 299.258 3.01607 -2.31977 0
M  V30 3326 H 298.77 1.63957 -3.51766 0
M  V30 3327 H 296.871 3.31242 -1.70615 0
M  V30 3328 H 296.984 3.17765 -3.58556 0
M  V30 3329 H 295.348 1.76051 -1.8406 0
M  V30 3330 H 296.131 0.945954 -3.3001 0
M  V30 3331 N 298.576 1.31904 0.862503 0
M  V30 3332 C 299.486 1.22161 2.00285 0
M  V30 3333 C 300.502 0.136785 1.73462 0
M  V30 3334 O 301.678 0.355994 1.98229 0
M  V30 3335 C 298.743 0.937093 3.33796 0
M  V30 3336 C 297.804 2.10957 3.73893 0
M  V30 3337 C 297.037 1.83853 5.01033 0
M  V30 3338 O 297.26 0.777274 5.65079 0
M  V30 3339 O 296.194 2.69741 5.38074 0
M  V30 3340 H 300.02 2.18008 2.11439 0
M  V30 3341 H 297.605 1.11716 0.991957 0
M  V30 3342 H 299.487 0.794583 4.13841 0
M  V30 3343 H 298.162 0.00871894 3.23699 0
M  V30 3344 H 297.069 2.30752 2.94456 0
M  V30 3345 H 298.402 3.02046 3.88625 0
M  V30 3346 N 300.054 -1.07777 1.14986 0
M  V30 3347 C 300.984 -2.16865 0.865557 0
M  V30 3348 C 301.965 -1.69123 -0.182083 0
M  V30 3349 O 303.15 -1.94164 -0.0373815 0
M  V30 3350 C 300.28 -3.45539 0.349313 0
M  V30 3351 C 299.234 -4.06708 1.33313 0
M  V30 3352 C 298.56 -5.30411 0.675918 0
M  V30 3353 C 299.86 -4.47241 2.69764 0
M  V30 3354 H 301.554 -2.40905 1.77778 0
M  V30 3355 H 299.1 -1.15781 0.856203 0
M  V30 3356 H 301.053 -4.21174 0.137983 0
M  V30 3357 H 299.777 -3.21072 -0.598362 0
M  V30 3358 H 298.436 -3.33112 1.53075 0
M  V30 3359 H 298.084 -5.02232 -0.277767 0
M  V30 3360 H 297.784 -5.72293 1.33244 0
M  V30 3361 H 299.308 -6.08755 0.474262 0
M  V30 3362 H 300.722 -5.14025 2.53873 0
M  V30 3363 H 299.119 -5.00062 3.3175 0
M  V30 3364 H 300.189 -3.58818 3.26156 0
M  V30 3365 N 301.532 -0.945985 -1.26051 0
M  V30 3366 C 302.462 -0.477172 -2.28572 0
M  V30 3367 C 303.443 0.472032 -1.63419 0
M  V30 3368 O 304.628 0.372853 -1.90587 0
M  V30 3369 C 301.758 0.253975 -3.4637 0
M  V30 3370 C 300.712 -0.609135 -4.23643 0
M  V30 3371 C 300.038 0.252252 -5.34105 0
M  V30 3372 C 301.338 -1.8829 -4.8718 0
M  V30 3373 H 303.032 -1.33402 -2.68038 0
M  V30 3374 H 300.578 -0.642904 -1.28852 0
M  V30 3375 H 302.531 0.593016 -4.17207 0
M  V30 3376 H 301.255 1.145 -3.05871 0
M  V30 3377 H 299.914 -0.931138 -3.54578 0
M  V30 3378 H 299.562 1.14278 -4.89846 0
M  V30 3379 H 299.262 -0.32188 -5.86718 0
M  V30 3380 H 300.786 0.586454 -6.07777 0
M  V30 3381 H 302.2 -1.61081 -5.50205 0
M  V30 3382 H 300.597 -2.40199 -5.49931 0
M  V30 3383 H 301.667 -2.59134 -4.09851 0
M  V30 3384 N 303.011 1.40521 -0.713556 0
M  V30 3385 C 303.941 2.33381 -0.0743864 0
M  V30 3386 C 304.922 1.52784 0.747735 0
M  V30 3387 O 306.107 1.81258 0.697071 0
M  V30 3388 C 303.237 3.36748 0.849598 0
M  V30 3389 C 302.191 4.27793 0.133247 0
M  V30 3390 C 301.517 5.21679 1.17281 0
M  V30 3391 C 302.817 5.12415 -1.01134 0
M  V30 3392 H 304.511 2.87081 -0.850007 0
M  V30 3393 H 302.057 1.38034 -0.410201 0
M  V30 3394 H 304.01 4.00648 1.30612 0
M  V30 3395 H 302.734 2.81439 1.65709 0
M  V30 3396 H 301.393 3.65342 -0.303426 0
M  V30 3397 H 301.041 4.62677 1.9733 0
M  V30 3398 H 300.741 5.83435 0.698397 0
M  V30 3399 H 302.265 5.88456 1.62947 0
M  V30 3400 H 303.679 5.69781 -0.634274 0
M  V30 3401 H 302.076 5.83203 -1.41399 0
M  V30 3402 H 303.146 4.48514 -1.84292 0
M  V30 3403 N 304.489 0.459591 1.5075 0
M  V30 3404 C 305.737 -0.0991532 2.01857 0
M  V30 3405 C 306.058 -1.41247 1.34441 0
M  V30 3406 O 305.328 -1.89775 0.486022 0
M  V30 3407 H 303.908 -0.039633 0.745948 0
M  V30 3408 H 306.57 0.607387 1.85194 0
M  V30 3409 H 305.666 -0.258998 3.11023 0
M  V30 3410 N 305.967 -1.56429 0.191757 0
M  V30 3411 C 306.93 -2.17707 -0.716688 0
M  V30 3412 C 307.93 -1.13061 -1.14341 0
M  V30 3413 O 309.12 -1.38464 -1.05704 0
M  V30 3414 C 306.252 -2.77644 -1.97804 0
M  V30 3415 H 307.445 -2.99342 -0.1829 0
M  V30 3416 H 304.998 -1.56193 -0.0578566 0
M  V30 3417 H 305.733 -1.99799 -2.55443 0
M  V30 3418 H 305.518 -3.54246 -1.68083 0
M  V30 3419 H 307.008 -3.24708 -2.62592 0
M  V30 3420 N 307.445 0.0818655 -1.57387 0
M  V30 3421 C 308.861 0.436412 -1.53517 0
M  V30 3422 C 309.061 1.79758 -0.910459 0
M  V30 3423 O 308.117 2.47324 -0.508636 0
M  V30 3424 C 309.43 0.386734 -2.98203 0
M  V30 3425 C 310.978 0.467644 -3.09487 0
M  V30 3426 C 311.453 0.447978 -4.55804 0
M  V30 3427 N 312.944 0.508348 -4.60402 0
M  V30 3428 C 313.679 0.515184 -5.71081 0
M  V30 3429 N 313.175 0.477435 -6.91153 0
M  V30 3430 N 314.968 0.560988 -5.59294 0
M  V30 3431 H 307.119 -0.809546 -1.96367 0
M  V30 3432 H 309.382 -0.302733 -0.898363 0
M  V30 3433 H 309.088 -0.546539 -3.47427 0
M  V30 3434 H 308.962 1.20075 -3.57578 0
M  V30 3435 H 311.349 1.39134 -2.60242 0
M  V30 3436 H 311.43 -0.374753 -2.5304 0
M  V30 3437 H 311.074 -0.471826 -5.05704 0
M  V30 3438 H 311.004 1.30777 -5.10103 0
M  V30 3439 H 313.495 0.54218 -3.7399 0
M  V30 3440 H 313.808 0.486299 -7.71268 0
M  V30 3441 H 312.153 0.444278 -6.93579 0
M  V30 3442 H 315.344 0.5881 -4.64391 0
M  V30 3443 H 315.517 0.562846 -6.45551 0
M  V30 3444 N 308.923 1.53595 0.353017 0
M  V30 3445 C 309.873 1.77299 1.43349 0
M  V30 3446 C 310.857 0.627884 1.48143 0
M  V30 3447 O 312.049 0.88697 1.53173 0
M  V30 3448 C 309.178 1.97757 2.80619 0
M  V30 3449 C 308.264 3.18305 2.80254 0
M  V30 3450 N 308.655 4.39967 2.49526 0
M  V30 3451 C 306.953 3.19283 3.11407 0
M  V30 3452 C 307.654 5.21772 2.57156 0
M  V30 3453 N 306.63 4.58269 2.92388 0
M  V30 3454 H 310.432 2.68963 1.18474 0
M  V30 3455 H 307.946 1.52391 0.561306 0
M  V30 3456 H 309.943 2.1287 3.58458 0
M  V30 3457 H 308.603 1.07329 3.06448 0
M  V30 3458 H 309.614 4.67482 2.22893 0
M  V30 3459 H 306.291 2.3879 3.4247 0
M  V30 3460 H 307.681 6.2885 2.36638 0
M  V30 3461 N 310.401 -0.613514 1.45168 0
M  V30 3462 C 311.631 -1.39743 1.52169 0
M  V30 3463 C 312.039 -1.88596 0.151086 0
M  V30 3464 O 311.382 -1.6251 -0.856521 0
M  V30 3465 C 311.444 -2.64035 2.43979 0
M  V30 3466 C 311.108 -2.36861 3.90827 0
M  V30 3467 C 312.105 -1.97591 4.80889 0
M  V30 3468 C 309.79 -2.49956 4.35692 0
M  V30 3469 C 311.784 -1.71768 6.1382 0
M  V30 3470 C 309.471 -2.23747 5.68665 0
M  V30 3471 C 310.469 -1.84714 6.57548 0
M  V30 3472 O 310.157 -1.58809 7.88058 0
M  V30 3473 H 309.889 -0.434382 0.517966 0
M  V30 3474 H 312.443 -0.75587 1.90986 0
M  V30 3475 H 310.673 -3.3089 2.00122 0
M  V30 3476 H 312.362 -3.26069 2.41731 0
M  V30 3477 H 313.128 -1.87015 4.47493 0
M  V30 3478 H 309.007 -2.79305 3.66756 0
M  V30 3479 H 312.551 -1.41227 6.83155 0
M  V30 3480 H 308.448 -2.33938 6.01617 0
M  V30 3481 H 309.216 -1.7291 8.00028 0
M  V30 3482 N 311.879 -1.3236 -0.855495 0
M  V30 3483 C 313.107 -1.2587 -1.64208 0
M  V30 3484 C 313.522 0.173457 -1.88002 0
M  V30 3485 O 312.879 1.11027 -1.44842 0
M  V30 3486 C 312.93 -2.01424 -3.00184 0
M  V30 3487 O 312.651 -3.39051 -2.77445 0
M  V30 3488 C 314.152 -2.01948 -3.94629 0
M  V30 3489 H 311.372 -0.434318 -0.511477 0
M  V30 3490 H 313.916 -1.74469 -1.0668 0
M  V30 3491 H 312.071 -1.56549 -3.5436 0
M  V30 3492 H 312.485 -3.77711 -3.63916 0
M  V30 3493 H 313.959 -2.59297 -4.87308 0
M  V30 3494 H 314.436 -1.00554 -4.27534 0
M  V30 3495 H 315.042 -2.46767 -3.4639 0
M  V30 3496 N 313.357 1.07166 -1.15556 0
M  V30 3497 C 314.304 2.14417 -0.854055 0
M  V30 3498 C 315.274 1.64965 0.193806 0
M  V30 3499 O 316.459 1.90703 0.0609443 0
M  V30 3500 C 313.599 3.43304 -0.351574 0
M  V30 3501 C 312.712 4.06537 -1.46123 0
M  V30 3502 C 311.847 5.23266 -0.914677 0
M  V30 3503 C 310.886 5.78464 -2.00114 0
M  V30 3504 N 310.023 6.86521 -1.47083 0
M  V30 3505 H 314.863 2.39548 -1.77259 0
M  V30 3506 H 312.4 1.17543 -0.884425 0
M  V30 3507 H 314.358 4.17179 -0.0419409 0
M  V30 3508 H 312.988 3.18419 0.530037 0
M  V30 3509 H 312.04 3.30297 -1.88701 0
M  V30 3510 H 313.352 4.43567 -2.28144 0
M  V30 3511 H 312.506 6.04131 -0.557698 0
M  V30 3512 H 311.245 4.87658 -0.0636583 0
M  V30 3513 H 310.25 4.96243 -2.36692 0
M  V30 3514 H 311.475 6.16126 -2.85597 0
M  V30 3515 H 309.421 6.52849 -0.642198 0
M  V30 3516 H 309.338 7.22446 -2.22729 0
M  V30 3517 H 310.606 7.71087 -1.14215 0
M  V30 3518 N 314.835 0.952656 1.25548 0
M  V30 3519 C 315.798 0.475794 2.24207 0
M  V30 3520 C 316.798 -0.419428 1.55234 0
M  V30 3521 O 317.988 -0.216994 1.72843 0
M  V30 3522 C 315.12 -0.312814 3.39462 0
M  V30 3523 H 316.313 1.34779 2.67908 0
M  V30 3524 H 313.866 0.735739 1.37901 0
M  V30 3525 H 314.601 -1.20257 3.01179 0
M  V30 3526 H 314.386 0.329404 3.90714 0
M  V30 3527 H 315.876 -0.635986 4.12729 0
M  V30 3528 N 316.313 -1.40141 0.720998 0
M  V30 3529 C 317.562 -2.0002 0.259804 0
M  V30 3530 C 317.875 -1.57839 -1.15526 0
M  V30 3531 O 319.081 -2.10455 -1.71525 0
M  V30 3532 C 317.537 -3.57516 0.413566 0
M  V30 3533 C 317.145 -4.08667 1.83562 0
M  V30 3534 C 318.889 -4.24498 0.0134387 0
M  V30 3535 C 316.796 -5.58686 1.93968 0
M  V30 3536 H 315.726 -0.748195 0.0933806 0
M  V30 3537 H 318.377 -1.60313 0.892866 0
M  V30 3538 H 316.759 -3.9495 -0.288169 0
M  V30 3539 H 317.933 -3.82598 2.56817 0
M  V30 3540 H 316.248 -3.543 2.1877 0
M  V30 3541 H 318.845 -5.34654 0.0703954 0
M  V30 3542 H 319.188 -4.03375 -1.02927 0
M  V30 3543 H 319.721 -3.92188 0.665815 0
M  V30 3544 H 316.46 -5.8467 2.96379 0
M  V30 3545 H 315.98 -5.86602 1.25131 0
M  V30 3546 H 317.659 -6.23875 1.71431 0
M  V30 3547 N 317.792 -0.46758 -1.50504 0
M  V30 3548 C 319.069 0.15003 -1.95024 0
M  V30 3549 C 319.449 1.57304 -1.40779 0
M  V30 3550 O 318.797 2.20281 -0.607319 0
M  V30 3551 C 319.007 0.0969324 -3.48865 0
M  V30 3552 C 320.355 0.287565 -4.23625 0
M  V30 3553 O 321.379 0.173678 -3.55776 0
M  V30 3554 O 320.238 0.517186 -5.44047 0
M  V30 3555 H 317.332 0.113582 -0.819163 0
M  V30 3556 H 319.878 -0.52773 -1.61286 0
M  V30 3557 H 318.65 -0.896732 -3.80886 0
M  V30 3558 H 318.273 0.816303 -3.8913 0
M  V30 3559 N 319.27 1.56325 -0.20005 0
M  V30 3560 C 320.519 1.96895 0.437652 0
M  V30 3561 C 320.832 1.08999 1.62415 0
M  V30 3562 O 322.038 1.39372 2.32997 0
M  V30 3563 C 320.494 3.50198 0.830025 0
M  V30 3564 C 320.102 4.46765 -0.332461 0
M  V30 3565 C 321.846 3.99526 1.43453 0
M  V30 3566 C 319.753 5.91344 0.0811468 0
M  V30 3567 H 318.683 0.735209 0.167282 0
M  V30 3568 H 321.334 1.81148 -0.292853 0
M  V30 3569 H 319.716 3.61467 1.61734 0
M  V30 3570 H 320.89 4.47231 -1.11 0
M  V30 3571 H 319.205 4.07657 -0.848789 0
M  V30 3572 H 321.802 5.05025 1.75652 0
M  V30 3573 H 322.145 3.44122 2.34277 0
M  V30 3574 H 322.678 3.91393 0.71109 0
M  V30 3575 H 319.417 6.50685 -0.793033 0
M  V30 3576 H 318.937 5.94121 0.823445 0
M  V30 3577 H 320.616 6.44945 0.515252 0
M  V30 3578 N 320.748 -0.0735177 1.57428 0
M  V30 3579 C 321.994 -0.768909 1.88307 0
M  V30 3580 C 322.349 -1.75273 0.793535 0
M  V30 3581 O 321.642 -1.90527 -0.202466 0
M  V30 3582 C 321.836 -1.51799 3.23561 0
M  V30 3583 C 321.665 -0.608217 4.45568 0
M  V30 3584 C 320.435 -0.245808 5.04702 0
M  V30 3585 C 322.633 0.0942904 5.14214 0
M  V30 3586 N 320.615 0.66987 6.10234 0
M  V30 3587 C 321.986 0.867222 6.13905 0
M  V30 3588 C 324.041 0.165943 4.97623 0
M  V30 3589 C 322.744 1.70515 6.98797 0
M  V30 3590 C 324.77 0.990837 5.83041 0
M  V30 3591 C 324.132 1.75182 6.82269 0
M  V30 3592 H 320.231 -0.25685 0.738615 0
M  V30 3593 H 322.815 -0.030499 1.94676 0
M  V30 3594 H 320.986 -2.22713 3.18203 0
M  V30 3595 H 322.718 -2.16226 3.42094 0
M  V30 3596 H 319.473 -0.598284 4.69806 0
M  V30 3597 H 319.897 1.1209 6.67656 0
M  V30 3598 H 324.539 -0.408064 4.20826 0
M  V30 3599 H 322.257 2.29013 7.7497 0
M  V30 3600 H 325.843 1.04923 5.72261 0
M  V30 3601 H 324.723 2.37983 7.47217 0
M  V30 3602 N 322.226 -1.5378 -0.344866 0
M  V30 3603 C 323.189 -1.80981 -1.40637 0
M  V30 3604 C 324.189 -0.680816 -1.45676 0
M  V30 3605 O 325.379 -0.949095 -1.46075 0
M  V30 3606 C 322.511 -1.95063 -2.79577 0
M  V30 3607 H 323.704 -2.75803 -1.17783 0
M  V30 3608 H 321.257 -1.45173 -0.579181 0
M  V30 3609 H 321.992 -1.02379 -3.07716 0
M  V30 3610 H 321.777 -2.77198 -2.77315 0
M  V30 3611 H 323.267 -2.17629 -3.56409 0
M  V30 3612 N 323.704 0.605807 -1.45491 0
M  V30 3613 C 324.953 1.36086 -1.48874 0
M  V30 3614 C 325.266 1.95131 -0.135333 0
M  V30 3615 O 326.472 2.7146 -0.0468144 0
M  V30 3616 C 324.928 2.46518 -2.62215 0
M  V30 3617 C 324.536 1.93877 -4.03876 0
M  V30 3618 C 326.28 3.23512 -2.74846 0
M  V30 3619 C 324.187 3.01801 -5.08596 0
M  V30 3620 H 323.117 0.511497 -0.553974 0
M  V30 3621 H 325.768 0.649089 -1.71636 0
M  V30 3622 H 324.15 3.20388 -2.32739 0
M  V30 3623 H 325.324 1.26704 -4.43038 0
M  V30 3624 H 323.639 1.29622 -3.95711 0
M  V30 3625 H 326.236 4.04013 -3.50253 0
M  V30 3626 H 326.579 3.74631 -1.81542 0
M  V30 3627 H 327.112 2.56742 -3.03856 0
M  V30 3628 H 323.851 2.55597 -6.03614 0
M  V30 3629 H 323.371 3.67535 -4.74002 0
M  V30 3630 H 325.05 3.66152 -5.33424 0
M  V30 3631 N 325.182 1.32811 0.848464 0
M  V30 3632 C 326.43 1.23479 1.59991 0
M  V30 3633 C 326.751 -0.201853 1.93952 0
M  V30 3634 O 326.021 -1.12818 1.60153 0
M  V30 3635 H 324.601 0.454034 0.593179 0
M  V30 3636 H 327.263 1.66412 1.01455 0
M  V30 3637 H 326.359 1.82178 2.53412 0
M  V30 3638 N 326.66 -1.06551 1.16123 0
M  V30 3639 C 327.9 -1.80889 0.951766 0
M  V30 3640 C 328.264 -1.85062 -0.511465 0
M  V30 3641 O 329.465 -2.55353 -0.83954 0
M  V30 3642 C 327.736 -3.21609 1.55893 0
M  V30 3643 S 329.295 -4.12593 1.49373 0
M  V30 3644 H 326.113 -0.623156 0.342341 0
M  V30 3645 H 328.715 -1.27943 1.47821 0
M  V30 3646 H 327.419 -3.16165 2.61664 0
M  V30 3647 H 326.95 -3.79631 1.0317 0
M  V30 3648 H 328.965 -4.93753 0.492196 0
M  V30 3649 N 328.138 -0.959301 -1.25041 0
M  V30 3650 C 329.387 -0.612254 -1.92183 0
M  V30 3651 C 329.7 0.855347 -1.75907 0
M  V30 3652 O 330.906 1.31256 -2.37664 0
M  V30 3653 C 329.362 -1.04435 -3.44414 0
M  V30 3654 C 328.97 -2.53482 -3.69393 0
M  V30 3655 C 330.714 -0.770055 -4.17457 0
M  V30 3656 C 328.621 -2.90468 -5.15153 0
M  V30 3657 H 327.551 -0.225279 -0.719559 0
M  V30 3658 H 330.202 -1.16438 -1.41825 0
M  V30 3659 H 328.584 -0.4206 -3.9376 0
M  V30 3660 H 329.758 -3.20916 -3.30681 0
M  V30 3661 H 328.073 -2.78432 -3.0962 0
M  V30 3662 H 330.67 -1.02249 -5.24832 0
M  V30 3663 H 331.013 0.293611 -4.15263 0
M  V30 3664 H 331.546 -1.35437 -3.74034 0
M  V30 3665 H 328.285 -3.95871 -5.22462 0
M  V30 3666 H 327.805 -2.27711 -5.54894 0
M  V30 3667 H 329.484 -2.79914 -5.83315 0
M  V30 3668 N 329.616 1.39756 -0.72842 0
M  V30 3669 C 330.863 2.00645 -0.273487 0
M  V30 3670 C 331.191 1.57786 1.13727 0
M  V30 3671 O 330.446 0.794886 1.7883 0
M  V30 3672 C 330.745 3.56002 -0.315776 0
M  V30 3673 C 330.411 4.18489 -1.67863 0
M  V30 3674 C 329.073 4.3527 -2.05166 0
M  V30 3675 C 331.425 4.53219 -2.57375 0
M  V30 3676 C 328.753 4.84069 -3.31503 0
M  V30 3677 C 331.105 5.03423 -3.83077 0
M  V30 3678 C 329.769 5.18413 -4.20481 0
M  V30 3679 H 329.039 0.734211 -0.100076 0
M  V30 3680 H 331.686 1.6718 -0.933972 0
M  V30 3681 H 329.991 3.89452 0.428285 0
M  V30 3682 H 331.688 4.00963 0.0542575 0
M  V30 3683 H 328.278 4.05824 -1.37858 0
M  V30 3684 H 332.462 4.39878 -2.29827 0
M  V30 3685 H 327.718 4.93859 -3.60435 0
M  V30 3686 H 331.892 5.2927 -4.52599 0
M  V30 3687 H 329.519 5.55987 -5.18443 0
M  V30 3688 N 331.094 0.475555 1.50254 0
M  V30 3689 C 332.057 -0.305016 2.27161 0
M  V30 3690 C 333.057 -0.916519 1.32123 0
M  V30 3691 O 334.247 -0.785003 1.5551 0
M  V30 3692 C 331.379 -1.43496 3.09227 0
M  V30 3693 H 332.572 0.369511 2.97615 0
M  V30 3694 H 330.125 0.229747 1.54602 0
M  V30 3695 H 330.86 -2.14441 2.43281 0
M  V30 3696 H 330.645 -1.00223 3.79075 0
M  V30 3697 H 332.135 -1.98548 3.67381 0
M  V30 3698 N 332.573 -1.56217 0.208337 0
M  V30 3699 C 333.483 -2.23316 -0.718836 0
M  V30 3700 C 334.499 -1.23648 -1.22422 0
M  V30 3701 O 335.675 -1.56423 -1.26861 0
M  V30 3702 C 332.74 -2.88968 -1.91568 0
M  V30 3703 C 331.801 -4.03943 -1.45357 0
M  V30 3704 C 331.034 -4.66455 -2.59337 0
M  V30 3705 O 331.257 -4.27919 -3.77149 0
M  V30 3706 O 330.191 -5.55686 -2.31293 0
M  V30 3707 H 334.017 -3.03182 -0.177315 0
M  V30 3708 H 331.602 -1.49384 -0.0215402 0
M  V30 3709 H 333.484 -3.30455 -2.61491 0
M  V30 3710 H 332.159 -2.12071 -2.44556 0
M  V30 3711 H 331.066 -3.67052 -0.722746 0
M  V30 3712 H 332.399 -4.82543 -0.970219 0
M  V30 3713 N 334.051 0.0651679 -1.57465 0
M  V30 3714 C 334.981 1.07693 -2.07182 0
M  V30 3715 C 335.962 1.39962 -0.966673 0
M  V30 3716 O 337.147 1.49475 -1.2398 0
M  V30 3717 C 334.277 2.3885 -2.52127 0
M  V30 3718 C 333.231 2.20917 -3.66579 0
M  V30 3719 C 332.557 3.57515 -3.97601 0
M  V30 3720 C 333.857 1.62493 -4.9638 0
M  V30 3721 H 335.551 0.663199 -2.91962 0
M  V30 3722 H 333.097 0.317569 -1.40455 0
M  V30 3723 H 335.05 3.09928 -2.85522 0
M  V30 3724 H 333.774 2.82215 -1.64384 0
M  V30 3725 H 332.433 1.52279 -3.33477 0
M  V30 3726 H 332.081 3.98463 -3.06979 0
M  V30 3727 H 331.781 3.46353 -4.74672 0
M  V30 3728 H 333.305 4.30013 -4.33499 0
M  V30 3729 H 334.719 2.23445 -5.27963 0
M  V30 3730 H 333.116 1.62009 -5.77818 0
M  V30 3731 H 334.186 0.587041 -4.81333 0
M  V30 3732 N 335.529 1.53961 0.336706 0
M  V30 3733 C 336.459 1.85417 1.41925 0
M  V30 3734 C 337.44 0.709856 1.5458 0
M  V30 3735 O 338.625 0.962396 1.68676 0
M  V30 3736 C 335.755 2.06985 2.78881 0
M  V30 3737 C 334.709 3.22813 2.81026 0
M  V30 3738 C 334.035 3.29727 4.20932 0
M  V30 3739 C 335.335 4.60767 2.45949 0
M  V30 3740 H 337.029 2.76079 1.15848 0
M  V30 3741 H 334.575 1.32839 0.555859 0
M  V30 3742 H 336.528 2.27575 3.54665 0
M  V30 3743 H 335.252 1.13061 3.06406 0
M  V30 3744 H 333.911 3.0209 2.07695 0
M  V30 3745 H 333.559 2.33385 4.45579 0
M  V30 3746 H 333.259 4.07566 4.23277 0
M  V30 3747 H 334.783 3.52536 4.98549 0
M  V30 3748 H 336.197 4.81325 3.11446 0
M  V30 3749 H 334.594 5.4106 2.59566 0
M  V30 3750 H 335.664 4.6391 1.41122 0
M  V30 3751 N 337.007 -0.598083 1.45811 0
M  V30 3752 C 338.235 -1.38322 1.53866 0
M  V30 3753 C 338.65 -1.87992 0.174479 0
M  V30 3754 O 338.007 -1.62756 -0.825627 0
M  V30 3755 C 338.058 -2.58125 2.53089 0
M  V30 3756 O 337.779 -2.10516 3.84206 0
M  V30 3757 C 339.28 -3.50869 2.70935 0
M  V30 3758 H 336.5 -0.423093 0.520801 0
M  V30 3759 H 339.044 -0.728527 1.91083 0
M  V30 3760 H 337.199 -3.19615 2.18917 0
M  V30 3761 H 337.613 -2.88425 4.38077 0
M  V30 3762 H 339.087 -4.31451 3.44317 0
M  V30 3763 H 339.564 -4.01822 1.77301 0
M  V30 3764 H 340.17 -2.95225 3.06141 0
M  V30 3765 N 338.485 -1.33259 -0.841409 0
M  V30 3766 C 339.71 -1.2775 -1.63385 0
M  V30 3767 C 340.135 0.149188 -1.87507 0
M  V30 3768 O 339.493 1.10498 -1.43736 0
M  V30 3769 C 339.541 -2.05571 -2.96265 0
M  V30 3770 O 338.645 -1.41257 -3.87453 0
M  V30 3771 H 337.986 -0.439627 -0.497618 0
M  V30 3772 H 340.516 -1.75782 -1.04699 0
M  V30 3773 H 340.526 -2.16241 -3.45982 0
M  V30 3774 H 339.201 -3.09309 -2.7803 0
M  V30 3775 H 337.778 -1.39217 -3.45938 0
M  V30 3776 N 339.963 1.05934 -1.16686 0
M  V30 3777 C 340.873 2.17014 -0.891183 0
M  V30 3778 C 341.889 1.73453 0.137907 0
M  V30 3779 O 343.065 2.01361 -0.039592 0
M  V30 3780 C 340.13 3.44384 -0.400099 0
M  V30 3781 C 339.191 4.02433 -1.49486 0
M  V30 3782 C 338.424 5.23723 -1.02711 0
M  V30 3783 O 338.647 5.7027 0.121716 0
M  V30 3784 O 337.581 5.7382 -1.81699 0
M  V30 3785 H 341.407 2.43113 -1.82015 0
M  V30 3786 H 338.992 1.15541 -0.947132 0
M  V30 3787 H 340.874 4.21189 -0.133392 0
M  V30 3788 H 339.549 3.19802 0.500817 0
M  V30 3789 H 338.456 3.27102 -1.81535 0
M  V30 3790 H 339.789 4.31317 -2.37121 0
M  V30 3791 N 341.441 0.965919 1.2453 0
M  V30 3792 C 342.852 0.665929 1.7442 0
M  V30 3793 C 343.203 -0.818407 1.78316 0
M  V30 3794 O 342.328 -1.64037 1.41141 0
M  V30 3795 C 342.923 1.20211 3.16757 0
M  V30 3796 C 341.482 0.952059 3.6416 0
M  V30 3797 C 340.629 1.33848 2.42858 0
M  V30 3798 H 343.58 1.14144 1.10258 0
M  V30 3799 H 343.601 0.567544 3.76244 0
M  V30 3800 H 343.113 2.28244 3.13889 0
M  V30 3801 H 341.214 -0.112821 3.72429 0
M  V30 3802 H 341.327 1.59645 4.51719 0
M  V30 3803 H 339.691 0.756864 2.43195 0
M  V30 3804 H 340.474 2.42827 2.42673 0
M  V30 3805 N 342.919 -1.39368 0.735821 0
M  V30 3806 C 344.168 -1.99733 0.281004 0
M  V30 3807 C 344.481 -1.59055 -1.13846 0
M  V30 3808 O 345.687 -2.12262 -1.69284 0
M  V30 3809 C 344.143 -3.57057 0.451462 0
M  V30 3810 C 343.751 -4.06697 1.87886 0
M  V30 3811 C 345.495 -4.2446 0.0584616 0
M  V30 3812 C 343.402 -5.56598 1.99883 0
M  V30 3813 H 342.332 -0.747163 0.101311 0
M  V30 3814 H 344.983 -1.59357 0.909819 0
M  V30 3815 H 343.365 -3.95234 -0.246263 0
M  V30 3816 H 344.539 -3.79853 2.60861 0
M  V30 3817 H 342.854 -3.5196 2.22515 0
M  V30 3818 H 345.451 -5.34549 0.127099 0
M  V30 3819 H 345.794 -4.04444 -0.986433 0
M  V30 3820 H 346.327 -3.9146 0.707374 0
M  V30 3821 H 343.066 -5.81494 3.02564 0
M  V30 3822 H 342.586 -5.85242 1.31346 0
M  V30 3823 H 344.265 -6.22022 1.78039 0
M  V30 3824 N 344.397 -0.483516 -1.5 0
M  V30 3825 C 345.644 0.0671597 -2.02389 0
M  V30 3826 C 345.972 1.38597 -1.36459 0
M  V30 3827 O 345.227 1.89634 -0.483458 0
M  V30 3828 C 345.526 0.286226 -3.56252 0
M  V30 3829 C 345.192 -0.952416 -4.40726 0
M  V30 3830 C 343.854 -1.29199 -4.63531 0
M  V30 3831 C 346.206 -1.77655 -4.89988 0
M  V30 3832 C 343.534 -2.45553 -5.32842 0
M  V30 3833 C 345.886 -2.93147 -5.60578 0
M  V30 3834 C 344.55 -3.27505 -5.81633 0
M  V30 3835 H 343.82 0.0245755 -0.740592 0
M  V30 3836 H 346.467 -0.640124 -1.80485 0
M  V30 3837 H 344.772 1.07587 -3.76739 0
M  V30 3838 H 346.469 0.726473 -3.94365 0
M  V30 3839 H 343.059 -0.677881 -4.23205 0
M  V30 3840 H 347.243 -1.52737 -4.72213 0
M  V30 3841 H 342.499 -2.72431 -5.47349 0
M  V30 3842 H 346.673 -3.57344 -5.97727 0
M  V30 3843 H 344.3 -4.1777 -6.35116 0
M  V30 3844 N 345.875 1.56104 -0.216619 0
M  V30 3845 C 346.825 2.16703 0.708798 0
M  V30 3846 C 347.809 1.11392 1.16106 0
M  V30 3847 O 349.001 1.37395 1.11587 0
M  V30 3848 C 346.13 2.84666 1.91886 0
M  V30 3849 C 345.216 3.97195 1.48651 0
M  V30 3850 N 345.607 4.99959 0.766434 0
M  V30 3851 C 343.905 4.09193 1.77418 0
M  V30 3852 C 344.606 5.79126 0.546659 0
M  V30 3853 N 343.582 5.32315 1.10188 0
M  V30 3854 H 347.384 2.93516 0.150162 0
M  V30 3855 H 344.898 1.6239 -0.0176768 0
M  V30 3856 H 346.895 3.26486 2.59253 0
M  V30 3857 H 345.555 2.09347 2.48202 0
M  V30 3858 H 346.566 5.16197 0.419634 0
M  V30 3859 H 343.243 3.45021 2.35088 0
M  V30 3860 H 344.633 6.71895 -0.026103 0
M  V30 3861 N 347.353 -0.0568162 1.57498 0
M  V30 3862 C 348.593 -0.758273 1.89815 0
M  V30 3863 C 348.957 -1.73978 0.812132 0
M  V30 3864 O 350.158 -2.48744 1.01881 0
M  V30 3865 C 348.429 -1.43465 3.27342 0
M  V30 3866 S 349.988 -2.1691 3.81439 0
M  V30 3867 H 346.806 -0.251836 0.664906 0
M  V30 3868 H 349.408 -0.0137997 1.95495 0
M  V30 3869 H 348.112 -0.706693 4.0427 0
M  V30 3870 H 347.643 -2.21825 3.24896 0
M  V30 3871 H 349.658 -3.43658 3.5793 0
M  V30 3872 N 348.832 -1.54138 -0.328536 0
M  V30 3873 C 350.248 -1.44736 -0.672574 0
M  V30 3874 C 350.448 -0.616217 -1.91846 0
M  V30 3875 O 349.504 -0.113067 -2.52247 0
M  V30 3876 C 350.817 -2.884 -0.851217 0
M  V30 3877 C 352.365 -2.98271 -0.948877 0
M  V30 3878 C 352.84 -4.43074 -1.15973 0
M  V30 3879 N 354.331 -4.46665 -1.22658 0
M  V30 3880 C 355.066 -5.55857 -1.40751 0
M  V30 3881 N 354.562 -6.75026 -1.5592 0
M  V30 3882 N 356.355 -5.43495 -1.4342 0
M  V30 3883 H 348.506 -2.06661 0.490421 0
M  V30 3884 H 350.769 -0.934812 0.157579 0
M  V30 3885 H 350.475 -3.51699 -0.00704236 0
M  V30 3886 H 350.349 -3.34225 -1.74853 0
M  V30 3887 H 352.736 -2.35102 -1.78356 0
M  V30 3888 H 352.817 -2.55785 -0.0281435 0
M  V30 3889 H 352.461 -5.06827 -0.329915 0
M  V30 3890 H 352.391 -4.83165 -2.09426 0
M  V30 3891 H 354.882 -3.60797 -1.124 0
M  V30 3892 H 355.195 -7.54004 -1.69404 0
M  V30 3893 H 353.54 -6.77944 -1.53027 0
M  V30 3894 H 356.731 -4.49349 -1.31162 0
M  V30 3895 H 356.904 -6.28649 -1.57178 0
M  V30 3896 N 350.31 0.590341 -1.46126 0
M  V30 3897 C 351.242 1.71427 -1.52136 0
M  V30 3898 C 352.255 1.57542 -0.41042 0
M  V30 3899 O 353.444 1.65106 -0.678389 0
M  V30 3900 C 350.544 3.09605 -1.37834 0
M  V30 3901 C 349.717 3.49566 -2.62912 0
M  V30 3902 C 348.776 4.66773 -2.42918 0
M  V30 3903 O 347.802 4.73019 -3.1661 0
M  V30 3904 N 349.004 5.61161 -1.4859 0
M  V30 3905 H 351.769 1.66728 -2.49042 0
M  V30 3906 H 349.33 0.776113 -1.42085 0
M  V30 3907 H 351.322 3.85796 -1.22243 0
M  V30 3908 H 349.892 3.08714 -0.491393 0
M  V30 3909 H 349.112 2.63158 -2.93499 0
M  V30 3910 H 350.4 3.73028 -3.46017 0
M  V30 3911 H 349.798 5.58844 -0.87808 0
M  V30 3912 H 348.355 6.36814 -1.38965 0
M  V30 3913 N 351.788 1.33704 0.83433 0
M  V30 3914 C 352.698 1.26382 1.97648 0
M  V30 3915 C 353.714 0.173548 1.73132 0
M  V30 3916 O 354.89 0.397962 1.97429 0
M  V30 3917 C 351.955 1.00769 3.31733 0
M  V30 3918 C 351.016 2.1884 3.69334 0
M  V30 3919 C 350.249 1.9444 4.9702 0
M  V30 3920 O 350.472 0.896961 5.63303 0
M  V30 3921 O 349.406 2.81093 5.32231 0
M  V30 3922 H 353.232 2.22444 2.06767 0
M  V30 3923 H 350.817 1.13795 0.968037 0
M  V30 3924 H 352.699 0.882186 4.12062 0
M  V30 3925 H 351.374 0.0773783 3.23608 0
M  V30 3926 H 350.281 2.36946 2.89495 0
M  V30 3927 H 351.614 3.10221 3.82131 0
M  V30 3928 N 353.266 -1.05314 1.17247 0
M  V30 3929 C 354.543 -1.75184 0.87005 0
M  V30 3930 C 354.923 -2.01481 -0.629965 0
M  V30 3931 O 354.271 -1.64988 -1.58086 0
M  V30 3932 C 354.481 -3.04594 1.70363 0
M  V30 3933 C 355.829 -3.78567 1.92281 0
M  V30 3934 O 356.853 -3.14461 1.67311 0
M  V30 3935 O 355.712 -4.93755 2.3424 0
M  V30 3936 H 352.806 -0.761729 0.322021 0
M  V30 3937 H 355.352 -1.11493 1.27935 0
M  V30 3938 H 354.124 -2.81201 2.72106 0
M  V30 3939 H 353.747 -3.76022 1.29202 0
M  V30 3940 N 354.744 -0.972509 -1.24016 0
M  V30 3941 C 355.993 -0.632603 -1.91523 0
M  V30 3942 C 356.306 0.836641 -1.76804 0
M  V30 3943 O 357.512 1.28728 -2.39043 0
M  V30 3944 C 355.968 -1.08082 -3.43287 0
M  V30 3945 C 355.576 -2.57386 -3.66683 0
M  V30 3946 C 357.32 -0.814288 -4.16617 0
M  V30 3947 C 355.227 -2.95915 -5.12043 0
M  V30 3948 H 354.157 -0.232898 -0.717129 0
M  V30 3949 H 356.808 -1.17936 -1.40582 0
M  V30 3950 H 355.19 -0.462339 -3.93292 0
M  V30 3951 H 356.364 -3.24405 -3.27258 0
M  V30 3952 H 354.679 -2.81701 -3.06649 0
M  V30 3953 H 357.276 -1.0781 -5.23718 0
M  V30 3954 H 357.619 0.24955 -4.15551 0
M  V30 3955 H 358.152 -1.39397 -3.72577 0
M  V30 3956 H 354.891 -4.0139 -5.18234 0
M  V30 3957 H 354.411 -2.33584 -5.52448 0
M  V30 3958 H 356.09 -2.86086 -5.80314 0
M  V30 3959 N 356.222 1.38976 -0.743202 0
M  V30 3960 C 357.169 2.30544 -0.10861 0
M  V30 3961 C 358.139 1.49642 0.720869 0
M  V30 3962 O 359.324 1.78304 0.679142 0
M  V30 3963 C 356.464 3.36018 0.786496 0
M  V30 3964 C 355.577 4.31963 -0.0564849 0
M  V30 3965 C 354.712 5.24506 0.840657 0
M  V30 3966 C 353.751 6.121 -0.00658363 0
M  V30 3967 N 352.888 6.96973 0.846943 0
M  V30 3968 H 357.728 2.8424 -0.895088 0
M  V30 3969 H 355.265 1.3995 -0.453048 0
M  V30 3970 H 357.223 3.95768 1.31999 0
M  V30 3971 H 355.853 2.83758 1.53887 0
M  V30 3972 H 354.905 3.73763 -0.707492 0
M  V30 3973 H 356.217 4.93703 -0.711229 0
M  V30 3974 H 355.371 5.89322 1.4417 0
M  V30 3975 H 354.11 4.63107 1.52916 0
M  V30 3976 H 353.115 5.46289 -0.620366 0
M  V30 3977 H 354.34 6.75565 -0.691992 0
M  V30 3978 H 352.286 6.38133 1.52059 0
M  V30 3979 H 352.203 7.5559 0.248864 0
M  V30 3980 H 353.471 7.6621 1.43328 0
M  V30 3981 N 357.7 0.491464 1.49741 0
M  V30 3982 C 358.928 -0.0535151 2.06831 0
M  V30 3983 C 359.343 -1.31683 1.35296 0
M  V30 3984 O 358.7 -1.77402 0.42836 0
M  V30 3985 C 358.751 -0.320835 3.60073 0
M  V30 3986 O 358.472 0.892394 4.28915 0
M  V30 3987 C 359.973 -0.910519 4.33848 0
M  V30 3988 H 357.193 0.0161909 0.670805 0
M  V30 3989 H 359.737 0.68609 1.92647 0
M  V30 3990 H 357.892 -1.0104 3.73991 0
M  V30 3991 H 358.306 0.649401 5.20464 0
M  V30 3992 H 359.78 -1.04721 5.41976 0
M  V30 3993 H 360.257 -1.90589 3.95692 0
M  V30 3994 H 360.863 -0.258712 4.24512 0
M  V30 3995 N 359.178 -1.55987 0.224894 0
M  V30 3996 C 360.403 -2.03232 -0.41369 0
M  V30 3997 C 360.828 -1.10359 -1.52323 0
M  V30 3998 O 360.186 -0.092395 -1.81064 0
M  V30 3999 C 360.234 -3.48682 -0.919405 0
M  V30 4000 O 359.338 -3.58947 -2.03054 0
M  V30 4001 H 358.679 -0.657428 -0.0931903 0
M  V30 4002 H 361.209 -2.01679 0.34451 0
M  V30 4003 H 361.219 -3.8907 -1.22835 0
M  V30 4004 H 359.894 -4.15761 -0.107339 0
M  V30 4005 H 358.471 -3.30448 -1.72796 0
M  V30 4006 N 360.656 0.0484629 -1.57525 0
M  V30 4007 C 361.604 1.07359 -2.06341 0
M  V30 4008 C 362.598 1.3865 -0.973269 0
M  V30 4009 O 363.804 1.37783 -1.15827 0
M  V30 4010 H 360.179 0.363662 -0.65822 0
M  V30 4011 H 362.15 0.635916 -2.91545 0
M  V30 4012 C 360.899 2.37198 -2.54229 0
M  V30 4013 H 360.222 2.13977 -3.37719 0
M  V30 4014 H 361.662 3.07319 -2.92115 0
M  V30 4015 C 360.121 3.04805 -1.43511 0
M  V30 4016 O 360.651 3.93848 -0.79034 0
M  V30 4017 N 358.857 2.65811 -1.17444 0
M  V30 4018 H 358.404 1.93488 -1.70059 0
M  V30 4019 H 358.362 3.11366 -0.435737 0
M  V30 4020 N 362.134 1.5431 0.320358 0
M  V30 4021 C 363.545 1.63872 0.894594 0
M  V30 4022 C 363.896 0.534847 1.88769 0
M  V30 4023 O 363.021 -0.331732 2.13842 0
M  V30 4024 C 363.616 2.97049 1.62934 0
M  V30 4025 C 362.175 3.08796 2.15226 0
M  V30 4026 C 361.322 2.59456 0.978671 0
M  V30 4027 H 364.273 1.58398 0.0978544 0
M  V30 4028 H 364.294 2.87388 2.49376 0
M  V30 4029 H 363.806 3.7737 0.906302 0
M  V30 4030 H 361.907 2.33156 2.90636 0
M  V30 4031 H 362.02 4.14649 2.40006 0
M  V30 4032 H 360.384 2.1543 1.35875 0
M  V30 4033 H 361.167 3.42237 0.269895 0
M  V30 4034 N 363.613 -0.582584 1.46437 0
M  V30 4035 C 364.843 -1.36484 1.55099 0
M  V30 4036 C 365.251 -1.88233 0.191056 0
M  V30 4037 O 364.594 -1.6429 -0.821858 0
M  V30 4038 C 364.656 -2.588 2.49525 0
M  V30 4039 C 364.32 -2.28517 3.95764 0
M  V30 4040 C 365.317 -1.87346 4.84972 0
M  V30 4041 C 363.002 -2.40658 4.40896 0
M  V30 4042 C 364.996 -1.5871 6.17325 0
M  V30 4043 C 362.683 -2.11635 5.73284 0
M  V30 4044 C 363.681 -1.70725 6.61318 0
M  V30 4045 O 363.369 -1.42057 7.91249 0
M  V30 4046 H 363.101 -0.423297 0.527063 0
M  V30 4047 H 365.655 -0.715188 1.92547 0
M  V30 4048 H 363.885 -3.26571 2.07095 0
M  V30 4049 H 365.574 -3.20868 2.48593 0
M  V30 4050 H 366.34 -1.77481 4.5136 0
M  V30 4051 H 362.219 -2.71463 3.72598 0
M  V30 4052 H 365.763 -1.26704 6.85997 0
M  V30 4053 H 361.66 -2.21124 6.06444 0
M  V30 4054 H 362.428 -1.55901 8.03515 0
M  V30 4055 N 365.091 -1.34144 -0.827227 0
M  V30 4056 C 366.041 -1.21923 -1.92663 0
M  V30 4057 C 367.025 -0.119294 -1.60457 0
M  V30 4058 O 368.217 -0.348539 -1.73534 0
M  V30 4059 C 365.346 -0.972492 -3.29238 0
M  V30 4060 C 364.432 -2.1154 -3.67576 0
M  V30 4061 N 364.823 -3.36627 -3.77512 0
M  V30 4062 C 363.121 -2.02468 -3.97395 0
M  V30 4063 C 363.822 -4.11658 -4.1099 0
M  V30 4064 N 362.798 -3.40207 -4.23981 0
M  V30 4065 H 366.6 -2.16721 -1.98517 0
M  V30 4066 H 364.114 -1.2632 -1.02064 0
M  V30 4067 H 366.111 -0.865847 -4.0781 0
M  V30 4068 H 364.771 -0.0331509 -3.24683 0
M  V30 4069 H 365.782 -3.71234 -3.61118 0
M  V30 4070 H 362.459 -1.16265 -4.00985 0
M  V30 4071 H 363.849 -5.19657 -4.25918 0
M  V30 4072 N 366.569 1.04691 -1.17803 0
M  V30 4073 C 367.519 2.10856 -0.867391 0
M  V30 4074 C 368.503 1.601 0.160206 0
M  V30 4075 O 369.695 1.76948 -0.042947 0
M  V30 4076 C 366.824 3.411 -0.388012 0
M  V30 4077 C 365.91 3.9864 -1.44732 0
M  V30 4078 N 366.301 4.30075 -2.66212 0
M  V30 4079 C 364.599 4.26439 -1.30637 0
M  V30 4080 C 365.3 4.76033 -3.34317 0
M  V30 4081 N 364.276 4.76462 -2.61696 0
M  V30 4082 H 368.078 2.33029 -1.79094 0
M  V30 4083 H 365.592 1.22386 -1.0675 0
M  V30 4084 H 367.589 4.16641 -0.146994 0
M  V30 4085 H 366.249 3.20357 0.529271 0
M  V30 4086 H 367.26 4.19917 -3.03134 0
M  V30 4087 H 363.937 4.15056 -0.451129 0
M  V30 4088 H 365.327 5.09427 -4.38103 0
M  V30 4089 N 368.047 0.979072 1.23499 0
M  V30 4090 C 369.324 0.563674 1.87302 0
M  V30 4091 C 369.704 -0.959199 1.88049 0
M  V30 4092 O 369.052 -1.83535 1.36114 0
M  V30 4093 C 369.262 1.16822 3.28867 0
M  V30 4094 C 370.61 1.26014 4.0547 0
M  V30 4095 O 371.634 1.12158 3.38082 0
M  V30 4096 O 370.493 1.48044 5.26066 0
M  V30 4097 H 367.587 0.189602 0.804972 0
M  V30 4098 H 370.133 1.07407 1.31384 0
M  V30 4099 H 368.905 2.21049 3.22883 0
M  V30 4100 H 368.528 0.642564 3.92373 0
M  V30 4101 N 369.525 -1.3858 0.750561 0
M  V30 4102 C 370.457 -2.29057 0.0810714 0
M  V30 4103 C 371.47 -1.47596 -0.686973 0
M  V30 4104 O 372.659 -1.70495 -0.528563 0
M  V30 4105 C 369.759 -3.26475 -0.909247 0
M  V30 4106 C 368.932 -4.36945 -0.199478 0
M  V30 4107 C 367.991 -5.14572 -1.10011 0
M  V30 4108 O 367.017 -5.66321 -0.57177 0
M  V30 4109 N 368.219 -5.27262 -2.42849 0
M  V30 4110 H 370.984 -2.87153 0.858087 0
M  V30 4111 H 368.545 -1.50328 0.60109 0
M  V30 4112 H 370.537 -3.75285 -1.51471 0
M  V30 4113 H 369.107 -2.69298 -1.58736 0
M  V30 4114 H 368.327 -3.8981 0.586664 0
M  V30 4115 H 369.615 -5.07963 0.291783 0
M  V30 4116 H 369.013 -4.86763 -2.88233 0
M  V30 4117 H 367.57 -5.79456 -2.98453 0
M  V30 4118 N 371.003 -0.499398 -1.49478 0
M  V30 4119 C 371.933 0.269244 -2.31943 0
M  V30 4120 C 372.914 0.964054 -1.40143 0
M  V30 4121 O 374.099 0.955767 -1.69052 0
M  V30 4122 C 371.229 1.33504 -3.20615 0
M  V30 4123 C 370.183 0.760202 -4.21195 0
M  V30 4124 C 369.509 1.9264 -4.98792 0
M  V30 4125 C 370.809 -0.247661 -5.21712 0
M  V30 4126 H 372.503 -0.419082 -2.96452 0
M  V30 4127 H 370.049 -0.202988 -1.42562 0
M  V30 4128 H 372.002 1.88048 -3.77115 0
M  V30 4129 H 370.726 2.05253 -2.54045 0
M  V30 4130 H 369.385 0.23653 -3.65836 0
M  V30 4131 H 369.033 2.63154 -4.28671 0
M  V30 4132 H 368.733 1.54785 -5.66847 0
M  V30 4133 H 370.257 2.4762 -5.58137 0
M  V30 4134 H 371.671 0.209579 -5.72917 0
M  V30 4135 H 370.068 -0.541962 -5.97648 0
M  V30 4136 H 371.138 -1.16409 -4.7072 0
M  V30 4137 N 372.481 1.55866 -0.233164 0
M  V30 4138 C 373.758 1.90471 0.444988 0
M  V30 4139 C 374.138 1.15209 1.7689 0
M  V30 4140 O 373.486 0.265119 2.26957 0
M  V30 4141 C 373.696 3.4333 0.626559 0
M  V30 4142 C 375.044 4.14319 0.92871 0
M  V30 4143 O 376.068 3.48993 0.712926 0
M  V30 4144 O 374.927 5.29846 1.33887 0
M  V30 4145 H 372.021 0.792347 0.236885 0
M  V30 4146 H 374.567 1.67437 -0.276211 0
M  V30 4147 H 373.339 3.90095 -0.306822 0
M  V30 4148 H 372.962 3.72181 1.39881 0
M  V30 4149 N 373.959 -0.0401083 1.57549 0
M  V30 4150 C 375.375 -0.395556 1.54621 0
M  V30 4151 C 375.575 -1.77281 0.957799 0
M  V30 4152 O 374.631 -2.45888 0.574031 0
M  V30 4153 C 375.944 -0.307535 2.99123 0
M  V30 4154 C 377.492 -0.385425 3.10618 0
M  V30 4155 C 377.967 -0.326973 4.56831 0
M  V30 4156 N 379.458 -0.386102 4.61588 0
M  V30 4157 C 380.193 -0.363591 5.72246 0
M  V30 4158 N 379.689 -0.29402 6.92176 0
M  V30 4159 N 381.482 -0.412503 5.60584 0
M  V30 4160 H 373.633 0.861325 1.94152 0
M  V30 4161 H 375.896 0.326445 0.890021 0
M  V30 4162 H 375.602 0.638461 3.45856 0
M  V30 4163 H 375.476 -1.10552 3.60636 0
M  V30 4164 H 377.863 -1.32185 2.63839 0
M  V30 4165 H 377.944 0.44171 2.51957 0
M  V30 4166 H 377.588 0.605738 5.04275 0
M  V30 4167 H 377.518 -1.17207 5.13391 0
M  V30 4168 H 380.009 -0.442832 3.75296 0
M  V30 4169 H 380.322 -0.28164 7.72287 0
M  V30 4170 H 378.667 -0.260232 6.94513 0
M  V30 4171 H 381.858 -0.464769 4.65787 0
M  V30 4172 H 382.031 -0.391492 6.46816 0
M  V30 4173 N 375.437 -1.54477 -0.31217 0
M  V30 4174 C 376.686 -1.72438 -1.04633 0
M  V30 4175 C 376.999 -0.511163 -1.88803 0
M  V30 4176 O 378.205 -0.572341 -2.65399 0
M  V30 4177 C 376.661 -3.05043 -1.9099 0
M  V30 4178 C 376.269 -4.33806 -1.11877 0
M  V30 4179 C 378.013 -3.32364 -2.64073 0
M  V30 4180 C 375.92 -5.57467 -1.97445 0
M  V30 4181 H 374.85 -0.642647 -0.394361 0
M  V30 4182 H 377.501 -1.80966 -0.303929 0
M  V30 4183 H 375.883 -2.90451 -2.69173 0
M  V30 4184 H 377.057 -4.59199 -0.383843 0
M  V30 4185 H 375.372 -4.13336 -0.504252 0
M  V30 4186 H 377.969 -4.21951 -3.28423 0
M  V30 4187 H 378.312 -2.50745 -3.32314 0
M  V30 4188 H 378.845 -3.47875 -1.92944 0
M  V30 4189 H 375.584 -6.41722 -1.33692 0
M  V30 4190 H 375.104 -5.36277 -2.6864 0
M  V30 4191 H 376.783 -5.94303 -2.5576 0
M  V30 4192 N 376.915 0.57481 -1.46744 0
M  V30 4193 C 378.162 1.33272 -1.52462 0
M  V30 4194 C 378.49 1.93669 -0.179572 0
M  V30 4195 O 377.745 1.7743 0.825664 0
M  V30 4196 C 378.044 2.476 -2.57738 0
M  V30 4197 C 377.71 2.05146 -4.01529 0
M  V30 4198 C 376.372 1.93284 -4.40676 0
M  V30 4199 C 378.724 1.72506 -4.91824 0
M  V30 4200 C 376.052 1.47049 -5.67973 0
M  V30 4201 C 378.404 1.27748 -6.19567 0
M  V30 4202 C 377.068 1.14468 -6.57612 0
M  V30 4203 H 376.338 0.487678 -0.557899 0
M  V30 4204 H 378.985 0.646456 -1.80259 0
M  V30 4205 H 377.29 3.21708 -2.23632 0
M  V30 4206 H 378.987 3.05807 -2.5939 0
M  V30 4207 H 375.577 2.15316 -3.7059 0
M  V30 4208 H 379.761 1.80552 -4.62293 0
M  V30 4209 H 375.017 1.35417 -5.96215 0
M  V30 4210 H 379.191 1.01547 -6.88957 0
M  V30 4211 H 376.818 0.78419 -7.56145 0
M  V30 4212 N 378.394 1.34581 0.820102 0
M  V30 4213 C 379.342 1.26401 1.95258 0
M  V30 4214 C 380.336 0.161553 1.68628 0
M  V30 4215 O 381.542 0.326703 1.7701 0
M  V30 4216 H 377.917 0.392749 0.64129 0
M  V30 4217 H 379.888 2.22105 1.99279 0
M  V30 4218 C 378.637 1.03919 3.31807 0
M  V30 4219 H 377.96 1.87984 3.52848 0
M  V30 4220 H 379.4 1.02232 4.11491 0
M  V30 4221 C 377.859 -0.257433 3.35915 0
M  V30 4222 O 378.389 -1.25784 3.81499 0
M  V30 4223 N 376.595 -0.291524 2.89134 0
M  V30 4224 H 376.142 0.523161 2.52232 0
M  V30 4225 H 376.1 -1.15883 2.92264 0
M  V30 4226 N 379.872 -1.04064 1.18357 0
M  V30 4227 C 381.118 -1.77528 0.980397 0
M  V30 4228 C 381.451 -1.87948 -0.48879 0
M  V30 4229 O 380.726 -1.3876 -1.36293 0
M  V30 4230 C 381.009 -3.20797 1.63588 0
M  V30 4231 C 380.862 -3.1832 3.17793 0
M  V30 4232 C 382.181 -4.18911 1.34914 0
M  V30 4233 H 379.3 -0.644443 0.357578 0
M  V30 4234 H 381.942 -1.2156 1.46024 0
M  V30 4235 H 380.092 -3.68586 1.22788 0
M  V30 4236 H 381.764 -2.78521 3.67728 0
M  V30 4237 H 380.007 -2.56351 3.49952 0
M  V30 4238 H 380.678 -4.19489 3.58794 0
M  V30 4239 H 383.154 -3.7967 1.70265 0
M  V30 4240 H 382.03 -5.17374 1.83346 0
M  V30 4241 H 382.291 -4.41262 0.272027 0
M  V30 4242 N 381.35 -0.985608 -1.22978 0
M  V30 4243 C 382.283 -0.47487 -2.23204 0
M  V30 4244 C 383.261 0.460865 -1.55932 0
M  V30 4245 O 384.445 0.388105 -1.84461 0
M  V30 4246 C 381.572 0.312427 -3.37256 0
M  V30 4247 C 380.618 -0.568219 -4.22698 0
M  V30 4248 S 381.451 -2.01919 -4.95973 0
M  V30 4249 C 382.607 -1.24118 -6.1347 0
M  V30 4250 H 382.84 -1.32419 -2.66181 0
M  V30 4251 H 380.373 -0.792005 -1.32539 0
M  V30 4252 H 382.331 0.760645 -4.03391 0
M  V30 4253 H 380.992 1.13693 -2.92801 0
M  V30 4254 H 380.185 0.0371657 -5.03986 0
M  V30 4255 H 379.787 -0.952897 -3.61657 0
M  V30 4256 H 382.079 -0.505121 -6.75614 0
M  V30 4257 H 383.022 -2.02907 -6.78406 0
M  V30 4258 H 383.43 -0.757669 -5.59392 0
M  V30 4259 N 382.828 1.3818 -0.7579 0
M  V30 4260 C 384.076 1.99624 -0.315361 0
M  V30 4261 C 384.397 1.60464 1.10799 0
M  V30 4262 O 383.667 0.863507 1.75842 0
M  V30 4263 H 382.247 0.73831 -0.113611 0
M  V30 4264 H 384.909 1.68878 -0.972952 0
M  V30 4265 H 384.005 3.09754 -0.381931 0
M  V30 4266 N 384.306 0.507319 1.49211 0
M  V30 4267 C 385.553 -0.0349529 2.0247 0
M  V30 4268 C 385.881 -1.36409 1.38647 0
M  V30 4269 O 385.136 -1.88841 0.513566 0
M  V30 4270 C 385.435 -0.229513 3.56662 0
M  V30 4271 C 385.101 1.02241 4.39156 0
M  V30 4272 C 383.763 1.36557 4.61417 0
M  V30 4273 C 386.115 1.85428 4.871 0
M  V30 4274 C 383.443 2.53999 5.28868 0
M  V30 4275 C 385.795 3.02028 5.55843 0
M  V30 4276 C 384.459 3.36717 5.76349 0
M  V30 4277 H 383.729 -0.0127902 0.74089 0
M  V30 4278 H 386.376 0.668756 1.79443 0
M  V30 4279 H 384.681 -1.0158 3.78403 0
M  V30 4280 H 386.378 -0.663641 3.9547 0
M  V30 4281 H 382.968 0.745124 4.22073 0
M  V30 4282 H 387.152 1.6023 4.69723 0
M  V30 4283 H 382.408 2.81105 5.42946 0
M  V30 4284 H 386.582 3.66808 5.91967 0
M  V30 4285 H 384.209 4.27821 6.28389 0
M  V30 4286 N 385.784 -1.5574 0.241426 0
M  V30 4287 C 387.195 -1.84842 -0.262755 0
M  V30 4288 C 387.546 -1.16317 -1.58003 0
M  V30 4289 O 386.671 -0.439653 -2.11887 0
M  V30 4290 C 387.266 -3.35332 -0.483523 0
M  V30 4291 C 385.825 -3.6468 -0.931977 0
M  V30 4292 C 384.972 -2.77299 -0.0061151 0
M  V30 4293 H 387.923 -1.51761 0.464129 0
M  V30 4294 H 387.944 -3.56615 -1.32688 0
M  V30 4295 H 387.456 -3.85178 0.47537 0
M  V30 4296 H 385.557 -3.20307 -1.90353 0
M  V30 4297 H 385.67 -4.72498 -0.792628 0
M  V30 4298 H 384.034 -2.49408 -0.516503 0
M  V30 4299 H 384.817 -3.2995 0.948052 0
M  V30 4300 N 387.262 0.0317525 -1.57568 0
M  V30 4301 C 388.225 1.01783 -2.0536 0
M  V30 4302 C 389.225 1.29203 -0.957253 0
M  V30 4303 O 390.415 1.24251 -1.22095 0
M  V30 4304 C 387.547 2.35137 -2.46827 0
M  V30 4305 H 388.74 0.605062 -2.93733 0
M  V30 4306 H 386.293 0.278514 -1.53799 0
M  V30 4307 H 387.028 2.81168 -1.61602 0
M  V30 4308 H 386.813 2.16566 -3.26866 0
M  V30 4309 H 388.303 3.05938 -2.84239 0
M  V30 4310 N 388.74 1.54641 0.303973 0
M  V30 4311 C 390.017 1.64455 1.05896 0
M  V30 4312 C 390.397 0.490923 2.05312 0
M  V30 4313 O 389.745 -0.512685 2.22674 0
M  V30 4314 C 389.955 3.02331 1.74347 0
M  V30 4315 C 391.303 3.59045 2.26653 0
M  V30 4316 O 392.327 3.04764 1.84384 0
M  V30 4317 O 391.186 4.54081 3.04093 0
M  V30 4318 H 388.28 0.666729 0.489287 0
M  V30 4319 H 390.826 1.66986 0.302298 0
M  V30 4320 H 389.598 3.77734 1.02142 0
M  V30 4321 H 389.221 3.03565 2.56777 0
M  V30 4322 N 390.218 -0.567019 1.47046 0
M  V30 4323 C 391.165 -1.67489 1.58796 0
M  V30 4324 C 392.135 -1.60399 0.43144 0
M  V30 4325 O 393.32 -1.79378 0.650233 0
M  V30 4326 C 390.46 -3.05821 1.59899 0
M  V30 4327 C 389.573 -3.2342 2.86397 0
M  V30 4328 C 388.708 -4.52093 2.789 0
M  V30 4329 C 387.747 -4.6309 4.00267 0
M  V30 4330 N 386.884 -5.83106 3.91064 0
M  V30 4331 H 391.724 -1.56785 2.53422 0
M  V30 4332 H 389.261 -0.763896 1.2571 0
M  V30 4333 H 391.219 -3.8591 1.58522 0
M  V30 4334 H 389.849 -3.15384 0.687929 0
M  V30 4335 H 388.901 -2.3683 2.97684 0
M  V30 4336 H 390.213 -3.27412 3.76301 0
M  V30 4337 H 389.367 -5.4043 2.75718 0
M  V30 4338 H 388.106 -4.50565 1.86662 0
M  V30 4339 H 387.111 -3.73168 4.03765 0
M  V30 4340 H 388.336 -4.66386 4.93621 0
M  V30 4341 H 386.282 -5.82546 3.01623 0
M  V30 4342 H 386.199 -5.88434 4.74638 0
M  V30 4343 H 387.467 -6.73831 3.91882 0
M  V30 4344 N 391.696 -1.35014 -0.812953 0
M  V30 4345 C 392.973 -1.18502 -1.55617 0
M  V30 4346 C 393.353 0.238421 -2.09749 0
M  V30 4347 O 392.701 1.2411 -1.91857 0
M  V30 4348 C 392.911 -2.24783 -2.66971 0
M  V30 4349 C 394.259 -2.60268 -3.35478 0
M  V30 4350 O 395.283 -2.23648 -2.77236 0
M  V30 4351 O 394.142 -3.2321 -4.40678 0
M  V30 4352 H 391.236 -0.459984 -0.687272 0
M  V30 4353 H 393.782 -1.46677 -0.853464 0
M  V30 4354 H 392.554 -3.20284 -2.24798 0
M  V30 4355 H 392.177 -1.97841 -3.44884 0
M  V30 4356 N 393.175 1.03435 -1.18907 0
M  V30 4357 C 394.421 1.7713 -0.99982 0
M  V30 4358 C 394.776 1.86695 0.465049 0
M  V30 4359 O 394.069 1.36866 1.34083 0
M  V30 4360 C 394.263 3.19792 -1.59586 0
M  V30 4361 C 394.092 3.24134 -3.11717 0
M  V30 4362 C 392.862 3.32398 -3.80578 0
M  V30 4363 C 395.06 3.11625 -4.09138 0
M  V30 4364 N 393.042 3.26055 -5.20155 0
M  V30 4365 C 394.413 3.12855 -5.35277 0
M  V30 4366 C 396.468 2.95713 -4.00572 0
M  V30 4367 C 395.171 2.99805 -6.53842 0
M  V30 4368 C 397.197 2.84011 -5.1874 0
M  V30 4369 C 396.559 2.8589 -6.43775 0
M  V30 4370 H 392.658 0.659683 -0.419931 0
M  V30 4371 H 395.242 1.2317 -1.50789 0
M  V30 4372 H 393.413 3.72085 -1.11389 0
M  V30 4373 H 395.145 3.81819 -1.3415 0
M  V30 4374 H 391.9 3.38392 -3.31342 0
M  V30 4375 H 392.324 3.26307 -5.93172 0
M  V30 4376 H 396.966 2.93086 -3.0473 0
M  V30 4377 H 394.684 3.01184 -7.49876 0
M  V30 4378 H 398.27 2.72744 -5.13909 0
M  V30 4379 H 397.15 2.76931 -7.33675 0
M  V30 4380 N 394.653 0.992116 1.22453 0
M  V30 4381 C 395.563 0.55065 2.28046 0
M  V30 4382 C 396.579 -0.400189 1.69335 0
M  V30 4383 O 397.755 -0.267215 1.99619 0
M  V30 4384 C 394.82 -0.128496 3.46462 0
M  V30 4385 C 393.881 0.865208 4.20491 0
M  V30 4386 C 393.114 0.218377 5.33253 0
M  V30 4387 O 393.337 -0.987894 5.6178 0
M  V30 4388 O 392.271 0.922845 5.94783 0
M  V30 4389 H 396.097 1.4291 2.67975 0
M  V30 4390 H 393.682 0.760326 1.28606 0
M  V30 4391 H 395.564 -0.508947 4.18315 0
M  V30 4392 H 394.239 -0.981526 3.0846 0
M  V30 4393 H 393.146 1.29658 3.50913 0
M  V30 4394 H 394.479 1.68741 4.62371 0
M  V30 4395 N 396.131 -1.37776 0.765217 0
M  V30 4396 C 397.408 -1.93975 0.251596 0
M  V30 4397 C 397.788 -1.69949 -1.25222 0
M  V30 4398 O 397.136 -1.04457 -2.03226 0
M  V30 4399 C 397.346 -3.43487 0.617895 0
M  V30 4400 C 398.694 -4.20564 0.584029 0
M  V30 4401 O 399.718 -3.5182 0.556888 0
M  V30 4402 O 398.577 -5.43138 0.605291 0
M  V30 4403 H 395.671 -0.82509 0.0561806 0
M  V30 4404 H 398.217 -1.47101 0.846128 0
M  V30 4405 H 396.989 -3.5453 1.65602 0
M  V30 4406 H 396.612 -3.976 -0.00403411 0
M  V30 4407 N 397.609 -0.515225 -1.4894 0
M  V30 4408 C 398.858 0.0261361 -2.01683 0
M  V30 4409 C 399.171 1.36719 -1.39883 0
M  V30 4410 O 400.377 1.99606 -1.84037 0
M  V30 4411 C 398.833 0.0970111 -3.59769 0
M  V30 4412 C 398.441 -1.23825 -4.30548 0
M  V30 4413 C 400.185 0.587981 -4.20408 0
M  V30 4414 C 398.092 -1.12877 -5.80528 0
M  V30 4415 H 397.022 0.0135398 -0.753878 0
M  V30 4416 H 399.673 -0.656787 -1.71343 0
M  V30 4417 H 398.055 0.844694 -3.86886 0
M  V30 4418 H 399.229 -2.00034 -4.15118 0
M  V30 4419 H 397.544 -1.66379 -3.81716 0
M  V30 4420 H 400.141 0.68763 -5.3026 0
M  V30 4421 H 400.484 1.59026 -3.84729 0
M  V30 4422 H 401.017 -0.103582 -3.97665 0
M  V30 4423 H 397.756 -2.10575 -6.20756 0
M  V30 4424 H 397.276 -0.407799 -5.98412 0
M  V30 4425 H 398.955 -0.813332 -6.41868 0
M  V30 4426 N 399.087 1.5561 -0.249682 0
M  V30 4427 C 400.034 2.21496 0.648694 0
M  V30 4428 C 401.004 1.17977 1.16921 0
M  V30 4429 O 402.189 1.46434 1.22318 0
M  V30 4430 C 399.329 2.92039 1.83868 0
M  V30 4431 C 398.442 4.10219 1.35442 0
M  V30 4432 C 397.577 4.6847 2.50419 0
M  V30 4433 C 396.616 5.78893 1.98869 0
M  V30 4434 N 395.753 6.31315 3.07223 0
M  V30 4435 H 400.593 2.97892 0.0801582 0
M  V30 4436 H 398.13 1.47074 0.0278031 0
M  V30 4437 H 400.088 3.31138 2.53778 0
M  V30 4438 H 398.718 2.18111 2.37965 0
M  V30 4439 H 397.77 3.76413 0.54928 0
M  V30 4440 H 399.082 4.89927 0.936649 0
M  V30 4441 H 398.236 5.10158 3.28366 0
M  V30 4442 H 396.975 3.87984 2.95499 0
M  V30 4443 H 395.98 5.3668 1.19393 0
M  V30 4444 H 397.205 6.61232 1.54755 0
M  V30 4445 H 395.151 5.53733 3.51732 0
M  V30 4446 H 395.068 7.06224 2.69784 0
M  V30 4447 H 396.336 6.77662 3.8522 0
M  V30 4448 N 400.565 -0.0233959 1.57583 0
M  V30 4449 C 401.512 -1.02224 2.06927 0
M  V30 4450 C 402.482 -1.35575 0.959617 0
M  V30 4451 O 403.667 -1.45815 1.23055 0
M  V30 4452 C 400.807 -2.31636 2.5581 0
M  V30 4453 C 399.92 -2.04394 3.80588 0
M  V30 4454 C 399.055 -3.27717 4.18061 0
M  V30 4455 C 398.094 -2.96056 5.3574 0
M  V30 4456 N 397.231 -4.11847 5.68618 0
M  V30 4457 H 402.071 -0.594504 2.9201 0
M  V30 4458 H 399.608 -0.281921 1.44373 0
M  V30 4459 H 401.566 -3.07258 2.82221 0
M  V30 4460 H 400.196 -2.72122 1.73636 0
M  V30 4461 H 399.248 -1.19244 3.61227 0
M  V30 4462 H 400.56 -1.77042 4.66323 0
M  V30 4463 H 399.714 -4.11702 4.4563 0
M  V30 4464 H 398.453 -3.58188 3.30988 0
M  V30 4465 H 397.458 -2.10474 5.07918 0
M  V30 4466 H 398.683 -2.66857 6.24471 0
M  V30 4467 H 396.629 -4.42258 4.84504 0
M  V30 4468 H 396.546 -3.87938 6.48876 0
M  V30 4469 H 397.814 -4.96689 6.00766 0
M  V30 4470 N 402.043 -1.548 -0.295768 0
M  V30 4471 C 402.976 -1.81003 -1.38972 0
M  V30 4472 C 403.954 -0.661544 -1.48534 0
M  V30 4473 O 405.138 -0.902074 -1.65514 0
M  V30 4474 C 402.265 -1.95141 -2.76835 0
M  V30 4475 C 401.311 -3.17592 -2.84671 0
M  V30 4476 S 402.144 -4.75531 -2.46232 0
M  V30 4477 C 403.3 -4.92613 -3.86114 0
M  V30 4478 H 403.533 -2.73507 -1.16537 0
M  V30 4479 H 401.066 -1.46278 -0.494168 0
M  V30 4480 H 403.024 -2.03972 -3.56238 0
M  V30 4481 H 401.685 -1.03565 -2.96535 0
M  V30 4482 H 400.878 -3.24303 -3.85803 0
M  V30 4483 H 400.48 -3.07235 -2.13267 0
M  V30 4484 H 402.772 -4.76957 -4.81164 0
M  V30 4485 H 403.715 -5.94698 -3.8437 0
M  V30 4486 H 404.123 -4.2073 -3.76359 0
M  V30 4487 N 403.521 0.559213 -1.47345 0
M  V30 4488 C 404.932 1.14134 -1.47751 0
M  V30 4489 C 405.283 1.94834 -0.231103 0
M  V30 4490 O 404.408 2.05957 0.664137 0
M  V30 4491 C 405.003 2.07653 -2.67705 0
M  V30 4492 C 403.562 2.61141 -2.71076 0
M  V30 4493 C 402.709 1.3748 -2.40821 0
M  V30 4494 H 405.66 0.345917 -1.54884 0
M  V30 4495 H 405.681 2.91497 -2.44561 0
M  V30 4496 H 405.193 1.4889 -3.58404 0
M  V30 4497 H 403.294 3.23707 -1.84511 0
M  V30 4498 H 403.407 3.02272 -3.7171 0
M  V30 4499 H 401.771 1.68086 -1.91362 0
M  V30 4500 H 402.554 0.805135 -3.33725 0
M  V30 4501 N 404.999 1.35443 0.805782 0
M  V30 4502 C 405.909 1.30546 1.94923 0
M  V30 4503 C 406.925 0.210233 1.72725 0
M  V30 4504 O 408.101 0.43975 1.9654 0
M  V30 4505 C 405.166 1.07782 3.29521 0
M  V30 4506 C 404.227 2.26625 3.64609 0
M  V30 4507 C 403.46 2.04938 4.92784 0
M  V30 4508 O 403.683 1.01624 5.61274 0
M  V30 4509 O 402.617 2.9232 5.26149 0
M  V30 4510 H 406.443 2.26779 2.02002 0
M  V30 4511 H 404.028 1.15823 0.943682 0
M  V30 4512 H 405.91 0.969392 4.10098 0
M  V30 4513 H 404.585 0.146003 3.23371 0
M  V30 4514 H 403.492 2.43033 2.84404 0
M  V30 4515 H 404.825 3.18257 3.75464 0
M  V30 4516 N 406.477 -1.02803 1.19454 0
M  V30 4517 C 407.427 -2.0945 0.900827 0
M  V30 4518 C 408.411 -1.60335 -0.134715 0
M  V30 4519 O 409.603 -1.76857 0.0710924 0
M  V30 4520 C 406.732 -3.4044 0.442229 0
M  V30 4521 C 405.818 -3.96286 1.51056 0
M  V30 4522 N 406.209 -4.25785 2.73021 0
M  V30 4523 C 404.507 -4.24307 1.37404 0
M  V30 4524 C 405.208 -4.70654 3.41848 0
M  V30 4525 N 404.184 -4.72238 2.69243 0
M  V30 4526 H 407.986 -2.3015 1.82779 0
M  V30 4527 H 405.5 -1.20672 1.08683 0
M  V30 4528 H 407.497 -4.16354 0.21326 0
M  V30 4529 H 406.157 -3.21159 -0.478238 0
M  V30 4530 H 407.168 -4.15041 3.09776 0
M  V30 4531 H 403.845 -4.14285 0.517103 0
M  V30 4532 H 405.235 -5.02392 4.46152 0
M  V30 4533 N 407.956 -0.998596 -1.21925 0
M  V30 4534 C 409.181 -0.696015 -1.95372 0
M  V30 4535 C 409.606 0.733826 -1.73195 0
M  V30 4536 O 408.964 1.50242 -1.01474 0
M  V30 4537 C 409.012 -1.01466 -3.4603 0
M  V30 4538 O 408.116 -0.116415 -4.12236 0
M  V30 4539 H 407.457 -0.259938 -0.611006 0
M  V30 4540 H 409.987 -1.33711 -1.54863 0
M  V30 4541 H 409.997 -0.958855 -3.96573 0
M  V30 4542 H 408.672 -2.05653 -3.61497 0
M  V30 4543 H 407.249 -0.228193 -3.72201 0
M  V30 4544 N 409.434 1.37368 -0.772513 0
M  V30 4545 C 410.662 2.03942 -0.348588 0
M  V30 4546 C 411.077 1.58264 1.02947 0
M  V30 4547 O 410.434 0.764246 1.65727 0
M  V30 4548 C 410.485 3.5946 -0.38351 0
M  V30 4549 O 410.206 4.03468 -1.70721 0
M  V30 4550 C 411.707 4.4327 0.0519152 0
M  V30 4551 H 408.927 0.654931 -0.145966 0
M  V30 4552 H 411.471 1.75686 -1.04665 0
M  V30 4553 H 409.626 3.86486 0.265978 0
M  V30 4554 H 410.04 4.97991 -1.64636 0
M  V30 4555 H 411.514 5.51995 -0.0236733 0
M  V30 4556 H 411.991 4.2514 1.10238 0
M  V30 4557 H 412.597 4.21471 -0.569415 0
M  V30 4558 N 410.912 0.523116 1.48665 0
M  V30 4559 C 411.842 -0.23231 2.32342 0
M  V30 4560 C 412.823 -0.941637 1.41659 0
M  V30 4561 O 414.008 -0.928751 1.70552 0
M  V30 4562 C 411.138 -1.28387 3.22698 0
M  V30 4563 C 410.092 -0.693098 4.22351 0
M  V30 4564 C 409.418 -1.8468 5.01794 0
M  V30 4565 C 410.718 0.33063 5.21252 0
M  V30 4566 H 412.412 0.466192 2.95748 0
M  V30 4567 H 409.958 0.225643 1.42221 0
M  V30 4568 H 411.911 -1.82024 3.80059 0
M  V30 4569 H 410.635 -2.01186 2.57278 0
M  V30 4570 H 409.294 -0.178299 3.66166 0
M  V30 4571 H 408.942 -2.56301 4.32804 0
M  V30 4572 H 408.642 -1.45747 5.69238 0
M  V30 4573 H 410.166 -2.38709 5.62006 0
M  V30 4574 H 411.58 -0.118407 5.73178 0
M  V30 4575 H 409.977 0.636974 5.9671 0
M  V30 4576 H 411.047 1.23883 4.68808 0
M  V30 4577 N 412.39 -1.55475 0.257931 0
M  V30 4578 C 413.323 -2.179 -0.677862 0
M  V30 4579 C 414.301 -1.13448 -1.16483 0
M  V30 4580 O 415.485 -1.41889 -1.24095 0
M  V30 4581 C 412.612 -2.78851 -1.92249 0
M  V30 4582 C 411.658 -3.96454 -1.57246 0
M  V30 4583 S 412.491 -5.31349 -0.665501 0
M  V30 4584 C 413.647 -5.9576 -1.91889 0
M  V30 4585 H 413.88 -2.96934 -0.147396 0
M  V30 4586 H 411.413 -1.54342 0.0423023 0
M  V30 4587 H 413.371 -3.14602 -2.63697 0
M  V30 4588 H 412.032 -1.99742 -2.42409 0
M  V30 4589 H 411.225 -4.37731 -2.49814 0
M  V30 4590 H 410.827 -3.62038 -0.938325 0
M  V30 4591 H 413.119 -6.13947 -2.86487 0
M  V30 4592 H 414.062 -6.9094 -1.54942 0
M  V30 4593 H 414.47 -5.2494 -2.076 0
M  V30 4594 N 413.868 0.0150385 -1.57593 0
M  V30 4595 C 414.815 1.01126 -2.07466 0
M  V30 4596 C 415.785 1.35064 -0.966794 0
M  V30 4597 O 416.97 1.4516 -1.23827 0
M  V30 4598 C 414.11 2.30276 -2.57035 0
M  V30 4599 C 413.223 2.02373 -3.81666 0
M  V30 4600 C 412.358 3.25496 -4.19793 0
M  V30 4601 C 411.397 2.93211 -5.37303 0
M  V30 4602 N 410.534 4.08826 -5.70794 0
M  V30 4603 H 415.374 0.57901 -2.92321 0
M  V30 4604 H 412.911 0.27426 -1.44521 0
M  V30 4605 H 414.869 3.05757 -2.83846 0
M  V30 4606 H 413.499 2.71197 -1.75077 0
M  V30 4607 H 412.551 1.17327 -3.61854 0
M  V30 4608 H 413.863 1.74567 -4.67256 0
M  V30 4609 H 413.017 4.09333 -4.47807 0
M  V30 4610 H 411.756 3.56428 -3.32882 0
M  V30 4611 H 410.761 2.07777 -5.09027 0
M  V30 4612 H 411.986 2.63542 -6.25877 0
M  V30 4613 H 409.932 4.39682 -4.86842 0
M  V30 4614 H 409.849 3.84491 -6.50924 0
M  V30 4615 H 411.117 4.93496 -6.03392 0
M  V30 4616 N 415.346 1.54954 0.287554 0
M  V30 4617 C 416.623 1.65569 1.04146 0
M  V30 4618 C 417.003 0.512672 2.0478 0
M  V30 4619 O 416.351 -0.489038 2.23205 0
M  V30 4620 C 416.561 3.04163 1.71131 0
M  V30 4621 C 417.909 3.61429 2.22832 0
M  V30 4622 O 418.933 3.06702 1.81141 0
M  V30 4623 O 417.792 4.57281 2.9926 0
M  V30 4624 H 414.886 0.671881 0.482188 0
M  V30 4625 H 417.432 1.67297 0.28457 0
M  V30 4626 H 416.204 3.78796 0.981303 0
M  V30 4627 H 415.827 3.06271 2.53543 0
M  V30 4628 N 416.824 -0.551391 1.4764 0
M  V30 4629 C 418.071 -1.3083 1.54563 0
M  V30 4630 C 418.399 -1.93359 0.210361 0
M  V30 4631 O 417.654 -1.78721 -0.797332 0
M  V30 4632 C 417.953 -2.43469 2.61644 0
M  V30 4633 C 417.619 -1.98732 4.04742 0
M  V30 4634 C 416.281 -1.86248 4.43695 0
M  V30 4635 C 418.633 -1.64659 4.94507 0
M  V30 4636 C 415.961 -1.37995 5.70241 0
M  V30 4637 C 418.313 -1.17875 6.21521 0
M  V30 4638 C 416.977 -1.03992 6.5935 0
M  V30 4639 H 416.247 -0.478741 0.565587 0
M  V30 4640 H 418.894 -0.617697 1.81264 0
M  V30 4641 H 417.199 -3.18109 2.28722 0
M  V30 4642 H 418.896 -3.01642 2.64222 0
M  V30 4643 H 415.486 -2.09393 3.73968 0
M  V30 4644 H 419.67 -1.73174 4.65107 0
M  V30 4645 H 414.926 -1.25915 5.98294 0
M  V30 4646 H 419.1 -0.905739 6.90485 0
M  V30 4647 H 416.727 -0.663794 7.57296 0
M  V30 4648 N 418.302 -1.35869 -0.798587 0
M  V30 4649 C 419.718 -1.16082 -1.09532 0
M  V30 4650 C 419.918 0.0213124 -2.01489 0
M  V30 4651 O 418.974 0.689488 -2.42904 0
M  V30 4652 C 420.287 -2.46748 -1.7186 0
M  V30 4653 C 421.835 -2.53028 -1.84244 0
M  V30 4654 C 422.31 -3.83758 -2.49988 0
M  V30 4655 N 423.801 -3.85053 -2.57465 0
M  V30 4656 C 424.536 -4.8294 -3.09122 0
M  V30 4657 N 424.032 -5.91217 -3.61157 0
M  V30 4658 N 425.825 -4.70369 -3.0775 0
M  V30 4659 H 417.976 -2.11571 -0.187461 0
M  V30 4660 H 420.239 -0.936726 -0.145765 0
M  V30 4661 H 419.945 -3.33471 -1.11759 0
M  V30 4662 H 419.819 -2.61883 -2.71472 0
M  V30 4663 H 422.206 -1.66729 -2.43486 0
M  V30 4664 H 422.287 -2.418 -0.834643 0
M  V30 4665 H 421.931 -4.70459 -1.91393 0
M  V30 4666 H 421.861 -3.92278 -3.5132 0
M  V30 4667 H 424.352 -3.06822 -2.20609 0
M  V30 4668 H 424.665 -6.61892 -3.98896 0
M  V30 4669 H 423.01 -5.94899 -3.59333 0
M  V30 4670 H 426.201 -3.84914 -2.66381 0
M  V30 4671 H 426.374 -5.46816 -3.47701 0
M  V30 4672 N 419.78 1.02168 -1.19998 0
M  V30 4673 C 421.196 1.27969 -0.953737 0
M  V30 4674 C 421.396 1.98079 0.369703 0
M  V30 4675 O 420.452 2.27306 1.09947 0
M  V30 4676 C 421.765 2.11971 -2.13281 0
M  V30 4677 C 423.313 2.25255 -2.17323 0
M  V30 4678 C 423.788 3.12632 -3.34702 0
M  V30 4679 N 425.279 3.2022 -3.34684 0
M  V30 4680 C 426.014 3.88039 -4.22153 0
M  V30 4681 N 425.51 4.58027 -5.19791 0
M  V30 4682 N 427.303 3.84511 -4.10009 0
M  V30 4683 H 419.454 0.550794 -2.05134 0
M  V30 4684 H 421.717 0.305683 -0.897364 0
M  V30 4685 H 421.423 1.67785 -3.09097 0
M  V30 4686 H 421.297 3.12699 -2.10949 0
M  V30 4687 H 423.684 2.68667 -1.22073 0
M  V30 4688 H 423.765 1.24053 -2.23706 0
M  V30 4689 H 423.409 2.69926 -4.30235 0
M  V30 4690 H 423.339 4.13909 -3.25556 0
M  V30 4691 H 425.83 2.70382 -2.64012 0
M  V30 4692 H 426.143 5.07429 -5.82868 0
M  V30 4693 H 424.488 4.56869 -5.23733 0
M  V30 4694 H 427.679 3.28978 -3.33003 0
M  V30 4695 H 427.852 4.3709 -4.78389 0
M  V30 4696 N 421.258 1.00505 1.21394 0
M  V30 4697 C 422.206 0.558623 2.25792 0
M  V30 4698 C 423.2 -0.396848 1.64686 0
M  V30 4699 O 424.406 -0.268035 1.77993 0
M  V30 4700 H 420.781 0.1623 0.734277 0
M  V30 4701 H 422.752 1.4503 2.60785 0
M  V30 4702 C 421.501 -0.0989574 3.47559 0
M  V30 4703 H 420.824 0.627225 3.94849 0
M  V30 4704 H 422.264 -0.3746 4.22342 0
M  V30 4705 C 420.723 -1.33817 3.09184 0
M  V30 4706 O 421.253 -2.43252 3.19674 0
M  V30 4707 N 419.459 -1.21793 2.63846 0
M  V30 4708 H 419.006 -0.32746 2.5551 0
M  V30 4709 H 418.964 -2.04809 2.38539 0
M  V30 4710 N 422.737 -1.36956 0.779787 0
M  V30 4711 C 423.965 -2.03755 0.359398 0
M  V30 4712 C 424.38 -1.58807 -1.02106 0
M  V30 4713 O 423.737 -0.773024 -1.6532 0
M  V30 4714 C 423.788 -3.59251 0.402568 0
M  V30 4715 O 423.509 -4.02557 1.72858 0
M  V30 4716 C 425.01 -4.43291 -0.0284068 0
M  V30 4717 H 422.23 -0.654148 0.149437 0
M  V30 4718 H 424.774 -1.75128 1.05595 0
M  V30 4719 H 422.929 -3.86621 -0.245478 0
M  V30 4720 H 423.343 -4.97111 1.67275 0
M  V30 4721 H 424.817 -5.51975 0.0529466 0
M  V30 4722 H 425.294 -4.25719 -1.07982 0
M  V30 4723 H 425.9 -4.21163 0.591758 0
M  V30 4724 N 424.215 -0.530993 -1.48385 0
M  V30 4725 C 425.445 -0.00133928 -2.066 0
M  V30 4726 C 425.853 1.28599 -1.38777 0
M  V30 4727 O 425.196 1.77599 -0.469495 0
M  V30 4728 C 425.258 0.292137 -3.58311 0
M  V30 4729 C 424.922 -0.901864 -4.48013 0
M  V30 4730 C 425.919 -1.80053 -4.87726 0
M  V30 4731 C 423.604 -1.10915 -4.89901 0
M  V30 4732 C 425.598 -2.89038 -5.68098 0
M  V30 4733 C 423.285 -2.20213 -5.70043 0
M  V30 4734 C 424.283 -3.09107 -6.0905 0
M  V30 4735 O 423.971 -4.16514 -6.87583 0
M  V30 4736 H 423.703 -0.0308475 -0.675296 0
M  V30 4737 H 426.257 -0.736335 -1.91748 0
M  V30 4738 H 424.487 1.08112 -3.7128 0
M  V30 4739 H 426.176 0.763994 -3.98645 0
M  V30 4740 H 426.942 -1.65234 -4.55986 0
M  V30 4741 H 422.821 -0.426498 -4.59023 0
M  V30 4742 H 426.365 -3.58451 -5.98464 0
M  V30 4743 H 422.262 -2.35016 -6.01197 0
M  V30 4744 H 423.03 -4.14237 -7.05939 0
M  V30 4745 N 425.693 1.55336 -0.266172 0
M  V30 4746 C 426.921 2.03801 0.356756 0
M  V30 4747 C 427.336 1.14485 1.50129 0
M  V30 4748 O 426.693 0.163121 1.8177 0
M  V30 4749 C 426.744 3.51455 0.846281 0
M  V30 4750 O 426.465 4.37371 -0.252663 0
M  V30 4751 C 427.966 4.15767 1.53794 0
M  V30 4752 H 425.186 0.665906 0.0825218 0
M  V30 4753 H 427.73 2.00636 -0.39566 0
M  V30 4754 H 425.885 3.55092 1.54881 0
M  V30 4755 H 426.299 5.24358 0.122173 0
M  V30 4756 H 427.773 5.20714 1.83198 0
M  V30 4757 H 428.25 3.63404 2.46646 0
M  V30 4758 H 428.856 4.16107 0.879488 0
M  V30 4759 N 427.171 -0.0066808 1.57599 0
M  V30 4760 C 428.119 -1.01851 2.09115 0
M  V30 4761 C 429.113 -1.36021 1.00969 0
M  V30 4762 O 430.319 -1.34663 1.19439 0
M  V30 4763 H 426.694 -0.346083 0.667631 0
M  V30 4764 H 428.665 -0.558394 2.93129 0
M  V30 4765 C 427.414 -2.30374 2.60429 0
M  V30 4766 H 426.737 -2.04947 3.43273 0
M  V30 4767 H 428.177 -2.99466 3.00161 0
M  V30 4768 C 426.636 -3.00893 1.51542 0
M  V30 4769 O 427.166 -3.91614 0.894484 0
M  V30 4770 N 425.372 -2.62603 1.2445 0
M  V30 4771 H 424.919 -1.88911 1.75129 0
M  V30 4772 H 424.877 -3.10101 0.518137 0
M  V30 4773 N 428.649 -1.55105 -0.279332 0
M  V30 4774 C 429.889 -1.7716 -1.01949 0
M  V30 4775 C 430.253 -0.557511 -1.83728 0
M  V30 4776 O 431.454 -0.656198 -2.60667 0
M  V30 4777 C 429.725 -3.0372 -1.88385 0
M  V30 4778 S 431.284 -3.46868 -2.68752 0
M  V30 4779 H 428.102 -0.62253 -0.343478 0
M  V30 4780 H 430.704 -1.93329 -0.290572 0
M  V30 4781 H 429.408 -3.90184 -1.2722 0
M  V30 4782 H 428.939 -2.902 -2.65608 0
M  V30 4783 H 430.954 -3.05643 -3.90892 0
M  V30 4784 N 430.127 0.543554 -1.4793 0
M  V30 4785 C 431.352 1.32995 -1.59145 0
M  V30 4786 C 431.777 1.86472 -0.246956 0
M  V30 4787 O 431.135 1.63696 0.779324 0
M  V30 4788 C 431.183 2.46623 -2.63077 0
M  V30 4789 O 430.287 3.49261 -2.19295 0
M  V30 4790 H 429.628 0.394472 -0.534124 0
M  V30 4791 H 432.158 0.655489 -1.93816 0
M  V30 4792 H 432.168 2.93001 -2.83926 0
M  V30 4793 H 430.843 2.07059 -3.60693 0
M  V30 4794 H 429.42 3.09094 -2.08603 0
M  V30 4795 N 431.605 1.3629 0.791371 0
M  V30 4796 C 432.535 1.33137 1.91825 0
M  V30 4797 C 433.516 0.203168 1.68882 0
M  V30 4798 O 434.701 0.400509 1.90025 0
M  V30 4799 C 431.831 1.11793 3.28816 0
M  V30 4800 C 430.785 2.21417 3.66277 0
M  V30 4801 C 430.111 1.85218 5.01596 0
M  V30 4802 C 431.411 3.63489 3.75064 0
M  V30 4803 H 433.105 2.2743 1.9472 0
M  V30 4804 H 430.651 1.09479 0.935437 0
M  V30 4805 H 432.604 1.08222 4.07266 0
M  V30 4806 H 431.328 0.139501 3.26302 0
M  V30 4807 H 429.987 2.2411 2.90121 0
M  V30 4808 H 429.635 0.859544 4.95602 0
M  V30 4809 H 429.335 2.58611 5.27631 0
M  V30 4810 H 430.859 1.832 5.82469 0
M  V30 4811 H 432.273 3.63034 4.43711 0
M  V30 4812 H 430.67 4.35771 4.12582 0
M  V30 4813 H 431.74 3.98536 2.76219 0
M  V30 4814 N 433.083 -1.0153 1.20538 0
M  V30 4815 C 434.332 -1.74558 1.01057 0
M  V30 4816 C 434.645 -1.90168 -0.457756 0
M  V30 4817 O 435.851 -2.60301 -0.771722 0
M  V30 4818 C 434.307 -3.13963 1.75941 0
M  V30 4819 C 433.915 -3.06361 3.26875 0
M  V30 4820 C 435.659 -3.91191 1.64832 0
M  V30 4821 C 433.566 -4.40782 3.94291 0
M  V30 4822 H 432.496 -0.654417 0.374505 0
M  V30 4823 H 435.147 -1.13521 1.44171 0
M  V30 4824 H 433.529 -3.75549 1.25614 0
M  V30 4825 H 434.703 -2.54074 3.84425 0
M  V30 4826 H 433.018 -2.42625 3.38411 0
M  V30 4827 H 435.615 -4.90644 2.12539 0
M  V30 4828 H 435.958 -4.11884 0.604745 0
M  V30 4829 H 436.491 -3.36236 2.12579 0
M  V30 4830 H 433.23 -4.25292 4.98805 0
M  V30 4831 H 432.75 -4.9307 3.41529 0
M  V30 4832 H 434.429 -5.09621 3.98617 0
M  V30 4833 N 434.561 -1.01147 -1.20859 0
M  V30 4834 C 435.508 -0.577354 -2.23462 0
M  V30 4835 C 436.478 0.399922 -1.61214 0
M  V30 4836 O 437.663 0.300515 -1.88419 0
M  V30 4837 C 434.803 0.083372 -3.44999 0
M  V30 4838 C 433.916 -0.937856 -4.21697 0
M  V30 4839 C 433.051 -0.248717 -5.30617 0
M  V30 4840 C 432.09 -1.25705 -5.99053 0
M  V30 4841 N 431.227 -0.594939 -6.99575 0
M  V30 4842 H 436.067 -1.45695 -2.59956 0
M  V30 4843 H 433.604 -0.729428 -1.27741 0
M  V30 4844 H 435.562 0.483535 -4.14388 0
M  V30 4845 H 434.192 0.926645 -3.09214 0
M  V30 4846 H 433.244 -1.45622 -3.51423 0
M  V30 4847 H 434.556 -1.70493 -4.68757 0
M  V30 4848 H 433.71 0.207215 -6.06346 0
M  V30 4849 H 432.449 0.55071 -4.84581 0
M  V30 4850 H 431.454 -1.72343 -5.2209 0
M  V30 4851 H 432.679 -2.05767 -6.47176 0
M  V30 4852 H 430.625 0.184713 -6.5574 0
M  V30 4853 H 430.542 -1.30017 -7.44736 0
M  V30 4854 H 431.81 -0.162427 -7.79331 0
M  V30 4855 N 436.039 1.36541 -0.78704 0
M  V30 4856 C 437.269 2.03266 -0.369662 0
M  V30 4857 C 437.677 1.59481 1.01796 0
M  V30 4858 O 437.02 0.778612 1.66383 0
M  V30 4859 C 437.082 3.57779 -0.351371 0
M  V30 4860 C 436.746 4.24756 -1.68617 0
M  V30 4861 C 437.743 4.47811 -2.64124 0
M  V30 4862 C 435.428 4.62277 -1.96481 0
M  V30 4863 C 437.422 5.07464 -3.85693 0
M  V30 4864 C 435.109 5.21649 -3.18317 0
M  V30 4865 C 436.107 5.44182 -4.12741 0
M  V30 4866 O 435.795 6.02307 -5.32429 0
M  V30 4867 H 435.527 0.658977 -0.150751 0
M  V30 4868 H 438.081 1.75548 -1.0664 0
M  V30 4869 H 436.311 3.84606 0.401847 0
M  V30 4870 H 438 4.05879 0.0410147 0
M  V30 4871 H 438.766 4.19221 -2.43883 0
M  V30 4872 H 434.645 4.44065 -1.23805 0
M  V30 4873 H 438.189 5.24968 -4.59407 0
M  V30 4874 H 434.086 5.49664 -3.38437 0
M  V30 4875 H 434.854 6.20775 -5.33461 0
M  V30 4876 N 437.518 0.538854 1.48102 0
M  V30 4877 C 438.451 -0.266495 2.26639 0
M  V30 4878 C 439.429 -0.93687 1.32897 0
M  V30 4879 O 440.613 -0.959507 1.62252 0
M  V30 4880 C 437.74 -1.37814 3.09394 0
M  V30 4881 C 436.786 -0.818247 4.18577 0
M  V30 4882 S 437.619 0.320848 5.34538 0
M  V30 4883 C 438.775 -0.793059 6.20855 0
M  V30 4884 H 439.008 0.399994 2.94597 0
M  V30 4885 H 436.541 0.324808 1.50945 0
M  V30 4886 H 438.499 -2.01488 3.57649 0
M  V30 4887 H 437.16 -2.01639 2.40833 0
M  V30 4888 H 436.353 -1.65247 4.7614 0
M  V30 4889 H 435.955 -0.258036 3.73109 0
M  V30 4890 H 438.247 -1.68961 6.56093 0
M  V30 4891 H 439.19 -0.255204 7.0764 0
M  V30 4892 H 439.598 -1.07746 5.54122 0
M  V30 4893 N 438.996 -1.55193 0.274407 0
M  V30 4894 C 439.906 -2.26164 -0.623473 0
M  V30 4895 C 440.922 -1.28729 -1.17068 0
M  V30 4896 O 442.098 -1.61663 -1.20112 0
M  V30 4897 C 439.163 -2.96833 -1.7914 0
M  V30 4898 C 438.224 -4.09745 -1.28093 0
M  V30 4899 C 437.457 -4.77034 -2.3932 0
M  V30 4900 O 437.68 -4.4353 -3.5866 0
M  V30 4901 O 436.614 -5.64996 -2.07516 0
M  V30 4902 H 440.44 -3.03661 -0.0485661 0
M  V30 4903 H 438.025 -1.49341 0.0418382 0
M  V30 4904 H 439.907 -3.41248 -2.4724 0
M  V30 4905 H 438.582 -2.22253 -2.35341 0
M  V30 4906 H 437.489 -3.69787 -0.566416 0
M  V30 4907 H 438.822 -4.86224 -0.764683 0
M  V30 4908 N 440.474 -0.00167713 -1.576 0
M  V30 4909 C 441.421 0.989195 -2.08527 0
M  V30 4910 C 442.391 1.34031 -0.981065 0
M  V30 4911 O 443.576 1.43839 -1.2536 0
M  V30 4912 C 440.716 2.27537 -2.59463 0
M  V30 4913 C 439.829 1.98314 -3.83791 0
M  V30 4914 C 438.964 3.21025 -4.23222 0
M  V30 4915 C 438.003 2.87495 -5.40382 0
M  V30 4916 N 437.14 4.02749 -5.75098 0
M  V30 4917 H 441.98 0.547973 -2.92919 0
M  V30 4918 H 439.517 0.258917 -1.44803 0
M  V30 4919 H 441.475 3.02729 -2.87073 0
M  V30 4920 H 440.105 2.69325 -1.77943 0
M  V30 4921 H 439.157 1.13482 -3.63078 0
M  V30 4922 H 440.469 1.69601 -4.69081 0
M  V30 4923 H 439.623 4.04561 -4.52123 0
M  V30 4924 H 438.362 3.52877 -3.36644 0
M  V30 4925 H 437.367 2.02367 -5.11202 0
M  V30 4926 H 438.592 2.56889 -6.28637 0
M  V30 4927 H 436.538 4.34494 -4.91478 0
M  V30 4928 H 436.455 3.77566 -6.54966 0
M  V30 4929 H 437.723 4.87068 -6.08592 0
M  V30 4930 N 441.952 1.55251 0.271103 0
M  V30 4931 C 442.902 1.84649 1.33749 0
M  V30 4932 C 443.886 0.705529 1.44607 0
M  V30 4933 O 445.078 0.966916 1.48256 0
M  V30 4934 C 442.207 2.12354 2.69742 0
M  V30 4935 C 441.293 3.32714 2.62988 0
M  V30 4936 N 441.684 4.52575 2.25853 0
M  V30 4937 C 439.982 3.35341 2.94045 0
M  V30 4938 C 440.683 5.34669 2.29136 0
M  V30 4939 N 439.659 4.73123 2.67685 0
M  V30 4940 H 443.461 2.74865 1.0405 0
M  V30 4941 H 440.975 1.55152 0.479738 0
M  V30 4942 H 442.972 2.31572 3.4667 0
M  V30 4943 H 441.632 1.23422 3.00328 0
M  V30 4944 H 442.643 4.78639 1.978 0
M  V30 4945 H 439.32 2.56608 3.2933 0
M  V30 4946 H 440.71 6.40509 2.02971 0
M  V30 4947 N 443.43 -0.535701 1.48216 0
M  V30 4948 C 444.377 -1.64083 1.62312 0
M  V30 4949 C 445.347 -1.59448 0.465365 0
M  V30 4950 O 446.532 -1.77959 0.688135 0
M  V30 4951 C 443.672 -3.0236 1.66349 0
M  V30 4952 C 442.785 -3.17273 2.93193 0
M  V30 4953 C 441.92 -4.46075 2.88427 0
M  V30 4954 C 440.959 -4.54496 4.1 0
M  V30 4955 N 440.096 -5.7468 4.03345 0
M  V30 4956 H 444.936 -1.51374 2.5669 0
M  V30 4957 H 442.473 -0.737059 1.27302 0
M  V30 4958 H 444.431 -3.82461 1.66672 0
M  V30 4959 H 443.061 -3.13854 0.754672 0
M  V30 4960 H 442.113 -2.30462 3.02641 0
M  V30 4961 H 443.425 -3.19357 3.83162 0
M  V30 4962 H 442.579 -5.3446 2.87119 0
M  V30 4963 H 441.318 -4.46504 1.96177 0
M  V30 4964 H 440.323 -3.64519 4.11589 0
M  V30 4965 H 441.548 -4.5581 5.03402 0
M  V30 4966 H 439.494 -5.76017 3.13912 0
M  V30 4967 H 439.411 -5.78234 4.87013 0
M  V30 4968 H 440.679 -6.65367 4.06087 0
M  V30 4969 N 444.908 -1.36708 -0.784132 0
M  V30 4970 C 446.154 -1.31426 -1.54451 0
M  V30 4971 C 446.487 0.10476 -1.93917 0
M  V30 4972 O 445.762 1.05934 -1.6312 0
M  V30 4973 C 446.045 -2.24189 -2.818 0
M  V30 4974 C 445.898 -3.74813 -2.48667 0
M  V30 4975 C 447.217 -2.15626 -3.83658 0
M  V30 4976 H 444.336 -0.478739 -0.560337 0
M  V30 4977 H 446.978 -1.67305 -0.900498 0
M  V30 4978 H 445.128 -1.93722 -3.36755 0
M  V30 4979 H 446.8 -4.15823 -1.99722 0
M  V30 4980 H 445.043 -3.93989 -1.81535 0
M  V30 4981 H 445.714 -4.35138 -3.39646 0
M  V30 4982 H 448.19 -2.42456 -3.38163 0
M  V30 4983 H 447.066 -2.82694 -4.70506 0
M  V30 4984 H 447.327 -1.14522 -4.27009 0
M  V30 4985 N 446.386 1.0089 -1.21074 0
M  V30 4986 C 447.333 2.09588 -0.966512 0
M  V30 4987 C 448.303 1.65761 0.106089 0
M  V30 4988 O 449.488 1.90758 -0.0402287 0
M  V30 4989 C 446.628 3.40958 -0.533058 0
M  V30 4990 C 445.741 3.9822 -1.67467 0
M  V30 4991 C 444.876 5.17682 -1.19076 0
M  V30 4992 C 443.915 5.67043 -2.30496 0
M  V30 4993 N 443.052 6.77759 -1.83267 0
M  V30 4994 H 447.892 2.29815 -1.89708 0
M  V30 4995 H 445.429 1.12689 -0.945489 0
M  V30 4996 H 447.387 4.1637 -0.263019 0
M  V30 4997 H 446.017 3.20781 0.360505 0
M  V30 4998 H 445.069 3.1983 -2.05944 0
M  V30 4999 H 446.381 4.3085 -2.51336 0
M  V30 5000 H 445.535 6.00326 -0.877151 0
M  V30 5001 H 444.274 4.86635 -0.322066 0
M  V30 5002 H 443.279 4.82999 -2.62664 0
M  V30 5003 H 444.504 6.00121 -3.17855 0
M  V30 5004 H 442.45 6.48527 -0.987356 0
M  V30 5005 H 442.367 7.09624 -2.60711 0
M  V30 5006 H 443.635 7.63949 -1.54928 0
M  V30 5007 N 447.864 1.01787 1.20321 0
M  V30 5008 C 449.275 0.739307 1.71438 0
M  V30 5009 C 449.626 -0.742041 1.81627 0
M  V30 5010 O 448.751 -1.57903 1.47971 0
M  V30 5011 C 449.346 1.33538 3.11373 0
M  V30 5012 C 447.905 1.10566 3.59795 0
M  V30 5013 C 447.052 1.44028 2.36962 0
M  V30 5014 H 450.003 1.18718 1.05317 0
M  V30 5015 H 450.024 0.726611 3.73498 0
M  V30 5016 H 449.536 2.41352 3.03926 0
M  V30 5017 H 447.637 0.0452405 3.72573 0
M  V30 5018 H 447.75 1.78661 4.44542 0
M  V30 5019 H 446.114 0.85933 2.39766 0
M  V30 5020 H 446.897 2.52901 2.32155 0
M  V30 5021 N 449.342 -1.36122 0.79427 0
M  V30 5022 C 450.619 -1.93398 0.292685 0
M  V30 5023 C 450.999 -1.72567 -1.21589 0
M  V30 5024 O 450.347 -1.08745 -2.00965 0
M  V30 5025 C 450.557 -3.42099 0.690614 0
M  V30 5026 C 451.905 -4.19231 0.673105 0
M  V30 5027 O 452.929 -3.50559 0.631389 0
M  V30 5028 O 451.788 -5.41732 0.720362 0
M  V30 5029 H 448.882 -0.823712 0.0736693 0
M  V30 5030 H 451.428 -1.45273 0.87714 0
M  V30 5031 H 450.2 -3.50938 1.73085 0
M  V30 5032 H 449.823 -3.97519 0.0803036 0
M  V30 5033 N 450.82 -0.546701 -1.47814 0
M  V30 5034 C 452.045 -0.021268 -2.07389 0
M  V30 5035 C 452.47 1.25822 -1.39822 0
M  V30 5036 O 451.828 1.75111 -0.46968 0
M  V30 5037 C 451.876 0.168502 -3.60206 0
M  V30 5038 O 450.98 1.23347 -3.93522 0
M  V30 5039 H 450.321 -0.0466108 -0.662362 0
M  V30 5040 H 452.851 -0.759387 -1.89985 0
M  V30 5041 H 452.861 0.385982 -4.0617 0
M  V30 5042 H 451.536 -0.766075 -4.08784 0
M  V30 5043 H 450.113 0.997319 -3.59316 0
M  V30 5044 N 452.299 1.55045 -0.282633 0
M  V30 5045 C 453.246 2.22822 0.601566 0
M  V30 5046 C 454.216 1.20431 1.14392 0
M  V30 5047 O 455.401 1.48996 1.19184 0
M  V30 5048 C 452.541 2.95873 1.77632 0
M  V30 5049 C 451.654 4.12999 1.26711 0
M  V30 5050 C 450.789 4.73676 2.40426 0
M  V30 5051 C 449.828 5.82981 1.86545 0
M  V30 5052 N 448.965 6.3769 2.93762 0
M  V30 5053 H 453.805 2.97995 0.0169528 0
M  V30 5054 H 451.342 1.471 -0.00339964 0
M  V30 5055 H 453.3 3.36447 2.46697 0
M  V30 5056 H 451.93 2.2311 2.33285 0
M  V30 5057 H 450.982 3.77494 0.469314 0
M  V30 5058 H 452.294 4.91803 0.832518 0
M  V30 5059 H 451.448 5.17008 3.17471 0
M  V30 5060 H 450.187 3.94164 2.87203 0
M  V30 5061 H 449.192 5.39092 1.07983 0
M  V30 5062 H 450.417 6.64366 1.40694 0
M  V30 5063 H 448.363 5.61069 3.39908 0
M  V30 5064 H 448.28 7.11788 2.54744 0
M  V30 5065 H 449.548 6.8568 3.7076 0
M  V30 5066 N 453.777 0.010035 1.57597 0
M  V30 5067 C 454.74 -0.963029 2.07986 0
M  V30 5068 C 455.74 -1.26619 0.991173 0
M  V30 5069 O 456.93 -1.2097 1.25347 0
M  V30 5070 C 454.062 -2.2851 2.52974 0
M  V30 5071 H 455.255 -0.526971 2.95234 0
M  V30 5072 H 452.808 -0.237639 1.54483 0
M  V30 5073 H 453.543 -2.76784 1.69 0
M  V30 5074 H 453.328 -2.07824 3.32493 0
M  V30 5075 H 454.818 -2.98294 2.9225 0
M  V30 5076 N 455.255 -1.55392 -0.262866 0
M  V30 5077 C 456.502 -1.76476 -0.993109 0
M  V30 5078 C 456.83 -0.571479 -1.85915 0
M  V30 5079 O 456.085 0.445733 -1.90556 0
M  V30 5080 C 456.384 -3.02889 -1.89718 0
M  V30 5081 C 456.05 -4.34974 -1.18781 0
M  V30 5082 C 454.712 -4.7087 -0.991699 0
M  V30 5083 C 457.064 -5.16695 -0.683798 0
M  V30 5084 C 454.392 -5.86036 -0.279024 0
M  V30 5085 C 456.744 -6.32598 0.0153327 0
M  V30 5086 C 455.408 -6.67127 0.223062 0
M  V30 5087 H 454.678 -0.64577 -0.363404 0
M  V30 5088 H 457.325 -1.89664 -0.264525 0
M  V30 5089 H 455.63 -2.84644 -2.6923 0
M  V30 5090 H 457.327 -3.16399 -2.46359 0
M  V30 5091 H 453.917 -4.06765 -1.35058 0
M  V30 5092 H 458.101 -4.8943 -0.8229 0
M  V30 5093 H 453.357 -6.11306 -0.107456 0
M  V30 5094 H 457.531 -6.95171 0.413584 0
M  V30 5095 H 455.158 -7.56216 0.777265 0
M  V30 5096 N 456.733 0.527833 -1.48498 0
M  V30 5097 C 457.683 1.62844 -1.5958 0
M  V30 5098 C 458.667 1.54397 -0.452809 0
M  V30 5099 O 459.859 1.62381 -0.704364 0
M  V30 5100 C 456.988 3.01557 -1.64067 0
M  V30 5101 C 456.074 3.151 -2.83853 0
M  V30 5102 N 456.465 2.9861 -4.08247 0
M  V30 5103 C 454.763 3.46158 -2.8123 0
M  V30 5104 C 455.464 3.15626 -4.88626 0
M  V30 5105 N 454.44 3.43298 -4.21483 0
M  V30 5106 H 458.242 1.48708 -2.53502 0
M  V30 5107 H 455.756 0.733343 -1.44899 0
M  V30 5108 H 457.753 3.8062 -1.70101 0
M  V30 5109 H 456.413 3.16783 -0.712636 0
M  V30 5110 H 457.424 2.75329 -4.3865 0
M  V30 5111 H 454.101 3.67728 -1.97692 0
M  V30 5112 H 455.491 3.07596 -5.97356 0
M  V30 5113 N 458.211 1.37122 0.776871 0
M  V30 5114 C 459.141 1.35164 1.90402 0
M  V30 5115 C 460.122 0.221069 1.68657 0
M  V30 5116 O 461.307 0.420642 1.8959 0
M  V30 5117 C 458.437 1.15274 3.27611 0
M  V30 5118 C 457.391 2.25289 3.63908 0
M  V30 5119 C 456.717 1.90527 4.99603 0
M  V30 5120 C 458.017 3.67446 3.71188 0
M  V30 5121 H 459.711 2.29482 1.92297 0
M  V30 5122 H 457.257 1.10465 0.923773 0
M  V30 5123 H 459.21 1.12536 4.06096 0
M  V30 5124 H 457.934 0.174102 3.26136 0
M  V30 5125 H 456.593 2.27174 2.87728 0
M  V30 5126 H 456.241 0.91206 4.94662 0
M  V30 5127 H 455.941 2.64193 5.24858 0
M  V30 5128 H 457.465 1.89367 5.80493 0
M  V30 5129 H 458.879 3.67719 4.39836 0
M  V30 5130 H 457.276 4.40123 4.07936 0
M  V30 5131 H 458.346 4.01443 2.71977 0
M  V30 5132 N 459.689 -1.00246 1.21608 0
M  V30 5133 C 460.619 -2.10921 1.00172 0
M  V30 5134 C 461.6 -1.69938 -0.0741587 0
M  V30 5135 O 462.785 -1.94009 0.0861753 0
M  V30 5136 C 459.915 -3.42618 0.568355 0
M  V30 5137 C 458.869 -3.97407 1.58909 0
M  V30 5138 C 458.195 -5.25038 1.01187 0
M  V30 5139 C 459.495 -4.2918 2.97661 0
M  V30 5140 H 461.189 -2.29112 1.92739 0
M  V30 5141 H 458.735 -1.10101 0.928102 0
M  V30 5142 H 460.688 -4.19444 0.405555 0
M  V30 5143 H 459.412 -3.24227 -0.392961 0
M  V30 5144 H 458.071 -3.22703 1.73949 0
M  V30 5145 H 457.719 -5.02982 0.0421965 0
M  V30 5146 H 457.419 -5.62661 1.6937 0
M  V30 5147 H 458.943 -6.04507 0.860448 0
M  V30 5148 H 460.357 -4.96839 2.86049 0
M  V30 5149 H 458.754 -4.77952 3.6288 0
M  V30 5150 H 459.824 -3.3735 3.48315 0
M  V30 5151 N 461.167 -1.02423 -1.1978 0
M  V30 5152 C 462.099 -0.559152 -2.22275 0
M  V30 5153 C 463.112 0.36251 -1.58713 0
M  V30 5154 O 464.301 0.159641 -1.77785 0
M  V30 5155 C 461.401 0.205094 -3.38279 0
M  V30 5156 C 460.574 -0.720361 -4.31427 0
M  V30 5157 C 459.633 -0.00234368 -5.262 0
M  V30 5158 O 458.659 -0.627378 -5.65732 0
M  V30 5159 N 459.861 1.26996 -5.66438 0
M  V30 5160 H 462.626 -1.44064 -2.62804 0
M  V30 5161 H 460.187 -0.902692 -1.34399 0
M  V30 5162 H 462.179 0.694868 -3.9869 0
M  V30 5163 H 460.749 0.987947 -2.96578 0
M  V30 5164 H 459.969 -1.39031 -3.68869 0
M  V30 5165 H 461.257 -1.3495 -4.90577 0
M  V30 5166 H 460.655 1.79858 -5.36347 0
M  V30 5167 H 459.212 1.70432 -6.29123 0
M  V30 5168 N 462.645 1.35699 -0.801477 0
M  V30 5169 C 463.592 2.29876 -0.206294 0
M  V30 5170 C 464.562 1.52565 0.656752 0
M  V30 5171 O 465.747 1.81024 0.602906 0
M  V30 5172 C 462.887 3.39052 0.643272 0
M  V30 5173 C 462 4.31335 -0.239644 0
M  V30 5174 C 461.135 5.27599 0.61744 0
M  V30 5175 C 460.174 6.11521 -0.26619 0
M  V30 5176 N 459.311 6.99938 0.550571 0
M  V30 5177 H 464.151 2.80187 -1.01484 0
M  V30 5178 H 461.688 1.37902 -0.511997 0
M  V30 5179 H 463.646 4.0101 1.15094 0
M  V30 5180 H 462.276 2.9003 1.41713 0
M  V30 5181 H 461.328 3.70426 -0.865381 0
M  V30 5182 H 462.64 4.90243 -0.919985 0
M  V30 5183 H 461.794 5.94906 1.19045 0
M  V30 5184 H 460.533 4.69176 1.33137 0
M  V30 5185 H 459.538 5.43166 -0.851507 0
M  V30 5186 H 460.763 6.72022 -0.9779 0
M  V30 5187 H 458.709 6.44008 1.24856 0
M  V30 5188 H 458.626 7.55966 -0.071832 0
M  V30 5189 H 459.894 7.71599 1.10702 0
M  V30 5190 N 464.123 0.554532 1.47522 0
M  V30 5191 C 465.053 -0.182974 2.32782 0
M  V30 5192 C 466.034 -0.911377 1.43624 0
M  V30 5193 O 467.219 -0.892366 1.72483 0
M  V30 5194 C 464.349 -1.21513 3.25349 0
M  V30 5195 C 463.303 -0.603355 4.23726 0
M  V30 5196 C 462.629 -1.73995 5.05598 0
M  V30 5197 C 463.929 0.441121 5.20434 0
M  V30 5198 H 465.623 0.52882 2.94693 0
M  V30 5199 H 463.169 0.255759 1.41711 0
M  V30 5200 H 465.122 -1.73922 3.83835 0
M  V30 5201 H 463.846 -1.95683 2.61487 0
M  V30 5202 H 462.505 -0.10059 3.66462 0
M  V30 5203 H 462.153 -2.47063 4.38143 0
M  V30 5204 H 461.853 -1.3364 5.72201 0
M  V30 5205 H 463.377 -2.26735 5.66942 0
M  V30 5206 H 464.791 0.00319931 5.733 0
M  V30 5207 H 463.188 0.763402 5.95224 0
M  V30 5208 H 464.258 1.33799 4.66075 0
M  V30 5209 N 465.601 -1.54893 0.290851 0
M  V30 5210 C 466.531 -2.26103 -0.583084 0
M  V30 5211 C 467.512 -1.25684 -1.14619 0
M  V30 5212 O 468.697 -1.54436 -1.17741 0
M  V30 5213 C 465.827 -2.99409 -1.75987 0
M  V30 5214 C 464.781 -4.0689 -1.32758 0
M  V30 5215 C 464.107 -4.67856 -2.58872 0
M  V30 5216 C 465.407 -5.20215 -0.46624 0
M  V30 5217 H 467.101 -2.99398 0.0108214 0
M  V30 5218 H 464.647 -1.43998 0.00664468 0
M  V30 5219 H 466.6 -3.47943 -2.37727 0
M  V30 5220 H 465.324 -2.23675 -2.37985 0
M  V30 5221 H 463.983 -3.59191 -0.733299 0
M  V30 5222 H 463.631 -3.88772 -3.19163 0
M  V30 5223 H 463.331 -5.40438 -2.30653 0
M  V30 5224 H 464.855 -5.19147 -3.21433 0
M  V30 5225 H 466.269 -5.64704 -0.989047 0
M  V30 5226 H 464.666 -5.99455 -0.27826 0
M  V30 5227 H 465.736 -4.82198 0.511173 0
M  V30 5228 N 467.08 -0.0183926 -1.57589 0
M  V30 5229 C 468.308 0.673046 -1.95647 0
M  V30 5230 C 468.723 1.66275 -0.894312 0
M  V30 5231 O 468.08 1.82072 0.124975 0
M  V30 5232 C 468.131 1.38884 -3.33756 0
M  V30 5233 O 467.852 0.438806 -4.35897 0
M  V30 5234 C 469.353 2.1731 -3.86383 0
M  V30 5235 H 466.573 0.186292 -0.644621 0
M  V30 5236 H 469.117 -0.0749748 -2.04363 0
M  V30 5237 H 467.272 2.08835 -3.26293 0
M  V30 5238 H 467.686 0.945869 -5.15901 0
M  V30 5239 H 469.16 2.62863 -4.85394 0
M  V30 5240 H 469.637 3.00764 -3.20059 0
M  V30 5241 H 470.243 1.52339 -3.97081 0
M  V30 5242 N 468.558 1.5553 0.254621 0
M  V30 5243 C 469.491 1.84624 1.34124 0
M  V30 5244 C 470.469 0.700693 1.46728 0
M  V30 5245 O 471.653 0.94564 1.63064 0
M  V30 5246 C 468.78 2.02412 2.71564 0
M  V30 5247 C 467.826 3.25028 2.7615 0
M  V30 5248 S 468.659 4.81893 2.33538 0
M  V30 5249 C 469.815 5.02677 3.72917 0
M  V30 5250 H 470.048 2.76501 1.09245 0
M  V30 5251 H 467.581 1.47537 0.455211 0
M  V30 5252 H 469.539 2.13345 3.50705 0
M  V30 5253 H 468.2 1.11391 2.93685 0
M  V30 5254 H 467.393 3.34418 3.77069 0
M  V30 5255 H 466.995 3.12781 2.05046 0
M  V30 5256 H 469.287 4.89546 4.68349 0
M  V30 5257 H 470.23 6.0468 3.68467 0
M  V30 5258 H 470.638 4.30561 3.65072 0
M  V30 5259 N 470.036 -0.519951 1.48776 0
M  V30 5260 C 471.313 -1.28123 1.47797 0
M  V30 5261 C 471.693 -2.10196 0.195157 0
M  V30 5262 O 471.041 -2.13167 -0.822925 0
M  V30 5263 C 471.251 -2.15413 2.74587 0
M  V30 5264 C 472.599 -2.75225 3.23321 0
M  V30 5265 O 473.623 -2.25694 2.75574 0
M  V30 5266 O 472.482 -3.65346 4.06429 0
M  V30 5267 H 469.576 -0.578793 0.590701 0
M  V30 5268 H 472.122 -0.535779 1.6102 0
M  V30 5269 H 470.894 -1.54617 3.59457 0
M  V30 5270 H 470.517 -2.97186 2.64132 0
M  V30 5271 N 471.514 -1.37532 -0.769588 0
M  V30 5272 C 472.925 -1.29382 -1.346 0
M  V30 5273 C 473.276 0.0576039 -1.96115 0
M  V30 5274 O 472.401 0.95947 -1.93967 0
M  V30 5275 C 472.996 -2.34298 -2.44724 0
M  V30 5276 C 471.555 -2.29776 -2.98128 0
M  V30 5277 C 470.702 -2.18013 -1.71364 0
M  V30 5278 H 473.653 -1.48123 -0.56968 0
M  V30 5279 H 473.674 -1.99089 -3.24259 0
M  V30 5280 H 473.186 -3.32645 -1.99922 0
M  V30 5281 H 471.287 -1.34959 -3.47299 0
M  V30 5282 H 471.4 -3.23276 -3.53595 0
M  V30 5283 H 469.764 -1.64595 -1.94372 0
M  V30 5284 H 470.547 -3.18278 -1.28662 0
M  V30 5285 N 472.992 0.995999 -1.22138 0
M  V30 5286 C 474.241 1.72928 -1.03821 0
M  V30 5287 C 474.554 1.90872 0.427444 0
M  V30 5288 O 475.76 2.61496 0.730212 0
M  V30 5289 C 474.216 3.11124 -1.80913 0
M  V30 5290 C 473.824 3.01122 -3.31707 0
M  V30 5291 C 475.568 3.8852 -1.71035 0
M  V30 5292 C 473.475 4.34453 -4.01253 0
M  V30 5293 H 472.405 0.648376 -0.384869 0
M  V30 5294 H 475.056 1.11213 -1.45959 0
M  V30 5295 H 473.438 3.73503 -1.31573 0
M  V30 5296 H 474.612 2.47926 -3.88419 0
M  V30 5297 H 472.927 2.3721 -3.42228 0
M  V30 5298 H 475.524 4.872 -2.20318 0
M  V30 5299 H 475.867 4.1087 -0.670196 0
M  V30 5300 H 476.4 3.32812 -2.17902 0
M  V30 5301 H 473.139 4.17303 -5.05508 0
M  V30 5302 H 472.659 4.87574 -3.49331 0
M  V30 5303 H 474.338 5.03215 -4.06674 0
M  V30 5304 N 474.47 1.03057 1.19235 0
M  V30 5305 C 475.417 0.612832 2.22515 0
M  V30 5306 C 476.387 -0.374224 1.61829 0
M  V30 5307 O 477.572 -0.270501 1.88873 0
M  V30 5308 C 474.712 -0.028475 3.45088 0
M  V30 5309 C 473.825 1.00483 4.20151 0
M  V30 5310 C 472.96 0.333102 5.30155 0
M  V30 5311 C 471.999 1.3522 5.96977 0
M  V30 5312 N 471.136 0.70616 6.9854 0
M  V30 5313 H 475.976 1.49812 2.57605 0
M  V30 5314 H 473.513 0.749658 1.26564 0
M  V30 5315 H 475.471 -0.417548 4.15105 0
M  V30 5316 H 474.101 -0.877334 3.10649 0
M  V30 5317 H 473.153 1.51194 3.49062 0
M  V30 5318 H 474.465 1.77929 4.65986 0
M  V30 5319 H 473.619 -0.110725 6.06599 0
M  V30 5320 H 472.358 -0.473547 4.85396 0
M  V30 5321 H 471.363 1.80627 5.19282 0
M  V30 5322 H 472.588 2.16037 6.4382 0
M  V30 5323 H 470.534 -0.0803667 6.55951 0
M  V30 5324 H 470.451 1.41848 7.42573 0
M  V30 5325 H 471.719 0.286391 7.78974 0
M  V30 5326 N 475.948 -1.35272 0.808662 0
M  V30 5327 C 477.364 -1.51806 0.492653 0
M  V30 5328 C 477.564 -1.7574 -0.985778 0
M  V30 5329 O 476.62 -1.80003 -1.77074 0
M  V30 5330 C 477.933 -2.69202 1.33981 0
M  V30 5331 C 479.481 -2.8308 1.33547 0
M  V30 5332 C 479.956 -4.03502 2.16679 0
M  V30 5333 N 481.447 -4.10684 2.14227 0
M  V30 5334 C 482.182 -5.02984 2.75308 0
M  V30 5335 N 481.678 -6.00603 3.45323 0
M  V30 5336 N 483.471 -4.95746 2.64938 0
M  V30 5337 H 475.622 -1.17993 1.76611 0
M  V30 5338 H 477.885 -0.577476 0.751814 0
M  V30 5339 H 477.591 -2.581 2.38909 0
M  V30 5340 H 477.465 -3.63854 0.994491 0
M  V30 5341 H 479.852 -2.93631 0.294036 0
M  V30 5342 H 479.933 -1.89278 1.72068 0
M  V30 5343 H 479.577 -3.93711 3.20864 0
M  V30 5344 H 479.507 -4.96489 1.75517 0
M  V30 5345 H 481.998 -3.40802 1.63285 0
M  V30 5346 H 482.311 -6.67633 3.89212 0
M  V30 5347 H 480.656 -6.0077 3.49428 0
M  V30 5348 H 483.847 -4.18439 2.09825 0
M  V30 5349 H 484.02 -5.67487 3.12829 0
M  V30 5350 N 477.426 -0.562348 -1.47226 0
M  V30 5351 C 478.675 -0.038041 -2.01664 0
M  V30 5352 C 478.988 1.32199 -1.44162 0
M  V30 5353 O 480.194 1.9365 -1.90294 0
M  V30 5354 C 478.65 -0.0174958 -3.59896 0
M  V30 5355 C 478.258 -1.3746 -4.2639 0
M  V30 5356 C 480.002 0.453934 -4.22066 0
M  V30 5357 C 477.909 -1.31289 -5.76643 0
M  V30 5358 H 476.839 -0.0104511 -0.753928 0
M  V30 5359 H 479.49 -0.710966 -1.69167 0
M  V30 5360 H 477.872 0.721182 -3.89378 0
M  V30 5361 H 479.046 -2.1314 -4.08544 0
M  V30 5362 H 477.361 -1.78438 -3.7623 0
M  V30 5363 H 479.958 0.518584 -5.32179 0
M  V30 5364 H 480.301 1.46706 -3.89594 0
M  V30 5365 H 480.834 -0.230044 -3.97134 0
M  V30 5366 H 477.573 -2.30217 -6.13743 0
M  V30 5367 H 477.093 -0.597973 -5.96812 0
M  V30 5368 H 478.772 -1.01713 -6.38955 0
M  V30 5369 N 478.904 1.54736 -0.299062 0
M  V30 5370 C 480.132 2.04512 0.313447 0
M  V30 5371 C 480.547 1.17643 1.47667 0
M  V30 5372 O 479.904 0.20164 1.81383 0
M  V30 5373 C 479.955 3.53171 0.771542 0
M  V30 5374 O 479.676 4.36736 -0.345379 0
M  V30 5375 C 481.177 4.18936 1.4494 0
M  V30 5376 H 478.397 0.667507 0.0683784 0
M  V30 5377 H 480.941 1.99752 -0.438129 0
M  V30 5378 H 479.096 3.58298 1.47314 0
M  V30 5379 H 479.51 5.24499 0.0109219 0
M  V30 5380 H 480.984 5.24482 1.72111 0
M  V30 5381 H 481.461 3.68554 2.38883 0
M  V30 5382 H 482.067 4.17879 0.791028 0
M  V30 5383 N 480.382 0.0267497 1.57577 0
M  V30 5384 C 481.607 -0.666227 1.96408 0
M  V30 5385 C 482.032 -1.65004 0.903071 0
M  V30 5386 O 481.39 -1.80787 -0.136263 0
M  V30 5387 C 481.438 -1.35101 3.34335 0
M  V30 5388 O 480.542 -2.46623 3.30531 0
M  V30 5389 H 479.883 -0.175206 0.640468 0
M  V30 5390 H 482.413 0.0878977 2.04411 0
M  V30 5391 H 482.423 -1.70834 3.70513 0
M  V30 5392 H 481.098 -0.629844 4.11103 0
M  V30 5393 H 479.675 -2.13019 3.06068 0
M  V30 5394 N 481.861 -1.55662 -0.24637 0
M  V30 5395 C 482.771 -1.93495 -1.32653 0
M  V30 5396 C 483.787 -0.835462 -1.5263 0
M  V30 5397 O 484.963 -1.1369 -1.66242 0
M  V30 5398 C 482.028 -2.22242 -2.66101 0
M  V30 5399 C 481.089 -3.45625 -2.54641 0
M  V30 5400 C 480.322 -3.72991 -3.81724 0
M  V30 5401 O 480.545 -3.02421 -4.8363 0
M  V30 5402 O 479.479 -4.66515 -3.80325 0
M  V30 5403 H 483.305 -2.85498 -1.03559 0
M  V30 5404 H 480.89 -1.42551 -0.44717 0
M  V30 5405 H 482.772 -2.42037 -3.44958 0
M  V30 5406 H 481.447 -1.33417 -2.94926 0
M  V30 5407 H 480.354 -3.31136 -1.74067 0
M  V30 5408 H 481.687 -4.34754 -2.3076 0
M  V30 5409 N 483.339 0.512053 -1.4905 0
M  V30 5410 C 484.271 1.63121 -1.6101 0
M  V30 5411 C 485.284 1.55145 -0.493352 0
M  V30 5412 O 486.473 1.61278 -0.764955 0
M  V30 5413 C 483.573 3.01863 -1.54052 0
M  V30 5414 C 482.746 3.35138 -2.81072 0
M  V30 5415 C 481.805 4.5324 -2.67319 0
M  V30 5416 O 480.831 4.55571 -3.41238 0
M  V30 5417 N 482.033 5.52495 -1.78127 0
M  V30 5418 H 484.798 1.53292 -2.5753 0
M  V30 5419 H 482.359 0.699706 -1.45999 0
M  V30 5420 H 484.351 3.78774 -1.42521 0
M  V30 5421 H 482.921 3.05675 -0.654345 0
M  V30 5422 H 482.141 2.4723 -3.07036 0
M  V30 5423 H 483.429 3.54162 -3.65304 0
M  V30 5424 H 482.827 5.53403 -1.17308 0
M  V30 5425 H 481.384 6.28553 -1.72525 0
M  V30 5426 N 484.817 1.37938 0.762283 0
M  V30 5427 C 485.78 1.34279 1.85747 0
M  V30 5428 C 486.78 0.244969 1.58923 0
M  V30 5429 O 487.97 0.501365 1.66829 0
M  V30 5430 C 485.102 1.08833 3.23061 0
M  V30 5431 H 486.295 2.31705 1.90401 0
M  V30 5432 H 483.848 1.23105 0.963057 0
M  V30 5433 H 484.583 0.119767 3.24079 0
M  V30 5434 H 484.368 1.88306 3.43923 0
M  V30 5435 H 485.858 1.08946 4.03138 0
M  V30 5436 N 486.295 -0.989507 1.22664 0
M  V30 5437 C 487.228 -2.07805 0.942985 0
M  V30 5438 C 488.206 -1.6219 -0.115356 0
M  V30 5439 O 489.39 -1.88492 0.0169565 0
M  V30 5440 C 486.517 -3.361 0.418898 0
M  V30 5441 C 485.563 -4.00643 1.46244 0
M  V30 5442 S 486.396 -4.41059 3.03689 0
M  V30 5443 C 487.552 -5.7252 2.52927 0
M  V30 5444 H 487.785 -2.31547 1.86476 0
M  V30 5445 H 485.318 -1.12446 1.05808 0
M  V30 5446 H 487.276 -4.10315 0.123114 0
M  V30 5447 H 485.937 -3.10383 -0.481818 0
M  V30 5448 H 485.13 -4.93033 1.04569 0
M  V30 5449 H 484.732 -3.32767 1.7071 0
M  V30 5450 H 487.024 -6.49017 1.94379 0
M  V30 5451 H 487.967 -6.19026 3.4382 0
M  V30 5452 H 488.375 -5.30083 1.94094 0
M  V30 5453 N 487.773 -1.03688 -1.18687 0
M  V30 5454 C 488.705 -0.582696 -2.21669 0
M  V30 5455 C 489.718 0.345656 -1.59088 0
M  V30 5456 O 490.907 0.140776 -1.77944 0
M  V30 5457 C 488.007 0.169204 -3.38477 0
M  V30 5458 C 487.18 -0.766079 -4.30639 0
M  V30 5459 C 486.239 -0.0581541 -5.26168 0
M  V30 5460 O 485.265 -0.687346 -5.65035 0
M  V30 5461 N 486.467 1.20981 -5.67753 0
M  V30 5462 H 489.232 -1.46843 -2.61261 0
M  V30 5463 H 486.793 -0.916896 -1.33434 0
M  V30 5464 H 488.785 0.652543 -3.99405 0
M  V30 5465 H 487.355 0.956435 -2.97609 0
M  V30 5466 H 486.575 -1.42935 -3.67373 0
M  V30 5467 H 487.863 -1.40146 -4.89118 0
M  V30 5468 H 487.261 1.74159 -5.38224 0
M  V30 5469 H 485.818 1.6375 -6.30896 0
M  V30 5470 N 489.251 1.34841 -0.815825 0
M  V30 5471 C 490.528 1.92908 -0.323416 0
M  V30 5472 C 490.908 1.74479 1.18828 0
M  V30 5473 O 490.256 1.11928 1.99209 0
M  V30 5474 C 490.466 3.40957 -0.744952 0
M  V30 5475 C 491.814 4.18107 -0.739716 0
M  V30 5476 O 492.838 3.49511 -0.68708 0
M  V30 5477 O 491.697 5.40517 -0.806456 0
M  V30 5478 H 488.791 0.822436 -0.0867646 0
M  V30 5479 H 491.337 1.4386 -0.90014 0
M  V30 5480 H 490.109 3.4814 -1.78646 0
M  V30 5481 H 489.732 3.97341 -0.143535 0
M  V30 5482 N 490.729 0.570148 1.46925 0
M  V30 5483 C 492.14 0.1402 1.86173 0
M  V30 5484 C 492.491 -1.29347 1.47526 0
M  V30 5485 O 491.616 -1.97508 0.884292 0
M  V30 5486 C 492.211 0.247661 3.37894 0
M  V30 5487 C 490.77 -0.127332 3.76185 0
M  V30 5488 C 489.917 0.589349 2.70965 0
M  V30 5489 H 492.868 0.779117 1.38259 0
M  V30 5490 H 492.889 -0.530341 3.76786 0
M  V30 5491 H 492.401 1.29121 3.65991 0
M  V30 5492 H 490.502 -1.17149 3.53704 0
M  V30 5493 H 490.615 0.240238 4.78497 0
M  V30 5494 H 488.979 0.0309824 2.54681 0
M  V30 5495 H 489.762 1.6343 3.01903 0
M  V30 5496 N 492.207 -1.54576 0.307264 0
M  V30 5497 C 493.437 -2.04378 -0.302158 0
M  V30 5498 C 493.845 -1.18381 -1.47589 0
M  V30 5499 O 493.188 -0.20352 -1.82569 0
M  V30 5500 C 493.25 -3.50133 -0.815305 0
M  V30 5501 C 492.914 -4.56401 0.233977 0
M  V30 5502 C 493.911 -5.08884 1.06456 0
M  V30 5503 C 491.596 -5.0088 0.377478 0
M  V30 5504 C 493.59 -6.04394 2.02452 0
M  V30 5505 C 491.277 -5.96208 1.34088 0
M  V30 5506 C 492.275 -6.47849 2.16288 0
M  V30 5507 O 491.963 -7.41308 3.10994 0
M  V30 5508 H 491.695 -0.672502 -0.0686839 0
M  V30 5509 H 494.249 -2.00484 0.446682 0
M  V30 5510 H 492.479 -3.51371 -1.61478 0
M  V30 5511 H 494.168 -3.83098 -1.34129 0
M  V30 5512 H 494.934 -4.75311 0.964596 0
M  V30 5513 H 490.813 -4.60309 -0.252405 0
M  V30 5514 H 494.357 -6.44626 2.66652 0
M  V30 5515 H 490.254 -6.29198 1.44154 0
M  V30 5516 H 491.022 -7.5913 3.06045 0
M  V30 5517 N 493.685 -0.035106 -1.57561 0
M  V30 5518 C 494.932 0.642229 -1.92046 0
M  V30 5519 C 495.26 1.7179 -0.91206 0
M  V30 5520 O 494.515 1.95544 0.0781153 0
M  V30 5521 C 494.814 1.29149 -3.3325 0
M  V30 5522 C 494.48 0.345604 -4.49574 0
M  V30 5523 C 493.142 0.0852775 -4.81124 0
M  V30 5524 C 495.494 -0.303569 -5.20315 0
M  V30 5525 C 492.822 -0.831927 -5.80772 0
M  V30 5526 C 495.174 -1.20886 -6.20942 0
M  V30 5527 C 493.838 -1.47802 -6.50931 0
M  V30 5528 H 493.108 0.235008 -0.702746 0
M  V30 5529 H 495.755 -0.0981529 -1.91248 0
M  V30 5530 H 494.06 2.10676 -3.30337 0
M  V30 5531 H 495.757 1.82223 -3.57205 0
M  V30 5532 H 492.347 0.558683 -4.24943 0
M  V30 5533 H 496.531 -0.115515 -4.96166 0
M  V30 5534 H 491.787 -1.0481 -6.02349 0
M  V30 5535 H 495.961 -1.71804 -6.74875 0
M  V30 5536 H 493.588 -2.19039 -7.2796 0
M  V30 5537 N 495.163 1.55791 0.238111 0
M  V30 5538 C 496.093 1.94068 1.29846 0
M  V30 5539 C 497.074 0.806726 1.49753 0
M  V30 5540 O 498.259 1.06772 1.62214 0
M  V30 5541 C 495.389 2.24302 2.65153 0
M  V30 5542 C 494.343 3.40032 2.59927 0
M  V30 5543 C 493.669 3.55829 3.99111 0
M  V30 5544 C 494.969 4.75476 2.16148 0
M  V30 5545 H 496.663 2.82887 0.980563 0
M  V30 5546 H 494.209 1.36105 0.470253 0
M  V30 5547 H 496.162 2.4967 3.39475 0
M  V30 5548 H 494.886 1.32318 2.98596 0
M  V30 5549 H 493.545 3.14687 1.88063 0
M  V30 5550 H 493.193 2.6125 4.29834 0
M  V30 5551 H 492.893 4.3366 3.96501 0
M  V30 5552 H 494.417 3.83528 4.7512 0
M  V30 5553 H 495.831 5.00158 2.80205 0
M  V30 5554 H 494.228 5.56472 2.24631 0
M  V30 5555 H 495.298 4.71946 1.11333 0
M  V30 5556 N 496.642 -0.504142 1.49319 0
M  V30 5557 C 497.552 -1.63248 1.68486 0
M  V30 5558 C 498.568 -1.64488 0.567432 0
M  V30 5559 O 499.744 -1.82966 0.841749 0
M  V30 5560 C 496.809 -2.99627 1.74426 0
M  V30 5561 C 495.87 -3.09039 2.97982 0
M  V30 5562 C 495.103 -4.38913 3.0363 0
M  V30 5563 O 495.326 -5.27528 2.16958 0
M  V30 5564 O 494.26 -4.53231 3.96062 0
M  V30 5565 H 498.086 -1.50008 2.64067 0
M  V30 5566 H 495.671 -0.680086 1.33023 0
M  V30 5567 H 497.553 -3.80689 1.80705 0
M  V30 5568 H 496.228 -3.13136 0.820233 0
M  V30 5569 H 495.135 -2.27177 2.97223 0
M  V30 5570 H 496.468 -3.00456 3.89855 0
M  V30 5571 N 498.12 -1.38341 -0.754957 0
M  V30 5572 C 499.397 -1.24995 -1.50451 0
M  V30 5573 C 499.777 0.149244 -2.10572 0
M  V30 5574 O 499.125 1.15861 -1.96948 0
M  V30 5575 C 499.335 -2.35904 -2.57197 0
M  V30 5576 C 500.683 -2.74262 -3.24138 0
M  V30 5577 O 501.707 -2.35205 -2.67501 0
M  V30 5578 O 500.566 -3.4161 -4.26574 0
M  V30 5579 H 497.66 -0.48872 -0.667144 0
M  V30 5580 H 500.206 -1.50165 -0.790486 0
M  V30 5581 H 498.978 -3.2953 -2.11011 0
M  V30 5582 H 498.601 -2.12291 -3.36182 0
M  V30 5583 N 499.598 0.982988 -1.23187 0
M  V30 5584 C 501.009 1.53847 -1.05773 0
M  V30 5585 C 501.36 1.92568 0.375744 0
M  V30 5586 O 500.485 1.75783 1.26211 0
M  V30 5587 C 501.08 2.79567 -1.91384 0
M  V30 5588 C 499.639 3.31524 -1.78238 0
M  V30 5589 C 498.786 2.04534 -1.87246 0
M  V30 5590 H 501.737 0.802962 -1.36888 0
M  V30 5591 H 501.758 3.52317 -1.43711 0
M  V30 5592 H 501.27 2.51353 -2.95708 0
M  V30 5593 H 499.371 3.64623 -0.766875 0
M  V30 5594 H 499.484 4.01457 -2.61475 0
M  V30 5595 H 497.848 2.1855 -1.30797 0
M  V30 5596 H 498.631 1.78706 -2.9312 0
M  V30 5597 N 501.076 1.04316 1.18135 0
M  V30 5598 C 502.006 0.657299 2.24058 0
M  V30 5599 C 502.987 -0.340678 1.66654 0
M  V30 5600 O 504.172 -0.220223 1.92947 0
M  V30 5601 C 501.302 0.0220715 3.47293 0
M  V30 5602 C 500.256 0.943857 4.17463 0
M  V30 5603 C 499.582 0.172973 5.3442 0
M  V30 5604 C 500.882 2.26409 4.70677 0
M  V30 5605 H 502.576 1.5428 2.56589 0
M  V30 5606 H 500.122 0.743263 1.23335 0
M  V30 5607 H 502.075 -0.259607 4.206 0
M  V30 5608 H 500.799 -0.898323 3.14003 0
M  V30 5609 H 499.458 1.20996 3.46057 0
M  V30 5610 H 499.106 -0.749907 4.97379 0
M  V30 5611 H 498.806 0.787098 5.82304 0
M  V30 5612 H 500.33 -0.101628 6.10515 0
M  V30 5613 H 501.744 2.04294 5.35665 0
M  V30 5614 H 500.141 2.8314 5.29105 0
M  V30 5615 H 501.211 2.90883 3.87962 0
M  V30 5616 N 502.554 -1.34406 0.822964 0
M  V30 5617 C 503.965 -1.8069 0.469879 0
M  V30 5618 C 504.316 -1.68223 -1.00972 0
M  V30 5619 O 503.441 -1.22226 -1.78577 0
M  V30 5620 C 504.036 -3.28064 0.846118 0
M  V30 5621 C 502.595 -3.72428 0.545402 0
M  V30 5622 C 501.742 -2.56116 1.06301 0
M  V30 5623 H 504.693 -1.22153 1.01313 0
M  V30 5624 H 504.714 -3.80205 0.149922 0
M  V30 5625 H 504.226 -3.37107 1.92304 0
M  V30 5626 H 502.327 -3.68924 -0.522109 0
M  V30 5627 H 502.44 -4.66548 1.0895 0
M  V30 5628 H 500.804 -2.50048 0.484554 0
M  V30 5629 H 501.587 -2.67928 2.14638 0
M  V30 5630 N 504.032 -0.577932 -1.46621 0
M  V30 5631 C 505.26 -0.0671642 -2.06791 0
M  V30 5632 C 505.675 1.23571 -1.42743 0
M  V30 5633 O 505.032 1.74602 -0.531062 0
M  V30 5634 C 505.083 0.110357 -3.61332 0
M  V30 5635 O 504.804 -1.14095 -4.22982 0
M  V30 5636 C 506.305 0.656025 -4.38419 0
M  V30 5637 H 503.525 -0.0552732 -0.66872 0
M  V30 5638 H 506.069 -0.797242 -1.8832 0
M  V30 5639 H 504.224 0.790637 -3.79246 0
M  V30 5640 H 504.638 -0.951742 -5.15793 0
M  V30 5641 H 506.112 0.729438 -5.47159 0
M  V30 5642 H 506.589 1.67195 -4.06131 0
M  V30 5643 H 507.195 0.0107692 -4.25299 0
M  V30 5644 N 505.51 1.54411 -0.315457 0
M  V30 5645 C 506.735 2.05299 0.294496 0
M  V30 5646 C 507.16 1.19052 1.4563 0
M  V30 5647 O 506.518 0.197804 1.80218 0
M  V30 5648 C 506.566 3.5345 0.714549 0
M  V30 5649 O 505.67 3.70175 1.81781 0
M  V30 5650 H 505.011 0.661743 0.0547019 0
M  V30 5651 H 507.541 1.99327 -0.461508 0
M  V30 5652 H 507.551 3.9557 0.999426 0
M  V30 5653 H 506.226 4.1568 -0.135244 0
M  V30 5654 H 504.803 3.3996 1.53236 0
M  V30 5655 N 506.988 0.0434614 1.5754 0
M  V30 5656 C 508.265 -0.671479 1.83713 0
M  V30 5657 C 508.645 -1.89495 0.930315 0
M  V30 5658 O 507.993 -2.28498 -0.0105639 0
M  V30 5659 C 508.203 -1.0361 3.33266 0
M  V30 5660 C 509.551 -1.42167 4.00092 0
M  V30 5661 O 510.575 -1.12866 3.37846 0
M  V30 5662 O 509.434 -1.96817 5.09829 0
M  V30 5663 H 506.528 -0.330726 0.75799 0
M  V30 5664 H 509.074 0.0722373 1.69546 0
M  V30 5665 H 507.846 -0.165938 3.90948 0
M  V30 5666 H 507.469 -1.83751 3.52592 0
M  V30 5667 N 508.466 -1.55915 -0.229846 0
M  V30 5668 C 509.712 -1.78807 -0.956868 0
M  V30 5669 C 510.045 -0.611687 -1.84315 0
M  V30 5670 O 509.32 0.389398 -1.90562 0
M  V30 5671 C 509.603 -3.11718 -1.80288 0
M  V30 5672 C 509.456 -4.3979 -0.943649 0
M  V30 5673 C 510.775 -3.40999 -2.78222 0
M  V30 5674 H 507.894 -0.6505 -0.346437 0
M  V30 5675 H 510.536 -1.88648 -0.226252 0
M  V30 5676 H 508.686 -3.03459 -2.42579 0
M  V30 5677 H 510.358 -4.60059 -0.338121 0
M  V30 5678 H 508.601 -4.33086 -0.248705 0
M  V30 5679 H 509.272 -5.29208 -1.5698 0
M  V30 5680 H 511.748 -3.49332 -2.26067 0
M  V30 5681 H 510.624 -4.35183 -3.34526 0
M  V30 5682 H 510.885 -2.62754 -3.55546 0
M  V30 5683 N 509.944 0.496216 -1.49584 0
M  V30 5684 C 511.191 1.25003 -1.59312 0
M  V30 5685 C 511.519 1.92445 -0.28198 0
M  V30 5686 O 510.774 1.81557 0.730452 0
M  V30 5687 C 511.073 2.3359 -2.705 0
M  V30 5688 C 510.739 1.83574 -4.11839 0
M  V30 5689 C 509.401 1.69653 -4.50302 0
M  V30 5690 C 511.753 1.46193 -5.00277 0
M  V30 5691 C 509.081 1.16736 -5.74969 0
M  V30 5692 C 511.433 0.947265 -6.25468 0
M  V30 5693 C 510.097 0.794485 -6.62755 0
M  V30 5694 H 509.367 0.45742 -0.582965 0
M  V30 5695 H 512.014 0.549996 -1.83432 0
M  V30 5696 H 510.319 3.09401 -2.40371 0
M  V30 5697 H 512.016 2.91627 -2.75235 0
M  V30 5698 H 508.606 1.9537 -3.81482 0
M  V30 5699 H 512.79 1.55793 -4.71214 0
M  V30 5700 H 508.046 1.03623 -6.02555 0
M  V30 5701 H 512.22 0.648846 -6.93371 0
M  V30 5702 H 509.847 0.382271 -7.59238 0
M  V30 5703 N 511.423 1.38739 0.74761 0
M  V30 5704 C 512.386 1.36241 1.84312 0
M  V30 5705 C 513.386 0.261811 1.58654 0
M  V30 5706 O 514.576 0.519031 1.66288 0
M  V30 5707 C 511.708 1.12253 3.21888 0
M  V30 5708 H 512.901 2.33712 1.87933 0
M  V30 5709 H 510.454 1.2412 0.949946 0
M  V30 5710 H 511.189 0.154133 3.23934 0
M  V30 5711 H 510.974 1.91943 3.41907 0
M  V30 5712 H 512.464 1.13215 4.0196 0
M  V30 5713 N 512.901 -0.976442 1.23707 0
M  V30 5714 C 514.149 -1.71487 1.06942 0
M  V30 5715 C 514.47 -1.9098 -0.393897 0
M  V30 5716 O 513.74 -1.48128 -1.28198 0
M  V30 5717 H 512.32 -0.635425 0.392739 0
M  V30 5718 H 514.982 -1.17515 1.55487 0
M  V30 5719 H 514.078 -2.70286 1.56051 0
M  V30 5720 N 514.379 -1.04941 -1.1758 0
M  V30 5721 C 515.619 -0.766996 -1.89464 0
M  V30 5722 C 515.983 0.693123 -1.79053 0
M  V30 5723 O 517.184 1.08953 -2.45729 0
M  V30 5724 C 515.455 -1.23108 -3.35528 0
M  V30 5725 S 517.014 -1.07565 -4.25412 0
M  V30 5726 H 513.832 -0.278616 -0.654136 0
M  V30 5727 H 516.434 -1.34352 -1.4202 0
M  V30 5728 H 515.138 -2.28896 -3.40639 0
M  V30 5729 H 514.669 -0.648724 -3.88014 0
M  V30 5730 H 516.684 0.00169467 -4.962 0
M  V30 5731 N 515.857 1.33968 -0.830081 0
M  V30 5732 C 516.789 2.28194 -0.21448 0
M  V30 5733 C 517.802 1.5135 0.599752 0
M  V30 5734 O 518.991 1.73286 0.42826 0
M  V30 5735 C 516.091 3.31221 0.717356 0
M  V30 5736 C 515.264 4.37365 -0.055613 0
M  V30 5737 C 514.323 5.2011 0.798231 0
M  V30 5738 O 513.349 5.68691 0.240616 0
M  V30 5739 N 514.551 5.40523 2.11695 0
M  V30 5740 H 517.316 2.81662 -1.02405 0
M  V30 5741 H 514.877 1.46568 -0.687713 0
M  V30 5742 H 516.869 3.83477 1.29334 0
M  V30 5743 H 515.439 2.78095 1.42765 0
M  V30 5744 H 514.659 3.85727 -0.812936 0
M  V30 5745 H 515.947 5.05397 -0.587444 0
M  V30 5746 H 515.345 5.0274 2.59363 0
M  V30 5747 H 513.902 5.95871 2.64162 0
M  V30 5748 N 517.335 0.585699 1.46312 0
M  V30 5749 C 518.584 0.0701192 2.01578 0
M  V30 5750 C 518.897 -1.29889 1.46247 0
M  V30 5751 O 520.103 -1.90598 1.93351 0
M  V30 5752 C 518.559 0.0747499 3.59822 0
M  V30 5753 C 518.167 1.44226 4.24149 0
M  V30 5754 C 519.911 -0.38673 4.22735 0
M  V30 5755 C 517.818 1.40446 5.74481 0
M  V30 5756 H 516.748 0.0224441 0.753666 0
M  V30 5757 H 519.399 0.737789 1.68015 0
M  V30 5758 H 517.781 -0.659144 3.90476 0
M  V30 5759 H 518.955 2.19612 4.05101 0
M  V30 5760 H 517.27 1.84401 3.73343 0
M  V30 5761 H 519.867 -0.433853 5.32937 0
M  V30 5762 H 520.21 -1.40489 3.91878 0
M  V30 5763 H 520.743 0.293195 3.96718 0
M  V30 5764 H 517.482 2.39952 6.10003 0
M  V30 5765 H 517.002 0.692845 5.95785 0
M  V30 5766 H 518.681 1.11865 6.37256 0
M  V30 5767 N 518.813 -1.54241 0.323641 0
M  V30 5768 C 520.224 -1.85975 -0.164405 0
M  V30 5769 C 520.575 -1.24529 -1.51615 0
M  V30 5770 O 519.7 -0.551351 -2.09258 0
M  V30 5771 C 520.295 -3.37424 -0.305091 0
M  V30 5772 C 518.854 -3.69107 -0.737358 0
M  V30 5773 C 518.001 -2.76942 0.140884 0
M  V30 5774 H 520.952 -1.49088 0.543922 0
M  V30 5775 H 520.973 -3.63147 -1.13598 0
M  V30 5776 H 520.485 -3.82116 0.678876 0
M  V30 5777 H 518.586 -3.29947 -1.73107 0
M  V30 5778 H 518.699 -4.76035 -0.541053 0
M  V30 5779 H 517.063 -2.51795 -0.383572 0
M  V30 5780 H 517.846 -3.24461 1.12162 0
M  V30 5781 N 520.291 -0.0518155 -1.57515 0
M  V30 5782 C 521.521 0.63048 -1.96745 0
M  V30 5783 C 521.929 1.64875 -0.928054 0
M  V30 5784 O 521.272 1.83449 0.0960678 0
M  V30 5785 C 521.334 1.37381 -3.32215 0
M  V30 5786 C 520.998 0.511298 -4.54131 0
M  V30 5787 C 521.995 -0.222884 -5.19422 0
M  V30 5788 C 519.68 0.442035 -5.00351 0
M  V30 5789 C 521.674 -1.01476 -6.2927 0
M  V30 5790 C 519.361 -0.35353 -6.10077 0
M  V30 5791 C 520.359 -1.08062 -6.74397 0
M  V30 5792 O 520.047 -1.8631 -7.82013 0
M  V30 5793 H 519.779 0.177126 -0.652382 0
M  V30 5794 H 522.333 -0.114726 -2.05079 0
M  V30 5795 H 520.563 2.16466 -3.20436 0
M  V30 5796 H 522.252 1.9464 -3.56188 0
M  V30 5797 H 523.018 -0.178846 -4.8467 0
M  V30 5798 H 518.897 0.997562 -4.50077 0
M  V30 5799 H 522.441 -1.58279 -6.79407 0
M  V30 5800 H 518.338 -0.399205 -6.44264 0
M  V30 5801 H 519.106 -1.78528 -7.98793 0
M  V30 5802 N 521.769 1.56035 0.221574 0
M  V30 5803 C 523.18 1.69229 0.788567 0
M  V30 5804 C 523.531 0.653814 1.84986 0
M  V30 5805 O 522.656 -0.195065 2.15519 0
M  V30 5806 C 523.251 3.06809 1.43713 0
M  V30 5807 C 521.81 3.21858 1.95152 0
M  V30 5808 C 520.957 2.65155 0.811685 0
M  V30 5809 H 523.908 1.587 -0.00307894 0
M  V30 5810 H 523.929 3.02666 2.30594 0
M  V30 5811 H 523.441 3.82369 0.664475 0
M  V30 5812 H 521.542 2.51167 2.7522 0
M  V30 5813 H 521.655 4.29073 2.1315 0
M  V30 5814 H 520.019 2.23635 1.21899 0
M  V30 5815 H 520.802 3.43261 0.0516987 0
M  V30 5816 N 523.247 -0.488276 1.49845 0
M  V30 5817 C 524.194 -1.58836 1.67451 0
M  V30 5818 C 525.164 -1.57886 0.515857 0
M  V30 5819 O 526.349 -1.75679 0.744403 0
M  V30 5820 C 523.489 -2.96915 1.75885 0
M  V30 5821 C 522.602 -3.07784 3.03138 0
M  V30 5822 C 521.737 -4.36673 3.02473 0
M  V30 5823 C 520.776 -4.41222 4.24252 0
M  V30 5824 N 519.913 -5.61557 4.21424 0
M  V30 5825 H 524.753 -1.43131 2.61376 0
M  V30 5826 H 522.29 -0.696186 1.29583 0
M  V30 5827 H 524.248 -3.76965 1.78755 0
M  V30 5828 H 522.878 -3.11295 0.85414 0
M  V30 5829 H 521.93 -2.20717 3.09819 0
M  V30 5830 H 523.242 -3.07005 3.93128 0
M  V30 5831 H 522.396 -5.25055 3.03977 0
M  V30 5832 H 521.135 -4.40037 2.10283 0
M  V30 5833 H 520.14 -3.5124 4.22978 0
M  V30 5834 H 521.365 -4.39564 5.17649 0
M  V30 5835 H 519.311 -5.65738 3.32078 0
M  V30 5836 H 519.228 -5.62447 5.05163 0
M  V30 5837 H 520.496 -6.52111 4.2705 0
M  V30 5838 N 524.725 -1.39134 -0.740242 0
M  V30 5839 C 526.141 -1.20623 -1.0451 0
M  V30 5840 C 526.341 -0.0641651 -2.01398 0
M  V30 5841 O 525.397 0.585843 -2.4561 0
M  V30 5842 C 526.71 -2.53815 -1.6124 0
M  V30 5843 C 528.258 -2.60615 -1.73346 0
M  V30 5844 C 528.733 -3.94015 -2.33486 0
M  V30 5845 N 530.224 -3.95627 -2.40902 0
M  V30 5846 C 530.959 -4.95616 -2.88361 0
M  V30 5847 N 530.455 -6.06003 -3.35756 0
M  V30 5848 N 532.248 -4.82998 -2.87523 0
M  V30 5849 H 524.399 -2.12176 -0.0975576 0
M  V30 5850 H 526.662 -0.942066 -0.105904 0
M  V30 5851 H 526.368 -3.37911 -0.975144 0
M  V30 5852 H 526.242 -2.73162 -2.6012 0
M  V30 5853 H 528.629 -1.76906 -2.36195 0
M  V30 5854 H 528.71 -2.45123 -0.731336 0
M  V30 5855 H 528.354 -4.78153 -1.71267 0
M  V30 5856 H 528.284 -4.06825 -3.34366 0
M  V30 5857 H 530.775 -3.15903 -2.07398 0
M  V30 5858 H 531.088 -6.78215 -3.70464 0
M  V30 5859 H 529.433 -6.09604 -3.33778 0
M  V30 5860 H 532.624 -3.95866 -2.49816 0
M  V30 5861 H 532.797 -5.61072 -3.24196 0
M  V30 5862 N 526.204 0.969867 -1.24223 0
M  V30 5863 C 527.114 2.09806 -1.0497 0
M  V30 5864 C 528.13 1.73998 0.00886455 0
M  V30 5865 O 529.306 2.00513 -0.188848 0
M  V30 5866 C 526.371 3.40467 -0.654452 0
M  V30 5867 C 525.432 3.90236 -1.78926 0
M  V30 5868 C 524.665 5.14662 -1.41277 0
M  V30 5869 O 524.888 5.69602 -0.301632 0
M  V30 5870 O 523.822 5.58761 -2.23763 0
M  V30 5871 H 527.648 2.28942 -1.99548 0
M  V30 5872 H 525.233 1.08197 -1.03023 0
M  V30 5873 H 527.115 4.19039 -0.445452 0
M  V30 5874 H 525.79 3.22636 0.262216 0
M  V30 5875 H 524.697 3.12735 -2.05299 0
M  V30 5876 H 526.03 4.1254 -2.68462 0
M  V30 5877 N 527.682 1.05563 1.17022 0
M  V30 5878 C 528.929 0.767937 1.87374 0
M  V30 5879 C 529.257 -0.705224 1.81265 0
M  V30 5880 O 528.512 -1.5318 1.21796 0
M  V30 5881 C 528.811 1.19849 3.36706 0
M  V30 5882 C 528.477 2.6745 3.63017 0
M  V30 5883 C 527.139 3.0777 3.69907 0
M  V30 5884 C 529.491 3.62811 3.74189 0
M  V30 5885 C 526.819 4.42307 3.85463 0
M  V30 5886 C 529.171 4.97087 3.91264 0
M  V30 5887 C 527.835 5.37055 3.96394 0
M  V30 5888 H 527.105 0.281008 0.68565 0
M  V30 5889 H 529.752 1.32339 1.38415 0
M  V30 5890 H 528.057 0.562096 3.87747 0
M  V30 5891 H 529.754 0.953038 3.8951 0
M  V30 5892 H 526.344 2.35228 3.58282 0
M  V30 5893 H 530.528 3.32798 3.68183 0
M  V30 5894 H 525.784 4.72769 3.87684 0
M  V30 5895 H 529.958 5.70869 3.9885 0
M  V30 5896 H 527.585 6.41308 4.082 0
M  V30 5897 N 529.16 -1.33526 0.837174 0
M  V30 5898 C 530.09 -2.31764 0.284206 0
M  V30 5899 C 531.071 -1.58896 -0.607142 0
M  V30 5900 O 532.256 -1.86798 -0.531047 0
M  V30 5901 C 529.386 -3.43029 -0.542962 0
M  V30 5902 C 528.34 -4.27255 0.252451 0
M  V30 5903 C 527.666 -5.3012 -0.69836 0
M  V30 5904 C 528.966 -5.01229 1.46858 0
M  V30 5905 H 530.66 -2.78262 1.10502 0
M  V30 5906 H 528.206 -1.3378 0.532812 0
M  V30 5907 H 530.159 -4.1078 -0.940096 0
M  V30 5908 H 528.883 -2.95216 -1.39697 0
M  V30 5909 H 527.542 -3.61127 0.631124 0
M  V30 5910 H 527.19 -4.78564 -1.54872 0
M  V30 5911 H 526.89 -5.87353 -0.170274 0
M  V30 5912 H 528.414 -6.00737 -1.09305 0
M  V30 5913 H 529.828 -5.61756 1.14469 0
M  V30 5914 H 528.225 -5.68104 1.93333 0
M  V30 5915 H 529.295 -4.301 2.23924 0
M  V30 5916 N 530.638 -0.59345 -1.46 0
M  V30 5917 C 531.866 -0.0890934 -2.06708 0
M  V30 5918 C 532.281 1.2205 -1.44046 0
M  V30 5919 O 531.638 1.74029 -0.549551 0
M  V30 5920 C 531.689 0.0720263 -3.61428 0
M  V30 5921 O 531.41 -1.18574 -4.21748 0
M  V30 5922 C 532.911 0.609487 -4.3909 0
M  V30 5923 H 530.131 -0.0623628 -0.668096 0
M  V30 5924 H 532.675 -0.817171 -1.87464 0
M  V30 5925 H 530.83 0.750369 -3.80063 0
M  V30 5926 H 531.244 -1.0064 -5.14754 0
M  V30 5927 H 532.718 0.671363 -5.47902 0
M  V30 5928 H 533.195 1.62878 -4.07882 0
M  V30 5929 H 533.801 -0.03434 -4.25286 0
M  V30 5930 N 532.116 1.54067 -0.331816 0
M  V30 5931 C 533.026 2.28322 0.539104 0
M  V30 5932 C 534.042 1.32985 1.1221 0
M  V30 5933 O 535.218 1.6601 1.1403 0
M  V30 5934 C 532.283 3.03277 1.68 0
M  V30 5935 C 531.344 4.14216 1.12798 0
M  V30 5936 C 530.577 4.85588 2.2145 0
M  V30 5937 O 530.8 4.56536 3.41952 0
M  V30 5938 O 529.734 5.72309 1.86404 0
M  V30 5939 H 533.56 3.03632 -0.0641692 0
M  V30 5940 H 531.145 1.49083 -0.0972365 0
M  V30 5941 H 533.027 3.50189 2.34405 0
M  V30 5942 H 531.702 2.30834 2.2693 0
M  V30 5943 H 530.609 3.71635 0.428782 0
M  V30 5944 H 531.942 4.88727 0.583698 0
M  V30 5945 N 533.594 0.0601682 1.57485 0
M  V30 5946 C 534.504 -0.926121 2.15546 0
M  V30 5947 C 535.52 -1.33532 1.11558 0
M  V30 5948 O 536.696 -1.4104 1.4377 0
M  V30 5949 C 533.761 -2.17952 2.69625 0
M  V30 5950 C 532.822 -1.82783 3.88444 0
M  V30 5951 C 532.055 -3.02148 4.39935 0
M  V30 5952 O 532.278 -4.15803 3.90466 0
M  V30 5953 O 531.212 -2.82639 5.31412 0
M  V30 5954 H 535.038 -0.462289 3.00161 0
M  V30 5955 H 532.623 -0.162246 1.48516 0
M  V30 5956 H 534.505 -2.91474 3.04337 0
M  V30 5957 H 533.18 -2.63456 1.88077 0
M  V30 5958 H 532.087 -1.06549 3.58606 0
M  V30 5959 H 533.42 -1.42072 4.7125 0
M  V30 5960 N 535.072 -1.5615 -0.213296 0
M  V30 5961 C 535.982 -1.96265 -1.28519 0
M  V30 5962 C 536.998 -0.86765 -1.50824 0
M  V30 5963 O 538.174 -1.17191 -1.63793 0
M  V30 5964 C 535.239 -2.27836 -2.61327 0
M  V30 5965 C 534.3 -3.50949 -2.47252 0
M  V30 5966 C 533.533 -3.81004 -3.73727 0
M  V30 5967 O 533.756 -3.12612 -4.77106 0
M  V30 5968 O 532.69 -4.74477 -3.70344 0
M  V30 5969 H 536.516 -2.87631 -0.974795 0
M  V30 5970 H 534.101 -1.43467 -0.416832 0
M  V30 5971 H 535.983 -2.49299 -3.39747 0
M  V30 5972 H 534.658 -1.39643 -2.9203 0
M  V30 5973 H 533.565 -3.34754 -1.67004 0
M  V30 5974 H 534.898 -4.39551 -2.21486 0
M  V30 5975 N 536.55 0.480323 -1.50102 0
M  V30 5976 C 537.961 1.06142 -1.53593 0
M  V30 5977 C 538.312 1.93335 -0.334055 0
M  V30 5978 O 537.437 2.09188 0.55403 0
M  V30 5979 C 538.032 1.9317 -2.78336 0
M  V30 5980 C 536.591 2.46405 -2.84538 0
M  V30 5981 C 535.738 1.24521 -2.4777 0
M  V30 5982 H 538.689 0.26333 -1.565 0
M  V30 5983 H 538.71 2.78123 -2.59669 0
M  V30 5984 H 538.222 1.29683 -3.65792 0
M  V30 5985 H 536.323 3.13472 -2.01411 0
M  V30 5986 H 536.436 2.82143 -3.87211 0
M  V30 5987 H 534.8 1.57706 -2.00003 0
M  V30 5988 H 535.583 0.627102 -3.37524 0
M  V30 5989 N 538.028 1.39524 0.732853 0
M  V30 5990 C 539.305 1.27373 1.48444 0
M  V30 5991 C 539.685 -0.115725 2.10783 0
M  V30 5992 O 539.033 -1.12713 1.98766 0
M  V30 5993 C 539.243 2.39966 2.53412 0
M  V30 5994 C 540.591 2.79384 3.19733 0
M  V30 5995 O 541.615 2.39431 2.63725 0
M  V30 5996 O 540.474 3.48353 4.21085 0
M  V30 5997 H 537.568 0.499272 0.659285 0
M  V30 5998 H 540.114 1.51403 0.766496 0
M  V30 5999 H 538.886 3.32845 2.05742 0
M  V30 6000 H 538.509 2.17612 3.32762 0
M  V30 6001 N 539.506 -0.963266 1.24736 0
M  V30 6002 C 540.783 -1.68248 0.9976 0
M  V30 6003 C 541.163 -2.05599 -0.478776 0
M  V30 6004 O 540.511 -1.7626 -1.45412 0
M  V30 6005 C 540.721 -2.91118 1.92487 0
M  V30 6006 C 542.069 -3.63261 2.19833 0
M  V30 6007 O 543.093 -3.01184 1.90176 0
M  V30 6008 O 541.952 -4.75019 2.7022 0
M  V30 6009 H 539.046 -0.735744 0.377637 0
M  V30 6010 H 541.592 -1.01696 1.35853 0
M  V30 6011 H 540.364 -2.60242 2.92215 0
M  V30 6012 H 539.987 -3.65402 1.56738 0
M  V30 6013 N 540.985 -1.06182 -1.16461 0
M  V30 6014 C 541.932 -0.671613 -2.20812 0
M  V30 6015 C 542.902 0.331186 -1.62765 0
M  V30 6016 O 544.087 0.22033 -1.89524 0
M  V30 6017 C 541.227 -0.063029 -3.45042 0
M  V30 6018 C 540.34 -1.11587 -4.1734 0
M  V30 6019 C 539.475 -0.473546 -5.29085 0
M  V30 6020 C 538.514 -1.51 -5.93182 0
M  V30 6021 N 537.651 -0.891118 -6.96422 0
M  V30 6022 H 542.491 -1.56589 -2.53542 0
M  V30 6023 H 540.028 -0.782951 -1.24532 0
M  V30 6024 H 541.986 0.307344 -4.16066 0
M  V30 6025 H 540.616 0.794663 -3.12866 0
M  V30 6026 H 539.668 -1.60396 -3.44931 0
M  V30 6027 H 540.98 -1.90221 -4.61104 0
M  V30 6028 H 540.134 -0.0501432 -6.06679 0
M  V30 6029 H 538.873 0.344687 -4.8648 0
M  V30 6030 H 537.878 -1.94331 -5.14311 0
M  V30 6031 H 539.103 -2.33031 -6.37866 0
M  V30 6032 H 537.049 -0.0935753 -6.55933 0
M  V30 6033 H 536.966 -1.61486 -7.38551 0
M  V30 6034 H 538.234 -0.492822 -7.77941 0
M  V30 6035 N 542.463 1.3308 -0.844243 0
M  V30 6036 C 543.711 1.97215 -0.441676 0
M  V30 6037 C 544.032 1.67185 1.0037 0
M  V30 6038 O 543.302 0.973588 1.69994 0
M  V30 6039 H 541.882 0.72959 -0.160335 0
M  V30 6040 H 544.544 1.62348 -1.07838 0
M  V30 6041 H 543.64 3.06698 -0.57815 0
M  V30 6042 N 543.941 0.601185 1.45683 0
M  V30 6043 C 545.218 0.0261659 1.95582 0
M  V30 6044 C 545.598 -1.4399 1.5437 0
M  V30 6045 O 544.946 -2.13919 0.80318 0
M  V30 6046 C 545.156 0.217557 3.48321 0
M  V30 6047 C 546.504 0.0950076 4.24494 0
M  V30 6048 O 547.528 0.147345 3.55895 0
M  V30 6049 O 546.387 -0.025261 5.46494 0
M  V30 6050 H 543.481 -0.0393688 0.826062 0
M  V30 6051 H 546.027 0.670798 1.55879 0
M  V30 6052 H 544.799 1.23601 3.71266 0
M  V30 6053 H 544.422 -0.46264 3.94899 0
M  V30 6054 N 545.419 -1.53889 0.339982 0
M  V30 6055 C 546.366 -2.24902 -0.518452 0
M  V30 6056 C 547.336 -1.24593 -1.09844 0
M  V30 6057 O 548.521 -1.53317 -1.13572 0
M  V30 6058 C 545.661 -3.02262 -1.66529 0
M  V30 6059 C 544.774 -4.17418 -1.11295 0
M  V30 6060 C 543.909 -4.82273 -2.2268 0
M  V30 6061 C 542.948 -5.89503 -1.6478 0
M  V30 6062 N 542.085 -6.48153 -2.69893 0
M  V30 6063 H 546.925 -2.97853 0.0936579 0
M  V30 6064 H 544.462 -1.46986 0.0579924 0
M  V30 6065 H 546.42 -3.45371 -2.3404 0
M  V30 6066 H 545.05 -2.31614 -2.24844 0
M  V30 6067 H 544.102 -3.78976 -0.328886 0
M  V30 6068 H 545.414 -4.94554 -0.649414 0
M  V30 6069 H 544.568 -5.28435 -2.98063 0
M  V30 6070 H 543.307 -4.04552 -2.72376 0
M  V30 6071 H 542.312 -5.42728 -0.879004 0
M  V30 6072 H 543.537 -6.6913 -1.1594 0
M  V30 6073 H 541.483 -5.73298 -3.1885 0
M  V30 6074 H 541.4 -7.20752 -2.28151 0
M  V30 6075 H 542.668 -6.98968 -3.45056 0
M  V30 6076 N 546.897 -0.0685191 -1.57451 0
M  V30 6077 C 547.844 0.899861 -2.12535 0
M  V30 6078 C 548.814 1.29749 -1.03703 0
M  V30 6079 O 549.999 1.38392 -1.31348 0
M  V30 6080 C 547.139 2.16328 -2.6888 0
M  V30 6081 C 546.252 1.81857 -3.91857 0
M  V30 6082 C 545.387 3.02786 -4.36457 0
M  V30 6083 C 544.426 2.64317 -5.5209 0
M  V30 6084 N 543.563 3.77994 -5.91663 0
M  V30 6085 H 548.403 0.423243 -2.94979 0
M  V30 6086 H 545.94 0.197268 -1.45771 0
M  V30 6087 H 547.898 2.90281 -2.99655 0
M  V30 6088 H 546.528 2.61536 -1.89206 0
M  V30 6089 H 545.58 0.979808 -3.67565 0
M  V30 6090 H 546.892 1.49553 -4.75852 0
M  V30 6091 H 546.046 3.85021 -4.68875 0
M  V30 6092 H 544.785 3.38281 -3.51308 0
M  V30 6093 H 543.79 1.80503 -5.19325 0
M  V30 6094 H 545.015 2.29995 -6.38967 0
M  V30 6095 H 542.961 4.13258 -5.09464 0
M  V30 6096 H 542.878 3.49447 -6.7039 0
M  V30 6097 H 544.146 4.60818 -6.28703 0
M  V30 6098 N 548.375 1.56261 0.205012 0
M  V30 6099 C 549.323 1.94631 1.27364 0
M  V30 6100 C 550.317 0.830434 1.47649 0
M  V30 6101 O 551.523 1.01538 1.48627 0
M  V30 6102 H 547.898 0.618755 0.427371 0
M  V30 6103 H 549.869 2.83768 0.922941 0
M  V30 6104 C 548.618 2.29358 2.61324 0
M  V30 6105 H 547.941 3.14744 2.46528 0
M  V30 6106 H 549.381 2.60076 3.34868 0
M  V30 6107 C 547.84 1.12461 3.17575 0
M  V30 6108 O 548.37 0.394407 3.99759 0
M  V30 6109 N 546.576 0.904036 2.7618 0
M  V30 6110 H 546.123 1.49956 2.09454 0
M  V30 6111 H 546.081 0.123662 3.14157 0
M  V30 6112 N 549.853 -0.472356 1.50355 0
M  V30 6113 C 550.785 -1.58795 1.65278 0
M  V30 6114 C 551.798 -1.53782 0.534313 0
M  V30 6115 O 552.987 -1.59193 0.807446 0
M  V30 6116 C 550.087 -2.97672 1.62001 0
M  V30 6117 C 549.26 -3.27568 2.89859 0
M  V30 6118 C 548.319 -4.45993 2.79242 0
M  V30 6119 O 547.345 -4.46364 3.53197 0
M  V30 6120 N 548.547 -5.47578 1.92713 0
M  V30 6121 H 551.312 -1.46411 2.61503 0
M  V30 6122 H 548.873 -0.660751 1.47803 0
M  V30 6123 H 550.865 -3.74862 1.52513 0
M  V30 6124 H 549.435 -3.03832 0.735159 0
M  V30 6125 H 548.655 -2.39003 3.13483 0
M  V30 6126 H 549.943 -3.44352 3.74565 0
M  V30 6127 H 549.341 -5.50099 1.31939 0
M  V30 6128 H 547.898 -6.23757 1.8913 0
M  V30 6129 N 551.331 -1.39911 -0.725443 0
M  V30 6130 C 552.263 -1.35301 -1.85003 0
M  V30 6131 C 553.276 -0.260102 -1.60709 0
M  V30 6132 O 554.465 -0.519749 -1.70766 0
M  V30 6133 C 551.565 -1.08039 -3.21218 0
M  V30 6134 C 550.738 -2.28793 -3.7279 0
M  V30 6135 C 549.797 -1.97841 -4.87591 0
M  V30 6136 O 548.823 -2.70616 -5.00755 0
M  V30 6137 N 550.025 -0.950367 -5.72668 0
M  V30 6138 H 552.79 -2.32218 -1.89459 0
M  V30 6139 H 550.351 -1.34137 -0.90658 0
M  V30 6140 H 552.343 -0.853354 -3.95601 0
M  V30 6141 H 550.913 -0.198229 -3.11971 0
M  V30 6142 H 550.133 -2.67388 -2.8965 0
M  V30 6143 H 551.421 -3.09317 -4.03981 0
M  V30 6144 H 550.819 -0.347436 -5.64632 0
M  V30 6145 H 549.376 -0.783232 -6.47077 0
M  V30 6146 N 552.809 0.956637 -1.25245 0
M  V30 6147 C 553.741 2.05628 -1.01242 0
M  V30 6148 C 554.754 1.62785 0.0219579 0
M  V30 6149 O 555.943 1.77184 -0.216365 0
M  V30 6150 C 553.043 3.35069 -0.508161 0
M  V30 6151 C 552.216 4.06761 -1.60823 0
M  V30 6152 C 551.275 5.14473 -1.1047 0
M  V30 6153 O 550.301 5.40033 -1.79868 0
M  V30 6154 N 551.503 5.80474 0.0550773 0
M  V30 6155 H 554.268 2.2679 -1.95925 0
M  V30 6156 H 551.829 1.12505 -1.16423 0
M  V30 6157 H 553.821 4.044 -0.155819 0
M  V30 6158 H 552.391 3.10694 0.344683 0
M  V30 6159 H 551.611 3.31555 -2.13224 0
M  V30 6160 H 552.899 4.51418 -2.34733 0
M  V30 6161 H 552.297 5.62125 0.635004 0
M  V30 6162 H 550.854 6.50868 0.348469 0
M  V30 6163 N 554.287 1.06798 1.15896 0
M  V30 6164 C 555.219 0.641263 2.20046 0
M  V30 6165 C 556.232 -0.303355 1.59949 0
M  V30 6166 O 557.421 -0.0935478 1.78255 0
M  V30 6167 C 554.521 -0.0794029 3.38807 0
M  V30 6168 C 553.694 0.879986 4.28457 0
M  V30 6169 C 552.753 0.197638 5.25829 0
M  V30 6170 O 551.779 0.836913 5.63014 0
M  V30 6171 N 552.981 -1.05886 5.70761 0
M  V30 6172 H 555.746 1.53718 2.57276 0
M  V30 6173 H 553.307 0.951951 1.30956 0
M  V30 6174 H 555.299 -0.546418 4.00994 0
M  V30 6175 H 553.869 -0.877193 3.0004 0
M  V30 6176 H 553.089 1.52625 3.63454 0
M  V30 6177 H 554.377 1.53065 4.8523 0
M  V30 6178 H 553.775 -1.59828 5.42652 0
M  V30 6179 H 552.332 -1.46965 6.35015 0
M  V30 6180 N 555.766 -1.3263 0.851289 0
M  V30 6181 C 556.698 -2.27824 0.250757 0
M  V30 6182 C 557.711 -1.52285 -0.575598 0
M  V30 6183 O 558.9 -1.73946 -0.400638 0
M  V30 6184 C 556 -3.3232 -0.664571 0
M  V30 6185 C 555.173 -4.37221 0.125187 0
M  V30 6186 C 554.232 -5.21314 -0.715385 0
M  V30 6187 O 553.258 -5.69002 -0.150111 0
M  V30 6188 N 554.46 -5.43823 -2.03069 0
M  V30 6189 H 557.225 -2.79997 1.06873 0
M  V30 6190 H 554.786 -1.45455 0.710943 0
M  V30 6191 H 556.778 -3.85486 -1.23216 0
M  V30 6192 H 555.348 -2.80331 -1.38323 0
M  V30 6193 H 554.568 -3.84384 0.874199 0
M  V30 6194 H 555.856 -5.04399 0.667774 0
M  V30 6195 H 555.254 -5.06803 -2.51332 0
M  V30 6196 H 553.811 -5.99998 -2.54648 0
M  V30 6197 N 557.244 -0.608902 -1.45362 0
M  V30 6198 C 558.492 -0.104401 -2.0183 0
M  V30 6199 C 558.813 1.27007 -1.47967 0
M  V30 6200 O 558.083 1.83924 -0.674455 0
M  V30 6201 H 556.663 -0.0356042 -0.746151 0
M  V30 6202 H 559.325 -0.790596 -1.78145 0
M  V30 6203 H 558.421 -0.0551793 -3.12051 0
M  V30 6204 N 558.722 1.53707 -0.348139 0
M  V30 6205 C 559.67 2.26671 0.521808 0
M  V30 6206 C 560.664 1.28988 1.09811 0
M  V30 6207 O 561.87 1.4668 1.04332 0
M  V30 6208 H 558.245 0.728387 0.186968 0
M  V30 6209 H 560.216 2.98176 -0.115563 0
M  V30 6210 C 558.965 3.05591 1.6586 0
M  V30 6211 H 558.288 3.80589 1.22443 0
M  V30 6212 H 559.728 3.59851 2.24239 0
M  V30 6213 C 558.187 2.15366 2.59073 0
M  V30 6214 O 558.717 1.7528 3.61441 0
M  V30 6215 N 556.923 1.80352 2.27863 0
M  V30 6216 H 556.47 2.13149 1.44656 0
M  V30 6217 H 556.428 1.20268 2.90488 0
M  V30 6218 N 560.2 0.0768682 1.57412 0
M  V30 6219 C 561.148 -0.906229 2.1422 0
M  V30 6220 C 562.142 -1.30477 1.08037 0
M  V30 6221 O 563.348 -1.28143 1.2641 0
M  V30 6222 H 559.723 -0.310207 0.685037 0
M  V30 6223 H 561.694 -0.402228 2.95677 0
M  V30 6224 C 560.443 -2.16245 2.72274 0
M  V30 6225 H 559.766 -1.86463 3.53655 0
M  V30 6226 H 561.206 -2.83134 3.15613 0
M  V30 6227 C 559.665 -2.92437 1.67279 0
M  V30 6228 O 560.195 -3.86322 1.10081 0
M  V30 6229 N 558.401 -2.55637 1.38195 0
M  V30 6230 H 557.948 -1.79363 1.84897 0
M  V30 6231 H 557.906 -3.06919 0.681787 0
M  V30 6232 N 561.678 -1.56367 -0.196722 0
M  V30 6233 C 562.628 -1.9082 -1.24787 0
M  V30 6234 C 563.612 -0.773719 -1.41076 0
M  V30 6235 O 564.804 -1.03655 -1.43474 0
M  V30 6236 C 561.933 -2.24982 -2.59303 0
M  V30 6237 C 561.019 -3.44882 -2.46814 0
M  V30 6238 N 561.41 -4.62835 -2.04003 0
M  V30 6239 C 559.708 -3.48988 -2.77711 0
M  V30 6240 C 560.409 -5.44993 -2.03366 0
M  V30 6241 N 559.385 -4.85356 -2.44807 0
M  V30 6242 H 563.187 -2.79516 -0.908175 0
M  V30 6243 H 560.701 -1.57265 -0.405166 0
M  V30 6244 H 562.698 -2.47848 -3.35227 0
M  V30 6245 H 561.358 -1.37611 -2.94098 0
M  V30 6246 H 562.369 -4.87532 -1.74738 0
M  V30 6247 H 559.046 -2.72029 -3.16712 0
M  V30 6248 H 560.436 -6.49464 -1.72181 0
M  V30 6249 N 563.156 0.464375 -1.50603 0
M  V30 6250 C 564.384 1.23907 -1.65695 0
M  V30 6251 C 564.799 1.85658 -0.343027 0
M  V30 6252 O 564.156 1.69529 0.675739 0
M  V30 6253 C 564.207 2.3429 -2.75301 0
M  V30 6254 O 563.928 1.7507 -4.01599 0
M  V30 6255 C 565.429 3.25051 -3.01424 0
M  V30 6256 H 562.649 0.374485 -0.556778 0
M  V30 6257 H 565.193 0.55353 -1.96866 0
M  V30 6258 H 563.348 2.98607 -2.46804 0
M  V30 6259 H 563.762 2.47812 -4.62266 0
M  V30 6260 H 565.236 3.98699 -3.81763 0
M  V30 6261 H 565.713 3.84227 -2.12758 0
M  V30 6262 H 566.319 2.66463 -3.31477 0
M  V30 6263 N 564.634 1.40294 0.718013 0
M  V30 6264 C 565.582 1.40536 1.85344 0
M  V30 6265 C 566.576 0.286192 1.66965 0
M  V30 6266 O 567.782 0.457105 1.74099 0
M  V30 6267 H 564.157 0.439236 0.61039 0
M  V30 6268 H 566.128 2.36275 1.82255 0
M  V30 6269 C 564.877 1.28245 3.23185 0
M  V30 6270 H 564.2 2.1364 3.37932 0
M  V30 6271 H 565.64 1.32474 4.02774 0
M  V30 6272 C 564.099 -0.0075503 3.36899 0
M  V30 6273 O 564.629 -0.971391 3.89778 0
M  V30 6274 N 562.835 -0.0762479 2.905 0
M  V30 6275 H 562.382 0.708819 2.47656 0
M  V30 6276 H 562.34 -0.938846 3.00055 0
M  V30 6277 N 566.112 -0.949982 1.2575 0
M  V30 6278 C 567.36 -1.6918 1.10555 0
M  V30 6279 C 567.681 -1.91773 -0.353298 0
M  V30 6280 O 566.951 -1.50814 -1.25027 0
M  V30 6281 H 565.531 -0.626952 0.406129 0
M  V30 6282 H 568.193 -1.1419 1.57945 0
M  V30 6283 H 567.289 -2.66915 1.61749 0
M  V30 6284 N 567.59 -1.07411 -1.15328 0
M  V30 6285 C 568.818 -0.818782 -1.90009 0
M  V30 6286 C 569.233 0.628072 -1.78047 0
M  V30 6287 O 568.59 1.43085 -1.13282 0
M  V30 6288 C 568.641 -1.21874 -3.40337 0
M  V30 6289 O 568.362 -2.60883 -3.51954 0
M  V30 6290 C 569.863 -0.992796 -4.3204 0
M  V30 6291 H 567.083 -0.296007 -0.60218 0
M  V30 6292 H 569.627 -1.43073 -1.46117 0
M  V30 6293 H 567.782 -0.651103 -3.81889 0
M  V30 6294 H 568.196 -2.77216 -4.45255 0
M  V30 6295 H 569.67 -1.32215 -5.35932 0
M  V30 6296 H 570.147 0.0708331 -4.39143 0
M  V30 6297 H 570.753 -1.54537 -3.9623 0
M  V30 6298 N 569.068 1.32177 -0.85831 0
M  V30 6299 C 570.316 1.96735 -0.462568 0
M  V30 6300 C 570.637 1.6824 0.985911 0
M  V30 6301 O 569.907 0.991564 1.68952 0
M  V30 6302 H 568.487 0.727849 -0.168064 0
M  V30 6303 H 571.149 1.61195 -1.09554 0
M  V30 6304 H 570.245 3.06068 -0.610647 0
M  V30 6305 N 570.547 0.616602 1.45037 0
M  V30 6306 C 571.497 -0.118543 2.27692 0
M  V30 6307 C 572.481 -0.830025 1.37838 0
M  V30 6308 O 573.673 -0.718528 1.6176 0
M  V30 6309 C 570.802 -1.10924 3.24886 0
M  V30 6310 C 569.888 -0.398134 4.22227 0
M  V30 6311 N 570.279 0.565233 5.02632 0
M  V30 6312 C 568.577 -0.644506 4.41319 0
M  V30 6313 C 569.278 0.984043 5.73316 0
M  V30 6314 N 568.254 0.325879 5.42622 0
M  V30 6315 H 572.056 0.621239 2.87259 0
M  V30 6316 H 569.57 0.440968 1.56299 0
M  V30 6317 H 571.567 -1.65038 3.82842 0
M  V30 6318 H 570.227 -1.84948 2.66879 0
M  V30 6319 H 571.238 0.942395 5.09254 0
M  V30 6320 H 567.915 -1.36873 3.94426 0
M  V30 6321 H 569.305 1.77911 6.47918 0
M  V30 6322 N 572.025 -1.5352 0.356285 0
M  V30 6323 C 573.436 -1.86282 -0.12492 0
M  V30 6324 C 573.787 -1.27717 -1.48939 0
M  V30 6325 O 572.912 -0.595614 -2.08042 0
M  V30 6326 C 573.507 -3.37995 -0.23345 0
M  V30 6327 C 572.066 -3.70588 -0.658899 0
M  V30 6328 C 571.213 -2.76581 0.199596 0
M  V30 6329 H 574.164 -1.47901 0.575423 0
M  V30 6330 H 574.185 -3.65475 -1.0587 0
M  V30 6331 H 573.697 -3.8059 0.759776 0
M  V30 6332 H 571.798 -3.33544 -1.66069 0
M  V30 6333 H 571.911 -4.77076 -0.439957 0
M  V30 6334 H 570.275 -2.52552 -0.330076 0
M  V30 6335 H 571.058 -3.22008 1.19019 0
M  V30 6336 N 573.503 -0.0852151 -1.57369 0
M  V30 6337 C 574.751 0.579658 -1.93609 0
M  V30 6338 C 575.072 1.69332 -0.967043 0
M  V30 6339 O 574.342 1.95892 -0.0174215 0
M  V30 6340 H 572.922 0.217113 -0.714752 0
M  V30 6341 H 575.584 -0.146226 -1.94351 0
M  V30 6342 H 574.68 0.996276 -2.95771 0
M  V30 6343 N 574.981 1.5647 0.188427 0
M  V30 6344 C 575.929 1.95971 1.25293 0
M  V30 6345 C 576.923 0.846047 1.4676 0
M  V30 6346 O 578.129 1.03109 1.47542 0
M  V30 6347 H 574.504 0.623253 0.420784 0
M  V30 6348 H 576.475 2.84731 0.892792 0
M  V30 6349 C 575.224 2.32116 2.58877 0
M  V30 6350 H 574.547 3.17341 2.43176 0
M  V30 6351 H 575.987 2.63613 3.3209 0
M  V30 6352 C 574.446 1.15823 3.16365 0
M  V30 6353 O 574.976 0.436785 3.99318 0
M  V30 6354 N 573.182 0.933278 2.75206 0
M  V30 6355 H 572.729 1.52169 2.07852 0
M  V30 6356 H 572.687 0.156976 3.14008 0
M  V30 6357 N 576.459 -0.456382 1.50847 0
M  V30 6358 C 577.391 -1.57033 1.66953 0
M  V30 6359 C 578.404 -1.53207 0.550593 0
M  V30 6360 O 579.593 -1.58328 0.824285 0
M  V30 6361 C 576.693 -2.95937 1.65149 0
M  V30 6362 C 575.866 -3.24475 2.93317 0
M  V30 6363 C 574.925 -4.43007 2.83957 0
M  V30 6364 O 573.951 -4.42592 3.57912 0
M  V30 6365 N 575.153 -5.45503 1.9851 0
M  V30 6366 H 577.918 -1.43629 2.63042 0
M  V30 6367 H 575.479 -0.645037 1.48495 0
M  V30 6368 H 577.471 -3.73224 1.56481 0
M  V30 6369 H 576.041 -3.03036 0.767343 0
M  V30 6370 H 575.261 -2.35664 3.16 0
M  V30 6371 H 576.549 -3.4036 3.78196 0
M  V30 6372 H 575.947 -5.48668 1.37766 0
M  V30 6373 H 574.504 -6.21716 1.95735 0
M  V30 6374 N 577.937 -1.40673 -0.710563 0
M  V30 6375 C 579.214 -1.29718 -1.46398 0
M  V30 6376 C 579.594 0.082177 -2.1094 0
M  V30 6377 O 578.942 1.09536 -2.00534 0
M  V30 6378 C 579.152 -2.43967 -2.49562 0
M  V30 6379 C 580.5 -2.84436 -3.15248 0
M  V30 6380 O 581.524 -2.43597 -2.59883 0
M  V30 6381 O 580.383 -3.55008 -4.1549 0
M  V30 6382 H 577.477 -0.509697 -0.651258 0
M  V30 6383 H 580.023 -1.52603 -0.742312 0
M  V30 6384 H 578.795 -3.36076 -2.0042 0
M  V30 6385 H 578.418 -2.22879 -3.29258 0
M  V30 6386 N 579.415 0.9433 -1.26252 0
M  V30 6387 C 580.64 1.72898 -1.14547 0
M  V30 6388 C 581.065 1.85761 0.295743 0
M  V30 6389 O 580.423 1.3463 1.21427 0
M  V30 6390 C 580.471 3.11471 -1.8171 0
M  V30 6391 O 579.575 3.97336 -1.10445 0
M  V30 6392 H 578.916 0.530555 -0.399259 0
M  V30 6393 H 581.446 1.18159 -1.67032 0
M  V30 6394 H 581.456 3.61872 -1.88449 0
M  V30 6395 H 580.131 3.01425 -2.86558 0
M  V30 6396 H 578.708 3.55788 -1.11666 0
M  V30 6397 N 580.893 1.08022 1.14757 0
M  V30 6398 C 582.118 0.82895 1.90114 0
M  V30 6399 C 582.543 -0.612772 1.77839 0
M  V30 6400 O 581.901 -1.42895 1.11583 0
M  V30 6401 C 581.949 1.25062 3.38219 0
M  V30 6402 O 581.053 0.400119 4.10454 0
M  V30 6403 H 580.394 0.301412 0.591648 0
M  V30 6404 H 582.924 1.44062 1.45284 0
M  V30 6405 H 582.934 1.22977 3.89025 0
M  V30 6406 H 581.609 2.30067 3.46471 0
M  V30 6407 H 580.186 0.484052 3.69745 0
M  V30 6408 N 582.371 -1.3172 0.865308 0
M  V30 6409 C 583.321 -2.26157 0.289305 0
M  V30 6410 C 584.305 -1.50428 -0.570977 0
M  V30 6411 O 585.497 -1.71978 -0.418617 0
M  V30 6412 C 582.626 -3.39457 -0.512237 0
M  V30 6413 C 581.712 -4.22561 0.361028 0
M  V30 6414 N 582.103 -4.84501 1.45231 0
M  V30 6415 C 580.401 -4.45739 0.152641 0
M  V30 6416 C 581.102 -5.46586 1.99043 0
M  V30 6417 N 580.078 -5.28119 1.28809 0
M  V30 6418 H 583.88 -2.71581 1.12344 0
M  V30 6419 H 581.394 -1.45932 0.712565 0
M  V30 6420 H 583.391 -4.06133 -0.941379 0
M  V30 6421 H 582.051 -2.95577 -1.34404 0
M  V30 6422 H 583.062 -4.84293 1.83524 0
M  V30 6423 H 579.739 -4.1251 -0.643583 0
M  V30 6424 H 581.129 -6.05817 2.90577 0
M  V30 6425 N 583.85 -0.624285 -1.44708 0
M  V30 6426 C 585.077 -0.132919 -2.06473 0
M  V30 6427 C 585.493 1.18967 -1.46602 0
M  V30 6428 O 584.85 1.72824 -0.586341 0
M  V30 6429 C 584.901 -0.00465418 -3.615 0
M  V30 6430 O 584.622 -1.27494 -4.19138 0
M  V30 6431 C 586.123 0.516213 -4.40284 0
M  V30 6432 H 583.343 -0.0765201 -0.666623 0
M  V30 6433 H 585.887 -0.856751 -1.85688 0
M  V30 6434 H 584.042 0.669583 -3.8157 0
M  V30 6435 H 584.456 -1.11536 -5.12504 0
M  V30 6436 H 585.93 0.554994 -5.49203 0
M  V30 6437 H 586.407 1.5419 -4.11245 0
M  V30 6438 H 587.013 -0.124542 -4.25118 0
M  V30 6439 N 585.328 1.53329 -0.364422 0
M  V30 6440 C 586.26 2.23286 0.517293 0
M  V30 6441 C 587.273 1.24657 1.04711 0
M  V30 6442 O 588.462 1.50887 0.95369 0
M  V30 6443 C 585.562 2.91604 1.72685 0
M  V30 6444 C 584.735 4.1673 1.32873 0
M  V30 6445 C 583.794 4.68269 2.40022 0
M  V30 6446 O 582.82 5.31976 2.02461 0
M  V30 6447 N 584.022 4.45983 3.7159 0
M  V30 6448 H 586.787 2.99588 -0.0819391 0
M  V30 6449 H 584.348 1.60787 -0.189544 0
M  V30 6450 H 586.34 3.22992 2.4384 0
M  V30 6451 H 584.91 2.18763 2.23297 0
M  V30 6452 H 584.13 3.91657 0.447069 0
M  V30 6453 H 585.418 4.98078 1.03902 0
M  V30 6454 H 584.816 3.95077 4.04883 0
M  V30 6455 H 583.373 4.81924 4.38854 0
M  V30 6456 N 586.806 0.0935595 1.57322 0
M  V30 6457 C 588.054 -0.569383 1.93913 0
M  V30 6458 C 588.375 -1.68817 0.976009 0
M  V30 6459 O 587.645 -1.9588 0.0278099 0
M  V30 6460 H 586.225 -0.21332 0.715894 0
M  V30 6461 H 588.887 0.156531 1.9427 0
M  V30 6462 H 587.983 -0.980577 2.96296 0
M  V30 6463 N 588.284 -1.56567 -0.180126 0
M  V30 6464 C 589.695 -1.7126 -0.743422 0
M  V30 6465 C 590.046 -0.70263 -1.83187 0
M  V30 6466 O 589.171 0.137856 -2.1596 0
M  V30 6467 C 589.766 -3.10512 -1.35528 0
M  V30 6468 C 588.325 -3.26919 -1.8655 0
M  V30 6469 C 587.472 -2.67213 -0.741099 0
M  V30 6470 H 590.423 -1.58636 0.0451543 0
M  V30 6471 H 590.444 -3.08673 -2.22489 0
M  V30 6472 H 589.956 -3.83997 -0.562862 0
M  V30 6473 H 588.057 -2.58376 -2.68464 0
M  V30 6474 H 588.17 -4.34574 -2.01699 0
M  V30 6475 H 586.534 -2.26788 -1.15927 0
M  V30 6476 H 587.317 -3.43277 0.0393291 0
M  V30 6477 N 589.762 0.448376 -1.51087 0
M  V30 6478 C 591.173 1.0286 -1.5581 0
M  V30 6479 C 591.524 1.92583 -0.374989 0
M  V30 6480 O 590.649 2.10316 0.509533 0
M  V30 6481 C 591.244 1.87223 -2.8237 0
M  V30 6482 C 589.803 2.40314 -2.897 0
M  V30 6483 C 588.95 1.19238 -2.50355 0
M  V30 6484 H 591.901 0.230075 -1.57023 0
M  V30 6485 H 591.922 2.72553 -2.6551 0
M  V30 6486 H 591.434 1.21894 -3.68461 0
M  V30 6487 H 589.535 3.09129 -2.08014 0
M  V30 6488 H 589.648 2.73866 -3.93108 0
M  V30 6489 H 588.012 1.53428 -2.03303 0
M  V30 6490 H 588.795 0.555367 -3.38778 0
M  V30 6491 N 591.24 1.41047 0.703093 0
M  V30 6492 C 592.17 1.45067 1.82969 0
M  V30 6493 C 593.151 0.31016 1.67248 0
M  V30 6494 O 594.336 0.520548 1.87093 0
M  V30 6495 C 591.466 1.32478 3.2104 0
M  V30 6496 C 590.42 2.44262 3.51454 0
M  V30 6497 C 589.746 2.16742 4.88801 0
M  V30 6498 C 591.046 3.86606 3.51189 0
M  V30 6499 H 592.74 2.39353 1.79863 0
M  V30 6500 H 590.286 1.15206 0.863919 0
M  V30 6501 H 592.239 1.33904 3.99559 0
M  V30 6502 H 590.963 0.346735 3.24754 0
M  V30 6503 H 589.622 2.42107 2.75282 0
M  V30 6504 H 589.27 1.17299 4.89132 0
M  V30 6505 H 588.97 2.91643 5.10116 0
M  V30 6506 H 590.494 2.19872 5.69639 0
M  V30 6507 H 591.908 3.90517 4.19725 0
M  V30 6508 H 590.305 4.61128 3.84033 0
M  V30 6509 H 591.375 4.15296 2.50315 0
M  V30 6510 N 592.718 -0.936591 1.26751 0
M  V30 6511 C 593.665 -2.03597 1.08706 0
M  V30 6512 C 594.635 -1.66097 -0.00926542 0
M  V30 6513 O 595.82 -1.90199 0.151377 0
M  V30 6514 C 592.96 -3.3727 0.73094 0
M  V30 6515 C 592.073 -3.87778 1.90399 0
M  V30 6516 C 591.208 -5.09859 1.49056 0
M  V30 6517 C 590.247 -5.5264 2.63164 0
M  V30 6518 N 589.384 -6.65921 2.22471 0
M  V30 6519 H 594.224 -2.18364 2.02784 0
M  V30 6520 H 591.761 -1.06985 1.00958 0
M  V30 6521 H 593.719 -4.14128 0.505328 0
M  V30 6522 H 592.349 -3.22337 -0.172868 0
M  V30 6523 H 591.401 -3.07279 2.2424 0
M  V30 6524 H 592.713 -4.15464 2.76028 0
M  V30 6525 H 591.867 -5.9419 1.22567 0
M  V30 6526 H 590.606 -4.8393 0.60524 0
M  V30 6527 H 589.611 -4.66863 2.90377 0
M  V30 6528 H 590.836 -5.80568 3.52303 0
M  V30 6529 H 588.782 -6.41667 1.36379 0
M  V30 6530 H 588.699 -6.93216 3.01641 0
M  V30 6531 H 589.967 -7.53616 1.99205 0
M  V30 6532 N 594.196 -1.08629 -1.14182 0
M  V30 6533 C 595.143 -0.718299 -2.19338 0
M  V30 6534 C 596.113 0.296587 -1.63431 0
M  V30 6535 O 597.298 0.180079 -1.89948 0
M  V30 6536 C 594.438 -0.136203 -3.44831 0
M  V30 6537 C 593.551 -1.20414 -4.14879 0
M  V30 6538 C 592.686 -0.585666 -5.27962 0
M  V30 6539 C 591.725 -1.63548 -5.89846 0
M  V30 6540 N 590.862 -1.03864 -6.94375 0
M  V30 6541 H 595.702 -1.61932 -2.50164 0
M  V30 6542 H 593.239 -0.80919 -1.22844 0
M  V30 6543 H 595.197 0.219021 -4.16625 0
M  V30 6544 H 593.827 0.728121 -3.14481 0
M  V30 6545 H 592.879 -1.67676 -3.41451 0
M  V30 6546 H 594.191 -1.99959 -4.56966 0
M  V30 6547 H 593.345 -0.178818 -6.06436 0
M  V30 6548 H 592.084 0.24142 -4.87102 0
M  V30 6549 H 591.089 -2.05197 -5.10073 0
M  V30 6550 H 592.314 -2.46509 -6.3278 0
M  V30 6551 H 590.26 -0.232687 -6.55587 0
M  V30 6552 H 590.177 -1.77116 -7.3496 0
M  V30 6553 H 591.445 -0.657724 -7.7672 0
M  V30 6554 N 595.674 1.31259 -0.872281 0
M  V30 6555 C 596.92 1.96913 -0.485083 0
M  V30 6556 C 597.253 1.68774 0.960667 0
M  V30 6557 O 596.528 0.985495 1.67685 0
M  V30 6558 C 596.811 3.52299 -0.745502 0
M  V30 6559 C 596.664 3.90002 -2.24095 0
M  V30 6560 C 597.983 4.39582 -0.213516 0
M  V30 6561 H 595.102 0.715252 -0.177716 0
M  V30 6562 H 597.744 1.55347 -1.09395 0
M  V30 6563 H 595.894 3.87835 -0.227276 0
M  V30 6564 H 597.566 3.64555 -2.82661 0
M  V30 6565 H 595.809 3.38526 -2.71261 0
M  V30 6566 H 596.48 4.98352 -2.37381 0
M  V30 6567 H 598.956 4.10882 -0.656902 0
M  V30 6568 H 597.832 5.47251 -0.42516 0
M  V30 6569 H 598.093 4.33158 0.884666 0
M  V30 6570 N 597.152 0.631951 1.44375 0
M  V30 6571 C 598.568 0.297642 1.568 0
M  V30 6572 C 598.768 -1.19916 1.61934 0
M  V30 6573 O 597.824 -1.98324 1.56281 0
M  V30 6574 C 599.137 0.990286 2.83926 0
M  V30 6575 C 600.685 0.968507 2.97639 0
M  V30 6576 C 601.16 1.64163 4.27568 0
M  V30 6577 N 602.651 1.60826 4.34384 0
M  V30 6578 C 603.386 2.09802 5.33639 0
M  V30 6579 N 602.882 2.66973 6.39294 0
M  V30 6580 N 604.675 2.00426 5.25153 0
M  V30 6581 H 596.826 1.60353 1.39286 0
M  V30 6582 H 599.089 0.673142 0.667521 0
M  V30 6583 H 598.795 2.04519 2.8612 0
M  V30 6584 H 598.669 0.528563 3.73478 0
M  V30 6585 H 601.056 -0.0779247 2.94997 0
M  V30 6586 H 601.137 1.46873 2.09433 0
M  V30 6587 H 600.781 2.68752 4.3097 0
M  V30 6588 H 600.711 1.11624 5.14634 0
M  V30 6589 H 603.202 1.19087 3.58646 0
M  V30 6590 H 603.515 3.02074 7.11316 0
M  V30 6591 H 601.86 2.71024 6.39977 0
M  V30 6592 H 605.051 1.55483 4.41523 0
M  V30 6593 H 605.224 2.38906 6.02352 0
M  V30 6594 N 598.631 -1.53133 0.372548 0
M  V30 6595 C 599.877 -2.01654 -0.215277 0
M  V30 6596 C 600.21 -1.25914 -1.47849 0
M  V30 6597 O 599.485 -0.3548 -1.91237 0
M  V30 6598 C 599.768 -3.56609 -0.500187 0
M  V30 6599 C 599.621 -4.43036 0.777145 0
M  V30 6600 C 600.94 -4.20528 -1.29786 0
M  V30 6601 H 598.059 -0.732991 -0.0767686 0
M  V30 6602 H 600.701 -1.83335 0.498814 0
M  V30 6603 H 598.851 -3.7235 -1.10852 0
M  V30 6604 H 600.523 -4.39079 1.41447 0
M  V30 6605 H 598.766 -4.10723 1.39604 0
M  V30 6606 H 599.437 -5.49424 0.532662 0
M  V30 6607 H 601.913 -4.08663 -0.783198 0
M  V30 6608 H 600.789 -5.28962 -1.46596 0
M  V30 6609 H 601.05 -3.77051 -2.30836 0
M  V30 6610 N 600.109 -0.101901 -1.5727 0
M  V30 6611 C 601.355 0.561027 -1.94885 0
M  V30 6612 C 601.688 1.6741 -0.984258 0
M  V30 6613 O 600.963 1.94491 -0.0184767 0
M  V30 6614 C 601.246 1.10982 -3.42571 0
M  V30 6615 C 601.099 0.00133418 -4.498 0
M  V30 6616 C 602.418 2.00608 -3.9172 0
M  V30 6617 H 599.537 0.202467 -0.708644 0
M  V30 6618 H 602.179 -0.173992 -1.89202 0
M  V30 6619 H 600.329 1.73621 -3.47546 0
M  V30 6620 H 602.001 -0.63322 -4.56933 0
M  V30 6621 H 600.244 -0.664143 -4.28686 0
M  V30 6622 H 600.915 0.426253 -5.50352 0
M  V30 6623 H 603.391 1.47864 -3.88941 0
M  V30 6624 H 602.267 2.3593 -4.95609 0
M  V30 6625 H 602.528 2.92608 -3.3141 0
M  V30 6626 N 601.587 1.56661 0.17182 0
M  V30 6627 C 602.998 1.71652 0.734329 0
M  V30 6628 C 603.349 0.712335 1.82812 0
M  V30 6629 O 602.474 -0.126401 2.16031 0
M  V30 6630 C 603.069 3.11226 1.3388 0
M  V30 6631 C 601.628 3.27904 1.84813 0
M  V30 6632 C 600.775 2.67603 0.726917 0
M  V30 6633 H 603.726 1.5861 -0.0535665 0
M  V30 6634 H 603.747 3.09849 2.20849 0
M  V30 6635 H 603.259 3.8429 0.54249 0
M  V30 6636 H 601.36 2.59796 2.6709 0
M  V30 6637 H 601.473 4.35637 1.99392 0
M  V30 6638 H 599.837 2.274 1.14723 0
M  V30 6639 H 600.62 3.43252 -0.0575334 0
M  V30 6640 N 603.065 -0.440357 1.51323 0
M  V30 6641 C 604.476 -1.02032 1.56353 0
M  V30 6642 C 604.827 -1.92382 0.385197 0
M  V30 6643 O 603.952 -2.10583 -0.498373 0
M  V30 6644 C 604.547 -1.85723 2.83359 0
M  V30 6645 C 603.106 -2.38774 2.90971 0
M  V30 6646 C 602.253 -1.17908 2.50984 0
M  V30 6647 H 605.204 -0.221744 1.57143 0
M  V30 6648 H 605.225 -2.71141 2.66951 0
M  V30 6649 H 604.737 -1.19939 3.69102 0
M  V30 6650 H 602.838 -3.08021 2.09651 0
M  V30 6651 H 602.951 -2.71778 3.94555 0
M  V30 6652 H 601.315 -1.52347 2.04114 0
M  V30 6653 H 602.098 -0.537393 3.39068 0
M  V30 6654 N 604.543 -1.41418 -0.695603 0
M  V30 6655 C 605.771 -1.4413 -1.48439 0
M  V30 6656 C 606.186 -0.0465698 -1.88743 0
M  V30 6657 O 605.543 0.934117 -1.56782 0
M  V30 6658 C 605.594 -2.34998 -2.74696 0
M  V30 6659 O 605.315 -3.69043 -2.36091 0
M  V30 6660 C 606.816 -2.46513 -3.68438 0
M  V30 6661 H 604.036 -0.490905 -0.457442 0
M  V30 6662 H 606.58 -1.85702 -0.856454 0
M  V30 6663 H 604.735 -1.96735 -3.33728 0
M  V30 6664 H 605.149 -4.17505 -3.17474 0
M  V30 6665 H 606.623 -3.1426 -4.53811 0
M  V30 6666 H 607.1 -1.49638 -4.12922 0
M  V30 6667 H 607.706 -2.85412 -3.1531 0
M  V30 6668 N 606.021 0.929856 -1.27246 0
M  V30 6669 C 607.249 1.71144 -1.16265 0
M  V30 6670 C 607.664 1.867 0.280786 0
M  V30 6671 O 607.021 1.38249 1.19136 0
M  V30 6672 C 607.072 3.11222 -1.83911 0
M  V30 6673 O 606.793 2.96398 -3.22614 0
M  V30 6674 C 608.294 4.05541 -1.79028 0
M  V30 6675 H 605.514 0.535499 -0.404328 0
M  V30 6676 H 608.058 1.16492 -1.68077 0
M  V30 6677 H 606.213 3.6274 -1.36009 0
M  V30 6678 H 606.627 3.8494 -3.56261 0
M  V30 6679 H 608.101 5.01351 -2.30978 0
M  V30 6680 H 608.578 4.32589 -0.759168 0
M  V30 6681 H 609.184 3.59947 -2.26535 0
M  V30 6682 N 607.499 1.09233 1.13605 0
M  V30 6683 C 608.727 0.848908 1.88683 0
M  V30 6684 C 609.142 -0.599667 1.79024 0
M  V30 6685 O 608.499 -1.41265 1.15544 0
M  V30 6686 C 608.55 1.27273 3.38355 0
M  V30 6687 O 608.271 2.66449 3.47759 0
M  V30 6688 C 609.772 1.0614 4.30406 0
M  V30 6689 H 606.992 0.305549 0.597395 0
M  V30 6690 H 609.536 1.4538 1.43823 0
M  V30 6691 H 607.691 0.711776 3.80805 0
M  V30 6692 H 608.105 2.84264 4.40788 0
M  V30 6693 H 609.579 1.40725 5.33761 0
M  V30 6694 H 610.056 -0.000960332 4.392 0
M  V30 6695 H 610.662 1.60821 3.93722 0
M  V30 6696 N 608.977 -1.30795 0.87923 0
M  V30 6697 C 610.202 -2.01063 0.508769 0
M  V30 6698 C 610.627 -1.65508 -0.893803 0
M  V30 6699 O 609.985 -0.868616 -1.59138 0
M  V30 6700 C 610.033 -3.54054 0.683991 0
M  V30 6701 O 609.137 -4.11498 -0.272654 0
M  V30 6702 H 608.478 -0.632786 0.201191 0
M  V30 6703 H 611.008 -1.66776 1.18519 0
M  V30 6704 H 611.018 -4.03845 0.580798 0
M  V30 6705 H 609.693 -3.79271 1.70665 0
M  V30 6706 H 608.27 -3.72695 -0.12364 0
M  V30 6707 N 610.455 -0.639598 -1.44038 0
M  V30 6708 C 611.703 -0.147188 -2.01563 0
M  V30 6709 C 612.024 1.2384 -1.50628 0
M  V30 6710 O 611.294 1.82452 -0.713316 0
M  V30 6711 H 609.874 -0.0514231 -0.745228 0
M  V30 6712 H 612.536 -0.828205 -1.76428 0
M  V30 6713 H 611.632 -0.121358 -3.11864 0
M  V30 6714 N 611.933 1.52934 -0.380664 0
M  V30 6715 C 613.181 2.01069 0.203874 0
M  V30 6716 C 613.502 1.26922 1.4804 0
M  V30 6717 O 612.772 0.386787 1.92044 0
M  V30 6718 H 611.352 0.742882 0.0783279 0
M  V30 6719 H 614.014 1.88099 -0.510368 0
M  V30 6720 H 613.11 3.09258 0.42021 0
M  V30 6721 N 613.412 0.11024 1.57214 0
M  V30 6722 C 614.342 -0.840002 2.17867 0
M  V30 6723 C 615.323 -1.28352 1.11624 0
M  V30 6724 O 616.508 -1.3477 1.39824 0
M  V30 6725 C 613.638 -2.09349 2.77111 0
M  V30 6726 C 612.592 -1.78807 3.8886 0
M  V30 6727 C 611.918 -3.11112 4.34872 0
M  V30 6728 C 613.218 -1.0632 5.11364 0
M  V30 6729 H 614.912 -0.334608 2.97524 0
M  V30 6730 H 612.458 -0.159502 1.43114 0
M  V30 6731 H 614.411 -2.76275 3.18198 0
M  V30 6732 H 613.135 -2.62198 1.9473 0
M  V30 6733 H 611.794 -1.14273 3.48335 0
M  V30 6734 H 611.442 -3.61877 3.49362 0
M  V30 6735 H 611.142 -2.91453 5.10224 0
M  V30 6736 H 612.666 -3.79171 4.78604 0
M  V30 6737 H 614.08 -1.63383 5.49526 0
M  V30 6738 H 612.477 -0.967876 5.92243 0
M  V30 6739 H 613.547 -0.0484569 4.84876 0
M  V30 6740 N 614.89 -1.56749 -0.16351 0
M  V30 6741 C 616.139 -1.81626 -0.877211 0
M  V30 6742 C 616.452 -0.688791 -1.83071 0
M  V30 6743 O 617.658 -0.822697 -2.58735 0
M  V30 6744 C 616.114 -3.21858 -1.61045 0
M  V30 6745 C 615.722 -4.42494 -0.700195 0
M  V30 6746 C 617.466 -3.56021 -2.31192 0
M  V30 6747 C 615.373 -5.73748 -1.43412 0
M  V30 6748 H 614.303 -0.67731 -0.331312 0
M  V30 6749 H 616.954 -1.83039 -0.13006 0
M  V30 6750 H 615.336 -3.14784 -2.40264 0
M  V30 6751 H 616.51 -4.60766 0.0555849 0
M  V30 6752 H 614.825 -4.1626 -0.10799 0
M  V30 6753 H 617.422 -4.51333 -2.8671 0
M  V30 6754 H 617.765 -2.81277 -3.06902 0
M  V30 6755 H 618.298 -3.64682 -1.58909 0
M  V30 6756 H 615.037 -6.51543 -0.719186 0
M  V30 6757 H 614.557 -5.5944 -2.16302 0
M  V30 6758 H 616.236 -6.15975 -1.9795 0
M  V30 6759 N 616.368 0.432326 -1.51554 0
M  V30 6760 C 617.301 1.54525 -1.6792 0
M  V30 6761 C 618.279 1.53831 -0.526764 0
M  V30 6762 O 619.463 1.72884 -0.751233 0
M  V30 6763 C 616.59 2.931 -1.69736 0
M  V30 6764 C 615.636 3.11799 -2.91005 0
M  V30 6765 S 616.469 2.87565 -4.51737 0
M  V30 6766 C 617.625 4.28412 -4.56305 0
M  V30 6767 H 617.858 1.4041 -2.62054 0
M  V30 6768 H 615.391 0.622357 -1.41301 0
M  V30 6769 H 617.349 3.72974 -1.71467 0
M  V30 6770 H 616.01 3.04574 -0.767705 0
M  V30 6771 H 615.203 4.13127 -2.8869 0
M  V30 6772 H 614.805 2.39757 -2.87041 0
M  V30 6773 H 617.097 5.21692 -4.32254 0
M  V30 6774 H 618.04 4.35758 -5.58141 0
M  V30 6775 H 618.448 4.12301 -3.85576 0
M  V30 6776 N 617.846 1.41785 0.688094 0
M  V30 6777 C 619.074 1.44915 1.47673 0
M  V30 6778 C 619.489 0.0565786 1.88715 0
M  V30 6779 O 618.846 -0.92579 1.57275 0
M  V30 6780 C 618.897 2.36452 2.73446 0
M  V30 6781 O 618.618 3.7029 2.34131 0
M  V30 6782 C 620.119 2.48463 3.67125 0
M  V30 6783 H 617.339 0.493324 0.454832 0
M  V30 6784 H 619.883 1.86153 0.846594 0
M  V30 6785 H 618.038 1.98502 3.3268 0
M  V30 6786 H 618.452 4.19183 3.15255 0
M  V30 6787 H 619.926 3.16662 4.52138 0
M  V30 6788 H 620.403 1.51826 4.12123 0
M  V30 6789 H 621.009 2.8708 3.13792 0
M  V30 6790 N 619.324 -0.923095 1.27737 0
M  V30 6791 C 620.549 -1.71054 1.17283 0
M  V30 6792 C 620.974 -1.86208 -0.266153 0
M  V30 6793 O 620.332 -1.36545 -1.1927 0
M  V30 6794 C 620.38 -3.0854 1.86642 0
M  V30 6795 O 619.484 -3.95528 1.16752 0
M  V30 6796 H 618.825 -0.524136 0.407649 0
M  V30 6797 H 621.355 -1.15487 1.6889 0
M  V30 6798 H 621.365 -3.58828 1.94182 0
M  V30 6799 H 620.04 -2.96828 2.91317 0
M  V30 6800 H 618.617 -3.53967 1.17312 0
M  V30 6801 N 620.802 -1.09834 -1.13024 0
M  V30 6802 C 622.079 -0.749225 -1.80682 0
M  V30 6803 C 622.459 0.765171 -1.96744 0
M  V30 6804 O 621.807 1.68912 -1.53886 0
M  V30 6805 C 622.017 -1.49311 -3.15448 0
M  V30 6806 C 623.365 -1.66162 -3.90737 0
M  V30 6807 O 624.389 -1.45597 -3.25085 0
M  V30 6808 O 623.248 -2.00211 -5.08505 0
M  V30 6809 H 620.342 -0.269614 -0.781817 0
M  V30 6810 H 622.888 -1.20078 -1.19914 0
M  V30 6811 H 621.66 -2.52407 -2.99009 0
M  V30 6812 H 621.283 -1.034 -3.8392 0
M  V30 6813 N 622.28 1.30327 -0.886154 0
M  V30 6814 C 623.51 1.99964 -0.519421 0
M  V30 6815 C 623.918 1.66593 0.89686 0
M  V30 6816 O 623.261 0.899886 1.60149 0
M  V30 6817 C 623.323 3.54187 -0.615795 0
M  V30 6818 C 622.987 4.11078 -1.9966 0
M  V30 6819 C 623.984 4.26985 -2.96614 0
M  V30 6820 C 621.669 4.46429 -2.30231 0
M  V30 6821 C 623.663 4.77456 -4.22273 0
M  V30 6822 C 621.35 4.966 -3.56135 0
M  V30 6823 C 622.348 5.12066 -4.5197 0
M  V30 6824 O 622.036 5.61154 -5.7564 0
M  V30 6825 H 621.768 0.645979 -0.199217 0
M  V30 6826 H 624.322 1.67154 -1.19368 0
M  V30 6827 H 622.552 3.86528 0.115448 0
M  V30 6828 H 624.241 4.05065 -0.26017 0
M  V30 6829 H 625.007 3.99975 -2.74308 0
M  V30 6830 H 620.886 4.33658 -1.56404 0
M  V30 6831 H 624.43 4.89444 -4.97082 0
M  V30 6832 H 620.327 5.23045 -3.78277 0
M  V30 6833 H 621.095 5.79494 -5.78039 0
M  V30 6834 N 623.758 0.647228 1.43697 0
M  V30 6835 C 624.69 -0.0866232 2.29036 0
M  V30 6836 C 625.703 -0.793051 1.42178 0
M  V30 6837 O 626.892 -0.651807 1.66174 0
M  V30 6838 C 623.992 -1.14552 3.18953 0
M  V30 6839 C 623.165 -0.518422 4.34317 0
M  V30 6840 C 622.224 -1.4734 5.05151 0
M  V30 6841 O 621.25 -0.984312 5.60625 0
M  V30 6842 N 622.452 -2.8075 5.08094 0
M  V30 6843 H 625.217 0.645834 2.92659 0
M  V30 6844 H 622.778 0.489567 1.54321 0
M  V30 6845 H 624.77 -1.78505 3.63205 0
M  V30 6846 H 623.34 -1.78001 2.56971 0
M  V30 6847 H 622.56 0.300079 3.93056 0
M  V30 6848 H 623.848 -0.080401 5.08736 0
M  V30 6849 H 623.246 -3.23052 4.64386 0
M  V30 6850 H 621.803 -3.40022 5.56083 0
M  V30 6851 N 625.236 -1.5273 0.388769 0
M  V30 6852 C 626.652 -1.59553 0.0387049 0
M  V30 6853 C 626.852 -1.40278 -1.44652 0
M  V30 6854 O 625.908 -1.21951 -2.21098 0
M  V30 6855 C 627.221 -2.9625 0.515409 0
M  V30 6856 C 628.769 -3.09426 0.471621 0
M  V30 6857 C 629.244 -4.48572 0.924505 0
M  V30 6858 N 630.735 -4.54754 0.880496 0
M  V30 6859 C 631.47 -5.60653 1.20234 0
M  V30 6860 N 630.966 -6.74198 1.59463 0
M  V30 6861 N 632.759 -5.50755 1.12363 0
M  V30 6862 H 624.91 -1.63508 1.35569 0
M  V30 6863 H 627.173 -0.768097 0.555636 0
M  V30 6864 H 626.879 -3.15569 1.5527 0
M  V30 6865 H 626.753 -3.77102 -0.085792 0
M  V30 6866 H 629.14 -2.89804 -0.556588 0
M  V30 6867 H 629.221 -2.30528 1.10862 0
M  V30 6868 H 628.865 -4.68936 1.95094 0
M  V30 6869 H 628.795 -5.25935 0.264524 0
M  V30 6870 H 631.286 -3.73237 0.591815 0
M  V30 6871 H 631.599 -7.5097 1.82385 0
M  V30 6872 H 629.944 -6.75531 1.63349 0
M  V30 6873 H 633.135 -4.6093 0.816169 0
M  V30 6874 H 633.308 -6.33184 1.37777 0
M  V30 6875 N 626.714 -0.118576 -1.57153 0
M  V30 6876 C 627.939 0.550582 -1.99958 0
M  V30 6877 C 628.364 1.59458 -0.997736 0
M  V30 6878 O 627.722 1.81274 0.0306269 0
M  V30 6879 C 627.77 1.15379 -3.41643 0
M  V30 6880 O 626.874 2.26932 -3.44348 0
M  V30 6881 H 626.215 0.137567 -0.649593 0
M  V30 6882 H 628.745 -0.206926 -2.03551 0
M  V30 6883 H 628.755 1.48942 -3.79843 0
M  V30 6884 H 627.43 0.389087 -4.14076 0
M  V30 6885 H 626.007 1.94812 -3.17967 0
M  V30 6886 N 628.193 1.56834 0.155195 0
M  V30 6887 C 629.141 1.98584 1.21107 0
M  V30 6888 C 630.135 0.876987 1.44932 0
M  V30 6889 O 631.341 1.06215 1.45322 0
M  V30 6890 H 627.716 0.632039 0.407469 0
M  V30 6891 H 629.687 2.86561 0.832195 0
M  V30 6892 C 628.436 2.37555 2.53895 0
M  V30 6893 H 627.759 3.22428 2.3639 0
M  V30 6894 H 629.199 2.70598 3.26424 0
M  V30 6895 C 627.658 1.22507 3.13837 0
M  V30 6896 O 628.188 0.521388 3.98302 0
M  V30 6897 N 626.394 0.991444 2.73164 0
M  V30 6898 H 625.941 1.56544 2.04577 0
M  V30 6899 H 625.899 0.223546 3.13604 0
M  V30 6900 N 629.671 -0.424282 1.51781 0
M  V30 6901 C 631.082 -1.00368 1.57427 0
M  V30 6902 C 631.433 -1.91962 0.40558 0
M  V30 6903 O 630.558 -2.111 -0.47601 0
M  V30 6904 C 631.153 -1.82707 2.85313 0
M  V30 6905 C 629.712 -2.35675 2.93487 0
M  V30 6906 C 628.859 -1.1524 2.5222 0
M  V30 6907 H 631.81 -0.205064 1.5737 0
M  V30 6908 H 631.831 -2.68294 2.69812 0
M  V30 6909 H 631.343 -1.16017 3.70353 0
M  V30 6910 H 629.444 -3.05781 2.12906 0
M  V30 6911 H 629.557 -2.67578 3.97415 0
M  V30 6912 H 627.921 -1.50174 2.05718 0
M  V30 6913 H 628.704 -0.5014 3.39619 0
M  V30 6914 N 631.149 -1.42148 -0.680565 0
M  V30 6915 C 632.099 -1.41634 -1.78672 0
M  V30 6916 C 633.083 -0.288494 -1.58293 0
M  V30 6917 O 634.275 -0.530295 -1.68869 0
M  V30 6918 C 631.404 -1.31558 -3.17092 0
M  V30 6919 C 630.49 -2.49265 -3.43115 0
M  V30 6920 N 630.881 -3.74702 -3.39753 0
M  V30 6921 C 629.179 -2.43401 -3.73727 0
M  V30 6922 C 629.88 -4.52854 -3.651 0
M  V30 6923 N 628.856 -3.83181 -3.85582 0
M  V30 6924 H 632.658 -2.3652 -1.74458 0
M  V30 6925 H 630.172 -1.36415 -0.881171 0
M  V30 6926 H 632.169 -1.29272 -3.96351 0
M  V30 6927 H 630.829 -0.376696 -3.22508 0
M  V30 6928 H 631.84 -4.07378 -3.19787 0
M  V30 6929 H 628.517 -1.58062 -3.86423 0
M  V30 6930 H 629.907 -5.61827 -3.6851 0
M  V30 6931 N 632.627 0.916307 -1.28225 0
M  V30 6932 C 633.59 1.99996 -1.11957 0
M  V30 6933 C 634.59 1.60688 -0.0600152 0
M  V30 6934 O 635.78 1.71499 -0.30558 0
M  V30 6935 C 632.912 3.33458 -0.708411 0
M  V30 6936 H 634.105 2.15858 -2.08196 0
M  V30 6937 H 631.658 1.09863 -1.11175 0
M  V30 6938 H 632.393 3.23297 0.254859 0
M  V30 6939 H 632.178 3.63349 -1.47377 0
M  V30 6940 H 633.668 4.13014 -0.617164 0
M  V30 6941 N 634.105 1.10431 1.1244 0
M  V30 6942 C 635.068 0.756542 2.16354 0
M  V30 6943 C 636.068 -0.21899 1.59302 0
M  V30 6944 O 637.258 0.00415969 1.742 0
M  V30 6945 C 634.39 0.120612 3.40687 0
M  V30 6946 H 635.583 1.67696 2.48632 0
M  V30 6947 H 633.136 0.904832 1.27446 0
M  V30 6948 H 633.871 -0.810536 3.14008 0
M  V30 6949 H 633.656 0.822693 3.83372 0
M  V30 6950 H 635.146 -0.106945 4.17463 0
M  V30 6951 N 635.583 -1.29855 0.893053 0
M  V30 6952 C 636.813 -1.99686 0.530019 0
M  V30 6953 C 637.221 -1.67066 -0.888012 0
M  V30 6954 O 636.564 -0.908366 -1.5967 0
M  V30 6955 C 636.626 -3.53855 0.63457 0
M  V30 6956 C 636.29 -4.10013 2.01837 0
M  V30 6957 C 637.287 -4.25406 2.98874 0
M  V30 6958 C 634.972 -4.45202 2.32595 0
M  V30 6959 C 636.966 -4.7521 4.24799 0
M  V30 6960 C 634.653 -4.94704 3.58763 0
M  V30 6961 C 635.651 -5.09662 4.5468 0
M  V30 6962 O 635.339 -5.58093 5.78608 0
M  V30 6963 H 635.071 -0.644913 0.20264 0
M  V30 6964 H 637.625 -1.66518 1.20253 0
M  V30 6965 H 635.855 -3.86583 -0.0949477 0
M  V30 6966 H 637.544 -4.04922 0.281648 0
M  V30 6967 H 638.31 -3.98515 2.76425 0
M  V30 6968 H 634.189 -4.32822 1.58701 0
M  V30 6969 H 637.733 -4.86801 4.99671 0
M  V30 6970 H 633.63 -5.21032 3.81046 0
M  V30 6971 H 634.398 -5.7642 5.81104 0
M  V30 6972 N 637.061 -0.65484 -1.43351 0
M  V30 6973 C 638.472 -0.248506 -1.85039 0
M  V30 6974 C 638.823 1.20526 -1.54816 0
M  V30 6975 O 637.948 1.92016 -0.99794 0
M  V30 6976 C 638.543 -0.444241 -3.35875 0
M  V30 6977 C 637.102 -0.0922108 -3.76287 0
M  V30 6978 C 636.249 -0.746327 -2.67068 0
M  V30 6979 H 639.2 -0.8584 -1.33481 0
M  V30 6980 H 639.221 0.309762 -3.79237 0
M  V30 6981 H 638.733 -1.50239 -3.5784 0
M  V30 6982 H 636.834 0.96328 -3.59933 0
M  V30 6983 H 636.947 -0.518807 -4.76283 0
M  V30 6984 H 635.311 -0.179416 -2.54067 0
M  V30 6985 H 636.094 -1.80754 -2.91861 0
M  V30 6986 N 638.539 1.52521 -0.396863 0
M  V30 6987 C 639.487 2.28217 0.44943 0
M  V30 6988 C 640.481 1.32416 1.05652 0
M  V30 6989 O 641.687 1.49925 0.996124 0
M  V30 6990 H 638.062 0.733966 0.1637 0
M  V30 6991 H 640.033 2.97658 -0.210367 0
M  V30 6992 C 638.782 3.10713 1.56054 0
M  V30 6993 H 638.105 3.84291 1.10273 0
M  V30 6994 H 639.545 3.66803 2.12677 0
M  V30 6995 C 638.004 2.23499 2.52091 0
M  V30 6996 O 638.534 1.8669 3.55682 0
M  V30 6997 N 636.74 1.8751 2.2201 0
M  V30 6998 H 636.287 2.17643 1.37802 0
M  V30 6999 H 636.245 1.29448 2.86514 0
M  V30 7000 N 640.017 0.126909 1.57088 0
M  V30 7001 C 641.428 -0.397201 1.82426 0
M  V30 7002 C 641.779 -1.66084 1.04453 0
M  V30 7003 O 640.904 -2.14534 0.283552 0
M  V30 7004 C 641.499 -0.727411 3.30899 0
M  V30 7005 C 640.058 -1.19612 3.56889 0
M  V30 7006 C 639.205 -0.20885 2.76512 0
M  V30 7007 H 642.156 0.351924 1.54749 0
M  V30 7008 H 642.177 -1.58407 3.45959 0
M  V30 7009 H 641.689 0.19247 3.87622 0
M  V30 7010 H 639.79 -2.13263 3.05532 0
M  V30 7011 H 639.903 -1.13598 4.65438 0
M  V30 7012 H 638.267 -0.697479 2.44964 0
M  V30 7013 H 639.05 0.704267 3.35998 0
M  V30 7014 N 641.495 -1.56914 -0.146875 0
M  V30 7015 C 642.743 -1.82994 -0.85777 0
M  V30 7016 C 643.064 -0.707814 -1.817 0
M  V30 7017 O 642.334 0.270521 -1.94023 0
M  V30 7018 H 640.914 -0.675106 -0.319751 0
M  V30 7019 H 643.576 -1.9439 -0.140849 0
M  V30 7020 H 642.672 -2.77928 -1.41994 0
M  V30 7021 N 642.974 0.416227 -1.52004 0
M  V30 7022 C 644.385 0.995319 -1.57957 0
M  V30 7023 C 644.736 1.91744 -0.415754 0
M  V30 7024 O 643.861 2.11349 0.464808 0
M  V30 7025 C 644.456 1.81191 -2.86278 0
M  V30 7026 C 643.015 2.34115 -2.94732 0
M  V30 7027 C 642.162 1.139 -2.52828 0
M  V30 7028 H 645.113 0.196716 -1.57476 0
M  V30 7029 H 645.134 2.66859 -2.71231 0
M  V30 7030 H 644.646 1.14051 -3.70963 0
M  V30 7031 H 642.747 3.04647 -2.14525 0
M  V30 7032 H 642.86 2.65466 -3.98829 0
M  V30 7033 H 641.224 1.49081 -2.06511 0
M  V30 7034 H 642.007 0.483383 -3.3988 0
M  V30 7035 N 644.452 1.42507 0.673017 0
M  V30 7036 C 645.677 1.4668 1.46627 0
M  V30 7037 C 646.102 0.080066 1.8793 0
M  V30 7038 O 645.46 -0.921879 1.56112 0
M  V30 7039 C 645.508 2.40091 2.69051 0
M  V30 7040 O 644.612 1.8735 3.67387 0
M  V30 7041 H 643.953 0.496908 0.44043 0
M  V30 7042 H 646.483 1.87215 0.825334 0
M  V30 7043 H 646.493 2.56731 3.17101 0
M  V30 7044 H 645.168 3.4084 2.3833 0
M  V30 7045 H 643.745 1.80274 3.26429 0
M  V30 7046 N 645.93 -0.909495 1.28709 0
M  V30 7047 C 647.158 -1.69272 1.18973 0
M  V30 7048 C 647.573 -1.87123 -0.251048 0
M  V30 7049 O 646.93 -1.40127 -1.16922 0
M  V30 7050 C 646.981 -3.08257 1.88839 0
M  V30 7051 O 646.702 -2.91228 3.27289 0
M  V30 7052 C 648.203 -4.02642 1.85457 0
M  V30 7053 H 645.423 -0.528999 0.412797 0
M  V30 7054 H 647.967 -1.13803 1.69909 0
M  V30 7055 H 646.122 -3.6053 1.41762 0
M  V30 7056 H 646.536 -3.79223 3.6234 0
M  V30 7057 H 648.01 -4.97613 2.38925 0
M  V30 7058 H 648.487 -4.31327 0.827893 0
M  V30 7059 H 649.093 -3.56298 2.32233 0
M  V30 7060 N 647.408 -1.11026 -1.11852 0
M  V30 7061 C 648.633 -0.879064 -1.87849 0
M  V30 7062 C 649.058 0.565406 -1.79401 0
M  V30 7063 O 648.416 1.39886 -1.15333 0
M  V30 7064 C 648.464 -1.33985 -3.34784 0
M  V30 7065 O 647.568 -0.508803 -4.09249 0
M  V30 7066 H 646.909 -0.316992 -0.583448 0
M  V30 7067 H 649.439 -1.47863 -1.41413 0
M  V30 7068 H 649.449 -1.33248 -3.85628 0
M  V30 7069 H 648.124 -2.39172 -3.40249 0
M  V30 7070 H 646.701 -0.581913 -3.68332 0
M  V30 7071 N 648.886 1.2938 -0.899927 0
M  V30 7072 C 649.818 2.26737 -0.335139 0
M  V30 7073 C 650.831 1.54316 0.518681 0
M  V30 7074 O 652.02 1.75313 0.335803 0
M  V30 7075 C 649.12 3.34558 0.540774 0
M  V30 7076 C 648.293 4.36455 -0.287372 0
M  V30 7077 C 647.352 5.2361 0.52141 0
M  V30 7078 O 646.378 5.69167 -0.0611735 0
M  V30 7079 N 647.58 5.50985 1.82745 0
M  V30 7080 H 650.345 2.75838 -1.17191 0
M  V30 7081 H 647.906 1.42716 -0.764438 0
M  V30 7082 H 649.898 3.89794 1.08825 0
M  V30 7083 H 648.468 2.85272 1.27823 0
M  V30 7084 H 647.688 3.80875 -1.01626 0
M  V30 7085 H 648.976 5.01573 -0.854518 0
M  V30 7086 H 648.374 5.15781 2.32349 0
M  V30 7087 H 646.931 6.09036 2.32204 0
M  V30 7088 N 650.364 0.662433 1.43002 0
M  V30 7089 C 651.775 0.258315 1.84904 0
M  V30 7090 C 652.126 -1.19703 1.55453 0
M  V30 7091 O 651.251 -1.91484 1.00811 0
M  V30 7092 C 651.846 0.462047 3.35635 0
M  V30 7093 C 650.405 0.112165 3.76233 0
M  V30 7094 C 649.552 0.760479 2.66668 0
M  V30 7095 H 652.503 0.865467 1.33024 0
M  V30 7096 H 652.524 -0.289646 3.79396 0
M  V30 7097 H 652.036 1.52135 3.57039 0
M  V30 7098 H 650.137 -0.944179 3.60439 0
M  V30 7099 H 650.25 0.544058 4.76001 0
M  V30 7100 H 648.614 0.192887 2.53969 0
M  V30 7101 H 649.397 1.82299 2.90898 0
M  V30 7102 N 651.842 -1.52309 0.404946 0
M  V30 7103 C 652.774 -2.24579 -0.45791 0
M  V30 7104 C 653.787 -1.2739 -1.01369 0
M  V30 7105 O 654.976 -1.53363 -0.91335 0
M  V30 7106 C 652.076 -2.9608 -1.64893 0
M  V30 7107 C 651.249 -4.20106 -1.21777 0
M  V30 7108 C 650.308 -4.74468 -2.27523 0
M  V30 7109 O 649.334 -5.37157 -1.88285 0
M  V30 7110 N 650.536 -4.55678 -3.59635 0
M  V30 7111 H 653.301 -2.99265 0.161341 0
M  V30 7112 H 650.862 -1.60228 0.232107 0
M  V30 7113 H 652.854 -3.29344 -2.35191 0
M  V30 7114 H 651.424 -2.24606 -2.17419 0
M  V30 7115 H 650.644 -3.92704 -0.343071 0
M  V30 7116 H 651.932 -5.00658 -0.906596 0
M  V30 7117 H 651.33 -4.05673 -3.94266 0
M  V30 7118 H 649.887 -4.9339 -4.25922 0
M  V30 7119 N 653.32 -0.135238 -1.57019 0
M  V30 7120 C 654.545 0.529343 -2.00531 0
M  V30 7121 C 654.97 1.58391 -1.01459 0
M  V30 7122 O 654.328 1.81296 0.0113986 0
M  V30 7123 C 654.376 1.11748 -3.42848 0
M  V30 7124 O 653.48 2.23267 -3.46736 0
M  V30 7125 H 652.821 0.130669 -0.651016 0
M  V30 7126 H 655.351 -0.228503 -2.0332 0
M  V30 7127 H 655.361 1.44905 -3.81401 0
M  V30 7128 H 654.036 0.345147 -4.14465 0
M  V30 7129 H 652.613 1.91428 -3.20015 0
M  V30 7130 N 654.798 1.5699 0.138552 0
M  V30 7131 C 656.023 1.88344 0.86841 0
M  V30 7132 C 656.448 0.725159 1.7356 0
M  V30 7133 O 655.806 -0.324992 1.78363 0
M  V30 7134 C 655.854 3.18334 1.69398 0
M  V30 7135 O 654.958 3.02863 2.79907 0
M  V30 7136 H 654.299 0.618577 0.241367 0
M  V30 7137 H 656.829 2.04207 0.126826 0
M  V30 7138 H 656.839 3.50567 2.08726 0
M  V30 7139 H 655.514 4.02238 1.05725 0
M  V30 7140 H 654.091 2.82056 2.43924 0
M  V30 7141 N 656.276 -0.40816 1.52223 0
M  V30 7142 C 657.209 -1.51834 1.70357 0
M  V30 7143 C 658.187 -1.52973 0.551171 0
M  V30 7144 O 659.371 -1.71667 0.778642 0
M  V30 7145 C 656.498 -2.90362 1.74378 0
M  V30 7146 C 655.544 -3.0713 2.95928 0
M  V30 7147 S 656.377 -2.80342 4.56255 0
M  V30 7148 C 657.533 -4.21098 4.63063 0
M  V30 7149 H 657.766 -1.36223 2.64255 0
M  V30 7150 H 655.299 -0.599798 1.42274 0
M  V30 7151 H 657.257 -3.70199 1.77379 0
M  V30 7152 H 655.918 -3.03314 0.816063 0
M  V30 7153 H 655.111 -4.08482 2.95226 0
M  V30 7154 H 654.713 -2.3516 2.90819 0
M  V30 7155 H 657.005 -5.14749 4.40499 0
M  V30 7156 H 657.948 -4.26823 5.65002 0
M  V30 7157 H 658.356 -4.06114 3.92086 0
M  V30 7158 N 657.755 -1.42862 -0.66545 0
M  V30 7159 C 659.003 -1.43546 -1.42264 0
M  V30 7160 C 659.324 -0.0563116 -1.94919 0
M  V30 7161 O 658.594 0.906568 -1.73661 0
M  V30 7162 H 657.174 -0.528464 -0.527953 0
M  V30 7163 H 659.836 -1.78363 -0.785665 0
M  V30 7164 H 658.932 -2.14079 -2.27105 0
M  V30 7165 N 659.233 0.902656 -1.29189 0
M  V30 7166 C 660.463 1.68394 -1.19695 0
M  V30 7167 C 660.871 1.87602 0.245384 0
M  V30 7168 O 660.214 1.41084 1.17648 0
M  V30 7169 C 660.276 3.09094 -1.83578 0
M  V30 7170 C 659.94 3.1313 -3.32864 0
M  V30 7171 C 660.937 2.93497 -4.29134 0
M  V30 7172 C 658.622 3.3529 -3.74013 0
M  V30 7173 C 660.616 2.95953 -5.64527 0
M  V30 7174 C 658.303 3.37377 -5.09529 0
M  V30 7175 C 659.301 3.1773 -6.04596 0
M  V30 7176 O 658.989 3.196 -7.37639 0
M  V30 7177 H 658.721 0.532815 -0.416034 0
M  V30 7178 H 661.275 1.1374 -1.71033 0
M  V30 7179 H 659.505 3.65338 -1.26747 0
M  V30 7180 H 661.194 3.69297 -1.68447 0
M  V30 7181 H 661.96 2.76192 -3.98677 0
M  V30 7182 H 657.839 3.49623 -3.00474 0
M  V30 7183 H 661.383 2.80536 -6.38706 0
M  V30 7184 H 657.28 3.54213 -5.39633 0
M  V30 7185 H 658.048 3.35887 -7.46406 0
M  V30 7186 N 660.711 1.11618 1.11262 0
M  V30 7187 C 661.936 0.889013 1.8738 0
M  V30 7188 C 662.361 -0.555884 1.79698 0
M  V30 7189 O 661.719 -1.39272 1.16073 0
M  V30 7190 C 661.767 1.35759 3.34069 0
M  V30 7191 O 660.871 0.530499 4.08974 0
M  V30 7192 H 660.212 0.320082 0.581759 0
M  V30 7193 H 662.742 1.48611 1.40627 0
M  V30 7194 H 662.752 1.35291 3.84916 0
M  V30 7195 H 661.427 2.40973 3.38976 0
M  V30 7196 H 660.004 0.601439 3.68018 0
M  V30 7197 N 662.189 -1.289 0.906776 0
M  V30 7198 C 663.152 -2.25777 0.394656 0
M  V30 7199 C 664.152 -1.53621 -0.475119 0
M  V30 7200 O 665.342 -1.71949 -0.279165 0
M  V30 7201 C 662.474 -3.38113 -0.43499 0
M  V30 7202 H 663.667 -2.72592 1.25033 0
M  V30 7203 H 661.22 -1.40463 0.685547 0
M  V30 7204 H 661.955 -2.96648 -1.31036 0
M  V30 7205 H 661.74 -3.91647 0.188334 0
M  V30 7206 H 663.23 -4.10168 -0.784365 0
M  V30 7207 N 663.667 -0.670007 -1.42649 0
M  V30 7208 C 664.895 -0.19854 -2.05945 0
M  V30 7209 C 665.31 1.14243 -1.50313 0
M  V30 7210 O 664.667 1.70872 -0.641027 0
M  V30 7211 C 664.718 -0.11966 -3.61302 0
M  V30 7212 O 664.439 -1.40764 -4.1487 0
M  V30 7213 C 665.94 0.375878 -4.41704 0
M  V30 7214 H 663.16 -0.0976894 -0.663851 0
M  V30 7215 H 665.704 -0.915392 -1.82868 0
M  V30 7216 H 663.859 0.547851 -3.83507 0
M  V30 7217 H 664.273 -1.27784 -5.08696 0
M  V30 7218 H 665.747 0.379988 -5.50691 0
M  V30 7219 H 666.224 1.41028 -4.15942 0
M  V30 7220 H 666.83 -0.259727 -4.24506 0
M  V30 7221 N 665.145 1.52092 -0.413018 0
M  V30 7222 C 666.37 2.06756 0.163338 0
M  V30 7223 C 666.795 1.28073 1.37764 0
M  V30 7224 O 666.153 0.312015 1.78595 0
M  V30 7225 C 666.201 3.57278 0.488322 0
M  V30 7226 O 665.305 3.80986 1.57871 0
M  V30 7227 H 664.646 0.663882 0.0125068 0
M  V30 7228 H 667.176 1.95988 -0.587339 0
M  V30 7229 H 667.186 4.01125 0.745836 0
M  V30 7230 H 665.861 4.13978 -0.399327 0
M  V30 7231 H 664.438 3.49017 1.31306 0
M  V30 7232 N 666.623 0.143563 1.56945 0
M  V30 7233 C 667.555 -0.828353 2.13708 0
M  V30 7234 C 668.568 -1.21313 1.08568 0
M  V30 7235 O 669.757 -1.1578 1.35857 0
M  V30 7236 C 666.857 -2.12248 2.64204 0
M  V30 7237 C 666.03 -1.90561 3.93707 0
M  V30 7238 C 665.089 -3.03931 4.29549 0
M  V30 7239 O 664.115 -2.75772 4.97934 0
M  V30 7240 N 665.317 -4.31016 3.88852 0
M  V30 7241 H 668.082 -0.343242 2.97728 0
M  V30 7242 H 665.643 -0.0401152 1.6185 0
M  V30 7243 H 667.635 -2.87132 2.85197 0
M  V30 7244 H 666.205 -2.52033 1.84928 0
M  V30 7245 H 665.425 -0.997327 3.81375 0
M  V30 7246 H 666.713 -1.73405 4.78339 0
M  V30 7247 H 666.111 -4.56762 3.33743 0
M  V30 7248 H 664.668 -5.02691 4.14903 0
M  V30 7249 N 668.101 -1.57061 -0.130224 0
M  V30 7250 C 669.033 -1.96147 -1.18571 0
M  V30 7251 C 670.046 -0.859347 -1.38272 0
M  V30 7252 O 671.235 -1.13769 -1.37545 0
M  V30 7253 C 668.335 -2.23484 -2.54771 0
M  V30 7254 C 667.508 -3.54786 -2.55824 0
M  V30 7255 C 666.567 -3.70467 -3.73686 0
M  V30 7256 O 665.593 -4.42693 -3.57787 0
M  V30 7257 N 666.795 -3.08389 -4.91809 0
M  V30 7258 H 669.56 -2.87295 -0.853333 0
M  V30 7259 H 667.121 -1.58714 -0.319621 0
M  V30 7260 H 669.113 -2.312 -3.32158 0
M  V30 7261 H 667.683 -1.38518 -2.80235 0
M  V30 7262 H 666.903 -3.5836 -1.64232 0
M  V30 7263 H 668.191 -4.4111 -2.53573 0
M  V30 7264 H 667.589 -2.49656 -5.0763 0
M  V30 7265 H 666.146 -3.21642 -5.66912 0
M  V30 7266 N 669.579 0.400081 -1.52437 0
M  V30 7267 C 670.99 0.97851 -1.59003 0
M  V30 7268 C 671.341 1.91293 -0.436068 0
M  V30 7269 O 670.466 2.1183 0.442365 0
M  V30 7270 C 671.061 1.78145 -2.88184 0
M  V30 7271 C 669.62 2.30976 -2.97199 0
M  V30 7272 C 668.767 1.11212 -2.54022 0
M  V30 7273 H 671.718 0.180002 -1.57676 0
M  V30 7274 H 671.739 2.63968 -2.74046 0
M  V30 7275 H 671.251 1.1011 -3.72152 0
M  V30 7276 H 669.352 3.02355 -2.17744 0
M  V30 7277 H 669.465 2.61221 -4.01622 0
M  V30 7278 H 667.829 1.46882 -2.08081 0
M  V30 7279 H 668.612 0.447307 -3.40373 0
M  V30 7280 N 671.057 1.43213 0.657864 0
M  V30 7281 C 672.468 1.39669 1.23893 0
M  V30 7282 C 672.819 0.0984217 1.95953 0
M  V30 7283 O 671.944 -0.8023 2.00978 0
M  V30 7284 C 672.539 2.53004 2.25332 0
M  V30 7285 C 671.098 2.5274 2.78926 0
M  V30 7286 C 670.245 2.30941 1.53497 0
M  V30 7287 H 673.196 1.52181 0.450172 0
M  V30 7288 H 673.217 2.24226 3.07413 0
M  V30 7289 H 672.729 3.4748 1.72856 0
M  V30 7290 H 670.83 1.6213 3.35477 0
M  V30 7291 H 670.943 3.50352 3.26787 0
M  V30 7292 H 669.307 1.7952 1.80678 0
M  V30 7293 H 670.09 3.27496 1.02963 0
M  V30 7294 N 672.536 -0.895792 1.29666 0
M  V30 7295 C 673.468 -2.00563 1.10937 0
M  V30 7296 C 674.481 -1.62705 0.055734 0
M  V30 7297 O 675.67 -1.7595 0.300656 0
M  V30 7298 C 672.77 -3.32262 0.667448 0
M  V30 7299 C 671.943 -3.98625 1.80047 0
M  V30 7300 C 671.002 -5.08617 1.3489 0
M  V30 7301 O 670.028 -5.30837 2.05429 0
M  V30 7302 N 671.23 -5.80076 0.221937 0
M  V30 7303 H 673.995 -2.17184 2.06522 0
M  V30 7304 H 671.556 -1.06822 1.21658 0
M  V30 7305 H 673.548 -4.03196 0.348586 0
M  V30 7306 H 672.118 -3.11985 -0.196055 0
M  V30 7307 H 671.338 -3.21005 2.28801 0
M  V30 7308 H 672.626 -4.39704 2.56003 0
M  V30 7309 H 672.024 -5.64514 -0.366084 0
M  V30 7310 H 670.581 -6.51789 -0.0375346 0
M  V30 7311 N 674.014 -1.12206 -1.10668 0
M  V30 7312 C 675.244 -0.897332 -1.86095 0
M  V30 7313 C 675.652 0.556778 -1.80822 0
M  V30 7314 O 674.995 1.39658 -1.19337 0
M  V30 7315 C 675.057 -1.29095 -3.35522 0
M  V30 7316 C 674.721 -2.75586 -3.64556 0
M  V30 7317 C 675.718 -3.73785 -3.6136 0
M  V30 7318 C 673.403 -3.12432 -3.93309 0
M  V30 7319 C 675.397 -5.06845 -3.86506 0
M  V30 7320 C 673.084 -4.45675 -4.18111 0
M  V30 7321 C 674.082 -5.42691 -4.147 0
M  V30 7322 O 673.77 -6.73532 -4.38873 0
M  V30 7323 H 673.502 -0.320704 -0.595084 0
M  V30 7324 H 676.056 -1.49517 -1.40833 0
M  V30 7325 H 674.286 -0.636299 -3.81429 0
M  V30 7326 H 675.975 -1.04073 -3.92331 0
M  V30 7327 H 676.741 -3.46664 -3.39189 0
M  V30 7328 H 672.62 -2.3753 -3.95096 0
M  V30 7329 H 676.164 -5.82559 -3.83758 0
M  V30 7330 H 672.061 -4.72526 -4.39761 0
M  V30 7331 H 672.829 -6.79442 -4.564 0
M  V30 7332 N 675.492 1.28418 -0.913599 0
M  V30 7333 C 676.717 1.99643 -0.561899 0
M  V30 7334 C 677.142 1.67819 0.849608 0
M  V30 7335 O 676.5 0.910503 1.56779 0
M  V30 7336 C 676.548 3.52116 -0.777622 0
M  V30 7337 O 675.652 4.12076 0.163457 0
M  V30 7338 H 674.993 0.627229 -0.217898 0
M  V30 7339 H 677.523 1.63575 -1.229 0
M  V30 7340 H 677.533 4.02163 -0.687666 0
M  V30 7341 H 676.208 3.74613 -1.8066 0
M  V30 7342 H 674.785 3.72892 0.0247827 0
M  V30 7343 N 676.97 0.677563 1.42291 0
M  V30 7344 C 677.92 -0.0218641 2.2799 0
M  V30 7345 C 678.904 -0.770816 1.41235 0
M  V30 7346 O 680.096 -0.649273 1.64662 0
M  V30 7347 C 677.225 -0.970449 3.29298 0
M  V30 7348 C 676.311 -0.218695 4.23536 0
M  V30 7349 N 676.702 0.777908 4.99782 0
M  V30 7350 C 675 -0.456748 4.43655 0
M  V30 7351 C 675.701 1.22632 5.68627 0
M  V30 7352 N 674.677 0.55573 5.40752 0
M  V30 7353 H 678.479 0.742516 2.84366 0
M  V30 7354 H 675.993 0.506862 1.54288 0
M  V30 7355 H 677.99 -1.48652 3.89497 0
M  V30 7356 H 676.65 -1.73463 2.74483 0
M  V30 7357 H 677.661 1.15754 5.04798 0
M  V30 7358 H 674.338 -1.20021 3.99877 0
M  V30 7359 H 675.728 2.05231 6.39789 0
M  V30 7360 N 678.448 -1.51871 0.421078 0
M  V30 7361 C 679.38 -2.25052 -0.434065 0
M  V30 7362 C 680.393 -1.28458 -1.00013 0
M  V30 7363 O 681.582 -1.54323 -0.897033 0
M  V30 7364 C 678.682 -2.97813 -1.61743 0
M  V30 7365 C 677.855 -4.21374 -1.17315 0
M  V30 7366 C 676.914 -4.76854 -2.22478 0
M  V30 7367 O 675.94 -5.39123 -1.82577 0
M  V30 7368 N 677.142 -4.59467 -3.54782 0
M  V30 7369 H 679.907 -2.99077 0.193073 0
M  V30 7370 H 677.468 -1.59972 0.249088 0
M  V30 7371 H 679.46 -3.3182 -2.31685 0
M  V30 7372 H 678.03 -2.26899 -2.15024 0
M  V30 7373 H 677.25 -3.93046 -0.3014 0
M  V30 7374 H 678.538 -5.01591 -0.853444 0
M  V30 7375 H 677.936 -4.09832 -3.89941 0
M  V30 7376 H 676.493 -4.9788 -4.20665 0
M  V30 7377 N 679.926 -0.151884 -1.56866 0
M  V30 7378 C 681.154 0.504813 -2.00647 0
M  V30 7379 C 681.569 1.58098 -1.03201 0
M  V30 7380 O 680.926 1.82476 -0.0297814 0
M  V30 7381 C 680.977 1.10099 -3.44326 0
M  V30 7382 O 680.698 0.0678021 -4.38048 0
M  V30 7383 C 682.199 1.83782 -4.03409 0
M  V30 7384 H 679.419 0.130989 -0.65809 0
M  V30 7385 H 681.963 -0.247903 -2.02992 0
M  V30 7386 H 680.118 1.8043 -3.42817 0
M  V30 7387 H 680.532 0.505237 -5.22061 0
M  V30 7388 H 682.006 2.2078 -5.05925 0
M  V30 7389 H 682.483 2.72557 -3.44397 0
M  V30 7390 H 683.089 1.18138 -4.08563 0
M  V30 7391 N 681.404 1.57128 0.121893 0
M  V30 7392 C 682.354 1.96556 1.15541 0
M  V30 7393 C 683.338 0.840147 1.37224 0
M  V30 7394 O 684.53 1.10382 1.38365 0
M  V30 7395 C 681.659 2.37097 2.48274 0
M  V30 7396 C 680.745 3.56265 2.30078 0
M  V30 7397 N 681.136 4.72041 1.81688 0
M  V30 7398 C 679.434 3.61841 2.60744 0
M  V30 7399 C 680.135 5.54075 1.77132 0
M  V30 7400 N 679.111 4.96483 2.21371 0
M  V30 7401 H 682.913 2.83531 0.77378 0
M  V30 7402 H 680.427 1.59019 0.329672 0
M  V30 7403 H 682.424 2.6356 3.2302 0
M  V30 7404 H 681.084 1.51486 2.87197 0
M  V30 7405 H 682.095 4.95313 1.51278 0
M  V30 7406 H 678.772 2.8683 3.03373 0
M  V30 7407 H 680.162 6.56939 1.40998 0
M  V30 7408 N 682.882 -0.391992 1.52647 0
M  V30 7409 C 684.298 -0.731848 1.41831 0
M  V30 7410 C 684.498 -1.9423 0.536361 0
M  V30 7411 O 683.554 -2.52499 0.00866571 0
M  V30 7412 C 684.867 -0.969743 2.84634 0
M  V30 7413 C 686.415 -1.0714 2.94092 0
M  V30 7414 C 686.89 -1.34195 4.37899 0
M  V30 7415 N 688.381 -1.41023 4.41211 0
M  V30 7416 C 689.116 -1.63616 5.49561 0
M  V30 7417 N 688.612 -1.83699 6.68002 0
M  V30 7418 N 690.405 -1.65771 5.371 0
M  V30 7419 H 682.556 0.404547 2.08512 0
M  V30 7420 H 684.819 0.11879 0.940528 0
M  V30 7421 H 684.525 -0.152465 3.51369 0
M  V30 7422 H 684.399 -1.88523 3.26709 0
M  V30 7423 H 686.786 -1.87925 2.27526 0
M  V30 7424 H 686.867 -0.133887 2.55449 0
M  V30 7425 H 686.511 -0.539207 5.0503 0
M  V30 7426 H 686.441 -2.29226 4.74092 0
M  V30 7427 H 688.932 -1.27223 3.55841 0
M  V30 7428 H 689.245 -2.00437 7.46354 0
M  V30 7429 H 687.59 -1.8093 6.71036 0
M  V30 7430 H 690.781 -1.4963 4.43541 0
M  V30 7431 H 690.954 -1.83038 6.21612 0
M  V30 7432 N 684.36 -1.4356 -0.65026 0
M  V30 7433 C 685.59 -1.48563 -1.4357 0
M  V30 7434 C 685.998 -0.103041 -1.88919 0
M  V30 7435 O 685.341 0.897602 -1.60277 0
M  V30 7436 C 685.403 -2.37181 -2.70158 0
M  V30 7437 C 685.067 -3.84673 -2.4673 0
M  V30 7438 C 686.064 -4.75704 -2.09765 0
M  V30 7439 C 683.749 -4.29189 -2.60963 0
M  V30 7440 C 685.743 -6.09249 -1.87334 0
M  V30 7441 C 683.43 -5.62787 -2.38147 0
M  V30 7442 C 684.428 -6.52634 -2.01389 0
M  V30 7443 O 684.116 -7.83761 -1.78813 0
M  V30 7444 H 683.848 -0.506743 -0.447423 0
M  V30 7445 H 686.402 -1.89001 -0.80423 0
M  V30 7446 H 684.632 -1.91636 -3.35876 0
M  V30 7447 H 686.321 -2.33354 -3.32116 0
M  V30 7448 H 687.087 -4.42589 -1.98343 0
M  V30 7449 H 682.966 -3.59529 -2.88548 0
M  V30 7450 H 686.51 -6.7934 -1.58567 0
M  V30 7451 H 682.407 -5.95469 -2.49173 0
M  V30 7452 H 683.175 -7.95368 -1.93214 0
M  V30 7453 O 685.877 0.793351 -1.40671 0
M  V30 7454 H 686.568 1.43915 -1.29646 0
M  V30 END ATOM
M  V30 BEGIN BOND
M  V30 END BOND
M  V30 END CTAB
M  END
$$$$
