drugbank_target|P0A884 Thymidylate synthase (DB02031; DB02223; DB02256; DB02301; DB02467; DB02752; DB02899; DB03038; DB03157; DB03274; DB03541; DB03558; DB03761; DB03800; DB03818; DB04447; DB04457; DB04503; DB04530; DB04586; DB04696; DB08131)
 OpenBabel12092119543D

  0  0  0     0  0            999 V3000
M  V30 BEGIN CTAB
M  V30 COUNTS 4232 4292 0 0 0
M  V30 BEGIN ATOM
M  V30 1 H -0.908 1.98254 -0.117106 0
M  V30 2 N 0 1.576 0 0
M  V30 3 C 0.933 2.03868 1.02534 0
M  V30 4 C 1.911 0.928543 1.3348 0
M  V30 5 O 3.095 1.19667 1.45644 0
M  V30 6 C 0.222 2.43627 2.35294 0
M  V30 7 C -0.732 3.65373 2.2001 0
M  V30 8 S 0.101 5.13292 1.52614 0
M  V30 9 C 1.257 5.56322 2.86805 0
M  V30 10 H 1.49 2.90518 0.631377 0
M  V30 11 H -0.977 1.52953 0.210867 0
M  V30 12 H 0.981 2.67203 3.11629 0
M  V30 13 H -0.358 1.57376 2.7183 0
M  V30 14 H -1.165 3.90944 3.18086 0
M  V30 15 H -1.563 3.418 1.51819 0
M  V30 16 H 0.729 5.58782 3.83104 0
M  V30 17 H 1.672 6.56266 2.65933 0
M  V30 18 H 2.08 4.83886 2.90714 0
M  V30 19 N 1.4781 -0.272755 1.55222 0
M  V30 20 C 2.4251 -1.33716 1.88119 0
M  V30 21 C 3.3951 -1.49066 0.73271 0
M  V30 22 O 4.5801 -1.63469 0.984002 0
M  V30 23 C 1.7201 -2.69238 2.15882 0
M  V30 24 C 0.8331 -2.62108 3.43399 0
M  V30 25 C -0.0319 -3.89811 3.60861 0
M  V30 26 C -0.9929 -3.77193 4.8207 0
M  V30 27 N -1.8559 -4.9673 4.96189 0
M  V30 28 H 2.9841 -1.04962 2.78903 0
M  V30 29 H 0.5211 -0.507088 1.38083 0
M  V30 30 H 2.4791 -3.48089 2.29978 0
M  V30 31 H 1.1091 -2.96194 1.28331 0
M  V30 32 H 0.1611 -1.74967 3.37773 0
M  V30 33 H 1.4731 -2.48685 4.32386 0
M  V30 34 H 0.6271 -4.77103 3.74777 0
M  V30 35 H -0.6339 -4.06102 2.7006 0
M  V30 36 H -1.6289 -2.88284 4.68159 0
M  V30 37 H -0.4039 -3.62421 5.74307 0
M  V30 38 H -2.4579 -5.13431 4.08319 0
M  V30 39 H -2.5409 -4.85839 5.79221 0
M  V30 40 H -1.2729 -5.85594 5.1449 0
M  V30 41 N 2.9562 -1.48159 -0.537278 0
M  V30 42 C 3.8882 -1.58218 -1.65831 0
M  V30 43 C 4.9012 -0.466948 -1.5596 0
M  V30 44 O 6.0902 -0.73747 -1.62553 0
M  V30 45 C 3.1902 -1.48906 -3.04434 0
M  V30 46 C 2.3632 -2.75343 -3.3986 0
M  V30 47 C 1.4222 -2.59588 -4.57712 0
M  V30 48 O 0.4482 -3.33457 -4.61297 0
M  V30 49 N 1.6502 -1.68724 -5.55439 0
M  V30 50 H 4.4152 -2.54891 -1.57641 0
M  V30 51 H 1.9762 -1.4479 -0.724386 0
M  V30 52 H 3.9682 -1.36072 -3.81139 0
M  V30 53 H 2.5382 -0.602368 -3.06741 0
M  V30 54 H 1.7582 -3.02795 -2.52406 0
M  V30 55 H 3.0462 -3.5924 -3.60311 0
M  V30 56 H 2.4442 -1.07898 -5.55315 0
M  V30 57 H 1.0012 -1.61832 -6.3139 0
M  V30 58 N 4.4343 0.785586 -1.36625 0
M  V30 59 C 5.6643 1.5722 -1.34036 0
M  V30 60 C 6.0723 1.89033 0.0795062 0
M  V30 61 O 5.4153 1.50881 1.04789 0
M  V30 62 C 5.4773 2.91759 -2.10041 0
M  V30 63 C 5.1413 2.82654 -3.59104 0
M  V30 64 C 6.1383 2.54634 -4.53274 0
M  V30 65 C 3.8233 3.01111 -4.02042 0
M  V30 66 C 5.8173 2.45177 -5.88359 0
M  V30 67 C 3.5043 2.91276 -5.37216 0
M  V30 68 C 4.5023 2.63348 -6.30188 0
M  V30 69 O 4.1903 2.53514 -7.6288 0
M  V30 70 H 3.9223 0.494177 -0.461265 0
M  V30 71 H 6.4763 0.982632 -1.8037 0
M  V30 72 H 4.7063 3.52781 -1.58375 0
M  V30 73 H 6.3953 3.53059 -2.00261 0
M  V30 74 H 7.1613 2.40073 -4.21414 0
M  V30 75 H 3.0403 3.21854 -3.30047 0
M  V30 76 H 6.5843 2.23299 -6.60896 0
M  V30 77 H 2.4813 3.054 -5.68684 0
M  V30 78 H 3.2493 2.68967 -7.73045 0
M  V30 79 N 5.9124 1.20967 1.01018 0
M  V30 80 C 6.8424 0.988272 2.11555 0
M  V30 81 C 7.8234 -0.0849778 1.69888 0
M  V30 82 O 9.0084 0.0738202 1.9406 0
M  V30 83 C 6.1384 0.546528 3.42973 0
M  V30 84 C 5.0924 1.56375 3.9841 0
M  V30 85 C 4.4184 0.97842 5.25672 0
M  V30 86 C 5.7184 2.94922 4.31066 0
M  V30 87 H 7.4124 1.91276 2.30334 0
M  V30 88 H 4.9584 0.921073 1.1069 0
M  V30 89 H 6.9114 0.378839 4.19694 0
M  V30 90 H 5.6354 -0.413598 3.23971 0
M  V30 91 H 4.2944 1.71891 3.23804 0
M  V30 92 H 3.9424 0.0101688 5.02999 0
M  V30 93 H 3.6424 1.65784 5.63728 0
M  V30 94 H 5.1664 0.821939 6.05043 0
M  V30 95 H 6.5804 2.8288 4.9865 0
M  V30 96 H 4.9774 3.5983 4.80253 0
M  V30 97 H 6.0474 3.4616 3.39561 0
M  V30 98 N 7.3905 -1.2043 1.01659 0
M  V30 99 C 8.3005 -2.2689 0.596484 0
M  V30 100 C 9.3165 -1.70107 -0.36599 0
M  V30 101 O 10.4925 -2.00117 -0.226942 0
M  V30 102 C 7.5575 -3.4665 -0.0586659 0
M  V30 103 C 6.6185 -4.18662 0.949751 0
M  V30 104 C 5.8515 -5.32705 0.32577 0
M  V30 105 O 6.0745 -5.63656 -0.874509 0
M  V30 106 O 5.0085 -5.92803 1.04249 0
M  V30 107 H 8.8345 -2.65041 1.4828 0
M  V30 108 H 6.4195 -1.27048 0.786082 0
M  V30 109 H 8.3015 -4.19256 -0.424564 0
M  V30 110 H 6.9765 -3.10375 -0.91918 0
M  V30 111 H 5.8835 -3.48229 1.36702 0
M  V30 112 H 7.2165 -4.58878 1.78023 0
M  V30 113 N 8.8686 -0.792821 -1.36206 0
M  V30 114 C 9.7986 -0.207853 -2.32573 0
M  V30 115 C 10.7796 0.659055 -1.56813 0
M  V30 116 O 11.9646 0.592176 -1.84951 0
M  V30 117 C 9.0946 0.655449 -3.41059 0
M  V30 118 C 8.0486 -0.111842 -4.27854 0
M  V30 119 C 7.3746 0.872274 -5.27537 0
M  V30 120 C 8.6746 -1.30299 -5.05786 0
M  V30 121 H 10.3686 -1.01294 -2.81744 0
M  V30 122 H 7.9146 -0.48854 -1.3546 0
M  V30 123 H 9.8676 1.07464 -4.07467 0
M  V30 124 H 8.5916 1.49328 -2.90463 0
M  V30 125 H 7.2506 -0.512053 -3.63006 0
M  V30 126 H 6.8986 1.70523 -4.73214 0
M  V30 127 H 6.5986 0.363291 -5.86476 0
M  V30 128 H 8.1226 1.28996 -5.96818 0
M  V30 129 H 9.5366 -0.959379 -5.65216 0
M  V30 130 H 7.9336 -1.7455 -5.74154 0
M  V30 131 H 9.0036 -2.09663 -4.37229 0
M  V30 132 N 10.3467 1.47872 -0.545128 0
M  V30 133 C 11.2797 2.2675 0.256885 0
M  V30 134 C 12.2577 1.33293 0.931228 0
M  V30 135 O 13.4417 1.62657 0.95262 0
M  V30 136 C 10.5687 3.09976 1.36501 0
M  V30 137 C 9.6147 4.1892 0.800496 0
M  V30 138 S 10.4477 5.34397 -0.343505 0
M  V30 139 C 11.6037 6.21186 0.766733 0
M  V30 140 H 11.8367 2.94425 -0.412479 0
M  V30 141 H 9.3697 1.50806 -0.331204 0
M  V30 142 H 11.3277 3.585 1.9997 0
M  V30 143 H 9.9887 2.41686 2.00616 0
M  V30 144 H 9.1817 4.76836 1.63227 0
M  V30 145 H 8.7837 3.73215 0.242217 0
M  V30 146 H 11.0757 6.56804 1.66178 0
M  V30 147 H 12.0187 7.07742 0.225204 0
M  V30 148 H 12.4267 5.54574 1.05396 0
M  V30 149 N 11.8248 0.280983 1.55075 0
M  V30 150 C 12.7568 -0.637268 2.20163 0
M  V30 151 C 13.7698 -1.11298 1.18813 0
M  V30 152 O 14.9588 -1.03388 1.4551 0
M  V30 153 C 12.0588 -1.88199 2.81841 0
M  V30 154 C 11.2318 -1.55211 4.08936 0
M  V30 155 C 10.2908 -2.64991 4.54606 0
M  V30 156 O 9.3168 -2.30929 5.2025 0
M  V30 157 N 10.5188 -3.95161 4.25238 0
M  V30 158 H 13.2838 -0.0801694 2.99593 0
M  V30 159 H 10.8448 0.102329 1.61576 0
M  V30 160 H 12.8368 -2.60948 3.09335 0
M  V30 161 H 11.4068 -2.34799 2.06369 0
M  V30 162 H 10.6268 -0.658185 3.88666 0
M  V30 163 H 11.9148 -1.30681 4.91732 0
M  V30 164 H 11.3128 -4.25653 3.72607 0
M  V30 165 H 9.8698 -4.6427 4.5749 0
M  V30 166 N 13.3029 -1.57598 0.00835791 0
M  V30 167 C 14.2499 -2.08945 -0.980346 0
M  V30 168 C 15.2199 -0.986738 -1.33614 0
M  V30 169 O 16.4049 -1.25968 -1.43306 0
M  V30 170 C 13.5449 -2.60425 -2.26435 0
M  V30 171 C 12.6579 -3.84628 -1.96685 0
M  V30 172 C 11.7929 -4.24579 -3.19228 0
M  V30 173 C 10.8319 -5.41596 -2.85202 0
M  V30 174 N 9.9689 -5.768 -4.00307 0
M  V30 175 H 14.8089 -2.93148 -0.535551 0
M  V30 176 H 12.3459 -1.44912 -0.252776 0
M  V30 177 H 14.3039 -2.88354 -3.01509 0
M  V30 178 H 12.9339 -1.79083 -2.68568 0
M  V30 179 H 11.9859 -3.63556 -1.11942 0
M  V30 180 H 13.2979 -4.69796 -1.67611 0
M  V30 181 H 12.4519 -4.53834 -4.02641 0
M  V30 182 H 11.1909 -3.38137 -3.51447 0
M  V30 183 H 10.1959 -5.12056 -2.00198 0
M  V30 184 H 11.4209 -6.29721 -2.54222 0
M  V30 185 H 9.3669 -4.93316 -4.32407 0
M  V30 186 H 9.2839 -6.5656 -3.74786 0
M  V30 187 H 10.5519 -6.10652 -4.84484 0
M  V30 188 N 14.781 0.264519 -1.55364 0
M  V30 189 C 16.027 0.99646 -1.76631 0
M  V30 190 C 16.36 1.85632 -0.570478 0
M  V30 191 O 15.635 1.89647 0.43175 0
M  V30 192 C 15.918 1.87187 -3.07625 0
M  V30 193 C 15.771 1.04138 -4.37579 0
M  V30 194 C 17.09 2.85749 -3.34717 0
M  V30 195 H 14.209 0.360841 -0.642622 0
M  V30 196 H 16.851 0.268218 -1.88097 0
M  V30 197 H 15.001 2.49279 -2.9798 0
M  V30 198 H 16.673 0.440517 -4.59192 0
M  V30 199 H 14.916 0.345115 -4.32425 0
M  V30 200 H 15.587 1.68729 -5.2558 0
M  V30 201 H 18.063 2.33793 -3.4421 0
M  V30 202 H 16.939 3.44136 -4.27623 0
M  V30 203 H 17.2 3.61311 -2.54768 0
M  V30 204 N 16.2591 1.48442 0.529413 0
M  V30 205 C 17.1891 1.65902 1.64313 0
M  V30 206 C 18.1701 0.507897 1.6234 0
M  V30 207 O 19.3551 0.740503 1.79528 0
M  V30 208 C 16.4851 1.69911 3.02898 0
M  V30 209 C 15.4391 2.8453 3.19729 0
M  V30 210 C 14.7651 2.73629 4.59381 0
M  V30 211 C 16.0651 4.25821 3.02447 0
M  V30 212 H 17.7591 2.5914 1.49955 0
M  V30 213 H 15.3051 1.24709 0.719982 0
M  V30 214 H 17.2581 1.80715 3.80684 0
M  V30 215 H 15.9821 0.732524 3.18279 0
M  V30 216 H 14.6411 2.73283 2.44361 0
M  V30 217 H 14.2891 1.74938 4.71599 0
M  V30 218 H 13.9891 3.50541 4.71588 0
M  V30 219 H 15.5131 2.86401 5.39265 0
M  V30 220 H 16.9271 4.37898 3.70024 0
M  V30 221 H 15.3241 5.03735 3.26146 0
M  V30 222 H 16.3941 4.42244 1.98867 0
M  V30 223 N 17.7372 -0.778329 1.37039 0
M  V30 224 C 19.0142 -1.52551 1.22424 0
M  V30 225 C 19.3942 -2.10288 -0.184964 0
M  V30 226 O 18.7422 -1.94953 -1.19187 0
M  V30 227 C 18.9522 -2.61164 2.31504 0
M  V30 228 C 20.3002 -3.28746 2.68721 0
M  V30 229 O 21.3242 -2.71455 2.30631 0
M  V30 230 O 20.1832 -4.3231 3.3432 0
M  V30 231 H 17.2772 -0.675343 0.477326 0
M  V30 232 H 19.8232 -0.815859 1.48801 0
M  V30 233 H 18.5952 -2.16574 3.25901 0
M  V30 234 H 18.2182 -3.39737 2.06554 0
M  V30 235 N 19.2153 -1.21501 -1.00376 0
M  V30 236 C 20.1253 -0.991447 -2.12621 0
M  V30 237 C 21.1413 0.0568446 -1.73907 0
M  V30 238 O 22.3173 -0.13348 -2.00957 0
M  V30 239 C 19.3823 -0.560312 -3.42142 0
M  V30 240 C 18.4433 -1.68096 -3.95022 0
M  V30 241 C 17.6763 -1.2703 -5.18362 0
M  V30 242 O 17.8993 -0.144438 -5.70217 0
M  V30 243 O 16.8333 -2.08269 -5.64719 0
M  V30 244 H 20.6593 -1.93158 -2.34358 0
M  V30 245 H 18.2443 -0.999999 -1.10997 0
M  V30 246 H 20.1263 -0.329724 -4.20108 0
M  V30 247 H 18.8013 0.351089 -3.2179 0
M  V30 248 H 17.7083 -1.96597 -3.18278 0
M  V30 249 H 19.0413 -2.56983 -4.19786 0
M  V30 250 N 20.6934 1.19889 -1.02296 0
M  V30 251 C 21.9414 1.89046 -0.714558 0
M  V30 252 C 22.2624 1.79636 0.758681 0
M  V30 253 O 21.5324 1.20292 1.54618 0
M  V30 254 H 20.1124 0.699802 -0.261317 0
M  V30 255 H 22.7744 1.45574 -1.29592 0
M  V30 256 H 21.8704 2.95524 -1.0036 0
M  V30 257 N 22.1715 0.800033 1.35784 0
M  V30 258 C 23.3995 0.389606 2.03199 0
M  V30 259 C 23.8145 -0.997375 1.60306 0
M  V30 260 O 23.1715 -1.64154 0.797481 0
M  V30 261 C 23.2225 0.455855 3.58614 0
M  V30 262 O 22.9435 1.78815 3.99946 0
M  V30 263 C 24.4445 0.0374032 4.43284 0
M  V30 264 H 21.6645 0.159132 0.651857 0
M  V30 265 H 24.2085 1.08183 1.73541 0
M  V30 266 H 22.3635 -0.188057 3.86943 0
M  V30 267 H 22.7775 1.74636 4.94573 0
M  V30 268 H 24.2515 0.134882 5.51835 0
M  V30 269 H 24.7285 -1.01651 4.27275 0
M  V30 270 H 25.3345 0.654215 4.20238 0
M  V30 271 N 23.6496 -1.47581 0.552962 0
M  V30 272 C 24.5816 -2.27997 -0.234533 0
M  V30 273 C 25.5946 -1.36753 -0.883321 0
M  V30 274 O 26.7836 -1.61612 -0.757889 0
M  V30 275 C 23.8836 -3.10879 -1.34935 0
M  V30 276 C 23.0566 -4.30056 -0.798158 0
M  V30 277 C 22.1156 -4.94567 -1.79694 0
M  V30 278 O 21.1416 -5.53087 -1.34474 0
M  V30 279 N 22.3436 -4.88878 -3.13015 0
M  V30 280 H 25.1086 -2.96222 0.455255 0
M  V30 281 H 22.6696 -1.57163 0.388761 0
M  V30 282 H 24.6616 -3.50903 -2.01616 0
M  V30 283 H 23.2316 -2.44924 -1.94244 0
M  V30 284 H 22.4516 -3.94174 0.0453079 0
M  V30 285 H 23.7396 -5.07152 -0.409173 0
M  V30 286 H 23.1376 -4.42526 -3.52402 0
M  V30 287 H 21.6946 -5.32934 -3.75266 0
M  V30 288 N 25.1277 -0.289203 -1.54924 0
M  V30 289 C 26.0747 0.592115 -2.23075 0
M  V30 290 C 27.0447 1.13881 -1.20915 0
M  V30 291 O 28.2297 1.18551 -1.495 0
M  V30 292 C 25.3697 1.76376 -2.96623 0
M  V30 293 C 24.4827 1.24959 -4.13533 0
M  V30 294 C 23.6177 2.38416 -4.74691 0
M  V30 295 C 22.6567 1.84072 -5.83767 0
M  V30 296 N 21.7937 2.91057 -6.38929 0
M  V30 297 H 26.6337 0.00432038 -2.98 0
M  V30 298 H 24.1707 -0.00963529 -1.47097 0
M  V30 299 H 26.1287 2.45268 -3.3749 0
M  V30 300 H 24.7587 2.32337 -2.24097 0
M  V30 301 H 23.8107 0.453307 -3.77689 0
M  V30 302 H 25.1227 0.811662 -4.92152 0
M  V30 303 H 24.2767 3.15276 -5.18349 0
M  V30 304 H 23.0157 2.8553 -3.95378 0
M  V30 305 H 22.0207 1.05697 -5.39545 0
M  V30 306 H 23.2457 1.37877 -6.64956 0
M  V30 307 H 21.1917 3.37526 -5.62505 0
M  V30 308 H 21.1087 2.51724 -7.12861 0
M  V30 309 H 22.3767 3.6785 -6.87246 0
M  V30 310 N 26.6058 1.57591 -0.0167156 0
M  V30 311 C 27.5538 2.10604 0.987353 0
M  V30 312 C 28.5478 1.02977 1.34507 0
M  V30 313 O 29.7538 1.21425 1.32875 0
M  V30 314 H 26.1288 0.672695 0.336134 0
M  V30 315 H 28.0998 2.93925 0.514817 0
M  V30 316 C 26.8488 2.6382 2.26483 0
M  V30 317 H 26.1718 3.46278 1.99829 0
M  V30 318 H 27.6118 3.04573 2.94977 0
M  V30 319 C 26.0708 1.55992 2.9861 0
M  V30 320 O 26.6008 0.952521 3.90243 0
M  V30 321 N 24.8068 1.28335 2.60727 0
M  V30 322 H 24.3538 1.77914 1.86291 0
M  V30 323 H 24.3118 0.564115 3.09298 0
M  V30 324 N 28.0839 -0.256276 1.55502 0
M  V30 325 C 29.3609 -1.00789 1.67633 0
M  V30 326 C 29.7409 -2.03706 0.553826 0
M  V30 327 O 29.0889 -2.24145 -0.443969 0
M  V30 328 C 29.2989 -1.64968 3.07549 0
M  V30 329 C 30.6469 -2.15505 3.65845 0
M  V30 330 O 31.6709 -1.74925 3.1029 0
M  V30 331 O 30.5299 -2.89986 4.63217 0
M  V30 332 H 27.6239 -0.468553 0.681459 0
M  V30 333 H 30.1699 -0.250806 1.67836 0
M  V30 334 H 28.9419 -0.904785 3.80696 0
M  V30 335 H 28.5649 -2.47321 3.11317 0
M  V30 336 N 29.562 -1.4872 -0.521534 0
M  V30 337 C 30.978 -1.35028 -0.850855 0
M  V30 338 C 31.178 -0.367712 -1.98116 0
M  V30 339 O 30.234 0.208037 -2.51642 0
M  V30 340 C 31.547 -2.75263 -1.21041 0
M  V30 341 C 33.095 -2.83813 -1.31981 0
M  V30 342 C 33.57 -4.24769 -1.71276 0
M  V30 343 N 35.061 -4.27482 -1.78363 0
M  V30 344 C 35.796 -5.33494 -2.1017 0
M  V30 345 N 35.292 -6.49775 -2.40343 0
M  V30 346 N 37.085 -5.20894 -2.11248 0
M  V30 347 H 29.236 -2.11214 0.22413 0
M  V30 348 H 31.499 -0.947252 0.0376439 0
M  V30 349 H 31.205 -3.48765 -0.453415 0
M  V30 350 H 31.079 -3.09327 -2.15863 0
M  V30 351 H 33.466 -2.10561 -2.06756 0
M  V30 352 H 33.547 -2.53358 -0.352596 0
M  V30 353 H 33.191 -4.9854 -0.970588 0
M  V30 354 H 33.121 -4.52673 -2.69062 0
M  V30 355 H 35.612 -3.43611 -1.57288 0
M  V30 356 H 35.925 -7.26402 -2.63743 0
M  V30 357 H 34.27 -6.53035 -2.37844 0
M  V30 358 H 37.461 -4.29065 -1.87139 0
M  V30 359 H 37.634 -6.03612 -2.35704 0
M  V30 360 N 31.0401 0.771051 -1.3745 0
M  V30 361 C 32.2681 1.56015 -1.35893 0
M  V30 362 C 32.6831 1.88718 0.0555523 0
M  V30 363 O 32.0401 1.51502 1.01752 0
M  V30 364 C 32.0911 2.87001 -2.19801 0
M  V30 365 O 31.8121 2.557 -3.55738 0
M  V30 366 C 33.3131 3.81228 -2.26231 0
M  V30 367 H 30.5331 0.483317 -0.465453 0
M  V30 368 H 33.0771 0.955611 -1.80799 0
M  V30 369 H 31.2321 3.43877 -1.78402 0
M  V30 370 H 31.6461 3.39584 -3.99729 0
M  V30 371 H 33.1201 4.70139 -2.89263 0
M  V30 372 H 33.5971 4.20409 -1.27093 0
M  V30 373 H 34.2031 3.30281 -2.67945 0
M  V30 374 N 32.5182 1.22032 0.997298 0
M  V30 375 C 33.7662 1.04016 1.73278 0
M  V30 376 C 34.0872 -0.426255 1.90284 0
M  V30 377 O 33.3572 -1.30694 1.45931 0
M  V30 378 H 31.9372 0.381897 0.642 0
M  V30 379 H 34.5992 1.5347 1.20137 0
M  V30 380 H 33.6952 1.51441 2.72896 0
M  V30 381 N 33.9963 -1.19345 1.0293 0
M  V30 382 C 35.2243 -1.92997 0.745644 0
M  V30 383 C 35.6393 -1.75519 -0.695589 0
M  V30 384 O 34.9963 -1.07737 -1.47306 0
M  V30 385 C 35.0473 -3.44741 1.08792 0
M  V30 386 O 34.7683 -3.61658 2.47256 0
M  V30 387 C 36.2693 -4.35515 0.827129 0
M  V30 388 H 33.4893 -0.613042 0.272801 0
M  V30 389 H 36.0333 -1.51473 1.3739 0
M  V30 390 H 34.1883 -3.84097 0.504832 0
M  V30 391 H 34.6023 -4.55514 2.60015 0
M  V30 392 H 36.0763 -5.40589 1.11658 0
M  V30 393 H 36.5533 -4.38552 -0.238436 0
M  V30 394 H 37.1593 -4.01841 1.39297 0
M  V30 395 N 35.4744 -0.807222 -1.35358 0
M  V30 396 C 36.7224 -0.387122 -1.98358 0
M  V30 397 C 37.0434 1.04942 -1.64354 0
M  V30 398 O 36.3134 1.72615 -0.926339 0
M  V30 399 H 34.8934 -0.140154 -0.733734 0
M  V30 400 H 37.5554 -1.0332 -1.6526 0
M  V30 401 H 36.6514 -0.493352 -3.08176 0
M  V30 402 N 36.9525 1.47285 -0.560781 0
M  V30 403 C 38.1805 2.06855 -0.0430262 0
M  V30 404 C 38.5955 1.41291 1.25229 0
M  V30 405 O 37.9525 0.510648 1.7521 0
M  V30 406 C 38.0035 3.61178 0.152518 0
M  V30 407 O 37.7245 4.24285 -1.0915 0
M  V30 408 C 39.2255 4.37624 0.707145 0
M  V30 409 H 36.4455 0.669319 -0.0474652 0
M  V30 410 H 38.9895 1.89237 -0.77521 0
M  V30 411 H 37.1445 3.78298 0.834843 0
M  V30 412 H 37.5585 5.16868 -0.891482 0
M  V30 413 H 39.0325 5.46271 0.793244 0
M  V30 414 H 39.5095 4.04152 1.71923 0
M  V30 415 H 40.1155 4.25257 0.0604027 0
M  V30 416 N 38.4306 0.297415 1.54768 0
M  V30 417 C 39.3606 -0.573494 2.26348 0
M  V30 418 C 40.3416 -1.14085 1.26169 0
M  V30 419 O 41.5266 -1.17086 1.54934 0
M  V30 420 C 38.6566 -1.74716 3.00153 0
M  V30 421 C 37.6106 -1.31032 4.07449 0
M  V30 422 C 36.9366 -2.56887 4.68949 0
M  V30 423 C 38.2366 -0.444183 5.20408 0
M  V30 424 H 39.9306 0.0235131 2.99391 0
M  V30 425 H 37.4766 0.0127488 1.43994 0
M  V30 426 H 39.4296 -2.3625 3.48947 0
M  V30 427 H 38.1536 -2.37035 2.24682 0
M  V30 428 H 36.8126 -0.718066 3.59499 0
M  V30 429 H 36.4606 -3.17512 3.90122 0
M  V30 430 H 36.1606 -2.2836 5.41411 0
M  V30 431 H 37.6846 -3.19229 5.20505 0
M  V30 432 H 39.0986 -0.9651 5.65118 0
M  V30 433 H 37.4956 -0.252846 5.99567 0
M  V30 434 H 38.5656 0.531609 4.81977 0
M  V30 435 N 39.9087 -1.5758 0.0250728 0
M  V30 436 C 41.1337 -1.96337 -0.668317 0
M  V30 437 C 41.5587 -0.901314 -1.651 0
M  V30 438 O 40.9167 0.138187 -1.80773 0
M  V30 439 C 40.9647 -3.34191 -1.35457 0
M  V30 440 O 40.0687 -3.30269 -2.46974 0
M  V30 441 H 39.4097 -0.640281 -0.175887 0
M  V30 442 H 41.9397 -2.0442 0.0857224 0
M  V30 443 H 41.9497 -3.70331 -1.71228 0
M  V30 444 H 40.6247 -4.11036 -0.634218 0
M  V30 445 H 39.2017 -3.05841 -2.13344 0
M  V30 446 N 41.3868 0.248026 -1.55636 0
M  V30 447 C 42.6358 0.974134 -1.76617 0
M  V30 448 C 42.9488 1.86528 -0.588796 0
M  V30 449 O 44.1548 2.62805 -0.681594 0
M  V30 450 C 42.6108 1.78213 -3.12679 0
M  V30 451 C 42.2188 0.93843 -4.38061 0
M  V30 452 C 43.9628 2.50104 -3.42999 0
M  V30 453 C 41.8698 1.74225 -5.65155 0
M  V30 454 H 40.7998 0.36745 -0.658405 0
M  V30 455 H 43.4508 0.22884 -1.82067 0
M  V30 456 H 41.8328 2.56933 -3.01333 0
M  V30 457 H 43.0068 0.193635 -4.60393 0
M  V30 458 H 41.3218 0.332905 -4.15067 0
M  V30 459 H 43.9188 3.10694 -4.3517 0
M  V30 460 H 44.2618 3.21662 -2.64271 0
M  V30 461 H 44.7948 1.78395 -3.55556 0
M  V30 462 H 41.5338 1.07043 -6.46701 0
M  V30 463 H 41.0538 2.46235 -5.46926 0
M  V30 464 H 42.7328 2.30967 -6.0437 0
M  V30 465 N 42.8649 1.48995 0.513639 0
M  V30 466 C 44.1119 1.57843 1.26854 0
M  V30 467 C 44.4399 0.259501 1.92761 0
M  V30 468 O 43.6949 -0.75159 1.80692 0
M  V30 469 C 43.9939 2.67756 2.36731 0
M  V30 470 C 43.6599 4.09669 1.88368 0
M  V30 471 C 42.3219 4.48291 1.74896 0
M  V30 472 C 44.6739 4.98537 1.52021 0
M  V30 473 C 42.0019 5.73568 1.23438 0
M  V30 474 C 44.3539 6.24319 1.0202 0
M  V30 475 C 43.0179 6.61783 0.871778 0
M  V30 476 H 42.2879 0.577587 0.464192 0
M  V30 477 H 44.9349 1.82778 0.571366 0
M  V30 478 H 43.2399 2.36743 3.12185 0
M  V30 479 H 44.9369 2.71813 2.9482 0
M  V30 480 H 41.5269 3.79176 1.99808 0
M  V30 481 H 45.7109 4.69363 1.61281 0
M  V30 482 H 40.9669 6.01304 1.10648 0
M  V30 483 H 45.1409 6.92566 0.729722 0
M  V30 484 H 42.7679 7.5874 0.470852 0
M  V30 485 N 44.343 -0.763751 1.37857 0
M  V30 486 C 45.591 -1.51957 1.33243 0
M  V30 487 C 45.912 -1.94835 -0.0801709 0
M  V30 488 O 45.182 -1.66894 -1.02582 0
M  V30 489 H 43.762 -0.563626 0.49024 0
M  V30 490 H 46.424 -0.908504 1.7243 0
M  V30 491 H 45.52 -2.41523 1.97669 0
M  V30 492 N 45.8211 -1.22559 -0.990812 0
M  V30 493 C 46.7711 -0.964807 -2.0658 0
M  V30 494 C 47.7551 0.0853472 -1.60673 0
M  V30 495 O 48.9471 -0.125443 -1.76555 0
M  V30 496 C 46.0761 -0.546707 -3.38919 0
M  V30 497 C 45.1621 -1.6317 -3.91454 0
M  V30 498 N 45.5531 -2.85985 -4.17189 0
M  V30 499 C 43.8511 -1.50387 -4.19881 0
M  V30 500 C 44.5521 -3.56159 -4.59919 0
M  V30 501 N 43.5281 -2.83637 -4.63736 0
M  V30 502 H 47.3301 -1.89769 -2.24421 0
M  V30 503 H 44.8441 -1.12343 -1.17273 0
M  V30 504 H 46.8411 -0.34119 -4.15502 0
M  V30 505 H 45.5011 0.379254 -3.22478 0
M  V30 506 H 46.5121 -3.22392 -4.05319 0
M  V30 507 H 43.1891 -0.644254 -4.12499 0
M  V30 508 H 44.5791 -4.6139 -4.88435 0
M  V30 509 N 47.2992 1.18797 -1.03562 0
M  V30 510 C 48.2312 2.21731 -0.580337 0
M  V30 511 C 49.2442 1.59051 0.347349 0
M  V30 512 O 50.4332 1.77929 0.142669 0
M  V30 513 C 47.5332 3.38459 0.172805 0
M  V30 514 C 46.7062 4.3072 -0.761496 0
M  V30 515 C 45.7652 5.26174 -0.0525547 0
M  V30 516 O 44.7912 5.65108 -0.681333 0
M  V30 517 N 45.9932 5.67624 1.21586 0
M  V30 518 H 48.7582 2.61417 -1.46565 0
M  V30 519 H 46.3192 1.33531 -0.915476 0
M  V30 520 H 48.3112 3.99335 0.656793 0
M  V30 521 H 46.8812 2.97507 0.959602 0
M  V30 522 H 46.1012 3.67525 -1.42544 0
M  V30 523 H 47.3892 4.89267 -1.39626 0
M  V30 524 H 46.7872 5.38038 1.74732 0
M  V30 525 H 45.3442 6.30721 1.64421 0
M  V30 526 N 48.7773 0.814389 1.34928 0
M  V30 527 C 49.7103 0.175641 2.27523 0
M  V30 528 C 50.6883 -0.662953 1.48471 0
M  V30 529 O 51.8723 -0.628545 1.77712 0
M  V30 530 C 48.9993 -0.755516 3.30166 0
M  V30 531 C 48.0453 0.00445305 4.265 0
M  V30 532 S 48.8783 1.34582 5.18313 0
M  V30 533 C 50.0343 0.419315 6.24494 0
M  V30 534 H 50.2673 0.960691 2.8135 0
M  V30 535 H 47.8003 0.609846 1.41846 0
M  V30 536 H 49.7583 -1.28723 3.89796 0
M  V30 537 H 48.4193 -1.51402 2.75202 0
M  V30 538 H 47.6123 -0.703077 4.99072 0
M  V30 539 H 47.2143 0.466447 3.7108 0
M  V30 540 H 49.5063 -0.392432 6.76362 0
M  V30 541 H 50.4493 1.11446 6.99275 0
M  V30 542 H 50.8573 0.0115389 5.64499 0
M  V30 543 N 50.2554 -1.46986 0.568584 0
M  V30 544 C 51.6714 -1.57946 0.229189 0
M  V30 545 C 51.8714 -1.56567 -1.26843 0
M  V30 546 O 50.9274 -1.47511 -2.04931 0
M  V30 547 C 52.2404 -2.87963 0.865909 0
M  V30 548 C 53.7884 -3.01568 0.838188 0
M  V30 549 C 54.2634 -4.34301 1.45419 0
M  V30 550 N 55.7544 -4.40965 1.41788 0
M  V30 551 C 56.4894 -5.42256 1.86403 0
M  V30 552 N 55.9854 -6.50297 2.38926 0
M  V30 553 N 57.7784 -5.3337 1.77405 0
M  V30 554 H 49.9294 -1.46126 1.54146 0
M  V30 555 H 52.1924 -0.696156 0.643484 0
M  V30 556 H 51.8984 -2.94742 1.91886 0
M  V30 557 H 51.7724 -3.75423 0.365687 0
M  V30 558 H 54.1594 -2.94379 -0.206106 0
M  V30 559 H 54.2404 -2.1562 1.37629 0
M  V30 560 H 53.8844 -4.42247 2.49761 0
M  V30 561 H 53.8144 -5.19 0.891435 0
M  V30 562 H 56.3054 -3.63484 1.03381 0
M  V30 563 H 56.6184 -7.23777 2.70863 0
M  V30 564 H 54.9634 -6.51155 2.42944 0
M  V30 565 H 58.1544 -4.47865 1.3614 0
M  V30 566 H 58.3274 -6.12169 2.12492 0
M  V30 567 N 51.7335 -0.305618 -1.54608 0
M  V30 568 C 52.9805 0.302298 -2.00231 0
M  V30 569 C 53.3085 1.5354 -1.19398 0
M  V30 570 O 52.5635 1.93973 -0.259423 0
M  V30 571 C 52.8625 0.698983 -3.50498 0
M  V30 572 C 52.5285 -0.432903 -4.48817 0
M  V30 573 C 51.1905 -0.743622 -4.75419 0
M  V30 574 C 53.5425 -1.19409 -5.07337 0
M  V30 575 C 50.8705 -1.81857 -5.57804 0
M  V30 576 C 53.2225 -2.25899 -5.90891 0
M  V30 577 C 51.8865 -2.57572 -6.15803 0
M  V30 578 H 51.1565 0.110619 -0.732697 0
M  V30 579 H 53.8035 -0.425674 -1.86709 0
M  V30 580 H 52.1085 1.50711 -3.61654 0
M  V30 581 H 53.8055 1.1806 -3.83227 0
M  V30 582 H 50.3955 -0.18063 -4.28219 0
M  V30 583 H 54.5795 -0.967295 -4.86782 0
M  V30 584 H 49.8355 -2.06864 -5.75341 0
M  V30 585 H 54.0095 -2.85335 -6.35261 0
M  V30 586 H 51.6365 -3.40998 -6.7943 0
M  V30 587 N 53.2116 1.57565 -0.0334293 0
M  V30 588 C 54.1596 2.1164 0.96496 0
M  V30 589 C 55.1536 1.04398 1.33407 0
M  V30 590 O 56.3596 1.22828 1.3158 0
M  V30 591 H 52.7346 0.676222 0.32898 0
M  V30 592 H 54.7056 2.94455 0.483614 0
M  V30 593 C 53.4546 2.66207 2.23672 0
M  V30 594 H 52.7776 3.48378 1.96145 0
M  V30 595 H 54.2176 3.07685 2.9173 0
M  V30 596 C 52.6766 1.59151 2.96939 0
M  V30 597 O 53.2066 0.993858 3.89211 0
M  V30 598 N 51.4126 1.31093 2.59351 0
M  V30 599 H 50.9596 1.7988 1.84393 0
M  V30 600 H 50.9176 0.596889 3.08682 0
M  V30 601 N 54.6897 -0.239769 1.55765 0
M  V30 602 C 55.6197 -1.30052 1.9393 0
M  V30 603 C 56.6007 -1.49839 0.805132 0
M  V30 604 O 57.7857 -1.62328 1.06599 0
M  V30 605 C 54.9157 -2.65391 2.2402 0
M  V30 606 C 53.8697 -2.60289 3.39755 0
M  V30 607 C 53.1957 -3.99489 3.55405 0
M  V30 608 C 54.4957 -2.16654 4.75246 0
M  V30 609 H 56.1897 -0.983573 2.82783 0
M  V30 610 H 53.7357 -0.471701 1.36055 0
M  V30 611 H 55.6887 -3.3974 2.49308 0
M  V30 612 H 54.4127 -2.98736 1.32 0
M  V30 613 H 53.0717 -1.88398 3.14487 0
M  V30 614 H 52.7197 -4.30112 2.60793 0
M  V30 615 H 52.4197 -3.96962 4.33238 0
M  V30 616 H 53.9437 -4.75528 3.83022 0
M  V30 617 H 55.3577 -2.80737 4.99859 0
M  V30 618 H 53.7547 -2.25223 5.56232 0
M  V30 619 H 54.8247 -1.11835 4.71827 0
M  V30 620 N 56.1678 -1.49265 -0.50573 0
M  V30 621 C 57.0998 -1.617 -1.62437 0
M  V30 622 C 58.1128 -0.499924 -1.54934 0
M  V30 623 O 59.3018 -0.771785 -1.60953 0
M  V30 624 C 56.4018 -1.5533 -3.01207 0
M  V30 625 C 55.5748 -2.8249 -3.33943 0
M  V30 626 C 54.6338 -2.69238 -4.52103 0
M  V30 627 O 53.6598 -3.43167 -4.5412 0
M  V30 628 N 54.8618 -1.80468 -5.51735 0
M  V30 629 H 57.6268 -2.58177 -1.52199 0
M  V30 630 H 55.1878 -1.46294 -0.693511 0
M  V30 631 H 57.1798 -1.44125 -3.78167 0
M  V30 632 H 55.7498 -0.667297 -3.05395 0
M  V30 633 H 54.9698 -3.08081 -2.45926 0
M  V30 634 H 56.2578 -3.66802 -3.5261 0
M  V30 635 H 55.6558 -1.19653 -5.52901 0
M  V30 636 H 54.2128 -1.75188 -6.27816 0
M  V30 637 N 57.6459 0.756429 -1.3826 0
M  V30 638 C 58.9229 1.50584 -1.24835 0
M  V30 639 C 59.3029 2.10556 0.151485 0
M  V30 640 O 58.6509 1.96825 1.1607 0
M  V30 641 C 58.8609 2.57448 -2.3563 0
M  V30 642 C 60.2089 3.24429 -2.73917 0
M  V30 643 O 61.2329 2.67751 -2.34921 0
M  V30 644 O 60.0919 4.26937 -3.41156 0
M  V30 645 H 57.1859 0.667664 -0.48801 0
M  V30 646 H 59.7319 0.792083 -1.5008 0
M  V30 647 H 58.5039 2.11362 -3.29305 0
M  V30 648 H 58.1269 3.36408 -2.11933 0
M  V30 649 N 59.124 1.23083 0.984299 0
M  V30 650 C 60.372 1.05848 1.72165 0
M  V30 651 C 60.693 -0.406049 1.90726 0
M  V30 652 O 59.963 -1.29139 1.47309 0
M  V30 653 H 58.543 0.388685 0.637913 0
M  V30 654 H 61.205 1.54736 1.18503 0
M  V30 655 H 60.301 1.54327 2.71274 0
M  V30 656 N 60.6021 -1.18246 1.0419 0
M  V30 657 C 61.8491 -1.88257 0.746017 0
M  V30 658 C 62.1771 -1.80429 -0.726331 0
M  V30 659 O 61.4321 -1.2 -1.54591 0
M  V30 660 C 61.7311 -3.38082 1.15911 0
M  V30 661 C 61.3971 -3.66114 2.63195 0
M  V30 662 C 60.0591 -3.73474 3.03432 0
M  V30 663 C 62.4111 -3.78398 3.5842 0
M  V30 664 C 59.7391 -3.90599 4.37778 0
M  V30 665 C 62.0911 -3.97039 4.92487 0
M  V30 666 C 60.7551 -4.02635 5.32392 0
M  V30 667 H 60.0251 -0.688883 0.272987 0
M  V30 668 H 62.6721 -1.3995 1.30715 0
M  V30 669 H 60.9771 -3.88377 0.516806 0
M  V30 670 H 62.6741 -3.90596 0.907516 0
M  V30 671 H 59.2641 -3.61003 2.3103 0
M  V30 672 H 63.4481 -3.72042 3.28479 0
M  V30 673 H 58.7041 -3.93175 4.68213 0
M  V30 674 H 62.8781 -4.05486 5.66175 0
M  V30 675 H 60.5051 -4.15657 6.36501 0
M  V30 676 N 62.0802 -0.821533 -1.34494 0
M  V30 677 C 63.4912 -0.467956 -1.8074 0
M  V30 678 C 63.8422 1.01151 -1.68116 0
M  V30 679 O 62.9672 1.78707 -1.22036 0
M  V30 680 C 63.5622 -0.842627 -3.28154 0
M  V30 681 C 62.1212 -0.541439 -3.72485 0
M  V30 682 C 61.2682 -1.06028 -2.56229 0
M  V30 683 H 64.2192 -1.01183 -1.22261 0
M  V30 684 H 64.2402 -0.145876 -3.8022 0
M  V30 685 H 63.7522 -1.91945 -3.37311 0
M  V30 686 H 61.8532 0.526034 -3.68868 0
M  V30 687 H 61.9662 -1.08453 -4.66663 0
M  V30 688 H 60.3302 -0.481892 -2.501 0
M  V30 689 H 61.1132 -2.14352 -2.68157 0
M  V30 690 N 63.5583 1.46682 -0.576371 0
M  V30 691 C 64.4883 2.33028 0.148397 0
M  V30 692 C 65.4693 1.44961 0.889956 0
M  V30 693 O 66.6543 1.73789 0.866662 0
M  V30 694 C 63.7843 3.27117 1.1667 0
M  V30 695 C 62.7383 4.24575 0.540386 0
M  V30 696 C 62.0643 5.08126 1.6647 0
M  V30 697 C 63.3643 5.19722 -0.518331 0
M  V30 698 H 65.0583 2.93875 -0.572509 0
M  V30 699 H 62.6043 1.41315 -0.276768 0
M  V30 700 H 64.5573 3.86374 1.68204 0
M  V30 701 H 63.2813 2.64364 1.9178 0
M  V30 702 H 61.9403 3.66571 0.0461769 0
M  V30 703 H 61.5883 4.41762 2.40531 0
M  V30 704 H 61.2883 5.74122 1.25131 0
M  V30 705 H 62.8123 5.70246 2.18293 0
M  V30 706 H 64.2263 5.73232 -0.0883058 0
M  V30 707 H 62.6233 5.94026 -0.851679 0
M  V30 708 H 63.6933 4.64037 -1.40703 0
M  V30 709 N 65.0364 0.313813 1.54444 0
M  V30 710 C 66.2824 -0.292108 2.00685 0
M  V30 711 C 66.6154 -1.52548 1.20177 0
M  V30 712 O 65.8904 -1.92452 0.281531 0
M  V30 713 C 66.1734 -0.635968 3.5444 0
M  V30 714 C 66.0264 0.607437 4.4568 0
M  V30 715 C 67.3454 -1.45747 4.15266 0
M  V30 716 H 64.4644 -0.104697 0.729526 0
M  V30 717 H 67.1064 0.428457 1.85106 0
M  V30 718 H 65.2564 -1.24986 3.67846 0
M  V30 719 H 66.9284 1.24581 4.44159 0
M  V30 720 H 65.1714 1.23822 4.15753 0
M  V30 721 H 65.8424 0.322515 5.51057 0
M  V30 722 H 68.3184 -0.938645 4.05375 0
M  V30 723 H 67.1944 -1.66683 5.2298 0
M  V30 724 H 67.4554 -2.45063 3.67963 0
M  V30 725 N 66.5145 -1.57545 0.0417849 0
M  V30 726 C 67.7425 -1.96624 -0.643928 0
M  V30 727 C 68.1575 -0.918897 -1.64929 0
M  V30 728 O 67.5145 0.0979323 -1.82237 0
M  V30 729 C 67.5655 -3.35781 -1.33914 0
M  V30 730 O 67.2865 -4.365 -0.374048 0
M  V30 731 C 68.7875 -3.89566 -2.1155 0
M  V30 732 H 66.0075 -0.647316 -0.176702 0
M  V30 733 H 68.5515 -2.04229 0.105304 0
M  V30 734 H 66.7065 -3.29357 -2.03968 0
M  V30 735 H 67.1205 -5.17248 -0.869179 0
M  V30 736 H 68.5945 -4.89242 -2.55628 0
M  V30 737 H 69.0715 -3.24488 -2.9598 0
M  V30 738 H 69.6775 -3.99298 -1.46427 0
M  V30 739 N 67.9926 0.231505 -1.5589 0
M  V30 740 C 69.2206 0.974505 -1.82513 0
M  V30 741 C 69.6356 1.78344 -0.619591 0
M  V30 742 O 68.9926 1.77792 0.411848 0
M  V30 743 C 69.0436 1.90007 -3.07538 0
M  V30 744 O 68.7646 1.12385 -4.2344 0
M  V30 745 C 70.2656 2.75779 -3.47075 0
M  V30 746 H 67.4856 0.286065 -0.606966 0
M  V30 747 H 70.0296 0.249739 -2.02969 0
M  V30 748 H 68.1846 2.57891 -2.89086 0
M  V30 749 H 68.5986 1.75125 -4.944 0
M  V30 750 H 70.0726 3.36443 -4.37619 0
M  V30 751 H 70.5496 3.47672 -2.68367 0
M  V30 752 H 71.1556 2.13323 -3.67931 0
M  V30 753 N 69.4707 1.49531 0.497807 0
M  V30 754 C 70.4177 1.66436 1.59899 0
M  V30 755 C 71.3877 0.505793 1.58212 0
M  V30 756 O 72.5727 0.733202 1.7615 0
M  V30 757 C 69.7127 1.7399 2.98029 0
M  V30 758 C 68.8257 3.01172 3.09708 0
M  V30 759 C 67.9607 2.99686 4.38591 0
M  V30 760 C 66.9997 4.21434 4.43914 0
M  V30 761 N 66.1367 4.1784 5.64229 0
M  V30 762 H 70.9767 2.60459 1.44793 0
M  V30 763 H 68.5137 1.29137 0.704423 0
M  V30 764 H 70.4717 1.76352 3.78095 0
M  V30 765 H 69.1017 0.834301 3.11832 0
M  V30 766 H 68.1537 3.08408 2.22685 0
M  V30 767 H 69.4657 3.91165 3.09502 0
M  V30 768 H 68.6197 3.00628 5.2698 0
M  V30 769 H 67.3587 2.07477 4.41367 0
M  V30 770 H 66.3637 4.20733 3.53926 0
M  V30 771 H 67.5887 5.14839 4.42851 0
M  V30 772 H 65.5347 3.28469 5.67841 0
M  V30 773 H 65.4517 5.01571 5.65652 0
M  V30 774 H 66.7197 4.22889 6.54817 0
M  V30 775 N 70.9488 -0.749086 1.3866 0
M  V30 776 C 72.3648 -1.05276 1.19955 0
M  V30 777 C 72.5648 -2.01435 0.05134 0
M  V30 778 O 71.6208 -2.45232 -0.60147 0
M  V30 779 C 72.9338 -1.62853 2.52783 0
M  V30 780 C 74.4818 -1.75002 2.59506 0
M  V30 781 C 74.9568 -2.35991 3.92521 0
M  V30 782 N 76.4478 -2.43416 3.94085 0
M  V30 783 C 77.1828 -2.91511 4.9377 0
M  V30 784 N 76.6788 -3.39608 6.03853 0
M  V30 785 N 78.4718 -2.90592 4.81157 0
M  V30 786 H 70.6228 -0.111066 2.12109 0
M  V30 787 H 72.8858 -0.111901 0.941373 0
M  V30 788 H 72.5918 -0.99664 3.37283 0
M  V30 789 H 72.4658 -2.61854 2.715 0
M  V30 790 H 74.8528 -2.37317 1.75398 0
M  V30 791 H 74.9338 -0.74693 2.44652 0
M  V30 792 H 74.5778 -1.74308 4.77053 0
M  V30 793 H 74.5078 -3.3695 4.04688 0
M  V30 794 H 76.9988 -2.09405 3.14576 0
M  V30 795 H 77.3118 -3.74775 6.75843 0
M  V30 796 H 75.6568 -3.37653 6.07466 0
M  V30 797 H 78.8478 -2.52332 3.94267 0
M  V30 798 H 79.0208 -3.27762 5.58996 0
M  V30 799 N 72.4269 -1.23603 -0.977757 0
M  V30 800 C 73.6669 -1.08148 -1.73446 0
M  V30 801 C 74.0309 0.374785 -1.88307 0
M  V30 802 O 75.2319 0.650588 -2.60808 0
M  V30 803 C 73.5029 -1.78991 -3.0935 0
M  V30 804 S 75.0619 -1.79141 -4.00567 0
M  V30 805 H 71.8799 -0.386987 -0.596458 0
M  V30 806 H 74.4819 -1.5678 -1.16792 0
M  V30 807 H 73.1859 -2.8408 -2.96187 0
M  V30 808 H 72.7169 -1.30651 -3.71071 0
M  V30 809 H 74.7319 -0.851892 -4.88833 0
M  V30 810 N 73.905 1.17692 -1.04816 0
M  V30 811 C 74.855 2.1952 -0.616042 0
M  V30 812 C 75.839 1.57147 0.345485 0
M  V30 813 O 77.031 1.76245 0.163325 0
M  V30 814 C 74.16 3.43298 0.0116917 0
M  V30 815 C 73.246 4.12777 -0.973435 0
M  V30 816 N 73.637 4.5814 -2.14339 0
M  V30 817 C 71.935 4.38747 -0.80108 0
M  V30 818 C 72.636 5.11713 -2.7663 0
M  V30 819 N 71.612 5.03686 -2.04453 0
M  V30 820 H 75.414 2.52293 -1.5075 0
M  V30 821 H 72.928 1.3398 -0.917776 0
M  V30 822 H 74.925 4.15519 0.339006 0
M  V30 823 H 73.585 3.12018 0.898593 0
M  V30 824 H 74.596 4.52349 -2.52191 0
M  V30 825 H 71.273 4.17485 0.0350934 0
M  V30 826 H 72.663 5.56962 -3.75823 0
M  V30 827 N 75.3831 0.828654 1.34056 0
M  V30 828 C 76.3131 0.269443 2.3194 0
M  V30 829 C 77.2941 -0.617247 1.58506 0
M  V30 830 O 78.4791 -0.542931 1.86456 0
M  V30 831 C 75.6091 -0.564793 3.42677 0
M  V30 832 C 74.5631 0.225241 4.27407 0
M  V30 833 C 73.8891 -0.7321 5.29664 0
M  V30 834 C 75.1891 1.43663 5.02154 0
M  V30 835 H 76.8831 1.08728 2.7896 0
M  V30 836 H 74.4291 0.524283 1.34117 0
M  V30 837 H 76.3821 -0.966233 4.10173 0
M  V30 838 H 75.1061 -1.41574 2.9432 0
M  V30 839 H 73.7651 0.608117 3.61521 0
M  V30 840 H 73.4131 -1.57916 4.77568 0
M  V30 841 H 73.1131 -0.20767 5.87233 0
M  V30 842 H 74.6371 -1.13128 6.00029 0
M  V30 843 H 76.0511 1.1089 5.62473 0
M  V30 844 H 74.4481 1.89711 5.69324 0
M  V30 845 H 75.5181 2.21181 4.31517 0
M  V30 846 N 76.8612 -1.46375 0.584142 0
M  V30 847 C 78.2772 -1.57694 0.245929 0
M  V30 848 C 78.4772 -1.57903 -1.25175 0
M  V30 849 O 77.5332 -1.49676 -2.03355 0
M  V30 850 C 78.8462 -2.87028 0.896402 0
M  V30 851 C 80.3942 -3.00662 0.870127 0
M  V30 852 C 80.8692 -4.32734 1.50017 0
M  V30 853 N 82.3602 -4.39436 1.46458 0
M  V30 854 C 83.0952 -5.40248 1.92144 0
M  V30 855 N 82.5912 -6.47726 2.4581 0
M  V30 856 N 84.3842 -5.31459 1.83052 0
M  V30 857 H 76.5352 -1.44483 1.55687 0
M  V30 858 H 78.7982 -0.689291 0.650831 0
M  V30 859 H 78.5042 -2.9269 1.95002 0
M  V30 860 H 78.3782 -3.75014 0.405486 0
M  V30 861 H 80.7652 -2.94581 -0.174871 0
M  V30 862 H 80.8462 -2.14148 1.39908 0
M  V30 863 H 80.4902 -4.39573 2.54437 0
M  V30 864 H 80.4202 -5.18025 0.946432 0
M  V30 865 H 82.9112 -3.62367 1.07231 0
M  V30 866 H 83.2242 -7.20863 2.78525 0
M  V30 867 H 81.5692 -6.48542 2.49836 0
M  V30 868 H 84.7602 -4.46396 1.40883 0
M  V30 869 H 84.9332 -6.09881 2.18973 0
M  V30 870 N 78.3393 -0.321999 -1.54275 0
M  V30 871 C 79.5643 0.285791 -2.05422 0
M  V30 872 C 79.9893 1.45124 -1.19669 0
M  V30 873 O 79.3473 1.80132 -0.205441 0
M  V30 874 C 79.3953 0.69956 -3.53749 0
M  V30 875 O 78.4993 1.8021 -3.70942 0
M  V30 876 H 77.8403 0.0518962 -0.661969 0
M  V30 877 H 80.3703 -0.469954 -1.9913 0
M  V30 878 H 80.3803 0.982649 -3.9599 0
M  V30 879 H 79.0553 -0.152864 -4.15619 0
M  V30 880 H 77.6323 1.51794 -3.40607 0
M  V30 881 N 79.8174 1.5752 -0.0501392 0
M  V30 882 C 81.0664 1.91827 0.623328 0
M  V30 883 C 81.3794 0.930222 1.72065 0
M  V30 884 O 82.5854 1.1653 2.4522 0
M  V30 885 C 81.0414 3.40692 1.16003 0
M  V30 886 C 80.6494 4.479 0.0948811 0
M  V30 887 C 82.3934 3.84034 1.80881 0
M  V30 888 C 80.3004 5.87879 0.644411 0
M  V30 889 H 79.2304 0.715918 0.236596 0
M  V30 890 H 81.8814 1.83115 -0.118861 0
M  V30 891 H 80.2634 3.44405 1.9545 0
M  V30 892 H 81.4374 4.55775 -0.678675 0
M  V30 893 H 79.7524 4.13892 -0.45637 0
M  V30 894 H 82.3494 4.85984 2.22988 0
M  V30 895 H 82.6924 3.20225 2.6601 0
M  V30 896 H 83.2254 3.82833 1.0809 0
M  V30 897 H 79.9644 6.55282 -0.169229 0
M  V30 898 H 79.4844 5.83567 1.38598 0
M  V30 899 H 81.1634 6.37098 1.12763 0
M  V30 900 N 81.2955 -0.223234 1.56011 0
M  V30 901 C 82.5445 -0.945912 1.78144 0
M  V30 902 C 82.8575 -1.85567 0.618396 0
M  V30 903 O 84.0635 -2.61688 0.723318 0
M  V30 904 C 82.5195 -1.73216 3.15475 0
M  V30 905 C 82.1275 -0.868619 4.39499 0
M  V30 906 C 83.8715 -2.44615 3.46935 0
M  V30 907 C 81.7785 -1.65212 5.67855 0
M  V30 908 H 80.7085 -0.356929 0.664167 0
M  V30 909 H 83.3595 -0.199845 1.82409 0
M  V30 910 H 81.7415 -2.52107 3.05382 0
M  V30 911 H 82.9155 -0.120366 4.60643 0
M  V30 912 H 81.2305 -0.26683 4.15544 0
M  V30 913 H 83.8275 -3.03732 4.40058 0
M  V30 914 H 84.1705 -3.17417 2.69355 0
M  V30 915 H 84.7035 -1.72715 3.58349 0
M  V30 916 H 81.4425 -0.967407 6.48322 0
M  V30 917 H 80.9625 -2.37503 5.50774 0
M  V30 918 H 82.6415 -2.21322 6.07968 0
M  V30 919 N 82.7736 -1.49793 -0.48987 0
M  V30 920 C 83.7236 -1.63673 -1.5873 0
M  V30 921 C 84.7076 -0.491956 -1.53195 0
M  V30 922 O 85.8996 -0.745461 -1.60536 0
M  V30 923 C 83.0286 -1.71689 -2.97284 0
M  V30 924 C 82.1146 -2.91781 -3.07774 0
M  V30 925 N 82.5056 -4.15714 -2.88124 0
M  V30 926 C 80.8036 -2.89949 -3.38889 0
M  V30 927 C 81.5046 -4.965 -3.03088 0
M  V30 928 N 80.4806 -4.30083 -3.3246 0
M  V30 929 H 84.2826 -2.57204 -1.42208 0
M  V30 930 H 81.7966 -1.46719 -0.69623 0
M  V30 931 H 83.7936 -1.79732 -3.76168 0
M  V30 932 H 82.4536 -0.793024 -3.14867 0
M  V30 933 H 83.4646 -4.45515 -2.64077 0
M  V30 934 H 80.1416 -2.06987 -3.62578 0
M  V30 935 H 81.5316 -6.04991 -2.92294 0
M  V30 936 N 84.2517 0.741722 -1.39055 0
M  V30 937 C 85.1617 1.88621 -1.39496 0
M  V30 938 C 86.1777 1.71557 -0.290578 0
M  V30 939 O 87.3537 1.94275 -0.530954 0
M  V30 940 C 84.4187 3.24134 -1.23037 0
M  V30 941 C 83.4797 3.5364 -2.43387 0
M  V30 942 C 82.7127 4.82687 -2.27703 0
M  V30 943 O 82.9357 5.55922 -1.27696 0
M  V30 944 O 81.8697 5.1194 -3.16545 0
M  V30 945 H 85.6957 1.91203 -2.35956 0
M  V30 946 H 83.2807 0.888625 -1.20099 0
M  V30 947 H 85.1627 4.0513 -1.15964 0
M  V30 948 H 83.8377 3.22337 -0.296691 0
M  V30 949 H 82.7447 2.72758 -2.56035 0
M  V30 950 H 84.0777 3.60209 -3.35425 0
M  V30 951 N 85.7298 1.2412 0.971189 0
M  V30 952 C 86.6598 1.05508 2.08304 0
M  V30 953 C 87.6408 -0.0308864 1.70072 0
M  V30 954 O 88.8258 0.135521 1.93727 0
M  V30 955 C 85.9558 0.655365 3.4106 0
M  V30 956 C 84.9098 1.68971 3.93234 0
M  V30 957 C 84.2358 1.14516 5.22293 0
M  V30 958 C 85.5358 3.08487 4.21465 0
M  V30 959 H 87.2298 1.98507 2.24132 0
M  V30 960 H 84.7758 0.955821 1.07704 0
M  V30 961 H 86.7288 0.51217 4.18276 0
M  V30 962 H 85.4528 -0.31032 3.25122 0
M  V30 963 H 84.1118 1.82106 3.18171 0
M  V30 964 H 83.7598 0.170189 5.02712 0
M  V30 965 H 83.4598 1.83635 5.58168 0
M  V30 966 H 84.9838 1.01401 6.02121 0
M  V30 967 H 86.3978 2.98601 4.89398 0
M  V30 968 H 84.7948 3.74926 4.68562 0
M  V30 969 H 85.8648 3.56787 3.28376 0
M  V30 970 N 87.2079 -1.17134 1.05439 0
M  V30 971 C 88.1379 -2.2342 0.678649 0
M  V30 972 C 89.1189 -1.66971 -0.32476 0
M  V30 973 O 90.3039 -1.93149 -0.201802 0
M  V30 974 C 87.4339 -3.47256 0.0552099 0
M  V30 975 C 86.3879 -4.16543 0.98365 0
M  V30 976 C 85.7139 -5.34231 0.223961 0
M  V30 977 C 87.0139 -4.68495 2.3089 0
M  V30 978 H 88.7079 -2.55105 1.56722 0
M  V30 979 H 86.2539 -1.2262 0.754998 0
M  V30 980 H 88.2069 -4.20828 -0.21946 0
M  V30 981 H 86.9309 -3.14846 -0.868319 0
M  V30 982 H 85.5899 -3.44887 1.24293 0
M  V30 983 H 85.2379 -4.98071 -0.702412 0
M  V30 984 H 84.9379 -5.81527 0.842627 0
M  V30 985 H 86.4619 -6.10585 -0.0433671 0
M  V30 986 H 87.8759 -5.33691 2.09396 0
M  V30 987 H 86.2729 -5.26379 2.88176 0
M  V30 988 H 87.3429 -3.85169 2.94572 0
M  V30 989 N 88.686 -0.835752 -1.33615 0
M  V30 990 C 89.932 -0.439817 -1.98588 0
M  V30 991 C 90.287 0.989274 -1.65019 0
M  V30 992 O 89.58 1.68168 -0.918159 0
M  V30 993 C 89.774 -0.593925 -3.52431 0
M  V30 994 C 89.603 -2.03644 -4.00948 0
M  V30 995 C 88.373 -2.67103 -4.28934 0
M  V30 996 C 90.571 -3.00479 -4.17393 0
M  V30 997 N 88.553 -4.02462 -4.6357 0
M  V30 998 C 89.924 -4.20777 -4.55353 0
M  V30 999 C 91.979 -2.96926 -3.99674 0
M  V30 1000 C 90.682 -5.37994 -4.77447 0
M  V30 1001 C 92.708 -4.1337 -4.22941 0
M  V30 1002 C 92.07 -5.32422 -4.61201 0
M  V30 1003 H 88.169 -0.209303 -0.75347 0
M  V30 1004 H 90.753 -1.08316 -1.61789 0
M  V30 1005 H 88.924 0.019599 -3.88395 0
M  V30 1006 H 90.656 -0.169738 -4.04344 0
M  V30 1007 H 87.411 -2.18259 -4.20309 0
M  V30 1008 H 87.835 -4.72232 -4.85104 0
M  V30 1009 H 92.477 -2.06015 -3.69212 0
M  V30 1010 H 90.195 -6.29451 -5.06771 0
M  V30 1011 H 93.781 -4.12034 -4.10754 0
M  V30 1012 H 92.661 -6.21027 -4.78848 0
M  V30 1013 N 90.1641 1.46063 -0.591896 0
M  V30 1014 C 91.4111 2.02338 -0.0809991 0
M  V30 1015 C 91.7391 1.46228 1.28249 0
M  V30 1016 O 90.9941 0.620818 1.85592 0
M  V30 1017 C 91.2931 3.57391 0.0249813 0
M  V30 1018 C 90.9591 4.32583 -1.27211 0
M  V30 1019 C 89.6211 4.52844 -1.62745 0
M  V30 1020 C 91.9731 4.75687 -2.13005 0
M  V30 1021 C 89.3011 5.13462 -2.83855 0
M  V30 1022 C 91.6531 5.37644 -3.3335 0
M  V30 1023 C 90.3171 5.5613 -3.69155 0
M  V30 1024 H 89.5871 0.740407 -0.0296397 0
M  V30 1025 H 92.2341 1.75321 -0.770374 0
M  V30 1026 H 90.5391 3.83597 0.797537 0
M  V30 1027 H 92.2361 3.98621 0.436184 0
M  V30 1028 H 88.8261 4.17116 -0.985499 0
M  V30 1029 H 93.0101 4.59782 -1.86855 0
M  V30 1030 H 88.2661 5.25965 -3.11722 0
M  V30 1031 H 92.4401 5.7 -4.00092 0
M  V30 1032 H 90.0671 6.0287 -4.63089 0
M  V30 1033 N 91.6422 0.330177 1.54103 0
M  V30 1034 C 92.5722 -0.525353 2.27513 0
M  V30 1035 C 93.5532 -1.11383 1.2856 0
M  V30 1036 O 94.7382 -1.13773 1.57383 0
M  V30 1037 C 91.8682 -1.6831 3.03791 0
M  V30 1038 C 90.8222 -1.2236 4.10137 0
M  V30 1039 C 90.1482 -2.46882 4.74293 0
M  V30 1040 C 91.4482 -0.333697 5.21233 0
M  V30 1041 H 93.1422 0.087013 2.99274 0
M  V30 1042 H 90.6882 0.0432893 1.43935 0
M  V30 1043 H 92.6412 -2.28795 3.5388 0
M  V30 1044 H 91.3652 -2.32216 2.29659 0
M  V30 1045 H 90.0242 -0.64165 3.60941 0
M  V30 1046 H 89.6722 -3.09165 3.96769 0
M  V30 1047 H 89.3722 -2.16825 5.46133 0
M  V30 1048 H 90.8962 -3.08117 5.27159 0
M  V30 1049 H 92.3102 -0.845013 5.67038 0
M  V30 1050 H 90.7072 -0.125612 5.99969 0
M  V30 1051 H 91.7772 0.633724 4.80741 0
M  V30 1052 N 93.1203 -1.57491 0.0584922 0
M  V30 1053 C 94.0523 -2.08916 -0.942694 0
M  V30 1054 C 95.0653 -1.0185 -1.27006 0
M  V30 1055 O 96.2543 -1.29398 -1.22957 0
M  V30 1056 C 93.3543 -2.52341 -2.26224 0
M  V30 1057 C 92.5273 -3.82827 -2.1157 0
M  V30 1058 C 91.5863 -4.12487 -3.26712 0
M  V30 1059 O 90.6123 -4.82295 -3.02292 0
M  V30 1060 N 91.8143 -3.64978 -4.5141 0
M  V30 1061 H 94.5793 -2.95437 -0.503722 0
M  V30 1062 H 92.1403 -1.61397 -0.12757 0
M  V30 1063 H 94.1323 -2.69254 -3.02133 0
M  V30 1064 H 92.7023 -1.7103 -2.61663 0
M  V30 1065 H 91.9223 -3.75425 -1.20208 0
M  V30 1066 H 93.2103 -4.68263 -1.99015 0
M  V30 1067 H 92.6083 -3.08558 -4.7414 0
M  V30 1068 H 91.1653 -3.87115 -5.2439 0
M  V30 1069 N 94.5984 0.214957 -1.56127 0
M  V30 1070 C 95.8464 0.936518 -1.79091 0
M  V30 1071 C 96.1674 1.84606 -0.628148 0
M  V30 1072 O 95.4374 1.92664 0.35462 0
M  V30 1073 H 94.0174 0.3488 -0.660566 0
M  V30 1074 H 96.6794 0.22523 -1.93594 0
M  V30 1075 H 95.7754 1.53943 -2.71492 0
M  V30 1076 N 96.0765 1.50051 0.48192 0
M  V30 1077 C 97.3535 1.51009 1.2432 0
M  V30 1078 C 97.7335 0.248587 2.09631 0
M  V30 1079 O 97.0815 -0.768409 2.15192 0
M  V30 1080 C 97.2915 2.79981 2.08355 0
M  V30 1081 C 98.6395 3.3022 2.66908 0
M  V30 1082 O 99.6635 2.81228 2.18607 0
M  V30 1083 O 98.5225 4.15595 3.54884 0
M  V30 1084 H 95.6165 0.605239 0.563573 0
M  V30 1085 H 98.1625 1.62332 0.494627 0
M  V30 1086 H 96.9345 3.63275 1.45419 0
M  V30 1087 H 96.5575 2.7161 2.90368 0
M  V30 1088 N 97.5546 -0.734337 1.39446 0
M  V30 1089 C 98.7826 -1.52358 1.39981 0
M  V30 1090 C 99.1976 -1.88799 -0.0054975 0
M  V30 1091 O 98.5546 -1.54146 -0.976998 0
M  V30 1092 C 98.6056 -2.81072 2.27333 0
M  V30 1093 O 98.3266 -2.46178 3.62392 0
M  V30 1094 C 99.8276 -3.75096 2.36259 0
M  V30 1095 H 97.0476 -0.470806 0.478103 0
M  V30 1096 H 99.5916 -0.907339 1.83269 0
M  V30 1097 H 97.7466 -3.39026 1.87457 0
M  V30 1098 H 98.1606 -3.28866 4.08592 0
M  V30 1099 H 99.6346 -4.62305 3.01626 0
M  V30 1100 H 100.112 -4.16892 1.38194 0
M  V30 1101 H 100.718 -3.23061 2.76608 0
M  V30 1102 N 99.0327 -1.24633 -0.964593 0
M  V30 1103 C 99.9807 -1.03917 -2.08096 0
M  V30 1104 C 100.975 0.0268581 -1.69379 0
M  V30 1105 O 102.181 -0.127952 -1.79545 0
M  V30 1106 H 98.5557 -0.319044 -0.680966 0
M  V30 1107 H 100.527 -1.98581 -2.22729 0
M  V30 1108 C 99.2757 -0.663983 -3.41301 0
M  V30 1109 H 98.5987 -1.47605 -3.71555 0
M  V30 1110 H 100.039 -0.558663 -4.20303 0
M  V30 1111 C 98.4977 0.629169 -3.30973 0
M  V30 1112 O 99.0277 1.67404 -3.65156 0
M  V30 1113 N 97.2337 0.611057 -2.84103 0
M  V30 1114 H 96.7807 -0.239593 -2.56483 0
M  V30 1115 H 96.7387 1.47647 -2.77575 0
M  V30 1116 N 100.511 1.16574 -1.06058 0
M  V30 1117 C 101.76 1.86385 -0.770944 0
M  V30 1118 C 102.073 1.82448 0.705129 0
M  V30 1119 O 103.279 2.47815 1.10905 0
M  V30 1120 C 101.735 3.34466 -1.32893 0
M  V30 1121 C 101.343 3.46883 -2.83507 0
M  V30 1122 C 103.087 4.09548 -1.11672 0
M  V30 1123 C 100.994 4.89036 -3.32562 0
M  V30 1124 H 99.9238 0.698181 -0.284709 0
M  V30 1125 H 102.575 1.31583 -1.27899 0
M  V30 1126 H 100.957 3.88859 -0.748662 0
M  V30 1127 H 102.131 3.02663 -3.47465 0
M  V30 1128 H 100.446 2.85232 -3.03368 0
M  V30 1129 H 103.043 5.14434 -1.45814 0
M  V30 1130 H 103.386 4.16264 -0.0549535 0
M  V30 1131 H 103.919 3.61387 -1.66265 0
M  V30 1132 H 100.658 4.87499 -4.38207 0
M  V30 1133 H 100.178 5.3389 -2.73351 0
M  V30 1134 H 101.857 5.57843 -3.2775 0
M  V30 1135 N 101.989 0.842826 1.3317 0
M  V30 1136 C 102.952 0.284065 2.27433 0
M  V30 1137 C 103.952 -0.54948 1.5112 0
M  V30 1138 O 105.142 -0.362699 1.70382 0
M  V30 1139 C 102.274 -0.599384 3.35589 0
M  V30 1140 H 103.467 1.11589 2.78366 0
M  V30 1141 H 101.02 0.616221 1.4364 0
M  V30 1142 H 101.755 -1.45349 2.89904 0
M  V30 1143 H 101.54 -0.00291266 3.921 0
M  V30 1144 H 103.03 -0.983488 4.05854 0
M  V30 1145 N 103.467 -1.45747 0.599634 0
M  V30 1146 C 104.697 -2.06369 0.0977132 0
M  V30 1147 C 105.105 -1.44624 -1.21985 0
M  V30 1148 O 104.448 -0.551831 -1.75216 0
M  V30 1149 C 104.51 -3.59284 -0.124673 0
M  V30 1150 C 104.174 -4.43318 1.10987 0
M  V30 1151 C 105.171 -4.78796 2.02609 0
M  V30 1152 C 102.856 -4.84194 1.33647 0
M  V30 1153 C 104.85 -5.53997 3.15224 0
M  V30 1154 C 102.537 -5.5915 2.46565 0
M  V30 1155 C 103.535 -5.93968 3.37182 0
M  V30 1156 O 103.223 -6.67405 4.48136 0
M  V30 1157 H 102.955 -0.673122 0.0623153 0
M  V30 1158 H 105.509 -1.88104 0.824981 0
M  V30 1159 H 103.739 -3.75919 -0.906745 0
M  V30 1160 H 105.428 -4.01775 -0.577201 0
M  V30 1161 H 106.194 -4.47781 1.86325 0
M  V30 1162 H 102.073 -4.56534 0.64016 0
M  V30 1163 H 105.617 -5.81091 3.85978 0
M  V30 1164 H 101.514 -5.89579 2.62805 0
M  V30 1165 H 102.282 -6.85847 4.46717 0
M  V30 1166 N 104.945 -0.338344 -1.53925 0
M  V30 1167 C 105.875 0.51328 -2.27789 0
M  V30 1168 C 106.856 1.107 -1.29149 0
M  V30 1169 O 108.041 1.12937 -1.57984 0
M  V30 1170 C 105.171 1.66697 -3.04679 0
M  V30 1171 C 104.125 1.20183 -4.1078 0
M  V30 1172 C 103.451 2.44363 -4.75595 0
M  V30 1173 C 104.751 0.30605 -5.21403 0
M  V30 1174 H 106.445 -0.102883 -2.99223 0
M  V30 1175 H 103.991 -0.0509219 -1.4391 0
M  V30 1176 H 105.944 2.26915 -3.55088 0
M  V30 1177 H 104.668 2.30995 -2.30887 0
M  V30 1178 H 103.327 0.622499 -3.61276 0
M  V30 1179 H 102.975 3.07057 -3.98403 0
M  V30 1180 H 102.675 2.13925 -5.47275 0
M  V30 1181 H 104.199 3.05317 -5.28786 0
M  V30 1182 H 105.613 0.814929 -5.67478 0
M  V30 1183 H 104.01 0.0937929 -6.00027 0
M  V30 1184 H 105.08 -0.65921 -4.80398 0
M  V30 1185 N 106.423 1.57458 -0.0668435 0
M  V30 1186 C 107.373 2.0896 0.912119 0
M  V30 1187 C 108.357 0.998186 1.26195 0
M  V30 1188 O 109.549 1.26133 1.24175 0
M  V30 1189 C 106.678 2.6508 2.18145 0
M  V30 1190 C 105.764 3.81218 1.85832 0
M  V30 1191 N 106.155 4.90378 1.23948 0
M  V30 1192 C 104.453 3.9042 2.15612 0
M  V30 1193 C 105.154 5.71279 1.09616 0
M  V30 1194 N 104.13 5.19389 1.60423 0
M  V30 1195 H 107.932 2.90749 0.42924 0
M  V30 1196 H 105.446 1.6182 0.137184 0
M  V30 1197 H 107.443 3.0029 2.89192 0
M  V30 1198 H 106.103 1.84736 2.67025 0
M  V30 1199 H 107.114 5.09847 0.909731 0
M  V30 1200 H 103.791 3.21043 2.66903 0
M  V30 1201 H 105.181 6.69085 0.614425 0
M  V30 1202 N 107.901 -0.206675 1.56239 0
M  V30 1203 C 108.811 -1.27686 1.96808 0
M  V30 1204 C 109.827 -1.50455 0.874035 0
M  V30 1205 O 111.003 -1.63295 1.17884 0
M  V30 1206 C 108.068 -2.60358 2.28942 0
M  V30 1207 C 107.129 -2.45762 3.51994 0
M  V30 1208 C 106.362 -3.72108 3.82585 0
M  V30 1209 O 106.585 -4.75776 3.14631 0
M  V30 1210 O 105.519 -3.6833 4.76043 0
M  V30 1211 H 109.345 -0.962593 2.88041 0
M  V30 1212 H 106.93 -0.410746 1.43643 0
M  V30 1213 H 108.812 -3.38687 2.50737 0
M  V30 1214 H 107.487 -2.91435 1.4088 0
M  V30 1215 H 106.394 -1.65584 3.35459 0
M  V30 1216 H 107.727 -2.19621 4.40486 0
M  V30 1217 N 109.379 -1.50304 -0.473955 0
M  V30 1218 C 110.327 -1.69482 -1.59307 0
M  V30 1219 C 111.321 -0.560669 -1.59853 0
M  V30 1220 O 112.527 -0.741087 -1.64036 0
M  V30 1221 H 108.902 -0.534892 -0.528578 0
M  V30 1222 H 110.873 -2.63364 -1.40293 0
M  V30 1223 C 109.622 -1.80354 -2.97267 0
M  V30 1224 H 108.945 -2.67012 -2.97564 0
M  V30 1225 H 110.385 -1.97798 -3.75036 0
M  V30 1226 C 108.844 -0.55448 -3.32306 0
M  V30 1227 O 109.374 0.307661 -4.0052 0
M  V30 1228 N 107.58 -0.409354 -2.87702 0
M  V30 1229 H 107.127 -1.11196 -2.32364 0
M  V30 1230 H 107.085 0.425223 -3.11511 0
M  V30 1231 N 110.857 0.726932 -1.39834 0
M  V30 1232 C 111.805 1.86235 -1.39353 0
M  V30 1233 C 112.799 1.67144 -0.275555 0
M  V30 1234 O 114.005 1.74387 -0.44601 0
M  V30 1235 H 110.38 0.613174 -0.43534 0
M  V30 1236 H 112.351 1.83756 -2.35109 0
M  V30 1237 C 111.1 3.23995 -1.26185 0
M  V30 1238 H 110.423 3.39285 -2.11484 0
M  V30 1239 H 111.863 4.03609 -1.29907 0
M  V30 1240 C 110.322 3.36888 0.0290018 0
M  V30 1241 O 110.852 3.89152 0.99619 0
M  V30 1242 N 109.058 2.90446 0.0947437 0
M  V30 1243 H 108.605 2.48102 -0.693035 0
M  V30 1244 H 108.563 2.99451 0.957932 0
M  V30 1245 N 112.336 1.25143 0.95797 0
M  V30 1246 C 113.582 1.09855 1.70469 0
M  V30 1247 C 113.915 -0.360187 1.90831 0
M  V30 1248 O 113.19 -1.26568 1.47685 0
M  V30 1249 C 113.473 1.8497 3.08963 0
M  V30 1250 C 113.326 3.38652 2.96032 0
M  V30 1251 C 114.645 1.63016 4.08795 0
M  V30 1252 H 111.764 0.400465 0.618706 0
M  V30 1253 H 114.406 1.53933 1.11376 0
M  V30 1254 H 112.556 1.47505 3.59409 0
M  V30 1255 H 114.228 3.85772 2.52938 0
M  V30 1256 H 112.471 3.66534 2.32025 0
M  V30 1257 H 113.142 3.8642 3.94187 0
M  V30 1258 H 115.618 1.95625 3.67247 0
M  V30 1259 H 114.494 2.18015 5.03747 0
M  V30 1260 H 114.755 0.570692 4.38401 0
M  V30 1261 N 113.814 -1.1601 1.06675 0
M  V30 1262 C 115.042 -1.90527 0.806667 0
M  V30 1263 C 115.457 -1.77643 -0.639396 0
M  V30 1264 O 114.814 -1.12369 -1.43803 0
M  V30 1265 C 114.865 -3.41106 1.19705 0
M  V30 1266 O 114.586 -3.53608 2.58636 0
M  V30 1267 C 116.087 -4.32663 0.965266 0
M  V30 1268 H 113.307 -0.604053 0.292166 0
M  V30 1269 H 115.851 -1.47026 1.4214 0
M  V30 1270 H 114.006 -3.82296 0.626774 0
M  V30 1271 H 114.42 -4.47011 2.74375 0
M  V30 1272 H 115.894 -5.36763 1.288 0
M  V30 1273 H 116.371 -4.39089 -0.0987936 0
M  V30 1274 H 116.977 -3.97206 1.52011 0
M  V30 1275 N 115.292 -0.849877 -1.32721 0
M  V30 1276 C 116.541 -0.447175 -1.96681 0
M  V30 1277 C 116.854 1.00135 -1.68025 0
M  V30 1278 O 118.06 1.50926 -2.25685 0
M  V30 1279 C 116.516 -0.7487 -3.52026 0
M  V30 1280 C 116.124 -2.21264 -3.89546 0
M  V30 1281 C 117.868 -0.413487 -4.22481 0
M  V30 1282 C 115.775 -2.45763 -5.37917 0
M  V30 1283 H 114.705 -0.163486 -0.736063 0
M  V30 1284 H 117.356 -1.03999 -1.51183 0
M  V30 1285 H 115.738 -0.0853727 -3.95908 0
M  V30 1286 H 116.912 -2.91736 -3.56689 0
M  V30 1287 H 115.227 -2.5119 -3.32103 0
M  V30 1288 H 117.824 -0.574017 -5.3161 0
M  V30 1289 H 118.167 0.644492 -4.11281 0
M  V30 1290 H 118.7 -1.03251 -3.84167 0
M  V30 1291 H 115.439 -3.50168 -5.54132 0
M  V30 1292 H 114.959 -1.79864 -5.72197 0
M  V30 1293 H 116.638 -2.29471 -6.0494 0
M  V30 1294 N 116.77 1.45427 -0.607355 0
M  V30 1295 C 118.016 2.03097 -0.111035 0
M  V30 1296 C 118.371 1.46735 1.24445 0
M  V30 1297 O 117.664 0.632478 1.8086 0
M  V30 1298 C 117.858 3.57398 -0.0129263 0
M  V30 1299 C 117.687 4.28726 -1.35735 0
M  V30 1300 C 116.457 4.66659 -1.93798 0
M  V30 1301 C 118.655 4.60699 -2.28607 0
M  V30 1302 N 116.637 5.22845 -3.21723 0
M  V30 1303 C 118.008 5.17716 -3.41131 0
M  V30 1304 C 120.063 4.42638 -2.27982 0
M  V30 1305 C 118.766 5.58576 -4.53194 0
M  V30 1306 C 120.792 4.84531 -3.39093 0
M  V30 1307 C 120.154 5.4164 -4.50339 0
M  V30 1308 H 116.253 0.777476 -0.083994 0
M  V30 1309 H 118.837 1.77249 -0.805655 0
M  V30 1310 H 117.008 3.82907 0.650914 0
M  V30 1311 H 118.74 4.01722 0.490033 0
M  V30 1312 H 115.495 4.50207 -1.47007 0
M  V30 1313 H 115.919 5.55438 -3.87063 0
M  V30 1314 H 120.561 3.97798 -1.43235 0
M  V30 1315 H 118.279 6.02382 -5.38667 0
M  V30 1316 H 121.865 4.72289 -3.39757 0
M  V30 1317 H 120.745 5.73461 -5.34895 0
M  V30 1318 N 118.248 0.346503 1.53744 0
M  V30 1319 C 119.525 -0.304532 1.93215 0
M  V30 1320 C 119.905 -1.67993 1.27834 0
M  V30 1321 O 119.253 -2.24411 0.430352 0
M  V30 1322 C 119.463 -0.373852 3.46992 0
M  V30 1323 C 120.811 -0.62329 4.2 0
M  V30 1324 O 121.835 -0.455847 3.53271 0
M  V30 1325 O 120.694 -0.947879 5.38217 0
M  V30 1326 H 117.788 -0.178318 0.807547 0
M  V30 1327 H 120.334 0.397895 1.64969 0
M  V30 1328 H 119.106 0.591224 3.86808 0
M  V30 1329 H 118.729 -1.12294 3.81413 0
M  V30 1330 N 119.726 -1.57421 0.075193 0
M  V30 1331 C 120.636 -2.1642 -0.905511 0
M  V30 1332 C 121.652 -1.12828 -1.32461 0
M  V30 1333 O 122.828 -1.45109 -1.39661 0
M  V30 1334 C 119.893 -2.71693 -2.15369 0
M  V30 1335 C 118.954 -3.90171 -1.79068 0
M  V30 1336 C 118.187 -4.42798 -2.97936 0
M  V30 1337 O 118.41 -3.94416 -4.12058 0
M  V30 1338 O 117.344 -5.34085 -2.77555 0
M  V30 1339 H 121.17 -3.00588 -0.433626 0
M  V30 1340 H 118.755 -1.48664 -0.148067 0
M  V30 1341 H 120.637 -3.07104 -2.88557 0
M  V30 1342 H 119.312 -1.90582 -2.61649 0
M  V30 1343 H 118.219 -3.59606 -1.03122 0
M  V30 1344 H 119.552 -4.72584 -1.37569 0
M  V30 1345 N 121.204 0.198386 -1.56346 0
M  V30 1346 C 122.45 0.916115 -1.81601 0
M  V30 1347 C 122.805 1.81025 -0.651744 0
M  V30 1348 O 122.098 1.88316 0.353229 0
M  V30 1349 C 122.292 1.77031 -3.10475 0
M  V30 1350 C 122.121 0.960365 -4.39326 0
M  V30 1351 C 120.891 0.646093 -5.01152 0
M  V30 1352 C 123.089 0.314628 -5.13337 0
M  V30 1353 N 121.071 -0.182828 -6.13628 0
M  V30 1354 C 122.442 -0.37664 -6.18855 0
M  V30 1355 C 124.497 0.230019 -4.97368 0
M  V30 1356 C 123.2 -1.14445 -7.10137 0
M  V30 1357 C 125.226 -0.524389 -5.89071 0
M  V30 1358 C 124.588 -1.20412 -6.94032 0
M  V30 1359 H 120.687 0.314732 -0.715868 0
M  V30 1360 H 123.271 0.185102 -1.93818 0
M  V30 1361 H 121.442 2.47295 -2.99499 0
M  V30 1362 H 123.174 2.42727 -3.2383 0
M  V30 1363 H 119.929 0.969724 -4.63566 0
M  V30 1364 H 120.353 -0.586802 -6.74452 0
M  V30 1365 H 124.995 0.741184 -4.16253 0
M  V30 1366 H 122.713 -1.66706 -7.90718 0
M  V30 1367 H 126.299 -0.591167 -5.78789 0
M  V30 1368 H 125.179 -1.77853 -7.63766 0
M  V30 1369 N 122.682 1.50554 0.465978 0
M  V30 1370 C 123.645 1.69233 1.54574 0
M  V30 1371 C 124.645 0.562901 1.50626 0
M  V30 1372 O 125.835 0.830016 1.53155 0
M  V30 1373 C 122.967 1.7223 2.94193 0
M  V30 1374 H 124.16 2.65571 1.39327 0
M  V30 1375 H 121.713 1.40111 0.692711 0
M  V30 1376 H 122.448 0.77603 3.14878 0
M  V30 1377 H 122.233 2.54285 2.98466 0
M  V30 1378 H 123.723 1.88618 3.72576 0
M  V30 1379 N 124.16 -0.719506 1.40217 0
M  V30 1380 C 125.437 -1.47221 1.28784 0
M  V30 1381 C 125.817 -2.10883 -0.0956067 0
M  V30 1382 O 125.165 -1.99833 -1.10811 0
M  V30 1383 C 125.375 -2.5111 2.42373 0
M  V30 1384 C 126.723 -3.17053 2.82423 0
M  V30 1385 O 127.747 -2.61429 2.41937 0
M  V30 1386 O 126.606 -4.17742 3.52355 0
M  V30 1387 H 123.7 -0.654491 0.50554 0
M  V30 1388 H 126.246 -0.752014 1.52128 0
M  V30 1389 H 125.018 -2.02556 3.34793 0
M  V30 1390 H 124.641 -3.3067 2.20778 0
M  V30 1391 N 125.638 -1.25649 -0.95132 0
M  V30 1392 C 126.548 -1.08073 -2.08224 0
M  V30 1393 C 127.564 -0.0169666 -1.73992 0
M  V30 1394 O 128.74 -0.218593 -2.0021 0
M  V30 1395 C 125.805 -0.704922 -3.39458 0
M  V30 1396 C 124.866 -1.84699 -3.87537 0
M  V30 1397 C 124.099 -1.48902 -5.12508 0
M  V30 1398 O 124.322 -0.386156 -5.69091 0
M  V30 1399 O 123.256 -2.32033 -5.55378 0
M  V30 1400 H 127.082 -2.02924 -2.25954 0
M  V30 1401 H 124.667 -1.04618 -1.06656 0
M  V30 1402 H 126.549 -0.507609 -4.18332 0
M  V30 1403 H 125.224 0.214291 -3.2299 0
M  V30 1404 H 124.131 -2.09919 -3.09653 0
M  V30 1405 H 125.464 -2.74557 -4.08509 0
M  V30 1406 N 127.117 1.15442 -1.07289 0
M  V30 1407 C 128.065 2.22225 -0.686952 0
M  V30 1408 C 129.059 1.66688 0.30193 0
M  V30 1409 O 130.265 1.79236 0.165712 0
M  V30 1410 H 126.64 0.723783 -0.204064 0
M  V30 1411 H 128.611 2.52056 -1.5972 0
M  V30 1412 C 127.36 3.47556 -0.100149 0
M  V30 1413 H 126.683 3.90612 -0.852211 0
M  V30 1414 H 128.123 4.23794 0.132235 0
M  V30 1415 C 126.582 3.16337 1.159 0
M  V30 1416 O 127.112 3.33074 2.24555 0
M  V30 1417 N 125.318 2.70385 1.06491 0
M  V30 1418 H 124.865 2.56966 0.180668 0
M  V30 1419 H 124.823 2.49871 1.90819 0
M  V30 1420 N 128.595 0.856903 1.32268 0
M  V30 1421 C 129.843 0.460474 1.96784 0
M  V30 1422 C 130.164 -0.987701 1.68135 0
M  V30 1423 O 129.434 -1.69058 0.989765 0
M  V30 1424 H 128.014 0.167289 0.728027 0
M  V30 1425 H 130.676 1.09383 1.61312 0
M  V30 1426 H 129.772 0.60739 3.06133 0
M  V30 1427 N 130.073 -1.45103 0.615059 0
M  V30 1428 C 131.35 -1.95549 0.0448276 0
M  V30 1429 C 131.73 -1.55737 -1.4251 0
M  V30 1430 O 131.078 -0.823556 -2.13143 0
M  V30 1431 C 131.288 -3.48098 0.250785 0
M  V30 1432 C 132.636 -4.24384 0.135509 0
M  V30 1433 O 133.66 -3.55738 0.181299 0
M  V30 1434 O 132.519 -5.46493 0.0268878 0
M  V30 1435 H 129.613 -0.8264 -0.0314845 0
M  V30 1436 H 132.159 -1.55232 0.685642 0
M  V30 1437 H 130.931 -3.7007 1.27139 0
M  V30 1438 H 130.554 -3.95323 -0.424937 0
M  V30 1439 N 131.551 -0.354651 -1.53558 0
M  V30 1440 C 132.481 0.489091 -2.2832 0
M  V30 1441 C 133.462 1.09324 -1.30316 0
M  V30 1442 O 134.647 1.11255 -1.59173 0
M  V30 1443 C 131.777 1.63456 -3.0643 0
M  V30 1444 C 130.731 1.1582 -4.12031 0
M  V30 1445 C 130.057 2.39305 -4.7816 0
M  V30 1446 C 131.357 0.250731 -5.21698 0
M  V30 1447 H 133.051 -0.134614 -2.99097 0
M  V30 1448 H 130.597 -0.0661826 -1.43848 0
M  V30 1449 H 132.55 2.23136 -3.57475 0
M  V30 1450 H 131.274 2.28533 -2.33325 0
M  V30 1451 H 129.933 0.584146 -3.61916 0
M  V30 1452 H 129.581 3.02814 -4.01637 0
M  V30 1453 H 129.281 2.08109 -5.49513 0
M  V30 1454 H 130.805 2.99691 -5.31994 0
M  V30 1455 H 132.219 0.754695 -5.68311 0
M  V30 1456 H 130.616 0.0301468 -6.00092 0
M  V30 1457 H 131.686 -0.710125 -4.79672 0
M  V30 1458 N 133.029 1.57378 -0.0835403 0
M  V30 1459 C 134.277 1.93547 0.581718 0
M  V30 1460 C 134.598 0.96524 1.69435 0
M  V30 1461 O 133.868 0.0153369 1.95894 0
M  V30 1462 H 132.448 0.714521 0.217874 0
M  V30 1463 H 135.11 1.94366 -0.144158 0
M  V30 1464 H 134.206 2.95665 0.999423 0
M  V30 1465 N 134.507 -0.190092 1.56449 0
M  V30 1466 C 135.918 -0.754312 1.70784 0
M  V30 1467 C 136.269 -1.83631 0.690951 0
M  V30 1468 O 135.394 -2.15868 -0.151604 0
M  V30 1469 C 135.989 -1.37503 3.09642 0
M  V30 1470 C 134.548 -1.88628 3.25725 0
M  V30 1471 C 133.695 -0.758098 2.66736 0
M  V30 1472 H 136.646 0.0350524 1.58661 0
M  V30 1473 H 136.667 -2.2445 3.0725 0
M  V30 1474 H 136.179 -0.587302 3.83631 0
M  V30 1475 H 134.28 -2.70103 2.56661 0
M  V30 1476 H 134.393 -2.04462 4.3328 0
M  V30 1477 H 132.757 -1.17369 2.26046 0
M  V30 1478 H 133.54 0.0174705 3.43296 0
M  V30 1479 N 135.985 -1.50799 -0.457987 0
M  V30 1480 C 137.231 -1.62683 -1.21088 0
M  V30 1481 C 137.564 -0.332268 -1.91336 0
M  V30 1482 O 136.839 0.667043 -1.82704 0
M  V30 1483 C 137.122 -2.81615 -2.24422 0
M  V30 1484 C 136.975 -4.20989 -1.58392 0
M  V30 1485 C 138.294 -2.96085 -3.2561 0
M  V30 1486 H 135.413 -0.592087 -0.438864 0
M  V30 1487 H 138.055 -1.83225 -0.50286 0
M  V30 1488 H 136.205 -2.64231 -2.84806 0
M  V30 1489 H 137.877 -4.49994 -1.01504 0
M  V30 1490 H 136.12 -4.24641 -0.886704 0
M  V30 1491 H 136.791 -5.0016 -2.33547 0
M  V30 1492 H 139.267 -3.12042 -2.75262 0
M  V30 1493 H 138.143 -3.80902 -3.95228 0
M  V30 1494 H 138.404 -2.0726 -3.90507 0
M  V30 1495 N 137.463 0.71206 -1.40597 0
M  V30 1496 C 138.693 1.49894 -1.42181 0
M  V30 1497 C 139.101 1.89189 -0.0208078 0
M  V30 1498 O 138.444 1.56223 0.966436 0
M  V30 1499 C 138.506 2.80215 -2.25211 0
M  V30 1500 C 138.17 2.63221 -3.73582 0
M  V30 1501 C 139.167 2.30249 -4.66135 0
M  V30 1502 C 136.852 2.79376 -4.17438 0
M  V30 1503 C 138.846 2.13645 -6.00529 0
M  V30 1504 C 136.533 2.6239 -5.51901 0
M  V30 1505 C 137.531 2.29573 -6.43262 0
M  V30 1506 O 137.219 2.12719 -7.75246 0
M  V30 1507 H 136.951 0.469031 -0.486812 0
M  V30 1508 H 139.505 0.88564 -1.85326 0
M  V30 1509 H 137.735 3.4389 -1.76852 0
M  V30 1510 H 139.424 3.41947 -2.18694 0
M  V30 1511 H 140.19 2.17398 -4.33547 0
M  V30 1512 H 136.069 3.03906 -3.46644 0
M  V30 1513 H 139.613 1.87953 -6.71803 0
M  V30 1514 H 135.51 2.74826 -5.84073 0
M  V30 1515 H 136.278 2.27611 -7.86216 0
M  V30 1516 N 138.941 1.26152 0.944643 0
M  V30 1517 C 140.189 1.11271 1.6871 0
M  V30 1518 C 140.51 -0.345166 1.91921 0
M  V30 1519 O 139.78 -1.24387 1.51343 0
M  V30 1520 H 138.36 0.408783 0.625224 0
M  V30 1521 H 141.022 1.58427 1.1352 0
M  V30 1522 H 140.118 1.62879 2.66227 0
M  V30 1523 N 140.419 -1.14872 1.07899 0
M  V30 1524 C 141.366 -2.19791 0.704319 0
M  V30 1525 C 142.336 -1.63238 -0.306987 0
M  V30 1526 O 143.521 -1.8983 -0.192171 0
M  V30 1527 C 140.661 -3.44911 0.114244 0
M  V30 1528 C 139.774 -4.15637 1.1777 0
M  V30 1529 C 138.909 -5.28324 0.552037 0
M  V30 1530 C 137.948 -5.90875 1.59789 0
M  V30 1531 N 137.085 -6.95022 0.994404 0
M  V30 1532 H 141.925 -2.5119 1.60336 0
M  V30 1533 H 139.462 -1.23356 0.801352 0
M  V30 1534 H 141.42 -4.16477 -0.245544 0
M  V30 1535 H 140.05 -3.14011 -0.74813 0
M  V30 1536 H 139.102 -3.42512 1.65499 0
M  V30 1537 H 140.414 -4.5823 1.97046 0
M  V30 1538 H 139.568 -6.06538 0.1402 0
M  V30 1539 H 138.307 -4.86939 -0.272431 0
M  V30 1540 H 137.312 -5.11369 2.01945 0
M  V30 1541 H 138.537 -6.34337 2.42474 0
M  V30 1542 H 136.483 -6.55722 0.190939 0
M  V30 1543 H 136.4 -7.36073 1.72432 0
M  V30 1544 H 137.668 -7.77123 0.608253 0
M  V30 1545 N 141.898 -0.863906 -1.31812 0
M  V30 1546 C 142.83 -0.272485 -2.27575 0
M  V30 1547 C 143.843 0.56104 -1.52827 0
M  V30 1548 O 145.032 0.384021 -1.7432 0
M  V30 1549 C 142.132 0.63283 -3.32939 0
M  V30 1550 C 141.305 -0.166902 -4.37081 0
M  V30 1551 C 140.364 0.665608 -5.21973 0
M  V30 1552 O 139.39 0.0958091 -5.69119 0
M  V30 1553 N 140.592 1.9787 -5.45736 0
M  V30 1554 H 143.357 -1.0954 -2.78964 0
M  V30 1555 H 140.918 -0.724791 -1.4477 0
M  V30 1556 H 142.91 1.19532 -3.86645 0
M  V30 1557 H 141.48 1.35642 -2.81638 0
M  V30 1558 H 140.7 -0.910838 -3.83533 0
M  V30 1559 H 141.988 -0.715874 -5.03739 0
M  V30 1560 H 141.386 2.46484 -5.09178 0
M  V30 1561 H 139.943 2.48911 -6.024 0
M  V30 1562 N 143.376 1.44774 -0.622745 0
M  V30 1563 C 144.622 2.02968 -0.13257 0
M  V30 1564 C 144.977 1.48047 1.22881 0
M  V30 1565 O 144.27 0.651625 1.80179 0
M  V30 1566 C 144.464 3.57364 -0.0508323 0
M  V30 1567 C 144.293 4.27262 -1.40275 0
M  V30 1568 C 143.063 4.64577 -1.98737 0
M  V30 1569 C 145.261 4.58248 -2.3348 0
M  V30 1570 N 143.243 5.19404 -3.27251 0
M  V30 1571 C 144.614 5.14069 -3.46603 0
M  V30 1572 C 146.669 4.40195 -2.32664 0
M  V30 1573 C 145.372 5.53738 -4.59093 0
M  V30 1574 C 147.398 4.80907 -3.44213 0
M  V30 1575 C 146.76 5.36834 -4.56058 0
M  V30 1576 H 142.859 0.776541 -0.0922354 0
M  V30 1577 H 145.443 1.76385 -0.82441 0
M  V30 1578 H 143.614 3.83576 0.610265 0
M  V30 1579 H 145.346 4.02219 0.447397 0
M  V30 1580 H 142.101 4.48622 -1.51774 0
M  V30 1581 H 142.525 5.51301 -3.92933 0
M  V30 1582 H 147.167 3.96257 -1.47446 0
M  V30 1583 H 144.885 5.96635 -5.45025 0
M  V30 1584 H 148.471 4.68659 -3.44747 0
M  V30 1585 H 147.351 5.67755 -5.40947 0
M  V30 1586 N 144.854 0.36279 1.53368 0
M  V30 1587 C 146.27 0.0116182 1.59596 0
M  V30 1588 C 146.47 -1.47012 1.37803 0
M  V30 1589 O 145.526 -2.23136 1.18181 0
M  V30 1590 C 146.839 0.465052 2.97082 0
M  V30 1591 C 148.387 0.419033 3.10182 0
M  V30 1592 C 148.862 0.848235 4.50077 0
M  V30 1593 N 150.353 0.803183 4.56183 0
M  V30 1594 C 151.088 1.107 5.62613 0
M  V30 1595 N 150.584 1.47996 6.76808 0
M  V30 1596 N 152.377 1.02998 5.52583 0
M  V30 1597 H 144.528 1.32775 1.65785 0
M  V30 1598 H 146.791 0.542518 0.777417 0
M  V30 1599 H 146.497 1.49892 3.18159 0
M  V30 1600 H 146.371 -0.149786 3.76902 0
M  V30 1601 H 148.758 -0.605696 2.88817 0
M  V30 1602 H 148.839 1.06933 2.32377 0
M  V30 1603 H 148.483 1.87107 4.7218 0
M  V30 1604 H 148.413 0.175218 5.26308 0
M  V30 1605 H 150.904 0.52838 3.74188 0
M  V30 1606 H 151.217 1.69613 7.53957 0
M  V30 1607 H 149.562 1.51859 6.78206 0
M  V30 1608 H 152.753 0.737817 4.62249 0
M  V30 1609 H 152.926 1.2701 6.35431 0
M  V30 1610 N 146.332 -1.57332 0.0918853 0
M  V30 1611 C 147.295 -2.12708 -0.85369 0
M  V30 1612 C 148.295 -1.05561 -1.213 0
M  V30 1613 O 149.485 -1.31461 -1.14296 0
M  V30 1614 C 146.617 -2.64503 -2.15061 0
M  V30 1615 H 147.81 -2.97573 -0.3729 0
M  V30 1616 H 145.363 -1.55509 -0.157072 0
M  V30 1617 H 146.098 -1.83149 -2.67632 0
M  V30 1618 H 145.883 -3.4284 -1.90272 0
M  V30 1619 H 147.373 -3.07351 -2.82711 0
M  V30 1620 N 147.81 0.181792 -1.56548 0
M  V30 1621 C 149.056 0.896803 -1.82562 0
M  V30 1622 C 149.411 1.80324 -0.670908 0
M  V30 1623 O 148.704 1.8868 0.333235 0
M  V30 1624 C 148.898 1.73728 -3.12335 0
M  V30 1625 C 148.727 0.913714 -4.4032 0
M  V30 1626 C 147.497 0.592903 -5.01809 0
M  V30 1627 C 149.695 0.260164 -5.13642 0
M  V30 1628 N 147.677 -0.247901 -6.13399 0
M  V30 1629 C 149.048 -0.442256 -6.18421 0
M  V30 1630 C 151.103 0.177253 -4.97584 0
M  V30 1631 C 149.806 -1.21971 -7.08883 0
M  V30 1632 C 151.832 -0.586839 -5.88481 0
M  V30 1633 C 151.194 -1.27766 -6.92716 0
M  V30 1634 H 147.293 0.307122 -0.719166 0
M  V30 1635 H 149.877 0.164535 -1.94004 0
M  V30 1636 H 148.048 2.44105 -3.02105 0
M  V30 1637 H 149.78 2.39279 -3.26386 0
M  V30 1638 H 146.535 0.920502 -4.64568 0
M  V30 1639 H 146.959 -0.658304 -6.73792 0
M  V30 1640 H 151.601 0.696993 -4.17015 0
M  V30 1641 H 149.319 -1.75083 -7.88905 0
M  V30 1642 H 152.905 -0.652522 -5.78129 0
M  V30 1643 H 151.785 -1.85943 -7.61836 0
M  V30 1644 N 149.288 1.51039 0.449983 0
M  V30 1645 C 150.699 1.557 1.03026 0
M  V30 1646 C 151.05 0.372939 1.92623 0
M  V30 1647 O 150.175 -0.511771 2.10261 0
M  V30 1648 C 150.77 2.82171 1.87523 0
M  V30 1649 C 149.329 2.89444 2.40622 0
M  V30 1650 C 148.476 2.50228 1.19504 0
M  V30 1651 H 151.427 1.56999 0.231745 0
M  V30 1652 H 151.448 2.65219 2.72835 0
M  V30 1653 H 150.96 3.68331 1.22286 0
M  V30 1654 H 149.061 2.07685 3.0935 0
M  V30 1655 H 149.174 3.92816 2.74285 0
M  V30 1656 H 147.538 2.03139 1.53644 0
M  V30 1657 H 148.321 3.38719 0.558972 0
M  V30 1658 N 150.766 -0.704594 1.40972 0
M  V30 1659 C 151.994 -1.49354 1.43182 0
M  V30 1660 C 152.409 -1.88768 0.0345508 0
M  V30 1661 O 151.766 -1.56184 -0.944081 0
M  V30 1662 C 151.817 -2.76187 2.33244 0
M  V30 1663 O 151.538 -2.38436 3.67532 0
M  V30 1664 C 153.039 -3.7 2.44162 0
M  V30 1665 H 150.259 -0.460559 0.487982 0
M  V30 1666 H 152.803 -0.868261 1.85153 0
M  V30 1667 H 150.958 -3.34974 1.94606 0
M  V30 1668 H 151.372 -3.20126 4.15475 0
M  V30 1669 H 152.846 -4.55803 3.11364 0
M  V30 1670 H 153.323 -4.13867 1.47006 0
M  V30 1671 H 153.929 -3.17121 2.83398 0
M  V30 1672 N 152.244 -1.26651 -0.937939 0
M  V30 1673 C 153.655 -1.1125 -1.49934 0
M  V30 1674 C 154.006 0.306077 -1.93798 0
M  V30 1675 O 153.131 1.19792 -1.80219 0
M  V30 1676 C 153.726 -2.01339 -2.72485 0
M  V30 1677 C 152.285 -1.90074 -3.24883 0
M  V30 1678 C 151.432 -1.94498 -1.97651 0
M  V30 1679 H 154.383 -1.39693 -0.753091 0
M  V30 1680 H 154.404 -1.56319 -3.46907 0
M  V30 1681 H 153.916 -3.04577 -2.40529 0
M  V30 1682 H 152.017 -0.897827 -3.61621 0
M  V30 1683 H 152.13 -2.75778 -3.9177 0
M  V30 1684 H 150.494 -1.38591 -2.13693 0
M  V30 1685 H 151.277 -2.99372 -1.68022 0
M  V30 1686 N 153.722 1.14298 -1.08507 0
M  V30 1687 C 154.999 1.81544 -0.728088 0
M  V30 1688 C 155.379 1.95838 0.78808 0
M  V30 1689 O 154.727 1.51904 1.70697 0
M  V30 1690 C 154.937 3.17169 -1.45619 0
M  V30 1691 C 156.285 3.9265 -1.61591 0
M  V30 1692 O 157.309 3.26762 -1.41793 0
M  V30 1693 O 156.168 5.10807 -1.94263 0
M  V30 1694 H 153.262 0.78491 -0.260471 0
M  V30 1695 H 155.808 1.21307 -1.18671 0
M  V30 1696 H 154.58 3.01934 -2.489 0
M  V30 1697 H 154.203 3.851 -0.989124 0
M  V30 1698 N 155.201 0.870884 1.31352 0
M  V30 1699 C 156.449 0.48132 1.96285 0
M  V30 1700 C 156.77 -0.969813 1.69173 0
M  V30 1701 O 156.04 -1.67998 1.00764 0
M  V30 1702 H 154.62 0.175002 0.726212 0
M  V30 1703 H 157.282 1.11087 1.60143 0
M  V30 1704 H 156.378 0.639825 3.05471 0
M  V30 1705 N 156.679 -1.44442 0.630414 0
M  V30 1706 C 158.095 -1.56832 0.295973 0
M  V30 1707 C 158.295 -1.61806 -1.20088 0
M  V30 1708 O 157.351 -1.5607 -1.9849 0
M  V30 1709 C 158.664 -2.84031 0.987264 0
M  V30 1710 C 160.212 -2.97742 0.96534 0
M  V30 1711 C 160.687 -4.27743 1.63708 0
M  V30 1712 N 162.178 -4.34555 1.60364 0
M  V30 1713 C 162.913 -5.33862 2.09234 0
M  V30 1714 N 162.409 -6.39578 2.66292 0
M  V30 1715 N 164.202 -5.25366 1.99867 0
M  V30 1716 H 156.353 -1.39457 1.60205 0
M  V30 1717 H 158.616 -0.668237 0.672431 0
M  V30 1718 H 158.322 -2.86338 2.04215 0
M  V30 1719 H 158.196 -3.73534 0.524588 0
M  V30 1720 H 160.583 -2.94989 -0.0810639 0
M  V30 1721 H 160.664 -2.09589 1.4665 0
M  V30 1722 H 160.308 -4.31255 2.68293 0
M  V30 1723 H 160.238 -5.14752 1.11076 0
M  V30 1724 H 162.729 -3.58772 1.18705 0
M  V30 1725 H 163.042 -7.11637 3.01317 0
M  V30 1726 H 161.387 -6.40265 2.70343 0
M  V30 1727 H 164.578 -4.41688 1.55013 0
M  V30 1728 H 164.751 -6.02606 2.38265 0
M  V30 1729 N 158.157 -0.370918 -1.53173 0
M  V30 1730 C 159.107 0.489588 -2.22681 0
M  V30 1731 C 160.091 1.04442 -1.22395 0
M  V30 1732 O 161.283 0.973578 -1.47819 0
M  V30 1733 C 158.412 1.626 -3.02351 0
M  V30 1734 C 157.498 1.08379 -4.10018 0
M  V30 1735 N 157.889 0.265004 -5.05105 0
M  V30 1736 C 156.187 1.35809 -4.2482 0
M  V30 1737 C 156.888 -0.0324755 -5.81691 0
M  V30 1738 N 155.864 0.566581 -5.40639 0
M  V30 1739 H 159.666 -0.142729 -2.93553 0
M  V30 1740 H 157.18 -0.179221 -1.61408 0
M  V30 1741 H 159.177 2.2547 -3.50669 0
M  V30 1742 H 157.837 2.26132 -2.33011 0
M  V30 1743 H 158.848 -0.0962352 -5.17811 0
M  V30 1744 H 155.525 1.9958 -3.66707 0
M  V30 1745 H 156.915 -0.69473 -6.68299 0
M  V30 1746 N 159.635 1.57281 -0.100228 0
M  V30 1747 C 160.884 1.93713 0.561984 0
M  V30 1748 C 161.197 0.984492 1.69018 0
M  V30 1749 O 162.403 1.24273 2.41389 0
M  V30 1750 C 160.859 3.4421 1.05106 0
M  V30 1751 C 160.467 4.47975 -0.0476628 0
M  V30 1752 C 162.211 3.89595 1.68571 0
M  V30 1753 C 160.118 5.89631 0.457055 0
M  V30 1754 H 159.048 0.723082 0.2137 0
M  V30 1755 H 161.699 1.82644 -0.177057 0
M  V30 1756 H 160.081 3.50449 1.84395 0
M  V30 1757 H 161.255 4.53385 -0.823333 0
M  V30 1758 H 159.57 4.1223 -0.587816 0
M  V30 1759 H 162.167 4.92832 2.07414 0
M  V30 1760 H 162.51 3.28526 2.55688 0
M  V30 1761 H 163.043 3.86078 0.958562 0
M  V30 1762 H 159.782 6.54411 -0.377616 0
M  V30 1763 H 159.302 5.87681 1.19962 0
M  V30 1764 H 160.981 6.40363 0.92437 0
M  V30 1765 N 161.113 -0.173488 1.56642 0
M  V30 1766 C 162.39 -0.917617 1.7274 0
M  V30 1767 C 162.77 -2.00484 0.661027 0
M  V30 1768 O 162.118 -2.26184 -0.32453 0
M  V30 1769 C 162.328 -1.48433 3.15862 0
M  V30 1770 C 163.676 -1.95809 3.76754 0
M  V30 1771 O 164.7 -1.58231 3.19126 0
M  V30 1772 O 163.559 -2.65024 4.77938 0
M  V30 1773 H 160.653 -0.431772 0.705338 0
M  V30 1774 H 163.199 -0.161487 1.6893 0
M  V30 1775 H 161.971 -0.701715 3.84957 0
M  V30 1776 H 161.594 -2.30471 3.23989 0
M  V30 1777 N 162.591 -1.51276 -0.441967 0
M  V30 1778 C 163.523 -1.68444 -1.55433 0
M  V30 1779 C 164.536 -0.565187 -1.52674 0
M  V30 1780 O 165.725 -0.839356 -1.57534 0
M  V30 1781 C 162.825 -1.67966 -2.94348 0
M  V30 1782 C 161.998 -2.964 -3.21661 0
M  V30 1783 C 161.057 -2.88171 -4.40277 0
M  V30 1784 O 160.083 -3.62119 -4.39157 0
M  V30 1785 N 161.285 -2.03706 -5.43584 0
M  V30 1786 H 164.05 -2.644 -1.41112 0
M  V30 1787 H 161.611 -1.49104 -0.630838 0
M  V30 1788 H 163.603 -1.60035 -3.71713 0
M  V30 1789 H 162.173 -0.796225 -3.0229 0
M  V30 1790 H 161.393 -3.18234 -2.32638 0
M  V30 1791 H 162.681 -3.81427 -3.36736 0
M  V30 1792 H 162.079 -1.42995 -5.47329 0
M  V30 1793 H 160.636 -2.01658 -6.1982 0
M  V30 1794 N 164.069 0.697108 -1.41344 0
M  V30 1795 C 165.318 1.45279 -1.39918 0
M  V30 1796 C 165.631 1.95597 -0.0109624 0
M  V30 1797 O 166.837 2.71208 0.125919 0
M  V30 1798 C 165.293 2.62695 -2.46007 0
M  V30 1799 C 164.901 2.19169 -3.90729 0
M  V30 1800 C 166.645 3.40336 -2.53715 0
M  V30 1801 C 164.552 3.33535 -4.88373 0
M  V30 1802 H 163.482 0.545692 -0.520323 0
M  V30 1803 H 166.133 0.756929 -1.67161 0
M  V30 1804 H 164.515 3.34541 -2.11892 0
M  V30 1805 H 165.689 1.54623 -4.34083 0
M  V30 1806 H 164.004 1.54525 -3.86666 0
M  V30 1807 H 166.601 4.2547 -3.2385 0
M  V30 1808 H 166.944 3.85418 -1.5735 0
M  V30 1809 H 167.477 2.75546 -2.86913 0
M  V30 1810 H 164.216 2.93468 -5.86137 0
M  V30 1811 H 163.736 3.96936 -4.49668 0
M  V30 1812 H 165.415 3.99335 -5.09059 0
M  V30 1813 N 165.547 1.27147 0.931209 0
M  V30 1814 C 166.775 1.16082 1.71267 0
M  V30 1815 C 167.19 -0.282772 1.8667 0
M  V30 1816 O 166.547 -1.19283 1.38122 0
M  V30 1817 C 166.598 1.8358 3.11417 0
M  V30 1818 O 166.319 3.22299 2.96741 0
M  V30 1819 C 167.82 1.78597 4.05732 0
M  V30 1820 H 165.04 0.403758 0.535929 0
M  V30 1821 H 167.584 1.67953 1.16671 0
M  V30 1822 H 165.739 1.35623 3.62885 0
M  V30 1823 H 166.153 3.55851 3.85319 0
M  V30 1824 H 167.627 2.30444 5.01597 0
M  V30 1825 H 168.104 0.754564 4.3267 0
M  V30 1826 H 168.71 2.26152 3.60188 0
M  V30 1827 N 167.025 -1.13721 1.09112 0
M  V30 1828 C 168.253 -1.88773 0.846899 0
M  V30 1829 C 168.668 -1.7896 -0.601572 0
M  V30 1830 O 168.025 -1.15394 -1.41388 0
M  V30 1831 C 168.076 -3.3849 1.26913 0
M  V30 1832 O 167.797 -3.48043 2.66079 0
M  V30 1833 C 169.298 -4.30518 1.05682 0
M  V30 1834 H 166.518 -0.59772 0.304914 0
M  V30 1835 H 169.062 -1.43977 1.45227 0
M  V30 1836 H 167.217 -3.80881 0.707723 0
M  V30 1837 H 167.631 -4.4109 2.83795 0
M  V30 1838 H 169.105 -5.3391 1.40156 0
M  V30 1839 H 169.582 -4.392 -0.00563416 0
M  V30 1840 H 170.188 -3.93893 1.60402 0
M  V30 1841 N 168.503 -0.877838 -1.30888 0
M  V30 1842 C 169.749 -0.493426 -1.96706 0
M  V30 1843 C 170.082 0.953504 -1.6918 0
M  V30 1844 O 169.357 1.67266 -0.992594 0
M  V30 1845 C 169.64 -0.760429 -3.51979 0
M  V30 1846 C 169.493 -2.25747 -3.89048 0
M  V30 1847 C 170.812 -0.232148 -4.39487 0
M  V30 1848 H 167.931 -0.180746 -0.714493 0
M  V30 1849 H 170.573 -1.10052 -1.54882 0
M  V30 1850 H 168.723 -0.243715 -3.87735 0
M  V30 1851 H 170.395 -2.84204 -3.63354 0
M  V30 1852 H 168.638 -2.72694 -3.37373 0
M  V30 1853 H 169.309 -2.39491 -4.97341 0
M  V30 1854 H 171.785 -0.674314 -4.106 0
M  V30 1855 H 170.661 -0.448355 -5.47066 0
M  V30 1856 H 170.922 0.866297 -4.33529 0
M  V30 1857 N 169.982 1.44106 -0.638065 0
M  V30 1858 C 170.912 2.33448 0.0494287 0
M  V30 1859 C 171.893 1.48606 0.827672 0
M  V30 1860 O 173.078 1.77308 0.792173 0
M  V30 1861 C 170.208 3.31771 1.02691 0
M  V30 1862 C 169.162 4.26485 0.359823 0
M  V30 1863 C 168.488 5.14729 1.44769 0
M  V30 1864 C 169.788 5.17056 -0.738296 0
M  V30 1865 H 171.482 2.91183 -0.696636 0
M  V30 1866 H 169.028 1.40014 -0.336456 0
M  V30 1867 H 170.981 3.93161 1.51666 0
M  V30 1868 H 169.705 2.7226 1.80395 0
M  V30 1869 H 168.364 3.66437 -0.10934 0
M  V30 1870 H 168.012 4.51566 2.21578 0
M  V30 1871 H 167.712 5.78913 1.00668 0
M  V30 1872 H 169.236 5.78991 1.93911 0
M  V30 1873 H 170.65 5.72342 -0.331354 0
M  V30 1874 H 169.047 5.89879 -1.10286 0
M  V30 1875 H 170.117 4.57652 -1.60258 0
M  V30 1876 N 171.46 0.379036 1.52974 0
M  V30 1877 C 172.408 -0.476033 2.27677 0
M  V30 1878 C 173.402 -1.0719 1.31174 0
M  V30 1879 O 174.608 -1.01355 1.48752 0
M  V30 1880 H 170.983 -0.172255 0.732006 0
M  V30 1881 H 172.954 0.175615 2.97883 0
M  V30 1882 C 171.703 -1.5967 3.0887 0
M  V30 1883 H 171.026 -1.1475 3.82978 0
M  V30 1884 H 172.466 -2.16943 3.64296 0
M  V30 1885 C 170.925 -2.54682 2.20542 0
M  V30 1886 O 171.455 -3.57836 1.82527 0
M  V30 1887 N 169.661 -2.24183 1.84907 0
M  V30 1888 H 169.208 -1.40333 2.1602 0
M  V30 1889 H 169.166 -2.88006 1.26096 0
M  V30 1890 N 172.938 -1.57226 0.108567 0
M  V30 1891 C 173.87 -2.11809 -0.875752 0
M  V30 1892 C 174.883 -1.05839 -1.23701 0
M  V30 1893 O 176.072 -1.33245 -1.18778 0
M  V30 1894 C 173.172 -2.59411 -2.18081 0
M  V30 1895 C 172.345 -3.89364 -1.99284 0
M  V30 1896 C 171.404 -4.22672 -3.13424 0
M  V30 1897 O 170.43 -4.91668 -2.86795 0
M  V30 1898 N 171.632 -3.79154 -4.3957 0
M  V30 1899 H 174.397 -2.9689 -0.409477 0
M  V30 1900 H 171.958 -1.61721 -0.076158 0
M  V30 1901 H 173.95 -2.7873 -2.93414 0
M  V30 1902 H 172.52 -1.79268 -2.5609 0
M  V30 1903 H 171.74 -3.79059 -1.08203 0
M  V30 1904 H 173.028 -4.74358 -1.84017 0
M  V30 1905 H 172.426 -3.23486 -4.64083 0
M  V30 1906 H 170.983 -4.03602 -5.11809 0
M  V30 1907 N 174.416 0.165178 -1.56732 0
M  V30 1908 C 175.346 1.20651 -1.99914 0
M  V30 1909 C 176.327 1.45827 -0.875705 0
M  V30 1910 O 177.512 1.57057 -1.14223 0
M  V30 1911 C 174.642 2.54401 -2.36427 0
M  V30 1912 C 173.596 2.43782 -3.51787 0
M  V30 1913 C 172.922 3.82078 -3.7406 0
M  V30 1914 C 174.222 1.93732 -4.85041 0
M  V30 1915 H 175.916 0.847534 -2.87154 0
M  V30 1916 H 173.462 0.40625 -1.38151 0
M  V30 1917 H 175.415 3.27458 -2.65234 0
M  V30 1918 H 174.139 2.92098 -1.46103 0
M  V30 1919 H 172.798 1.73178 -3.23117 0
M  V30 1920 H 172.446 4.17179 -2.81017 0
M  V30 1921 H 172.146 3.7584 -4.51684 0
M  V30 1922 H 173.67 4.56712 -4.05274 0
M  V30 1923 H 175.084 2.56569 -5.12684 0
M  V30 1924 H 173.481 1.98428 -5.66345 0
M  V30 1925 H 174.551 0.891962 -4.76626 0
M  V30 1926 N 175.894 1.51508 0.433938 0
M  V30 1927 C 176.841 1.73068 1.52696 0
M  V30 1928 C 177.811 0.572441 1.55924 0
M  V30 1929 O 178.996 0.807253 1.72882 0
M  V30 1930 C 176.136 1.86474 2.90381 0
M  V30 1931 C 175.249 3.14037 2.96656 0
M  V30 1932 C 174.384 3.18019 4.25485 0
M  V30 1933 C 173.423 4.39882 4.2564 0
M  V30 1934 N 172.56 4.41394 5.45999 0
M  V30 1935 H 177.4 2.66366 1.33615 0
M  V30 1936 H 174.937 1.32008 0.649018 0
M  V30 1937 H 176.895 1.92229 3.70275 0
M  V30 1938 H 175.525 0.965809 3.08013 0
M  V30 1939 H 174.577 3.17575 2.09404 0
M  V30 1940 H 175.889 4.0394 2.92633 0
M  V30 1941 H 175.043 3.22708 5.13755 0
M  V30 1942 H 173.782 2.2601 4.3217 0
M  V30 1943 H 172.787 4.35366 3.35763 0
M  V30 1944 H 174.012 5.33159 4.20617 0
M  V30 1945 H 171.958 3.52258 5.53399 0
M  V30 1946 H 171.875 5.25111 5.4387 0
M  V30 1947 H 173.143 4.50281 6.36292 0
M  V30 1948 N 177.372 -0.689602 1.41712 0
M  V30 1949 C 178.32 -1.82475 1.44242 0
M  V30 1950 C 179.314 -1.66354 0.319774 0
M  V30 1951 O 180.52 -1.73143 0.492089 0
M  V30 1952 H 176.895 -0.601416 0.451445 0
M  V30 1953 H 178.866 -1.77458 2.39899 0
M  V30 1954 C 177.615 -3.20535 1.3473 0
M  V30 1955 H 176.938 -3.33559 2.20405 0
M  V30 1956 H 178.378 -4.00023 1.40562 0
M  V30 1957 C 176.837 -3.36846 0.0603281 0
M  V30 1958 O 177.367 -3.91656 -0.892663 0
M  V30 1959 N 175.573 -2.90595 -0.0177039 0
M  V30 1960 H 175.12 -2.46178 0.758572 0
M  V30 1961 H 175.078 -3.01886 -0.878201 0
M  V30 1962 N 178.85 -1.27639 -0.924453 0
M  V30 1963 C 180.127 -1.04887 -1.651 0
M  V30 1964 C 180.507 0.415327 -2.06974 0
M  V30 1965 O 179.855 1.39923 -1.80648 0
M  V30 1966 C 180.065 -2.01348 -2.85061 0
M  V30 1967 C 181.413 -2.30899 -3.56329 0
M  V30 1968 O 182.437 -1.99348 -2.95193 0
M  V30 1969 O 181.296 -2.84699 -4.66485 0
M  V30 1970 H 178.39 -0.400083 -0.723784 0
M  V30 1971 H 180.936 -1.38916 -0.974703 0
M  V30 1972 H 179.708 -3.0008 -2.51133 0
M  V30 1973 H 179.331 -1.679 -3.6041 0
M  V30 1974 N 180.328 1.1314 -1.09713 0
M  V30 1975 C 181.739 1.66029 -0.853885 0
M  V30 1976 C 182.09 1.86241 0.617142 0
M  V30 1977 O 181.215 1.5834 1.47503 0
M  V30 1978 C 181.81 3.01599 -1.5435 0
M  V30 1979 C 180.369 3.51467 -1.34714 0
M  V30 1980 C 179.516 2.26648 -1.59769 0
M  V30 1981 H 182.467 0.970226 -1.25588 0
M  V30 1982 H 182.488 3.67709 -0.978267 0
M  V30 1983 H 182 2.86856 -2.6141 0
M  V30 1984 H 180.101 3.71408 -0.297838 0
M  V30 1985 H 180.214 4.314 -2.08401 0
M  V30 1986 H 178.578 2.33385 -1.01998 0
M  V30 1987 H 179.361 2.14467 -2.68065 0
M  V30 1988 N 181.806 0.884767 1.30421 0
M  V30 1989 C 183.083 0.423185 1.90967 0
M  V30 1990 C 183.463 -1.09605 1.80416 0
M  V30 1991 O 182.811 -1.93126 1.22125 0
M  V30 1992 C 183.021 0.921056 3.36627 0
M  V30 1993 C 184.369 0.955903 4.137 0
M  V30 1994 O 185.393 0.867706 3.4547 0
M  V30 1995 O 184.252 1.08614 5.35598 0
M  V30 1996 H 181.346 0.129369 0.816819 0
M  V30 1997 H 183.892 0.973653 1.3899 0
M  V30 1998 H 182.664 1.96489 3.3839 0
M  V30 1999 H 182.287 0.349741 3.96059 0
M  V30 2000 N 183.284 -1.43765 0.645699 0
M  V30 2001 C 184.509 -2.06767 0.161883 0
M  V30 2002 C 184.934 -1.48034 -1.16049 0
M  V30 2003 O 184.292 -0.587369 -1.71522 0
M  V30 2004 C 184.34 -3.60519 0.0762003 0
M  V30 2005 O 183.444 -4.00982 -0.963721 0
M  V30 2006 H 182.785 -0.657675 0.091429 0
M  V30 2007 H 185.315 -1.84397 0.886499 0
M  V30 2008 H 185.325 -4.07853 -0.109604 0
M  V30 2009 H 184 -4.02646 1.04157 0
M  V30 2010 H 182.577 -3.65253 -0.751312 0
M  V30 2011 N 184.763 -0.387143 -1.52771 0
M  V30 2012 C 186.179 -0.037007 -1.59557 0
M  V30 2013 C 186.379 1.44801 -1.40124 0
M  V30 2014 O 185.435 2.21227 -1.21716 0
M  V30 2015 C 186.748 -0.512256 -2.96305 0
M  V30 2016 C 188.296 -0.468328 -3.09476 0
M  V30 2017 C 188.771 -0.919731 -4.4867 0
M  V30 2018 N 190.262 -0.875656 -4.54848 0
M  V30 2019 C 190.997 -1.19637 -5.6078 0
M  V30 2020 N 190.493 -1.58745 -6.74368 0
M  V30 2021 N 192.286 -1.11776 -5.50874 0
M  V30 2022 H 184.437 -1.35395 -1.63652 0
M  V30 2023 H 186.7 -0.554818 -0.768688 0
M  V30 2024 H 186.406 -1.54935 -3.15734 0
M  V30 2025 H 186.28 0.089805 -3.77093 0
M  V30 2026 H 188.667 0.559671 -2.89744 0
M  V30 2027 H 188.748 -1.10616 -2.30646 0
M  V30 2028 H 188.392 -1.94595 -4.69143 0
M  V30 2029 H 188.322 -0.258927 -5.25963 0
M  V30 2030 H 190.813 -0.587843 -3.733 0
M  V30 2031 H 191.126 -1.81586 -7.51163 0
M  V30 2032 H 189.471 -1.6263 -6.75705 0
M  V30 2033 H 192.662 -0.811264 -4.61016 0
M  V30 2034 H 192.835 -1.37103 -6.3333 0
M  V30 2035 N 186.241 1.57166 -0.116904 0
M  V30 2036 C 187.657 1.5779 0.239693 0
M  V30 2037 C 187.857 1.1295 1.66867 0
M  V30 2038 O 186.913 0.81592 2.38954 0
M  V30 2039 C 188.226 3.00699 0.00828202 0
M  V30 2040 C 189.774 3.12912 0.0743438 0
M  V30 2041 C 190.249 4.57817 -0.129348 0
M  V30 2042 N 191.74 4.63139 -0.075247 0
M  V30 2043 C 192.475 5.73023 -0.207788 0
M  V30 2044 N 191.971 6.91665 -0.396382 0
M  V30 2045 N 193.764 5.61906 -0.14751 0
M  V30 2046 H 185.915 1.84615 -1.05029 0
M  V30 2047 H 188.178 0.85311 -0.41341 0
M  V30 2048 H 187.884 3.37784 -0.979531 0
M  V30 2049 H 187.758 3.69848 0.741077 0
M  V30 2050 H 190.145 2.75686 1.05268 0
M  V30 2051 H 190.226 2.4631 -0.690297 0
M  V30 2052 H 189.87 4.95742 -1.10465 0
M  V30 2053 H 189.8 5.22507 0.655253 0
M  V30 2054 H 192.291 3.7784 0.0670898 0
M  V30 2055 H 192.604 7.71255 -0.488437 0
M  V30 2056 H 190.949 6.93654 -0.432329 0
M  V30 2057 H 194.14 4.681 -0.00115036 0
M  V30 2058 H 194.313 6.47501 -0.254247 0
M  V30 2059 N 187.719 -0.156864 1.56817 0
M  V30 2060 C 188.968 -0.869504 1.81996 0
M  V30 2061 C 189.281 -1.82777 0.696545 0
M  V30 2062 O 190.487 -2.58384 0.833658 0
M  V30 2063 C 188.943 -1.59679 3.22538 0
M  V30 2064 C 188.551 -0.681431 4.42787 0
M  V30 2065 C 190.295 -2.2968 3.56997 0
M  V30 2066 C 188.202 -1.40978 5.74351 0
M  V30 2067 H 187.132 -0.328438 0.678708 0
M  V30 2068 H 189.783 -0.1223 1.83092 0
M  V30 2069 H 188.165 -2.38927 3.158 0
M  V30 2070 H 189.339 0.0751166 4.60739 0
M  V30 2071 H 187.654 -0.0903431 4.16302 0
M  V30 2072 H 190.251 -2.84794 4.52544 0
M  V30 2073 H 190.594 -3.05707 2.82576 0
M  V30 2074 H 191.127 -1.57361 3.65352 0
M  V30 2075 H 187.866 -0.691561 6.51842 0
M  V30 2076 H 187.386 -2.13929 5.60352 0
M  V30 2077 H 189.065 -1.95337 6.16808 0
M  V30 2078 N 189.197 -1.51736 -0.425897 0
M  V30 2079 C 190.446 -1.64201 -1.17136 0
M  V30 2080 C 190.759 -0.369705 -1.92074 0
M  V30 2081 O 191.965 -0.373898 -2.68913 0
M  V30 2082 C 190.421 -2.90035 -2.13091 0
M  V30 2083 C 190.029 -4.24312 -1.43747 0
M  V30 2084 C 191.773 -3.1186 -2.87999 0
M  V30 2085 C 189.68 -5.41285 -2.38253 0
M  V30 2086 H 188.61 -0.611624 -0.440944 0
M  V30 2087 H 191.261 -1.78212 -0.437328 0
M  V30 2088 H 189.643 -2.69684 -2.89977 0
M  V30 2089 H 190.817 -4.55086 -0.723408 0
M  V30 2090 H 189.132 -4.08456 -0.809465 0
M  V30 2091 H 191.729 -3.96427 -3.58817 0
M  V30 2092 H 192.072 -2.25403 -3.49999 0
M  V30 2093 H 192.605 -3.32605 -2.18217 0
M  V30 2094 H 189.344 -6.30037 -1.80925 0
M  V30 2095 H 188.864 -5.14872 -3.0768 0
M  V30 2096 H 190.543 -5.73694 -2.99139 0
M  V30 2097 N 190.675 0.682077 -1.42076 0
M  V30 2098 C 191.921 1.44428 -1.42367 0
M  V30 2099 C 192.254 1.94164 -0.0373056 0
M  V30 2100 O 191.529 1.70429 0.937239 0
M  V30 2101 C 191.812 2.64654 -2.44194 0
M  V30 2102 C 191.665 2.20596 -3.91991 0
M  V30 2103 C 192.984 3.66865 -2.431 0
M  V30 2104 H 190.103 0.523834 -0.518428 0
M  V30 2105 H 192.745 0.77576 -1.73442 0
M  V30 2106 H 190.895 3.2169 -2.17826 0
M  V30 2107 H 192.567 1.68783 -4.29313 0
M  V30 2108 H 190.81 1.52242 -4.06208 0
M  V30 2109 H 191.481 3.06921 -4.58807 0
M  V30 2110 H 193.957 3.19531 -2.66532 0
M  V30 2111 H 192.833 4.48577 -3.16339 0
M  V30 2112 H 193.094 4.17493 -1.45437 0
M  V30 2113 N 192.153 1.28127 0.917671 0
M  V30 2114 C 193.378 1.18007 1.70555 0
M  V30 2115 C 193.803 -0.258257 1.86319 0
M  V30 2116 O 193.161 -1.1869 1.37049 0
M  V30 2117 C 193.209 1.87948 3.07746 0
M  V30 2118 O 192.313 1.18427 3.9503 0
M  V30 2119 H 191.654 0.409867 0.522403 0
M  V30 2120 H 194.184 1.69379 1.1477 0
M  V30 2121 H 194.194 1.95701 3.58001 0
M  V30 2122 H 192.869 2.92573 2.95591 0
M  V30 2123 H 191.446 1.18811 3.53466 0
M  V30 2124 N 193.631 -1.12557 1.10312 0
M  V30 2125 C 194.594 -2.16434 0.75424 0
M  V30 2126 C 195.594 -1.59278 -0.220685 0
M  V30 2127 O 196.784 -1.742 0.00230591 0
M  V30 2128 C 193.916 -3.40699 0.116987 0
M  V30 2129 H 195.109 -2.48811 1.67431 0
M  V30 2130 H 192.662 -1.27542 0.903475 0
M  V30 2131 H 193.397 -3.13921 -0.813877 0
M  V30 2132 H 193.182 -3.83459 0.818613 0
M  V30 2133 H 194.672 -4.17451 -0.111387 0
M  V30 2134 N 195.109 -0.891671 -1.2995 0
M  V30 2135 C 196.355 -0.523649 -1.96544 0
M  V30 2136 C 196.71 0.918394 -1.69066 0
M  V30 2137 O 196.003 1.64122 -0.988659 0
M  V30 2138 C 196.197 -0.742868 -3.49594 0
M  V30 2139 C 196.026 -2.20467 -3.9195 0
M  V30 2140 C 194.796 -2.85055 -4.17219 0
M  V30 2141 C 196.994 -3.17912 -4.04273 0
M  V30 2142 N 194.976 -4.21762 -4.46083 0
M  V30 2143 C 196.347 -4.39712 -4.37097 0
M  V30 2144 C 198.402 -3.1361 -3.86721 0
M  V30 2145 C 197.105 -5.5776 -4.54199 0
M  V30 2146 C 199.131 -4.30936 -4.05028 0
M  V30 2147 C 198.493 -5.51504 -4.38204 0
M  V30 2148 H 194.592 -0.241072 -0.743914 0
M  V30 2149 H 197.176 -1.15081 -1.5705 0
M  V30 2150 H 195.347 -0.14515 -3.88129 0
M  V30 2151 H 197.079 -0.341081 -4.0326 0
M  V30 2152 H 193.834 -2.35889 -4.10674 0
M  V30 2153 H 194.258 -4.92382 -4.64638 0
M  V30 2154 H 198.9 -2.21489 -3.60142 0
M  V30 2155 H 196.618 -6.50379 -4.79618 0
M  V30 2156 H 200.204 -4.29085 -3.92909 0
M  V30 2157 H 199.084 -6.40778 -4.52077 0
M  V30 2158 N 196.587 1.43421 -0.653314 0
M  V30 2159 C 197.535 2.32546 0.0501531 0
M  V30 2160 C 198.529 1.48617 0.812985 0
M  V30 2161 O 199.735 1.64825 0.723375 0
M  V30 2162 H 196.11 0.751185 0.0350032 0
M  V30 2163 H 198.081 2.89602 -0.719261 0
M  V30 2164 C 196.83 3.32925 1.00279 0
M  V30 2165 H 196.153 3.97532 0.425236 0
M  V30 2166 H 197.593 3.9792 1.46409 0
M  V30 2167 C 196.052 2.63532 2.09886 0
M  V30 2168 O 196.582 2.45092 3.18265 0
M  V30 2169 N 194.788 2.22905 1.86445 0
M  V30 2170 H 194.335 2.38103 0.98309 0
M  V30 2171 H 194.293 1.76805 2.59976 0
M  V30 2172 N 198.065 0.39524 1.52563 0
M  V30 2173 C 199.311 -0.185318 2.01952 0
M  V30 2174 C 199.644 -1.45964 1.28095 0
M  V30 2175 O 198.919 -1.90689 0.38315 0
M  V30 2176 C 199.202 -0.447193 3.57312 0
M  V30 2177 C 199.055 0.842828 4.41833 0
M  V30 2178 C 200.374 -1.23529 4.22408 0
M  V30 2179 H 197.493 -0.0658788 0.73405 0
M  V30 2180 H 200.135 0.525975 1.82575 0
M  V30 2181 H 198.285 -1.05312 3.73954 0
M  V30 2182 H 199.957 1.4795 4.36931 0
M  V30 2183 H 198.2 1.45686 4.08605 0
M  V30 2184 H 198.871 0.614165 5.48573 0
M  V30 2185 H 201.347 -0.722445 4.0978 0
M  V30 2186 H 200.223 -1.38727 5.3108 0
M  V30 2187 H 200.484 -2.25213 3.80436 0
M  V30 2188 N 199.544 -1.57102 0.125237 0
M  V30 2189 C 200.792 -1.95021 -0.530198 0
M  V30 2190 C 201.113 -1.00982 -1.66816 0
M  V30 2191 O 200.383 -0.0672693 -1.95784 0
M  V30 2192 H 198.963 -0.720046 -0.198853 0
M  V30 2193 H 201.625 -1.93916 0.19564 0
M  V30 2194 H 200.721 -2.98211 -0.920681 0
M  V30 2195 N 201.022 0.148545 -1.56898 0
M  V30 2196 C 201.932 1.20293 -2.01412 0
M  V30 2197 C 202.948 1.47107 -0.929273 0
M  V30 2198 O 204.124 1.58807 -1.23863 0
M  V30 2199 C 201.189 2.51682 -2.38447 0
M  V30 2200 C 200.25 2.32529 -3.60872 0
M  V30 2201 C 199.483 3.57653 -3.96132 0
M  V30 2202 O 199.706 4.63771 -3.32073 0
M  V30 2203 O 198.64 3.50408 -4.89385 0
M  V30 2204 H 202.466 0.855025 -2.91416 0
M  V30 2205 H 200.051 0.357151 -1.45068 0
M  V30 2206 H 201.933 3.29147 -2.63135 0
M  V30 2207 H 200.608 2.86006 -1.51599 0
M  V30 2208 H 199.515 1.53019 -3.41373 0
M  V30 2209 H 200.848 2.03121 -4.48333 0
M  V30 2210 N 202.5 1.5196 0.417844 0
M  V30 2211 C 203.43 1.77634 1.51554 0
M  V30 2212 C 204.411 0.626918 1.58126 0
M  V30 2213 O 205.596 0.871632 1.7354 0
M  V30 2214 C 202.726 1.91911 2.8946 0
M  V30 2215 C 201.68 3.07463 2.97743 0
M  V30 2216 C 201.006 3.06951 4.37819 0
M  V30 2217 C 202.306 4.47082 2.70027 0
M  V30 2218 H 204 2.6955 1.3032 0
M  V30 2219 H 201.546 1.29706 0.625492 0
M  V30 2220 H 203.499 2.08455 3.6623 0
M  V30 2221 H 202.223 0.966598 3.11969 0
M  V30 2222 H 200.882 2.90656 2.23416 0
M  V30 2223 H 200.53 2.09438 4.57323 0
M  V30 2224 H 200.23 3.84556 4.44286 0
M  V30 2225 H 201.754 3.25613 5.16535 0
M  V30 2226 H 203.168 4.6414 3.36522 0
M  V30 2227 H 201.565 5.2654 2.87881 0
M  V30 2228 H 202.635 4.55777 1.65514 0
M  V30 2229 N 203.978 -0.674533 1.42435 0
M  V30 2230 C 205.255 -1.4305 1.33402 0
M  V30 2231 C 205.635 -2.11081 -0.0284674 0
M  V30 2232 O 204.983 -2.03257 -1.04397 0
M  V30 2233 C 205.193 -2.43272 2.50239 0
M  V30 2234 C 206.541 -3.07907 2.92367 0
M  V30 2235 O 207.565 -2.53599 2.50132 0
M  V30 2236 O 206.424 -4.0632 3.65467 0
M  V30 2237 H 203.518 -0.638076 0.526106 0
M  V30 2238 H 206.064 -0.703235 1.54443 0
M  V30 2239 H 204.836 -1.91803 3.41068 0
M  V30 2240 H 204.459 -3.23479 2.31186 0
M  V30 2241 N 205.456 -1.28612 -0.910864 0
M  V30 2242 C 206.403 -1.12786 -2.01365 0
M  V30 2243 C 207.373 -0.024201 -1.66082 0
M  V30 2244 O 208.558 -0.189667 -1.89855 0
M  V30 2245 C 205.698 -0.798743 -3.35729 0
M  V30 2246 C 204.811 -1.98173 -3.83864 0
M  V30 2247 C 203.946 -1.59298 -5.06752 0
M  V30 2248 C 202.985 -2.74245 -5.47226 0
M  V30 2249 N 202.122 -2.35842 -6.61304 0
M  V30 2250 H 206.962 -2.07142 -2.14234 0
M  V30 2251 H 204.499 -1.03093 -1.0493 0
M  V30 2252 H 206.457 -0.588662 -4.13026 0
M  V30 2253 H 205.087 0.10789 -3.2262 0
M  V30 2254 H 204.139 -2.30386 -3.02699 0
M  V30 2255 H 205.451 -2.84343 -4.09818 0
M  V30 2256 H 204.605 -1.34513 -5.916 0
M  V30 2257 H 203.344 -0.702618 -4.82612 0
M  V30 2258 H 202.349 -2.99725 -4.60918 0
M  V30 2259 H 203.574 -3.63928 -5.73353 0
M  V30 2260 H 201.52 -1.49279 -6.38789 0
M  V30 2261 H 201.437 -3.15546 -6.86998 0
M  V30 2262 H 202.705 -2.14348 -7.4945 0
M  V30 2263 N 206.934 1.1197 -1.10907 0
M  V30 2264 C 207.867 2.16998 -0.706192 0
M  V30 2265 C 208.845 1.59903 0.294897 0
M  V30 2266 O 210.029 1.87513 0.192636 0
M  V30 2267 C 207.156 3.38673 -0.0427664 0
M  V30 2268 C 206.202 4.14414 -1.00811 0
M  V30 2269 S 207.035 4.72079 -2.52789 0
M  V30 2270 C 208.191 5.97083 -1.87731 0
M  V30 2271 H 208.424 2.50837 -1.59587 0
M  V30 2272 H 205.957 1.23508 -0.926555 0
M  V30 2273 H 207.915 4.09142 0.333668 0
M  V30 2274 H 206.576 3.03105 0.823788 0
M  V30 2275 H 205.769 5.016 -0.491259 0
M  V30 2276 H 205.371 3.49678 -1.3267 0
M  V30 2277 H 207.663 6.66599 -1.21044 0
M  V30 2278 H 208.606 6.53403 -2.72892 0
M  V30 2279 H 209.014 5.4837 -1.33979 0
M  V30 2280 N 208.412 0.89855 1.29475 0
M  V30 2281 C 209.375 0.380272 2.26023 0
M  V30 2282 C 210.375 -0.484891 1.53315 0
M  V30 2283 O 211.565 -0.290108 1.71767 0
M  V30 2284 C 208.697 -0.45651 3.3783 0
M  V30 2285 H 209.89 1.23295 2.73383 0
M  V30 2286 H 207.443 0.676589 1.40897 0
M  V30 2287 H 208.178 -1.32922 2.95808 0
M  V30 2288 H 207.963 0.163393 3.91759 0
M  V30 2289 H 209.453 -0.810466 4.0966 0
M  V30 2290 N 209.89 -1.43072 0.660911 0
M  V30 2291 C 210.82 -2.33497 -0.0122829 0
M  V30 2292 C 211.801 -1.49903 -0.803925 0
M  V30 2293 O 212.986 -1.78546 -0.763864 0
M  V30 2294 C 210.116 -3.33363 -0.973994 0
M  V30 2295 C 209.07 -4.27003 -0.291928 0
M  V30 2296 C 208.396 -5.16967 -1.36562 0
M  V30 2297 C 209.696 -5.15816 0.820462 0
M  V30 2298 H 211.39 -2.90038 0.742873 0
M  V30 2299 H 208.936 -1.39461 0.358688 0
M  V30 2300 H 210.889 -3.95524 -1.45392 0
M  V30 2301 H 209.613 -2.75095 -1.7604 0
M  V30 2302 H 208.272 -3.66217 0.167623 0
M  V30 2303 H 207.92 -4.55034 -2.14366 0
M  V30 2304 H 207.62 -5.80441 -0.914454 0
M  V30 2305 H 209.144 -5.82003 -1.84675 0
M  V30 2306 H 210.558 -5.71742 0.422366 0
M  V30 2307 H 208.955 -5.8805 1.19656 0
M  V30 2308 H 210.025 -4.55045 1.67518 0
M  V30 2309 N 211.368 -0.403325 -1.52352 0
M  V30 2310 C 212.331 0.413051 -2.25447 0
M  V30 2311 C 213.331 0.978513 -1.276 0
M  V30 2312 O 214.521 0.858305 -1.51587 0
M  V30 2313 C 211.653 1.58087 -3.02029 0
M  V30 2314 H 212.846 -0.227094 -2.99039 0
M  V30 2315 H 210.399 -0.155722 -1.55522 0
M  V30 2316 H 211.134 2.25804 -2.32772 0
M  V30 2317 H 210.919 1.18195 -3.73861 0
M  V30 2318 H 212.409 2.1585 -3.57489 0
M  V30 2319 N 212.846 1.57033 -0.133567 0
M  V30 2320 C 214.257 1.82593 0.389464 0
M  V30 2321 C 214.608 1.05156 1.6564 0
M  V30 2322 O 213.733 0.292644 2.14412 0
M  V30 2323 C 214.328 3.31204 0.713377 0
M  V30 2324 C 212.887 3.57393 1.18098 0
M  V30 2325 C 212.034 2.76598 0.197126 0
M  V30 2326 H 214.985 1.54598 -0.358481 0
M  V30 2327 H 215.006 3.46627 1.56939 0
M  V30 2328 H 214.518 3.87537 -0.2089 0
M  V30 2329 H 212.619 3.06433 2.11966 0
M  V30 2330 H 212.732 4.65915 1.11624 0
M  V30 2331 H 211.096 2.45257 0.687088 0
M  V30 2332 H 211.879 3.35697 -0.718504 0
M  V30 2333 N 214.325 -0.140222 1.56975 0
M  V30 2334 C 215.565 -0.857823 1.85528 0
M  V30 2335 C 215.929 -1.78039 0.718768 0
M  V30 2336 O 217.13 -2.53795 0.885521 0
M  V30 2337 C 215.401 -1.60615 3.19277 0
M  V30 2338 S 216.96 -2.36824 3.69405 0
M  V30 2339 H 213.778 -0.286727 0.650622 0
M  V30 2340 H 216.38 -0.117408 1.95147 0
M  V30 2341 H 215.084 -0.919994 3.99955 0
M  V30 2342 H 214.615 -2.38735 3.12681 0
M  V30 2343 H 216.63 -3.62148 3.3921 0
M  V30 2344 N 215.803 -1.52179 -0.40978 0
M  V30 2345 C 216.753 -1.71857 -1.49831 0
M  V30 2346 C 217.737 -0.572469 -1.50372 0
M  V30 2347 O 218.929 -0.829509 -1.56359 0
M  V30 2348 C 216.058 -1.87206 -2.87765 0
M  V30 2349 C 215.144 -3.07685 -2.91875 0
M  V30 2350 N 215.535 -4.30403 -2.65683 0
M  V30 2351 C 213.833 -3.07505 -3.23043 0
M  V30 2352 C 214.534 -5.11868 -2.76344 0
M  V30 2353 N 213.51 -4.47101 -3.09195 0
M  V30 2354 H 217.312 -2.64381 -1.28375 0
M  V30 2355 H 214.826 -1.50203 -0.617479 0
M  V30 2356 H 216.823 -1.99419 -3.66111 0
M  V30 2357 H 215.483 -0.958814 -3.10221 0
M  V30 2358 H 216.494 -4.58887 -2.4009 0
M  V30 2359 H 213.171 -2.25915 -3.51096 0
M  V30 2360 H 214.561 -6.19634 -2.59814 0
M  V30 2361 N 217.281 0.66697 -1.42791 0
M  V30 2362 C 218.244 1.76211 -1.46568 0
M  V30 2363 C 219.244 1.56896 -0.352196 0
M  V30 2364 O 220.434 1.63044 -0.613364 0
M  V30 2365 C 217.566 3.14935 -1.30494 0
M  V30 2366 H 218.759 1.74247 -2.44086 0
M  V30 2367 H 216.312 0.877342 -1.29354 0
M  V30 2368 H 217.047 3.2252 -0.339301 0
M  V30 2369 H 216.832 3.30359 -2.11199 0
M  V30 2370 H 218.322 3.94821 -1.36038 0
M  V30 2371 N 218.759 1.29093 0.90403 0
M  V30 2372 C 220.006 1.16813 1.65411 0
M  V30 2373 C 220.334 -0.28128 1.92455 0
M  V30 2374 O 219.589 -1.22006 1.53013 0
M  V30 2375 C 219.888 1.92224 3.01305 0
M  V30 2376 C 219.554 3.41968 2.93885 0
M  V30 2377 C 218.216 3.82807 2.91569 0
M  V30 2378 C 220.568 4.37409 2.83413 0
M  V30 2379 C 217.896 5.1741 2.76594 0
M  V30 2380 C 220.248 5.72097 2.69977 0
M  V30 2381 C 218.912 6.12199 2.66024 0
M  V30 2382 H 218.182 0.42745 0.605283 0
M  V30 2383 H 220.829 1.59981 1.05254 0
M  V30 2384 H 219.134 1.41635 3.65304 0
M  V30 2385 H 220.831 1.80131 3.58265 0
M  V30 2386 H 217.421 3.09504 2.96488 0
M  V30 2387 H 221.605 4.06813 2.84283 0
M  V30 2388 H 216.861 5.47596 2.71935 0
M  V30 2389 H 221.035 6.45704 2.60844 0
M  V30 2390 H 218.662 7.16448 2.54178 0
M  V30 2391 N 220.237 -1.11381 1.11499 0
M  V30 2392 C 221.484 -1.83132 0.864231 0
M  V30 2393 C 221.812 -1.84683 -0.610114 0
M  V30 2394 O 221.067 -1.29589 -1.46646 0
M  V30 2395 C 221.366 -3.30026 1.37177 0
M  V30 2396 C 221.032 -3.48634 2.85946 0
M  V30 2397 C 219.694 -3.53421 3.26569 0
M  V30 2398 C 222.046 -3.54837 3.81759 0
M  V30 2399 C 219.374 -3.61967 4.61733 0
M  V30 2400 C 221.726 -3.64915 5.1674 0
M  V30 2401 C 220.39 -3.67962 5.5692 0
M  V30 2402 H 219.66 -0.670127 0.316245 0
M  V30 2403 H 222.307 -1.31354 1.3935 0
M  V30 2404 H 220.612 -3.84304 0.762753 0
M  V30 2405 H 222.309 -3.84034 1.15408 0
M  V30 2406 H 218.899 -3.45579 2.53521 0
M  V30 2407 H 223.083 -3.50399 3.51474 0
M  V30 2408 H 218.339 -3.62603 4.92269 0
M  V30 2409 H 222.513 -3.68658 5.90816 0
M  V30 2410 H 220.14 -3.74336 6.61647 0
M  V30 2411 N 221.715 -0.905404 -1.28997 0
M  V30 2412 C 222.647 -0.344748 -2.26592 0
M  V30 2413 C 223.66 0.512135 -1.54535 0
M  V30 2414 O 224.849 0.328368 -1.75454 0
M  V30 2415 C 221.949 0.526587 -3.34784 0
M  V30 2416 C 221.122 -0.305871 -4.36329 0
M  V30 2417 C 220.181 0.499209 -5.23827 0
M  V30 2418 O 219.207 -0.0853004 -5.69136 0
M  V30 2419 N 220.409 1.80408 -5.51755 0
M  V30 2420 H 223.174 -1.18359 -2.75338 0
M  V30 2421 H 220.735 -0.770481 -1.42391 0
M  V30 2422 H 222.727 1.07171 -3.90252 0
M  V30 2423 H 221.297 1.26613 -2.85811 0
M  V30 2424 H 220.517 -1.0324 -3.80441 0
M  V30 2425 H 221.805 -0.875773 -5.01206 0
M  V30 2426 H 221.203 2.3016 -5.16762 0
M  V30 2427 H 219.76 2.29621 -6.10014 0
M  V30 2428 N 223.193 1.4272 -0.668489 0
M  V30 2429 C 224.44 2.01624 -0.18814 0
M  V30 2430 C 224.768 1.5282 1.20317 0
M  V30 2431 O 224.023 0.718323 1.8204 0
M  V30 2432 C 224.322 3.57021 -0.164499 0
M  V30 2433 C 223.988 4.25232 -1.49962 0
M  V30 2434 C 222.65 4.4358 -1.8652 0
M  V30 2435 C 225.002 4.63727 -2.37921 0
M  V30 2436 C 222.33 4.97694 -3.10674 0
M  V30 2437 C 224.682 5.19218 -3.6138 0
M  V30 2438 C 223.346 5.3578 -3.98115 0
M  V30 2439 H 222.616 0.737795 -0.0688454 0
M  V30 2440 H 225.263 1.70991 -0.862225 0
M  V30 2441 H 223.568 3.87285 0.593079 0
M  V30 2442 H 225.265 4.00372 0.224271 0
M  V30 2443 H 221.855 4.11306 -1.20522 0
M  V30 2444 H 226.039 4.4923 -2.10964 0
M  V30 2445 H 221.295 5.08702 -3.39164 0
M  V30 2446 H 225.469 5.4799 -4.29743 0
M  V30 2447 H 223.096 5.77475 -4.94395 0
M  V30 2448 N 224.671 0.411399 1.52136 0
M  V30 2449 C 225.901 -0.16284 2.05957 0
M  V30 2450 C 226.309 -1.3922 1.28119 0
M  V30 2451 O 225.652 -1.80768 0.326881 0
M  V30 2452 C 225.714 -0.575946 3.54856 0
M  V30 2453 C 225.378 0.542998 4.53763 0
M  V30 2454 C 226.375 1.40726 5.00492 0
M  V30 2455 C 224.06 0.716337 4.97166 0
M  V30 2456 C 226.054 2.4298 5.8927 0
M  V30 2457 C 223.741 1.74218 5.8574 0
M  V30 2458 C 224.739 2.59731 6.31687 0
M  V30 2459 O 224.427 3.60558 7.18507 0
M  V30 2460 H 224.159 -0.0229125 0.675612 0
M  V30 2461 H 226.713 0.581634 1.96993 0
M  V30 2462 H 224.943 -1.37274 3.61515 0
M  V30 2463 H 226.632 -1.07836 3.91313 0
M  V30 2464 H 227.398 1.28476 4.67674 0
M  V30 2465 H 223.277 0.0603857 4.6096 0
M  V30 2466 H 226.821 3.0976 6.25055 0
M  V30 2467 H 222.718 1.86498 6.17971 0
M  V30 2468 H 223.486 3.56829 7.36624 0
M  V30 2469 N 226.149 -1.5696 0.141893 0
M  V30 2470 C 227.395 -1.9625 -0.511248 0
M  V30 2471 C 227.728 -1.02654 -1.64851 0
M  V30 2472 O 227.003 -0.0679676 -1.94381 0
M  V30 2473 C 227.286 -3.45285 -1.02227 0
M  V30 2474 C 227.139 -4.49658 0.113138 0
M  V30 2475 C 228.458 -3.96698 -1.90574 0
M  V30 2476 H 225.577 -0.713567 -0.184367 0
M  V30 2477 H 228.219 -1.88698 0.222087 0
M  V30 2478 H 226.369 -3.51852 -1.64719 0
M  V30 2479 H 228.041 -4.55174 0.749302 0
M  V30 2480 H 226.284 -4.26857 0.773026 0
M  V30 2481 H 226.955 -5.51258 -0.286053 0
M  V30 2482 H 229.431 -3.92578 -1.37918 0
M  V30 2483 H 228.307 -5.01453 -2.2324 0
M  V30 2484 H 228.568 -3.3875 -2.84079 0
M  V30 2485 N 227.627 0.131896 -1.57047 0
M  V30 2486 C 228.59 1.14638 -1.98471 0
M  V30 2487 C 229.59 1.35029 -0.873148 0
M  V30 2488 O 230.78 1.31764 -1.13946 0
M  V30 2489 C 227.912 2.50358 -2.31373 0
M  V30 2490 H 229.105 0.79064 -2.8929 0
M  V30 2491 H 226.658 0.375761 -1.51716 0
M  V30 2492 H 227.393 2.90876 -1.43393 0
M  V30 2493 H 227.178 2.36915 -3.12432 0
M  V30 2494 H 228.668 3.23395 -2.64207 0
M  V30 2495 N 229.106 1.52395 0.401703 0
M  V30 2496 C 230.383 1.57387 1.16141 0
M  V30 2497 C 230.763 0.359359 2.08019 0
M  V30 2498 O 230.111 -0.65326 2.18963 0
M  V30 2499 C 230.321 2.90631 1.93221 0
M  V30 2500 C 231.669 3.43904 2.49028 0
M  V30 2501 O 232.693 2.92421 2.03393 0
M  V30 2502 O 231.552 4.33823 3.32356 0
M  V30 2503 H 228.646 0.634262 0.530698 0
M  V30 2504 H 231.192 1.64725 0.407883 0
M  V30 2505 H 229.964 3.70473 1.25958 0
M  V30 2506 H 229.587 2.8662 2.75563 0
M  V30 2507 N 230.584 -0.659388 1.43143 0
M  V30 2508 C 231.832 -1.41654 1.44147 0
M  V30 2509 C 232.153 -1.94893 0.0645739 0
M  V30 2510 O 231.423 -1.74044 -0.899198 0
M  V30 2511 H 230.003 -0.525708 0.530697 0
M  V30 2512 H 232.665 -0.778097 1.78694 0
M  V30 2513 H 231.761 -2.26195 2.1504 0
M  V30 2514 N 232.062 -1.29571 -0.897171 0
M  V30 2515 C 233.009 -1.14916 -2.00158 0
M  V30 2516 C 233.979 -0.0418149 -1.66047 0
M  V30 2517 O 235.164 -0.209793 -1.89643 0
M  V30 2518 C 232.304 -0.834307 -3.34863 0
M  V30 2519 C 231.417 -2.02234 -3.8174 0
M  V30 2520 C 230.552 -1.64664 -5.05034 0
M  V30 2521 C 229.591 -2.80033 -5.44286 0
M  V30 2522 N 228.728 -2.42843 -6.58765 0
M  V30 2523 H 233.568 -2.09403 -2.12025 0
M  V30 2524 H 231.105 -1.042 -1.0383 0
M  V30 2525 H 233.063 -0.632436 -4.12379 0
M  V30 2526 H 231.693 0.0736656 -3.22716 0
M  V30 2527 H 230.745 -2.33583 -3.00238 0
M  V30 2528 H 232.057 -2.88673 -4.06779 0
M  V30 2529 H 231.211 -1.4078 -5.9014 0
M  V30 2530 H 229.95 -0.753766 -4.8184 0
M  V30 2531 H 228.955 -3.04596 -4.57713 0
M  V30 2532 H 230.18 -3.69989 -5.6946 0
M  V30 2533 H 228.126 -1.56046 -6.3717 0
M  V30 2534 H 228.043 -3.22815 -6.83613 0
M  V30 2535 H 229.311 -2.22285 -7.47134 0
M  V30 2536 N 233.54 1.10788 -1.12088 0
M  V30 2537 C 234.47 2.19083 -0.807755 0
M  V30 2538 C 235.451 1.6858 0.226859 0
M  V30 2539 O 236.636 1.93997 0.0888475 0
M  V30 2540 C 233.766 3.46344 -0.257576 0
M  V30 2541 C 232.72 4.101 -1.22483 0
M  V30 2542 C 232.046 5.32016 -0.535052 0
M  V30 2543 C 233.346 4.54236 -2.57811 0
M  V30 2544 H 235.04 2.45534 -1.71328 0
M  V30 2545 H 232.586 1.1801 -0.825205 0
M  V30 2546 H 234.539 4.21392 -0.0262679 0
M  V30 2547 H 233.263 3.19373 0.683278 0
M  V30 2548 H 231.922 3.37054 -1.44189 0
M  V30 2549 H 231.57 5.01319 0.410827 0
M  V30 2550 H 231.27 5.75625 -1.18024 0
M  V30 2551 H 232.794 6.09799 -0.312695 0
M  V30 2552 H 234.208 5.20575 -2.40155 0
M  V30 2553 H 232.605 5.08682 -3.18375 0
M  V30 2554 H 233.675 3.6734 -3.16528 0
M  V30 2555 N 235.018 0.912232 1.28515 0
M  V30 2556 C 236.243 0.559774 1.99703 0
M  V30 2557 C 236.668 -0.851393 1.67729 0
M  V30 2558 O 236.026 -1.56875 0.908834 0
M  V30 2559 C 236.074 0.773874 3.52198 0
M  V30 2560 O 235.178 -0.167842 4.12058 0
M  V30 2561 H 234.519 0.21723 0.627461 0
M  V30 2562 H 237.049 1.22725 1.63706 0
M  V30 2563 H 237.059 0.683386 4.02236 0
M  V30 2564 H 235.734 1.80261 3.74805 0
M  V30 2565 H 234.311 -0.0287509 3.72889 0
M  V30 2566 N 236.496 -1.42363 0.676048 0
M  V30 2567 C 237.736 -2.03392 0.20273 0
M  V30 2568 C 238.1 -1.52306 -1.16906 0
M  V30 2569 O 239.301 -2.05129 -1.73711 0
M  V30 2570 C 237.572 -3.56614 0.236947 0
M  V30 2571 S 239.131 -4.38489 -0.165186 0
M  V30 2572 H 235.949 -0.70611 0.0832418 0
M  V30 2573 H 238.551 -1.74093 0.88948 0
M  V30 2574 H 237.255 -3.91293 1.23767 0
M  V30 2575 H 236.786 -3.90587 -0.469596 0
M  V30 2576 H 238.801 -4.76093 -1.39822 0
M  V30 2577 N 237.974 -0.419461 -1.51915 0
M  V30 2578 C 238.906 0.43646 -2.25006 0
M  V30 2579 C 239.919 1.00149 -1.28351 0
M  V30 2580 O 241.108 0.898674 -1.54227 0
M  V30 2581 C 238.208 1.6206 -2.9764 0
M  V30 2582 C 237.381 1.17763 -4.21249 0
M  V30 2583 C 236.44 2.22985 -4.76617 0
M  V30 2584 O 235.466 1.83151 -5.38929 0
M  V30 2585 N 236.668 3.55271 -4.59089 0
M  V30 2586 H 239.433 -0.18989 -2.99098 0
M  V30 2587 H 236.994 -0.247386 -1.59999 0
M  V30 2588 H 238.986 2.32038 -3.31573 0
M  V30 2589 H 237.556 2.15266 -2.2667 0
M  V30 2590 H 236.776 0.305582 -3.93014 0
M  V30 2591 H 238.064 0.858781 -5.015 0
M  V30 2592 H 237.462 3.90377 -4.09417 0
M  V30 2593 H 236.019 4.21195 -4.97432 0
M  V30 2594 N 239.452 1.56882 -0.150215 0
M  V30 2595 C 240.382 2.19935 0.784284 0
M  V30 2596 C 241.363 1.14854 1.25469 0
M  V30 2597 O 242.548 1.43209 1.31168 0
M  V30 2598 C 239.678 2.82349 2.02229 0
M  V30 2599 C 238.632 3.93285 1.68853 0
M  V30 2600 C 237.958 4.42649 2.99944 0
M  V30 2601 C 239.258 5.13904 0.932714 0
M  V30 2602 H 240.952 2.9828 0.258781 0
M  V30 2603 H 238.498 1.43473 0.123029 0
M  V30 2604 H 240.451 3.25126 2.68088 0
M  V30 2605 H 239.175 2.0134 2.57157 0
M  V30 2606 H 237.834 3.5113 1.05371 0
M  V30 2607 H 237.482 3.58458 3.52869 0
M  V30 2608 H 237.182 5.17476 2.78374 0
M  V30 2609 H 238.706 4.88099 3.66868 0
M  V30 2610 H 240.12 5.53506 1.49345 0
M  V30 2611 H 238.517 5.94515 0.81684 0
M  V30 2612 H 239.587 4.84842 -0.0749568 0
M  V30 2613 N 240.93 -0.123565 1.57115 0
M  V30 2614 C 242.16 -0.845233 1.88519 0
M  V30 2615 C 242.568 -1.74168 0.739064 0
M  V30 2616 O 241.911 -1.81244 -0.299355 0
M  V30 2617 C 241.973 -1.73452 3.14888 0
M  V30 2618 C 241.637 -1.01285 4.45635 0
M  V30 2619 C 242.634 -0.355774 5.18681 0
M  V30 2620 C 240.319 -0.99538 4.92339 0
M  V30 2621 C 242.313 0.309114 6.3665 0
M  V30 2622 C 240 -0.32669 6.10226 0
M  V30 2623 C 240.998 0.324406 6.82229 0
M  V30 2624 O 240.686 0.982437 7.97874 0
M  V30 2625 H 240.418 -0.248534 0.628655 0
M  V30 2626 H 242.972 -0.113907 2.05084 0
M  V30 2627 H 241.202 -2.50737 2.94394 0
M  V30 2628 H 242.891 -2.33021 3.32349 0
M  V30 2629 H 243.657 -0.360918 4.83655 0
M  V30 2630 H 239.536 -1.49159 4.36202 0
M  V30 2631 H 243.08 0.8179 6.92789 0
M  V30 2632 H 238.977 -0.319294 6.4471 0
M  V30 2633 H 239.745 0.886454 8.13686 0
M  V30 2634 N 242.408 -1.52605 -0.393616 0
M  V30 2635 C 243.34 -1.73303 -1.49995 0
M  V30 2636 C 244.353 -0.613473 -1.50799 0
M  V30 2637 O 245.542 -0.889049 -1.54784 0
M  V30 2638 C 242.642 -1.77245 -2.88855 0
M  V30 2639 C 241.815 -3.06483 -3.12069 0
M  V30 2640 C 240.874 -3.02033 -4.30886 0
M  V30 2641 O 239.9 -3.75907 -4.27414 0
M  V30 2642 N 241.102 -2.20897 -5.36828 0
M  V30 2643 H 243.867 -2.68756 -1.32629 0
M  V30 2644 H 241.428 -1.51036 -0.583083 0
M  V30 2645 H 243.42 -1.7178 -3.66434 0
M  V30 2646 H 241.99 -0.891993 -2.99603 0
M  V30 2647 H 241.21 -3.25474 -2.22396 0
M  V30 2648 H 242.498 -3.91947 -3.2443 0
M  V30 2649 H 241.896 -1.60336 -5.42502 0
M  V30 2650 H 240.453 -2.21275 -6.13091 0
M  V30 2651 N 243.887 0.651787 -1.4349 0
M  V30 2652 C 245.303 0.96762 -1.26922 0
M  V30 2653 C 245.503 2.00602 -0.189982 0
M  V30 2654 O 244.559 2.48793 0.431107 0
M  V30 2655 C 245.872 1.45052 -2.63401 0
M  V30 2656 C 247.42 1.5671 -2.70945 0
M  V30 2657 C 247.895 2.0839 -4.07845 0
M  V30 2658 N 249.386 2.1569 -4.09917 0
M  V30 2659 C 250.121 2.56804 -5.12679 0
M  V30 2660 N 249.617 2.97203 -6.25813 0
M  V30 2661 N 251.41 2.56756 -5.00033 0
M  V30 2662 H 243.561 -0.0353158 -2.12371 0
M  V30 2663 H 245.824 0.0467858 -0.946845 0
M  V30 2664 H 245.53 0.761926 -3.43348 0
M  V30 2665 H 245.404 2.42529 -2.88894 0
M  V30 2666 H 247.791 2.2467 -1.9133 0
M  V30 2667 H 247.872 0.57662 -2.49216 0
M  V30 2668 H 247.516 1.41031 -4.87927 0
M  V30 2669 H 247.446 3.08271 -4.26938 0
M  V30 2670 H 249.937 1.87237 -3.28254 0
M  V30 2671 H 250.25 3.27328 -7.00055 0
M  V30 2672 H 248.595 2.95004 -6.29283 0
M  V30 2673 H 251.786 2.24572 -4.10713 0
M  V30 2674 H 251.959 2.88475 -5.80247 0
M  V30 2675 N 245.365 1.30045 0.890287 0
M  V30 2676 C 246.59 1.21598 1.68014 0
M  V30 2677 C 247.015 -0.218678 1.86825 0
M  V30 2678 O 246.373 -1.15756 1.39536 0
M  V30 2679 C 246.421 1.94434 3.03691 0
M  V30 2680 O 245.525 1.2678 3.92429 0
M  V30 2681 H 244.866 0.420856 0.513592 0
M  V30 2682 H 247.396 1.71775 1.11151 0
M  V30 2683 H 247.406 2.03251 3.5377 0
M  V30 2684 H 246.081 2.98777 2.89318 0
M  V30 2685 H 244.658 1.26282 3.50866 0
M  V30 2686 N 246.843 -1.10192 1.12674 0
M  V30 2687 C 248.083 -1.83825 0.893736 0
M  V30 2688 C 248.447 -1.83341 -0.570082 0
M  V30 2689 O 249.648 -2.52553 -0.920354 0
M  V30 2690 C 247.919 -3.26405 1.45582 0
M  V30 2691 S 249.478 -4.17136 1.36171 0
M  V30 2692 H 246.296 -0.633732 0.322342 0
M  V30 2693 H 248.898 -1.32581 1.43675 0
M  V30 2694 H 247.602 -3.24329 2.51473 0
M  V30 2695 H 247.133 -3.82721 0.910405 0
M  V30 2696 H 249.148 -4.95069 0.334863 0
M  V30 2697 N 248.321 -0.919034 -1.28029 0
M  V30 2698 C 249.598 -0.473668 -1.89778 0
M  V30 2699 C 249.978 1.04783 -1.83259 0
M  V30 2700 O 249.326 1.8982 -1.27202 0
M  V30 2701 C 249.536 -1.00998 -3.34066 0
M  V30 2702 C 250.884 -1.06525 -4.1102 0
M  V30 2703 O 251.908 -0.958996 -3.43048 0
M  V30 2704 O 250.767 -1.22776 -5.3253 0
M  V30 2705 H 247.861 -0.15098 -0.813101 0
M  V30 2706 H 250.407 -1.01016 -1.36359 0
M  V30 2707 H 249.179 -2.05392 -3.33061 0
M  V30 2708 H 248.802 -0.454626 -3.94992 0
M  V30 2709 N 249.799 1.42003 -0.683588 0
M  V30 2710 C 251.045 2.01712 -0.209825 0
M  V30 2711 C 251.378 1.53968 1.18353 0
M  V30 2712 O 250.653 0.745661 1.79639 0
M  V30 2713 C 250.936 3.59202 -0.254197 0
M  V30 2714 C 250.789 4.17102 -1.68363 0
M  V30 2715 C 252.108 4.38344 0.392709 0
M  V30 2716 H 249.227 0.732891 -0.0777189 0
M  V30 2717 H 251.869 1.68909 -0.87004 0
M  V30 2718 H 250.019 3.87278 0.307954 0
M  V30 2719 H 251.691 3.99946 -2.29871 0
M  V30 2720 H 249.934 3.72597 -2.22157 0
M  V30 2721 H 250.605 5.26249 -1.6663 0
M  V30 2722 H 253.081 4.16011 -0.0859162 0
M  V30 2723 H 251.957 5.47901 0.331063 0
M  V30 2724 H 252.218 4.16887 1.47164 0
M  V30 2725 N 251.277 0.427512 1.51691 0
M  V30 2726 C 252.524 -0.142229 2.02 0
M  V30 2727 C 252.852 -1.43566 1.31221 0
M  V30 2728 O 252.107 -1.91298 0.412744 0
M  V30 2729 C 252.406 -0.418249 3.54944 0
M  V30 2730 C 252.072 0.788187 4.43958 0
M  V30 2731 C 250.734 1.11906 4.68007 0
M  V30 2732 C 253.086 1.59347 4.96244 0
M  V30 2733 C 250.414 2.25608 5.41588 0
M  V30 2734 C 252.766 2.7214 5.71072 0
M  V30 2735 C 251.43 3.05692 5.93387 0
M  V30 2736 H 250.7 -0.0520451 0.73917 0
M  V30 2737 H 253.347 0.572697 1.82736 0
M  V30 2738 H 251.652 -1.21496 3.72486 0
M  V30 2739 H 253.349 -0.872339 3.91397 0
M  V30 2740 H 249.939 0.520344 4.2543 0
M  V30 2741 H 254.123 1.35106 4.77556 0
M  V30 2742 H 249.379 2.51929 5.57083 0
M  V30 2743 H 253.553 3.34914 6.10578 0
M  V30 2744 H 251.18 3.9391 6.50184 0
M  V30 2745 N 252.755 -1.56801 0.158532 0
M  V30 2746 C 253.685 -2.20347 -0.772609 0
M  V30 2747 C 254.666 -1.15518 -1.24859 0
M  V30 2748 O 255.851 -1.43902 -1.30406 0
M  V30 2749 C 252.981 -2.83417 -2.00729 0
M  V30 2750 C 251.935 -3.94174 -1.66765 0
M  V30 2751 C 251.261 -4.44233 -2.97592 0
M  V30 2752 C 252.561 -5.14392 -0.905447 0
M  V30 2753 H 254.255 -2.98413 -0.242959 0
M  V30 2754 H 251.801 -1.43537 -0.115419 0
M  V30 2755 H 253.754 -3.26543 -2.6636 0
M  V30 2756 H 252.478 -2.02701 -2.56086 0
M  V30 2757 H 251.137 -3.51684 -1.03508 0
M  V30 2758 H 250.785 -3.60325 -3.50963 0
M  V30 2759 H 250.485 -5.18945 -2.75626 0
M  V30 2760 H 252.009 -4.90037 -3.64274 0
M  V30 2761 H 253.423 -5.5429 -1.46408 0
M  V30 2762 H 251.82 -5.9494 -0.7853 0
M  V30 2763 H 252.89 -4.84795 0.100668 0
M  V30 2764 N 254.233 0.115231 -1.57178 0
M  V30 2765 C 255.481 0.820727 -1.84685 0
M  V30 2766 C 255.802 1.80237 -0.744279 0
M  V30 2767 O 255.072 1.94529 0.231375 0
M  V30 2768 H 253.652 0.306084 -0.681411 0
M  V30 2769 H 256.314 0.101656 -1.94635 0
M  V30 2770 H 255.41 1.36366 -2.80733 0
M  V30 2771 N 255.711 1.52812 0.385517 0
M  V30 2772 C 256.641 1.80808 1.47752 0
M  V30 2773 C 257.622 0.660318 1.5676 0
M  V30 2774 O 258.807 0.908246 1.71652 0
M  V30 2775 C 255.937 1.98008 2.85324 0
M  V30 2776 C 254.891 3.13709 2.91154 0
M  V30 2777 C 254.217 3.16169 4.31209 0
M  V30 2778 C 255.517 4.52709 2.60483 0
M  V30 2779 H 257.211 2.72253 1.24573 0
M  V30 2780 H 254.757 1.31003 0.597839 0
M  V30 2781 H 256.71 2.16176 3.61726 0
M  V30 2782 H 255.434 1.03255 3.09848 0
M  V30 2783 H 254.093 2.95329 2.17201 0
M  V30 2784 H 253.741 2.19092 4.52778 0
M  V30 2785 H 253.441 3.93894 4.36029 0
M  V30 2786 H 254.965 3.36496 5.09512 0
M  V30 2787 H 256.379 4.71173 3.26602 0
M  V30 2788 H 254.776 5.32528 2.76648 0
M  V30 2789 H 255.846 4.59186 1.55809 0
M  V30 2790 N 257.189 -0.644168 1.43834 0
M  V30 2791 C 258.6 -1.22554 1.40845 0
M  V30 2792 C 258.951 -1.9585 0.117115 0
M  V30 2793 O 258.076 -2.01734 -0.783086 0
M  V30 2794 C 258.671 -2.22907 2.55143 0
M  V30 2795 C 257.23 -2.76501 2.5539 0
M  V30 2796 C 256.377 -1.51287 2.32396 0
M  V30 2797 H 259.328 -0.43563 1.52604 0
M  V30 2798 H 259.349 -3.05259 2.2715 0
M  V30 2799 H 258.861 -1.69533 3.49114 0
M  V30 2800 H 256.962 -3.33914 1.65324 0
M  V30 2801 H 257.075 -3.23429 3.53455 0
M  V30 2802 H 255.439 -1.78957 1.81236 0
M  V30 2803 H 256.222 -0.998336 3.28463 0
M  V30 2804 N 258.668 -1.30515 -0.883378 0
M  V30 2805 C 259.915 -1.1943 -1.63532 0
M  V30 2806 C 260.243 0.250627 -1.92878 0
M  V30 2807 O 259.498 1.19556 -1.54935 0
M  V30 2808 C 259.797 -1.96994 -2.98209 0
M  V30 2809 C 259.463 -3.466 -2.88408 0
M  V30 2810 C 258.125 -3.87397 -2.85442 0
M  V30 2811 C 260.477 -4.41863 -2.76418 0
M  V30 2812 C 257.805 -5.21745 -2.68327 0
M  V30 2813 C 260.157 -5.7632 -2.60841 0
M  V30 2814 C 258.821 -6.16354 -2.56251 0
M  V30 2815 H 258.091 -0.437025 -0.598406 0
M  V30 2816 H 260.738 -1.61635 -1.02696 0
M  V30 2817 H 259.043 -1.47429 -3.63004 0
M  V30 2818 H 260.74 -1.85808 -3.55354 0
M  V30 2819 H 257.33 -3.14182 -2.91527 0
M  V30 2820 H 261.514 -4.11285 -2.77775 0
M  V30 2821 H 256.77 -5.51853 -2.63189 0
M  V30 2822 H 260.944 -6.49772 -2.50538 0
M  V30 2823 H 258.571 -7.20401 -2.42748 0
M  V30 2824 N 260.146 1.09593 -1.13257 0
M  V30 2825 C 261.094 2.18271 -0.803783 0
M  V30 2826 C 262.088 1.68054 0.213148 0
M  V30 2827 O 263.294 1.79862 0.0704699 0
M  V30 2828 H 259.669 0.711949 -0.242143 0
M  V30 2829 H 261.64 2.43235 -1.72856 0
M  V30 2830 C 260.389 3.46536 -0.28424 0
M  V30 2831 H 259.712 3.85545 -1.05807 0
M  V30 2832 H 261.152 4.23899 -0.0925945 0
M  V30 2833 C 259.611 3.22036 0.989684 0
M  V30 2834 O 260.141 3.44509 2.06584 0
M  V30 2835 N 258.347 2.7565 0.920086 0
M  V30 2836 H 257.894 2.57562 0.0442019 0
M  V30 2837 H 257.852 2.59635 1.77306 0
M  V30 2838 N 261.624 0.925811 1.2754 0
M  V30 2839 C 262.873 0.561084 1.93739 0
M  V30 2840 C 263.186 -0.901685 1.73577 0
M  V30 2841 O 264.392 -1.37511 2.34101 0
M  V30 2842 C 262.848 0.952668 3.47062 0
M  V30 2843 C 262.456 2.43599 3.75983 0
M  V30 2844 C 264.2 0.659103 4.19352 0
M  V30 2845 C 262.107 2.76707 5.22673 0
M  V30 2846 H 261.037 0.206122 0.725279 0
M  V30 2847 H 263.688 1.12637 1.44863 0
M  V30 2848 H 262.07 0.316053 3.94737 0
M  V30 2849 H 263.244 3.12035 3.39073 0
M  V30 2850 H 261.559 2.70125 3.16893 0
M  V30 2851 H 264.156 0.882985 5.27359 0
M  V30 2852 H 264.499 -0.403607 4.14339 0
M  V30 2853 H 265.032 1.25473 3.77494 0
M  V30 2854 H 261.771 3.8188 5.32774 0
M  V30 2855 H 261.291 2.12919 5.60737 0
M  V30 2856 H 262.97 2.6435 5.90532 0
M  V30 2857 N 263.102 -1.41638 0.69111 0
M  V30 2858 C 264.065 -2.29178 0.0319786 0
M  V30 2859 C 265.065 -1.44153 -0.712496 0
M  V30 2860 O 266.255 -1.65354 -0.548053 0
M  V30 2861 C 263.387 -3.26952 -0.965161 0
M  V30 2862 H 264.58 -2.88959 0.802681 0
M  V30 2863 H 262.133 -1.4955 0.454356 0
M  V30 2864 H 262.868 -2.72142 -1.76378 0
M  V30 2865 H 262.653 -3.89685 -0.434522 0
M  V30 2866 H 264.143 -3.92561 -1.42428 0
M  V30 2867 N 264.58 -0.43555 -1.51462 0
M  V30 2868 C 265.805 0.132627 -2.06976 0
M  V30 2869 C 266.23 1.35848 -1.30104 0
M  V30 2870 O 265.588 1.78112 -0.338493 0
M  V30 2871 C 265.636 0.43523 -3.57964 0
M  V30 2872 O 264.74 1.52198 -3.83288 0
M  V30 2873 H 264.081 0.00265 -0.663995 0
M  V30 2874 H 266.611 -0.616369 -1.95095 0
M  V30 2875 H 266.621 0.686206 -4.02188 0
M  V30 2876 H 265.296 -0.460739 -4.1334 0
M  V30 2877 H 263.873 1.2611 -3.50928 0
M  V30 2878 N 266.058 1.56714 -0.166846 0
M  V30 2879 C 267.288 2.00828 0.48494 0
M  V30 2880 C 267.696 1.04612 1.57648 0
M  V30 2881 O 267.039 0.0383201 1.8366 0
M  V30 2882 C 267.101 3.4137 1.12723 0
M  V30 2883 C 266.765 4.56654 0.177886 0
M  V30 2884 C 267.762 5.16402 -0.60207 0
M  V30 2885 C 265.447 5.02244 0.0750139 0
M  V30 2886 C 267.441 6.20167 -1.47215 0
M  V30 2887 C 265.128 6.05859 -0.798649 0
M  V30 2888 C 266.126 6.64691 -1.57082 0
M  V30 2889 O 265.814 7.66297 -2.42989 0
M  V30 2890 H 265.546 0.663587 0.128953 0
M  V30 2891 H 268.1 2.03692 -0.264365 0
M  V30 2892 H 266.33 3.35406 1.92457 0
M  V30 2893 H 268.019 3.69466 1.68076 0
M  V30 2894 H 268.785 4.82065 -0.53274 0
M  V30 2895 H 264.664 4.56167 0.665812 0
M  V30 2896 H 268.208 6.66016 -2.07531 0
M  V30 2897 H 264.105 6.39621 -0.869199 0
M  V30 2898 H 264.873 7.83601 -2.36455 0
M  V30 2899 N 267.536 -0.106894 1.57237 0
M  V30 2900 C 268.499 -1.11466 2.0027 0
M  V30 2901 C 269.499 -1.33623 0.894519 0
M  V30 2902 O 270.689 -1.29935 1.16028 0
M  V30 2903 C 267.821 -2.46646 2.35327 0
M  V30 2904 H 269.014 -0.744516 2.90512 0
M  V30 2905 H 266.567 -0.351576 1.52295 0
M  V30 2906 H 267.302 -2.88558 1.48003 0
M  V30 2907 H 267.087 -2.31915 3.16161 0
M  V30 2908 H 268.577 -3.19151 2.69318 0
M  V30 2909 N 269.014 -1.53014 -0.377408 0
M  V30 2910 C 269.944 -1.81589 -1.46791 0
M  V30 2911 C 270.925 -0.668622 -1.56408 0
M  V30 2912 O 272.11 -0.917337 -1.71168 0
M  V30 2913 C 269.24 -1.99519 -2.8427 0
M  V30 2914 C 268.194 -3.15249 -2.89486 0
M  V30 2915 C 267.52 -3.18451 -4.29527 0
M  V30 2916 C 268.82 -4.54084 -2.58079 0
M  V30 2917 H 270.514 -2.7291 -1.23127 0
M  V30 2918 H 268.06 -1.31319 -0.590883 0
M  V30 2919 H 270.013 -2.18092 -3.60575 0
M  V30 2920 H 268.737 -1.04897 -3.09296 0
M  V30 2921 H 267.396 -2.96477 -2.15631 0
M  V30 2922 H 267.044 -2.2149 -4.5161 0
M  V30 2923 H 266.744 -3.962 -4.33934 0
M  V30 2924 H 268.268 -3.39193 -5.07721 0
M  V30 2925 H 269.682 -4.72899 -3.24098 0
M  V30 2926 H 268.079 -5.33987 -2.7382 0
M  V30 2927 H 269.149 -4.60006 -1.53372 0
M  V30 2928 N 270.492 0.636531 -1.44174 0
M  V30 2929 C 271.422 1.76003 -1.53444 0
M  V30 2930 C 272.403 1.65619 -0.387841 0
M  V30 2931 O 273.588 1.84461 -0.607257 0
M  V30 2932 C 270.718 3.14511 -1.4731 0
M  V30 2933 C 269.672 3.39677 -2.60391 0
M  V30 2934 C 268.998 4.78159 -2.39308 0
M  V30 2935 C 270.298 3.32772 -4.02567 0
M  V30 2936 H 271.992 1.68501 -2.47483 0
M  V30 2937 H 269.538 0.809237 -1.19111 0
M  V30 2938 H 271.491 3.92878 -1.52397 0
M  V30 2939 H 270.215 3.22783 -0.49785 0
M  V30 2940 H 268.874 2.63688 -2.54684 0
M  V30 2941 H 268.522 4.83128 -1.39988 0
M  V30 2942 H 268.222 4.95956 -3.15122 0
M  V30 2943 H 269.746 5.58762 -2.46205 0
M  V30 2944 H 271.16 4.01051 -4.09672 0
M  V30 2945 H 269.557 3.62104 -4.7854 0
M  V30 2946 H 270.627 2.30669 -4.2652 0
M  V30 2947 N 271.97 1.30982 0.876444 0
M  V30 2948 C 273.216 1.20474 1.63138 0
M  V30 2949 C 273.549 -0.238096 1.92735 0
M  V30 2950 O 272.824 -1.1692 1.55435 0
M  V30 2951 C 273.107 2.04244 2.96574 0
M  V30 2952 C 272.96 3.56793 2.73896 0
M  V30 2953 C 274.279 1.88684 3.97601 0
M  V30 2954 H 271.398 0.439001 0.591985 0
M  V30 2955 H 274.04 1.60704 1.01361 0
M  V30 2956 H 272.19 1.70063 3.493 0
M  V30 2957 H 273.862 4.01077 2.27892 0
M  V30 2958 H 272.105 3.80548 2.08245 0
M  V30 2959 H 272.776 4.10706 3.68815 0
M  V30 2960 H 275.252 2.18584 3.54062 0
M  V30 2961 H 274.128 2.4961 4.88862 0
M  V30 2962 H 274.389 0.848343 4.33884 0
M  V30 2963 N 273.449 -1.08991 1.13837 0
M  V30 2964 C 274.399 -2.1393 0.788535 0
M  V30 2965 C 275.383 -1.59396 -0.219516 0
M  V30 2966 O 276.575 -1.76985 -0.0227557 0
M  V30 2967 C 273.704 -3.42305 0.261147 0
M  V30 2968 C 272.79 -4.03736 1.29837 0
M  V30 2969 N 273.181 -4.39659 2.50067 0
M  V30 2970 C 271.479 -4.30993 1.1472 0
M  V30 2971 C 272.18 -4.88113 3.16419 0
M  V30 2972 N 271.156 -4.85846 2.43832 0
M  V30 2973 H 274.958 -2.39516 1.70322 0
M  V30 2974 H 272.472 -1.26263 1.02134 0
M  V30 2975 H 274.469 -4.16899 -0.0077405 0
M  V30 2976 H 273.129 -3.18172 -0.647805 0
M  V30 2977 H 274.14 -4.30878 2.8734 0
M  V30 2978 H 270.817 -4.16444 0.296773 0
M  V30 2979 H 272.207 -5.25336 4.18894 0
M  V30 2980 N 274.927 -0.932562 -1.27047 0
M  V30 2981 C 275.86 -0.379774 -2.25018 0
M  V30 2982 C 276.838 0.526587 -1.53837 0
M  V30 2983 O 278.022 0.465992 -1.82649 0
M  V30 2984 C 275.149 0.455187 -3.35627 0
M  V30 2985 C 274.195 -0.388428 -4.24728 0
M  V30 2986 S 275.028 -1.80701 -5.04091 0
M  V30 2987 C 276.184 -0.979865 -6.18182 0
M  V30 2988 H 276.417 -1.2101 -2.71558 0
M  V30 2989 H 273.95 -0.735078 -1.35779 0
M  V30 2990 H 275.908 0.931052 -3.99802 0
M  V30 2991 H 274.569 1.26009 -2.87716 0
M  V30 2992 H 273.762 0.25089 -5.03375 0
M  V30 2993 H 273.364 -0.798649 -3.65373 0
M  V30 2994 H 275.656 -0.218115 -6.77149 0
M  V30 2995 H 276.599 -1.73951 -6.86401 0
M  V30 2996 H 277.007 -0.51973 -5.62102 0
M  V30 2997 N 276.405 1.4127 -0.698611 0
M  V30 2998 C 277.338 2.28195 0.0153898 0
M  V30 2999 C 278.316 1.42402 0.784883 0
M  V30 3000 O 279.5 1.71828 0.775067 0
M  V30 3001 C 276.627 3.22685 1.02918 0
M  V30 3002 C 275.673 4.25041 0.352501 0
M  V30 3003 S 276.506 5.27757 -0.907322 0
M  V30 3004 C 277.662 6.25812 0.104796 0
M  V30 3005 H 277.895 2.88403 -0.721858 0
M  V30 3006 H 275.428 1.46452 -0.488996 0
M  V30 3007 H 277.386 3.77655 1.60893 0
M  V30 3008 H 276.047 2.61566 1.73902 0
M  V30 3009 H 275.24 4.91437 1.11828 0
M  V30 3010 H 274.842 3.73682 -0.154254 0
M  V30 3011 H 277.134 6.70705 0.957103 0
M  V30 3012 H 278.077 7.06149 -0.525323 0
M  V30 3013 H 278.485 5.62615 0.460931 0
M  V30 3014 N 277.883 0.443576 1.51229 0
M  V30 3015 C 278.846 -0.353132 2.26463 0
M  V30 3016 C 279.846 -0.944338 1.3015 0
M  V30 3017 O 281.036 -0.817813 1.5381 0
M  V30 3018 C 278.168 -1.50023 3.06114 0
M  V30 3019 H 279.361 0.3063 2.98332 0
M  V30 3020 H 276.914 0.196902 1.55055 0
M  V30 3021 H 277.649 -2.19553 2.38677 0
M  V30 3022 H 277.434 -1.08241 3.76864 0
M  V30 3023 H 278.924 -2.06296 3.63087 0
M  V30 3024 N 279.361 -1.56624 0.175154 0
M  V30 3025 C 280.293 -2.15333 -0.785128 0
M  V30 3026 C 281.306 -1.1099 -1.19101 0
M  V30 3027 O 282.495 -1.38162 -1.13019 0
M  V30 3028 C 279.595 -2.68427 -2.06882 0
M  V30 3029 C 278.768 -3.97466 -1.8259 0
M  V30 3030 C 277.827 -4.35585 -2.95215 0
M  V30 3031 O 276.853 -5.03389 -2.65684 0
M  V30 3032 N 278.055 -3.97457 -4.23094 0
M  V30 3033 H 280.82 -2.98359 -0.283187 0
M  V30 3034 H 278.381 -1.61898 -0.00749817 0
M  V30 3035 H 280.373 -2.90924 -2.81328 0
M  V30 3036 H 278.943 -1.89968 -2.48256 0
M  V30 3037 H 278.163 -3.83307 -0.920287 0
M  V30 3038 H 279.451 -4.81736 -1.63733 0
M  V30 3039 H 278.849 -3.42878 -4.49945 0
M  V30 3040 H 277.406 -4.24947 -4.9423 0
M  V30 3041 N 280.839 0.0985539 -1.57292 0
M  V30 3042 C 281.771 1.14595 -1.98496 0
M  V30 3043 C 282.784 1.36512 -0.887031 0
M  V30 3044 O 283.973 1.35225 -1.16518 0
M  V30 3045 C 281.073 2.50216 -2.28572 0
M  V30 3046 C 280.246 2.48624 -3.59868 0
M  V30 3047 C 279.305 3.66146 -3.7792 0
M  V30 3048 O 278.331 3.48795 -4.49812 0
M  V30 3049 N 279.533 4.85496 -3.18235 0
M  V30 3050 H 282.298 0.795277 -2.88956 0
M  V30 3051 H 279.859 0.287579 -1.59325 0
M  V30 3052 H 281.851 3.27432 -2.37845 0
M  V30 3053 H 280.421 2.77387 -1.44136 0
M  V30 3054 H 279.641 1.56978 -3.61596 0
M  V30 3055 H 280.929 2.44635 -4.46129 0
M  V30 3056 H 280.327 5.02497 -2.59833 0
M  V30 3057 H 278.884 5.60317 -3.32999 0
M  V30 3058 N 282.317 1.53212 0.369288 0
M  V30 3059 C 283.557 1.70915 1.12105 0
M  V30 3060 C 283.921 0.449444 1.86665 0
M  V30 3061 O 285.122 0.503105 2.6405 0
M  V30 3062 C 283.393 2.9222 2.05772 0
M  V30 3063 S 284.952 3.30609 2.88519 0
M  V30 3064 H 281.77 0.601445 0.379189 0
M  V30 3065 H 284.372 1.91306 0.402794 0
M  V30 3066 H 283.076 3.82103 1.49752 0
M  V30 3067 H 282.607 2.7422 2.82076 0
M  V30 3068 H 284.622 2.82333 4.08047 0
M  V30 3069 N 283.795 -0.628877 1.44509 0
M  V30 3070 C 285.072 -1.38733 1.37886 0
M  V30 3071 C 285.452 -2.11065 0.0387008 0
M  V30 3072 O 284.8 -2.06476 -0.97878 0
M  V30 3073 C 285.01 -2.35188 2.57852 0
M  V30 3074 C 286.358 -2.9845 3.02014 0
M  V30 3075 O 287.382 -2.45513 2.58073 0
M  V30 3076 O 286.241 -3.94487 3.78209 0
M  V30 3077 H 283.335 -0.621015 0.54614 0
M  V30 3078 H 285.881 -0.653744 1.56602 0
M  V30 3079 H 284.653 -1.80855 3.46998 0
M  V30 3080 H 284.276 -3.1596 2.4136 0
M  V30 3081 N 285.273 -1.31445 -0.869486 0
M  V30 3082 C 286.203 -1.21727 -1.99261 0
M  V30 3083 C 287.184 -0.104359 -1.6978 0
M  V30 3084 O 288.369 -0.289038 -1.92037 0
M  V30 3085 C 285.499 -0.924317 -3.34774 0
M  V30 3086 C 284.453 -1.99685 -3.78563 0
M  V30 3087 C 283.779 -1.55658 -5.11541 0
M  V30 3088 C 285.079 -3.41003 -3.95619 0
M  V30 3089 H 286.773 -2.1569 -2.07649 0
M  V30 3090 H 284.319 -1.03839 -0.997675 0
M  V30 3091 H 286.272 -0.842934 -4.12883 0
M  V30 3092 H 284.996 0.0509793 -3.2656 0
M  V30 3093 H 283.655 -2.06813 -3.02694 0
M  V30 3094 H 283.303 -0.569132 -4.9977 0
M  V30 3095 H 283.003 -2.27409 -5.41811 0
M  V30 3096 H 284.527 -1.48928 -5.92159 0
M  V30 3097 H 285.941 -3.36547 -4.64122 0
M  V30 3098 H 284.338 -4.10975 -4.37286 0
M  V30 3099 H 285.408 -3.81754 -2.98985 0
M  V30 3100 N 286.751 1.08385 -1.14413 0
M  V30 3101 C 287.661 2.18856 -0.844951 0
M  V30 3102 C 288.677 1.73121 0.174668 0
M  V30 3103 O 289.853 2.014 0.00312857 0
M  V30 3104 C 286.918 3.45155 -0.32696 0
M  V30 3105 C 285.979 4.05513 -1.40916 0
M  V30 3106 C 285.212 5.25784 -0.915793 0
M  V30 3107 O 285.435 5.69884 0.242651 0
M  V30 3108 O 284.369 5.77545 -1.69487 0
M  V30 3109 H 288.195 2.46919 -1.76818 0
M  V30 3110 H 285.78 1.17524 -0.922411 0
M  V30 3111 H 287.662 4.21377 -0.0440211 0
M  V30 3112 H 286.337 3.18668 0.568539 0
M  V30 3113 H 285.244 3.30879 -1.74556 0
M  V30 3114 H 286.577 4.3625 -2.27919 0
M  V30 3115 N 288.23 0.939286 1.26551 0
M  V30 3116 C 289.476 0.586715 1.94128 0
M  V30 3117 C 289.809 -0.8717 1.73537 0
M  V30 3118 O 289.084 -1.62339 1.07127 0
M  V30 3119 C 289.367 0.927497 3.4795 0
M  V30 3120 C 289.22 2.44052 3.77834 0
M  V30 3121 C 290.539 0.441569 4.37879 0
M  V30 3122 H 287.658 0.21463 0.705055 0
M  V30 3123 H 290.3 1.17316 1.49455 0
M  V30 3124 H 288.45 0.428431 3.8613 0
M  V30 3125 H 290.122 3.01216 3.4938 0
M  V30 3126 H 288.365 2.8848 3.23978 0
M  V30 3127 H 289.036 2.62947 4.85348 0
M  V30 3128 H 291.512 0.869448 4.06915 0
M  V30 3129 H 290.388 0.708856 5.44304 0
M  V30 3130 H 290.649 -0.658467 4.37169 0
M  V30 3131 N 289.708 -1.40897 0.706093 0
M  V30 3132 C 290.956 -2.00657 0.241054 0
M  V30 3133 C 291.277 -1.56241 -1.16678 0
M  V30 3134 O 290.547 -0.79765 -1.78926 0
M  V30 3135 H 289.127 -0.742018 0.0861308 0
M  V30 3136 H 291.789 -1.72372 0.909604 0
M  V30 3137 H 290.885 -3.10958 0.266705 0
M  V30 3138 N 291.186 -0.45159 -1.50991 0
M  V30 3139 C 292.463 0.170707 -1.94854 0
M  V30 3140 C 292.843 1.58788 -1.39103 0
M  V30 3141 O 292.191 2.20913 -0.583921 0
M  V30 3142 C 292.401 0.133929 -3.48743 0
M  V30 3143 C 293.749 0.33248 -4.23296 0
M  V30 3144 O 294.773 0.211403 -3.55572 0
M  V30 3145 O 293.632 0.57486 -5.43468 0
M  V30 3146 H 290.726 0.122264 -0.817912 0
M  V30 3147 H 293.272 -0.510594 -1.61836 0
M  V30 3148 H 292.044 -0.856283 -3.81816 0
M  V30 3149 H 291.667 0.857529 -3.88242 0
M  V30 3150 N 292.664 1.56529 -0.183458 0
M  V30 3151 C 293.911 1.97244 0.458357 0
M  V30 3152 C 294.239 1.06992 1.62428 0
M  V30 3153 O 293.494 0.106542 1.9541 0
M  V30 3154 C 293.793 3.43939 0.971637 0
M  V30 3155 C 293.459 4.5083 -0.0796784 0
M  V30 3156 C 292.121 4.79786 -0.368584 0
M  V30 3157 C 294.473 5.15138 -0.792638 0
M  V30 3158 C 291.801 5.70345 -1.37563 0
M  V30 3159 C 294.153 6.06784 -1.78875 0
M  V30 3160 C 292.817 6.34102 -2.08497 0
M  V30 3161 H 292.087 0.721768 0.167725 0
M  V30 3162 H 294.734 1.89472 -0.277976 0
M  V30 3163 H 293.039 3.48724 1.78602 0
M  V30 3164 H 294.736 3.72791 1.47744 0
M  V30 3165 H 291.326 4.28317 0.155668 0
M  V30 3166 H 295.51 4.92868 -0.582659 0
M  V30 3167 H 290.766 5.89789 -1.61118 0
M  V30 3168 H 294.94 6.55677 -2.3465 0
M  V30 3169 H 292.567 7.04074 -2.86678 0
M  V30 3170 N 294.142 -0.090211 1.57342 0
M  V30 3171 C 295.388 -0.793982 1.86611 0
M  V30 3172 C 295.721 -1.78142 0.773252 0
M  V30 3173 O 294.996 -1.93271 -0.218304 0
M  V30 3174 C 295.279 -1.51839 3.26523 0
M  V30 3175 C 295.132 -0.548609 4.46442 0
M  V30 3176 C 296.451 -2.46779 3.64401 0
M  V30 3177 H 293.57 -0.287186 0.678744 0
M  V30 3178 H 296.212 -0.0575076 1.89913 0
M  V30 3179 H 294.362 -2.14617 3.23839 0
M  V30 3180 H 296.034 0.0725513 4.61243 0
M  V30 3181 H 294.277 0.137614 4.33582 0
M  V30 3182 H 294.948 -1.09271 5.41076 0
M  V30 3183 H 297.424 -1.94089 3.68061 0
M  V30 3184 H 296.3 -2.94479 4.63221 0
M  V30 3185 H 296.561 -3.30758 2.93346 0
M  V30 3186 N 295.62 -1.53406 -0.361157 0
M  V30 3187 C 296.866 -1.70999 -1.1014 0
M  V30 3188 C 297.221 -0.458425 -1.86859 0
M  V30 3189 O 296.514 0.548654 -1.83577 0
M  V30 3190 C 296.708 -2.90211 -2.08596 0
M  V30 3191 C 296.537 -4.26841 -1.41553 0
M  V30 3192 C 295.307 -4.91621 -1.16778 0
M  V30 3193 C 297.505 -5.07212 -0.850915 0
M  V30 3194 N 295.487 -6.12164 -0.461312 0
M  V30 3195 C 296.858 -6.19394 -0.274046 0
M  V30 3196 C 298.913 -4.92218 -0.750036 0
M  V30 3197 C 297.616 -7.18221 0.393868 0
M  V30 3198 C 299.642 -5.91322 -0.095894 0
M  V30 3199 C 299.004 -7.0283 0.470081 0
M  V30 3200 H 295.103 -0.678939 -0.388028 0
M  V30 3201 H 297.687 -1.90811 -0.38722 0
M  V30 3202 H 295.858 -2.71931 -2.77323 0
M  V30 3203 H 297.59 -2.96606 -2.7533 0
M  V30 3204 H 294.345 -4.50849 -1.45024 0
M  V30 3205 H 294.769 -6.76888 -0.123312 0
M  V30 3206 H 299.411 -4.06192 -1.17337 0
M  V30 3207 H 297.129 -8.03835 0.82914 0
M  V30 3208 H 300.715 -5.81797 -0.0187075 0
M  V30 3209 H 299.595 -7.782 0.968241 0
M  V30 3210 N 297.098 0.621204 -1.44841 0
M  V30 3211 C 298.326 1.40752 -1.51646 0
M  V30 3212 C 298.741 1.88246 -0.144549 0
M  V30 3213 O 298.098 1.61422 0.851416 0
M  V30 3214 C 298.149 2.62119 -2.4895 0
M  V30 3215 O 297.87 2.16602 -3.80808 0
M  V30 3216 C 299.371 3.55135 -2.65319 0
M  V30 3217 H 296.591 0.431325 -0.514004 0
M  V30 3218 H 299.135 0.758835 -1.899 0
M  V30 3219 H 297.29 3.23058 -2.13805 0
M  V30 3220 H 297.704 2.95358 -4.33433 0
M  V30 3221 H 299.178 4.36874 -3.37409 0
M  V30 3222 H 299.655 4.04592 -1.70886 0
M  V30 3223 H 300.261 3.00058 -3.01405 0
M  V30 3224 N 298.576 1.31904 0.862503 0
M  V30 3225 C 299.824 1.21776 1.61292 0
M  V30 3226 C 300.145 -0.222413 1.93727 0
M  V30 3227 O 299.415 -1.1451 1.58947 0
M  V30 3228 H 297.995 0.447717 0.597962 0
M  V30 3229 H 300.657 1.65326 1.03215 0
M  V30 3230 H 299.753 1.7948 2.5533 0
M  V30 3231 N 300.054 -1.07777 1.14986 0
M  V30 3232 C 301.302 -1.79934 0.920235 0
M  V30 3233 C 301.623 -1.86955 -0.554336 0
M  V30 3234 O 300.893 -1.36731 -1.40291 0
M  V30 3235 H 299.473 -0.666424 0.337473 0
M  V30 3236 H 302.135 -1.3027 1.44968 0
M  V30 3237 H 301.231 -2.82539 1.32583 0
M  V30 3238 N 301.532 -0.945985 -1.26051 0
M  V30 3239 C 302.809 -0.513816 -1.88731 0
M  V30 3240 C 303.189 1.00872 -1.8544 0
M  V30 3241 O 302.537 1.8708 -1.312 0
M  V30 3242 C 302.747 -1.08062 -3.31849 0
M  V30 3243 C 304.095 -1.1522 -4.08668 0
M  V30 3244 O 305.119 -1.03155 -3.40936 0
M  V30 3245 O 303.978 -1.34044 -5.29806 0
M  V30 3246 H 301.072 -0.168193 -0.809716 0
M  V30 3247 H 303.618 -1.03886 -1.34186 0
M  V30 3248 H 302.39 -2.1241 -3.2863 0
M  V30 3249 H 302.013 -0.538307 -3.93939 0
M  V30 3250 N 303.011 1.40521 -0.713556 0
M  V30 3251 C 304.239 2.05237 -0.261775 0
M  V30 3252 C 304.654 1.53755 1.09567 0
M  V30 3253 O 304.011 0.693268 1.6882 0
M  V30 3254 C 304.062 3.60763 -0.230706 0
M  V30 3255 O 303.783 4.10345 -1.53455 0
M  V30 3256 C 305.284 4.42651 0.239874 0
M  V30 3257 H 302.504 0.660533 -0.118057 0
M  V30 3258 H 305.048 1.79967 -0.971192 0
M  V30 3259 H 303.203 3.8501 0.429661 0
M  V30 3260 H 303.617 5.04526 -1.43366 0
M  V30 3261 H 305.091 5.51599 0.210468 0
M  V30 3262 H 305.568 4.20082 1.28171 0
M  V30 3263 H 306.174 4.23507 -0.390142 0
M  V30 3264 N 304.489 0.459591 1.5075 0
M  V30 3265 C 305.439 -0.358926 2.25157 0
M  V30 3266 C 306.423 -0.971285 1.28276 0
M  V30 3267 O 307.615 -0.885739 1.53244 0
M  V30 3268 C 304.744 -1.44695 3.11317 0
M  V30 3269 C 303.83 -0.842894 4.15639 0
M  V30 3270 N 304.221 0.0299373 5.05791 0
M  V30 3271 C 302.519 -1.10809 4.32015 0
M  V30 3272 C 303.22 0.371563 5.80512 0
M  V30 3273 N 302.196 -0.250409 5.43023 0
M  V30 3274 H 305.998 0.313636 2.92222 0
M  V30 3275 H 303.512 0.273021 1.60089 0
M  V30 3276 H 305.509 -2.04641 3.63218 0
M  V30 3277 H 304.169 -2.12162 2.45799 0
M  V30 3278 H 305.18 0.39797 5.16369 0
M  V30 3279 H 301.857 -1.7786 3.77719 0
M  V30 3280 H 303.247 1.08319 6.63111 0
M  V30 3281 N 305.967 -1.56429 0.191757 0
M  V30 3282 C 306.897 -2.21937 -0.725696 0
M  V30 3283 C 307.878 -1.1814 -1.2238 0
M  V30 3284 O 309.063 -1.46636 -1.27325 0
M  V30 3285 C 306.193 -2.87611 -1.94672 0
M  V30 3286 C 305.147 -3.97623 -1.58366 0
M  V30 3287 C 304.473 -4.50446 -2.88102 0
M  V30 3288 C 305.773 -5.16197 -0.796133 0
M  V30 3289 H 307.467 -2.98861 -0.179606 0
M  V30 3290 H 305.013 -1.43749 -0.0849464 0
M  V30 3291 H 306.966 -3.3212 -2.59373 0
M  V30 3292 H 305.69 -2.08087 -2.51728 0
M  V30 3293 H 304.349 -3.53801 -0.960247 0
M  V30 3294 H 303.997 -3.67688 -3.43241 0
M  V30 3295 H 303.697 -5.24675 -2.64556 0
M  V30 3296 H 305.221 -4.97654 -3.53798 0
M  V30 3297 H 306.635 -5.57271 -1.34618 0
M  V30 3298 H 305.032 -5.96471 -0.658928 0
M  V30 3299 H 306.102 -4.84473 0.203478 0
M  V30 3300 N 307.445 0.0818655 -1.57387 0
M  V30 3301 C 308.675 0.794954 -1.90694 0
M  V30 3302 C 309.083 1.72147 -0.784982 0
M  V30 3303 O 308.426 1.81974 0.251196 0
M  V30 3304 C 308.488 1.65042 -3.19376 0
M  V30 3305 C 308.152 0.894337 -4.48164 0
M  V30 3306 C 309.149 0.21813 -5.19442 0
M  V30 3307 C 306.834 0.864495 -4.94805 0
M  V30 3308 C 308.828 -0.477802 -6.35607 0
M  V30 3309 C 306.515 0.164785 -6.10878 0
M  V30 3310 C 307.513 -0.505173 -6.81129 0
M  V30 3311 O 307.201 -1.19363 -7.94989 0
M  V30 3312 H 306.933 0.231779 -0.635023 0
M  V30 3313 H 309.487 0.059493 -2.05314 0
M  V30 3314 H 307.717 2.42844 -3.00938 0
M  V30 3315 H 309.406 2.24127 -3.38411 0
M  V30 3316 H 310.172 0.232558 -4.84442 0
M  V30 3317 H 306.051 1.37542 -4.40004 0
M  V30 3318 H 309.595 -1.00129 -6.90377 0
M  V30 3319 H 305.492 0.148249 -6.4533 0
M  V30 3320 H 306.26 -1.10188 -8.11049 0
M  V30 3321 N 308.923 1.53595 0.353017 0
M  V30 3322 C 310.148 1.7462 1.11904 0
M  V30 3323 C 310.573 0.479721 1.8188 0
M  V30 3324 O 309.931 -0.567066 1.72204 0
M  V30 3325 C 309.979 2.92029 2.11545 0
M  V30 3326 O 309.083 2.61516 3.18878 0
M  V30 3327 H 308.424 0.579531 0.324099 0
M  V30 3328 H 310.954 2.00525 0.406301 0
M  V30 3329 H 310.964 3.18551 2.5493 0
M  V30 3330 H 309.639 3.83888 1.60008 0
M  V30 3331 H 308.216 2.45852 2.80377 0
M  V30 3332 N 310.401 -0.613514 1.45168 0
M  V30 3333 C 311.349 -1.74572 1.53712 0
M  V30 3334 C 312.343 -1.64426 0.407505 0
M  V30 3335 O 313.549 -1.70291 0.583176 0
M  V30 3336 H 309.924 -0.576641 0.48269 0
M  V30 3337 H 311.895 -1.64492 2.48968 0
M  V30 3338 C 310.644 -3.12943 1.51532 0
M  V30 3339 H 309.967 -3.21407 2.37776 0
M  V30 3340 H 311.407 -3.9201 1.61569 0
M  V30 3341 C 309.866 -3.36053 0.238798 0
M  V30 3342 O 310.396 -3.95837 -0.6838 0
M  V30 3343 N 308.602 -2.9028 0.136359 0
M  V30 3344 H 308.149 -2.41811 0.887999 0
M  V30 3345 H 308.107 -3.06116 -0.716944 0
M  V30 3346 N 311.879 -1.3236 -0.855495 0
M  V30 3347 C 312.829 -1.17809 -1.95205 0
M  V30 3348 C 313.813 -0.0852319 -1.60674 0
M  V30 3349 O 315.005 -0.311651 -1.74235 0
M  V30 3350 C 312.134 -0.902437 -3.31226 0
M  V30 3351 C 311.22 -2.03695 -3.7198 0
M  V30 3352 N 311.611 -3.28544 -3.84568 0
M  V30 3353 C 309.909 -1.93993 -4.016 0
M  V30 3354 C 310.61 -4.02847 -4.19629 0
M  V30 3355 N 309.586 -3.31138 -4.31102 0
M  V30 3356 H 313.388 -2.12462 -2.0307 0
M  V30 3357 H 310.902 -1.24127 -1.0472 0
M  V30 3358 H 312.899 -0.77915 -4.09554 0
M  V30 3359 H 311.559 0.0357267 -3.2468 0
M  V30 3360 H 312.57 -3.6349 -3.68911 0
M  V30 3361 H 309.247 -1.07733 -4.03361 0
M  V30 3362 H 310.637 -5.10506 -4.36845 0
M  V30 3363 N 313.357 1.07166 -1.15556 0
M  V30 3364 C 314.29 2.13808 -0.797593 0
M  V30 3365 C 315.268 1.6101 0.226812 0
M  V30 3366 O 316.452 1.88161 0.112932 0
M  V30 3367 C 313.579 3.38187 -0.186371 0
M  V30 3368 C 312.625 4.09766 -1.18297 0
M  V30 3369 S 313.458 4.60932 -2.72584 0
M  V30 3370 C 314.614 5.88583 -2.12886 0
M  V30 3371 H 314.847 2.43843 -1.70083 0
M  V30 3372 H 312.38 1.19467 -0.978106 0
M  V30 3373 H 314.338 4.10189 0.159837 0
M  V30 3374 H 312.999 3.06326 0.694489 0
M  V30 3375 H 312.192 4.99065 -0.703562 0
M  V30 3376 H 311.794 3.43736 -1.47381 0
M  V30 3377 H 314.086 6.60866 -1.49208 0
M  V30 3378 H 315.029 6.41241 -3.0036 0
M  V30 3379 H 315.437 5.42194 -1.57116 0
M  V30 3380 N 314.835 0.952656 1.25548 0
M  V30 3381 C 316.112 0.523818 1.88456 0
M  V30 3382 C 316.492 -0.998871 1.85973 0
M  V30 3383 O 315.84 -1.86381 1.3219 0
M  V30 3384 C 316.05 1.0982 3.31271 0
M  V30 3385 C 317.398 1.17385 4.08051 0
M  V30 3386 O 318.422 1.04961 3.40384 0
M  V30 3387 O 317.281 1.36852 5.29088 0
M  V30 3388 H 314.375 0.172485 0.808813 0
M  V30 3389 H 316.921 1.04596 1.33633 0
M  V30 3390 H 315.693 2.1415 3.27499 0
M  V30 3391 H 315.316 0.559191 3.93648 0
M  V30 3392 N 316.313 -1.40141 0.720998 0
M  V30 3393 C 317.245 -2.29177 0.0324669 0
M  V30 3394 C 318.258 -1.46105 -0.718126 0
M  V30 3395 O 319.447 -1.69335 -0.564608 0
M  V30 3396 C 316.547 -3.24473 -0.978292 0
M  V30 3397 C 315.72 -4.36423 -0.292115 0
M  V30 3398 C 314.779 -5.12122 -1.20901 0
M  V30 3399 O 313.805 -5.64981 -0.691766 0
M  V30 3400 N 315.007 -5.21992 -2.53978 0
M  V30 3401 H 317.772 -2.88909 0.796984 0
M  V30 3402 H 315.333 -1.51569 0.569068 0
M  V30 3403 H 317.325 -3.71987 -1.59398 0
M  V30 3404 H 315.895 -2.65871 -1.64413 0
M  V30 3405 H 315.115 -3.90967 0.503847 0
M  V30 3406 H 316.403 -5.08467 0.183971 0
M  V30 3407 H 315.801 -4.8054 -2.98493 0
M  V30 3408 H 314.358 -5.72995 -3.10677 0
M  V30 3409 N 317.792 -0.46758 -1.50504 0
M  V30 3410 C 319.02 0.0864133 -2.06719 0
M  V30 3411 C 319.435 1.33819 -1.33184 0
M  V30 3412 O 318.792 1.78061 -0.400083 0
M  V30 3413 C 318.843 0.378079 -3.59517 0
M  V30 3414 O 318.564 -0.824044 -4.3028 0
M  V30 3415 C 320.065 0.979426 -4.32345 0
M  V30 3416 H 317.285 -0.00551697 -0.670977 0
M  V30 3417 H 319.829 -0.655354 -1.93715 0
M  V30 3418 H 317.984 1.06977 -3.72337 0
M  V30 3419 H 318.398 -0.566518 -5.21432 0
M  V30 3420 H 319.872 1.1333 -5.40241 0
M  V30 3421 H 320.349 1.9686 -3.9261 0
M  V30 3422 H 320.955 0.326216 -4.24047 0
M  V30 3423 N 319.27 1.56325 -0.20005 0
M  V30 3424 C 320.22 2.15939 0.731743 0
M  V30 3425 C 321.204 1.10154 1.17281 0
M  V30 3426 O 322.396 1.36203 1.13038 0
M  V30 3427 C 319.525 2.82614 1.94895 0
M  V30 3428 C 318.611 3.95596 1.52855 0
M  V30 3429 N 319.002 4.99118 0.819418 0
M  V30 3430 C 317.3 4.07288 1.81748 0
M  V30 3431 C 318.001 5.78513 0.608053 0
M  V30 3432 N 316.977 5.31117 1.15828 0
M  V30 3433 H 320.779 2.9334 0.181285 0
M  V30 3434 H 318.293 1.624 -0.000452172 0
M  V30 3435 H 320.29 3.23718 2.62702 0
M  V30 3436 H 318.95 2.06702 2.50408 0
M  V30 3437 H 319.961 5.15723 0.47436 0
M  V30 3438 H 316.638 3.42509 2.38734 0
M  V30 3439 H 318.028 6.71885 0.0451619 0
M  V30 3440 N 320.748 -0.0735177 1.57428 0
M  V30 3441 C 321.678 -1.0879 2.06608 0
M  V30 3442 C 322.659 -1.40473 0.959237 0
M  V30 3443 O 323.844 -1.5013 1.23185 0
M  V30 3444 C 320.974 -2.40183 2.50857 0
M  V30 3445 C 319.928 -2.22858 3.65402 0
M  V30 3446 C 319.254 -3.59619 3.957 0
M  V30 3447 C 320.554 -1.65123 4.95511 0
M  V30 3448 H 322.248 -0.678673 2.91607 0
M  V30 3449 H 319.794 -0.325013 1.40284 0
M  V30 3450 H 321.747 -3.11437 2.83874 0
M  V30 3451 H 320.471 -2.83083 1.62885 0
M  V30 3452 H 319.13 -1.54045 3.32664 0
M  V30 3453 H 318.778 -4.00086 3.04861 0
M  V30 3454 H 318.478 -3.48866 4.72828 0
M  V30 3455 H 320.002 -4.32306 4.31212 0
M  V30 3456 H 321.416 -2.26241 5.26771 0
M  V30 3457 H 319.813 -1.65071 5.7695 0
M  V30 3458 H 320.883 -0.612559 4.81015 0
M  V30 3459 N 322.226 -1.5378 -0.344866 0
M  V30 3460 C 323.158 -1.77988 -1.44406 0
M  V30 3461 C 324.171 -0.661138 -1.48771 0
M  V30 3462 O 325.36 -0.937842 -1.51877 0
M  V30 3463 C 322.46 -1.86345 -2.8307 0
M  V30 3464 C 321.633 -3.16256 -3.0216 0
M  V30 3465 C 320.692 -3.15588 -4.21059 0
M  V30 3466 O 319.718 -3.89314 -4.15239 0
M  V30 3467 N 320.92 -2.37864 -5.29529 0
M  V30 3468 H 323.685 -2.72839 -1.24012 0
M  V30 3469 H 321.246 -1.52814 -0.534737 0
M  V30 3470 H 323.238 -1.83351 -3.60783 0
M  V30 3471 H 321.808 -0.986858 -2.96614 0
M  V30 3472 H 321.028 -3.32385 -2.11929 0
M  V30 3473 H 322.316 -4.0207 -3.11797 0
M  V30 3474 H 321.714 -1.77514 -5.37127 0
M  V30 3475 H 320.271 -2.40668 -6.05741 0
M  V30 3476 N 323.704 0.605807 -1.45491 0
M  V30 3477 C 324.634 1.72709 -1.57143 0
M  V30 3478 C 325.615 1.6476 -0.422884 0
M  V30 3479 O 326.8 1.83132 -0.646247 0
M  V30 3480 C 323.93 3.11316 -1.53948 0
M  V30 3481 C 322.884 3.34077 -2.67537 0
M  V30 3482 C 322.21 4.72975 -2.49397 0
M  V30 3483 C 323.51 3.24158 -4.09535 0
M  V30 3484 H 325.204 1.63214 -2.51001 0
M  V30 3485 H 322.75 0.78379 -1.208 0
M  V30 3486 H 324.703 3.89557 -1.60696 0
M  V30 3487 H 323.427 3.21655 -0.566205 0
M  V30 3488 H 322.086 2.58227 -2.6022 0
M  V30 3489 H 321.734 4.8005 -1.50205 0
M  V30 3490 H 321.434 4.8916 -3.25571 0
M  V30 3491 H 322.958 5.53414 -2.58002 0
M  V30 3492 H 324.372 3.92271 -4.18086 0
M  V30 3493 H 322.769 3.51872 -4.86113 0
M  V30 3494 H 323.839 2.2157 -4.31317 0
M  V30 3495 N 325.182 1.32811 0.848464 0
M  V30 3496 C 326.407 1.26882 1.6406 0
M  V30 3497 C 326.832 -0.15913 1.87426 0
M  V30 3498 O 326.19 -1.11258 1.43148 0
M  V30 3499 C 326.238 2.03997 2.97351 0
M  V30 3500 O 325.342 1.39201 3.88197 0
M  V30 3501 H 324.683 0.436982 0.499943 0
M  V30 3502 H 327.213 1.75224 1.0563 0
M  V30 3503 H 327.223 2.14403 3.47124 0
M  V30 3504 H 325.898 3.0783 2.79666 0
M  V30 3505 H 324.475 1.37381 3.46671 0
M  V30 3506 N 326.66 -1.06551 1.16123 0
M  V30 3507 C 328.076 -1.3142 0.905585 0
M  V30 3508 C 328.276 -1.96571 -0.442964 0
M  V30 3509 O 327.332 -2.23068 -1.18308 0
M  V30 3510 C 328.645 -2.19741 2.05267 0
M  V30 3511 C 330.193 -2.33165 2.08813 0
M  V30 3512 C 330.668 -3.24838 3.22868 0
M  V30 3513 N 332.159 -3.32421 3.22568 0
M  V30 3514 C 332.894 -4.0344 4.0746 0
M  V30 3515 N 332.39 -4.77003 5.02434 0
M  V30 3516 N 334.183 -3.99464 3.95456 0
M  V30 3517 H 326.334 -0.626548 2.02949 0
M  V30 3518 H 328.597 -0.338777 0.8854 0
M  V30 3519 H 328.303 -1.79142 3.02657 0
M  V30 3520 H 328.177 -3.20313 1.99198 0
M  V30 3521 H 330.564 -2.73013 1.12018 0
M  V30 3522 H 330.645 -1.3227 2.18948 0
M  V30 3523 H 330.289 -2.85708 4.19921 0
M  V30 3524 H 330.219 -4.25707 3.0997 0
M  V30 3525 H 332.71 -2.79994 2.53795 0
M  V30 3526 H 333.023 -5.28712 5.63634 0
M  V30 3527 H 331.368 -4.75992 5.06415 0
M  V30 3528 H 334.559 -3.4111 3.20564 0
M  V30 3529 H 334.732 -4.54544 4.61837 0
M  V30 3530 N 328.138 -0.959301 -1.25041 0
M  V30 3531 C 329.048 -0.489994 -2.29426 0
M  V30 3532 C 330.064 0.444944 -1.68215 0
M  V30 3533 O 331.24 0.320046 -1.98841 0
M  V30 3534 C 328.305 0.220309 -3.45999 0
M  V30 3535 C 327.366 -0.753418 -4.22637 0
M  V30 3536 C 326.599 -0.076918 -5.33645 0
M  V30 3537 O 326.822 1.13649 -5.58963 0
M  V30 3538 O 325.756 -0.764824 -5.97021 0
M  V30 3539 H 329.582 -1.35755 -2.71669 0
M  V30 3540 H 327.167 -0.725961 -1.30576 0
M  V30 3541 H 329.049 0.619677 -4.16819 0
M  V30 3542 H 327.724 1.06296 -3.0575 0
M  V30 3543 H 326.631 -1.20308 -3.54227 0
M  V30 3544 H 327.964 -1.56423 -4.66683 0
M  V30 3545 N 329.616 1.39756 -0.72842 0
M  V30 3546 C 331.027 1.83498 -0.344289 0
M  V30 3547 C 331.378 1.60868 1.12321 0
M  V30 3548 O 330.503 1.09634 1.86573 0
M  V30 3549 C 331.098 3.33114 -0.618112 0
M  V30 3550 C 329.657 3.753 -0.287549 0
M  V30 3551 C 328.804 2.62831 -0.884048 0
M  V30 3552 H 331.755 1.28842 -0.926578 0
M  V30 3553 H 331.776 3.80334 0.112349 0
M  V30 3554 H 331.288 3.49553 -1.68625 0
M  V30 3555 H 329.389 3.64451 0.775012 0
M  V30 3556 H 329.502 4.72945 -0.765512 0
M  V30 3557 H 327.866 2.52792 -0.311149 0
M  V30 3558 H 328.649 2.82078 -1.95671 0
M  V30 3559 N 331.094 0.475555 1.50254 0
M  V30 3560 C 332.51 0.12997 1.5907 0
M  V30 3561 C 332.71 -1.36385 1.48328 0
M  V30 3562 O 331.766 -2.13754 1.34407 0
M  V30 3563 C 333.079 0.684139 2.92814 0
M  V30 3564 C 334.627 0.647965 3.0622 0
M  V30 3565 C 335.102 1.17975 4.42545 0
M  V30 3566 N 336.593 1.13936 4.48969 0
M  V30 3567 C 337.328 1.52129 5.52851 0
M  V30 3568 N 336.824 1.97793 6.63965 0
M  V30 3569 N 338.617 1.43704 5.4342 0
M  V30 3570 H 330.768 1.44706 1.55479 0
M  V30 3571 H 333.031 0.598691 0.735033 0
M  V30 3572 H 332.737 1.73079 3.06164 0
M  V30 3573 H 332.611 0.130204 3.76975 0
M  V30 3574 H 334.998 -0.38979 2.92514 0
M  V30 3575 H 335.079 1.23876 2.23805 0
M  V30 3576 H 334.723 2.21616 4.57 0
M  V30 3577 H 334.653 0.565138 5.23559 0
M  V30 3578 H 337.144 0.804488 3.69238 0
M  V30 3579 H 337.457 2.25072 7.39299 0
M  V30 3580 H 335.802 2.01749 6.65073 0
M  V30 3581 H 338.993 1.07867 4.55502 0
M  V30 3582 H 339.166 1.73794 6.24259 0
M  V30 3583 N 332.573 -1.56217 0.208337 0
M  V30 3584 C 333.984 -1.84243 -0.301904 0
M  V30 3585 C 334.335 -1.12939 -1.60434 0
M  V30 3586 O 333.46 -0.39461 -2.12772 0
M  V30 3587 C 334.055 -3.34231 -0.554543 0
M  V30 3588 C 332.614 -3.62621 -1.00912 0
M  V30 3589 C 331.761 -2.77224 -0.064933 0
M  V30 3590 H 334.712 -1.52712 0.431833 0
M  V30 3591 H 334.733 -3.5372 -1.40223 0
M  V30 3592 H 334.245 -3.86099 0.393561 0
M  V30 3593 H 332.346 -3.16197 -1.97104 0
M  V30 3594 H 332.459 -4.7071 -0.892674 0
M  V30 3595 H 330.823 -2.48256 -0.56929 0
M  V30 3596 H 331.606 -3.31887 0.877851 0
M  V30 3597 N 334.051 0.0651679 -1.57465 0
M  V30 3598 C 334.981 1.07693 -2.07182 0
M  V30 3599 C 335.962 1.39962 -0.966673 0
M  V30 3600 O 337.147 1.49475 -1.2398 0
M  V30 3601 C 334.277 2.3885 -2.52127 0
M  V30 3602 C 333.231 2.20917 -3.66579 0
M  V30 3603 C 332.557 3.57515 -3.97601 0
M  V30 3604 C 333.857 1.62493 -4.9638 0
M  V30 3605 H 335.551 0.663199 -2.91962 0
M  V30 3606 H 333.097 0.317569 -1.40455 0
M  V30 3607 H 335.05 3.09928 -2.85522 0
M  V30 3608 H 333.774 2.82215 -1.64384 0
M  V30 3609 H 332.433 1.52279 -3.33477 0
M  V30 3610 H 332.081 3.98463 -3.06979 0
M  V30 3611 H 331.781 3.46353 -4.74672 0
M  V30 3612 H 333.305 4.30013 -4.33499 0
M  V30 3613 H 334.719 2.23445 -5.27963 0
M  V30 3614 H 333.116 1.62009 -5.77818 0
M  V30 3615 H 334.186 0.587041 -4.81333 0
M  V30 3616 N 335.529 1.53961 0.336706 0
M  V30 3617 C 336.94 1.62914 0.911925 0
M  V30 3618 C 337.291 0.514795 1.89326 0
M  V30 3619 O 336.416 -0.354395 2.13478 0
M  V30 3620 C 337.011 2.95304 1.66076 0
M  V30 3621 C 335.57 3.06496 2.18489 0
M  V30 3622 C 334.717 2.58403 1.00613 0
M  V30 3623 H 337.668 1.58285 0.114649 0
M  V30 3624 H 337.689 2.84727 2.5241 0
M  V30 3625 H 337.201 3.76387 0.946276 0
M  V30 3626 H 335.302 2.3006 2.93092 0
M  V30 3627 H 335.415 4.1208 2.44391 0
M  V30 3628 H 333.779 2.13977 1.38152 0
M  V30 3629 H 334.562 3.41932 0.306179 0
M  V30 3630 N 337.007 -0.598083 1.45811 0
M  V30 3631 C 337.954 -1.7082 1.55207 0
M  V30 3632 C 338.924 -1.61278 0.39732 0
M  V30 3633 O 340.109 -1.80717 0.612038 0
M  V30 3634 C 337.249 -3.09144 1.53376 0
M  V30 3635 C 336.362 -3.29423 2.79472 0
M  V30 3636 C 335.497 -4.57907 2.69248 0
M  V30 3637 C 334.536 -4.71476 3.90354 0
M  V30 3638 N 333.673 -5.9127 3.78608 0
M  V30 3639 H 338.513 -1.62125 2.50039 0
M  V30 3640 H 336.05 -0.790389 1.24062 0
M  V30 3641 H 338.008 -3.89186 1.50301 0
M  V30 3642 H 336.638 -3.16773 0.620876 0
M  V30 3643 H 335.69 -2.43091 2.92594 0
M  V30 3644 H 337.002 -3.3532 3.69272 0
M  V30 3645 H 336.156 -5.46157 2.64192 0
M  V30 3646 H 334.895 -4.54423 1.77063 0
M  V30 3647 H 333.9 -3.81648 3.95759 0
M  V30 3648 H 335.125 -4.76751 4.83617 0
M  V30 3649 H 333.071 -5.88813 2.89199 0
M  V30 3650 H 332.988 -5.98369 4.6205 0
M  V30 3651 H 334.256 -6.81992 3.77501 0
M  V30 3652 N 338.485 -1.33259 -0.841409 0
M  V30 3653 C 339.415 -1.25926 -1.96634 0
M  V30 3654 C 340.396 -0.140349 -1.6952 0
M  V30 3655 O 341.581 -0.329707 -1.91381 0
M  V30 3656 C 338.711 -0.99512 -3.32738 0
M  V30 3657 C 337.665 -2.0767 -3.74242 0
M  V30 3658 C 336.991 -1.66474 -5.08125 0
M  V30 3659 C 338.291 -3.49318 -3.88297 0
M  V30 3660 H 339.985 -2.20046 -2.03027 0
M  V30 3661 H 337.531 -1.05931 -0.975425 0
M  V30 3662 H 339.484 -0.930323 -4.11002 0
M  V30 3663 H 338.208 -0.0183004 -3.26595 0
M  V30 3664 H 336.867 -2.13187 -2.98239 0
M  V30 3665 H 336.515 -0.675012 -4.9845 0
M  V30 3666 H 336.215 -2.3885 -5.36865 0
M  V30 3667 H 337.739 -1.61455 -5.88867 0
M  V30 3668 H 339.153 -3.46316 -4.56879 0
M  V30 3669 H 337.55 -4.20158 -4.28471 0
M  V30 3670 H 338.62 -3.8801 -2.9082 0
M  V30 3671 N 339.963 1.05934 -1.16686 0
M  V30 3672 C 341.212 1.78188 -0.945085 0
M  V30 3673 C 341.525 1.88338 0.528021 0
M  V30 3674 O 342.731 2.57258 0.867799 0
M  V30 3675 C 341.187 3.20277 -1.64167 0
M  V30 3676 C 340.795 3.18281 -3.15279 0
M  V30 3677 C 342.539 3.97039 -1.502 0
M  V30 3678 C 340.446 4.55112 -3.7766 0
M  V30 3679 H 339.376 0.667866 -0.349959 0
M  V30 3680 H 342.027 1.18794 -1.39858 0
M  V30 3681 H 340.409 3.79952 -1.11589 0
M  V30 3682 H 341.583 2.68167 -3.74731 0
M  V30 3683 H 339.898 2.55018 -3.29173 0
M  V30 3684 H 342.495 4.98194 -1.94183 0
M  V30 3685 H 342.838 4.13845 -0.451461 0
M  V30 3686 H 343.371 3.43894 -1.99954 0
M  V30 3687 H 340.11 4.43512 -4.82677 0
M  V30 3688 H 339.63 5.05406 -3.22994 0
M  V30 3689 H 341.309 5.24064 -3.79428 0
M  V30 3690 N 341.441 0.965919 1.2453 0
M  V30 3691 C 342.69 0.622437 1.91856 0
M  V30 3692 C 343.003 -0.846006 1.76358 0
M  V30 3693 O 344.209 -1.29993 2.38357 0
M  V30 3694 C 342.665 1.0626 3.43856 0
M  V30 3695 C 342.273 2.55437 3.68043 0
M  V30 3696 C 344.017 0.792183 4.17043 0
M  V30 3697 C 341.924 2.93196 5.13605 0
M  V30 3698 H 340.854 0.229092 0.718354 0
M  V30 3699 H 343.505 1.17189 1.41206 0
M  V30 3700 H 341.887 0.441476 3.93531 0
M  V30 3701 H 343.061 3.22665 3.28974 0
M  V30 3702 H 341.376 2.8007 3.08139 0
M  V30 3703 H 343.973 1.05031 5.24283 0
M  V30 3704 H 344.316 -0.271584 4.15413 0
M  V30 3705 H 344.849 1.37419 3.73311 0
M  V30 3706 H 341.588 3.98636 5.20355 0
M  V30 3707 H 341.108 2.30651 5.53679 0
M  V30 3708 H 342.787 2.83004 5.81823 0
M  V30 3709 N 342.919 -1.39368 0.735821 0
M  V30 3710 C 343.866 -2.30599 0.0963825 0
M  V30 3711 C 344.836 -1.49257 -0.728794 0
M  V30 3712 O 346.021 -1.77941 -0.688588 0
M  V30 3713 C 343.161 -3.35596 -0.804305 0
M  V30 3714 C 342.274 -4.31987 0.0335761 0
M  V30 3715 C 341.409 -5.24053 -0.868461 0
M  V30 3716 C 340.448 -6.12095 -0.0258776 0
M  V30 3717 N 339.585 -6.96514 -0.883893 0
M  V30 3718 H 344.425 -2.8471 0.880002 0
M  V30 3719 H 341.962 -1.40188 0.445619 0
M  V30 3720 H 343.92 -3.95062 -1.34096 0
M  V30 3721 H 342.55 -2.82938 -1.55389 0
M  V30 3722 H 341.602 -3.74133 0.68766 0
M  V30 3723 H 342.914 -4.94074 0.685036 0
M  V30 3724 H 342.068 -5.88549 -1.47293 0
M  V30 3725 H 340.807 -4.62289 -1.5537 0
M  V30 3726 H 339.812 -5.4661 0.591386 0
M  V30 3727 H 341.037 -6.75923 0.656156 0
M  V30 3728 H 338.983 -6.37318 -1.55441 0
M  V30 3729 H 338.9 -7.55448 -0.288931 0
M  V30 3730 H 340.168 -7.65439 -1.4739 0
M  V30 3731 N 344.397 -0.483516 -1.5 0
M  V30 3732 C 345.813 -0.138404 -1.58999 0
M  V30 3733 C 346.013 1.35597 -1.4905 0
M  V30 3734 O 345.069 2.13039 -1.35539 0
M  V30 3735 C 346.382 -0.699658 -2.92447 0
M  V30 3736 C 347.93 -0.664195 -3.05872 0
M  V30 3737 C 348.405 -1.20321 -4.41913 0
M  V30 3738 N 349.896 -1.16315 -4.48358 0
M  V30 3739 C 350.631 -1.55058 -5.52037 0
M  V30 3740 N 350.127 -2.01311 -6.62907 0
M  V30 3741 N 351.92 -1.46584 -5.42651 0
M  V30 3742 H 344.071 -1.45529 -1.5471 0
M  V30 3743 H 346.334 -0.60258 -0.731848 0
M  V30 3744 H 346.04 -1.747 -3.05242 0
M  V30 3745 H 345.914 -0.150194 -3.76901 0
M  V30 3746 H 348.301 0.374272 -2.92717 0
M  V30 3747 H 348.382 -1.25061 -2.23144 0
M  V30 3748 H 348.026 -2.24037 -4.55818 0
M  V30 3749 H 347.956 -0.592896 -5.23252 0
M  V30 3750 H 350.447 -0.824058 -3.68806 0
M  V30 3751 H 350.76 -2.2899 -7.38095 0
M  V30 3752 H 349.105 -2.05273 -6.63994 0
M  V30 3753 H 352.296 -1.10281 -4.54924 0
M  V30 3754 H 352.469 -1.77103 -6.23329 0
M  V30 3755 N 345.875 1.56104 -0.216619 0
M  V30 3756 C 346.822 2.2007 0.695531 0
M  V30 3757 C 347.792 1.15471 1.19397 0
M  V30 3758 O 348.977 1.43807 1.25396 0
M  V30 3759 C 346.117 2.88073 1.90021 0
M  V30 3760 C 345.23 4.07253 1.44113 0
M  V30 3761 C 344.365 4.63052 2.603 0
M  V30 3762 C 343.404 5.74545 2.11103 0
M  V30 3763 N 342.541 6.24656 3.20545 0
M  V30 3764 H 347.381 2.97655 0.143327 0
M  V30 3765 H 344.918 1.46982 0.0589934 0
M  V30 3766 H 346.876 3.25681 2.60745 0
M  V30 3767 H 345.506 2.13015 2.42538 0
M  V30 3768 H 344.558 3.75164 0.628999 0
M  V30 3769 H 345.87 4.8783 1.04036 0
M  V30 3770 H 345.024 5.03078 3.39113 0
M  V30 3771 H 343.763 3.81628 3.03663 0
M  V30 3772 H 342.768 5.34027 1.3075 0
M  V30 3773 H 343.993 6.57801 1.68746 0
M  V30 3774 H 341.939 5.46148 3.63399 0
M  V30 3775 H 341.856 7.00343 2.84704 0
M  V30 3776 H 343.124 6.69338 3.99508 0
M  V30 3777 N 347.353 -0.0568162 1.57498 0
M  V30 3778 C 348.764 -0.606858 1.76562 0
M  V30 3779 C 349.115 -1.77114 0.844094 0
M  V30 3780 O 348.24 -2.16376 0.0318911 0
M  V30 3781 C 348.835 -1.10766 3.20182 0
M  V30 3782 C 347.394 -1.60344 3.40539 0
M  V30 3783 C 346.541 -0.529311 2.72201 0
M  V30 3784 H 349.492 0.169393 1.57793 0
M  V30 3785 H 349.513 -1.97602 3.25167 0
M  V30 3786 H 349.025 -0.26006 3.87228 0
M  V30 3787 H 347.126 -2.47379 2.78629 0
M  V30 3788 H 347.239 -1.67006 4.4905 0
M  V30 3789 H 345.603 -0.977893 2.35179 0
M  V30 3790 H 346.386 0.308352 3.41912 0
M  V30 3791 N 348.832 -1.54138 -0.328536 0
M  V30 3792 C 349.742 -1.86192 -1.42723 0
M  V30 3793 C 350.758 -0.753382 -1.56844 0
M  V30 3794 O 351.934 -1.04718 -1.72035 0
M  V30 3795 C 348.999 -2.07824 -2.77507 0
M  V30 3796 C 348.06 -3.31641 -2.72603 0
M  V30 3797 C 347.293 -3.52232 -4.00959 0
M  V30 3798 O 347.516 -2.7636 -4.9898 0
M  V30 3799 O 346.45 -4.45699 -4.0452 0
M  V30 3800 H 350.276 -2.79608 -1.18547 0
M  V30 3801 H 347.861 -1.3998 -0.522104 0
M  V30 3802 H 349.743 -2.23411 -3.57303 0
M  V30 3803 H 348.418 -1.17596 -3.01584 0
M  V30 3804 H 347.325 -3.21444 -1.91376 0
M  V30 3805 H 348.658 -4.2191 -2.53481 0
M  V30 3806 N 350.31 0.590341 -1.46126 0
M  V30 3807 C 351.535 1.37991 -1.54833 0
M  V30 3808 C 351.96 1.87163 -0.187506 0
M  V30 3809 O 351.318 1.61133 0.831008 0
M  V30 3810 C 351.366 2.54867 -2.55098 0
M  V30 3811 O 350.47 3.56061 -2.08073 0
M  V30 3812 H 349.811 0.411265 -0.521303 0
M  V30 3813 H 352.341 0.716819 -1.91632 0
M  V30 3814 H 352.351 3.01886 -2.74461 0
M  V30 3815 H 351.026 2.18429 -3.53923 0
M  V30 3816 H 349.603 3.15574 -1.98664 0
M  V30 3817 N 351.788 1.33704 0.83433 0
M  V30 3818 C 353.037 1.24763 1.58484 0
M  V30 3819 C 353.35 -0.183775 1.94735 0
M  V30 3820 O 354.556 -0.395234 2.68608 0
M  V30 3821 C 353.012 2.18638 2.85876 0
M  V30 3822 C 352.62 3.66974 2.56971 0
M  V30 3823 C 354.364 2.18581 3.63899 0
M  V30 3824 C 352.271 4.5275 3.80488 0
M  V30 3825 H 351.201 0.463425 0.594772 0
M  V30 3826 H 353.852 1.58797 0.919551 0
M  V30 3827 H 352.234 1.77542 3.5397 0
M  V30 3828 H 353.408 4.16538 1.9706 0
M  V30 3829 H 351.723 3.69366 1.92244 0
M  V30 3830 H 354.32 2.79894 4.55591 0
M  V30 3831 H 354.663 1.18207 3.99165 0
M  V30 3832 H 355.196 2.58062 3.02735 0
M  V30 3833 H 351.935 5.54017 3.5035 0
M  V30 3834 H 351.455 4.07927 4.39722 0
M  V30 3835 H 353.134 4.66784 4.4802 0
M  V30 3836 N 353.266 -1.05314 1.17247 0
M  V30 3837 C 354.513 -1.78293 0.960091 0
M  V30 3838 C 354.841 -1.87658 -0.51136 0
M  V30 3839 O 354.096 -1.3718 -1.39571 0
M  V30 3840 C 354.395 -3.2229 1.54479 0
M  V30 3841 C 354.061 -3.32987 3.04024 0
M  V30 3842 C 352.723 -3.35613 3.44844 0
M  V30 3843 C 355.075 -3.34102 4.00031 0
M  V30 3844 C 352.403 -3.36982 4.8027 0
M  V30 3845 C 354.755 -3.3701 5.35357 0
M  V30 3846 C 353.419 -3.37923 5.75642 0
M  V30 3847 H 352.689 -0.652422 0.351322 0
M  V30 3848 H 355.336 -1.23782 1.46117 0
M  V30 3849 H 353.641 -3.7972 0.965391 0
M  V30 3850 H 355.338 -3.77376 1.35603 0
M  V30 3851 H 351.928 -3.31655 2.71483 0
M  V30 3852 H 356.112 -3.31276 3.69554 0
M  V30 3853 H 351.368 -3.35999 5.10798 0
M  V30 3854 H 355.542 -3.36822 6.09528 0
M  V30 3855 H 353.169 -3.38738 6.80559 0
M  V30 3856 N 354.744 -0.972509 -1.24016 0
M  V30 3857 C 356.021 -0.553733 -1.87598 0
M  V30 3858 C 356.401 0.969158 -1.87538 0
M  V30 3859 O 355.749 1.84255 -1.35139 0
M  V30 3860 C 355.959 -1.15076 -3.29482 0
M  V30 3861 C 357.307 -1.23862 -4.06132 0
M  V30 3862 O 358.331 -1.10363 -3.38672 0
M  V30 3863 O 357.19 -1.45252 -5.26844 0
M  V30 3864 H 354.284 -0.185331 -0.805966 0
M  V30 3865 H 356.83 -1.06709 -1.31952 0
M  V30 3866 H 355.602 -2.19333 -3.2405 0
M  V30 3867 H 355.225 -0.621746 -3.92709 0
M  V30 3868 N 356.222 1.38976 -0.743202 0
M  V30 3869 C 357.452 2.04339 -0.304807 0
M  V30 3870 C 357.86 1.56162 1.06819 0
M  V30 3871 O 357.203 0.725284 1.68776 0
M  V30 3872 C 357.265 3.58716 -0.237369 0
M  V30 3873 C 356.929 4.29905 -1.55018 0
M  V30 3874 C 357.926 4.55987 -2.49744 0
M  V30 3875 C 355.611 4.68294 -1.81675 0
M  V30 3876 C 357.605 5.19478 -3.69353 0
M  V30 3877 C 355.292 5.31512 -3.0156 0
M  V30 3878 C 356.29 5.57037 -3.9522 0
M  V30 3879 O 355.978 6.18941 -5.12998 0
M  V30 3880 H 355.71 0.663439 -0.12971 0
M  V30 3881 H 358.264 1.78852 -1.01001 0
M  V30 3882 H 356.494 3.83133 0.524003 0
M  V30 3883 H 358.183 4.05543 0.170121 0
M  V30 3884 H 358.949 4.26767 -2.30423 0
M  V30 3885 H 354.828 4.47779 -1.09615 0
M  V30 3886 H 358.372 5.39318 -4.42473 0
M  V30 3887 H 354.269 5.60153 -3.20778 0
M  V30 3888 H 355.037 6.37433 -5.13441 0
M  V30 3889 N 357.7 0.491464 1.49741 0
M  V30 3890 C 359.116 0.146835 1.58923 0
M  V30 3891 C 359.316 -1.34804 1.49767 0
M  V30 3892 O 358.372 -2.12317 1.36667 0
M  V30 3893 C 359.685 0.715157 2.92072 0
M  V30 3894 C 361.233 0.680407 3.05515 0
M  V30 3895 C 361.708 1.22663 4.41269 0
M  V30 3896 N 363.199 1.18691 4.47735 0
M  V30 3897 C 363.934 1.57984 5.51207 0
M  V30 3898 N 363.43 2.04824 6.6183 0
M  V30 3899 N 365.223 1.49459 5.41866 0
M  V30 3900 H 357.374 1.46347 1.53936 0
M  V30 3901 H 359.637 0.606453 0.728642 0
M  V30 3902 H 359.343 1.76317 3.04311 0
M  V30 3903 H 359.217 0.17018 3.76816 0
M  V30 3904 H 361.604 -0.358743 2.92911 0
M  V30 3905 H 361.685 1.26242 2.22478 0
M  V30 3906 H 361.329 2.26451 4.54623 0
M  V30 3907 H 361.259 0.620637 5.2293 0
M  V30 3908 H 363.75 0.843605 3.68364 0
M  V30 3909 H 364.063 2.32901 7.3687 0
M  V30 3910 H 362.408 2.08791 6.62896 0
M  V30 3911 H 365.599 1.12692 4.54333 0
M  V30 3912 H 365.772 1.80406 6.22381 0
M  V30 3913 N 359.178 -1.55987 0.224894 0
M  V30 3914 C 360.425 -1.9839 -0.4059 0
M  V30 3915 C 360.753 -1.11261 -1.59535 0
M  V30 3916 O 360.008 -0.158314 -1.95059 0
M  V30 3917 C 360.307 -3.46394 -0.880106 0
M  V30 3918 C 359.973 -4.5046 0.19918 0
M  V30 3919 C 358.635 -4.7864 0.495661 0
M  V30 3920 C 360.987 -5.12855 0.928939 0
M  V30 3921 C 358.315 -5.66497 1.52636 0
M  V30 3922 C 360.667 -6.01828 1.949 0
M  V30 3923 C 359.331 -6.28351 2.25236 0
M  V30 3924 H 358.601 -0.725961 -0.148529 0
M  V30 3925 H 361.248 -1.88668 0.328113 0
M  V30 3926 H 359.553 -3.53337 -1.69294 0
M  V30 3927 H 361.25 -3.76577 -1.37808 0
M  V30 3928 H 357.84 -4.28579 -0.0420526 0
M  V30 3929 H 362.024 -4.9115 0.713129 0
M  V30 3930 H 357.28 -5.8531 1.76698 0
M  V30 3931 H 361.454 -6.49225 2.51951 0
M  V30 3932 H 359.081 -6.96226 3.05244 0
M  V30 3933 N 360.656 0.0484629 -1.57525 0
M  V30 3934 C 361.566 1.07241 -2.08654 0
M  V30 3935 C 362.582 1.409 -1.02095 0
M  V30 3936 O 363.758 1.50609 -1.33712 0
M  V30 3937 C 360.823 2.36008 -2.5397 0
M  V30 3938 C 359.884 2.09108 -3.7493 0
M  V30 3939 C 359.117 3.31736 -4.18075 0
M  V30 3940 O 359.34 4.41714 -3.60895 0
M  V30 3941 O 358.274 3.18576 -5.10679 0
M  V30 3942 H 362.1 0.667965 -2.96263 0
M  V30 3943 H 359.685 0.26417 -1.47046 0
M  V30 3944 H 361.567 3.11747 -2.83535 0
M  V30 3945 H 360.242 2.75786 -1.69481 0
M  V30 3946 H 359.149 1.31 -3.50414 0
M  V30 3947 H 360.482 1.74198 -4.60343 0
M  V30 3948 N 362.134 1.5431 0.320358 0
M  V30 3949 C 363.411 1.63322 1.07635 0
M  V30 3950 C 363.791 0.46912 2.05821 0
M  V30 3951 O 363.139 -0.536274 2.22118 0
M  V30 3952 C 363.349 3.00465 1.77544 0
M  V30 3953 C 364.697 3.56621 2.30449 0
M  V30 3954 O 365.721 3.02791 1.87606 0
M  V30 3955 O 364.58 4.5083 3.08892 0
M  V30 3956 H 361.674 0.661502 0.496331 0
M  V30 3957 H 364.22 1.66656 0.319992 0
M  V30 3958 H 362.992 3.76629 1.06143 0
M  V30 3959 H 362.615 3.00824 2.59982 0
M  V30 3960 N 363.613 -0.582584 1.46437 0
M  V30 3961 C 364.86 -1.34079 1.51753 0
M  V30 3962 C 365.188 -1.93762 0.169299 0
M  V30 3963 O 364.443 -1.76989 -0.835062 0
M  V30 3964 C 364.742 -2.48964 2.56421 0
M  V30 3965 C 364.408 -2.07273 4.00436 0
M  V30 3966 C 363.07 -1.95618 4.39644 0
M  V30 3967 C 365.422 -1.75111 4.90903 0
M  V30 3968 C 362.75 -1.5006 5.67185 0
M  V30 3969 C 365.102 -1.31032 6.18881 0
M  V30 3970 C 363.766 -1.17954 6.56996 0
M  V30 3971 H 363.036 -0.49063 0.555304 0
M  V30 3972 H 365.683 -0.656007 1.79913 0
M  V30 3973 H 363.988 -3.22889 2.21923 0
M  V30 3974 H 365.685 -3.07178 2.57765 0
M  V30 3975 H 362.275 -2.17279 3.69443 0
M  V30 3976 H 366.459 -1.83001 4.61329 0
M  V30 3977 H 361.715 -1.38577 5.95488 0
M  V30 3978 H 365.889 -1.052 6.88408 0
M  V30 3979 H 363.516 -0.824279 7.55718 0
M  V30 3980 N 365.091 -1.34144 -0.827227 0
M  V30 3981 C 366.001 -1.27428 -1.96975 0
M  V30 3982 C 367.017 -0.182728 -1.73038 0
M  V30 3983 O 368.193 -0.408426 -1.97215 0
M  V30 3984 C 365.258 -1.02526 -3.31194 0
M  V30 3985 C 364.319 -2.20796 -3.68168 0
M  V30 3986 C 363.552 -1.97073 -4.95982 0
M  V30 3987 O 363.775 -0.926822 -5.6282 0
M  V30 3988 O 362.709 -2.83912 -5.30733 0
M  V30 3989 H 366.535 -2.23537 -2.05584 0
M  V30 3990 H 364.12 -1.14307 -0.961989 0
M  V30 3991 H 366.002 -0.904026 -4.11589 0
M  V30 3992 H 364.677 -0.0945389 -3.23562 0
M  V30 3993 H 363.584 -2.38477 -2.88235 0
M  V30 3994 H 364.917 -3.12243 -3.8048 0
M  V30 3995 N 366.569 1.04691 -1.17803 0
M  V30 3996 C 367.818 1.77176 -0.963931 0
M  V30 3997 C 368.131 1.88888 0.508015 0
M  V30 3998 O 369.337 2.58164 0.840465 0
M  V30 3999 C 367.793 3.18518 -1.67555 0
M  V30 4000 C 367.401 3.14919 -3.18637 0
M  V30 4001 C 369.145 3.95424 -1.54402 0
M  V30 4002 C 367.052 4.51081 -3.82466 0
M  V30 4003 H 365.982 0.664116 -0.357023 0
M  V30 4004 H 368.633 1.17303 -1.4111 0
M  V30 4005 H 367.015 3.78748 -1.15613 0
M  V30 4006 H 368.189 2.64178 -3.77554 0
M  V30 4007 H 366.504 2.51512 -3.31859 0
M  V30 4008 H 369.101 4.96106 -1.99456 0
M  V30 4009 H 369.444 4.13343 -0.495329 0
M  V30 4010 H 369.977 3.41754 -2.0359 0
M  V30 4011 H 366.716 4.38368 -4.87354 0
M  V30 4012 H 366.236 5.01951 -3.28337 0
M  V30 4013 H 367.915 5.2001 -3.84965 0
M  V30 4014 N 368.047 0.979072 1.23499 0
M  V30 4015 C 368.957 0.526431 2.28617 0
M  V30 4016 C 369.973 -0.418126 1.68901 0
M  V30 4017 O 371.149 -0.288372 1.99325 0
M  V30 4018 C 368.214 -0.165235 3.46306 0
M  V30 4019 C 367.275 0.82056 4.21385 0
M  V30 4020 C 366.508 0.161807 5.33455 0
M  V30 4021 O 366.731 -1.04742 5.60701 0
M  V30 4022 O 365.665 0.859708 5.95729 0
M  V30 4023 H 369.491 1.4006 2.69475 0
M  V30 4024 H 367.076 0.746643 1.29405 0
M  V30 4025 H 368.958 -0.553287 4.17752 0
M  V30 4026 H 367.633 -1.01419 3.07402 0
M  V30 4027 H 366.54 1.25929 3.52268 0
M  V30 4028 H 367.873 1.63828 4.64135 0
M  V30 4029 N 369.525 -1.3858 0.750561 0
M  V30 4030 C 370.773 -1.99789 0.30477 0
M  V30 4031 C 371.094 -1.59874 -1.11649 0
M  V30 4032 O 370.364 -0.85417 -1.76297 0
M  V30 4033 H 368.944 -0.738902 0.109694 0
M  V30 4034 H 371.606 -1.69391 0.963983 0
M  V30 4035 H 370.702 -3.09952 0.365499 0
M  V30 4036 N 371.003 -0.499398 -1.49478 0
M  V30 4037 C 372.233 0.0424839 -2.06556 0
M  V30 4038 C 372.641 1.31514 -1.36018 0
M  V30 4039 O 371.984 1.78555 -0.431718 0
M  V30 4040 C 372.046 0.368074 -3.57611 0
M  V30 4041 C 371.71 -0.806631 -4.49825 0
M  V30 4042 C 372.707 -1.69667 -4.91436 0
M  V30 4043 C 370.392 -1.00498 -4.92144 0
M  V30 4044 C 372.386 -2.76923 -5.74101 0
M  V30 4045 C 370.073 -2.08072 -5.74586 0
M  V30 4046 C 371.071 -2.96119 -6.15469 0
M  V30 4047 O 370.759 -4.01836 -6.96264 0
M  V30 4048 H 370.491 -0.0165165 -0.675798 0
M  V30 4049 H 373.045 -0.695497 -1.93267 0
M  V30 4050 H 371.275 1.15963 -3.68903 0
M  V30 4051 H 372.964 0.848381 -3.96935 0
M  V30 4052 H 373.73 -1.55524 -4.59388 0
M  V30 4053 H 369.609 -0.329036 -4.59824 0
M  V30 4054 H 373.153 -3.45676 -6.05932 0
M  V30 4055 H 369.05 -2.22211 -6.06047 0
M  V30 4056 H 369.818 -3.9917 -7.14567 0
M  V30 4057 N 372.481 1.55866 -0.233164 0
M  V30 4058 C 373.758 1.90471 0.444988 0
M  V30 4059 C 374.138 1.15209 1.7689 0
M  V30 4060 O 373.486 0.265119 2.26957 0
M  V30 4061 C 373.696 3.4333 0.626559 0
M  V30 4062 C 375.044 4.14319 0.92871 0
M  V30 4063 O 376.068 3.48993 0.712926 0
M  V30 4064 O 374.927 5.29846 1.33887 0
M  V30 4065 H 372.021 0.792347 0.236885 0
M  V30 4066 H 374.567 1.67437 -0.276211 0
M  V30 4067 H 373.339 3.90095 -0.306822 0
M  V30 4068 H 372.962 3.72181 1.39881 0
M  V30 4069 N 373.959 -0.0401083 1.57549 0
M  V30 4070 C 375.37 -0.588097 1.77196 0
M  V30 4071 C 375.721 -1.76209 0.862832 0
M  V30 4072 O 374.846 -2.16331 0.0548389 0
M  V30 4073 C 375.441 -1.07363 3.21339 0
M  V30 4074 C 374 -1.56723 3.42221 0
M  V30 4075 C 373.147 -0.50041 2.72747 0
M  V30 4076 H 376.098 0.186119 1.57605 0
M  V30 4077 H 376.119 -1.94143 3.27244 0
M  V30 4078 H 375.631 -0.218975 3.87482 0
M  V30 4079 H 373.732 -2.4441 2.81237 0
M  V30 4080 H 373.845 -1.62234 4.50796 0
M  V30 4081 H 372.209 -0.952894 2.36203 0
M  V30 4082 H 372.992 0.344599 3.41566 0
M  V30 4083 N 375.437 -1.54477 -0.31217 0
M  V30 4084 C 376.387 -1.81037 -1.38598 0
M  V30 4085 C 377.371 -0.666941 -1.46426 0
M  V30 4086 O 378.563 -0.927269 -1.50767 0
M  V30 4087 C 375.692 -2.05127 -2.75277 0
M  V30 4088 C 374.778 -3.25624 -2.71716 0
M  V30 4089 N 375.169 -4.46428 -2.37773 0
M  V30 4090 C 373.467 -3.27427 -3.02833 0
M  V30 4091 C 374.168 -5.28406 -2.43232 0
M  V30 4092 N 373.144 -4.6586 -2.80135 0
M  V30 4093 H 376.946 -2.7201 -1.11301 0
M  V30 4094 H 374.46 -1.53826 -0.520705 0
M  V30 4095 H 376.457 -2.22299 -3.52688 0
M  V30 4096 H 375.117 -1.15416 -3.03495 0
M  V30 4097 H 376.128 -4.73227 -2.1042 0
M  V30 4098 H 372.805 -2.47786 -3.36018 0
M  V30 4099 H 374.195 -6.34903 -2.19882 0
M  V30 4100 N 376.915 0.57481 -1.46744 0
M  V30 4101 C 378.326 1.15695 -1.46532 0
M  V30 4102 C 378.677 1.95068 -0.210425 0
M  V30 4103 O 377.802 2.05241 0.685944 0
M  V30 4104 C 378.397 2.1048 -2.65487 0
M  V30 4105 C 376.956 2.64002 -2.68291 0
M  V30 4106 C 376.103 1.40026 -2.39349 0
M  V30 4107 H 379.054 0.362325 -1.54509 0
M  V30 4108 H 379.075 2.94074 -2.41455 0
M  V30 4109 H 378.587 1.52683 -3.56805 0
M  V30 4110 H 376.688 3.25646 -1.81067 0
M  V30 4111 H 376.801 3.06197 -3.68483 0
M  V30 4112 H 375.165 1.70106 -1.89568 0
M  V30 4113 H 375.948 0.840485 -3.32852 0
M  V30 4114 N 378.394 1.34581 0.820102 0
M  V30 4115 C 379.642 1.26845 1.57336 0
M  V30 4116 C 379.963 -0.160667 1.94337 0
M  V30 4117 O 379.233 -1.09396 1.6251 0
M  V30 4118 H 377.813 0.466514 0.583415 0
M  V30 4119 H 380.475 1.68526 0.979027 0
M  V30 4120 H 379.571 1.87513 2.4949 0
M  V30 4121 N 379.872 -1.04064 1.18357 0
M  V30 4122 C 381.121 -1.76662 0.973313 0
M  V30 4123 C 381.434 -1.89154 -0.497991 0
M  V30 4124 O 382.64 -2.58606 -0.826762 0
M  V30 4125 C 381.096 -3.17624 1.69242 0
M  V30 4126 C 380.704 -3.13225 3.20303 0
M  V30 4127 C 382.448 -3.946 1.56497 0
M  V30 4128 C 380.355 -4.49046 3.84853 0
M  V30 4129 H 379.285 -0.662214 0.36054 0
M  V30 4130 H 381.936 -1.16553 1.41731 0
M  V30 4131 H 380.318 -3.78129 1.1762 0
M  V30 4132 H 381.492 -2.62172 3.78949 0
M  V30 4133 H 379.807 -2.49749 3.33189 0
M  V30 4134 H 382.404 -4.95042 2.02084 0
M  V30 4135 H 382.747 -4.13074 0.517243 0
M  V30 4136 H 383.28 -3.4067 2.05399 0
M  V30 4137 H 380.019 -4.35777 4.89672 0
M  V30 4138 H 379.539 -5.00203 3.30994 0
M  V30 4139 H 381.218 -5.17961 3.87718 0
M  V30 4140 N 381.35 -0.985608 -1.22978 0
M  V30 4141 C 382.297 -0.529825 -2.24636 0
M  V30 4142 C 383.267 0.434028 -1.60329 0
M  V30 4143 O 384.452 0.340414 -1.87739 0
M  V30 4144 C 381.592 0.156533 -3.44745 0
M  V30 4145 C 380.705 -0.848197 -4.23591 0
M  V30 4146 C 379.84 -0.136109 -5.31026 0
M  V30 4147 C 378.879 -1.1297 -6.01585 0
M  V30 4148 N 378.016 -0.446415 -7.00679 0
M  V30 4149 H 382.856 -1.40148 -2.62988 0
M  V30 4150 H 380.393 -0.702168 -1.29259 0
M  V30 4151 H 382.351 0.571324 -4.1327 0
M  V30 4152 H 380.981 0.992025 -3.07179 0
M  V30 4153 H 380.033 -1.38135 -3.54433 0
M  V30 4154 H 381.345 -1.60512 -4.72268 0
M  V30 4155 H 380.499 0.335784 -6.0577 0
M  V30 4156 H 379.238 0.653373 -4.83304 0
M  V30 4157 H 378.243 -1.6123 -5.25628 0
M  V30 4158 H 379.468 -1.91993 -6.51395 0
M  V30 4159 H 377.414 0.323763 -6.55201 0
M  V30 4160 H 377.331 -1.1419 -7.47326 0
M  V30 4161 H 378.599 0.00291697 -7.795 0
M  V30 4162 N 382.828 1.3818 -0.7579 0
M  V30 4163 C 383.791 2.28764 -0.141286 0
M  V30 4164 C 384.791 1.47388 0.642907 0
M  V30 4165 O 385.981 1.67781 0.468536 0
M  V30 4166 C 383.113 3.31184 0.808069 0
M  V30 4167 H 384.306 2.848 -0.939633 0
M  V30 4168 H 381.859 1.47212 -0.525191 0
M  V30 4169 H 382.594 2.80247 1.63193 0
M  V30 4170 H 382.379 3.91314 0.248104 0
M  V30 4171 H 383.869 3.98909 1.23536 0
M  V30 4172 N 384.306 0.507319 1.49211 0
M  V30 4173 C 385.717 0.0611118 1.866 0
M  V30 4174 C 386.068 -1.35488 1.41907 0
M  V30 4175 O 385.193 -2.0108 0.799726 0
M  V30 4176 C 385.788 0.104125 3.3864 0
M  V30 4177 C 384.347 -0.28677 3.75306 0
M  V30 4178 C 383.494 0.473893 2.73221 0
M  V30 4179 H 386.445 0.719775 1.41439 0
M  V30 4180 H 386.466 -0.689672 3.74198 0
M  V30 4181 H 385.978 1.13482 3.71138 0
M  V30 4182 H 384.079 -1.32046 3.48417 0
M  V30 4183 H 384.192 0.0370745 4.79086 0
M  V30 4184 H 382.556 -0.0770644 2.54583 0
M  V30 4185 H 383.339 1.50478 3.08563 0
M  V30 4186 N 385.784 -1.5574 0.241426 0
M  V30 4187 C 387.03 -1.99104 -0.385406 0
M  V30 4188 C 387.363 -1.1293 -1.57988 0
M  V30 4189 O 386.638 -0.191449 -1.93555 0
M  V30 4190 C 386.921 -3.51087 -0.800616 0
M  V30 4191 C 386.774 -4.48028 0.398874 0
M  V30 4192 C 388.093 -4.08015 -1.64959 0
M  V30 4193 H 385.212 -0.723848 -0.138614 0
M  V30 4194 H 387.854 -1.86903 0.341642 0
M  V30 4195 H 386.004 -3.61615 -1.4201 0
M  V30 4196 H 387.676 -4.49487 1.03726 0
M  V30 4197 H 385.919 -4.21077 1.04293 0
M  V30 4198 H 386.59 -5.51962 0.0651056 0
M  V30 4199 H 389.066 -4.00555 -1.12672 0
M  V30 4200 H 387.942 -5.14635 -1.90898 0
M  V30 4201 H 388.203 -3.56131 -2.61961 0
M  V30 4202 N 387.262 0.0317525 -1.57568 0
M  V30 4203 C 388.225 1.01783 -2.0536 0
M  V30 4204 C 389.225 1.29203 -0.957253 0
M  V30 4205 O 390.415 1.24251 -1.22095 0
M  V30 4206 C 387.547 2.35137 -2.46827 0
M  V30 4207 H 388.74 0.605062 -2.93733 0
M  V30 4208 H 386.293 0.278514 -1.53799 0
M  V30 4209 H 387.028 2.81168 -1.61602 0
M  V30 4210 H 386.813 2.16566 -3.26866 0
M  V30 4211 H 388.303 3.05938 -2.84239 0
M  V30 4212 N 388.74 1.54641 0.303973 0
M  V30 4213 C 389.989 1.7299 1.03717 0
M  V30 4214 C 390.302 0.521168 1.88529 0
M  V30 4215 O 391.508 0.586408 2.65092 0
M  V30 4216 C 389.964 3.06051 1.89369 0
M  V30 4217 C 389.572 4.34393 1.09574 0
M  V30 4218 C 391.316 3.3376 2.62306 0
M  V30 4219 C 389.223 5.58506 1.94486 0
M  V30 4220 H 388.153 0.64473 0.390947 0
M  V30 4221 H 390.804 1.81124 0.294328 0
M  V30 4222 H 389.186 2.91874 2.67629 0
M  V30 4223 H 390.36 4.59396 0.359485 0
M  V30 4224 H 388.675 4.13597 0.482324 0
M  V30 4225 H 391.272 4.23687 3.26181 0
M  V30 4226 H 391.615 2.52503 3.3098 0
M  V30 4227 H 392.148 3.48894 1.91097 0
M  V30 4228 H 388.887 6.42422 1.30287 0
M  V30 4229 H 388.407 5.37694 2.65792 0
M  V30 4230 H 390.086 5.95651 2.52605 0
M  V30 4231 O 390.257 -0.449877 1.55108 0
M  V30 4232 H 390.948 -1.10376 1.59176 0
M  V30 END ATOM
M  V30 BEGIN BOND
M  V30 END BOND
M  V30 END CTAB
M  END
$$$$
