drugbank_target|Q15746 Myosin light chain kinase, smooth muscle (DB12010)
 OpenBabel12092121173D

  0  0  0     0  0            999 V3000
M  V30 BEGIN CTAB
M  V30 COUNTS 29431 29723 0 0 0
M  V30 BEGIN ATOM
M  V30 1 H -0.908 1.98254 -0.117106 0
M  V30 2 N 0 1.576 0 0
M  V30 3 C 0.933 2.03868 1.02534 0
M  V30 4 C 1.911 0.928543 1.3348 0
M  V30 5 O 3.095 1.19667 1.45644 0
M  V30 6 C 0.222 2.43627 2.35294 0
M  V30 7 C -0.732 3.65373 2.2001 0
M  V30 8 S 0.101 5.13292 1.52614 0
M  V30 9 C 1.257 5.56322 2.86805 0
M  V30 10 H 1.49 2.90518 0.631377 0
M  V30 11 H -0.977 1.52953 0.210867 0
M  V30 12 H 0.981 2.67203 3.11629 0
M  V30 13 H -0.358 1.57376 2.7183 0
M  V30 14 H -1.165 3.90944 3.18086 0
M  V30 15 H -1.563 3.418 1.51819 0
M  V30 16 H 0.729 5.58782 3.83104 0
M  V30 17 H 1.672 6.56266 2.65933 0
M  V30 18 H 2.08 4.83886 2.90714 0
M  V30 19 N 1.4781 -0.272755 1.55222 0
M  V30 20 C 2.7261 -1.00234 1.75492 0
M  V30 21 C 3.0471 -1.8681 0.5592 0
M  V30 22 O 2.3171 -1.91215 -0.425882 0
M  V30 23 H 0.8971 -0.373076 0.647166 0
M  V30 24 H 3.5591 -0.296926 1.92625 0
M  V30 25 H 2.6551 -1.63913 2.65592 0
M  V30 26 N 2.9562 -1.48159 -0.537278 0
M  V30 27 C 4.2332 -1.46291 -1.29839 0
M  V30 28 C 4.6132 -0.170613 -2.10409 0
M  V30 29 O 3.9612 0.847746 -2.12192 0
M  V30 30 C 4.1712 -2.72055 -2.18603 0
M  V30 31 C 5.5192 -3.20087 -2.7898 0
M  V30 32 O 6.5432 -2.72921 -2.28894 0
M  V30 33 O 5.4022 -4.02138 -3.70064 0
M  V30 34 H 2.4962 -0.583906 -0.585647 0
M  V30 35 H 5.0422 -1.60384 -0.554534 0
M  V30 36 H 3.8142 -3.57628 -1.58801 0
M  V30 37 H 3.4372 -2.60646 -3.00249 0
M  V30 38 N 4.4343 0.785586 -1.36625 0
M  V30 39 C 5.6803 1.54591 -1.31261 0
M  V30 40 C 6.0133 1.93906 0.106823 0
M  V30 41 O 5.2883 1.63007 1.06108 0
M  V30 42 C 5.5713 2.82038 -2.23889 0
M  V30 43 C 5.4243 2.49066 -3.74548 0
M  V30 44 C 6.7433 3.83887 -2.15217 0
M  V30 45 H 3.8623 0.560846 -0.478143 0
M  V30 46 H 6.5043 0.902278 -1.67209 0
M  V30 47 H 4.6543 3.36961 -1.93363 0
M  V30 48 H 6.3263 2.00164 -4.15611 0
M  V30 49 H 4.5693 1.81954 -3.93796 0
M  V30 50 H 5.2403 3.40109 -4.34776 0
M  V30 51 H 7.7163 3.38421 -2.42096 0
M  V30 52 H 6.5923 4.70806 -2.82193 0
M  V30 53 H 6.8533 4.27131 -1.14068 0
M  V30 54 N 5.9124 1.20967 1.01018 0
M  V30 55 C 6.8594 0.964281 2.09691 0
M  V30 56 C 7.8294 -0.107853 1.65749 0
M  V30 57 O 9.0144 0.0381987 1.90762 0
M  V30 58 C 6.1544 0.52943 3.41015 0
M  V30 59 C 5.2674 1.67043 3.98398 0
M  V30 60 C 4.4024 1.18525 5.17808 0
M  V30 61 C 3.4414 2.29892 5.67288 0
M  V30 62 N 2.5784 1.82546 6.77954 0
M  V30 63 H 7.4184 1.89463 2.30017 0
M  V30 64 H 4.9554 0.944289 1.1279 0
M  V30 65 H 6.9134 0.258588 4.16398 0
M  V30 66 H 5.5434 -0.363919 3.20742 0
M  V30 67 H 4.5954 2.05603 3.20049 0
M  V30 68 H 5.9074 2.50877 4.31117 0
M  V30 69 H 5.0614 0.870762 6.00419 0
M  V30 70 H 3.8004 0.316887 4.86669 0
M  V30 71 H 2.8054 2.6215 4.83278 0
M  V30 72 H 4.0304 3.17216 6.00459 0
M  V30 73 H 1.9764 0.980454 6.48632 0
M  V30 74 H 1.8934 2.59956 7.09901 0
M  V30 75 H 3.1614 1.54115 7.64113 0
M  V30 76 N 7.3905 -1.2043 1.01659 0
M  V30 77 C 8.3205 -2.25466 0.607226 0
M  V30 78 C 9.3015 -1.65853 -0.377716 0
M  V30 79 O 10.4865 -1.92409 -0.263149 0
M  V30 80 C 7.6165 -3.47256 -0.0552949 0
M  V30 81 C 6.5705 -4.19462 0.850632 0
M  V30 82 C 5.8965 -5.34673 0.0538859 0
M  V30 83 C 7.1965 -4.75603 2.15868 0
M  V30 84 H 8.8905 -2.59962 1.48526 0
M  V30 85 H 6.4365 -1.2496 0.715605 0
M  V30 86 H 8.3895 -4.19917 -0.353233 0
M  V30 87 H 7.1135 -3.11924 -0.968045 0
M  V30 88 H 5.7725 -3.48667 1.13257 0
M  V30 89 H 5.4205 -4.95585 -0.860514 0
M  V30 90 H 5.1205 -5.83913 0.657192 0
M  V30 91 H 6.6445 -6.10138 -0.237598 0
M  V30 92 H 8.0585 -5.40083 1.92311 0
M  V30 93 H 6.4555 -5.3528 2.71284 0
M  V30 94 H 7.5255 -3.94346 2.82169 0
M  V30 95 N 8.8686 -0.792821 -1.36206 0
M  V30 96 C 10.1146 -0.36733 -1.99446 0
M  V30 97 C 10.4476 1.05917 -1.62774 0
M  V30 98 O 9.7226 1.7324 -0.88421 0
M  V30 99 C 10.0056 -0.535044 -3.56103 0
M  V30 100 C 9.8586 -2.00548 -4.02617 0
M  V30 101 C 11.1776 0.0478191 -4.40074 0
M  V30 102 H 8.2966 -0.134941 -0.724541 0
M  V30 103 H 10.9386 -0.999794 -1.61568 0
M  V30 104 H 9.0886 0.00336329 -3.885 0
M  V30 105 H 10.7606 -2.60521 -3.80692 0
M  V30 106 H 9.0036 -2.50686 -3.54032 0
M  V30 107 H 9.6746 -2.07377 -5.11565 0
M  V30 108 H 12.1506 -0.411822 -4.14057 0
M  V30 109 H 11.0266 -0.0995336 -5.4881 0
M  V30 110 H 11.2876 1.14025 -4.27142 0
M  V30 111 N 10.3467 1.47872 -0.545128 0
M  V30 112 C 11.3097 2.28337 0.198717 0
M  V30 113 C 12.3097 1.36255 0.853888 0
M  V30 114 O 13.4997 1.59003 0.711606 0
M  V30 115 C 10.6317 3.15585 1.28915 0
M  V30 116 H 11.8247 2.95567 -0.507941 0
M  V30 117 H 9.3777 1.53362 -0.301616 0
M  V30 118 H 10.1127 2.53019 2.02859 0
M  V30 119 H 9.8977 3.83337 0.824309 0
M  V30 120 H 11.3877 3.76243 1.81194 0
M  V30 121 N 11.8248 0.280983 1.55075 0
M  V30 122 C 13.0498 -0.340154 2.04592 0
M  V30 123 C 13.4748 -1.48246 1.15779 0
M  V30 124 O 12.8328 -1.80614 0.15761 0
M  V30 125 C 12.8808 -0.793104 3.5177 0
M  V30 126 O 11.9848 -1.89981 3.66034 0
M  V30 127 H 11.3258 -0.0694289 0.66036 0
M  V30 128 H 13.8558 0.416993 2.00306 0
M  V30 129 H 13.8658 -1.08729 3.93245 0
M  V30 130 H 12.5408 0.0426163 4.15878 0
M  V30 131 H 11.1178 -1.60771 3.36463 0
M  V30 132 N 13.3029 -1.57598 0.00835791 0
M  V30 133 C 14.5279 -1.95617 -0.689103 0
M  V30 134 C 14.9529 -0.883753 -1.66046 0
M  V30 135 O 14.3109 0.157352 -1.80616 0
M  V30 136 C 14.3589 -3.32736 -1.38994 0
M  V30 137 O 13.4629 -3.27631 -2.50463 0
M  V30 138 H 12.8039 -0.638379 -0.182668 0
M  V30 139 H 15.3339 -2.045 0.064036 0
M  V30 140 H 15.3439 -3.68494 -1.75147 0
M  V30 141 H 14.0189 -4.1034 -0.677778 0
M  V30 142 H 12.5959 -3.03561 -2.16576 0
M  V30 143 N 14.781 0.264519 -1.55364 0
M  V30 144 C 15.731 1.32966 -1.85214 0
M  V30 145 C 16.715 1.44306 -0.711653 0
M  V30 146 O 17.907 1.47844 -0.973192 0
M  V30 147 C 15.036 2.68839 -2.13495 0
M  V30 148 C 14.122 2.61575 -3.33825 0
M  V30 149 N 14.513 2.23933 -4.53528 0
M  V30 150 C 12.811 2.92621 -3.36584 0
M  V30 151 C 13.512 2.26868 -5.35636 0
M  V30 152 N 12.488 2.65677 -4.74254 0
M  V30 153 H 16.29 1.02884 -2.75304 0
M  V30 154 H 13.804 0.473157 -1.55354 0
M  V30 155 H 15.801 3.45685 -2.33039 0
M  V30 156 H 14.461 2.99802 -1.24694 0
M  V30 157 H 15.472 1.95769 -4.79474 0
M  V30 158 H 12.149 3.2824 -2.58002 0
M  V30 159 H 13.539 2.00254 -6.41364 0
M  V30 160 N 16.2591 1.48442 0.529413 0
M  V30 161 C 17.5081 1.55742 1.28169 0
M  V30 162 C 17.8211 0.236511 1.94165 0
M  V30 163 O 19.0271 0.187761 2.7085 0
M  V30 164 C 17.4831 2.74667 2.32564 0
M  V30 165 C 17.0911 4.13402 1.72636 0
M  V30 166 C 18.8351 2.9128 3.08798 0
M  V30 167 C 16.7421 5.23587 2.74975 0
M  V30 168 H 15.6721 0.579796 0.48203 0
M  V30 169 H 18.3231 1.74776 0.559056 0
M  V30 170 H 16.7051 2.49067 3.07866 0
M  V30 171 H 17.8791 4.49022 1.03519 0
M  V30 172 H 16.1941 4.0191 1.08892 0
M  V30 173 H 18.7911 3.70767 3.85274 0
M  V30 174 H 19.1341 2.00757 3.64695 0
M  V30 175 H 19.6671 3.16782 2.40611 0
M  V30 176 H 16.4061 6.16076 2.23897 0
M  V30 177 H 15.9261 4.92454 3.42417 0
M  V30 178 H 17.6051 5.51724 3.37949 0
M  V30 179 N 17.7372 -0.778329 1.37039 0
M  V30 180 C 18.9622 -1.57248 1.35233 0
M  V30 181 C 19.3872 -1.87999 -0.0615568 0
M  V30 182 O 18.7452 -1.48734 -1.03672 0
M  V30 183 C 18.7932 -2.86353 2.19167 0
M  V30 184 O 17.8972 -3.80442 1.59178 0
M  V30 185 H 17.2382 -0.476569 0.462362 0
M  V30 186 H 19.7682 -0.963853 1.80474 0
M  V30 187 H 19.7782 -3.35519 2.32145 0
M  V30 188 H 18.4532 -2.63299 3.21942 0
M  V30 189 H 17.0302 -3.39067 1.55203 0
M  V30 190 N 19.2153 -1.21501 -1.00376 0
M  V30 191 C 20.1623 -0.975387 -2.09177 0
M  V30 192 C 21.1323 0.0990615 -1.65804 0
M  V30 193 O 22.3173 -0.0483147 -1.90739 0
M  V30 194 C 19.4573 -0.547507 -3.40729 0
M  V30 195 C 18.5703 -1.69153 -3.97506 0
M  V30 196 C 17.7053 -1.2127 -5.17172 0
M  V30 197 C 16.7443 -2.32897 -5.66061 0
M  V30 198 N 15.8813 -1.86138 -6.76976 0
M  V30 199 H 20.7213 -1.9068 -2.29009 0
M  V30 200 H 18.2583 -0.950257 -1.12288 0
M  V30 201 H 20.2163 -0.280667 -4.16255 0
M  V30 202 H 18.8463 0.346904 -3.20931 0
M  V30 203 H 17.8983 -2.07298 -3.18954 0
M  V30 204 H 19.2103 -2.5316 -4.29781 0
M  V30 205 H 18.3643 -0.902591 -5.99948 0
M  V30 206 H 17.1033 -0.342692 -4.86495 0
M  V30 207 H 16.1083 -2.64709 -4.81881 0
M  V30 208 H 17.3333 -3.20396 -5.98768 0
M  V30 209 H 15.2793 -1.01484 -6.48103 0
M  V30 210 H 15.1963 -2.63717 -7.08512 0
M  V30 211 H 16.4643 -1.58165 -7.63285 0
M  V30 212 N 20.6934 1.19889 -1.02296 0
M  V30 213 C 21.9214 1.9339 -0.735399 0
M  V30 214 C 22.3364 1.75148 0.704887 0
M  V30 215 O 21.6934 1.06954 1.47875 0
M  V30 216 C 21.7444 3.45313 -1.06962 0
M  V30 217 O 21.4654 3.62964 -2.45334 0
M  V30 218 C 22.9664 4.35948 -0.804021 0
M  V30 219 H 20.1864 0.61448 -0.269546 0
M  V30 220 H 22.7304 1.522 -1.36585 0
M  V30 221 H 20.8854 3.84359 -0.484455 0
M  V30 222 H 21.2994 4.56886 -2.57595 0
M  V30 223 H 22.7734 5.41174 -1.0879 0
M  V30 224 H 23.2504 4.3842 0.261691 0
M  V30 225 H 23.8564 4.02574 -1.37164 0
M  V30 226 N 22.1715 0.800033 1.35784 0
M  V30 227 C 23.3965 0.388511 2.03729 0
M  V30 228 C 23.8215 -0.990481 1.5991 0
M  V30 229 O 23.1795 -1.64013 0.772612 0
M  V30 230 C 23.2275 0.4726 3.5749 0
M  V30 231 O 22.3315 -0.51646 4.09153 0
M  V30 232 H 21.6725 0.163271 0.643614 0
M  V30 233 H 24.2025 1.0841 1.73518 0
M  V30 234 H 24.2125 0.34003 4.06581 0
M  V30 235 H 22.8875 1.47848 3.88734 0
M  V30 236 H 21.4645 -0.344673 3.71304 0
M  V30 237 N 23.6496 -1.47581 0.552962 0
M  V30 238 C 24.5796 -2.32762 -0.185451 0
M  V30 239 C 25.5606 -1.43527 -0.912905 0
M  V30 240 O 26.7456 -1.72388 -0.894201 0
M  V30 241 C 23.8756 -3.25219 -1.21859 0
M  V30 242 C 22.8296 -4.23661 -0.607864 0
M  V30 243 C 22.1556 -5.05413 -1.74533 0
M  V30 244 C 23.4556 -5.20481 0.435582 0
M  V30 245 H 25.1496 -2.94749 0.525684 0
M  V30 246 H 22.6956 -1.41738 0.254251 0
M  V30 247 H 24.6486 -3.8365 -1.7433 0
M  V30 248 H 23.3726 -2.61279 -1.95961 0
M  V30 249 H 22.0316 -3.66451 -0.104489 0
M  V30 250 H 21.6796 -4.3788 -2.47529 0
M  V30 251 H 21.3796 -5.72059 -1.34249 0
M  V30 252 H 22.9036 -5.66701 -2.27338 0
M  V30 253 H 24.3176 -5.733 -0.00290157 0
M  V30 254 H 22.7146 -5.95305 0.757067 0
M  V30 255 H 23.7846 -4.66217 1.33303 0
M  V30 256 N 25.1277 -0.289203 -1.54924 0
M  V30 257 C 26.3527 0.329299 -2.04769 0
M  V30 258 C 26.7777 1.4763 -1.16564 0
M  V30 259 O 26.1357 1.80527 -0.167186 0
M  V30 260 C 26.1837 0.774438 -3.52186 0
M  V30 261 O 25.2877 1.88038 -3.67036 0
M  V30 262 H 24.6287 0.0659259 -0.660719 0
M  V30 263 H 27.1587 -0.42761 -2.00082 0
M  V30 264 H 27.1687 1.06642 -3.93816 0
M  V30 265 H 25.8437 -0.0646707 -4.1585 0
M  V30 266 H 24.4207 1.58985 -3.3731 0
M  V30 267 N 26.6058 1.57591 -0.0167156 0
M  V30 268 C 27.8518 1.91567 0.665582 0
M  V30 269 C 28.1848 0.892298 1.72487 0
M  V30 270 O 27.4598 -0.0867127 1.94307 0
M  V30 271 C 27.7428 3.36069 1.29342 0
M  V30 272 C 27.5958 4.49135 0.244541 0
M  V30 273 C 28.9148 3.803 2.21495 0
M  V30 274 H 26.0338 0.69666 0.240488 0
M  V30 275 H 28.6758 1.89866 -0.0714356 0
M  V30 276 H 26.8258 3.3765 1.92158 0
M  V30 277 H 28.4978 4.59689 -0.385228 0
M  V30 278 H 26.7408 4.3165 -0.431379 0
M  V30 279 H 27.4118 5.47242 0.723207 0
M  V30 280 H 29.8878 3.80377 1.68678 0
M  V30 281 H 28.7638 4.82127 2.62382 0
M  V30 282 H 29.0248 3.15104 3.101 0
M  V30 283 N 28.0839 -0.256276 1.55502 0
M  V30 284 C 29.3609 -1.00789 1.67633 0
M  V30 285 C 29.7409 -2.03706 0.553826 0
M  V30 286 O 29.0889 -2.24145 -0.443969 0
M  V30 287 C 29.2989 -1.64968 3.07549 0
M  V30 288 C 30.6469 -2.15505 3.65845 0
M  V30 289 O 31.6709 -1.74925 3.1029 0
M  V30 290 O 30.5299 -2.89986 4.63217 0
M  V30 291 H 27.6239 -0.468553 0.681459 0
M  V30 292 H 30.1699 -0.250806 1.67836 0
M  V30 293 H 28.9419 -0.904785 3.80696 0
M  V30 294 H 28.5649 -2.47321 3.11317 0
M  V30 295 N 29.562 -1.4872 -0.521534 0
M  V30 296 C 30.973 -1.50607 -1.10337 0
M  V30 297 C 31.324 -0.280612 -1.94183 0
M  V30 298 O 30.449 0.611507 -2.0758 0
M  V30 299 C 31.044 -2.72903 -2.00772 0
M  V30 300 C 29.603 -2.77634 -2.54158 0
M  V30 301 C 28.75 -2.44241 -1.31307 0
M  V30 302 H 31.701 -1.55714 -0.306388 0
M  V30 303 H 31.722 -2.519 -2.85178 0
M  V30 304 H 31.234 -3.62077 -1.39721 0
M  V30 305 H 29.335 -1.92689 -3.18907 0
M  V30 306 H 29.448 -3.79283 -2.92714 0
M  V30 307 H 27.812 -1.95577 -1.63161 0
M  V30 308 H 28.595 -3.35666 -0.719943 0
M  V30 309 N 31.0401 0.771051 -1.3745 0
M  V30 310 C 32.2651 1.56529 -1.36065 0
M  V30 311 C 32.6901 1.88029 0.0515859 0
M  V30 312 O 32.0481 1.49282 1.02882 0
M  V30 313 C 32.0961 2.85187 -2.20683 0
M  V30 314 O 31.2001 3.79593 -1.61193 0
M  V30 315 H 30.5411 0.47411 -0.464883 0
M  V30 316 H 33.0711 0.954269 -1.80983 0
M  V30 317 H 33.0811 3.34283 -2.33921 0
M  V30 318 H 31.7561 2.61588 -3.23334 0
M  V30 319 H 30.3331 3.38239 -1.56999 0
M  V30 320 N 32.5182 1.22032 0.997298 0
M  V30 321 C 33.9342 0.979326 1.26021 0
M  V30 322 C 34.1342 -0.32972 1.98784 0
M  V30 323 O 33.1902 -1.05345 2.29475 0
M  V30 324 C 34.5032 2.17509 2.07631 0
M  V30 325 C 36.0512 2.21817 2.2083 0
M  V30 326 C 36.5262 3.40933 3.05825 0
M  V30 327 N 38.0172 3.41067 3.13412 0
M  V30 328 C 38.7522 4.29885 3.79455 0
M  V30 329 N 38.2482 5.28914 4.47462 0
M  V30 330 N 40.0412 4.17673 3.76173 0
M  V30 331 H 32.1922 2.06202 0.509352 0
M  V30 332 H 34.4552 0.90334 0.287541 0
M  V30 333 H 34.1612 3.12415 1.61524 0
M  V30 334 H 34.0352 2.17206 3.08385 0
M  V30 335 H 36.4222 1.27462 2.66153 0
M  V30 336 H 36.5032 2.2616 1.1952 0
M  V30 337 H 36.1472 4.35586 2.61203 0
M  V30 338 H 36.0772 3.33829 4.07266 0
M  V30 339 H 38.5682 2.69406 2.65007 0
M  V30 340 H 38.8812 5.92973 4.95583 0
M  V30 341 H 37.2262 5.32831 4.46224 0
M  V30 342 H 40.4172 3.39564 3.22202 0
M  V30 343 H 40.5902 4.87098 4.27363 0
M  V30 344 N 33.9963 -1.19345 1.0293 0
M  V30 345 C 35.2423 -1.89318 0.727083 0
M  V30 346 C 35.5753 -1.79446 -0.742483 0
M  V30 347 O 34.8503 -1.1871 -1.54072 0
M  V30 348 C 35.1333 -3.40238 1.17942 0
M  V30 349 C 34.9863 -3.58979 2.71024 0
M  V30 350 C 36.3053 -4.33479 0.760548 0
M  V30 351 H 33.4243 -0.687475 0.265606 0
M  V30 352 H 36.0663 -1.40477 1.2793 0
M  V30 353 H 34.2163 -3.81964 0.709608 0
M  V30 354 H 35.8883 -3.26421 3.25955 0
M  V30 355 H 34.1313 -3.02018 3.11396 0
M  V30 356 H 34.8023 -4.64823 2.9773 0
M  V30 357 H 37.2783 -3.99469 1.16464 0
M  V30 358 H 36.1543 -5.37664 1.10493 0
M  V30 359 H 36.4153 -4.40813 -0.337063 0
M  V30 360 N 35.4744 -0.807222 -1.35358 0
M  V30 361 C 36.7514 -0.311126 -1.9311 0
M  V30 362 C 37.1314 1.19937 -1.73719 0
M  V30 363 O 36.4794 1.99918 -1.10657 0
M  V30 364 C 36.6894 -0.723226 -3.41424 0
M  V30 365 C 38.0374 -0.713078 -4.18569 0
M  V30 366 O 39.0614 -0.664811 -3.49941 0
M  V30 367 O 37.9204 -0.772022 -5.41019 0
M  V30 368 H 35.0144 -0.081526 -0.822972 0
M  V30 369 H 37.5604 -0.890962 -1.4443 0
M  V30 370 H 36.3324 -1.76426 -3.4927 0
M  V30 371 H 35.9554 -0.118232 -3.97424 0
M  V30 372 N 36.9525 1.47285 -0.560781 0
M  V30 373 C 38.1775 2.07359 -0.0410566 0
M  V30 374 C 38.6025 1.41017 1.24483 0
M  V30 375 O 37.9605 0.486368 1.74654 0
M  V30 376 C 38.0085 3.6035 0.134123 0
M  V30 377 O 37.1125 3.94681 1.19587 0
M  V30 378 H 36.4535 0.661887 -0.0529291 0
M  V30 379 H 38.9835 1.89252 -0.777482 0
M  V30 380 H 38.9935 4.0652 0.347207 0
M  V30 381 H 37.6685 4.08034 -0.805047 0
M  V30 382 H 36.2455 3.60251 0.962987 0
M  V30 383 N 38.4306 0.297415 1.54768 0
M  V30 384 C 39.3636 -0.622188 2.19554 0
M  V30 385 C 40.3416 -1.13558 1.16376 0
M  V30 386 O 41.5256 -1.20444 1.45002 0
M  V30 387 C 38.6526 -1.8509 2.83653 0
M  V30 388 C 37.6986 -1.47106 4.00328 0
M  V30 389 S 38.5316 -0.53006 5.3287 0
M  V30 390 C 39.6876 -1.76665 6.0045 0
M  V30 391 H 39.9206 -0.0717806 2.97213 0
M  V30 392 H 37.4536 0.0815678 1.54184 0
M  V30 393 H 39.4116 -2.55605 3.21211 0
M  V30 394 H 38.0726 -2.37247 2.05846 0
M  V30 395 H 37.2656 -2.38594 4.43947 0
M  V30 396 H 36.8676 -0.845885 3.64309 0
M  V30 397 H 39.1596 -2.7077 6.21039 0
M  V30 398 H 40.1026 -1.37308 6.9466 0
M  V30 399 H 40.5106 -1.94174 5.30054 0
M  V30 400 N 39.9087 -1.5758 0.0250728 0
M  V30 401 C 41.3197 -1.79476 -0.514323 0
M  V30 402 C 41.6707 -0.934956 -1.72491 0
M  V30 403 O 40.7957 -0.144245 -2.15919 0
M  V30 404 C 41.3907 -3.25503 -0.939842 0
M  V30 405 C 39.9497 -3.48408 -1.42438 0
M  V30 406 C 39.0967 -2.74583 -0.387201 0
M  V30 407 H 42.0477 -1.567 0.25113 0
M  V30 408 H 42.0687 -3.34992 -1.80445 0
M  V30 409 H 41.5807 -3.88056 -0.0585628 0
M  V30 410 H 39.6817 -2.91103 -2.32572 0
M  V30 411 H 39.7947 -4.57119 -1.43455 0
M  V30 412 H 38.1587 -2.39942 -0.854409 0
M  V30 413 H 38.9417 -3.39849 0.485543 0
M  V30 414 N 41.3868 0.248026 -1.55636 0
M  V30 415 C 42.3168 1.31079 -1.93237 0
M  V30 416 C 43.2978 1.50264 -0.797174 0
M  V30 417 O 44.4828 1.62891 -1.05737 0
M  V30 418 C 41.6128 2.66575 -2.22609 0
M  V30 419 C 40.5668 2.62087 -3.3837 0
M  V30 420 C 39.8928 4.01369 -3.53281 0
M  V30 421 C 41.1928 2.19171 -4.7409 0
M  V30 422 H 42.8868 0.998556 -2.82257 0
M  V30 423 H 40.4328 0.47891 -1.35803 0
M  V30 424 H 42.3858 3.41057 -2.47503 0
M  V30 425 H 41.1098 2.99432 -1.30414 0
M  V30 426 H 39.7688 1.90063 -3.13483 0
M  V30 427 H 39.4168 4.31489 -2.58508 0
M  V30 428 H 39.1168 3.99254 -4.31127 0
M  V30 429 H 40.6408 4.77552 -3.80495 0
M  V30 430 H 42.0548 2.83384 -4.98363 0
M  V30 431 H 40.4518 2.2817 -5.5503 0
M  V30 432 H 41.5218 1.14336 -4.71227 0
M  V30 433 N 42.8649 1.48995 0.513639 0
M  V30 434 C 44.0929 1.61531 1.29288 0
M  V30 435 C 44.5079 0.281801 1.86685 0
M  V30 436 O 43.8649 -0.731111 1.67215 0
M  V30 437 C 43.9159 2.67449 2.43215 0
M  V30 438 O 43.6369 3.95626 1.88179 0
M  V30 439 C 45.1379 2.90575 3.34785 0
M  V30 440 H 42.3579 0.544165 0.392588 0
M  V30 441 H 44.9019 1.9494 0.617956 0
M  V30 442 H 43.0569 2.36853 3.0656 0
M  V30 443 H 43.4709 4.53868 2.62876 0
M  V30 444 H 44.9449 3.68449 4.11035 0
M  V30 445 H 45.4219 2.00011 3.91015 0
M  V30 446 H 46.0279 3.22538 2.77218 0
M  V30 447 N 44.343 -0.763751 1.37857 0
M  V30 448 C 45.253 -1.90817 1.36478 0
M  V30 449 C 46.269 -1.71997 0.263248 0
M  V30 450 O 47.445 -1.95095 0.499979 0
M  V30 451 C 44.51 -3.2605 1.17864 0
M  V30 452 C 43.571 -3.57467 2.3773 0
M  V30 453 C 42.804 -4.86249 2.19995 0
M  V30 454 O 43.027 -5.57884 1.18836 0
M  V30 455 O 41.961 -5.16911 3.08361 0
M  V30 456 H 45.787 -1.94933 2.32884 0
M  V30 457 H 43.372 -0.907619 1.1867 0
M  V30 458 H 45.254 -4.06924 1.09504 0
M  V30 459 H 43.929 -3.22769 0.245372 0
M  V30 460 H 42.836 -2.76796 2.51664 0
M  V30 461 H 44.169 -3.655 3.29652 0
M  V30 462 N 45.8211 -1.22559 -0.990812 0
M  V30 463 C 46.7841 -0.998863 -2.0629 0
M  V30 464 C 47.7841 0.0354834 -1.60761 0
M  V30 465 O 48.9741 -0.203231 -1.7301 0
M  V30 466 C 46.1061 -0.509203 -3.37076 0
M  V30 467 H 47.2991 -1.95014 -2.27837 0
M  V30 468 H 44.8521 -1.04456 -1.16269 0
M  V30 469 H 45.5871 0.446335 -3.21214 0
M  V30 470 H 45.3721 -1.25547 -3.71457 0
M  V30 471 H 46.8621 -0.370888 -4.1595 0
M  V30 472 N 47.2992 1.18797 -1.03562 0
M  V30 473 C 48.7102 1.70322 -0.764676 0
M  V30 474 C 49.0612 1.82708 0.714996 0
M  V30 475 O 48.1862 1.50299 1.55689 0
M  V30 476 C 48.7812 3.09356 -1.38145 0
M  V30 477 C 47.3402 3.58114 -1.15895 0
M  V30 478 C 46.4872 2.34798 -1.4753 0
M  V30 479 H 49.4382 1.03543 -1.20268 0
M  V30 480 H 49.4592 3.72378 -0.781977 0
M  V30 481 H 48.9712 3.00309 -2.45837 0
M  V30 482 H 47.0722 3.72464 -0.100544 0
M  V30 483 H 47.1852 4.4184 -1.8524 0
M  V30 484 H 45.5492 2.38464 -0.894829 0
M  V30 485 H 46.3322 2.28375 -2.56319 0
M  V30 486 N 48.7773 0.814389 1.34928 0
M  V30 487 C 49.7403 0.235759 2.27984 0
M  V30 488 C 50.7403 -0.581412 1.49921 0
M  V30 489 O 51.9303 -0.398758 1.69575 0
M  V30 490 C 49.0623 -0.670433 3.34242 0
M  V30 491 H 50.2553 1.05659 2.80671 0
M  V30 492 H 47.8083 0.585614 1.44915 0
M  V30 493 H 48.5433 -1.51466 2.86755 0
M  V30 494 H 48.3283 -0.0860822 3.92005 0
M  V30 495 H 49.8183 -1.06935 4.03676 0
M  V30 496 N 50.2554 -1.46986 0.568584 0
M  V30 497 C 51.5024 -2.02441 0.0487986 0
M  V30 498 C 51.8304 -1.44169 -1.30559 0
M  V30 499 O 51.0854 -0.591213 -1.86556 0
M  V30 500 C 51.3844 -3.57306 -0.081836 0
M  V30 501 C 51.0504 -4.34552 1.20313 0
M  V30 502 C 49.7124 -4.55376 1.5552 0
M  V30 503 C 52.0644 -4.79016 2.05411 0
M  V30 504 C 49.3924 -5.17913 2.7565 0
M  V30 505 C 51.7444 -5.42879 3.24754 0
M  V30 506 C 50.4084 -5.61933 3.60261 0
M  V30 507 H 49.6784 -0.740785 0.0178567 0
M  V30 508 H 52.3254 -1.76525 0.742384 0
M  V30 509 H 50.6304 -3.8228 -0.858463 0
M  V30 510 H 52.3274 -3.97876 -0.499546 0
M  V30 511 H 48.9174 -4.18631 0.919014 0
M  V30 512 H 53.1014 -4.62696 1.79516 0
M  V30 513 H 48.3574 -5.30858 3.03315 0
M  V30 514 H 52.5314 -5.76293 3.90973 0
M  V30 515 H 50.1584 -6.10161 4.53439 0
M  V30 516 N 51.7335 -0.305618 -1.54608 0
M  V30 517 C 52.9825 0.303098 -1.9941 0
M  V30 518 C 53.2955 1.54648 -1.19764 0
M  V30 519 O 54.5015 2.23007 -1.54855 0
M  V30 520 C 52.9575 0.590588 -3.55021 0
M  V30 521 C 52.5655 -0.634719 -4.43481 0
M  V30 522 C 54.3095 1.16025 -4.08336 0
M  V30 523 C 52.2165 -0.320126 -5.90533 0
M  V30 524 H 51.1465 0.117031 -0.744862 0
M  V30 525 H 53.7975 -0.415045 -1.78745 0
M  V30 526 H 52.1795 1.36845 -3.71604 0
M  V30 527 H 53.3535 -1.41079 -4.38672 0
M  V30 528 H 51.6685 -1.12333 -4.00962 0
M  V30 529 H 54.2655 1.40994 -5.15776 0
M  V30 530 H 54.6085 2.10397 -3.5922 0
M  V30 531 H 55.1415 0.443985 -3.95315 0
M  V30 532 H 51.8805 -1.23254 -6.43808 0
M  V30 533 H 51.4005 0.418579 -5.98338 0
M  V30 534 H 53.0795 0.0766241 -6.46955 0
M  V30 535 N 53.2116 1.57565 -0.0334293 0
M  V30 536 C 54.1416 2.13511 0.945265 0
M  V30 537 C 55.1226 1.05231 1.33643 0
M  V30 538 O 56.3076 1.33084 1.41429 0
M  V30 539 C 53.4376 2.6657 2.22616 0
M  V30 540 C 52.3916 3.79676 1.97561 0
M  V30 541 C 51.7176 4.1918 3.31952 0
M  V30 542 C 53.0176 5.0557 1.31135 0
M  V30 543 H 54.7116 2.95538 0.479325 0
M  V30 544 H 52.2576 1.42166 0.229115 0
M  V30 545 H 54.2106 3.04344 2.91466 0
M  V30 546 H 52.9346 1.8171 2.71384 0
M  V30 547 H 51.5936 3.42347 1.31127 0
M  V30 548 H 51.2416 3.31296 3.78487 0
M  V30 549 H 50.9416 4.95402 3.15992 0
M  V30 550 H 52.4656 4.59541 4.02063 0
M  V30 551 H 53.8796 5.40903 1.89992 0
M  V30 552 H 52.2766 5.86818 1.25559 0
M  V30 553 H 53.3466 4.84062 0.284894 0
M  V30 554 N 54.6897 -0.239769 1.55765 0
M  V30 555 C 56.1007 -0.808263 1.68297 0
M  V30 556 C 56.4517 -1.85736 0.632181 0
M  V30 557 O 55.5767 -2.15277 -0.220204 0
M  V30 558 C 56.1717 -1.47284 3.05111 0
M  V30 559 C 54.7307 -1.98895 3.19559 0
M  V30 560 C 53.8777 -0.842575 2.64189 0
M  V30 561 H 56.8287 -0.0154422 1.58692 0
M  V30 562 H 56.8497 -2.34111 2.99954 0
M  V30 563 H 56.3617 -0.709053 3.81568 0
M  V30 564 H 54.4627 -2.78132 2.47938 0
M  V30 565 H 54.5757 -2.18143 4.26556 0
M  V30 566 H 52.9397 -1.24501 2.22197 0
M  V30 567 H 53.7227 -0.0917552 3.43177 0
M  V30 568 N 56.1678 -1.49265 -0.50573 0
M  V30 569 C 57.5788 -1.51769 -1.08734 0
M  V30 570 C 57.9298 -0.301192 -1.93874 0
M  V30 571 O 57.0548 0.589456 -2.08217 0
M  V30 572 C 57.6498 -2.75017 -1.97867 0
M  V30 573 C 56.2088 -2.80314 -2.51199 0
M  V30 574 C 55.3558 -2.4562 -1.28709 0
M  V30 575 H 58.3068 -1.56031 -0.289855 0
M  V30 576 H 58.3278 -2.5491 -2.82491 0
M  V30 577 H 57.8398 -3.63539 -1.35873 0
M  V30 578 H 55.9408 -1.96061 -3.16845 0
M  V30 579 H 56.0538 -3.82366 -2.88675 0
M  V30 580 H 54.4178 -1.97297 -1.61078 0
M  V30 581 H 55.2008 -3.36411 -0.6843 0
M  V30 582 N 57.6459 0.756429 -1.3826 0
M  V30 583 C 59.0619 1.0591 -1.19395 0
M  V30 584 C 59.2619 2.01459 -0.0406567 0
M  V30 585 O 58.3179 2.44909 0.614467 0
M  V30 586 C 59.6309 1.64191 -2.51916 0
M  V30 587 C 61.1789 1.76376 -2.58574 0
M  V30 588 C 61.6539 2.38069 -3.91264 0
M  V30 589 N 63.1449 2.45503 -3.92788 0
M  V30 590 C 63.8799 2.94126 -4.92217 0
M  V30 591 N 63.3759 3.42805 -6.02043 0
M  V30 592 N 65.1689 2.9314 -4.7961 0
M  V30 593 H 57.3199 0.122313 -2.12048 0
M  V30 594 H 59.5829 0.116892 -0.940766 0
M  V30 595 H 59.2889 1.01451 -3.3675 0
M  V30 596 H 59.1629 2.6329 -2.70108 0
M  V30 597 H 61.5499 2.38244 -1.74137 0
M  V30 598 H 61.6309 0.759894 -2.44252 0
M  V30 599 H 61.2749 1.76835 -4.76121 0
M  V30 600 H 61.2049 3.39091 -4.02895 0
M  V30 601 H 63.6959 2.1107 -3.13461 0
M  V30 602 H 64.0089 3.78354 -6.73846 0
M  V30 603 H 62.3539 3.4087 -6.05667 0
M  V30 604 H 65.5449 2.54419 -3.92923 0
M  V30 605 H 65.7179 3.30721 -5.5725 0
M  V30 606 N 59.124 1.23083 0.984299 0
M  V30 607 C 60.072 1.00593 2.09723 0
M  V30 608 C 61.066 -0.0538014 1.69315 0
M  V30 609 O 62.272 0.0993719 1.79725 0
M  V30 610 H 58.647 0.30817 0.685956 0
M  V30 611 H 60.618 1.95012 2.2586 0
M  V30 612 C 59.367 0.609601 3.42314 0
M  V30 613 H 58.69 1.41675 3.73856 0
M  V30 614 H 60.13 0.491726 4.21139 0
M  V30 615 C 58.589 -0.681745 3.2993 0
M  V30 616 O 59.119 -1.73192 3.62446 0
M  V30 617 N 57.325 -0.656178 2.83095 0
M  V30 618 H 56.872 0.198759 2.56832 0
M  V30 619 H 56.83 -1.52044 2.75191 0
M  V30 620 N 60.6021 -1.18246 1.0419 0
M  V30 621 C 61.5321 -2.24127 0.654914 0
M  V30 622 C 62.5131 -1.66617 -0.342451 0
M  V30 623 O 63.6981 -1.92924 -0.222277 0
M  V30 624 C 60.8281 -3.47295 0.0183757 0
M  V30 625 C 59.7821 -4.17563 0.939414 0
M  V30 626 C 59.1081 -5.34438 0.167286 0
M  V30 627 C 60.4081 -4.70917 2.25908 0
M  V30 628 H 62.1021 -2.56753 1.54007 0
M  V30 629 H 59.6481 -1.23414 0.74195 0
M  V30 630 H 61.6011 -4.20572 -0.264082 0
M  V30 631 H 60.3251 -3.13907 -0.901664 0
M  V30 632 H 58.9841 -3.46186 1.20628 0
M  V30 633 H 58.6321 -4.97298 -0.7552 0
M  V30 634 H 58.3321 -5.82388 0.780901 0
M  V30 635 H 59.8561 -6.10504 -0.108125 0
M  V30 636 H 61.2701 -5.35882 2.03724 0
M  V30 637 H 59.6671 -5.29406 2.82577 0
M  V30 638 H 60.7371 -3.88272 2.9047 0
M  V30 639 N 62.0802 -0.821533 -1.34494 0
M  V30 640 C 63.3202 -0.414785 -2.00147 0
M  V30 641 C 63.6842 1.00299 -1.6372 0
M  V30 642 O 64.8852 1.51255 -2.22206 0
M  V30 643 C 63.1562 -0.609403 -3.52166 0
M  V30 644 S 64.7152 -0.295297 -4.37805 0
M  V30 645 H 61.5332 -0.15679 -0.693497 0
M  V30 646 H 64.1352 -1.06705 -1.63812 0
M  V30 647 H 62.8392 -1.64096 -3.76166 0
M  V30 648 H 62.3702 0.0576414 -3.93358 0
M  V30 649 H 64.3852 0.891531 -4.88125 0
M  V30 650 N 63.5583 1.46682 -0.576371 0
M  V30 651 C 64.8073 2.01619 -0.0572825 0
M  V30 652 C 65.1203 1.45417 1.30818 0
M  V30 653 O 66.3263 1.92133 1.91825 0
M  V30 654 C 64.7823 3.59863 -0.0518371 0
M  V30 655 C 64.3903 4.25059 -1.41523 0
M  V30 656 C 66.1343 4.2248 0.413639 0
M  V30 657 C 64.0413 5.75364 -1.36785 0
M  V30 658 H 62.9713 0.753794 -0.0176448 0
M  V30 659 H 65.6223 1.68481 -0.727076 0
M  V30 660 H 64.0043 3.90048 0.683994 0
M  V30 661 H 65.1783 4.06491 -2.17029 0
M  V30 662 H 63.4933 3.7451 -1.8202 0
M  V30 663 H 66.0903 5.3265 0.467779 0
M  V30 664 H 66.4333 3.90976 1.42982 0
M  V30 665 H 66.9663 3.96897 -0.267929 0
M  V30 666 H 63.7053 6.11518 -2.36063 0
M  V30 667 H 63.2253 5.96214 -0.654895 0
M  V30 668 H 64.9043 6.37955 -1.07805 0
M  V30 669 N 65.0364 0.313813 1.54444 0
M  V30 670 C 65.9834 -0.55655 2.23989 0
M  V30 671 C 66.9534 -1.11943 1.22711 0
M  V30 672 O 68.1384 -1.16158 1.51367 0
M  V30 673 C 65.2784 -1.71635 2.99392 0
M  V30 674 C 64.3914 -1.18364 4.15468 0
M  V30 675 C 63.5264 -2.30834 4.78424 0
M  V30 676 C 62.5654 -1.74762 5.86622 0
M  V30 677 N 61.7024 -2.80855 6.43479 0
M  V30 678 H 66.5424 0.0430893 2.97969 0
M  V30 679 H 64.0794 0.0330359 1.47063 0
M  V30 680 H 66.0374 -2.39868 3.41349 0
M  V30 681 H 64.6674 -2.28742 2.27765 0
M  V30 682 H 63.7194 -0.393163 3.78363 0
M  V30 683 H 65.0314 -0.733262 4.93381 0
M  V30 684 H 64.1854 -3.0699 5.23299 0
M  V30 685 H 62.9244 -2.79204 3.99871 0
M  V30 686 H 61.9294 -0.970995 5.41158 0
M  V30 687 H 63.1544 -1.2728 6.67066 0
M  V30 688 H 61.1004 -3.28535 5.67804 0
M  V30 689 H 61.0174 -2.40351 7.16776 0
M  V30 690 H 62.2854 -3.5687 6.93011 0
M  V30 691 N 66.5145 -1.57545 0.0417849 0
M  V30 692 C 67.4245 -2.14451 -0.951213 0
M  V30 693 C 68.4405 -1.09992 -1.34825 0
M  V30 694 O 69.6165 -1.42114 -1.42708 0
M  V30 695 C 66.6815 -2.67063 -2.21084 0
M  V30 696 C 65.7425 -3.86284 -1.87304 0
M  V30 697 C 64.9755 -4.36378 -3.07261 0
M  V30 698 O 65.1985 -3.85587 -4.20332 0
M  V30 699 O 64.1325 -5.28077 -2.88822 0
M  V30 700 H 67.9585 -2.99601 -0.497287 0
M  V30 701 H 65.5435 -1.48317 -0.179567 0
M  V30 702 H 67.4255 -3.00914 -2.95006 0
M  V30 703 H 66.1005 -1.84989 -2.65633 0
M  V30 704 H 65.0075 -3.57338 -1.10727 0
M  V30 705 H 66.3405 -4.6956 -1.47562 0
M  V30 706 N 67.9926 0.231505 -1.5589 0
M  V30 707 C 69.2406 0.955461 -1.78088 0
M  V30 708 C 69.5616 1.85262 -0.608533 0
M  V30 709 O 68.8316 1.92277 0.375035 0
M  V30 710 H 67.4116 0.355787 -0.656829 0
M  V30 711 H 70.0736 0.245751 -1.93344 0
M  V30 712 H 69.1696 1.56814 -2.69844 0
M  V30 713 N 69.4707 1.49531 0.497807 0
M  V30 714 C 70.4337 1.65916 1.58128 0
M  V30 715 C 71.4337 0.530825 1.51786 0
M  V30 716 O 72.6237 0.797342 1.54881 0
M  V30 717 C 69.7557 1.65951 2.9778 0
M  V30 718 H 70.9487 2.62556 1.44929 0
M  V30 719 H 68.5017 1.38611 0.722275 0
M  V30 720 H 69.2367 0.709065 3.16453 0
M  V30 721 H 69.0217 2.47897 3.03792 0
M  V30 722 H 70.5117 1.80673 3.76493 0
M  V30 723 N 70.9488 -0.749086 1.3866 0
M  V30 724 C 72.1768 -1.53834 1.38358 0
M  V30 725 C 72.5918 -1.88783 -0.0255219 0
M  V30 726 O 71.9488 -1.53101 -0.993292 0
M  V30 727 C 71.9998 -2.83468 2.2434 0
M  V30 728 O 71.7208 -2.50008 3.5976 0
M  V30 729 C 73.2218 -3.7758 2.32267 0
M  V30 730 H 70.4418 -0.47585 0.473083 0
M  V30 731 H 72.9858 -0.926726 1.82297 0
M  V30 732 H 71.1408 -3.40995 1.83851 0
M  V30 733 H 71.5548 -3.33182 4.05081 0
M  V30 734 H 73.0288 -4.65478 2.96706 0
M  V30 735 H 73.5058 -4.18334 1.33765 0
M  V30 736 H 74.1118 -3.25976 2.73166 0
M  V30 737 N 72.4269 -1.23603 -0.977757 0
M  V30 738 C 73.3899 -1.02069 -2.05218 0
M  V30 739 C 74.3899 0.0184305 -1.60789 0
M  V30 740 O 75.5799 -0.221569 -1.72785 0
M  V30 741 C 72.7119 -0.544926 -3.36517 0
M  V30 742 H 73.9049 -1.9742 -2.25755 0
M  V30 743 H 71.4579 -1.05684 -1.15155 0
M  V30 744 H 72.1929 0.412241 -3.21669 0
M  V30 745 H 71.9779 -1.2948 -3.70105 0
M  V30 746 H 73.4679 -0.414985 -4.15533 0
M  V30 747 N 73.905 1.17692 -1.04816 0
M  V30 748 C 74.852 2.21581 -0.645797 0
M  V30 749 C 75.822 1.62367 0.350159 0
M  V30 750 O 77.007 1.89254 0.242433 0
M  V30 751 C 74.147 3.45092 -0.0227568 0
M  V30 752 C 73.26 4.18613 -1.06709 0
M  V30 753 C 72.395 5.29602 -0.411767 0
M  V30 754 C 71.434 5.94904 -1.44067 0
M  V30 755 N 70.571 6.97414 -0.809781 0
M  V30 756 H 75.411 2.55353 -1.5362 0
M  V30 757 H 72.948 1.25438 -0.768364 0
M  V30 758 H 74.906 4.15679 0.35588 0
M  V30 759 H 73.536 3.11917 0.831122 0
M  V30 760 H 72.588 3.46779 -1.5636 0
M  V30 761 H 73.9 4.63293 -1.84827 0
M  V30 762 H 73.054 6.06696 0.0206623 0
M  V30 763 H 71.793 4.86045 0.401438 0
M  V30 764 H 70.798 5.16544 -1.88316 0
M  V30 765 H 72.023 6.40542 -2.25571 0
M  V30 766 H 69.969 6.55998 -0.0170186 0
M  V30 767 H 69.886 7.40386 -1.52856 0
M  V30 768 H 71.154 7.78463 -0.401999 0
M  V30 769 N 75.3831 0.828654 1.34056 0
M  V30 770 C 76.6301 0.419458 1.98108 0
M  V30 771 C 76.9581 -1.01886 1.65679 0
M  V30 772 O 76.2131 -1.72539 0.923512 0
M  V30 773 C 76.5121 0.575226 3.52741 0
M  V30 774 C 76.1781 1.98012 4.05095 0
M  V30 775 C 74.8401 2.36442 4.19104 0
M  V30 776 C 77.1921 2.89824 4.33188 0
M  V30 777 C 74.5201 3.66009 4.58535 0
M  V30 778 C 76.8721 4.1886 4.74066 0
M  V30 779 C 75.5361 4.5726 4.86281 0
M  V30 780 H 74.8061 0.153491 0.724929 0
M  V30 781 H 77.4531 1.05371 1.59904 0
M  V30 782 H 75.7581 -0.142385 3.91541 0
M  V30 783 H 77.4551 0.239057 4.00287 0
M  V30 784 H 74.0451 1.67162 3.94658 0
M  V30 785 H 78.2291 2.61375 4.21897 0
M  V30 786 H 73.4851 3.95579 4.66184 0
M  V30 787 H 77.6591 4.90086 4.94761 0
M  V30 788 H 75.2861 5.57707 5.16592 0
M  V30 789 N 76.8612 -1.46375 0.584142 0
M  V30 790 C 77.7712 -2.34115 -0.150728 0
M  V30 791 C 78.7872 -1.49838 -0.884567 0
M  V30 792 O 79.9632 -1.82704 -0.847429 0
M  V30 793 C 77.0282 -3.2705 -1.15062 0
M  V30 794 C 76.0892 -4.27228 -0.421293 0
M  V30 795 C 75.3222 -5.15722 -1.37355 0
M  V30 796 O 75.5452 -5.07176 -2.61014 0
M  V30 797 O 74.4792 -5.95383 -0.883355 0
M  V30 798 H 78.3052 -2.98309 0.569708 0
M  V30 799 H 75.8902 -1.45373 0.344535 0
M  V30 800 H 77.7722 -3.84381 -1.72712 0
M  V30 801 H 76.4472 -2.65451 -1.8525 0
M  V30 802 H 75.3542 -3.7358 0.197085 0
M  V30 803 H 76.6872 -4.91616 0.239641 0
M  V30 804 N 78.3393 -0.321999 -1.54275 0
M  V30 805 C 79.5873 0.280489 -2.00144 0
M  V30 806 C 79.9083 1.52777 -1.21178 0
M  V30 807 O 79.1783 1.9338 -0.313187 0
M  V30 808 H 77.7583 0.106632 -0.73935 0
M  V30 809 H 80.4203 -0.438184 -1.8991 0
M  V30 810 H 79.5163 0.537972 -3.07428 0
M  V30 811 N 79.8174 1.5752 -0.0501392 0
M  V30 812 C 81.2334 1.56631 0.306402 0
M  V30 813 C 81.4334 1.0577 1.71508 0
M  V30 814 O 80.4894 0.713837 2.422 0
M  V30 815 C 81.8024 3.00393 0.135811 0
M  V30 816 C 83.3504 3.12315 0.206993 0
M  V30 817 C 83.8254 4.57954 0.064944 0
M  V30 818 N 85.3164 4.63041 0.121254 0
M  V30 819 C 86.0514 5.73389 0.0354381 0
M  V30 820 N 85.5474 6.92724 -0.102666 0
M  V30 821 N 87.3404 5.62026 0.090946 0
M  V30 822 H 79.4914 1.88903 -0.971046 0
M  V30 823 H 81.7544 0.869876 -0.376855 0
M  V30 824 H 81.4604 3.41635 -0.835384 0
M  V30 825 H 81.3344 3.66373 0.897275 0
M  V30 826 H 83.7214 2.70973 1.16866 0
M  V30 827 H 83.8024 2.49016 -0.585208 0
M  V30 828 H 83.4464 4.99981 -0.893394 0
M  V30 829 H 83.3764 5.19258 0.876277 0
M  V30 830 H 85.8674 3.77216 0.227284 0
M  V30 831 H 86.1804 7.72633 -0.160882 0
M  V30 832 H 84.5254 6.94864 -0.137737 0
M  V30 833 H 87.7164 4.67684 0.197388 0
M  V30 834 H 87.8894 6.47997 0.0206089 0
M  V30 835 N 81.2955 -0.223234 1.56011 0
M  V30 836 C 82.5415 -0.949279 1.79211 0
M  V30 837 C 82.8745 -1.84054 0.619494 0
M  V30 838 O 82.1495 -1.90726 -0.381317 0
M  V30 839 C 82.4325 -1.78965 3.12479 0
M  V30 840 C 82.2855 -0.924997 4.40186 0
M  V30 841 C 83.6045 -2.76774 3.42175 0
M  V30 842 H 80.7235 -0.343676 0.651963 0
M  V30 843 H 83.3655 -0.218253 1.88742 0
M  V30 844 H 81.5155 -2.41291 3.04485 0
M  V30 845 H 83.1875 -0.318615 4.60198 0
M  V30 846 H 81.4305 -0.230344 4.33188 0
M  V30 847 H 82.1015 -1.54735 5.29869 0
M  V30 848 H 84.5775 -2.24584 3.50287 0
M  V30 849 H 83.4535 -3.32678 4.36597 0
M  V30 850 H 83.7145 -3.54429 2.64258 0
M  V30 851 N 82.7736 -1.49793 -0.48987 0
M  V30 852 C 84.1896 -1.36803 -0.822022 0
M  V30 853 C 84.3896 -0.409652 -1.97292 0
M  V30 854 O 83.4456 0.154614 -2.52026 0
M  V30 855 C 84.7586 -2.77768 -1.15175 0
M  V30 856 C 86.3066 -2.86549 -1.25931 0
M  V30 857 C 86.7816 -4.28306 -1.62228 0
M  V30 858 N 88.2726 -4.31169 -1.69256 0
M  V30 859 C 89.0076 -5.37832 -1.98807 0
M  V30 860 N 88.5036 -6.54726 -2.26507 0
M  V30 861 N 90.2966 -5.25258 -2.00152 0
M  V30 862 H 82.4476 -2.10691 0.268881 0
M  V30 863 H 84.7106 -0.946241 0.057728 0
M  V30 864 H 84.4166 -3.49648 -0.379335 0
M  V30 865 H 84.2906 -3.13836 -2.09253 0
M  V30 866 H 86.6776 -2.14899 -2.02243 0
M  V30 867 H 86.7586 -2.54049 -0.298776 0
M  V30 868 H 86.4026 -5.00486 -0.864622 0
M  V30 869 H 86.3326 -4.58279 -2.594 0
M  V30 870 H 88.8236 -3.4687 -1.49965 0
M  V30 871 H 89.1366 -7.31833 -2.48276 0
M  V30 872 H 87.4816 -6.57933 -2.23939 0
M  V30 873 H 90.6726 -4.32938 -1.77996 0
M  V30 874 H 90.8456 -6.08476 -2.22848 0
M  V30 875 N 84.2517 0.741722 -1.39055 0
M  V30 876 C 85.4997 1.49818 -1.35643 0
M  V30 877 C 85.8207 1.94938 0.0491642 0
M  V30 878 O 85.0907 1.68505 0.999141 0
M  V30 879 H 83.6707 0.555755 -0.499144 0
M  V30 880 H 86.3327 0.880957 -1.73854 0
M  V30 881 H 85.4287 2.38348 -2.01486 0
M  V30 882 N 85.7298 1.2412 0.971189 0
M  V30 883 C 86.9598 1.10415 1.7462 0
M  V30 884 C 87.3678 -0.346462 1.86001 0
M  V30 885 O 86.7108 -1.25104 1.34517 0
M  V30 886 C 86.7728 1.66596 3.18568 0
M  V30 887 C 86.4368 3.15446 3.3067 0
M  V30 888 C 87.4338 4.12636 3.16271 0
M  V30 889 C 85.1188 3.55337 3.55022 0
M  V30 890 C 87.1128 5.47699 3.26044 0
M  V30 891 C 84.7998 4.90542 3.64434 0
M  V30 892 C 85.7978 5.86532 3.49956 0
M  V30 893 O 85.4858 7.19279 3.59017 0
M  V30 894 H 85.2178 0.386616 0.55453 0
M  V30 895 H 87.7718 1.64633 1.22821 0
M  V30 896 H 86.0018 1.06808 3.71657 0
M  V30 897 H 87.6908 1.48232 3.77865 0
M  V30 898 H 88.4568 3.8316 2.97344 0
M  V30 899 H 84.3358 2.8113 3.65359 0
M  V30 900 H 87.8798 6.22603 3.14661 0
M  V30 901 H 83.7768 5.19691 3.82873 0
M  V30 902 H 84.5448 7.27153 3.75754 0
M  V30 903 N 87.2079 -1.17134 1.05439 0
M  V30 904 C 88.6189 -1.69084 0.791676 0
M  V30 905 C 88.9699 -1.83822 -0.685839 0
M  V30 906 O 88.0949 -1.52757 -1.53278 0
M  V30 907 C 88.6899 -3.07119 1.4305 0
M  V30 908 C 87.2489 -3.56225 1.21577 0
M  V30 909 C 86.3959 -2.32421 1.51247 0
M  V30 910 H 89.3469 -1.01617 1.219 0
M  V30 911 H 89.3679 -3.71087 0.84112 0
M  V30 912 H 88.8799 -2.9636 2.50584 0
M  V30 913 H 86.9809 -3.72257 0.159787 0
M  V30 914 H 87.0939 -4.38837 1.92246 0
M  V30 915 H 85.4579 -2.3701 0.932653 0
M  V30 916 H 86.2409 -2.24268 2.5992 0
M  V30 917 N 88.686 -0.835752 -1.33615 0
M  V30 918 C 89.596 -0.269088 -2.33052 0
M  V30 919 C 90.612 0.603251 -1.63208 0
M  V30 920 O 91.788 0.508112 -1.94885 0
M  V30 921 C 88.853 0.549091 -3.42324 0
M  V30 922 C 87.914 -0.347156 -4.27894 0
M  V30 923 C 87.147 0.43207 -5.31948 0
M  V30 924 O 87.37 1.66409 -5.45586 0
M  V30 925 O 86.304 -0.192298 -6.01593 0
M  V30 926 H 90.13 -1.09243 -2.83372 0
M  V30 927 H 87.715 -0.598198 -1.36901 0
M  V30 928 H 89.597 1.01414 -4.09015 0
M  V30 929 H 88.272 1.34955 -2.94226 0
M  V30 930 H 87.179 -0.859979 -3.64081 0
M  V30 931 H 88.512 -1.1123 -4.79467 0
M  V30 932 N 90.1641 1.46063 -0.591896 0
M  V30 933 C 91.5751 1.85944 -0.167822 0
M  V30 934 C 91.9261 1.49429 1.27143 0
M  V30 935 O 91.0511 0.913515 1.96173 0
M  V30 936 C 91.6461 3.37489 -0.297794 0
M  V30 937 C 90.2051 3.76332 0.0714732 0
M  V30 938 C 89.3521 2.7006 -0.629509 0
M  V30 939 H 92.3031 1.37087 -0.799555 0
M  V30 940 H 92.3241 3.77532 0.474349 0
M  V30 941 H 91.8361 3.64034 -1.3454 0
M  V30 942 H 89.9371 3.55405 1.11886 0
M  V30 943 H 90.0501 4.78088 -0.311245 0
M  V30 944 H 88.4141 2.54607 -0.0687867 0
M  V30 945 H 89.1971 2.99444 -1.67894 0
M  V30 946 N 91.6422 0.330177 1.54103 0
M  V30 947 C 92.5742 -0.566902 2.22079 0
M  V30 948 C 93.5872 -1.07462 1.22294 0
M  V30 949 O 94.7762 -0.987065 1.48726 0
M  V30 950 C 91.8762 -1.79138 2.87685 0
M  V30 951 C 91.0492 -1.42123 4.13666 0
M  V30 952 C 90.1082 -2.50394 4.62806 0
M  V30 953 O 89.1342 -2.14261 5.27334 0
M  V30 954 N 90.3362 -3.81433 4.37595 0
M  V30 955 H 93.1012 0.0151844 2.99696 0
M  V30 956 H 90.6622 0.153681 1.61169 0
M  V30 957 H 92.6542 -2.50975 3.1748 0
M  V30 958 H 91.2242 -2.28115 2.13734 0
M  V30 959 H 90.4442 -0.534201 3.90564 0
M  V30 960 H 91.7322 -1.14971 4.9564 0
M  V30 961 H 91.1302 -4.13584 3.8596 0
M  V30 962 H 89.6872 -4.4948 4.72029 0
M  V30 963 N 93.1203 -1.57491 0.0584922 0
M  V30 964 C 94.3663 -1.93264 -0.614558 0
M  V30 965 C 94.6993 -0.937717 -1.7006 0
M  V30 966 O 93.9743 0.0351652 -1.94468 0
M  V30 967 C 94.2573 -3.3938 -1.20386 0
M  V30 968 C 94.1103 -4.49625 -0.125375 0
M  V30 969 C 95.4293 -3.86039 -2.11334 0
M  V30 970 H 92.5483 -0.702791 -0.221933 0
M  V30 971 H 95.1903 -1.8961 0.12175 0
M  V30 972 H 93.3403 -3.42626 -1.83139 0
M  V30 973 H 95.0123 -4.58506 0.506971 0
M  V30 974 H 93.2553 -4.30354 0.545672 0
M  V30 975 H 93.9263 -5.48967 -0.577861 0
M  V30 976 H 96.4023 -3.84716 -1.58534 0
M  V30 977 H 95.2783 -4.88914 -2.49507 0
M  V30 978 H 95.5393 -3.23215 -3.01636 0
M  V30 979 N 94.5984 0.214957 -1.56127 0
M  V30 980 C 95.8264 0.955092 -1.83536 0
M  V30 981 C 96.2414 1.77677 -0.638472 0
M  V30 982 O 95.5984 1.78219 0.392968 0
M  V30 983 C 95.6494 1.86734 -3.09536 0
M  V30 984 O 95.3704 1.07887 -4.24608 0
M  V30 985 C 96.8714 2.72082 -3.4998 0
M  V30 986 H 94.0914 0.279611 -0.609966 0
M  V30 987 H 96.6354 0.228197 -2.03223 0
M  V30 988 H 94.7904 2.5481 -2.91806 0
M  V30 989 H 95.2044 1.69872 -4.9623 0
M  V30 990 H 96.6784 3.31782 -4.41163 0
M  V30 991 H 97.1554 3.44806 -2.7204 0
M  V30 992 H 97.7614 2.09409 -3.70173 0
M  V30 993 N 96.0765 1.50051 0.48192 0
M  V30 994 C 97.3225 1.61706 1.2338 0
M  V30 995 C 97.6775 0.308488 1.89911 0
M  V30 996 O 96.9705 -0.692798 1.78636 0
M  V30 997 C 97.1645 2.72717 2.30998 0
M  V30 998 C 96.9935 4.14242 1.75024 0
M  V30 999 C 95.7635 4.80786 1.55476 0
M  V30 1000 C 97.9615 4.98846 1.25128 0
M  V30 1001 N 95.9435 6.06563 0.946311 0
M  V30 1002 C 97.3145 6.15258 0.765382 0
M  V30 1003 C 99.3695 4.84702 1.13881 0
M  V30 1004 C 98.0725 7.19079 0.178113 0
M  V30 1005 C 100.098 5.8869 0.565486 0
M  V30 1006 C 99.4605 7.04343 0.0899105 0
M  V30 1007 H 95.5595 0.645958 0.440753 0
M  V30 1008 H 98.1435 1.8713 0.537624 0
M  V30 1009 H 96.3145 2.49033 2.98055 0
M  V30 1010 H 98.0465 2.73789 2.9803 0
M  V30 1011 H 94.8015 4.37899 1.80392 0
M  V30 1012 H 95.2255 6.73767 0.660812 0
M  V30 1013 H 99.8675 3.95583 1.49244 0
M  V30 1014 H 97.5855 8.07882 -0.187749 0
M  V30 1015 H 101.171 5.79808 0.480974 0
M  V30 1016 H 100.051 7.83433 -0.346782 0
M  V30 1017 N 97.5546 -0.734337 1.39446 0
M  V30 1018 C 98.5046 -1.83949 1.34709 0
M  V30 1019 C 99.4886 -1.59279 0.227851 0
M  V30 1020 O 100.681 -1.70771 0.465438 0
M  V30 1021 C 97.8096 -3.21884 1.19356 0
M  V30 1022 C 96.8956 -3.52381 2.35984 0
M  V30 1023 N 97.2866 -3.53811 3.61457 0
M  V30 1024 C 95.5846 -3.82747 2.28956 0
M  V30 1025 C 96.2856 -3.82122 4.38586 0
M  V30 1026 N 95.2616 -3.9993 3.68181 0
M  V30 1027 H 99.0636 -1.83361 2.29687 0
M  V30 1028 H 96.5776 -0.932609 1.32952 0
M  V30 1029 H 98.5746 -4.00998 1.14046 0
M  V30 1030 H 97.2346 -3.23711 0.253295 0
M  V30 1031 H 98.2456 -3.35107 3.94872 0
M  V30 1032 H 94.9226 -3.92175 1.43194 0
M  V30 1033 H 96.3126 -3.89691 5.47349 0
M  V30 1034 N 99.0327 -1.24633 -0.964593 0
M  V30 1035 C 100.449 -1.01239 -1.2338 0
M  V30 1036 C 100.649 0.2769 -1.99588 0
M  V30 1037 O 99.7047 0.992241 -2.32187 0
M  V30 1038 C 101.018 -2.22937 -2.01791 0
M  V30 1039 C 102.566 -2.27594 -2.14872 0
M  V30 1040 C 103.041 -3.48921 -2.96678 0
M  V30 1041 N 104.532 -3.49257 -3.04259 0
M  V30 1042 C 105.267 -4.39795 -3.67924 0
M  V30 1043 N 104.763 -5.40591 -4.33281 0
M  V30 1044 N 106.556 -4.275 -3.64966 0
M  V30 1045 H 98.7067 -2.0748 -0.454502 0
M  V30 1046 H 100.97 -0.910647 -0.26349 0
M  V30 1047 H 100.676 -3.16587 -1.53184 0
M  V30 1048 H 100.55 -2.25306 -3.02518 0
M  V30 1049 H 102.937 -1.34473 -2.6268 0
M  V30 1050 H 103.018 -2.2925 -1.13482 0
M  V30 1051 H 102.662 -4.42359 -2.49562 0
M  V30 1052 H 102.592 -3.4451 -3.98272 0
M  V30 1053 H 105.083 -2.76337 -2.57771 0
M  V30 1054 H 105.396 -6.05904 -4.79687 0
M  V30 1055 H 103.741 -5.44475 -4.3194 0
M  V30 1056 H 106.932 -3.47987 -3.13086 0
M  V30 1057 H 107.105 -4.98258 -4.14298 0
M  V30 1058 N 100.511 1.16574 -1.06058 0
M  V30 1059 C 101.459 2.22941 -0.663343 0
M  V30 1060 C 102.453 1.66358 0.319593 0
M  V30 1061 O 103.659 1.7905 0.184713 0
M  V30 1062 H 100.034 0.725907 -0.196376 0
M  V30 1063 H 102.005 2.53736 -1.57037 0
M  V30 1064 C 100.754 3.47642 -0.0632808 0
M  V30 1065 H 100.077 3.91493 -0.810733 0
M  V30 1066 H 101.517 4.2363 0.177177 0
M  V30 1067 C 99.9758 3.1509 1.19248 0
M  V30 1068 O 100.506 3.30673 2.28075 0
M  V30 1069 N 98.7118 2.6924 1.09353 0
M  V30 1070 H 98.2588 2.5676 0.207912 0
M  V30 1071 H 98.2168 2.47833 1.93458 0
M  V30 1072 N 101.989 0.842826 1.3317 0
M  V30 1073 C 103.237 0.439577 1.97262 0
M  V30 1074 C 103.558 -1.00548 1.67078 0
M  V30 1075 O 102.828 -1.70098 0.971779 0
M  V30 1076 H 101.408 0.159558 0.72976 0
M  V30 1077 H 104.07 1.07665 1.62463 0
M  V30 1078 H 103.166 0.574886 3.0676 0
M  V30 1079 N 103.467 -1.45747 0.599634 0
M  V30 1080 C 104.399 -2.28628 -0.161879 0
M  V30 1081 C 105.412 -1.39494 -0.839367 0
M  V30 1082 O 106.601 -1.63941 -0.706089 0
M  V30 1083 C 103.701 -3.15014 -1.24976 0
M  V30 1084 C 102.874 -4.32378 -0.660935 0
M  V30 1085 C 101.933 -5.00033 -1.63869 0
M  V30 1086 O 100.959 -5.57085 -1.1681 0
M  V30 1087 N 102.161 -4.98589 -2.97303 0
M  V30 1088 H 104.926 -2.94624 0.549265 0
M  V30 1089 H 102.487 -1.55847 0.438565 0
M  V30 1090 H 104.479 -3.5714 -1.9035 0
M  V30 1091 H 103.049 -2.5098 -1.86354 0
M  V30 1092 H 102.269 -3.9383 0.170688 0
M  V30 1093 H 103.557 -5.08197 -0.247619 0
M  V30 1094 H 102.955 -4.53514 -3.38145 0
M  V30 1095 H 101.512 -5.44603 -3.58121 0
M  V30 1096 N 104.945 -0.338344 -1.53925 0
M  V30 1097 C 106.356 0.146651 -1.86123 0
M  V30 1098 C 106.707 1.5042 -1.2597 0
M  V30 1099 O 105.832 2.08723 -0.571294 0
M  V30 1100 C 106.427 0.272879 -3.37699 0
M  V30 1101 C 104.986 0.702103 -3.69794 0
M  V30 1102 C 104.133 -0.167304 -2.76795 0
M  V30 1103 H 107.084 -0.558123 -1.48562 0
M  V30 1104 H 107.105 1.10128 -3.64214 0
M  V30 1105 H 106.617 -0.715307 -3.81451 0
M  V30 1106 H 104.718 1.6995 -3.31584 0
M  V30 1107 H 104.831 0.495604 -4.7653 0
M  V30 1108 H 103.195 0.359527 -2.5215 0
M  V30 1109 H 103.978 -1.15253 -3.23375 0
M  V30 1110 N 106.423 1.57458 -0.0668435 0
M  V30 1111 C 107.672 1.92477 0.602947 0
M  V30 1112 C 107.985 0.948419 1.71068 0
M  V30 1113 O 109.191 1.19124 2.43971 0
M  V30 1114 C 107.647 3.41903 1.12383 0
M  V30 1115 C 107.255 4.47975 0.04737 0
M  V30 1116 C 108.999 3.85931 1.76797 0
M  V30 1117 C 106.906 5.88529 0.582022 0
M  V30 1118 H 105.836 0.718387 0.22899 0
M  V30 1119 H 108.487 1.82978 -0.138276 0
M  V30 1120 H 106.869 3.46459 1.91787 0
M  V30 1121 H 108.043 4.55029 -0.726978 0
M  V30 1122 H 106.358 4.13384 -0.500243 0
M  V30 1123 H 108.955 4.88322 2.17821 0
M  V30 1124 H 109.298 3.23029 2.62599 0
M  V30 1125 H 109.831 3.83958 1.04024 0
M  V30 1126 H 106.57 6.55065 -0.238721 0
M  V30 1127 H 106.09 5.85004 1.324 0
M  V30 1128 H 107.769 6.38258 1.05999 0
M  V30 1129 N 107.901 -0.206675 1.56239 0
M  V30 1130 C 109.129 -0.945345 1.8404 0
M  V30 1131 C 109.544 -1.77336 0.647885 0
M  V30 1132 O 108.901 -1.78425 -0.383511 0
M  V30 1133 C 108.952 -1.8509 3.10522 0
M  V30 1134 O 108.673 -1.05634 4.25174 0
M  V30 1135 C 110.174 -2.70222 3.51418 0
M  V30 1136 H 107.394 -0.276372 0.61144 0
M  V30 1137 H 109.938 -0.217417 2.03341 0
M  V30 1138 H 108.093 -2.53259 2.93153 0
M  V30 1139 H 108.507 -1.67238 4.97124 0
M  V30 1140 H 109.981 -3.29438 4.42916 0
M  V30 1141 H 110.458 -3.43358 2.73864 0
M  V30 1142 H 111.064 -2.07443 3.71278 0
M  V30 1143 N 109.379 -1.50304 -0.473955 0
M  V30 1144 C 110.604 -1.65175 -1.25427 0
M  V30 1145 C 111.029 -0.333673 -1.85117 0
M  V30 1146 O 110.387 0.702114 -1.67153 0
M  V30 1147 C 110.435 -2.74295 -2.34082 0
M  V30 1148 O 109.539 -2.35349 -3.38651 0
M  V30 1149 H 108.88 -0.551944 -0.369126 0
M  V30 1150 H 111.41 -1.96662 -0.564364 0
M  V30 1151 H 111.42 -2.97285 -2.79438 0
M  V30 1152 H 110.095 -3.69959 -1.90008 0
M  V30 1153 H 108.672 -2.22794 -2.99027 0
M  V30 1154 N 110.857 0.726932 -1.39834 0
M  V30 1155 C 112.105 1.4837 -1.37225 0
M  V30 1156 C 112.426 1.94979 0.0284857 0
M  V30 1157 O 111.696 1.69555 0.981213 0
M  V30 1158 H 110.276 0.55043 -0.505011 0
M  V30 1159 H 112.938 0.862468 -1.74778 0
M  V30 1160 H 112.034 2.36198 -2.04003 0
M  V30 1161 N 112.336 1.25143 0.95797 0
M  V30 1162 C 113.584 1.09476 1.69881 0
M  V30 1163 C 113.905 -0.365502 1.91544 0
M  V30 1164 O 113.175 -1.25985 1.50015 0
M  V30 1165 H 111.755 0.402128 0.629525 0
M  V30 1166 H 114.417 1.57214 1.15194 0
M  V30 1167 H 113.513 1.60046 2.6794 0
M  V30 1168 N 113.814 -1.1601 1.06675 0
M  V30 1169 C 115.23 -1.38622 0.790948 0
M  V30 1170 C 115.43 -1.92109 -0.607965 0
M  V30 1171 O 114.486 -2.12239 -1.36787 0
M  V30 1172 C 115.799 -2.36347 1.85905 0
M  V30 1173 C 117.347 -2.50023 1.88301 0
M  V30 1174 C 117.822 -3.51033 2.94176 0
M  V30 1175 N 119.313 -3.58563 2.93235 0
M  V30 1176 C 120.048 -4.36521 3.71803 0
M  V30 1177 N 119.544 -5.17869 4.602 0
M  V30 1178 N 121.337 -4.31541 3.60178 0
M  V30 1179 H 113.488 -0.796294 1.96908 0
M  V30 1180 H 115.751 -0.412597 0.853503 0
M  V30 1181 H 115.457 -2.04147 2.86386 0
M  V30 1182 H 115.331 -3.36042 1.71334 0
M  V30 1183 H 117.718 -2.81524 0.884769 0
M  V30 1184 H 117.799 -1.5035 2.06951 0
M  V30 1185 H 117.443 -3.20268 3.94196 0
M  V30 1186 H 117.373 -4.50445 2.72776 0
M  V30 1187 H 119.864 -3.00496 2.29152 0
M  V30 1188 H 120.177 -5.74578 5.16797 0
M  V30 1189 H 118.522 -5.17199 4.64253 0
M  V30 1190 H 121.713 -3.67051 2.90502 0
M  V30 1191 H 121.886 -4.9205 4.21653 0
M  V30 1192 N 115.292 -0.849877 -1.32721 0
M  V30 1193 C 116.539 -0.450923 -1.97416 0
M  V30 1194 C 116.867 0.992376 -1.67279 0
M  V30 1195 O 116.122 1.71048 -0.950845 0
M  V30 1196 C 116.421 -0.631272 -3.51781 0
M  V30 1197 C 116.087 -2.04432 -4.01894 0
M  V30 1198 C 114.749 -2.4308 -4.1529 0
M  V30 1199 C 117.101 -2.96679 -4.28522 0
M  V30 1200 C 114.429 -3.73257 -4.52654 0
M  V30 1201 C 116.781 -4.26349 -4.67343 0
M  V30 1202 C 115.445 -4.64939 -4.78945 0
M  V30 1203 H 114.715 -0.165004 -0.722395 0
M  V30 1204 H 117.362 -1.07901 -1.58207 0
M  V30 1205 H 115.667 0.0800767 -3.91718 0
M  V30 1206 H 117.364 -0.302709 -3.99856 0
M  V30 1207 H 113.954 -1.73419 -3.91949 0
M  V30 1208 H 118.138 -2.68054 -4.17685 0
M  V30 1209 H 113.394 -4.02946 -4.59831 0
M  V30 1210 H 117.568 -4.97895 -4.86902 0
M  V30 1211 H 115.195 -5.65855 -5.07654 0
M  V30 1212 N 116.77 1.45427 -0.607355 0
M  V30 1213 C 117.7 2.3329 0.0989352 0
M  V30 1214 C 118.681 1.46816 0.859007 0
M  V30 1215 O 119.866 1.75588 0.829604 0
M  V30 1216 C 116.996 3.29518 1.09705 0
M  V30 1217 C 115.95 4.25626 0.450206 0
M  V30 1218 C 115.276 5.11542 1.55655 0
M  V30 1219 C 116.576 5.18505 -0.628455 0
M  V30 1220 H 118.27 2.92595 -0.634716 0
M  V30 1221 H 115.816 1.40696 -0.306681 0
M  V30 1222 H 117.769 3.89855 1.59971 0
M  V30 1223 H 116.493 2.68372 1.86129 0
M  V30 1224 H 115.152 3.66586 -0.0315886 0
M  V30 1225 H 114.8 4.46765 2.31107 0
M  V30 1226 H 114.5 5.76647 1.12925 0
M  V30 1227 H 116.024 5.74748 2.06148 0
M  V30 1228 H 117.438 5.72916 -0.209877 0
M  V30 1229 H 115.835 5.92085 -0.977489 0
M  V30 1230 H 116.905 4.60948 -1.50514 0
M  V30 1231 N 118.248 0.346503 1.53744 0
M  V30 1232 C 119.178 -0.501193 2.28058 0
M  V30 1233 C 120.159 -1.10014 1.29734 0
M  V30 1234 O 121.344 -1.12097 1.58581 0
M  V30 1235 C 118.474 -1.65078 3.05559 0
M  V30 1236 C 117.428 -1.18003 4.11411 0
M  V30 1237 C 116.754 -2.41837 4.76884 0
M  V30 1238 C 118.054 -0.278394 5.21558 0
M  V30 1239 H 119.748 0.11875 2.99164 0
M  V30 1240 H 117.294 0.0585531 1.43881 0
M  V30 1241 H 119.247 -2.25028 3.56287 0
M  V30 1242 H 117.971 -2.29767 2.32109 0
M  V30 1243 H 116.63 -0.603331 3.61601 0
M  V30 1244 H 116.278 -3.0494 4.00026 0
M  V30 1245 H 115.978 -2.1102 5.48402 0
M  V30 1246 H 117.502 -3.02508 5.30397 0
M  V30 1247 H 118.916 -0.784823 5.67903 0
M  V30 1248 H 117.313 -0.0619707 6.00068 0
M  V30 1249 H 118.383 0.684677 4.80042 0
M  V30 1250 N 119.726 -1.57421 0.075193 0
M  V30 1251 C 121.003 -1.85029 -0.634329 0
M  V30 1252 C 121.383 -0.968305 -1.87582 0
M  V30 1253 O 120.731 -0.0354749 -2.28472 0
M  V30 1254 C 120.941 -3.35286 -0.968742 0
M  V30 1255 C 122.289 -4.02875 -1.34077 0
M  V30 1256 O 123.313 -3.40051 -1.06037 0
M  V30 1257 O 122.172 -5.13691 -1.86506 0
M  V30 1258 H 119.266 -0.7645 -0.315387 0
M  V30 1259 H 121.812 -1.69366 0.106382 0
M  V30 1260 H 120.584 -3.91203 -0.0871376 0
M  V30 1261 H 120.207 -3.56223 -1.7661 0
M  V30 1262 N 121.204 0.198386 -1.56346 0
M  V30 1263 C 122.444 0.92609 -1.82217 0
M  V30 1264 C 122.808 1.80584 -0.652195 0
M  V30 1265 O 124.009 2.56907 -0.790716 0
M  V30 1266 C 122.28 1.72354 -3.13096 0
M  V30 1267 S 123.839 2.50371 -3.6036 0
M  V30 1268 H 120.657 0.310677 -0.639532 0
M  V30 1269 H 123.259 0.189755 -1.94577 0
M  V30 1270 H 121.963 1.0678 -3.96265 0
M  V30 1271 H 121.494 2.50175 -3.03605 0
M  V30 1272 H 123.509 3.74488 -3.25535 0
M  V30 1273 N 122.682 1.50554 0.465978 0
M  V30 1274 C 123.93 1.61479 1.21528 0
M  V30 1275 C 124.251 0.319596 1.92363 0
M  V30 1276 O 123.521 -0.663194 1.84333 0
M  V30 1277 H 122.101 0.595055 0.451573 0
M  V30 1278 H 124.763 1.87355 0.53704 0
M  V30 1279 H 123.859 2.42846 1.96042 0
M  V30 1280 N 124.16 -0.719506 1.40217 0
M  V30 1281 C 125.409 -1.47486 1.37589 0
M  V30 1282 C 125.722 -1.9559 -0.0201568 0
M  V30 1283 O 126.928 -2.70973 -0.169049 0
M  V30 1284 C 125.384 -2.66575 2.41796 0
M  V30 1285 C 124.992 -2.25358 3.87192 0
M  V30 1286 C 126.736 -3.4433 2.48269 0
M  V30 1287 C 124.643 -3.41262 4.83005 0
M  V30 1288 H 123.573 -0.553901 0.511576 0
M  V30 1289 H 126.224 -0.783427 1.65936 0
M  V30 1290 H 124.606 -3.3787 2.06543 0
M  V30 1291 H 125.78 -1.61509 4.31569 0
M  V30 1292 H 124.095 -1.60657 3.84159 0
M  V30 1293 H 126.692 -4.30569 3.17041 0
M  V30 1294 H 127.035 -3.87872 1.51198 0
M  V30 1295 H 127.568 -2.80076 2.82493 0
M  V30 1296 H 124.307 -3.02755 5.81394 0
M  V30 1297 H 123.827 -4.0404 4.43297 0
M  V30 1298 H 125.506 -4.07383 5.02641 0
M  V30 1299 N 125.638 -1.25649 -0.95132 0
M  V30 1300 C 127.054 -1.02542 -1.223 0
M  V30 1301 C 127.254 0.255715 -1.99871 0
M  V30 1302 O 126.31 0.967558 -2.33226 0
M  V30 1303 C 127.623 -2.25065 -1.99415 0
M  V30 1304 C 129.171 -2.29861 -2.12446 0
M  V30 1305 C 129.646 -3.52048 -2.92961 0
M  V30 1306 N 131.137 -3.52465 -3.00538 0
M  V30 1307 C 131.872 -4.43672 -3.63239 0
M  V30 1308 N 131.368 -5.45157 -4.27523 0
M  V30 1309 N 133.161 -4.31346 -3.60412 0
M  V30 1310 H 125.312 -2.07951 -0.432471 0
M  V30 1311 H 127.575 -0.91339 -0.253816 0
M  V30 1312 H 127.281 -3.18194 -1.49817 0
M  V30 1313 H 127.155 -2.28502 -3.00111 0
M  V30 1314 H 129.542 -1.37252 -2.61239 0
M  V30 1315 H 129.623 -2.3044 -1.11044 0
M  V30 1316 H 129.267 -4.44981 -2.44856 0
M  V30 1317 H 129.197 -3.48715 -3.94596 0
M  V30 1318 H 131.688 -2.79056 -2.54826 0
M  V30 1319 H 132.001 -6.10958 -4.73234 0
M  V30 1320 H 130.346 -5.49025 -4.26141 0
M  V30 1321 H 133.537 -3.51288 -3.09377 0
M  V30 1322 H 133.71 -5.02624 -4.0899 0
M  V30 1323 N 127.117 1.15442 -1.07289 0
M  V30 1324 C 128.365 1.85845 -0.794096 0
M  V30 1325 C 128.686 1.82692 0.681809 0
M  V30 1326 O 127.956 1.26741 1.49377 0
M  V30 1327 H 126.536 0.688089 -0.290763 0
M  V30 1328 H 129.198 1.39947 -1.3565 0
M  V30 1329 H 128.294 2.91001 -1.12804 0
M  V30 1330 N 128.595 0.856903 1.32268 0
M  V30 1331 C 129.823 0.475439 2.01363 0
M  V30 1332 C 130.238 -0.928486 1.64392 0
M  V30 1333 O 129.595 -1.60624 0.866387 0
M  V30 1334 C 129.646 0.607545 3.56358 0
M  V30 1335 O 129.367 1.95617 3.92002 0
M  V30 1336 C 130.868 0.225382 4.42727 0
M  V30 1337 H 128.088 0.186636 0.644521 0
M  V30 1338 H 130.632 1.15446 1.68797 0
M  V30 1339 H 128.787 -0.0237719 3.87393 0
M  V30 1340 H 129.201 1.95455 4.86721 0
M  V30 1341 H 130.675 0.368813 5.50767 0
M  V30 1342 H 131.152 -0.834369 4.31202 0
M  V30 1343 H 131.758 0.831864 4.17085 0
M  V30 1344 N 130.073 -1.45103 0.615059 0
M  V30 1345 C 131.32 -2.02183 0.113179 0
M  V30 1346 C 131.648 -1.48249 -1.25906 0
M  V30 1347 O 130.903 -0.650265 -1.84581 0
M  V30 1348 C 131.202 -3.57386 0.0318797 0
M  V30 1349 C 130.868 -4.30505 1.34077 0
M  V30 1350 C 129.53 -4.50197 1.69929 0
M  V30 1351 C 131.882 -4.72238 2.20546 0
M  V30 1352 C 129.21 -5.08881 2.91988 0
M  V30 1353 C 131.562 -5.32272 3.41861 0
M  V30 1354 C 130.226 -5.50187 3.77956 0
M  V30 1355 H 129.496 -0.739842 0.0414151 0
M  V30 1356 H 132.143 -1.74073 0.798168 0
M  V30 1357 H 130.448 -3.84817 -0.736409 0
M  V30 1358 H 132.145 -3.99264 -0.372712 0
M  V30 1359 H 128.735 -4.15496 1.05173 0
M  V30 1360 H 132.919 -4.56751 1.94146 0
M  V30 1361 H 128.175 -5.20939 3.2005 0
M  V30 1362 H 132.349 -5.63563 4.09109 0
M  V30 1363 H 129.976 -5.95427 4.72622 0
M  V30 1364 N 131.551 -0.354651 -1.53558 0
M  V30 1365 C 132.776 0.242153 -2.05981 0
M  V30 1366 C 133.201 1.42553 -1.2272 0
M  V30 1367 O 132.559 1.79656 -0.243604 0
M  V30 1368 C 132.607 0.624367 -3.55154 0
M  V30 1369 O 131.711 1.72301 -3.74681 0
M  V30 1370 H 131.052 0.0378432 -0.662921 0
M  V30 1371 H 133.582 -0.512087 -1.98088 0
M  V30 1372 H 133.592 0.898433 -3.97985 0
M  V30 1373 H 132.267 -0.240989 -4.15201 0
M  V30 1374 H 130.844 1.44535 -3.4375 0
M  V30 1375 N 133.029 1.57378 -0.0835403 0
M  V30 1376 C 133.959 2.1641 0.87686 0
M  V30 1377 C 134.94 1.09429 1.30228 0
M  V30 1378 O 136.125 1.37516 1.37124 0
M  V30 1379 C 133.255 2.73517 2.14022 0
M  V30 1380 C 132.209 3.85769 1.85381 0
M  V30 1381 C 131.535 4.29529 3.18448 0
M  V30 1382 C 132.835 5.09486 1.14984 0
M  V30 1383 H 134.529 2.96914 0.385059 0
M  V30 1384 H 132.075 1.42823 0.18377 0
M  V30 1385 H 134.028 3.13463 2.81636 0
M  V30 1386 H 132.752 1.90252 2.65465 0
M  V30 1387 H 131.411 3.46345 1.20169 0
M  V30 1388 H 131.059 3.43169 3.67755 0
M  V30 1389 H 130.759 5.05204 3.00071 0
M  V30 1390 H 132.283 4.72099 3.8724 0
M  V30 1391 H 133.697 5.46674 1.72687 0
M  V30 1392 H 132.094 5.90515 1.06826 0
M  V30 1393 H 133.164 4.84724 0.130749 0
M  V30 1394 N 134.507 -0.190092 1.56449 0
M  V30 1395 C 135.753 -0.911052 1.81184 0
M  V30 1396 C 136.086 -1.82699 0.658396 0
M  V30 1397 O 135.361 -1.91491 -0.340775 0
M  V30 1398 C 135.644 -1.72297 3.16205 0
M  V30 1399 C 135.497 -0.831419 4.42049 0
M  V30 1400 C 136.816 -2.69454 3.47969 0
M  V30 1401 H 133.935 -0.32977 0.659106 0
M  V30 1402 H 136.577 -0.178169 1.89163 0
M  V30 1403 H 134.727 -2.34778 3.09534 0
M  V30 1404 H 136.399 -0.220929 4.60771 0
M  V30 1405 H 134.642 -0.138406 4.33579 0
M  V30 1406 H 135.313 -1.43461 5.33032 0
M  V30 1407 H 137.789 -2.17104 3.54972 0
M  V30 1408 H 136.665 -3.23342 4.43555 0
M  V30 1409 H 136.926 -3.48744 2.71717 0
M  V30 1410 N 135.985 -1.50799 -0.457987 0
M  V30 1411 C 137.234 -1.6168 -1.20593 0
M  V30 1412 C 137.547 -0.32888 -1.92815 0
M  V30 1413 O 138.753 -0.316773 -2.69646 0
M  V30 1414 C 137.209 -2.8545 -2.19195 0
M  V30 1415 C 136.817 -4.21168 -1.52715 0
M  V30 1416 C 138.561 -3.05681 -2.94549 0
M  V30 1417 C 136.468 -5.3611 -2.4968 0
M  V30 1418 H 135.398 -0.602134 -0.453818 0
M  V30 1419 H 138.049 -1.77245 -0.475031 0
M  V30 1420 H 136.431 -2.63472 -2.95632 0
M  V30 1421 H 137.605 -4.53449 -0.819775 0
M  V30 1422 H 135.92 -4.06648 -0.895922 0
M  V30 1423 H 138.517 -3.88727 -3.67145 0
M  V30 1424 H 138.86 -2.17929 -3.54701 0
M  V30 1425 H 139.393 -3.27901 -2.25223 0
M  V30 1426 H 136.132 -6.26057 -1.94249 0
M  V30 1427 H 135.652 -5.0823 -3.18532 0
M  V30 1428 H 137.331 -5.6722 -3.11241 0
M  V30 1429 N 137.463 0.71206 -1.40597 0
M  V30 1430 C 138.413 1.81783 -1.37619 0
M  V30 1431 C 139.397 1.58896 -0.253162 0
M  V30 1432 O 140.589 1.70009 -0.492547 0
M  V30 1433 C 137.718 3.19944 -1.24462 0
M  V30 1434 C 136.804 3.48582 -2.4156 0
M  V30 1435 N 137.195 3.48016 -3.67041 0
M  V30 1436 C 135.493 3.79056 -2.35016 0
M  V30 1437 C 136.194 3.75096 -4.44609 0
M  V30 1438 N 135.17 3.94022 -3.74497 0
M  V30 1439 H 138.972 1.79683 -2.32575 0
M  V30 1440 H 136.486 0.91134 -1.34419 0
M  V30 1441 H 138.483 3.99133 -1.20411 0
M  V30 1442 H 137.143 3.23267 -0.304762 0
M  V30 1443 H 138.154 3.28782 -4.00153 0
M  V30 1444 H 134.831 3.89848 -1.49415 0
M  V30 1445 H 136.221 3.80934 -5.53479 0
M  V30 1446 N 138.941 1.26152 0.944643 0
M  V30 1447 C 139.904 1.07474 2.0244 0
M  V30 1448 C 140.904 0.0242064 1.60782 0
M  V30 1449 O 142.094 0.267302 1.72137 0
M  V30 1450 C 139.226 0.633956 3.34953 0
M  V30 1451 H 140.419 2.03336 2.20442 0
M  V30 1452 H 137.972 1.087 1.12312 0
M  V30 1453 H 138.707 -0.326811 3.22649 0
M  V30 1454 H 138.492 1.39247 3.66542 0
M  V30 1455 H 139.982 0.52501 4.14287 0
M  V30 1456 N 140.419 -1.14872 1.07899 0
M  V30 1457 C 141.665 -1.86064 0.806725 0
M  V30 1458 C 141.998 -1.82434 -0.665706 0
M  V30 1459 O 141.273 -1.25138 -1.48899 0
M  V30 1460 C 141.556 -3.34929 1.32267 0
M  V30 1461 C 141.409 -3.47161 2.86006 0
M  V30 1462 C 142.728 -4.29863 0.943717 0
M  V30 1463 H 139.847 -0.675591 0.294526 0
M  V30 1464 H 142.489 -1.34925 1.33773 0
M  V30 1465 H 140.639 -3.78611 0.870974 0
M  V30 1466 H 142.311 -3.12302 3.39507 0
M  V30 1467 H 140.554 -2.88539 3.23925 0
M  V30 1468 H 141.225 -4.51777 3.17177 0
M  V30 1469 H 143.701 -3.9417 1.33302 0
M  V30 1470 H 142.577 -5.32494 1.33198 0
M  V30 1471 H 142.838 -4.41846 -0.149796 0
M  V30 1472 N 141.898 -0.863906 -1.31812 0
M  V30 1473 C 142.848 -0.286898 -2.26188 0
M  V30 1474 C 143.832 0.572577 -1.50367 0
M  V30 1475 O 145.024 0.420447 -1.71934 0
M  V30 1476 C 142.153 0.515849 -3.39402 0
M  V30 1477 C 141.239 -0.356531 -4.22599 0
M  V30 1478 N 141.63 -1.44716 -4.84656 0
M  V30 1479 C 139.928 -0.147898 -4.45755 0
M  V30 1480 C 140.629 -1.98462 -5.46798 0
M  V30 1481 N 139.605 -1.28247 -5.28255 0
M  V30 1482 H 143.407 -1.12055 -2.717 0
M  V30 1483 H 140.921 -0.711012 -1.46008 0
M  V30 1484 H 142.918 0.945701 -4.06032 0
M  V30 1485 H 141.578 1.34718 -2.95434 0
M  V30 1486 H 142.589 -1.83008 -4.84488 0
M  V30 1487 H 139.266 0.647973 -4.12441 0
M  V30 1488 H 140.656 -2.89932 -6.06126 0
M  V30 1489 N 143.376 1.44774 -0.622745 0
M  V30 1490 C 144.286 2.34433 0.0886031 0
M  V30 1491 C 145.302 1.52131 0.844529 0
M  V30 1492 O 146.478 1.84886 0.798691 0
M  V30 1493 C 143.543 3.29986 1.0635 0
M  V30 1494 C 142.604 4.28195 0.307873 0
M  V30 1495 C 141.837 5.19183 1.23633 0
M  V30 1496 O 142.06 5.13918 2.47476 0
M  V30 1497 O 140.994 5.97515 0.725189 0
M  V30 1498 H 144.82 2.96693 -0.648599 0
M  V30 1499 H 142.405 1.44408 -0.382957 0
M  V30 1500 H 144.287 3.88825 1.6246 0
M  V30 1501 H 142.962 2.70269 1.78146 0
M  V30 1502 H 141.869 3.72927 -0.296064 0
M  V30 1503 H 143.202 4.90808 -0.3699 0
M  V30 1504 N 144.854 0.36279 1.53368 0
M  V30 1505 C 145.764 -0.492994 2.29362 0
M  V30 1506 C 146.78 -1.09507 1.35219 0
M  V30 1507 O 147.956 -1.10662 1.68273 0
M  V30 1508 C 145.021 -1.61855 3.066 0
M  V30 1509 C 144.082 -1.04429 4.16405 0
M  V30 1510 C 143.315 -2.11621 4.89951 0
M  V30 1511 O 143.538 -3.32684 4.63333 0
M  V30 1512 O 142.472 -1.74835 5.75948 0
M  V30 1513 H 146.298 0.125331 3.03441 0
M  V30 1514 H 143.883 0.127253 1.48857 0
M  V30 1515 H 145.765 -2.27302 3.54841 0
M  V30 1516 H 144.44 -2.22233 2.3536 0
M  V30 1517 H 143.347 -0.353819 3.72423 0
M  V30 1518 H 144.68 -0.485113 4.89804 0
M  V30 1519 N 146.332 -1.57332 0.0918853 0
M  V30 1520 C 147.609 -1.85691 -0.614668 0
M  V30 1521 C 147.989 -0.988146 -1.86545 0
M  V30 1522 O 147.337 -0.0597055 -2.28422 0
M  V30 1523 C 147.547 -3.36294 -0.933126 0
M  V30 1524 C 148.895 -4.04275 -1.29796 0
M  V30 1525 O 149.919 -3.41157 -1.02424 0
M  V30 1526 O 148.778 -5.1564 -1.81047 0
M  V30 1527 H 145.872 -0.767802 -0.307261 0
M  V30 1528 H 148.418 -1.69244 0.12434 0
M  V30 1529 H 147.19 -3.91273 -0.0456404 0
M  V30 1530 H 146.813 -3.58076 -1.72822 0
M  V30 1531 N 147.81 0.181792 -1.56548 0
M  V30 1532 C 149.226 0.53316 -1.50431 0
M  V30 1533 C 149.426 1.85184 -0.794297 0
M  V30 1534 O 148.482 2.50058 -0.350318 0
M  V30 1535 C 149.795 0.575597 -2.9514 0
M  V30 1536 C 151.343 0.663519 -3.05886 0
M  V30 1537 C 151.818 0.736946 -4.52032 0
M  V30 1538 N 153.309 0.800118 -4.56237 0
M  V30 1539 C 154.044 0.877327 -5.66649 0
M  V30 1540 N 153.54 0.916016 -6.86718 0
M  V30 1541 N 155.333 0.915542 -5.54594 0
M  V30 1542 H 147.484 -0.683025 -2.01118 0
M  V30 1543 H 149.747 -0.244988 -0.915797 0
M  V30 1544 H 149.453 -0.324482 -3.502 0
M  V30 1545 H 149.327 1.42572 -3.49218 0
M  V30 1546 H 151.714 1.55403 -2.50867 0
M  V30 1547 H 151.795 -0.21307 -2.54911 0
M  V30 1548 H 151.439 -0.149262 -5.07681 0
M  V30 1549 H 151.369 1.62953 -5.00753 0
M  V30 1550 H 153.86 0.778926 -3.69785 0
M  V30 1551 H 154.173 0.975813 -7.66614 0
M  V30 1552 H 152.518 0.884469 -6.89349 0
M  V30 1553 H 155.709 0.882245 -4.59711 0
M  V30 1554 H 155.882 0.972253 -6.40665 0
M  V30 1555 N 149.288 1.51039 0.449983 0
M  V30 1556 C 150.536 1.62759 1.19808 0
M  V30 1557 C 150.857 0.339981 1.92013 0
M  V30 1558 O 150.127 -0.643606 1.85026 0
M  V30 1559 H 148.707 0.599811 0.445237 0
M  V30 1560 H 151.369 1.87914 0.517138 0
M  V30 1561 H 150.465 2.44911 1.93455 0
M  V30 1562 N 150.766 -0.704594 1.40972 0
M  V30 1563 C 151.713 -1.81862 1.42109 0
M  V30 1564 C 152.683 -1.63781 0.276593 0
M  V30 1565 O 153.868 -1.84759 0.4763 0
M  V30 1566 C 151.008 -3.19669 1.30022 0
M  V30 1567 C 150.121 -3.49246 2.54267 0
M  V30 1568 C 149.256 -4.76618 2.3454 0
M  V30 1569 C 148.295 -4.99133 3.54306 0
M  V30 1570 N 147.432 -6.17726 3.33706 0
M  V30 1571 H 152.272 -1.80226 2.37324 0
M  V30 1572 H 149.809 -0.880238 1.17857 0
M  V30 1573 H 151.767 -3.99263 1.21018 0
M  V30 1574 H 150.397 -3.20506 0.384192 0
M  V30 1575 H 149.449 -2.64125 2.73756 0
M  V30 1576 H 150.761 -3.61788 3.43381 0
M  V30 1577 H 149.915 -5.64249 2.22952 0
M  V30 1578 H 148.654 -4.66305 1.42867 0
M  V30 1579 H 147.659 -4.09953 3.66359 0
M  V30 1580 H 148.884 -5.11311 4.4692 0
M  V30 1581 H 146.83 -6.08642 2.44725 0
M  V30 1582 H 146.747 -6.30995 4.16391 0
M  V30 1583 H 148.015 -7.08115 3.25873 0
M  V30 1584 N 152.244 -1.26651 -0.937939 0
M  V30 1585 C 153.474 -1.15006 -1.71631 0
M  V30 1586 C 153.882 0.297026 -1.86854 0
M  V30 1587 O 153.225 1.21493 -1.37786 0
M  V30 1588 C 153.287 -1.74984 -3.14039 0
M  V30 1589 C 152.951 -3.24103 -3.2219 0
M  V30 1590 C 153.948 -4.20877 -3.05219 0
M  V30 1591 C 151.633 -3.64625 -3.45476 0
M  V30 1592 C 153.627 -5.56151 -3.11408 0
M  V30 1593 C 151.314 -5.00032 -3.513 0
M  V30 1594 C 152.312 -5.95604 -3.34282 0
M  V30 1595 O 152 -7.28545 -3.3982 0
M  V30 1596 H 151.732 -0.401183 -0.544085 0
M  V30 1597 H 154.286 -1.67832 -1.18413 0
M  V30 1598 H 152.516 -1.16624 -3.68695 0
M  V30 1599 H 154.205 -1.58199 -3.73802 0
M  V30 1600 H 154.971 -3.90908 -2.87081 0
M  V30 1601 H 150.85 -2.90718 -3.57777 0
M  V30 1602 H 154.394 -6.30727 -2.98043 0
M  V30 1603 H 150.291 -5.29659 -3.68959 0
M  V30 1604 H 151.059 -7.3686 -3.56343 0
M  V30 1605 N 153.722 1.14298 -1.08507 0
M  V30 1606 C 154.95 1.89219 -0.836876 0
M  V30 1607 C 155.365 1.78638 0.611054 0
M  V30 1608 O 154.722 1.14643 1.41998 0
M  V30 1609 C 154.773 3.39158 -1.25116 0
M  V30 1610 O 154.494 3.49449 -2.64229 0
M  V30 1611 C 155.995 4.31073 -1.03398 0
M  V30 1612 H 153.215 0.599328 -0.301739 0
M  V30 1613 H 155.759 1.44746 -1.44461 0
M  V30 1614 H 153.914 3.81251 -0.687514 0
M  V30 1615 H 154.328 4.42589 -2.81452 0
M  V30 1616 H 155.802 5.34646 -1.37323 0
M  V30 1617 H 156.279 4.3919 0.0289259 0
M  V30 1618 H 156.885 3.94738 -1.58311 0
M  V30 1619 N 155.201 0.870884 1.31352 0
M  V30 1620 C 156.441 0.488783 1.9847 0
M  V30 1621 C 156.805 -0.941536 1.67329 0
M  V30 1622 O 158.006 -1.42903 2.27667 0
M  V30 1623 C 156.277 0.739688 3.49662 0
M  V30 1624 S 157.836 0.457582 4.36408 0
M  V30 1625 H 154.654 0.18242 0.6872 0
M  V30 1626 H 157.256 1.12711 1.59739 0
M  V30 1627 H 155.96 1.77944 3.69816 0
M  V30 1628 H 155.491 0.0883905 3.93301 0
M  V30 1629 H 157.506 -0.709752 4.91098 0
M  V30 1630 N 156.679 -1.44442 0.630414 0
M  V30 1631 C 157.589 -2.34476 -0.0761693 0
M  V30 1632 C 158.605 -1.52576 -0.836449 0
M  V30 1633 O 159.781 -1.85307 -0.788874 0
M  V30 1634 C 156.846 -3.30545 -1.04599 0
M  V30 1635 C 155.907 -4.28352 -0.28516 0
M  V30 1636 C 155.14 -5.19831 -1.20878 0
M  V30 1637 O 155.363 -5.15223 -2.44747 0
M  V30 1638 O 154.297 -5.97892 -0.693491 0
M  V30 1639 H 158.123 -2.96345 0.664324 0
M  V30 1640 H 155.708 -1.44203 0.39061 0
M  V30 1641 H 157.59 -3.89681 -1.60396 0
M  V30 1642 H 156.265 -2.7121 -1.76711 0
M  V30 1643 H 155.172 -3.72764 0.315837 0
M  V30 1644 H 156.505 -4.90605 0.395924 0
M  V30 1645 N 158.157 -0.370918 -1.53173 0
M  V30 1646 C 159.12 0.460778 -2.24521 0
M  V30 1647 C 160.12 1.00536 -1.25496 0
M  V30 1648 O 161.31 0.890266 -1.49733 0
M  V30 1649 C 158.442 1.64457 -2.98608 0
M  V30 1650 H 159.635 -0.163613 -2.99453 0
M  V30 1651 H 157.188 -0.122699 -1.55818 0
M  V30 1652 H 157.923 2.30691 -2.2793 0
M  V30 1653 H 157.708 1.26099 -3.7127 0
M  V30 1654 H 159.198 2.23384 -3.5283 0
M  V30 1655 N 159.635 1.57281 -0.100228 0
M  V30 1656 C 160.863 1.98879 0.570509 0
M  V30 1657 C 161.278 0.979476 1.61405 0
M  V30 1658 O 160.635 -0.0302288 1.82475 0
M  V30 1659 C 160.686 3.4052 1.2136 0
M  V30 1660 O 160.407 4.37588 0.211786 0
M  V30 1661 C 161.908 3.97149 1.96945 0
M  V30 1662 H 159.128 0.653428 0.152555 0
M  V30 1663 H 161.672 2.03697 -0.18103 0
M  V30 1664 H 159.827 3.367 1.91603 0
M  V30 1665 H 160.241 5.20118 0.676607 0
M  V30 1666 H 161.715 4.98393 2.37294 0
M  V30 1667 H 162.192 3.3525 2.83733 0
M  V30 1668 H 162.798 4.04458 1.31506 0
M  V30 1669 N 161.113 -0.173488 1.56642 0
M  V30 1670 C 162.061 -1.23417 1.97157 0
M  V30 1671 C 163.055 -1.45946 0.860013 0
M  V30 1672 O 164.261 -1.46551 1.04512 0
M  V30 1673 H 160.636 -0.414818 0.62724 0
M  V30 1674 H 162.607 -0.865582 2.8557 0
M  V30 1675 C 161.356 -2.5665 2.34576 0
M  V30 1676 H 160.679 -2.40137 3.19647 0
M  V30 1677 H 162.119 -3.2956 2.6677 0
M  V30 1678 C 160.578 -3.15245 1.18836 0
M  V30 1679 O 161.108 -3.98883 0.474869 0
M  V30 1680 N 159.314 -2.74303 0.959497 0
M  V30 1681 H 158.861 -2.0639 1.54146 0
M  V30 1682 H 158.819 -3.13844 0.186932 0
M  V30 1683 N 162.591 -1.51276 -0.441967 0
M  V30 1684 C 163.839 -1.63392 -1.18943 0
M  V30 1685 C 164.16 -0.350159 -1.9183 0
M  V30 1686 O 163.43 0.633784 -1.85364 0
M  V30 1687 H 162.01 -0.602164 -0.442049 0
M  V30 1688 H 164.672 -1.88186 -0.507165 0
M  V30 1689 H 163.768 -2.45934 -1.92154 0
M  V30 1690 N 164.069 0.697108 -1.41344 0
M  V30 1691 C 165.294 1.49096 -1.44171 0
M  V30 1692 C 165.719 1.88038 -0.0481568 0
M  V30 1693 O 165.077 1.54525 0.948243 0
M  V30 1694 C 165.125 2.73088 -2.3549 0
M  V30 1695 O 164.229 3.70514 -1.81088 0
M  V30 1696 H 163.57 0.448801 -0.489361 0
M  V30 1697 H 166.1 0.856992 -1.85787 0
M  V30 1698 H 166.11 3.21413 -2.51312 0
M  V30 1699 H 164.785 2.44081 -3.36745 0
M  V30 1700 H 163.362 3.29441 -1.74708 0
M  V30 1701 N 165.547 1.27147 0.931209 0
M  V30 1702 C 166.795 1.13055 1.6752 0
M  V30 1703 C 167.116 -0.324791 1.92276 0
M  V30 1704 O 166.386 -1.22775 1.52654 0
M  V30 1705 H 164.966 0.415391 0.620854 0
M  V30 1706 H 167.628 1.59623 1.11833 0
M  V30 1707 H 166.724 1.65694 2.64485 0
M  V30 1708 N 167.025 -1.13721 1.09112 0
M  V30 1709 C 167.988 -2.17222 0.731241 0
M  V30 1710 C 168.988 -1.59035 -0.237566 0
M  V30 1711 O 170.178 -1.74192 -0.0161704 0
M  V30 1712 C 167.31 -3.40804 0.0808443 0
M  V30 1713 H 168.503 -2.50573 1.64783 0
M  V30 1714 H 166.056 -1.28493 0.889897 0
M  V30 1715 H 166.791 -3.1304 -0.847127 0
M  V30 1716 H 166.576 -3.84306 0.777896 0
M  V30 1717 H 168.066 -4.1731 -0.155657 0
M  V30 1718 N 168.503 -0.877838 -1.30888 0
M  V30 1719 C 169.919 -0.570844 -1.49042 0
M  V30 1720 C 170.119 0.893159 -1.80624 0
M  V30 1721 O 169.175 1.67485 -1.88958 0
M  V30 1722 C 170.488 -1.47784 -2.61878 0
M  V30 1723 C 172.036 -1.48071 -2.75761 0
M  V30 1724 C 172.511 -2.37347 -3.91702 0
M  V30 1725 N 174.002 -2.35271 -3.99001 0
M  V30 1726 C 174.737 -3.01063 -4.88004 0
M  V30 1727 N 174.233 -3.76055 -5.81854 0
M  V30 1728 N 176.026 -2.90332 -4.81315 0
M  V30 1729 H 168.177 -1.82502 -1.0866 0
M  V30 1730 H 170.44 -0.780797 -0.537644 0
M  V30 1731 H 170.146 -2.51993 -2.45341 0
M  V30 1732 H 170.02 -1.18215 -3.58197 0
M  V30 1733 H 172.407 -0.446166 -2.91708 0
M  V30 1734 H 172.488 -1.81668 -1.80085 0
M  V30 1735 H 172.132 -3.40883 -3.76512 0
M  V30 1736 H 172.062 -2.01071 -4.86701 0
M  V30 1737 H 174.553 -1.80768 -3.3186 0
M  V30 1738 H 174.866 -4.23366 -6.46514 0
M  V30 1739 H 173.211 -3.80163 -5.81808 0
M  V30 1740 H 176.402 -2.31278 -4.06974 0
M  V30 1741 H 176.575 -3.41885 -5.50471 0
M  V30 1742 N 169.982 1.44106 -0.638065 0
M  V30 1743 C 170.914 2.28976 0.101205 0
M  V30 1744 C 171.927 1.4167 0.802088 0
M  V30 1745 O 173.116 1.65755 0.662375 0
M  V30 1746 C 170.216 3.18217 1.16581 0
M  V30 1747 C 169.389 4.33978 0.546066 0
M  V30 1748 C 168.448 5.04202 1.50554 0
M  V30 1749 O 167.474 5.59986 1.01999 0
M  V30 1750 N 168.676 5.06296 2.8398 0
M  V30 1751 H 171.441 2.93064 -0.627186 0
M  V30 1752 H 169.002 1.54629 -0.479731 0
M  V30 1753 H 170.994 3.62061 1.80815 0
M  V30 1754 H 169.564 2.55833 1.79634 0
M  V30 1755 H 168.784 3.93239 -0.275046 0
M  V30 1756 H 170.072 5.08675 0.112793 0
M  V30 1757 H 169.47 4.62319 3.26002 0
M  V30 1758 H 168.027 5.53907 3.43556 0
M  V30 1759 N 171.46 0.379036 1.52974 0
M  V30 1760 C 172.706 -0.206727 2.01744 0
M  V30 1761 C 173.039 -1.47314 1.26539 0
M  V30 1762 O 172.314 -1.91084 0.362903 0
M  V30 1763 C 172.597 -0.485066 3.56818 0
M  V30 1764 C 172.45 0.795919 4.42702 0
M  V30 1765 C 173.769 -1.28003 4.21074 0
M  V30 1766 H 170.888 -0.0736607 0.73331 0
M  V30 1767 H 173.53 0.506581 1.83122 0
M  V30 1768 H 171.68 -1.09272 3.72816 0
M  V30 1769 H 173.352 1.43307 4.38476 0
M  V30 1770 H 171.595 1.41344 4.10127 0
M  V30 1771 H 172.266 0.555947 5.49193 0
M  V30 1772 H 174.742 -0.765867 4.08991 0
M  V30 1773 H 173.618 -1.44352 5.29579 0
M  V30 1774 H 173.879 -2.29236 3.78026 0
M  V30 1775 N 172.938 -1.57226 0.108567 0
M  V30 1776 C 174.166 -1.99179 -0.559954 0
M  V30 1777 C 174.581 -0.988022 -1.60884 0
M  V30 1778 O 173.938 0.0205512 -1.82488 0
M  V30 1779 C 173.989 -3.41159 -1.19552 0
M  V30 1780 O 173.71 -4.37694 -0.188577 0
M  V30 1781 C 175.211 -3.98188 -1.94837 0
M  V30 1782 H 172.431 -0.654228 -0.149088 0
M  V30 1783 H 174.975 -2.03598 0.19183 0
M  V30 1784 H 173.13 -3.37711 -1.89815 0
M  V30 1785 H 173.544 -5.20469 -0.649014 0
M  V30 1786 H 175.018 -4.99644 -2.34648 0
M  V30 1787 H 175.495 -3.3675 -2.81951 0
M  V30 1788 H 176.101 -4.0515 -1.2936 0
M  V30 1789 N 174.416 0.165178 -1.56732 0
M  V30 1790 C 175.662 0.882112 -1.82611 0
M  V30 1791 C 175.995 1.81628 -0.687378 0
M  V30 1792 O 175.27 1.92009 0.310267 0
M  V30 1793 C 175.553 1.67245 -3.18906 0
M  V30 1794 C 175.406 0.760987 -4.43316 0
M  V30 1795 C 176.725 2.63884 -3.52212 0
M  V30 1796 H 173.844 0.319242 -0.664269 0
M  V30 1797 H 176.486 0.148052 -1.89422 0
M  V30 1798 H 174.636 2.29824 -3.1323 0
M  V30 1799 H 176.308 0.147596 -4.61064 0
M  V30 1800 H 174.551 0.0694102 -4.33744 0
M  V30 1801 H 175.222 1.34962 -5.35247 0
M  V30 1802 H 177.698 2.11429 -3.58381 0
M  V30 1803 H 176.574 3.16245 -4.48643 0
M  V30 1804 H 176.835 3.44377 -2.77231 0
M  V30 1805 N 175.894 1.51508 0.433938 0
M  V30 1806 C 176.804 1.75917 1.5521 0
M  V30 1807 C 177.82 0.643545 1.61662 0
M  V30 1808 O 178.996 0.926183 1.7884 0
M  V30 1809 C 176.061 1.88213 2.91164 0
M  V30 1810 C 175.122 3.12074 2.94802 0
M  V30 1811 C 174.355 3.23774 4.24271 0
M  V30 1812 O 174.578 2.4133 5.16833 0
M  V30 1813 O 173.512 4.16774 4.34262 0
M  V30 1814 H 177.338 2.70777 1.37527 0
M  V30 1815 H 174.923 1.36051 0.617293 0
M  V30 1816 H 176.805 1.98267 3.71845 0
M  V30 1817 H 175.48 0.965413 3.08968 0
M  V30 1818 H 174.387 3.07497 2.13065 0
M  V30 1819 H 175.72 4.03446 2.81943 0
M  V30 1820 N 177.372 -0.689602 1.41712 0
M  V30 1821 C 178.302 -1.81577 1.46806 0
M  V30 1822 C 179.283 -1.66945 0.326105 0
M  V30 1823 O 180.468 -1.86588 0.538377 0
M  V30 1824 C 177.598 -3.19762 1.35535 0
M  V30 1825 C 176.552 -3.49107 2.47605 0
M  V30 1826 C 175.878 -4.86711 2.21397 0
M  V30 1827 C 177.178 -3.47483 3.89939 0
M  V30 1828 H 178.872 -1.7757 2.41058 0
M  V30 1829 H 176.418 -0.852887 1.16025 0
M  V30 1830 H 178.371 -3.98263 1.3771 0
M  V30 1831 H 177.095 -3.24409 0.377708 0
M  V30 1832 H 175.754 -2.72959 2.44722 0
M  V30 1833 H 175.402 -4.8799 1.21961 0
M  V30 1834 H 175.102 -5.0731 2.96497 0
M  V30 1835 H 176.626 -5.67515 2.25297 0
M  V30 1836 H 178.04 -4.1598 3.94505 0
M  V30 1837 H 176.437 -3.79615 4.64771 0
M  V30 1838 H 177.507 -2.46341 4.17665 0
M  V30 1839 N 178.85 -1.27639 -0.924453 0
M  V30 1840 C 180.078 -1.16989 -1.70649 0
M  V30 1841 C 180.493 0.272869 -1.86818 0
M  V30 1842 O 179.85 1.18549 -1.38753 0
M  V30 1843 C 179.901 -1.85229 -3.10439 0
M  V30 1844 O 179.622 -3.23868 -2.95028 0
M  V30 1845 C 181.123 -1.80746 -4.04779 0
M  V30 1846 H 178.343 -0.406595 -0.53378 0
M  V30 1847 H 180.887 -1.68569 -1.15778 0
M  V30 1848 H 179.042 -1.37545 -3.6216 0
M  V30 1849 H 179.456 -3.57889 -3.83426 0
M  V30 1850 H 180.93 -2.33101 -5.00368 0
M  V30 1851 H 181.407 -0.777499 -4.32263 0
M  V30 1852 H 182.013 -2.28059 -3.58984 0
M  V30 1853 N 180.328 1.1314 -1.09713 0
M  V30 1854 C 181.574 1.84757 -0.836224 0
M  V30 1855 C 181.907 1.8347 0.636598 0
M  V30 1856 O 181.182 1.27491 1.46889 0
M  V30 1857 C 181.465 3.32782 -1.37578 0
M  V30 1858 C 181.318 3.42567 -2.91493 0
M  V30 1859 C 182.637 4.28307 -1.01198 0
M  V30 1860 H 179.756 0.67082 -0.305236 0
M  V30 1861 H 182.398 1.3278 -1.35903 0
M  V30 1862 H 180.548 3.77177 -0.931097 0
M  V30 1863 H 182.22 3.06862 -3.44432 0
M  V30 1864 H 180.463 2.83349 -3.28475 0
M  V30 1865 H 181.134 4.46674 -3.24324 0
M  V30 1866 H 183.61 3.91999 -1.39556 0
M  V30 1867 H 182.486 5.30307 -1.41653 0
M  V30 1868 H 182.747 4.42029 0.0794833 0
M  V30 1869 N 181.806 0.884767 1.30421 0
M  V30 1870 C 182.716 0.355398 2.31892 0
M  V30 1871 C 183.732 -0.542261 1.65335 0
M  V30 1872 O 184.908 -0.435432 1.96637 0
M  V30 1873 C 181.973 -0.421661 3.44126 0
M  V30 1874 C 181.034 0.505727 4.26311 0
M  V30 1875 C 180.267 -0.234343 5.33185 0
M  V30 1876 O 180.49 -1.46045 5.51386 0
M  V30 1877 O 179.424 0.415443 6.00465 0
M  V30 1878 H 183.25 1.19685 2.79122 0
M  V30 1879 H 180.835 0.648596 1.34587 0
M  V30 1880 H 182.717 -0.861641 4.12497 0
M  V30 1881 H 181.392 -1.23942 2.99032 0
M  V30 1882 H 180.299 0.994513 3.60639 0
M  V30 1883 H 181.632 1.28948 4.75009 0
M  V30 1884 N 183.284 -1.43765 0.645699 0
M  V30 1885 C 184.532 -2.01499 0.155731 0
M  V30 1886 C 184.853 -1.51151 -1.232 0
M  V30 1887 O 184.123 -0.721044 -1.82148 0
M  V30 1888 H 182.703 -0.745003 0.0545817 0
M  V30 1889 H 185.365 -1.76075 0.835677 0
M  V30 1890 H 184.461 -3.1181 0.134577 0
M  V30 1891 N 184.763 -0.387143 -1.52771 0
M  V30 1892 C 185.988 0.198407 -2.06449 0
M  V30 1893 C 186.413 1.39918 -1.25716 0
M  V30 1894 O 185.771 1.79099 -0.281657 0
M  V30 1895 C 185.819 0.548893 -3.56398 0
M  V30 1896 O 184.923 1.64315 -3.78252 0
M  V30 1897 H 184.264 0.0237731 -0.663574 0
M  V30 1898 H 186.794 -0.553989 -1.96957 0
M  V30 1899 H 186.804 0.813812 -3.99801 0
M  V30 1900 H 185.479 -0.329005 -4.14597 0
M  V30 1901 H 184.056 1.37211 -3.46738 0
M  V30 1902 N 186.241 1.57166 -0.116904 0
M  V30 1903 C 187.488 1.95123 0.541603 0
M  V30 1904 C 187.816 1.00006 1.6682 0
M  V30 1905 O 187.071 0.0235658 1.95686 0
M  V30 1906 C 187.37 3.39508 1.11664 0
M  V30 1907 C 187.036 4.50762 0.111606 0
M  V30 1908 C 185.698 4.80918 -0.164758 0
M  V30 1909 C 188.05 5.18036 -0.573438 0
M  V30 1910 C 185.378 5.75666 -1.13249 0
M  V30 1911 C 187.73 6.13824 -1.52978 0
M  V30 1912 C 186.394 6.42374 -1.81415 0
M  V30 1913 H 185.664 0.714005 0.198187 0
M  V30 1914 H 188.311 1.9048 -0.197365 0
M  V30 1915 H 186.616 3.40835 1.93232 0
M  V30 1916 H 188.313 3.66189 1.63422 0
M  V30 1917 H 184.903 4.27272 0.337192 0
M  V30 1918 H 189.087 4.94896 -0.373092 0
M  V30 1919 H 184.343 5.96092 -1.35958 0
M  V30 1920 H 188.517 6.65039 -2.06629 0
M  V30 1921 H 186.144 7.15599 -2.56557 0
M  V30 1922 N 187.719 -0.156864 1.56817 0
M  V30 1923 C 188.682 -1.17781 1.96622 0
M  V30 1924 C 189.682 -1.36401 0.851555 0
M  V30 1925 O 190.872 -1.33561 1.11836 0
M  V30 1926 C 188.004 -2.54008 2.27361 0
M  V30 1927 H 189.197 -0.836564 2.87996 0
M  V30 1928 H 186.75 -0.39985 1.51099 0
M  V30 1929 H 187.485 -2.9312 1.38748 0
M  V30 1930 H 187.27 -2.41856 3.08623 0
M  V30 1931 H 188.76 -3.27558 2.59029 0
M  V30 1932 N 189.197 -1.51736 -0.425897 0
M  V30 1933 C 190.144 -1.73875 -1.51776 0
M  V30 1934 C 191.114 -0.580702 -1.55618 0
M  V30 1935 O 192.299 -0.81641 -1.72451 0
M  V30 1936 C 189.439 -1.88012 -2.89388 0
M  V30 1937 C 188.552 -3.15606 -2.94986 0
M  V30 1938 C 187.687 -3.20271 -4.23793 0
M  V30 1939 C 186.726 -4.42134 -4.23302 0
M  V30 1940 N 185.863 -4.44284 -5.43651 0
M  V30 1941 H 190.703 -2.67071 -1.32201 0
M  V30 1942 H 188.24 -1.32351 -0.642008 0
M  V30 1943 H 190.198 -1.9419 -3.69251 0
M  V30 1944 H 188.828 -0.98213 -3.07496 0
M  V30 1945 H 187.88 -3.18681 -2.07717 0
M  V30 1946 H 189.192 -4.05486 -2.90486 0
M  V30 1947 H 188.346 -3.25428 -5.12036 0
M  V30 1948 H 187.085 -2.28299 -4.30965 0
M  V30 1949 H 186.09 -4.3714 -3.3345 0
M  V30 1950 H 187.315 -5.35382 -4.17783 0
M  V30 1951 H 185.261 -3.55188 -5.51523 0
M  V30 1952 H 185.178 -5.27988 -5.41078 0
M  V30 1953 H 186.446 -4.53649 -6.33895 0
M  V30 1954 N 190.675 0.682077 -1.42076 0
M  V30 1955 C 191.607 1.80755 -1.40926 0
M  V30 1956 C 192.62 1.59833 -0.309398 0
M  V30 1957 O 193.809 1.69087 -0.572014 0
M  V30 1958 C 190.909 3.17744 -1.17865 0
M  V30 1959 C 190.082 3.65578 -2.40149 0
M  V30 1960 C 189.141 4.81277 -2.12742 0
M  V30 1961 O 188.167 4.92197 -2.85887 0
M  V30 1962 N 189.369 5.69474 -1.12602 0
M  V30 1963 H 192.134 1.82229 -2.37935 0
M  V30 1964 H 189.695 0.864903 -1.36861 0
M  V30 1965 H 191.687 3.9279 -0.9746 0
M  V30 1966 H 190.257 3.11214 -0.294068 0
M  V30 1967 H 189.477 2.81291 -2.76169 0
M  V30 1968 H 190.765 3.94278 -3.21593 0
M  V30 1969 H 190.163 5.63297 -0.520899 0
M  V30 1970 H 188.72 6.44363 -0.981842 0
M  V30 1971 N 192.153 1.28127 0.917671 0
M  V30 1972 C 193.083 1.14248 2.03641 0
M  V30 1973 C 194.064 0.0412748 1.7005 0
M  V30 1974 O 195.249 0.217566 1.92977 0
M  V30 1975 C 192.379 0.799431 3.37974 0
M  V30 1976 C 191.333 1.85497 3.85713 0
M  V30 1977 C 190.659 1.36565 5.16966 0
M  V30 1978 C 191.959 3.26085 4.08002 0
M  V30 1979 H 193.653 2.07835 2.15511 0
M  V30 1980 H 191.199 1.00064 1.03553 0
M  V30 1981 H 193.152 0.689114 4.15727 0
M  V30 1982 H 191.876 -0.172145 3.26146 0
M  V30 1983 H 190.535 1.95437 3.10161 0
M  V30 1984 H 190.183 0.383253 5.01538 0
M  V30 1985 H 189.883 2.07143 5.49878 0
M  V30 1986 H 191.407 1.26848 5.97279 0
M  V30 1987 H 192.821 3.19089 4.76293 0
M  V30 1988 H 191.218 3.94462 4.52238 0
M  V30 1989 H 192.288 3.70394 3.12948 0
M  V30 1990 N 193.631 -1.12557 1.10312 0
M  V30 1991 C 194.879 -1.83675 0.843091 0
M  V30 1992 C 195.2 -1.84435 -0.633131 0
M  V30 1993 O 194.47 -1.30657 -1.45964 0
M  V30 1994 H 193.05 -0.680138 0.308904 0
M  V30 1995 H 195.712 -1.36301 1.39313 0
M  V30 1996 H 194.808 -2.87908 1.2048 0
M  V30 1997 N 195.109 -0.891671 -1.2995 0
M  V30 1998 C 196.041 -0.320695 -2.26945 0
M  V30 1999 C 197.054 0.528497 -1.53983 0
M  V30 2000 O 198.243 0.346959 -1.75096 0
M  V30 2001 C 195.343 0.562066 -3.34207 0
M  V30 2002 C 194.516 -0.259576 -4.36629 0
M  V30 2003 C 193.575 0.554739 -5.23268 0
M  V30 2004 O 192.601 -0.0249311 -5.69195 0
M  V30 2005 N 193.803 1.8625 -5.4981 0
M  V30 2006 H 196.568 -1.15432 -2.76578 0
M  V30 2007 H 194.129 -0.755336 -1.432 0
M  V30 2008 H 196.121 1.11304 -3.89093 0
M  V30 2009 H 194.691 1.29637 -2.84452 0
M  V30 2010 H 193.911 -0.991986 -3.81514 0
M  V30 2011 H 195.199 -0.822564 -5.02107 0
M  V30 2012 H 194.597 2.35628 -5.14292 0
M  V30 2013 H 193.154 2.36078 -6.07545 0
M  V30 2014 N 196.587 1.43421 -0.653314 0
M  V30 2015 C 197.998 1.85065 -0.246537 0
M  V30 2016 C 198.349 1.54688 1.2069 0
M  V30 2017 O 197.474 0.995896 1.92122 0
M  V30 2018 C 198.069 3.35922 -0.440666 0
M  V30 2019 C 196.628 3.76297 -0.0882064 0
M  V30 2020 C 195.775 2.67147 -0.743484 0
M  V30 2021 H 198.726 1.33572 -0.856979 0
M  V30 2022 H 198.747 3.79204 0.313798 0
M  V30 2023 H 198.259 3.58 -1.49858 0
M  V30 2024 H 196.36 3.5983 0.96711 0
M  V30 2025 H 196.473 4.76338 -0.513738 0
M  V30 2026 H 194.837 2.54086 -0.176712 0
M  V30 2027 H 195.62 2.92053 -1.80443 0
M  V30 2028 N 198.065 0.39524 1.52563 0
M  V30 2029 C 199.311 -0.185318 2.01952 0
M  V30 2030 C 199.644 -1.45964 1.28095 0
M  V30 2031 O 198.919 -1.90689 0.38315 0
M  V30 2032 C 199.202 -0.447193 3.57312 0
M  V30 2033 C 199.055 0.842828 4.41833 0
M  V30 2034 C 200.374 -1.23529 4.22408 0
M  V30 2035 H 197.493 -0.0658788 0.73405 0
M  V30 2036 H 200.135 0.525975 1.82575 0
M  V30 2037 H 198.285 -1.05312 3.73954 0
M  V30 2038 H 199.957 1.4795 4.36931 0
M  V30 2039 H 198.2 1.45686 4.08605 0
M  V30 2040 H 198.871 0.614165 5.48573 0
M  V30 2041 H 201.347 -0.722445 4.0978 0
M  V30 2042 H 200.223 -1.38727 5.3108 0
M  V30 2043 H 200.484 -2.25213 3.80436 0
M  V30 2044 N 199.544 -1.57102 0.125237 0
M  V30 2045 C 200.79 -1.95697 -0.532035 0
M  V30 2046 C 201.123 -1.009 -1.6593 0
M  V30 2047 O 200.398 -0.047347 -1.94442 0
M  V30 2048 C 200.681 -3.44181 -1.05884 0
M  V30 2049 C 200.534 -4.49752 0.0654392 0
M  V30 2050 C 201.853 -3.94655 -1.9477 0
M  V30 2051 H 198.972 -0.711571 -0.191925 0
M  V30 2052 H 201.614 -1.88923 0.20206 0
M  V30 2053 H 199.764 -3.50085 -1.68442 0
M  V30 2054 H 201.436 -4.55943 0.700982 0
M  V30 2055 H 199.679 -4.27653 0.727709 0
M  V30 2056 H 200.35 -5.50924 -0.344505 0
M  V30 2057 H 202.826 -3.91094 -1.42074 0
M  V30 2058 H 201.702 -4.99057 -2.28546 0
M  V30 2059 H 201.963 -3.35718 -2.87656 0
M  V30 2060 N 201.022 0.148545 -1.56898 0
M  V30 2061 C 202.247 0.880385 -1.87787 0
M  V30 2062 C 202.672 1.74018 -0.714093 0
M  V30 2063 O 202.03 1.78153 0.336343 0
M  V30 2064 C 202.078 1.71422 -3.17249 0
M  V30 2065 O 201.182 2.8183 -3.01074 0
M  V30 2066 H 200.523 0.245301 -0.617028 0
M  V30 2067 H 203.053 0.139826 -2.04122 0
M  V30 2068 H 203.063 2.10954 -3.49231 0
M  V30 2069 H 201.738 1.08284 -4.01556 0
M  V30 2070 H 200.315 2.45715 -2.80497 0
M  V30 2071 N 202.5 1.5196 0.417844 0
M  V30 2072 C 203.447 1.74678 1.50852 0
M  V30 2073 C 204.417 0.588947 1.55308 0
M  V30 2074 O 205.602 0.825544 1.72016 0
M  V30 2075 C 202.742 1.89544 2.88387 0
M  V30 2076 C 201.855 3.17166 2.93309 0
M  V30 2077 C 200.99 3.22513 4.22088 0
M  V30 2078 C 200.029 4.44372 4.20951 0
M  V30 2079 N 199.166 4.47161 5.41287 0
M  V30 2080 H 204.006 2.67768 1.30783 0
M  V30 2081 H 201.543 1.32689 0.63498 0
M  V30 2082 H 203.501 1.96146 3.68216 0
M  V30 2083 H 202.131 0.998424 3.06971 0
M  V30 2084 H 201.183 3.19778 2.06024 0
M  V30 2085 H 202.495 4.07021 2.88332 0
M  V30 2086 H 201.649 3.28139 5.10303 0
M  V30 2087 H 200.388 2.30581 4.29748 0
M  V30 2088 H 199.393 4.38902 3.31127 0
M  V30 2089 H 200.618 5.3759 4.14938 0
M  V30 2090 H 198.564 3.58108 5.49632 0
M  V30 2091 H 198.481 5.3085 5.3827 0
M  V30 2092 H 199.749 4.57005 6.3148 0
M  V30 2093 N 203.978 -0.674533 1.42435 0
M  V30 2094 C 205.206 -1.46283 1.46317 0
M  V30 2095 C 205.621 -1.88653 0.0745836 0
M  V30 2096 O 204.978 -1.58151 -0.91074 0
M  V30 2097 C 205.029 -2.71178 2.3905 0
M  V30 2098 O 204.75 -2.30586 3.72507 0
M  V30 2099 C 206.251 -3.64738 2.51955 0
M  V30 2100 H 203.471 -0.450104 0.497642 0
M  V30 2101 H 206.015 -0.828792 1.86953 0
M  V30 2102 H 204.17 -3.3077 2.01667 0
M  V30 2103 H 204.584 -3.11241 4.22172 0
M  V30 2104 H 206.058 -4.49096 3.20962 0
M  V30 2105 H 206.535 -4.10656 1.55752 0
M  V30 2106 H 207.141 -3.11038 2.90061 0
M  V30 2107 N 205.456 -1.28612 -0.910864 0
M  V30 2108 C 206.386 -1.15326 -2.03032 0
M  V30 2109 C 207.367 -0.0502924 -1.70026 0
M  V30 2110 O 208.552 -0.227797 -1.92859 0
M  V30 2111 C 205.682 -0.817343 -3.37545 0
M  V30 2112 C 204.636 -1.8754 -3.84724 0
M  V30 2113 C 203.962 -1.39305 -5.16235 0
M  V30 2114 C 205.262 -3.28244 -4.06267 0
M  V30 2115 H 206.956 -2.08975 -2.14406 0
M  V30 2116 H 204.502 -1.00612 -1.03021 0
M  V30 2117 H 206.455 -0.711151 -4.15356 0
M  V30 2118 H 205.179 0.154846 -3.26233 0
M  V30 2119 H 203.838 -1.97079 -3.09121 0
M  V30 2120 H 203.486 -0.409846 -5.01328 0
M  V30 2121 H 203.186 -2.10057 -5.48771 0
M  V30 2122 H 204.71 -1.30014 -5.96598 0
M  V30 2123 H 206.124 -3.21611 -4.74594 0
M  V30 2124 H 204.521 -3.96855 -4.5014 0
M  V30 2125 H 205.591 -3.72048 -3.10979 0
M  V30 2126 N 206.934 1.1197 -1.10907 0
M  V30 2127 C 208.182 1.83225 -0.852819 0
M  V30 2128 C 208.503 1.84769 0.623341 0
M  V30 2129 O 207.773 1.3143 1.45269 0
M  V30 2130 H 206.353 0.67849 -0.312507 0
M  V30 2131 H 209.015 1.3556 -1.40033 0
M  V30 2132 H 208.111 2.87265 -1.22005 0
M  V30 2133 N 208.412 0.89855 1.29475 0
M  V30 2134 C 209.689 0.443416 1.90508 0
M  V30 2135 C 210.069 -1.07685 1.81569 0
M  V30 2136 O 209.417 -1.9182 1.24166 0
M  V30 2137 C 209.627 0.956708 3.35631 0
M  V30 2138 C 210.975 0.999728 4.12663 0
M  V30 2139 O 211.999 0.904299 3.4453 0
M  V30 2140 O 210.858 1.14289 5.34416 0
M  V30 2141 H 207.952 0.138025 0.815401 0
M  V30 2142 H 210.498 0.98834 1.37949 0
M  V30 2143 H 209.27 2.00067 3.36287 0
M  V30 2144 H 208.893 0.391728 3.95666 0
M  V30 2145 N 209.89 -1.43072 0.660911 0
M  V30 2146 C 211.306 -1.56169 0.329173 0
M  V30 2147 C 211.506 -1.64317 -1.16629 0
M  V30 2148 O 210.562 -1.60245 -1.95135 0
M  V30 2149 C 211.875 -2.81873 1.04729 0
M  V30 2150 C 213.423 -2.95627 1.02828 0
M  V30 2151 C 213.898 -4.24174 1.72744 0
M  V30 2152 N 215.389 -4.31055 1.69545 0
M  V30 2153 C 216.124 -5.29304 2.20511 0
M  V30 2154 N 215.62 -6.33786 2.79799 0
M  V30 2155 N 217.413 -5.21008 2.10966 0
M  V30 2156 H 209.564 -1.36027 1.63127 0
M  V30 2157 H 211.827 -0.653823 0.686454 0
M  V30 2158 H 211.533 -2.81942 2.10242 0
M  V30 2159 H 211.407 -3.72338 0.603702 0
M  V30 2160 H 213.794 -2.95094 -0.0184742 0
M  V30 2161 H 213.875 -2.06431 1.51063 0
M  V30 2162 H 213.519 -4.25467 2.7738 0
M  V30 2163 H 213.449 -5.1228 1.2197 0
M  V30 2164 H 215.94 -3.56174 1.26288 0
M  V30 2165 H 216.253 -7.05086 3.16344 0
M  V30 2166 H 214.598 -6.34387 2.83863 0
M  V30 2167 H 217.789 -4.38301 1.64347 0
M  V30 2168 H 217.962 -5.97416 2.50993 0
M  V30 2169 N 211.368 -0.403325 -1.52352 0
M  V30 2170 C 212.615 0.174347 -2.01748 0
M  V30 2171 C 212.943 1.45636 -1.2892 0
M  V30 2172 O 212.198 1.9193 -0.382258 0
M  V30 2173 C 212.497 0.474665 -3.54234 0
M  V30 2174 C 212.163 -0.717458 -4.45155 0
M  V30 2175 C 210.825 -1.04447 -4.69728 0
M  V30 2176 C 213.177 -1.51432 -4.98716 0
M  V30 2177 C 210.505 -2.16963 -5.45109 0
M  V30 2178 C 212.857 -2.6302 -5.75329 0
M  V30 2179 C 211.521 -2.96213 -5.98175 0
M  V30 2180 H 210.791 0.0637981 -0.738248 0
M  V30 2181 H 213.438 -0.543553 -1.83624 0
M  V30 2182 H 211.743 1.27406 -3.70506 0
M  V30 2183 H 213.44 0.934496 -3.89959 0
M  V30 2184 H 210.03 -0.452596 -4.26204 0
M  V30 2185 H 214.214 -1.27491 -4.79645 0
M  V30 2186 H 209.47 -2.43034 -5.61021 0
M  V30 2187 H 213.644 -3.25158 -6.15829 0
M  V30 2188 H 211.271 -3.83516 -6.56368 0
M  V30 2189 N 212.846 1.57033 -0.133567 0
M  V30 2190 C 214.071 2.00475 0.531477 0
M  V30 2191 C 214.496 1.01291 1.58499 0
M  V30 2192 O 213.854 -0.0133279 1.81295 0
M  V30 2193 C 213.902 3.42729 1.12113 0
M  V30 2194 O 213.006 3.46498 2.23636 0
M  V30 2195 H 212.347 0.650876 0.131362 0
M  V30 2196 H 214.877 2.03344 -0.22634 0
M  V30 2197 H 214.887 3.81246 1.4531 0
M  V30 2198 H 213.562 4.14428 0.349557 0
M  V30 2199 H 212.139 3.19811 1.91769 0
M  V30 2200 N 214.325 -0.140222 1.56975 0
M  V30 2201 C 215.288 -1.15689 1.97861 0
M  V30 2202 C 216.288 -1.3549 0.865974 0
M  V30 2203 O 217.478 -1.32367 1.13246 0
M  V30 2204 C 214.61 -2.51582 2.30042 0
M  V30 2205 H 215.803 -0.805971 2.88867 0
M  V30 2206 H 213.356 -0.383801 1.51515 0
M  V30 2207 H 214.091 -2.91632 1.41849 0
M  V30 2208 H 213.876 -2.38569 3.11171 0
M  V30 2209 H 215.366 -3.24792 2.62488 0
M  V30 2210 N 215.803 -1.52179 -0.40978 0
M  V30 2211 C 217.214 -1.58377 -0.988615 0
M  V30 2212 C 217.565 -0.423879 -1.91566 0
M  V30 2213 O 216.69 0.455844 -2.11544 0
M  V30 2214 C 217.285 -2.87044 -1.79976 0
M  V30 2215 C 215.844 -2.95722 -2.32863 0
M  V30 2216 C 214.991 -2.53309 -1.12828 0
M  V30 2217 H 217.942 -1.57558 -0.190039 0
M  V30 2218 H 217.963 -2.7236 -2.65707 0
M  V30 2219 H 217.475 -3.71444 -1.12478 0
M  V30 2220 H 215.576 -2.15814 -3.03735 0
M  V30 2221 H 215.689 -3.99951 -2.63773 0
M  V30 2222 H 214.053 -2.07142 -1.48204 0
M  V30 2223 H 214.836 -3.40082 -0.46897 0
M  V30 2224 N 217.281 0.66697 -1.42791 0
M  V30 2225 C 218.244 1.76211 -1.46568 0
M  V30 2226 C 219.244 1.56896 -0.352196 0
M  V30 2227 O 220.434 1.63044 -0.613364 0
M  V30 2228 C 217.566 3.14935 -1.30494 0
M  V30 2229 H 218.759 1.74247 -2.44086 0
M  V30 2230 H 216.312 0.877342 -1.29354 0
M  V30 2231 H 217.047 3.2252 -0.339301 0
M  V30 2232 H 216.832 3.30359 -2.11199 0
M  V30 2233 H 218.322 3.94821 -1.36038 0
M  V30 2234 N 218.759 1.29093 0.90403 0
M  V30 2235 C 220.005 1.16986 1.65656 0
M  V30 2236 C 220.338 -0.278925 1.92186 0
M  V30 2237 O 219.613 -1.2019 1.5292 0
M  V30 2238 C 219.896 1.97908 3.0084 0
M  V30 2239 C 219.749 3.50903 2.81403 0
M  V30 2240 C 221.068 1.80208 4.01513 0
M  V30 2241 H 218.187 0.426346 0.601164 0
M  V30 2242 H 220.829 1.58518 1.04747 0
M  V30 2243 H 218.979 1.62616 3.52829 0
M  V30 2244 H 220.651 3.96153 2.36348 0
M  V30 2245 H 218.894 3.76045 2.1627 0
M  V30 2246 H 219.565 4.02791 3.77443 0
M  V30 2247 H 222.041 2.11025 3.58619 0
M  V30 2248 H 220.917 2.39184 4.94047 0
M  V30 2249 H 221.178 0.756119 4.35586 0
M  V30 2250 N 220.237 -1.11381 1.11499 0
M  V30 2251 C 221.147 -2.21019 0.786628 0
M  V30 2252 C 222.163 -1.72597 -0.220507 0
M  V30 2253 O 223.339 -2.01321 -0.0565251 0
M  V30 2254 C 220.404 -3.459 0.235333 0
M  V30 2255 C 219.465 -4.09107 1.30115 0
M  V30 2256 C 218.698 -5.28027 0.776068 0
M  V30 2257 O 218.921 -5.6904 -0.393661 0
M  V30 2258 O 217.855 -5.81835 1.54114 0
M  V30 2259 H 221.681 -2.51521 1.70209 0
M  V30 2260 H 219.266 -1.19928 0.890928 0
M  V30 2261 H 221.148 -4.21346 -0.067715 0
M  V30 2262 H 219.823 -3.17049 -0.652828 0
M  V30 2263 H 218.73 -3.35391 1.65722 0
M  V30 2264 H 220.063 -4.42139 2.16273 0
M  V30 2265 N 221.715 -0.905404 -1.28997 0
M  V30 2266 C 222.943 -0.549846 -1.9946 0
M  V30 2267 C 223.358 0.866834 -1.67724 0
M  V30 2268 O 222.715 1.57298 -0.925404 0
M  V30 2269 C 222.766 -0.739387 -3.53858 0
M  V30 2270 O 222.487 -2.10031 -3.84472 0
M  V30 2271 C 223.988 -0.389541 -4.41585 0
M  V30 2272 H 221.208 -0.210429 -0.637151 0
M  V30 2273 H 223.752 -1.21632 -1.64396 0
M  V30 2274 H 221.907 -0.120023 -3.87214 0
M  V30 2275 H 222.321 -2.13385 -4.79132 0
M  V30 2276 H 223.795 -0.572972 -5.49018 0
M  V30 2277 H 224.272 0.673756 -4.34001 0
M  V30 2278 H 224.878 -0.986089 -4.1371 0
M  V30 2279 N 223.193 1.4272 -0.668489 0
M  V30 2280 C 224.609 1.55992 -0.33745 0
M  V30 2281 C 224.809 1.64933 1.15756 0
M  V30 2282 O 223.865 1.61278 1.94282 0
M  V30 2283 C 225.178 2.81314 -1.06222 0
M  V30 2284 C 226.726 2.95078 -1.04394 0
M  V30 2285 C 227.201 4.23252 -1.74991 0
M  V30 2286 N 228.692 4.3015 -1.71829 0
M  V30 2287 C 229.427 5.28127 -2.23315 0
M  V30 2288 N 228.923 6.32293 -2.83156 0
M  V30 2289 N 230.716 5.19882 -2.13726 0
M  V30 2290 H 222.867 1.3516 -1.63846 0
M  V30 2291 H 225.13 0.650174 -0.689912 0
M  V30 2292 H 224.836 2.80823 -2.11734 0
M  V30 2293 H 224.71 3.72012 -0.62344 0
M  V30 2294 H 227.097 2.951 0.0028244 0
M  V30 2295 H 227.178 2.05627 -1.52155 0
M  V30 2296 H 226.822 4.2399 -2.79633 0
M  V30 2297 H 226.752 5.11626 -1.24685 0
M  V30 2298 H 229.243 3.55499 -1.28175 0
M  V30 2299 H 229.556 7.03398 -3.20079 0
M  V30 2300 H 227.901 6.32873 -2.87223 0
M  V30 2301 H 231.092 4.37423 -1.66669 0
M  V30 2302 H 231.265 5.96077 -2.54158 0
M  V30 2303 N 224.671 0.411399 1.52136 0
M  V30 2304 C 226.082 -0.0576826 1.86611 0
M  V30 2305 C 226.433 -1.44238 1.33003 0
M  V30 2306 O 225.558 -2.05759 0.670228 0
M  V30 2307 C 226.153 -0.111448 3.38617 0
M  V30 2308 C 224.712 -0.52487 3.72723 0
M  V30 2309 C 223.859 0.299176 2.75681 0
M  V30 2310 H 226.81 0.628368 1.4573 0
M  V30 2311 H 226.831 -0.926252 3.69054 0
M  V30 2312 H 226.343 0.896488 3.77604 0
M  V30 2313 H 224.444 -1.53936 3.39315 0
M  V30 2314 H 224.557 -0.267681 4.78352 0
M  V30 2315 H 222.921 -0.238814 2.53578 0
M  V30 2316 H 223.704 1.3055 3.17508 0
M  V30 2317 N 226.149 -1.5696 0.141893 0
M  V30 2318 C 227.374 -2.00754 -0.520838 0
M  V30 2319 C 227.799 -1.0213 -1.57959 0
M  V30 2320 O 227.157 0.00371324 -1.813 0
M  V30 2321 C 227.205 -3.43318 -1.10294 0
M  V30 2322 O 226.309 -3.47679 -2.21795 0
M  V30 2323 H 225.65 -0.651564 -0.127908 0
M  V30 2324 H 228.18 -2.03221 0.23712 0
M  V30 2325 H 228.19 -3.82012 -1.43287 0
M  V30 2326 H 226.865 -4.14608 -0.327574 0
M  V30 2327 H 225.442 -3.20824 -1.9007 0
M  V30 2328 N 227.627 0.131896 -1.57047 0
M  V30 2329 C 228.876 0.84044 -1.83356 0
M  V30 2330 C 229.189 1.81646 -0.725535 0
M  V30 2331 O 230.395 2.57025 -0.874659 0
M  V30 2332 C 228.851 1.54528 -3.25037 0
M  V30 2333 C 228.459 0.610902 -4.43815 0
M  V30 2334 C 230.203 2.23972 -3.60606 0
M  V30 2335 C 228.11 1.31823 -5.76521 0
M  V30 2336 H 227.04 0.317599 -0.683847 0
M  V30 2337 H 229.691 0.0931561 -1.83263 0
M  V30 2338 H 228.073 2.33873 -3.19561 0
M  V30 2339 H 229.247 -0.148407 -4.60561 0
M  V30 2340 H 227.562 0.0241016 -4.16393 0
M  V30 2341 H 230.159 2.77558 -4.57018 0
M  V30 2342 H 230.502 3.01173 -2.87403 0
M  V30 2343 H 231.035 1.51529 -3.6781 0
M  V30 2344 H 227.774 0.587771 -6.52859 0
M  V30 2345 H 227.294 2.04987 -5.63685 0
M  V30 2346 H 228.973 1.855 -6.19838 0
M  V30 2347 N 229.106 1.52395 0.401703 0
M  V30 2348 C 230.352 1.68019 1.14635 0
M  V30 2349 C 230.707 0.408722 1.88009 0
M  V30 2350 O 230 -0.597133 1.82057 0
M  V30 2351 C 230.194 2.84578 2.16217 0
M  V30 2352 C 230.023 4.22938 1.5282 0
M  V30 2353 C 228.793 4.88352 1.29772 0
M  V30 2354 C 230.991 5.04778 0.985094 0
M  V30 2355 N 228.973 6.10726 0.623455 0
M  V30 2356 C 230.344 6.1845 0.438172 0
M  V30 2357 C 232.399 4.90057 0.880275 0
M  V30 2358 C 231.102 7.19013 -0.203306 0
M  V30 2359 C 233.128 5.9086 0.252639 0
M  V30 2360 C 232.49 7.03829 -0.283573 0
M  V30 2361 H 228.589 0.668413 0.405892 0
M  V30 2362 H 231.173 1.89717 0.437674 0
M  V30 2363 H 229.344 2.64483 2.84435 0
M  V30 2364 H 231.076 2.89202 2.83098 0
M  V30 2365 H 227.831 4.46846 1.56926 0
M  V30 2366 H 228.255 6.76323 0.302733 0
M  V30 2367 H 232.897 4.02938 1.28065 0
M  V30 2368 H 230.615 8.05751 -0.615726 0
M  V30 2369 H 234.201 5.81543 0.172954 0
M  V30 2370 H 233.081 7.80493 -0.761575 0
M  V30 2371 N 230.584 -0.659388 1.43143 0
M  V30 2372 C 231.832 -1.41654 1.44147 0
M  V30 2373 C 232.153 -1.94893 0.0645739 0
M  V30 2374 O 231.423 -1.74044 -0.899198 0
M  V30 2375 H 230.003 -0.525708 0.530697 0
M  V30 2376 H 232.665 -0.778097 1.78694 0
M  V30 2377 H 231.761 -2.26195 2.1504 0
M  V30 2378 N 232.062 -1.29571 -0.897171 0
M  V30 2379 C 232.972 -1.16808 -2.03453 0
M  V30 2380 C 233.988 -0.0907471 -1.73763 0
M  V30 2381 O 235.164 -0.303312 -1.99103 0
M  V30 2382 C 232.229 -0.848264 -3.36163 0
M  V30 2383 C 231.29 -2.0097 -3.79354 0
M  V30 2384 C 230.523 -1.70505 -5.05731 0
M  V30 2385 O 230.746 -0.62718 -5.66941 0
M  V30 2386 O 229.68 -2.5538 -5.45036 0
M  V30 2387 H 233.506 -2.12325 -2.17144 0
M  V30 2388 H 231.091 -1.09047 -1.02123 0
M  V30 2389 H 232.973 -0.684581 -4.15802 0
M  V30 2390 H 231.648 0.0771071 -3.23608 0
M  V30 2391 H 230.555 -2.22863 -3.00471 0
M  V30 2392 H 231.888 -2.91636 -3.96496 0
M  V30 2393 N 233.54 1.10788 -1.12088 0
M  V30 2394 C 234.78 1.84297 -0.883974 0
M  V30 2395 C 235.144 1.83036 0.579797 0
M  V30 2396 O 236.345 2.52061 0.933734 0
M  V30 2397 C 234.616 3.27173 -1.43849 0
M  V30 2398 S 236.175 4.17853 -1.33957 0
M  V30 2399 H 232.993 0.635433 -0.318977 0
M  V30 2400 H 235.595 1.33341 -1.4297 0
M  V30 2401 H 234.299 3.25658 -2.49749 0
M  V30 2402 H 233.83 3.83198 -0.890096 0
M  V30 2403 H 235.845 4.95239 -0.308603 0
M  V30 2404 N 235.018 0.912232 1.28515 0
M  V30 2405 C 236.429 0.591352 1.77087 0
M  V30 2406 C 236.78 -0.8933 1.74684 0
M  V30 2407 O 235.905 -1.69876 1.34056 0
M  V30 2408 C 236.5 1.06668 3.2157 0
M  V30 2409 C 235.059 0.79675 3.67871 0
M  V30 2410 C 234.206 1.23427 2.48316 0
M  V30 2411 H 237.157 1.09365 1.15 0
M  V30 2412 H 237.178 0.407455 3.78312 0
M  V30 2413 H 236.69 2.14726 3.23287 0
M  V30 2414 H 234.791 -0.270679 3.71616 0
M  V30 2415 H 234.904 1.40343 4.58084 0
M  V30 2416 H 233.268 0.653036 2.46186 0
M  V30 2417 H 234.051 2.32316 2.52753 0
M  V30 2418 N 236.496 -1.42363 0.676048 0
M  V30 2419 C 237.907 -1.84649 0.275948 0
M  V30 2420 C 238.258 -1.56588 -1.18214 0
M  V30 2421 O 237.383 -1.02634 -1.90513 0
M  V30 2422 C 237.978 -3.35178 0.494053 0
M  V30 2423 C 236.537 -3.76109 0.148061 0
M  V30 2424 C 235.684 -2.65931 0.785891 0
M  V30 2425 H 238.635 -1.32192 0.878121 0
M  V30 2426 H 238.656 -3.79655 -0.25343 0
M  V30 2427 H 238.168 -3.55571 1.55535 0
M  V30 2428 H 236.269 -3.61323 -0.909742 0
M  V30 2429 H 236.382 -4.7546 0.589454 0
M  V30 2430 H 234.746 -2.53773 0.217113 0
M  V30 2431 H 235.529 -2.89146 1.85067 0
M  V30 2432 N 237.974 -0.419461 -1.51915 0
M  V30 2433 C 238.921 0.400927 -2.27291 0
M  V30 2434 C 239.891 1.03224 -1.30131 0
M  V30 2435 O 241.076 1.05455 -1.59009 0
M  V30 2436 C 238.216 1.50603 -3.10504 0
M  V30 2437 C 237.329 0.89462 -4.22635 0
M  V30 2438 C 236.464 1.97328 -4.93189 0
M  V30 2439 C 235.503 1.33935 -5.97267 0
M  V30 2440 N 234.64 2.3586 -6.61298 0
M  V30 2441 H 239.48 -0.248251 -2.96964 0
M  V30 2442 H 237.017 -0.134266 -1.46486 0
M  V30 2443 H 238.975 2.15783 -3.57062 0
M  V30 2444 H 237.605 2.12509 -2.42981 0
M  V30 2445 H 236.657 0.131583 -3.80172 0
M  V30 2446 H 237.969 0.391641 -4.9726 0
M  V30 2447 H 237.123 2.70211 -5.43204 0
M  V30 2448 H 235.862 2.50994 -4.18155 0
M  V30 2449 H 234.867 0.595896 -5.46561 0
M  V30 2450 H 236.092 0.810252 -6.74249 0
M  V30 2451 H 234.038 2.88639 -5.89087 0
M  V30 2452 H 233.955 1.90403 -7.3163 0
M  V30 2453 H 235.223 3.08282 -7.15949 0
M  V30 2454 N 239.452 1.56882 -0.150215 0
M  V30 2455 C 240.699 1.96228 0.500093 0
M  V30 2456 C 241.027 1.03522 1.64661 0
M  V30 2457 O 240.282 0.0650683 1.95592 0
M  V30 2458 C 240.581 3.41801 1.04437 0
M  V30 2459 C 240.247 4.50897 0.0159671 0
M  V30 2460 C 238.909 4.8046 -0.266731 0
M  V30 2461 C 241.261 5.16703 -0.683192 0
M  V30 2462 C 238.589 5.73135 -1.25434 0
M  V30 2463 C 240.941 6.10441 -1.65964 0
M  V30 2464 C 239.605 6.38382 -1.95 0
M  V30 2465 H 238.875 0.718048 0.182997 0
M  V30 2466 H 241.522 1.90019 -0.237724 0
M  V30 2467 H 239.827 3.44857 1.85959 0
M  V30 2468 H 241.524 3.69573 1.55618 0
M  V30 2469 H 238.114 4.27891 0.246485 0
M  V30 2470 H 242.298 4.93993 -0.477983 0
M  V30 2471 H 237.554 5.93074 -1.48571 0
M  V30 2472 H 241.728 6.60507 -2.20689 0
M  V30 2473 H 239.355 7.09996 -2.71679 0
M  V30 2474 N 240.93 -0.123565 1.57115 0
M  V30 2475 C 241.893 -1.13583 1.99076 0
M  V30 2476 C 242.893 -1.34564 0.880296 0
M  V30 2477 O 244.083 -1.31158 1.14644 0
M  V30 2478 C 241.215 -2.49128 2.32698 0
M  V30 2479 H 242.408 -0.775287 2.89706 0
M  V30 2480 H 239.961 -0.36771 1.51913 0
M  V30 2481 H 240.696 -2.90111 1.44934 0
M  V30 2482 H 240.481 -2.35255 3.13684 0
M  V30 2483 H 241.971 -3.2199 2.65918 0
M  V30 2484 N 242.408 -1.52605 -0.393616 0
M  V30 2485 C 243.636 -1.71294 -1.16043 0
M  V30 2486 C 244.051 -0.429259 -1.83855 0
M  V30 2487 O 243.408 0.595921 -1.72496 0
M  V30 2488 C 243.459 -2.8593 -2.21193 0
M  V30 2489 O 243.18 -4.09329 -1.56146 0
M  V30 2490 C 244.681 -3.16259 -3.10636 0
M  V30 2491 H 241.901 -0.573641 -0.348104 0
M  V30 2492 H 244.445 -1.99234 -0.461092 0
M  V30 2493 H 242.6 -2.60465 -2.86769 0
M  V30 2494 H 243.014 -4.73323 -2.25978 0
M  V30 2495 H 244.488 -3.99946 -3.80456 0
M  V30 2496 H 244.965 -2.3045 -3.73884 0
M  V30 2497 H 245.571 -3.43547 -2.50711 0
M  V30 2498 N 243.887 0.651787 -1.4349 0
M  V30 2499 C 244.834 1.76462 -1.4876 0
M  V30 2500 C 245.804 1.62641 -0.337189 0
M  V30 2501 O 246.989 1.82864 -0.544544 0
M  V30 2502 C 244.129 3.14623 -1.41796 0
M  V30 2503 C 243.242 3.39568 -2.67053 0
M  V30 2504 C 242.377 4.67585 -2.52068 0
M  V30 2505 C 241.416 4.85639 -3.72587 0
M  V30 2506 N 240.553 6.04915 -3.56402 0
M  V30 2507 H 245.393 1.71293 -2.43849 0
M  V30 2508 H 242.93 0.835889 -1.21043 0
M  V30 2509 H 244.888 3.94496 -1.35753 0
M  V30 2510 H 243.518 3.18859 -0.50288 0
M  V30 2511 H 242.57 2.53783 -2.8337 0
M  V30 2512 H 243.882 3.48795 -3.56572 0
M  V30 2513 H 243.036 5.55586 -2.4374 0
M  V30 2514 H 241.775 4.60681 -1.60075 0
M  V30 2515 H 240.78 3.96073 -3.81321 0
M  V30 2516 H 242.005 4.94372 -4.65589 0
M  V30 2517 H 239.951 5.9914 -2.67146 0
M  V30 2518 H 239.868 6.15106 -4.39524 0
M  V30 2519 H 241.136 6.95533 -3.51929 0
M  V30 2520 N 245.365 1.30045 0.890287 0
M  V30 2521 C 246.295 1.18541 2.01172 0
M  V30 2522 C 247.276 0.0773356 1.69924 0
M  V30 2523 O 248.461 0.25845 1.92473 0
M  V30 2524 C 245.591 0.870941 3.36202 0
M  V30 2525 C 244.545 1.93637 3.81692 0
M  V30 2526 C 243.871 1.475 5.13953 0
M  V30 2527 C 245.171 3.34666 4.00994 0
M  V30 2528 H 246.865 2.12359 2.11054 0
M  V30 2529 H 244.411 1.02238 1.01407 0
M  V30 2530 H 246.364 0.777141 4.14172 0
M  V30 2531 H 245.088 -0.102926 3.26438 0
M  V30 2532 H 243.747 2.01972 3.05946 0
M  V30 2533 H 243.395 0.489551 5.00612 0
M  V30 2534 H 243.095 2.1876 5.4536 0
M  V30 2535 H 244.619 1.39489 5.94454 0
M  V30 2536 H 246.033 3.2912 4.69417 0
M  V30 2537 H 244.43 4.03966 4.43769 0
M  V30 2538 H 245.5 3.76949 3.05021 0
M  V30 2539 N 246.843 -1.10192 1.12674 0
M  V30 2540 C 248.091 -1.81845 0.881861 0
M  V30 2541 C 248.412 -1.85737 -0.593867 0
M  V30 2542 O 247.682 -1.33724 -1.4316 0
M  V30 2543 H 246.262 -0.673432 0.323261 0
M  V30 2544 H 248.924 -1.33316 1.42172 0
M  V30 2545 H 248.02 -2.85288 1.2656 0
M  V30 2546 N 248.321 -0.919034 -1.28029 0
M  V30 2547 C 249.737 -0.617972 -1.4715 0
M  V30 2548 C 249.937 0.835242 -1.83374 0
M  V30 2549 O 248.993 1.61388 -1.94191 0
M  V30 2550 C 250.306 -1.56041 -2.57044 0
M  V30 2551 C 251.854 -1.56769 -2.7091 0
M  V30 2552 C 252.329 -2.49688 -3.83953 0
M  V30 2553 N 253.82 -2.47845 -3.91314 0
M  V30 2554 C 254.555 -3.16437 -4.78179 0
M  V30 2555 N 254.051 -3.94376 -5.69596 0
M  V30 2556 N 255.844 -3.05498 -4.71834 0
M  V30 2557 H 247.995 -1.85866 -1.02798 0
M  V30 2558 H 250.258 -0.797506 -0.512531 0
M  V30 2559 H 249.964 -2.59671 -2.372 0
M  V30 2560 H 249.838 -1.29551 -3.54255 0
M  V30 2561 H 252.225 -0.538745 -2.90141 0
M  V30 2562 H 252.306 -1.87305 -1.74214 0
M  V30 2563 H 251.95 -3.52688 -3.65477 0
M  V30 2564 H 251.88 -2.16453 -4.80058 0
M  V30 2565 H 254.371 -1.91234 -3.25941 0
M  V30 2566 H 254.684 -4.43721 -6.32718 0
M  V30 2567 H 253.029 -3.98481 -5.69419 0
M  V30 2568 H 256.22 -2.44108 -3.99411 0
M  V30 2569 H 256.393 -3.59225 -5.39316 0
M  V30 2570 N 249.799 1.42003 -0.683588 0
M  V30 2571 C 251.045 2.01712 -0.209825 0
M  V30 2572 C 251.378 1.53968 1.18353 0
M  V30 2573 O 250.653 0.745661 1.79639 0
M  V30 2574 C 250.936 3.59202 -0.254197 0
M  V30 2575 C 250.789 4.17102 -1.68363 0
M  V30 2576 C 252.108 4.38344 0.392709 0
M  V30 2577 H 249.227 0.732891 -0.0777189 0
M  V30 2578 H 251.869 1.68909 -0.87004 0
M  V30 2579 H 250.019 3.87278 0.307954 0
M  V30 2580 H 251.691 3.99946 -2.29871 0
M  V30 2581 H 249.934 3.72597 -2.22157 0
M  V30 2582 H 250.605 5.26249 -1.6663 0
M  V30 2583 H 253.081 4.16011 -0.0859162 0
M  V30 2584 H 251.957 5.47901 0.331063 0
M  V30 2585 H 252.218 4.16887 1.47164 0
M  V30 2586 N 251.277 0.427512 1.51691 0
M  V30 2587 C 252.523 -0.142439 2.02299 0
M  V30 2588 C 252.856 -1.43214 1.31162 0
M  V30 2589 O 252.131 -1.89833 0.423511 0
M  V30 2590 C 252.414 -0.371301 3.58181 0
M  V30 2591 C 252.267 0.936358 4.39946 0
M  V30 2592 C 253.586 -1.14542 4.24933 0
M  V30 2593 H 250.705 -0.0502937 0.735282 0
M  V30 2594 H 253.347 0.564584 1.81418 0
M  V30 2595 H 251.497 -0.973559 3.76104 0
M  V30 2596 H 253.169 1.57184 4.33694 0
M  V30 2597 H 251.412 1.5432 4.05423 0
M  V30 2598 H 252.083 0.730388 5.47147 0
M  V30 2599 H 254.559 -0.635362 4.11221 0
M  V30 2600 H 253.435 -1.27431 5.33903 0
M  V30 2601 H 253.696 -2.17093 3.85127 0
M  V30 2602 N 252.755 -1.56801 0.158532 0
M  V30 2603 C 254.001 -1.96781 -0.490405 0
M  V30 2604 C 254.334 -1.04397 -1.63753 0
M  V30 2605 O 253.609 -0.0885805 -1.94298 0
M  V30 2606 C 253.892 -3.4635 -0.985594 0
M  V30 2607 C 253.745 -4.49512 0.160824 0
M  V30 2608 C 255.064 -3.98697 -1.86355 0
M  V30 2609 H 252.183 -0.715482 -0.176788 0
M  V30 2610 H 254.825 -1.88451 0.242088 0
M  V30 2611 H 252.975 -3.53579 -1.60978 0
M  V30 2612 H 254.647 -4.54353 0.797537 0
M  V30 2613 H 252.89 -4.26013 0.818256 0
M  V30 2614 H 253.561 -5.51531 -0.227569 0
M  V30 2615 H 256.037 -3.94019 -1.33746 0
M  V30 2616 H 254.913 -5.03792 -2.17909 0
M  V30 2617 H 255.174 -3.41744 -2.8047 0
M  V30 2618 N 254.233 0.115231 -1.57178 0
M  V30 2619 C 255.18 1.14115 -2.00615 0
M  V30 2620 C 256.15 1.40939 -0.878941 0
M  V30 2621 O 257.335 1.52741 -1.14345 0
M  V30 2622 C 254.475 2.46156 -2.4187 0
M  V30 2623 C 253.588 2.26236 -3.68024 0
M  V30 2624 C 252.723 3.51534 -3.98243 0
M  V30 2625 C 251.762 3.26787 -5.17568 0
M  V30 2626 N 250.899 4.44298 -5.43639 0
M  V30 2627 H 255.739 0.763743 -2.88047 0
M  V30 2628 H 253.276 0.365615 -1.42484 0
M  V30 2629 H 255.234 3.23189 -2.63827 0
M  V30 2630 H 253.864 2.81783 -1.57475 0
M  V30 2631 H 252.916 1.40102 -3.5366 0
M  V30 2632 H 254.228 2.03929 -4.55208 0
M  V30 2633 H 253.382 4.36984 -4.20868 0
M  V30 2634 H 252.121 3.76876 -3.09541 0
M  V30 2635 H 251.126 2.39729 -4.94783 0
M  V30 2636 H 252.351 3.02812 -6.0785 0
M  V30 2637 H 250.297 4.69754 -4.57895 0
M  V30 2638 H 250.214 4.25109 -6.25154 0
M  V30 2639 H 251.482 5.3087 -5.70786 0
M  V30 2640 N 255.711 1.52812 0.385517 0
M  V30 2641 C 256.621 1.80766 1.49535 0
M  V30 2642 C 257.637 0.694651 1.59532 0
M  V30 2643 O 258.813 0.982611 1.75803 0
M  V30 2644 C 255.878 1.97381 2.85029 0
M  V30 2645 C 254.939 3.21295 2.84724 0
M  V30 2646 C 254.172 3.37108 4.13756 0
M  V30 2647 O 254.395 2.5765 5.08893 0
M  V30 2648 O 253.329 4.30378 4.20783 0
M  V30 2649 H 257.155 2.75015 1.28842 0
M  V30 2650 H 254.74 1.37946 0.573697 0
M  V30 2651 H 256.622 2.09996 3.65349 0
M  V30 2652 H 255.297 1.06322 3.05741 0
M  V30 2653 H 254.204 3.1412 2.03174 0
M  V30 2654 H 255.537 4.12212 2.68965 0
M  V30 2655 N 257.189 -0.644168 1.43834 0
M  V30 2656 C 258.437 -1.40117 1.45642 0
M  V30 2657 C 258.758 -1.94814 0.0852413 0
M  V30 2658 O 258.028 -1.74988 -0.880688 0
M  V30 2659 H 256.608 -0.52005 0.536243 0
M  V30 2660 H 259.27 -0.7591 1.7951 0
M  V30 2661 H 258.366 -2.23902 2.17427 0
M  V30 2662 N 258.668 -1.30515 -0.883378 0
M  V30 2663 C 259.6 -1.12846 -1.99496 0
M  V30 2664 C 260.613 -0.0712571 -1.62644 0
M  V30 2665 O 261.802 -0.317432 -1.75655 0
M  V30 2666 C 258.902 -0.699123 -3.3161 0
M  V30 2667 C 258.075 -1.83842 -3.96889 0
M  V30 2668 C 257.134 -1.39737 -5.07307 0
M  V30 2669 O 256.16 -2.10485 -5.28852 0
M  V30 2670 N 257.362 -0.277279 -5.79837 0
M  V30 2671 H 260.127 -2.08585 -2.15203 0
M  V30 2672 H 257.688 -1.22672 -1.05656 0
M  V30 2673 H 259.68 -0.387044 -4.02845 0
M  V30 2674 H 258.25 0.166276 -3.12157 0
M  V30 2675 H 257.47 -2.31853 -3.18807 0
M  V30 2676 H 258.758 -2.60187 -4.37241 0
M  V30 2677 H 258.156 0.3122 -5.64838 0
M  V30 2678 H 256.713 -0.0246623 -6.51795 0
M  V30 2679 N 260.146 1.09593 -1.13257 0
M  V30 2680 C 261.079 2.15451 -0.752061 0
M  V30 2681 C 262.057 1.60493 0.260913 0
M  V30 2682 O 263.241 1.8788 0.152819 0
M  V30 2683 C 260.368 3.38506 -0.114594 0
M  V30 2684 C 259.414 4.12183 -1.09579 0
M  V30 2685 S 260.247 4.6661 -2.62745 0
M  V30 2686 C 261.403 5.92966 -2.00354 0
M  V30 2687 H 261.636 2.47395 -1.64872 0
M  V30 2688 H 259.169 1.21515 -0.952545 0
M  V30 2689 H 261.127 4.09757 0.246808 0
M  V30 2690 H 259.788 3.04784 0.759309 0
M  V30 2691 H 258.981 5.00445 -0.597545 0
M  V30 2692 H 258.583 3.46785 -1.40057 0
M  V30 2693 H 260.875 6.63882 -1.35156 0
M  V30 2694 H 261.818 6.47467 -2.86691 0
M  V30 2695 H 262.226 5.45405 -1.4558 0
M  V30 2696 N 261.624 0.925811 1.2754 0
M  V30 2697 C 262.872 0.564138 1.94067 0
M  V30 2698 C 263.193 -0.897188 1.73134 0
M  V30 2699 O 262.463 -1.63573 1.07799 0
M  V30 2700 H 261.043 0.205645 0.718136 0
M  V30 2701 H 263.705 1.1778 1.55287 0
M  V30 2702 H 262.801 0.76881 3.02483 0
M  V30 2703 N 263.102 -1.41638 0.69111 0
M  V30 2704 C 264.518 -1.55435 0.362224 0
M  V30 2705 C 264.718 -1.66754 -1.13117 0
M  V30 2706 O 263.774 -1.64348 -1.91692 0
M  V30 2707 C 265.087 -2.79588 1.10684 0
M  V30 2708 C 266.635 -2.9338 1.09075 0
M  V30 2709 C 267.11 -4.20414 1.81703 0
M  V30 2710 N 268.601 -4.27362 1.7865 0
M  V30 2711 C 269.336 -5.24507 2.31689 0
M  V30 2712 N 268.832 -6.27708 2.93179 0
M  V30 2713 N 270.625 -5.16416 2.2197 0
M  V30 2714 H 262.776 -1.32536 1.65976 0
M  V30 2715 H 265.039 -0.639115 0.700168 0
M  V30 2716 H 264.745 -2.77419 2.16175 0
M  V30 2717 H 264.619 -3.70973 0.682545 0
M  V30 2718 H 267.006 -2.95067 0.0441238 0
M  V30 2719 H 267.087 -2.0318 1.55407 0
M  V30 2720 H 266.731 -4.19488 2.86343 0
M  V30 2721 H 266.661 -5.09578 1.32808 0
M  V30 2722 H 269.152 -3.53415 1.33815 0
M  V30 2723 H 269.465 -6.98217 3.31229 0
M  V30 2724 H 267.81 -6.28223 2.97255 0
M  V30 2725 H 271.001 -4.34716 1.73607 0
M  V30 2726 H 271.174 -5.91958 2.63609 0
M  V30 2727 N 264.58 -0.43555 -1.51462 0
M  V30 2728 C 265.827 0.131514 -2.02072 0
M  V30 2729 C 266.155 1.42868 -1.31981 0
M  V30 2730 O 265.41 1.91076 -0.422883 0
M  V30 2731 C 265.709 0.39942 -3.55161 0
M  V30 2732 C 265.375 -0.81172 -4.43533 0
M  V30 2733 C 264.037 -1.14387 -4.67407 0
M  V30 2734 C 266.389 -1.61976 -4.95392 0
M  V30 2735 C 263.717 -2.28477 -5.40384 0
M  V30 2736 C 266.069 -2.75164 -5.6962 0
M  V30 2737 C 264.733 -3.08835 -5.91758 0
M  V30 2738 H 264.003 0.0481244 -0.739436 0
M  V30 2739 H 266.65 -0.58238 -1.8243 0
M  V30 2740 H 264.955 1.19519 -3.73125 0
M  V30 2741 H 266.652 0.85157 -3.91854 0
M  V30 2742 H 263.242 -0.542898 -4.25148 0
M  V30 2743 H 267.426 -1.37637 -4.76833 0
M  V30 2744 H 262.682 -2.5488 -5.55739 0
M  V30 2745 H 266.856 -3.38147 -6.08793 0
M  V30 2746 H 264.483 -3.97353 -6.48086 0
M  V30 2747 N 266.058 1.56714 -0.166846 0
M  V30 2748 C 267.283 2.01557 0.488833 0
M  V30 2749 C 267.708 1.0463 1.56314 0
M  V30 2750 O 267.066 0.0251304 1.81283 0
M  V30 2751 C 267.114 3.4503 1.04818 0
M  V30 2752 O 266.218 3.51163 2.16236 0
M  V30 2753 H 265.559 0.653516 0.117526 0
M  V30 2754 H 268.089 2.02818 -0.269421 0
M  V30 2755 H 268.099 3.84243 1.37191 0
M  V30 2756 H 266.774 4.15077 0.261572 0
M  V30 2757 H 265.351 3.23807 1.84942 0
M  V30 2758 N 267.536 -0.106894 1.57237 0
M  V30 2759 C 268.776 -0.818277 1.87306 0
M  V30 2760 C 269.14 -1.76474 0.756371 0
M  V30 2761 O 270.341 -2.5186 0.939155 0
M  V30 2762 C 268.612 -1.53806 3.22612 0
M  V30 2763 S 270.171 -2.28935 3.74345 0
M  V30 2764 H 266.989 -0.272862 0.656557 0
M  V30 2765 H 269.591 -0.075988 1.95352 0
M  V30 2766 H 268.295 -0.834951 4.01817 0
M  V30 2767 H 267.826 -2.32049 3.17674 0
M  V30 2768 H 269.841 -3.54871 3.46815 0
M  V30 2769 N 269.014 -1.53014 -0.377408 0
M  V30 2770 C 269.961 -1.78616 -1.46168 0
M  V30 2771 C 270.931 -0.629917 -1.53692 0
M  V30 2772 O 272.116 -0.870861 -1.69766 0
M  V30 2773 C 269.256 -1.97123 -2.8326 0
M  V30 2774 C 268.369 -3.24831 -2.84796 0
M  V30 2775 C 267.504 -3.33591 -4.13389 0
M  V30 2776 C 266.543 -4.55377 -4.09021 0
M  V30 2777 N 265.68 -4.61355 -5.29241 0
M  V30 2778 H 270.52 -2.71142 -1.23637 0
M  V30 2779 H 268.057 -1.34326 -0.599577 0
M  V30 2780 H 270.015 -2.05839 -3.62886 0
M  V30 2781 H 268.645 -1.07946 -3.04216 0
M  V30 2782 H 267.697 -3.25128 -1.97474 0
M  V30 2783 H 269.009 -4.14523 -2.77439 0
M  V30 2784 H 268.163 -3.41554 -5.01424 0
M  V30 2785 H 266.902 -2.41894 -4.23484 0
M  V30 2786 H 265.907 -4.47527 -3.19373 0
M  V30 2787 H 267.132 -5.48402 -4.00539 0
M  V30 2788 H 265.078 -3.72554 -5.39944 0
M  V30 2789 H 264.995 -5.44935 -5.24006 0
M  V30 2790 H 266.263 -4.73586 -6.19141 0
M  V30 2791 N 270.492 0.636531 -1.44174 0
M  V30 2792 C 271.741 1.39213 -1.45954 0
M  V30 2793 C 272.054 1.95374 -0.0939119 0
M  V30 2794 O 273.26 2.71498 0.0107767 0
M  V30 2795 C 271.716 2.52025 -2.56927 0
M  V30 2796 C 271.324 2.024 -3.99673 0
M  V30 2797 C 273.068 3.29269 -2.67922 0
M  V30 2798 C 270.975 3.12521 -5.0208 0
M  V30 2799 H 269.905 0.523132 -0.542999 0
M  V30 2800 H 272.556 0.685349 -1.70221 0
M  V30 2801 H 270.938 3.25253 -2.25891 0
M  V30 2802 H 272.112 1.36073 -4.40251 0
M  V30 2803 H 270.427 1.37987 -3.92872 0
M  V30 2804 H 273.024 4.11352 -3.41605 0
M  V30 2805 H 273.367 3.78397 -1.73555 0
M  V30 2806 H 273.9 2.63129 -2.98342 0
M  V30 2807 H 270.639 2.68343 -5.98057 0
M  V30 2808 H 270.159 3.77507 -4.66099 0
M  V30 2809 H 271.838 3.77385 -5.25538 0
M  V30 2810 N 271.97 1.30982 0.876444 0
M  V30 2811 C 273.198 1.23242 1.6619 0
M  V30 2812 C 273.613 -0.203345 1.87702 0
M  V30 2813 O 272.97 -1.13317 1.43057 0
M  V30 2814 C 273.021 1.96623 3.03351 0
M  V30 2815 O 272.742 3.34594 2.82804 0
M  V30 2816 C 274.243 1.95644 3.97792 0
M  V30 2817 H 271.463 0.426126 0.518322 0
M  V30 2818 H 274.007 1.7275 1.09442 0
M  V30 2819 H 272.162 1.50892 3.56806 0
M  V30 2820 H 272.576 3.71873 3.69879 0
M  V30 2821 H 274.05 2.51511 4.91372 0
M  V30 2822 H 274.527 0.937395 4.2908 0
M  V30 2823 H 275.133 2.41225 3.50272 0
M  V30 2824 N 273.449 -1.08991 1.13837 0
M  V30 2825 C 274.697 -1.80899 0.901098 0
M  V30 2826 C 275.018 -1.86356 -0.574134 0
M  V30 2827 O 274.288 -1.35235 -1.41733 0
M  V30 2828 H 272.868 -0.669966 0.330386 0
M  V30 2829 H 275.53 -1.318 1.43578 0
M  V30 2830 H 274.626 -2.83929 1.29578 0
M  V30 2831 N 274.927 -0.932562 -1.27047 0
M  V30 2832 C 276.343 -0.633544 -1.46487 0
M  V30 2833 C 276.543 0.815746 -1.84249 0
M  V30 2834 O 275.599 1.59319 -1.95892 0
M  V30 2835 C 276.912 -1.58758 -2.55375 0
M  V30 2836 C 278.46 -1.59634 -2.69232 0
M  V30 2837 C 278.935 -2.53747 -3.81283 0
M  V30 2838 N 280.426 -2.51982 -3.88664 0
M  V30 2839 C 281.161 -3.21491 -4.74796 0
M  V30 2840 N 280.657 -4.00395 -5.65381 0
M  V30 2841 N 282.45 -3.10485 -4.68568 0
M  V30 2842 H 274.601 -1.86946 -1.00821 0
M  V30 2843 H 276.864 -0.802897 -0.504044 0
M  V30 2844 H 276.57 -2.62172 -2.34432 0
M  V30 2845 H 276.444 -1.33301 -3.52861 0
M  V30 2846 H 278.831 -0.569488 -2.89553 0
M  V30 2847 H 278.912 -1.89142 -1.72218 0
M  V30 2848 H 278.556 -3.56545 -3.61715 0
M  V30 2849 H 278.486 -2.21532 -4.77735 0
M  V30 2850 H 280.977 -1.94681 -3.23895 0
M  V30 2851 H 281.29 -4.50406 -6.27976 0
M  V30 2852 H 279.635 -4.04498 -5.65161 0
M  V30 2853 H 282.826 -2.48331 -3.96799 0
M  V30 2854 H 282.999 -3.64925 -5.35475 0
M  V30 2855 N 276.405 1.4127 -0.698611 0
M  V30 2856 C 277.816 1.84187 -0.305289 0
M  V30 2857 C 278.167 1.58449 1.15708 0
M  V30 2858 O 277.292 1.05651 1.88856 0
M  V30 2859 C 277.887 3.3435 -0.547314 0
M  V30 2860 C 276.446 3.75826 -0.207878 0
M  V30 2861 C 275.593 2.64647 -0.828099 0
M  V30 2862 H 278.544 1.30778 -0.89904 0
M  V30 2863 H 278.565 3.8001 0.192998 0
M  V30 2864 H 278.077 3.53051 -1.61172 0
M  V30 2865 H 276.178 3.62725 0.852143 0
M  V30 2866 H 276.291 4.74462 -0.665021 0
M  V30 2867 H 274.655 2.53395 -0.257458 0
M  V30 2868 H 275.438 2.86165 -1.89643 0
M  V30 2869 N 277.883 0.443576 1.51229 0
M  V30 2870 C 278.815 -0.400608 2.25672 0
M  V30 2871 C 279.828 -0.980945 1.29928 0
M  V30 2872 O 281.017 -0.874024 1.55638 0
M  V30 2873 C 278.117 -1.57304 3.00181 0
M  V30 2874 C 277.29 -1.11046 4.23069 0
M  V30 2875 C 276.349 -2.15374 4.80105 0
M  V30 2876 O 275.375 -1.74554 5.41774 0
M  V30 2877 N 276.577 -3.47922 4.64683 0
M  V30 2878 H 279.342 0.23745 2.98758 0
M  V30 2879 H 276.903 0.272809 1.59585 0
M  V30 2880 H 278.895 -2.26733 3.35223 0
M  V30 2881 H 277.465 -2.11632 2.30066 0
M  V30 2882 H 276.685 -0.243019 3.9345 0
M  V30 2883 H 277.973 -0.778888 5.02803 0
M  V30 2884 H 277.371 -3.83815 4.15575 0
M  V30 2885 H 275.928 -4.13228 5.0407 0
M  V30 2886 N 279.361 -1.56624 0.175154 0
M  V30 2887 C 280.772 -1.83561 -0.340916 0
M  V30 2888 C 281.123 -1.09511 -1.62794 0
M  V30 2889 O 280.248 -0.349389 -2.13561 0
M  V30 2890 C 280.843 -3.32979 -0.625313 0
M  V30 2891 C 279.402 -3.60399 -1.08581 0
M  V30 2892 C 278.549 -2.77024 -0.123722 0
M  V30 2893 H 281.5 -1.53593 0.399344 0
M  V30 2894 H 281.521 -3.50666 -1.47694 0
M  V30 2895 H 281.033 -3.86847 0.311575 0
M  V30 2896 H 279.134 -3.11945 -2.03767 0
M  V30 2897 H 279.247 -4.68711 -0.992317 0
M  V30 2898 H 277.611 -2.46993 -0.621821 0
M  V30 2899 H 278.394 -3.33674 0.807256 0
M  V30 2900 N 280.839 0.0985539 -1.57292 0
M  V30 2901 C 281.771 1.14595 -1.98496 0
M  V30 2902 C 282.784 1.36512 -0.887031 0
M  V30 2903 O 283.973 1.35225 -1.16518 0
M  V30 2904 C 281.073 2.50216 -2.28572 0
M  V30 2905 C 280.246 2.48624 -3.59868 0
M  V30 2906 C 279.305 3.66146 -3.7792 0
M  V30 2907 O 278.331 3.48795 -4.49812 0
M  V30 2908 N 279.533 4.85496 -3.18235 0
M  V30 2909 H 282.298 0.795277 -2.88956 0
M  V30 2910 H 279.859 0.287579 -1.59325 0
M  V30 2911 H 281.851 3.27432 -2.37845 0
M  V30 2912 H 280.421 2.77387 -1.44136 0
M  V30 2913 H 279.641 1.56978 -3.61596 0
M  V30 2914 H 280.929 2.44635 -4.46129 0
M  V30 2915 H 280.327 5.02497 -2.59833 0
M  V30 2916 H 278.884 5.60317 -3.32999 0
M  V30 2917 N 282.317 1.53212 0.369288 0
M  V30 2918 C 283.563 1.69466 1.11397 0
M  V30 2919 C 283.896 0.443257 1.89074 0
M  V30 2920 O 283.171 -0.559386 1.86282 0
M  V30 2921 C 283.454 2.9422 2.07621 0
M  V30 2922 C 283.307 4.29508 1.33577 0
M  V30 2923 C 284.626 3.14565 3.07794 0
M  V30 2924 H 281.745 0.616667 0.403597 0
M  V30 2925 H 284.387 1.85845 0.395179 0
M  V30 2926 H 282.537 2.80387 2.68916 0
M  V30 2927 H 284.209 4.55147 0.750955 0
M  V30 2928 H 282.452 4.29088 0.637618 0
M  V30 2929 H 283.123 5.12926 2.03989 0
M  V30 2930 H 285.599 3.2756 2.56601 0
M  V30 2931 H 284.475 4.03297 3.72348 0
M  V30 2932 H 284.736 2.29675 3.77759 0
M  V30 2933 N 283.795 -0.628877 1.44509 0
M  V30 2934 C 285.023 -1.41554 1.50897 0
M  V30 2935 C 285.438 -1.8832 0.134564 0
M  V30 2936 O 284.795 -1.60969 -0.859965 0
M  V30 2937 C 284.846 -2.63435 2.47556 0
M  V30 2938 O 284.567 -2.18619 3.79654 0
M  V30 2939 C 286.068 -3.56537 2.63431 0
M  V30 2940 H 283.288 -0.434044 0.511709 0
M  V30 2941 H 285.832 -0.768895 1.89495 0
M  V30 2942 H 283.987 -3.24187 2.12089 0
M  V30 2943 H 284.401 -2.97652 4.31861 0
M  V30 2944 H 285.875 -4.38657 3.35088 0
M  V30 2945 H 286.352 -4.05493 1.68738 0
M  V30 2946 H 286.958 -3.01653 2.9981 0
M  V30 2947 N 285.273 -1.31445 -0.869486 0
M  V30 2948 C 286.519 -1.22347 -1.62489 0
M  V30 2949 C 286.874 0.216204 -1.91181 0
M  V30 2950 O 286.167 1.14977 -1.53268 0
M  V30 2951 C 286.361 -2.00145 -2.96102 0
M  V30 2952 C 286.19 -3.51531 -2.80456 0
M  V30 2953 C 284.96 -4.20882 -2.79618 0
M  V30 2954 C 287.158 -4.46471 -2.5528 0
M  V30 2955 N 285.14 -5.58421 -2.55027 0
M  V30 2956 C 286.511 -5.71682 -2.39957 0
M  V30 2957 C 288.566 -4.35892 -2.40629 0
M  V30 2958 C 287.269 -6.87511 -2.11472 0
M  V30 2959 C 289.295 -5.51505 -2.13532 0
M  V30 2960 C 288.657 -6.75707 -1.98998 0
M  V30 2961 H 284.756 -0.502815 -0.598917 0
M  V30 2962 H 287.34 -1.65639 -1.02332 0
M  V30 2963 H 285.511 -1.59221 -3.54264 0
M  V30 2964 H 287.243 -1.83063 -3.60929 0
M  V30 2965 H 283.998 -3.72857 -2.92018 0
M  V30 2966 H 284.422 -6.30841 -2.45701 0
M  V30 2967 H 289.064 -3.40533 -2.50593 0
M  V30 2968 H 286.782 -7.82897 -2.00245 0
M  V30 2969 H 290.368 -5.45238 -2.02995 0
M  V30 2970 H 289.248 -7.63655 -1.78326 0
M  V30 2971 N 286.751 1.08385 -1.14413 0
M  V30 2972 C 287.681 2.17321 -0.854044 0
M  V30 2973 C 288.662 1.69024 0.191049 0
M  V30 2974 O 289.847 1.94141 0.0476779 0
M  V30 2975 C 286.977 3.45719 -0.330983 0
M  V30 2976 C 285.931 4.07409 -1.31155 0
M  V30 2977 C 285.257 5.30762 -0.64778 0
M  V30 2978 C 286.557 4.48665 -2.67388 0
M  V30 2979 H 288.251 2.41845 -1.76498 0
M  V30 2980 H 285.797 1.16233 -0.850051 0
M  V30 2981 H 287.75 4.21241 -0.115645 0
M  V30 2982 H 286.474 3.2075 0.615381 0
M  V30 2983 H 285.133 3.33919 -1.51306 0
M  V30 2984 H 284.781 5.02078 0.304398 0
M  V30 2985 H 284.481 5.72992 -1.30207 0
M  V30 2986 H 286.005 6.08998 -0.441972 0
M  V30 2987 H 287.419 5.15364 -2.51143 0
M  V30 2988 H 285.816 5.01814 -3.29093 0
M  V30 2989 H 286.886 3.60543 -3.24248 0
M  V30 2990 N 288.23 0.939286 1.26551 0
M  V30 2991 C 289.177 0.446088 2.26448 0
M  V30 2992 C 290.147 -0.493234 1.58608 0
M  V30 2993 O 291.332 -0.409857 1.86346 0
M  V30 2994 C 288.472 -0.284375 3.43926 0
M  V30 2995 C 287.585 0.690399 4.26448 0
M  V30 2996 C 286.72 -0.0610712 5.31165 0
M  V30 2997 C 285.759 0.905649 6.05363 0
M  V30 2998 N 284.896 0.186055 7.01853 0
M  V30 2999 H 289.736 1.30291 2.68008 0
M  V30 3000 H 287.273 0.65371 1.31776 0
M  V30 3001 H 289.231 -0.724313 4.10864 0
M  V30 3002 H 287.861 -1.10535 3.03285 0
M  V30 3003 H 286.913 1.24885 3.59316 0
M  V30 3004 H 288.225 1.42873 4.779 0
M  V30 3005 H 287.379 -0.56038 6.04106 0
M  V30 3006 H 286.118 -0.832297 4.80546 0
M  V30 3007 H 285.123 1.4161 5.3125 0
M  V30 3008 H 286.348 1.67685 6.58072 0
M  V30 3009 H 284.294 -0.566714 6.53548 0
M  V30 3010 H 284.211 0.863752 7.51049 0
M  V30 3011 H 285.479 -0.292221 7.78952 0
M  V30 3012 N 289.708 -1.40897 0.706093 0
M  V30 3013 C 290.956 -2.00657 0.241054 0
M  V30 3014 C 291.277 -1.56241 -1.16678 0
M  V30 3015 O 290.547 -0.79765 -1.78926 0
M  V30 3016 H 289.127 -0.742018 0.0861308 0
M  V30 3017 H 291.789 -1.72372 0.909604 0
M  V30 3018 H 290.885 -3.10958 0.266705 0
M  V30 3019 N 291.186 -0.45159 -1.50991 0
M  V30 3020 C 292.134 0.366864 -2.29689 0
M  V30 3021 C 293.128 1.00809 -1.36139 0
M  V30 3022 O 294.334 0.941427 -1.53418 0
M  V30 3023 H 290.709 0.137133 -0.739391 0
M  V30 3024 H 292.68 -0.317538 -2.96706 0
M  V30 3025 C 291.429 1.44751 -3.16137 0
M  V30 3026 H 290.752 0.963473 -3.88017 0
M  V30 3027 H 292.192 1.99315 -3.74232 0
M  V30 3028 C 290.651 2.43869 -2.32442 0
M  V30 3029 O 291.181 3.4872 -1.99392 0
M  V30 3030 N 289.387 2.15105 -1.95392 0
M  V30 3031 H 288.934 1.29866 -2.22469 0
M  V30 3032 H 288.892 2.81661 -1.39693 0
M  V30 3033 N 292.664 1.56529 -0.183458 0
M  V30 3034 C 293.91 1.97537 0.459036 0
M  V30 3035 C 294.243 1.06989 1.62071 0
M  V30 3036 O 293.518 0.11948 1.94133 0
M  V30 3037 C 293.801 3.47874 0.930368 0
M  V30 3038 C 293.654 4.492 -0.232317 0
M  V30 3039 C 294.973 4.01612 1.79989 0
M  V30 3040 H 292.092 0.718204 0.165383 0
M  V30 3041 H 294.734 1.88042 -0.272038 0
M  V30 3042 H 292.884 3.56095 1.55333 0
M  V30 3043 H 294.556 4.53027 -0.86972 0
M  V30 3044 H 292.799 4.24657 -0.885928 0
M  V30 3045 H 293.47 5.51823 0.139796 0
M  V30 3046 H 295.946 3.96097 1.27461 0
M  V30 3047 H 294.822 5.07195 2.09867 0
M  V30 3048 H 295.083 3.46163 2.74998 0
M  V30 3049 N 294.142 -0.090211 1.57342 0
M  V30 3050 C 295.553 -0.644173 1.75235 0
M  V30 3051 C 295.904 -1.78865 0.806335 0
M  V30 3052 O 295.029 -2.16395 -0.0140128 0
M  V30 3053 C 295.624 -1.17532 3.1776 0
M  V30 3054 C 294.183 -1.67531 3.37061 0
M  V30 3055 C 293.33 -0.58693 2.71017 0
M  V30 3056 H 296.281 0.135884 1.58117 0
M  V30 3057 H 296.302 -2.04455 3.20902 0
M  V30 3058 H 295.814 -0.342138 3.86589 0
M  V30 3059 H 293.915 -2.53234 2.73319 0
M  V30 3060 H 294.028 -1.76493 4.45406 0
M  V30 3061 H 292.392 -1.02756 2.33052 0
M  V30 3062 H 293.175 0.235758 3.4249 0
M  V30 3063 N 295.62 -1.53406 -0.361157 0
M  V30 3064 C 296.55 -1.83136 -1.44857 0
M  V30 3065 C 297.531 -0.685174 -1.5569 0
M  V30 3066 O 298.716 -0.93544 -1.70186 0
M  V30 3067 C 295.846 -2.02522 -2.82138 0
M  V30 3068 C 294.8 -3.18302 -2.86126 0
M  V30 3069 C 294.126 -3.22989 -4.26125 0
M  V30 3070 C 295.426 -4.56796 -2.53248 0
M  V30 3071 H 297.12 -2.74201 -1.20226 0
M  V30 3072 H 294.666 -1.31938 -0.576922 0
M  V30 3073 H 296.619 -2.21904 -3.58241 0
M  V30 3074 H 295.343 -1.08172 -3.08166 0
M  V30 3075 H 294.002 -2.98747 -2.12475 0
M  V30 3076 H 293.65 -2.26267 -4.49235 0
M  V30 3077 H 293.35 -4.00781 -4.29708 0
M  V30 3078 H 294.874 -3.44559 -5.04094 0
M  V30 3079 H 296.288 -4.7631 -3.19064 0
M  V30 3080 H 294.685 -5.36862 -2.68141 0
M  V30 3081 H 295.755 -4.61606 -1.48484 0
M  V30 3082 N 297.098 0.621204 -1.44841 0
M  V30 3083 C 298.03 1.74615 -1.48466 0
M  V30 3084 C 299.043 1.58377 -0.37691 0
M  V30 3085 O 300.232 1.66508 -0.643215 0
M  V30 3086 C 297.332 3.12459 -1.31236 0
M  V30 3087 C 296.505 3.55064 -2.55438 0
M  V30 3088 C 295.564 4.71821 -2.32963 0
M  V30 3089 O 294.59 4.79628 -3.06505 0
M  V30 3090 N 295.792 5.64186 -1.36654 0
M  V30 3091 H 298.557 1.71973 -2.45449 0
M  V30 3092 H 296.118 0.806077 -1.40407 0
M  V30 3093 H 298.11 3.88302 -1.14032 0
M  V30 3094 H 296.68 3.09686 -0.4258 0
M  V30 3095 H 295.9 2.69324 -2.87851 0
M  V30 3096 H 297.188 3.80284 -3.38026 0
M  V30 3097 H 296.586 5.6058 -0.759344 0
M  V30 3098 H 295.143 6.39618 -1.25425 0
M  V30 3099 N 298.576 1.31904 0.862503 0
M  V30 3100 C 299.987 1.19803 1.43193 0
M  V30 3101 C 300.338 -0.192567 1.95253 0
M  V30 3102 O 299.463 -1.09081 1.86896 0
M  V30 3103 C 300.058 2.16883 2.60283 0
M  V30 3104 C 298.617 2.08692 3.13248 0
M  V30 3105 C 297.764 2.05691 1.85975 0
M  V30 3106 H 300.715 1.43846 0.670365 0
M  V30 3107 H 300.736 1.76278 3.37204 0
M  V30 3108 H 300.248 3.18083 2.22363 0
M  V30 3109 H 298.349 1.10713 3.55771 0
M  V30 3110 H 298.462 2.9815 3.75025 0
M  V30 3111 H 296.826 1.50814 2.05249 0
M  V30 3112 H 297.609 3.08659 1.50282 0
M  V30 3113 N 300.054 -1.07777 1.14986 0
M  V30 3114 C 301.279 -1.84558 0.946213 0
M  V30 3115 C 301.704 -1.81323 -0.500362 0
M  V30 3116 O 301.062 -1.20301 -1.35637 0
M  V30 3117 C 301.11 -3.29736 1.45968 0
M  V30 3118 O 300.214 -4.07149 0.65601 0
M  V30 3119 H 299.555 -0.571641 0.33782 0
M  V30 3120 H 302.085 -1.35991 1.52865 0
M  V30 3121 H 302.095 -3.80574 1.47063 0
M  V30 3122 H 300.77 -3.31406 2.51283 0
M  V30 3123 H 299.347 -3.65994 0.714322 0
M  V30 3124 N 301.532 -0.945985 -1.26051 0
M  V30 3125 C 302.495 -0.463897 -2.24456 0
M  V30 3126 C 303.495 0.427655 -1.55009 0
M  V30 3127 O 304.685 0.226157 -1.72726 0
M  V30 3128 C 301.817 0.330812 -3.39291 0
M  V30 3129 H 303.01 -1.33357 -2.68619 0
M  V30 3130 H 300.563 -0.728416 -1.38289 0
M  V30 3131 H 301.298 1.21852 -3.00537 0
M  V30 3132 H 301.083 -0.308679 -3.90883 0
M  V30 3133 H 302.573 0.657865 -4.12386 0
M  V30 3134 N 303.011 1.40521 -0.713556 0
M  V30 3135 C 304.427 1.54839 -0.386907 0
M  V30 3136 C 304.627 1.68532 1.1045 0
M  V30 3137 O 303.683 1.67377 1.89053 0
M  V30 3138 C 304.996 2.77792 -1.15118 0
M  V30 3139 C 306.544 2.91607 -1.13729 0
M  V30 3140 C 307.019 4.1747 -1.88368 0
M  V30 3141 N 308.51 4.24466 -1.85427 0
M  V30 3142 C 309.245 5.20755 -2.40004 0
M  V30 3143 N 308.741 6.22965 -3.03129 0
M  V30 3144 N 310.534 5.1282 -2.30158 0
M  V30 3145 H 302.685 1.29879 -1.68063 0
M  V30 3146 H 304.948 0.627896 -0.710247 0
M  V30 3147 H 304.654 2.73944 -2.20561 0
M  V30 3148 H 304.528 3.6984 -0.741477 0
M  V30 3149 H 306.915 2.94959 -0.0910608 0
M  V30 3150 H 306.996 2.00682 -1.5862 0
M  V30 3151 H 306.64 4.1488 -2.9298 0
M  V30 3152 H 306.57 5.074 -1.40898 0
M  V30 3153 H 309.061 3.51241 -1.3942 0
M  V30 3154 H 309.374 6.92859 -3.42295 0
M  V30 3155 H 307.719 6.23415 -3.07212 0
M  V30 3156 H 310.91 4.31899 -1.80501 0
M  V30 3157 H 311.083 5.87689 -2.72993 0
M  V30 3158 N 304.489 0.459591 1.5075 0
M  V30 3159 C 305.735 -0.0994966 2.02556 0
M  V30 3160 C 306.068 -1.40399 1.3417 0
M  V30 3161 O 305.343 -1.88892 0.463683 0
M  V30 3162 C 305.626 -0.295242 3.58888 0
M  V30 3163 C 305.479 1.02947 4.37861 0
M  V30 3164 C 306.798 -1.05502 4.27267 0
M  V30 3165 H 303.917 -0.034686 0.736183 0
M  V30 3166 H 306.559 0.602938 1.8018 0
M  V30 3167 H 304.709 -0.893563 3.78084 0
M  V30 3168 H 306.381 1.66348 4.30263 0
M  V30 3169 H 304.624 1.62885 4.02058 0
M  V30 3170 H 305.295 0.846281 5.45474 0
M  V30 3171 H 307.771 -0.547993 4.12476 0
M  V30 3172 H 306.647 -1.16077 5.36486 0
M  V30 3173 H 306.908 -2.08875 3.89645 0
M  V30 3174 N 305.967 -1.56429 0.191757 0
M  V30 3175 C 307.192 -2.02309 -0.456706 0
M  V30 3176 C 307.617 -1.07103 -1.5463 0
M  V30 3177 O 306.975 -0.0539677 -1.8122 0
M  V30 3178 C 307.023 -3.46654 -0.993159 0
M  V30 3179 O 306.127 -3.54559 -2.10622 0
M  V30 3180 H 305.468 -0.655303 -0.107114 0
M  V30 3181 H 307.998 -2.02364 0.301653 0
M  V30 3182 H 308.008 -3.86377 -1.31061 0
M  V30 3183 H 306.683 -4.1544 -0.195504 0
M  V30 3184 H 305.26 -3.26708 -1.79767 0
M  V30 3185 N 307.445 0.0818655 -1.57387 0
M  V30 3186 C 308.691 0.784074 -1.8703 0
M  V30 3187 C 309.024 1.77729 -0.782689 0
M  V30 3188 O 308.299 1.93384 0.208051 0
M  V30 3189 C 308.582 1.50105 -3.27323 0
M  V30 3190 C 308.435 0.524925 -4.46727 0
M  V30 3191 C 309.754 2.44843 -3.65705 0
M  V30 3192 H 306.873 0.283582 -0.680257 0
M  V30 3193 H 309.515 0.0474352 -1.89941 0
M  V30 3194 H 307.665 2.12897 -3.24972 0
M  V30 3195 H 309.337 -0.0970111 -4.61198 0
M  V30 3196 H 307.58 -0.160606 -4.33503 0
M  V30 3197 H 308.251 1.064 -5.41648 0
M  V30 3198 H 310.727 1.92135 -3.69085 0
M  V30 3199 H 309.603 2.92018 -4.64776 0
M  V30 3200 H 309.864 3.29197 -2.95096 0
M  V30 3201 N 308.923 1.53595 0.353017 0
M  V30 3202 C 310.148 1.7462 1.11904 0
M  V30 3203 C 310.573 0.479721 1.8188 0
M  V30 3204 O 309.931 -0.567066 1.72204 0
M  V30 3205 C 309.979 2.92029 2.11545 0
M  V30 3206 O 309.083 2.61516 3.18878 0
M  V30 3207 H 308.424 0.579531 0.324099 0
M  V30 3208 H 310.954 2.00525 0.406301 0
M  V30 3209 H 310.964 3.18551 2.5493 0
M  V30 3210 H 309.639 3.83888 1.60008 0
M  V30 3211 H 308.216 2.45852 2.80377 0
M  V30 3212 N 310.401 -0.613514 1.45168 0
M  V30 3213 C 311.311 -1.75296 1.55912 0
M  V30 3214 C 312.327 -1.68244 0.443856 0
M  V30 3215 O 313.503 -1.88706 0.70371 0
M  V30 3216 C 310.568 -3.1174 1.5172 0
M  V30 3217 C 309.629 -3.30291 2.74238 0
M  V30 3218 C 308.862 -4.60226 2.70236 0
M  V30 3219 O 309.085 -5.42168 1.77229 0
M  V30 3220 O 308.019 -4.81361 3.61352 0
M  V30 3221 H 311.845 -1.69183 2.52212 0
M  V30 3222 H 309.43 -0.776886 1.27612 0
M  V30 3223 H 311.312 -3.93044 1.51968 0
M  V30 3224 H 309.987 -3.18357 0.585697 0
M  V30 3225 H 308.894 -2.48598 2.79553 0
M  V30 3226 H 310.227 -3.28547 3.66494 0
M  V30 3227 N 311.879 -1.3236 -0.855495 0
M  V30 3228 C 312.826 -1.21225 -1.964 0
M  V30 3229 C 313.796 -0.0946204 -1.6583 0
M  V30 3230 O 314.981 -0.27002 -1.8888 0
M  V30 3231 C 312.121 -0.940419 -3.32039 0
M  V30 3232 C 311.234 -2.14276 -3.75113 0
M  V30 3233 C 310.369 -1.80648 -4.9954 0
M  V30 3234 C 309.408 -2.97208 -5.35102 0
M  V30 3235 N 308.545 -2.63678 -6.50706 0
M  V30 3236 H 313.385 -2.16042 -2.05255 0
M  V30 3237 H 310.922 -1.07451 -1.00463 0
M  V30 3238 H 312.88 -0.763311 -4.10158 0
M  V30 3239 H 311.51 -0.0290413 -3.22787 0
M  V30 3240 H 310.562 -2.43017 -2.92655 0
M  V30 3241 H 311.874 -3.01468 -3.97389 0
M  V30 3242 H 311.028 -1.59484 -5.85363 0
M  V30 3243 H 309.767 -0.906678 -4.79198 0
M  V30 3244 H 308.772 -3.19004 -4.47791 0
M  V30 3245 H 309.997 -3.87918 -5.57401 0
M  V30 3246 H 307.943 -1.76238 -6.31883 0
M  V30 3247 H 307.86 -3.444 -6.72997 0
M  V30 3248 H 309.128 -2.45942 -7.39684 0
M  V30 3249 N 313.357 1.07166 -1.15556 0
M  V30 3250 C 314.305 2.16517 -0.8499 0
M  V30 3251 C 315.299 1.68468 0.177454 0
M  V30 3252 O 316.505 1.79971 0.0323026 0
M  V30 3253 H 312.88 0.706652 -0.25719 0
M  V30 3254 H 314.851 2.39514 -1.77976 0
M  V30 3255 C 313.6 3.45855 -0.357682 0
M  V30 3256 H 312.923 3.83214 -1.13961 0
M  V30 3257 H 314.363 4.23607 -0.182489 0
M  V30 3258 C 312.822 3.24062 0.921152 0
M  V30 3259 O 313.352 3.48813 1.9923 0
M  V30 3260 N 311.558 2.77539 0.86141 0
M  V30 3261 H 311.105 2.57598 -0.0104408 0
M  V30 3262 H 311.063 2.63337 1.71758 0
M  V30 3263 N 314.835 0.952656 1.25548 0
M  V30 3264 C 316.083 0.605176 1.92826 0
M  V30 3265 C 316.404 -0.860261 1.74999 0
M  V30 3266 O 315.674 -1.6125 1.11244 0
M  V30 3267 H 314.254 0.220832 0.713612 0
M  V30 3268 H 316.916 1.21047 1.52754 0
M  V30 3269 H 316.012 0.832798 3.00784 0
M  V30 3270 N 316.313 -1.40141 0.720998 0
M  V30 3271 C 317.246 -2.2819 0.020916 0
M  V30 3272 C 318.224 -1.43633 -0.762129 0
M  V30 3273 O 319.408 -1.7304 -0.747633 0
M  V30 3274 C 316.535 -3.24281 -0.977715 0
M  V30 3275 C 315.581 -4.25548 -0.284836 0
M  V30 3276 S 316.414 -5.26247 0.991169 0
M  V30 3277 C 317.57 -6.259 -0.0052214 0
M  V30 3278 H 317.803 -2.87218 0.767649 0
M  V30 3279 H 315.336 -1.45656 0.512233 0
M  V30 3280 H 317.294 -3.80167 -1.54865 0
M  V30 3281 H 315.955 -2.643 -1.69719 0
M  V30 3282 H 315.148 -4.93154 -1.03996 0
M  V30 3283 H 314.75 -3.73389 0.213684 0
M  V30 3284 H 317.042 -6.72143 -0.850279 0
M  V30 3285 H 317.985 -7.05224 0.637599 0
M  V30 3286 H 318.393 -5.63277 -0.371366 0
M  V30 3287 N 317.792 -0.46758 -1.50504 0
M  V30 3288 C 318.724 0.364655 -2.26281 0
M  V30 3289 C 319.737 0.960151 -1.31472 0
M  V30 3290 O 320.926 0.849153 -1.57008 0
M  V30 3291 C 318.026 1.52509 -3.02645 0
M  V30 3292 C 317.199 1.04302 -4.24782 0
M  V30 3293 C 316.258 2.07709 -4.8347 0
M  V30 3294 O 315.284 1.65913 -5.44483 0
M  V30 3295 N 316.486 3.40485 -4.70159 0
M  V30 3296 H 319.251 -0.28495 -2.98342 0
M  V30 3297 H 316.812 -0.298163 -1.59131 0
M  V30 3298 H 318.804 2.21371 -3.38787 0
M  V30 3299 H 317.374 2.07945 -2.33404 0
M  V30 3300 H 316.594 0.180393 -3.93787 0
M  V30 3301 H 317.882 0.698798 -5.03978 0
M  V30 3302 H 317.28 3.77155 -4.21629 0
M  V30 3303 H 315.837 4.05156 -5.1058 0
M  V30 3304 N 319.27 1.56325 -0.20005 0
M  V30 3305 C 320.516 1.98012 0.438059 0
M  V30 3306 C 320.849 1.08702 1.60927 0
M  V30 3307 O 320.124 0.140064 1.93995 0
M  V30 3308 C 320.407 3.48841 0.893419 0
M  V30 3309 C 320.26 4.48928 -0.279947 0
M  V30 3310 C 321.579 4.03498 1.75719 0
M  V30 3311 H 318.698 0.719918 0.157757 0
M  V30 3312 H 321.34 1.87743 -0.291968 0
M  V30 3313 H 319.49 3.57723 1.51547 0
M  V30 3314 H 321.162 4.52079 -0.91772 0
M  V30 3315 H 319.405 4.23694 -0.930919 0
M  V30 3316 H 320.076 5.5194 0.0812601 0
M  V30 3317 H 322.552 3.97427 1.23253 0
M  V30 3318 H 321.428 5.09393 2.04476 0
M  V30 3319 H 321.689 3.4906 2.71311 0
M  V30 3320 N 320.748 -0.0735177 1.57428 0
M  V30 3321 C 321.678 -1.0879 2.06608 0
M  V30 3322 C 322.659 -1.40473 0.959237 0
M  V30 3323 O 323.844 -1.5013 1.23185 0
M  V30 3324 C 320.974 -2.40183 2.50857 0
M  V30 3325 C 319.928 -2.22858 3.65402 0
M  V30 3326 C 319.254 -3.59619 3.957 0
M  V30 3327 C 320.554 -1.65123 4.95511 0
M  V30 3328 H 322.248 -0.678673 2.91607 0
M  V30 3329 H 319.794 -0.325013 1.40284 0
M  V30 3330 H 321.747 -3.11437 2.83874 0
M  V30 3331 H 320.471 -2.83083 1.62885 0
M  V30 3332 H 319.13 -1.54045 3.32664 0
M  V30 3333 H 318.778 -4.00086 3.04861 0
M  V30 3334 H 318.478 -3.48866 4.72828 0
M  V30 3335 H 320.002 -4.32306 4.31212 0
M  V30 3336 H 321.416 -2.26241 5.26771 0
M  V30 3337 H 319.813 -1.65071 5.7695 0
M  V30 3338 H 320.883 -0.612559 4.81015 0
M  V30 3339 N 322.226 -1.5378 -0.344866 0
M  V30 3340 C 323.136 -1.84667 -1.4469 0
M  V30 3341 C 324.152 -0.736704 -1.57635 0
M  V30 3342 O 325.328 -1.02888 -1.73136 0
M  V30 3343 C 322.393 -2.04869 -2.79696 0
M  V30 3344 C 321.454 -3.28731 -2.76106 0
M  V30 3345 C 320.687 -3.4796 -4.04673 0
M  V30 3346 O 320.91 -2.71052 -5.01883 0
M  V30 3347 O 319.844 -4.41383 -4.09224 0
M  V30 3348 H 323.67 -2.78334 -1.21506 0
M  V30 3349 H 321.255 -1.39418 -0.536921 0
M  V30 3350 H 323.137 -2.19609 -3.59652 0
M  V30 3351 H 321.812 -1.14391 -3.02814 0
M  V30 3352 H 320.719 -3.19396 -1.94774 0
M  V30 3353 H 322.052 -4.19198 -2.57941 0
M  V30 3354 N 323.704 0.605807 -1.45491 0
M  V30 3355 C 324.953 1.36086 -1.48874 0
M  V30 3356 C 325.266 1.95131 -0.135333 0
M  V30 3357 O 326.472 2.7146 -0.0468144 0
M  V30 3358 C 324.928 2.46518 -2.62215 0
M  V30 3359 C 324.536 1.93877 -4.03876 0
M  V30 3360 C 326.28 3.23512 -2.74846 0
M  V30 3361 C 324.187 3.01801 -5.08596 0
M  V30 3362 H 323.117 0.511497 -0.553974 0
M  V30 3363 H 325.768 0.649089 -1.71636 0
M  V30 3364 H 324.15 3.20388 -2.32739 0
M  V30 3365 H 325.324 1.26704 -4.43038 0
M  V30 3366 H 323.639 1.29622 -3.95711 0
M  V30 3367 H 326.236 4.04013 -3.50253 0
M  V30 3368 H 326.579 3.74631 -1.81542 0
M  V30 3369 H 327.112 2.56742 -3.03856 0
M  V30 3370 H 323.851 2.55597 -6.03614 0
M  V30 3371 H 323.371 3.67535 -4.74002 0
M  V30 3372 H 325.05 3.66152 -5.33424 0
M  V30 3373 N 325.182 1.32811 0.848464 0
M  V30 3374 C 326.132 1.18842 1.94578 0
M  V30 3375 C 327.116 0.0937517 1.60627 0
M  V30 3376 O 328.308 0.320887 1.74067 0
M  V30 3377 C 325.437 0.91999 3.30743 0
M  V30 3378 C 324.523 2.05665 3.70894 0
M  V30 3379 N 324.914 3.30579 3.8282 0
M  V30 3380 C 323.212 1.9612 4.00566 0
M  V30 3381 C 323.913 4.05067 4.17487 0
M  V30 3382 N 322.889 3.33419 4.2934 0
M  V30 3383 H 326.691 2.13536 2.0194 0
M  V30 3384 H 324.205 1.2468 1.0406 0
M  V30 3385 H 326.202 0.800859 4.09136 0
M  V30 3386 H 324.862 -0.0185076 3.24695 0
M  V30 3387 H 325.873 3.65441 3.66978 0
M  V30 3388 H 322.55 1.09871 4.02784 0
M  V30 3389 H 323.94 5.12815 4.34131 0
M  V30 3390 N 326.66 -1.06551 1.16123 0
M  V30 3391 C 327.908 -1.78947 0.939267 0
M  V30 3392 C 328.229 -1.87532 -0.534476 0
M  V30 3393 O 327.499 -1.38211 -1.38833 0
M  V30 3394 H 326.079 -0.662807 0.344523 0
M  V30 3395 H 328.741 -1.28725 1.46342 0
M  V30 3396 H 327.837 -2.81117 1.35572 0
M  V30 3397 N 328.138 -0.959301 -1.25041 0
M  V30 3398 C 329.384 -0.617525 -1.9317 0
M  V30 3399 C 329.717 0.843981 -1.74902 0
M  V30 3400 O 328.992 1.60615 -1.09696 0
M  V30 3401 C 329.275 -0.982736 -3.46431 0
M  V30 3402 C 329.128 -2.50032 -3.73904 0
M  V30 3403 C 330.447 -0.511176 -4.37121 0
M  V30 3404 H 327.566 -0.22582 -0.701552 0
M  V30 3405 H 330.208 -1.19679 -1.4757 0
M  V30 3406 H 328.358 -0.489806 -3.854 0
M  V30 3407 H 330.03 -3.06737 -3.44544 0
M  V30 3408 H 328.273 -2.93598 -3.19348 0
M  V30 3409 H 328.944 -2.70635 -4.81103 0
M  V30 3410 H 331.42 -0.934075 -4.0548 0
M  V30 3411 H 330.296 -0.795361 -5.43107 0
M  V30 3412 H 330.557 0.588834 -4.38161 0
M  V30 3413 N 329.616 1.39756 -0.72842 0
M  V30 3414 C 330.564 2.32485 -0.0731849 0
M  V30 3415 C 331.558 1.52717 0.733063 0
M  V30 3416 O 332.764 1.68428 0.634988 0
M  V30 3417 H 329.139 0.751984 -0.00486469 0
M  V30 3418 H 331.11 2.85382 -0.871761 0
M  V30 3419 C 329.859 3.37773 0.824908 0
M  V30 3420 H 329.182 3.99227 0.213915 0
M  V30 3421 H 330.622 4.05121 1.25111 0
M  V30 3422 C 329.081 2.74287 1.95622 0
M  V30 3423 O 329.611 2.61618 3.04826 0
M  V30 3424 N 327.817 2.32475 1.74367 0
M  V30 3425 H 327.364 2.4298 0.855494 0
M  V30 3426 H 327.322 1.90337 2.50238 0
M  V30 3427 N 331.094 0.475555 1.50254 0
M  V30 3428 C 332.026 -0.352649 2.26471 0
M  V30 3429 C 333.039 -0.953165 1.3198 0
M  V30 3430 O 334.228 -0.840815 1.57457 0
M  V30 3431 C 331.328 -1.50902 3.0345 0
M  V30 3432 C 330.501 -1.02047 4.25329 0
M  V30 3433 C 329.56 -2.05142 4.84565 0
M  V30 3434 O 328.586 -1.63023 5.45355 0
M  V30 3435 N 329.788 -3.37987 4.71959 0
M  V30 3436 H 332.553 0.300767 2.98187 0
M  V30 3437 H 330.114 0.306598 1.5897 0
M  V30 3438 H 332.106 -2.19572 3.39956 0
M  V30 3439 H 330.676 -2.06705 2.34504 0
M  V30 3440 H 329.896 -0.159507 3.93877 0
M  V30 3441 H 331.184 -0.672061 5.04342 0
M  V30 3442 H 330.582 -3.74913 4.23623 0
M  V30 3443 H 329.139 -4.02443 5.12721 0
M  V30 3444 N 332.573 -1.56217 0.208337 0
M  V30 3445 C 333.85 -1.89739 -0.475234 0
M  V30 3446 C 334.23 -1.1238 -1.78701 0
M  V30 3447 O 333.578 -0.228979 -2.2735 0
M  V30 3448 C 333.788 -3.42289 -0.681101 0
M  V30 3449 C 335.136 -4.12789 -0.994507 0
M  V30 3450 O 336.16 -3.47814 -0.768357 0
M  V30 3451 O 335.019 -5.27649 -1.42299 0
M  V30 3452 H 332.113 -0.788478 -0.249461 0
M  V30 3453 H 334.659 -1.67855 0.249538 0
M  V30 3454 H 333.431 -3.90534 0.244722 0
M  V30 3455 H 333.054 -3.69909 -1.45785 0
M  V30 3456 N 334.051 0.0651679 -1.57465 0
M  V30 3457 C 335.328 0.79644 -1.78651 0
M  V30 3458 C 335.708 1.95454 -0.797566 0
M  V30 3459 O 335.056 2.27882 0.167946 0
M  V30 3460 C 335.266 1.26322 -3.25337 0
M  V30 3461 C 336.614 1.6939 -3.89348 0
M  V30 3462 O 337.638 1.35872 -3.29268 0
M  V30 3463 O 336.497 2.31471 -4.95059 0
M  V30 3464 H 333.591 0.382157 -0.733407 0
M  V30 3465 H 336.137 0.0447311 -1.69641 0
M  V30 3466 H 334.909 0.434859 -3.88876 0
M  V30 3467 H 334.532 2.07604 -3.39096 0
M  V30 3468 N 335.529 1.53961 0.336706 0
M  V30 3469 C 336.775 1.7179 1.07777 0
M  V30 3470 C 337.108 0.483263 1.88091 0
M  V30 3471 O 336.383 -0.519747 1.87427 0
M  V30 3472 C 336.666 2.98558 2.01334 0
M  V30 3473 C 336.519 4.32245 1.24437 0
M  V30 3474 C 337.838 3.21023 3.01052 0
M  V30 3475 H 334.957 0.625089 0.390426 0
M  V30 3476 H 337.599 1.86641 0.35567 0
M  V30 3477 H 335.749 2.86028 2.62908 0
M  V30 3478 H 337.421 4.56637 0.654243 0
M  V30 3479 H 335.664 4.30344 0.546458 0
M  V30 3480 H 336.335 5.17137 1.93063 0
M  V30 3481 H 338.811 3.32929 2.49595 0
M  V30 3482 H 337.687 4.11104 3.6371 0
M  V30 3483 H 337.948 2.37637 3.72802 0
M  V30 3484 N 337.007 -0.598083 1.45811 0
M  V30 3485 C 338.255 -1.35413 1.50026 0
M  V30 3486 C 338.576 -1.94444 0.147177 0
M  V30 3487 O 337.846 -1.77701 -0.824571 0
M  V30 3488 H 336.426 -0.502727 0.552517 0
M  V30 3489 H 339.088 -0.701606 1.81834 0
M  V30 3490 H 338.184 -2.16871 2.2444 0
M  V30 3491 N 338.485 -1.33259 -0.841409 0
M  V30 3492 C 339.731 -1.24757 -1.59886 0
M  V30 3493 C 340.064 0.186913 -1.93298 0
M  V30 3494 O 339.339 1.12757 -1.5848 0
M  V30 3495 C 339.622 -2.12036 -2.91055 0
M  V30 3496 C 339.475 -3.63929 -2.6434 0
M  V30 3497 C 340.794 -1.9916 -3.92458 0
M  V30 3498 H 337.913 -0.454542 -0.580138 0
M  V30 3499 H 340.555 -1.63335 -0.970647 0
M  V30 3500 H 338.705 -1.79265 -3.44669 0
M  V30 3501 H 340.377 -4.06978 -2.17178 0
M  V30 3502 H 338.62 -3.85935 -1.98082 0
M  V30 3503 H 339.291 -4.20341 -3.57796 0
M  V30 3504 H 341.767 -2.27895 -3.48143 0
M  V30 3505 H 340.643 -2.62484 -4.82072 0
M  V30 3506 H 340.904 -0.963082 -4.31482 0
M  V30 3507 N 339.963 1.05934 -1.16686 0
M  V30 3508 C 341.193 1.82226 -0.973515 0
M  V30 3509 C 341.601 1.8297 0.481532 0
M  V30 3510 O 340.944 1.25009 1.34604 0
M  V30 3511 C 341.006 3.29897 -1.42858 0
M  V30 3512 C 340.67 3.52849 -2.90425 0
M  V30 3513 C 341.667 3.45595 -3.88407 0
M  V30 3514 C 339.352 3.80053 -3.28428 0
M  V30 3515 C 341.346 3.65217 -5.22394 0
M  V30 3516 C 339.033 3.99325 -4.62583 0
M  V30 3517 C 340.031 3.91905 -5.59374 0
M  V30 3518 O 339.719 4.10647 -6.91104 0
M  V30 3519 H 339.451 0.581314 -0.345036 0
M  V30 3520 H 342.005 1.3453 -1.55212 0
M  V30 3521 H 340.235 3.78472 -0.793477 0
M  V30 3522 H 341.924 3.87692 -1.20207 0
M  V30 3523 H 342.69 3.24564 -3.60393 0
M  V30 3524 H 338.569 3.84936 -2.53664 0
M  V30 3525 H 342.113 3.59341 -5.9793 0
M  V30 3526 H 338.01 4.19846 -4.90306 0
M  V30 3527 H 338.778 4.27915 -6.97733 0
M  V30 3528 N 341.441 0.965919 1.2453 0
M  V30 3529 C 342.669 0.644385 1.96609 0
M  V30 3530 C 343.084 -0.785823 1.71669 0
M  V30 3531 O 342.441 -1.52703 0.999399 0
M  V30 3532 C 342.492 0.907375 3.49927 0
M  V30 3533 O 342.213 2.28136 3.74013 0
M  V30 3534 C 343.714 0.599784 4.39224 0
M  V30 3535 H 340.934 0.240588 0.626385 0
M  V30 3536 H 343.478 1.29337 1.58405 0
M  V30 3537 H 341.633 0.304631 3.862 0
M  V30 3538 H 342.047 2.36002 4.68405 0
M  V30 3539 H 343.521 0.834263 5.45659 0
M  V30 3540 H 343.998 -0.465921 4.36722 0
M  V30 3541 H 344.604 1.18235 4.08535 0
M  V30 3542 N 342.919 -1.39368 0.735821 0
M  V30 3543 C 344.159 -2.02349 0.288813 0
M  V30 3544 C 344.523 -1.57127 -1.10341 0
M  V30 3545 O 345.724 -2.12312 -1.64854 0
M  V30 3546 C 343.995 -3.55288 0.387986 0
M  V30 3547 S 345.554 -4.38795 0.0209408 0
M  V30 3548 H 342.372 -0.701944 0.113115 0
M  V30 3549 H 344.974 -1.70164 0.962518 0
M  V30 3550 H 343.678 -3.85691 1.40252 0
M  V30 3551 H 343.209 -3.92227 -0.303512 0
M  V30 3552 H 345.224 -4.81595 -1.19503 0
M  V30 3553 N 344.397 -0.483516 -1.5 0
M  V30 3554 C 345.327 0.293829 -2.31644 0
M  V30 3555 C 346.308 0.978864 -1.39112 0
M  V30 3556 O 347.493 0.973644 -1.68029 0
M  V30 3557 C 344.623 1.36897 -3.19181 0
M  V30 3558 C 343.577 0.804833 -4.20365 0
M  V30 3559 C 342.903 1.9792 -4.96721 0
M  V30 3560 C 344.203 -0.192313 -5.21946 0
M  V30 3561 H 345.897 -0.387616 -2.9688 0
M  V30 3562 H 343.443 -0.187856 -1.42769 0
M  V30 3563 H 345.396 1.92037 -3.751 0
M  V30 3564 H 344.12 2.07936 -2.51853 0
M  V30 3565 H 342.779 0.275319 -3.65565 0
M  V30 3566 H 342.427 2.67686 -4.25856 0
M  V30 3567 H 342.127 1.60789 -5.65173 0
M  V30 3568 H 343.651 2.53526 -5.55479 0
M  V30 3569 H 345.065 0.270333 -5.72662 0
M  V30 3570 H 343.462 -0.478543 -5.98189 0
M  V30 3571 H 344.532 -1.11409 -4.71928 0
M  V30 3572 N 345.875 1.56104 -0.216619 0
M  V30 3573 C 347.121 1.98466 0.417033 0
M  V30 3574 C 347.454 1.10403 1.59765 0
M  V30 3575 O 346.729 0.160632 1.93836 0
M  V30 3576 C 347.012 3.49769 0.85637 0
M  V30 3577 C 346.865 4.48606 -0.327546 0
M  V30 3578 C 348.184 4.05339 1.7143 0
M  V30 3579 H 345.303 0.721551 0.150112 0
M  V30 3580 H 347.945 1.87423 -0.311864 0
M  V30 3581 H 346.095 3.5931 1.47745 0
M  V30 3582 H 347.767 4.5108 -0.965618 0
M  V30 3583 H 346.01 4.22682 -0.975805 0
M  V30 3584 H 346.681 5.51995 0.0227149 0
M  V30 3585 H 349.157 3.98712 1.19031 0
M  V30 3586 H 348.033 5.11533 1.99061 0
M  V30 3587 H 348.294 3.51918 2.67593 0
M  V30 3588 N 347.353 -0.0568162 1.57498 0
M  V30 3589 C 348.599 -0.75422 1.88253 0
M  V30 3590 C 348.932 -1.76461 0.810865 0
M  V30 3591 O 348.207 -1.93691 -0.177259 0
M  V30 3592 C 348.49 -1.44878 3.2967 0
M  V30 3593 C 348.343 -0.453789 4.47505 0
M  V30 3594 C 349.662 -2.38994 3.69554 0
M  V30 3595 H 346.781 -0.272724 0.684683 0
M  V30 3596 H 349.423 -0.0172113 1.89992 0
M  V30 3597 H 347.573 -2.077 3.28318 0
M  V30 3598 H 349.245 0.170371 4.60985 0
M  V30 3599 H 347.488 0.229552 4.33192 0
M  V30 3600 H 348.159 -0.977699 5.43273 0
M  V30 3601 H 350.635 -1.86239 3.72095 0
M  V30 3602 H 349.511 -2.84587 4.69363 0
M  V30 3603 H 349.772 -3.24461 3.00296 0
M  V30 3604 N 348.832 -1.54138 -0.328536 0
M  V30 3605 C 349.78 -1.83894 -1.42428 0
M  V30 3606 C 350.774 -0.710478 -1.53781 0
M  V30 3607 O 351.98 -0.894062 -1.56226 0
M  V30 3608 H 348.355 -0.582837 -0.475189 0
M  V30 3609 H 350.326 -2.75537 -1.14552 0
M  V30 3610 C 349.075 -2.07866 -2.78724 0
M  V30 3611 H 348.398 -2.94158 -2.7076 0
M  V30 3612 H 349.838 -2.32644 -3.54476 0
M  V30 3613 C 348.297 -0.868689 -3.25508 0
M  V30 3614 O 348.827 -0.0754908 -4.01629 0
M  V30 3615 N 347.033 -0.681711 -2.82491 0
M  V30 3616 H 346.58 -1.32838 -2.20708 0
M  V30 3617 H 346.538 0.126374 -3.14146 0
M  V30 3618 N 350.31 0.590341 -1.46126 0
M  V30 3619 C 351.558 1.34616 -1.50742 0
M  V30 3620 C 351.879 1.94363 -0.157486 0
M  V30 3621 O 351.149 1.78136 0.815136 0
M  V30 3622 H 349.729 0.499789 -0.555175 0
M  V30 3623 H 352.391 0.691953 -1.82203 0
M  V30 3624 H 351.487 2.15678 -2.25587 0
M  V30 3625 N 351.788 1.33704 0.83433 0
M  V30 3626 C 353.013 1.28615 1.62705 0
M  V30 3627 C 353.438 -0.139242 1.87584 0
M  V30 3628 O 352.796 -1.09734 1.4432 0
M  V30 3629 C 352.844 2.07139 2.95171 0
M  V30 3630 O 351.948 1.4331 3.86699 0
M  V30 3631 H 351.289 0.44226 0.49528 0
M  V30 3632 H 353.819 1.76335 1.03766 0
M  V30 3633 H 353.829 2.18073 3.44831 0
M  V30 3634 H 352.504 3.10779 2.76386 0
M  V30 3635 H 351.081 1.4105 3.45195 0
M  V30 3636 N 353.266 -1.05314 1.17247 0
M  V30 3637 C 354.514 -1.77941 0.958194 0
M  V30 3638 C 354.835 -1.88089 -0.514556 0
M  V30 3639 O 354.105 -1.39676 -1.37359 0
M  V30 3640 H 352.685 -0.659116 0.351533 0
M  V30 3641 H 355.347 -1.27166 1.47699 0
M  V30 3642 H 354.443 -2.79663 1.38546 0
M  V30 3643 N 354.744 -0.972509 -1.24016 0
M  V30 3644 C 355.691 -0.505969 -2.25186 0
M  V30 3645 C 356.661 0.451009 -1.5986 0
M  V30 3646 O 357.846 0.360307 -1.87367 0
M  V30 3647 C 354.986 0.193089 -3.44559 0
M  V30 3648 C 354.099 -0.803222 -4.24467 0
M  V30 3649 C 353.234 -0.0797793 -5.3114 0
M  V30 3650 C 352.273 -1.06583 -6.02749 0
M  V30 3651 N 351.41 -0.372074 -7.01113 0
M  V30 3652 H 356.25 -1.37351 -2.64459 0
M  V30 3653 H 353.787 -0.688419 -1.29997 0
M  V30 3654 H 355.745 0.615125 -4.1264 0
M  V30 3655 H 354.375 1.02455 -3.06109 0
M  V30 3656 H 353.427 -1.34368 -3.55878 0
M  V30 3657 H 354.739 -1.55494 -4.73944 0
M  V30 3658 H 353.893 0.400015 -6.0538 0
M  V30 3659 H 352.632 0.704597 -4.82583 0
M  V30 3660 H 351.637 -1.55645 -5.27309 0
M  V30 3661 H 352.862 -1.85074 -6.53395 0
M  V30 3662 H 350.808 0.393238 -6.5482 0
M  V30 3663 H 350.725 -1.06258 -7.48495 0
M  V30 3664 H 351.993 0.0855932 -7.79453 0
M  V30 3665 N 356.222 1.38976 -0.743202 0
M  V30 3666 C 357.185 2.28901 -0.117014 0
M  V30 3667 C 358.185 1.46698 0.658503 0
M  V30 3668 O 359.375 1.67274 0.486305 0
M  V30 3669 C 356.507 3.30309 0.84315 0
M  V30 3670 H 357.7 2.8578 -0.909373 0
M  V30 3671 H 355.253 1.47761 -0.509547 0
M  V30 3672 H 355.988 2.785 1.66157 0
M  V30 3673 H 355.773 3.91029 0.289594 0
M  V30 3674 H 357.263 3.97577 1.2776 0
M  V30 3675 N 357.7 0.491464 1.49741 0
M  V30 3676 C 358.925 -0.0557177 2.07325 0
M  V30 3677 C 359.35 -1.30925 1.35056 0
M  V30 3678 O 358.708 -1.76733 0.404365 0
M  V30 3679 C 358.756 -0.302074 3.59333 0
M  V30 3680 O 357.86 -1.37868 3.88672 0
M  V30 3681 H 357.201 0.0219956 0.663636 0
M  V30 3682 H 359.731 0.688352 1.92673 0
M  V30 3683 H 359.741 -0.536464 4.04458 0
M  V30 3684 H 358.416 0.61383 4.11345 0
M  V30 3685 H 356.993 -1.12999 3.55367 0
M  V30 3686 N 359.178 -1.55987 0.224894 0
M  V30 3687 C 360.111 -2.16413 -0.723929 0
M  V30 3688 C 361.089 -1.10952 -1.18863 0
M  V30 3689 O 362.273 -1.39225 -1.27077 0
M  V30 3690 C 359.4 -2.74711 -1.98121 0
M  V30 3691 C 358.446 -3.9303 -1.6562 0
M  V30 3692 S 359.279 -5.29817 -0.778058 0
M  V30 3693 C 360.435 -5.91555 -2.04483 0
M  V30 3694 H 360.668 -2.96555 -0.210347 0
M  V30 3695 H 358.201 -1.54397 0.00955457 0
M  V30 3696 H 360.159 -3.08938 -2.70311 0
M  V30 3697 H 358.82 -1.94555 -2.46591 0
M  V30 3698 H 358.013 -4.32334 -2.59043 0
M  V30 3699 H 357.615 -3.59966 -1.01491 0
M  V30 3700 H 359.907 -6.07732 -2.99446 0
M  V30 3701 H 360.85 -6.87498 -1.69563 0
M  V30 3702 H 361.258 -5.20419 -2.18688 0
M  V30 3703 N 360.656 0.0484629 -1.57525 0
M  V30 3704 C 361.881 0.759177 -1.93006 0
M  V30 3705 C 362.306 1.69125 -0.823317 0
M  V30 3706 O 361.664 1.79931 0.222364 0
M  V30 3707 C 361.712 1.50899 -3.27509 0
M  V30 3708 O 360.816 2.62112 -3.18388 0
M  V30 3709 H 360.157 0.205564 -0.631379 0
M  V30 3710 H 362.687 0.00972959 -2.04598 0
M  V30 3711 H 362.697 1.88317 -3.6194 0
M  V30 3712 H 361.372 0.825269 -4.0763 0
M  V30 3713 H 359.949 2.27379 -2.95556 0
M  V30 3714 N 362.134 1.5431 0.320358 0
M  V30 3715 C 363.097 1.83195 1.3774 0
M  V30 3716 C 364.097 0.703906 1.44575 0
M  V30 3717 O 365.287 0.972214 1.44546 0
M  V30 3718 C 362.419 1.99487 2.76438 0
M  V30 3719 H 363.612 2.77642 1.1338 0
M  V30 3720 H 361.165 1.46076 0.556012 0
M  V30 3721 H 361.9 1.07262 3.06048 0
M  V30 3722 H 361.685 2.81575 2.7287 0
M  V30 3723 H 363.175 2.23271 3.52902 0
M  V30 3724 N 363.613 -0.582584 1.46437 0
M  V30 3725 C 364.523 -1.71949 1.59595 0
M  V30 3726 C 365.539 -1.67264 0.479443 0
M  V30 3727 O 366.715 -1.87171 0.743579 0
M  V30 3728 C 363.78 -3.08452 1.58298 0
M  V30 3729 C 362.841 -3.244 2.81182 0
M  V30 3730 C 362.074 -4.54391 2.79937 0
M  V30 3731 O 362.297 -5.38287 1.8869 0
M  V30 3732 O 361.231 -4.73588 3.71481 0
M  V30 3733 H 365.057 -1.63795 2.55744 0
M  V30 3734 H 362.642 -0.749643 1.29231 0
M  V30 3735 H 364.524 -3.89732 1.60271 0
M  V30 3736 H 363.199 -3.17043 0.653094 0
M  V30 3737 H 362.106 -2.42613 2.84763 0
M  V30 3738 H 363.439 -3.20699 3.7338 0
M  V30 3739 N 365.091 -1.34144 -0.827227 0
M  V30 3740 C 366.021 -1.28005 -1.95287 0
M  V30 3741 C 367.002 -0.158321 -1.69362 0
M  V30 3742 O 368.187 -0.349987 -1.9102 0
M  V30 3743 C 365.317 -1.03036 -3.31664 0
M  V30 3744 C 364.271 -2.11628 -3.72019 0
M  V30 3745 C 363.597 -1.71854 -5.0633 0
M  V30 3746 C 364.897 -3.53417 -3.8457 0
M  V30 3747 H 366.591 -2.22187 -2.00682 0
M  V30 3748 H 364.137 -1.0696 -0.964135 0
M  V30 3749 H 366.09 -0.973863 -4.09993 0
M  V30 3750 H 364.814 -0.0529391 -3.26557 0
M  V30 3751 H 363.473 -2.16339 -2.95961 0
M  V30 3752 H 363.121 -0.727841 -4.97706 0
M  V30 3753 H 362.821 -2.44531 -5.34302 0
M  V30 3754 H 364.345 -1.67692 -5.87122 0
M  V30 3755 H 365.759 -3.51142 -4.5318 0
M  V30 3756 H 364.156 -4.24679 -4.2399 0
M  V30 3757 H 365.226 -3.91072 -2.86689 0
M  V30 3758 N 366.569 1.04691 -1.17803 0
M  V30 3759 C 367.794 1.81984 -0.994813 0
M  V30 3760 C 368.219 1.82586 0.452112 0
M  V30 3761 O 367.577 1.23854 1.324 0
M  V30 3762 C 367.625 3.2575 -1.54659 0
M  V30 3763 O 366.729 4.05267 -0.763728 0
M  V30 3764 H 366.07 0.562483 -0.352857 0
M  V30 3765 H 368.6 1.3189 -1.56417 0
M  V30 3766 H 368.61 3.76541 -1.57102 0
M  V30 3767 H 367.285 3.24627 -2.59981 0
M  V30 3768 H 365.862 3.63972 -0.811108 0
M  V30 3769 N 368.047 0.979072 1.23499 0
M  V30 3770 C 369.296 0.642751 1.91185 0
M  V30 3771 C 369.609 -0.827253 1.77245 0
M  V30 3772 O 370.815 -1.27458 2.39722 0
M  V30 3773 C 369.271 1.09901 3.42709 0
M  V30 3774 C 368.879 2.59327 3.65313 0
M  V30 3775 C 370.623 0.836371 4.16179 0
M  V30 3776 C 368.53 2.98627 5.10467 0
M  V30 3777 H 367.46 0.236698 0.715884 0
M  V30 3778 H 370.111 1.1868 1.39955 0
M  V30 3779 H 368.493 0.48319 3.93041 0
M  V30 3780 H 369.667 3.26136 3.25533 0
M  V30 3781 H 367.982 2.83323 3.05151 0
M  V30 3782 H 370.579 1.10586 5.23139 0
M  V30 3783 H 370.922 -0.227509 4.15678 0
M  V30 3784 H 371.455 1.41371 3.71832 0
M  V30 3785 H 368.194 4.04133 5.16098 0
M  V30 3786 H 367.714 2.3651 5.51201 0
M  V30 3787 H 369.393 2.89159 5.78788 0
M  V30 3788 N 369.525 -1.3858 0.750561 0
M  V30 3789 C 370.457 -2.29057 0.0810714 0
M  V30 3790 C 371.47 -1.47596 -0.686973 0
M  V30 3791 O 372.659 -1.70495 -0.528563 0
M  V30 3792 C 369.759 -3.26475 -0.909247 0
M  V30 3793 C 368.932 -4.36945 -0.199478 0
M  V30 3794 C 367.991 -5.14572 -1.10011 0
M  V30 3795 O 367.017 -5.66321 -0.57177 0
M  V30 3796 N 368.219 -5.27262 -2.42849 0
M  V30 3797 H 370.984 -2.87153 0.858087 0
M  V30 3798 H 368.545 -1.50328 0.60109 0
M  V30 3799 H 370.537 -3.75285 -1.51471 0
M  V30 3800 H 369.107 -2.69298 -1.58736 0
M  V30 3801 H 368.327 -3.8981 0.586664 0
M  V30 3802 H 369.615 -5.07963 0.291783 0
M  V30 3803 H 369.013 -4.86763 -2.88233 0
M  V30 3804 H 367.57 -5.79456 -2.98453 0
M  V30 3805 N 371.003 -0.499398 -1.49478 0
M  V30 3806 C 372.251 0.0455996 -2.02049 0
M  V30 3807 C 372.572 1.37633 -1.38138 0
M  V30 3808 O 371.842 1.8842 -0.536166 0
M  V30 3809 H 370.422 0.0198416 -0.746736 0
M  V30 3810 H 373.084 -0.656274 -1.83519 0
M  V30 3811 H 372.18 0.176445 -3.11601 0
M  V30 3812 N 372.481 1.55866 -0.233164 0
M  V30 3813 C 373.411 2.23783 0.666599 0
M  V30 3814 C 374.392 1.21343 1.19205 0
M  V30 3815 O 375.577 1.4996 1.23392 0
M  V30 3816 C 372.707 2.92671 1.86978 0
M  V30 3817 C 371.661 4.01682 1.47768 0
M  V30 3818 C 370.987 4.57926 2.76058 0
M  V30 3819 C 372.287 5.18126 0.658993 0
M  V30 3820 H 373.981 2.99232 0.100306 0
M  V30 3821 H 371.527 1.43924 0.046804 0
M  V30 3822 H 373.48 3.3888 2.50476 0
M  V30 3823 H 372.204 2.14688 2.46123 0
M  V30 3824 H 370.863 3.56222 0.866106 0
M  V30 3825 H 370.511 3.76659 3.33372 0
M  V30 3826 H 370.211 5.31505 2.50552 0
M  V30 3827 H 371.735 5.06859 3.40479 0
M  V30 3828 H 373.149 5.60644 1.19795 0
M  V30 3829 H 371.546 5.98009 0.500552 0
M  V30 3830 H 372.616 4.83763 -0.331856 0
M  V30 3831 N 373.959 -0.0401083 1.57549 0
M  V30 3832 C 375.236 -0.767917 1.79896 0
M  V30 3833 C 375.616 -1.9416 0.82856 0
M  V30 3834 O 374.964 -2.2812 -0.131671 0
M  V30 3835 C 375.174 -1.2113 3.27305 0
M  V30 3836 C 376.522 -1.63175 3.91994 0
M  V30 3837 O 377.546 -1.30616 3.31388 0
M  V30 3838 O 376.405 -2.23565 4.98679 0
M  V30 3839 H 373.499 -0.370441 0.739393 0
M  V30 3840 H 376.045 -0.017737 1.69691 0
M  V30 3841 H 374.817 -0.372937 3.89519 0
M  V30 3842 H 374.44 -2.02183 3.42356 0
M  V30 3843 N 375.437 -1.54477 -0.31217 0
M  V30 3844 C 376.662 -1.77526 -1.07235 0
M  V30 3845 C 377.087 -0.527775 -1.80544 0
M  V30 3846 O 376.445 0.52121 -1.73646 0
M  V30 3847 C 376.493 -2.97535 -2.03728 0
M  V30 3848 O 375.597 -2.69878 -3.11833 0
M  V30 3849 H 374.938 -0.58792 -0.30862 0
M  V30 3850 H 377.468 -2.01532 -0.352993 0
M  V30 3851 H 377.478 -3.25198 -2.46395 0
M  V30 3852 H 376.153 -3.87996 -1.49774 0
M  V30 3853 H 374.73 -2.53199 -2.7376 0
M  V30 3854 N 376.915 0.57481 -1.46744 0
M  V30 3855 C 377.878 1.66533 -1.57478 0
M  V30 3856 C 378.878 1.54338 -0.451263 0
M  V30 3857 O 380.068 1.58814 -0.715813 0
M  V30 3858 C 377.2 3.05999 -1.50259 0
M  V30 3859 H 378.393 1.58372 -2.54673 0
M  V30 3860 H 375.946 0.793301 -1.34672 0
M  V30 3861 H 376.681 3.19709 -0.543725 0
M  V30 3862 H 376.466 3.16259 -2.31781 0
M  V30 3863 H 377.956 3.8537 -1.60872 0
M  V30 3864 N 378.394 1.34581 0.820102 0
M  V30 3865 C 379.342 1.26401 1.95258 0
M  V30 3866 C 380.336 0.161553 1.68628 0
M  V30 3867 O 381.542 0.326703 1.7701 0
M  V30 3868 H 377.917 0.392749 0.64129 0
M  V30 3869 H 379.888 2.22105 1.99279 0
M  V30 3870 C 378.637 1.03919 3.31807 0
M  V30 3871 H 377.96 1.87984 3.52848 0
M  V30 3872 H 379.4 1.02232 4.11491 0
M  V30 3873 C 377.859 -0.257433 3.35915 0
M  V30 3874 O 378.389 -1.25784 3.81499 0
M  V30 3875 N 376.595 -0.291524 2.89134 0
M  V30 3876 H 376.142 0.523161 2.52232 0
M  V30 3877 H 376.1 -1.15883 2.92264 0
M  V30 3878 N 379.872 -1.04064 1.18357 0
M  V30 3879 C 381.288 -1.2947 0.933258 0
M  V30 3880 C 381.488 -1.97466 -0.401169 0
M  V30 3881 O 380.544 -2.25528 -1.13549 0
M  V30 3882 C 381.857 -2.15337 2.09882 0
M  V30 3883 C 383.405 -2.28683 2.13712 0
M  V30 3884 C 383.88 -3.17917 3.29686 0
M  V30 3885 N 385.371 -3.25504 3.29547 0
M  V30 3886 C 386.106 -3.94706 4.15926 0
M  V30 3887 N 385.602 -4.66239 5.12439 0
M  V30 3888 N 387.395 -3.90986 4.0384 0
M  V30 3889 H 379.546 -0.583359 2.04232 0
M  V30 3890 H 381.809 -0.319921 0.892387 0
M  V30 3891 H 381.515 -1.72682 3.06389 0
M  V30 3892 H 381.389 -3.16015 2.05947 0
M  V30 3893 H 383.776 -2.70575 1.17784 0
M  V30 3894 H 383.857 -1.27596 2.21705 0
M  V30 3895 H 383.501 -2.76736 4.25887 0
M  V30 3896 H 383.431 -4.19036 3.1893 0
M  V30 3897 H 385.922 -2.74547 2.59677 0
M  V30 3898 H 386.235 -5.16638 5.74722 0
M  V30 3899 H 384.58 -4.65143 5.16398 0
M  V30 3900 H 387.771 -3.34234 3.27727 0
M  V30 3901 H 387.944 -4.44646 4.71375 0
M  V30 3902 N 381.35 -0.985608 -1.22978 0
M  V30 3903 C 382.575 -0.675254 -1.961 0
M  V30 3904 C 383 0.752154 -1.72407 0
M  V30 3905 O 382.358 1.5131 -0.998751 0
M  V30 3906 C 382.406 -0.977899 -3.47087 0
M  V30 3907 O 381.51 -0.072685 -4.12336 0
M  V30 3908 H 380.851 -0.253443 -0.613728 0
M  V30 3909 H 383.381 -1.32061 -1.56272 0
M  V30 3910 H 383.391 -0.916739 -3.97567 0
M  V30 3911 H 382.066 -2.01807 -3.63657 0
M  V30 3912 H 380.643 -0.188703 -3.72422 0
M  V30 3913 N 382.828 1.3818 -0.7579 0
M  V30 3914 C 384.075 2.00019 -0.315985 0
M  V30 3915 C 384.403 1.60163 1.10355 0
M  V30 3916 O 383.658 0.83264 1.77103 0
M  V30 3917 C 383.957 3.55252 -0.391218 0
M  V30 3918 C 383.623 4.14834 -1.76702 0
M  V30 3919 C 382.285 4.30821 -2.14353 0
M  V30 3920 C 384.637 4.47658 -2.66931 0
M  V30 3921 C 381.965 4.76928 -3.41696 0
M  V30 3922 C 384.317 4.95184 -3.93669 0
M  V30 3923 C 382.981 5.09377 -4.31383 0
M  V30 3924 H 382.251 0.731923 -0.115627 0
M  V30 3925 H 384.898 1.65161 -0.969223 0
M  V30 3926 H 383.203 3.90273 0.34558 0
M  V30 3927 H 384.9 4.00988 -0.030805 0
M  V30 3928 H 381.49 4.02808 -1.46435 0
M  V30 3929 H 385.674 4.34904 -2.39106 0
M  V30 3930 H 380.93 4.86103 -3.70829 0
M  V30 3931 H 385.104 5.19551 -4.63724 0
M  V30 3932 H 382.731 5.44865 -5.30119 0
M  V30 3933 N 384.306 0.507319 1.49211 0
M  V30 3934 C 385.552 -0.0350047 2.0277 0
M  V30 3935 C 385.885 -1.3606 1.38569 0
M  V30 3936 O 385.16 -1.87321 0.523542 0
M  V30 3937 C 385.443 -0.180916 3.59645 0
M  V30 3938 C 385.296 1.16825 4.34364 0
M  V30 3939 C 386.615 -0.918558 4.30407 0
M  V30 3940 H 383.734 -0.0112473 0.736914 0
M  V30 3941 H 386.376 0.659956 1.7817 0
M  V30 3942 H 384.526 -0.772826 3.80736 0
M  V30 3943 H 386.198 1.79952 4.24753 0
M  V30 3944 H 384.441 1.75594 3.96673 0
M  V30 3945 H 385.112 1.01939 5.42506 0
M  V30 3946 H 387.588 -0.41649 4.1401 0
M  V30 3947 H 386.464 -0.989505 5.39907 0
M  V30 3948 H 386.725 -1.96373 3.96093 0
M  V30 3949 N 385.784 -1.5574 0.241426 0
M  V30 3950 C 387.2 -1.59196 -0.113548 0
M  V30 3951 C 387.4 -1.25852 -1.57364 0
M  V30 3952 O 386.456 -1.00322 -2.31715 0
M  V30 3953 C 387.769 -2.99814 0.230695 0
M  V30 3954 C 389.317 -3.12513 0.174547 0
M  V30 3955 C 389.792 -4.55342 0.492744 0
M  V30 3956 N 391.283 -4.61076 0.443043 0
M  V30 3957 C 392.018 -5.6956 0.662484 0
M  V30 3958 N 391.514 -6.86328 0.944761 0
M  V30 3959 N 393.307 -5.58957 0.593564 0
M  V30 3960 H 385.458 -1.75685 1.19368 0
M  V30 3961 H 387.721 -0.81756 0.479896 0
M  V30 3962 H 387.427 -3.28932 1.24485 0
M  V30 3963 H 387.301 -3.74568 -0.444833 0
M  V30 3964 H 389.688 -2.83179 -0.830277 0
M  V30 3965 H 389.769 -2.40045 0.883845 0
M  V30 3966 H 389.413 -4.85396 1.4951 0
M  V30 3967 H 389.343 -5.26062 -0.23797 0
M  V30 3968 H 391.834 -3.77179 0.233374 0
M  V30 3969 H 392.147 -7.64935 1.09977 0
M  V30 3970 H 390.492 -6.88025 0.982175 0
M  V30 3971 H 393.683 -4.66611 0.373123 0
M  V30 3972 H 393.856 -6.43433 0.767981 0
M  V30 3973 N 387.262 0.0317525 -1.57568 0
M  V30 3974 C 388.172 1.05021 -2.0978 0
M  V30 3975 C 389.188 1.39809 -1.03583 0
M  V30 3976 O 390.364 1.49182 -1.35302 0
M  V30 3977 C 387.429 2.33301 -2.56459 0
M  V30 3978 C 386.49 2.0512 -3.77127 0
M  V30 3979 C 385.723 3.27283 -4.2157 0
M  V30 3980 O 385.946 4.37861 -3.65559 0
M  V30 3981 O 384.88 3.13141 -5.14029 0
M  V30 3982 H 388.706 0.636505 -2.96955 0
M  V30 3983 H 386.291 0.248559 -1.47318 0
M  V30 3984 H 388.173 3.08722 -2.86825 0
M  V30 3985 H 386.848 2.73973 -1.72397 0
M  V30 3986 H 385.755 1.27276 -3.51784 0
M  V30 3987 H 387.088 1.69305 -4.62165 0
M  V30 3988 N 388.74 1.54641 0.303973 0
M  V30 3989 C 389.968 1.77768 1.05858 0
M  V30 3990 C 390.383 0.535722 1.8104 0
M  V30 3991 O 389.74 -0.494337 1.75677 0
M  V30 3992 C 389.791 2.9834 2.04146 0
M  V30 3993 O 389.512 4.17736 1.32015 0
M  V30 3994 C 391.013 3.33832 2.91669 0
M  V30 3995 H 388.233 0.592961 0.314067 0
M  V30 3996 H 390.777 2.01583 0.344149 0
M  V30 3997 H 388.932 2.76742 2.71096 0
M  V30 3998 H 389.346 4.85693 1.97998 0
M  V30 3999 H 390.82 4.21448 3.56491 0
M  V30 4000 H 391.297 2.51857 3.59812 0
M  V30 4001 H 391.903 3.57579 2.30254 0
M  V30 4002 N 390.218 -0.567019 1.47046 0
M  V30 4003 C 391.165 -1.67489 1.58796 0
M  V30 4004 C 392.135 -1.60399 0.43144 0
M  V30 4005 O 393.32 -1.79378 0.650233 0
M  V30 4006 C 390.46 -3.05821 1.59899 0
M  V30 4007 C 389.573 -3.2342 2.86397 0
M  V30 4008 C 388.708 -4.52093 2.789 0
M  V30 4009 C 387.747 -4.6309 4.00267 0
M  V30 4010 N 386.884 -5.83106 3.91064 0
M  V30 4011 H 391.724 -1.56785 2.53422 0
M  V30 4012 H 389.261 -0.763896 1.2571 0
M  V30 4013 H 391.219 -3.8591 1.58522 0
M  V30 4014 H 389.849 -3.15384 0.687929 0
M  V30 4015 H 388.901 -2.3683 2.97684 0
M  V30 4016 H 390.213 -3.27412 3.76301 0
M  V30 4017 H 389.367 -5.4043 2.75718 0
M  V30 4018 H 388.106 -4.50565 1.86662 0
M  V30 4019 H 387.111 -3.73168 4.03765 0
M  V30 4020 H 388.336 -4.66386 4.93621 0
M  V30 4021 H 386.282 -5.82546 3.01623 0
M  V30 4022 H 386.199 -5.88434 4.74638 0
M  V30 4023 H 387.467 -6.73831 3.91882 0
M  V30 4024 N 391.696 -1.35014 -0.812953 0
M  V30 4025 C 392.659 -1.27292 -1.90602 0
M  V30 4026 C 393.659 -0.185817 -1.59723 0
M  V30 4027 O 394.849 -0.439102 -1.68575 0
M  V30 4028 C 391.981 -0.967676 -3.26877 0
M  V30 4029 H 393.174 -2.24479 -1.9887 0
M  V30 4030 H 390.727 -1.19446 -1.00808 0
M  V30 4031 H 391.462 0.0005954 -3.243 0
M  V30 4032 H 391.247 -1.75412 -3.50675 0
M  V30 4033 H 392.737 -0.939085 -4.06904 0
M  V30 4034 N 393.175 1.03435 -1.18907 0
M  V30 4035 C 394.403 1.80381 -1.01342 0
M  V30 4036 C 394.818 1.83649 0.438005 0
M  V30 4037 O 394.175 1.27655 1.30424 0
M  V30 4038 C 394.226 3.25689 -1.56873 0
M  V30 4039 O 393.947 3.22673 -2.96334 0
M  V30 4040 C 395.448 4.19255 -1.44014 0
M  V30 4041 H 392.668 0.56784 -0.35749 0
M  V30 4042 H 395.212 1.30317 -1.576 0
M  V30 4043 H 393.367 3.72962 -1.04777 0
M  V30 4044 H 393.781 4.13748 -3.22355 0
M  V30 4045 H 395.255 5.19123 -1.87657 0
M  V30 4046 H 395.732 4.37467 -0.389815 0
M  V30 4047 H 396.338 3.77851 -1.95214 0
M  V30 4048 N 394.653 0.992116 1.22453 0
M  V30 4049 C 395.601 0.534644 2.26372 0
M  V30 4050 C 396.595 -0.414293 1.64256 0
M  V30 4051 O 397.801 -0.286899 1.77699 0
M  V30 4052 H 394.176 0.154502 0.735957 0
M  V30 4053 H 396.147 1.42256 2.62309 0
M  V30 4054 C 394.896 -0.135815 3.47435 0
M  V30 4055 H 394.219 0.585311 3.95492 0
M  V30 4056 H 395.659 -0.419374 4.21921 0
M  V30 4057 C 394.118 -1.37089 3.07747 0
M  V30 4058 O 394.648 -2.46629 3.17076 0
M  V30 4059 N 392.854 -1.24585 2.62539 0
M  V30 4060 H 392.401 -0.354542 2.55149 0
M  V30 4061 H 392.359 -2.07327 2.36353 0
M  V30 4062 N 396.131 -1.37776 0.765217 0
M  V30 4063 C 397.356 -2.04651 0.336537 0
M  V30 4064 C 397.781 -1.57337 -1.03086 0
M  V30 4065 O 397.139 -0.730621 -1.65927 0
M  V30 4066 C 397.187 -3.58577 0.381468 0
M  V30 4067 O 396.291 -4.07706 -0.62042 0
M  V30 4068 H 395.632 -0.64756 0.146838 0
M  V30 4069 H 398.162 -1.76221 1.03959 0
M  V30 4070 H 398.172 -4.07314 0.236448 0
M  V30 4071 H 396.847 -3.9237 1.37907 0
M  V30 4072 H 395.424 -3.70306 -0.439056 0
M  V30 4073 N 397.609 -0.515225 -1.4894 0
M  V30 4074 C 398.886 0.0879088 -1.95402 0
M  V30 4075 C 399.266 1.52745 -1.45712 0
M  V30 4076 O 398.614 2.18238 -0.677093 0
M  V30 4077 C 398.824 -0.0141055 -3.48997 0
M  V30 4078 C 400.172 0.152646 -4.24326 0
M  V30 4079 O 401.196 0.0604025 -3.56149 0
M  V30 4080 O 400.055 0.34384 -5.45417 0
M  V30 4081 H 397.149 0.0874636 -0.822362 0
M  V30 4082 H 399.695 -0.578775 -1.59525 0
M  V30 4083 H 398.467 -1.01745 -3.77841 0
M  V30 4084 H 398.09 0.692091 -3.9153 0
M  V30 4085 N 399.087 1.5561 -0.249682 0
M  V30 4086 C 400.333 1.99306 0.374841 0
M  V30 4087 C 400.666 1.13767 1.57387 0
M  V30 4088 O 399.941 0.201711 1.93451 0
M  V30 4089 C 400.224 3.51507 0.781986 0
M  V30 4090 C 400.077 4.4781 -0.422629 0
M  V30 4091 C 401.396 4.08884 1.62793 0
M  V30 4092 H 398.515 0.724572 0.134773 0
M  V30 4093 H 401.157 1.86719 -0.351549 0
M  V30 4094 H 399.307 3.62363 1.4009 0
M  V30 4095 H 400.979 4.48931 -1.06108 0
M  V30 4096 H 399.222 4.20518 -1.06524 0
M  V30 4097 H 399.893 5.51919 -0.0943766 0
M  V30 4098 H 402.369 4.01147 1.10547 0
M  V30 4099 H 401.245 5.1564 1.88166 0
M  V30 4100 H 401.506 3.57515 2.60068 0
M  V30 4101 N 400.565 -0.0233959 1.57583 0
M  V30 4102 C 401.981 -0.379134 1.55031 0
M  V30 4103 C 402.181 -1.76255 0.976548 0
M  V30 4104 O 401.237 -2.45266 0.600078 0
M  V30 4105 C 402.55 -0.275792 2.99433 0
M  V30 4106 C 404.098 -0.352458 3.11009 0
M  V30 4107 C 404.573 -0.278501 4.57152 0
M  V30 4108 N 406.064 -0.337123 4.61972 0
M  V30 4109 C 406.799 -0.302876 5.726 0
M  V30 4110 N 406.295 -0.220589 6.92449 0
M  V30 4111 N 408.088 -0.353023 5.6099 0
M  V30 4112 H 400.239 0.881869 1.93227 0
M  V30 4113 H 402.502 0.335867 0.886509 0
M  V30 4114 H 402.208 0.675108 3.4516 0
M  V30 4115 H 402.082 -1.06721 3.61788 0
M  V30 4116 H 404.469 -1.29379 2.65226 0
M  V30 4117 H 404.55 0.468409 2.51475 0
M  V30 4118 H 404.194 0.659189 5.03604 0
M  V30 4119 H 404.124 -1.11755 5.14605 0
M  V30 4120 H 406.615 -0.403002 3.75745 0
M  V30 4121 H 406.928 -0.199713 7.72542 0
M  V30 4122 H 405.273 -0.186555 6.9475 0
M  V30 4123 H 408.464 -0.415339 4.66254 0
M  V30 4124 H 408.637 -0.322866 6.47195 0
M  V30 4125 N 402.043 -1.548 -0.295768 0
M  V30 4126 C 402.99 -1.86113 -1.36494 0
M  V30 4127 C 403.96 -0.7105 -1.50137 0
M  V30 4128 O 405.145 -0.959626 -1.64912 0
M  V30 4129 C 402.285 -2.11861 -2.72413 0
M  V30 4130 C 401.398 -3.39471 -2.67177 0
M  V30 4131 C 400.533 -3.55035 -3.95125 0
M  V30 4132 C 399.572 -4.76418 -3.84308 0
M  V30 4133 N 398.709 -4.8876 -5.04042 0
M  V30 4134 H 403.549 -2.77314 -1.09091 0
M  V30 4135 H 401.086 -1.37315 -0.52753 0
M  V30 4136 H 403.044 -2.24786 -3.51464 0
M  V30 4137 H 401.674 -1.2392 -2.98066 0
M  V30 4138 H 400.726 -3.35139 -1.79962 0
M  V30 4139 H 402.038 -4.28646 -2.55076 0
M  V30 4140 H 401.192 -3.67653 -4.82614 0
M  V30 4141 H 399.931 -2.64002 -4.10066 0
M  V30 4142 H 398.936 -4.63827 -2.95202 0
M  V30 4143 H 400.161 -5.68863 -3.70906 0
M  V30 4144 H 398.107 -4.00652 -5.19436 0
M  V30 4145 H 398.024 -5.71945 -4.94384 0
M  V30 4146 H 399.292 -5.0574 -5.93167 0
M  V30 4147 N 403.521 0.559213 -1.47345 0
M  V30 4148 C 404.431 1.69388 -1.62311 0
M  V30 4149 C 405.447 1.6648 -0.505993 0
M  V30 4150 O 406.623 1.85964 -0.773262 0
M  V30 4151 C 403.688 3.05894 -1.63185 0
M  V30 4152 C 402.749 3.19885 -2.86307 0
M  V30 4153 C 401.982 4.49879 -2.87131 0
M  V30 4154 O 402.205 5.35217 -1.97229 0
M  V30 4155 O 401.139 4.67618 -3.78968 0
M  V30 4156 H 404.965 1.59706 -2.58317 0
M  V30 4157 H 402.55 0.728989 -1.30407 0
M  V30 4158 H 404.432 3.87133 -1.66451 0
M  V30 4159 H 403.107 3.15964 -0.70345 0
M  V30 4160 H 402.014 2.38052 -2.88587 0
M  V30 4161 H 403.347 3.14718 -3.78435 0
M  V30 4162 N 404.999 1.35443 0.805782 0
M  V30 4163 C 406.245 1.28952 1.56522 0
M  V30 4164 C 406.578 -0.135597 1.93726 0
M  V30 4165 O 405.853 -1.08516 1.61414 0
M  V30 4166 C 406.136 2.19678 2.85331 0
M  V30 4167 C 405.989 3.7081 2.54598 0
M  V30 4168 C 407.308 2.09495 3.8704 0
M  V30 4169 H 404.427 0.469764 0.567883 0
M  V30 4170 H 407.069 1.65851 0.927001 0
M  V30 4171 H 405.219 1.8834 3.39795 0
M  V30 4172 H 406.891 4.12593 2.06312 0
M  V30 4173 H 405.134 3.91051 1.8778 0
M  V30 4174 H 405.805 4.29679 3.46525 0
M  V30 4175 H 408.281 2.37045 3.41978 0
M  V30 4176 H 407.157 2.75173 4.74943 0
M  V30 4177 H 407.418 1.07714 4.28777 0
M  V30 4178 N 406.477 -1.02803 1.19454 0
M  V30 4179 C 407.705 -1.79841 1.02297 0
M  V30 4180 C 408.12 -1.83879 -0.428259 0
M  V30 4181 O 407.477 -1.28345 -1.29745 0
M  V30 4182 C 407.528 -3.24852 1.58598 0
M  V30 4183 O 407.249 -3.21097 2.98041 0
M  V30 4184 C 408.75 -4.18485 1.46236 0
M  V30 4185 H 405.97 -0.565936 0.360496 0
M  V30 4186 H 408.514 -1.2948 1.58288 0
M  V30 4187 H 406.669 -3.72401 1.06753 0
M  V30 4188 H 407.083 -4.12033 3.24545 0
M  V30 4189 H 408.557 -5.18121 1.90407 0
M  V30 4190 H 409.034 -4.37254 0.41301 0
M  V30 4191 H 409.64 -3.76811 1.97215 0
M  V30 4192 N 407.956 -0.998596 -1.21925 0
M  V30 4193 C 408.904 -0.546641 -2.26085 0
M  V30 4194 C 409.898 0.405576 -1.64473 0
M  V30 4195 O 411.104 0.277471 -1.77849 0
M  V30 4196 H 407.479 -0.158403 -0.735127 0
M  V30 4197 H 409.45 -1.43645 -2.61551 0
M  V30 4198 C 408.199 0.117388 -3.47502 0
M  V30 4199 H 407.522 -0.606277 -3.95176 0
M  V30 4200 H 408.962 0.396993 -4.22137 0
M  V30 4201 C 407.421 1.35455 -3.0847 0
M  V30 4202 O 407.951 2.44944 -3.18379 0
M  V30 4203 N 406.157 1.23191 -2.63196 0
M  V30 4204 H 405.704 0.341006 -2.55333 0
M  V30 4205 H 405.662 2.06071 -2.37449 0
M  V30 4206 N 409.434 1.37368 -0.772513 0
M  V30 4207 C 410.68 1.99969 -0.337681 0
M  V30 4208 C 411.013 1.61184 1.08321 0
M  V30 4209 O 410.288 0.858395 1.74533 0
M  V30 4210 C 410.571 3.56858 -0.482121 0
M  V30 4211 C 410.424 4.0555 -1.94549 0
M  V30 4212 C 411.743 4.39955 0.113143 0
M  V30 4213 H 408.862 0.726464 -0.124171 0
M  V30 4214 H 411.504 1.63034 -0.975699 0
M  V30 4215 H 409.654 3.88452 0.0610361 0
M  V30 4216 H 411.326 3.84518 -2.54841 0
M  V30 4217 H 409.569 3.57715 -2.45403 0
M  V30 4218 H 410.24 5.14587 -1.9976 0
M  V30 4219 H 412.716 4.14623 -0.35031 0
M  V30 4220 H 411.592 5.48897 -0.0180514 0
M  V30 4221 H 411.853 4.25403 1.20354 0
M  V30 4222 N 410.912 0.523116 1.48665 0
M  V30 4223 C 412.161 -0.01544 2.01694 0
M  V30 4224 C 412.474 -1.35975 1.40606 0
M  V30 4225 O 413.68 -1.98627 1.85093 0
M  V30 4226 C 412.136 -0.0779303 3.59816 0
M  V30 4227 C 411.744 1.26107 4.29885 0
M  V30 4228 C 413.488 -0.565678 4.20714 0
M  V30 4229 C 411.395 1.15954 5.79921 0
M  V30 4230 H 410.325 -0.00954163 0.75394 0
M  V30 4231 H 412.976 0.665865 1.70993 0
M  V30 4232 H 411.358 -0.824165 3.87329 0
M  V30 4233 H 412.532 2.02233 4.14051 0
M  V30 4234 H 410.847 1.68401 3.80828 0
M  V30 4235 H 413.444 -0.6595 5.30617 0
M  V30 4236 H 413.787 -1.56984 3.85567 0
M  V30 4237 H 414.32 0.12467 3.97605 0
M  V30 4238 H 411.059 2.13864 6.19631 0
M  V30 4239 H 410.579 0.439529 5.98187 0
M  V30 4240 H 412.258 0.847361 6.41427 0
M  V30 4241 N 412.39 -1.55475 0.257931 0
M  V30 4242 C 413.615 -2.04064 -0.370488 0
M  V30 4243 C 414.04 -1.13565 -1.49948 0
M  V30 4244 O 413.398 -0.130781 -1.80828 0
M  V30 4245 C 413.446 -3.50554 -0.845237 0
M  V30 4246 O 412.55 -3.63173 -1.95394 0
M  V30 4247 H 411.891 -0.659257 -0.0792243 0
M  V30 4248 H 414.421 -2.00903 0.387212 0
M  V30 4249 H 414.431 -3.91588 -1.14555 0
M  V30 4250 H 413.106 -4.15896 -0.0191259 0
M  V30 4251 H 411.683 -3.34039 -1.65748 0
M  V30 4252 N 413.868 0.0150385 -1.57593 0
M  V30 4253 C 414.815 1.01126 -2.07466 0
M  V30 4254 C 415.785 1.35064 -0.966794 0
M  V30 4255 O 416.97 1.4516 -1.23827 0
M  V30 4256 C 414.11 2.30276 -2.57035 0
M  V30 4257 C 413.223 2.02373 -3.81666 0
M  V30 4258 C 412.358 3.25496 -4.19793 0
M  V30 4259 C 411.397 2.93211 -5.37303 0
M  V30 4260 N 410.534 4.08826 -5.70794 0
M  V30 4261 H 415.374 0.57901 -2.92321 0
M  V30 4262 H 412.911 0.27426 -1.44521 0
M  V30 4263 H 414.869 3.05757 -2.83846 0
M  V30 4264 H 413.499 2.71197 -1.75077 0
M  V30 4265 H 412.551 1.17327 -3.61854 0
M  V30 4266 H 413.863 1.74567 -4.67256 0
M  V30 4267 H 413.017 4.09333 -4.47807 0
M  V30 4268 H 411.756 3.56428 -3.32882 0
M  V30 4269 H 410.761 2.07777 -5.09027 0
M  V30 4270 H 411.986 2.63542 -6.25877 0
M  V30 4271 H 409.932 4.39682 -4.86842 0
M  V30 4272 H 409.849 3.84491 -6.50924 0
M  V30 4273 H 411.117 4.93496 -6.03392 0
M  V30 4274 N 415.346 1.54954 0.287554 0
M  V30 4275 C 416.256 1.8991 1.37736 0
M  V30 4276 C 417.272 0.794701 1.54792 0
M  V30 4277 O 418.448 1.09243 1.69198 0
M  V30 4278 C 415.513 2.15108 2.71899 0
M  V30 4279 C 414.574 3.38752 2.63715 0
M  V30 4280 C 413.807 3.62739 3.91479 0
M  V30 4281 O 414.03 2.89492 4.91478 0
M  V30 4282 O 412.964 4.56267 3.92561 0
M  V30 4283 H 416.79 2.82652 1.11092 0
M  V30 4284 H 414.375 1.41315 0.484807 0
M  V30 4285 H 416.257 2.32806 3.51254 0
M  V30 4286 H 414.932 1.25551 2.9836 0
M  V30 4287 H 413.839 3.26405 1.82786 0
M  V30 4288 H 415.172 4.28483 2.42205 0
M  V30 4289 N 416.824 -0.551391 1.4764 0
M  V30 4290 C 418.049 -1.33837 1.58437 0
M  V30 4291 C 418.474 -1.866 0.237063 0
M  V30 4292 O 417.832 -1.6328 -0.787994 0
M  V30 4293 C 417.88 -2.48014 2.61766 0
M  V30 4294 O 416.984 -3.50419 2.1744 0
M  V30 4295 H 416.325 -0.397299 0.532024 0
M  V30 4296 H 418.855 -0.665759 1.93465 0
M  V30 4297 H 418.865 -2.94503 2.82369 0
M  V30 4298 H 417.54 -2.08969 3.5959 0
M  V30 4299 H 416.117 -3.10196 2.06961 0
M  V30 4300 N 418.302 -1.35869 -0.798587 0
M  V30 4301 C 419.249 -1.29446 -1.91082 0
M  V30 4302 C 420.219 -0.16487 -1.6528 0
M  V30 4303 O 421.404 -0.349888 -1.87564 0
M  V30 4304 C 418.544 -1.0804 -3.27752 0
M  V30 4305 C 417.657 -2.29993 -3.65687 0
M  V30 4306 C 416.792 -2.01673 -4.91428 0
M  V30 4307 C 415.831 -3.19636 -5.22015 0
M  V30 4308 N 414.968 -2.91039 -6.38937 0
M  V30 4309 H 419.808 -2.24553 -1.95907 0
M  V30 4310 H 417.345 -1.11615 -0.958148 0
M  V30 4311 H 419.303 -0.936586 -4.06551 0
M  V30 4312 H 417.933 -0.16592 -3.22373 0
M  V30 4313 H 416.985 -2.55211 -2.82085 0
M  V30 4314 H 418.297 -3.18052 -3.84245 0
M  V30 4315 H 417.451 -1.84168 -5.78072 0
M  V30 4316 H 416.19 -1.10911 -4.74921 0
M  V30 4317 H 415.195 -3.37709 -4.33858 0
M  V30 4318 H 416.42 -4.11211 -5.40447 0
M  V30 4319 H 414.366 -2.0288 -6.2384 0
M  V30 4320 H 414.283 -3.72635 -6.57784 0
M  V30 4321 H 415.551 -2.77093 -7.28587 0
M  V30 4322 N 419.78 1.02168 -1.19998 0
M  V30 4323 C 420.71 2.12488 -0.96804 0
M  V30 4324 C 421.691 1.69799 0.101185 0
M  V30 4325 O 422.876 1.94121 -0.0552993 0
M  V30 4326 C 420.006 3.43479 -0.513776 0
M  V30 4327 C 418.96 3.99884 -1.52566 0
M  V30 4328 C 418.286 5.26582 -0.928214 0
M  V30 4329 C 419.586 4.33861 -2.90795 0
M  V30 4330 H 421.28 2.32149 -1.89069 0
M  V30 4331 H 418.826 1.11564 -0.910468 0
M  V30 4332 H 420.779 4.20036 -0.338774 0
M  V30 4333 H 419.503 3.23561 0.444493 0
M  V30 4334 H 418.162 3.25429 -1.68794 0
M  V30 4335 H 417.81 5.02986 0.0378289 0
M  V30 4336 H 417.51 5.65284 -1.60397 0
M  V30 4337 H 419.034 6.05799 -0.764167 0
M  V30 4338 H 420.448 5.01327 -2.78109 0
M  V30 4339 H 418.845 4.83664 -3.55231 0
M  V30 4340 H 419.915 3.42848 -3.42904 0
M  V30 4341 N 421.258 1.00505 1.21394 0
M  V30 4342 C 422.535 0.603277 1.86064 0
M  V30 4343 C 422.915 -0.919095 1.90042 0
M  V30 4344 O 422.263 -1.80607 1.39977 0
M  V30 4345 C 422.473 1.23772 3.26315 0
M  V30 4346 C 423.821 1.34586 4.02705 0
M  V30 4347 O 424.845 1.19304 3.35626 0
M  V30 4348 O 423.704 1.59169 5.22807 0
M  V30 4349 H 420.798 0.206634 0.800769 0
M  V30 4350 H 423.344 1.1017 1.29076 0
M  V30 4351 H 422.116 2.27848 3.18121 0
M  V30 4352 H 421.739 0.725648 3.90922 0
M  V30 4353 N 422.737 -1.36956 0.779787 0
M  V30 4354 C 423.962 -2.04283 0.358224 0
M  V30 4355 C 424.387 -1.58422 -1.01411 0
M  V30 4356 O 423.745 -0.748179 -1.65142 0
M  V30 4357 C 423.793 -3.58152 0.419479 0
M  V30 4358 O 422.897 -4.08342 -0.577142 0
M  V30 4359 H 422.238 -0.645967 0.153698 0
M  V30 4360 H 424.768 -1.75108 1.05822 0
M  V30 4361 H 424.778 -4.07041 0.279636 0
M  V30 4362 H 423.453 -3.90886 1.42061 0
M  V30 4363 H 422.03 -3.70751 -0.399755 0
M  V30 4364 N 424.215 -0.530993 -1.48385 0
M  V30 4365 C 425.145 0.219985 -2.32461 0
M  V30 4366 C 426.126 0.934111 -1.42156 0
M  V30 4367 O 427.311 0.919694 -1.71042 0
M  V30 4368 C 424.441 1.26674 -3.23375 0
M  V30 4369 C 423.395 0.67069 -4.22712 0
M  V30 4370 C 422.721 1.82017 -5.02766 0
M  V30 4371 C 424.021 -0.358268 -5.2107 0
M  V30 4372 H 425.715 -0.48187 -2.95497 0
M  V30 4373 H 423.261 -0.233182 -1.42099 0
M  V30 4374 H 425.214 1.80006 -3.81019 0
M  V30 4375 H 423.938 1.99818 -2.58341 0
M  V30 4376 H 422.597 0.158878 -3.66256 0
M  V30 4377 H 422.245 2.54002 -4.34157 0
M  V30 4378 H 421.945 1.42727 -5.70003 0
M  V30 4379 H 423.469 2.35725 -5.63264 0
M  V30 4380 H 424.883 0.0880081 -5.73232 0
M  V30 4381 H 423.28 -0.66861 -5.96364 0
M  V30 4382 H 424.35 -1.26367 -4.68145 0
M  V30 4383 N 425.693 1.55336 -0.266172 0
M  V30 4384 C 426.603 2.2583 0.635458 0
M  V30 4385 C 427.619 1.28106 1.17749 0
M  V30 4386 O 428.795 1.61024 1.20968 0
M  V30 4387 C 425.86 2.95879 1.80712 0
M  V30 4388 C 424.921 4.09059 1.30265 0
M  V30 4389 C 424.154 4.75759 2.41846 0
M  V30 4390 O 424.377 4.41622 3.61007 0
M  V30 4391 O 423.311 5.63888 2.1051 0
M  V30 4392 H 427.137 3.03631 0.0646693 0
M  V30 4393 H 424.722 1.49361 -0.0339177 0
M  V30 4394 H 426.604 3.39932 2.49047 0
M  V30 4395 H 425.279 2.21002 2.36516 0
M  V30 4396 H 424.186 3.69482 0.586019 0
M  V30 4397 H 425.519 4.85811 0.790458 0
M  V30 4398 N 427.171 -0.0066808 1.57599 0
M  V30 4399 C 428.134 -0.985035 2.06953 0
M  V30 4400 C 429.134 -1.27663 0.977687 0
M  V30 4401 O 430.324 -1.22293 1.24057 0
M  V30 4402 C 427.456 -2.3118 2.50536 0
M  V30 4403 H 428.649 -0.558255 2.94658 0
M  V30 4404 H 426.202 -0.254011 1.54222 0
M  V30 4405 H 426.937 -2.78561 1.66054 0
M  V30 4406 H 426.722 -2.11338 3.3027 0
M  V30 4407 H 428.212 -3.01377 2.8907 0
M  V30 4408 N 428.649 -1.55105 -0.279332 0
M  V30 4409 C 429.612 -1.86783 -1.32834 0
M  V30 4410 C 430.612 -0.74199 -1.42657 0
M  V30 4411 O 431.802 -1.0102 -1.41918 0
M  V30 4412 C 428.934 -2.06746 -2.71052 0
M  V30 4413 H 430.127 -2.8055 -1.05979 0
M  V30 4414 H 427.68 -1.47499 -0.517087 0
M  V30 4415 H 428.415 -1.15339 -3.03097 0
M  V30 4416 H 428.2 -2.88711 -2.65309 0
M  V30 4417 H 429.69 -2.32549 -3.46858 0
M  V30 4418 N 430.127 0.543554 -1.4793 0
M  V30 4419 C 431.09 1.63156 -1.60975 0
M  V30 4420 C 432.09 1.53346 -0.483899 0
M  V30 4421 O 433.28 1.5726 -0.749339 0
M  V30 4422 C 430.412 3.02743 -1.56716 0
M  V30 4423 H 431.605 1.52934 -2.57975 0
M  V30 4424 H 429.158 0.764557 -1.36324 0
M  V30 4425 H 429.893 3.18484 -0.611418 0
M  V30 4426 H 429.678 3.11272 -2.38438 0
M  V30 4427 H 431.168 3.81871 -1.6901 0
M  V30 4428 N 431.605 1.3629 0.791371 0
M  V30 4429 C 432.552 1.30458 1.90393 0
M  V30 4430 C 433.522 0.173632 1.6519 0
M  V30 4431 O 434.707 0.35983 1.87376 0
M  V30 4432 C 431.847 1.09777 3.27174 0
M  V30 4433 C 430.96 2.31929 3.64462 0
M  V30 4434 C 430.095 2.04276 4.90352 0
M  V30 4435 C 429.134 3.224 5.20312 0
M  V30 4436 N 428.271 2.94424 6.37385 0
M  V30 4437 H 433.111 2.25589 1.94714 0
M  V30 4438 H 430.648 1.12122 0.952216 0
M  V30 4439 H 432.606 0.958133 4.06049 0
M  V30 4440 H 431.236 0.183014 3.22281 0
M  V30 4441 H 430.288 2.56703 2.80727 0
M  V30 4442 H 431.6 3.20085 3.82553 0
M  V30 4443 H 430.754 1.87231 5.77087 0
M  V30 4444 H 429.493 1.13428 4.74326 0
M  V30 4445 H 428.498 3.40005 4.32061 0
M  V30 4446 H 429.723 4.14071 5.38258 0
M  V30 4447 H 427.669 2.06185 6.22755 0
M  V30 4448 H 427.586 3.76118 6.55798 0
M  V30 4449 H 428.854 2.80953 7.27108 0
M  V30 4450 N 433.083 -1.0153 1.20538 0
M  V30 4451 C 434.308 -1.79283 1.04271 0
M  V30 4452 C 434.733 -1.8372 -0.403544 0
M  V30 4453 O 434.091 -1.27321 -1.2907 0
M  V30 4454 C 434.139 -3.21535 1.63241 0
M  V30 4455 O 433.243 -4.03099 0.870908 0
M  V30 4456 H 432.584 -0.55293 0.367647 0
M  V30 4457 H 435.114 -1.27696 1.59859 0
M  V30 4458 H 435.124 -3.72243 1.6703 0
M  V30 4459 H 433.799 -3.1762 2.68497 0
M  V30 4460 H 432.376 -3.61693 0.907323 0
M  V30 4461 N 434.561 -1.01147 -1.20859 0
M  V30 4462 C 435.508 -0.577354 -2.23462 0
M  V30 4463 C 436.478 0.399922 -1.61214 0
M  V30 4464 O 437.663 0.300515 -1.88419 0
M  V30 4465 C 434.803 0.083372 -3.44999 0
M  V30 4466 C 433.916 -0.937856 -4.21697 0
M  V30 4467 C 433.051 -0.248717 -5.30617 0
M  V30 4468 C 432.09 -1.25705 -5.99053 0
M  V30 4469 N 431.227 -0.594939 -6.99575 0
M  V30 4470 H 436.067 -1.45695 -2.59956 0
M  V30 4471 H 433.604 -0.729428 -1.27741 0
M  V30 4472 H 435.562 0.483535 -4.14388 0
M  V30 4473 H 434.192 0.926645 -3.09214 0
M  V30 4474 H 433.244 -1.45622 -3.51423 0
M  V30 4475 H 434.556 -1.70493 -4.68757 0
M  V30 4476 H 433.71 0.207215 -6.06346 0
M  V30 4477 H 432.449 0.55071 -4.84581 0
M  V30 4478 H 431.454 -1.72343 -5.2209 0
M  V30 4479 H 432.679 -2.05767 -6.47176 0
M  V30 4480 H 430.625 0.184713 -6.5574 0
M  V30 4481 H 430.542 -1.30017 -7.44736 0
M  V30 4482 H 431.81 -0.162427 -7.79331 0
M  V30 4483 N 436.039 1.36541 -0.78704 0
M  V30 4484 C 436.987 2.31965 -0.171724 0
M  V30 4485 C 437.981 1.55689 0.667631 0
M  V30 4486 O 439.187 1.70969 0.562981 0
M  V30 4487 H 435.562 0.751101 -0.0367545 0
M  V30 4488 H 437.533 2.81428 -0.992017 0
M  V30 4489 C 436.282 3.40968 0.680904 0
M  V30 4490 H 435.605 3.99775 0.0443961 0
M  V30 4491 H 437.045 4.10063 1.07815 0
M  V30 4492 C 435.504 2.82338 1.83813 0
M  V30 4493 O 436.034 2.74311 2.93456 0
M  V30 4494 N 434.24 2.39661 1.6435 0
M  V30 4495 H 433.787 2.46389 0.751668 0
M  V30 4496 H 433.745 2.00779 2.4194 0
M  V30 4497 N 437.518 0.538854 1.48102 0
M  V30 4498 C 438.758 0.0101209 2.04397 0
M  V30 4499 C 439.122 -1.30741 1.40609 0
M  V30 4500 O 440.323 -1.92272 1.87843 0
M  V30 4501 C 438.594 -0.100232 3.57259 0
M  V30 4502 S 440.153 -0.577746 4.3498 0
M  V30 4503 H 436.971 0.0163171 0.710813 0
M  V30 4504 H 439.573 0.721429 1.81702 0
M  V30 4505 H 438.277 0.863351 4.01216 0
M  V30 4506 H 437.808 -0.835651 3.84422 0
M  V30 4507 H 439.823 -1.84073 4.60794 0
M  V30 4508 N 438.996 -1.55193 0.274407 0
M  V30 4509 C 440.221 -2.04446 -0.348824 0
M  V30 4510 C 440.646 -1.15149 -1.48735 0
M  V30 4511 O 440.004 -0.149952 -1.80679 0
M  V30 4512 C 440.052 -3.51431 -0.808009 0
M  V30 4513 O 439.156 -3.65225 -1.91531 0
M  V30 4514 H 438.497 -0.66006 -0.0722276 0
M  V30 4515 H 441.027 -2.00481 0.408498 0
M  V30 4516 H 441.037 -3.92781 -1.10395 0
M  V30 4517 H 439.712 -4.15892 0.0249865 0
M  V30 4518 H 438.289 -3.35778 -1.62196 0
M  V30 4519 N 440.474 -0.00167713 -1.576 0
M  V30 4520 C 441.699 0.69739 -1.95323 0
M  V30 4521 C 442.124 1.6642 -0.876706 0
M  V30 4522 O 441.482 1.80548 0.165007 0
M  V30 4523 C 441.53 1.40403 -3.32144 0
M  V30 4524 O 440.634 2.5185 -3.26566 0
M  V30 4525 H 439.975 0.185373 -0.637599 0
M  V30 4526 H 442.505 -0.0553665 -2.04525 0
M  V30 4527 H 442.515 1.76707 -3.67748 0
M  V30 4528 H 441.19 0.695167 -4.10049 0
M  V30 4529 H 439.767 2.17861 -3.0264 0
M  V30 4530 N 441.952 1.55251 0.271103 0
M  V30 4531 C 443.363 1.66635 0.842007 0
M  V30 4532 C 443.714 0.594631 1.86972 0
M  V30 4533 O 442.839 -0.263532 2.14789 0
M  V30 4534 C 443.434 3.02082 1.53401 0
M  V30 4535 C 441.993 3.15487 2.05293 0
M  V30 4536 C 441.14 2.62438 0.895631 0
M  V30 4537 H 444.091 1.58629 0.0474117 0
M  V30 4538 H 444.112 2.95176 2.40107 0
M  V30 4539 H 443.624 3.80062 0.785786 0
M  V30 4540 H 441.725 2.42284 2.83071 0
M  V30 4541 H 441.838 4.22075 2.26693 0
M  V30 4542 H 440.202 2.19644 1.28953 0
M  V30 4543 H 440.985 3.42923 0.160878 0
M  V30 4544 N 443.43 -0.535701 1.48216 0
M  V30 4545 C 444.362 -1.65662 1.58394 0
M  V30 4546 C 445.375 -1.5591 0.468607 0
M  V30 4547 O 446.564 -1.62475 0.7392 0
M  V30 4548 C 443.664 -3.04276 1.4923 0
M  V30 4549 C 442.837 -3.39567 2.75705 0
M  V30 4550 C 441.896 -4.57436 2.60075 0
M  V30 4551 O 440.922 -4.60942 3.33948 0
M  V30 4552 N 442.124 -5.55259 1.69315 0
M  V30 4553 H 444.889 -1.5737 2.55058 0
M  V30 4554 H 442.45 -0.722845 1.44867 0
M  V30 4555 H 444.442 -3.80994 1.36477 0
M  V30 4556 H 443.012 -3.06677 0.605632 0
M  V30 4557 H 442.232 -2.52083 3.03064 0
M  V30 4558 H 443.52 -3.59929 3.59623 0
M  V30 4559 H 442.918 -5.552 1.08489 0
M  V30 4560 H 441.475 -6.31218 1.62504 0
M  V30 4561 N 444.908 -1.36708 -0.784132 0
M  V30 4562 C 446.324 -1.17237 -1.08294 0
M  V30 4563 C 446.524 -5.93947e-05 -2.015 0
M  V30 4564 O 445.58 0.663686 -2.43622 0
M  V30 4565 C 446.893 -2.48557 -1.69233 0
M  V30 4566 C 448.441 -2.54968 -1.8155 0
M  V30 4567 C 448.916 -3.86388 -2.45904 0
M  V30 4568 N 450.407 -3.87762 -2.53367 0
M  V30 4569 C 451.142 -4.86191 -3.03983 0
M  V30 4570 N 450.638 -5.95015 -3.54866 0
M  V30 4571 N 452.431 -4.73606 -3.02743 0
M  V30 4572 H 444.582 -2.11758 -0.16501 0
M  V30 4573 H 446.845 -0.93822 -0.135822 0
M  V30 4574 H 446.551 -3.34638 -1.08215 0
M  V30 4575 H 446.425 -2.64748 -2.68679 0
M  V30 4576 H 448.812 -1.69302 -2.41704 0
M  V30 4577 H 448.893 -2.42672 -0.80895 0
M  V30 4578 H 448.537 -4.72462 -1.86392 0
M  V30 4579 H 448.467 -3.95982 -3.4714 0
M  V30 4580 H 450.958 -3.09145 -2.17343 0
M  V30 4581 H 451.271 -6.66086 -3.91854 0
M  V30 4582 H 449.616 -5.98676 -3.53003 0
M  V30 4583 H 452.807 -3.87717 -2.62284 0
M  V30 4584 H 452.98 -5.50473 -3.41881 0
M  V30 4585 N 446.386 1.0089 -1.21074 0
M  V30 4586 C 447.634 1.74262 -1.02358 0
M  V30 4587 C 447.955 1.89869 0.444393 0
M  V30 4588 O 447.225 1.44677 1.32081 0
M  V30 4589 H 445.805 0.645615 -0.375754 0
M  V30 4590 H 448.467 1.21596 -1.52317 0
M  V30 4591 H 447.563 2.74328 -1.4883 0
M  V30 4592 N 447.864 1.01787 1.20321 0
M  V30 4593 C 449.112 0.706538 1.89347 0
M  V30 4594 C 449.433 -0.766289 1.79313 0
M  V30 4595 O 448.703 -1.55126 1.19635 0
M  V30 4596 H 447.283 0.258348 0.700903 0
M  V30 4597 H 449.945 1.28974 1.46122 0
M  V30 4598 H 449.041 0.991066 2.95946 0
M  V30 4599 N 449.342 -1.36122 0.79427 0
M  V30 4600 C 450.567 -2.03891 0.379871 0
M  V30 4601 C 450.992 -1.59488 -0.997251 0
M  V30 4602 O 450.35 -0.765652 -1.64339 0
M  V30 4603 C 450.398 -3.57687 0.457442 0
M  V30 4604 O 449.502 -4.08931 -0.5338 0
M  V30 4605 H 448.843 -0.6443 0.160541 0
M  V30 4606 H 451.373 -1.73976 1.07673 0
M  V30 4607 H 451.383 -4.06721 0.322792 0
M  V30 4608 H 450.058 -3.89357 1.46199 0
M  V30 4609 H 448.635 -3.71154 -0.360409 0
M  V30 4610 N 450.82 -0.546701 -1.47814 0
M  V30 4611 C 452.231 -0.110564 -1.86372 0
M  V30 4612 C 452.582 1.31678 -1.45449 0
M  V30 4613 O 451.707 1.98889 -0.852758 0
M  V30 4614 C 452.302 -0.193873 -3.38245 0
M  V30 4615 C 450.861 0.187164 -3.75934 0
M  V30 4616 C 450.008 -0.546166 -2.71868 0
M  V30 4617 H 452.959 -0.757022 -1.39481 0
M  V30 4618 H 452.98 0.590218 -3.75895 0
M  V30 4619 H 452.492 -1.23282 -3.67999 0
M  V30 4620 H 450.593 1.22762 -3.51796 0
M  V30 4621 H 450.706 -0.164083 -4.78819 0
M  V30 4622 H 449.07 0.00953904 -2.54698 0
M  V30 4623 H 449.853 -1.58606 -3.04465 0
M  V30 4624 N 452.299 1.55045 -0.282633 0
M  V30 4625 C 453.71 1.85473 0.213655 0
M  V30 4626 C 454.061 1.20465 1.54863 0
M  V30 4627 O 453.186 0.495676 2.10647 0
M  V30 4628 C 453.781 3.36496 0.394445 0
M  V30 4629 C 452.34 3.67022 0.834961 0
M  V30 4630 C 451.487 2.77218 -0.0674081 0
M  V30 4631 H 454.438 1.50478 -0.504202 0
M  V30 4632 H 454.459 3.60007 1.23186 0
M  V30 4633 H 453.971 3.83782 -0.577326 0
M  V30 4634 H 452.072 3.25241 1.81794 0
M  V30 4635 H 452.185 4.74433 0.667075 0
M  V30 4636 H 450.549 2.5069 0.450196 0
M  V30 4637 H 451.332 3.2732 -1.0352 0
M  V30 4638 N 453.777 0.010035 1.57597 0
M  V30 4639 C 455.023 -0.668011 1.92118 0
M  V30 4640 C 455.378 -1.70821 0.885328 0
M  V30 4641 O 454.671 -1.91333 -0.101187 0
M  V30 4642 C 454.865 -1.34434 3.31153 0
M  V30 4643 C 454.694 -0.371176 4.48166 0
M  V30 4644 C 453.464 0.0220686 5.05295 0
M  V30 4645 C 455.662 0.366731 5.12991 0
M  V30 4646 N 453.644 0.9924 6.05826 0
M  V30 4647 C 455.015 1.19142 6.08445 0
M  V30 4648 C 457.07 0.429489 4.96044 0
M  V30 4649 C 455.773 2.07317 6.88776 0
M  V30 4650 C 457.799 1.2985 5.76969 0
M  V30 4651 C 457.161 2.11101 6.72023 0
M  V30 4652 H 453.26 -0.217337 0.751192 0
M  V30 4653 H 455.844 0.0727375 1.94564 0
M  V30 4654 H 454.015 -2.05533 3.29561 0
M  V30 4655 H 455.747 -1.97789 3.53075 0
M  V30 4656 H 452.502 -0.348409 4.72317 0
M  V30 4657 H 452.926 1.47324 6.60776 0
M  V30 4658 H 457.568 -0.18442 4.22398 0
M  V30 4659 H 455.286 2.69771 7.61741 0
M  V30 4660 H 458.872 1.3511 5.65894 0
M  V30 4661 H 457.752 2.77257 7.33552 0
M  V30 4662 N 455.255 -1.55392 -0.262866 0
M  V30 4663 C 456.218 -1.88181 -1.30846 0
M  V30 4664 C 457.218 -0.757079 -1.41862 0
M  V30 4665 O 458.408 -1.02519 -1.40838 0
M  V30 4666 C 455.54 -2.09609 -2.68844 0
M  V30 4667 H 456.733 -2.81659 -1.02997 0
M  V30 4668 H 454.286 -1.48039 -0.501414 0
M  V30 4669 H 455.021 -1.18547 -3.01856 0
M  V30 4670 H 454.806 -2.91508 -2.62231 0
M  V30 4671 H 456.296 -2.36215 -3.44372 0
M  V30 4672 N 456.733 0.527833 -1.48498 0
M  V30 4673 C 457.696 1.61439 -1.62696 0
M  V30 4674 C 458.696 1.52824 -0.500136 0
M  V30 4675 O 459.886 1.56456 -0.765976 0
M  V30 4676 C 457.018 3.01063 -1.59918 0
M  V30 4677 H 458.211 1.50189 -2.59583 0
M  V30 4678 H 455.764 0.750055 -1.37127 0
M  V30 4679 H 456.499 3.17818 -0.645163 0
M  V30 4680 H 456.284 3.08725 -2.41726 0
M  V30 4681 H 457.774 3.80057 -1.73051 0
M  V30 4682 N 458.211 1.37122 0.776871 0
M  V30 4683 C 459.159 1.32549 1.91138 0
M  V30 4684 C 460.153 0.215119 1.68029 0
M  V30 4685 O 461.359 0.382852 1.75881 0
M  V30 4686 H 457.734 0.412952 0.62847 0
M  V30 4687 H 459.705 2.28332 1.92112 0
M  V30 4688 C 458.454 1.14422 3.28333 0
M  V30 4689 H 457.777 1.99115 3.46689 0
M  V30 4690 H 459.217 1.15272 4.0803 0
M  V30 4691 C 457.676 -0.150434 3.36564 0
M  V30 4692 O 458.206 -1.13584 3.85307 0
M  V30 4693 N 456.412 -0.19939 2.89915 0
M  V30 4694 H 455.959 0.603142 2.5044 0
M  V30 4695 H 455.917 -1.06526 2.95803 0
M  V30 4696 N 459.689 -1.00246 1.21608 0
M  V30 4697 C 460.914 -1.78167 1.06167 0
M  V30 4698 C 461.339 -1.84138 -0.384035 0
M  V30 4699 O 460.697 -1.28683 -1.27712 0
M  V30 4700 C 460.745 -3.19786 1.66642 0
M  V30 4701 O 459.849 -4.02153 0.913613 0
M  V30 4702 H 459.19 -0.549 0.37349 0
M  V30 4703 H 461.72 -1.25994 1.61204 0
M  V30 4704 H 461.73 -3.70451 1.70969 0
M  V30 4705 H 460.405 -3.14754 2.7185 0
M  V30 4706 H 458.982 -3.60711 0.945635 0
M  V30 4707 N 461.167 -1.02423 -1.1978 0
M  V30 4708 C 462.099 -0.559152 -2.22275 0
M  V30 4709 C 463.112 0.36251 -1.58713 0
M  V30 4710 O 464.301 0.159641 -1.77785 0
M  V30 4711 C 461.401 0.205094 -3.38279 0
M  V30 4712 C 460.574 -0.720361 -4.31427 0
M  V30 4713 C 459.633 -0.00234368 -5.262 0
M  V30 4714 O 458.659 -0.627378 -5.65732 0
M  V30 4715 N 459.861 1.26996 -5.66438 0
M  V30 4716 H 462.626 -1.44064 -2.62804 0
M  V30 4717 H 460.187 -0.902692 -1.34399 0
M  V30 4718 H 462.179 0.694868 -3.9869 0
M  V30 4719 H 460.749 0.987947 -2.96578 0
M  V30 4720 H 459.969 -1.39031 -3.68869 0
M  V30 4721 H 461.257 -1.3495 -4.90577 0
M  V30 4722 H 460.655 1.79858 -5.36347 0
M  V30 4723 H 459.212 1.70432 -6.29123 0
M  V30 4724 N 462.645 1.35699 -0.801477 0
M  V30 4725 C 464.056 1.81415 -0.441073 0
M  V30 4726 C 464.407 1.66595 1.03636 0
M  V30 4727 O 463.532 1.19369 1.80499 0
M  V30 4728 C 464.127 3.29369 -0.793819 0
M  V30 4729 C 462.686 3.73248 -0.486083 0
M  V30 4730 C 461.833 2.57775 -1.02213 0
M  V30 4731 H 464.784 1.23749 -0.993572 0
M  V30 4732 H 464.805 3.80395 -0.0894158 0
M  V30 4733 H 464.317 3.40123 -1.86917 0
M  V30 4734 H 462.418 3.68046 0.580735 0
M  V30 4735 H 462.531 4.68222 -1.01513 0
M  V30 4736 H 460.895 2.50788 -0.444712 0
M  V30 4737 H 461.678 2.71309 -2.10348 0
M  V30 4738 N 464.123 0.554532 1.47522 0
M  V30 4739 C 465.055 -0.232106 2.28022 0
M  V30 4740 C 466.068 -0.881865 1.36847 0
M  V30 4741 O 467.257 -0.756168 1.61692 0
M  V30 4742 C 464.357 -1.34604 3.11022 0
M  V30 4743 C 463.53 -0.793582 4.30141 0
M  V30 4744 C 462.589 -1.79168 4.94758 0
M  V30 4745 O 461.615 -1.33886 5.5323 0
M  V30 4746 N 462.817 -3.12495 4.89211 0
M  V30 4747 H 465.582 0.458407 2.96173 0
M  V30 4748 H 463.143 0.390433 1.57122 0
M  V30 4749 H 465.135 -2.01243 3.51118 0
M  V30 4750 H 463.705 -1.93983 2.45131 0
M  V30 4751 H 462.925 0.0495025 3.94169 0
M  V30 4752 H 464.213 -0.403776 5.07195 0
M  V30 4753 H 463.611 -3.51931 4.42901 0
M  V30 4754 H 462.168 -3.74698 5.33333 0
M  V30 4755 N 465.601 -1.54893 0.290851 0
M  V30 4756 C 467.012 -1.85584 -0.203816 0
M  V30 4757 C 467.363 -1.21285 -1.54222 0
M  V30 4758 O 466.488 -0.506841 -2.10381 0
M  V30 4759 C 467.083 -3.367 -0.376595 0
M  V30 4760 C 465.642 -3.6746 -0.815485 0
M  V30 4761 C 464.789 -2.77178 0.0821087 0
M  V30 4762 H 467.74 -1.50208 0.512175 0
M  V30 4763 H 467.761 -3.60656 -1.21275 0
M  V30 4764 H 467.273 -3.8347 0.59767 0
M  V30 4765 H 465.374 -3.26201 -1.80066 0
M  V30 4766 H 465.487 -4.7478 -0.641905 0
M  V30 4767 H 463.851 -2.50925 -0.436895 0
M  V30 4768 H 464.634 -3.26767 1.05254 0
M  V30 4769 N 467.08 -0.0183926 -1.57589 0
M  V30 4770 C 468.491 0.521927 -1.79256 0
M  V30 4771 C 468.842 1.72885 -0.927636 0
M  V30 4772 O 467.967 2.15978 -0.135091 0
M  V30 4773 C 468.562 0.953632 -3.25102 0
M  V30 4774 C 467.121 1.43913 -3.47801 0
M  V30 4775 C 466.268 0.398837 -2.74417 0
M  V30 4776 H 469.219 -0.244485 -1.56805 0
M  V30 4777 H 469.24 1.81863 -3.34224 0
M  V30 4778 H 468.752 0.0750123 -3.88028 0
M  V30 4779 H 466.853 2.33804 -2.90115 0
M  V30 4780 H 466.966 1.45391 -4.56507 0
M  V30 4781 H 465.33 0.864572 -2.39577 0
M  V30 4782 H 466.113 -0.471132 -3.40052 0
M  V30 4783 N 468.558 1.5553 0.254621 0
M  V30 4784 C 469.974 1.4778 0.602753 0
M  V30 4785 C 470.174 0.707047 1.88688 0
M  V30 4786 O 469.23 0.233288 2.5142 0
M  V30 4787 C 470.543 2.92133 0.712648 0
M  V30 4788 C 472.091 3.02458 0.805488 0
M  V30 4789 C 472.566 4.48102 0.947009 0
M  V30 4790 N 474.057 4.52008 1.01207 0
M  V30 4791 C 474.792 5.61939 1.1407 0
M  V30 4792 N 474.288 6.81697 1.23536 0
M  V30 4793 N 476.081 5.49719 1.17325 0
M  V30 4794 H 468.232 2.04085 -0.588463 0
M  V30 4795 H 470.495 0.926229 -0.202001 0
M  V30 4796 H 470.201 3.51332 -0.160766 0
M  V30 4797 H 470.075 3.42187 1.58707 0
M  V30 4798 H 472.462 2.43344 1.66936 0
M  V30 4799 H 472.543 2.55627 -0.0939266 0
M  V30 4800 H 472.187 5.07824 0.087725 0
M  V30 4801 H 472.117 4.92607 1.86135 0
M  V30 4802 H 474.608 3.65749 0.950577 0
M  V30 4803 H 474.921 7.61228 1.33236 0
M  V30 4804 H 473.266 6.84473 1.20508 0
M  V30 4805 H 476.457 4.55095 1.09573 0
M  V30 4806 H 476.63 6.35432 1.27005 0
M  V30 4807 N 470.036 -0.519951 1.48776 0
M  V30 4808 C 470.946 -1.65025 1.66745 0
M  V30 4809 C 471.962 -1.6508 0.549954 0
M  V30 4810 O 473.138 -1.83848 0.822295 0
M  V30 4811 C 470.203 -3.0146 1.71238 0
M  V30 4812 C 469.264 -3.12182 2.94688 0
M  V30 4813 C 468.497 -4.42109 2.98958 0
M  V30 4814 O 468.72 -5.29799 2.1135 0
M  V30 4815 O 467.654 -4.57406 3.91233 0
M  V30 4816 H 471.48 -1.52801 2.62461 0
M  V30 4817 H 469.065 -0.694157 1.32294 0
M  V30 4818 H 470.947 -3.82584 1.76657 0
M  V30 4819 H 469.622 -3.13988 0.786975 0
M  V30 4820 H 468.529 -2.30316 2.94797 0
M  V30 4821 H 469.862 -3.04574 3.86646 0
M  V30 4822 N 471.514 -1.37532 -0.769588 0
M  V30 4823 C 472.739 -1.36231 -1.56384 0
M  V30 4824 C 473.164 0.0495849 -1.88035 0
M  V30 4825 O 472.522 1.02723 -1.49391 0
M  V30 4826 C 472.57 -2.20986 -2.84952 0
M  V30 4827 O 471.674 -1.61597 -3.79421 0
M  V30 4828 H 471.015 -0.465387 -0.473615 0
M  V30 4829 H 473.545 -1.81085 -0.952342 0
M  V30 4830 H 473.555 -2.34277 -3.34034 0
M  V30 4831 H 472.23 -3.23612 -2.61243 0
M  V30 4832 H 470.807 -1.57359 -3.38072 0
M  V30 4833 N 472.992 0.995999 -1.22138 0
M  V30 4834 C 473.939 2.08551 -0.988687 0
M  V30 4835 C 474.909 1.65864 0.0885021 0
M  V30 4836 O 476.094 1.90704 -0.0604589 0
M  V30 4837 C 473.234 3.40374 -0.569191 0
M  V30 4838 C 472.347 3.96421 -1.71681 0
M  V30 4839 C 471.482 5.1639 -1.2456 0
M  V30 4840 C 470.521 5.64567 -2.36497 0
M  V30 4841 N 469.658 6.75777 -1.90445 0
M  V30 4842 H 474.498 2.2779 -1.92135 0
M  V30 4843 H 472.035 1.1168 -0.957388 0
M  V30 4844 H 473.993 4.16068 -0.307166 0
M  V30 4845 H 472.623 3.21145 0.326462 0
M  V30 4846 H 471.675 3.17628 -2.09324 0
M  V30 4847 H 472.987 4.2816 -2.55891 0
M  V30 4848 H 472.141 5.99362 -0.940774 0
M  V30 4849 H 470.88 4.86266 -0.373662 0
M  V30 4850 H 469.885 4.80185 -2.67772 0
M  V30 4851 H 471.11 5.96716 -3.24202 0
M  V30 4852 H 469.056 6.47443 -1.05609 0
M  V30 4853 H 468.973 7.06818 -2.68223 0
M  V30 4854 H 470.241 7.62262 -1.63022 0
M  V30 4855 N 474.47 1.03057 1.19235 0
M  V30 4856 C 475.4 0.633497 2.24742 0
M  V30 4857 C 476.381 -0.358335 1.66283 0
M  V30 4858 O 477.566 -0.240676 1.92703 0
M  V30 4859 C 474.696 -0.0147648 3.47297 0
M  V30 4860 C 473.65 0.899527 4.18441 0
M  V30 4861 C 472.976 0.116281 5.34574 0
M  V30 4862 C 474.276 2.21404 4.73051 0
M  V30 4863 H 475.97 1.5155 2.58211 0
M  V30 4864 H 473.516 0.73014 1.24117 0
M  V30 4865 H 475.469 -0.304202 4.20301 0
M  V30 4866 H 474.193 -0.931577 3.13032 0
M  V30 4867 H 472.852 1.17319 3.47321 0
M  V30 4868 H 472.5 -0.802619 4.96555 0
M  V30 4869 H 472.2 0.725293 5.83107 0
M  V30 4870 H 473.724 -0.166376 6.10373 0
M  V30 4871 H 475.138 1.98601 5.37802 0
M  V30 4872 H 473.535 2.77512 5.32078 0
M  V30 4873 H 474.605 2.86752 3.91026 0
M  V30 4874 N 475.948 -1.35272 0.808662 0
M  V30 4875 C 476.858 -2.33546 0.222079 0
M  V30 4876 C 477.874 -1.6196 -0.636011 0
M  V30 4877 O 479.05 -1.93822 -0.547274 0
M  V30 4878 C 476.115 -3.41148 -0.61795 0
M  V30 4879 C 475.176 -4.28507 0.260875 0
M  V30 4880 C 474.409 -5.3097 -0.539156 0
M  V30 4881 O 474.632 -5.42123 -1.77367 0
M  V30 4882 O 473.566 -6.01858 0.0710526 0
M  V30 4883 H 477.392 -2.85515 1.03512 0
M  V30 4884 H 474.977 -1.38079 0.570495 0
M  V30 4885 H 476.859 -4.06889 -1.09634 0
M  V30 4886 H 475.534 -2.91447 -1.40855 0
M  V30 4887 H 474.441 -3.6574 0.786451 0
M  V30 4888 H 475.774 -4.81611 1.01547 0
M  V30 4889 N 477.426 -0.562348 -1.47226 0
M  V30 4890 C 478.651 -0.0432632 -2.07355 0
M  V30 4891 C 479.076 1.24332 -1.41149 0
M  V30 4892 O 478.434 1.74603 -0.488226 0
M  V30 4893 C 478.482 0.130288 -3.60365 0
M  V30 4894 O 477.586 1.19166 -3.94808 0
M  V30 4895 H 476.927 -0.0536334 -0.66183 0
M  V30 4896 H 479.457 -0.779495 -1.89169 0
M  V30 4897 H 479.467 0.342881 -4.06557 0
M  V30 4898 H 478.142 -0.809389 -4.07948 0
M  V30 4899 H 476.719 0.959153 -3.60354 0
M  V30 4900 N 478.904 1.54736 -0.299062 0
M  V30 4901 C 480.144 2.0201 0.31168 0
M  V30 4902 C 480.508 1.18281 1.5124 0
M  V30 4903 O 481.709 1.55243 2.19438 0
M  V30 4904 C 479.98 3.5123 0.661227 0
M  V30 4905 S 481.539 4.20467 1.2551 0
M  V30 4906 H 478.357 0.704523 0.0957517 0
M  V30 4907 H 480.959 1.90791 -0.426482 0
M  V30 4908 H 479.663 4.09804 -0.221171 0
M  V30 4909 H 479.194 3.66481 1.43023 0
M  V30 4910 H 481.209 4.26083 2.54298 0
M  V30 4911 N 480.382 0.0267497 1.57577 0
M  V30 4912 C 481.329 -0.955894 2.10075 0
M  V30 4913 C 482.299 -1.32453 1.00226 0
M  V30 4914 O 483.484 -1.41826 1.27632 0
M  V30 4915 C 480.624 -2.2338 2.6305 0
M  V30 4916 C 479.737 -1.92183 3.86898 0
M  V30 4917 C 478.872 -3.14251 4.28275 0
M  V30 4918 C 477.911 -2.78862 5.44888 0
M  V30 4919 N 477.048 -3.93548 5.81433 0
M  V30 4920 H 481.888 -0.501303 2.93753 0
M  V30 4921 H 479.425 -0.235847 1.45197 0
M  V30 4922 H 481.383 -2.98124 2.91853 0
M  V30 4923 H 480.013 -2.6646 1.82205 0
M  V30 4924 H 479.065 -1.07692 3.64838 0
M  V30 4925 H 480.377 -1.62117 4.7172 0
M  V30 4926 H 479.531 -3.97317 4.58502 0
M  V30 4927 H 478.27 -3.47476 3.42215 0
M  V30 4928 H 477.275 -1.94208 5.14357 0
M  V30 4929 H 478.5 -2.46855 6.32645 0
M  V30 4930 H 476.446 -4.2662 4.98328 0
M  V30 4931 H 476.363 -3.67098 6.6089 0
M  V30 4932 H 477.631 -4.77325 6.16264 0
M  V30 4933 N 481.861 -1.55662 -0.24637 0
M  V30 4934 C 483.138 -1.68272 -0.997198 0
M  V30 4935 C 483.518 -0.566785 -2.03349 0
M  V30 4936 O 482.866 0.429688 -2.24424 0
M  V30 4937 C 483.076 -3.08594 -1.63006 0
M  V30 4938 C 484.424 -3.6721 -2.13171 0
M  V30 4939 O 485.448 -3.11397 -1.72946 0
M  V30 4940 O 484.307 -4.65054 -2.87031 0
M  V30 4941 H 481.401 -0.684429 -0.464205 0
M  V30 4942 H 483.947 -1.67993 -0.240114 0
M  V30 4943 H 482.719 -3.81264 -0.880527 0
M  V30 4944 H 482.342 -3.12886 -2.45333 0
M  V30 4945 N 483.339 0.512053 -1.4905 0
M  V30 4946 C 484.564 1.2959 -1.6193 0
M  V30 4947 C 484.989 1.85906 -0.286454 0
M  V30 4948 O 484.347 1.65312 0.744426 0
M  V30 4949 C 484.395 2.40987 -2.68249 0
M  V30 4950 O 483.499 3.44531 -2.26654 0
M  V30 4951 H 482.84 0.383053 -0.542371 0
M  V30 4952 H 485.37 0.614231 -1.95162 0
M  V30 4953 H 485.38 2.86913 -2.90078 0
M  V30 4954 H 484.055 1.99361 -3.65004 0
M  V30 4955 H 482.632 3.046 -2.15112 0
M  V30 4956 N 484.817 1.37938 0.762283 0
M  V30 4957 C 486.228 1.30094 1.33912 0
M  V30 4958 C 486.579 -0.0472026 1.96143 0
M  V30 4959 O 485.704 -0.94917 1.94473 0
M  V30 4960 C 486.299 2.35592 2.43478 0
M  V30 4961 C 484.858 2.31353 2.96905 0
M  V30 4962 C 484.005 2.18919 1.70205 0
M  V30 4963 H 486.956 1.48423 0.561816 0
M  V30 4964 H 486.977 2.00806 3.23199 0
M  V30 4965 H 486.489 3.33701 1.98155 0
M  V30 4966 H 484.59 1.36799 3.46579 0
M  V30 4967 H 484.703 3.25147 3.51875 0
M  V30 4968 H 483.067 1.65624 1.93496 0
M  V30 4969 H 483.85 3.18956 1.26973 0
M  V30 4970 N 486.295 -0.989507 1.22664 0
M  V30 4971 C 487.711 -1.25395 0.987331 0
M  V30 4972 C 487.911 -1.9899 -0.317056 0
M  V30 4973 O 486.967 -2.30141 -1.03882 0
M  V30 4974 C 488.28 -2.06242 2.18826 0
M  V30 4975 C 489.828 -2.19413 2.23219 0
M  V30 4976 C 490.303 -3.03648 3.42873 0
M  V30 4977 N 491.794 -3.11234 3.43056 0
M  V30 4978 C 492.529 -3.7671 4.32293 0
M  V30 4979 N 492.025 -4.44085 5.31752 0
M  V30 4980 N 493.818 -3.73505 4.2006 0
M  V30 4981 H 485.969 -0.496212 2.06522 0
M  V30 4982 H 488.232 -0.281784 0.905153 0
M  V30 4983 H 487.938 -1.59531 3.13437 0
M  V30 4984 H 487.812 -3.06996 2.19165 0
M  V30 4985 H 490.199 -2.65336 1.29154 0
M  V30 4986 H 490.28 -1.18078 2.26917 0
M  V30 4987 H 489.924 -2.58424 4.37241 0
M  V30 4988 H 489.854 -4.05132 3.36416 0
M  V30 4989 H 492.345 -2.63287 2.71088 0
M  V30 4990 H 492.658 -4.91797 5.96117 0
M  V30 4991 H 491.003 -4.42822 5.35662 0
M  V30 4992 H 494.194 -3.20033 3.41609 0
M  V30 4993 H 494.367 -4.24253 4.8981 0
M  V30 4994 N 487.773 -1.03688 -1.18687 0
M  V30 4995 C 489.001 -0.757918 -1.92518 0
M  V30 4996 C 489.416 0.684398 -1.75959 0
M  V30 4997 O 488.773 1.46617 -1.08673 0
M  V30 4998 C 488.824 -1.10985 -3.44042 0
M  V30 4999 O 488.545 -2.49554 -3.60076 0
M  V30 5000 C 490.046 -0.854844 -4.3498 0
M  V30 5001 H 487.266 -0.276699 -0.611293 0
M  V30 5002 H 489.81 -1.38352 -1.50595 0
M  V30 5003 H 487.965 -0.529279 -3.83767 0
M  V30 5004 H 488.379 -2.6291 -4.53849 0
M  V30 5005 H 489.853 -1.15098 -5.39867 0
M  V30 5006 H 490.33 0.210507 -4.38695 0
M  V30 5007 H 490.936 -1.41853 -4.00946 0
M  V30 5008 N 489.251 1.34841 -0.815825 0
M  V30 5009 C 490.214 2.27959 -0.238185 0
M  V30 5010 C 491.214 1.49983 0.579816 0
M  V30 5011 O 492.404 1.69617 0.396953 0
M  V30 5012 C 489.536 3.34314 0.666876 0
M  V30 5013 H 490.729 2.80558 -1.05958 0
M  V30 5014 H 488.282 1.44852 -0.587156 0
M  V30 5015 H 489.017 2.86916 1.5116 0
M  V30 5016 H 488.802 3.92014 0.0819106 0
M  V30 5017 H 490.292 4.0379 1.06506 0
M  V30 5018 N 490.729 0.570148 1.46925 0
M  V30 5019 C 492.14 0.1402 1.86173 0
M  V30 5020 C 492.491 -1.29347 1.47526 0
M  V30 5021 O 491.616 -1.97508 0.884292 0
M  V30 5022 C 492.211 0.247661 3.37894 0
M  V30 5023 C 490.77 -0.127332 3.76185 0
M  V30 5024 C 489.917 0.589349 2.70965 0
M  V30 5025 H 492.868 0.779117 1.38259 0
M  V30 5026 H 492.889 -0.530341 3.76786 0
M  V30 5027 H 492.401 1.29121 3.65991 0
M  V30 5028 H 490.502 -1.17149 3.53704 0
M  V30 5029 H 490.615 0.240238 4.78497 0
M  V30 5030 H 488.979 0.0309824 2.54681 0
M  V30 5031 H 489.762 1.6343 3.01903 0
M  V30 5032 N 492.207 -1.54576 0.307264 0
M  V30 5033 C 493.139 -2.21212 -0.599807 0
M  V30 5034 C 494.152 -1.20685 -1.09266 0
M  V30 5035 O 495.341 -1.47244 -1.00903 0
M  V30 5036 C 492.441 -2.84994 -1.83389 0
M  V30 5037 C 491.614 -4.11511 -1.48248 0
M  V30 5038 C 490.673 -4.59038 -2.57237 0
M  V30 5039 O 489.699 -5.24095 -2.22065 0
M  V30 5040 N 490.901 -4.31884 -3.87887 0
M  V30 5041 H 493.666 -2.99686 -0.0293075 0
M  V30 5042 H 491.227 -1.61379 0.129738 0
M  V30 5043 H 493.219 -3.1372 -2.5566 0
M  V30 5044 H 491.789 -2.10324 -2.31263 0
M  V30 5045 H 491.009 -3.89728 -0.592122 0
M  V30 5046 H 492.297 -4.93879 -1.22316 0
M  V30 5047 H 491.695 -3.79778 -4.19268 0
M  V30 5048 H 490.252 -4.65304 -4.56438 0
M  V30 5049 N 493.685 -0.035106 -1.57561 0
M  V30 5050 C 494.913 0.652258 -1.9635 0
M  V30 5051 C 495.328 1.65317 -0.911897 0
M  V30 5052 O 494.685 1.82194 0.105657 0
M  V30 5053 C 494.736 1.35337 -3.35211 0
M  V30 5054 O 494.457 0.392548 -4.36338 0
M  V30 5055 C 495.958 2.13199 -3.88666 0
M  V30 5056 H 493.178 0.179444 -0.646561 0
M  V30 5057 H 495.722 -0.0966459 -2.04271 0
M  V30 5058 H 493.877 2.05362 -3.28489 0
M  V30 5059 H 494.291 0.891097 -5.16875 0
M  V30 5060 H 495.765 2.577 -4.88154 0
M  V30 5061 H 496.242 2.97353 -3.23231 0
M  V30 5062 H 496.848 1.48118 -3.98674 0
M  V30 5063 N 495.163 1.55791 0.238111 0
M  V30 5064 C 496.574 1.68383 0.806472 0
M  V30 5065 C 496.925 0.634157 1.85669 0
M  V30 5066 O 496.05 -0.217913 2.153 0
M  V30 5067 C 496.645 3.05268 1.46959 0
M  V30 5068 C 495.204 3.1977 1.98555 0
M  V30 5069 C 494.351 2.64279 0.839763 0
M  V30 5070 H 497.302 1.58694 0.0137535 0
M  V30 5071 H 497.323 3.00203 2.33792 0
M  V30 5072 H 496.835 3.81643 0.704993 0
M  V30 5073 H 494.936 2.48234 2.77868 0
M  V30 5074 H 495.049 4.26788 2.17689 0
M  V30 5075 H 493.413 2.22329 1.24265 0
M  V30 5076 H 494.196 3.43187 0.0881032 0
M  V30 5077 N 496.642 -0.504142 1.49319 0
M  V30 5078 C 497.888 -1.26033 1.58882 0
M  V30 5079 C 498.221 -1.92268 0.273274 0
M  V30 5080 O 497.496 -1.80567 -0.72291 0
M  V30 5081 C 497.779 -2.32976 2.7458 0
M  V30 5082 C 497.632 -1.71263 4.1592 0
M  V30 5083 C 498.951 -3.34561 2.85932 0
M  V30 5084 H 496.07 -0.456863 0.578312 0
M  V30 5085 H 498.712 -0.558965 1.81592 0
M  V30 5086 H 496.862 -2.92796 2.55348 0
M  V30 5087 H 498.534 -1.15294 4.4666 0
M  V30 5088 H 496.777 -1.01686 4.21714 0
M  V30 5089 H 497.448 -2.48816 4.92742 0
M  V30 5090 H 499.924 -2.84727 3.0343 0
M  V30 5091 H 498.8 -4.06754 3.68568 0
M  V30 5092 H 499.061 -3.96695 1.95154 0
M  V30 5093 N 498.12 -1.38341 -0.754957 0
M  V30 5094 C 499.05 -1.38176 -1.88227 0
M  V30 5095 C 500.031 -0.247873 -1.68284 0
M  V30 5096 O 501.216 -0.45075 -1.88896 0
M  V30 5097 C 498.346 -1.20471 -3.25736 0
M  V30 5098 C 497.3 -2.3105 -3.60278 0
M  V30 5099 C 496.626 -1.98452 -4.96509 0
M  V30 5100 C 497.926 -3.73305 -3.65295 0
M  V30 5101 H 499.62 -2.32512 -1.88622 0
M  V30 5102 H 497.166 -1.1192 -0.906082 0
M  V30 5103 H 499.119 -1.18982 -4.04254 0
M  V30 5104 H 497.843 -0.225965 -3.25817 0
M  V30 5105 H 496.502 -2.31723 -2.84078 0
M  V30 5106 H 496.15 -0.990641 -4.93148 0
M  V30 5107 H 495.85 -2.7251 -5.20588 0
M  V30 5108 H 497.374 -1.98578 -5.77407 0
M  V30 5109 H 498.788 -3.7467 -4.3393 0
M  V30 5110 H 497.185 -4.46557 -4.00883 0
M  V30 5111 H 498.255 -4.05719 -2.65556 0
M  V30 5112 N 499.598 0.982988 -1.23187 0
M  V30 5113 C 500.53 2.07729 -0.968572 0
M  V30 5114 C 501.543 1.62702 0.0564821 0
M  V30 5115 O 502.732 1.77603 -0.178733 0
M  V30 5116 C 499.832 3.36071 -0.436974 0
M  V30 5117 C 499.005 4.10081 -1.52159 0
M  V30 5118 C 498.064 5.16701 -0.99532 0
M  V30 5119 O 497.09 5.43727 -1.68373 0
M  V30 5120 N 498.292 5.80226 0.178192 0
M  V30 5121 H 501.057 2.30894 -1.9107 0
M  V30 5122 H 498.618 1.14949 -1.1401 0
M  V30 5123 H 500.61 4.04639 -0.0700051 0
M  V30 5124 H 499.18 3.09893 0.410509 0
M  V30 5125 H 498.4 3.36004 -2.06144 0
M  V30 5126 H 499.688 4.56295 -2.25105 0
M  V30 5127 H 499.086 5.60651 0.754096 0
M  V30 5128 H 497.643 6.49982 0.486449 0
M  V30 5129 N 501.076 1.04316 1.18135 0
M  V30 5130 C 502.023 0.636398 2.21853 0
M  V30 5131 C 502.993 -0.357039 1.62217 0
M  V30 5132 O 504.178 -0.250453 1.89149 0
M  V30 5133 C 501.318 0.00812779 3.45099 0
M  V30 5134 C 500.431 1.04933 4.19062 0
M  V30 5135 C 499.566 0.389313 5.29771 0
M  V30 5136 C 498.605 1.41544 5.9551 0
M  V30 5137 N 497.742 0.78021 6.97751 0
M  V30 5138 H 502.582 1.52536 2.56002 0
M  V30 5139 H 500.119 0.76304 1.25762 0
M  V30 5140 H 502.077 -0.373497 4.15525 0
M  V30 5141 H 500.707 -0.844336 3.11562 0
M  V30 5142 H 499.759 1.54888 3.47439 0
M  V30 5143 H 501.071 1.82862 4.64072 0
M  V30 5144 H 500.225 -0.0463805 6.06682 0
M  V30 5145 H 498.964 -0.422038 4.8587 0
M  V30 5146 H 497.969 1.86124 5.17337 0
M  V30 5147 H 499.194 2.22854 6.41493 0
M  V30 5148 H 497.14 -0.0107899 6.55999 0
M  V30 5149 H 497.057 1.49716 7.41027 0
M  V30 5150 H 498.325 0.368996 7.78626 0
M  V30 5151 N 502.554 -1.34406 0.822964 0
M  V30 5152 C 503.782 -2.02508 0.424039 0
M  V30 5153 C 504.197 -1.61975 -0.970022 0
M  V30 5154 O 503.554 -0.825228 -1.62777 0
M  V30 5155 C 503.605 -3.57789 0.516657 0
M  V30 5156 O 503.326 -3.96853 1.85577 0
M  V30 5157 C 504.827 -4.43157 0.112637 0
M  V30 5158 H 502.047 -0.649063 0.170173 0
M  V30 5159 H 504.591 -1.7168 1.11113 0
M  V30 5160 H 502.746 -3.87207 -0.122353 0
M  V30 5161 H 503.16 -4.91538 1.83005 0
M  V30 5162 H 504.634 -5.51527 0.228526 0
M  V30 5163 H 505.111 -4.28939 -0.943837 0
M  V30 5164 H 505.717 -4.19067 0.725449 0
M  V30 5165 N 504.032 -0.577932 -1.46621 0
M  V30 5166 C 505.257 -0.0652536 -2.07297 0
M  V30 5167 C 505.682 1.22828 -1.4246 0
M  V30 5168 O 505.04 1.74075 -0.506718 0
M  V30 5169 C 505.088 0.0920589 -3.60482 0
M  V30 5170 O 504.192 1.14972 -3.96049 0
M  V30 5171 H 503.533 -0.06065 -0.661224 0
M  V30 5172 H 506.063 -0.799515 -1.88332 0
M  V30 5173 H 506.073 0.299741 -4.06897 0
M  V30 5174 H 504.748 -0.852612 -4.07067 0
M  V30 5175 H 503.325 0.920879 -3.61351 0
M  V30 5176 N 505.51 1.54411 -0.315457 0
M  V30 5177 C 506.735 2.05299 0.294496 0
M  V30 5178 C 507.16 1.19052 1.4563 0
M  V30 5179 O 506.518 0.197804 1.80218 0
M  V30 5180 C 506.566 3.5345 0.714549 0
M  V30 5181 O 505.67 3.70175 1.81781 0
M  V30 5182 H 505.011 0.661743 0.0547019 0
M  V30 5183 H 507.541 1.99327 -0.461508 0
M  V30 5184 H 507.551 3.9557 0.999426 0
M  V30 5185 H 506.226 4.1568 -0.135244 0
M  V30 5186 H 504.803 3.3996 1.53236 0
M  V30 5187 N 506.988 0.0434614 1.5754 0
M  V30 5188 C 508.213 -0.645358 1.97104 0
M  V30 5189 C 508.638 -1.64037 0.920521 0
M  V30 5190 O 507.996 -1.80922 -0.11708 0
M  V30 5191 C 508.044 -1.31547 3.35749 0
M  V30 5192 O 507.148 -2.43103 3.33129 0
M  V30 5193 H 506.489 -0.168403 0.64229 0
M  V30 5194 H 509.019 0.109573 2.04306 0
M  V30 5195 H 509.029 -1.66895 3.72304 0
M  V30 5196 H 507.704 -0.586205 4.11748 0
M  V30 5197 H 506.281 -2.0976 3.0831 0
M  V30 5198 N 508.466 -1.55915 -0.229846 0
M  V30 5199 C 509.715 -1.77742 -0.953455 0
M  V30 5200 C 510.028 -0.610524 -1.85828 0
M  V30 5201 O 511.234 -0.712219 -2.61992 0
M  V30 5202 C 509.69 -3.14738 -1.74551 0
M  V30 5203 C 509.298 -4.39126 -0.887242 0
M  V30 5204 C 511.042 -3.45895 -2.46084 0
M  V30 5205 C 508.949 -5.67149 -1.67617 0
M  V30 5206 H 507.879 -0.662648 -0.359741 0
M  V30 5207 H 510.53 -1.82322 -0.207576 0
M  V30 5208 H 508.912 -3.04311 -2.53399 0
M  V30 5209 H 510.086 -4.60588 -0.139892 0
M  V30 5210 H 508.401 -4.15427 -0.284443 0
M  V30 5211 H 510.998 -4.38767 -3.05594 0
M  V30 5212 H 511.341 -2.68007 -3.18556 0
M  V30 5213 H 511.874 -3.57614 -1.74233 0
M  V30 5214 H 508.613 -6.47906 -0.994881 0
M  V30 5215 H 508.133 -5.49763 -2.39836 0
M  V30 5216 H 509.812 -6.07025 -2.23898 0
M  V30 5217 N 509.944 0.496216 -1.49584 0
M  V30 5218 C 511.172 1.27394 -1.63029 0
M  V30 5219 C 511.587 1.86344 -0.303569 0
M  V30 5220 O 510.944 1.68057 0.711547 0
M  V30 5221 C 510.995 2.40077 -2.70269 0
M  V30 5222 O 510.716 1.83549 -3.97796 0
M  V30 5223 C 512.217 3.31372 -2.94462 0
M  V30 5224 H 509.437 0.386211 -0.54871 0
M  V30 5225 H 511.981 0.595163 -1.95648 0
M  V30 5226 H 510.136 3.03775 -2.40415 0
M  V30 5227 H 510.55 2.57561 -4.56905 0
M  V30 5228 H 512.024 4.06707 -3.73221 0
M  V30 5229 H 512.501 3.88654 -2.0456 0
M  V30 5230 H 513.107 2.73435 -3.25751 0
M  V30 5231 N 511.423 1.38739 0.74761 0
M  V30 5232 C 512.353 1.39173 1.87492 0
M  V30 5233 C 513.334 0.256794 1.6815 0
M  V30 5234 O 514.519 0.460762 1.88655 0
M  V30 5235 C 511.649 1.22197 3.25093 0
M  V30 5236 C 510.603 2.32957 3.59047 0
M  V30 5237 C 509.929 2.01082 4.95449 0
M  V30 5238 C 511.229 3.75237 3.6331 0
M  V30 5239 H 512.923 2.3351 1.87386 0
M  V30 5240 H 510.469 1.12399 0.900134 0
M  V30 5241 H 512.422 1.21124 4.03617 0
M  V30 5242 H 511.146 0.243241 3.25693 0
M  V30 5243 H 509.805 2.33226 2.82845 0
M  V30 5244 H 509.453 1.01678 4.92616 0
M  V30 5245 H 509.153 2.75267 5.19136 0
M  V30 5246 H 510.677 2.01638 5.76346 0
M  V30 5247 H 512.091 3.76966 4.31937 0
M  V30 5248 H 510.488 4.48677 3.98509 0
M  V30 5249 H 511.558 4.07122 2.634 0
M  V30 5250 N 512.901 -0.976442 1.23707 0
M  V30 5251 C 513.833 -2.07212 0.979574 0
M  V30 5252 C 514.846 -1.6273 -0.0478528 0
M  V30 5253 O 516.035 -1.77506 0.18815 0
M  V30 5254 C 513.135 -3.35835 0.45479 0
M  V30 5255 C 512.308 -4.09268 1.54331 0
M  V30 5256 C 511.367 -5.16166 1.02271 0
M  V30 5257 O 510.393 -5.42827 1.71254 0
M  V30 5258 N 511.595 -5.80313 -0.147419 0
M  V30 5259 H 514.36 -2.29878 1.92292 0
M  V30 5260 H 511.921 -1.14343 1.14618 0
M  V30 5261 H 513.913 -4.04597 0.0914631 0
M  V30 5262 H 512.483 -3.10106 -0.394068 0
M  V30 5263 H 511.703 -3.34906 2.07923 0
M  V30 5264 H 512.991 -4.55095 2.27522 0
M  V30 5265 H 512.389 -5.61043 -0.724353 0
M  V30 5266 H 510.946 -6.50231 -0.451972 0
M  V30 5267 N 514.379 -1.04941 -1.1758 0
M  V30 5268 C 515.342 -0.652456 -2.19717 0
M  V30 5269 C 516.342 0.294745 -1.58076 0
M  V30 5270 O 517.532 0.0789579 -1.74021 0
M  V30 5271 C 514.664 0.0420712 -3.40874 0
M  V30 5272 H 515.857 -1.55642 -2.5635 0
M  V30 5273 H 513.41 -0.842995 -1.31618 0
M  V30 5274 H 514.145 0.95943 -3.09783 0
M  V30 5275 H 513.93 -0.638844 -3.86861 0
M  V30 5276 H 515.42 0.306 -4.16477 0
M  V30 5277 N 515.857 1.33968 -0.830081 0
M  V30 5278 C 516.82 2.27694 -0.26235 0
M  V30 5279 C 517.82 1.50589 0.563876 0
M  V30 5280 O 519.01 1.70028 0.378941 0
M  V30 5281 C 516.142 3.35002 0.63138 0
M  V30 5282 H 517.335 2.79419 -1.08928 0
M  V30 5283 H 514.888 1.44221 -0.602486 0
M  V30 5284 H 515.623 2.88504 1.48109 0
M  V30 5285 H 515.408 3.92079 0.0403276 0
M  V30 5286 H 516.898 4.04897 1.02217 0
M  V30 5287 N 517.335 0.585699 1.46312 0
M  V30 5288 C 518.751 0.247607 1.57668 0
M  V30 5289 C 518.951 -1.25007 1.58037 0
M  V30 5290 O 518.007 -2.03196 1.49893 0
M  V30 5291 C 519.32 0.899456 2.86933 0
M  V30 5292 C 520.868 0.873326 3.00569 0
M  V30 5293 C 521.343 1.50477 4.32574 0
M  V30 5294 N 522.834 1.46925 4.3928 0
M  V30 5295 C 523.569 1.92719 5.40044 0
M  V30 5296 N 523.065 2.46499 6.47464 0
M  V30 5297 N 524.858 1.83617 5.31264 0
M  V30 5298 H 517.009 1.55841 1.44317 0
M  V30 5299 H 519.272 0.651564 0.688599 0
M  V30 5300 H 518.978 1.95313 2.92482 0
M  V30 5301 H 518.852 0.409476 3.74971 0
M  V30 5302 H 521.239 -0.171736 2.946 0
M  V30 5303 H 521.32 1.40136 2.13999 0
M  V30 5304 H 520.964 2.54905 4.39302 0
M  V30 5305 H 520.894 0.951944 5.17924 0
M  V30 5306 H 523.385 1.07616 3.62253 0
M  V30 5307 H 523.698 2.79291 7.20567 0
M  V30 5308 H 522.043 2.50526 6.48276 0
M  V30 5309 H 525.234 1.41358 4.46246 0
M  V30 5310 H 525.407 2.19622 6.09648 0
M  V30 5311 N 518.813 -1.54241 0.323641 0
M  V30 5312 C 520.059 -2.00867 -0.279323 0
M  V30 5313 C 520.392 -1.21146 -1.5178 0
M  V30 5314 O 519.667 -0.29378 -1.92269 0
M  V30 5315 C 519.95 -3.54837 -0.613387 0
M  V30 5316 C 519.803 -4.45284 0.635803 0
M  V30 5317 C 521.122 -4.16186 -1.43099 0
M  V30 5318 H 518.241 -0.730177 -0.100049 0
M  V30 5319 H 520.883 -1.84829 0.440235 0
M  V30 5320 H 519.033 -3.68634 -1.22641 0
M  V30 5321 H 520.705 -4.43357 1.27406 0
M  V30 5322 H 518.948 -4.14956 1.26466 0
M  V30 5323 H 519.619 -5.5084 0.357597 0
M  V30 5324 H 522.095 -4.05964 -0.912814 0
M  V30 5325 H 520.971 -5.24031 -1.6335 0
M  V30 5326 H 521.232 -3.69516 -2.42715 0
M  V30 5327 N 520.291 -0.0518155 -1.57515 0
M  V30 5328 C 521.223 0.951542 -2.08515 0
M  V30 5329 C 522.236 1.27436 -1.01311 0
M  V30 5330 O 523.425 1.23504 -1.28876 0
M  V30 5331 C 520.525 2.27291 -2.5138 0
M  V30 5332 C 519.698 2.13191 -3.81927 0
M  V30 5333 C 518.757 3.28458 -4.11098 0
M  V30 5334 O 517.783 3.04334 -4.81009 0
M  V30 5335 N 518.985 4.52954 -3.63061 0
M  V30 5336 H 521.75 0.516242 -2.9522 0
M  V30 5337 H 519.311 0.13441 -1.61341 0
M  V30 5338 H 521.303 3.03272 -2.67971 0
M  V30 5339 H 519.873 2.62386 -1.69919 0
M  V30 5340 H 519.093 1.21798 -3.74912 0
M  V30 5341 H 520.381 2.00999 -4.67415 0
M  V30 5342 H 519.779 4.75444 -3.06545 0
M  V30 5343 H 518.336 5.26026 -3.84889 0
M  V30 5344 N 521.769 1.56035 0.221574 0
M  V30 5345 C 523.18 1.69229 0.788567 0
M  V30 5346 C 523.531 0.653814 1.84986 0
M  V30 5347 O 522.656 -0.195065 2.15519 0
M  V30 5348 C 523.251 3.06809 1.43713 0
M  V30 5349 C 521.81 3.21858 1.95152 0
M  V30 5350 C 520.957 2.65155 0.811685 0
M  V30 5351 H 523.908 1.587 -0.00307894 0
M  V30 5352 H 523.929 3.02666 2.30594 0
M  V30 5353 H 523.441 3.82369 0.664475 0
M  V30 5354 H 521.542 2.51167 2.7522 0
M  V30 5355 H 521.655 4.29073 2.1315 0
M  V30 5356 H 520.019 2.23635 1.21899 0
M  V30 5357 H 520.802 3.43261 0.0516987 0
M  V30 5358 N 523.247 -0.488276 1.49845 0
M  V30 5359 C 524.157 -1.61451 1.70207 0
M  V30 5360 C 525.173 -1.63877 0.584846 0
M  V30 5361 O 526.349 -1.82063 0.861107 0
M  V30 5362 C 523.414 -2.9776 1.77594 0
M  V30 5363 C 522.475 -3.05861 3.01243 0
M  V30 5364 C 521.708 -4.35668 3.08268 0
M  V30 5365 O 521.931 -5.25197 2.22541 0
M  V30 5366 O 520.865 -4.49005 4.00847 0
M  V30 5367 H 524.691 -1.47199 2.65643 0
M  V30 5368 H 522.276 -0.665939 1.33737 0
M  V30 5369 H 524.158 -3.7875 1.84732 0
M  V30 5370 H 522.833 -3.12248 0.8534 0
M  V30 5371 H 521.74 -2.24012 2.99616 0
M  V30 5372 H 523.073 -2.96304 3.9302 0
M  V30 5373 N 524.725 -1.39134 -0.740242 0
M  V30 5374 C 526.136 -1.32208 -1.31825 0
M  V30 5375 C 526.487 0.0159919 -1.96193 0
M  V30 5376 O 525.612 0.918111 -1.95958 0
M  V30 5377 C 526.207 -2.39436 -2.39699 0
M  V30 5378 C 524.766 -2.36048 -2.93187 0
M  V30 5379 C 523.913 -2.21599 -1.66701 0
M  V30 5380 H 526.864 -1.49298 -0.538133 0
M  V30 5381 H 526.885 -2.05922 -3.19963 0
M  V30 5382 H 526.397 -3.36811 -1.92821 0
M  V30 5383 H 524.498 -1.42295 -3.44359 0
M  V30 5384 H 524.611 -3.30704 -3.46658 0
M  V30 5385 H 522.975 -1.68681 -1.90837 0
M  V30 5386 H 523.758 -3.20936 -1.21882 0
M  V30 5387 N 526.204 0.969867 -1.24223 0
M  V30 5388 C 527.62 1.23809 -1.00716 0
M  V30 5389 C 527.82 1.99469 0.285358 0
M  V30 5390 O 526.876 2.31764 1.00207 0
M  V30 5391 C 528.189 2.02734 -2.2208 0
M  V30 5392 C 529.737 2.15834 -2.26681 0
M  V30 5393 C 530.212 2.98154 -3.47661 0
M  V30 5394 N 531.703 3.05737 -3.47964 0
M  V30 5395 C 532.438 3.69785 -4.38231 0
M  V30 5396 N 531.934 4.35569 -5.3875 0
M  V30 5397 N 533.727 3.66775 -4.25949 0
M  V30 5398 H 525.878 0.463294 -2.07286 0
M  V30 5399 H 528.141 0.267348 -0.909521 0
M  V30 5400 H 527.847 1.54524 -3.15935 0
M  V30 5401 H 527.721 3.0347 -2.24021 0
M  V30 5402 H 530.108 2.63248 -1.33359 0
M  V30 5403 H 530.189 1.14453 -2.28767 0
M  V30 5404 H 529.833 2.51435 -4.41297 0
M  V30 5405 H 529.763 3.99729 -3.42818 0
M  V30 5406 H 532.254 2.58941 -2.75242 0
M  V30 5407 H 532.567 4.82251 -6.03866 0
M  V30 5408 H 530.912 4.34244 -5.42639 0
M  V30 5409 H 534.103 3.14558 -3.46657 0
M  V30 5410 H 534.276 4.16407 -4.96497 0
M  V30 5411 N 527.682 1.05563 1.17022 0
M  V30 5412 C 528.645 0.664098 2.19368 0
M  V30 5413 C 529.645 -0.286358 1.5823 0
M  V30 5414 O 530.835 -0.069728 1.7406 0
M  V30 5415 C 527.967 -0.0239932 3.40892 0
M  V30 5416 H 529.16 1.57 2.55521 0
M  V30 5417 H 526.713 0.849964 1.31169 0
M  V30 5418 H 527.448 -0.942988 3.10287 0
M  V30 5419 H 527.233 0.659351 3.86516 0
M  V30 5420 H 528.723 -0.283909 4.16634 0
M  V30 5421 N 529.16 -1.33526 0.837174 0
M  V30 5422 C 530.571 -1.80182 0.489017 0
M  V30 5423 C 530.922 -1.69285 -0.991826 0
M  V30 5424 O 530.047 -1.24113 -1.77271 0
M  V30 5425 C 530.642 -3.27149 0.880866 0
M  V30 5426 C 529.201 -3.71828 0.584872 0
M  V30 5427 C 528.348 -2.54974 1.09011 0
M  V30 5428 H 531.299 -1.21071 1.02603 0
M  V30 5429 H 531.32 -3.80024 0.190239 0
M  V30 5430 H 530.832 -3.35048 1.95869 0
M  V30 5431 H 528.933 -3.69457 -0.48295 0
M  V30 5432 H 529.046 -4.65366 1.13892 0
M  V30 5433 H 527.41 -2.4952 0.511047 0
M  V30 5434 H 528.193 -2.65637 2.17467 0
M  V30 5435 N 530.638 -0.59345 -1.46 0
M  V30 5436 C 531.886 -0.082988 -2.0193 0
M  V30 5437 C 532.207 1.28569 -1.46612 0
M  V30 5438 O 531.477 1.84629 -0.654909 0
M  V30 5439 H 530.057 -0.0276882 -0.746487 0
M  V30 5440 H 532.719 -0.771657 -1.78973 0
M  V30 5441 H 531.815 -0.022079 -3.12092 0
M  V30 5442 N 532.116 1.54067 -0.331816 0
M  V30 5443 C 533.046 2.27569 0.522932 0
M  V30 5444 C 534.027 1.28679 1.11247 0
M  V30 5445 O 535.212 1.57504 1.13605 0
M  V30 5446 C 532.342 3.0397 1.67987 0
M  V30 5447 C 531.296 4.10267 1.21924 0
M  V30 5448 C 530.622 4.74555 2.46377 0
M  V30 5449 C 531.922 5.21268 0.32815 0
M  V30 5450 H 533.616 2.99264 -0.0901977 0
M  V30 5451 H 531.162 1.4393 -0.044821 0
M  V30 5452 H 533.115 3.54123 2.28418 0
M  V30 5453 H 531.839 2.29906 2.31971 0
M  V30 5454 H 530.498 3.61009 0.637809 0
M  V30 5455 H 530.146 3.97098 3.08743 0
M  V30 5456 H 529.846 5.46363 2.16243 0
M  V30 5457 H 531.37 5.27487 3.07555 0
M  V30 5458 H 532.784 5.67128 0.838978 0
M  V30 5459 H 531.181 5.99982 0.119228 0
M  V30 5460 H 532.251 4.80673 -0.638839 0
M  V30 5461 N 533.594 0.0601682 1.57485 0
M  V30 5462 C 534.842 -0.610386 1.92662 0
M  V30 5463 C 535.163 -1.70849 0.939981 0
M  V30 5464 O 534.433 -1.95895 -0.0137455 0
M  V30 5465 H 533.013 -0.228457 0.711208 0
M  V30 5466 H 535.675 0.115288 1.94559 0
M  V30 5467 H 534.771 -1.0432 2.94149 0
M  V30 5468 N 535.072 -1.5615 -0.213296 0
M  V30 5469 C 536.318 -1.79812 -0.937849 0
M  V30 5470 C 536.651 -0.631201 -1.83656 0
M  V30 5471 O 535.926 0.369165 -1.90964 0
M  V30 5472 C 536.209 -3.13613 -1.76972 0
M  V30 5473 C 536.062 -4.40766 -0.89695 0
M  V30 5474 C 537.381 -3.43931 -2.7459 0
M  V30 5475 H 534.5 -0.654138 -0.339518 0
M  V30 5476 H 537.142 -1.88877 -0.20623 0
M  V30 5477 H 535.292 -3.06015 -2.39347 0
M  V30 5478 H 536.964 -4.60392 -0.289306 0
M  V30 5479 H 535.207 -4.33326 -0.202756 0
M  V30 5480 H 535.878 -5.30843 -1.51358 0
M  V30 5481 H 538.354 -3.5171 -2.22349 0
M  V30 5482 H 537.23 -4.38706 -3.29891 0
M  V30 5483 H 537.491 -2.6651 -3.52739 0
M  V30 5484 N 536.55 0.480323 -1.50102 0
M  V30 5485 C 537.48 1.58769 -1.71215 0
M  V30 5486 C 538.461 1.60583 -0.560997 0
M  V30 5487 O 539.646 1.76996 -0.799127 0
M  V30 5488 C 536.776 2.97148 -1.79778 0
M  V30 5489 C 535.73 3.10201 -2.94888 0
M  V30 5490 C 535.056 4.50137 -2.88584 0
M  V30 5491 C 536.356 2.88283 -4.35534 0
M  V30 5492 H 538.05 1.41354 -2.6393 0
M  V30 5493 H 535.596 0.678591 -1.27008 0
M  V30 5494 H 537.549 3.74536 -1.93133 0
M  V30 5495 H 536.273 3.15699 -0.836772 0
M  V30 5496 H 534.932 2.35244 -2.81169 0
M  V30 5497 H 534.58 4.65593 -1.90349 0
M  V30 5498 H 534.28 4.59808 -3.65856 0
M  V30 5499 H 535.804 5.29558 -3.03976 0
M  V30 5500 H 537.218 3.55427 -4.49827 0
M  V30 5501 H 535.615 3.09408 -5.14186 0
M  V30 5502 H 536.685 1.84219 -4.48544 0
M  V30 5503 N 538.028 1.39524 0.732853 0
M  V30 5504 C 539.253 1.40329 1.52717 0
M  V30 5505 C 539.678 0.000286574 1.881 0
M  V30 5506 O 539.036 -0.987262 1.52062 0
M  V30 5507 C 539.084 2.28464 2.78992 0
M  V30 5508 O 538.188 1.716 3.75003 0
M  V30 5509 H 537.529 0.47778 0.461109 0
M  V30 5510 H 540.059 1.83546 0.903996 0
M  V30 5511 H 540.069 2.43051 3.27705 0
M  V30 5512 H 538.744 3.30425 2.52572 0
M  V30 5513 H 537.321 1.66267 3.33781 0
M  V30 5514 N 539.506 -0.963266 1.24736 0
M  V30 5515 C 540.917 -1.52145 1.08207 0
M  V30 5516 C 541.268 -1.93142 -0.345061 0
M  V30 5517 O 540.393 -1.77769 -1.23399 0
M  V30 5518 C 540.988 -2.76486 1.95808 0
M  V30 5519 C 539.547 -3.28646 1.8349 0
M  V30 5520 C 538.694 -2.01529 1.90476 0
M  V30 5521 H 541.645 -0.781083 1.38148 0
M  V30 5522 H 541.666 -3.49986 1.49297 0
M  V30 5523 H 541.178 -2.46617 2.99669 0
M  V30 5524 H 539.279 -3.63357 0.824787 0
M  V30 5525 H 539.392 -3.97246 2.67829 0
M  V30 5526 H 537.756 -2.16442 1.34258 0
M  V30 5527 H 538.539 -1.7402 2.95926 0
M  V30 5528 N 540.985 -1.06182 -1.16461 0
M  V30 5529 C 542.21 -0.798599 -1.91408 0
M  V30 5530 C 542.635 0.640987 -1.76842 0
M  V30 5531 O 541.993 1.44652 -1.09296 0
M  V30 5532 C 542.041 -1.19665 -3.40165 0
M  V30 5533 O 541.145 -0.334768 -4.11039 0
M  V30 5534 H 540.486 -0.291961 -0.596368 0
M  V30 5535 H 543.016 -1.41732 -1.47557 0
M  V30 5536 H 543.026 -1.16772 -3.90933 0
M  V30 5537 H 541.701 -2.24526 -3.50087 0
M  V30 5538 H 540.278 -0.425168 -3.70468 0
M  V30 5539 N 542.463 1.3308 -0.844243 0
M  V30 5540 C 543.711 1.97215 -0.441676 0
M  V30 5541 C 544.032 1.67185 1.0037 0
M  V30 5542 O 543.302 0.973588 1.69994 0
M  V30 5543 H 541.882 0.72959 -0.160335 0
M  V30 5544 H 544.544 1.62348 -1.07838 0
M  V30 5545 H 543.64 3.06698 -0.57815 0
M  V30 5546 N 543.941 0.601185 1.45683 0
M  V30 5547 C 544.851 -0.123395 2.34275 0
M  V30 5548 C 545.867 -0.86702 1.5086 0
M  V30 5549 O 547.043 -0.826049 1.8368 0
M  V30 5550 C 544.108 -1.11237 3.2837 0
M  V30 5551 C 543.169 -0.371405 4.2769 0
M  V30 5552 C 542.402 -1.31327 5.1729 0
M  V30 5553 O 542.625 -2.55078 5.10188 0
M  V30 5554 O 541.559 -0.813811 5.96373 0
M  V30 5555 H 545.385 0.604483 2.97623 0
M  V30 5556 H 542.97 0.361477 1.44961 0
M  V30 5557 H 544.852 -1.68214 3.8637 0
M  V30 5558 H 543.527 -1.82139 2.67595 0
M  V30 5559 H 542.434 0.24067 3.73325 0
M  V30 5560 H 543.767 0.296998 4.91303 0
M  V30 5561 N 545.419 -1.53889 0.339982 0
M  V30 5562 C 546.329 -2.28604 -0.526988 0
M  V30 5563 C 547.345 -1.33578 -1.11503 0
M  V30 5564 O 548.521 -1.66612 -1.13148 0
M  V30 5565 C 545.586 -3.04164 -1.66389 0
M  V30 5566 C 544.647 -4.14809 -1.10599 0
M  V30 5567 C 543.88 -4.86756 -2.18871 0
M  V30 5568 O 544.103 -4.58343 -3.39526 0
M  V30 5569 O 543.037 -5.73289 -1.83366 0
M  V30 5570 H 546.863 -3.03594 0.0802707 0
M  V30 5571 H 544.448 -1.4903 0.105141 0
M  V30 5572 H 546.33 -3.51427 -2.32544 0
M  V30 5573 H 545.005 -2.32035 -2.25703 0
M  V30 5574 H 543.912 -3.71857 -0.409067 0
M  V30 5575 H 545.245 -4.89029 -0.557771 0
M  V30 5576 N 546.897 -0.0685191 -1.57451 0
M  V30 5577 C 548.313 0.288101 -1.56978 0
M  V30 5578 C 548.513 1.70262 -1.07765 0
M  V30 5579 O 547.569 2.4135 -0.742054 0
M  V30 5580 C 548.882 0.100745 -3.00531 0
M  V30 5581 C 550.43 0.170531 -3.12535 0
M  V30 5582 C 550.905 0.0114944 -4.57999 0
M  V30 5583 N 552.396 0.0672065 -4.63151 0
M  V30 5584 C 553.131 -0.0314813 -5.73391 0
M  V30 5585 N 552.627 -0.183503 -6.92557 0
M  V30 5586 N 554.42 0.0253489 -5.62094 0
M  V30 5587 H 546.571 -0.993026 -1.87757 0
M  V30 5588 H 548.834 -0.386981 -0.865419 0
M  V30 5589 H 548.54 -0.875197 -3.40636 0
M  V30 5590 H 548.414 0.854457 -3.67395 0
M  V30 5591 H 550.801 1.13696 -2.72318 0
M  V30 5592 H 550.882 -0.614229 -2.48316 0
M  V30 5593 H 550.526 -0.951684 -4.98904 0
M  V30 5594 H 550.456 0.815617 -5.20245 0
M  V30 5595 H 552.947 0.183246 -3.77455 0
M  V30 5596 H 553.26 -0.251041 -7.72392 0
M  V30 5597 H 551.605 -0.218822 -6.94655 0
M  V30 5598 H 554.796 0.142794 -4.67882 0
M  V30 5599 H 554.969 -0.0550166 -6.47977 0
M  V30 5600 N 548.375 1.56261 0.205012 0
M  V30 5601 C 549.322 1.93754 1.25411 0
M  V30 5602 C 550.292 0.796826 1.45739 0
M  V30 5603 O 551.477 1.05414 1.59036 0
M  V30 5604 C 548.617 2.27383 2.59598 0
M  V30 5605 C 547.73 3.5447 2.46931 0
M  V30 5606 C 546.865 3.77468 3.73753 0
M  V30 5607 C 545.904 4.98014 3.55877 0
M  V30 5608 N 545.041 5.17316 4.74688 0
M  V30 5609 H 549.881 2.83203 0.92737 0
M  V30 5610 H 547.418 1.40158 0.446574 0
M  V30 5611 H 549.376 2.44895 3.37761 0
M  V30 5612 H 548.006 1.41088 2.90335 0
M  V30 5613 H 547.058 3.45061 1.60116 0
M  V30 5614 H 548.37 4.42789 2.29651 0
M  V30 5615 H 547.524 3.95165 4.60358 0
M  V30 5616 H 546.263 2.87461 3.93976 0
M  V30 5617 H 545.268 4.80249 2.67657 0
M  V30 5618 H 546.493 5.8952 3.37109 0
M  V30 5619 H 544.439 4.30255 4.95194 0
M  V30 5620 H 544.356 5.99796 4.60197 0
M  V30 5621 H 545.624 5.39463 5.62672 0
M  V30 5622 N 549.853 -0.472356 1.50355 0
M  V30 5623 C 551.269 -0.806001 1.37753 0
M  V30 5624 C 551.469 -1.968 0.432649 0
M  V30 5625 O 550.525 -2.52189 -0.12519 0
M  V30 5626 C 551.838 -1.11926 2.79093 0
M  V30 5627 C 553.386 -1.22579 2.87999 0
M  V30 5628 C 553.861 -1.57218 4.3017 0
M  V30 5629 N 555.352 -1.64212 4.33115 0
M  V30 5630 C 556.087 -1.92517 5.40116 0
M  V30 5631 N 555.583 -2.1885 6.57325 0
M  V30 5632 N 557.376 -1.94008 5.27558 0
M  V30 5633 H 549.527 0.293451 2.10363 0
M  V30 5634 H 551.79 0.0687672 0.945503 0
M  V30 5635 H 551.496 -0.338504 3.50067 0
M  V30 5636 H 551.37 -2.05577 3.16256 0
M  V30 5637 H 553.757 -1.99722 2.17245 0
M  V30 5638 H 553.838 -0.269107 2.54381 0
M  V30 5639 H 553.482 -0.806154 5.01461 0
M  V30 5640 H 553.412 -2.54034 4.61275 0
M  V30 5641 H 555.903 -1.45906 3.48597 0
M  V30 5642 H 556.216 -2.39718 7.3468 0
M  V30 5643 H 554.561 -2.16245 6.60502 0
M  V30 5644 H 557.752 -1.72931 4.34986 0
M  V30 5645 H 557.925 -2.15731 6.11035 0
M  V30 5646 N 551.331 -1.39911 -0.725443 0
M  V30 5647 C 552.742 -1.33599 -1.30415 0
M  V30 5648 C 553.093 -0.00481792 -1.96199 0
M  V30 5649 O 552.218 0.897275 -1.96921 0
M  V30 5650 C 552.813 -2.41965 -2.37146 0
M  V30 5651 C 551.372 -2.39144 -2.90667 0
M  V30 5652 C 550.519 -2.23355 -1.64341 0
M  V30 5653 H 553.47 -1.4986 -0.522267 0
M  V30 5654 H 553.491 -2.09304 -3.17761 0
M  V30 5655 H 553.003 -3.38837 -1.89238 0
M  V30 5656 H 551.104 -1.4594 -3.4283 0
M  V30 5657 H 551.217 -3.34362 -3.43131 0
M  V30 5658 H 549.581 -1.70696 -1.89037 0
M  V30 5659 H 550.364 -3.2221 -1.18471 0
M  V30 5660 N 552.809 0.956637 -1.25245 0
M  V30 5661 C 553.772 2.03457 -1.05537 0
M  V30 5662 C 554.772 1.60798 -0.00886317 0
M  V30 5663 O 555.962 1.72384 -0.250865 0
M  V30 5664 C 553.094 3.35543 -0.601965 0
M  V30 5665 H 554.287 2.22372 -2.01223 0
M  V30 5666 H 551.84 1.13344 -1.07623 0
M  V30 5667 H 552.575 3.22323 0.357584 0
M  V30 5668 H 552.36 3.67854 -1.35743 0
M  V30 5669 H 553.85 4.14769 -0.485454 0
M  V30 5670 N 554.287 1.06798 1.15896 0
M  V30 5671 C 555.698 0.811355 1.68149 0
M  V30 5672 C 556.049 -0.664339 1.8461 0
M  V30 5673 O 555.174 -1.51485 1.54535 0
M  V30 5674 C 555.769 1.46624 3.05429 0
M  V30 5675 C 554.328 1.25726 3.54781 0
M  V30 5676 C 553.475 1.53949 2.3064 0
M  V30 5677 H 556.426 1.23078 1.00187 0
M  V30 5678 H 556.447 0.88437 3.7008 0
M  V30 5679 H 555.959 2.54025 2.93416 0
M  V30 5680 H 554.06 0.20322 3.72045 0
M  V30 5681 H 554.173 1.97354 4.36564 0
M  V30 5682 H 552.537 0.96025 2.35905 0
M  V30 5683 H 553.32 2.6252 2.2122 0
M  V30 5684 N 555.766 -1.3263 0.851289 0
M  V30 5685 C 557.177 -1.79653 0.5081 0
M  V30 5686 C 557.528 -1.70327 -0.973815 0
M  V30 5687 O 556.653 -1.25986 -1.75944 0
M  V30 5688 C 557.248 -3.26196 0.915515 0
M  V30 5689 C 555.807 -3.71187 0.624277 0
M  V30 5690 C 554.954 -2.53804 1.11709 0
M  V30 5691 H 557.905 -1.19976 1.03882 0
M  V30 5692 H 557.926 -3.79801 0.230535 0
M  V30 5693 H 557.438 -3.32952 1.99411 0
M  V30 5694 H 555.539 -3.69948 -0.443737 0
M  V30 5695 H 555.652 -4.64132 1.18821 0
M  V30 5696 H 554.016 -2.48964 0.537484 0
M  V30 5697 H 554.799 -2.63315 2.20272 0
M  V30 5698 N 557.244 -0.608902 -1.45362 0
M  V30 5699 C 558.66 -0.272659 -1.57254 0
M  V30 5700 C 558.86 1.22477 -1.60005 0
M  V30 5701 O 557.916 2.00785 -1.53106 0
M  V30 5702 C 559.229 -0.944991 -2.85465 0
M  V30 5703 C 560.777 -0.921033 -2.99142 0
M  V30 5704 C 561.252 -1.5734 -4.30126 0
M  V30 5705 N 562.743 -1.53895 -4.36887 0
M  V30 5706 C 563.478 -2.01286 -5.36909 0
M  V30 5707 N 562.974 -2.56768 -6.43461 0
M  V30 5708 N 564.767 -1.92046 -5.28275 0
M  V30 5709 H 556.918 -1.58117 -1.4182 0
M  V30 5710 H 559.181 -0.662437 -0.678146 0
M  V30 5711 H 558.887 -1.99941 -2.89338 0
M  V30 5712 H 558.761 -0.469079 -3.74272 0
M  V30 5713 H 561.148 0.124846 -2.94836 0
M  V30 5714 H 561.229 -1.43522 -2.11743 0
M  V30 5715 H 560.873 -2.61862 -4.35191 0
M  V30 5716 H 560.803 -1.03422 -5.16344 0
M  V30 5717 H 563.294 -1.13366 -3.60495 0
M  V30 5718 H 563.607 -2.9072 -7.16032 0
M  V30 5719 H 561.952 -2.60808 -6.44208 0
M  V30 5720 H 565.143 -1.48439 -4.43941 0
M  V30 5721 H 565.316 -2.29293 -6.06077 0
M  V30 5722 N 558.722 1.53707 -0.348139 0
M  V30 5723 C 560.133 1.86213 0.134797 0
M  V30 5724 C 560.484 1.26925 1.49614 0
M  V30 5725 O 559.609 0.584573 2.08355 0
M  V30 5726 C 560.204 3.37866 0.251371 0
M  V30 5727 C 558.763 3.70233 0.678543 0
M  V30 5728 C 557.91 2.76683 -0.184925 0
M  V30 5729 H 560.861 1.48204 -0.567571 0
M  V30 5730 H 560.882 3.64908 1.07806 0
M  V30 5731 H 560.394 3.80988 -0.739581 0
M  V30 5732 H 558.495 3.32659 1.67835 0
M  V30 5733 H 558.608 4.76836 0.465251 0
M  V30 5734 H 556.972 2.52374 0.343465 0
M  V30 5735 H 557.755 3.22635 -1.1731 0
M  V30 5736 N 560.2 0.0768682 1.57412 0
M  V30 5737 C 561.163 -0.873949 2.11884 0
M  V30 5738 C 562.163 -1.22301 1.04398 0
M  V30 5739 O 563.353 -1.15545 1.30365 0
M  V30 5740 C 560.485 -2.17575 2.62438 0
M  V30 5741 H 561.678 -0.401278 2.97203 0
M  V30 5742 H 559.231 -0.171904 1.55352 0
M  V30 5743 H 559.966 -2.69368 1.80587 0
M  V30 5744 H 559.751 -1.93534 3.41009 0
M  V30 5745 H 561.241 -2.85631 3.04639 0
M  V30 5746 N 561.678 -1.56367 -0.196722 0
M  V30 5747 C 562.906 -1.84639 -0.933608 0
M  V30 5748 C 563.321 -0.659164 -1.76919 0
M  V30 5749 O 562.678 0.372142 -1.78665 0
M  V30 5750 C 562.729 -3.11694 -1.83109 0
M  V30 5751 O 562.45 -4.25838 -1.02924 0
M  V30 5752 C 563.951 -3.53132 -2.67979 0
M  V30 5753 H 561.171 -0.613188 -0.272473 0
M  V30 5754 H 563.715 -2.03475 -0.204465 0
M  V30 5755 H 561.87 -2.94759 -2.51387 0
M  V30 5756 H 562.284 -4.98178 -1.64069 0
M  V30 5757 H 563.758 -4.45005 -3.26611 0
M  V30 5758 H 564.235 -2.76045 -3.41608 0
M  V30 5759 H 564.841 -3.72592 -2.05074 0
M  V30 5760 N 563.156 0.464375 -1.50603 0
M  V30 5761 C 564.403 1.21596 -1.61928 0
M  V30 5762 C 564.731 1.91804 -0.322737 0
M  V30 5763 O 563.986 1.83065 0.691776 0
M  V30 5764 C 564.285 2.278 -2.75394 0
M  V30 5765 C 563.951 1.74797 -4.1564 0
M  V30 5766 C 562.613 1.60063 -4.53799 0
M  V30 5767 C 564.965 1.35548 -5.03266 0
M  V30 5768 C 562.293 1.04514 -5.77316 0
M  V30 5769 C 564.645 0.814381 -6.27336 0
M  V30 5770 C 563.309 0.653726 -6.64291 0
M  V30 5771 H 562.579 0.444951 -0.592536 0
M  V30 5772 H 565.226 0.510964 -1.84557 0
M  V30 5773 H 563.531 3.04233 -2.46879 0
M  V30 5774 H 565.228 2.85723 -2.81359 0
M  V30 5775 H 561.818 1.87234 -3.8554 0
M  V30 5776 H 566.002 1.45763 -4.74412 0
M  V30 5777 H 561.258 0.908186 -6.04617 0
M  V30 5778 H 565.432 0.501626 -6.94591 0
M  V30 5779 H 563.059 0.22114 -7.59878 0
M  V30 5780 N 564.634 1.40294 0.718013 0
M  V30 5781 C 566.045 1.34289 1.29705 0
M  V30 5782 C 566.396 0.0152228 1.96194 0
M  V30 5783 O 565.521 -0.88682 1.97394 0
M  V30 5784 C 566.116 2.43219 2.3586 0
M  V30 5785 C 564.675 2.40682 2.89394 0
M  V30 5786 C 563.822 2.24223 1.63154 0
M  V30 5787 H 566.773 1.50135 0.514312 0
M  V30 5788 H 566.794 2.10986 3.16647 0
M  V30 5789 H 566.306 3.39836 1.87439 0
M  V30 5790 H 564.407 1.47756 3.42051 0
M  V30 5791 H 564.52 3.36177 3.41353 0
M  V30 5792 H 562.884 1.71696 1.88129 0
M  V30 5793 H 563.667 3.22834 1.16761 0
M  V30 5794 N 566.112 -0.949982 1.2575 0
M  V30 5795 C 567.34 -1.72972 1.13527 0
M  V30 5796 C 567.755 -1.8623 -0.310453 0
M  V30 5797 O 567.112 -1.36336 -1.2132 0
M  V30 5798 C 567.163 -3.14108 1.78936 0
M  V30 5799 O 566.884 -3.01493 3.17858 0
M  V30 5800 C 568.385 -4.08338 1.72554 0
M  V30 5801 H 565.605 -0.541864 0.395758 0
M  V30 5802 H 568.149 -1.19151 1.66202 0
M  V30 5803 H 566.304 -3.64858 1.30221 0
M  V30 5804 H 566.718 -3.90559 3.50092 0
M  V30 5805 H 568.192 -5.04963 2.22973 0
M  V30 5806 H 568.669 -4.33742 0.690251 0
M  V30 5807 H 569.275 -3.63506 2.2078 0
M  V30 5808 N 567.59 -1.07411 -1.15328 0
M  V30 5809 C 569.006 -0.799759 -1.38116 0
M  V30 5810 C 569.206 0.59572 -1.92493 0
M  V30 5811 O 568.262 1.35433 -2.13106 0
M  V30 5812 C 569.575 -1.87407 -2.35158 0
M  V30 5813 C 571.123 -1.89889 -2.48819 0
M  V30 5814 C 571.598 -2.96406 -3.49153 0
M  V30 5815 N 573.089 -2.95512 -3.56689 0
M  V30 5816 C 573.824 -3.74575 -4.34144 0
M  V30 5817 N 573.32 -4.63488 -5.14928 0
M  V30 5818 N 575.113 -3.62919 -4.29239 0
M  V30 5819 H 567.264 -1.97411 -0.78374 0
M  V30 5820 H 569.527 -0.856113 -0.407154 0
M  V30 5821 H 569.233 -2.8768 -2.0232 0
M  V30 5822 H 569.107 -1.73471 -3.34944 0
M  V30 5823 H 571.494 -0.902677 -2.80955 0
M  V30 5824 H 571.575 -2.07904 -1.49029 0
M  V30 5825 H 571.219 -3.96227 -3.17752 0
M  V30 5826 H 571.149 -2.75638 -4.48699 0
M  V30 5827 H 573.64 -2.31061 -2.99031 0
M  V30 5828 H 573.953 -5.20445 -5.71276 0
M  V30 5829 H 572.298 -4.67537 -5.14232 0
M  V30 5830 H 575.489 -2.92833 -3.65194 0
M  V30 5831 H 575.662 -4.24777 -4.89355 0
M  V30 5832 N 569.068 1.32177 -0.85831 0
M  V30 5833 C 570 2.27688 -0.262835 0
M  V30 5834 C 571.013 1.52588 0.567513 0
M  V30 5835 O 572.202 1.74156 0.391407 0
M  V30 5836 C 569.302 3.32668 0.646937 0
M  V30 5837 C 568.475 4.37148 -0.148372 0
M  V30 5838 C 567.534 5.21686 0.687728 0
M  V30 5839 O 566.56 5.69074 0.119934 0
M  V30 5840 N 567.762 5.44892 2.00182 0
M  V30 5841 H 570.527 2.79426 -1.08356 0
M  V30 5842 H 568.088 1.45076 -0.718647 0
M  V30 5843 H 570.08 3.86134 1.2117 0
M  V30 5844 H 568.65 2.81061 1.36834 0
M  V30 5845 H 567.87 3.83915 -0.894572 0
M  V30 5846 H 569.158 5.04038 -0.694514 0
M  V30 5847 H 568.556 5.08128 2.4864 0
M  V30 5848 H 567.113 6.0134 2.51463 0
M  V30 5849 N 570.547 0.616602 1.45037 0
M  V30 5850 C 571.958 0.199359 1.85633 0
M  V30 5851 C 572.309 -1.24588 1.51566 0
M  V30 5852 O 571.434 -1.94594 0.94668 0
M  V30 5853 C 572.029 0.355033 3.36935 0
M  V30 5854 C 570.588 -0.00758748 3.76399 0
M  V30 5855 C 569.735 0.675256 2.68953 0
M  V30 5856 H 572.686 0.822708 1.3571 0
M  V30 5857 H 572.707 -0.410201 3.78282 0
M  V30 5858 H 572.219 1.40699 3.61698 0
M  V30 5859 H 570.32 -1.05837 3.57252 0
M  V30 5860 H 570.433 0.392346 4.77491 0
M  V30 5861 H 568.797 0.111992 2.54454 0
M  V30 5862 H 569.58 1.72952 2.96551 0
M  V30 5863 N 572.025 -1.5352 0.356285 0
M  V30 5864 C 573.273 -2.00719 -0.235837 0
M  V30 5865 C 573.594 -1.24551 -1.5004 0
M  V30 5866 O 572.864 -0.356185 -1.92635 0
M  V30 5867 H 571.444 -0.741542 -0.0901366 0
M  V30 5868 H 574.106 -1.88887 0.480378 0
M  V30 5869 H 573.202 -3.08551 -0.469357 0
M  V30 5870 N 573.503 -0.0852151 -1.57369 0
M  V30 5871 C 574.433 0.874556 -2.16503 0
M  V30 5872 C 575.414 1.30111 -1.09568 0
M  V30 5873 O 576.599 1.36977 -1.37662 0
M  V30 5874 C 573.729 2.13731 -2.73745 0
M  V30 5875 C 572.683 1.84971 -3.85966 0
M  V30 5876 C 572.009 3.17991 -4.29867 0
M  V30 5877 C 573.309 1.14442 -5.09608 0
M  V30 5878 H 575.003 0.381899 -2.96954 0
M  V30 5879 H 572.549 0.18225 -1.42842 0
M  V30 5880 H 574.502 2.81302 -3.13763 0
M  V30 5881 H 573.226 2.65263 -1.90534 0
M  V30 5882 H 571.885 1.19801 -3.46473 0
M  V30 5883 H 571.533 3.6739 -3.4356 0
M  V30 5884 H 571.233 2.99534 -5.05523 0
M  V30 5885 H 572.757 3.86737 -4.72511 0
M  V30 5886 H 574.171 1.72105 -5.46857 0
M  V30 5887 H 572.568 1.06197 -5.90629 0
M  V30 5888 H 573.638 0.12559 -4.84737 0
M  V30 5889 N 574.981 1.5647 0.188427 0
M  V30 5890 C 576.229 1.80655 0.905986 0
M  V30 5891 C 576.55 0.659391 1.83513 0
M  V30 5892 O 575.82 -0.321868 1.93238 0
M  V30 5893 H 574.4 0.666391 0.337538 0
M  V30 5894 H 577.062 1.93949 0.192339 0
M  V30 5895 H 576.158 2.74066 1.49313 0
M  V30 5896 N 576.459 -0.456382 1.50847 0
M  V30 5897 C 577.684 -1.2349 1.66628 0
M  V30 5898 C 578.109 -1.84715 0.355254 0
M  V30 5899 O 577.467 -1.67961 -0.682559 0
M  V30 5900 C 577.515 -2.30865 2.77009 0
M  V30 5901 O 576.619 -3.35882 2.39285 0
M  V30 5902 H 575.96 -0.36266 0.556214 0
M  V30 5903 H 578.49 -0.541374 1.97308 0
M  V30 5904 H 578.5 -2.75949 3.00526 0
M  V30 5905 H 577.175 -1.85677 3.72152 0
M  V30 5906 H 575.752 -2.96406 2.26269 0
M  V30 5907 N 577.937 -1.40673 -0.710563 0
M  V30 5908 C 578.869 -1.37256 -1.83558 0
M  V30 5909 C 579.882 -0.277133 -1.60424 0
M  V30 5910 O 581.071 -0.537831 -1.70205 0
M  V30 5911 C 578.171 -1.1144 -3.20054 0
M  V30 5912 C 577.344 -2.32734 -3.70342 0
M  V30 5913 C 576.403 -2.03002 -4.85465 0
M  V30 5914 O 575.429 -2.75912 -4.97857 0
M  V30 5915 N 576.631 -1.01105 -5.71627 0
M  V30 5916 H 579.396 -2.34215 -1.86985 0
M  V30 5917 H 576.957 -1.35091 -0.892301 0
M  V30 5918 H 578.949 -0.895265 -3.94673 0
M  V30 5919 H 577.519 -0.231307 -3.11743 0
M  V30 5920 H 576.739 -2.70446 -2.86798 0
M  V30 5921 H 578.027 -3.13584 -4.00678 0
M  V30 5922 H 577.425 -0.407303 -5.64232 0
M  V30 5923 H 575.982 -0.85182 -6.4621 0
M  V30 5924 N 579.415 0.9433 -1.26252 0
M  V30 5925 C 580.692 1.66639 -1.02424 0
M  V30 5926 C 581.072 2.06335 0.446006 0
M  V30 5927 O 580.42 1.78551 1.42589 0
M  V30 5928 C 580.63 2.88019 -1.97094 0
M  V30 5929 C 581.978 3.59718 -2.25584 0
M  V30 5930 O 583.002 2.9812 -1.94943 0
M  V30 5931 O 581.861 4.7066 -2.77743 0
M  V30 5932 H 578.955 0.729643 -0.389294 0
M  V30 5933 H 581.501 0.995218 -1.37454 0
M  V30 5934 H 580.273 2.5556 -2.96319 0
M  V30 5935 H 579.896 3.62863 -1.62532 0
M  V30 5936 N 580.893 1.08022 1.14757 0
M  V30 5937 C 582.139 0.808705 1.85978 0
M  V30 5938 C 582.472 -0.663764 1.82504 0
M  V30 5939 O 581.747 -1.48765 1.25296 0
M  V30 5940 C 582.03 1.32623 3.34788 0
M  V30 5941 C 581.883 2.86375 3.46856 0
M  V30 5942 C 583.202 0.948291 4.29762 0
M  V30 5943 H 580.321 0.295244 0.675278 0
M  V30 5944 H 582.963 1.33917 1.34783 0
M  V30 5945 H 581.113 0.875002 3.78518 0
M  V30 5946 H 582.785 3.39839 3.11941 0
M  V30 5947 H 581.028 3.24232 2.88194 0
M  V30 5948 H 581.699 3.17658 4.51439 0
M  V30 5949 H 584.175 1.33722 3.94028 0
M  V30 5950 H 583.051 1.33765 5.32352 0
M  V30 5951 H 583.312 -0.145094 4.41862 0
M  V30 5952 N 582.371 -1.3172 0.865308 0
M  V30 5953 C 583.617 -1.97168 0.474633 0
M  V30 5954 C 583.95 -1.68263 -0.969604 0
M  V30 5955 O 583.225 -0.976588 -1.68205 0
M  V30 5956 C 583.508 -3.52689 0.726808 0
M  V30 5957 C 583.361 -3.91185 2.22024 0
M  V30 5958 C 584.68 -4.39689 0.190201 0
M  V30 5959 H 581.799 -0.716185 0.17392 0
M  V30 5960 H 584.441 -1.55925 1.08569 0
M  V30 5961 H 582.591 -3.8795 0.206705 0
M  V30 5962 H 584.263 -3.66049 2.80724 0
M  V30 5963 H 582.506 -3.3996 2.69462 0
M  V30 5964 H 583.177 -4.99604 2.34735 0
M  V30 5965 H 585.653 -4.11225 0.635103 0
M  V30 5966 H 584.529 -5.47469 0.396132 0
M  V30 5967 H 584.79 -4.32683 -0.907625 0
M  V30 5968 N 583.85 -0.624285 -1.44708 0
M  V30 5969 C 585.075 -0.131171 -2.06985 0
M  V30 5970 C 585.5 1.18234 -1.46295 0
M  V30 5971 O 584.858 1.72375 -0.561842 0
M  V30 5972 C 584.906 -0.0226724 -3.60593 0
M  V30 5973 O 584.01 1.02314 -3.99507 0
M  V30 5974 H 583.351 -0.0816556 -0.65896 0
M  V30 5975 H 585.88 -0.859027 -1.85693 0
M  V30 5976 H 585.891 0.170138 -4.07645 0
M  V30 5977 H 584.566 -0.981685 -4.04148 0
M  V30 5978 H 583.143 0.805452 -3.64097 0
M  V30 5979 N 585.328 1.53329 -0.364422 0
M  V30 5980 C 586.275 2.25698 0.482607 0
M  V30 5981 C 587.245 1.26325 1.07848 0
M  V30 5982 O 588.43 1.55104 1.11119 0
M  V30 5983 C 585.57 3.04873 1.61699 0
M  V30 5984 C 584.683 4.19135 1.0464 0
M  V30 5985 C 583.818 4.85754 2.14979 0
M  V30 5986 C 582.857 5.9205 1.5538 0
M  V30 5987 N 581.994 6.52365 2.59547 0
M  V30 5988 H 586.834 2.97666 -0.141032 0
M  V30 5989 H 584.371 1.46875 -0.0813692 0
M  V30 5990 H 586.329 3.49051 2.28516 0
M  V30 5991 H 584.959 2.35162 2.2113 0
M  V30 5992 H 584.011 3.79451 0.268553 0
M  V30 5993 H 585.323 4.95525 0.570653 0
M  V30 5994 H 584.477 5.3311 2.89619 0
M  V30 5995 H 583.216 4.08834 2.65906 0
M  V30 5996 H 582.221 5.44058 0.792549 0
M  V30 5997 H 583.446 6.7089 1.0528 0
M  V30 5998 H 581.392 5.78298 3.09689 0
M  V30 5999 H 581.309 7.2429 2.16655 0
M  V30 6000 H 582.577 7.0437 3.33892 0
M  V30 6001 N 586.806 0.0935595 1.57322 0
M  V30 6002 C 587.769 -0.851426 2.12799 0
M  V30 6003 C 588.769 -1.21187 1.0569 0
M  V30 6004 O 589.959 -1.14156 1.31583 0
M  V30 6005 C 587.091 -2.14779 2.64731 0
M  V30 6006 H 588.284 -0.369733 2.97612 0
M  V30 6007 H 585.837 -0.155417 1.55525 0
M  V30 6008 H 586.572 -2.67437 1.83434 0
M  V30 6009 H 586.357 -1.89907 3.43042 0
M  V30 6010 H 587.847 -2.82383 3.07651 0
M  V30 6011 N 588.284 -1.56567 -0.180126 0
M  V30 6012 C 589.247 -1.94852 -1.20686 0
M  V30 6013 C 590.247 -0.831212 -1.3765 0
M  V30 6014 O 591.437 -1.09841 -1.35206 0
M  V30 6015 C 588.569 -2.23565 -2.57355 0
M  V30 6016 H 589.762 -2.86722 -0.879225 0
M  V30 6017 H 587.315 -1.50489 -0.422237 0
M  V30 6018 H 588.05 -1.34381 -2.95148 0
M  V30 6019 H 587.835 -3.04999 -2.46411 0
M  V30 6020 H 589.325 -2.54137 -3.31367 0
M  V30 6021 N 589.762 0.448376 -1.51087 0
M  V30 6022 C 590.71 1.56407 -1.72161 0
M  V30 6023 C 591.704 1.58878 -0.587721 0
M  V30 6024 O 592.91 1.62755 -0.768822 0
M  V30 6025 H 589.285 0.519423 -0.543786 0
M  V30 6026 H 591.256 1.35803 -2.65707 0
M  V30 6027 C 590.005 2.94163 -1.85373 0
M  V30 6028 H 589.328 2.9299 -2.72024 0
M  V30 6029 H 590.768 3.71625 -2.04135 0
M  V30 6030 C 589.227 3.31317 -0.610803 0
M  V30 6031 O 589.757 4.00985 0.239636 0
M  V30 6032 N 587.963 2.86966 -0.458127 0
M  V30 6033 H 587.51 2.30443 -1.15124 0
M  V30 6034 H 587.468 3.12188 0.372289 0
M  V30 6035 N 591.24 1.41047 0.703093 0
M  V30 6036 C 592.656 1.23351 1.01275 0
M  V30 6037 C 592.856 0.11754 2.01157 0
M  V30 6038 O 591.912 -0.520518 2.47077 0
M  V30 6039 C 593.225 2.58001 1.54454 0
M  V30 6040 C 594.773 2.65119 1.66376 0
M  V30 6041 C 595.248 4.00067 2.22958 0
M  V30 6042 N 596.739 4.01875 2.30328 0
M  V30 6043 C 597.474 5.03087 2.75119 0
M  V30 6044 N 596.97 6.14692 3.19571 0
M  V30 6045 N 598.763 4.90451 2.74616 0
M  V30 6046 H 590.914 2.1236 0.0412686 0
M  V30 6047 H 593.177 0.944543 0.08089 0
M  V30 6048 H 592.883 3.40378 0.88521 0
M  V30 6049 H 592.757 2.79962 2.52786 0
M  V30 6050 H 595.144 1.83106 2.31422 0
M  V30 6051 H 595.225 2.46975 0.666089 0
M  V30 6052 H 594.869 4.82526 1.58529 0
M  V30 6053 H 594.799 4.15547 3.23462 0
M  V30 6054 H 597.29 3.21291 1.98949 0
M  V30 6055 H 597.603 6.87799 3.52352 0
M  V30 6056 H 595.948 6.18239 3.17498 0
M  V30 6057 H 599.139 4.0235 2.39233 0
M  V30 6058 H 599.312 5.6947 3.09206 0
M  V30 6059 N 592.718 -0.936591 1.26751 0
M  V30 6060 C 594.134 -1.21095 1.03963 0
M  V30 6061 C 594.334 -2.00156 -0.232372 0
M  V30 6062 O 593.39 -2.3434 -0.940274 0
M  V30 6063 C 594.703 -1.96775 2.27377 0
M  V30 6064 C 596.251 -2.09749 2.32324 0
M  V30 6065 C 596.726 -2.88832 3.55443 0
M  V30 6066 N 598.217 -2.96404 3.55948 0
M  V30 6067 C 598.952 -3.58036 4.47881 0
M  V30 6068 N 598.448 -4.21132 5.50109 0
M  V30 6069 N 600.241 -3.55353 4.35523 0
M  V30 6070 H 592.392 -0.408173 2.08441 0
M  V30 6071 H 594.655 -0.243139 0.91629 0
M  V30 6072 H 594.361 -1.46094 3.19921 0
M  V30 6073 H 594.235 -2.97424 2.31989 0
M  V30 6074 H 596.622 -2.5962 1.40291 0
M  V30 6075 H 596.703 -1.08347 2.31721 0
M  V30 6076 H 596.347 -2.39647 4.47808 0
M  V30 6077 H 596.277 -3.90499 3.53296 0
M  V30 6078 H 598.768 -2.51552 2.82011 0
M  V30 6079 H 599.081 -4.66071 6.16439 0
M  V30 6080 H 597.426 -4.19705 5.53961 0
M  V30 6081 H 600.617 -3.05256 3.54875 0
M  V30 6082 H 600.79 -4.03097 5.07363 0
M  V30 6083 N 594.196 -1.08629 -1.14182 0
M  V30 6084 C 595.445 -0.812271 -1.84621 0
M  V30 6085 C 595.758 0.664313 -1.83973 0
M  V30 6086 O 596.964 1.05357 -2.50224 0
M  V30 6087 C 595.42 -1.4031 -3.31423 0
M  V30 6088 C 595.028 -2.91164 -3.40481 0
M  V30 6089 C 596.772 -1.20767 -4.06959 0
M  V30 6090 C 594.679 -3.43373 -4.81507 0
M  V30 6091 H 593.609 -0.30019 -0.691666 0
M  V30 6092 H 596.26 -1.30798 -1.28701 0
M  V30 6093 H 594.642 -0.835096 -3.87094 0
M  V30 6094 H 595.816 -3.5412 -2.94848 0
M  V30 6095 H 594.131 -3.09646 -2.78403 0
M  V30 6096 H 596.728 -1.57237 -5.11058 0
M  V30 6097 H 597.071 -0.147664 -4.16038 0
M  V30 6098 H 597.604 -1.74274 -3.57594 0
M  V30 6099 H 594.343 -4.48958 -4.77616 0
M  V30 6100 H 593.863 -2.85176 -5.27669 0
M  V30 6101 H 595.542 -3.40095 -5.50404 0
M  V30 6102 N 595.674 1.31259 -0.872281 0
M  V30 6103 C 597.085 1.78822 -0.536617 0
M  V30 6104 C 597.436 1.71855 0.946594 0
M  V30 6105 O 596.561 1.28769 1.73918 0
M  V30 6106 C 597.156 3.24698 -0.967294 0
M  V30 6107 C 595.715 3.70147 -0.683251 0
M  V30 6108 C 594.862 2.51994 -1.15733 0
M  V30 6109 H 597.813 1.18308 -1.05777 0
M  V30 6110 H 597.834 3.79386 -0.290929 0
M  V30 6111 H 597.346 3.29737 -2.04683 0
M  V30 6112 H 595.447 3.70607 0.384825 0
M  V30 6113 H 595.56 4.62183 -1.2619 0
M  V30 6114 H 593.924 2.48078 -0.577024 0
M  V30 6115 H 594.707 2.59778 -2.24434 0
M  V30 6116 N 597.152 0.631951 1.44375 0
M  V30 6117 C 598.085 -0.121822 2.27875 0
M  V30 6118 C 599.063 -0.850457 1.38586 0
M  V30 6119 O 600.247 -0.854378 1.68026 0
M  V30 6120 C 597.374 -1.17859 3.17533 0
M  V30 6121 C 596.42 -0.550391 4.22934 0
M  V30 6122 S 597.253 0.660145 5.31415 0
M  V30 6123 C 598.409 -0.396613 6.24642 0
M  V30 6124 H 598.642 0.586537 2.91457 0
M  V30 6125 H 596.175 0.420146 1.48574 0
M  V30 6126 H 598.133 -1.78335 3.69739 0
M  V30 6127 H 596.794 -1.85915 2.53169 0
M  V30 6128 H 595.987 -1.34631 4.85685 0
M  V30 6129 H 595.589 -0.0202306 3.73995 0
M  V30 6130 H 597.881 -1.26893 6.65511 0
M  V30 6131 H 598.824 0.195345 7.0783 0
M  V30 6132 H 599.232 -0.72288 5.59852 0
M  V30 6133 N 598.631 -1.53133 0.372548 0
M  V30 6134 C 599.541 -2.29671 -0.478379 0
M  V30 6135 C 600.557 -1.35913 -1.08644 0
M  V30 6136 O 601.733 -1.68975 -1.09588 0
M  V30 6137 C 598.798 -3.07625 -1.599 0
M  V30 6138 C 597.859 -4.17061 -1.01776 0
M  V30 6139 C 597.092 -4.91289 -2.08497 0
M  V30 6140 O 597.315 -4.65442 -3.29727 0
M  V30 6141 O 596.249 -5.7705 -1.71164 0
M  V30 6142 H 600.075 -3.03355 0.144649 0
M  V30 6143 H 597.66 -1.48773 0.136729 0
M  V30 6144 H 599.542 -3.56281 -2.25038 0
M  V30 6145 H 598.217 -2.3677 -2.2073 0
M  V30 6146 H 597.124 -3.72641 -0.330098 0
M  V30 6147 H 598.457 -4.90102 -0.453915 0
M  V30 6148 N 600.109 -0.101901 -1.5727 0
M  V30 6149 C 601.357 0.559091 -1.94213 0
M  V30 6150 C 601.678 1.68297 -0.984948 0
M  V30 6151 O 600.948 1.95863 -0.0381975 0
M  V30 6152 H 599.528 0.20952 -0.717015 0
M  V30 6153 H 602.19 -0.166831 -1.94185 0
M  V30 6154 H 601.286 0.96485 -2.96811 0
M  V30 6155 N 601.587 1.56661 0.17182 0
M  V30 6156 C 602.519 1.92934 1.2373 0
M  V30 6157 C 603.532 0.822385 1.40502 0
M  V30 6158 O 604.721 1.10083 1.40514 0
M  V30 6159 C 601.821 2.16651 2.60607 0
M  V30 6160 C 600.994 3.47878 2.6514 0
M  V30 6161 C 600.053 3.60429 3.83377 0
M  V30 6162 O 599.079 4.33051 3.69398 0
M  V30 6163 N 600.281 2.95241 4.99813 0
M  V30 6164 H 603.046 2.84931 0.929205 0
M  V30 6165 H 600.607 1.5781 0.361588 0
M  V30 6166 H 602.599 2.22312 3.38171 0
M  V30 6167 H 601.169 1.3104 2.83809 0
M  V30 6168 H 600.389 3.53879 1.73675 0
M  V30 6169 H 601.677 4.34232 2.6518 0
M  V30 6170 H 601.075 2.3611 5.14071 0
M  V30 6171 H 599.632 3.06499 5.75241 0
M  V30 6172 N 603.065 -0.440357 1.51323 0
M  V30 6173 C 604.481 -0.7766 1.39431 0
M  V30 6174 C 604.681 -1.95838 0.474296 0
M  V30 6175 O 603.737 -2.52398 -0.0716692 0
M  V30 6176 C 605.05 -1.05981 2.81405 0
M  V30 6177 C 606.598 -1.16442 2.90534 0
M  V30 6178 C 607.073 -1.48058 4.33408 0
M  V30 6179 N 608.564 -1.54988 4.36501 0
M  V30 6180 C 609.299 -1.81017 5.44078 0
M  V30 6181 N 608.795 -2.04858 6.61819 0
M  V30 6182 N 610.588 -1.82774 5.31554 0
M  V30 6183 H 602.739 0.338006 2.09693 0
M  V30 6184 H 605.002 0.0888072 0.943831 0
M  V30 6185 H 604.708 -0.264173 3.50706 0
M  V30 6186 H 604.582 -1.98822 3.20546 0
M  V30 6187 H 606.969 -1.95068 2.21432 0
M  V30 6188 H 607.05 -0.215088 2.54894 0
M  V30 6189 H 606.694 -0.699605 5.03059 0
M  V30 6190 H 606.624 -2.44192 4.66559 0
M  V30 6191 H 609.115 -1.38479 3.51613 0
M  V30 6192 H 609.428 -2.2408 7.396 0
M  V30 6193 H 607.773 -2.02187 6.6494 0
M  V30 6194 H 610.964 -1.63665 4.38556 0
M  V30 6195 H 611.137 -2.02722 6.15474 0
M  V30 6196 N 604.543 -1.41418 -0.695603 0
M  V30 6197 C 605.82 -1.31264 -1.45014 0
M  V30 6198 C 606.2 0.0597994 -2.11015 0
M  V30 6199 O 605.548 1.07403 -2.01685 0
M  V30 6200 C 605.758 -2.466 -2.4696 0
M  V30 6201 C 607.106 -2.87763 -3.12214 0
M  V30 6202 O 608.13 -2.46339 -2.57285 0
M  V30 6203 O 606.989 -3.59395 -4.11701 0
M  V30 6204 H 604.083 -0.516576 -0.645816 0
M  V30 6205 H 606.629 -1.53382 -0.726084 0
M  V30 6206 H 605.401 -3.38183 -1.96845 0
M  V30 6207 H 605.024 -2.26358 -3.26876 0
M  V30 6208 N 606.021 0.929856 -1.27246 0
M  V30 6209 C 607.246 1.71674 -1.16374 0
M  V30 6210 C 607.671 1.86064 0.276024 0
M  V30 6211 O 607.029 1.3591 1.19992 0
M  V30 6212 C 607.077 3.09526 -1.85003 0
M  V30 6213 O 606.181 3.96142 -1.14653 0
M  V30 6214 H 605.522 0.52629 -0.404863 0
M  V30 6215 H 608.052 1.16381 -1.68276 0
M  V30 6216 H 608.062 3.59852 -1.92276 0
M  V30 6217 H 606.737 2.98369 -2.89739 0
M  V30 6218 H 605.314 3.54584 -1.15433 0
M  V30 6219 N 607.499 1.09233 1.13605 0
M  V30 6220 C 608.462 0.733553 2.17144 0
M  V30 6221 C 609.462 -0.235873 1.59061 0
M  V30 6222 O 610.652 -0.0143167 1.74194 0
M  V30 6223 C 607.784 0.084471 3.40795 0
M  V30 6224 H 608.977 1.65049 2.50397 0
M  V30 6225 H 606.53 0.891264 1.28399 0
M  V30 6226 H 607.265 -0.843795 3.1313 0
M  V30 6227 H 607.05 0.781985 3.84223 0
M  V30 6228 H 608.54 -0.151216 4.17326 0
M  V30 6229 N 608.977 -1.30795 0.87923 0
M  V30 6230 C 610.224 -1.96362 0.494786 0
M  V30 6231 C 610.552 -1.69448 -0.954868 0
M  V30 6232 O 609.807 -0.988711 -1.68888 0
M  V30 6233 C 610.106 -3.50287 0.709476 0
M  V30 6234 C 609.772 -3.9724 2.13333 0
M  V30 6235 C 608.434 -4.09772 2.52271 0
M  V30 6236 C 610.786 -4.21807 3.06151 0
M  V30 6237 C 608.114 -4.44227 3.83248 0
M  V30 6238 C 610.466 -4.5773 4.36654 0
M  V30 6239 C 609.13 -4.68469 4.75492 0
M  V30 6240 H 608.4 -0.71854 0.181055 0
M  V30 6241 H 611.047 -1.55764 1.11399 0
M  V30 6242 H 609.352 -3.91799 0.0072 0
M  V30 6243 H 611.049 -3.99082 0.391703 0
M  V30 6244 H 607.639 -3.87988 1.82107 0
M  V30 6245 H 611.823 -4.11611 2.77291 0
M  V30 6246 H 607.079 -4.50741 4.13089 0
M  V30 6247 H 611.253 -4.7569 5.08617 0
M  V30 6248 H 608.88 -4.94923 5.77022 0
M  V30 6249 N 610.455 -0.639598 -1.44038 0
M  V30 6250 C 611.866 -0.228866 -1.85292 0
M  V30 6251 C 612.217 1.22161 -1.53529 0
M  V30 6252 O 611.342 1.93064 -0.977518 0
M  V30 6253 C 611.937 -0.408592 -3.36327 0
M  V30 6254 C 610.496 -0.0522953 -3.76364 0
M  V30 6255 C 609.643 -0.717959 -2.67844 0
M  V30 6256 H 612.594 -0.844194 -1.34384 0
M  V30 6257 H 612.615 0.349968 -3.78887 0
M  V30 6258 H 612.127 -1.46435 -3.59414 0
M  V30 6259 H 610.228 1.0014 -3.58891 0
M  V30 6260 H 610.341 -0.468261 -4.76806 0
M  V30 6261 H 608.705 -0.152459 -2.54243 0
M  V30 6262 H 609.488 -1.77648 -2.93762 0
M  V30 6263 N 611.933 1.52934 -0.380664 0
M  V30 6264 C 612.88 2.26197 0.458641 0
M  V30 6265 C 613.85 1.27462 1.06502 0
M  V30 6266 O 615.035 1.56274 1.09467 0
M  V30 6267 C 612.175 3.06571 1.58456 0
M  V30 6268 C 611.288 4.20222 1.00189 0
M  V30 6269 C 610.423 4.88007 2.09815 0
M  V30 6270 C 609.462 5.93665 1.49092 0
M  V30 6271 N 608.599 6.55081 2.52613 0
M  V30 6272 H 613.439 2.975 -0.172595 0
M  V30 6273 H 610.976 1.4678 -0.0969426 0
M  V30 6274 H 612.934 3.51455 2.24801 0
M  V30 6275 H 611.564 2.37494 2.18624 0
M  V30 6276 H 610.616 3.79714 0.228292 0
M  V30 6277 H 611.928 4.96102 0.518064 0
M  V30 6278 H 611.082 5.36151 2.83948 0
M  V30 6279 H 609.821 4.11632 2.61555 0
M  V30 6280 H 608.826 5.44868 0.7348 0
M  V30 6281 H 610.051 6.71969 0.981582 0
M  V30 6282 H 607.997 5.8155 3.03538 0
M  V30 6283 H 607.914 7.26548 2.08961 0
M  V30 6284 H 609.182 7.07871 3.26402 0
M  V30 6285 N 613.412 0.11024 1.57214 0
M  V30 6286 C 614.659 -0.54987 1.94891 0
M  V30 6287 C 614.987 -1.67243 0.992984 0
M  V30 6288 O 614.242 -1.95694 0.0152703 0
M  V30 6289 C 614.541 -1.13102 3.39032 0
M  V30 6290 C 614.207 -0.130713 4.5071 0
M  V30 6291 C 612.869 0.14437 4.80983 0
M  V30 6292 C 615.221 0.551472 5.18274 0
M  V30 6293 C 612.549 1.10807 5.76141 0
M  V30 6294 C 614.901 1.50375 6.14467 0
M  V30 6295 C 613.565 1.78691 6.43138 0
M  V30 6296 H 612.835 -0.201212 0.713158 0
M  V30 6297 H 615.482 0.189288 1.90562 0
M  V30 6298 H 613.787 -1.94675 3.40013 0
M  V30 6299 H 615.484 -1.64973 3.65493 0
M  V30 6300 H 612.074 -0.355301 4.27125 0
M  V30 6301 H 616.258 0.35211 4.95049 0
M  V30 6302 H 611.514 1.3343 5.96663 0
M  V30 6303 H 615.688 2.03808 6.65909 0
M  V30 6304 H 613.315 2.53522 7.1668 0
M  V30 6305 N 614.89 -1.56749 -0.16351 0
M  V30 6306 C 615.8 -2.00255 -1.2221 0
M  V30 6307 C 616.816 -0.915194 -1.47987 0
M  V30 6308 O 617.992 -1.22342 -1.59982 0
M  V30 6309 C 615.057 -2.36035 -2.53946 0
M  V30 6310 C 614.118 -3.58637 -2.35962 0
M  V30 6311 C 613.351 -3.92701 -3.61416 0
M  V30 6312 O 613.574 -3.27632 -4.66919 0
M  V30 6313 O 612.508 -4.86019 -3.55062 0
M  V30 6314 H 616.334 -2.90586 -0.882794 0
M  V30 6315 H 613.919 -1.44721 -0.370978 0
M  V30 6316 H 615.801 -2.59982 -3.31643 0
M  V30 6317 H 614.476 -1.48863 -2.8744 0
M  V30 6318 H 613.383 -3.39898 -1.5627 0
M  V30 6319 H 614.716 -4.46374 -2.0739 0
M  V30 6320 N 616.368 0.432326 -1.51554 0
M  V30 6321 C 617.593 1.20824 -1.68571 0
M  V30 6322 C 618.018 1.84126 -0.384596 0
M  V30 6323 O 617.376 1.69025 0.655751 0
M  V30 6324 C 617.424 2.26429 -2.80646 0
M  V30 6325 O 616.528 3.32032 -2.44598 0
M  V30 6326 H 615.869 0.353765 -0.561913 0
M  V30 6327 H 618.399 0.509916 -1.98144 0
M  V30 6328 H 618.409 2.71133 -3.04878 0
M  V30 6329 H 617.084 1.79733 -3.75058 0
M  V30 6330 H 615.661 2.92769 -2.30956 0
M  V30 6331 N 617.846 1.41785 0.688094 0
M  V30 6332 C 618.793 1.44221 1.80191 0
M  V30 6333 C 619.763 0.295688 1.63447 0
M  V30 6334 O 620.948 0.49783 1.84191 0
M  V30 6335 C 618.088 1.33743 3.1813 0
M  V30 6336 C 617.201 2.58325 3.46254 0
M  V30 6337 C 616.336 2.40086 4.73848 0
M  V30 6338 C 615.375 3.60107 4.94964 0
M  V30 6339 N 614.512 3.40892 6.13789 0
M  V30 6340 H 619.352 2.39411 1.77444 0
M  V30 6341 H 616.889 1.18876 0.866423 0
M  V30 6342 H 618.847 1.25669 3.97823 0
M  V30 6343 H 617.477 0.42157 3.20035 0
M  V30 6344 H 616.529 2.7682 2.60912 0
M  V30 6345 H 617.841 3.4758 3.57756 0
M  V30 6346 H 616.995 2.29522 5.61609 0
M  V30 6347 H 615.734 1.483 4.64606 0
M  V30 6348 H 614.739 3.71118 4.05649 0
M  V30 6349 H 615.964 4.52857 5.06061 0
M  V30 6350 H 613.91 2.51812 6.05745 0
M  V30 6351 H 613.827 4.23727 6.26092 0
M  V30 6352 H 615.095 3.34114 7.04264 0
M  V30 6353 N 619.324 -0.923095 1.27737 0
M  V30 6354 C 620.735 -1.48626 1.12993 0
M  V30 6355 C 621.086 -1.94142 -0.283439 0
M  V30 6356 O 620.211 -1.81605 -1.17681 0
M  V30 6357 C 620.806 -2.70117 2.04505 0
M  V30 6358 C 619.365 -3.22642 1.93853 0
M  V30 6359 C 618.512 -1.95368 1.96791 0
M  V30 6360 H 621.463 -0.736737 1.40563 0
M  V30 6361 H 621.484 -3.4506 1.60356 0
M  V30 6362 H 620.996 -2.36959 3.07363 0
M  V30 6363 H 619.097 -3.60549 0.939968 0
M  V30 6364 H 619.21 -3.88525 2.80331 0
M  V30 6365 H 617.574 -2.12061 1.41076 0
M  V30 6366 H 618.357 -1.64517 3.01312 0
M  V30 6367 N 620.802 -1.09834 -1.13024 0
M  V30 6368 C 621.734 -0.699379 -2.18269 0
M  V30 6369 C 622.747 0.260841 -1.60697 0
M  V30 6370 O 623.936 0.0462538 -1.7844 0
M  V30 6371 C 621.036 -0.0104537 -3.38898 0
M  V30 6372 C 620.209 -0.993275 -4.25973 0
M  V30 6373 C 619.268 -0.336982 -5.2512 0
M  V30 6374 O 618.294 -0.985892 -5.60597 0
M  V30 6375 N 619.496 0.90716 -5.73368 0
M  V30 6376 H 622.261 -1.60486 -2.5311 0
M  V30 6377 H 619.822 -0.986337 -1.28386 0
M  V30 6378 H 621.814 0.43991 -4.02302 0
M  V30 6379 H 620.384 0.797335 -3.0226 0
M  V30 6380 H 619.604 -1.62208 -3.5928 0
M  V30 6381 H 620.892 -1.65876 -4.81002 0
M  V30 6382 H 620.29 1.45384 -5.46699 0
M  V30 6383 H 618.847 1.30077 -6.38689 0
M  V30 6384 N 622.28 1.30327 -0.886154 0
M  V30 6385 C 623.505 2.0079 -0.519425 0
M  V30 6386 C 623.93 1.65979 0.885013 0
M  V30 6387 O 623.288 0.877043 1.58675 0
M  V30 6388 C 623.336 3.53686 -0.702758 0
M  V30 6389 O 622.44 4.11637 0.250828 0
M  V30 6390 H 621.781 0.63171 -0.204544 0
M  V30 6391 H 624.311 1.66145 -1.19402 0
M  V30 6392 H 624.321 4.03531 -0.602207 0
M  V30 6393 H 622.996 3.78361 -1.72673 0
M  V30 6394 H 621.573 3.72755 0.103873 0
M  V30 6395 N 623.758 0.647228 1.43697 0
M  V30 6396 C 624.69 -0.0866232 2.29036 0
M  V30 6397 C 625.703 -0.793051 1.42178 0
M  V30 6398 O 626.892 -0.651807 1.66174 0
M  V30 6399 C 623.992 -1.14552 3.18953 0
M  V30 6400 C 623.165 -0.518422 4.34317 0
M  V30 6401 C 622.224 -1.4734 5.05151 0
M  V30 6402 O 621.25 -0.984312 5.60625 0
M  V30 6403 N 622.452 -2.8075 5.08094 0
M  V30 6404 H 625.217 0.645834 2.92659 0
M  V30 6405 H 622.778 0.489567 1.54321 0
M  V30 6406 H 624.77 -1.78505 3.63205 0
M  V30 6407 H 623.34 -1.78001 2.56971 0
M  V30 6408 H 622.56 0.300079 3.93056 0
M  V30 6409 H 623.848 -0.080401 5.08736 0
M  V30 6410 H 623.246 -3.23052 4.64386 0
M  V30 6411 H 621.803 -3.40022 5.56083 0
M  V30 6412 N 625.236 -1.5273 0.388769 0
M  V30 6413 C 626.146 -2.30165 -0.453993 0
M  V30 6414 C 627.162 -1.37058 -1.07197 0
M  V30 6415 O 628.338 -1.70127 -1.0779 0
M  V30 6416 C 625.403 -3.09303 -1.56628 0
M  V30 6417 C 624.464 -4.18117 -0.973467 0
M  V30 6418 C 623.697 -4.93472 -2.03275 0
M  V30 6419 O 623.92 -4.68913 -3.24772 0
M  V30 6420 O 622.854 -5.78833 -1.65034 0
M  V30 6421 H 626.68 -3.03185 0.176816 0
M  V30 6422 H 624.265 -1.4862 0.152501 0
M  V30 6423 H 626.147 -3.58648 -2.21246 0
M  V30 6424 H 624.822 -2.39098 -2.18206 0
M  V30 6425 H 623.729 -3.7297 -0.290556 0
M  V30 6426 H 625.062 -4.90556 -0.401908 0
M  V30 6427 N 626.714 -0.118576 -1.57153 0
M  V30 6428 C 627.96 0.540326 -1.95469 0
M  V30 6429 C 628.293 1.66356 -1.00196 0
M  V30 6430 O 627.568 1.94461 -0.039104 0
M  V30 6431 C 627.851 1.07342 -3.43729 0
M  V30 6432 C 627.704 -0.0463732 -4.49776 0
M  V30 6433 C 629.023 1.96442 -3.93826 0
M  V30 6434 H 626.142 0.19494 -0.710751 0
M  V30 6435 H 628.784 -0.19405 -1.89006 0
M  V30 6436 H 626.934 1.69925 -3.49368 0
M  V30 6437 H 628.606 -0.681648 -4.56236 0
M  V30 6438 H 626.849 -0.709574 -4.27957 0
M  V30 6439 H 627.52 0.367856 -5.50773 0
M  V30 6440 H 629.996 1.43731 -3.90488 0
M  V30 6441 H 628.872 2.3066 -4.98084 0
M  V30 6442 H 629.133 2.89077 -3.34495 0
M  V30 6443 N 628.193 1.56834 0.155195 0
M  V30 6444 C 629.14 1.97646 1.19184 0
M  V30 6445 C 630.11 0.842788 1.4313 0
M  V30 6446 O 631.295 1.1042 1.55602 0
M  V30 6447 C 628.435 2.35527 2.52232 0
M  V30 6448 C 627.548 3.62147 2.35529 0
M  V30 6449 C 626.683 3.89167 3.61555 0
M  V30 6450 C 625.722 5.09084 3.39853 0
M  V30 6451 N 624.859 5.32156 4.5799 0
M  V30 6452 H 629.699 2.8601 0.836802 0
M  V30 6453 H 627.236 1.41507 0.401758 0
M  V30 6454 H 629.194 2.55516 3.29799 0
M  V30 6455 H 627.824 1.50253 2.85699 0
M  V30 6456 H 626.876 3.4998 1.49057 0
M  V30 6457 H 628.188 4.49871 2.15448 0
M  V30 6458 H 627.342 4.09611 4.47553 0
M  V30 6459 H 626.081 2.9985 3.84632 0
M  V30 6460 H 625.086 4.88522 2.52243 0
M  V30 6461 H 626.311 5.99947 3.18183 0
M  V30 6462 H 624.257 4.45791 4.81255 0
M  V30 6463 H 624.174 6.14133 4.40882 0
M  V30 6464 H 625.442 5.57091 5.45225 0
M  V30 6465 N 629.671 -0.424282 1.51781 0
M  V30 6466 C 630.581 -1.54087 1.76902 0
M  V30 6467 C 631.597 -1.61249 0.653826 0
M  V30 6468 O 632.773 -1.78247 0.937552 0
M  V30 6469 C 629.838 -2.8996 1.90063 0
M  V30 6470 C 628.899 -2.92809 3.13945 0
M  V30 6471 C 628.132 -4.22201 3.26469 0
M  V30 6472 O 628.355 -5.15286 2.44616 0
M  V30 6473 O 627.289 -4.31599 4.1953 0
M  V30 6474 H 631.115 -1.358 2.71647 0
M  V30 6475 H 628.7 -0.608618 1.36441 0
M  V30 6476 H 630.582 -3.70575 2.0063 0
M  V30 6477 H 629.257 -3.08347 0.985067 0
M  V30 6478 H 628.164 -2.11102 3.08847 0
M  V30 6479 H 629.497 -2.79369 4.05233 0
M  V30 6480 N 631.149 -1.42148 -0.680565 0
M  V30 6481 C 632.097 -1.45401 -1.81552 0
M  V30 6482 C 633.091 -0.33036 -1.66147 0
M  V30 6483 O 634.297 -0.503103 -1.72826 0
M  V30 6484 H 630.672 -0.455265 -0.59853 0
M  V30 6485 H 632.643 -2.41024 -1.75926 0
M  V30 6486 C 631.392 -1.36769 -3.19671 0
M  V30 6487 H 630.715 -2.22525 -3.32149 0
M  V30 6488 H 632.155 -1.43106 -3.9912 0
M  V30 6489 C 630.614 -0.0817752 -3.36801 0
M  V30 6490 O 631.144 0.867707 -3.92216 0
M  V30 6491 N 629.35 -0.000799811 -2.906 0
M  V30 6492 H 628.897 -0.774231 -2.4569 0
M  V30 6493 H 628.855 0.858961 -3.02439 0
M  V30 6494 N 632.627 0.916307 -1.28225 0
M  V30 6495 C 633.559 2.02303 -1.07732 0
M  V30 6496 C 634.572 1.62773 -0.0298421 0
M  V30 6497 O 635.761 1.76406 -0.272626 0
M  V30 6498 C 632.861 3.33282 -0.614504 0
M  V30 6499 C 632.034 4.01439 -1.73682 0
M  V30 6500 C 631.093 5.10698 -1.26781 0
M  V30 6501 O 630.119 5.34038 -1.96958 0
M  V30 6502 N 631.321 5.80355 -0.129624 0
M  V30 6503 H 634.086 2.20442 -2.03041 0
M  V30 6504 H 631.647 1.08744 -1.19943 0
M  V30 6505 H 633.639 4.03699 -0.284397 0
M  V30 6506 H 632.209 3.11633 0.245664 0
M  V30 6507 H 631.429 3.24604 -2.23665 0
M  V30 6508 H 632.717 4.43721 -2.48976 0
M  V30 6509 H 632.115 5.6386 0.455847 0
M  V30 6510 H 630.672 6.51647 0.141224 0
M  V30 6511 N 634.105 1.10431 1.1244 0
M  V30 6512 C 635.333 0.868872 1.87772 0
M  V30 6513 C 635.748 -0.580645 1.7965 0
M  V30 6514 O 635.105 -1.40031 1.17036 0
M  V30 6515 C 635.156 1.30855 3.36986 0
M  V30 6516 O 634.877 2.70123 3.44914 0
M  V30 6517 C 636.378 1.107 4.29256 0
M  V30 6518 H 633.598 0.311868 0.59412 0
M  V30 6519 H 636.142 1.46897 1.42273 0
M  V30 6520 H 634.297 0.752126 3.80029 0
M  V30 6521 H 634.711 2.88923 4.37748 0
M  V30 6522 H 636.185 1.46378 5.32238 0
M  V30 6523 H 636.662 0.0456228 4.39176 0
M  V30 6524 H 637.268 1.64988 3.91994 0
M  V30 6525 N 635.583 -1.29855 0.893053 0
M  V30 6526 C 636.829 -1.96116 0.516349 0
M  V30 6527 C 637.162 -1.70281 -0.933695 0
M  V30 6528 O 636.437 -1.01205 -1.66096 0
M  V30 6529 C 636.72 -3.51068 0.801455 0
M  V30 6530 C 636.573 -3.86387 2.30272 0
M  V30 6531 C 637.892 -4.39186 0.283423 0
M  V30 6532 H 635.011 -0.712335 0.189072 0
M  V30 6533 H 637.653 -1.53587 1.11852 0
M  V30 6534 H 635.803 -3.87424 0.288949 0
M  V30 6535 H 637.475 -3.60012 2.88425 0
M  V30 6536 H 635.718 -3.34167 2.76613 0
M  V30 6537 H 636.389 -4.94512 2.45279 0
M  V30 6538 H 638.865 -4.09785 0.722187 0
M  V30 6539 H 637.741 -5.46505 0.512169 0
M  V30 6540 H 638.002 -4.34511 -0.815643 0
M  V30 6541 N 637.061 -0.65484 -1.43351 0
M  V30 6542 C 638.008 0.0357713 -2.30772 0
M  V30 6543 C 638.978 0.813035 -1.44841 0
M  V30 6544 O 640.163 0.789314 -1.73708 0
M  V30 6545 C 637.303 0.995084 -3.30442 0
M  V30 6546 C 636.416 0.21375 -4.31471 0
M  V30 6547 C 635.551 1.16701 -5.18222 0
M  V30 6548 C 634.59 0.376201 -6.10943 0
M  V30 6549 N 633.727 1.28113 -6.90313 0
M  V30 6550 H 638.567 -0.71559 -2.89281 0
M  V30 6551 H 636.104 -0.364645 -1.42509 0
M  V30 6552 H 638.062 1.5649 -3.86739 0
M  V30 6553 H 636.692 1.7133 -2.7358 0
M  V30 6554 H 635.744 -0.472377 -3.77456 0
M  V30 6555 H 637.056 -0.401103 -4.97185 0
M  V30 6556 H 636.21 1.8074 -5.79153 0
M  V30 6557 H 634.949 1.81577 -4.52638 0
M  V30 6558 H 633.954 -0.277534 -5.49099 0
M  V30 6559 H 635.179 -0.268178 -6.7857 0
M  V30 6560 H 633.125 1.91666 -6.27376 0
M  V30 6561 H 633.042 0.720879 -7.52555 0
M  V30 6562 H 634.31 1.90962 -7.55747 0
M  V30 6563 N 638.539 1.52521 -0.396863 0
M  V30 6564 C 639.786 2.01672 0.182898 0
M  V30 6565 C 640.114 1.28302 1.46181 0
M  V30 6566 O 639.369 0.374118 1.92091 0
M  V30 6567 C 639.668 3.5403 0.489677 0
M  V30 6568 C 639.334 4.45456 -0.698581 0
M  V30 6569 C 637.996 4.70166 -1.02454 0
M  V30 6570 C 640.348 4.99354 -1.49316 0
M  V30 6571 C 637.676 5.46024 -2.1465 0
M  V30 6572 C 640.028 5.76439 -2.60579 0
M  V30 6573 C 638.692 5.99426 -2.93675 0
M  V30 6574 H 637.962 0.737971 0.066927 0
M  V30 6575 H 640.609 1.83853 -0.535764 0
M  V30 6576 H 638.914 3.69963 1.28976 0
M  V30 6577 H 640.611 3.8956 0.951018 0
M  V30 6578 H 637.201 4.26392 -0.434525 0
M  V30 6579 H 641.385 4.80182 -1.25457 0
M  V30 6580 H 636.641 5.62046 -2.40654 0
M  V30 6581 H 640.815 6.17202 -3.22544 0
M  V30 6582 H 638.442 6.57988 -3.80731 0
M  V30 6583 N 640.017 0.126909 1.57088 0
M  V30 6584 C 641.433 -0.229641 1.57939 0
M  V30 6585 C 641.633 -1.66145 1.1401 0
M  V30 6586 O 640.689 -2.3843 0.831119 0
M  V30 6587 C 642.002 0.0108648 3.00698 0
M  V30 6588 C 643.55 -0.054418 3.12953 0
M  V30 6589 C 644.025 0.158497 4.57726 0
M  V30 6590 N 645.516 0.104735 4.63082 0
M  V30 6591 C 646.251 0.24427 5.72879 0
M  V30 6592 N 645.747 0.440415 6.91399 0
M  V30 6593 N 647.54 0.183286 5.61801 0
M  V30 6594 H 639.691 1.06203 1.83942 0
M  V30 6595 H 641.954 0.418834 0.85046 0
M  V30 6596 H 641.66 1.00102 3.37154 0
M  V30 6597 H 641.534 -0.717512 3.70313 0
M  V30 6598 H 643.921 -1.0351 2.7635 0
M  V30 6599 H 644.002 0.705967 2.45865 0
M  V30 6600 H 643.646 1.13619 4.95028 0
M  V30 6601 H 643.576 -0.62197 5.22914 0
M  V30 6602 H 646.067 -0.0430298 3.77876 0
M  V30 6603 H 646.38 0.537536 7.70928 0
M  V30 6604 H 644.725 0.476488 6.93365 0
M  V30 6605 H 647.916 0.0309561 4.6809 0
M  V30 6606 H 648.089 0.295471 6.47326 0
M  V30 6607 N 641.495 -1.56914 -0.146875 0
M  V30 6608 C 642.735 -1.85163 -0.86568 0
M  V30 6609 C 643.099 -0.711215 -1.78342 0
M  V30 6610 O 644.3 -0.874754 -2.54168 0
M  V30 6611 C 642.571 -3.18593 -1.61967 0
M  V30 6612 S 644.13 -3.68397 -2.38388 0
M  V30 6613 H 640.948 -0.6494 -0.289483 0
M  V30 6614 H 643.55 -1.95096 -0.125679 0
M  V30 6615 H 642.254 -3.99562 -0.93694 0
M  V30 6616 H 641.785 -3.11666 -2.40058 0
M  V30 6617 H 643.8 -3.37672 -3.63582 0
M  V30 6618 N 642.974 0.416227 -1.52004 0
M  V30 6619 C 643.884 1.53147 -1.77717 0
M  V30 6620 C 644.9 1.609 -0.662368 0
M  V30 6621 O 646.076 1.77747 -0.946991 0
M  V30 6622 C 643.141 2.88948 -1.91598 0
M  V30 6623 C 642.202 2.9114 -3.15493 0
M  V30 6624 C 641.435 4.20464 -3.28703 0
M  V30 6625 O 641.658 5.13981 -2.47345 0
M  V30 6626 O 640.592 4.29368 -4.21813 0
M  V30 6627 H 644.418 1.34357 -2.72363 0
M  V30 6628 H 642.003 0.601373 -1.36762 0
M  V30 6629 H 643.885 3.69505 -2.02593 0
M  V30 6630 H 642.56 3.07821 -1.00141 0
M  V30 6631 H 641.467 2.09461 -3.09962 0
M  V30 6632 H 642.8 2.77216 -4.06709 0
M  V30 6633 N 644.452 1.42507 0.673017 0
M  V30 6634 C 645.698 1.43284 1.43519 0
M  V30 6635 C 646.031 0.049668 1.94136 0
M  V30 6636 O 645.306 -0.926369 1.71022 0
M  V30 6637 C 645.589 2.45874 2.63093 0
M  V30 6638 C 645.442 3.93388 2.18096 0
M  V30 6639 C 646.761 2.45431 3.6531 0
M  V30 6640 H 643.88 0.521752 0.520522 0
M  V30 6641 H 646.522 1.73932 0.764701 0
M  V30 6642 H 644.672 2.19869 3.20296 0
M  V30 6643 H 646.344 4.30379 1.66046 0
M  V30 6644 H 644.587 4.07169 1.49652 0
M  V30 6645 H 645.258 4.60752 3.03993 0
M  V30 6646 H 647.734 2.68561 3.17827 0
M  V30 6647 H 646.61 3.19189 4.46553 0
M  V30 6648 H 646.871 1.48092 4.16559 0
M  V30 6649 N 645.93 -0.909495 1.28709 0
M  V30 6650 C 647.155 -1.69801 1.1909 0
M  V30 6651 C 647.58 -1.86479 -0.246388 0
M  V30 6652 O 646.938 -1.37802 -1.17815 0
M  V30 6653 C 646.986 -3.06543 1.89904 0
M  V30 6654 O 646.09 -3.94268 1.2094 0
M  V30 6655 H 645.431 -0.519783 0.413185 0
M  V30 6656 H 647.961 -1.13689 1.70106 0
M  V30 6657 H 647.971 -3.56748 1.97977 0
M  V30 6658 H 646.646 -2.93722 2.94449 0
M  V30 6659 H 645.223 -3.52702 1.2106 0
M  V30 6660 N 647.408 -1.11026 -1.11852 0
M  V30 6661 C 648.656 -0.854769 -1.83134 0
M  V30 6662 C 648.977 0.621375 -1.84835 0
M  V30 6663 O 648.247 1.45129 -1.31584 0
M  V30 6664 H 646.827 -0.313229 -0.678157 0
M  V30 6665 H 649.489 -1.40178 -1.35411 0
M  V30 6666 H 648.585 -1.22311 -2.87135 0
M  V30 6667 N 648.886 1.2938 -0.899927 0
M  V30 6668 C 650.135 1.9483 -0.521937 0
M  V30 6669 C 650.448 1.71725 0.936473 0
M  V30 6670 O 651.654 2.31282 1.42199 0
M  V30 6671 C 650.11 3.48911 -0.88255 0
M  V30 6672 C 649.718 3.80815 -2.35974 0
M  V30 6673 C 651.462 4.20595 -0.57448 0
M  V30 6674 C 649.369 5.28142 -2.66121 0
M  V30 6675 H 648.299 0.729285 -0.191468 0
M  V30 6676 H 650.95 1.47103 -1.09695 0
M  V30 6677 H 649.332 3.95293 -0.236459 0
M  V30 6678 H 650.506 3.45291 -3.05141 0
M  V30 6679 H 648.821 3.22271 -2.63686 0
M  V30 6680 H 651.418 5.29031 -0.776556 0
M  V30 6681 H 651.761 4.13442 0.487005 0
M  V30 6682 H 652.294 3.79945 -1.17842 0
M  V30 6683 H 649.033 5.4036 -3.71068 0
M  V30 6684 H 648.553 5.64913 -2.01578 0
M  V30 6685 H 650.232 5.95738 -2.52399 0
M  V30 6686 N 650.364 0.662433 1.43002 0
M  V30 6687 C 651.775 0.258315 1.84904 0
M  V30 6688 C 652.126 -1.19703 1.55453 0
M  V30 6689 O 651.251 -1.91484 1.00811 0
M  V30 6690 C 651.846 0.462047 3.35635 0
M  V30 6691 C 650.405 0.112165 3.76233 0
M  V30 6692 C 649.552 0.760479 2.66668 0
M  V30 6693 H 652.503 0.865467 1.33024 0
M  V30 6694 H 652.524 -0.289646 3.79396 0
M  V30 6695 H 652.036 1.52135 3.57039 0
M  V30 6696 H 650.137 -0.944179 3.60439 0
M  V30 6697 H 650.25 0.544058 4.76001 0
M  V30 6698 H 648.614 0.192887 2.53969 0
M  V30 6699 H 649.397 1.82299 2.90898 0
M  V30 6700 N 651.842 -1.52309 0.404946 0
M  V30 6701 C 652.789 -2.26898 -0.422597 0
M  V30 6702 C 653.759 -1.2914 -1.04461 0
M  V30 6703 O 654.944 -1.57996 -1.06967 0
M  V30 6704 C 652.084 -3.09053 -1.53559 0
M  V30 6705 C 651.197 -4.21762 -0.934908 0
M  V30 6706 C 650.332 -4.91283 -2.02025 0
M  V30 6707 C 649.371 -5.95962 -1.39628 0
M  V30 6708 N 648.508 -6.59017 -2.42159 0
M  V30 6709 H 653.348 -2.97188 0.219903 0
M  V30 6710 H 650.885 -1.46607 0.120282 0
M  V30 6711 H 652.843 -3.54987 -2.19181 0
M  V30 6712 H 651.473 -2.40942 -2.14818 0
M  V30 6713 H 650.525 -3.80029 -0.167854 0
M  V30 6714 H 651.837 -4.96864 -0.439073 0
M  V30 6715 H 650.991 -5.40601 -2.75383 0
M  V30 6716 H 649.73 -4.15741 -2.54973 0
M  V30 6717 H 648.735 -5.45968 -0.648023 0
M  V30 6718 H 649.96 -6.73445 -0.874553 0
M  V30 6719 H 647.906 -5.86306 -2.94247 0
M  V30 6720 H 647.823 -7.2978 -1.97376 0
M  V30 6721 H 649.091 -7.12974 -3.15099 0
M  V30 6722 N 653.32 -0.135238 -1.57019 0
M  V30 6723 C 654.731 0.387521 -1.82634 0
M  V30 6724 C 655.082 1.65528 -1.05332 0
M  V30 6725 O 654.207 2.14381 -0.294926 0
M  V30 6726 C 654.802 0.709852 -3.3128 0
M  V30 6727 C 653.361 1.17718 -3.57518 0
M  V30 6728 C 652.508 0.194183 -2.76619 0
M  V30 6729 H 655.459 -0.360126 -1.5456 0
M  V30 6730 H 655.48 1.5657 -3.46794 0
M  V30 6731 H 654.992 -0.213024 -3.87515 0
M  V30 6732 H 653.093 2.1164 -3.06658 0
M  V30 6733 H 653.206 1.11128 -4.66034 0
M  V30 6734 H 651.57 0.684478 -2.4533 0
M  V30 6735 H 652.353 -0.722076 -3.3562 0
M  V30 6736 N 654.798 1.5699 0.138552 0
M  V30 6737 C 655.708 2.02174 1.19008 0
M  V30 6738 C 656.724 0.938622 1.46512 0
M  V30 6739 O 657.9 1.24872 1.58016 0
M  V30 6740 C 654.965 2.40045 2.50159 0
M  V30 6741 C 654.026 3.62346 2.30226 0
M  V30 6742 C 653.259 3.98401 3.55123 0
M  V30 6743 O 653.482 3.35019 4.61647 0
M  V30 6744 O 652.416 4.91606 3.47285 0
M  V30 6745 H 656.242 2.91954 0.836452 0
M  V30 6746 H 653.827 1.45293 0.347907 0
M  V30 6747 H 655.709 2.65225 3.27465 0
M  V30 6748 H 654.384 1.53417 2.85035 0
M  V30 6749 H 653.291 3.42341 1.50843 0
M  V30 6750 H 654.624 4.49617 2.00262 0
M  V30 6751 N 656.276 -0.40816 1.52223 0
M  V30 6752 C 657.522 -1.15673 1.66576 0
M  V30 6753 C 657.855 -1.90141 0.394996 0
M  V30 6754 O 657.13 -1.84798 -0.606613 0
M  V30 6755 C 657.413 -2.15042 2.88841 0
M  V30 6756 C 657.266 -1.44465 4.25969 0
M  V30 6757 C 658.585 -3.15699 3.0663 0
M  V30 6758 H 655.704 -0.41916 0.606196 0
M  V30 6759 H 658.346 -0.442348 1.84779 0
M  V30 6760 H 656.496 -2.75964 2.73452 0
M  V30 6761 H 658.168 -0.866544 4.53088 0
M  V30 6762 H 656.411 -0.746612 4.27327 0
M  V30 6763 H 657.082 -2.16976 5.07568 0
M  V30 6764 H 659.558 -2.64854 3.20923 0
M  V30 6765 H 658.434 -3.82491 3.9369 0
M  V30 6766 H 658.695 -3.83481 2.19987 0
M  V30 6767 N 657.755 -1.42862 -0.66545 0
M  V30 6768 C 658.718 -1.46756 -1.76055 0
M  V30 6769 C 659.718 -0.353866 -1.56858 0
M  V30 6770 O 660.908 -0.615099 -1.62979 0
M  V30 6771 C 658.04 -1.30829 -3.14796 0
M  V30 6772 H 659.233 -2.44271 -1.73987 0
M  V30 6773 H 656.786 -1.29447 -0.875965 0
M  V30 6774 H 657.521 -0.342733 -3.22484 0
M  V30 6775 H 657.306 -2.11551 -3.30134 0
M  V30 6776 H 658.796 -1.36458 -3.94676 0
M  V30 6777 N 659.233 0.902656 -1.29189 0
M  V30 6778 C 660.479 1.6555 -1.18172 0
M  V30 6779 C 660.834 1.90569 0.264788 0
M  V30 6780 O 660.127 1.50292 1.1884 0
M  V30 6781 C 660.321 3.011 -1.92545 0
M  V30 6782 C 660.15 2.89312 -3.4428 0
M  V30 6783 C 658.92 2.90239 -4.1363 0
M  V30 6784 C 661.118 2.6656 -4.3983 0
M  V30 6785 N 659.1 2.69156 -5.5175 0
M  V30 6786 C 660.471 2.54429 -5.6539 0
M  V30 6787 C 662.526 2.51644 -4.29627 0
M  V30 6788 C 661.229 2.289 -6.81907 0
M  V30 6789 C 663.255 2.27498 -5.45892 0
M  V30 6790 C 662.617 2.16129 -6.70423 0
M  V30 6791 H 658.716 0.611519 -0.48741 0
M  V30 6792 H 661.3 1.06514 -1.62981 0
M  V30 6793 H 659.471 3.58202 -1.50154 0
M  V30 6794 H 661.203 3.65471 -1.73818 0
M  V30 6795 H 657.958 3.01412 -3.65305 0
M  V30 6796 H 658.382 2.61676 -6.24383 0
M  V30 6797 H 663.024 2.59178 -3.34045 0
M  V30 6798 H 660.742 2.20104 -7.77547 0
M  V30 6799 H 664.328 2.16805 -5.39895 0
M  V30 6800 H 663.208 1.97703 -7.5887 0
M  V30 6801 N 660.711 1.11618 1.11262 0
M  V30 6802 C 661.958 0.86618 1.8304 0
M  V30 6803 C 662.286 -0.608149 1.84748 0
M  V30 6804 O 661.541 -1.46508 1.29745 0
M  V30 6805 C 661.84 1.37529 3.2988 0
M  V30 6806 C 661.506 2.86317 3.4833 0
M  V30 6807 C 660.168 3.26945 3.53073 0
M  V30 6808 C 662.52 3.82136 3.54431 0
M  V30 6809 C 659.848 4.62117 3.61475 0
M  V30 6810 C 662.2 5.17128 3.64365 0
M  V30 6811 C 660.864 5.57312 3.67369 0
M  V30 6812 H 660.134 0.316958 0.66979 0
M  V30 6813 H 662.781 1.3949 1.31205 0
M  V30 6814 H 661.086 0.766842 3.84222 0
M  V30 6815 H 662.783 1.15817 3.83911 0
M  V30 6816 H 659.373 2.53889 3.45309 0
M  V30 6817 H 663.557 3.51847 3.50025 0
M  V30 6818 H 658.813 4.92655 3.62079 0
M  V30 6819 H 662.987 5.91208 3.68029 0
M  V30 6820 H 660.614 6.62045 3.73632 0
M  V30 6821 N 662.189 -1.289 0.906776 0
M  V30 6822 C 663.119 -2.29932 0.406659 0
M  V30 6823 C 664.1 -1.6189 -0.522061 0
M  V30 6824 O 665.285 -1.8935 -0.431283 0
M  V30 6825 C 662.415 -3.45425 -0.360366 0
M  V30 6826 C 661.369 -4.25316 0.478574 0
M  V30 6827 C 660.695 -5.33076 -0.416373 0
M  V30 6828 C 661.995 -4.92739 1.7322 0
M  V30 6829 H 663.689 -2.72013 1.25097 0
M  V30 6830 H 661.235 -1.30768 0.602977 0
M  V30 6831 H 663.188 -4.15186 -0.721029 0
M  V30 6832 H 661.912 -3.02206 -1.23852 0
M  V30 6833 H 660.571 -3.57273 0.821662 0
M  V30 6834 H 660.219 -4.86101 -1.29287 0
M  V30 6835 H 659.919 -5.8743 0.141309 0
M  V30 6836 H 661.443 -6.05686 -0.773072 0
M  V30 6837 H 662.857 -5.54898 1.44086 0
M  V30 6838 H 661.254 -5.57057 2.23175 0
M  V30 6839 H 662.324 -4.17625 2.46408 0
M  V30 6840 N 663.667 -0.670007 -1.42649 0
M  V30 6841 C 664.577 0.0114788 -2.34597 0
M  V30 6842 C 665.593 0.794055 -1.54825 0
M  V30 6843 O 666.769 0.737472 -1.87412 0
M  V30 6844 C 663.834 0.954436 -3.33304 0
M  V30 6845 C 662.895 0.166925 -4.28975 0
M  V30 6846 C 662.128 1.06497 -5.22967 0
M  V30 6847 O 662.351 2.30446 -5.21777 0
M  V30 6848 O 661.285 0.528347 -5.99577 0
M  V30 6849 H 665.111 -0.745794 -2.944 0
M  V30 6850 H 662.696 -0.430228 -1.43071 0
M  V30 6851 H 664.578 1.49589 -3.93956 0
M  V30 6852 H 663.253 1.69164 -2.7598 0
M  V30 6853 H 662.16 -0.418515 -3.71752 0
M  V30 6854 H 663.493 -0.531067 -4.89327 0
M  V30 6855 N 665.145 1.52092 -0.413018 0
M  V30 6856 C 666.393 2.01456 0.161178 0
M  V30 6857 C 666.714 1.30034 1.45314 0
M  V30 6858 O 665.984 0.427435 1.9118 0
M  V30 6859 H 664.564 0.744376 0.0625526 0
M  V30 6860 H 667.226 1.86974 -0.550151 0
M  V30 6861 H 666.322 3.1008 0.354517 0
M  V30 6862 N 666.623 0.143563 1.56945 0
M  V30 6863 C 667.851 -0.515447 2.00377 0
M  V30 6864 C 668.266 -1.58643 1.02361 0
M  V30 6865 O 667.623 -1.82489 0.0201039 0
M  V30 6866 C 667.674 -1.11923 3.43737 0
M  V30 6867 O 667.395 -0.0910318 4.38005 0
M  V30 6868 C 668.896 -1.85918 4.02429 0
M  V30 6869 H 666.116 -0.134478 0.657386 0
M  V30 6870 H 668.66 0.237135 2.0312 0
M  V30 6871 H 666.815 -1.82245 3.41856 0
M  V30 6872 H 667.229 -0.532916 5.21786 0
M  V30 6873 H 668.703 -2.2346 5.04747 0
M  V30 6874 H 669.18 -2.7438 3.42947 0
M  V30 6875 H 669.786 -1.20303 4.07931 0
M  V30 6876 N 668.101 -1.57061 -0.130224 0
M  V30 6877 C 669.512 -1.73539 -0.68856 0
M  V30 6878 C 669.863 -0.760554 -1.80859 0
M  V30 6879 O 668.988 0.0690796 -2.1629 0
M  V30 6880 C 669.583 -3.14666 -1.25581 0
M  V30 6881 C 668.142 -3.32689 -1.76055 0
M  V30 6882 C 667.289 -2.69436 -0.655712 0
M  V30 6883 H 670.24 -1.58412 0.0956002 0
M  V30 6884 H 670.261 -3.15595 -2.12556 0
M  V30 6885 H 669.773 -3.85593 -0.440412 0
M  V30 6886 H 667.874 -2.66786 -2.60108 0
M  V30 6887 H 667.987 -4.4077 -1.87772 0
M  V30 6888 H 666.351 -2.30362 -1.08654 0
M  V30 6889 H 667.134 -3.42979 0.14852 0
M  V30 6890 N 669.579 0.400081 -1.52437 0
M  V30 6891 C 670.825 1.14788 -1.67187 0
M  V30 6892 C 671.158 1.89928 -0.405074 0
M  V30 6893 O 670.433 1.85118 0.596804 0
M  V30 6894 C 670.716 2.13507 -2.89977 0
M  V30 6895 C 670.569 1.42204 -4.2673 0
M  V30 6896 C 671.888 3.14069 -3.083 0
M  V30 6897 H 669.007 0.415939 -0.608411 0
M  V30 6898 H 671.649 0.432542 -1.85011 0
M  V30 6899 H 669.799 2.7451 -2.74912 0
M  V30 6900 H 671.471 0.842503 -4.53541 0
M  V30 6901 H 669.714 0.723939 -4.27717 0
M  V30 6902 H 670.385 2.14281 -5.08712 0
M  V30 6903 H 672.861 2.63148 -3.22323 0
M  V30 6904 H 671.737 3.80398 -3.95713 0
M  V30 6905 H 671.998 3.82309 -2.22018 0
M  V30 6906 N 671.057 1.43213 0.657864 0
M  V30 6907 C 672.473 1.26511 0.972992 0
M  V30 6908 C 672.673 0.181477 2.00681 0
M  V30 6909 O 671.729 -0.441649 2.48608 0
M  V30 6910 C 673.042 2.62784 1.46168 0
M  V30 6911 C 674.59 2.70278 1.57857 0
M  V30 6912 C 675.065 4.06958 2.10117 0
M  V30 6913 N 676.556 4.08999 2.17426 0
M  V30 6914 C 677.291 5.11585 2.58975 0
M  V30 6915 N 676.787 6.24548 2.99853 0
M  V30 6916 N 678.58 4.9894 2.58873 0
M  V30 6917 H 670.731 2.12384 -0.0263129 0
M  V30 6918 H 672.994 0.946638 0.0507992 0
M  V30 6919 H 672.7 3.43022 0.776474 0
M  V30 6920 H 672.574 2.87863 2.43751 0
M  V30 6921 H 674.961 1.90376 2.25479 0
M  V30 6922 H 675.042 2.4897 0.587179 0
M  V30 6923 H 674.686 4.87325 1.43098 0
M  V30 6924 H 674.616 4.25628 3.10078 0
M  V30 6925 H 677.107 3.27457 1.88627 0
M  V30 6926 H 677.42 6.98661 3.30292 0
M  V30 6927 H 675.765 6.28027 2.97669 0
M  V30 6928 H 678.956 4.09757 2.26311 0
M  V30 6929 H 679.129 5.79019 2.90932 0
M  V30 6930 N 672.536 -0.895792 1.29666 0
M  V30 6931 C 673.952 -1.17726 1.07763 0
M  V30 6932 C 674.152 -2.00794 -0.168576 0
M  V30 6933 O 673.208 -2.37213 -0.865244 0
M  V30 6934 C 674.521 -1.89441 2.33522 0
M  V30 6935 C 676.069 -2.02251 2.3888 0
M  V30 6936 C 676.544 -2.77378 3.64452 0
M  V30 6937 N 678.035 -2.8493 3.65198 0
M  V30 6938 C 678.77 -3.43606 4.59045 0
M  V30 6939 N 678.266 -4.03417 5.63228 0
M  V30 6940 N 680.059 -3.41317 4.46608 0
M  V30 6941 H 672.21 -0.341652 2.09634 0
M  V30 6942 H 674.473 -0.213865 0.923561 0
M  V30 6943 H 674.179 -1.35842 3.24407 0
M  V30 6944 H 674.053 -2.89893 2.41334 0
M  V30 6945 H 676.44 -2.55025 1.4848 0
M  V30 6946 H 676.521 -1.0092 2.3505 0
M  V30 6947 H 676.165 -2.25279 4.55205 0
M  V30 6948 H 676.095 -3.79062 3.65541 0
M  V30 6949 H 678.586 -2.42453 2.89871 0
M  V30 6950 H 678.899 -4.46224 6.30955 0
M  V30 6951 H 677.244 -4.01868 5.67033 0
M  V30 6952 H 680.435 -2.93812 3.64407 0
M  V30 6953 H 680.608 -3.86751 5.1993 0
M  V30 6954 N 674.014 -1.12206 -1.10668 0
M  V30 6955 C 674.946 -0.74552 -2.16736 0
M  V30 6956 C 675.959 0.226696 -1.61214 0
M  V30 6957 O 677.148 0.0083936 -1.78498 0
M  V30 6958 C 674.248 -0.0823368 -3.388 0
M  V30 6959 C 673.421 -1.08341 -4.2377 0
M  V30 6960 C 672.48 -0.448292 -5.24287 0
M  V30 6961 O 671.506 -1.10458 -5.58379 0
M  V30 6962 N 672.708 0.785336 -5.75163 0
M  V30 6963 H 675.473 -1.65818 -2.49649 0
M  V30 6964 H 673.034 -1.01335 -1.26265 0
M  V30 6965 H 675.026 0.354476 -4.03145 0
M  V30 6966 H 673.596 0.733041 -3.03884 0
M  V30 6967 H 672.816 -1.69792 -3.55759 0
M  V30 6968 H 674.104 -1.76042 -4.77375 0
M  V30 6969 H 673.502 1.33755 -5.4966 0
M  V30 6970 H 672.059 1.16501 -6.41304 0
M  V30 6971 N 675.492 1.28418 -0.913599 0
M  V30 6972 C 676.402 2.31043 -0.406965 0
M  V30 6973 C 677.418 1.66501 0.505298 0
M  V30 6974 O 678.594 1.97558 0.391522 0
M  V30 6975 C 675.659 3.4498 0.344901 0
M  V30 6976 C 674.72 4.25078 -0.600563 0
M  V30 6977 C 673.953 5.33575 0.115516 0
M  V30 6978 O 674.176 5.54503 1.33727 0
M  V30 6979 O 673.11 5.9939 -0.549095 0
M  V30 6980 H 676.936 2.76387 -1.25873 0
M  V30 6981 H 674.521 1.33109 -0.678415 0
M  V30 6982 H 676.403 4.14314 0.769542 0
M  V30 6983 H 675.078 3.01719 1.1725 0
M  V30 6984 H 673.985 3.58334 -1.0746 0
M  V30 6985 H 675.318 4.72018 -1.39497 0
M  V30 6986 N 676.97 0.677563 1.42291 0
M  V30 6987 C 678.218 0.200578 2.01102 0
M  V30 6988 C 678.539 -1.19803 1.53858 0
M  V30 6989 O 677.809 -1.80496 0.761439 0
M  V30 6990 H 676.389 0.0711634 0.743603 0
M  V30 6991 H 679.051 0.874691 1.7417 0
M  V30 6992 H 678.147 0.204 3.11433 0
M  V30 6993 N 678.448 -1.51871 0.421078 0
M  V30 6994 C 679.673 -2.0684 -0.152371 0
M  V30 6995 C 680.098 -1.28802 -1.37083 0
M  V30 6996 O 679.456 -0.321482 -1.78427 0
M  V30 6997 C 679.504 -3.57532 -0.469368 0
M  V30 6998 O 678.608 -3.81818 -1.55848 0
M  V30 6999 H 677.949 -0.663939 -0.00898586 0
M  V30 7000 H 680.479 -1.95674 0.597724 0
M  V30 7001 H 680.489 -4.01515 -0.724553 0
M  V30 7002 H 679.164 -4.13761 0.421276 0
M  V30 7003 H 677.741 -3.49709 -1.29453 0
M  V30 7004 N 679.926 -0.151884 -1.56866 0
M  V30 7005 C 681.175 0.497992 -1.95456 0
M  V30 7006 C 681.488 1.6569 -1.03953 0
M  V30 7007 O 682.694 2.37173 -1.32142 0
M  V30 7008 C 681.15 0.93732 -3.4748 0
M  V30 7009 C 680.758 -0.194921 -4.47576 0
M  V30 7010 C 682.502 1.55671 -3.94926 0
M  V30 7011 C 680.409 0.26295 -5.90815 0
M  V30 7012 H 679.339 0.189811 -0.729717 0
M  V30 7013 H 681.99 -0.237011 -1.81963 0
M  V30 7014 H 680.372 1.72773 -3.56322 0
M  V30 7015 H 681.546 -0.971951 -4.50433 0
M  V30 7016 H 679.861 -0.72303 -4.10075 0
M  V30 7017 H 682.458 1.91099 -4.99385 0
M  V30 7018 H 682.801 2.44748 -3.36755 0
M  V30 7019 H 683.334 0.831109 -3.89021 0
M  V30 7020 H 680.073 -0.592568 -6.52816 0
M  V30 7021 H 679.593 1.00575 -5.91308 0
M  V30 7022 H 681.272 0.713333 -6.43056 0
M  V30 7023 N 681.404 1.57128 0.121893 0
M  V30 7024 C 682.314 2.03425 1.16857 0
M  V30 7025 C 683.33 0.954108 1.45509 0
M  V30 7026 O 684.506 1.26541 1.56682 0
M  V30 7027 C 681.571 2.42685 2.47599 0
M  V30 7028 C 680.632 3.64767 2.2637 0
M  V30 7029 C 679.865 4.02145 3.50878 0
M  V30 7030 O 680.088 3.39897 4.58068 0
M  V30 7031 O 679.022 4.95262 3.42051 0
M  V30 7032 H 682.848 2.92825 0.80544 0
M  V30 7033 H 680.433 1.45654 0.332477 0
M  V30 7034 H 682.315 2.68684 3.24634 0
M  V30 7035 H 680.99 1.56432 2.83392 0
M  V30 7036 H 679.897 3.43922 1.47203 0
M  V30 7037 H 681.23 4.51716 1.95482 0
M  V30 7038 N 682.882 -0.391992 1.52647 0
M  V30 7039 C 684.128 -1.139 1.67793 0
M  V30 7040 C 684.461 -1.89711 0.41514 0
M  V30 7041 O 683.736 -1.85431 -0.586979 0
M  V30 7042 C 684.019 -2.11966 2.91105 0
M  V30 7043 C 683.872 -1.39939 4.27478 0
M  V30 7044 C 685.191 -3.1243 3.09961 0
M  V30 7045 H 682.31 -0.412707 0.610608 0
M  V30 7046 H 684.952 -0.422725 1.85238 0
M  V30 7047 H 683.102 -2.73048 2.76364 0
M  V30 7048 H 684.774 -0.818439 4.53982 0
M  V30 7049 H 683.017 -0.701246 4.28095 0
M  V30 7050 H 683.688 -2.1158 5.09841 0
M  V30 7051 H 686.164 -2.61435 3.23714 0
M  V30 7052 H 685.04 -3.78294 3.97725 0
M  V30 7053 H 685.301 -3.81127 2.24042 0
M  V30 7054 N 684.36 -1.4356 -0.65026 0
M  V30 7055 C 685.59 -1.48563 -1.4357 0
M  V30 7056 C 685.998 -0.103041 -1.88919 0
M  V30 7057 O 685.341 0.897602 -1.60277 0
M  V30 7058 C 685.403 -2.37181 -2.70158 0
M  V30 7059 C 685.067 -3.84673 -2.4673 0
M  V30 7060 C 686.064 -4.75704 -2.09765 0
M  V30 7061 C 683.749 -4.29189 -2.60963 0
M  V30 7062 C 685.743 -6.09249 -1.87334 0
M  V30 7063 C 683.43 -5.62787 -2.38147 0
M  V30 7064 C 684.428 -6.52634 -2.01389 0
M  V30 7065 O 684.116 -7.83761 -1.78813 0
M  V30 7066 H 683.848 -0.506743 -0.447423 0
M  V30 7067 H 686.402 -1.89001 -0.80423 0
M  V30 7068 H 684.632 -1.91636 -3.35876 0
M  V30 7069 H 686.321 -2.33354 -3.32116 0
M  V30 7070 H 687.087 -4.42589 -1.98343 0
M  V30 7071 H 682.966 -3.59529 -2.88548 0
M  V30 7072 H 686.51 -6.7934 -1.58567 0
M  V30 7073 H 682.407 -5.95469 -2.49173 0
M  V30 7074 H 683.175 -7.95368 -1.93214 0
M  V30 7075 N 685.838 0.888903 -1.30139 0
M  V30 7076 C 686.748 2.02705 -1.18101 0
M  V30 7077 C 687.764 1.73702 -0.101809 0
M  V30 7078 O 688.94 1.98906 -0.315984 0
M  V30 7079 C 686.005 3.35616 -0.869651 0
M  V30 7080 C 685.066 3.78067 -2.03381 0
M  V30 7081 C 684.299 5.04635 -1.73721 0
M  V30 7082 O 684.522 5.66531 -0.663267 0
M  V30 7083 O 683.456 5.43399 -2.58845 0
M  V30 7084 H 687.282 2.15788 -2.13704 0
M  V30 7085 H 684.867 1.01426 -1.09695 0
M  V30 7086 H 686.749 4.15358 -0.711043 0
M  V30 7087 H 685.424 3.23651 0.0565002 0
M  V30 7088 H 684.331 2.99046 -2.24772 0
M  V30 7089 H 685.664 3.94631 -2.94155 0
M  V30 7090 N 687.317 1.12792 1.10072 0
M  V30 7091 C 688.594 0.796867 1.78632 0
M  V30 7092 C 688.974 -0.712739 1.98704 0
M  V30 7093 O 688.322 -1.64773 1.5831 0
M  V30 7094 C 688.532 1.57622 3.11378 0
M  V30 7095 C 689.88 1.76463 3.86194 0
M  V30 7096 O 690.904 1.54165 3.2111 0
M  V30 7097 O 689.763 2.13623 5.03018 0
M  V30 7098 H 686.857 0.290248 0.774394 0
M  V30 7099 H 689.403 1.23215 1.16688 0
M  V30 7100 H 688.175 2.60246 2.92212 0
M  V30 7101 H 687.798 1.13543 3.81043 0
M  V30 7102 N 688.795 -1.27931 0.920396 0
M  V30 7103 C 689.758 -2.25345 0.41858 0
M  V30 7104 C 690.758 -1.54116 -0.458798 0
M  V30 7105 O 691.948 -1.72235 -0.260912 0
M  V30 7106 C 689.08 -3.38556 -0.399104 0
M  V30 7107 H 690.273 -2.71251 1.27918 0
M  V30 7108 H 687.826 -1.39728 0.700406 0
M  V30 7109 H 688.561 -2.98021 -1.27882 0
M  V30 7110 H 688.346 -3.91426 0.229863 0
M  V30 7111 H 689.836 -4.10976 -0.740817 0
M  V30 7112 N 690.273 -0.685099 -1.4193 0
M  V30 7113 C 691.521 -0.21124 -2.00993 0
M  V30 7114 C 691.842 1.18985 -1.54491 0
M  V30 7115 O 691.112 1.8009 -0.771 0
M  V30 7116 H 689.692 -0.0751059 -0.743215 0
M  V30 7117 H 692.354 -0.883915 -1.73704 0
M  V30 7118 H 691.45 -0.220513 -3.1132 0
M  V30 7119 N 691.751 1.51645 -0.429126 0
M  V30 7120 C 692.976 2.06917 0.141399 0
M  V30 7121 C 693.401 1.29527 1.36398 0
M  V30 7122 O 692.759 0.33094 1.78254 0
M  V30 7123 C 692.807 3.57776 0.4504 0
M  V30 7124 O 691.911 3.82639 1.53821 0
M  V30 7125 H 691.252 0.663978 0.0054647 0
M  V30 7126 H 693.782 1.95355 -0.608093 0
M  V30 7127 H 693.792 4.01894 0.703249 0
M  V30 7128 H 692.467 4.13532 -0.443213 0
M  V30 7129 H 691.044 3.5039 1.27597 0
M  V30 7130 N 693.229 0.160201 1.56784 0
M  V30 7131 C 694.179 -0.786461 2.14007 0
M  V30 7132 C 695.163 -1.20046 1.07134 0
M  V30 7133 O 696.355 -1.16468 1.33283 0
M  V30 7134 C 693.484 -2.02024 2.77563 0
M  V30 7135 C 692.57 -1.62874 3.91578 0
M  V30 7136 N 692.961 -0.946176 4.96871 0
M  V30 7137 C 691.259 -1.92054 4.02531 0
M  V30 7138 C 691.96 -0.755084 5.76778 0
M  V30 7139 N 690.936 -1.29307 5.27997 0
M  V30 7140 H 694.738 -0.255879 2.92784 0
M  V30 7141 H 692.252 -0.0408778 1.62349 0
M  V30 7142 H 694.249 -2.70855 3.16928 0
M  V30 7143 H 692.909 -2.55587 2.00263 0
M  V30 7144 H 693.92 -0.605455 5.14349 0
M  V30 7145 H 690.597 -2.47374 3.36322 0
M  V30 7146 H 691.987 -0.216138 6.71552 0
M  V30 7147 N 694.707 -1.5719 -0.113559 0
M  V30 7148 C 695.937 -1.89053 -0.833212 0
M  V30 7149 C 696.345 -0.750139 -1.73694 0
M  V30 7150 O 695.688 0.287808 -1.81431 0
M  V30 7151 C 695.75 -3.15986 -1.71443 0
M  V30 7152 C 695.414 -4.46271 -0.984449 0
M  V30 7153 C 696.411 -5.18897 -0.322741 0
M  V30 7154 C 694.096 -4.92963 -0.964011 0
M  V30 7155 C 696.09 -6.3644 0.349646 0
M  V30 7156 C 693.777 -6.10422 -0.287828 0
M  V30 7157 C 694.775 -6.82009 0.36784 0
M  V30 7158 O 694.463 -7.97233 1.03322 0
M  V30 7159 H 694.195 -0.630225 -0.244526 0
M  V30 7160 H 696.749 -2.05152 -0.100847 0
M  V30 7161 H 694.979 -2.95984 -2.48858 0
M  V30 7162 H 696.668 -3.33826 -2.309 0
M  V30 7163 H 697.434 -4.83875 -0.330114 0
M  V30 7164 H 693.313 -4.37143 -1.46379 0
M  V30 7165 H 696.857 -6.92254 0.861996 0
M  V30 7166 H 692.754 -6.449 -0.278237 0
M  V30 7167 H 693.522 -8.13105 0.938247 0
M  V30 7168 N 696.185 0.383891 -1.52853 0
M  V30 7169 C 697.115 1.47559 -1.80965 0
M  V30 7170 C 698.096 1.5669 -0.661986 0
M  V30 7171 O 699.281 1.71556 -0.910072 0
M  V30 7172 C 696.411 2.85114 -1.98312 0
M  V30 7173 C 695.365 2.9082 -3.14019 0
M  V30 7174 C 694.691 4.30873 -3.16627 0
M  V30 7175 C 695.991 2.60001 -4.52986 0
M  V30 7176 H 697.685 1.24283 -2.72386 0
M  V30 7177 H 695.231 0.596445 -1.31067 0
M  V30 7178 H 697.184 3.61496 -2.16561 0
M  V30 7179 H 695.908 3.09738 -1.03585 0
M  V30 7180 H 694.567 2.16886 -2.9556 0
M  V30 7181 H 694.215 4.52545 -2.19573 0
M  V30 7182 H 693.915 4.3561 -3.94357 0
M  V30 7183 H 695.439 5.09154 -3.37038 0
M  V30 7184 H 696.853 3.261 -4.71521 0
M  V30 7185 H 695.25 2.76081 -5.32822 0
M  V30 7186 H 696.32 1.5532 -4.59351 0
M  V30 7187 N 697.663 1.43903 0.642637 0
M  V30 7188 C 698.903 1.47591 1.41408 0
M  V30 7189 C 699.267 0.101313 1.91733 0
M  V30 7190 O 700.468 0.0128797 2.68797 0
M  V30 7191 C 698.739 2.4977 2.55636 0
M  V30 7192 S 700.298 2.72417 3.43998 0
M  V30 7193 H 697.116 0.522163 0.482563 0
M  V30 7194 H 699.718 1.80745 0.745085 0
M  V30 7195 H 698.422 3.48365 2.16956 0
M  V30 7196 H 697.953 2.1815 3.27375 0
M  V30 7197 H 699.968 2.03142 4.52712 0
M  V30 7198 N 699.141 -0.881989 1.30609 0
M  V30 7199 C 700.071 -2.00413 1.1982 0
M  V30 7200 C 701.052 -1.69871 0.0881538 0
M  V30 7201 O 702.237 -1.92304 0.2707 0
M  V30 7202 C 699.367 -3.35641 0.89233 0
M  V30 7203 C 698.321 -3.80451 1.96064 0
M  V30 7204 C 697.647 -5.13003 1.5077 0
M  V30 7205 C 698.947 -3.98855 3.37213 0
M  V30 7206 H 700.641 -2.09698 2.13699 0
M  V30 7207 H 698.187 -1.00754 1.02882 0
M  V30 7208 H 700.14 -4.13669 0.803497 0
M  V30 7209 H 698.864 -3.26497 -0.0821381 0
M  V30 7210 H 697.523 -3.04654 2.03916 0
M  V30 7211 H 697.171 -5.0029 0.521417 0
M  V30 7212 H 696.871 -5.43956 2.22229 0
M  V30 7213 H 698.395 -5.93554 1.43271 0
M  V30 7214 H 699.809 -4.67312 3.32103 0
M  V30 7215 H 698.206 -4.41188 4.06784 0
M  V30 7216 H 699.276 -3.02614 3.78883 0
M  V30 7217 N 700.619 -1.13374 -1.09472 0
M  V30 7218 C 701.549 -0.833268 -2.18126 0
M  V30 7219 C 702.53 0.207169 -1.68834 0
M  V30 7220 O 703.715 0.0662012 -1.94087 0
M  V30 7221 C 700.845 -0.297979 -3.46019 0
M  V30 7222 C 699.799 -1.27261 -4.08642 0
M  V30 7223 C 699.125 -0.597104 -5.31356 0
M  V30 7224 C 700.425 -2.63095 -4.51197 0
M  V30 7225 H 702.119 -1.74182 -2.43518 0
M  V30 7226 H 699.665 -0.838921 -1.17039 0
M  V30 7227 H 701.618 -0.0754444 -4.21332 0
M  V30 7228 H 700.342 0.645959 -3.20148 0
M  V30 7229 H 699.001 -1.48113 -3.35348 0
M  V30 7230 H 698.649 0.352293 -5.01765 0
M  V30 7231 H 698.349 -1.24734 -5.74208 0
M  V30 7232 H 699.873 -0.38384 -6.09392 0
M  V30 7233 H 701.287 -2.46214 -5.17737 0
M  V30 7234 H 699.684 -3.2429 -5.04932 0
M  V30 7235 H 700.754 -3.20793 -3.6362 0
M  V30 7236 N 702.098 1.27442 -0.927168 0
M  V30 7237 C 703.045 2.26863 -0.424459 0
M  V30 7238 C 704.015 1.5813 0.508346 0
M  V30 7239 O 705.2 1.85946 0.42762 0
M  V30 7240 C 702.34 3.43639 0.31718 0
M  V30 7241 C 701.453 4.27087 -0.649675 0
M  V30 7242 C 700.588 5.31082 0.111753 0
M  V30 7243 C 699.627 6.062 -0.847843 0
M  V30 7244 N 698.764 7.01999 -0.119074 0
M  V30 7245 H 703.604 2.69239 -1.27728 0
M  V30 7246 H 701.141 1.32394 -0.641106 0
M  V30 7247 H 703.099 4.10155 0.763486 0
M  V30 7248 H 701.729 3.02217 1.13424 0
M  V30 7249 H 700.781 3.60491 -1.21451 0
M  V30 7250 H 702.093 4.79242 -1.38307 0
M  V30 7251 H 701.247 6.03544 0.618 0
M  V30 7252 H 699.986 4.7973 0.878114 0
M  V30 7253 H 698.991 5.32577 -1.36534 0
M  V30 7254 H 700.216 6.59642 -1.61398 0
M  V30 7255 H 698.162 6.52977 0.629051 0
M  V30 7256 H 698.079 7.5184 -0.792046 0
M  V30 7257 H 699.347 7.78638 0.366537 0
M  V30 7258 N 703.576 0.692616 1.41565 0
M  V30 7259 C 704.539 0.0344174 2.29174 0
M  V30 7260 C 705.539 -0.710961 1.44229 0
M  V30 7261 O 706.729 -0.546293 1.65412 0
M  V30 7262 C 703.861 -0.961682 3.27054 0
M  V30 7263 H 705.054 0.805755 2.88873 0
M  V30 7264 H 702.607 0.455947 1.49502 0
M  V30 7265 H 703.342 -1.76089 2.72329 0
M  V30 7266 H 703.127 -0.430375 3.89731 0
M  V30 7267 H 704.617 -1.4201 3.92712 0
M  V30 7268 N 705.054 -1.51416 0.437162 0
M  V30 7269 C 706.47 -1.59349 0.0894459 0
M  V30 7270 C 706.67 -1.44809 -1.40116 0
M  V30 7271 O 705.726 -1.28924 -2.17106 0
M  V30 7272 C 707.039 -2.9446 0.609398 0
M  V30 7273 C 708.587 -3.07769 0.569824 0
M  V30 7274 C 709.062 -4.45404 1.06675 0
M  V30 7275 N 710.553 -4.51723 1.02473 0
M  V30 7276 C 711.288 -5.56544 1.3801 0
M  V30 7277 N 710.784 -6.68784 1.80831 0
M  V30 7278 N 712.577 -5.46901 1.29828 0
M  V30 7279 H 704.728 -1.59112 1.40703 0
M  V30 7280 H 706.991 -0.750031 0.579791 0
M  V30 7281 H 706.697 -3.1047 1.65231 0
M  V30 7282 H 706.571 -3.77184 0.0342236 0
M  V30 7283 H 708.958 -2.91428 -0.464107 0
M  V30 7284 H 709.039 -2.26885 1.1814 0
M  V30 7285 H 708.683 -4.62492 2.09914 0
M  V30 7286 H 708.613 -5.24827 0.431712 0
M  V30 7287 H 711.104 -3.71165 0.710258 0
M  V30 7288 H 711.417 -7.44787 2.06185 0
M  V30 7289 H 709.762 -6.69992 1.84757 0
M  V30 7290 H 712.953 -4.581 0.962397 0
M  V30 7291 H 713.126 -6.2848 1.57851 0
M  V30 7292 N 706.532 -0.168513 -1.56696 0
M  V30 7293 C 707.76 0.483503 -2.01171 0
M  V30 7294 C 708.175 1.56994 -1.04872 0
M  V30 7295 O 707.532 1.82434 -0.0491337 0
M  V30 7296 C 707.583 1.0644 -3.45475 0
M  V30 7297 O 707.304 0.0213375 -4.38095 0
M  V30 7298 C 708.805 1.79493 -4.05336 0
M  V30 7299 H 706.025 0.124002 -0.659443 0
M  V30 7300 H 708.569 -0.269419 -2.02717 0
M  V30 7301 H 706.724 1.76784 -3.44712 0
M  V30 7302 H 707.138 0.449837 -5.22567 0
M  V30 7303 H 708.612 2.15401 -5.08238 0
M  V30 7304 H 709.089 2.68889 -3.47269 0
M  V30 7305 H 709.695 1.13798 -4.09793 0
M  V30 7306 N 708.01 1.57248 0.105221 0
M  V30 7307 C 709.426 1.52853 0.459153 0
M  V30 7308 C 709.626 0.883674 1.8109 0
M  V30 7309 O 708.682 0.471864 2.48052 0
M  V30 7310 C 709.995 2.97596 0.43096 0
M  V30 7311 C 711.543 3.08758 0.513536 0
M  V30 7312 C 712.018 4.55089 0.515593 0
M  V30 7313 N 713.509 4.59597 0.576639 0
M  V30 7314 C 714.244 5.70253 0.599904 0
M  V30 7315 N 713.74 6.90368 0.579985 0
M  V30 7316 N 715.533 5.58399 0.643953 0
M  V30 7317 H 707.684 1.97547 -0.780306 0
M  V30 7318 H 709.947 0.902758 -0.289363 0
M  V30 7319 H 709.653 3.48201 -0.494903 0
M  V30 7320 H 709.527 3.55756 1.2537 0
M  V30 7321 H 711.914 2.58148 1.42982 0
M  V30 7322 H 711.995 2.53568 -0.337148 0
M  V30 7323 H 711.639 5.06348 -0.396701 0
M  V30 7324 H 711.569 5.08105 1.38335 0
M  V30 7325 H 714.06 3.73144 0.597639 0
M  V30 7326 H 714.373 7.70462 0.600741 0
M  V30 7327 H 712.718 6.92843 0.547191 0
M  V30 7328 H 715.909 4.63467 0.656975 0
M  V30 7329 H 716.082 6.44644 0.658616 0
M  V30 7330 N 709.488 -0.375779 1.53054 0
M  V30 7331 C 710.765 -1.13453 1.59336 0
M  V30 7332 C 711.145 -2.07379 0.394614 0
M  V30 7333 O 710.493 -2.2004 -0.616 0
M  V30 7334 C 710.703 -1.8826 2.93869 0
M  V30 7335 C 712.051 -2.43155 3.48081 0
M  V30 7336 O 713.075 -1.984 2.95831 0
M  V30 7337 O 711.934 -3.24944 4.39401 0
M  V30 7338 H 709.028 -0.519856 0.643179 0
M  V30 7339 H 711.574 -0.379865 1.65394 0
M  V30 7340 H 710.346 -1.19652 3.72558 0
M  V30 7341 H 709.969 -2.70658 2.91256 0
M  V30 7342 N 710.966 -1.44241 -0.634997 0
M  V30 7343 C 712.191 -1.50516 -1.42687 0
M  V30 7344 C 712.616 -0.129864 -1.87651 0
M  V30 7345 O 711.974 0.880164 -1.58502 0
M  V30 7346 C 712.022 -2.4714 -2.62591 0
M  V30 7347 O 711.126 -1.97025 -3.62291 0
M  V30 7348 H 710.467 -0.50841 -0.427101 0
M  V30 7349 H 712.997 -1.89337 -0.775408 0
M  V30 7350 H 713.007 -2.65048 -3.10183 0
M  V30 7351 H 711.682 -3.47039 -2.29209 0
M  V30 7352 H 710.259 -1.88866 -3.21534 0
M  V30 7353 N 712.444 0.87505 -1.31075 0
M  V30 7354 C 713.692 1.62447 -1.20231 0
M  V30 7355 C 714.013 1.93506 0.240888 0
M  V30 7356 O 713.283 1.57847 1.16022 0
M  V30 7357 H 711.863 0.602207 -0.441991 0
M  V30 7358 H 714.525 1.04788 -1.64334 0
M  V30 7359 H 713.621 2.57031 -1.77036 0
M  V30 7360 N 713.922 1.13953 1.08869 0
M  V30 7361 C 715.15 0.92817 1.84912 0
M  V30 7362 C 715.565 -0.523197 1.81406 0
M  V30 7363 O 714.922 -1.36237 1.21432 0
M  V30 7364 C 714.973 1.41509 3.32652 0
M  V30 7365 O 714.694 2.80959 3.36145 0
M  V30 7366 C 716.195 1.243 4.25517 0
M  V30 7367 H 713.415 0.330612 0.583898 0
M  V30 7368 H 715.959 1.51349 1.37527 0
M  V30 7369 H 714.114 0.872648 3.77444 0
M  V30 7370 H 714.528 3.02704 4.28335 0
M  V30 7371 H 716.002 1.63237 5.27312 0
M  V30 7372 H 716.479 0.18532 4.38809 0
M  V30 7373 H 717.085 1.77375 3.86546 0
M  V30 7374 N 715.4 -1.26948 0.933913 0
M  V30 7375 C 716.63 -1.97898 0.593279 0
M  V30 7376 C 717.038 -1.69806 -0.834412 0
M  V30 7377 O 716.381 -0.958704 -1.56699 0
M  V30 7378 C 716.443 -3.51657 0.746825 0
M  V30 7379 C 716.107 -4.03384 2.14779 0
M  V30 7380 C 717.104 -4.15682 3.12257 0
M  V30 7381 C 714.789 -4.37577 2.46641 0
M  V30 7382 C 716.783 -4.61455 4.39702 0
M  V30 7383 C 714.47 -4.8304 3.7432 0
M  V30 7384 C 715.468 -4.94939 4.70664 0
M  V30 7385 O 715.156 -5.39403 5.96071 0
M  V30 7386 H 714.888 -0.63814 0.223055 0
M  V30 7387 H 717.442 -1.62608 1.2549 0
M  V30 7388 H 715.672 -3.8669 0.0280889 0
M  V30 7389 H 717.361 -4.03821 0.410328 0
M  V30 7390 H 718.127 -3.89519 2.88964 0
M  V30 7391 H 714.006 -4.27554 1.72391 0
M  V30 7392 H 717.55 -4.70658 5.14905 0
M  V30 7393 H 713.447 -5.08646 3.97429 0
M  V30 7394 H 714.215 -5.57641 5.99148 0
M  V30 7395 N 716.879 -0.700114 -1.41195 0
M  V30 7396 C 718.104 -0.240704 -2.05998 0
M  V30 7397 C 718.529 1.10313 -1.52357 0
M  V30 7398 O 717.887 1.69154 -0.652424 0
M  V30 7399 C 717.935 -0.213783 -3.59966 0
M  V30 7400 O 717.039 0.809933 -4.04368 0
M  V30 7401 H 716.38 -0.116471 -0.653705 0
M  V30 7402 H 718.91 -0.956251 -1.80878 0
M  V30 7403 H 718.92 -0.0461852 -4.07974 0
M  V30 7404 H 717.595 -1.19454 -3.98376 0
M  V30 7405 H 716.172 0.611319 -3.67855 0
M  V30 7406 N 718.357 1.51182 -0.445186 0
M  V30 7407 C 719.597 2.04061 0.117717 0
M  V30 7408 C 719.961 1.32158 1.39278 0
M  V30 7409 O 721.162 1.75452 2.03642 0
M  V30 7410 C 719.433 3.55933 0.323445 0
M  V30 7411 S 720.992 4.30516 0.848627 0
M  V30 7412 H 717.81 0.710442 0.028165 0
M  V30 7413 H 720.412 1.85858 -0.606391 0
M  V30 7414 H 719.116 4.0583 -0.610764 0
M  V30 7415 H 718.647 3.78444 1.07441 0
M  V30 7416 H 720.662 4.48382 2.12528 0
M  V30 7417 N 719.835 0.176821 1.56605 0
M  V30 7418 C 721.063 -0.472828 2.01425 0
M  V30 7419 C 721.478 -1.56436 1.05703 0
M  V30 7420 O 720.835 -1.82405 0.058808 0
M  V30 7421 C 720.886 -1.04607 3.46034 0
M  V30 7422 O 720.607 0.00189608 4.381 0
M  V30 7423 C 722.108 -1.7734 4.06282 0
M  V30 7424 H 719.328 -0.120503 0.660091 0
M  V30 7425 H 721.872 0.280166 2.02572 0
M  V30 7426 H 720.027 -1.74953 3.45645 0
M  V30 7427 H 720.441 -0.422118 5.22799 0
M  V30 7428 H 721.915 -2.12703 5.09374 0
M  V30 7429 H 722.392 -2.67043 3.4869 0
M  V30 7430 H 722.998 -1.11623 4.10391 0
M  V30 7431 N 721.313 -1.57302 -0.09688 0
M  V30 7432 C 722.276 -2.00976 -1.10188 0
M  V30 7433 C 723.276 -0.903009 -1.3305 0
M  V30 7434 O 724.466 -1.16853 -1.29194 0
M  V30 7435 C 721.598 -2.36893 -2.45142 0
M  V30 7436 H 722.791 -2.9098 -0.726003 0
M  V30 7437 H 720.344 -1.52515 -0.341872 0
M  V30 7438 H 721.079 -1.49837 -2.8761 0
M  V30 7439 H 720.864 -3.17632 -2.29897 0
M  V30 7440 H 722.354 -2.71345 -3.1743 0
M  V30 7441 N 722.791 0.367657 -1.53252 0
M  V30 7442 C 724.016 1.13566 -1.73544 0
M  V30 7443 C 724.441 1.82329 -0.462344 0
M  V30 7444 O 723.799 1.71655 0.583472 0
M  V30 7445 C 723.847 2.14322 -2.89997 0
M  V30 7446 O 722.951 3.21359 -2.58461 0
M  V30 7447 H 722.292 0.329614 -0.576412 0
M  V30 7448 H 724.822 0.425417 -2.00128 0
M  V30 7449 H 724.832 2.57958 -3.16104 0
M  V30 7450 H 723.507 1.63664 -3.82344 0
M  V30 7451 H 722.084 2.8271 -2.43165 0
M  V30 7452 N 724.269 1.44576 0.627338 0
M  V30 7453 C 725.217 1.52039 1.76031 0
M  V30 7454 C 726.211 0.391796 1.64807 0
M  V30 7455 O 727.417 0.5669 1.7084 0
M  V30 7456 H 723.792 0.477165 0.581221 0
M  V30 7457 H 725.763 2.47387 1.6686 0
M  V30 7458 C 724.512 1.48539 3.14375 0
M  V30 7459 H 723.835 2.34699 3.23661 0
M  V30 7460 H 725.275 1.57821 3.93534 0
M  V30 7461 C 723.734 0.20672 3.36265 0
M  V30 7462 O 724.264 -0.72154 3.95167 0
M  V30 7463 N 722.47 0.108654 2.90397 0
M  V30 7464 H 722.017 0.864884 2.42647 0
M  V30 7465 H 721.975 -0.746121 3.05418 0
M  V30 7466 N 725.747 -0.868086 1.31537 0
M  V30 7467 C 726.71 -1.95703 1.19302 0
M  V30 7468 C 727.71 -1.60355 0.119612 0
M  V30 7469 O 728.9 -1.70247 0.36902 0
M  V30 7470 C 726.032 -3.30599 0.831684 0
M  V30 7471 H 727.225 -2.07982 2.16064 0
M  V30 7472 H 724.778 -1.05661 1.15176 0
M  V30 7473 H 725.513 -3.2402 -0.134694 0
M  V30 7474 H 725.298 -3.57629 1.60761 0
M  V30 7475 H 726.788 -4.10439 0.770026 0
M  V30 7476 N 727.225 -1.14528 -1.08264 0
M  V30 7477 C 728.157 -0.791325 -2.15106 0
M  V30 7478 C 729.17 0.192449 -1.61659 0
M  V30 7479 O 730.359 -0.0294704 -1.78476 0
M  V30 7480 C 727.459 -0.154183 -3.38549 0
M  V30 7481 C 726.632 -1.17305 -4.21377 0
M  V30 7482 C 725.691 -0.559401 -5.23218 0
M  V30 7483 O 724.717 -1.22277 -5.55911 0
M  V30 7484 N 725.919 0.663159 -5.767 0
M  V30 7485 H 728.684 -1.71076 -2.46075 0
M  V30 7486 H 726.245 -1.0399 -1.24087 0
M  V30 7487 H 728.237 0.268884 -4.03806 0
M  V30 7488 H 726.807 0.668418 -3.0537 0
M  V30 7489 H 726.027 -1.773 -3.52077 0
M  V30 7490 H 727.315 -1.86128 -4.73533 0
M  V30 7491 H 726.713 1.22066 -5.52373 0
M  V30 7492 H 725.27 1.02871 -6.43631 0
M  V30 7493 N 728.703 1.26451 -0.940633 0
M  V30 7494 C 729.951 1.93395 -0.586748 0
M  V30 7495 C 730.272 1.7417 0.876921 0
M  V30 7496 O 729.542 1.097 1.62304 0
M  V30 7497 H 728.122 0.715687 -0.214012 0
M  V30 7498 H 730.784 1.53902 -1.19584 0
M  V30 7499 H 729.88 3.01565 -0.804059 0
M  V30 7500 N 730.181 0.707592 1.40822 0
M  V30 7501 C 731.113 0.0105968 2.29198 0
M  V30 7502 C 732.126 -0.732035 1.45414 0
M  V30 7503 O 733.315 -0.580741 1.68789 0
M  V30 7504 C 730.415 -1.00921 3.23525 0
M  V30 7505 C 729.588 -0.333747 4.36125 0
M  V30 7506 C 728.647 -1.25783 5.10945 0
M  V30 7507 O 727.673 -0.745646 5.64295 0
M  V30 7508 N 728.875 -2.58947 5.19545 0
M  V30 7509 H 731.64 0.76938 2.89656 0
M  V30 7510 H 729.201 0.554579 1.52105 0
M  V30 7511 H 731.193 -1.6294 3.70449 0
M  V30 7512 H 729.763 -1.66942 2.6429 0
M  V30 7513 H 728.983 0.466518 3.9143 0
M  V30 7514 H 730.271 0.135444 5.0862 0
M  V30 7515 H 729.669 -3.03065 4.7767 0
M  V30 7516 H 728.226 -3.16131 5.70004 0
M  V30 7517 N 731.66 -1.50943 0.453197 0
M  V30 7518 C 732.59 -2.31005 -0.34044 0
M  V30 7519 C 733.571 -1.37112 -1.00669 0
M  V30 7520 O 734.756 -1.66033 -1.0073 0
M  V30 7521 C 731.886 -3.16358 -1.433 0
M  V30 7522 C 730.84 -4.18658 -0.889363 0
M  V30 7523 C 730.166 -4.92633 -2.07887 0
M  V30 7524 C 731.466 -5.22227 0.0871142 0
M  V30 7525 H 733.16 -2.97601 0.327723 0
M  V30 7526 H 730.706 -1.43119 0.159054 0
M  V30 7527 H 732.659 -3.71155 -1.99555 0
M  V30 7528 H 731.383 -2.47613 -2.12968 0
M  V30 7529 H 730.042 -3.64936 -0.348915 0
M  V30 7530 H 729.69 -4.20376 -2.76211 0
M  V30 7531 H 729.39 -5.61819 -1.72143 0
M  V30 7532 H 730.914 -5.50258 -2.64666 0
M  V30 7533 H 732.328 -5.72001 -0.385656 0
M  V30 7534 H 730.725 -5.99032 0.357926 0
M  V30 7535 H 731.795 -4.74077 1.01879 0
M  V30 7536 N 733.138 -0.185124 -1.56509 0
M  V30 7537 C 734.363 0.465278 -2.02114 0
M  V30 7538 C 734.788 1.55083 -1.06447 0
M  V30 7539 O 734.146 1.81241 -0.0462852 0
M  V30 7540 C 734.194 1.00784 -3.46229 0
M  V30 7541 O 733.298 2.12123 -3.53663 0
M  V30 7542 H 732.639 0.109891 -0.654843 0
M  V30 7543 H 735.169 -0.293072 -2.0249 0
M  V30 7544 H 735.179 1.32697 -3.85818 0
M  V30 7545 H 733.854 0.213113 -4.15354 0
M  V30 7546 H 732.431 1.8115 -3.25943 0
M  V30 7547 N 734.616 1.57351 0.0885366 0
M  V30 7548 C 735.856 1.88248 0.796362 0
M  V30 7549 C 736.22 0.776915 1.75579 0
M  V30 7550 O 737.421 0.968485 2.50747 0
M  V30 7551 C 735.692 3.24385 1.50031 0
M  V30 7552 S 737.251 3.76991 2.24551 0
M  V30 7553 H 734.069 0.659697 0.265181 0
M  V30 7554 H 736.671 1.95428 0.0531843 0
M  V30 7555 H 735.375 4.02764 0.788 0
M  V30 7556 H 734.906 3.20361 2.28325 0
M  V30 7557 H 736.921 3.50933 3.508 0
M  V30 7558 N 736.094 -0.359525 1.53444 0
M  V30 7559 C 737.319 -1.12644 1.74144 0
M  V30 7560 C 737.744 -1.82082 0.472007 0
M  V30 7561 O 737.102 -1.71962 -0.57436 0
M  V30 7562 C 737.15 -2.12781 2.9113 0
M  V30 7563 O 736.254 -3.19984 2.60162 0
M  V30 7564 H 735.595 -0.326553 0.578152 0
M  V30 7565 H 738.125 -0.414798 2.00351 0
M  V30 7566 H 738.135 -2.56278 3.17467 0
M  V30 7567 H 736.81 -1.61634 3.83207 0
M  V30 7568 H 735.387 -2.81417 2.44661 0
M  V30 7569 N 737.572 -1.44907 -0.619662 0
M  V30 7570 C 738.818 -1.49504 -1.37914 0
M  V30 7571 C 739.173 -0.130158 -1.91959 0
M  V30 7572 O 738.466 0.856263 -1.71402 0
M  V30 7573 C 738.66 -2.50002 -2.55409 0
M  V30 7574 C 738.489 -3.96128 -2.12867 0
M  V30 7575 C 737.259 -4.64204 -1.99606 0
M  V30 7576 C 739.457 -4.85014 -1.71074 0
M  V30 7577 N 737.439 -5.95104 -1.50748 0
M  V30 7578 C 738.81 -6.05447 -1.33544 0
M  V30 7579 C 740.865 -4.71979 -1.58557 0
M  V30 7580 C 739.568 -7.1429 -0.847484 0
M  V30 7581 C 741.594 -5.80858 -1.11165 0
M  V30 7582 C 740.956 -7.00439 -0.745932 0
M  V30 7583 H 737.055 -0.60207 -0.499034 0
M  V30 7584 H 739.639 -1.81305 -0.70968 0
M  V30 7585 H 737.81 -2.20172 -3.19967 0
M  V30 7586 H 739.542 -2.44823 -3.22248 0
M  V30 7587 H 736.297 -4.19182 -2.20417 0
M  V30 7588 H 736.721 -6.64676 -1.28585 0
M  V30 7589 H 741.363 -3.79953 -1.85461 0
M  V30 7590 H 739.081 -8.06116 -0.565974 0
M  V30 7591 H 742.667 -5.72803 -1.01923 0
M  V30 7592 H 741.547 -7.83255 -0.384848 0
M  V30 7593 N 739.05 0.861098 -1.31996 0
M  V30 7594 C 740.278 1.6474 -1.25173 0
M  V30 7595 C 740.693 1.87926 0.181425 0
M  V30 7596 O 740.05 1.4437 1.1164 0
M  V30 7597 C 740.101 3.01036 -2.0015 0
M  V30 7598 O 739.822 2.7888 -3.37872 0
M  V30 7599 C 741.323 3.95481 -2.00273 0
M  V30 7600 H 738.543 0.513314 -0.432146 0
M  V30 7601 H 741.087 1.07419 -1.74016 0
M  V30 7602 H 739.242 3.55021 -1.55046 0
M  V30 7603 H 739.656 3.65514 -3.76165 0
M  V30 7604 H 741.13 4.88403 -2.57229 0
M  V30 7605 H 741.607 4.27957 -0.987407 0
M  V30 7606 H 742.213 3.47433 -2.45296 0
M  V30 7607 N 740.528 1.15101 1.07655 0
M  V30 7608 C 741.458 0.867864 2.16773 0
M  V30 7609 C 742.439 -0.180283 1.69142 0
M  V30 7610 O 743.624 -0.0353152 1.94168 0
M  V30 7611 C 740.754 0.35299 3.45501 0
M  V30 7612 C 739.708 1.33746 4.06566 0
M  V30 7613 C 739.034 0.681562 5.30338 0
M  V30 7614 C 740.334 2.7024 4.46954 0
M  V30 7615 H 742.028 1.78034 2.40716 0
M  V30 7616 H 739.574 0.857435 1.15689 0
M  V30 7617 H 741.527 0.142465 4.21159 0
M  V30 7618 H 740.251 -0.594945 3.21135 0
M  V30 7619 H 738.91 1.53429 3.32949 0
M  V30 7620 H 738.558 -0.272422 5.02262 0
M  V30 7621 H 738.258 1.33853 5.72151 0
M  V30 7622 H 739.782 0.48074 6.08705 0
M  V30 7623 H 741.196 2.5442 5.13754 0
M  V30 7624 H 739.593 3.32282 4.99709 0
M  V30 7625 H 740.663 3.26537 3.58471 0
M  V30 7626 N 742.006 -1.2595 0.947325 0
M  V30 7627 C 742.938 -2.25336 0.41906 0
M  V30 7628 C 743.951 -1.56135 -0.461051 0
M  V30 7629 O 745.14 -1.76438 -0.270505 0
M  V30 7630 C 742.24 -3.36334 -0.416233 0
M  V30 7631 C 741.413 -4.35088 0.449162 0
M  V30 7632 C 740.472 -5.25185 -0.326716 0
M  V30 7633 O 739.498 -5.68548 0.272374 0
M  V30 7634 N 740.7 -5.57388 -1.6217 0
M  V30 7635 H 743.465 -2.71298 1.27348 0
M  V30 7636 H 741.026 -1.39781 0.81688 0
M  V30 7637 H 743.018 -3.93564 -0.942826 0
M  V30 7638 H 741.588 -2.89819 -1.17148 0
M  V30 7639 H 740.808 -3.76841 1.15692 0
M  V30 7640 H 742.096 -4.98056 1.04008 0
M  V30 7641 H 741.494 -5.2405 -2.13046 0
M  V30 7642 H 740.051 -6.17234 -2.0944 0
M  V30 7643 N 743.484 -0.715051 -1.40445 0
M  V30 7644 C 744.73 -0.254705 -2.01194 0
M  V30 7645 C 745.063 1.14894 -1.56567 0
M  V30 7646 O 744.338 1.77933 -0.785491 0
M  V30 7647 C 744.621 -0.334148 -3.58546 0
M  V30 7648 C 744.474 -1.77613 -4.13248 0
M  V30 7649 C 745.793 0.294968 -4.3911 0
M  V30 7650 H 742.912 -0.094025 -0.730978 0
M  V30 7651 H 745.554 -0.907449 -1.66929 0
M  V30 7652 H 743.704 0.221609 -3.87867 0
M  V30 7653 H 745.376 -2.38723 -3.94727 0
M  V30 7654 H 743.619 -2.30402 -3.67556 0
M  V30 7655 H 744.29 -1.78311 -5.22407 0
M  V30 7656 H 746.766 -0.178563 -4.15717 0
M  V30 7657 H 745.642 0.208934 -5.48502 0
M  V30 7658 H 745.903 1.37841 -4.20062 0
M  V30 7659 N 744.962 1.50701 -0.461195 0
M  V30 7660 C 745.872 2.32069 0.343661 0
M  V30 7661 C 746.888 1.42016 1.00535 0
M  V30 7662 O 748.064 1.75077 0.995498 0
M  V30 7663 C 745.129 3.16424 1.41692 0
M  V30 7664 C 744.19 4.22286 0.772869 0
M  V30 7665 C 743.423 5.02609 1.79499 0
M  V30 7666 O 743.646 4.83874 3.0203 0
M  V30 7667 O 742.58 5.86047 1.3723 0
M  V30 7668 H 746.406 3.01996 -0.321268 0
M  V30 7669 H 743.991 1.47723 -0.223235 0
M  V30 7670 H 745.873 3.68795 2.03883 0
M  V30 7671 H 744.548 2.49236 2.0655 0
M  V30 7672 H 743.455 3.73931 0.112277 0
M  V30 7673 H 744.788 4.91915 0.167399 0
M  V30 7674 N 746.441 0.193421 1.56409 0
M  V30 7675 C 747.857 -0.162447 1.58771 0
M  V30 7676 C 748.057 -1.6116 1.20954 0
M  V30 7677 O 747.113 -2.3469 0.931497 0
M  V30 7678 C 748.426 0.138391 3.00381 0
M  V30 7679 C 749.974 0.0783649 3.12902 0
M  V30 7680 C 750.449 0.352491 4.56642 0
M  V30 7681 N 751.94 0.30105 4.62221 0
M  V30 7682 C 752.675 0.487028 5.71328 0
M  V30 7683 N 752.171 0.733265 6.88909 0
M  V30 7684 N 753.964 0.4214 5.60518 0
M  V30 7685 H 746.115 1.13909 1.79272 0
M  V30 7686 H 748.378 0.454528 0.83193 0
M  V30 7687 H 748.084 1.14312 3.32604 0
M  V30 7688 H 747.958 -0.559804 3.73023 0
M  V30 7689 H 750.345 -0.916963 2.80492 0
M  V30 7690 H 750.426 0.809611 2.4265 0
M  V30 7691 H 750.07 1.34513 4.89764 0
M  V30 7692 H 750 -0.399624 5.25081 0
M  V30 7693 H 752.491 0.117279 3.77718 0
M  V30 7694 H 752.804 0.86403 7.67955 0
M  V30 7695 H 751.149 0.770138 6.9072 0
M  V30 7696 H 754.34 0.229461 4.67537 0
M  V30 7697 H 754.513 0.569758 6.4549 0
M  V30 7698 N 747.919 -1.57396 -0.0801906 0
M  V30 7699 C 748.849 -2.06145 -1.09665 0
M  V30 7700 C 749.83 -0.953273 -1.40878 0
M  V30 7701 O 751.015 -1.22548 -1.50651 0
M  V30 7702 C 748.145 -2.49836 -2.41245 0
M  V30 7703 C 747.099 -3.64454 -2.24405 0
M  V30 7704 C 746.425 -3.94172 -3.61293 0
M  V30 7705 C 747.725 -4.94807 -1.67223 0
M  V30 7706 H 749.419 -2.91316 -0.691028 0
M  V30 7707 H 746.965 -1.40145 -0.330957 0
M  V30 7708 H 748.918 -2.82552 -3.12638 0
M  V30 7709 H 747.642 -1.61683 -2.83771 0
M  V30 7710 H 746.301 -3.32008 -1.55454 0
M  V30 7711 H 745.949 -3.03163 -4.01374 0
M  V30 7712 H 745.649 -4.71345 -3.50867 0
M  V30 7713 H 747.173 -4.29376 -4.3413 0
M  V30 7714 H 748.587 -5.25807 -2.28472 0
M  V30 7715 H 746.984 -5.76245 -1.67515 0
M  V30 7716 H 748.054 -4.80751 -0.632944 0
M  V30 7717 N 749.397 0.351382 -1.53633 0
M  V30 7718 C 750.36 1.41403 -1.80383 0
M  V30 7719 C 751.36 1.45963 -0.674635 0
M  V30 7720 O 752.55 1.46476 -0.942895 0
M  V30 7721 C 749.682 2.80401 -1.93876 0
M  V30 7722 H 750.875 1.18951 -2.75301 0
M  V30 7723 H 748.428 0.58533 -1.44926 0
M  V30 7724 H 749.163 3.08147 -1.01074 0
M  V30 7725 H 748.948 2.78488 -2.7602 0
M  V30 7726 H 750.438 3.57329 -2.16116 0
M  V30 7727 N 750.875 1.45233 0.611969 0
M  V30 7728 C 752.121 1.49242 1.37312 0
M  V30 7729 C 752.454 0.131963 1.93751 0
M  V30 7730 O 751.729 -0.852999 1.74798 0
M  V30 7731 C 752.012 2.56811 2.52428 0
M  V30 7732 C 751.865 4.02284 2.01215 0
M  V30 7733 C 753.184 2.60705 3.54572 0
M  V30 7734 H 750.303 0.54336 0.497925 0
M  V30 7735 H 752.945 1.77019 0.690242 0
M  V30 7736 H 751.095 2.33256 3.10683 0
M  V30 7737 H 752.767 4.37035 1.47643 0
M  V30 7738 H 751.01 4.1315 1.32248 0
M  V30 7739 H 751.681 4.7323 2.84178 0
M  V30 7740 H 754.157 2.81799 3.06151 0
M  V30 7741 H 753.033 3.37841 4.32614 0
M  V30 7742 H 753.294 1.65627 4.09903 0
M  V30 7743 N 752.353 -0.854086 1.3245 0
M  V30 7744 C 753.286 -1.96654 1.15768 0
M  V30 7745 C 754.264 -1.625 0.0569975 0
M  V30 7746 O 755.448 -1.87254 0.216412 0
M  V30 7747 C 752.575 -3.29776 0.772361 0
M  V30 7748 C 751.621 -3.82909 1.87837 0
M  V30 7749 S 752.454 -4.0643 3.48675 0
M  V30 7750 C 753.61 -5.42526 3.12116 0
M  V30 7751 H 753.843 -2.10504 2.09942 0
M  V30 7752 H 751.376 -1.00612 1.17118 0
M  V30 7753 H 753.334 -4.06706 0.556809 0
M  V30 7754 H 751.995 -3.13739 -0.150519 0
M  V30 7755 H 751.188 -4.79192 1.56177 0
M  V30 7756 H 750.79 -3.12825 2.0498 0
M  V30 7757 H 753.082 -6.24792 2.61996 0
M  V30 7758 H 754.025 -5.79148 4.07422 0
M  V30 7759 H 754.433 -5.06556 2.49121 0
M  V30 7760 N 753.831 -1.1567 -1.07043 0
M  V30 7761 C 754.741 -0.870435 -2.17855 0
M  V30 7762 C 755.757 0.154452 -1.73313 0
M  V30 7763 O 756.933 -0.0203759 -2.0139 0
M  V30 7764 C 753.998 -0.367219 -3.4475 0
M  V30 7765 C 753.059 -1.45639 -4.03841 0
M  V30 7766 C 752.292 -0.977092 -5.2468 0
M  V30 7767 O 752.515 0.176127 -5.70128 0
M  V30 7768 O 751.449 -1.76215 -5.75527 0
M  V30 7769 H 755.275 -1.79687 -2.44839 0
M  V30 7770 H 752.86 -0.936064 -1.1644 0
M  V30 7771 H 754.742 -0.0931947 -4.21297 0
M  V30 7772 H 753.417 0.53131 -3.1931 0
M  V30 7773 H 752.324 -1.78406 -3.28819 0
M  V30 7774 H 753.657 -2.32995 -4.3356 0
M  V30 7775 N 755.309 1.25446 -0.953992 0
M  V30 7776 C 756.555 1.9343 -0.60933 0
M  V30 7777 C 756.888 1.74542 0.851388 0
M  V30 7778 O 756.163 1.09014 1.61078 0
M  V30 7779 C 756.446 3.46844 -0.968041 0
M  V30 7780 C 756.299 3.74961 -2.48444 0
M  V30 7781 C 757.618 4.37334 -0.492641 0
M  V30 7782 H 754.737 0.702502 -0.222844 0
M  V30 7783 H 757.379 1.48076 -1.19053 0
M  V30 7784 H 755.529 3.85604 -0.473465 0
M  V30 7785 H 757.201 3.45841 -3.05273 0
M  V30 7786 H 755.444 3.20589 -2.92241 0
M  V30 7787 H 756.115 4.82246 -2.68594 0
M  V30 7788 H 758.591 4.05873 -0.916878 0
M  V30 7789 H 757.467 5.43439 -0.772331 0
M  V30 7790 H 757.728 4.37908 0.607403 0
M  V30 7791 N 756.787 0.722489 1.40064 0
M  V30 7792 C 757.75 0.0830209 2.2905 0
M  V30 7793 C 758.75 -0.680208 1.45705 0
M  V30 7794 O 759.94 -0.511084 1.66534 0
M  V30 7795 C 757.072 -0.892092 3.29021 0
M  V30 7796 H 758.265 0.866848 2.87099 0
M  V30 7797 H 755.818 0.487556 1.48501 0
M  V30 7798 H 756.553 -1.70273 2.76003 0
M  V30 7799 H 756.338 -0.34761 3.90556 0
M  V30 7800 H 757.828 -1.33648 3.95636 0
M  V30 7801 N 758.265 -1.50454 0.469181 0
M  V30 7802 C 759.676 -1.86695 0.0136034 0
M  V30 7803 C 760.027 -1.38413 -1.39055 0
M  V30 7804 O 759.152 -0.748294 -2.03051 0
M  V30 7805 C 759.747 -3.38795 0.0179098 0
M  V30 7806 C 758.306 -3.74455 -0.382191 0
M  V30 7807 C 757.453 -2.74338 0.404207 0
M  V30 7808 H 760.404 -1.43225 0.683547 0
M  V30 7809 H 760.425 -3.72321 -0.78468 0
M  V30 7810 H 759.937 -3.73906 1.04 0
M  V30 7811 H 758.038 -3.44944 -1.4087 0
M  V30 7812 H 758.151 -4.79025 -0.084862 0
M  V30 7813 H 756.515 -2.54305 -0.141829 0
M  V30 7814 H 757.298 -3.12293 1.42577 0
M  V30 7815 N 759.743 -0.201713 -1.56304 0
M  V30 7816 C 760.968 0.443815 -2.02596 0
M  V30 7817 C 761.393 1.53945 -1.08086 0
M  V30 7818 O 760.751 1.81182 -0.0655056 0
M  V30 7819 C 760.799 0.971066 -3.47279 0
M  V30 7820 O 759.903 2.0836 -3.55893 0
M  V30 7821 H 759.244 0.10294 -0.655972 0
M  V30 7822 H 761.774 -0.314533 -2.02168 0
M  V30 7823 H 761.784 1.28598 -3.87204 0
M  V30 7824 H 760.459 0.169048 -4.15556 0
M  V30 7825 H 759.036 1.77683 -3.27846 0
M  V30 7826 N 761.222 1.57436 0.0718424 0
M  V30 7827 C 762.469 1.87248 0.771007 0
M  V30 7828 C 762.797 0.793441 1.7758 0
M  V30 7829 O 762.052 -0.210565 1.94564 0
M  V30 7830 C 762.351 3.23723 1.51455 0
M  V30 7831 C 762.017 4.46194 0.649736 0
M  V30 7832 C 760.679 4.79438 0.411409 0
M  V30 7833 C 763.031 5.21176 0.05004 0
M  V30 7834 C 760.359 5.85077 -0.436096 0
M  V30 7835 C 762.711 6.27712 -0.784919 0
M  V30 7836 C 761.375 6.59457 -1.03312 0
M  V30 7837 H 760.645 0.685188 0.282132 0
M  V30 7838 H 763.292 1.91474 0.0317896 0
M  V30 7839 H 761.597 3.15287 2.32597 0
M  V30 7840 H 763.294 3.44023 2.06031 0
M  V30 7841 H 759.884 4.20175 0.84562 0
M  V30 7842 H 764.068 4.95806 0.221282 0
M  V30 7843 H 759.324 6.08071 -0.637136 0
M  V30 7844 H 763.498 6.84974 -1.25635 0
M  V30 7845 H 761.125 7.4114 -1.6916 0
M  V30 7846 N 762.7 -0.34323 1.53817 0
M  V30 7847 C 763.925 -1.1079 1.75329 0
M  V30 7848 C 764.35 -1.81571 0.491293 0
M  V30 7849 O 763.708 -1.72561 -0.556089 0
M  V30 7850 C 763.756 -2.09681 2.9337 0
M  V30 7851 O 762.86 -3.17207 2.63541 0
M  V30 7852 H 762.201 -0.320402 0.581583 0
M  V30 7853 H 764.731 -0.393525 2.0078 0
M  V30 7854 H 764.741 -2.52897 3.20168 0
M  V30 7855 H 763.416 -1.5756 3.84899 0
M  V30 7856 H 761.993 -2.78806 2.47632 0
M  V30 7857 N 764.178 -1.45556 -0.604258 0
M  V30 7858 C 765.403 -1.53509 -1.39462 0
M  V30 7859 C 765.828 -0.169638 -1.87333 0
M  V30 7860 O 765.186 0.846346 -1.60333 0
M  V30 7861 C 765.234 -2.52654 -2.5729 0
M  V30 7862 O 764.338 -2.04666 -3.5803 0
M  V30 7863 H 763.679 -0.517355 -0.416221 0
M  V30 7864 H 766.209 -1.90939 -0.735072 0
M  V30 7865 H 766.219 -2.71568 -3.04491 0
M  V30 7866 H 764.894 -3.51823 -2.21797 0
M  V30 7867 H 763.471 -1.95643 -3.17456 0
M  V30 7868 N 765.656 0.84705 -1.32902 0
M  V30 7869 C 766.902 1.60414 -1.24078 0
M  V30 7870 C 767.235 1.93217 0.195105 0
M  V30 7871 O 766.51 1.58001 1.13428 0
M  V30 7872 C 766.793 2.91951 -2.108 0
M  V30 7873 C 766.646 2.6588 -3.62805 0
M  V30 7874 C 767.965 3.93299 -1.97494 0
M  V30 7875 H 765.084 0.58206 -0.452079 0
M  V30 7876 H 767.726 0.977562 -1.62922 0
M  V30 7877 H 765.876 3.45425 -1.77802 0
M  V30 7878 H 767.548 2.18902 -4.06054 0
M  V30 7879 H 765.791 1.99716 -3.85092 0
M  V30 7880 H 766.462 3.59574 -4.1882 0
M  V30 7881 H 768.938 3.49105 -2.26417 0
M  V30 7882 H 767.814 4.8318 -2.60438 0
M  V30 7883 H 768.075 4.31887 -0.944782 0
M  V30 7884 N 767.134 1.16236 1.06428 0
M  V30 7885 C 768.064 0.890807 2.1584 0
M  V30 7886 C 769.045 -0.162333 1.69324 0
M  V30 7887 O 770.23 -0.0147191 1.94194 0
M  V30 7888 C 767.36 0.389615 3.45108 0
M  V30 7889 C 766.314 1.38051 4.05125 0
M  V30 7890 C 765.64 0.737773 5.29586 0
M  V30 7891 C 766.94 2.74965 4.44062 0
M  V30 7892 H 768.634 1.80577 2.38814 0
M  V30 7893 H 766.18 0.869657 1.14774 0
M  V30 7894 H 768.133 0.187127 4.20984 0
M  V30 7895 H 766.857 -0.560851 3.21748 0
M  V30 7896 H 765.516 1.56952 3.31303 0
M  V30 7897 H 765.164 -0.219135 5.02522 0
M  V30 7898 H 764.864 1.39914 5.70699 0
M  V30 7899 H 766.388 0.545275 6.0816 0
M  V30 7900 H 767.802 2.59855 5.11027 0
M  V30 7901 H 766.199 3.37563 4.96156 0
M  V30 7902 H 767.269 3.30321 3.54987 0
M  V30 7903 N 768.612 -1.24939 0.960631 0
M  V30 7904 C 769.559 -2.25658 0.484459 0
M  V30 7905 C 770.529 -1.59422 -0.466242 0
M  V30 7906 O 771.714 -1.87015 -0.378169 0
M  V30 7907 C 768.854 -3.44359 -0.225958 0
M  V30 7908 C 767.967 -4.25214 0.762682 0
M  V30 7909 C 767.102 -5.31192 0.0290931 0
M  V30 7910 C 766.141 -6.03739 1.00827 0
M  V30 7911 N 765.278 -7.01437 0.305155 0
M  V30 7912 H 770.118 -2.65758 1.34821 0
M  V30 7913 H 767.655 -1.30648 0.675983 0
M  V30 7914 H 769.613 -4.12035 -0.654472 0
M  V30 7915 H 768.243 -3.05118 -1.05371 0
M  V30 7916 H 767.295 -3.57144 1.30966 0
M  V30 7917 H 768.607 -4.75406 1.50964 0
M  V30 7918 H 767.761 -6.04971 -0.457763 0
M  V30 7919 H 766.5 -4.81889 -0.750614 0
M  V30 7920 H 765.505 -5.2877 1.50607 0
M  V30 7921 H 766.73 -6.55131 1.7883 0
M  V30 7922 H 764.676 -6.54415 -0.455704 0
M  V30 7923 H 764.593 -7.49475 0.991104 0
M  V30 7924 H 765.861 -7.79336 -0.159966 0
M  V30 7925 N 770.09 -0.729906 -1.39679 0
M  V30 7926 C 771.367 -0.202149 -1.94553 0
M  V30 7927 C 771.747 1.29507 -1.66707 0
M  V30 7928 O 771.095 2.05819 -0.992517 0
M  V30 7929 C 771.305 -0.530279 -3.44948 0
M  V30 7930 C 772.653 -0.476808 -4.21914 0
M  V30 7931 O 773.677 -0.467171 -3.53123 0
M  V30 7932 O 772.536 -0.466869 -5.44502 0
M  V30 7933 H 769.63 -0.0351644 -0.826252 0
M  V30 7934 H 772.176 -0.808417 -1.49207 0
M  V30 7935 H 770.948 -1.56526 -3.5863 0
M  V30 7936 H 770.571 0.10522 -3.97461 0
M  V30 7937 N 771.568 1.50203 -0.477153 0
M  V30 7938 C 772.808 2.04265 0.0744065 0
M  V30 7939 C 773.172 1.35082 1.36443 0
M  V30 7940 O 774.373 1.79732 1.99875 0
M  V30 7941 C 772.644 3.56539 0.247874 0
M  V30 7942 S 774.203 4.32219 0.757117 0
M  V30 7943 H 771.021 0.71088 0.0130891 0
M  V30 7944 H 773.623 1.8453 -0.645678 0
M  V30 7945 H 772.327 4.04443 -0.696709 0
M  V30 7946 H 771.858 3.80638 0.993896 0
M  V30 7947 H 773.873 4.52789 2.0297 0
M  V30 7948 N 773.046 0.209999 1.56195 0
M  V30 7949 C 774.009 -0.691232 2.18528 0
M  V30 7950 C 775.009 -1.13013 1.14388 0
M  V30 7951 O 776.199 -1.04081 1.39688 0
M  V30 7952 C 773.331 -1.94551 2.79934 0
M  V30 7953 H 774.524 -0.147953 2.99535 0
M  V30 7954 H 772.077 -0.0396243 1.5625 0
M  V30 7955 H 772.812 -2.53094 2.02766 0
M  V30 7956 H 772.597 -1.63938 3.56184 0
M  V30 7957 H 774.087 -2.58785 3.2775 0
M  V30 7958 N 774.524 -1.57472 -0.0634922 0
M  V30 7959 C 775.77 -1.87932 -0.762194 0
M  V30 7960 C 776.103 -0.803377 -1.76804 0
M  V30 7961 O 775.378 0.185468 -1.93614 0
M  V30 7962 C 775.661 -3.29053 -1.46275 0
M  V30 7963 C 775.514 -4.47309 -0.472755 0
M  V30 7964 C 776.833 -3.68537 -2.40558 0
M  V30 7965 H 773.952 -0.683521 -0.275624 0
M  V30 7966 H 776.594 -1.89983 -0.0252651 0
M  V30 7967 H 774.744 -3.27435 -2.0909 0
M  V30 7968 H 776.416 -4.61053 0.150828 0
M  V30 7969 H 774.659 -4.33286 0.211187 0
M  V30 7970 H 775.33 -5.42853 -1.00072 0
M  V30 7971 H 777.806 -3.71302 -1.87814 0
M  V30 7972 H 776.682 -4.68152 -2.86574 0
M  V30 7973 H 776.943 -2.98917 -3.25731 0
M  V30 7974 N 776.003 0.335068 -1.53997 0
M  V30 7975 C 777.252 1.07182 -1.70865 0
M  V30 7976 C 777.565 1.89541 -0.483078 0
M  V30 7977 O 778.771 2.66219 -0.532879 0
M  V30 7978 C 777.227 1.95497 -3.02174 0
M  V30 7979 C 776.835 1.18304 -4.32097 0
M  V30 7980 C 778.579 2.68978 -3.28407 0
M  V30 7981 C 776.486 2.05699 -5.54474 0
M  V30 7982 H 775.416 0.403857 -0.636722 0
M  V30 7983 H 778.067 0.33076 -1.80494 0
M  V30 7984 H 776.449 2.73456 -2.86423 0
M  V30 7985 H 777.623 0.451969 -4.58578 0
M  V30 7986 H 775.938 0.565556 -4.12541 0
M  V30 7987 H 778.535 3.34651 -4.17029 0
M  V30 7988 H 778.878 3.36 -2.45784 0
M  V30 7989 H 779.411 1.98087 -3.44973 0
M  V30 7990 H 776.15 1.43204 -6.39666 0
M  V30 7991 H 775.67 2.76572 -5.32229 0
M  V30 7992 H 777.349 2.64554 -5.90441 0
M  V30 7993 N 777.481 1.45874 0.596531 0
M  V30 7994 C 778.391 1.57947 1.73464 0
M  V30 7995 C 779.407 0.463461 1.67714 0
M  V30 7996 O 780.583 0.725685 1.87872 0
M  V30 7997 C 777.648 1.55348 3.09948 0
M  V30 7998 C 776.709 2.78074 3.27068 0
M  V30 7999 C 775.942 2.75589 4.57041 0
M  V30 8000 O 776.165 1.83545 5.40063 0
M  V30 8001 O 775.099 3.66945 4.77111 0
M  V30 8002 H 778.925 2.54169 1.66228 0
M  V30 8003 H 776.51 1.2851 0.76194 0
M  V30 8004 H 778.392 1.56545 3.91244 0
M  V30 8005 H 777.067 0.622811 3.17652 0
M  V30 8006 H 775.974 2.82435 2.45319 0
M  V30 8007 H 777.307 3.70303 3.24248 0
M  V30 8008 N 778.959 -0.83999 1.33349 0
M  V30 8009 C 780.207 -1.59202 1.24496 0
M  V30 8010 C 780.528 -1.94077 -0.189499 0
M  V30 8011 O 779.798 -1.60868 -1.11796 0
M  V30 8012 H 778.378 -0.590276 0.457802 0
M  V30 8013 H 781.04 -1.00394 1.67054 0
M  V30 8014 H 780.136 -2.52247 1.83788 0
M  V30 8015 N 780.437 -1.16799 -1.0581 0
M  V30 8016 C 781.369 -0.836774 -2.13379 0
M  V30 8017 C 782.382 0.158116 -1.6203 0
M  V30 8018 O 783.571 -0.0673211 -1.78373 0
M  V30 8019 C 780.671 -0.225959 -3.38146 0
M  V30 8020 C 779.844 -1.26217 -4.18794 0
M  V30 8021 C 778.903 -0.670257 -5.21914 0
M  V30 8022 O 777.929 -1.34042 -5.53192 0
M  V30 8023 N 779.131 0.540683 -5.77977 0
M  V30 8024 H 781.896 -1.76257 -2.42391 0
M  V30 8025 H 779.457 -1.06599 -1.21853 0
M  V30 8026 H 781.449 0.18317 -4.04285 0
M  V30 8027 H 780.019 0.603494 -3.06719 0
M  V30 8028 H 779.239 -1.84729 -3.48237 0
M  V30 8029 H 780.527 -1.9613 -4.69479 0
M  V30 8030 H 779.925 1.10322 -5.54838 0
M  V30 8031 H 778.482 0.891958 -6.45668 0
M  V30 8032 N 781.915 1.24427 -0.967243 0
M  V30 8033 C 783.192 1.87831 -0.545776 0
M  V30 8034 C 783.572 1.87126 0.977099 0
M  V30 8035 O 782.92 1.34357 1.84826 0
M  V30 8036 C 783.13 3.29967 -1.13679 0
M  V30 8037 C 784.478 4.06654 -1.22139 0
M  V30 8038 O 785.502 3.39136 -1.08926 0
M  V30 8039 O 784.361 5.27455 -1.43017 0
M  V30 8040 H 781.455 0.806745 -0.181912 0
M  V30 8041 H 784.001 1.32403 -1.06148 0
M  V30 8042 H 782.773 3.24977 -2.17958 0
M  V30 8043 H 782.396 3.92969 -0.605093 0
M  V30 8044 N 783.393 0.737304 1.3929 0
M  V30 8045 C 784.64 0.286257 2.00467 0
M  V30 8046 C 784.968 -1.1272 1.58507 0
M  V30 8047 O 784.223 -1.7832 0.806257 0
M  V30 8048 C 784.522 0.338438 3.55794 0
M  V30 8049 C 784.188 1.70524 4.17411 0
M  V30 8050 C 782.85 2.07934 4.33955 0
M  V30 8051 C 785.202 2.60256 4.51571 0
M  V30 8052 C 782.53 3.34578 4.81948 0
M  V30 8053 C 784.882 3.86275 5.00974 0
M  V30 8054 C 783.546 4.23774 5.15725 0
M  V30 8055 H 782.816 0.104749 0.733559 0
M  V30 8056 H 785.463 0.944598 1.66582 0
M  V30 8057 H 783.768 -0.403478 3.89717 0
M  V30 8058 H 785.465 -0.0287255 4.0099 0
M  V30 8059 H 782.055 1.40439 4.04938 0
M  V30 8060 H 786.239 2.32624 4.38406 0
M  V30 8061 H 781.495 3.63572 4.91554 0
M  V30 8062 H 785.669 4.5596 5.26378 0
M  V30 8063 H 783.296 5.21972 5.52674 0
M  V30 8064 N 784.871 -1.49948 0.485112 0
M  V30 8065 C 786.117 -2.02695 -0.0651022 0
M  V30 8066 C 786.45 -1.36534 -1.38102 0
M  V30 8067 O 785.725 -0.495677 -1.88078 0
M  V30 8068 C 786.008 -3.59337 -0.234285 0
M  V30 8069 C 785.861 -4.3605 1.10364 0
M  V30 8070 C 787.18 -4.28996 -0.982351 0
M  V30 8071 H 784.299 -0.736666 -0.0221856 0
M  V30 8072 H 786.941 -1.7913 0.633433 0
M  V30 8073 H 785.091 -3.79546 -0.829262 0
M  V30 8074 H 786.763 -4.27377 1.73627 0
M  V30 8075 H 785.006 -3.99236 1.69686 0
M  V30 8076 H 785.677 -5.43959 0.938743 0
M  V30 8077 H 788.153 -4.13346 -0.477904 0
M  V30 8078 H 787.029 -5.38379 -1.06955 0
M  V30 8079 H 787.29 -3.93135 -2.02231 0
M  V30 8080 N 786.349 -0.21828 -1.56081 0
M  V30 8081 C 787.279 0.687922 -2.23136 0
M  V30 8082 C 788.26 1.20357 -1.202 0
M  V30 8083 O 789.445 1.24817 -1.48776 0
M  V30 8084 C 786.575 1.89762 -2.90874 0
M  V30 8085 C 785.529 1.51595 -4.00254 0
M  V30 8086 C 784.855 2.80415 -4.55271 0
M  V30 8087 C 786.155 0.708404 -5.17474 0
M  V30 8088 H 787.849 0.128854 -2.99123 0
M  V30 8089 H 785.395 0.0605354 -1.43873 0
M  V30 8090 H 787.348 2.53699 -3.36474 0
M  V30 8091 H 786.072 2.4816 -2.1233 0
M  V30 8092 H 784.731 0.900058 -3.55379 0
M  V30 8093 H 784.379 3.36951 -3.73461 0
M  V30 8094 H 784.079 2.55613 -5.2909 0
M  V30 8095 H 785.603 3.453 -5.03587 0
M  V30 8096 H 787.017 1.2514 -5.59476 0
M  V30 8097 H 785.414 0.557593 -5.97504 0
M  V30 8098 H 786.484 -0.285679 -4.84058 0
M  V30 8099 N 787.827 1.57504 0.0551401 0
M  V30 8100 C 788.759 2.0158 1.09078 0
M  V30 8101 C 789.772 0.92434 1.34014 0
M  V30 8102 O 790.961 1.20202 1.31961 0
M  V30 8103 C 788.061 2.35385 2.43818 0
M  V30 8104 C 787.234 3.66588 2.38605 0
M  V30 8105 C 786.293 3.87874 3.55585 0
M  V30 8106 O 785.319 4.59259 3.36258 0
M  V30 8107 N 786.521 3.31503 4.76536 0
M  V30 8108 H 789.286 2.91039 0.71529 0
M  V30 8109 H 786.847 1.60058 0.243532 0
M  V30 8110 H 788.839 2.46784 3.20749 0
M  V30 8111 H 787.409 1.51731 2.73307 0
M  V30 8112 H 786.629 3.65787 1.46947 0
M  V30 8113 H 787.917 4.52706 2.32239 0
M  V30 8114 H 787.315 2.73592 4.9514 0
M  V30 8115 H 785.872 3.48324 5.50921 0
M  V30 8116 N 789.305 -0.326896 1.54172 0
M  V30 8117 C 790.545 -1.07349 1.73941 0
M  V30 8118 C 790.909 -1.85355 0.50075 0
M  V30 8119 O 792.11 -2.62562 0.575731 0
M  V30 8120 C 790.381 -1.97636 2.97783 0
M  V30 8121 S 791.94 -2.79292 3.3844 0
M  V30 8122 H 788.758 -0.362459 0.611673 0
M  V30 8123 H 791.36 -0.349884 1.92344 0
M  V30 8124 H 790.064 -1.39158 3.86087 0
M  V30 8125 H 789.595 -2.74406 2.81895 0
M  V30 8126 H 791.61 -4.00106 2.93478 0
M  V30 8127 N 790.784 -1.46188 -0.588786 0
M  V30 8128 C 792.009 -1.5498 -1.37826 0
M  V30 8129 C 792.434 -0.189498 -1.87143 0
M  V30 8130 O 791.792 0.829293 -1.61222 0
M  V30 8131 C 791.84 -2.55369 -2.54596 0
M  V30 8132 O 790.944 -2.08452 -3.55839 0
M  V30 8133 H 790.285 -0.521741 -0.41071 0
M  V30 8134 H 792.815 -1.91708 -0.714779 0
M  V30 8135 H 792.825 -2.74782 -3.01594 0
M  V30 8136 H 791.5 -3.54155 -2.18052 0
M  V30 8137 H 790.077 -1.98999 -3.15363 0
M  V30 8138 N 792.262 0.832906 -1.33792 0
M  V30 8139 C 793.508 1.59089 -1.25772 0
M  V30 8140 C 793.841 1.93414 0.174601 0
M  V30 8141 O 793.116 1.59195 1.11746 0
M  V30 8142 C 793.399 2.89699 -2.13885 0
M  V30 8143 C 793.252 2.62017 -3.65605 0
M  V30 8144 C 794.571 3.91182 -2.01654 0
M  V30 8145 H 791.69 0.577232 -0.458227 0
M  V30 8146 H 794.332 0.960227 -1.6395 0
M  V30 8147 H 792.482 3.4352 -1.81456 0
M  V30 8148 H 794.154 2.14582 -4.08353 0
M  V30 8149 H 792.397 1.95621 -3.87189 0
M  V30 8150 H 793.068 3.55112 -4.2261 0
M  V30 8151 H 795.544 3.46684 -2.30107 0
M  V30 8152 H 794.42 4.80391 -2.65548 0
M  V30 8153 H 794.681 4.30861 -0.990536 0
M  V30 8154 N 793.74 1.17359 1.05189 0
M  V30 8155 C 795.156 0.920861 1.30355 0
M  V30 8156 C 795.356 -0.419993 1.97074 0
M  V30 8157 O 794.412 -1.15696 2.24434 0
M  V30 8158 C 795.725 2.07818 2.1733 0
M  V30 8159 C 797.273 2.1152 2.30712 0
M  V30 8160 C 797.748 3.26637 3.21048 0
M  V30 8161 N 799.239 3.26426 3.28634 0
M  V30 8162 C 799.974 4.12141 3.98657 0
M  V30 8163 N 799.47 5.07966 4.71107 0
M  V30 8164 N 801.263 4.00091 3.94821 0
M  V30 8165 H 793.414 2.03666 0.602821 0
M  V30 8166 H 795.677 0.889294 0.328421 0
M  V30 8167 H 795.383 3.04727 1.75597 0
M  V30 8168 H 795.257 2.02922 3.17966 0
M  V30 8169 H 797.644 1.15196 2.71687 0
M  V30 8170 H 797.725 2.20477 1.29706 0
M  V30 8171 H 797.369 4.23227 2.80788 0
M  V30 8172 H 797.299 3.14917 4.2206 0
M  V30 8173 H 799.79 2.57045 2.77013 0
M  V30 8174 H 800.103 5.69766 5.22099 0
M  V30 8175 H 798.448 5.11936 4.7005 0
M  V30 8176 H 801.639 3.24523 3.37346 0
M  V30 8177 H 801.812 4.6711 4.49123 0
M  V30 8178 N 795.218 -1.23913 0.973828 0
M  V30 8179 C 796.466 -1.91771 0.637817 0
M  V30 8180 C 796.787 -1.76434 -0.830435 0
M  V30 8181 O 796.057 -1.13965 -1.59339 0
M  V30 8182 H 794.637 -0.709761 0.232912 0
M  V30 8183 H 797.299 -1.50677 1.23622 0
M  V30 8184 H 796.395 -2.99327 0.883731 0
M  V30 8185 N 796.696 -0.74468 -1.38897 0
M  V30 8186 C 797.924 -0.307428 -2.04603 0
M  V30 8187 C 798.339 1.06115 -1.56157 0
M  V30 8188 O 797.696 1.67233 -0.730701 0
M  V30 8189 C 797.747 -0.31101 -3.6016 0
M  V30 8190 O 797.468 -1.62557 -4.06825 0
M  V30 8191 C 798.969 0.141213 -4.43075 0
M  V30 8192 H 796.189 -0.132741 -0.657739 0
M  V30 8193 H 798.733 -1.01104 -1.77759 0
M  V30 8194 H 796.888 0.343792 -3.85872 0
M  V30 8195 H 797.302 -1.54569 -5.01207 0
M  V30 8196 H 798.776 0.0875449 -5.51931 0
M  V30 8197 H 799.253 1.18782 -4.22833 0
M  V30 8198 H 799.859 -0.484383 -4.22533 0
M  V30 8199 N 798.174 1.49689 -0.493057 0
M  V30 8200 C 799.585 1.8665 -0.0433032 0
M  V30 8201 C 799.936 1.40607 1.36836 0
M  V30 8202 O 799.061 0.780503 2.01834 0
M  V30 8203 C 799.656 3.38724 -0.0718069 0
M  V30 8204 C 798.215 3.75015 0.32257 0
M  V30 8205 C 797.362 2.7366 -0.4478 0
M  V30 8206 H 800.313 1.42119 -0.706246 0
M  V30 8207 H 800.334 3.73522 0.725347 0
M  V30 8208 H 799.846 3.72204 -1.09935 0
M  V30 8209 H 797.947 3.47142 1.35364 0
M  V30 8210 H 798.06 4.79099 0.00864259 0
M  V30 8211 H 796.424 2.54498 0.101354 0
M  V30 8212 H 797.207 3.09985 -1.47527 0
M  V30 8213 N 799.652 0.226554 1.55963 0
M  V30 8214 C 800.898 -0.404387 1.98727 0
M  V30 8215 C 801.231 -1.59059 1.11418 0
M  V30 8216 O 800.506 -1.93729 0.172971 0
M  V30 8217 C 800.789 -0.834081 3.50307 0
M  V30 8218 C 800.642 0.356104 4.48388 0
M  V30 8219 C 801.961 -1.68845 4.06423 0
M  V30 8220 H 799.08 -0.145515 0.722492 0
M  V30 8221 H 801.722 0.323791 1.87221 0
M  V30 8222 H 799.872 -1.45454 3.60244 0
M  V30 8223 H 801.544 0.99432 4.50456 0
M  V30 8224 H 799.787 1.0027 4.22053 0
M  V30 8225 H 800.458 0.0124333 5.51999 0
M  V30 8226 H 802.934 -1.16489 3.99461 0
M  V30 8227 H 801.81 -1.958 5.1279 0
M  V30 8228 H 802.071 -2.65347 3.53615 0
M  V30 8229 N 801.13 -1.57531 -0.0467866 0
M  V30 8230 C 802.541 -1.76945 -0.595603 0
M  V30 8231 C 802.892 -0.855354 -1.76573 0
M  V30 8232 O 802.017 -0.045668 -2.16352 0
M  V30 8233 C 802.612 -3.20881 -1.08725 0
M  V30 8234 C 801.171 -3.41553 -1.58172 0
M  V30 8235 C 800.318 -2.72533 -0.511968 0
M  V30 8236 H 803.269 -1.57682 0.179436 0
M  V30 8237 H 803.29 -3.26419 -1.95528 0
M  V30 8238 H 802.802 -3.87385 -0.235398 0
M  V30 8239 H 800.903 -2.80199 -2.456 0
M  V30 8240 H 801.016 -4.50104 -1.64143 0
M  V30 8241 H 799.38 -2.35797 -0.962899 0
M  V30 8242 H 800.163 -3.41709 0.330117 0
M  V30 8243 N 802.608 0.318715 -1.54344 0
M  V30 8244 C 804.024 0.663345 -1.45162 0
M  V30 8245 C 804.224 1.9145 -0.62842 0
M  V30 8246 O 803.28 2.5217 -0.129126 0
M  V30 8247 C 804.593 0.832836 -2.88937 0
M  V30 8248 C 806.141 0.929866 -2.98869 0
M  V30 8249 C 806.616 1.13149 -4.43803 0
M  V30 8250 N 808.107 1.19811 -4.47437 0
M  V30 8251 C 808.842 1.37209 -5.56742 0
M  V30 8252 N 808.338 1.51619 -6.76006 0
M  V30 8253 N 810.131 1.39956 -5.44398 0
M  V30 8254 H 802.282 -0.50357 -2.06344 0
M  V30 8255 H 804.545 -0.163528 -0.933789 0
M  V30 8256 H 804.251 -0.0153519 -3.51697 0
M  V30 8257 H 804.125 1.72721 -3.35332 0
M  V30 8258 H 806.512 1.76855 -2.36233 0
M  V30 8259 H 806.593 0.0118561 -2.55797 0
M  V30 8260 H 806.237 0.297636 -5.07027 0
M  V30 8261 H 806.167 2.06345 -4.84489 0
M  V30 8262 H 808.658 1.101 -3.61506 0
M  V30 8263 H 808.971 1.64599 -7.55067 0
M  V30 8264 H 807.316 1.48708 -6.78904 0
M  V30 8265 H 810.507 1.28298 -4.50175 0
M  V30 8266 H 810.68 1.53172 -6.29637 0
M  V30 8267 N 804.086 1.46499 0.581025 0
M  V30 8268 C 805.335 1.51162 1.3354 0
M  V30 8269 C 805.648 0.168433 1.94873 0
M  V30 8270 O 806.854 0.092883 2.71341 0
M  V30 8271 C 805.31 2.66362 2.42032 0
M  V30 8272 C 804.918 4.07109 1.86994 0
M  V30 8273 C 806.662 2.80297 3.188 0
M  V30 8274 C 804.569 5.13645 2.93125 0
M  V30 8275 H 803.499 0.562576 0.502021 0
M  V30 8276 H 806.15 1.72713 0.619863 0
M  V30 8277 H 804.532 2.38143 3.16392 0
M  V30 8278 H 805.706 4.45125 1.19166 0
M  V30 8279 H 804.021 3.97854 1.22887 0
M  V30 8280 H 806.618 3.5706 3.9801 0
M  V30 8281 H 806.961 1.87875 3.71495 0
M  V30 8282 H 807.494 3.0817 2.51547 0
M  V30 8283 H 804.233 6.07866 2.45315 0
M  V30 8284 H 803.753 4.80172 3.59437 0
M  V30 8285 H 805.432 5.39562 3.57046 0
M  V30 8286 N 805.565 -0.825799 1.34232 0
M  V30 8287 C 806.793 -1.61363 1.29497 0
M  V30 8288 C 807.208 -1.88341 -0.131536 0
M  V30 8289 O 806.565 -1.47279 -1.07773 0
M  V30 8290 C 806.616 -2.95623 2.08061 0
M  V30 8291 O 806.337 -2.69824 3.45147 0
M  V30 8292 C 807.838 -3.90032 2.10688 0
M  V30 8293 H 805.058 -0.501676 0.445603 0
M  V30 8294 H 807.602 -1.02767 1.76803 0
M  V30 8295 H 805.757 -3.50785 1.64404 0
M  V30 8296 H 806.171 -3.55412 3.85723 0
M  V30 8297 H 807.645 -4.81411 2.70087 0
M  V30 8298 H 808.122 -4.25188 1.10052 0
M  V30 8299 H 808.728 -3.40807 2.54422 0
M  V30 8300 N 807.043 -1.17915 -1.04565 0
M  V30 8301 C 808.289 -0.982872 -1.78076 0
M  V30 8302 C 808.644 0.482843 -1.86243 0
M  V30 8303 O 807.937 1.35383 -1.3558 0
M  V30 8304 C 808.131 -1.56528 -3.213 0
M  V30 8305 C 807.96 -3.0861 -3.27093 0
M  V30 8306 C 806.73 -3.77389 -3.36014 0
M  V30 8307 C 808.928 -4.06146 -3.15515 0
M  V30 8308 N 806.91 -5.1702 -3.31004 0
M  V30 8309 C 808.281 -5.32268 -3.17948 0
M  V30 8310 C 810.336 -3.97732 -2.99522 0
M  V30 8311 C 809.039 -6.50951 -3.06031 0
M  V30 8312 C 811.065 -5.16007 -2.88948 0
M  V30 8313 C 810.427 -6.41018 -2.9202 0
M  V30 8314 H 806.526 -0.413617 -0.66366 0
M  V30 8315 H 809.11 -1.49607 -1.24603 0
M  V30 8316 H 807.281 -1.07833 -3.73131 0
M  V30 8317 H 809.013 -1.30501 -3.83082 0
M  V30 8318 H 805.768 -3.28098 -3.41538 0
M  V30 8319 H 806.192 -5.90031 -3.31952 0
M  V30 8320 H 810.834 -3.01919 -2.95981 0
M  V30 8321 H 808.552 -7.46968 -3.08326 0
M  V30 8322 H 812.138 -5.11283 -2.77635 0
M  V30 8323 H 811.018 -7.30999 -2.83919 0
M  V30 8324 N 808.521 1.23394 -0.980386 0
M  V30 8325 C 809.451 2.2717 -0.540024 0
M  V30 8326 C 810.432 1.64659 0.426787 0
M  V30 8327 O 811.617 1.91543 0.320153 0
M  V30 8328 C 808.747 3.46939 0.15836 0
M  V30 8329 C 807.701 4.21802 -0.725732 0
M  V30 8330 C 807.027 5.34597 0.104866 0
M  V30 8331 C 808.327 4.81802 -2.01654 0
M  V30 8332 H 810.021 2.64257 -1.40743 0
M  V30 8333 H 807.567 1.2703 -0.678193 0
M  V30 8334 H 809.52 4.18683 0.477737 0
M  V30 8335 H 808.244 3.08912 1.06022 0
M  V30 8336 H 806.903 3.51875 -1.02857 0
M  V30 8337 H 806.551 4.92812 1.00726 0
M  V30 8338 H 806.251 5.85607 -0.483557 0
M  V30 8339 H 807.775 6.09163 0.418624 0
M  V30 8340 H 809.189 5.45554 -1.76193 0
M  V30 8341 H 807.586 5.43098 -2.55273 0
M  V30 8342 H 808.656 4.02549 -2.70338 0
M  V30 8343 N 809.999 0.752036 1.385 0
M  V30 8344 C 810.929 0.138718 2.33088 0
M  V30 8345 C 811.91 -0.705318 1.54788 0
M  V30 8346 O 813.095 -0.646821 1.83112 0
M  V30 8347 C 810.225 -0.75641 3.38963 0
M  V30 8348 C 809.179 -0.0152239 4.27997 0
M  V30 8349 C 808.505 -1.0285 5.24715 0
M  V30 8350 C 809.805 1.15226 5.09431 0
M  V30 8351 H 811.499 0.928852 2.84627 0
M  V30 8352 H 809.045 0.448111 1.3685 0
M  V30 8353 H 810.998 -1.19513 4.04097 0
M  V30 8354 H 809.722 -1.57885 2.85902 0
M  V30 8355 H 808.381 0.404061 3.64366 0
M  V30 8356 H 808.029 -1.84496 4.67943 0
M  V30 8357 H 807.729 -0.537238 5.85139 0
M  V30 8358 H 809.253 -1.46657 5.92726 0
M  V30 8359 H 810.667 0.791161 5.67815 0
M  V30 8360 H 809.064 1.57428 5.79082 0
M  V30 8361 H 810.134 1.9659 4.43261 0
M  V30 8362 N 811.477 -1.49425 0.500989 0
M  V30 8363 C 812.425 -2.30771 -0.291149 0
M  V30 8364 C 813.419 -1.3938 -0.962787 0
M  V30 8365 O 814.625 -1.56431 -0.890477 0
M  V30 8366 H 811 -0.743499 -0.11275 0
M  V30 8367 H 812.971 -2.95501 0.414917 0
M  V30 8368 C 811.72 -3.20725 -1.34279 0
M  V30 8369 H 811.043 -3.90975 -0.83538 0
M  V30 8370 H 812.483 -3.80583 -1.86903 0
M  V30 8371 C 810.942 -2.40334 -2.36095 0
M  V30 8372 O 811.472 -2.10749 -3.41976 0
M  V30 8373 N 809.678 -2.02359 -2.08565 0
M  V30 8374 H 809.225 -2.26619 -1.22482 0
M  V30 8375 H 809.183 -1.48878 -2.76916 0
M  V30 8376 N 812.955 -0.234822 -1.55841 0
M  V30 8377 C 814.203 0.392483 -1.98252 0
M  V30 8378 C 814.524 1.59344 -1.12404 0
M  V30 8379 O 813.794 1.94834 -0.204055 0
M  V30 8380 H 812.374 0.147999 -0.732192 0
M  V30 8381 H 815.036 -0.330804 -1.92072 0
M  V30 8382 H 814.132 0.709829 -3.03921 0
M  V30 8383 N 814.433 1.57553 0.0384317 0
M  V30 8384 C 815.365 2.02726 1.06934 0
M  V30 8385 C 816.378 0.938502 1.33026 0
M  V30 8386 O 817.567 1.21595 1.30678 0
M  V30 8387 C 814.667 2.37958 2.41308 0
M  V30 8388 C 813.84 3.69098 2.34703 0
M  V30 8389 C 812.899 3.91623 3.51451 0
M  V30 8390 O 811.925 4.628 3.31368 0
M  V30 8391 N 813.127 3.36538 4.72993 0
M  V30 8392 H 815.892 2.91781 0.684381 0
M  V30 8393 H 813.453 1.60307 0.226542 0
M  V30 8394 H 815.445 2.50172 3.18113 0
M  V30 8395 H 814.015 1.54621 2.71682 0
M  V30 8396 H 813.235 3.67325 1.43059 0
M  V30 8397 H 814.523 4.55144 2.27424 0
M  V30 8398 H 813.921 2.78828 4.92211 0
M  V30 8399 H 812.478 3.54148 5.47195 0
M  V30 8400 N 815.911 -0.310526 1.54511 0
M  V30 8401 C 817.322 -0.884142 1.64438 0
M  V30 8402 C 817.673 -1.88425 0.546855 0
M  V30 8403 O 816.798 -2.14049 -0.31811 0
M  V30 8404 C 817.393 -1.6104 2.9808 0
M  V30 8405 C 815.952 -2.13255 3.1016 0
M  V30 8406 C 815.099 -0.96213 2.60074 0
M  V30 8407 H 818.05 -0.0877666 1.58457 0
M  V30 8408 H 818.071 -2.47541 2.8897 0
M  V30 8409 H 817.583 -0.882255 3.77939 0
M  V30 8410 H 815.684 -2.89145 2.35002 0
M  V30 8411 H 815.797 -2.37361 4.16169 0
M  V30 8412 H 814.161 -1.34501 2.16291 0
M  V30 8413 H 814.944 -0.248098 3.42402 0
M  V30 8414 N 817.389 -1.46805 -0.573248 0
M  V30 8415 C 818.638 -1.51868 -1.32736 0
M  V30 8416 C 818.951 -0.178765 -1.94781 0
M  V30 8417 O 820.157 -0.107272 -2.71288 0
M  V30 8418 C 818.613 -2.67641 -2.40616 0
M  V30 8419 C 818.221 -4.08094 -1.84832 0
M  V30 8420 C 819.965 -2.81984 -3.17309 0
M  V30 8421 C 817.872 -5.15193 -2.90397 0
M  V30 8422 H 816.802 -0.56523 -0.49903 0
M  V30 8423 H 819.453 -1.7304 -0.610695 0
M  V30 8424 H 817.835 -2.39818 -3.15124 0
M  V30 8425 H 819.009 -4.45751 -1.16803 0
M  V30 8426 H 817.324 -3.985 -1.20775 0
M  V30 8427 H 819.921 -3.59166 -3.96111 0
M  V30 8428 H 820.264 -1.89842 -3.70494 0
M  V30 8429 H 820.797 -3.095 -2.4991 0
M  V30 8430 H 817.536 -6.09158 -2.42088 0
M  V30 8431 H 817.056 -4.82071 -3.56886 0
M  V30 8432 H 818.735 -5.41448 -3.54179 0
M  V30 8433 N 818.867 0.818669 -1.34668 0
M  V30 8434 C 819.799 1.93754 -1.22442 0
M  V30 8435 C 820.812 1.62103 -0.150501 0
M  V30 8436 O 822.001 1.73898 -0.402728 0
M  V30 8437 C 819.101 3.27806 -0.860031 0
M  V30 8438 C 818.274 3.8745 -2.02981 0
M  V30 8439 C 817.333 4.99887 -1.64314 0
M  V30 8440 O 816.359 5.17957 -2.36029 0
M  V30 8441 N 817.561 5.77795 -0.55976 0
M  V30 8442 H 820.326 2.04773 -2.18833 0
M  V30 8443 H 817.887 0.995472 -1.27679 0
M  V30 8444 H 819.879 4.00478 -0.583068 0
M  V30 8445 H 818.449 3.12597 0.0138253 0
M  V30 8446 H 817.669 3.07119 -2.47127 0
M  V30 8447 H 818.957 4.2403 -2.81204 0
M  V30 8448 H 818.355 5.65688 0.0363329 0
M  V30 8449 H 816.912 6.50899 -0.342541 0
M  V30 8450 N 820.346 1.18468 1.03938 0
M  V30 8451 C 821.576 1.0043 1.80547 0
M  V30 8452 C 821.984 -0.450407 1.83761 0
M  V30 8453 O 821.327 -1.32463 1.27276 0
M  V30 8454 C 821.389 1.48437 3.27424 0
M  V30 8455 C 821.053 2.96372 3.47869 0
M  V30 8456 C 822.05 3.94217 3.38953 0
M  V30 8457 C 819.735 3.34831 3.74424 0
M  V30 8458 C 821.729 5.28517 3.56298 0
M  V30 8459 C 819.416 4.69294 3.91416 0
M  V30 8460 C 820.414 5.65946 3.82354 0
M  V30 8461 O 820.102 6.97974 3.98858 0
M  V30 8462 H 819.834 0.354853 0.575374 0
M  V30 8463 H 822.388 1.57473 1.31876 0
M  V30 8464 H 820.618 0.857601 3.7707 0
M  V30 8465 H 822.307 1.2677 3.85596 0
M  V30 8466 H 823.073 3.6585 3.184 0
M  V30 8467 H 818.952 2.60161 3.80575 0
M  V30 8468 H 822.496 6.03943 3.49141 0
M  V30 8469 H 818.393 4.97361 4.11463 0
M  V30 8470 H 819.161 7.04895 4.1601 0
M  V30 8471 N 821.824 -1.22873 0.986916 0
M  V30 8472 C 822.787 -2.2281 0.537442 0
M  V30 8473 C 823.787 -1.56331 -0.37646 0
M  V30 8474 O 824.977 -1.73376 -0.169247 0
M  V30 8475 C 822.109 -3.40195 -0.219082 0
M  V30 8476 H 823.302 -2.64089 1.42116 0
M  V30 8477 H 820.855 -1.35819 0.773488 0
M  V30 8478 H 821.59 -3.04381 -1.11905 0
M  V30 8479 H 821.375 -3.89657 0.437026 0
M  V30 8480 H 822.865 -4.14326 -0.521926 0
M  V30 8481 N 823.302 -0.75937 -1.38099 0
M  V30 8482 C 824.718 -0.437606 -1.53483 0
M  V30 8483 C 824.918 1.04849 -1.72072 0
M  V30 8484 O 823.974 1.83448 -1.73502 0
M  V30 8485 C 825.287 -1.24189 -2.73857 0
M  V30 8486 C 826.835 -1.23255 -2.8771 0
M  V30 8487 C 827.31 -2.01992 -4.11051 0
M  V30 8488 N 828.801 -1.99282 -4.1814 0
M  V30 8489 C 829.536 -2.56996 -5.12583 0
M  V30 8490 N 829.032 -3.23446 -6.12662 0
M  V30 8491 N 830.825 -2.46894 -5.04975 0
M  V30 8492 H 822.976 -1.72242 -1.24283 0
M  V30 8493 H 825.239 -0.730507 -0.604205 0
M  V30 8494 H 824.945 -2.29449 -2.66545 0
M  V30 8495 H 824.819 -0.862672 -3.67203 0
M  V30 8496 H 827.206 -0.187988 -2.94501 0
M  V30 8497 H 827.287 -1.65132 -1.95359 0
M  V30 8498 H 826.931 -3.06462 -4.05023 0
M  V30 8499 H 826.861 -1.57505 -5.02494 0
M  V30 8500 H 829.352 -1.50893 -3.46467 0
M  V30 8501 H 829.665 -3.6489 -6.81231 0
M  V30 8502 H 828.01 -3.27543 -6.12977 0
M  V30 8503 H 831.201 -1.94604 -4.25731 0
M  V30 8504 H 831.374 -2.92168 -5.78396 0
M  V30 8505 N 824.78 1.49157 -0.508906 0
M  V30 8506 C 826.005 2.07376 0.0315182 0
M  V30 8507 C 826.43 1.36575 1.2934 0
M  V30 8508 O 825.788 0.424963 1.76249 0
M  V30 8509 C 825.836 3.59661 0.260118 0
M  V30 8510 O 824.94 3.90255 1.33322 0
M  V30 8511 H 824.281 0.663334 -0.029739 0
M  V30 8512 H 826.811 1.91857 -0.710791 0
M  V30 8513 H 826.821 4.05056 0.489225 0
M  V30 8514 H 825.496 4.10601 -0.661794 0
M  V30 8515 H 824.073 3.56661 1.08844 0
M  V30 8516 N 826.258 0.243083 1.55714 0
M  V30 8517 C 827.486 -0.386971 2.03249 0
M  V30 8518 C 827.901 -1.51812 1.12243 0
M  V30 8519 O 827.258 -1.81992 0.136119 0
M  V30 8520 C 827.309 -0.898361 3.5016 0
M  V30 8521 O 827.03 0.187708 4.37698 0
M  V30 8522 C 828.531 -1.59949 4.13438 0
M  V30 8523 H 825.751 -0.0923981 0.664608 0
M  V30 8524 H 828.295 0.365832 2.01201 0
M  V30 8525 H 826.45 -1.60136 3.52754 0
M  V30 8526 H 826.864 -0.200001 5.24119 0
M  V30 8527 H 828.338 -1.90907 5.17937 0
M  V30 8528 H 828.815 -2.52014 3.59702 0
M  V30 8529 H 829.421 -0.941163 4.14756 0
M  V30 8530 N 827.736 -1.57571 -0.0300757 0
M  V30 8531 C 828.976 -1.91074 -0.725946 0
M  V30 8532 C 829.34 -0.841545 -1.72575 0
M  V30 8533 O 830.541 -1.06088 -2.46979 0
M  V30 8534 C 828.812 -3.2973 -1.37888 0
M  V30 8535 S 830.371 -3.85065 -2.10405 0
M  V30 8536 H 827.189 -0.669084 -0.240515 0
M  V30 8537 H 829.791 -1.9549 0.019384 0
M  V30 8538 H 828.495 -4.05411 -0.637974 0
M  V30 8539 H 828.026 -3.28614 -2.16278 0
M  V30 8540 H 830.041 -3.63711 -3.37533 0
M  V30 8541 N 829.214 0.302327 -1.54673 0
M  V30 8542 C 830.124 1.39542 -1.88587 0
M  V30 8543 C 831.14 1.55543 -0.779895 0
M  V30 8544 O 832.316 1.70233 -1.07623 0
M  V30 8545 C 829.381 2.7394 -2.12504 0
M  V30 8546 C 828.442 2.66935 -3.3622 0
M  V30 8547 C 827.675 3.94923 -3.58987 0
M  V30 8548 O 827.898 4.94218 -2.84789 0
M  V30 8549 O 826.832 3.96896 -4.52501 0
M  V30 8550 H 830.658 1.13784 -2.81579 0
M  V30 8551 H 828.243 0.49827 -1.40846 0
M  V30 8552 H 830.125 3.5346 -2.29443 0
M  V30 8553 H 828.8 2.99544 -1.22698 0
M  V30 8554 H 827.707 1.85892 -3.24646 0
M  V30 8555 H 829.04 2.46283 -4.26152 0
M  V30 8556 N 830.692 1.47107 0.565454 0
M  V30 8557 C 831.655 1.58535 1.65527 0
M  V30 8558 C 832.655 0.461081 1.54048 0
M  V30 8559 O 833.845 0.725911 1.58355 0
M  V30 8560 C 830.977 1.52204 3.05036 0
M  V30 8561 H 832.17 2.55676 1.56747 0
M  V30 8562 H 829.723 1.35174 0.78471 0
M  V30 8563 H 830.458 0.564071 3.19357 0
M  V30 8564 H 830.243 2.3379 3.14777 0
M  V30 8565 H 831.733 1.63322 3.84338 0
M  V30 8566 N 832.17 -0.811516 1.35101 0
M  V30 8567 C 833.418 -1.56525 1.27845 0
M  V30 8568 C 833.739 -1.94435 -0.14829 0
M  V30 8569 O 833.009 -1.63203 -1.08359 0
M  V30 8570 H 831.589 -0.580433 0.47022 0
M  V30 8571 H 834.251 -0.968277 1.69146 0
M  V30 8572 H 833.347 -2.48291 1.89097 0
M  V30 8573 N 833.648 -1.19017 -1.03309 0
M  V30 8574 C 834.894 -0.991681 -1.769 0
M  V30 8575 C 835.227 0.476813 -1.88255 0
M  V30 8576 O 834.502 1.35407 -1.39625 0
M  V30 8577 C 834.785 -1.65627 -3.19749 0
M  V30 8578 C 834.638 -3.19813 -3.1629 0
M  V30 8579 C 835.957 -1.37579 -4.18043 0
M  V30 8580 H 833.076 -0.361674 -0.642153 0
M  V30 8581 H 835.718 -1.46795 -1.20628 0
M  V30 8582 H 833.868 -1.25132 -3.67796 0
M  V30 8583 H 835.54 -3.69494 -2.76174 0
M  V30 8584 H 833.783 -3.51578 -2.54117 0
M  V30 8585 H 834.454 -3.61457 -4.17196 0
M  V30 8586 H 836.93 -1.72679 -3.78578 0
M  V30 8587 H 835.806 -1.86636 -5.16196 0
M  V30 8588 H 836.067 -0.300118 -4.4108 0
M  V30 8589 N 835.127 1.22348 -0.993418 0
M  V30 8590 C 836.09 2.22522 -0.549251 0
M  V30 8591 C 837.09 1.56529 0.368164 0
M  V30 8592 O 838.28 1.73463 0.16005 0
M  V30 8593 C 835.412 3.40307 0.201037 0
M  V30 8594 H 836.605 2.63332 -1.43515 0
M  V30 8595 H 834.158 1.35407 -0.78068 0
M  V30 8596 H 834.893 3.0497 1.10289 0
M  V30 8597 H 834.678 3.8942 -0.457685 0
M  V30 8598 H 836.168 4.14597 0.499946 0
M  V30 8599 N 836.605 0.766683 1.37694 0
M  V30 8600 C 837.515 0.150158 2.34119 0
M  V30 8601 C 838.531 -0.685513 1.59927 0
M  V30 8602 O 839.707 -0.606616 1.92047 0
M  V30 8603 C 836.772 -0.722562 3.39087 0
M  V30 8604 C 835.833 0.128983 4.29106 0
M  V30 8605 C 835.066 -0.702178 5.29061 0
M  V30 8606 O 835.289 -1.93954 5.36412 0
M  V30 8607 O 834.223 -0.114056 6.01792 0
M  V30 8608 H 838.049 0.946829 2.88563 0
M  V30 8609 H 835.634 0.527765 1.39768 0
M  V30 8610 H 837.516 -1.22095 4.03325 0
M  V30 8611 H 836.191 -1.49751 2.86978 0
M  V30 8612 H 835.098 0.673612 3.67985 0
M  V30 8613 H 836.431 0.866892 4.84506 0
M  V30 8614 N 838.083 -1.48885 0.516809 0
M  V30 8615 C 839.013 -2.32241 -0.242157 0
M  V30 8616 C 839.994 -1.41258 -0.947633 0
M  V30 8617 O 841.179 -1.70156 -0.935973 0
M  V30 8618 C 838.309 -3.22151 -1.29754 0
M  V30 8619 C 837.263 -4.22053 -0.710995 0
M  V30 8620 C 836.589 -5.01007 -1.86806 0
M  V30 8621 C 837.889 -5.21388 0.30853 0
M  V30 8622 H 839.583 -2.95943 0.453651 0
M  V30 8623 H 837.129 -1.42316 0.219612 0
M  V30 8624 H 839.082 -3.79284 -1.83634 0
M  V30 8625 H 837.806 -2.56423 -2.02274 0
M  V30 8626 H 836.465 -3.66087 -0.193819 0
M  V30 8627 H 836.113 -4.31713 -2.58133 0
M  V30 8628 H 835.813 -5.68615 -1.48159 0
M  V30 8629 H 837.337 -5.60989 -2.4109 0
M  V30 8630 H 838.751 -5.73122 -0.142703 0
M  V30 8631 H 837.148 -5.96975 0.611673 0
M  V30 8632 H 838.218 -4.69329 1.21894 0
M  V30 8633 N 839.561 -0.251338 -1.55583 0
M  V30 8634 C 840.511 0.660351 -2.18228 0
M  V30 8635 C 841.495 1.13596 -1.13951 0
M  V30 8636 O 842.687 1.08499 -1.39846 0
M  V30 8637 C 839.816 1.85498 -2.88869 0
M  V30 8638 C 838.902 1.39767 -4.00407 0
M  V30 8639 N 839.293 0.654876 -5.01543 0
M  V30 8640 C 837.591 1.68259 -4.13044 0
M  V30 8641 C 838.292 0.417521 -5.802 0
M  V30 8642 N 837.268 0.983032 -5.34638 0
M  V30 8643 H 841.07 0.0847425 -2.93778 0
M  V30 8644 H 838.584 -0.0538456 -1.62311 0
M  V30 8645 H 840.581 2.51916 -3.3218 0
M  V30 8646 H 839.241 2.43477 -2.14823 0
M  V30 8647 H 840.252 0.304545 -5.17004 0
M  V30 8648 H 836.929 2.27344 -3.50172 0
M  V30 8649 H 838.319 -0.175764 -6.7167 0
M  V30 8650 N 841.039 1.57585 0.0217189 0
M  V30 8651 C 842.288 1.88786 0.710125 0
M  V30 8652 C 842.601 0.850819 1.76126 0
M  V30 8653 O 843.807 1.0523 2.50277 0
M  V30 8654 C 842.263 3.3505 1.31413 0
M  V30 8655 C 841.871 4.47001 0.298959 0
M  V30 8656 C 843.615 3.7539 1.98199 0
M  V30 8657 C 841.522 5.8433 0.911727 0
M  V30 8658 H 840.452 0.704388 0.268986 0
M  V30 8659 H 843.103 1.83466 -0.0352638 0
M  V30 8660 H 841.485 3.35138 2.10947 0
M  V30 8661 H 842.659 4.58395 -0.470203 0
M  V30 8662 H 840.974 4.15542 -0.267222 0
M  V30 8663 H 843.571 4.75314 2.4491 0
M  V30 8664 H 843.914 3.07766 2.80331 0
M  V30 8665 H 844.447 3.77508 1.2543 0
M  V30 8666 H 841.186 6.55372 0.129659 0
M  V30 8667 H 840.706 5.76643 1.65056 0
M  V30 8668 H 842.385 6.31295 1.41688 0
M  V30 8669 N 842.517 -0.29412 1.54831 0
M  V30 8670 C 843.449 -1.38476 1.82639 0
M  V30 8671 C 844.462 -1.46517 0.709694 0
M  V30 8672 O 845.651 -1.48712 0.987269 0
M  V30 8673 C 842.751 -2.76791 1.95551 0
M  V30 8674 C 841.924 -2.91599 3.26019 0
M  V30 8675 C 840.983 -4.10456 3.29261 0
M  V30 8676 O 840.009 -4.02214 4.02756 0
M  V30 8677 N 841.211 -5.21422 2.55145 0
M  V30 8678 H 843.976 -1.14974 2.76769 0
M  V30 8679 H 841.537 -0.484206 1.5449 0
M  V30 8680 H 843.529 -3.5456 1.95113 0
M  V30 8681 H 842.099 -2.93209 1.08384 0
M  V30 8682 H 841.319 -2.00886 3.39173 0
M  V30 8683 H 842.607 -2.98409 4.12104 0
M  V30 8684 H 842.005 -5.31 1.95078 0
M  V30 8685 H 840.562 -5.97501 2.60454 0
M  V30 8686 N 843.995 -1.47404 -0.557645 0
M  V30 8687 C 845.272 -1.44488 -1.31843 0
M  V30 8688 C 845.652 -0.1416 -2.10625 0
M  V30 8689 O 845 0.876908 -2.11004 0
M  V30 8690 C 845.21 -2.69016 -2.22331 0
M  V30 8691 C 846.558 -3.16212 -2.83364 0
M  V30 8692 O 847.582 -2.69741 -2.32634 0
M  V30 8693 O 846.441 -3.96999 -3.75571 0
M  V30 8694 H 843.535 -0.57578 -0.593639 0
M  V30 8695 H 846.081 -1.59605 -0.576584 0
M  V30 8696 H 844.853 -3.55406 -1.63715 0
M  V30 8697 H 844.476 -2.56484 -3.03812 0
M  V30 8698 N 845.473 0.80434 -1.35529 0
M  V30 8699 C 846.436 1.89788 -1.28503 0
M  V30 8700 C 847.436 1.59601 -0.195983 0
M  V30 8701 O 848.626 1.68292 -0.449827 0
M  V30 8702 C 845.758 3.26255 -0.98847 0
M  V30 8703 H 846.951 1.97436 -2.25741 0
M  V30 8704 H 844.504 1.00046 -1.20086 0
M  V30 8705 H 845.239 3.24294 -0.0200541 0
M  V30 8706 H 845.024 3.49551 -1.77641 0
M  V30 8707 H 846.514 4.06298 -0.964975 0
M  V30 8708 N 846.951 1.19563 1.02676 0
M  V30 8709 C 847.881 0.959024 2.12897 0
M  V30 8710 C 848.862 -0.108382 1.69754 0
M  V30 8711 O 850.047 0.0470698 1.94143 0
M  V30 8712 C 847.177 0.499211 3.43693 0
M  V30 8713 C 846.131 1.5087 4.00528 0
M  V30 8714 C 845.457 0.905884 5.2697 0
M  V30 8715 C 846.757 2.88954 4.3509 0
M  V30 8716 H 848.451 1.88084 2.32948 0
M  V30 8717 H 845.997 0.905731 1.11949 0
M  V30 8718 H 847.95 0.320965 4.20176 0
M  V30 8719 H 846.674 -0.458205 3.2337 0
M  V30 8720 H 845.333 1.67413 3.26142 0
M  V30 8721 H 844.981 -0.0591506 5.02965 0
M  V30 8722 H 844.681 1.58 5.65959 0
M  V30 8723 H 846.205 0.73848 6.06118 0
M  V30 8724 H 847.619 2.75981 5.02501 0
M  V30 8725 H 846.016 3.53177 4.85166 0
M  V30 8726 H 847.086 3.41447 3.44299 0
M  V30 8727 N 848.429 -1.21819 0.999893 0
M  V30 8728 C 849.84 -1.72517 0.713775 0
M  V30 8729 C 850.191 -1.80505 -0.768922 0
M  V30 8730 O 849.316 -1.45611 -1.60083 0
M  V30 8731 C 849.911 -3.13321 1.28901 0
M  V30 8732 C 848.47 -3.61396 1.05212 0
M  V30 8733 C 847.617 -2.39074 1.40494 0
M  V30 8734 H 850.568 -1.07068 1.17141 0
M  V30 8735 H 850.589 -3.74535 0.671084 0
M  V30 8736 H 850.101 -3.07475 2.36814 0
M  V30 8737 H 848.202 -3.72599 -0.0100732 0
M  V30 8738 H 848.315 -4.47145 1.72042 0
M  V30 8739 H 846.679 -2.41015 0.823642 0
M  V30 8740 H 847.462 -2.35884 2.49427 0
M  V30 8741 N 849.908 -0.773975 -1.37286 0
M  V30 8742 C 850.818 -0.162571 -2.34036 0
M  V30 8743 C 851.834 0.677022 -1.60289 0
M  V30 8744 O 853.01 0.596423 -1.92366 0
M  V30 8745 C 850.075 0.70457 -3.39465 0
M  V30 8746 C 849.136 -0.151738 -4.29032 0
M  V30 8747 C 848.369 0.674111 -5.29426 0
M  V30 8748 O 848.592 1.91107 -5.37433 0
M  V30 8749 O 847.526 0.0821398 -6.01844 0
M  V30 8750 H 851.352 -0.962119 -2.88057 0
M  V30 8751 H 848.937 -0.53517 -1.39486 0
M  V30 8752 H 850.819 1.19954 -4.03967 0
M  V30 8753 H 849.494 1.48227 -2.87768 0
M  V30 8754 H 848.401 -0.693118 -3.67623 0
M  V30 8755 H 849.734 -0.892575 -4.84039 0
M  V30 8756 N 851.386 1.48609 -0.524698 0
M  V30 8757 C 852.663 1.95454 0.075465 0
M  V30 8758 C 853.043 1.46682 1.51814 0
M  V30 8759 O 852.391 0.690975 2.17802 0
M  V30 8760 C 852.601 3.48981 -0.0363273 0
M  V30 8761 C 853.949 4.24414 0.125624 0
M  V30 8762 O 854.973 3.5618 0.0377239 0
M  V30 8763 O 853.832 5.45625 0.309104 0
M  V30 8764 H 850.926 0.822902 0.0822256 0
M  V30 8765 H 853.472 1.59153 -0.588921 0
M  V30 8766 H 852.244 3.77185 -1.04149 0
M  V30 8767 H 851.867 3.91963 0.667146 0
M  V30 8768 N 852.864 0.259585 1.55447 0
M  V30 8769 C 853.814 -0.648769 2.18575 0
M  V30 8770 C 854.798 -1.1299 1.14552 0
M  V30 8771 O 855.99 -1.07756 1.4042 0
M  V30 8772 C 853.119 -1.83963 2.89849 0
M  V30 8773 C 852.205 -1.37641 4.01143 0
M  V30 8774 N 852.596 -0.628269 5.01883 0
M  V30 8775 C 850.894 -1.66066 4.1393 0
M  V30 8776 C 851.595 -0.386746 5.80413 0
M  V30 8777 N 850.571 -0.954665 5.35151 0
M  V30 8778 H 854.373 -0.0691616 2.93819 0
M  V30 8779 H 851.887 0.0624525 1.6228 0
M  V30 8780 H 853.884 -2.50151 3.33512 0
M  V30 8781 H 852.544 -2.42334 2.16112 0
M  V30 8782 H 853.555 -0.277123 5.17158 0
M  V30 8783 H 850.232 -2.25484 3.51373 0
M  V30 8784 H 851.622 0.211382 6.71567 0
M  V30 8785 N 854.342 -1.57594 -0.0133615 0
M  V30 8786 C 855.59 -1.89605 -0.699596 0
M  V30 8787 C 855.911 -0.85926 -1.75048 0
M  V30 8788 O 855.181 0.105112 -1.95618 0
M  V30 8789 H 853.761 -0.699776 -0.261385 0
M  V30 8790 H 856.423 -1.94885 0.0244044 0
M  V30 8791 H 855.519 -2.88962 -1.17928 0
M  V30 8792 N 855.82 0.285905 -1.54985 0
M  V30 8793 C 857.048 1.03776 -1.78992 0
M  V30 8794 C 857.463 1.80402 -0.556814 0
M  V30 8795 O 856.82 1.76242 0.473801 0
M  V30 8796 C 856.871 2.0065 -3.00702 0
M  V30 8797 O 856.592 1.27131 -4.19249 0
M  V30 8798 C 858.093 2.87753 -3.37214 0
M  V30 8799 H 855.313 0.307126 -0.596586 0
M  V30 8800 H 857.857 0.3206 -2.01971 0
M  V30 8801 H 856.012 2.67847 -2.79887 0
M  V30 8802 H 856.426 1.92316 -4.8797 0
M  V30 8803 H 857.9 3.51548 -4.2558 0
M  V30 8804 H 858.377 3.56848 -2.56039 0
M  V30 8805 H 858.983 2.26065 -3.60242 0
M  V30 8806 N 857.298 1.47698 0.54982 0
M  V30 8807 C 858.528 1.58101 1.32995 0
M  V30 8808 C 858.936 0.232939 1.87761 0
M  V30 8809 O 858.279 -0.785058 1.6608 0
M  V30 8810 C 858.341 2.55228 2.53178 0
M  V30 8811 C 858.005 4.00756 2.19645 0
M  V30 8812 C 859.002 4.89025 1.76496 0
M  V30 8813 C 856.687 4.46147 2.30777 0
M  V30 8814 C 858.681 6.20707 1.44919 0
M  V30 8815 C 856.368 5.77856 1.98812 0
M  V30 8816 C 857.366 6.64957 1.55952 0
M  V30 8817 O 857.054 7.94217 1.24396 0
M  V30 8818 H 856.786 0.536362 0.411451 0
M  V30 8819 H 859.34 1.94092 0.67212 0
M  V30 8820 H 857.57 2.14319 3.21876 0
M  V30 8821 H 859.259 2.55678 3.15251 0
M  V30 8822 H 860.025 4.55201 1.67383 0
M  V30 8823 H 855.904 3.78552 2.63096 0
M  V30 8824 H 859.448 6.88649 1.11392 0
M  V30 8825 H 855.345 6.11219 2.0756 0
M  V30 8826 H 856.113 8.06789 1.37964 0
M  V30 8827 N 858.776 -0.797141 1.35954 0
M  V30 8828 C 860.004 -1.5858 1.32891 0
M  V30 8829 C 860.419 -1.88578 -0.0915564 0
M  V30 8830 O 859.776 -1.49532 -1.04625 0
M  V30 8831 C 859.827 -2.91143 2.14284 0
M  V30 8832 O 859.548 -2.62442 3.50793 0
M  V30 8833 C 861.049 -3.85476 2.18914 0
M  V30 8834 H 858.269 -0.492111 0.456144 0
M  V30 8835 H 860.813 -0.98994 1.78943 0
M  V30 8836 H 858.968 -3.47219 1.71807 0
M  V30 8837 H 859.382 -3.4715 3.93175 0
M  V30 8838 H 860.856 -4.75574 2.80238 0
M  V30 8839 H 861.333 -4.22758 1.19047 0
M  V30 8840 H 861.939 -3.35334 2.61593 0
M  V30 8841 N 860.254 -1.20106 -1.0204 0
M  V30 8842 C 861.494 -1.02013 -1.77123 0
M  V30 8843 C 861.858 0.440439 -1.8688 0
M  V30 8844 O 863.059 0.74144 -2.58372 0
M  V30 8845 C 861.33 -1.68058 -3.15423 0
M  V30 8846 S 862.889 -1.65016 -4.0659 0
M  V30 8847 H 859.707 -0.365882 -0.609632 0
M  V30 8848 H 862.309 -1.52597 -1.22206 0
M  V30 8849 H 861.013 -2.73544 -3.05944 0
M  V30 8850 H 860.544 -1.17589 -3.75415 0
M  V30 8851 H 862.559 -0.680341 -4.91514 0
M  V30 8852 N 861.732 1.21287 -1.00634 0
M  V30 8853 C 862.662 2.25973 -0.588089 0
M  V30 8854 C 863.643 1.65527 0.391764 0
M  V30 8855 O 864.828 1.92179 0.279452 0
M  V30 8856 C 861.958 3.47197 0.0847336 0
M  V30 8857 C 860.912 4.20168 -0.815039 0
M  V30 8858 C 860.238 5.34699 -0.00855393 0
M  V30 8859 C 861.538 4.77416 -2.11828 0
M  V30 8860 H 863.232 2.61212 -1.46317 0
M  V30 8861 H 860.778 1.25563 -0.704985 0
M  V30 8862 H 862.731 4.19602 0.388821 0
M  V30 8863 H 861.455 3.11092 0.994456 0
M  V30 8864 H 860.114 3.49614 -1.10297 0
M  V30 8865 H 859.762 4.94837 0.902499 0
M  V30 8866 H 859.462 5.84449 -0.607664 0
M  V30 8867 H 860.986 6.09914 0.289317 0
M  V30 8868 H 862.4 5.41694 -1.87725 0
M  V30 8869 H 860.797 5.37561 -2.66736 0
M  V30 8870 H 861.867 3.96724 -2.78816 0
M  V30 8871 N 863.21 0.781244 1.36873 0
M  V30 8872 C 864.173 0.180094 2.28491 0
M  V30 8873 C 865.173 -0.617798 1.48458 0
M  V30 8874 O 866.363 -0.439991 1.68552 0
M  V30 8875 C 863.495 -0.751741 3.32508 0
M  V30 8876 H 864.688 0.987837 2.83164 0
M  V30 8877 H 862.241 0.550102 1.463 0
M  V30 8878 H 862.976 -1.58413 2.82977 0
M  V30 8879 H 862.761 -0.181649 3.91679 0
M  V30 8880 H 864.251 -1.16748 4.00949 0
M  V30 8881 N 864.689 -1.48329 0.532571 0
M  V30 8882 C 865.599 -2.33445 -0.232546 0
M  V30 8883 C 866.615 -1.46651 -0.93645 0
M  V30 8884 O 867.791 -1.79627 -0.910834 0
M  V30 8885 C 864.856 -3.22824 -1.26434 0
M  V30 8886 C 863.917 -4.25492 -0.570511 0
M  V30 8887 C 863.15 -5.10601 -1.55315 0
M  V30 8888 O 863.373 -4.97733 -2.78599 0
M  V30 8889 O 862.307 -5.91927 -1.09112 0
M  V30 8890 H 866.133 -3.00119 0.464988 0
M  V30 8891 H 863.718 -1.46489 0.293462 0
M  V30 8892 H 865.6 -3.78103 -1.86055 0
M  V30 8893 H 864.275 -2.58807 -1.94424 0
M  V30 8894 H 863.182 -3.74041 0.0662587 0
M  V30 8895 H 864.515 -4.92154 0.0674904 0
M  V30 8896 N 866.167 -0.267825 -1.55308 0
M  V30 8897 C 867.115 0.638848 -2.23655 0
M  V30 8898 C 868.109 1.16363 -1.2311 0
M  V30 8899 O 869.315 1.1181 -1.41062 0
M  V30 8900 H 865.69 0.224551 -0.717691 0
M  V30 8901 H 867.661 0.0394809 -2.98374 0
M  V30 8902 C 866.41 1.8151 -2.96562 0
M  V30 8903 H 865.733 1.42048 -3.73715 0
M  V30 8904 H 867.173 2.42629 -3.47717 0
M  V30 8905 C 865.632 2.69911 -2.01618 0
M  V30 8906 O 866.162 3.70058 -1.56268 0
M  V30 8907 N 864.368 2.36924 -1.68272 0
M  V30 8908 H 863.915 1.55533 -2.05347 0
M  V30 8909 H 863.873 2.96343 -1.05016 0
M  V30 8910 N 867.645 1.57599 0.00500368 0
M  V30 8911 C 868.608 2.07058 0.982832 0
M  V30 8912 C 869.608 0.979045 1.27559 0
M  V30 8913 O 870.798 1.24187 1.22161 0
M  V30 8914 C 867.93 2.50782 2.30914 0
M  V30 8915 H 869.123 2.94718 0.555119 0
M  V30 8916 H 866.676 1.54249 0.25237 0
M  V30 8917 H 867.411 1.66351 2.78385 0
M  V30 8918 H 867.196 3.30495 2.10987 0
M  V30 8919 H 868.686 2.89391 3.0107 0
M  V30 8920 N 869.123 -0.277682 1.55134 0
M  V30 8921 C 870.053 -1.34742 1.90701 0
M  V30 8922 C 871.034 -1.51757 0.768354 0
M  V30 8923 O 872.219 -1.64879 1.02609 0
M  V30 8924 C 869.349 -2.70775 2.17481 0
M  V30 8925 C 868.303 -2.68497 3.33307 0
M  V30 8926 C 867.629 -4.08037 3.45557 0
M  V30 8927 C 868.929 -2.28178 4.69821 0
M  V30 8928 H 870.623 -1.05224 2.803 0
M  V30 8929 H 868.169 -0.504738 1.34864 0
M  V30 8930 H 870.122 -3.45719 2.40949 0
M  V30 8931 H 868.846 -3.01867 1.24676 0
M  V30 8932 H 867.505 -1.9601 3.09799 0
M  V30 8933 H 867.153 -4.36344 2.50226 0
M  V30 8934 H 866.853 -4.07409 4.23429 0
M  V30 8935 H 868.377 -4.84726 3.71312 0
M  V30 8936 H 869.791 -2.92843 4.92865 0
M  V30 8937 H 868.188 -2.3872 5.50575 0
M  V30 8938 H 869.258 -1.23308 4.6896 0
M  V30 8939 N 870.601 -1.47988 -0.541979 0
M  V30 8940 C 871.849 -1.55086 -1.29587 0
M  V30 8941 C 872.17 -0.221304 -1.9374 0
M  V30 8942 O 871.44 0.756128 -1.80719 0
M  V30 8943 H 870.02 -0.571307 -0.481266 0
M  V30 8944 H 872.682 -1.8438 -0.631675 0
M  V30 8945 H 871.778 -2.32556 -2.08144 0
M  V30 8946 N 872.079 0.78992 -1.36375 0
M  V30 8947 C 873.011 1.91113 -1.26524 0
M  V30 8948 C 874.024 1.61747 -0.184851 0
M  V30 8949 O 875.213 1.73004 -0.439524 0
M  V30 8950 C 872.313 3.25908 -0.92937 0
M  V30 8951 C 871.486 3.83057 -2.11154 0
M  V30 8952 C 870.545 4.96289 -1.74881 0
M  V30 8953 O 869.571 5.12834 -2.46962 0
M  V30 8954 N 870.773 5.76478 -0.682193 0
M  V30 8955 H 873.538 2.00085 -2.23128 0
M  V30 8956 H 871.099 0.968165 -1.29762 0
M  V30 8957 H 873.091 3.99151 -0.667884 0
M  V30 8958 H 871.661 3.12556 -0.0524843 0
M  V30 8959 H 870.881 3.01808 -2.53586 0
M  V30 8960 H 872.169 4.1797 -2.90135 0
M  V30 8961 H 871.567 5.65638 -0.0836661 0
M  V30 8962 H 870.124 6.50026 -0.480529 0
M  V30 8963 N 873.557 1.20646 1.01402 0
M  V30 8964 C 874.803 1.0197 1.753 0
M  V30 8965 C 875.136 -0.446803 1.8899 0
M  V30 8966 O 874.411 -1.33169 1.41762 0
M  V30 8967 C 874.694 1.70693 3.17074 0
M  V30 8968 C 874.547 3.24805 3.11162 0
M  V30 8969 C 875.866 1.44212 4.15802 0
M  V30 8970 H 872.985 0.371844 0.636318 0
M  V30 8971 H 875.627 1.48696 1.18277 0
M  V30 8972 H 873.777 1.30968 3.65759 0
M  V30 8973 H 875.449 3.73841 2.70261 0
M  V30 8974 H 873.692 3.55576 2.48492 0
M  V30 8975 H 874.363 3.68049 4.11393 0
M  V30 8976 H 876.839 1.7868 3.75783 0
M  V30 8977 H 875.715 1.94825 5.13161 0
M  V30 8978 H 875.976 0.370252 4.40547 0
M  V30 8979 N 875.035 -1.20752 1.01276 0
M  V30 8980 C 876.26 -1.94547 0.718769 0
M  V30 8981 C 876.685 -1.7404 -0.713563 0
M  V30 8982 O 876.043 -1.03221 -1.49047 0
M  V30 8983 C 876.091 -3.44823 1.05497 0
M  V30 8984 O 875.195 -4.12072 0.164516 0
M  V30 8985 H 874.536 -0.607931 0.267051 0
M  V30 8986 H 877.066 -1.53292 1.35509 0
M  V30 8987 H 877.076 -3.95427 1.00507 0
M  V30 8988 H 875.751 -3.59072 2.09858 0
M  V30 8989 H 874.328 -3.71909 0.271615 0
M  V30 8990 N 876.513 -0.788492 -1.36457 0
M  V30 8991 C 877.753 -0.365855 -2.01099 0
M  V30 8992 C 878.117 1.04262 -1.61225 0
M  V30 8993 O 879.318 1.56628 -2.18451 0
M  V30 8994 C 877.589 -0.523344 -3.53548 0
M  V30 8995 S 879.148 -0.188448 -4.38395 0
M  V30 8996 H 875.966 -0.139832 -0.697114 0
M  V30 8997 H 878.568 -1.02678 -1.66365 0
M  V30 8998 H 877.272 -1.54874 -3.80055 0
M  V30 8999 H 876.803 0.153547 -3.931 0
M  V30 9000 H 878.818 1.0103 -4.85806 0
M  V30 9001 N 877.991 1.48044 -0.54043 0
M  V30 9002 C 879.216 2.07396 -0.0124765 0
M  V30 9003 C 879.641 1.39288 1.26414 0
M  V30 9004 O 878.999 0.462252 1.75308 0
M  V30 9005 C 879.047 3.60131 0.18377 0
M  V30 9006 O 878.151 3.92995 1.25014 0
M  V30 9007 H 877.492 0.662554 -0.0438026 0
M  V30 9008 H 880.022 1.90306 -0.751327 0
M  V30 9009 H 880.032 4.06003 0.403197 0
M  V30 9010 H 878.707 4.09105 -0.74874 0
M  V30 9011 H 877.284 3.5889 1.01254 0
M  V30 9012 N 879.47 0.276058 1.55163 0
M  V30 9013 C 880.433 -0.597924 2.21263 0
M  V30 9014 C 881.433 -1.0806 1.19078 0
M  V30 9015 O 882.623 -0.980626 1.43977 0
M  V30 9016 C 879.755 -1.82503 2.87933 0
M  V30 9017 H 880.948 -0.0207769 2.99893 0
M  V30 9018 H 878.501 0.0266823 1.56277 0
M  V30 9019 H 879.236 -2.44266 2.13318 0
M  V30 9020 H 879.021 -1.48683 3.62816 0
M  V30 9021 H 880.511 -2.44651 3.38431 0
M  V30 9022 N 880.948 -1.576 0.00335426 0
M  V30 9023 C 882.194 -1.91833 -0.676149 0
M  V30 9024 C 882.549 -0.878079 -1.71194 0
M  V30 9025 O 881.842 0.109297 -1.91288 0
M  V30 9026 C 882.036 -3.3058 -1.35837 0
M  V30 9027 C 881.865 -4.48004 -0.390171 0
M  V30 9028 C 880.635 -5.053 0.000648493 0
M  V30 9029 C 882.833 -5.13142 0.344982 0
M  V30 9030 N 880.815 -6.06241 0.966709 0
M  V30 9031 C 882.186 -6.08944 1.16562 0
M  V30 9032 C 884.241 -4.96222 0.408457 0
M  V30 9033 C 882.944 -6.89649 2.04395 0
M  V30 9034 C 884.97 -5.77514 1.27403 0
M  V30 9035 C 884.332 -6.72912 2.08251 0
M  V30 9036 H 880.431 -0.750263 -0.220519 0
M  V30 9037 H 883.015 -1.94593 0.0644891 0
M  V30 9038 H 881.186 -3.28687 -2.06928 0
M  V30 9039 H 882.918 -3.52233 -1.99284 0
M  V30 9040 H 879.673 -4.72165 -0.368428 0
M  V30 9041 H 880.097 -6.61394 1.44521 0
M  V30 9042 H 884.739 -4.22316 -0.202324 0
M  V30 9043 H 882.457 -7.62878 2.66539 0
M  V30 9044 H 886.043 -5.66462 1.3271 0
M  V30 9045 H 884.923 -7.34721 2.74145 0
M  V30 9046 N 882.426 0.269451 -1.5528 0
M  V30 9047 C 883.672 1.00206 -1.76314 0
M  V30 9048 C 884.005 1.85812 -0.564581 0
M  V30 9049 O 883.28 1.89509 0.437769 0
M  V30 9050 C 883.563 1.88163 -3.07029 0
M  V30 9051 C 883.416 1.05527 -4.37246 0
M  V30 9052 C 884.735 2.8681 -3.33808 0
M  V30 9053 H 881.854 0.36288 -0.641473 0
M  V30 9054 H 884.496 0.274188 -1.88011 0
M  V30 9055 H 882.646 2.50224 -2.97187 0
M  V30 9056 H 884.318 0.455094 -4.5905 0
M  V30 9057 H 882.561 0.358842 -4.32313 0
M  V30 9058 H 883.232 1.70397 -5.25042 0
M  V30 9059 H 885.708 2.34884 -3.43466 0
M  V30 9060 H 884.584 3.45492 -4.26528 0
M  V30 9061 H 884.845 3.62118 -2.5362 0
M  V30 9062 N 883.904 1.48273 0.534124 0
M  V30 9063 C 885.132 1.59734 1.31501 0
M  V30 9064 C 885.547 0.256047 1.87056 0
M  V30 9065 O 884.904 -0.754086 1.66192 0
M  V30 9066 C 884.955 2.64072 2.46877 0
M  V30 9067 O 884.676 3.92995 1.93613 0
M  V30 9068 C 886.177 2.85933 3.38758 0
M  V30 9069 H 883.397 0.538703 0.40005 0
M  V30 9070 H 885.941 1.9407 0.644762 0
M  V30 9071 H 884.096 2.32606 3.09795 0
M  V30 9072 H 884.51 4.50203 2.69106 0
M  V30 9073 H 885.984 3.62749 4.16073 0
M  V30 9074 H 886.461 1.94603 3.93734 0
M  V30 9075 H 887.067 3.18687 2.81636 0
M  V30 9076 N 885.382 -0.782676 1.36792 0
M  V30 9077 C 886.628 -1.54311 1.3159 0
M  V30 9078 C 886.961 -1.93928 -0.102696 0
M  V30 9079 O 886.236 -1.63233 -1.05761 0
M  V30 9080 C 886.519 -2.81561 2.24489 0
M  V30 9081 C 886.372 -2.48268 3.75078 0
M  V30 9082 C 887.691 -3.83428 2.16034 0
M  V30 9083 H 884.81 -0.559828 0.479335 0
M  V30 9084 H 887.452 -0.898717 1.67401 0
M  V30 9085 H 885.602 -3.36549 1.9408 0
M  V30 9086 H 887.274 -1.99279 4.16036 0
M  V30 9087 H 885.517 -1.81116 3.94182 0
M  V30 9088 H 886.188 -3.39183 4.35499 0
M  V30 9089 H 888.664 -3.37905 2.42815 0
M  V30 9090 H 887.54 -4.70204 2.83194 0
M  V30 9091 H 887.801 -4.26887 1.14976 0
M  V30 9092 N 886.86 -1.21182 -1.00761 0
M  V30 9093 C 887.81 -0.936247 -2.0789 0
M  V30 9094 C 888.794 0.107482 -1.60541 0
M  V30 9095 O 889.986 -0.1011 -1.76711 0
M  V30 9096 C 887.115 -0.499949 -3.3964 0
M  V30 9097 C 886.201 -1.5776 -3.93666 0
M  V30 9098 N 886.592 -2.80208 -4.2109 0
M  V30 9099 C 884.89 -1.44586 -4.21913 0
M  V30 9100 C 885.591 -3.49787 -4.64784 0
M  V30 9101 N 884.567 -2.7722 -4.676 0
M  V30 9102 H 888.369 -1.86659 -2.27015 0
M  V30 9103 H 885.883 -1.10716 -1.1881 0
M  V30 9104 H 887.88 -0.283897 -4.15932 0
M  V30 9105 H 886.54 0.423659 -3.21924 0
M  V30 9106 H 887.551 -3.16776 -4.09724 0
M  V30 9107 H 884.228 -0.587346 -4.13348 0
M  V30 9108 H 885.618 -4.54615 -4.94747 0
M  V30 9109 N 888.338 1.20213 -1.01915 0
M  V30 9110 C 889.248 2.26763 -0.601311 0
M  V30 9111 C 890.264 1.70185 0.362369 0
M  V30 9112 O 891.44 2.00165 0.222682 0
M  V30 9113 C 888.505 3.46662 0.0512879 0
M  V30 9114 C 887.566 4.18459 -0.958659 0
M  V30 9115 C 886.799 5.32634 -0.337107 0
M  V30 9116 O 887.022 5.63841 0.86251 0
M  V30 9117 O 885.956 5.9258 -1.05511 0
M  V30 9118 H 889.782 2.64725 -1.48844 0
M  V30 9119 H 887.367 1.2688 -0.788784 0
M  V30 9120 H 889.249 4.19345 0.41564 0
M  V30 9121 H 887.924 3.1057 0.912572 0
M  V30 9122 H 886.831 3.47937 -1.37442 0
M  V30 9123 H 888.164 4.58498 -1.78999 0
M  V30 9124 N 889.816 0.795718 1.36037 0
M  V30 9125 C 890.763 0.196548 2.29962 0
M  V30 9126 C 891.733 -0.663213 1.52285 0
M  V30 9127 O 892.918 -0.610574 1.80767 0
M  V30 9128 C 890.058 -0.657639 3.38776 0
M  V30 9129 C 889.171 0.221358 4.31433 0
M  V30 9130 C 888.306 -0.6398 5.27333 0
M  V30 9131 C 887.345 0.240265 6.11628 0
M  V30 9132 N 886.482 -0.580237 6.99698 0
M  V30 9133 H 891.322 1.00295 2.80615 0
M  V30 9134 H 888.859 0.506147 1.38118 0
M  V30 9135 H 890.817 -1.16793 4.00519 0
M  V30 9136 H 889.447 -1.42941 2.89426 0
M  V30 9137 H 888.499 0.84967 3.70789 0
M  V30 9138 H 889.811 0.899195 4.90628 0
M  V30 9139 H 888.965 -1.21566 5.94396 0
M  V30 9140 H 887.704 -1.35124 4.68607 0
M  V30 9141 H 886.709 0.828474 5.43522 0
M  V30 9142 H 887.934 0.949403 6.72431 0
M  V30 9143 H 885.88 -1.27585 6.43473 0
M  V30 9144 H 885.797 0.0397853 7.5599 0
M  V30 9145 H 887.065 -1.13972 7.71123 0
M  V30 9146 N 891.294 -1.47756 0.548274 0
M  V30 9147 C 892.241 -2.29893 -0.204408 0
M  V30 9148 C 893.211 -1.38509 -0.916761 0
M  V30 9149 O 894.396 -1.67472 -0.91421 0
M  V30 9150 C 891.536 -3.22282 -1.23403 0
M  V30 9151 C 890.649 -4.28753 -0.528654 0
M  V30 9152 C 889.784 -5.08303 -1.54279 0
M  V30 9153 C 888.823 -6.06557 -0.821893 0
M  V30 9154 N 887.96 -6.79098 -1.78243 0
M  V30 9155 H 892.8 -2.93739 0.502163 0
M  V30 9156 H 890.337 -1.44793 0.259471 0
M  V30 9157 H 892.295 -3.74262 -1.84348 0
M  V30 9158 H 890.925 -2.6032 -1.90875 0
M  V30 9159 H 889.977 -3.79899 0.195132 0
M  V30 9160 H 891.289 -4.98787 0.0365066 0
M  V30 9161 H 890.443 -5.64388 -2.22602 0
M  V30 9162 H 889.182 -4.3815 -2.14186 0
M  V30 9163 H 888.187 -5.49659 -0.12469 0
M  V30 9164 H 889.412 -6.78715 -0.228685 0
M  V30 9165 H 887.358 -6.11682 -2.37025 0
M  V30 9166 H 887.275 -7.4527 -1.26919 0
M  V30 9167 H 888.543 -7.39762 -2.45709 0
M  V30 9168 N 892.772 -0.284283 -1.55015 0
M  V30 9169 C 893.997 0.335799 -2.04664 0
M  V30 9170 C 894.422 1.47999 -1.16094 0
M  V30 9171 O 893.78 1.8058 -0.161454 0
M  V30 9172 C 893.828 0.785615 -3.51938 0
M  V30 9173 O 892.932 1.89202 -3.66437 0
M  V30 9174 H 892.273 0.0680233 -0.660506 0
M  V30 9175 H 894.803 -0.421255 -2.00216 0
M  V30 9176 H 894.813 1.07892 -3.93476 0
M  V30 9177 H 893.488 -0.0514675 -4.15868 0
M  V30 9178 H 892.065 1.60055 -3.36804 0
M  V30 9179 N 894.251 1.57596 -0.0117121 0
M  V30 9180 C 895.476 1.95764 0.684938 0
M  V30 9181 C 895.901 0.887285 1.65858 0
M  V30 9182 O 895.259 -0.153508 1.80649 0
M  V30 9183 C 895.307 3.33031 1.38285 0
M  V30 9184 O 894.411 3.28163 2.49765 0
M  V30 9185 H 893.752 0.638767 0.181309 0
M  V30 9186 H 896.282 2.04486 -0.0683883 0
M  V30 9187 H 896.292 3.68866 1.74362 0
M  V30 9188 H 894.967 4.10483 0.669043 0
M  V30 9189 H 893.544 3.04021 2.15929 0
M  V30 9190 N 895.729 -0.261212 1.5542 0
M  V30 9191 C 897.145 -0.609012 1.47524 0
M  V30 9192 C 897.345 -1.88986 0.699042 0
M  V30 9193 O 896.401 -2.51517 0.222628 0
M  V30 9194 C 897.714 -0.725025 2.91828 0
M  V30 9195 C 899.262 -0.818302 3.02114 0
M  V30 9196 C 899.737 -0.965996 4.47697 0
M  V30 9197 N 901.228 -1.03123 4.51575 0
M  V30 9198 C 901.963 -1.16451 5.6145 0
M  V30 9199 N 901.459 -1.26425 6.81167 0
M  V30 9200 N 903.252 -1.19655 5.49217 0
M  V30 9201 H 895.403 0.579807 2.04333 0
M  V30 9202 H 897.666 0.198072 0.927077 0
M  V30 9203 H 897.372 0.145871 3.51397 0
M  V30 9204 H 897.246 -1.60156 3.41511 0
M  V30 9205 H 899.633 -1.67966 2.42634 0
M  V30 9206 H 899.714 0.0830895 2.55665 0
M  V30 9207 H 899.358 -0.109251 5.07782 0
M  V30 9208 H 899.288 -1.88221 4.91813 0
M  V30 9209 H 901.779 -0.966072 3.65343 0
M  V30 9210 H 902.092 -1.36462 7.60656 0
M  V30 9211 H 900.437 -1.23408 6.83956 0
M  V30 9212 H 903.628 -1.11501 4.54626 0
M  V30 9213 H 903.801 -1.29698 6.34888 0
M  V30 9214 N 897.207 -1.48554 -0.526253 0
M  V30 9215 C 898.154 -1.63354 -1.63046 0
M  V30 9216 C 899.124 -0.475509 -1.59148 0
M  V30 9217 O 900.309 -0.699453 -1.77517 0
M  V30 9218 C 897.449 -1.68271 -3.01295 0
M  V30 9219 C 896.562 -2.95207 -3.15399 0
M  V30 9220 C 895.697 -2.91262 -4.4423 0
M  V30 9221 C 894.736 -4.12886 -4.51876 0
M  V30 9222 N 893.873 -4.06996 -5.721 0
M  V30 9223 H 898.713 -2.57649 -1.49737 0
M  V30 9224 H 896.25 -1.27769 -0.728938 0
M  V30 9225 H 898.208 -1.69104 -3.81392 0
M  V30 9226 H 896.838 -0.774641 -3.13367 0
M  V30 9227 H 895.89 -3.04102 -2.2853 0
M  V30 9228 H 897.202 -3.85187 -3.1691 0
M  V30 9229 H 896.356 -2.90516 -5.32621 0
M  V30 9230 H 895.095 -1.99016 -4.45246 0
M  V30 9231 H 894.1 -4.13902 -3.61891 0
M  V30 9232 H 895.325 -5.06294 -4.52596 0
M  V30 9233 H 893.271 -3.17573 -5.74006 0
M  V30 9234 H 893.188 -4.90685 -5.75121 0
M  V30 9235 H 894.456 -4.10315 -6.62768 0
M  V30 9236 N 898.685 0.775411 -1.37205 0
M  V30 9237 C 899.91 1.5696 -1.35567 0
M  V30 9238 C 900.335 1.88012 0.0575554 0
M  V30 9239 O 899.693 1.48954 1.03355 0
M  V30 9240 C 899.741 2.85886 -2.19776 0
M  V30 9241 O 898.845 3.80103 -1.59987 0
M  V30 9242 H 898.186 0.475583 -0.463375 0
M  V30 9243 H 900.716 0.96001 -1.80679 0
M  V30 9244 H 900.726 3.35024 -2.32859 0
M  V30 9245 H 899.401 2.62613 -3.22502 0
M  V30 9246 H 897.978 3.38736 -1.55924 0
M  V30 9247 N 900.163 1.21714 1.00117 0
M  V30 9248 C 901.073 0.99597 2.12409 0
M  V30 9249 C 902.089 -0.0531431 1.73919 0
M  V30 9250 O 903.265 0.137757 2.00928 0
M  V30 9251 C 900.33 0.567593 3.42022 0
M  V30 9252 C 899.391 1.68936 3.94663 0
M  V30 9253 C 898.624 1.28133 5.1809 0
M  V30 9254 O 898.847 0.156574 5.70185 0
M  V30 9255 O 897.781 2.0947 5.64275 0
M  V30 9256 H 901.607 1.93657 2.33946 0
M  V30 9257 H 899.192 1.00236 1.10784 0
M  V30 9258 H 901.074 0.338664 4.20037 0
M  V30 9259 H 899.749 -0.34424 3.21864 0
M  V30 9260 H 898.656 1.97274 3.17858 0
M  V30 9261 H 899.989 2.57876 4.19238 0
M  V30 9262 N 901.641 -1.19671 1.02551 0
M  V30 9263 C 902.871 -1.92952 0.738441 0
M  V30 9264 C 903.279 -1.75528 -0.706155 0
M  V30 9265 O 902.622 -1.0723 -1.49156 0
M  V30 9266 C 902.684 -3.45149 1.00562 0
M  V30 9267 C 902.348 -3.86341 2.44109 0
M  V30 9268 C 903.345 -3.91374 3.42231 0
M  V30 9269 C 901.03 -4.18076 2.7842 0
M  V30 9270 C 903.024 -4.27568 4.7272 0
M  V30 9271 C 900.711 -4.53943 4.0912 0
M  V30 9272 C 901.709 -4.58663 5.06081 0
M  V30 9273 O 901.397 -4.93701 6.3444 0
M  V30 9274 H 901.129 -0.619836 0.269776 0
M  V30 9275 H 903.683 -1.52852 1.37206 0
M  V30 9276 H 901.913 -3.85416 0.314849 0
M  V30 9277 H 903.602 -3.99664 0.708742 0
M  V30 9278 H 904.368 -3.67011 3.17061 0
M  V30 9279 H 900.247 -4.13589 2.03631 0
M  V30 9280 H 903.791 -4.31166 5.48399 0
M  V30 9281 H 899.688 -4.77764 4.34064 0
M  V30 9282 H 900.456 -5.11662 6.38862 0
M  V30 9283 N 903.119 -0.802921 -1.35613 0
M  V30 9284 C 904.049 -0.225131 -2.32412 0
M  V30 9285 C 905.03 0.647383 -1.57299 0
M  V30 9286 O 906.215 0.578414 -1.85386 0
M  V30 9287 C 903.345 0.630085 -3.41537 0
M  V30 9288 C 902.299 -0.143635 -4.27759 0
M  V30 9289 C 901.625 0.833046 -5.28171 0
M  V30 9290 C 902.925 -1.34054 -5.04804 0
M  V30 9291 H 904.619 -1.03385 -2.80984 0
M  V30 9292 H 902.165 -0.498593 -1.35093 0
M  V30 9293 H 904.118 1.04433 -4.08254 0
M  V30 9294 H 902.842 1.47165 -2.91565 0
M  V30 9295 H 901.501 -0.539015 -3.62616 0
M  V30 9296 H 901.149 1.67001 -4.74468 0
M  V30 9297 H 900.849 0.319697 -5.8673 0
M  V30 9298 H 902.373 1.24558 -5.97761 0
M  V30 9299 H 903.787 -1.00136 -5.64487 0
M  V30 9300 H 902.184 -1.78812 -5.72841 0
M  V30 9301 H 903.254 -2.12906 -4.35659 0
M  V30 9302 N 904.597 1.47463 -0.556102 0
M  V30 9303 C 905.527 2.32801 0.180497 0
M  V30 9304 C 906.508 1.43721 0.909848 0
M  V30 9305 O 907.693 1.72578 0.89053 0
M  V30 9306 C 904.823 3.25478 1.21167 0
M  V30 9307 C 903.777 4.2379 0.598846 0
M  V30 9308 C 903.103 5.05783 1.73457 0
M  V30 9309 C 904.403 5.20387 -0.446659 0
M  V30 9310 H 906.097 2.94636 -0.531956 0
M  V30 9311 H 903.643 1.41683 -0.257267 0
M  V30 9312 H 905.596 3.8402 1.73513 0
M  V30 9313 H 904.32 2.61695 1.95405 0
M  V30 9314 H 902.979 3.66472 0.0966897 0
M  V30 9315 H 902.627 4.38405 2.46596 0
M  V30 9316 H 902.327 5.72343 1.33031 0
M  V30 9317 H 903.851 5.67183 2.26131 0
M  V30 9318 H 905.265 5.73299 -0.00930019 0
M  V30 9319 H 903.662 5.95143 -0.769735 0
M  V30 9320 H 904.732 4.65932 -1.34295 0
M  V30 9321 N 906.075 0.2925 1.54862 0
M  V30 9322 C 907.486 -0.201841 1.85606 0
M  V30 9323 C 907.837 -1.54093 1.21449 0
M  V30 9324 O 906.962 -2.10327 0.509079 0
M  V30 9325 C 907.557 -0.373011 3.3674 0
M  V30 9326 C 906.116 -0.811574 3.67547 0
M  V30 9327 C 905.263 0.0850583 2.7717 0
M  V30 9328 H 908.214 0.513774 1.50153 0
M  V30 9329 H 908.235 -1.20892 3.60785 0
M  V30 9330 H 907.747 0.601751 3.83407 0
M  V30 9331 H 905.848 -1.79719 3.26392 0
M  V30 9332 H 905.961 -0.636853 4.74848 0
M  V30 9333 H 904.325 -0.434224 2.50971 0
M  V30 9334 H 905.108 1.05602 3.26654 0
M  V30 9335 N 907.553 -1.57587 0.0200696 0
M  V30 9336 C 908.799 -1.91708 -0.661503 0
M  V30 9337 C 909.132 -0.895968 -1.72296 0
M  V30 9338 O 908.407 0.082577 -1.94325 0
M  V30 9339 C 908.69 -3.36344 -1.28627 0
M  V30 9340 C 908.543 -4.49186 -0.234982 0
M  V30 9341 C 909.862 -3.80771 -2.20685 0
M  V30 9342 H 906.981 -0.69717 -0.239005 0
M  V30 9343 H 909.623 -1.8985 0.0754764 0
M  V30 9344 H 907.773 -3.38058 -1.91439 0
M  V30 9345 H 909.445 -4.59606 0.395011 0
M  V30 9346 H 907.688 -4.31557 0.440565 0
M  V30 9347 H 908.359 -5.47395 -0.711558 0
M  V30 9348 H 910.835 -3.80735 -1.67868 0
M  V30 9349 H 909.711 -4.82685 -2.61356 0
M  V30 9350 H 909.972 -3.15764 -3.09428 0
M  V30 9351 N 909.032 0.252966 -1.55557 0
M  V30 9352 C 909.995 1.29645 -1.8901 0
M  V30 9353 C 910.995 1.41378 -0.766096 0
M  V30 9354 O 912.185 1.40183 -1.03414 0
M  V30 9355 C 909.317 2.67504 -2.11316 0
M  V30 9356 H 910.51 1.01202 -2.82309 0
M  V30 9357 H 908.063 0.491977 -1.48355 0
M  V30 9358 H 908.798 3.01095 -1.20466 0
M  V30 9359 H 908.583 2.6037 -2.93172 0
M  V30 9360 H 910.073 3.42861 -2.38403 0
M  V30 9361 N 910.51 1.48831 0.518367 0
M  V30 9362 C 911.921 1.50842 1.10016 0
M  V30 9363 C 912.272 0.284744 1.94123 0
M  V30 9364 O 911.397 -0.607088 2.0771 0
M  V30 9365 C 911.992 2.73329 2.00191 0
M  V30 9366 C 910.551 2.78175 2.53566 0
M  V30 9367 C 909.698 2.4452 1.30786 0
M  V30 9368 H 912.649 1.55779 0.303073 0
M  V30 9369 H 912.67 2.52506 2.84642 0
M  V30 9370 H 912.182 3.62374 1.3895 0
M  V30 9371 H 910.283 1.93368 3.18496 0
M  V30 9372 H 910.396 3.79905 2.91906 0
M  V30 9373 H 908.76 1.95924 1.62744 0
M  V30 9374 H 909.543 3.35819 0.712797 0
M  V30 9375 N 911.988 -0.768124 1.37614 0
M  V30 9376 C 913.213 -1.56239 1.36397 0
M  V30 9377 C 913.638 -1.8804 -0.0475839 0
M  V30 9378 O 912.996 -1.495 -1.02564 0
M  V30 9379 C 913.044 -2.84716 2.21289 0
M  V30 9380 O 912.148 -3.79249 1.62001 0
M  V30 9381 H 911.489 -0.473119 0.465891 0
M  V30 9382 H 914.019 -0.950415 1.81186 0
M  V30 9383 H 914.029 -3.33784 2.34632 0
M  V30 9384 H 912.704 -2.60899 3.2389 0
M  V30 9385 H 911.281 -3.37904 1.57719 0
M  V30 9386 N 913.466 -1.22244 -0.994698 0
M  V30 9387 C 914.413 -0.990906 -2.08446 0
M  V30 9388 C 915.383 0.086737 -1.65873 0
M  V30 9389 O 916.568 -0.0624882 -1.90698 0
M  V30 9390 C 913.708 -0.572813 -3.40313 0
M  V30 9391 C 912.821 -1.72103 -3.96238 0
M  V30 9392 C 911.956 -1.2511 -5.16257 0
M  V30 9393 C 910.995 -2.37098 -5.64315 0
M  V30 9394 N 910.132 -1.91164 -6.75574 0
M  V30 9395 H 914.972 -1.92377 -2.27585 0
M  V30 9396 H 912.509 -0.958576 -1.11578 0
M  V30 9397 H 914.467 -0.311594 -4.16035 0
M  V30 9398 H 913.097 0.323044 -3.21179 0
M  V30 9399 H 912.149 -2.09662 -3.17405 0
M  V30 9400 H 913.461 -2.56347 -4.27888 0
M  V30 9401 H 912.615 -0.947152 -5.99261 0
M  V30 9402 H 911.354 -0.378836 -4.86226 0
M  V30 9403 H 910.359 -2.68283 -4.799 0
M  V30 9404 H 911.584 -3.24837 -5.96371 0
M  V30 9405 H 909.53 -1.06298 -6.47331 0
M  V30 9406 H 909.447 -2.68975 -7.06533 0
M  V30 9407 H 910.715 -1.63833 -7.62088 0
M  V30 9408 N 914.944 1.19125 -1.03184 0
M  V30 9409 C 916.355 1.70564 -0.759264 0
M  V30 9410 C 916.706 1.8248 0.720794 0
M  V30 9411 O 915.831 1.49804 1.56166 0
M  V30 9412 C 916.426 3.09793 -1.37163 0
M  V30 9413 C 914.985 3.5848 -1.14757 0
M  V30 9414 C 914.132 2.35265 -1.46784 0
M  V30 9415 H 917.083 1.03925 -1.19939 0
M  V30 9416 H 917.104 3.72624 -0.77015 0
M  V30 9417 H 916.616 3.01088 -2.44882 0
M  V30 9418 H 914.717 3.72494 -0.0887182 0
M  V30 9419 H 914.83 4.42426 -1.83836 0
M  V30 9420 H 913.194 2.38747 -0.887254 0
M  V30 9421 H 913.977 2.29188 -2.55593 0
M  V30 9422 N 916.422 0.810101 1.35185 0
M  V30 9423 C 917.65 0.404696 2.02903 0
M  V30 9424 C 918.065 -0.985434 1.61042 0
M  V30 9425 O 917.422 -1.63557 0.809658 0
M  V30 9426 C 917.473 0.482493 3.58266 0
M  V30 9427 O 917.194 1.81782 3.98606 0
M  V30 9428 C 918.695 0.070345 4.43244 0
M  V30 9429 H 915.915 0.163972 0.650657 0
M  V30 9430 H 918.459 1.0947 1.72733 0
M  V30 9431 H 916.614 -0.159296 3.87072 0
M  V30 9432 H 917.028 1.78306 4.93262 0
M  V30 9433 H 918.502 0.175888 5.5172 0
M  V30 9434 H 918.979 -0.984724 4.28018 0
M  V30 9435 H 919.585 0.685427 4.1974 0
M  V30 9436 N 917.9 -1.47166 0.563914 0
M  V30 9437 C 918.863 -2.28571 -0.169624 0
M  V30 9438 C 919.863 -1.37331 -0.836467 0
M  V30 9439 O 921.053 -1.59896 -0.6913 0
M  V30 9440 C 918.185 -3.17201 -1.24886 0
M  V30 9441 H 919.378 -2.94896 0.545539 0
M  V30 9442 H 916.931 -1.52966 0.321121 0
M  V30 9443 H 917.666 -2.55582 -1.99621 0
M  V30 9444 H 917.451 -3.84356 -0.775426 0
M  V30 9445 H 918.941 -3.7852 -1.76388 0
M  V30 9446 N 919.378 -0.300708 -1.54705 0
M  V30 9447 C 920.789 0.191995 -1.8571 0
M  V30 9448 C 921.14 1.53447 -1.22264 0
M  V30 9449 O 920.265 2.10054 -0.520226 0
M  V30 9450 C 920.86 0.355148 -3.36933 0
M  V30 9451 C 919.419 0.792071 -3.67972 0
M  V30 9452 C 918.566 -0.099756 -2.77121 0
M  V30 9453 H 921.517 -0.521729 -1.49879 0
M  V30 9454 H 921.538 1.18977 -3.61421 0
M  V30 9455 H 921.05 -0.622075 -3.83082 0
M  V30 9456 H 919.151 1.77986 -3.27341 0
M  V30 9457 H 919.264 0.611661 -4.75179 0
M  V30 9458 H 917.628 0.420909 -2.51198 0
M  V30 9459 H 918.411 -1.07333 -3.2609 0
M  V30 9460 N 920.856 1.57574 -0.0284266 0
M  V30 9461 C 922.105 1.9095 0.649704 0
M  V30 9462 C 922.418 0.906421 1.7333 0
M  V30 9463 O 923.624 1.1314 2.46803 0
M  V30 9464 C 922.08 3.39061 1.20687 0
M  V30 9465 C 921.688 4.47726 0.156597 0
M  V30 9466 C 923.432 3.81505 1.86156 0
M  V30 9467 C 921.339 5.86935 0.725365 0
M  V30 9468 H 920.269 0.712589 0.24644 0
M  V30 9469 H 922.92 1.83261 -0.0936143 0
M  V30 9470 H 921.302 3.41679 2.00178 0
M  V30 9471 H 922.476 4.56667 -0.6158 0
M  V30 9472 H 920.791 4.14481 -0.399288 0
M  V30 9473 H 923.388 4.82865 2.29665 0
M  V30 9474 H 923.731 3.16529 2.70398 0
M  V30 9475 H 924.264 3.81307 1.13356 0
M  V30 9476 H 921.003 6.55453 -0.0789081 0
M  V30 9477 H 920.523 5.81602 1.46627 0
M  V30 9478 H 922.202 6.35483 1.21532 0
M  V30 9479 N 922.334 -0.244713 1.55689 0
M  V30 9480 C 923.581 -0.972446 1.77622 0
M  V30 9481 C 923.909 -1.85235 0.593137 0
M  V30 9482 O 923.164 -1.91064 -0.423464 0
M  V30 9483 C 923.463 -1.8617 3.05083 0
M  V30 9484 C 923.129 -1.13696 4.3633 0
M  V30 9485 C 921.791 -0.936679 4.71996 0
M  V30 9486 C 924.143 -0.623451 5.17458 0
M  V30 9487 C 921.471 -0.210612 5.86322 0
M  V30 9488 C 923.823 0.0891587 6.32537 0
M  V30 9489 C 922.487 0.300904 6.66821 0
M  V30 9490 H 921.757 -0.355843 0.649967 0
M  V30 9491 H 924.404 -0.242372 1.8996 0
M  V30 9492 H 922.709 -2.6589 2.87767 0
M  V30 9493 H 924.406 -2.4265 3.19253 0
M  V30 9494 H 920.996 -1.30301 4.08313 0
M  V30 9495 H 925.18 -0.765725 4.90357 0
M  V30 9496 H 920.436 -0.0361062 6.11389 0
M  V30 9497 H 924.61 0.494685 6.94641 0
M  V30 9498 H 922.237 0.865466 7.55257 0
M  V30 9499 N 923.813 -1.49104 -0.510467 0
M  V30 9500 C 924.743 -1.67981 -1.62187 0
M  V30 9501 C 925.724 -0.528529 -1.6168 0
M  V30 9502 O 926.909 -0.763305 -1.7857 0
M  V30 9503 C 924.039 -1.73755 -3.0071 0
M  V30 9504 C 922.993 -2.88579 -3.1608 0
M  V30 9505 C 922.319 -2.79457 -4.5586 0
M  V30 9506 C 923.619 -4.29638 -2.97 0
M  V30 9507 H 925.313 -2.61029 -1.46643 0
M  V30 9508 H 922.859 -1.25615 -0.704042 0
M  V30 9509 H 924.812 -1.85548 -3.78352 0
M  V30 9510 H 923.536 -0.772996 -3.17321 0
M  V30 9511 H 922.195 -2.76372 -2.40861 0
M  V30 9512 H 921.843 -1.80929 -4.69333 0
M  V30 9513 H 921.543 -3.56518 -4.67086 0
M  V30 9514 H 923.067 -2.93245 -5.35574 0
M  V30 9515 H 924.481 -4.42575 -3.64418 0
M  V30 9516 H 922.878 -5.07847 -3.19704 0
M  V30 9517 H 923.948 -4.44741 -1.93219 0
M  V30 9518 N 925.291 0.760815 -1.38019 0
M  V30 9519 C 926.223 1.88387 -1.30549 0
M  V30 9520 C 927.236 1.61319 -0.219119 0
M  V30 9521 O 928.425 1.72033 -0.476122 0
M  V30 9522 C 925.525 3.23863 -0.998291 0
M  V30 9523 C 924.698 3.78492 -2.19232 0
M  V30 9524 C 923.757 4.92468 -1.85368 0
M  V30 9525 O 922.783 5.0748 -2.57785 0
M  V30 9526 N 923.985 5.74901 -0.804319 0
M  V30 9527 H 926.75 1.95308 -2.27322 0
M  V30 9528 H 924.311 0.940423 -1.31786 0
M  V30 9529 H 926.303 3.97644 -0.7524 0
M  V30 9530 H 924.873 3.12374 -0.11877 0
M  V30 9531 H 924.093 2.96361 -2.5993 0
M  V30 9532 H 925.381 4.11722 -2.98935 0
M  V30 9533 H 924.779 5.65333 -0.203628 0
M  V30 9534 H 923.336 6.48861 -0.618301 0
M  V30 9535 N 926.769 1.22769 0.988202 0
M  V30 9536 C 928.017 1.05301 1.725 0
M  V30 9537 C 928.338 -0.412103 1.90596 0
M  V30 9538 O 927.608 -1.29606 1.46898 0
M  V30 9539 H 926.188 0.386658 0.639144 0
M  V30 9540 H 928.85 1.54359 1.18993 0
M  V30 9541 H 927.946 1.53465 2.71763 0
M  V30 9542 N 928.247 -1.18576 1.03814 0
M  V30 9543 C 929.177 -2.24334 0.647795 0
M  V30 9544 C 930.158 -1.66508 -0.34774 0
M  V30 9545 O 931.343 -1.92852 -0.228401 0
M  V30 9546 C 928.473 -3.47299 0.00734922 0
M  V30 9547 C 927.427 -4.17859 0.926152 0
M  V30 9548 C 926.753 -5.34489 0.150317 0
M  V30 9549 C 928.053 -4.71632 2.24411 0
M  V30 9550 H 929.747 -2.57241 1.53191 0
M  V30 9551 H 927.293 -1.23649 0.738028 0
M  V30 9552 H 929.246 -4.20486 -0.277434 0
M  V30 9553 H 927.97 -3.13619 -0.911626 0
M  V30 9554 H 926.629 -3.46567 1.19528 0
M  V30 9555 H 926.277 -4.97056 -0.770985 0
M  V30 9556 H 925.977 -5.82633 0.762407 0
M  V30 9557 H 927.501 -6.10467 -0.127508 0
M  V30 9558 H 928.915 -5.36526 2.02021 0
M  V30 9559 H 927.312 -5.303 2.80894 0
M  V30 9560 H 928.382 -3.89192 2.89236 0
M  V30 9561 N 929.725 -0.817259 -1.34754 0
M  V30 9562 C 930.95 -0.414423 -2.03217 0
M  V30 9563 C 931.375 0.970037 -1.61158 0
M  V30 9564 O 930.733 1.63016 -0.793436 0
M  V30 9565 C 930.781 -0.518087 -3.56859 0
M  V30 9566 O 929.885 0.464314 -4.09778 0
M  V30 9567 H 929.226 -0.171454 -0.641482 0
M  V30 9568 H 931.756 -1.10611 -1.72123 0
M  V30 9569 H 931.766 -0.391779 -4.06115 0
M  V30 9570 H 930.441 -1.52786 -3.86819 0
M  V30 9571 H 929.018 0.297361 -3.71712 0
M  V30 9572 N 931.203 1.46865 -0.571711 0
M  V30 9573 C 932.48 1.95596 0.0132445 0
M  V30 9574 C 932.86 1.51438 1.47071 0
M  V30 9575 O 932.208 0.759917 2.15494 0
M  V30 9576 C 932.418 3.48689 -0.147335 0
M  V30 9577 C 933.766 4.24599 -0.00946329 0
M  V30 9578 O 934.79 3.5612 -0.0756112 0
M  V30 9579 O 933.649 5.46332 0.135361 0
M  V30 9580 H 930.743 0.825102 0.0560039 0
M  V30 9581 H 933.289 1.57199 -0.639256 0
M  V30 9582 H 932.061 3.73681 -1.16096 0
M  V30 9583 H 931.684 3.93887 0.542109 0
M  V30 9584 N 932.681 0.308908 1.54543 0
M  V30 9585 C 933.611 -0.556657 2.26768 0
M  V30 9586 C 934.592 -1.13145 1.27013 0
M  V30 9587 O 935.777 -1.15931 1.558 0
M  V30 9588 C 932.907 -1.72481 3.01443 0
M  V30 9589 C 931.861 -1.28001 4.08411 0
M  V30 9590 C 931.187 -2.53395 4.70845 0
M  V30 9591 C 932.487 -0.405497 5.20724 0
M  V30 9592 H 934.181 0.0457618 2.99365 0
M  V30 9593 H 931.727 0.0234495 1.43981 0
M  V30 9594 H 933.68 -2.3365 3.50693 0
M  V30 9595 H 932.404 -2.35359 2.26437 0
M  V30 9596 H 931.063 -0.69133 3.60022 0
M  V30 9597 H 930.711 -3.14604 3.92471 0
M  V30 9598 H 930.411 -2.2433 5.43093 0
M  V30 9599 H 931.935 -3.15352 5.22863 0
M  V30 9600 H 933.349 -0.923076 5.6582 0
M  V30 9601 H 931.746 -0.208282 5.99738 0
M  V30 9602 H 932.816 0.567412 4.81569 0
M  V30 9603 N 934.159 -1.57557 0.0367827 0
M  V30 9604 C 935.106 -2.10679 -0.942499 0
M  V30 9605 C 936.076 -1.01068 -1.31812 0
M  V30 9606 O 937.261 -1.28533 -1.41011 0
M  V30 9607 C 934.401 -2.64467 -2.21701 0
M  V30 9608 C 933.514 -3.88114 -1.89715 0
M  V30 9609 C 932.649 -4.30268 -3.11518 0
M  V30 9610 C 931.688 -5.46652 -2.75387 0
M  V30 9611 N 930.825 -5.83927 -3.89838 0
M  V30 9612 H 935.665 -2.94066 -0.482588 0
M  V30 9613 H 933.202 -1.45344 -0.226597 0
M  V30 9614 H 935.16 -2.93745 -2.96259 0
M  V30 9615 H 933.79 -1.83898 -2.65295 0
M  V30 9616 H 932.842 -3.65516 -1.05366 0
M  V30 9617 H 934.154 -4.72743 -1.5911 0
M  V30 9618 H 933.308 -4.61023 -3.94389 0
M  V30 9619 H 932.047 -3.44421 -3.4529 0
M  V30 9620 H 931.052 -5.15583 -1.90929 0
M  V30 9621 H 932.277 -6.34204 -2.42822 0
M  V30 9622 H 930.223 -5.01035 -4.23438 0
M  V30 9623 H 930.14 -6.63214 -3.62883 0
M  V30 9624 H 931.408 -6.19291 -4.73391 0
M  V30 9625 N 935.637 0.236453 -1.55816 0
M  V30 9626 C 936.883 0.964439 -1.784 0
M  V30 9627 C 937.216 1.84573 -0.603868 0
M  V30 9628 O 936.491 1.90395 0.397473 0
M  V30 9629 C 936.774 1.81608 -3.10951 0
M  V30 9630 C 936.627 0.962283 -4.39386 0
M  V30 9631 C 937.946 2.79665 -3.39817 0
M  V30 9632 H 935.065 0.349192 -0.649026 0
M  V30 9633 H 937.707 0.234247 -1.8855 0
M  V30 9634 H 935.857 2.43864 -3.02428 0
M  V30 9635 H 937.529 0.35762 -4.59912 0
M  V30 9636 H 935.772 0.267062 -4.32977 0
M  V30 9637 H 936.443 1.59222 -5.28538 0
M  V30 9638 H 938.919 2.27546 -3.4837 0
M  V30 9639 H 937.795 3.36367 -4.33761 0
M  V30 9640 H 938.056 3.56657 -2.61244 0
M  V30 9641 N 937.115 1.49373 0.502552 0
M  V30 9642 C 938.048 1.60529 1.6219 0
M  V30 9643 C 939.026 0.454431 1.56121 0
M  V30 9644 O 940.21 0.669768 1.762 0
M  V30 9645 C 937.337 1.55879 3.00698 0
M  V30 9646 C 936.383 2.76143 3.25034 0
M  V30 9647 S 937.216 4.37831 3.08325 0
M  V30 9648 C 938.372 4.35824 4.49231 0
M  V30 9649 H 938.605 2.55219 1.52482 0
M  V30 9650 H 936.138 1.38244 0.687594 0
M  V30 9651 H 938.096 1.53882 3.80566 0
M  V30 9652 H 936.757 0.624791 3.07823 0
M  V30 9653 H 935.95 2.69104 4.26144 0
M  V30 9654 H 935.552 2.75544 2.52886 0
M  V30 9655 H 937.844 4.07447 5.41288 0
M  V30 9656 H 938.787 5.37206 4.6132 0
M  V30 9657 H 939.195 3.65923 4.29838 0
M  V30 9658 N 938.594 -0.753485 1.38421 0
M  V30 9659 C 939.871 -1.50318 1.25155 0
M  V30 9660 C 940.251 -2.10588 -0.147003 0
M  V30 9661 O 939.599 -1.97071 -1.15651 0
M  V30 9662 C 939.809 -2.56946 2.36177 0
M  V30 9663 C 941.157 -3.23846 2.74607 0
M  V30 9664 O 942.181 -2.67251 2.3549 0
M  V30 9665 O 941.04 -4.2621 3.42064 0
M  V30 9666 H 938.134 -0.666624 0.48943 0
M  V30 9667 H 940.68 -0.788887 1.50249 0
M  V30 9668 H 939.452 -2.1066 3.29754 0
M  V30 9669 H 939.075 -3.35956 2.12648 0
M  V30 9670 N 940.072 -1.23292 -0.981677 0
M  V30 9671 C 941.32 -1.06214 -1.71939 0
M  V30 9672 C 941.641 0.401989 -1.90812 0
M  V30 9673 O 940.911 1.28825 -1.47584 0
M  V30 9674 H 939.491 -0.390042 -0.637084 0
M  V30 9675 H 942.153 -1.54988 -1.18173 0
M  V30 9676 H 941.249 -1.54904 -2.70945 0
M  V30 9677 N 941.55 1.18024 -1.04442 0
M  V30 9678 C 942.775 1.92573 -0.770097 0
M  V30 9679 C 943.2 1.75871 0.667169 0
M  V30 9680 O 942.558 1.07136 1.46258 0
M  V30 9681 C 942.606 3.41904 -1.14602 0
M  V30 9682 O 941.71 4.11491 -0.273712 0
M  V30 9683 H 941.051 0.600636 -0.283076 0
M  V30 9684 H 943.581 1.49645 -1.39526 0
M  V30 9685 H 943.591 3.92623 -1.10956 0
M  V30 9686 H 942.266 3.53382 -2.19304 0
M  V30 9687 H 940.843 3.71059 -0.370124 0
M  V30 9688 N 943.028 0.824394 1.34319 0
M  V30 9689 C 943.96 0.204805 2.28283 0
M  V30 9690 C 944.973 -0.606162 1.51094 0
M  V30 9691 O 946.162 -0.435602 1.73103 0
M  V30 9692 C 943.262 -0.73139 3.30914 0
M  V30 9693 C 942.435 0.0370723 4.37384 0
M  V30 9694 C 941.494 -0.820272 5.19767 0
M  V30 9695 O 940.52 -0.264721 5.68584 0
M  V30 9696 N 941.722 -2.13984 5.39621 0
M  V30 9697 H 944.487 1.0121 2.82093 0
M  V30 9698 H 942.048 0.681494 1.46858 0
M  V30 9699 H 944.04 -1.30958 3.82926 0
M  V30 9700 H 942.61 -1.43943 2.77487 0
M  V30 9701 H 941.83 0.796578 3.86068 0
M  V30 9702 H 943.118 0.566014 5.05642 0
M  V30 9703 H 942.516 -2.61492 5.01636 0
M  V30 9704 H 941.073 -2.66685 5.94746 0
M  V30 9705 N 944.506 -1.46559 0.579492 0
M  V30 9706 C 945.752 -2.02699 0.0639363 0
M  V30 9707 C 946.085 -1.4504 -1.29139 0
M  V30 9708 O 945.36 -0.614284 -1.84545 0
M  V30 9709 C 945.643 -3.601 -0.00528618 0
M  V30 9710 C 945.496 -4.28149 1.37871 0
M  V30 9711 C 946.815 -4.34375 -0.707537 0
M  V30 9712 H 943.934 -0.736586 0.0247085 0
M  V30 9713 H 946.576 -1.74739 0.746071 0
M  V30 9714 H 944.726 -3.84052 -0.586206 0
M  V30 9715 H 946.398 -4.1547 2.00455 0
M  V30 9716 H 944.641 -3.87636 1.94732 0
M  V30 9717 H 945.312 -5.36888 1.28278 0
M  V30 9718 H 947.788 -4.15549 -0.214064 0
M  V30 9719 H 946.664 -5.44091 -0.724992 0
M  V30 9720 H 946.925 -4.052 -1.7682 0
M  V30 9721 N 945.984 -0.3171 -1.54377 0
M  V30 9722 C 947.212 0.289558 -2.04864 0
M  V30 9723 C 947.627 1.46284 -1.19359 0
M  V30 9724 O 946.984 1.81135 -0.222795 0
M  V30 9725 C 947.035 0.730273 -3.54047 0
M  V30 9726 O 946.756 -0.396325 -4.36304 0
M  V30 9727 C 948.257 1.40041 -4.20599 0
M  V30 9728 H 945.477 0.0605836 -0.668259 0
M  V30 9729 H 948.021 -0.461411 -1.99227 0
M  V30 9730 H 946.176 1.43123 -3.59992 0
M  V30 9731 H 946.59 -0.0502901 -5.24476 0
M  V30 9732 H 948.064 1.65979 -5.26455 0
M  V30 9733 H 948.541 2.34565 -3.71316 0
M  V30 9734 H 949.147 0.742206 -4.18774 0
M  V30 9735 N 947.462 1.57535 -0.0451378 0
M  V30 9736 C 948.395 2.06721 0.96653 0
M  V30 9737 C 949.373 0.966392 1.30766 0
M  V30 9738 O 950.557 1.23789 1.42157 0
M  V30 9739 C 947.684 2.50266 2.2822 0
M  V30 9740 C 946.73 3.71525 2.09455 0
M  V30 9741 S 947.563 5.17453 1.37851 0
M  V30 9742 C 948.719 5.64308 2.70753 0
M  V30 9743 H 948.952 2.92207 0.547911 0
M  V30 9744 H 946.485 1.53494 0.166973 0
M  V30 9745 H 948.443 2.76019 3.03849 0
M  V30 9746 H 947.104 1.65097 2.67211 0
M  V30 9747 H 946.297 3.99894 3.06759 0
M  V30 9748 H 945.899 3.46008 1.41967 0
M  V30 9749 H 948.191 5.69525 3.66943 0
M  V30 9750 H 949.134 6.63613 2.47028 0
M  V30 9751 H 949.542 4.92014 2.76736 0
M  V30 9752 N 948.94 -0.228186 1.55939 0
M  V30 9753 C 950.168 -0.970618 1.8272 0
M  V30 9754 C 950.583 -1.78212 0.623385 0
M  V30 9755 O 949.94 -1.77879 -0.408063 0
M  V30 9756 C 949.991 -1.89352 3.07942 0
M  V30 9757 O 949.712 -1.11483 4.23678 0
M  V30 9758 C 951.213 -2.75039 3.47661 0
M  V30 9759 H 948.433 -0.284772 0.607574 0
M  V30 9760 H 950.977 -0.245419 2.03022 0
M  V30 9761 H 949.132 -2.57275 2.89635 0
M  V30 9762 H 949.546 -1.74073 4.94772 0
M  V30 9763 H 951.02 -3.35511 4.38334 0
M  V30 9764 H 951.497 -3.471 2.69106 0
M  V30 9765 H 952.103 -2.1254 3.68384 0
M  V30 9766 N 950.418 -1.49637 -0.494624 0
M  V30 9767 C 951.664 -1.59681 -1.25019 0
M  V30 9768 C 951.997 -0.285511 -1.9209 0
M  V30 9769 O 951.272 0.711398 -1.81023 0
M  V30 9770 C 951.555 -2.76058 -2.31222 0
M  V30 9771 C 951.408 -4.17002 -1.68611 0
M  V30 9772 C 952.727 -2.88056 -3.32734 0
M  V30 9773 H 949.846 -0.581209 -0.453172 0
M  V30 9774 H 952.488 -1.81944 -0.547391 0
M  V30 9775 H 950.638 -2.57207 -2.91164 0
M  V30 9776 H 952.31 -4.47385 -1.12447 0
M  V30 9777 H 950.553 -4.22352 -0.989991 0
M  V30 9778 H 951.224 -4.94316 -2.45674 0
M  V30 9779 H 953.7 -3.05237 -2.82789 0
M  V30 9780 H 952.576 -3.71151 -4.04399 0
M  V30 9781 H 952.837 -1.97676 -3.95445 0
M  V30 9782 N 951.896 0.746133 -1.38819 0
M  V30 9783 C 952.828 1.86991 -1.3254 0
M  V30 9784 C 953.841 1.61077 -0.236216 0
M  V30 9785 O 955.03 1.71518 -0.494341 0
M  V30 9786 C 952.13 3.22786 -1.03258 0
M  V30 9787 C 951.303 3.76145 -2.23234 0
M  V30 9788 C 950.362 4.90474 -1.90581 0
M  V30 9789 O 949.388 5.04717 -2.63153 0
M  V30 9790 N 950.59 5.74015 -0.86525 0
M  V30 9791 H 953.355 1.92885 -2.2938 0
M  V30 9792 H 950.916 0.926392 -1.32776 0
M  V30 9793 H 952.908 3.96824 -0.794533 0
M  V30 9794 H 951.478 3.12231 -0.151895 0
M  V30 9795 H 950.698 2.93587 -2.63059 0
M  V30 9796 H 951.986 4.08528 -3.03285 0
M  V30 9797 H 951.384 5.65086 -0.263577 0
M  V30 9798 H 949.941 6.48168 -0.687087 0
M  V30 9799 N 953.375 1.23811 0.975125 0
M  V30 9800 C 954.621 1.07495 1.71967 0
M  V30 9801 C 954.954 -0.386451 1.90316 0
M  V30 9802 O 954.229 -1.28591 1.45927 0
M  V30 9803 C 954.512 1.80694 3.11483 0
M  V30 9804 C 954.365 3.3454 3.00671 0
M  V30 9805 C 955.684 1.57367 4.11003 0
M  V30 9806 H 952.803 0.3919 0.624166 0
M  V30 9807 H 955.445 1.52383 1.13487 0
M  V30 9808 H 953.595 1.42538 3.61407 0
M  V30 9809 H 955.267 3.8225 2.5823 0
M  V30 9810 H 953.51 3.63301 2.37054 0
M  V30 9811 H 954.181 3.80951 3.99475 0
M  V30 9812 H 956.657 1.90545 3.69908 0
M  V30 9813 H 955.533 2.11052 5.06703 0
M  V30 9814 H 955.794 0.510221 4.39146 0
M  V30 9815 N 954.853 -1.17469 1.05066 0
M  V30 9816 C 956.078 -1.92162 0.780298 0
M  V30 9817 C 956.503 -1.76222 -0.657832 0
M  V30 9818 O 955.861 -1.0791 -1.45688 0
M  V30 9819 C 955.909 -3.41292 1.16414 0
M  V30 9820 O 955.013 -4.1134 0.295531 0
M  V30 9821 H 954.354 -0.599127 0.286257 0
M  V30 9822 H 956.884 -1.48903 1.40318 0
M  V30 9823 H 956.894 -3.92029 1.13036 0
M  V30 9824 H 955.569 -3.52214 2.21175 0
M  V30 9825 H 954.146 -3.70857 0.389797 0
M  V30 9826 N 956.331 -0.831506 -1.3388 0
M  V30 9827 C 957.579 -0.422837 -1.97627 0
M  V30 9828 C 957.9 1.01961 -1.6622 0
M  V30 9829 O 957.17 1.70916 -0.957323 0
M  V30 9830 H 955.75 -0.153365 -0.731087 0
M  V30 9831 H 958.412 -1.06284 -1.6337 0
M  V30 9832 H 957.508 -0.548858 -3.07236 0
M  V30 9833 N 957.809 1.4625 -0.587256 0
M  V30 9834 C 958.757 2.32076 0.156108 0
M  V30 9835 C 959.751 1.44756 0.879887 0
M  V30 9836 O 960.957 1.61356 0.797759 0
M  V30 9837 H 957.332 0.748808 0.0692098 0
M  V30 9838 H 959.303 2.9258 -0.586497 0
M  V30 9839 C 958.052 3.28008 1.15352 0
M  V30 9840 H 957.375 3.9518 0.60601 0
M  V30 9841 H 958.815 3.90832 1.64396 0
M  V30 9842 C 957.274 2.53691 2.21681 0
M  V30 9843 O 957.804 2.30329 3.29107 0
M  V30 9844 N 956.01 2.14174 1.96412 0
M  V30 9845 H 955.557 2.33374 1.09061 0
M  V30 9846 H 955.515 1.6477 2.67765 0
M  V30 9847 N 959.287 0.325282 1.54207 0
M  V30 9848 C 960.698 -0.162426 1.85992 0
M  V30 9849 C 961.049 -1.51482 1.2469 0
M  V30 9850 O 960.174 -2.092 0.553578 0
M  V30 9851 C 960.769 -0.3015 3.37456 0
M  V30 9852 C 959.328 -0.73343 3.69185 0
M  V30 9853 C 958.475 0.143831 2.76927 0
M  V30 9854 H 961.426 0.545508 1.4903 0
M  V30 9855 H 961.447 -1.13212 3.63268 0
M  V30 9856 H 960.959 0.682942 3.82044 0
M  V30 9857 H 959.06 -1.72755 3.30131 0
M  V30 9858 H 959.173 -0.535987 4.76092 0
M  V30 9859 H 957.537 -0.380892 2.51836 0
M  V30 9860 H 958.32 1.12507 3.24341 0
M  V30 9861 N 960.765 -1.57509 0.0534917 0
M  V30 9862 C 962.176 -1.80374 -0.481867 0
M  V30 9863 C 962.527 -0.965917 -1.70776 0
M  V30 9864 O 961.652 -0.183167 -2.15623 0
M  V30 9865 C 962.247 -3.27146 -0.880978 0
M  V30 9866 C 960.806 -3.50921 -1.3613 0
M  V30 9867 C 959.953 -2.75237 -0.337611 0
M  V30 9868 H 962.904 -1.56222 0.279353 0
M  V30 9869 H 962.925 -3.38193 -1.74373 0
M  V30 9870 H 962.437 -3.88098 0.011441 0
M  V30 9871 H 960.538 -2.95251 -2.27283 0
M  V30 9872 H 960.651 -4.59632 -1.35186 0
M  V30 9873 H 959.015 -2.41444 -0.810991 0
M  V30 9874 H 959.798 -3.38918 0.546763 0
M  V30 9875 N 962.243 0.219913 -1.56058 0
M  V30 9876 C 963.654 0.786766 -1.69313 0
M  V30 9877 C 964.005 1.84916 -0.655782 0
M  V30 9878 O 963.13 2.1554 0.192772 0
M  V30 9879 C 963.725 1.43387 -3.06962 0
M  V30 9880 C 962.284 1.94809 -3.22066 0
M  V30 9881 C 961.431 0.808863 -2.65241 0
M  V30 9882 H 964.382 -0.00476777 -1.58699 0
M  V30 9883 H 964.403 2.30272 -3.02911 0
M  V30 9884 H 963.915 0.660405 -3.8244 0
M  V30 9885 H 962.016 2.74952 -2.5146 0
M  V30 9886 H 962.129 2.12694 -4.293 0
M  V30 9887 H 960.493 1.21661 -2.23765 0
M  V30 9888 H 961.276 0.0480458 -3.43266 0
M  V30 9889 N 963.721 1.49897 0.486681 0
M  V30 9890 C 964.631 1.70379 1.6127 0
M  V30 9891 C 965.647 0.58659 1.63814 0
M  V30 9892 O 966.823 0.863044 1.81971 0
M  V30 9893 C 963.888 1.77911 2.97571 0
M  V30 9894 C 962.949 3.01569 3.0554 0
M  V30 9895 C 962.182 3.08732 4.35339 0
M  V30 9896 O 962.405 2.23099 5.2496 0
M  V30 9897 O 961.339 4.01325 4.48578 0
M  V30 9898 H 965.165 2.65799 1.46916 0
M  V30 9899 H 962.75 1.33808 0.664516 0
M  V30 9900 H 964.632 1.85135 3.78554 0
M  V30 9901 H 963.307 0.856722 3.12157 0
M  V30 9902 H 962.214 2.99854 2.23693 0
M  V30 9903 H 963.547 3.93335 2.95886 0
M  V30 9904 N 965.199 -0.738761 1.39212 0
M  V30 9905 C 966.445 -1.50046 1.36433 0
M  V30 9906 C 966.778 -1.94157 -0.0409474 0
M  V30 9907 O 966.053 -1.66515 -1.00514 0
M  V30 9908 C 966.336 -2.74277 2.33333 0
M  V30 9909 C 966.189 -2.36209 3.82786 0
M  V30 9910 C 967.508 -3.76361 2.28123 0
M  V30 9911 H 964.627 -0.544294 0.496903 0
M  V30 9912 H 967.269 -0.845005 1.70175 0
M  V30 9913 H 965.419 -3.30204 2.04689 0
M  V30 9914 H 967.091 -1.85942 4.22165 0
M  V30 9915 H 965.334 -1.68483 3.99745 0
M  V30 9916 H 966.005 -3.25156 4.46069 0
M  V30 9917 H 968.481 -3.30009 2.53443 0
M  V30 9918 H 967.357 -4.60957 2.9801 0
M  V30 9919 H 967.618 -4.23013 1.28499 0
M  V30 9920 N 966.677 -1.24326 -0.968545 0
M  V30 9921 C 967.926 -1.07647 -1.70572 0
M  V30 9922 C 968.239 0.384821 -1.91777 0
M  V30 9923 O 969.445 0.671782 -2.63058 0
M  V30 9924 C 967.901 -1.87799 -3.07017 0
M  V30 9925 C 967.509 -3.38333 -2.93658 0
M  V30 9926 C 969.253 -1.79647 -3.84613 0
M  V30 9927 C 967.16 -4.10831 -4.25407 0
M  V30 9928 H 966.09 -0.399216 -0.639642 0
M  V30 9929 H 968.741 -1.484 -1.07934 0
M  V30 9930 H 967.123 -1.3986 -3.7048 0
M  V30 9931 H 968.297 -3.93845 -2.39213 0
M  V30 9932 H 966.612 -3.47427 -2.29528 0
M  V30 9933 H 969.209 -2.31116 -4.82172 0
M  V30 9934 H 969.552 -0.761553 -4.09275 0
M  V30 9935 H 970.085 -2.25261 -3.27875 0
M  V30 9936 H 966.824 -5.14679 -4.05939 0
M  V30 9937 H 966.344 -3.60105 -4.79671 0
M  V30 9938 H 968.023 -4.17783 -4.94031 0
M  V30 9939 N 968.156 1.1691 -1.05688 0
M  V30 9940 C 969.402 1.87814 -0.780871 0
M  V30 9941 C 969.757 1.79796 0.684926 0
M  V30 9942 O 969.05 1.19853 1.49485 0
M  V30 9943 C 969.244 3.36578 -1.20207 0
M  V30 9944 C 969.073 3.59078 -2.70727 0
M  V30 9945 C 967.843 3.75515 -3.38107 0
M  V30 9946 C 970.041 3.58307 -3.68946 0
M  V30 9947 N 968.023 3.85906 -4.77441 0
M  V30 9948 C 969.394 3.74608 -4.94033 0
M  V30 9949 C 971.449 3.41484 -3.62343 0
M  V30 9950 C 970.152 3.75828 -6.13307 0
M  V30 9951 C 972.178 3.43995 -4.81063 0
M  V30 9952 C 971.54 3.60809 -6.04976 0
M  V30 9953 H 967.639 0.705158 -0.338047 0
M  V30 9954 H 970.223 1.40315 -1.34981 0
M  V30 9955 H 968.394 3.82734 -0.661031 0
M  V30 9956 H 970.126 3.95119 -0.875377 0
M  V30 9957 H 966.881 3.7558 -2.88508 0
M  V30 9958 H 967.305 3.94886 -5.49904 0
M  V30 9959 H 971.947 3.27417 -2.67503 0
M  V30 9960 H 969.665 3.88679 -7.08487 0
M  V30 9961 H 973.251 3.3223 -4.77613 0
M  V30 9962 H 972.131 3.62663 -6.95302 0
M  V30 9963 N 969.634 0.838594 1.33437 0
M  V30 9964 C 970.564 0.286672 2.31734 0
M  V30 9965 C 971.545 -0.605451 1.5896 0
M  V30 9966 O 972.73 -0.529059 1.86854 0
M  V30 9967 C 969.86 -0.539311 3.43087 0
M  V30 9968 C 968.814 0.256997 4.27228 0
M  V30 9969 C 968.14 -0.692718 5.30194 0
M  V30 9970 C 969.44 1.47391 5.01072 0
M  V30 9971 H 971.134 1.10798 2.78144 0
M  V30 9972 H 968.68 0.534235 1.33723 0
M  V30 9973 H 970.633 -0.935724 4.1088 0
M  V30 9974 H 969.357 -1.39383 2.95364 0
M  V30 9975 H 968.016 0.634967 3.61059 0
M  V30 9976 H 967.664 -1.54363 4.78729 0
M  V30 9977 H 967.364 -0.164023 5.87371 0
M  V30 9978 H 968.888 -1.08665 6.00853 0
M  V30 9979 H 970.302 1.15067 5.61634 0
M  V30 9980 H 968.699 1.93937 5.67898 0
M  V30 9981 H 969.769 2.24382 4.29861 0
M  V30 9982 N 971.112 -1.45937 0.595003 0
M  V30 9983 C 972.062 -2.27491 -0.152331 0
M  V30 9984 C 973.046 -1.36591 -0.850396 0
M  V30 9985 O 974.238 -1.60675 -0.742462 0
M  V30 9986 C 971.367 -3.23203 -1.15735 0
M  V30 9987 C 970.453 -4.2159 -0.46077 0
M  V30 9988 N 970.844 -5.03416 0.490555 0
M  V30 9989 C 969.142 -4.40313 -0.709949 0
M  V30 9990 C 969.843 -5.74714 0.898825 0
M  V30 9991 N 968.819 -5.43046 0.24529 0
M  V30 9992 H 972.621 -2.8815 0.578526 0
M  V30 9993 H 970.135 -1.56936 0.417716 0
M  V30 9994 H 972.132 -3.8035 -1.70704 0
M  V30 9995 H 970.792 -2.64104 -1.8889 0
M  V30 9996 H 971.803 -5.10597 0.866692 0
M  V30 9997 H 968.48 -3.92351 -1.42713 0
M  V30 9998 H 969.87 -6.50487 1.68273 0
M  V30 9999 N 972.59 -0.333456 -1.54032 0
M  V30 10000 C 973.538 0.543414 -2.26163 0
M  V30 10001 C 974.532 1.11037 -1.27934 0
M  V30 10002 O 975.738 1.05727 -1.45677 0
M  V30 10003 H 972.113 0.19391 -0.726569 0
M  V30 10004 H 974.084 -0.0871052 -2.98273 0
M  V30 10005 C 972.833 1.68769 -3.03994 0
M  V30 10006 H 972.156 1.26069 -3.79403 0
M  V30 10007 H 973.596 2.27662 -3.57695 0
M  V30 10008 C 972.055 2.61117 -2.12884 0
M  V30 10009 O 972.585 3.63097 -1.71823 0
M  V30 10010 N 970.791 2.29573 -1.7817 0
M  V30 10011 H 970.338 1.46684 -2.11759 0
M  V30 10012 H 970.296 2.91622 -1.1749 0
M  V30 10013 N 974.068 1.57479 -0.061844 0
M  V30 10014 C 975.316 1.92727 0.608336 0
M  V30 10015 C 975.637 0.941799 1.70749 0
M  V30 10016 O 974.907 -0.0116608 1.95897 0
M  V30 10017 H 973.487 0.71145 0.2277 0
M  V30 10018 H 976.149 1.94546 -0.117359 0
M  V30 10019 H 975.245 2.9426 1.04007 0
M  V30 10020 N 975.546 -0.211634 1.56173 0
M  V30 10021 C 976.494 -1.28188 1.94089 0
M  V30 10022 C 977.488 -1.47999 0.824167 0
M  V30 10023 O 978.694 -1.49056 1.00907 0
M  V30 10024 H 975.069 -0.42999 0.616938 0
M  V30 10025 H 977.04 -0.934962 2.83374 0
M  V30 10026 C 975.789 -2.62294 2.28248 0
M  V30 10027 H 975.112 -2.4786 3.13696 0
M  V30 10028 H 976.552 -3.35967 2.58655 0
M  V30 10029 C 975.011 -3.18049 1.11113 0
M  V30 10030 O 975.541 -3.99923 0.377458 0
M  V30 10031 N 973.747 -2.76561 0.892321 0
M  V30 10032 H 973.294 -2.10088 1.49067 0
M  V30 10033 H 973.252 -3.14206 0.110344 0
M  V30 10034 N 977.024 -1.50153 -0.478725 0
M  V30 10035 C 977.934 -1.71232 -1.60364 0
M  V30 10036 C 978.95 -0.595269 -1.63501 0
M  V30 10037 O 980.126 -0.872683 -1.81511 0
M  V30 10038 C 977.191 -1.79487 -2.96623 0
M  V30 10039 C 976.252 -3.03185 -3.03937 0
M  V30 10040 C 975.485 -3.11036 -4.33696 0
M  V30 10041 O 975.708 -2.2588 -5.23769 0
M  V30 10042 O 974.642 -4.03698 -4.46443 0
M  V30 10043 H 978.468 -2.66575 -1.45505 0
M  V30 10044 H 976.053 -1.34158 -0.65741 0
M  V30 10045 H 977.935 -1.8714 -3.77567 0
M  V30 10046 H 976.61 -0.873264 -3.11698 0
M  V30 10047 H 975.517 -3.01036 -2.22099 0
M  V30 10048 H 976.85 -3.94898 -2.93796 0
M  V30 10049 N 978.502 0.731368 -1.39602 0
M  V30 10050 C 979.751 1.48647 -1.36334 0
M  V30 10051 C 980.064 1.95565 0.0367383 0
M  V30 10052 O 981.27 2.7082 0.192017 0
M  V30 10053 C 979.726 2.68616 -2.39528 0
M  V30 10054 C 979.334 2.28632 -3.85268 0
M  V30 10055 C 981.078 3.46422 -2.45341 0
M  V30 10056 C 978.985 3.45345 -4.80095 0
M  V30 10057 H 977.915 0.558218 -0.506861 0
M  V30 10058 H 980.566 0.797467 -1.65266 0
M  V30 10059 H 978.948 3.39609 -2.03671 0
M  V30 10060 H 980.122 1.65162 -4.30184 0
M  V30 10061 H 978.437 1.63909 -3.82783 0
M  V30 10062 H 981.034 4.33241 -3.13379 0
M  V30 10063 H 981.377 3.8914 -1.47904 0
M  V30 10064 H 981.91 2.82461 -2.80108 0
M  V30 10065 H 978.649 3.07674 -5.78807 0
M  V30 10066 H 978.169 4.07784 -4.39855 0
M  V30 10067 H 979.848 4.1163 -4.99169 0
M  V30 10068 N 979.98 1.24838 0.961938 0
M  V30 10069 C 980.912 1.00369 2.06055 0
M  V30 10070 C 981.925 -0.0288583 1.62774 0
M  V30 10071 O 983.114 0.208853 1.77274 0
M  V30 10072 C 980.214 0.493953 3.35281 0
M  V30 10073 C 979.387 1.59097 4.07439 0
M  V30 10074 C 978.446 1.08288 5.14937 0
M  V30 10075 O 977.472 1.77577 5.40791 0
M  V30 10076 N 978.674 -0.0796836 5.80445 0
M  V30 10077 H 981.439 1.94962 2.27618 0
M  V30 10078 H 979 1.15945 1.12997 0
M  V30 10079 H 980.992 0.138675 4.04462 0
M  V30 10080 H 979.562 -0.357851 3.10545 0
M  V30 10081 H 978.782 2.11817 3.32456 0
M  V30 10082 H 980.07 2.32817 4.52409 0
M  V30 10083 H 979.468 -0.658827 5.6185 0
M  V30 10084 H 978.025 -0.376057 6.50714 0
M  V30 10085 N 981.458 -1.16348 1.06306 0
M  V30 10086 C 982.368 -2.24375 0.685059 0
M  V30 10087 C 983.384 -1.71413 -0.298956 0
M  V30 10088 O 984.56 -2.00854 -0.148239 0
M  V30 10089 C 981.625 -3.46614 0.0774088 0
M  V30 10090 C 980.686 -4.14613 1.11331 0
M  V30 10091 C 979.919 -5.31016 0.534559 0
M  V30 10092 O 980.142 -5.66654 -0.65265 0
M  V30 10093 O 979.076 -5.88256 1.27431 0
M  V30 10094 H 982.902 -2.59018 1.58566 0
M  V30 10095 H 980.487 -1.23865 0.835332 0
M  V30 10096 H 982.369 -4.20599 -0.259716 0
M  V30 10097 H 981.044 -3.13743 -0.796677 0
M  V30 10098 H 979.951 -3.42597 1.50261 0
M  V30 10099 H 981.284 -4.51538 1.95893 0
M  V30 10100 N 982.937 -0.845659 -1.3299 0
M  V30 10101 C 984.162 -0.457435 -2.02293 0
M  V30 10102 C 984.587 0.935634 -1.63179 0
M  V30 10103 O 983.945 1.61297 -0.827835 0
M  V30 10104 C 983.993 -0.593665 -3.5568 0
M  V30 10105 O 983.097 0.37729 -4.10671 0
M  V30 10106 H 982.438 -0.185022 -0.637701 0
M  V30 10107 H 984.968 -1.14237 -1.69738 0
M  V30 10108 H 984.978 -0.477834 -4.05192 0
M  V30 10109 H 983.653 -1.60957 -3.83491 0
M  V30 10110 H 982.23 0.218448 -3.7226 0
M  V30 10111 N 984.415 1.45619 -0.602734 0
M  V30 10112 C 985.325 2.34288 0.120902 0
M  V30 10113 C 986.341 1.50952 0.865414 0
M  V30 10114 O 987.517 1.83768 0.824094 0
M  V30 10115 C 984.582 3.28489 1.10888 0
M  V30 10116 C 983.643 4.2773 0.366853 0
M  V30 10117 C 982.876 5.17429 1.30776 0
M  V30 10118 O 983.099 5.10459 2.54535 0
M  V30 10119 O 982.033 5.96459 0.807464 0
M  V30 10120 H 985.859 2.97559 -0.60765 0
M  V30 10121 H 983.444 1.44922 -0.363019 0
M  V30 10122 H 985.326 3.86549 1.67803 0
M  V30 10123 H 984.001 2.67789 1.81854 0
M  V30 10124 H 982.908 3.73299 -0.244643 0
M  V30 10125 H 984.241 4.91271 -0.302226 0
M  V30 10126 N 985.893 0.34162 1.53853 0
M  V30 10127 C 987.17 -0.310664 1.93117 0
M  V30 10128 C 987.55 -1.68398 1.273 0
M  V30 10129 O 986.898 -2.24546 0.423225 0
M  V30 10130 C 987.108 -0.384867 3.46871 0
M  V30 10131 C 988.456 -0.636621 4.198 0
M  V30 10132 O 989.48 -0.467061 3.53125 0
M  V30 10133 O 988.339 -0.964962 5.37913 0
M  V30 10134 H 985.433 -0.180881 0.806977 0
M  V30 10135 H 987.979 0.392656 1.65095 0
M  V30 10136 H 986.751 0.57894 3.86994 0
M  V30 10137 H 986.374 -1.13505 3.81054 0
M  V30 10138 N 987.371 -1.57444 0.0701946 0
M  V30 10139 C 988.618 -1.93429 -0.59929 0
M  V30 10140 C 988.946 -0.9501 -1.69715 0
M  V30 10141 O 988.201 0.0345377 -1.9567 0
M  V30 10142 C 988.5 -3.36044 -1.21694 0
M  V30 10143 C 988.166 -4.50232 -0.245374 0
M  V30 10144 C 986.828 -4.81195 0.0219161 0
M  V30 10145 C 989.18 -5.1951 0.419396 0
M  V30 10146 C 986.508 -5.78775 0.96109 0
M  V30 10147 C 988.86 -6.18095 1.34688 0
M  V30 10148 C 987.524 -6.47477 1.62265 0
M  V30 10149 H 986.794 -0.707807 -0.219296 0
M  V30 10150 H 989.441 -1.90982 0.14073 0
M  V30 10151 H 987.746 -3.34948 -2.03265 0
M  V30 10152 H 989.443 -3.61176 -1.74221 0
M  V30 10153 H 986.033 -4.26082 -0.463887 0
M  V30 10154 H 990.217 -4.95785 0.226009 0
M  V30 10155 H 985.473 -5.99865 1.18202 0
M  V30 10156 H 989.647 -6.7088 1.86795 0
M  V30 10157 H 987.274 -7.229 2.352 0
M  V30 10158 N 988.849 0.203349 -1.56283 0
M  V30 10159 C 989.799 1.25595 -1.90289 0
M  V30 10160 C 990.783 1.41403 -0.767732 0
M  V30 10161 O 991.975 1.43912 -1.03046 0
M  V30 10162 C 989.104 2.60255 -2.23881 0
M  V30 10163 C 988.19 2.48274 -3.43833 0
M  V30 10164 N 988.581 2.05963 -4.61966 0
M  V30 10165 C 986.879 2.79188 -3.47808 0
M  V30 10166 C 987.58 2.05674 -5.44126 0
M  V30 10167 N 986.556 2.46862 -4.84314 0
M  V30 10168 H 990.358 0.920016 -2.79129 0
M  V30 10169 H 987.872 0.411829 -1.57091 0
M  V30 10170 H 989.869 3.36274 -2.46425 0
M  V30 10171 H 988.529 2.94678 -1.36363 0
M  V30 10172 H 989.54 1.76803 -4.86787 0
M  V30 10173 H 986.217 3.17863 -2.70684 0
M  V30 10174 H 987.607 1.74932 -6.48728 0
M  V30 10175 N 990.327 1.50405 0.470755 0
M  V30 10176 C 991.574 1.61411 1.22281 0
M  V30 10177 C 991.902 0.314603 1.91939 0
M  V30 10178 O 991.157 -0.699531 1.82771 0
M  V30 10179 C 991.456 2.74426 2.28965 0
M  V30 10180 C 991.122 4.14896 1.76557 0
M  V30 10181 C 989.784 4.53116 1.61985 0
M  V30 10182 C 992.136 5.02686 1.3768 0
M  V30 10183 C 989.464 5.76868 1.0696 0
M  V30 10184 C 991.816 6.26985 0.840967 0
M  V30 10185 C 990.48 6.64008 0.68188 0
M  V30 10186 H 989.75 0.590645 0.447459 0
M  V30 10187 H 992.397 1.84339 0.518783 0
M  V30 10188 H 990.702 2.45588 3.05277 0
M  V30 10189 H 992.399 2.80146 2.86914 0
M  V30 10190 H 988.989 3.84743 1.88867 0
M  V30 10191 H 993.173 4.7379 1.47772 0
M  V30 10192 H 988.429 6.04227 0.933808 0
M  V30 10193 H 992.603 6.94372 0.531066 0
M  V30 10194 H 990.23 7.59778 0.25335 0
M  V30 10195 N 991.805 -0.723954 1.39988 0
M  V30 10196 C 992.715 -1.86829 1.41887 0
M  V30 10197 C 993.731 -1.71173 0.312401 0
M  V30 10198 O 994.907 -1.93583 0.555651 0
M  V30 10199 C 991.972 -3.22541 1.27154 0
M  V30 10200 C 991.033 -3.50512 2.47871 0
M  V30 10201 C 990.266 -4.79749 2.33831 0
M  V30 10202 O 990.489 -5.54251 1.34765 0
M  V30 10203 O 989.423 -5.07868 3.23039 0
M  V30 10204 H 993.249 -1.88183 2.38371 0
M  V30 10205 H 990.834 -0.873259 1.21221 0
M  V30 10206 H 992.716 -4.0362 1.21114 0
M  V30 10207 H 991.391 -3.21933 0.337715 0
M  V30 10208 H 990.298 -2.69475 2.59488 0
M  V30 10209 H 991.631 -3.55909 3.39985 0
M  V30 10210 N 993.283 -1.25346 -0.955304 0
M  V30 10211 C 994.215 -1.0146 -2.0552 0
M  V30 10212 C 995.228 0.0202256 -1.62787 0
M  V30 10213 O 996.417 -0.218251 -1.77161 0
M  V30 10214 C 993.517 -0.511727 -3.35014 0
M  V30 10215 C 992.69 -1.61256 -4.0659 0
M  V30 10216 C 991.749 -1.11017 -5.14356 0
M  V30 10217 O 990.775 -1.80443 -5.39842 0
M  V30 10218 N 991.977 0.0489001 -5.80479 0
M  V30 10219 H 994.742 -1.96166 -2.26581 0
M  V30 10220 H 992.303 -1.16543 -1.12381 0
M  V30 10221 H 994.295 -0.160123 -4.04383 0
M  V30 10222 H 992.865 0.341377 -3.1073 0
M  V30 10223 H 992.085 -2.13577 -3.31328 0
M  V30 10224 H 993.373 -2.35213 -4.51168 0
M  V30 10225 H 992.771 0.629021 -5.62192 0
M  V30 10226 H 991.328 0.341542 -6.50905 0
M  V30 10227 N 994.761 1.15782 -1.06922 0
M  V30 10228 C 996.177 1.38454 -0.793896 0
M  V30 10229 C 996.377 1.92238 0.603875 0
M  V30 10230 O 995.433 2.1253 1.36335 0
M  V30 10231 C 996.746 2.3595 -1.86408 0
M  V30 10232 C 998.294 2.49622 -1.88833 0
M  V30 10233 C 998.769 3.50406 -2.94923 0
M  V30 10234 N 1000.26 3.57938 -2.93997 0
M  V30 10235 C 1001 4.35728 -3.72731 0
M  V30 10236 N 1000.49 5.16888 -4.61301 0
M  V30 10237 N 1002.28 4.30774 -3.61096 0
M  V30 10238 H 994.435 0.792101 -1.97077 0
M  V30 10239 H 996.698 0.410779 -0.85438 0
M  V30 10240 H 996.404 2.03537 -2.86819 0
M  V30 10241 H 996.278 3.35677 -1.72049 0
M  V30 10242 H 998.665 2.81335 -0.890759 0
M  V30 10243 H 998.746 1.49909 -2.0727 0
M  V30 10244 H 998.39 3.19429 -3.94877 0
M  V30 10245 H 998.32 4.49864 -2.73734 0
M  V30 10246 H 1000.81 3.00007 -2.29791 0
M  V30 10247 H 1001.12 5.73477 -5.18019 0
M  V30 10248 H 999.469 5.16209 -4.65353 0
M  V30 10249 H 1002.66 3.66432 -2.91282 0
M  V30 10250 H 1002.83 4.91151 -4.22699 0
M  V30 10251 N 996.239 0.8527 1.3254 0
M  V30 10252 C 997.487 0.454224 1.96929 0
M  V30 10253 C 997.808 -0.993034 1.67821 0
M  V30 10254 O 997.078 -1.69371 0.984393 0
M  V30 10255 H 995.658 0.164977 0.728554 0
M  V30 10256 H 998.32 1.0887 1.61658 0
M  V30 10257 H 997.416 0.597667 3.06324 0
M  V30 10258 N 997.718 -1.45297 0.610449 0
M  V30 10259 C 998.946 -2.0659 0.113211 0
M  V30 10260 C 999.361 -1.4546 -1.20361 0
M  V30 10261 O 998.718 -0.569823 -1.73376 0
M  V30 10262 C 998.769 -3.61488 -0.0298411 0
M  V30 10263 O 998.49 -4.20336 1.23488 0
M  V30 10264 C 999.991 -4.39772 -0.558202 0
M  V30 10265 H 997.211 -0.667322 0.0701555 0
M  V30 10266 H 999.755 -1.86497 0.838993 0
M  V30 10267 H 997.91 -3.80913 -0.705963 0
M  V30 10268 H 998.324 -5.13545 1.0664 0
M  V30 10269 H 999.798 -5.48648 -0.607375 0
M  V30 10270 H 1000.27 -4.09755 -1.58107 0
M  V30 10271 H 1000.88 -4.25217 0.0839704 0
M  V30 10272 N 999.196 -0.349774 -1.5367 0
M  V30 10273 C 1000.13 0.538575 -2.22782 0
M  V30 10274 C 1001.14 1.05896 -1.23652 0
M  V30 10275 O 1002.33 0.968045 -1.4997 0
M  V30 10276 C 999.43 1.7546 -2.89943 0
M  V30 10277 C 998.603 1.36843 -4.15443 0
M  V30 10278 C 997.662 2.4448 -4.65957 0
M  V30 10279 O 996.688 2.07528 -5.3002 0
M  V30 10280 N 997.89 3.75829 -4.42417 0
M  V30 10281 H 1000.65 -0.053348 -2.99653 0
M  V30 10282 H 998.216 -0.174193 -1.6096 0
M  V30 10283 H 1000.21 2.46911 -3.20651 0
M  V30 10284 H 998.778 2.25375 -2.16622 0
M  V30 10285 H 997.998 0.484421 -3.91212 0
M  V30 10286 H 999.286 1.0865 -4.97064 0
M  V30 10287 H 998.684 4.08635 -3.91196 0
M  V30 10288 H 997.241 4.43432 -4.77714 0
M  V30 10289 N 1000.67 1.57404 -0.0785433 0
M  V30 10290 C 1001.62 2.09632 0.896565 0
M  V30 10291 C 1002.61 1.00754 1.25449 0
M  V30 10292 O 1003.8 1.27053 1.23234 0
M  V30 10293 C 1000.93 2.66694 2.16169 0
M  V30 10294 C 1000.01 3.82588 1.82994 0
M  V30 10295 N 1000.41 4.91286 1.203 0
M  V30 10296 C 998.704 3.92011 2.12704 0
M  V30 10297 C 999.405 5.72077 1.05367 0
M  V30 10298 N 998.381 5.20567 1.56559 0
M  V30 10299 H 1002.18 2.9106 0.407621 0
M  V30 10300 H 999.697 1.61917 0.125155 0
M  V30 10301 H 1001.69 3.0243 2.86952 0
M  V30 10302 H 1000.35 1.86716 2.65645 0
M  V30 10303 H 1001.36 5.10509 0.871817 0
M  V30 10304 H 998.042 3.23018 2.6451 0
M  V30 10305 H 999.432 6.69523 0.564685 0
M  V30 10306 N 1002.15 -0.195058 1.56388 0
M  V30 10307 C 1003.38 -0.935745 1.85091 0
M  V30 10308 C 1003.8 -1.76061 0.662118 0
M  V30 10309 O 1003.16 -1.77076 -0.389083 0
M  V30 10310 C 1003.21 -1.80764 3.1202 0
M  V30 10311 O 1002.31 -2.90643 2.92575 0
M  V30 10312 H 1001.65 -0.26351 0.609474 0
M  V30 10313 H 1004.18 -0.200362 2.03617 0
M  V30 10314 H 1004.19 -2.21229 3.42815 0
M  V30 10315 H 1002.87 -1.20157 3.98165 0
M  V30 10316 H 1001.44 -2.53934 2.73079 0
M  V30 10317 N 1003.63 -1.50653 -0.462772 0
M  V30 10318 C 1004.56 -1.73056 -1.5676 0
M  V30 10319 C 1005.54 -0.579699 -1.59917 0
M  V30 10320 O 1006.73 -0.819729 -1.76051 0
M  V30 10321 C 1003.86 -1.83234 -2.9503 0
M  V30 10322 C 1002.81 -2.98488 -3.06739 0
M  V30 10323 C 1002.14 -2.93818 -4.46738 0
M  V30 10324 C 1003.44 -4.38869 -2.83181 0
M  V30 10325 H 1005.13 -2.65562 -1.38265 0
M  V30 10326 H 1002.68 -1.27792 -0.663722 0
M  V30 10327 H 1004.63 -1.97491 -3.72257 0
M  V30 10328 H 1003.35 -0.873558 -3.14701 0
M  V30 10329 H 1002.01 -2.83895 -2.31946 0
M  V30 10330 H 1001.66 -1.95769 -4.63339 0
M  V30 10331 H 1001.36 -3.71197 -4.55507 0
M  V30 10332 H 1002.88 -3.10135 -5.25974 0
M  V30 10333 H 1004.3 -4.53945 -3.50153 0
M  V30 10334 H 1002.69 -5.17762 -3.03386 0
M  V30 10335 H 1003.76 -4.50663 -1.78972 0
M  V30 10336 N 1005.11 0.71652 -1.4037 0
M  V30 10337 C 1006.35 1.48883 -1.40047 0
M  V30 10338 C 1006.71 1.92 -0.00158027 0
M  V30 10339 O 1007.91 2.68501 0.126765 0
M  V30 10340 C 1006.18 2.68265 -2.36154 0
M  V30 10341 S 1007.74 3.57684 -2.5418 0
M  V30 10342 H 1004.56 0.509035 -0.496391 0
M  V30 10343 H 1007.16 0.837967 -1.76631 0
M  V30 10344 H 1005.87 2.34759 -3.36625 0
M  V30 10345 H 1005.4 3.38264 -2.0085 0
M  V30 10346 H 1007.41 4.62653 -1.79352 0
M  V30 10347 N 1006.59 1.25851 0.948643 0
M  V30 10348 C 1007.84 1.10347 1.68838 0
M  V30 10349 C 1008.15 -0.354262 1.92365 0
M  V30 10350 O 1009.35 -0.629847 2.64093 0
M  V30 10351 C 1007.81 1.92659 3.03991 0
M  V30 10352 C 1007.42 3.42962 2.88238 0
M  V30 10353 C 1009.16 1.85743 3.81707 0
M  V30 10354 C 1007.07 4.17547 4.18818 0
M  V30 10355 H 1006 0.409342 0.63321 0
M  V30 10356 H 1008.65 1.50098 1.05559 0
M  V30 10357 H 1007.03 1.45736 3.68208 0
M  V30 10358 H 1008.21 3.97601 2.32917 0
M  V30 10359 H 1006.52 3.51035 2.23972 0
M  V30 10360 H 1009.12 2.38758 4.78434 0
M  V30 10361 H 1009.46 0.826568 4.08012 0
M  V30 10362 H 1009.99 2.30449 3.2425 0
M  V30 10363 H 1006.73 5.21072 3.97699 0
M  V30 10364 H 1006.25 3.6769 4.73882 0
M  V30 10365 H 1007.93 4.25589 4.87322 0
M  V30 10366 N 1008.06 -1.15214 1.07534 0
M  V30 10367 C 1009 -2.19634 0.655261 0
M  V30 10368 C 1010.01 -1.60139 -0.293165 0
M  V30 10369 O 1011.2 -1.78311 -0.0821957 0
M  V30 10370 C 1008.3 -3.38851 -0.0578281 0
M  V30 10371 C 1007.47 -4.27888 0.90725 0
M  V30 10372 C 1006.53 -5.25692 0.231115 0
M  V30 10373 O 1005.56 -5.62469 0.872746 0
M  V30 10374 N 1006.76 -5.71424 -1.0225 0
M  V30 10375 H 1009.52 -2.56292 1.55353 0
M  V30 10376 H 1007.08 -1.30347 0.960271 0
M  V30 10377 H 1009.08 -4.01334 -0.520874 0
M  V30 10378 H 1007.65 -3.00593 -0.858071 0
M  V30 10379 H 1006.87 -3.62475 1.54937 0
M  V30 10380 H 1008.15 -4.84246 1.56151 0
M  V30 10381 H 1007.55 -5.43659 -1.56369 0
M  V30 10382 H 1006.11 -6.35938 -1.42919 0
M  V30 10383 N 1009.54 -0.859717 -1.32086 0
M  V30 10384 C 1010.45 -0.31108 -2.32528 0
M  V30 10385 C 1011.47 0.573714 -1.6427 0
M  V30 10386 O 1012.64 0.472878 -1.9577 0
M  V30 10387 C 1009.71 0.487256 -3.43259 0
M  V30 10388 C 1008.77 -0.424279 -4.27198 0
M  V30 10389 C 1008 0.336051 -5.32641 0
M  V30 10390 O 1008.23 1.56541 -5.48499 0
M  V30 10391 O 1007.16 -0.300777 -6.01148 0
M  V30 10392 H 1010.99 -1.14336 -2.81355 0
M  V30 10393 H 1008.57 -0.622794 -1.358 0
M  V30 10394 H 1010.45 0.940203 -4.10777 0
M  V30 10395 H 1009.13 1.29626 -2.96612 0
M  V30 10396 H 1008.04 -0.925509 -3.62471 0
M  V30 10397 H 1009.37 -1.1986 -4.77383 0
M  V30 10398 N 1011.02 1.44971 -0.618145 0
M  V30 10399 C 1012.27 2.02458 -0.117656 0
M  V30 10400 C 1012.6 1.48413 1.25248 0
M  V30 10401 O 1011.87 0.662997 1.82851 0
M  V30 10402 C 1012.16 3.59987 -0.0901897 0
M  V30 10403 C 1012.01 4.24343 -1.49175 0
M  V30 10404 C 1013.33 4.36099 0.592121 0
M  V30 10405 H 1010.45 0.735672 -0.0442291 0
M  V30 10406 H 1013.09 1.727 -0.792138 0
M  V30 10407 H 1011.24 3.85471 0.484175 0
M  V30 10408 H 1012.91 4.10009 -2.114 0
M  V30 10409 H 1011.16 3.82337 -2.04941 0
M  V30 10410 H 1011.83 5.33298 -1.42468 0
M  V30 10411 H 1014.3 4.1597 0.103813 0
M  V30 10412 H 1013.18 5.45822 0.580481 0
M  V30 10413 H 1013.44 4.09746 1.66015 0
M  V30 10414 N 1012.5 0.357919 1.53482 0
M  V30 10415 C 1013.75 -0.234163 2.01142 0
M  V30 10416 C 1014.07 -1.49399 1.2454 0
M  V30 10417 O 1013.33 -1.92981 0.325111 0
M  V30 10418 C 1013.63 -0.579617 3.52669 0
M  V30 10419 C 1013.29 0.584988 4.47089 0
M  V30 10420 C 1011.96 0.904558 4.72622 0
M  V30 10421 C 1014.31 1.3656 5.02992 0
M  V30 10422 C 1011.64 2.00685 5.5131 0
M  V30 10423 C 1013.99 2.45824 5.82884 0
M  V30 10424 C 1012.65 2.78325 6.06706 0
M  V30 10425 H 1011.92 -0.0856863 0.736029 0
M  V30 10426 H 1014.57 0.488801 1.85157 0
M  V30 10427 H 1012.87 -1.38349 3.66561 0
M  V30 10428 H 1014.57 -1.04985 3.87013 0
M  V30 10429 H 1011.16 0.32587 4.27359 0
M  V30 10430 H 1015.34 1.13196 4.83219 0
M  V30 10431 H 1010.6 2.26272 5.67988 0
M  V30 10432 H 1014.77 3.06732 6.25211 0
M  V30 10433 H 1012.4 3.63862 6.67464 0
M  V30 10434 N 1013.98 -1.5736 0.0868897 0
M  V30 10435 C 1015.39 -1.81356 -0.443499 0
M  V30 10436 C 1015.74 -1.00192 -1.68689 0
M  V30 10437 O 1014.86 -0.228863 -2.15186 0
M  V30 10438 C 1015.46 -3.28941 -0.811387 0
M  V30 10439 C 1014.02 -3.53729 -1.28656 0
M  V30 10440 C 1013.16 -2.75891 -0.279153 0
M  V30 10441 H 1016.12 -1.55594 0.312427 0
M  V30 10442 H 1016.14 -3.41815 -1.6716 0
M  V30 10443 H 1015.65 -3.87987 0.0937598 0
M  V30 10444 H 1013.75 -3.00005 -2.2097 0
M  V30 10445 H 1013.86 -4.62396 -1.25406 0
M  V30 10446 H 1012.23 -2.4311 -0.759595 0
M  V30 10447 H 1013.01 -3.37682 0.618529 0
M  V30 10448 N 1015.45 0.186762 -1.56489 0
M  V30 10449 C 1016.36 1.25169 -1.98419 0
M  V30 10450 C 1017.38 1.49329 -0.893124 0
M  V30 10451 O 1018.56 1.61781 -1.19954 0
M  V30 10452 C 1015.62 2.57422 -2.32239 0
M  V30 10453 C 1014.68 2.4126 -3.55095 0
M  V30 10454 C 1013.92 3.67206 -3.87292 0
M  V30 10455 O 1014.14 4.71731 -3.20665 0
M  V30 10456 O 1013.07 3.62238 -4.80695 0
M  V30 10457 H 1016.9 0.925834 -2.89244 0
M  V30 10458 H 1014.48 0.392421 -1.44154 0
M  V30 10459 H 1016.37 3.35466 -2.5503 0
M  V30 10460 H 1015.04 2.89618 -1.44579 0
M  V30 10461 H 1013.95 1.61299 -3.37541 0
M  V30 10462 H 1015.28 2.13994 -4.43247 0
M  V30 10463 N 1016.93 1.50896 0.454776 0
M  V30 10464 C 1018.21 1.53227 1.21576 0
M  V30 10465 C 1018.59 0.286358 2.09149 0
M  V30 10466 O 1017.94 -0.729469 2.16543 0
M  V30 10467 C 1018.15 2.83693 2.03271 0
M  V30 10468 C 1019.5 3.34981 2.60908 0
M  V30 10469 O 1020.52 2.85126 2.13499 0
M  V30 10470 O 1019.38 4.21929 3.4733 0
M  V30 10471 H 1016.47 0.615306 0.552564 0
M  V30 10472 H 1019.02 1.63197 0.465266 0
M  V30 10473 H 1017.79 3.65839 1.38843 0
M  V30 10474 H 1017.41 2.76803 2.85422 0
M  V30 10475 N 1018.41 -0.709066 1.40748 0
M  V30 10476 C 1019.64 -1.49808 1.42707 0
M  V30 10477 C 1020.05 -1.88778 0.0285574 0
M  V30 10478 O 1019.41 -1.55883 -0.949035 0
M  V30 10479 C 1019.46 -2.76926 2.32366 0
M  V30 10480 O 1019.18 -2.39602 3.66773 0
M  V30 10481 C 1020.68 -3.70773 2.42986 0
M  V30 10482 H 1017.9 -0.462106 0.486517 0
M  V30 10483 H 1020.45 -0.874135 1.84876 0
M  V30 10484 H 1018.6 -3.3559 1.93541 0
M  V30 10485 H 1019.02 -3.21443 4.14457 0
M  V30 10486 H 1020.49 -4.56789 3.09916 0
M  V30 10487 H 1020.97 -4.14332 1.45691 0
M  V30 10488 H 1021.57 -3.18019 2.8239 0
M  V30 10489 N 1019.89 -1.26353 -0.941956 0
M  V30 10490 C 1021.14 -1.1163 -1.68473 0
M  V30 10491 C 1021.46 0.34108 -1.91994 0
M  V30 10492 O 1020.73 1.24065 -1.51607 0
M  V30 10493 H 1019.31 -0.410113 -0.624353 0
M  V30 10494 H 1021.97 -1.58669 -1.13182 0
M  V30 10495 H 1021.07 -1.63445 -2.6588 0
M  V30 10496 N 1021.37 1.14642 -1.08144 0
M  V30 10497 C 1022.6 1.89484 -0.830864 0
M  V30 10498 C 1023.01 1.78443 0.616722 0
M  V30 10499 O 1022.37 1.14191 1.42361 0
M  V30 10500 C 1022.42 3.39554 -1.24039 0
M  V30 10501 O 1022.14 3.50286 -2.63119 0
M  V30 10502 C 1023.64 4.31399 -1.02029 0
M  V30 10503 H 1020.86 0.600283 -0.299835 0
M  V30 10504 H 1023.4 1.45204 -1.44001 0
M  V30 10505 H 1021.56 3.81467 -0.675407 0
M  V30 10506 H 1021.97 4.43481 -2.80045 0
M  V30 10507 H 1023.45 5.35079 -1.35625 0
M  V30 10508 H 1023.92 4.39179 0.0428697 0
M  V30 10509 H 1024.53 3.95238 -1.57057 0
M  V30 10510 N 1022.85 0.866709 1.31628 0
M  V30 10511 C 1024.08 0.489679 2.00713 0
M  V30 10512 C 1024.48 -0.921492 1.65243 0
M  V30 10513 O 1023.83 -1.61467 0.876012 0
M  V30 10514 C 1023.89 0.563148 3.55062 0
M  V30 10515 C 1023.55 1.93535 4.13996 0
M  V30 10516 C 1024.55 2.90243 4.31341 0
M  V30 10517 C 1022.23 2.23578 4.49798 0
M  V30 10518 C 1024.23 4.15138 4.83673 0
M  V30 10519 C 1021.92 3.48723 5.01832 0
M  V30 10520 C 1022.91 4.44319 5.18719 0
M  V30 10521 O 1022.6 5.67247 5.69637 0
M  V30 10522 H 1022.33 0.189605 0.648865 0
M  V30 10523 H 1024.89 1.16874 1.68907 0
M  V30 10524 H 1023.12 -0.172815 3.86314 0
M  V30 10525 H 1024.81 0.200009 4.05407 0
M  V30 10526 H 1025.57 2.6834 4.04003 0
M  V30 10527 H 1021.45 1.49949 4.35932 0
M  V30 10528 H 1025 4.89762 4.96769 0
M  V30 10529 H 1020.89 3.70471 5.28603 0
M  V30 10530 H 1021.66 5.69372 5.88011 0
M  V30 10531 N 1024.32 -1.44642 0.625825 0
M  V30 10532 C 1025.55 -2.06458 0.135116 0
M  V30 10533 C 1025.97 -1.46729 -1.18811 0
M  V30 10534 O 1025.32 -0.58818 -1.72762 0
M  V30 10535 C 1025.37 -3.61499 0.00850114 0
M  V30 10536 O 1025.1 -4.19002 1.2794 0
M  V30 10537 C 1026.6 -4.40339 -0.511527 0
M  V30 10538 H 1023.82 -0.666541 0.0772294 0
M  V30 10539 H 1026.36 -1.85597 0.858726 0
M  V30 10540 H 1024.52 -3.81641 -0.665522 0
M  V30 10541 H 1024.93 -5.12385 1.12081 0
M  V30 10542 H 1026.4 -5.49262 -0.549149 0
M  V30 10543 H 1026.88 -4.11409 -1.53752 0
M  V30 10544 H 1027.49 -4.25104 0.129066 0
M  V30 10545 N 1025.8 -0.366053 -1.5329 0
M  V30 10546 C 1027.04 0.223558 -2.03174 0
M  V30 10547 C 1027.41 1.45955 -1.24745 0
M  V30 10548 O 1028.61 2.12481 -1.64637 0
M  V30 10549 C 1026.88 0.507899 -3.53773 0
M  V30 10550 S 1028.44 1.07111 -4.25526 0
M  V30 10551 H 1025.25 0.0650309 -0.70802 0
M  V30 10552 H 1027.86 -0.509028 -1.88757 0
M  V30 10553 H 1026.56 -0.39913 -4.08455 0
M  V30 10554 H 1026.09 1.26954 -3.72352 0
M  V30 10555 H 1028.11 2.35533 -4.36737 0
M  V30 10556 N 1027.28 1.57312 -0.0952337 0
M  V30 10557 C 1028.19 2.17556 0.877877 0
M  V30 10558 C 1029.21 1.14505 1.31014 0
M  V30 10559 O 1030.38 1.46876 1.37802 0
M  V30 10560 C 1027.45 2.74413 2.11892 0
M  V30 10561 C 1026.51 3.92419 1.74085 0
M  V30 10562 C 1025.74 4.46556 2.92273 0
M  V30 10563 O 1025.96 3.99631 4.07002 0
M  V30 10564 O 1024.9 5.37576 2.70732 0
M  V30 10565 H 1028.72 3.01116 0.395312 0
M  V30 10566 H 1026.31 1.48841 0.129123 0
M  V30 10567 H 1028.19 3.10754 2.84622 0
M  V30 10568 H 1026.87 1.93899 2.59201 0
M  V30 10569 H 1025.77 3.6089 0.985346 0
M  V30 10570 H 1027.11 4.74298 1.31539 0
M  V30 10571 N 1028.76 -0.17846 1.56586 0
M  V30 10572 C 1029.72 -1.20479 1.94981 0
M  V30 10573 C 1030.72 -1.37561 0.832677 0
M  V30 10574 O 1031.91 -1.35089 1.09984 0
M  V30 10575 C 1029.04 -2.57117 2.23839 0
M  V30 10576 H 1030.24 -0.876173 2.86816 0
M  V30 10577 H 1027.79 -0.420635 1.50534 0
M  V30 10578 H 1028.52 -2.95005 1.34695 0
M  V30 10579 H 1028.31 -2.46086 3.05261 0
M  V30 10580 H 1029.8 -3.31096 2.5449 0
M  V30 10581 N 1030.24 -1.51135 -0.446768 0
M  V30 10582 C 1031.48 -1.64542 -1.19573 0
M  V30 10583 C 1031.84 -0.352728 -1.89139 0
M  V30 10584 O 1031.13 0.650917 -1.80204 0
M  V30 10585 C 1031.32 -2.78034 -2.2457 0
M  V30 10586 C 1031.15 -4.18214 -1.65308 0
M  V30 10587 C 1029.92 -4.84284 -1.44212 0
M  V30 10588 C 1032.12 -5.01631 -1.13451 0
M  V30 10589 N 1030.1 -6.08606 -0.804486 0
M  V30 10590 C 1031.47 -6.16876 -0.621577 0
M  V30 10591 C 1033.53 -4.87227 -1.02537 0
M  V30 10592 C 1032.23 -7.19299 -0.0102361 0
M  V30 10593 C 1034.26 -5.8985 -0.427936 0
M  V30 10594 C 1033.62 -7.04361 0.0745026 0
M  V30 10595 H 1029.72 -0.656068 -0.425556 0
M  V30 10596 H 1032.3 -1.88334 -0.493802 0
M  V30 10597 H 1030.47 -2.55922 -2.92162 0
M  V30 10598 H 1032.21 -2.8067 -2.91558 0
M  V30 10599 H 1028.96 -4.4199 -1.70123 0
M  V30 10600 H 1029.38 -6.75126 -0.503379 0
M  V30 10601 H 1034.03 -3.98959 -1.39971 0
M  V30 10602 H 1031.74 -8.07224 0.376252 0
M  V30 10603 H 1035.33 -5.80773 -0.34552 0
M  V30 10604 H 1034.21 -7.8241 0.529535 0
M  V30 10605 N 1031.71 0.701592 -1.41122 0
M  V30 10606 C 1032.66 1.83691 -1.4269 0
M  V30 10607 C 1033.66 1.6662 -0.305658 0
M  V30 10608 O 1034.86 1.73554 -0.477392 0
M  V30 10609 H 1031.24 0.605222 -0.44633 0
M  V30 10610 H 1033.21 1.79485 -2.38386 0
M  V30 10611 C 1031.96 3.21666 -1.32008 0
M  V30 10612 H 1031.28 3.35416 -2.17569 0
M  V30 10613 H 1032.72 4.012 -1.37165 0
M  V30 10614 C 1031.18 3.36885 -0.0317678 0
M  V30 10615 O 1031.71 3.90885 0.925836 0
M  V30 10616 N 1029.91 2.90569 0.0423401 0
M  V30 10617 H 1029.46 2.46812 -0.737673 0
M  V30 10618 H 1029.42 3.0113 0.903764 0
M  V30 10619 N 1033.19 1.2685 0.935242 0
M  V30 10620 C 1034.42 1.15645 1.72165 0
M  V30 10621 C 1034.84 -0.283909 1.85945 0
M  V30 10622 O 1034.2 -1.20567 1.354 0
M  V30 10623 C 1034.25 1.83689 3.10307 0
M  V30 10624 O 1033.35 1.12972 3.96625 0
M  V30 10625 H 1032.69 0.402629 0.528002 0
M  V30 10626 H 1035.22 1.67781 1.17093 0
M  V30 10627 H 1035.23 1.90749 3.60664 0
M  V30 10628 H 1033.91 2.88472 2.99595 0
M  V30 10629 H 1032.48 1.13929 3.5507 0
M  V30 10630 N 1034.67 -1.14067 1.0875 0
M  V30 10631 C 1035.63 -2.17453 0.724341 0
M  V30 10632 C 1036.63 -1.58959 -0.242614 0
M  V30 10633 O 1037.82 -1.74186 -0.0217008 0
M  V30 10634 C 1034.96 -3.40828 0.0700236 0
M  V30 10635 H 1036.15 -2.51094 1.63987 0
M  V30 10636 H 1033.7 -1.28775 0.885813 0
M  V30 10637 H 1034.44 -3.1277 -0.857061 0
M  V30 10638 H 1034.22 -3.84551 0.76569 0
M  V30 10639 H 1035.71 -4.17258 -0.168905 0
M  V30 10640 N 1036.15 -0.873678 -1.31166 0
M  V30 10641 C 1037.4 -0.485497 -1.96182 0
M  V30 10642 C 1037.72 0.96621 -1.69379 0
M  V30 10643 O 1036.99 1.67783 -1.01121 0
M  V30 10644 H 1035.57 -0.176547 -0.725838 0
M  V30 10645 H 1038.23 -1.11428 -1.59906 0
M  V30 10646 H 1037.33 -0.646325 -3.05334 0
M  V30 10647 N 1037.63 1.44308 -0.633487 0
M  V30 10648 C 1038.54 2.34492 0.0711787 0
M  V30 10649 C 1039.55 1.52754 0.8332 0
M  V30 10650 O 1040.73 1.85475 0.784929 0
M  V30 10651 C 1037.79 3.30767 1.03895 0
M  V30 10652 C 1036.85 4.28412 0.276043 0
M  V30 10653 C 1036.09 5.20087 1.19772 0
M  V30 10654 O 1036.31 5.15743 2.4365 0
M  V30 10655 O 1035.24 5.98038 0.680764 0
M  V30 10656 H 1039.07 2.96203 -0.67063 0
M  V30 10657 H 1036.66 1.4412 -0.393678 0
M  V30 10658 H 1038.54 3.90021 1.59566 0
M  V30 10659 H 1037.21 2.71586 1.76133 0
M  V30 10660 H 1036.12 3.72696 -0.32377 0
M  V30 10661 H 1037.45 4.9052 -0.406364 0
M  V30 10662 N 1039.1 0.374177 1.53094 0
M  V30 10663 C 1040.35 -0.213131 2.01677 0
M  V30 10664 C 1040.68 -1.47715 1.26071 0
M  V30 10665 O 1039.96 -1.91199 0.356834 0
M  V30 10666 C 1040.24 -0.496392 3.56662 0
M  V30 10667 C 1040.09 0.781859 4.42953 0
M  V30 10668 C 1041.41 -1.29339 4.20666 0
M  V30 10669 H 1038.53 -0.0759885 0.733072 0
M  V30 10670 H 1041.17 0.500765 1.83282 0
M  V30 10671 H 1039.32 -1.10455 3.72467 0
M  V30 10672 H 1041 1.41914 4.38928 0
M  V30 10673 H 1039.24 1.40041 4.10574 0
M  V30 10674 H 1039.91 0.538508 5.49367 0
M  V30 10675 H 1042.39 -0.778848 4.08746 0
M  V30 10676 H 1041.26 -1.46033 5.29118 0
M  V30 10677 H 1041.52 -2.30435 3.77296 0
M  V30 10678 N 1040.58 -1.57259 0.103575 0
M  V30 10679 C 1042 -1.57581 -0.253062 0
M  V30 10680 C 1042.2 -1.11531 -1.67819 0
M  V30 10681 O 1041.25 -0.795632 -2.39637 0
M  V30 10682 C 1042.57 -3.00681 -0.0337753 0
M  V30 10683 C 1044.12 -3.12837 -0.10087 0
M  V30 10684 C 1044.59 -4.57911 0.0905295 0
M  V30 10685 N 1046.08 -4.63186 0.0359789 0
M  V30 10686 C 1046.82 -5.73179 0.159199 0
M  V30 10687 N 1046.31 -6.91976 0.337728 0
M  V30 10688 N 1048.11 -5.62011 0.0998662 0
M  V30 10689 H 1040.26 -1.85499 1.0346 0
M  V30 10690 H 1042.52 -0.856584 0.406163 0
M  V30 10691 H 1042.23 -3.38602 0.950858 0
M  V30 10692 H 1042.1 -3.69207 -0.772406 0
M  V30 10693 H 1044.49 -2.74783 -1.07601 0
M  V30 10694 H 1044.57 -2.46886 0.66939 0
M  V30 10695 H 1044.21 -4.9666 1.06258 0
M  V30 10696 H 1044.14 -5.21933 -0.699528 0
M  V30 10697 H 1046.63 -3.7777 -0.099121 0
M  V30 10698 H 1046.95 -7.71641 0.423032 0
M  V30 10699 H 1045.29 -6.93996 0.373504 0
M  V30 10700 H 1048.48 -4.68084 -0.0385356 0
M  V30 10701 H 1048.65 -6.47693 0.199342 0
M  V30 10702 N 1042.06 0.170153 -1.56679 0
M  V30 10703 C 1043.29 0.902134 -1.86197 0
M  V30 10704 C 1043.7 1.75775 -0.689098 0
M  V30 10705 O 1043.06 1.79271 0.341763 0
M  V30 10706 C 1043.11 1.77792 -3.14757 0
M  V30 10707 O 1042.83 0.956817 -4.27524 0
M  V30 10708 C 1044.33 2.61947 -3.57629 0
M  V30 10709 H 1041.55 0.262026 -0.617724 0
M  V30 10710 H 1044.1 0.169899 -2.03793 0
M  V30 10711 H 1042.25 2.46348 -2.98984 0
M  V30 10712 H 1042.67 1.5559 -5.00891 0
M  V30 10713 H 1044.14 3.19011 -4.50484 0
M  V30 10714 H 1044.62 3.36873 -2.81803 0
M  V30 10715 H 1045.22 1.98721 -3.76019 0
M  V30 10716 N 1043.54 1.5137 0.438746 0
M  V30 10717 C 1044.47 1.68774 1.55074 0
M  V30 10718 C 1045.48 0.568436 1.52554 0
M  V30 10719 O 1046.67 0.842707 1.57355 0
M  V30 10720 C 1043.77 1.68592 2.9399 0
M  V30 10721 C 1042.95 2.97084 3.2103 0
M  V30 10722 C 1042 2.89108 4.39663 0
M  V30 10723 O 1041.03 3.63052 4.38385 0
M  V30 10724 N 1042.23 2.04863 5.4315 0
M  V30 10725 H 1045 2.647 1.40549 0
M  V30 10726 H 1042.56 1.49238 0.627663 0
M  V30 10727 H 1044.55 1.60826 3.71372 0
M  V30 10728 H 1043.12 0.802657 3.02119 0
M  V30 10729 H 1042.34 3.18729 2.3196 0
M  V30 10730 H 1043.63 3.82143 3.35923 0
M  V30 10731 H 1043.03 1.4416 5.47023 0
M  V30 10732 H 1041.58 2.02977 6.1939 0
M  V30 10733 N 1045.02 -0.694098 1.41492 0
M  V30 10734 C 1045.98 -1.78976 1.43179 0
M  V30 10735 C 1046.98 -1.57539 0.322191 0
M  V30 10736 O 1048.17 -1.64185 0.582138 0
M  V30 10737 C 1045.3 -3.17368 1.2446 0
M  V30 10738 H 1046.49 -1.78874 2.40716 0
M  V30 10739 H 1044.05 -0.901867 1.27656 0
M  V30 10740 H 1044.78 -3.23109 0.277691 0
M  V30 10741 H 1044.57 -3.3433 2.04856 0
M  V30 10742 H 1046.06 -3.97345 1.28479 0
M  V30 10743 N 1046.49 -1.27344 -0.928501 0
M  V30 10744 C 1047.74 -1.13804 -1.67859 0
M  V30 10745 C 1048.07 0.31555 -1.91619 0
M  V30 10746 O 1047.35 1.23087 -1.50599 0
M  V30 10747 C 1047.63 -1.9213 -3.04562 0
M  V30 10748 C 1047.48 -3.45468 -2.88048 0
M  V30 10749 C 1048.8 -1.72513 -4.04879 0
M  V30 10750 H 1045.92 -0.414796 -0.609191 0
M  V30 10751 H 1048.56 -1.5649 -1.07753 0
M  V30 10752 H 1046.71 -1.55853 -3.55868 0
M  V30 10753 H 1048.39 -3.9157 -2.43865 0
M  V30 10754 H 1046.63 -3.71849 -2.23407 0
M  V30 10755 H 1047.3 -3.95515 -3.85061 0
M  V30 10756 H 1049.78 -2.04143 -3.62581 0
M  V30 10757 H 1048.65 -2.29713 -4.98521 0
M  V30 10758 H 1048.91 -0.672856 -4.3695 0
M  V30 10759 N 1047.97 1.13488 -1.09353 0
M  V30 10760 C 1048.9 2.20988 -0.75409 0
M  V30 10761 C 1049.88 1.67977 0.267901 0
M  V30 10762 O 1051.07 1.93722 0.136128 0
M  V30 10763 C 1048.2 3.46869 -0.173042 0
M  V30 10764 C 1047.15 4.12965 -1.12446 0
M  V30 10765 C 1046.48 5.33163 -0.405157 0
M  V30 10766 C 1047.78 4.60388 -2.46658 0
M  V30 10767 H 1049.47 2.49639 -1.6529 0
M  V30 10768 H 1047.02 1.19987 -0.796182 0
M  V30 10769 H 1048.97 4.21331 0.0764988 0
M  V30 10770 H 1047.7 3.17611 0.760956 0
M  V30 10771 H 1046.35 3.40469 -1.35927 0
M  V30 10772 H 1046 5.00169 0.532955 0
M  V30 10773 H 1045.7 5.78332 -1.03952 0
M  V30 10774 H 1047.23 6.1038 -0.163899 0
M  V30 10775 H 1048.64 5.26276 -2.27389 0
M  V30 10776 H 1047.04 5.16294 -3.05876 0
M  V30 10777 H 1048.11 3.74949 -3.07476 0
M  V30 10778 N 1049.45 0.880621 1.30701 0
M  V30 10779 C 1050.68 0.511682 2.00473 0
M  V30 10780 C 1051.09 -0.898684 1.6604 0
M  V30 10781 O 1050.45 -1.59035 0.895218 0
M  V30 10782 C 1050.5 0.671723 3.55204 0
M  V30 10783 O 1050.22 2.02656 3.8841 0
M  V30 10784 C 1051.72 0.3052 4.42248 0
M  V30 10785 H 1048.94 0.198231 0.64105 0
M  V30 10786 H 1051.49 1.18472 1.66687 0
M  V30 10787 H 1049.64 0.0461066 3.87373 0
M  V30 10788 H 1050.06 2.04202 4.83117 0
M  V30 10789 H 1051.53 0.468095 5.50012 0
M  V30 10790 H 1052.01 -0.756456 4.32637 0
M  V30 10791 H 1052.61 0.906959 4.15517 0
M  V30 10792 N 1050.93 -1.4397 0.641131 0
M  V30 10793 C 1052.18 -2.02246 0.14985 0
M  V30 10794 C 1052.51 -1.50387 -1.22871 0
M  V30 10795 O 1051.78 -0.692003 -1.81773 0
M  V30 10796 C 1052.07 -3.59798 0.147449 0
M  V30 10797 C 1051.92 -4.21916 1.55907 0
M  V30 10798 C 1053.24 -4.36985 -0.522667 0
M  V30 10799 H 1050.36 -0.734875 0.0559274 0
M  V30 10800 H 1053 -1.71418 0.819513 0
M  V30 10801 H 1051.15 -3.86193 -0.422789 0
M  V30 10802 H 1052.82 -4.06594 2.17896 0
M  V30 10803 H 1051.06 -3.79028 2.10998 0
M  V30 10804 H 1051.74 -5.30964 1.50934 0
M  V30 10805 H 1054.21 -4.16083 -0.0376226 0
M  V30 10806 H 1053.09 -5.46676 -0.493572 0
M  V30 10807 H 1053.35 -4.12335 -1.59475 0
M  V30 10808 N 1052.41 -0.382291 -1.52893 0
M  V30 10809 C 1053.34 0.491199 -2.23875 0
M  V30 10810 C 1054.35 1.03249 -1.25871 0
M  V30 10811 O 1055.54 0.936016 -1.5199 0
M  V30 10812 C 1052.64 1.6927 -2.936 0
M  V30 10813 C 1051.81 1.28 -4.18252 0
M  V30 10814 C 1050.87 2.34541 -4.71038 0
M  V30 10815 O 1049.9 1.96239 -5.34302 0
M  V30 10816 N 1051.1 3.6636 -4.50289 0
M  V30 10817 H 1053.87 -0.116897 -2.99472 0
M  V30 10818 H 1051.43 -0.208296 -1.60554 0
M  V30 10819 H 1053.42 2.40054 -3.25816 0
M  V30 10820 H 1051.99 2.20729 -2.21354 0
M  V30 10821 H 1051.21 0.40133 -3.92152 0
M  V30 10822 H 1052.5 0.98082 -4.99257 0
M  V30 10823 H 1051.9 4.00245 -3.99775 0
M  V30 10824 H 1050.45 4.332 -4.87013 0
M  V30 10825 N 1053.89 1.57202 -0.111913 0
M  V30 10826 C 1054.8 2.18475 0.854753 0
M  V30 10827 C 1055.81 1.15888 1.29792 0
M  V30 10828 O 1056.99 1.48329 1.36237 0
M  V30 10829 C 1054.05 2.76645 2.0897 0
M  V30 10830 C 1053.11 3.94244 1.69913 0
M  V30 10831 C 1052.35 4.49631 2.8752 0
M  V30 10832 O 1052.57 4.03926 4.02741 0
M  V30 10833 O 1051.5 5.40417 2.65015 0
M  V30 10834 H 1055.33 3.01519 0.363352 0
M  V30 10835 H 1052.91 1.4897 0.113329 0
M  V30 10836 H 1054.8 3.13755 2.81311 0
M  V30 10837 H 1053.47 1.96637 2.5713 0
M  V30 10838 H 1052.38 3.61915 0.947013 0
M  V30 10839 H 1053.71 4.75666 1.26501 0
M  V30 10840 N 1055.36 -0.161842 1.56767 0
M  V30 10841 C 1056.77 -0.723385 1.72116 0
M  V30 10842 C 1057.13 -1.82355 0.723961 0
M  V30 10843 O 1056.25 -2.16107 -0.112643 0
M  V30 10844 C 1056.85 -1.31895 3.12072 0
M  V30 10845 C 1055.4 -1.82722 3.29074 0
M  V30 10846 C 1054.55 -0.709863 2.6806 0
M  V30 10847 H 1057.5 0.0636647 1.58572 0
M  V30 10848 H 1057.52 -2.18871 3.11249 0
M  V30 10849 H 1057.04 -0.51801 3.84627 0
M  V30 10850 H 1055.14 -2.6543 2.61491 0
M  V30 10851 H 1055.25 -1.96614 4.36898 0
M  V30 10852 H 1053.61 -1.13273 2.28126 0
M  V30 10853 H 1054.4 0.0793884 3.43208 0
M  V30 10854 N 1056.84 -1.516 -0.430713 0
M  V30 10855 C 1057.79 -1.69776 -1.52185 0
M  V30 10856 C 1058.78 -0.551692 -1.51146 0
M  V30 10857 O 1059.97 -0.807883 -1.57487 0
M  V30 10858 C 1057.1 -1.83222 -2.90318 0
M  V30 10859 C 1056.18 -3.03633 -2.96087 0
M  V30 10860 N 1056.57 -4.267 -2.71589 0
M  V30 10861 C 1054.87 -3.03024 -3.2725 0
M  V30 10862 C 1055.57 -5.08011 -2.83372 0
M  V30 10863 N 1054.55 -4.42798 -3.15327 0
M  V30 10864 H 1058.35 -2.62586 -1.32006 0
M  V30 10865 H 1055.86 -1.49338 -0.63812 0
M  V30 10866 H 1057.86 -1.94355 -3.68825 0
M  V30 10867 H 1056.52 -0.915971 -3.11513 0
M  V30 10868 H 1057.53 -4.55535 -2.46391 0
M  V30 10869 H 1054.21 -2.21055 -3.54176 0
M  V30 10870 H 1055.6 -6.15995 -2.68329 0
M  V30 10871 N 1058.32 0.686584 -1.41858 0
M  V30 10872 C 1059.6 1.44176 -1.32185 0
M  V30 10873 C 1059.98 2.11049 0.046362 0
M  V30 10874 O 1059.32 2.02365 1.06117 0
M  V30 10875 C 1059.53 2.45385 -2.48168 0
M  V30 10876 C 1060.88 3.10375 -2.89746 0
M  V30 10877 O 1061.91 2.55711 -2.47973 0
M  V30 10878 O 1060.77 4.09404 -3.62009 0
M  V30 10879 H 1057.86 0.642513 -0.520678 0
M  V30 10880 H 1060.41 0.716303 -1.53841 0
M  V30 10881 H 1059.18 1.94687 -3.3943 0
M  V30 10882 H 1058.8 3.25428 -2.28435 0
M  V30 10883 N 1059.8 1.27835 0.921735 0
M  V30 10884 C 1061.05 1.14296 1.66676 0
M  V30 10885 C 1061.37 -0.310493 1.92512 0
M  V30 10886 O 1060.64 -1.21637 1.53562 0
M  V30 10887 H 1059.22 0.419994 0.617749 0
M  V30 10888 H 1061.88 1.60449 1.10644 0
M  V30 10889 H 1060.97 1.67654 2.63246 0
M  V30 10890 N 1061.28 -1.12907 1.09954 0
M  V30 10891 C 1062.5 -1.88138 0.860905 0
M  V30 10892 C 1062.92 -1.79402 -0.588256 0
M  V30 10893 O 1062.28 -1.16442 -1.40526 0
M  V30 10894 C 1062.33 -3.37537 1.29425 0
M  V30 10895 O 1062.05 -3.46056 2.68658 0
M  V30 10896 C 1063.55 -4.29721 1.08879 0
M  V30 10897 H 1060.77 -0.595437 0.309347 0
M  V30 10898 H 1063.31 -1.42894 1.46292 0
M  V30 10899 H 1061.47 -3.80344 0.736009 0
M  V30 10900 H 1061.88 -4.38969 2.87065 0
M  V30 10901 H 1063.36 -5.32854 1.4412 0
M  V30 10902 H 1063.83 -4.39192 0.0270053 0
M  V30 10903 H 1064.44 -3.9269 1.63325 0
M  V30 10904 N 1062.75 -0.88754 -1.30232 0
M  V30 10905 C 1063.69 -0.313488 -2.27046 0
M  V30 10906 C 1064.7 0.533383 -1.53814 0
M  V30 10907 O 1065.89 0.352516 -1.74984 0
M  V30 10908 C 1062.99 0.572674 -3.34026 0
M  V30 10909 C 1062.16 -0.245712 -4.36709 0
M  V30 10910 C 1061.22 0.57135 -5.23089 0
M  V30 10911 O 1060.25 -0.00685948 -5.692 0
M  V30 10912 N 1061.45 1.87994 -5.49216 0
M  V30 10913 H 1064.21 -1.14553 -2.76943 0
M  V30 10914 H 1061.77 -0.750785 -1.43439 0
M  V30 10915 H 1063.77 1.12539 -3.88738 0
M  V30 10916 H 1062.34 1.3054 -2.84039 0
M  V30 10917 H 1061.56 -0.979869 -3.81827 0
M  V30 10918 H 1062.84 -0.806618 -5.02366 0
M  V30 10919 H 1062.24 2.3726 -5.13541 0
M  V30 10920 H 1060.8 2.38005 -6.06792 0
M  V30 10921 N 1064.23 1.43628 -0.648757 0
M  V30 10922 C 1065.64 1.85142 -0.24066 0
M  V30 10923 C 1065.99 1.54304 1.21181 0
M  V30 10924 O 1065.12 0.989792 1.92437 0
M  V30 10925 C 1065.71 3.3606 -0.429999 0
M  V30 10926 C 1064.27 3.76323 -0.0762588 0
M  V30 10927 C 1063.42 2.67382 -0.734999 0
M  V30 10928 H 1066.37 1.33844 -0.852734 0
M  V30 10929 H 1066.39 3.79102 0.325836 0
M  V30 10930 H 1065.9 3.58474 -1.48721 0
M  V30 10931 H 1064.01 3.59521 0.978529 0
M  V30 10932 H 1064.12 4.76498 -0.498612 0
M  V30 10933 H 1062.48 2.54141 -0.168644 0
M  V30 10934 H 1063.27 2.92625 -1.79515 0
M  V30 10935 N 1065.71 0.390394 1.52688 0
M  V30 10936 C 1066.96 -0.184195 2.02564 0
M  V30 10937 C 1067.31 -1.44379 1.27171 0
M  V30 10938 O 1066.6 -1.88112 0.36395 0
M  V30 10939 C 1066.8 -0.50468 3.53819 0
M  V30 10940 C 1066.63 0.722304 4.43861 0
M  V30 10941 C 1065.4 1.24189 4.89801 0
M  V30 10942 C 1067.6 1.59494 4.88944 0
M  V30 10943 N 1065.58 2.42631 5.63918 0
M  V30 10944 C 1066.95 2.62577 5.61652 0
M  V30 10945 C 1069 1.61491 4.70983 0
M  V30 10946 C 1067.71 3.67544 6.18307 0
M  V30 10947 C 1069.73 2.65365 5.28522 0
M  V30 10948 C 1069.09 3.6717 6.01137 0
M  V30 10949 H 1065.19 -0.0294605 0.781445 0
M  V30 10950 H 1067.78 0.54053 1.87046 0
M  V30 10951 H 1065.95 -1.19846 3.69448 0
M  V30 10952 H 1067.68 -1.06652 3.90394 0
M  V30 10953 H 1064.44 0.802731 4.66747 0
M  V30 10954 H 1064.86 3.02564 6.05627 0
M  V30 10955 H 1069.5 0.841291 4.14345 0
M  V30 10956 H 1067.22 4.45773 6.74027 0
M  V30 10957 H 1070.81 2.67795 5.16505 0
M  V30 10958 H 1069.69 4.46228 6.44864 0
M  V30 10959 N 1067.19 -1.57141 0.120249 0
M  V30 10960 C 1068.44 -1.95238 -0.537449 0
M  V30 10961 C 1068.76 -1.00361 -1.66607 0
M  V30 10962 O 1068.02 -0.0277306 -1.9568 0
M  V30 10963 C 1068.32 -3.39745 -1.10941 0
M  V30 10964 C 1067.98 -4.50785 -0.102012 0
M  V30 10965 C 1066.65 -4.80882 0.174994 0
M  V30 10966 C 1069 -5.17913 0.584462 0
M  V30 10967 C 1066.33 -5.75424 1.14474 0
M  V30 10968 C 1068.68 -6.13497 1.54284 0
M  V30 10969 C 1067.34 -6.41987 1.82782 0
M  V30 10970 H 1066.61 -0.714425 -0.196666 0
M  V30 10971 H 1069.26 -1.90438 0.201418 0
M  V30 10972 H 1067.56 -3.41246 -1.92506 0
M  V30 10973 H 1069.26 -3.66536 -1.62642 0
M  V30 10974 H 1065.85 -4.27342 -0.328097 0
M  V30 10975 H 1070.03 -4.94815 0.383625 0
M  V30 10976 H 1065.29 -5.95801 1.37226 0
M  V30 10977 H 1069.46 -6.64598 2.08044 0
M  V30 10978 H 1067.09 -7.15052 2.5808 0
M  V30 10979 N 1068.67 0.153526 -1.5685 0
M  V30 10980 C 1069.92 0.865628 -1.82181 0
M  V30 10981 C 1070.23 1.82629 -0.700434 0
M  V30 10982 O 1071.43 2.58206 -0.839155 0
M  V30 10983 C 1069.89 1.58993 -3.22877 0
M  V30 10984 C 1069.5 0.672006 -4.42931 0
M  V30 10985 C 1071.24 2.2892 -3.57486 0
M  V30 10986 C 1069.15 1.39755 -5.7465 0
M  V30 10987 H 1068.08 0.326993 -0.679406 0
M  V30 10988 H 1070.73 0.118403 -1.83118 0
M  V30 10989 H 1069.11 2.38255 -3.16308 0
M  V30 10990 H 1070.29 -0.0849226 -4.60722 0
M  V30 10991 H 1068.6 0.0814825 -4.1632 0
M  V30 10992 H 1071.2 2.8383 -4.5315 0
M  V30 10993 H 1071.54 3.05105 -2.83226 0
M  V30 10994 H 1072.07 1.56583 -3.65686 0
M  V30 10995 H 1068.81 0.677686 -6.51987 0
M  V30 10996 H 1068.33 2.12736 -5.60806 0
M  V30 10997 H 1070.01 1.94024 -6.17223 0
M  V30 10998 N 1070.14 1.51827 0.422667 0
M  V30 10999 C 1071.37 1.69337 1.19748 0
M  V30 11000 C 1071.79 0.396312 1.83878 0
M  V30 11001 O 1071.15 -0.644976 1.6944 0
M  V30 11002 C 1071.2 2.82082 2.24637 0
M  V30 11003 O 1070.3 2.46708 3.30468 0
M  V30 11004 H 1069.65 0.564154 0.35018 0
M  V30 11005 H 1072.18 1.98465 0.497289 0
M  V30 11006 H 1072.19 3.06599 2.69186 0
M  V30 11007 H 1070.86 3.76195 1.77341 0
M  V30 11008 H 1069.44 2.32815 2.91293 0
M  V30 11009 N 1071.62 -0.679052 1.4222 0
M  V30 11010 C 1072.57 -1.79269 1.45366 0
M  V30 11011 C 1073.54 -1.63255 0.306089 0
M  V30 11012 O 1074.72 -1.8387 0.509548 0
M  V30 11013 C 1071.86 -3.17272 1.35766 0
M  V30 11014 C 1070.98 -3.44603 2.60525 0
M  V30 11015 C 1070.11 -4.7231 2.43098 0
M  V30 11016 C 1069.15 -4.92661 3.63251 0
M  V30 11017 N 1068.29 -6.11606 3.44794 0
M  V30 11018 H 1073.13 -1.75916 2.40536 0
M  V30 11019 H 1070.67 -0.858836 1.19425 0
M  V30 11020 H 1072.62 -3.97015 1.282 0
M  V30 11021 H 1071.25 -3.1976 0.441939 0
M  V30 11022 H 1070.31 -2.59144 2.78475 0
M  V30 11023 H 1071.62 -3.55536 3.49851 0
M  V30 11024 H 1070.77 -5.60136 2.33093 0
M  V30 11025 H 1069.51 -4.63652 1.51255 0
M  V30 11026 H 1068.52 -4.03278 3.73693 0
M  V30 11027 H 1069.74 -5.03167 4.5607 0
M  V30 11028 H 1067.69 -6.04129 2.55663 0
M  V30 11029 H 1067.6 -6.23381 4.27705 0
M  V30 11030 H 1068.87 -7.02122 3.38592 0
M  V30 11031 N 1073.1 -1.28322 -0.914942 0
M  V30 11032 C 1074.51 -1.13937 -1.47903 0
M  V30 11033 C 1074.86 0.271072 -1.94318 0
M  V30 11034 O 1073.99 1.16522 -1.8235 0
M  V30 11035 C 1074.58 -2.06221 -2.68809 0
M  V30 11036 C 1073.14 -1.95903 -3.21402 0
M  V30 11037 C 1072.29 -1.98031 -1.94111 0
M  V30 11038 H 1075.24 -1.41029 -0.727772 0
M  V30 11039 H 1075.26 -1.6255 -3.44031 0
M  V30 11040 H 1074.77 -3.08866 -2.34997 0
M  V30 11041 H 1072.87 -0.962907 -3.59943 0
M  V30 11042 H 1072.99 -2.82799 -3.86732 0
M  V30 11043 H 1071.35 -1.42423 -2.11158 0
M  V30 11044 H 1072.13 -3.02354 -1.62595 0
M  V30 11045 N 1074.58 1.12322 -1.10551 0
M  V30 11046 C 1075.99 1.35858 -0.837543 0
M  V30 11047 C 1076.19 1.94062 0.54241 0
M  V30 11048 O 1075.25 2.1676 1.29505 0
M  V30 11049 C 1076.56 2.299 -1.9382 0
M  V30 11050 C 1078.11 2.43488 -1.96679 0
M  V30 11051 C 1078.59 3.40846 -3.05922 0
M  V30 11052 N 1080.08 3.48404 -3.05236 0
M  V30 11053 C 1080.81 4.2365 -3.86405 0
M  V30 11054 N 1080.31 5.01951 -4.77512 0
M  V30 11055 N 1082.1 4.19068 -3.74618 0
M  V30 11056 H 1074.25 0.729002 -1.99498 0
M  V30 11057 H 1076.52 0.38339 -0.867016 0
M  V30 11058 H 1076.22 1.94309 -2.9315 0
M  V30 11059 H 1076.1 3.30033 -1.82641 0
M  V30 11060 H 1078.48 2.78359 -0.979813 0
M  V30 11061 H 1078.56 1.43239 -2.11934 0
M  V30 11062 H 1078.21 3.06704 -4.04839 0
M  V30 11063 H 1078.14 4.40927 -2.87907 0
M  V30 11064 H 1080.63 2.92545 -2.39219 0
M  V30 11065 H 1080.94 5.56707 -5.36002 0
M  V30 11066 H 1079.29 5.01143 -4.8154 0
M  V30 11067 H 1082.48 3.5698 -3.02792 0
M  V30 11068 H 1082.65 4.77455 -4.38111 0
M  V30 11069 N 1076.06 0.894434 1.2976 0
M  V30 11070 C 1077.28 0.5322 2.00455 0
M  V30 11071 C 1077.71 -0.874427 1.66539 0
M  V30 11072 O 1077.06 -1.58113 0.887129 0
M  V30 11073 C 1077.11 0.725264 3.53231 0
M  V30 11074 O 1076.22 -0.224612 4.11788 0
M  V30 11075 H 1075.56 0.208562 0.630395 0
M  V30 11076 H 1078.09 1.20458 1.65382 0
M  V30 11077 H 1078.1 0.627889 4.0314 0
M  V30 11078 H 1076.77 1.75079 3.77253 0
M  V30 11079 H 1075.35 -0.0801361 3.72814 0
M  V30 11080 N 1077.53 -1.43282 0.656365 0
M  V30 11081 C 1078.78 -2.02075 0.171293 0
M  V30 11082 C 1079.11 -1.51682 -1.21269 0
M  V30 11083 O 1078.39 -0.711243 -1.81029 0
M  V30 11084 C 1078.67 -3.59621 0.185602 0
M  V30 11085 C 1078.52 -4.20239 1.60373 0
M  V30 11086 C 1079.84 -4.37515 -0.476289 0
M  V30 11087 H 1076.96 -0.73424 0.0637185 0
M  V30 11088 H 1079.6 -1.70539 0.837648 0
M  V30 11089 H 1077.75 -3.86619 -0.381804 0
M  V30 11090 H 1079.43 -4.0426 2.22197 0
M  V30 11091 H 1077.67 -3.76769 2.15006 0
M  V30 11092 H 1078.34 -5.29333 1.56557 0
M  V30 11093 H 1080.82 -4.16099 0.00651073 0
M  V30 11094 H 1079.69 -5.47169 -0.435562 0
M  V30 11095 H 1079.95 -4.14003 -1.55093 0
M  V30 11096 N 1079.01 -0.398486 -1.52479 0
M  V30 11097 C 1080.24 0.180557 -2.06111 0
M  V30 11098 C 1080.66 1.39751 -1.26945 0
M  V30 11099 O 1080.01 1.79699 -0.318497 0
M  V30 11100 C 1080.06 0.541573 -3.5742 0
M  V30 11101 O 1079.79 -0.627043 -4.33589 0
M  V30 11102 C 1081.29 1.17549 -4.27431 0
M  V30 11103 H 1078.51 0.0250754 -0.670531 0
M  V30 11104 H 1081.05 -0.566368 -1.96501 0
M  V30 11105 H 1079.21 1.23839 -3.67073 0
M  V30 11106 H 1079.62 -0.328233 -5.23472 0
M  V30 11107 H 1081.09 1.37839 -5.34513 0
M  V30 11108 H 1081.57 2.14553 -3.83228 0
M  V30 11109 H 1082.18 0.51918 -4.22119 0
M  V30 11110 N 1080.49 1.57075 -0.12858 0
M  V30 11111 C 1081.45 2.14643 0.803813 0
M  V30 11112 C 1082.45 1.08363 1.18803 0
M  V30 11113 O 1083.64 1.34093 1.11197 0
M  V30 11114 C 1080.78 2.6945 2.08829 0
M  V30 11115 H 1081.97 2.98362 0.303347 0
M  V30 11116 H 1079.52 1.55833 0.120735 0
M  V30 11117 H 1080.26 1.89345 2.63285 0
M  V30 11118 H 1080.04 3.47187 1.82218 0
M  V30 11119 H 1081.53 3.13865 2.7546 0
M  V30 11120 N 1081.97 -0.145205 1.5693 0
M  V30 11121 C 1083.19 -0.876386 1.87974 0
M  V30 11122 C 1083.62 -1.73866 0.717795 0
M  V30 11123 O 1082.98 -1.78224 -0.332551 0
M  V30 11124 C 1083.03 -1.70746 3.17613 0
M  V30 11125 O 1082.13 -2.81188 3.01674 0
M  V30 11126 H 1081.47 -0.243987 0.617549 0
M  V30 11127 H 1084 -0.135482 2.04151 0
M  V30 11128 H 1084.01 -2.1021 3.49679 0
M  V30 11129 H 1082.69 -1.07429 4.01786 0
M  V30 11130 H 1081.26 -2.45117 2.81019 0
M  V30 11131 N 1083.45 -1.52049 -0.414609 0
M  V30 11132 C 1084.38 -1.77956 -1.51175 0
M  V30 11133 C 1085.36 -0.630282 -1.57992 0
M  V30 11134 O 1086.54 -0.875324 -1.73354 0
M  V30 11135 C 1083.67 -1.92527 -2.89051 0
M  V30 11136 C 1082.63 -3.08096 -2.97087 0
M  V30 11137 C 1081.95 -3.07882 -4.37164 0
M  V30 11138 C 1083.25 -4.47656 -2.69075 0
M  V30 11139 H 1084.95 -2.69827 -1.29746 0
M  V30 11140 H 1082.49 -1.29839 -0.62273 0
M  V30 11141 H 1084.45 -2.09234 -3.65786 0
M  V30 11142 H 1083.17 -0.973235 -3.11762 0
M  V30 11143 H 1081.83 -2.91131 -2.22797 0
M  V30 11144 H 1081.48 -2.10411 -4.56877 0
M  V30 11145 H 1081.18 -3.85501 -4.43467 0
M  V30 11146 H 1082.7 -3.26712 -5.15841 0
M  V30 11147 H 1084.12 -4.64855 -3.35534 0
M  V30 11148 H 1082.51 -5.27151 -2.8676 0
M  V30 11149 H 1083.58 -4.56129 -1.64544 0
M  V30 11150 N 1084.93 0.6715 -1.42579 0
M  V30 11151 C 1086.17 1.42871 -1.42941 0
M  V30 11152 C 1086.49 1.94941 -0.0480483 0
M  V30 11153 O 1085.76 1.73275 0.913921 0
M  V30 11154 H 1084.34 0.530189 -0.526221 0
M  V30 11155 H 1087.01 0.793219 -1.78028 0
M  V30 11156 H 1086.1 2.2801 -2.13114 0
M  V30 11157 N 1086.4 1.28806 0.908124 0
M  V30 11158 C 1087.34 1.09018 2.01613 0
M  V30 11159 C 1088.35 0.0402059 1.6275 0
M  V30 11160 O 1089.54 0.283853 1.76229 0
M  V30 11161 C 1086.64 0.635712 3.32884 0
M  V30 11162 C 1085.81 1.76235 4.00325 0
M  V30 11163 C 1084.87 1.3003 5.09881 0
M  V30 11164 O 1083.9 2.00354 5.32773 0
M  V30 11165 N 1085.1 0.166575 5.80261 0
M  V30 11166 H 1087.86 2.0444 2.19144 0
M  V30 11167 H 1085.42 1.20633 1.07978 0
M  V30 11168 H 1087.42 0.310097 4.0351 0
M  V30 11169 H 1085.99 -0.225816 3.11783 0
M  V30 11170 H 1085.21 2.25727 3.23173 0
M  V30 11171 H 1086.49 2.51796 4.42127 0
M  V30 11172 H 1085.89 -0.419934 5.64139 0
M  V30 11173 H 1084.45 -0.0997281 6.51724 0
M  V30 11174 N 1087.88 -1.11734 1.11145 0
M  V30 11175 C 1089.11 -1.87755 0.881062 0
M  V30 11176 C 1089.53 -1.79461 -0.563496 0
M  V30 11177 O 1088.89 -1.15481 -1.39763 0
M  V30 11178 C 1088.94 -3.34641 1.34342 0
M  V30 11179 O 1088.04 -4.09195 0.513157 0
M  V30 11180 H 1087.38 -0.583111 0.317613 0
M  V30 11181 H 1089.91 -1.41256 1.48013 0
M  V30 11182 H 1089.92 -3.85486 1.33658 0
M  V30 11183 H 1088.6 -3.39994 2.39534 0
M  V30 11184 H 1087.17 -3.68269 0.585833 0
M  V30 11185 N 1089.36 -0.901303 -1.29284 0
M  V30 11186 C 1090.61 -0.528826 -1.95784 0
M  V30 11187 C 1090.94 0.922833 -1.70873 0
M  V30 11188 O 1090.21 1.65448 -1.0226 0
M  V30 11189 C 1090.5 -0.823793 -3.50551 0
M  V30 11190 C 1090.35 -2.32727 -3.84913 0
M  V30 11191 C 1091.67 -0.311382 -4.38997 0
M  V30 11192 H 1088.79 -0.193604 -0.711116 0
M  V30 11193 H 1091.43 -1.12828 -1.52872 0
M  V30 11194 H 1089.58 -0.313612 -3.87232 0
M  V30 11195 H 1091.25 -2.90712 -3.58168 0
M  V30 11196 H 1089.49 -2.78735 -3.32399 0
M  V30 11197 H 1090.17 -2.48423 -4.9294 0
M  V30 11198 H 1092.64 -0.748265 -4.09317 0
M  V30 11199 H 1091.52 -0.546957 -5.46168 0
M  V30 11200 H 1091.78 0.787959 -4.35021 0
M  V30 11201 N 1090.84 1.42931 -0.663954 0
M  V30 11202 C 1091.77 2.33499 0.00731327 0
M  V30 11203 C 1092.75 1.50074 0.800733 0
M  V30 11204 O 1093.93 1.78708 0.760062 0
M  V30 11205 C 1091.06 3.33569 0.966897 0
M  V30 11206 C 1090.02 4.27064 0.282839 0
M  V30 11207 C 1089.34 5.17257 1.35461 0
M  V30 11208 C 1090.64 5.1564 -0.831438 0
M  V30 11209 H 1092.34 2.89879 -0.749044 0
M  V30 11210 H 1089.88 1.39385 -0.361656 0
M  V30 11211 H 1091.84 3.95833 1.44549 0
M  V30 11212 H 1090.56 2.75469 1.75455 0
M  V30 11213 H 1089.22 3.6618 -0.175417 0
M  V30 11214 H 1088.87 4.5549 2.13397 0
M  V30 11215 H 1088.57 5.80634 0.902098 0
M  V30 11216 H 1090.09 5.82395 1.83436 0
M  V30 11217 H 1091.51 5.71651 -0.434534 0
M  V30 11218 H 1089.9 5.87794 -1.20908 0
M  V30 11219 H 1090.97 4.54687 -1.68487 0
M  V30 11220 N 1092.32 0.406567 1.52266 0
M  V30 11221 C 1093.56 -0.171391 2.00971 0
M  V30 11222 C 1093.88 -1.46443 1.29668 0
M  V30 11223 O 1095.08 -2.12348 1.69176 0
M  V30 11224 C 1093.54 -0.35599 3.58135 0
M  V30 11225 C 1093.15 0.924803 4.38351 0
M  V30 11226 C 1094.89 -0.889378 4.15079 0
M  V30 11227 C 1092.8 0.707534 5.87152 0
M  V30 11228 H 1091.73 -0.0678253 0.750943 0
M  V30 11229 H 1094.38 0.531619 1.7563 0
M  V30 11230 H 1092.76 -1.12127 3.79794 0
M  V30 11231 H 1093.94 1.69603 4.28452 0
M  V30 11232 H 1092.25 1.38442 3.92712 0
M  V30 11233 H 1094.85 -1.06792 5.23927 0
M  V30 11234 H 1095.19 -1.86334 3.7227 0
M  V30 11235 H 1095.72 -0.183224 3.97378 0
M  V30 11236 H 1092.46 1.65299 6.34316 0
M  V30 11237 H 1091.98 -0.024446 5.99795 0
M  V30 11238 H 1093.66 0.348721 6.4606 0
M  V30 11239 N 1093.79 -1.57004 0.136909 0
M  V30 11240 C 1095.02 -2.00587 -0.527209 0
M  V30 11241 C 1095.44 -1.01628 -1.58283 0
M  V30 11242 O 1094.8 0.00946934 -1.81298 0
M  V30 11243 C 1094.85 -3.42967 -1.11384 0
M  V30 11244 O 1093.95 -3.46973 -2.22898 0
M  V30 11245 H 1093.3 -0.651155 -0.129976 0
M  V30 11246 H 1095.83 -2.03296 0.230667 0
M  V30 11247 H 1095.84 -3.81555 -1.44499 0
M  V30 11248 H 1094.51 -4.14502 -0.340736 0
M  V30 11249 H 1093.09 -3.20219 -1.91087 0
M  V30 11250 N 1095.27 0.136881 -1.57004 0
M  V30 11251 C 1096.51 0.853873 -1.8571 0
M  V30 11252 C 1096.88 1.77885 -0.722556 0
M  V30 11253 O 1098.08 2.53606 -0.89092 0
M  V30 11254 C 1096.35 1.59935 -3.19618 0
M  V30 11255 S 1097.91 2.36038 -3.69908 0
M  V30 11256 H 1094.73 0.285342 -0.65123 0
M  V30 11257 H 1097.33 0.113254 -1.95172 0
M  V30 11258 H 1096.03 0.91148 -4.0015 0
M  V30 11259 H 1095.56 2.38069 -3.13188 0
M  V30 11260 H 1097.58 3.61425 -3.3998 0
M  V30 11261 N 1096.75 1.52266 0.40654 0
M  V30 11262 C 1097.71 1.75168 1.47814 0
M  V30 11263 C 1098.71 0.621575 1.48301 0
M  V30 11264 O 1099.9 0.889476 1.4978 0
M  V30 11265 C 1097.04 1.83642 2.87208 0
M  V30 11266 H 1098.23 2.70834 1.28798 0
M  V30 11267 H 1095.78 1.42722 0.637196 0
M  V30 11268 H 1096.52 0.898994 3.1159 0
M  V30 11269 H 1096.3 2.65801 2.88257 0
M  V30 11270 H 1097.79 2.03093 3.64888 0
M  V30 11271 N 1098.23 -0.663929 1.42933 0
M  V30 11272 C 1099.48 -1.41973 1.43271 0
M  V30 11273 C 1099.79 -1.95518 0.0566103 0
M  V30 11274 O 1101 -2.71428 -0.0625862 0
M  V30 11275 C 1099.45 -2.56882 2.52071 0
M  V30 11276 C 1099.06 -2.0999 3.95737 0
M  V30 11277 C 1100.8 -3.34322 2.61589 0
M  V30 11278 C 1098.71 -3.22046 4.96025 0
M  V30 11279 H 1097.64 -0.5334 0.532917 0
M  V30 11280 H 1100.29 -0.717709 1.68882 0
M  V30 11281 H 1098.67 -3.29504 2.19643 0
M  V30 11282 H 1099.85 -1.44449 4.37574 0
M  V30 11283 H 1098.16 -1.45459 3.90168 0
M  V30 11284 H 1100.76 -4.17796 3.33692 0
M  V30 11285 H 1101.1 -3.8164 1.66302 0
M  V30 11286 H 1101.64 -2.68775 2.93266 0
M  V30 11287 H 1098.38 -2.79708 5.92827 0
M  V30 11288 H 1097.9 -3.86333 4.5881 0
M  V30 11289 H 1099.57 -3.87345 5.1824 0
M  V30 11290 N 1099.71 -1.29285 -0.901281 0
M  V30 11291 C 1100.67 -1.14283 -1.98676 0
M  V30 11292 C 1101.67 -0.0787641 -1.60607 0
M  V30 11293 O 1102.86 -0.325574 -1.71131 0
M  V30 11294 C 1099.99 -0.747279 -3.32609 0
M  V30 11295 H 1101.18 -2.10701 -2.13413 0
M  V30 11296 H 1098.74 -1.12449 -1.08558 0
M  V30 11297 H 1099.47 0.217111 -3.23572 0
M  V30 11298 H 1099.26 -1.51608 -3.61604 0
M  V30 11299 H 1100.75 -0.665322 -4.12266 0
M  V30 11300 N 1101.18 1.11143 -1.11736 0
M  V30 11301 C 1102.43 1.82586 -0.866412 0
M  V30 11302 C 1102.75 1.85227 0.609593 0
M  V30 11303 O 1102.02 1.32505 1.44288 0
M  V30 11304 H 1100.6 0.676149 -0.31754 0
M  V30 11305 H 1103.27 1.34516 -1.41037 0
M  V30 11306 H 1102.36 2.8635 -1.24136 0
M  V30 11307 N 1102.66 0.908147 1.28804 0
M  V30 11308 C 1103.94 0.457561 1.90173 0
M  V30 11309 C 1104.32 -1.06333 1.82364 0
M  V30 11310 O 1103.67 -1.90892 1.25589 0
M  V30 11311 C 1103.88 0.981624 3.34911 0
M  V30 11312 C 1105.23 1.03037 4.11908 0
M  V30 11313 O 1106.25 0.929878 3.43848 0
M  V30 11314 O 1105.11 1.18257 5.33552 0
M  V30 11315 H 1102.2 0.144081 0.814352 0
M  V30 11316 H 1104.75 0.998565 1.37211 0
M  V30 11317 H 1103.52 2.02561 3.34791 0
M  V30 11318 H 1103.14 0.421122 3.95364 0
M  V30 11319 N 1104.14 -1.42577 0.671525 0
M  V30 11320 C 1105.55 -1.84736 0.270084 0
M  V30 11321 C 1105.9 -1.56212 -1.18711 0
M  V30 11322 O 1105.03 -1.02028 -1.90838 0
M  V30 11323 C 1105.62 -3.35334 0.483409 0
M  V30 11324 C 1104.18 -3.76154 0.136119 0
M  V30 11325 C 1103.33 -2.66179 0.777444 0
M  V30 11326 H 1106.28 -1.3247 0.873919 0
M  V30 11327 H 1106.3 -3.79573 -0.265483 0
M  V30 11328 H 1105.81 -3.56063 1.54405 0
M  V30 11329 H 1103.91 -3.61033 -0.921209 0
M  V30 11330 H 1104.03 -4.75645 0.574356 0
M  V30 11331 H 1102.39 -2.53841 0.209055 0
M  V30 11332 H 1103.17 -2.89732 1.84148 0
M  V30 11333 N 1105.62 -0.414636 -1.52048 0
M  V30 11334 C 1106.87 0.159349 -2.01872 0
M  V30 11335 C 1107.19 1.44674 -1.29999 0
M  V30 11336 O 1106.45 1.91641 -0.396511 0
M  V30 11337 C 1106.75 0.448327 -3.54577 0
M  V30 11338 C 1106.41 -0.75052 -4.4461 0
M  V30 11339 C 1105.08 -1.07935 -4.68939 0
M  V30 11340 C 1107.43 -1.55134 -4.97577 0
M  V30 11341 C 1104.76 -2.21008 -5.43482 0
M  V30 11342 C 1107.11 -2.67288 -5.73358 0
M  V30 11343 C 1105.77 -3.00651 -5.95958 0
M  V30 11344 H 1105.04 0.05831 -0.738702 0
M  V30 11345 H 1107.69 -0.557184 -1.83215 0
M  V30 11346 H 1105.99 1.24649 -3.71443 0
M  V30 11347 H 1107.69 0.90549 -3.90643 0
M  V30 11348 H 1104.28 -0.484257 -4.25856 0
M  V30 11349 H 1108.46 -1.31052 -4.78685 0
M  V30 11350 H 1103.72 -2.47197 -5.59199 0
M  V30 11351 H 1107.89 -3.29725 -6.13396 0
M  V30 11352 H 1105.52 -3.88384 -6.535 0
M  V30 11353 N 1107.1 1.56929 -0.145233 0
M  V30 11354 C 1108.51 1.82877 0.375884 0
M  V30 11355 C 1108.86 1.06384 1.64854 0
M  V30 11356 O 1107.98 0.30857 2.14189 0
M  V30 11357 C 1108.58 3.31725 0.688744 0
M  V30 11358 C 1107.14 3.58261 1.15439 0
M  V30 11359 C 1106.28 2.76737 0.176565 0
M  V30 11360 H 1109.24 1.54328 -0.36996 0
M  V30 11361 H 1109.26 3.47784 1.54359 0
M  V30 11362 H 1108.77 3.87371 -0.237694 0
M  V30 11363 H 1106.87 3.08 2.09683 0
M  V30 11364 H 1106.98 4.66732 1.08158 0
M  V30 11365 H 1105.35 2.45761 0.668843 0
M  V30 11366 H 1106.13 3.35154 -0.743432 0
M  V30 11367 N 1108.58 -0.128553 1.57075 0
M  V30 11368 C 1109.8 -0.85245 1.88523 0
M  V30 11369 C 1110.22 -1.73886 0.735459 0
M  V30 11370 O 1109.58 -1.80114 -0.294113 0
M  V30 11371 C 1109.63 -1.69384 3.19361 0
M  V30 11372 O 1109.35 -0.84313 4.2991 0
M  V30 11373 C 1110.85 -2.52373 3.64449 0
M  V30 11374 H 1108.07 -0.245556 0.624454 0
M  V30 11375 H 1110.61 -0.115807 2.04172 0
M  V30 11376 H 1108.77 -2.38335 3.0541 0
M  V30 11377 H 1109.18 -1.42255 5.0484 0
M  V30 11378 H 1110.66 -3.06955 4.58784 0
M  V30 11379 H 1111.13 -3.29283 2.90636 0
M  V30 11380 H 1111.74 -1.88681 3.81155 0
M  V30 11381 N 1110.05 -1.5248 -0.398459 0
M  V30 11382 C 1111.3 -1.67309 -1.1461 0
M  V30 11383 C 1111.63 -0.407095 -1.89885 0
M  V30 11384 O 1110.91 0.594834 -1.85181 0
M  V30 11385 C 1111.19 -2.90204 -2.13198 0
M  V30 11386 C 1111.04 -4.26881 -1.4175 0
M  V30 11387 C 1112.36 -3.08634 -3.13741 0
M  V30 11388 H 1109.48 -0.608853 -0.415292 0
M  V30 11389 H 1112.12 -1.85057 -0.430573 0
M  V30 11390 H 1110.27 -2.75204 -2.74218 0
M  V30 11391 H 1111.95 -4.53631 -0.837676 0
M  V30 11392 H 1110.19 -4.27793 -0.719387 0
M  V30 11393 H 1110.86 -5.08939 -2.1374 0
M  V30 11394 H 1113.34 -3.22603 -2.62805 0
M  V30 11395 H 1112.21 -3.96117 -3.79977 0
M  V30 11396 H 1112.47 -2.22425 -3.82073 0
M  V30 11397 N 1111.53 0.65634 -1.43283 0
M  V30 11398 C 1112.48 1.76243 -1.44646 0
M  V30 11399 C 1113.47 1.5778 -0.31532 0
M  V30 11400 O 1114.66 1.67945 -0.558881 0
M  V30 11401 C 1111.79 3.14813 -1.36921 0
M  V30 11402 C 1110.87 3.38835 -2.55053 0
M  V30 11403 N 1111.26 3.33345 -3.80414 0
M  V30 11404 C 1109.56 3.69542 -2.4971 0
M  V30 11405 C 1110.26 3.57361 -4.58986 0
M  V30 11406 N 1109.24 3.79022 -3.8967 0
M  V30 11407 H 1113.04 1.70419 -2.39447 0
M  V30 11408 H 1110.55 0.85789 -1.37891 0
M  V30 11409 H 1112.55 3.941 -1.3598 0
M  V30 11410 H 1111.21 3.21822 -0.431381 0
M  V30 11411 H 1112.22 3.12827 -4.12747 0
M  V30 11412 H 1108.9 3.83684 -1.64598 0
M  V30 11413 H 1110.29 3.58921 -5.68001 0
M  V30 11414 N 1113.01 1.29761 0.894412 0
M  V30 11415 C 1114.26 1.19224 1.64794 0
M  V30 11416 C 1114.61 -0.252648 1.90734 0
M  V30 11417 O 1113.9 -1.17881 1.51045 0
M  V30 11418 C 1114.1 1.94458 2.99868 0
M  V30 11419 C 1113.93 3.46115 2.87114 0
M  V30 11420 C 1112.7 4.15469 2.87599 0
M  V30 11421 C 1114.89 4.41518 2.63754 0
M  V30 11422 N 1112.88 5.53453 2.65637 0
M  V30 11423 C 1114.25 5.66999 2.50823 0
M  V30 11424 C 1116.3 4.31221 2.48903 0
M  V30 11425 C 1115.01 6.83351 2.24554 0
M  V30 11426 C 1117.03 5.4733 2.24018 0
M  V30 11427 C 1116.39 6.71786 2.11856 0
M  V30 11428 H 1112.49 0.491294 0.608403 0
M  V30 11429 H 1115.08 1.63656 1.05474 0
M  V30 11430 H 1113.25 1.52432 3.57238 0
M  V30 11431 H 1114.98 1.76142 3.64357 0
M  V30 11432 H 1111.73 3.67217 2.9908 0
M  V30 11433 H 1112.16 6.26037 2.57695 0
M  V30 11434 H 1116.8 3.35689 2.57046 0
M  V30 11435 H 1114.52 7.78933 2.15149 0
M  V30 11436 H 1118.1 5.41265 2.13363 0
M  V30 11437 H 1116.98 7.60113 1.92867 0
M  V30 11438 N 1114.49 -1.10549 1.12324 0
M  V30 11439 C 1115.42 -2.18911 0.812416 0
M  V30 11440 C 1116.4 -1.68628 -0.22327 0
M  V30 11441 O 1117.58 -1.94015 -0.0847184 0
M  V30 11442 C 1114.71 -3.46288 0.264947 0
M  V30 11443 C 1113.67 -4.09838 1.23356 0
M  V30 11444 C 1112.99 -5.31901 0.546374 0
M  V30 11445 C 1114.29 -4.53686 2.58778 0
M  V30 11446 H 1115.99 -2.45169 1.71851 0
M  V30 11447 H 1113.53 -1.17834 0.827715 0
M  V30 11448 H 1115.49 -4.21385 0.0352364 0
M  V30 11449 H 1114.21 -3.19517 -0.676479 0
M  V30 11450 H 1112.87 -3.36746 1.44906 0
M  V30 11451 H 1112.52 -5.01406 -0.400157 0
M  V30 11452 H 1112.22 -5.75372 1.19249 0
M  V30 11453 H 1113.74 -6.09731 0.325673 0
M  V30 11454 H 1115.16 -5.20063 2.41263 0
M  V30 11455 H 1113.55 -5.08003 3.19457 0
M  V30 11456 H 1114.62 -3.66665 3.17309 0
M  V30 11457 N 1115.97 -0.914965 -1.28321 0
M  V30 11458 C 1117.38 -0.613297 -1.47346 0
M  V30 11459 C 1117.58 0.84106 -1.83108 0
M  V30 11460 O 1116.64 1.62004 -1.93678 0
M  V30 11461 C 1117.95 -1.55224 -2.57538 0
M  V30 11462 C 1119.5 -1.55909 -2.71407 0
M  V30 11463 C 1119.97 -2.48468 -3.84744 0
M  V30 11464 N 1121.46 -2.46602 -3.92099 0
M  V30 11465 C 1122.2 -3.14917 -4.79182 0
M  V30 11466 N 1121.7 -3.92566 -5.70845 0
M  V30 11467 N 1123.49 -3.03998 -4.72802 0
M  V30 11468 H 1115.64 -1.85539 -1.03388 0
M  V30 11469 H 1117.9 -0.795875 -0.515061 0
M  V30 11470 H 1117.61 -2.58917 -2.38023 0
M  V30 11471 H 1117.48 -1.28426 -3.54664 0
M  V30 11472 H 1119.87 -0.52953 -2.9031 0
M  V30 11473 H 1119.95 -1.86751 -1.74808 0
M  V30 11474 H 1119.59 -3.51526 -3.66595 0
M  V30 11475 H 1119.52 -2.14928 -4.80743 0
M  V30 11476 H 1122.02 -1.90199 -3.26547 0
M  V30 11477 H 1122.33 -4.41709 -6.34123 0
M  V30 11478 H 1120.67 -3.96671 -5.70681 0
M  V30 11479 H 1123.86 -2.42839 -4.00184 0
M  V30 11480 H 1124.04 -3.57511 -5.40454 0
M  V30 11481 N 1117.44 1.42219 -0.679077 0
M  V30 11482 C 1118.72 1.95155 -0.13188 0
M  V30 11483 C 1119.1 1.6193 1.35433 0
M  V30 11484 O 1118.45 0.917672 2.09263 0
M  V30 11485 C 1118.66 3.46635 -0.405578 0
M  V30 11486 C 1120.01 4.23359 -0.324394 0
M  V30 11487 O 1121.03 3.54578 -0.339564 0
M  V30 11488 O 1119.89 5.45831 -0.270268 0
M  V30 11489 H 1116.98 0.826983 -0.00535438 0
M  V30 11490 H 1119.53 1.52024 -0.754101 0
M  V30 11491 H 1118.3 3.6404 -1.43495 0
M  V30 11492 H 1117.92 3.96823 0.248439 0
M  V30 11493 N 1118.92 0.422693 1.51826 0
M  V30 11494 C 1120.17 -0.148348 2.01555 0
M  V30 11495 C 1120.49 -1.44483 1.30956 0
M  V30 11496 O 1119.76 -1.90904 0.439599 0
M  V30 11497 H 1118.34 -0.0578116 0.74476 0
M  V30 11498 H 1121 0.562046 1.8662 0
M  V30 11499 H 1120.1 -0.334766 3.10299 0
M  V30 11500 N 1120.4 -1.5685 0.153553 0
M  V30 11501 C 1121.35 -2.1709 -0.783626 0
M  V30 11502 C 1122.32 -1.10567 -1.23952 0
M  V30 11503 O 1123.5 -1.38638 -1.31088 0
M  V30 11504 C 1120.64 -2.80183 -2.01473 0
M  V30 11505 C 1119.75 -4.01117 -1.60403 0
M  V30 11506 C 1118.89 -4.5219 -2.78743 0
M  V30 11507 C 1117.93 -5.65574 -2.34079 0
M  V30 11508 N 1117.07 -6.11235 -3.4545 0
M  V30 11509 H 1121.91 -2.96836 -0.263127 0
M  V30 11510 H 1119.44 -1.46625 -0.11816 0
M  V30 11511 H 1121.4 -3.14912 -2.73654 0
M  V30 11512 H 1120.03 -2.03071 -2.50923 0
M  V30 11513 H 1119.08 -3.72325 -0.779631 0
M  V30 11514 H 1120.39 -4.83243 -1.23605 0
M  V30 11515 H 1119.55 -4.89008 -3.59105 0
M  V30 11516 H 1118.29 -3.69085 -3.18791 0
M  V30 11517 H 1117.29 -5.28326 -1.52158 0
M  V30 11518 H 1118.52 -6.50468 -1.95109 0
M  V30 11519 H 1116.46 -5.31064 -3.85106 0
M  V30 11520 H 1116.38 -6.88304 -3.12687 0
M  V30 11521 H 1117.65 -6.527 -4.26149 0
M  V30 11522 N 1121.88 0.120221 -1.57141 0
M  V30 11523 C 1122.84 1.13159 -1.99318 0
M  V30 11524 C 1123.84 1.34376 -0.883158 0
M  V30 11525 O 1125.03 1.30914 -1.14922 0
M  V30 11526 C 1122.16 2.48632 -2.33227 0
M  V30 11527 H 1123.36 0.769119 -2.8987 0
M  V30 11528 H 1120.91 0.364475 -1.51991 0
M  V30 11529 H 1121.64 2.89802 -1.45551 0
M  V30 11530 H 1121.43 2.34587 -3.14184 0
M  V30 11531 H 1122.92 3.21423 -2.66603 0
M  V30 11532 N 1123.36 1.52689 0.390367 0
M  V30 11533 C 1124.29 1.80338 1.48325 0
M  V30 11534 C 1125.27 0.655338 1.56969 0
M  V30 11535 O 1126.45 0.902792 1.7194 0
M  V30 11536 C 1123.58 1.97101 2.85952 0
M  V30 11537 C 1122.54 3.12783 2.92148 0
M  V30 11538 C 1121.86 3.14798 4.32211 0
M  V30 11539 C 1123.16 4.5188 2.61919 0
M  V30 11540 H 1124.86 2.71857 1.25437 0
M  V30 11541 H 1122.4 1.30813 0.601995 0
M  V30 11542 H 1124.36 2.15027 3.62411 0
M  V30 11543 H 1123.08 1.02271 3.10174 0
M  V30 11544 H 1121.74 2.94638 2.18137 0
M  V30 11545 H 1121.39 2.17653 4.53471 0
M  V30 11546 H 1121.09 3.92507 4.37278 0
M  V30 11547 H 1122.61 3.34877 5.10578 0
M  V30 11548 H 1124.02 4.70134 3.28096 0
M  V30 11549 H 1122.42 5.31647 2.78337 0
M  V30 11550 H 1123.49 4.58689 1.57266 0
M  V30 11551 N 1124.83 -0.648732 1.43629 0
M  V30 11552 C 1126.07 -1.42032 1.46991 0
M  V30 11553 C 1126.44 -1.91774 0.0931841 0
M  V30 11554 O 1127.64 -2.688 0.00148504 0
M  V30 11555 C 1125.91 -2.56693 2.48684 0
M  V30 11556 S 1127.47 -3.45149 2.70956 0
M  V30 11557 H 1124.29 -0.484772 0.520113 0
M  V30 11558 H 1126.89 -0.75274 1.80427 0
M  V30 11559 H 1125.59 -2.18431 3.47442 0
M  V30 11560 H 1125.12 -3.28296 2.1676 0
M  V30 11561 H 1127.14 -4.53569 2.01221 0
M  V30 11562 N 1126.31 -1.30234 -0.887518 0
M  V30 11563 C 1127.26 -1.164 -1.99298 0
M  V30 11564 C 1128.23 -0.0541536 -1.66012 0
M  V30 11565 O 1129.41 -0.223881 -1.89482 0
M  V30 11566 C 1126.55 -0.859169 -3.34234 0
M  V30 11567 C 1125.67 -2.05065 -3.80227 0
M  V30 11568 C 1124.8 -1.68413 -5.03796 0
M  V30 11569 C 1123.84 -2.8407 -5.4219 0
M  V30 11570 N 1122.98 -2.47732 -6.56942 0
M  V30 11571 H 1127.82 -2.10973 -2.10463 0
M  V30 11572 H 1125.36 -1.04969 -1.03053 0
M  V30 11573 H 1127.31 -0.663064 -4.11897 0
M  V30 11574 H 1125.94 0.0496808 -3.22762 0
M  V30 11575 H 1125 -2.35808 -2.98494 0
M  V30 11576 H 1126.31 -2.91688 -4.04623 0
M  V30 11577 H 1125.46 -1.45162 -5.89078 0
M  V30 11578 H 1124.2 -0.789553 -4.81266 0
M  V30 11579 H 1123.21 -3.0799 -4.55437 0
M  V30 11580 H 1124.43 -3.74211 -5.66695 0
M  V30 11581 H 1122.38 -1.60777 -6.35993 0
M  V30 11582 H 1122.29 -3.27887 -6.81195 0
M  V30 11583 H 1123.56 -2.27831 -7.45462 0
M  V30 11584 N 1127.79 1.09952 -1.12909 0
M  V30 11585 C 1129.07 1.78547 -0.798767 0
M  V30 11586 C 1129.45 1.9878 0.710624 0
M  V30 11587 O 1128.8 1.58485 1.64604 0
M  V30 11588 C 1129.01 3.1121 -1.57953 0
M  V30 11589 C 1130.35 3.86006 -1.76874 0
M  V30 11590 O 1131.38 3.20946 -1.54506 0
M  V30 11591 O 1130.24 5.02791 -2.14158 0
M  V30 11592 H 1127.33 0.774084 -0.291072 0
M  V30 11593 H 1129.88 1.16557 -1.2334 0
M  V30 11594 H 1128.65 2.91935 -2.60557 0
M  V30 11595 H 1128.27 3.80922 -1.13948 0
M  V30 11596 N 1129.27 0.921757 1.27833 0
M  V30 11597 C 1130.5 0.575202 1.98744 0
M  V30 11598 C 1130.91 -0.845405 1.68815 0
M  V30 11599 O 1130.27 -1.56106 0.94536 0
M  V30 11600 C 1130.32 0.784389 3.52888 0
M  V30 11601 O 1130.04 2.1491 3.81766 0
M  V30 11602 C 1131.54 0.445744 4.41053 0
M  V30 11603 H 1128.76 0.218525 0.634419 0
M  V30 11604 H 1131.31 1.23715 1.62834 0
M  V30 11605 H 1129.46 0.169323 3.8703 0
M  V30 11606 H 1129.87 2.19469 4.76375 0
M  V30 11607 H 1131.35 0.64284 5.48244 0
M  V30 11608 H 1131.83 -0.618433 4.34824 0
M  V30 11609 H 1132.43 1.03869 4.12421 0
M  V30 11610 N 1130.75 -1.41857 0.686609 0
M  V30 11611 C 1131.99 -2.0097 0.213378 0
M  V30 11612 C 1132.32 -1.54618 -1.1882 0
M  V30 11613 O 1131.59 -0.772916 -1.80008 0
M  V30 11614 H 1130.17 -0.743134 0.0758968 0
M  V30 11615 H 1132.83 -1.73609 0.885763 0
M  V30 11616 H 1131.92 -3.11296 0.223826 0
M  V30 11617 N 1132.22 -0.430739 -1.51599 0
M  V30 11618 C 1133.17 0.401828 -2.24431 0
M  V30 11619 C 1134.16 0.995588 -1.264 0
M  V30 11620 O 1135.35 0.914822 -1.51526 0
M  V30 11621 C 1132.48 1.5061 -3.08499 0
M  V30 11622 C 1131.57 0.922059 -4.13955 0
M  V30 11623 N 1131.96 0.0665912 -5.05756 0
M  V30 11624 C 1130.25 1.19034 -4.29822 0
M  V30 11625 C 1130.96 -0.260713 -5.81115 0
M  V30 11626 N 1129.93 0.353991 -5.42446 0
M  V30 11627 H 1133.73 -0.257813 -2.92767 0
M  V30 11628 H 1131.25 -0.242421 -1.6058 0
M  V30 11629 H 1133.24 2.11535 -3.59247 0
M  V30 11630 H 1131.9 2.16815 -2.41706 0
M  V30 11631 H 1132.92 -0.299356 -5.17034 0
M  V30 11632 H 1129.59 1.85036 -3.74256 0
M  V30 11633 H 1130.98 -0.956442 -6.65058 0
M  V30 11634 N 1133.7 1.56767 -0.161869 0
M  V30 11635 C 1134.95 1.96594 0.485496 0
M  V30 11636 C 1135.28 1.04743 1.63887 0
M  V30 11637 O 1134.53 0.079602 1.95538 0
M  V30 11638 C 1134.83 3.42567 1.01894 0
M  V30 11639 C 1134.5 4.50897 -0.0175419 0
M  V30 11640 C 1133.16 4.80249 -0.302429 0
M  V30 11641 C 1135.51 5.16181 -0.721572 0
M  V30 11642 C 1132.84 5.72187 -1.2969 0
M  V30 11643 C 1135.19 6.09191 -1.70496 0
M  V30 11644 C 1133.86 6.36915 -1.99739 0
M  V30 11645 H 1133.13 0.719388 0.177656 0
M  V30 11646 H 1135.77 1.89837 -0.251839 0
M  V30 11647 H 1134.08 3.4623 1.83391 0
M  V30 11648 H 1135.77 3.70719 1.52867 0
M  V30 11649 H 1132.36 4.28062 0.21468 0
M  V30 11650 H 1136.55 4.93624 -0.514681 0
M  V30 11651 H 1131.8 5.91953 -1.52974 0
M  V30 11652 H 1135.98 6.58849 -2.25591 0
M  V30 11653 H 1133.61 7.07958 -2.76948 0
M  V30 11654 N 1135.18 -0.111886 1.57202 0
M  V30 11655 C 1136.09 -1.1556 2.04165 0
M  V30 11656 C 1137.11 -1.44898 0.963354 0
M  V30 11657 O 1138.28 -1.55873 1.27536 0
M  V30 11658 C 1135.35 -2.46048 2.44256 0
M  V30 11659 C 1134.41 -2.24043 3.66201 0
M  V30 11660 C 1133.64 -3.4831 4.04371 0
M  V30 11661 O 1133.86 -4.55895 3.42806 0
M  V30 11662 O 1132.8 -3.38891 4.9743 0
M  V30 11663 H 1136.62 -0.786778 2.93332 0
M  V30 11664 H 1134.21 -0.323196 1.45862 0
M  V30 11665 H 1136.09 -3.22916 2.70745 0
M  V30 11666 H 1134.77 -2.8239 1.58233 0
M  V30 11667 H 1133.67 -1.4501 3.44852 0
M  V30 11668 H 1135.01 -1.92602 4.52952 0
M  V30 11669 N 1136.66 -1.52894 -0.382264 0
M  V30 11670 C 1137.9 -1.68515 -1.12829 0
M  V30 11671 C 1138.24 -0.427211 -1.89443 0
M  V30 11672 O 1137.51 0.57516 -1.85801 0
M  V30 11673 C 1137.8 -2.92449 -2.10108 0
M  V30 11674 C 1137.65 -4.2836 -1.37214 0
M  V30 11675 C 1138.97 -3.11944 -3.1045 0
M  V30 11676 H 1136.09 -0.613223 -0.408811 0
M  V30 11677 H 1138.73 -1.85503 -0.410921 0
M  V30 11678 H 1136.88 -2.78097 -2.71283 0
M  V30 11679 H 1138.55 -4.54493 -0.789516 0
M  V30 11680 H 1136.79 -4.28532 -0.673973 0
M  V30 11681 H 1137.46 -5.11178 -2.0833 0
M  V30 11682 H 1139.94 -3.25372 -2.59369 0
M  V30 11683 H 1138.82 -4.00125 -3.75754 0
M  V30 11684 H 1139.08 -2.26465 -3.79692 0
M  V30 11685 N 1138.14 0.641106 -1.43971 0
M  V30 11686 C 1139.07 1.76489 -1.52885 0
M  V30 11687 C 1140.05 1.65742 -0.38258 0
M  V30 11688 O 1141.23 1.84653 -0.601397 0
M  V30 11689 C 1138.36 3.14977 -1.4631 0
M  V30 11690 C 1137.32 3.40502 -2.59311 0
M  V30 11691 C 1136.64 4.78916 -2.37789 0
M  V30 11692 C 1137.94 3.34048 -4.01509 0
M  V30 11693 H 1139.64 1.69286 -2.46946 0
M  V30 11694 H 1137.18 0.813015 -1.18853 0
M  V30 11695 H 1139.14 3.9336 -1.51149 0
M  V30 11696 H 1137.86 3.2294 -0.487599 0
M  V30 11697 H 1136.52 2.64495 -2.53846 0
M  V30 11698 H 1136.17 4.8357 -1.38454 0
M  V30 11699 H 1135.87 4.96954 -3.13545 0
M  V30 11700 H 1137.39 5.59541 -2.4443 0
M  V30 11701 H 1138.81 4.0235 -4.08396 0
M  V30 11702 H 1137.2 3.63622 -4.77388 0
M  V30 11703 H 1138.27 2.32022 -4.25786 0
M  V30 11704 N 1139.62 1.30703 0.880598 0
M  V30 11705 C 1140.55 1.1327 1.99255 0
M  V30 11706 C 1141.56 0.0747186 1.62628 0
M  V30 11707 O 1142.75 0.321169 1.75587 0
M  V30 11708 C 1139.85 0.706179 3.31461 0
M  V30 11709 C 1139.02 1.84687 3.96497 0
M  V30 11710 C 1138.08 1.40817 5.07008 0
M  V30 11711 O 1137.11 2.1161 5.28403 0
M  V30 11712 N 1138.31 0.289619 5.79777 0
M  V30 11713 H 1141.07 2.09043 2.14759 0
M  V30 11714 H 1138.64 1.22896 1.05395 0
M  V30 11715 H 1140.63 0.395617 4.02762 0
M  V30 11716 H 1139.2 -0.159631 3.12192 0
M  V30 11717 H 1138.42 2.32531 3.18312 0
M  V30 11718 H 1139.71 2.61117 4.36687 0
M  V30 11719 H 1139.1 -0.300177 5.64903 0
M  V30 11720 H 1137.66 0.0385346 6.51789 0
M  V30 11721 N 1141.09 -1.09351 1.1349 0
M  V30 11722 C 1142.04 -2.18099 0.808426 0
M  V30 11723 C 1143.04 -1.68099 -0.209571 0
M  V30 11724 O 1144.24 -1.79877 -0.0666417 0
M  V30 11725 H 1140.62 -0.711432 0.243658 0
M  V30 11726 H 1142.59 -2.42867 1.73373 0
M  V30 11727 C 1141.34 -3.46475 0.291615 0
M  V30 11728 H 1140.66 -3.85319 1.06627 0
M  V30 11729 H 1142.1 -4.23878 0.101616 0
M  V30 11730 C 1140.56 -3.22245 -0.982827 0
M  V30 11731 O 1141.09 -3.44947 -2.0585 0
M  V30 11732 N 1139.29 -2.75845 -0.914218 0
M  V30 11733 H 1138.84 -2.57571 -0.03872 0
M  V30 11734 H 1138.8 -2.60011 -1.76753 0
M  V30 11735 N 1142.57 -0.928524 -1.27343 0
M  V30 11736 C 1143.48 -0.433901 -2.30553 0
M  V30 11737 C 1144.5 0.485832 -1.6708 0
M  V30 11738 O 1145.67 0.36844 -1.98001 0
M  V30 11739 C 1142.74 0.304617 -3.45359 0
M  V30 11740 C 1141.8 -0.650131 -4.24349 0
M  V30 11741 C 1141.03 0.0532372 -5.33673 0
M  V30 11742 O 1141.26 1.27246 -5.56026 0
M  V30 11743 O 1140.19 -0.619009 -5.98709 0
M  V30 11744 H 1144.02 -1.2909 -2.74899 0
M  V30 11745 H 1141.6 -0.693903 -1.32308 0
M  V30 11746 H 1143.48 0.721137 -4.15184 0
M  V30 11747 H 1142.16 1.13721 -3.03066 0
M  V30 11748 H 1141.06 -1.11635 -3.57055 0
M  V30 11749 H 1142.4 -1.44996 -4.70358 0
M  V30 11750 N 1144.05 1.41491 -0.694123 0
M  V30 11751 C 1145.33 1.95004 -0.152571 0
M  V30 11752 C 1145.71 1.63357 1.33707 0
M  V30 11753 O 1145.05 0.939815 2.08278 0
M  V30 11754 C 1145.26 3.46186 -0.44232 0
M  V30 11755 C 1146.61 4.22991 -0.369279 0
M  V30 11756 O 1147.64 3.54198 -0.377152 0
M  V30 11757 O 1146.5 5.45514 -0.328145 0
M  V30 11758 H 1143.59 0.826879 -0.0141253 0
M  V30 11759 H 1146.14 1.51216 -0.770183 0
M  V30 11760 H 1144.91 3.62497 -1.47348 0
M  V30 11761 H 1144.53 3.97064 0.206337 0
M  V30 11762 N 1145.53 0.438773 1.51369 0
M  V30 11763 C 1146.77 -0.127401 2.02399 0
M  V30 11764 C 1147.11 -1.42235 1.32223 0
M  V30 11765 O 1146.38 -1.89513 0.437607 0
M  V30 11766 C 1146.66 -0.344673 3.58447 0
M  V30 11767 C 1146.52 0.969027 4.39238 0
M  V30 11768 C 1147.84 -1.11381 4.25773 0
M  V30 11769 H 1144.96 -0.0448281 0.735635 0
M  V30 11770 H 1147.6 0.57805 1.80993 0
M  V30 11771 H 1145.75 -0.945582 3.76817 0
M  V30 11772 H 1147.42 1.60403 4.32514 0
M  V30 11773 H 1145.66 1.57329 4.04265 0
M  V30 11774 H 1146.33 0.771029 5.46589 0
M  V30 11775 H 1148.81 -0.604785 4.11681 0
M  V30 11776 H 1147.69 -1.23459 5.34835 0
M  V30 11777 H 1147.95 -2.14225 3.8673 0
M  V30 11778 N 1147.01 -1.56678 0.170181 0
M  V30 11779 C 1148.25 -1.96849 -0.475064 0
M  V30 11780 C 1148.58 -1.05611 -1.6333 0
M  V30 11781 O 1147.84 -0.0899708 -1.95493 0
M  V30 11782 C 1148.13 -3.43103 -1.00076 0
M  V30 11783 C 1147.8 -4.50881 0.0414538 0
M  V30 11784 C 1146.46 -4.80082 0.327894 0
M  V30 11785 C 1148.81 -5.15791 0.748936 0
M  V30 11786 C 1146.14 -5.71491 1.32722 0
M  V30 11787 C 1148.49 -6.08278 1.73724 0
M  V30 11788 C 1147.16 -6.35847 2.03114 0
M  V30 11789 H 1146.43 -0.72032 -0.173838 0
M  V30 11790 H 1149.08 -1.89701 0.261903 0
M  V30 11791 H 1147.38 -3.47197 -1.81553 0
M  V30 11792 H 1149.08 -3.71525 -1.50899 0
M  V30 11793 H 1145.67 -4.2817 -0.191976 0
M  V30 11794 H 1149.85 -4.93344 0.540852 0
M  V30 11795 H 1145.11 -5.91134 1.56112 0
M  V30 11796 H 1149.28 -6.57643 2.29082 0
M  V30 11797 H 1146.91 -7.06479 2.80698 0
M  V30 11798 N 1148.48 0.103547 -1.57259 0
M  V30 11799 C 1149.71 0.82235 -1.89855 0
M  V30 11800 C 1150.13 1.72694 -0.76303 0
M  V30 11801 O 1149.48 1.8056 0.265421 0
M  V30 11802 C 1149.53 1.64282 -3.22015 0
M  V30 11803 O 1149.26 0.774628 -4.31197 0
M  V30 11804 C 1150.76 2.46543 -3.68418 0
M  V30 11805 H 1147.98 0.235591 -0.628282 0
M  V30 11806 H 1150.52 0.0833106 -2.0433 0
M  V30 11807 H 1148.68 2.33446 -3.09163 0
M  V30 11808 H 1149.09 1.34205 -5.0704 0
M  V30 11809 H 1150.56 2.99618 -4.63609 0
M  V30 11810 H 1151.04 3.24618 -2.95838 0
M  V30 11811 H 1151.65 1.82594 -3.84109 0
M  V30 11812 N 1149.96 1.53094 0.37415 0
M  V30 11813 C 1150.89 1.81901 1.46404 0
M  V30 11814 C 1151.87 0.671949 1.56265 0
M  V30 11815 O 1153.06 0.920978 1.70973 0
M  V30 11816 C 1150.19 2.00123 2.83845 0
M  V30 11817 C 1149.14 3.15864 2.88814 0
M  V30 11818 C 1148.47 3.19364 4.28848 0
M  V30 11819 C 1149.77 4.54633 2.57112 0
M  V30 11820 H 1151.46 2.73172 1.22546 0
M  V30 11821 H 1149.01 1.31444 0.588087 0
M  V30 11822 H 1150.96 2.18859 3.6011 0
M  V30 11823 H 1149.68 1.05555 3.09072 0
M  V30 11824 H 1148.34 2.96935 2.15 0
M  V30 11825 H 1147.99 2.2245 4.51137 0
M  V30 11826 H 1147.69 3.97123 4.3309 0
M  V30 11827 H 1149.22 3.40273 5.06997 0
M  V30 11828 H 1150.63 4.73587 3.23091 0
M  V30 11829 H 1149.03 5.34569 2.72683 0
M  V30 11830 H 1150.1 4.60331 1.52392 0
M  V30 11831 N 1151.44 -0.633461 1.44309 0
M  V30 11832 C 1152.69 -1.39513 1.47187 0
M  V30 11833 C 1153.02 -1.93926 0.103186 0
M  V30 11834 O 1152.29 -1.73512 -0.878853 0
M  V30 11835 C 1152.58 -2.56213 2.53036 0
M  V30 11836 C 1152.43 -2.07164 3.99253 0
M  V30 11837 C 1153.75 -3.58403 2.55412 0
M  V30 11838 H 1150.87 -0.505936 0.535908 0
M  V30 11839 H 1153.51 -0.716445 1.75975 0
M  V30 11840 H 1151.66 -3.14111 2.28619 0
M  V30 11841 H 1153.33 -1.54115 4.34795 0
M  V30 11842 H 1151.57 -1.38367 4.11141 0
M  V30 11843 H 1152.25 -2.91172 4.6896 0
M  V30 11844 H 1154.72 -3.103 2.77224 0
M  V30 11845 H 1153.6 -4.37581 3.31382 0
M  V30 11846 H 1153.86 -4.12316 1.59523 0
M  V30 11847 N 1152.92 -1.31168 -0.873655 0
M  V30 11848 C 1153.85 -1.21094 -1.99646 0
M  V30 11849 C 1154.83 -0.0989684 -1.69812 0
M  V30 11850 O 1156.01 -0.282939 -1.92128 0
M  V30 11851 C 1153.14 -0.913684 -3.35066 0
M  V30 11852 C 1152.1 -1.98482 -3.79195 0
M  V30 11853 C 1151.42 -1.54033 -5.12033 0
M  V30 11854 C 1152.72 -3.39745 -3.96699 0
M  V30 11855 H 1154.42 -2.1503 -2.08333 0
M  V30 11856 H 1151.96 -1.03521 -1.00097 0
M  V30 11857 H 1153.92 -0.829821 -4.13149 0
M  V30 11858 H 1152.64 0.0613471 -3.26542 0
M  V30 11859 H 1151.3 -2.05851 -3.03349 0
M  V30 11860 H 1150.95 -0.553261 -4.99948 0
M  V30 11861 H 1150.65 -2.25688 -5.4253 0
M  V30 11862 H 1152.17 -1.47047 -5.92629 0
M  V30 11863 H 1153.59 -3.35071 -4.65188 0
M  V30 11864 H 1151.98 -4.09585 -4.38589 0
M  V30 11865 H 1153.05 -3.80802 -3.00196 0
M  V30 11866 N 1154.4 1.08748 -1.14068 0
M  V30 11867 C 1155.34 2.15573 -0.824425 0
M  V30 11868 C 1156.31 1.64683 0.216522 0
M  V30 11869 O 1157.5 1.90601 0.0872193 0
M  V30 11870 C 1154.64 3.43756 -0.30423 0
M  V30 11871 C 1153.75 4.08512 -1.40506 0
M  V30 11872 C 1152.89 5.24477 -0.842479 0
M  V30 11873 C 1151.93 5.81167 -1.92123 0
M  V30 11874 N 1151.06 6.88483 -1.37608 0
M  V30 11875 H 1155.9 2.41968 -1.73941 0
M  V30 11876 H 1153.44 1.18751 -0.868143 0
M  V30 11877 H 1155.4 4.17197 0.0155546 0
M  V30 11878 H 1154.03 3.17658 0.573868 0
M  V30 11879 H 1153.08 3.32866 -1.84131 0
M  V30 11880 H 1154.39 4.46669 -2.2201 0
M  V30 11881 H 1153.55 6.04842 -0.474389 0
M  V30 11882 H 1152.28 4.877 0.00355212 0
M  V30 11883 H 1151.29 4.99458 -2.29831 0
M  V30 11884 H 1152.51 6.20003 -2.77079 0
M  V30 11885 H 1150.46 6.53672 -0.552168 0
M  V30 11886 H 1150.38 7.25446 -2.12752 0
M  V30 11887 H 1151.65 7.72588 -1.03578 0
M  V30 11888 N 1155.87 0.935264 1.26849 0
M  V30 11889 C 1156.82 0.438896 2.26588 0
M  V30 11890 C 1157.79 -0.498267 1.5845 0
M  V30 11891 O 1158.98 -0.415771 1.86215 0
M  V30 11892 C 1156.12 -0.295293 3.43834 0
M  V30 11893 C 1155.23 0.676857 4.26665 0
M  V30 11894 C 1154.36 -0.0779349 5.31143 0
M  V30 11895 C 1153.4 0.886425 6.05648 0
M  V30 11896 N 1152.54 0.163771 7.01909 0
M  V30 11897 H 1157.38 1.29439 2.6842 0
M  V30 11898 H 1154.92 0.649523 1.31983 0
M  V30 11899 H 1156.88 -0.737354 4.10632 0
M  V30 11900 H 1155.51 -1.11497 3.02933 0
M  V30 11901 H 1154.56 1.23744 3.5971 0
M  V30 11902 H 1155.87 1.41355 4.78351 0
M  V30 11903 H 1155.02 -0.579557 6.03926 0
M  V30 11904 H 1153.76 -0.84755 4.80279 0
M  V30 11905 H 1152.77 1.39923 5.31697 0
M  V30 11906 H 1153.99 1.65595 6.58601 0
M  V30 11907 H 1151.94 -0.58746 6.53364 0
M  V30 11908 H 1151.86 0.839902 7.5132 0
M  V30 11909 H 1153.12 -0.316951 7.78855 0
M  V30 11910 N 1157.35 -1.41121 0.701616 0
M  V30 11911 C 1158.6 -2.01428 0.235495 0
M  V30 11912 C 1158.93 -1.55463 -1.16382 0
M  V30 11913 O 1158.21 -0.768477 -1.78675 0
M  V30 11914 C 1158.49 -3.58849 0.299919 0
M  V30 11915 C 1158.34 -4.14924 1.73661 0
M  V30 11916 C 1159.66 -4.38809 -0.336856 0
M  V30 11917 H 1156.78 -0.731842 0.0870456 0
M  V30 11918 H 1159.42 -1.67787 0.891479 0
M  V30 11919 H 1157.57 -3.87638 -0.258611 0
M  V30 11920 H 1159.24 -3.96987 2.34945 0
M  V30 11921 H 1157.49 -3.69738 2.26884 0
M  V30 11922 H 1158.16 -5.24085 1.73318 0
M  V30 11923 H 1160.63 -4.15868 0.138886 0
M  V30 11924 H 1159.51 -5.48278 -0.261264 0
M  V30 11925 H 1159.77 -4.18728 -1.41843 0
M  V30 11926 N 1158.83 -0.446794 -1.51134 0
M  V30 11927 C 1159.76 0.395804 -2.25757 0
M  V30 11928 C 1160.78 0.978178 -1.30137 0
M  V30 11929 O 1161.96 0.87071 -1.55823 0
M  V30 11930 C 1159.06 1.56665 -3.00515 0
M  V30 11931 C 1158.24 1.10146 -4.23305 0
M  V30 11932 C 1157.3 2.14352 -4.80562 0
M  V30 11933 O 1156.32 1.73401 -5.42145 0
M  V30 11934 N 1157.52 3.46932 -4.65423 0
M  V30 11935 H 1160.29 -0.243808 -2.98707 0
M  V30 11936 H 1157.85 -0.276205 -1.59527 0
M  V30 11937 H 1159.84 2.26019 -3.35704 0
M  V30 11938 H 1158.41 2.11142 -2.30516 0
M  V30 11939 H 1157.63 0.234644 -3.93501 0
M  V30 11940 H 1158.92 0.768185 -5.02968 0
M  V30 11941 H 1158.32 3.82929 -4.16391 0
M  V30 11942 H 1156.88 4.12154 -5.04948 0
M  V30 11943 N 1160.31 1.56586 -0.178487 0
M  V30 11944 C 1161.72 1.83633 0.337009 0
M  V30 11945 C 1162.07 1.09857 1.6256 0
M  V30 11946 O 1161.2 0.353933 2.13486 0
M  V30 11947 C 1161.79 3.33112 0.618225 0
M  V30 11948 C 1160.35 3.60629 1.07814 0
M  V30 11949 C 1159.5 2.7705 0.117825 0
M  V30 11950 H 1162.45 1.53508 -0.402612 0
M  V30 11951 H 1162.47 3.5098 1.46947 0
M  V30 11952 H 1161.98 3.8678 -0.319808 0
M  V30 11953 H 1160.08 3.12378 2.03103 0
M  V30 11954 H 1160.19 4.68921 0.982339 0
M  V30 11955 H 1158.56 2.47125 0.616563 0
M  V30 11956 H 1159.34 3.33501 -0.814356 0
M  V30 11957 N 1161.79 -0.095206 1.57312 0
M  V30 11958 C 1163.03 -0.794786 1.87229 0
M  V30 11959 C 1163.39 -1.7635 0.769305 0
M  V30 11960 O 1162.68 -1.9023 -0.228704 0
M  V30 11961 C 1162.87 -1.56244 3.21438 0
M  V30 11962 C 1162.7 -0.669563 4.44687 0
M  V30 11963 C 1161.47 -0.315338 5.04315 0
M  V30 11964 C 1163.67 0.0234175 5.14295 0
M  V30 11965 N 1161.65 0.585709 6.111 0
M  V30 11966 C 1163.02 0.782538 6.15042 0
M  V30 11967 C 1165.08 0.0973496 4.97805 0
M  V30 11968 C 1163.78 1.60868 7.01081 0
M  V30 11969 C 1165.81 0.910394 5.84351 0
M  V30 11970 C 1165.17 1.65763 6.84618 0
M  V30 11971 H 1161.27 -0.267005 0.735005 0
M  V30 11972 H 1163.85 -0.0573245 1.94616 0
M  V30 11973 H 1162.02 -2.27077 3.15104 0
M  V30 11974 H 1163.76 -2.2092 3.39082 0
M  V30 11975 H 1160.51 -0.662971 4.68937 0
M  V30 11976 H 1160.94 1.02878 6.69138 0
M  V30 11977 H 1165.58 -0.46602 4.20224 0
M  V30 11978 H 1163.3 2.18312 7.78052 0
M  V30 11979 H 1166.88 0.97027 5.73652 0
M  V30 11980 H 1165.76 2.27663 7.50426 0
M  V30 11981 N 1163.26 -1.53291 -0.366026 0
M  V30 11982 C 1164.21 -1.76077 -1.44847 0
M  V30 11983 C 1165.2 -0.615302 -1.4867 0
M  V30 11984 O 1166.39 -0.873952 -1.53919 0
M  V30 11985 C 1163.52 -1.95371 -2.82286 0
M  V30 11986 C 1162.61 -3.15918 -2.82943 0
M  V30 11987 N 1163 -4.37835 -2.53247 0
M  V30 11988 C 1161.29 -3.16631 -3.14103 0
M  V30 11989 C 1162 -5.19573 -2.6157 0
M  V30 11990 N 1160.97 -4.55773 -2.96263 0
M  V30 11991 H 1164.77 -2.67949 -1.2075 0
M  V30 11992 H 1162.29 -1.5191 -0.574206 0
M  V30 11993 H 1164.28 -2.09823 -3.6025 0
M  V30 11994 H 1162.94 -1.04727 -3.07347 0
M  V30 11995 H 1163.96 -4.65575 -2.26848 0
M  V30 11996 H 1160.63 -2.35878 -3.44482 0
M  V30 11997 H 1162.02 -6.26821 -2.41961 0
M  V30 11998 N 1164.74 0.6258 -1.44643 0
M  V30 11999 C 1165.71 1.71941 -1.51555 0
M  V30 12000 C 1166.71 1.55822 -0.396988 0
M  V30 12001 O 1167.9 1.61221 -0.65981 0
M  V30 12002 C 1165.03 3.11068 -1.39461 0
M  V30 12003 H 1166.22 1.67185 -2.48976 0
M  V30 12004 H 1163.77 0.839934 -1.31814 0
M  V30 12005 H 1164.51 3.21416 -0.431534 0
M  V30 12006 H 1164.29 3.24175 -2.20574 0
M  V30 12007 H 1165.78 3.90762 -1.4729 0
M  V30 12008 N 1166.22 1.31629 0.866686 0
M  V30 12009 C 1167.47 1.21263 1.61678 0
M  V30 12010 C 1167.79 -0.228562 1.93656 0
M  V30 12011 O 1167.06 -1.15014 1.58583 0
M  V30 12012 H 1165.64 0.445817 0.59938 0
M  V30 12013 H 1168.3 1.64998 1.03739 0
M  V30 12014 H 1167.4 1.78669 2.55898 0
M  V30 12015 N 1167.7 -1.08142 1.14644 0
M  V30 12016 C 1168.63 -2.15022 0.793614 0
M  V30 12017 C 1169.64 -1.61679 -0.190729 0
M  V30 12018 O 1170.83 -1.78472 0.0313696 0
M  V30 12019 C 1167.93 -3.38532 0.157785 0
M  V30 12020 C 1167.11 -4.21252 1.17753 0
M  V30 12021 C 1166.17 -5.23158 0.564968 0
M  V30 12022 O 1165.19 -5.5578 1.22869 0
M  V30 12023 N 1166.39 -5.7677 -0.657022 0
M  V30 12024 H 1169.16 -2.45893 1.71338 0
M  V30 12025 H 1166.72 -1.23976 1.04122 0
M  V30 12026 H 1168.71 -4.03834 -0.264586 0
M  V30 12027 H 1167.28 -3.05441 -0.665168 0
M  V30 12028 H 1166.5 -3.51888 1.77675 0
M  V30 12029 H 1167.79 -4.73335 1.86632 0
M  V30 12030 H 1167.19 -5.52503 -1.21478 0
M  V30 12031 H 1165.74 -6.4374 -1.02186 0
M  V30 12032 N 1169.18 -0.941978 -1.26351 0
M  V30 12033 C 1170.41 -0.605868 -1.97517 0
M  V30 12034 C 1170.82 0.823583 -1.70334 0
M  V30 12035 O 1170.16 1.56085 -0.968662 0
M  V30 12036 C 1170.22 -0.769201 -3.51175 0
M  V30 12037 C 1169.88 -2.17343 -4.02009 0
M  V30 12038 C 1170.88 -3.14898 -4.13685 0
M  V30 12039 C 1168.57 -2.49422 -4.35998 0
M  V30 12040 C 1170.56 -4.42631 -4.58646 0
M  V30 12041 C 1168.25 -3.77388 -4.80647 0
M  V30 12042 C 1169.25 -4.73806 -4.91932 0
M  V30 12043 O 1168.93 -5.99493 -5.35596 0
M  V30 12044 H 1168.67 -0.227113 -0.636707 0
M  V30 12045 H 1171.22 -1.26523 -1.61806 0
M  V30 12046 H 1169.45 -0.0527104 -3.86664 0
M  V30 12047 H 1171.14 -0.436032 -4.03551 0
M  V30 12048 H 1171.9 -2.91438 -3.87671 0
M  V30 12049 H 1167.78 -1.7511 -4.26448 0
M  V30 12050 H 1171.33 -5.17892 -4.67369 0
M  V30 12051 H 1167.22 -4.0066 -5.06105 0
M  V30 12052 H 1167.99 -6.02687 -5.53815 0
M  V30 12053 N 1170.66 1.40747 -0.709091 0
M  V30 12054 C 1171.57 2.3454 -0.0532205 0
M  V30 12055 C 1172.58 1.56956 0.751057 0
M  V30 12056 O 1173.76 1.89375 0.685509 0
M  V30 12057 C 1170.82 3.35809 0.862157 0
M  V30 12058 C 1169.88 4.29273 0.0485632 0
M  V30 12059 C 1169.12 5.25705 0.920345 0
M  V30 12060 O 1169.34 5.27933 2.15969 0
M  V30 12061 O 1168.27 6.00806 0.3628 0
M  V30 12062 H 1172.1 2.92232 -0.826698 0
M  V30 12063 H 1169.68 1.4183 -0.469519 0
M  V30 12064 H 1171.57 3.97931 1.38668 0
M  V30 12065 H 1170.24 2.8054 1.61489 0
M  V30 12066 H 1169.15 3.70456 -0.520873 0
M  V30 12067 H 1170.48 4.87676 -0.665807 0
M  V30 12068 N 1172.13 0.454803 1.50895 0
M  V30 12069 C 1173.38 -0.107367 2.01414 0
M  V30 12070 C 1173.7 -1.42243 1.34262 0
M  V30 12071 O 1174.9 -2.06858 1.75846 0
M  V30 12072 C 1173.36 -0.241872 3.59086 0
M  V30 12073 C 1172.97 1.06379 4.35187 0
M  V30 12074 C 1174.71 -0.756873 4.17698 0
M  V30 12075 C 1172.62 0.893973 5.84604 0
M  V30 12076 H 1171.55 -0.0439003 0.752721 0
M  V30 12077 H 1174.2 0.587225 1.7385 0
M  V30 12078 H 1172.58 -0.999873 3.83169 0
M  V30 12079 H 1173.75 1.83148 4.2284 0
M  V30 12080 H 1172.07 1.50865 3.88109 0
M  V30 12081 H 1174.67 -0.900697 5.27059 0
M  V30 12082 H 1175.01 -1.74397 3.7801 0
M  V30 12083 H 1175.54 -0.0567088 3.9776 0
M  V30 12084 H 1172.28 1.85395 6.28736 0
M  V30 12085 H 1171.8 0.166387 5.99569 0
M  V30 12086 H 1173.48 0.554084 6.44623 0
M  V30 12087 N 1173.61 -1.56489 0.186789 0
M  V30 12088 C 1174.54 -2.21705 -0.732739 0
M  V30 12089 C 1175.52 -1.17751 -1.22755 0
M  V30 12090 O 1176.71 -1.46231 -1.27789 0
M  V30 12091 C 1173.84 -2.86992 -1.95584 0
M  V30 12092 C 1172.79 -3.97118 -1.59628 0
M  V30 12093 C 1172.12 -4.49529 -2.89531 0
M  V30 12094 C 1173.42 -5.15941 -0.812518 0
M  V30 12095 H 1175.11 -2.98802 -0.189094 0
M  V30 12096 H 1172.66 -1.43722 -0.0895099 0
M  V30 12097 H 1174.61 -3.31295 -2.60426 0
M  V30 12098 H 1173.33 -2.07287 -2.52388 0
M  V30 12099 H 1171.99 -3.53494 -0.971475 0
M  V30 12100 H 1171.64 -3.66596 -3.44407 0
M  V30 12101 H 1171.34 -5.23832 -2.66221 0
M  V30 12102 H 1172.87 -4.96528 -3.55376 0
M  V30 12103 H 1174.28 -5.56841 -1.36386 0
M  V30 12104 H 1172.68 -5.96259 -0.677862 0
M  V30 12105 H 1173.75 -4.84535 0.188095 0
M  V30 12106 N 1175.09 0.086862 -1.5736 0
M  V30 12107 C 1176.02 1.10538 -2.05678 0
M  V30 12108 C 1177 1.41281 -0.947293 0
M  V30 12109 O 1178.19 1.51169 -1.21908 0
M  V30 12110 C 1175.32 2.42302 -2.48812 0
M  V30 12111 C 1174.27 2.25948 -3.63499 0
M  V30 12112 C 1173.6 3.62961 -3.92637 0
M  V30 12113 C 1174.9 1.69319 -4.94094 0
M  V30 12114 H 1176.59 0.703371 -2.91021 0
M  V30 12115 H 1174.14 0.336895 -1.40004 0
M  V30 12116 H 1176.09 3.13833 -2.81224 0
M  V30 12117 H 1174.81 2.84454 -1.60479 0
M  V30 12118 H 1173.47 1.5686 -3.31347 0
M  V30 12119 H 1173.12 4.02656 -3.01459 0
M  V30 12120 H 1172.82 3.52862 -4.69853 0
M  V30 12121 H 1174.34 4.35946 -4.27531 0
M  V30 12122 H 1175.76 2.30699 -5.24834 0
M  V30 12123 H 1174.15 1.69957 -5.7553 0
M  V30 12124 H 1175.22 0.653318 -4.80479 0
M  V30 12125 N 1176.57 1.53483 0.357892 0
M  V30 12126 C 1177.51 1.80463 1.43881 0
M  V30 12127 C 1178.48 0.649438 1.52877 0
M  V30 12128 O 1179.67 0.892409 1.68644 0
M  V30 12129 C 1176.81 2.00714 2.80727 0
M  V30 12130 C 1175.92 3.28431 2.80637 0
M  V30 12131 C 1175.06 3.38828 4.09107 0
M  V30 12132 C 1174.1 4.60549 4.03189 0
M  V30 12133 N 1173.23 4.68057 5.23323 0
M  V30 12134 H 1178.07 2.72694 1.20174 0
M  V30 12135 H 1175.61 1.35079 0.582422 0
M  V30 12136 H 1177.57 2.10444 3.60235 0
M  V30 12137 H 1176.2 1.11811 3.02817 0
M  V30 12138 H 1175.25 3.27617 1.93317 0
M  V30 12139 H 1176.56 4.18022 2.72138 0
M  V30 12140 H 1175.72 3.47911 4.97034 0
M  V30 12141 H 1174.46 2.47267 4.20369 0
M  V30 12142 H 1173.46 4.51558 3.13649 0
M  V30 12143 H 1174.69 5.53459 3.93523 0
M  V30 12144 H 1172.63 3.794 5.35156 0
M  V30 12145 H 1172.55 5.51563 5.17024 0
M  V30 12146 H 1173.82 4.81433 6.1306 0
M  V30 12147 N 1178.05 -0.61812 1.44973 0
M  V30 12148 C 1178.99 -1.75059 1.53157 0
M  V30 12149 C 1179.99 -1.64554 0.402282 0
M  V30 12150 O 1181.19 -1.70475 0.577767 0
M  V30 12151 H 1177.57 -0.57817 0.480856 0
M  V30 12152 H 1179.54 -1.65281 2.48445 0
M  V30 12153 C 1178.29 -3.13423 1.50538 0
M  V30 12154 H 1177.61 -3.2216 2.36755 0
M  V30 12155 H 1179.05 -3.92521 1.60323 0
M  V30 12156 C 1177.51 -3.36127 0.228127 0
M  V30 12157 O 1178.04 -3.95618 -0.696364 0
M  V30 12158 N 1176.25 -2.90322 0.127142 0
M  V30 12159 H 1175.79 -2.42091 0.880317 0
M  V30 12160 H 1175.75 -3.05887 -0.726659 0
M  V30 12161 N 1179.52 -1.32087 -0.859693 0
M  V30 12162 C 1180.94 -1.10968 -1.14709 0
M  V30 12163 C 1181.14 0.113139 -2.01182 0
M  V30 12164 O 1180.2 0.799499 -2.39508 0
M  V30 12165 C 1181.51 -2.38657 -1.8293 0
M  V30 12166 C 1183.06 -2.44366 -1.95587 0
M  V30 12167 C 1183.53 -3.71963 -2.67222 0
M  V30 12168 N 1185.02 -3.72916 -2.7475 0
M  V30 12169 C 1185.76 -4.68346 -3.30816 0
M  V30 12170 N 1185.25 -5.74139 -3.87732 0
M  V30 12171 N 1187.05 -4.55851 -3.28872 0
M  V30 12172 H 1179.2 -2.10497 -0.283711 0
M  V30 12173 H 1181.46 -0.929108 -0.188315 0
M  V30 12174 H 1181.17 -3.2803 -1.26844 0
M  V30 12175 H 1181.04 -2.49236 -2.83128 0
M  V30 12176 H 1183.43 -1.55456 -2.50833 0
M  V30 12177 H 1183.51 -2.37744 -0.944001 0
M  V30 12178 H 1183.15 -4.61245 -2.1264 0
M  V30 12179 H 1183.08 -3.75855 -3.68837 0
M  V30 12180 H 1185.57 -2.96447 -2.34367 0
M  V30 12181 H 1185.89 -6.43021 -4.28654 0
M  V30 12182 H 1184.23 -5.779 -3.86078 0
M  V30 12183 H 1187.42 -3.72371 -2.83651 0
M  V30 12184 H 1187.6 -5.30398 -3.72266 0
M  V30 12185 N 1181 1.07532 -1.15215 0
M  V30 12186 C 1182.25 1.8036 -0.927263 0
M  V30 12187 C 1182.58 1.86414 0.544371 0
M  V30 12188 O 1181.86 1.34653 1.40353 0
M  V30 12189 C 1182.14 3.25512 -1.53992 0
M  V30 12190 C 1181.99 3.27614 -3.08203 0
M  V30 12191 C 1183.31 4.22731 -1.22418 0
M  V30 12192 H 1180.43 0.654775 -0.338289 0
M  V30 12193 H 1183.07 1.25842 -1.42351 0
M  V30 12194 H 1181.22 3.72068 -1.11791 0
M  V30 12195 H 1182.89 2.89315 -3.59297 0
M  V30 12196 H 1181.14 2.66627 -3.42188 0
M  V30 12197 H 1181.81 4.29956 -3.46182 0
M  V30 12198 H 1184.28 3.84557 -1.58919 0
M  V30 12199 H 1183.16 5.22589 -1.67906 0
M  V30 12200 H 1183.42 4.41875 -0.14091 0
M  V30 12201 N 1182.48 0.948665 1.2585 0
M  V30 12202 C 1183.73 0.59905 1.93018 0
M  V30 12203 C 1184.05 -0.865813 1.74725 0
M  V30 12204 O 1183.32 -1.61602 1.10732 0
M  V30 12205 H 1181.9 0.218565 0.71431 0
M  V30 12206 H 1184.56 1.20561 1.53137 0
M  V30 12207 H 1183.66 0.823244 3.01047 0
M  V30 12208 N 1183.96 -1.40369 0.716545 0
M  V30 12209 C 1184.87 -2.34508 0.065658 0
M  V30 12210 C 1185.88 -1.57352 -0.742723 0
M  V30 12211 O 1187.06 -1.89735 -0.675456 0
M  V30 12212 C 1184.13 -3.36262 -0.844337 0
M  V30 12213 C 1183.19 -4.29292 -0.0257971 0
M  V30 12214 C 1182.42 -5.26185 -0.892452 0
M  V30 12215 O 1182.64 -5.29071 -2.13166 0
M  V30 12216 O 1181.58 -6.0099 -0.330933 0
M  V30 12217 H 1185.4 -2.91789 0.842184 0
M  V30 12218 H 1182.99 -1.41579 0.477034 0
M  V30 12219 H 1184.87 -3.98661 -1.36555 0
M  V30 12220 H 1183.54 -2.81393 -1.59999 0
M  V30 12221 H 1182.45 -3.70175 0.540512 0
M  V30 12222 H 1183.78 -4.87316 0.69166 0
M  V30 12223 N 1185.44 -0.462799 -1.50652 0
M  V30 12224 C 1186.68 0.0938945 -2.04184 0
M  V30 12225 C 1187.04 1.37726 -1.33774 0
M  V30 12226 O 1188.24 2.01581 -1.77817 0
M  V30 12227 C 1186.51 0.281884 -3.56287 0
M  V30 12228 S 1188.07 0.798326 -4.31477 0
M  V30 12229 H 1184.89 0.0198719 -0.710722 0
M  V30 12230 H 1187.49 -0.62804 -1.85138 0
M  V30 12231 H 1186.2 -0.658084 -4.05089 0
M  V30 12232 H 1185.73 1.03017 -3.79672 0
M  V30 12233 H 1187.74 2.07281 -4.50832 0
M  V30 12234 N 1186.91 1.56388 -0.195085 0
M  V30 12235 C 1188.14 2.02406 0.452399 0
M  V30 12236 C 1188.56 1.07432 1.54402 0
M  V30 12237 O 1187.92 0.0578246 1.81208 0
M  V30 12238 C 1187.97 3.46864 0.985778 0
M  V30 12239 O 1187.07 3.55007 2.09867 0
M  V30 12240 H 1186.42 0.65553 0.105719 0
M  V30 12241 H 1188.95 2.02299 -0.30596 0
M  V30 12242 H 1188.96 3.86655 1.30238 0
M  V30 12243 H 1187.63 4.15481 0.186662 0
M  V30 12244 H 1186.21 3.2709 1.79071 0
M  V30 12245 N 1188.39 -0.0785156 1.57404 0
M  V30 12246 C 1189.63 -0.784359 1.88752 0
M  V30 12247 C 1190 -1.75081 0.788079 0
M  V30 12248 O 1191.2 -2.50125 0.984431 0
M  V30 12249 C 1189.47 -1.47962 3.25334 0
M  V30 12250 S 1191.03 -2.22146 3.78413 0
M  V30 12251 H 1187.85 -0.260976 0.661372 0
M  V30 12252 H 1190.45 -0.0407396 1.95458 0
M  V30 12253 H 1189.15 -0.762338 4.03257 0
M  V30 12254 H 1188.68 -2.26281 3.21808 0
M  V30 12255 H 1190.7 -3.48558 3.5316 0
M  V30 12256 N 1189.87 -1.5367 -0.349747 0
M  V30 12257 C 1190.8 -1.77528 -1.4497 0
M  V30 12258 C 1191.82 -0.656412 -1.4898 0
M  V30 12259 O 1193 -0.933016 -1.52174 0
M  V30 12260 C 1190.1 -1.85445 -2.8366 0
M  V30 12261 C 1189.28 -3.15295 -3.03163 0
M  V30 12262 C 1188.34 -3.1425 -4.22059 0
M  V30 12263 O 1187.36 -3.87994 -4.16472 0
M  V30 12264 N 1188.56 -2.36181 -5.30282 0
M  V30 12265 H 1191.33 -2.72444 -1.24877 0
M  V30 12266 H 1188.89 -1.52644 -0.539586 0
M  V30 12267 H 1190.88 -1.82204 -3.61364 0
M  V30 12268 H 1189.45 -0.977436 -2.96926 0
M  V30 12269 H 1188.67 -3.31711 -2.12983 0
M  V30 12270 H 1189.96 -4.01078 -3.13072 0
M  V30 12271 H 1189.36 -1.75808 -5.37688 0
M  V30 12272 H 1187.92 -2.38744 -6.06502 0
M  V30 12273 N 1191.35 0.610423 -1.45298 0
M  V30 12274 C 1192.59 1.37154 -1.49388 0
M  V30 12275 C 1192.93 1.93737 -0.134025 0
M  V30 12276 O 1192.2 1.74888 0.851138 0
M  V30 12277 C 1192.49 2.52155 -2.5708 0
M  V30 12278 C 1192.34 2.00786 -4.02498 0
M  V30 12279 C 1193.66 3.54294 -2.61082 0
M  V30 12280 H 1190.78 0.497346 -0.54389 0
M  V30 12281 H 1193.42 0.688358 -1.77092 0
M  V30 12282 H 1191.57 3.10434 -2.33587 0
M  V30 12283 H 1193.24 1.47178 -4.37191 0
M  V30 12284 H 1191.48 1.31809 -4.1329 0
M  V30 12285 H 1192.15 2.83674 -4.73533 0
M  V30 12286 H 1194.63 3.05851 -2.82125 0
M  V30 12287 H 1193.51 4.32254 -3.38301 0
M  V30 12288 H 1193.77 4.09726 -1.66063 0
M  V30 12289 N 1192.83 1.32541 0.852676 0
M  V30 12290 C 1194.05 1.2636 1.64462 0
M  V30 12291 C 1194.48 -0.16508 1.87374 0
M  V30 12292 O 1193.83 -1.11712 1.42794 0
M  V30 12293 C 1193.88 2.03052 2.97997 0
M  V30 12294 O 1192.99 1.37967 3.88637 0
M  V30 12295 H 1192.33 0.435393 0.501327 0
M  V30 12296 H 1194.86 1.74888 1.06186 0
M  V30 12297 H 1194.87 2.133 3.47803 0
M  V30 12298 H 1193.54 3.06941 2.80642 0
M  V30 12299 H 1192.12 1.36279 3.47106 0
M  V30 12300 N 1194.3 -1.0692 1.15784 0
M  V30 12301 C 1195.23 -2.16216 0.881649 0
M  V30 12302 C 1196.22 -1.69253 -0.16951 0
M  V30 12303 O 1197.4 -1.94186 -0.0229511 0
M  V30 12304 C 1194.53 -3.4527 0.374982 0
M  V30 12305 C 1193.48 -4.05706 1.36332 0
M  V30 12306 C 1192.81 -5.29894 0.715317 0
M  V30 12307 C 1194.11 -4.45224 2.7308 0
M  V30 12308 H 1195.8 -2.39577 1.79563 0
M  V30 12309 H 1193.35 -1.15141 0.864784 0
M  V30 12310 H 1195.3 -4.2106 0.169279 0
M  V30 12311 H 1194.03 -3.21508 -0.574485 0
M  V30 12312 H 1192.69 -3.31965 1.55546 0
M  V30 12313 H 1192.33 -5.02425 -0.240436 0
M  V30 12314 H 1192.03 -5.71287 1.37494 0
M  V30 12315 H 1193.56 -6.08386 0.519489 0
M  V30 12316 H 1194.97 -5.12124 2.57686 0
M  V30 12317 H 1193.37 -4.97583 3.35457 0
M  V30 12318 H 1194.44 -3.56384 3.28813 0
M  V30 12319 N 1195.78 -0.955326 -1.25345 0
M  V30 12320 C 1196.72 -0.420299 -2.24296 0
M  V30 12321 C 1197.69 0.498753 -1.54762 0
M  V30 12322 O 1198.88 0.432971 -1.8346 0
M  V30 12323 C 1196 0.394576 -3.36394 0
M  V30 12324 C 1195.05 -0.464973 -4.23958 0
M  V30 12325 S 1195.88 -1.89764 -5.00749 0
M  V30 12326 C 1197.04 -1.09121 -6.16314 0
M  V30 12327 H 1197.27 -1.25888 -2.69331 0
M  V30 12328 H 1194.81 -0.759449 -1.34431 0
M  V30 12329 H 1196.76 0.858788 -4.01416 0
M  V30 12330 H 1195.42 1.20799 -2.89942 0
M  V30 12331 H 1194.62 0.160055 -5.03746 0
M  V30 12332 H 1194.22 -0.864422 -3.63873 0
M  V30 12333 H 1196.51 -0.340218 -6.76645 0
M  V30 12334 H 1197.45 -1.86304 -6.83152 0
M  V30 12335 H 1197.86 -0.621033 -5.61073 0
M  V30 12336 N 1197.26 1.39987 -0.723979 0
M  V30 12337 C 1198.19 2.3332 -0.0917282 0
M  V30 12338 C 1199.17 1.53335 0.736361 0
M  V30 12339 O 1200.36 1.81771 0.683582 0
M  V30 12340 C 1197.49 3.3737 0.824549 0
M  V30 12341 C 1196.44 4.2788 0.101452 0
M  V30 12342 C 1195.77 5.22536 1.13401 0
M  V30 12343 C 1197.07 5.11649 -1.04939 0
M  V30 12344 H 1198.76 2.86441 -0.871318 0
M  V30 12345 H 1196.31 1.37725 -0.420448 0
M  V30 12346 H 1198.26 4.01607 1.27631 0
M  V30 12347 H 1196.98 2.82663 1.63613 0
M  V30 12348 H 1195.64 3.65107 -0.330569 0
M  V30 12349 H 1195.29 4.64131 1.93886 0
M  V30 12350 H 1194.99 5.83938 0.65502 0
M  V30 12351 H 1196.52 5.89651 1.58569 0
M  V30 12352 H 1197.93 5.69293 -0.6766 0
M  V30 12353 H 1196.33 5.82137 -1.45729 0
M  V30 12354 H 1197.4 4.47132 -1.8762 0
M  V30 12355 N 1198.74 0.470782 1.50404 0
M  V30 12356 C 1199.67 -0.359838 2.26358 0
M  V30 12357 C 1200.68 -0.95735 1.31676 0
M  V30 12358 O 1201.87 -0.84581 1.57189 0
M  V30 12359 C 1198.97 -1.51864 3.02969 0
M  V30 12360 C 1198.15 -1.03397 4.25003 0
M  V30 12361 C 1197.21 -2.06679 4.83911 0
M  V30 12362 O 1196.23 -1.64754 5.44835 0
M  V30 12363 N 1197.43 -3.39484 4.70883 0
M  V30 12364 H 1200.2 0.291299 2.98281 0
M  V30 12365 H 1197.76 0.301549 1.59067 0
M  V30 12366 H 1199.75 -2.2065 3.39258 0
M  V30 12367 H 1198.32 -2.07448 2.33846 0
M  V30 12368 H 1197.54 -0.172012 3.93825 0
M  V30 12369 H 1198.83 -0.68807 5.04126 0
M  V30 12370 H 1198.23 -3.76256 4.22431 0
M  V30 12371 H 1196.78 -4.04068 5.11441 0
M  V30 12372 N 1200.22 -1.56282 0.203376 0
M  V30 12373 C 1201.17 -2.20822 -0.730784 0
M  V30 12374 C 1202.16 -1.18193 -1.21354 0
M  V30 12375 O 1203.37 -1.36318 -1.17547 0
M  V30 12376 H 1199.74 -0.707792 -0.254036 0
M  V30 12377 H 1201.71 -2.97955 -0.162825 0
M  V30 12378 C 1200.46 -2.88803 -1.93618 0
M  V30 12379 H 1199.78 -3.67521 -1.57379 0
M  V30 12380 H 1201.22 -3.37387 -2.56799 0
M  V30 12381 C 1199.68 -1.90285 -2.78017 0
M  V30 12382 O 1200.21 -1.40833 -3.76203 0
M  V30 12383 N 1198.42 -1.58332 -2.43679 0
M  V30 12384 H 1197.97 -1.9874 -1.63891 0
M  V30 12385 H 1197.92 -0.926722 -3.00432 0
M  V30 12386 N 1201.7 0.070167 -1.57444 0
M  V30 12387 C 1202.92 0.785703 -1.91941 0
M  V30 12388 C 1203.35 1.70243 -0.799932 0
M  V30 12389 O 1202.7 1.79608 0.247139 0
M  V30 12390 C 1202.75 1.55398 -3.25398 0
M  V30 12391 O 1201.86 2.66475 -3.14746 0
M  V30 12392 H 1201.2 0.214245 -0.628486 0
M  V30 12393 H 1203.73 0.0379243 -2.04565 0
M  V30 12394 H 1203.74 1.93287 -3.5931 0
M  V30 12395 H 1202.41 0.881366 -4.06454 0
M  V30 12396 H 1200.99 2.3143 -2.92394 0
M  V30 12397 N 1203.17 1.53854 0.341593 0
M  V30 12398 C 1204.4 1.75447 1.10604 0
M  V30 12399 C 1204.82 0.493225 1.81518 0
M  V30 12400 O 1204.18 -0.554253 1.7262 0
M  V30 12401 C 1204.23 2.93593 2.09369 0
M  V30 12402 O 1203.33 2.63878 3.16926 0
M  V30 12403 H 1202.67 0.581923 0.319783 0
M  V30 12404 H 1205.2 2.00822 0.391388 0
M  V30 12405 H 1205.21 3.20437 2.52556 0
M  V30 12406 H 1203.89 3.85067 1.57151 0
M  V30 12407 H 1202.47 2.47929 2.78542 0
M  V30 12408 N 1204.65 -0.602709 1.4562 0
M  V30 12409 C 1205.61 -1.69508 1.54271 0
M  V30 12410 C 1206.61 -1.55171 0.421727 0
M  V30 12411 O 1207.8 -1.60151 0.685375 0
M  V30 12412 C 1204.94 -3.0881 1.44392 0
M  V30 12413 H 1206.13 -1.63203 2.51605 0
M  V30 12414 H 1203.68 -0.818857 1.33133 0
M  V30 12415 H 1204.42 -3.20689 0.482614 0
M  V30 12416 H 1204.2 -3.20625 2.25704 0
M  V30 12417 H 1205.69 -3.8837 1.53488 0
M  V30 12418 N 1206.13 -1.32992 -0.845635 0
M  V30 12419 C 1207.55 -1.12179 -1.13526 0
M  V30 12420 C 1207.75 0.091795 -2.01291 0
M  V30 12421 O 1206.8 0.774051 -2.40343 0
M  V30 12422 C 1208.11 -2.40584 -1.80388 0
M  V30 12423 C 1209.66 -2.46427 -1.92984 0
M  V30 12424 C 1210.14 -3.74776 -2.63261 0
M  V30 12425 N 1211.63 -3.75809 -2.7078 0
M  V30 12426 C 1212.36 -4.71829 -3.2583 0
M  V30 12427 N 1211.86 -5.78219 -3.81621 0
M  V30 12428 N 1213.65 -4.59313 -3.24018 0
M  V30 12429 H 1205.8 -2.10786 -0.261369 0
M  V30 12430 H 1208.07 -0.931053 -0.17845 0
M  V30 12431 H 1207.77 -3.29357 -1.23357 0
M  V30 12432 H 1207.65 -2.52225 -2.80468 0
M  V30 12433 H 1210.03 -1.58108 -2.4917 0
M  V30 12434 H 1210.11 -2.38732 -0.918732 0
M  V30 12435 H 1209.76 -4.63474 -2.07736 0
M  V30 12436 H 1209.69 -3.79746 -3.6483 0
M  V30 12437 H 1212.18 -2.98916 -2.31209 0
M  V30 12438 H 1212.49 -6.47531 -4.2181 0
M  V30 12439 H 1210.84 -5.81962 -3.79927 0
M  V30 12440 H 1214.03 -3.75358 -2.79685 0
M  V30 12441 H 1214.2 -5.34316 -3.6662 0
M  V30 12442 N 1207.61 1.06304 -1.1635 0
M  V30 12443 C 1208.57 2.11947 -0.872419 0
M  V30 12444 C 1209.57 1.60253 0.132534 0
M  V30 12445 O 1210.76 1.73922 -0.0983441 0
M  V30 12446 C 1207.89 3.39536 -0.304646 0
M  V30 12447 H 1209.09 2.39201 -1.80894 0
M  V30 12448 H 1206.64 1.22367 -0.972419 0
M  V30 12449 H 1207.37 3.17931 0.639565 0
M  V30 12450 H 1207.16 3.78363 -1.02878 0
M  V30 12451 H 1208.65 4.17431 -0.118936 0
M  V30 12452 N 1209.09 0.96196 1.24836 0
M  V30 12453 C 1210.02 0.506241 2.27946 0
M  V30 12454 C 1211 -0.451183 1.64007 0
M  V30 12455 O 1212.18 -0.348552 1.91046 0
M  V30 12456 C 1209.31 -0.209846 3.46665 0
M  V30 12457 C 1208.27 0.663035 4.22833 0
M  V30 12458 C 1207.59 -0.184216 5.34383 0
M  V30 12459 C 1208.89 1.94479 4.84742 0
M  V30 12460 H 1210.59 1.36805 2.66317 0
M  V30 12461 H 1208.13 0.65926 1.28023 0
M  V30 12462 H 1210.08 -0.539838 4.17928 0
M  V30 12463 H 1208.81 -1.10596 3.07305 0
M  V30 12464 H 1207.47 0.976216 3.53363 0
M  V30 12465 H 1207.12 -1.08031 4.91262 0
M  V30 12466 H 1206.82 0.39657 5.8626 0
M  V30 12467 H 1208.34 -0.509009 6.08475 0
M  V30 12468 H 1209.75 1.68074 5.48109 0
M  V30 12469 H 1208.15 2.47183 5.46828 0
M  V30 12470 H 1209.22 2.64332 4.06517 0
M  V30 12471 N 1210.56 -1.39601 0.731392 0
M  V30 12472 C 1211.97 -1.83424 0.348194 0
M  V30 12473 C 1212.33 -1.61106 -1.11979 0
M  V30 12474 O 1211.45 -1.1003 -1.86339 0
M  V30 12475 C 1212.05 -3.32982 0.6252 0
M  V30 12476 C 1210.6 -3.75238 0.295536 0
M  V30 12477 C 1209.75 -2.62642 0.88964 0
M  V30 12478 H 1212.7 -1.28644 0.929318 0
M  V30 12479 H 1212.72 -3.80357 -0.104254 0
M  V30 12480 H 1212.24 -3.49193 1.69368 0
M  V30 12481 H 1210.34 -3.64615 -0.767254 0
M  V30 12482 H 1210.45 -4.72781 0.775576 0
M  V30 12483 H 1208.81 -2.52726 0.316529 0
M  V30 12484 H 1209.6 -2.81661 1.96271 0
M  V30 12485 N 1212.04 -0.478751 -1.50152 0
M  V30 12486 C 1213.46 -0.133356 -1.59042 0
M  V30 12487 C 1213.66 1.36069 -1.48618 0
M  V30 12488 O 1212.71 2.13468 -1.34862 0
M  V30 12489 C 1214.03 -0.690369 -2.92668 0
M  V30 12490 C 1215.58 -0.654481 -3.06081 0
M  V30 12491 C 1216.05 -1.18917 -4.42293 0
M  V30 12492 N 1217.54 -1.14891 -4.48725 0
M  V30 12493 C 1218.28 -1.53305 -5.52526 0
M  V30 12494 N 1217.77 -1.99205 -6.63543 0
M  V30 12495 N 1219.57 -1.4486 -5.43113 0
M  V30 12496 H 1211.72 -1.45037 -1.55171 0
M  V30 12497 H 1213.98 -0.600254 -0.733757 0
M  V30 12498 H 1213.69 -1.7373 -3.05795 0
M  V30 12499 H 1213.56 -0.138227 -3.76947 0
M  V30 12500 H 1215.95 0.383564 -2.92597 0
M  V30 12501 H 1216.03 -1.24352 -2.2354 0
M  V30 12502 H 1215.67 -2.22588 -4.56527 0
M  V30 12503 H 1215.6 -0.57628 -5.23437 0
M  V30 12504 H 1218.09 -0.812344 -3.69066 0
M  V30 12505 H 1218.41 -2.26645 -7.38818 0
M  V30 12506 H 1216.75 -2.03164 -6.64642 0
M  V30 12507 H 1219.94 -1.08836 -4.55272 0
M  V30 12508 H 1220.11 -1.75123 -6.23888 0
M  V30 12509 N 1213.52 1.56172 -0.211661 0
M  V30 12510 C 1214.77 1.97648 0.421871 0
M  V30 12511 C 1215.09 1.10026 1.60995 0
M  V30 12512 O 1214.36 0.175109 1.95116 0
M  V30 12513 H 1212.94 0.729914 0.158852 0
M  V30 12514 H 1215.6 1.92542 -0.302254 0
M  V30 12515 H 1214.7 3.02834 0.754868 0
M  V30 12516 N 1215 -0.0618163 1.57479 0
M  V30 12517 C 1216.41 -0.416827 1.54061 0
M  V30 12518 C 1216.61 -1.78584 0.933277 0
M  V30 12519 O 1215.67 -2.46656 0.54009 0
M  V30 12520 C 1216.98 -0.348728 2.98671 0
M  V30 12521 C 1218.53 -0.428194 3.10057 0
M  V30 12522 C 1219.01 -0.389898 4.56337 0
M  V30 12523 N 1220.5 -0.449677 4.61012 0
M  V30 12524 C 1221.23 -0.442418 5.71691 0
M  V30 12525 N 1220.73 -0.389381 6.91705 0
M  V30 12526 N 1222.52 -0.489719 5.59963 0
M  V30 12527 H 1214.67 0.834487 1.9532 0
M  V30 12528 H 1216.94 0.314149 0.894435 0
M  V30 12529 H 1216.64 0.590738 3.46703 0
M  V30 12530 H 1216.52 -1.15511 3.59078 0
M  V30 12531 H 1218.9 -1.35808 2.61992 0
M  V30 12532 H 1218.98 0.406946 2.52542 0
M  V30 12533 H 1218.63 0.536186 5.05062 0
M  V30 12534 H 1218.56 -1.24271 5.11727 0
M  V30 12535 H 1221.05 -0.49451 3.74651 0
M  V30 12536 H 1221.36 -0.388042 7.71825 0
M  V30 12537 H 1219.71 -0.355918 6.94088 0
M  V30 12538 H 1222.9 -0.528915 4.65102 0
M  V30 12539 H 1223.07 -0.480592 6.46215 0
M  V30 12540 N 1216.48 -1.54033 -0.333429 0
M  V30 12541 C 1217.39 -1.85737 -1.43314 0
M  V30 12542 C 1218.4 -0.748398 -1.57083 0
M  V30 12543 O 1219.58 -1.04171 -1.72367 0
M  V30 12544 C 1216.64 -2.06942 -2.78165 0
M  V30 12545 C 1215.7 -3.30774 -2.73655 0
M  V30 12546 C 1214.94 -3.50957 -4.02075 0
M  V30 12547 O 1215.16 -2.74774 -4.99855 0
M  V30 12548 O 1214.09 -4.44412 -4.05933 0
M  V30 12549 H 1217.92 -2.7923 -1.19434 0
M  V30 12550 H 1215.51 -1.39814 -0.526546 0
M  V30 12551 H 1217.39 -2.22276 -3.58011 0
M  V30 12552 H 1216.06 -1.16638 -3.01956 0
M  V30 12553 H 1214.97 -3.20835 -1.92395 0
M  V30 12554 H 1216.3 -4.21103 -2.54819 0
M  V30 12555 N 1217.95 0.594978 -1.45938 0
M  V30 12556 C 1219.37 1.17703 -1.44924 0
M  V30 12557 C 1219.72 1.9534 -0.183522 0
M  V30 12558 O 1218.84 2.04276 0.714163 0
M  V30 12559 C 1219.44 2.14119 -2.62561 0
M  V30 12560 C 1218 2.67674 -2.64627 0
M  V30 12561 C 1217.14 1.43312 -2.37397 0
M  V30 12562 H 1220.09 0.383583 -1.53995 0
M  V30 12563 H 1220.11 2.97374 -2.3738 0
M  V30 12564 H 1219.63 1.57586 -3.54667 0
M  V30 12565 H 1217.73 3.28111 -1.76562 0
M  V30 12566 H 1217.84 3.11246 -3.64229 0
M  V30 12567 H 1216.2 1.72702 -1.87206 0
M  V30 12568 H 1216.99 0.886276 -3.31663 0
M  V30 12569 N 1219.43 1.33438 0.838571 0
M  V30 12570 C 1220.4 1.23632 1.92997 0
M  V30 12571 C 1221.4 0.155302 1.60048 0
M  V30 12572 O 1222.59 0.406852 1.69382 0
M  V30 12573 C 1219.72 0.90512 3.28665 0
M  V30 12574 H 1220.91 2.20643 2.03117 0
M  V30 12575 H 1218.46 1.17501 1.03069 0
M  V30 12576 H 1219.2 -0.0624833 3.2424 0
M  V30 12577 H 1218.98 1.68688 3.53959 0
M  V30 12578 H 1220.47 0.861262 4.08622 0
M  V30 12579 N 1220.91 -1.05686 1.16912 0
M  V30 12580 C 1222.14 -1.82821 0.979348 0
M  V30 12581 C 1222.56 -1.82196 -0.467575 0
M  V30 12582 O 1221.92 -1.22727 -1.33445 0
M  V30 12583 C 1221.97 -3.2705 1.51891 0
M  V30 12584 O 1221.07 -4.05899 0.729341 0
M  V30 12585 H 1220.41 -0.565455 0.348076 0
M  V30 12586 H 1222.94 -1.33211 1.55293 0
M  V30 12587 H 1222.95 -3.77859 1.53904 0
M  V30 12588 H 1221.63 -3.26819 2.5722 0
M  V30 12589 H 1220.2 -3.64646 0.780221 0
M  V30 12590 N 1222.39 -0.968567 -1.24324 0
M  V30 12591 C 1223.63 -0.63879 -1.94162 0
M  V30 12592 C 1223.99 0.81112 -1.74025 0
M  V30 12593 O 1225.19 1.25116 -2.37906 0
M  V30 12594 C 1223.46 -1.00432 -3.42999 0
M  V30 12595 S 1225.02 -0.789227 -4.31644 0
M  V30 12596 H 1221.84 -0.234322 -0.671278 0
M  V30 12597 H 1224.44 -1.2457 -1.50673 0
M  V30 12598 H 1223.15 -2.05643 -3.55161 0
M  V30 12599 H 1222.68 -0.388221 -3.9148 0
M  V30 12600 H 1224.69 0.332976 -4.95082 0
M  V30 12601 N 1223.87 1.39211 -0.738786 0
M  V30 12602 C 1224.78 2.34374 -0.102958 0
M  V30 12603 C 1225.79 1.58514 0.717596 0
M  V30 12604 O 1226.97 1.90786 0.645186 0
M  V30 12605 C 1224.03 3.37562 0.790733 0
M  V30 12606 C 1223.09 4.29279 -0.0425028 0
M  V30 12607 C 1222.33 5.27539 0.808628 0
M  V30 12608 O 1222.55 5.32396 2.04722 0
M  V30 12609 O 1221.48 6.0144 0.235279 0
M  V30 12610 H 1225.31 2.90412 -0.888498 0
M  V30 12611 H 1222.9 1.40803 -0.499498 0
M  V30 12612 H 1224.78 4.00783 1.30196 0
M  V30 12613 H 1223.45 2.83903 1.55502 0
M  V30 12614 H 1222.36 3.69268 -0.599335 0
M  V30 12615 H 1223.69 4.86154 -0.7691 0
M  V30 12616 N 1225.34 0.486708 1.49896 0
M  V30 12617 C 1226.62 -0.125183 1.95199 0
M  V30 12618 C 1227 -1.55498 1.42771 0
M  V30 12619 O 1226.35 -2.1949 0.635322 0
M  V30 12620 C 1226.56 -0.0524982 3.48961 0
M  V30 12621 C 1227.91 -0.233595 4.23957 0
M  V30 12622 O 1228.93 -0.128357 3.55969 0
M  V30 12623 O 1227.79 -0.447862 5.44662 0
M  V30 12624 H 1224.88 -0.103141 0.820543 0
M  V30 12625 H 1227.43 0.548226 1.60601 0
M  V30 12626 H 1226.2 0.945163 3.79714 0
M  V30 12627 H 1225.83 -0.766683 3.90138 0
M  V30 12628 N 1226.82 -1.56058 0.219941 0
M  V30 12629 C 1227.75 -2.2321 -0.685547 0
M  V30 12630 C 1228.73 -1.20328 -1.20229 0
M  V30 12631 O 1229.92 -1.48909 -1.24659 0
M  V30 12632 C 1227.05 -2.91076 -1.89452 0
M  V30 12633 C 1226 -4.00415 -1.51169 0
M  V30 12634 C 1225.33 -4.55569 -2.79931 0
M  V30 12635 C 1226.63 -5.17549 -0.702896 0
M  V30 12636 H 1228.32 -2.99136 -0.125671 0
M  V30 12637 H 1225.87 -1.43879 -0.0590043 0
M  V30 12638 H 1227.82 -3.36744 -2.53341 0
M  V30 12639 H 1226.55 -2.12594 -2.47934 0
M  V30 12640 H 1225.21 -3.55475 -0.896275 0
M  V30 12641 H 1224.85 -3.73819 -3.36553 0
M  V30 12642 H 1224.55 -5.29361 -2.55049 0
M  V30 12643 H 1226.08 -5.03955 -3.44764 0
M  V30 12644 H 1227.49 -5.59608 -1.24544 0
M  V30 12645 H 1225.89 -5.97563 -0.551234 0
M  V30 12646 H 1226.96 -4.84027 0.29083 0
M  V30 12647 N 1228.3 0.053464 -1.57509 0
M  V30 12648 C 1229.54 0.754231 -1.89976 0
M  V30 12649 C 1229.91 1.73805 -0.815833 0
M  V30 12650 O 1231.11 2.48527 -1.0241 0
M  V30 12651 C 1229.38 1.42768 -3.27646 0
M  V30 12652 S 1230.94 2.16098 -3.81899 0
M  V30 12653 H 1227.75 0.250421 -0.66544 0
M  V30 12654 H 1230.36 0.00963883 -1.95498 0
M  V30 12655 H 1229.06 0.698087 -4.04419 0
M  V30 12656 H 1228.59 2.21133 -3.25367 0
M  V30 12657 H 1230.61 3.42895 -3.5866 0
M  V30 12658 N 1229.78 1.54207 0.325255 0
M  V30 12659 C 1231.03 1.71991 1.0613 0
M  V30 12660 C 1231.35 0.495505 1.88599 0
M  V30 12661 O 1230.62 -0.490504 1.8966 0
M  V30 12662 H 1229.2 0.634137 0.394816 0
M  V30 12663 H 1231.86 1.91507 0.362101 0
M  V30 12664 H 1230.96 2.59878 1.72829 0
M  V30 12665 N 1231.26 -0.58723 1.46251 0
M  V30 12666 C 1232.51 -1.34294 1.51028 0
M  V30 12667 C 1232.83 -1.94329 0.161623 0
M  V30 12668 O 1232.1 -1.78309 -0.811342 0
M  V30 12669 H 1230.68 -0.498607 0.556238 0
M  V30 12670 H 1233.34 -0.688074 1.8235 0
M  V30 12671 H 1232.43 -2.15197 2.26045 0
M  V30 12672 N 1232.74 -1.33881 -0.831482 0
M  V30 12673 C 1233.98 -1.25507 -1.58406 0
M  V30 12674 C 1234.3 0.177137 -1.94194 0
M  V30 12675 O 1233.57 1.10769 -1.61576 0
M  V30 12676 H 1232.15 -0.461551 -0.587349 0
M  V30 12677 H 1234.82 -1.6769 -0.99328 0
M  V30 12678 H 1233.91 -1.85391 -2.51071 0
M  V30 12679 N 1234.21 1.05064 -1.1747 0
M  V30 12680 C 1235.46 1.78352 -0.965311 0
M  V30 12681 C 1235.79 1.87527 0.504707 0
M  V30 12682 O 1235.07 1.376 1.37465 0
M  V30 12683 C 1235.35 3.22173 -1.60862 0
M  V30 12684 C 1235.2 3.21003 -3.15083 0
M  V30 12685 C 1236.52 4.2004 -1.31358 0
M  V30 12686 H 1233.64 0.647452 -0.352101 0
M  V30 12687 H 1236.28 1.22794 -1.44988 0
M  V30 12688 H 1234.43 3.69613 -1.19658 0
M  V30 12689 H 1236.11 2.81629 -3.65353 0
M  V30 12690 H 1234.35 2.59309 -3.47766 0
M  V30 12691 H 1235.02 4.22516 -3.55224 0
M  V30 12692 H 1237.5 3.81099 -1.6704 0
M  V30 12693 H 1236.37 5.1891 -1.78953 0
M  V30 12694 H 1236.63 4.41477 -0.234606 0
M  V30 12695 N 1235.69 0.975146 1.23809 0
M  V30 12696 C 1236.94 0.639858 1.91704 0
M  V30 12697 C 1237.26 -0.828557 1.76522 0
M  V30 12698 O 1236.53 -1.59217 1.14135 0
M  V30 12699 H 1235.11 0.233667 0.709513 0
M  V30 12700 H 1237.77 1.23782 1.50545 0
M  V30 12701 H 1236.87 0.886915 2.99233 0
M  V30 12702 N 1237.17 -1.38817 0.746158 0
M  V30 12703 C 1238.13 -2.28876 0.121886 0
M  V30 12704 C 1239.13 -1.46838 -0.655379 0
M  V30 12705 O 1240.32 -1.67377 -0.482744 0
M  V30 12706 C 1237.45 -3.30487 -0.836118 0
M  V30 12707 H 1238.65 -2.85586 0.915453 0
M  V30 12708 H 1236.2 -1.47652 0.512691 0
M  V30 12709 H 1236.94 -2.78853 -1.65563 0
M  V30 12710 H 1236.72 -3.9109 -0.281271 0
M  V30 12711 H 1238.21 -3.97848 -1.26914 0
M  V30 12712 N 1238.65 -0.49465 -1.49636 0
M  V30 12713 C 1239.92 0.114829 -1.95263 0
M  V30 12714 C 1240.3 1.54739 -1.43593 0
M  V30 12715 O 1239.65 2.1915 -0.646953 0
M  V30 12716 C 1239.86 0.0339912 -3.48983 0
M  V30 12717 C 1241.21 0.211108 -4.24075 0
M  V30 12718 O 1242.23 0.109478 -3.56032 0
M  V30 12719 O 1241.09 0.418971 -5.44892 0
M  V30 12720 H 1238.19 0.0987883 -0.821078 0
M  V30 12721 H 1240.73 -0.556736 -1.60308 0
M  V30 12722 H 1239.51 -0.965287 -3.79207 0
M  V30 12723 H 1239.13 0.745982 -3.90539 0
M  V30 12724 N 1240.13 1.55939 -0.228214 0
M  V30 12725 C 1241.37 1.98084 0.400884 0
M  V30 12726 C 1241.69 1.11727 1.59819 0
M  V30 12727 O 1240.96 0.195794 1.94919 0
M  V30 12728 H 1239.54 0.731558 0.151102 0
M  V30 12729 H 1242.21 1.92211 -0.322659 0
M  V30 12730 H 1241.3 3.03617 0.722706 0
M  V30 12731 N 1241.6 -0.0451101 1.57535 0
M  V30 12732 C 1242.85 -0.737654 1.88157 0
M  V30 12733 C 1243.17 -1.76743 0.823817 0
M  V30 12734 O 1242.44 -1.95366 -0.144503 0
M  V30 12735 H 1241.02 -0.275431 0.694368 0
M  V30 12736 H 1243.69 -0.0148651 1.94894 0
M  V30 12737 H 1242.78 -1.23726 2.86528 0
M  V30 12738 N 1243.08 -1.54377 -0.317073 0
M  V30 12739 C 1244.33 -1.72551 -1.05216 0
M  V30 12740 C 1244.65 -0.5055 -1.88334 0
M  V30 12741 O 1243.92 0.480439 -1.89917 0
M  V30 12742 H 1242.5 -0.636222 -0.391447 0
M  V30 12743 H 1245.16 -1.91696 -0.35194 0
M  V30 12744 H 1244.26 -2.60791 -1.71448 0
M  V30 12745 N 1244.56 0.579466 -1.4656 0
M  V30 12746 C 1245.79 1.36837 -1.55854 0
M  V30 12747 C 1246.21 1.87019 -0.20141 0
M  V30 12748 O 1245.57 1.61746 0.81901 0
M  V30 12749 C 1245.62 2.52965 -2.56985 0
M  V30 12750 O 1244.72 3.54505 -2.10713 0
M  V30 12751 H 1244.06 0.407379 -0.524345 0
M  V30 12752 H 1246.59 0.702558 -1.9216 0
M  V30 12753 H 1246.6 2.99838 -2.76697 0
M  V30 12754 H 1245.28 2.15793 -3.55536 0
M  V30 12755 H 1243.85 3.14089 -2.01003 0
M  V30 12756 N 1246.04 1.3432 0.824371 0
M  V30 12757 C 1247.32 1.17178 1.56616 0
M  V30 12758 C 1247.7 -0.256195 2.0954 0
M  V30 12759 O 1247.04 -1.25732 1.90798 0
M  V30 12760 C 1247.25 2.22511 2.68867 0
M  V30 12761 C 1248.6 2.57414 3.37673 0
M  V30 12762 O 1249.63 2.2129 2.79122 0
M  V30 12763 O 1248.48 3.19462 4.43403 0
M  V30 12764 H 1245.58 0.454141 0.691147 0
M  V30 12765 H 1248.12 1.45948 0.865869 0
M  V30 12766 H 1246.9 3.18366 2.27505 0
M  V30 12767 H 1246.52 1.9491 3.46548 0
M  V30 12768 N 1247.52 -1.0444 1.18026 0
M  V30 12769 C 1248.93 -1.29766 0.929143 0
M  V30 12770 C 1249.13 -1.97338 -0.407436 0
M  V30 12771 O 1248.19 -2.25166 -1.14265 0
M  V30 12772 C 1249.5 -2.16002 2.09197 0
M  V30 12773 C 1251.05 -2.29361 2.12985 0
M  V30 12774 C 1251.52 -3.18962 3.28675 0
M  V30 12775 N 1253.02 -3.26549 3.28512 0
M  V30 12776 C 1253.75 -3.96025 4.14671 0
M  V30 12777 N 1253.25 -4.67863 5.10956 0
M  V30 12778 N 1255.04 -3.92266 4.02597 0
M  V30 12779 H 1247.19 -0.58984 2.04046 0
M  V30 12780 H 1249.45 -0.322752 0.891367 0
M  V30 12781 H 1249.16 -1.73653 3.05839 0
M  V30 12782 H 1249.03 -3.16667 2.04943 0
M  V30 12783 H 1251.42 -2.70948 1.16924 0
M  V30 12784 H 1251.5 -1.28299 2.21298 0
M  V30 12785 H 1251.15 -2.78087 4.25006 0
M  V30 12786 H 1251.08 -4.20047 3.17598 0
M  V30 12787 H 1253.57 -2.75371 2.58804 0
M  V30 12788 H 1253.88 -5.1846 5.73079 0
M  V30 12789 H 1252.22 -4.6678 5.14919 0
M  V30 12790 H 1255.42 -3.35273 3.26665 0
M  V30 12791 H 1255.59 -4.4614 4.69961 0
M  V30 12792 N 1248.99 -0.981699 -1.2329 0
M  V30 12793 C 1250.22 -0.668399 -1.95489 0
M  V30 12794 C 1250.63 0.768976 -1.72868 0
M  V30 12795 O 1249.98 1.52925 -1.01783 0
M  V30 12796 C 1250.04 -0.880535 -3.4855 0
M  V30 12797 C 1249.7 -2.30023 -3.9489 0
M  V30 12798 C 1250.7 -3.27899 -4.03458 0
M  V30 12799 C 1248.38 -2.63167 -4.27842 0
M  V30 12800 C 1250.38 -4.56999 -4.44332 0
M  V30 12801 C 1248.06 -3.92489 -4.68397 0
M  V30 12802 C 1249.06 -4.89216 -4.76609 0
M  V30 12803 O 1248.75 -6.16229 -5.16253 0
M  V30 12804 H 1248.48 -0.247255 -0.629159 0
M  V30 12805 H 1251.04 -1.31606 -1.57699 0
M  V30 12806 H 1249.27 -0.175698 -3.86301 0
M  V30 12807 H 1250.96 -0.564198 -4.0196 0
M  V30 12808 H 1251.72 -3.03624 -3.78203 0
M  V30 12809 H 1247.6 -1.88588 -4.20661 0
M  V30 12810 H 1251.14 -5.32498 -4.50656 0
M  V30 12811 H 1247.04 -4.16558 -4.93102 0
M  V30 12812 H 1247.81 -6.20001 -5.34361 0
M  V30 12813 N 1250.47 1.3842 -0.753509 0
M  V30 12814 C 1251.72 1.99723 -0.309021 0
M  V30 12815 C 1252.04 1.60111 1.11308 0
M  V30 12816 O 1251.31 0.85792 1.76115 0
M  V30 12817 H 1249.89 0.738667 -0.111266 0
M  V30 12818 H 1252.55 1.69186 -0.967586 0
M  V30 12819 H 1251.65 3.09874 -0.372095 0
M  V30 12820 N 1251.95 0.502579 1.49372 0
M  V30 12821 C 1253.18 -0.0403087 2.07361 0
M  V30 12822 C 1253.6 -1.29918 1.36026 0
M  V30 12823 O 1252.96 -1.76428 0.417488 0
M  V30 12824 C 1253.01 -0.275362 3.59547 0
M  V30 12825 O 1252.11 -1.34975 3.89686 0
M  V30 12826 H 1251.45 0.0269268 0.663454 0
M  V30 12827 H 1253.98 0.702652 1.92156 0
M  V30 12828 H 1253.99 -0.506392 4.04845 0
M  V30 12829 H 1252.67 0.644382 4.10878 0
M  V30 12830 H 1251.24 -1.10355 3.56197 0
M  V30 12831 N 1253.43 -1.55816 0.23648 0
M  V30 12832 C 1254.36 -2.23924 -0.661834 0
M  V30 12833 C 1255.34 -1.21597 -1.18946 0
M  V30 12834 O 1256.52 -1.50222 -1.23073 0
M  V30 12835 C 1253.65 -2.93069 -1.86355 0
M  V30 12836 C 1252.61 -4.01996 -1.46913 0
M  V30 12837 C 1251.93 -4.58512 -2.75083 0
M  V30 12838 C 1253.23 -5.18265 -0.647964 0
M  V30 12839 H 1254.93 -2.99253 -0.0939368 0
M  V30 12840 H 1252.47 -1.43934 -0.0437407 0
M  V30 12841 H 1254.43 -3.39412 -2.49755 0
M  V30 12842 H 1253.15 -2.15212 -2.45665 0
M  V30 12843 H 1251.81 -3.56406 -0.858522 0
M  V30 12844 H 1251.46 -3.77368 -3.3257 0
M  V30 12845 H 1251.16 -5.32037 -2.49421 0
M  V30 12846 H 1252.68 -5.07583 -3.39399 0
M  V30 12847 H 1254.1 -5.60898 -1.18602 0
M  V30 12848 H 1252.49 -5.98114 -0.487823 0
M  V30 12849 H 1253.56 -4.83691 0.342151 0
M  V30 12850 N 1254.91 0.036755 -1.57557 0
M  V30 12851 C 1256.32 0.392264 -1.54704 0
M  V30 12852 C 1256.52 1.77076 -0.96157 0
M  V30 12853 O 1255.58 2.45766 -0.579263 0
M  V30 12854 C 1256.89 0.301168 -2.99188 0
M  V30 12855 C 1258.44 0.378813 -3.10699 0
M  V30 12856 C 1258.91 0.317249 -4.569 0
M  V30 12857 N 1260.41 0.376277 -4.61669 0
M  V30 12858 C 1261.14 0.351411 -5.72322 0
M  V30 12859 N 1260.64 0.279288 -6.92237 0
M  V30 12860 N 1262.43 0.400571 -5.60671 0
M  V30 12861 H 1254.58 -0.865455 -1.93968 0
M  V30 12862 H 1256.84 -0.328339 -0.889324 0
M  V30 12863 H 1256.55 -0.64582 -3.4572 0
M  V30 12864 H 1256.42 1.09784 -3.6087 0
M  V30 12865 H 1258.81 1.31623 -2.6412 0
M  V30 12866 H 1258.89 -0.447072 -2.51863 0
M  V30 12867 H 1258.54 -0.616469 -5.04145 0
M  V30 12868 H 1258.47 1.16114 -5.13639 0
M  V30 12869 H 1260.96 0.434843 -3.7539 0
M  V30 12870 H 1261.27 0.265202 -7.72345 0
M  V30 12871 H 1259.61 0.24545 -6.94566 0
M  V30 12872 H 1262.81 0.454854 -4.65885 0
M  V30 12873 H 1262.98 0.377724 -6.46898 0
M  V30 12874 N 1256.39 1.54543 0.308881 0
M  V30 12875 C 1257.8 1.64532 0.882392 0
M  V30 12876 C 1258.15 0.54886 1.88367 0
M  V30 12877 O 1257.27 -0.315832 2.14083 0
M  V30 12878 C 1257.87 2.98251 1.60722 0
M  V30 12879 C 1256.43 3.10387 2.12925 0
M  V30 12880 C 1255.57 2.60176 0.959362 0
M  V30 12881 H 1258.52 1.58466 0.0860803 0
M  V30 12882 H 1258.55 2.89233 2.47233 0
M  V30 12883 H 1258.06 3.78033 0.878233 0
M  V30 12884 H 1256.16 2.35309 2.88895 0
M  V30 12885 H 1256.27 4.16421 2.36918 0
M  V30 12886 H 1254.64 2.16434 1.3427 0
M  V30 12887 H 1255.42 3.42429 0.244454 0
M  V30 12888 N 1257.86 -0.571685 1.46866 0
M  V30 12889 C 1259.11 -1.32685 1.52444 0
M  V30 12890 C 1259.43 -1.94147 0.182225 0
M  V30 12891 O 1258.7 -1.79159 -0.792385 0
M  V30 12892 H 1257.28 -0.492679 0.561495 0
M  V30 12893 H 1259.94 -0.668694 1.8307 0
M  V30 12894 H 1259.04 -2.12788 2.28315 0
M  V30 12895 N 1259.34 -1.34755 -0.817236 0
M  V30 12896 C 1260.59 -1.28629 -1.57563 0
M  V30 12897 C 1260.94 0.141015 -1.91883 0
M  V30 12898 O 1260.24 1.08874 -1.57661 0
M  V30 12899 C 1260.43 -2.11611 -2.8802 0
M  V30 12900 C 1260.26 -3.62266 -2.66446 0
M  V30 12901 C 1259.03 -4.3153 -2.62887 0
M  V30 12902 C 1261.23 -4.56145 -2.37564 0
M  V30 12903 N 1259.21 -5.67999 -2.32918 0
M  V30 12904 C 1260.58 -5.80658 -2.17339 0
M  V30 12905 C 1262.63 -4.44999 -2.23339 0
M  V30 12906 C 1261.34 -6.9528 -1.8433 0
M  V30 12907 C 1263.36 -5.5946 -1.91726 0
M  V30 12908 C 1262.73 -6.82995 -1.72329 0
M  V30 12909 H 1258.82 -0.52593 -0.578724 0
M  V30 12910 H 1261.41 -1.69527 -0.957533 0
M  V30 12911 H 1259.58 -1.73 -3.47743 0
M  V30 12912 H 1261.31 -1.97085 -3.53468 0
M  V30 12913 H 1258.07 -3.84029 -2.77162 0
M  V30 12914 H 1258.49 -6.39996 -2.20757 0
M  V30 12915 H 1263.13 -3.50104 -2.37037 0
M  V30 12916 H 1260.85 -7.90152 -1.69369 0
M  V30 12917 H 1264.44 -5.52784 -1.81443 0
M  V30 12918 H 1263.32 -7.70065 -1.48222 0
M  V30 12919 N 1260.82 1.03812 -1.18578 0
M  V30 12920 C 1262.23 1.58509 -0.986496 0
M  V30 12921 C 1262.58 1.90655 0.463136 0
M  V30 12922 O 1261.71 1.69847 1.34093 0
M  V30 12923 C 1262.3 2.88 -1.78441 0
M  V30 12924 C 1260.86 3.39304 -1.6294 0
M  V30 12925 C 1260.01 2.12857 -1.77727 0
M  V30 12926 H 1262.96 0.864528 -1.33085 0
M  V30 12927 H 1262.98 3.58502 -1.27501 0
M  V30 12928 H 1262.49 2.64572 -2.83942 0
M  V30 12929 H 1260.59 3.6774 -0.599864 0
M  V30 12930 H 1260.71 4.12959 -2.42902 0
M  V30 12931 H 1259.07 2.24285 -1.20699 0
M  V30 12932 H 1259.85 1.91882 -2.84669 0
M  V30 12933 N 1262.3 0.988223 1.22768 0
M  V30 12934 C 1263.26 0.539813 2.22752 0
M  V30 12935 C 1264.26 -0.374796 1.56371 0
M  V30 12936 O 1265.45 -0.167402 1.73394 0
M  V30 12937 C 1262.58 -0.215461 3.40218 0
M  V30 12938 H 1263.78 1.42397 2.63938 0
M  V30 12939 H 1261.33 0.774933 1.35737 0
M  V30 12940 H 1262.06 -1.11581 3.045 0
M  V30 12941 H 1261.85 0.441173 3.8961 0
M  V30 12942 H 1263.34 -0.517517 4.14381 0
M  V30 12943 N 1263.78 -1.38018 0.760839 0
M  V30 12944 C 1265.19 -1.53437 0.439239 0
M  V30 12945 C 1265.39 -1.72184 -1.04666 0
M  V30 12946 O 1264.45 -1.73698 -1.83263 0
M  V30 12947 C 1265.76 -2.73724 1.24481 0
M  V30 12948 C 1267.31 -2.87579 1.23561 0
M  V30 12949 C 1267.78 -4.10836 2.02429 0
M  V30 12950 N 1269.27 -4.17928 1.99727 0
M  V30 12951 C 1270.01 -5.12309 2.57541 0
M  V30 12952 N 1269.51 -6.12317 3.24098 0
M  V30 12953 N 1271.3 -5.04712 2.47431 0
M  V30 12954 H 1263.45 -1.241 1.72375 0
M  V30 12955 H 1265.71 -0.603427 0.73115 0
M  V30 12956 H 1265.42 -2.663 2.29732 0
M  V30 12957 H 1265.29 -3.67111 0.866579 0
M  V30 12958 H 1267.68 -2.9448 0.191122 0
M  V30 12959 H 1267.76 -1.95183 1.6534 0
M  V30 12960 H 1267.4 -4.04696 3.06893 0
M  V30 12961 H 1267.33 -5.02326 1.58039 0
M  V30 12962 H 1269.83 -3.46307 1.51262 0
M  V30 12963 H 1270.14 -6.80842 3.65615 0
M  V30 12964 H 1268.48 -6.12628 3.28195 0
M  V30 12965 H 1271.67 -4.25524 1.95057 0
M  V30 12966 H 1271.85 -5.78085 2.92783 0
M  V30 12967 N 1265.25 -0.510493 -1.49103 0
M  V30 12968 C 1266.5 0.0305831 -2.02077 0
M  V30 12969 C 1266.82 1.36602 -1.39157 0
M  V30 12970 O 1266.09 1.88016 -0.550154 0
M  V30 12971 H 1264.67 0.0142916 -0.746863 0
M  V30 12972 H 1267.33 -0.669895 -1.83026 0
M  V30 12973 H 1266.43 0.153283 -3.11723 0
M  V30 12974 N 1266.73 1.55688 -0.24474 0
M  V30 12975 C 1267.66 2.18616 0.68844 0
M  V30 12976 C 1268.68 1.16185 1.14039 0
M  V30 12977 O 1269.87 1.43059 1.06754 0
M  V30 12978 C 1266.97 2.77375 1.94721 0
M  V30 12979 C 1266.14 4.05204 1.64706 0
M  V30 12980 C 1265.2 4.48302 2.75521 0
M  V30 12981 O 1264.22 5.14723 2.42999 0
M  V30 12982 N 1265.43 4.15907 4.04971 0
M  V30 12983 H 1268.19 2.99324 0.150018 0
M  V30 12984 H 1265.75 1.61771 -0.0646183 0
M  V30 12985 H 1267.74 3.03165 2.68091 0
M  V30 12986 H 1266.31 2.00837 2.39548 0
M  V30 12987 H 1265.53 3.87026 0.74865 0
M  V30 12988 H 1266.82 4.8855 1.42114 0
M  V30 12989 H 1266.22 3.62579 4.34227 0
M  V30 12990 H 1264.78 4.46538 4.74813 0
M  V30 12991 N 1268.21 -0.0283989 1.57574 0
M  V30 12992 C 1269.46 -0.717656 1.88929 0
M  V30 12993 C 1269.78 -1.7586 0.842517 0
M  V30 12994 O 1269.05 -1.95509 -0.123774 0
M  V30 12995 H 1267.63 -0.268051 0.69725 0
M  V30 12996 H 1270.29 0.00580691 1.94899 0
M  V30 12997 H 1269.39 -1.2068 2.87824 0
M  V30 12998 N 1269.69 -1.54705 -0.300681 0
M  V30 12999 C 1270.93 -1.75189 -1.03345 0
M  V30 13000 C 1271.29 -0.531398 -1.84916 0
M  V30 13001 O 1270.58 0.476194 -1.85588 0
M  V30 13002 C 1270.78 -2.98173 -1.97047 0
M  V30 13003 C 1270.6 -4.32067 -1.24694 0
M  V30 13004 C 1269.37 -4.95825 -0.973967 0
M  V30 13005 C 1271.57 -5.1016 -0.651224 0
M  V30 13006 N 1269.55 -6.13503 -0.220737 0
M  V30 13007 C 1270.93 -6.19992 -0.0307781 0
M  V30 13008 C 1272.98 -4.94782 -0.556306 0
M  V30 13009 C 1271.68 -7.16122 0.675403 0
M  V30 13010 C 1273.71 -5.91243 0.136221 0
M  V30 13011 C 1273.07 -7.00444 0.745517 0
M  V30 13012 H 1269.17 -0.693643 -0.361087 0
M  V30 13013 H 1271.75 -1.92183 -0.312046 0
M  V30 13014 H 1269.93 -2.82604 -2.66439 0
M  V30 13015 H 1271.66 -3.07182 -2.63479 0
M  V30 13016 H 1268.41 -4.56193 -1.2722 0
M  V30 13017 H 1268.84 -6.7685 0.142402 0
M  V30 13018 H 1273.48 -4.10483 -1.01307 0
M  V30 13019 H 1271.2 -7.99962 1.14394 0
M  V30 13020 H 1274.78 -5.81422 0.209611 0
M  V30 13021 H 1273.66 -7.73801 1.27287 0
M  V30 13022 N 1271.17 0.563888 -1.47167 0
M  V30 13023 C 1272.1 1.68137 -1.62025 0
M  V30 13024 C 1273.08 1.63481 -0.469899 0
M  V30 13025 O 1274.26 1.81206 -0.698432 0
M  V30 13026 C 1271.39 3.06779 -1.62801 0
M  V30 13027 C 1270.35 3.26278 -2.76996 0
M  V30 13028 C 1269.67 4.65638 -2.62841 0
M  V30 13029 C 1270.97 3.12295 -4.18651 0
M  V30 13030 H 1272.67 1.55958 -2.55573 0
M  V30 13031 H 1270.21 0.74887 -1.22996 0
M  V30 13032 H 1272.17 3.84795 -1.71787 0
M  V30 13033 H 1270.89 3.19901 -0.658097 0
M  V30 13034 H 1269.55 2.50668 -2.67509 0
M  V30 13035 H 1269.2 4.75551 -1.63892 0
M  V30 13036 H 1268.9 4.79635 -3.39447 0
M  V30 13037 H 1270.42 5.45798 -2.73746 0
M  V30 13038 H 1271.83 3.80136 -4.2915 0
M  V30 13039 H 1270.23 3.37805 -4.95992 0
M  V30 13040 H 1271.3 2.09126 -4.37486 0
M  V30 13041 N 1272.64 1.35187 0.810078 0
M  V30 13042 C 1273.55 1.29926 1.95337 0
M  V30 13043 C 1274.57 0.204748 1.72791 0
M  V30 13044 O 1275.75 0.433507 1.96679 0
M  V30 13045 C 1272.81 1.06736 3.29861 0
M  V30 13046 C 1271.87 2.25466 3.65326 0
M  V30 13047 C 1271.11 2.03373 4.93432 0
M  V30 13048 O 1271.33 0.998419 5.61594 0
M  V30 13049 O 1270.26 2.90648 5.27075 0
M  V30 13050 H 1274.09 2.26137 2.02721 0
M  V30 13051 H 1271.67 1.15523 0.947354 0
M  V30 13052 H 1273.56 0.956367 4.10404 0
M  V30 13053 H 1272.23 0.135735 3.23415 0
M  V30 13054 H 1271.14 2.42129 2.85175 0
M  V30 13055 H 1272.47 3.17063 3.76473 0
M  V30 13056 N 1274.12 -1.03182 1.19127 0
M  V30 13057 C 1275.03 -2.14875 0.94159 0
M  V30 13058 C 1276.05 -1.73727 -0.0973872 0
M  V30 13059 O 1277.22 -2.01214 0.0865775 0
M  V30 13060 C 1274.29 -3.43356 0.480366 0
M  V30 13061 C 1273.35 -3.98835 1.58838 0
M  V30 13062 C 1272.58 -5.21183 1.14907 0
M  V30 13063 O 1272.81 -5.70399 0.0114141 0
M  V30 13064 O 1271.74 -5.69423 1.95042 0
M  V30 13065 H 1275.57 -2.38799 1.8764 0
M  V30 13066 H 1273.15 -1.13299 0.973841 0
M  V30 13067 H 1275.03 -4.20763 0.231658 0
M  V30 13068 H 1273.71 -3.20884 -0.426041 0
M  V30 13069 H 1272.62 -3.22776 1.8912 0
M  V30 13070 H 1273.95 -4.25665 2.47123 0
M  V30 13071 N 1275.6 -0.99472 -1.22242 0
M  V30 13072 C 1276.51 -0.555502 -2.27928 0
M  V30 13073 C 1277.53 0.396584 -1.6942 0
M  V30 13074 O 1278.7 0.262965 -1.99676 0
M  V30 13075 C 1275.77 0.121121 -3.46488 0
M  V30 13076 C 1274.83 -0.874155 -4.20306 0
M  V30 13077 C 1274.06 -0.229726 -5.33205 0
M  V30 13078 O 1274.28 0.975935 -5.61989 0
M  V30 13079 O 1273.22 -0.935501 -5.94586 0
M  V30 13080 H 1277.04 -1.4348 -2.6767 0
M  V30 13081 H 1274.63 -0.763061 -1.28444 0
M  V30 13082 H 1276.51 0.500043 -4.18423 0
M  V30 13083 H 1275.19 0.974959 -3.08668 0
M  V30 13084 H 1274.09 -1.30404 -3.50636 0
M  V30 13085 H 1275.43 -1.69725 -4.62011 0
M  V30 13086 N 1277.08 1.37613 -0.768148 0
M  V30 13087 C 1278.36 1.93921 -0.255724 0
M  V30 13088 C 1278.74 1.70215 1.2486 0
M  V30 13089 O 1278.08 1.0489 2.03003 0
M  V30 13090 C 1278.29 3.43354 -0.625204 0
M  V30 13091 C 1279.64 4.20439 -0.592978 0
M  V30 13092 O 1280.67 3.51701 -0.564375 0
M  V30 13093 O 1279.52 5.43008 -0.616849 0
M  V30 13094 H 1276.62 0.824968 -0.0579366 0
M  V30 13095 H 1279.16 1.46921 -0.849257 0
M  V30 13096 H 1277.94 3.54177 -1.66356 0
M  V30 13097 H 1277.56 3.976 -0.00442816 0
M  V30 13098 N 1278.56 0.518393 1.4883 0
M  V30 13099 C 1279.8 -0.019866 2.0209 0
M  V30 13100 C 1280.13 -1.35863 1.3988 0
M  V30 13101 O 1279.4 -1.87722 0.560117 0
M  V30 13102 H 1277.98 -0.0103306 0.746929 0
M  V30 13103 H 1280.64 0.679591 1.82668 0
M  V30 13104 H 1279.73 -0.136749 3.118 0
M  V30 13105 N 1280.03 -1.55556 0.252993 0
M  V30 13106 C 1280.94 -2.25283 -0.654581 0
M  V30 13107 C 1281.96 -1.27103 -1.18831 0
M  V30 13108 O 1283.14 -1.59993 -1.22329 0
M  V30 13109 C 1280.2 -2.94336 -1.83214 0
M  V30 13110 C 1279.26 -4.0794 -1.33728 0
M  V30 13111 C 1278.5 -4.73691 -2.45871 0
M  V30 13112 O 1278.72 -4.38545 -3.64738 0
M  V30 13113 O 1277.65 -5.62083 -2.15283 0
M  V30 13114 H 1281.48 -3.03565 -0.0904091 0
M  V30 13115 H 1279.06 -1.49385 0.0212535 0
M  V30 13116 H 1280.95 -3.37808 -2.5192 0
M  V30 13117 H 1279.62 -2.18989 -2.38381 0
M  V30 13118 H 1278.53 -3.68971 -0.617323 0
M  V30 13119 H 1279.86 -4.85124 -0.831617 0
M  V30 13120 N 1281.51 0.0200419 -1.57587 0
M  V30 13121 C 1282.79 0.744946 -1.80859 0
M  V30 13122 C 1283.17 1.93089 -0.853218 0
M  V30 13123 O 1282.52 2.28269 0.10261 0
M  V30 13124 C 1282.73 1.16952 -3.28821 0
M  V30 13125 C 1284.08 1.5817 -3.9404 0
M  V30 13126 O 1285.1 1.26385 -3.33024 0
M  V30 13127 O 1283.96 2.17197 -5.01486 0
M  V30 13128 H 1281.05 0.360995 -0.744051 0
M  V30 13129 H 1283.6 -0.00387374 -1.697 0
M  V30 13130 H 1282.37 0.323304 -3.89962 0
M  V30 13131 H 1281.99 1.97807 -3.44903 0
M  V30 13132 N 1282.99 1.54862 0.292472 0
M  V30 13133 C 1284.24 1.74807 1.02813 0
M  V30 13134 C 1284.57 0.536935 1.8663 0
M  V30 13135 O 1283.84 -0.465854 1.88839 0
M  V30 13136 C 1284.13 3.04202 1.927 0
M  V30 13137 C 1283.98 4.35631 1.12006 0
M  V30 13138 C 1285.3 3.29514 2.91734 0
M  V30 13139 H 1282.42 0.636015 0.372362 0
M  V30 13140 H 1285.06 1.87583 0.302069 0
M  V30 13141 H 1283.21 2.9344 2.54608 0
M  V30 13142 H 1284.88 4.58323 0.52319 0
M  V30 13143 H 1283.13 4.31733 0.42298 0
M  V30 13144 H 1283.8 5.22454 1.78172 0
M  V30 13145 H 1286.27 3.39941 2.39957 0
M  V30 13146 H 1285.15 4.21352 3.51786 0
M  V30 13147 H 1285.41 2.48216 3.65843 0
M  V30 13148 N 1284.47 -0.556076 1.47464 0
M  V30 13149 C 1285.88 -0.882115 1.33007 0
M  V30 13150 C 1286.08 -1.9892 0.321407 0
M  V30 13151 O 1285.14 -2.51088 -0.266668 0
M  V30 13152 C 1286.45 -1.27428 2.72365 0
M  V30 13153 C 1288 -1.38564 2.80658 0
M  V30 13154 C 1288.48 -1.81136 4.20659 0
M  V30 13155 N 1289.97 -1.88284 4.23206 0
M  V30 13156 C 1290.7 -2.22555 5.28447 0
M  V30 13157 N 1290.2 -2.55432 6.43993 0
M  V30 13158 N 1291.99 -2.23339 5.15826 0
M  V30 13159 H 1284.14 0.17481 2.11679 0
M  V30 13160 H 1286.41 0.0155421 0.947873 0
M  V30 13161 H 1286.11 -0.53463 3.47613 0
M  V30 13162 H 1285.99 -2.23019 3.04208 0
M  V30 13163 H 1288.37 -2.1161 2.05682 0
M  V30 13164 H 1288.45 -0.411588 2.52467 0
M  V30 13165 H 1288.1 -1.08659 4.96141 0
M  V30 13166 H 1288.03 -2.79546 4.46275 0
M  V30 13167 H 1290.52 -1.65259 3.3985 0
M  V30 13168 H 1290.83 -2.80612 7.20053 0
M  V30 13169 H 1289.18 -2.5301 6.47311 0
M  V30 13170 H 1292.37 -1.97094 4.24584 0
M  V30 13171 H 1292.54 -2.49717 5.97951 0
M  V30 13172 N 1285.95 -1.35615 -0.802897 0
M  V30 13173 C 1287.2 -1.28839 -1.55708 0
M  V30 13174 C 1287.52 0.135906 -1.94526 0
M  V30 13175 O 1286.79 1.07317 -1.6389 0
M  V30 13176 H 1285.37 -0.473906 -0.577427 0
M  V30 13177 H 1288.03 -1.69759 -0.957487 0
M  V30 13178 H 1287.12 -1.90675 -2.47082 0
M  V30 13179 N 1287.43 1.02549 -1.19673 0
M  V30 13180 C 1288.67 1.76265 -1.00293 0
M  V30 13181 C 1289 1.88555 0.464816 0
M  V30 13182 O 1288.28 1.40484 1.34515 0
M  V30 13183 C 1288.56 3.18688 -1.6766 0
M  V30 13184 C 1288.42 3.14247 -3.21821 0
M  V30 13185 C 1289.73 4.17159 -1.40238 0
M  V30 13186 H 1286.85 0.639837 -0.365756 0
M  V30 13187 H 1289.5 1.19691 -1.4756 0
M  V30 13188 H 1287.65 3.66992 -1.27472 0
M  V30 13189 H 1289.32 2.73815 -3.71245 0
M  V30 13190 H 1287.56 2.51874 -3.53188 0
M  V30 13191 H 1288.23 4.14886 -3.64107 0
M  V30 13192 H 1290.71 3.77471 -1.75086 0
M  V30 13193 H 1289.58 5.14997 -1.89919 0
M  V30 13194 H 1289.84 4.4088 -0.328197 0
M  V30 13195 N 1288.9 1.00119 1.21713 0
M  V30 13196 C 1289.83 0.578504 2.2622 0
M  V30 13197 C 1290.81 -0.398777 1.6536 0
M  V30 13198 O 1292 -0.287596 1.92059 0
M  V30 13199 C 1289.13 -0.0994508 3.47158 0
M  V30 13200 C 1288.08 0.79722 4.2051 0
M  V30 13201 C 1287.41 -0.0141125 5.34698 0
M  V30 13202 C 1288.71 2.09802 4.7831 0
M  V30 13203 H 1290.4 1.45208 2.6183 0
M  V30 13204 H 1287.95 0.699656 1.2586 0
M  V30 13205 H 1289.9 -0.406605 4.19434 0
M  V30 13206 H 1288.63 -1.00763 3.10667 0
M  V30 13207 H 1287.29 1.08814 3.50079 0
M  V30 13208 H 1286.93 -0.923468 4.9445 0
M  V30 13209 H 1286.63 0.582883 5.84702 0
M  V30 13210 H 1288.16 -0.31517 6.09786 0
M  V30 13211 H 1289.57 1.85427 5.42485 0
M  V30 13212 H 1287.97 2.64455 5.38687 0
M  V30 13213 H 1289.04 2.77132 3.97902 0
M  V30 13214 N 1290.38 -1.37203 0.775435 0
M  V30 13215 C 1291.33 -2.30228 0.162388 0
M  V30 13216 C 1292.3 -1.51284 -0.685747 0
M  V30 13217 O 1293.48 -1.7984 -0.637342 0
M  V30 13218 C 1290.62 -3.37762 -0.707858 0
M  V30 13219 C 1289.74 -4.31714 0.157287 0
M  V30 13220 C 1288.87 -5.26325 -0.718012 0
M  V30 13221 C 1287.91 -6.11918 0.149442 0
M  V30 13222 N 1287.05 -6.9876 -0.684043 0
M  V30 13223 H 1291.89 -2.82073 0.961184 0
M  V30 13224 H 1289.42 -1.38854 0.485587 0
M  V30 13225 H 1291.38 -3.98741 -1.22726 0
M  V30 13226 H 1290.01 -2.87273 -1.47222 0
M  V30 13227 H 1289.06 -3.7201 0.794533 0
M  V30 13228 H 1290.38 -4.91909 0.826262 0
M  V30 13229 H 1289.53 -5.92526 -1.30376 0
M  V30 13230 H 1288.27 -4.6655 -1.42066 0
M  V30 13231 H 1287.27 -5.44692 0.747697 0
M  V30 13232 H 1288.5 -6.73766 0.849476 0
M  V30 13233 H 1286.45 -6.41508 -1.37124 0
M  V30 13234 H 1286.36 -7.55965 -0.0724464 0
M  V30 13235 H 1287.63 -7.69346 -1.25407 0
M  V30 13236 N 1291.86 -0.526279 -1.48553 0
M  V30 13237 C 1293.28 -0.183886 -1.58537 0
M  V30 13238 C 1293.48 1.31272 -1.52872 0
M  V30 13239 O 1292.53 2.09069 -1.41585 0
M  V30 13240 C 1293.84 -0.78313 -2.90323 0
M  V30 13241 C 1295.39 -0.751527 -3.03844 0
M  V30 13242 C 1295.87 -1.32928 -4.38285 0
M  V30 13243 N 1297.36 -1.29109 -4.44843 0
M  V30 13244 C 1298.09 -1.70806 -5.47369 0
M  V30 13245 N 1297.59 -2.20215 -6.56869 0
M  V30 13246 N 1299.38 -1.62065 -5.3823 0
M  V30 13247 H 1291.53 -1.499 -1.50478 0
M  V30 13248 H 1293.8 -0.623294 -0.714289 0
M  V30 13249 H 1293.5 -1.83371 -3.00113 0
M  V30 13250 H 1293.38 -0.25808 -3.76316 0
M  V30 13251 H 1295.76 0.290282 -2.93669 0
M  V30 13252 H 1295.84 -1.314 -2.19471 0
M  V30 13253 H 1295.49 -2.37 -4.49214 0
M  V30 13254 H 1295.42 -0.742516 -5.21339 0
M  V30 13255 H 1297.91 -0.929348 -3.66294 0
M  V30 13256 H 1298.22 -2.50035 -7.31233 0
M  V30 13257 H 1296.57 -2.24206 -6.57842 0
M  V30 13258 H 1299.76 -1.23265 -4.51579 0
M  V30 13259 H 1299.93 -1.94883 -6.18001 0
M  V30 13260 N 1293.34 1.5542 -0.261239 0
M  V30 13261 C 1294.75 1.59327 0.0932655 0
M  V30 13262 C 1294.95 1.27846 1.55748 0
M  V30 13263 O 1294.01 1.03265 2.30418 0
M  V30 13264 C 1295.32 2.99496 -0.268856 0
M  V30 13265 C 1296.87 3.12265 -0.21433 0
M  V30 13266 C 1297.35 4.54677 -0.55069 0
M  V30 13267 N 1298.84 4.60475 -0.501723 0
M  V30 13268 C 1299.57 5.6867 -0.734961 0
M  V30 13269 N 1299.07 6.85069 -1.03209 0
M  V30 13270 N 1300.86 5.58156 -0.664696 0
M  V30 13271 H 1293.01 1.7415 -1.21595 0
M  V30 13272 H 1295.27 0.811382 -0.490268 0
M  V30 13273 H 1294.98 3.2732 -1.28664 0
M  V30 13274 H 1294.85 3.75104 0.397097 0
M  V30 13275 H 1297.24 2.84213 0.794148 0
M  V30 13276 H 1297.32 2.389 -0.914342 0
M  V30 13277 H 1296.97 4.83453 -1.55679 0
M  V30 13278 H 1296.9 5.26322 0.170959 0
M  V30 13279 H 1299.39 3.76851 -0.281387 0
M  V30 13280 H 1299.7 7.63472 -1.19709 0
M  V30 13281 H 1298.05 6.86718 -1.06971 0
M  V30 13282 H 1301.24 4.66098 -0.432513 0
M  V30 13283 H 1301.41 6.42403 -0.849857 0
M  V30 13284 N 1294.82 -0.0116844 1.57596 0
M  V30 13285 C 1296.06 -0.699994 1.90336 0
M  V30 13286 C 1296.39 -1.74067 0.861072 0
M  V30 13287 O 1295.67 -1.94119 -0.121712 0
M  V30 13288 C 1295.95 -1.35377 3.33684 0
M  V30 13289 C 1295.81 -0.325434 4.48621 0
M  V30 13290 C 1297.12 -2.28312 3.76247 0
M  V30 13291 H 1294.24 -0.253002 0.692213 0
M  V30 13292 H 1296.89 0.037211 1.89964 0
M  V30 13293 H 1295.04 -1.98212 3.34132 0
M  V30 13294 H 1296.71 0.302331 4.60308 0
M  V30 13295 H 1294.95 0.353527 4.32357 0
M  V30 13296 H 1295.62 -0.8217 5.4585 0
M  V30 13297 H 1298.1 -1.75505 3.77276 0
M  V30 13298 H 1296.97 -2.71028 4.77321 0
M  V30 13299 H 1297.23 -3.15727 3.09465 0
M  V30 13300 N 1296.29 -1.55015 -0.284256 0
M  V30 13301 C 1297.2 -1.90203 -1.37332 0
M  V30 13302 C 1298.22 -0.797994 -1.54622 0
M  V30 13303 O 1299.4 -1.09602 -1.68965 0
M  V30 13304 C 1296.46 -2.15687 -2.71441 0
M  V30 13305 C 1295.52 -3.39313 -2.62993 0
M  V30 13306 C 1294.75 -3.63571 -3.90707 0
M  V30 13307 O 1294.98 -2.90538 -4.9086 0
M  V30 13308 O 1293.91 -4.57102 -3.91589 0
M  V30 13309 H 1297.74 -2.82888 -1.1049 0
M  V30 13310 H 1295.32 -1.41418 -0.481798 0
M  V30 13311 H 1297.2 -2.33553 -3.50758 0
M  V30 13312 H 1295.88 -1.26185 -2.98092 0
M  V30 13313 H 1294.79 -3.26793 -1.82091 0
M  V30 13314 H 1296.12 -4.28997 -2.41293 0
M  V30 13315 N 1297.77 0.548248 -1.47757 0
M  V30 13316 C 1299 1.3302 -1.58472 0
M  V30 13317 C 1299.41 1.87292 -0.238186 0
M  V30 13318 O 1298.77 1.65465 0.76991 0
M  V30 13319 C 1298.82 2.49386 -2.61704 0
M  V30 13320 O 1298.54 1.97355 -3.9113 0
M  V30 13321 C 1300.04 3.41471 -2.82688 0
M  V30 13322 H 1297.26 0.405172 -0.534861 0
M  V30 13323 H 1299.81 0.663251 -1.93446 0
M  V30 13324 H 1297.96 3.12001 -2.29639 0
M  V30 13325 H 1298.38 2.7339 -4.47614 0
M  V30 13326 H 1299.85 4.19516 -3.58762 0
M  V30 13327 H 1300.33 3.95573 -1.90837 0
M  V30 13328 H 1300.93 2.84664 -3.15985 0
M  V30 13329 N 1299.25 1.36039 0.795694 0
M  V30 13330 C 1300.67 1.16315 1.09284 0
M  V30 13331 C 1300.87 -0.017024 2.01493 0
M  V30 13332 O 1299.92 -0.684316 2.4305 0
M  V30 13333 C 1301.23 2.47113 1.71335 0
M  V30 13334 C 1302.78 2.5342 1.83705 0
M  V30 13335 C 1303.26 3.84289 2.49171 0
M  V30 13336 N 1304.75 3.856 2.56645 0
M  V30 13337 C 1305.48 4.83597 3.08094 0
M  V30 13338 N 1304.98 5.91985 3.59897 0
M  V30 13339 N 1306.77 4.71023 3.06748 0
M  V30 13340 H 1298.92 2.11611 0.182957 0
M  V30 13341 H 1301.19 0.937035 0.143771 0
M  V30 13342 H 1300.89 3.33708 1.11049 0
M  V30 13343 H 1300.77 2.62461 2.70914 0
M  V30 13344 H 1303.15 1.67247 2.43131 0
M  V30 13345 H 1303.23 2.41977 0.829495 0
M  V30 13346 H 1302.88 4.70865 1.90391 0
M  V30 13347 H 1302.81 3.93025 3.50484 0
M  V30 13348 H 1305.3 3.07291 2.19956 0
M  V30 13349 H 1305.61 6.6274 3.97487 0
M  V30 13350 H 1303.96 5.95662 3.58066 0
M  V30 13351 H 1307.15 3.8548 2.65561 0
M  V30 13352 H 1307.32 5.47555 3.46536 0
M  V30 13353 N 1300.73 -1.01913 1.20215 0
M  V30 13354 C 1301.66 -2.10513 0.906476 0
M  V30 13355 C 1302.67 -1.62463 -0.104758 0
M  V30 13356 O 1303.86 -1.78055 0.12593 0
M  V30 13357 C 1300.96 -3.3722 0.337012 0
M  V30 13358 C 1300.14 -4.14417 1.39917 0
M  V30 13359 C 1299.19 -5.19428 0.841489 0
M  V30 13360 O 1298.22 -5.48486 1.52157 0
M  V30 13361 N 1299.42 -5.79442 -0.350365 0
M  V30 13362 H 1302.19 -2.36465 1.84132 0
M  V30 13363 H 1299.75 -1.18283 1.10548 0
M  V30 13364 H 1301.74 -4.04669 -0.0501507 0
M  V30 13365 H 1300.31 -3.08538 -0.502325 0
M  V30 13366 H 1299.53 -3.41975 1.96078 0
M  V30 13367 H 1300.82 -4.62777 2.1146 0
M  V30 13368 H 1300.22 -5.58166 -0.920204 0
M  V30 13369 H 1298.77 -6.48252 -0.679194 0
M  V30 13370 N 1302.21 -1.00763 -1.2118 0
M  V30 13371 C 1303.16 -0.541218 -2.21483 0
M  V30 13372 C 1304.14 0.398597 -1.55885 0
M  V30 13373 O 1305.33 0.22302 -1.75589 0
M  V30 13374 C 1302.46 0.128145 -3.43061 0
M  V30 13375 C 1301.55 -0.832845 -4.15842 0
M  V30 13376 N 1301.94 -1.98673 -4.65148 0
M  V30 13377 C 1300.24 -0.651779 -4.41212 0
M  V30 13378 C 1300.94 -2.59112 -5.20803 0
M  V30 13379 N 1299.91 -1.87249 -5.10332 0
M  V30 13380 H 1303.72 -1.42105 -2.57262 0
M  V30 13381 H 1301.23 -0.871796 -1.37016 0
M  V30 13382 H 1303.23 0.479771 -4.1413 0
M  V30 13383 H 1301.89 1.00392 -3.0879 0
M  V30 13384 H 1302.9 -2.36701 -4.60644 0
M  V30 13385 H 1299.57 0.1767 -4.17126 0
M  V30 13386 H 1300.96 -3.56713 -5.69391 0
M  V30 13387 N 1303.68 1.3679 -0.7827 0
M  V30 13388 C 1304.91 2.03678 -0.363734 0
M  V30 13389 C 1305.33 1.59024 1.01768 0
M  V30 13390 O 1304.68 0.776541 1.65155 0
M  V30 13391 C 1304.74 3.59165 -0.410213 0
M  V30 13392 O 1304.46 4.02188 -1.73714 0
M  V30 13393 C 1305.96 4.43296 0.018972 0
M  V30 13394 H 1303.18 0.653828 -0.150829 0
M  V30 13395 H 1305.72 1.74903 -1.05968 0
M  V30 13396 H 1303.88 3.86673 0.237249 0
M  V30 13397 H 1304.29 4.96754 -1.68332 0
M  V30 13398 H 1305.76 5.51962 -0.0646943 0
M  V30 13399 H 1306.24 4.25948 1.07076 0
M  V30 13400 H 1306.85 4.21036 -0.600721 0
M  V30 13401 N 1305.16 0.53415 1.48272 0
M  V30 13402 C 1306.07 -0.230062 2.33469 0
M  V30 13403 C 1307.09 -0.934889 1.46751 0
M  V30 13404 O 1308.26 -0.908921 1.79724 0
M  V30 13405 C 1305.33 -1.2609 3.22958 0
M  V30 13406 C 1304.39 -0.565983 4.25553 0
M  V30 13407 C 1303.62 -1.54771 5.10766 0
M  V30 13408 O 1303.85 -2.7807 4.9803 0
M  V30 13409 O 1302.78 -1.08482 5.92043 0
M  V30 13410 H 1306.61 0.468182 3.0007 0
M  V30 13411 H 1304.19 0.29502 1.46458 0
M  V30 13412 H 1306.07 -1.85652 3.783 0
M  V30 13413 H 1304.75 -1.94148 2.59014 0
M  V30 13414 H 1303.66 0.0702391 3.74034 0
M  V30 13415 H 1304.99 0.0727277 4.92146 0
M  V30 13416 N 1306.64 -1.55279 0.269478 0
M  V30 13417 C 1307.55 -2.25965 -0.63065 0
M  V30 13418 C 1308.57 -1.28357 -1.17476 0
M  V30 13419 O 1309.74 -1.61281 -1.20625 0
M  V30 13420 C 1306.81 -2.96263 -1.80081 0
M  V30 13421 C 1305.87 -4.09336 -1.29394 0
M  V30 13422 C 1305.1 -4.76272 -2.40833 0
M  V30 13423 O 1305.32 -4.42389 -3.60066 0
M  V30 13424 O 1304.26 -5.64334 -2.09309 0
M  V30 13425 H 1308.08 -3.03644 -0.0582069 0
M  V30 13426 H 1305.67 -1.49354 0.0370966 0
M  V30 13427 H 1307.55 -3.40461 -2.48322 0
M  V30 13428 H 1306.23 -2.21505 -2.36045 0
M  V30 13429 H 1305.13 -3.69605 -0.578154 0
M  V30 13430 H 1306.47 -4.85978 -0.780117 0
M  V30 13431 N 1308.12 0.00332656 -1.576 0
M  V30 13432 C 1309.08 0.980628 -2.07163 0
M  V30 13433 C 1310.08 1.27455 -0.980402 0
M  V30 13434 O 1311.27 1.22029 -1.24317 0
M  V30 13435 C 1308.4 2.30647 -2.51028 0
M  V30 13436 H 1309.6 0.551982 -2.94776 0
M  V30 13437 H 1307.15 0.250728 -1.54276 0
M  V30 13438 H 1307.88 2.78207 -1.66647 0
M  V30 13439 H 1307.67 2.10635 -3.30719 0
M  V30 13440 H 1309.16 3.00761 -2.89711 0
M  V30 13441 N 1309.6 1.55164 0.276031 0
M  V30 13442 C 1310.85 1.74833 1.0058 0
M  V30 13443 C 1311.16 0.555089 1.87558 0
M  V30 13444 O 1312.36 0.634127 2.63991 0
M  V30 13445 C 1310.82 3.09417 1.83818 0
M  V30 13446 C 1310.43 4.36299 1.01721 0
M  V30 13447 C 1312.17 3.38437 2.56244 0
M  V30 13448 C 1310.08 5.61923 1.8438 0
M  V30 13449 H 1309.01 0.651676 0.379254 0
M  V30 13450 H 1311.66 1.81626 0.26161 0
M  V30 13451 H 1310.04 2.96654 2.62321 0
M  V30 13452 H 1311.22 4.59969 0.276565 0
M  V30 13453 H 1309.53 4.144 0.407645 0
M  V30 13454 H 1312.13 4.29501 3.18485 0
M  V30 13455 H 1312.47 2.58432 3.26372 0
M  V30 13456 H 1313 3.52284 1.84773 0
M  V30 13457 H 1309.74 6.44667 1.18679 0
M  V30 13458 H 1309.26 5.424 2.56051 0
M  V30 13459 H 1310.94 6.0011 2.4182 0
M  V30 13460 N 1311.07 -0.540404 1.48045 0
M  V30 13461 C 1312.49 -0.867958 1.33935 0
M  V30 13462 C 1312.69 -1.98568 0.342488 0
M  V30 13463 O 1311.75 -2.51357 -0.240022 0
M  V30 13464 C 1313.06 -1.24532 2.73701 0
M  V30 13465 C 1314.61 -1.3558 2.82112 0
M  V30 13466 C 1315.08 -1.76664 4.22556 0
M  V30 13467 N 1316.57 -1.83785 4.25179 0
M  V30 13468 C 1317.31 -2.16938 5.30778 0
M  V30 13469 N 1316.8 -2.48587 6.46666 0
M  V30 13470 N 1318.6 -2.17855 5.18166 0
M  V30 13471 H 1310.75 0.197251 2.11482 0
M  V30 13472 H 1313.01 0.0255947 0.947654 0
M  V30 13473 H 1312.72 -0.497731 3.4816 0
M  V30 13474 H 1312.59 -2.19779 3.06556 0
M  V30 13475 H 1314.98 -2.09417 2.07915 0
M  V30 13476 H 1315.06 -0.384787 2.52889 0
M  V30 13477 H 1314.7 -1.03391 4.97265 0
M  V30 13478 H 1314.63 -2.74797 4.49215 0
M  V30 13479 H 1317.12 -1.61645 3.41583 0
M  V30 13480 H 1317.44 -2.72959 7.22989 0
M  V30 13481 H 1315.78 -2.4613 6.49958 0
M  V30 13482 H 1318.97 -1.9258 4.2665 0
M  V30 13483 H 1319.15 -2.43361 6.00566 0
M  V30 13484 N 1312.55 -1.36459 -0.788468 0
M  V30 13485 C 1313.48 -1.26727 -1.90979 0
M  V30 13486 C 1314.5 -0.186572 -1.61727 0
M  V30 13487 O 1315.69 -0.441364 -1.72957 0
M  V30 13488 C 1312.79 -0.932838 -3.25809 0
M  V30 13489 C 1311.96 -2.11562 -3.82832 0
M  V30 13490 C 1311.02 -1.75409 -4.96103 0
M  V30 13491 O 1310.04 -2.47508 -5.1257 0
M  V30 13492 N 1311.25 -0.688327 -5.76405 0
M  V30 13493 H 1314.01 -2.2334 -1.99848 0
M  V30 13494 H 1311.57 -1.29865 -0.966784 0
M  V30 13495 H 1313.56 -0.672131 -3.9908 0
M  V30 13496 H 1312.13 -0.0558103 -3.1255 0
M  V30 13497 H 1311.35 -2.53907 -3.01538 0
M  V30 13498 H 1312.64 -2.9058 -4.17661 0
M  V30 13499 H 1312.04 -0.0896854 -5.65629 0
M  V30 13500 H 1310.6 -0.487446 -6.49975 0
M  V30 13501 N 1314.03 1.01274 -1.20754 0
M  V30 13502 C 1314.96 2.10029 -0.917628 0
M  V30 13503 C 1315.98 1.62516 0.0961411 0
M  V30 13504 O 1317.16 1.77986 -0.135371 0
M  V30 13505 C 1314.26 3.37037 -0.354891 0
M  V30 13506 C 1313.44 4.1367 -1.42113 0
M  V30 13507 C 1312.5 5.18974 -0.869023 0
M  V30 13508 O 1311.52 5.47671 -1.55063 0
M  V30 13509 N 1312.72 5.79619 0.319631 0
M  V30 13510 H 1315.49 2.35485 -1.85383 0
M  V30 13511 H 1313.05 1.17695 -1.11173 0
M  V30 13512 H 1315.04 4.0469 0.0286895 0
M  V30 13513 H 1313.61 3.088 0.485956 0
M  V30 13514 H 1312.83 3.40931 -1.97889 0
M  V30 13515 H 1314.12 4.61649 -2.13911 0
M  V30 13516 H 1313.52 5.58646 0.89059 0
M  V30 13517 H 1312.08 6.48603 0.644807 0
M  V30 13518 N 1315.51 1.01404 1.20644 0
M  V30 13519 C 1316.42 0.591693 2.27016 0
M  V30 13520 C 1317.44 -0.36958 1.7003 0
M  V30 13521 O 1318.61 -0.231165 2.00069 0
M  V30 13522 C 1315.68 -0.0659827 3.46637 0
M  V30 13523 C 1314.74 0.940911 4.18862 0
M  V30 13524 C 1313.97 0.314526 5.32772 0
M  V30 13525 O 1314.19 -0.886404 5.63471 0
M  V30 13526 O 1313.13 1.02998 5.93022 0
M  V30 13527 H 1316.95 1.4772 2.65353 0
M  V30 13528 H 1314.54 0.783399 1.27213 0
M  V30 13529 H 1316.42 -0.433412 4.19165 0
M  V30 13530 H 1315.1 -0.925729 3.10181 0
M  V30 13531 H 1314 1.35966 3.48517 0
M  V30 13532 H 1315.34 1.77054 4.59252 0
M  V30 13533 N 1316.99 -1.36373 0.789944 0
M  V30 13534 C 1318.23 -1.99523 0.363119 0
M  V30 13535 C 1318.57 -1.6255 -1.0626 0
M  V30 13536 O 1317.84 -0.880551 -1.73426 0
M  V30 13537 C 1318.12 -3.56215 0.527526 0
M  V30 13538 C 1317.98 -4.0304 1.99697 0
M  V30 13539 C 1319.3 -4.40063 -0.0571079 0
M  V30 13540 H 1316.42 -0.724824 0.133412 0
M  V30 13541 H 1319.06 -1.61778 0.996381 0
M  V30 13542 H 1317.21 -3.88498 -0.0115636 0
M  V30 13543 H 1318.88 -3.81241 2.59717 0
M  V30 13544 H 1317.12 -3.54561 2.49939 0
M  V30 13545 H 1317.79 -5.12001 2.06297 0
M  V30 13546 H 1320.27 -4.14143 0.403082 0
M  V30 13547 H 1319.15 -5.4883 0.0879494 0
M  V30 13548 H 1319.41 -4.26901 -1.14926 0
M  V30 13549 N 1318.47 -0.542005 -1.47987 0
M  V30 13550 C 1319.38 0.217677 -2.33588 0
M  V30 13551 C 1320.39 0.927093 -1.47245 0
M  V30 13552 O 1321.57 0.899378 -1.80203 0
M  V30 13553 C 1318.63 1.24376 -3.23622 0
M  V30 13554 C 1317.69 0.543407 -4.25847 0
M  V30 13555 C 1316.93 1.5206 -5.11579 0
M  V30 13556 O 1317.15 2.75425 -4.99497 0
M  V30 13557 O 1316.08 1.05341 -5.9261 0
M  V30 13558 H 1319.91 -0.484089 -2.99817 0
M  V30 13559 H 1317.49 -0.302783 -1.463 0
M  V30 13560 H 1319.38 1.83644 -3.7928 0
M  V30 13561 H 1318.05 1.92772 -2.6004 0
M  V30 13562 H 1316.96 -0.090074 -3.73992 0
M  V30 13563 H 1318.29 -0.0988264 -4.92101 0
M  V30 13564 N 1319.94 1.55134 -0.277709 0
M  V30 13565 C 1320.88 2.20028 0.641913 0
M  V30 13566 C 1321.89 1.18578 1.11549 0
M  V30 13567 O 1323.08 1.45291 1.03695 0
M  V30 13568 C 1320.18 2.81443 1.88794 0
M  V30 13569 C 1319.35 4.08607 1.56074 0
M  V30 13570 C 1318.41 4.54045 2.6595 0
M  V30 13571 O 1317.44 5.19762 2.32026 0
M  V30 13572 N 1318.64 4.24403 3.96058 0
M  V30 13573 H 1321.4 2.99575 0.0864929 0
M  V30 13574 H 1318.96 1.61598 -0.0989178 0
M  V30 13575 H 1320.96 3.08784 2.616 0
M  V30 13576 H 1319.53 2.05873 2.35234 0
M  V30 13577 H 1318.75 3.88527 0.666388 0
M  V30 13578 H 1320.03 4.91455 1.31719 0
M  V30 13579 H 1319.43 3.71708 4.26439 0
M  V30 13580 H 1317.99 4.56509 4.65234 0
M  V30 13581 N 1321.42 0.00503138 1.57599 0
M  V30 13582 C 1322.35 -0.983586 2.11773 0
M  V30 13583 C 1323.33 -1.35518 1.02805 0
M  V30 13584 O 1324.52 -1.43804 1.30514 0
M  V30 13585 C 1321.65 -2.27383 2.62515 0
M  V30 13586 C 1320.6 -2.0437 3.76054 0
M  V30 13587 C 1319.93 -3.39451 4.1313 0
M  V30 13588 C 1321.23 -1.40223 5.03125 0
M  V30 13589 H 1322.92 -0.532501 2.94627 0
M  V30 13590 H 1320.47 -0.254696 1.4173 0
M  V30 13591 H 1322.42 -2.96903 2.99043 0
M  V30 13592 H 1321.14 -2.74614 1.7679 0
M  V30 13593 H 1319.8 -1.37275 3.39928 0
M  V30 13594 H 1319.45 -3.84395 3.24422 0
M  V30 13595 H 1319.15 -3.24868 4.89627 0
M  V30 13596 H 1320.68 -4.10279 4.52221 0
M  V30 13597 H 1322.09 -1.99708 5.37392 0
M  V30 13598 H 1320.49 -1.36112 5.8446 0
M  V30 13599 H 1321.56 -0.372073 4.8347 0
M  V30 13600 N 1322.9 -1.55308 -0.267798 0
M  V30 13601 C 1324.18 -1.66881 -1.02029 0
M  V30 13602 C 1324.56 -0.538708 -2.04111 0
M  V30 13603 O 1323.9 0.460575 -2.2381 0
M  V30 13604 C 1324.11 -3.06318 -1.67243 0
M  V30 13605 C 1325.46 -3.64237 -2.18212 0
M  V30 13606 O 1326.49 -3.08984 -1.77221 0
M  V30 13607 O 1325.35 -4.61055 -2.93413 0
M  V30 13608 H 1322.44 -0.677967 -0.473593 0
M  V30 13609 H 1324.99 -1.67646 -0.263242 0
M  V30 13610 H 1323.76 -3.80015 -0.932985 0
M  V30 13611 H 1323.38 -3.09475 -2.49622 0
M  V30 13612 N 1324.38 0.532545 -1.4833 0
M  V30 13613 C 1325.62 1.28851 -1.56217 0
M  V30 13614 C 1325.95 1.93076 -0.234967 0
M  V30 13615 O 1325.21 1.79722 0.774508 0
M  V30 13616 C 1325.51 2.40117 -2.64724 0
M  V30 13617 C 1325.17 1.93562 -4.0724 0
M  V30 13618 C 1323.83 1.80583 -4.46031 0
M  V30 13619 C 1326.19 1.58349 -4.96563 0
M  V30 13620 C 1323.51 1.30722 -5.71952 0
M  V30 13621 C 1325.87 1.09951 -6.22972 0
M  V30 13622 C 1324.53 0.955866 -6.60621 0
M  V30 13623 H 1323.8 0.4715 -0.571637 0
M  V30 13624 H 1326.45 0.594564 -1.82036 0
M  V30 13625 H 1324.75 3.15171 -2.32754 0
M  V30 13626 H 1326.45 2.98252 -2.68042 0
M  V30 13627 H 1323.04 2.04614 -3.76605 0
M  V30 13628 H 1327.22 1.67237 -4.67274 0
M  V30 13629 H 1322.48 1.18286 -5.99849 0
M  V30 13630 H 1326.65 0.817736 -6.91582 0
M  V30 13631 H 1324.28 0.567302 -7.5808 0
M  V30 13632 N 1325.86 1.36875 0.78122 0
M  V30 13633 C 1327.27 1.17467 1.08044 0
M  V30 13634 C 1327.47 0.00434799 2.015 0
M  V30 13635 O 1326.53 -0.658499 2.43762 0
M  V30 13636 C 1327.84 2.48917 1.68704 0
M  V30 13637 C 1329.39 2.55354 1.81007 0
M  V30 13638 C 1329.86 3.8691 2.45081 0
M  V30 13639 N 1331.35 3.88301 2.52541 0
M  V30 13640 C 1332.09 4.86837 3.02947 0
M  V30 13641 N 1331.59 5.95768 3.53598 0
M  V30 13642 N 1333.38 4.74249 3.01735 0
M  V30 13643 H 1325.53 2.11793 0.160503 0
M  V30 13644 H 1327.79 0.938507 0.133825 0
M  V30 13645 H 1327.5 3.34867 1.07503 0
M  V30 13646 H 1327.37 2.65319 2.68115 0
M  V30 13647 H 1329.76 1.69816 2.41343 0
M  V30 13648 H 1329.84 2.42843 0.803783 0
M  V30 13649 H 1329.48 4.72858 1.85386 0
M  V30 13650 H 1329.41 3.9672 3.46296 0
M  V30 13651 H 1331.91 3.09607 2.16684 0
M  V30 13652 H 1332.22 6.66918 3.90435 0
M  V30 13653 H 1330.56 5.99426 3.51728 0
M  V30 13654 H 1333.75 3.88275 2.61458 0
M  V30 13655 H 1333.93 5.512 3.40709 0
M  V30 13656 N 1327.33 -1.00632 1.21289 0
M  V30 13657 C 1328.61 -1.71635 0.938124 0
M  V30 13658 C 1328.99 -2.03798 -0.550416 0
M  V30 13659 O 1328.34 -1.71065 -1.5149 0
M  V30 13660 C 1328.55 -2.97674 1.82184 0
M  V30 13661 C 1329.9 -3.7073 2.06989 0
M  V30 13662 O 1330.92 -3.07653 1.79522 0
M  V30 13663 O 1329.78 -4.84183 2.53435 0
M  V30 13664 H 1326.87 -0.748506 0.351664 0
M  V30 13665 H 1329.42 -1.06387 1.32212 0
M  V30 13666 H 1328.19 -2.70306 2.82931 0
M  V30 13667 H 1327.81 -3.70663 1.43858 0
M  V30 13668 N 1328.81 -1.02043 -1.20104 0
M  V30 13669 C 1329.74 -0.614421 -2.25271 0
M  V30 13670 C 1330.72 0.37242 -1.65973 0
M  V30 13671 O 1331.91 0.257005 -1.92492 0
M  V30 13672 C 1329.04 0.0442085 -3.47272 0
M  V30 13673 C 1327.99 -0.864019 -4.19188 0
M  V30 13674 C 1327.32 -0.0709551 -5.34653 0
M  V30 13675 C 1328.62 -2.17385 -4.74912 0
M  V30 13676 H 1330.31 -1.49355 -2.59487 0
M  V30 13677 H 1327.86 -0.719591 -1.24731 0
M  V30 13678 H 1329.81 0.339825 -4.20028 0
M  V30 13679 H 1328.53 0.958082 -3.12231 0
M  V30 13680 H 1327.19 -1.1437 -3.48303 0
M  V30 13681 H 1326.84 0.844688 -4.95857 0
M  V30 13682 H 1326.54 -0.67583 -5.83701 0
M  V30 13683 H 1328.07 0.218118 -6.1021 0
M  V30 13684 H 1329.48 -1.94034 -5.39466 0
M  V30 13685 H 1327.88 -2.72991 -5.34412 0
M  V30 13686 H 1328.95 -2.83427 -3.93443 0
M  V30 13687 N 1330.29 1.35952 -0.797165 0
M  V30 13688 C 1331.22 2.32506 -0.215277 0
M  V30 13689 C 1332.2 1.57023 0.654046 0
M  V30 13690 O 1333.39 1.85139 0.586268 0
M  V30 13691 C 1330.52 3.41266 0.644557 0
M  V30 13692 C 1329.47 4.27816 -0.125501 0
M  V30 13693 C 1328.8 5.27813 0.855428 0
M  V30 13694 C 1330.1 5.05367 -1.31913 0
M  V30 13695 H 1331.79 2.8142 -1.02193 0
M  V30 13696 H 1329.34 1.35303 -0.492862 0
M  V30 13697 H 1331.29 4.07808 1.06163 0
M  V30 13698 H 1330.01 2.90938 1.484 0
M  V30 13699 H 1328.67 3.62841 -0.523639 0
M  V30 13700 H 1328.32 4.73755 1.69011 0
M  V30 13701 H 1328.02 5.86589 0.344566 0
M  V30 13702 H 1329.54 5.97227 1.2709 0
M  V30 13703 H 1330.96 5.64907 -0.977418 0
M  V30 13704 H 1329.36 5.73593 -1.76382 0
M  V30 13705 H 1330.43 4.36558 -2.11057 0
M  V30 13706 N 1331.77 0.549846 1.47697 0
M  V30 13707 C 1333.02 0.0230048 2.02087 0
M  V30 13708 C 1333.34 -1.32865 1.4273 0
M  V30 13709 O 1332.61 -1.86492 0.59981 0
M  V30 13710 H 1331.19 0.00551514 0.74698 0
M  V30 13711 H 1333.85 0.718185 1.81185 0
M  V30 13712 H 1332.95 -0.0705813 3.1202 0
M  V30 13713 N 1333.25 -1.54984 0.285932 0
M  V30 13714 C 1334.19 -2.2295 -0.596822 0
M  V30 13715 C 1335.16 -1.20674 -1.14136 0
M  V30 13716 O 1336.35 -1.49249 -1.18867 0
M  V30 13717 C 1333.49 -2.9625 -1.77002 0
M  V30 13718 C 1332.6 -4.13268 -1.25831 0
M  V30 13719 C 1331.74 -4.74187 -2.39417 0
M  V30 13720 C 1330.78 -5.83377 -1.85304 0
M  V30 13721 N 1329.91 -6.38313 -2.92405 0
M  V30 13722 H 1334.75 -2.97998 -0.0106104 0
M  V30 13723 H 1332.29 -1.47099 0.00653041 0
M  V30 13724 H 1334.25 -3.36971 -2.4598 0
M  V30 13725 H 1332.88 -2.23606 -2.3281 0
M  V30 13726 H 1331.93 -3.77593 -0.461278 0
M  V30 13727 H 1333.24 -4.91979 -0.822049 0
M  V30 13728 H 1332.4 -5.17683 -3.16369 0
M  V30 13729 H 1331.13 -3.94775 -2.86364 0
M  V30 13730 H 1330.14 -5.3932 -1.06835 0
M  V30 13731 H 1331.36 -6.64664 -1.3928 0
M  V30 13732 H 1329.31 -5.61791 -3.38713 0
M  V30 13733 H 1329.23 -7.12328 -2.53228 0
M  V30 13734 H 1330.5 -6.86468 -3.69299 0
M  V30 13735 N 1334.72 -0.0133892 -1.57594 0
M  V30 13736 C 1335.67 0.97367 -2.09257 0
M  V30 13737 C 1336.64 1.33298 -0.990998 0
M  V30 13738 O 1337.83 1.42903 -1.26425 0
M  V30 13739 C 1334.97 2.25603 -2.61147 0
M  V30 13740 C 1334.08 1.95456 -3.85254 0
M  V30 13741 C 1333.21 3.17871 -4.25596 0
M  V30 13742 C 1332.25 2.83471 -5.42504 0
M  V30 13743 N 1331.39 3.98464 -5.78075 0
M  V30 13744 H 1336.23 0.526189 -2.93318 0
M  V30 13745 H 1333.77 0.248148 -1.44992 0
M  V30 13746 H 1335.73 3.00587 -2.89315 0
M  V30 13747 H 1334.36 2.67995 -1.7994 0
M  V30 13748 H 1333.41 1.10781 -3.63912 0
M  V30 13749 H 1334.72 1.6611 -4.70328 0
M  V30 13750 H 1333.87 4.0119 -4.55117 0
M  V30 13751 H 1332.61 3.50365 -3.39257 0
M  V30 13752 H 1331.62 1.98562 -5.12692 0
M  V30 13753 H 1332.84 2.5221 -6.30529 0
M  V30 13754 H 1330.79 4.3083 -4.94694 0
M  V30 13755 H 1330.71 3.72688 -6.57753 0
M  V30 13756 H 1331.97 4.82532 -6.12195 0
M  V30 13757 N 1336.2 1.55448 0.259558 0
M  V30 13758 C 1337.45 1.76948 0.990816 0
M  V30 13759 C 1337.78 0.576401 1.85449 0
M  V30 13760 O 1337.06 -0.425693 1.89784 0
M  V30 13761 C 1337.34 3.08221 1.86204 0
M  V30 13762 C 1337.19 4.37909 1.0274 0
M  V30 13763 C 1338.51 3.35627 2.84679 0
M  V30 13764 H 1335.63 0.64377 0.358788 0
M  V30 13765 H 1338.27 1.88182 0.262211 0
M  V30 13766 H 1336.42 2.98775 2.48326 0
M  V30 13767 H 1338.09 4.5933 0.425855 0
M  V30 13768 H 1336.34 4.32533 0.331308 0
M  V30 13769 H 1337.01 5.26116 1.6705 0
M  V30 13770 H 1339.48 3.44954 2.32693 0
M  V30 13771 H 1338.36 4.28719 3.42769 0
M  V30 13772 H 1338.62 2.55921 3.60496 0
M  V30 13773 N 1337.68 -0.524672 1.4861 0
M  V30 13774 C 1338.91 -1.30958 1.60825 0
M  V30 13775 C 1339.33 -1.86142 0.270682 0
M  V30 13776 O 1338.69 -1.64675 -0.758415 0
M  V30 13777 C 1338.74 -2.43252 2.66197 0
M  V30 13778 O 1337.84 -3.4644 2.23725 0
M  V30 13779 H 1337.18 -0.387638 0.539104 0
M  V30 13780 H 1339.71 -0.630755 1.94635 0
M  V30 13781 H 1339.72 -2.89362 2.87635 0
M  V30 13782 H 1338.4 -2.02449 3.63301 0
M  V30 13783 H 1336.97 -3.06413 2.12522 0
M  V30 13784 N 1339.16 -1.37287 -0.77395 0
M  V30 13785 C 1340.39 -1.35563 -1.56302 0
M  V30 13786 C 1340.8 0.0595356 -1.88706 0
M  V30 13787 O 1340.16 1.02072 -1.51286 0
M  V30 13788 C 1340.21 -2.19195 -2.87464 0
M  V30 13789 O 1339.93 -3.55197 -2.5645 0
M  V30 13790 C 1341.43 -2.25425 -3.81704 0
M  V30 13791 H 1338.65 -0.464431 -0.484298 0
M  V30 13792 H 1341.2 -1.80597 -0.959425 0
M  V30 13793 H 1339.35 -1.77676 -3.44253 0
M  V30 13794 H 1339.76 -3.99011 -3.40427 0
M  V30 13795 H 1341.24 -2.8827 -4.70749 0
M  V30 13796 H 1341.72 -1.26205 -4.20677 0
M  V30 13797 H 1342.32 -2.67247 -3.30846 0
M  V30 13798 N 1340.64 0.999871 -1.21821 0
M  V30 13799 C 1341.58 2.08864 -0.98206 0
M  V30 13800 C 1342.55 1.65835 0.0937677 0
M  V30 13801 O 1343.74 1.90722 -0.0544038 0
M  V30 13802 C 1340.88 3.40553 -0.558382 0
M  V30 13803 C 1339.99 3.96964 -1.70422 0
M  V30 13804 C 1339.13 5.16782 -1.2292 0
M  V30 13805 C 1338.17 5.65315 -2.34703 0
M  V30 13806 N 1337.3 6.76379 -1.88299 0
M  V30 13807 H 1342.14 2.28399 -1.9141 0
M  V30 13808 H 1339.68 1.11984 -0.953837 0
M  V30 13809 H 1341.64 4.16163 -0.293955 0
M  V30 13810 H 1340.27 3.2104 0.336656 0
M  V30 13811 H 1339.32 3.18291 -2.08315 0
M  V30 13812 H 1340.63 4.2897 -2.54531 0
M  V30 13813 H 1339.79 5.99657 -0.92174 0
M  V30 13814 H 1338.52 4.86383 -0.358222 0
M  V30 13815 H 1337.53 4.81033 -2.66246 0
M  V30 13816 H 1338.75 5.97742 -3.22306 0
M  V30 13817 H 1336.7 6.47775 -1.03552 0
M  V30 13818 H 1336.62 7.07666 -2.65978 0
M  V30 13819 H 1337.89 7.62776 -1.60601 0
M  V30 13820 N 1342.11 1.02678 1.19562 0
M  V30 13821 C 1343.34 0.741569 1.93154 0
M  V30 13822 C 1343.76 -0.699292 1.75372 0
M  V30 13823 O 1343.11 -1.47533 1.07426 0
M  V30 13824 C 1343.17 1.08064 3.4497 0
M  V30 13825 O 1342.89 2.46492 3.62179 0
M  V30 13826 C 1344.39 0.817935 4.35689 0
M  V30 13827 H 1341.61 0.271506 0.613617 0
M  V30 13828 H 1344.15 1.3707 1.51763 0
M  V30 13829 H 1342.31 0.496723 3.84202 0
M  V30 13830 H 1342.72 2.59053 4.56061 0
M  V30 13831 H 1344.19 1.10517 5.40823 0
M  V30 13832 H 1344.67 -0.247693 4.38501 0
M  V30 13833 H 1345.28 1.38449 4.02134 0
M  V30 13834 N 1343.59 -1.35528 0.804364 0
M  V30 13835 C 1344.52 -2.32388 0.227604 0
M  V30 13836 C 1345.5 -1.57368 -0.645709 0
M  V30 13837 O 1346.69 -1.85448 -0.576441 0
M  V30 13838 C 1343.82 -3.41603 -0.62645 0
M  V30 13839 C 1342.77 -4.27743 0.148187 0
M  V30 13840 C 1342.1 -5.28259 -0.827425 0
M  V30 13841 C 1343.4 -5.04661 1.34591 0
M  V30 13842 H 1345.09 -2.80874 1.03684 0
M  V30 13843 H 1342.64 -1.3504 0.500031 0
M  V30 13844 H 1344.59 -4.08365 -1.03999 0
M  V30 13845 H 1343.32 -2.91721 -1.46855 0
M  V30 13846 H 1341.97 -3.62558 0.542874 0
M  V30 13847 H 1341.62 -4.74645 -1.66496 0
M  V30 13848 H 1341.32 -5.86763 -0.313453 0
M  V30 13849 H 1342.85 -5.97893 -1.23921 0
M  V30 13850 H 1344.26 -5.6438 1.00736 0
M  V30 13851 H 1342.66 -5.7265 1.79422 0
M  V30 13852 H 1343.73 -4.35432 2.1337 0
M  V30 13853 N 1345.07 -0.557671 -1.47404 0
M  V30 13854 C 1346.3 -0.0366797 -2.07368 0
M  V30 13855 C 1346.72 1.2478 -1.40754 0
M  V30 13856 O 1346.08 1.74757 -0.48268 0
M  V30 13857 C 1346.13 0.141728 -3.60321 0
M  V30 13858 O 1345.23 1.20419 -3.94427 0
M  V30 13859 H 1344.57 -0.0515319 -0.661997 0
M  V30 13860 H 1347.1 -0.773485 -1.89416 0
M  V30 13861 H 1347.11 0.355787 -4.06446 0
M  V30 13862 H 1345.79 -0.796433 -4.08203 0
M  V30 13863 H 1344.36 0.970589 -3.60047 0
M  V30 13864 N 1346.55 1.54831 -0.294147 0
M  V30 13865 C 1347.46 2.26939 0.594621 0
M  V30 13866 C 1348.48 1.30209 1.15419 0
M  V30 13867 O 1349.65 1.6318 1.18044 0
M  V30 13868 C 1346.72 2.9909 1.75345 0
M  V30 13869 C 1345.78 4.11342 1.22865 0
M  V30 13870 C 1345.01 4.80043 2.33225 0
M  V30 13871 O 1345.23 4.48062 3.52983 0
M  V30 13872 O 1344.17 5.67593 2.00304 0
M  V30 13873 H 1347.99 3.03698 0.00989235 0
M  V30 13874 H 1345.58 1.49276 -0.0608528 0
M  V30 13875 H 1347.46 3.44369 2.42875 0
M  V30 13876 H 1346.14 2.25232 2.32492 0
M  V30 13877 H 1345.04 3.70478 0.519279 0
M  V30 13878 H 1346.38 4.87158 0.702703 0
M  V30 13879 N 1348.03 0.0217466 1.57585 0
M  V30 13880 C 1349.3 -0.696733 1.8277 0
M  V30 13881 C 1349.68 -1.90759 0.904112 0
M  V30 13882 O 1349.03 -2.28461 -0.0420522 0
M  V30 13883 C 1349.24 -1.08193 3.31806 0
M  V30 13884 C 1350.59 -1.47667 3.98095 0
M  V30 13885 O 1351.61 -1.17511 3.36258 0
M  V30 13886 O 1350.47 -2.03825 5.07068 0
M  V30 13887 H 1347.57 -0.341141 0.75336 0
M  V30 13888 H 1350.11 0.0488652 1.6963 0
M  V30 13889 H 1348.89 -0.219799 3.90682 0
M  V30 13890 H 1348.51 -1.88593 3.50026 0
M  V30 13891 N 1349.51 -1.55583 -0.251311 0
M  V30 13892 C 1350.78 -1.67954 -1.00254 0
M  V30 13893 C 1351.16 -0.560326 -2.03528 0
M  V30 13894 O 1350.51 0.436811 -2.24286 0
M  V30 13895 C 1350.72 -3.08075 -1.63985 0
M  V30 13896 C 1352.07 -3.66531 -2.14336 0
M  V30 13897 O 1353.09 -3.10846 -1.73934 0
M  V30 13898 O 1351.95 -4.64141 -2.88506 0
M  V30 13899 H 1349.05 -0.682952 -0.466375 0
M  V30 13900 H 1351.59 -1.67916 -0.245447 0
M  V30 13901 H 1350.36 -3.80983 -0.892627 0
M  V30 13902 H 1349.99 -3.12105 -2.46325 0
M  V30 13903 N 1350.98 0.516783 -1.48886 0
M  V30 13904 C 1351.91 1.62897 -1.67292 0
M  V30 13905 C 1352.89 1.61903 -0.521671 0
M  V30 13906 O 1354.08 1.78892 -0.755728 0
M  V30 13907 C 1351.21 3.01444 -1.72478 0
M  V30 13908 C 1350.16 3.173 -2.87236 0
M  V30 13909 C 1349.49 4.5704 -2.77522 0
M  V30 13910 C 1350.79 2.98818 -4.28375 0
M  V30 13911 H 1352.48 1.47748 -2.60405 0
M  V30 13912 H 1350.03 0.709361 -1.25316 0
M  V30 13913 H 1351.98 3.79135 -1.83942 0
M  V30 13914 H 1350.71 3.17645 -0.759538 0
M  V30 13915 H 1349.37 2.4203 -2.75349 0
M  V30 13916 H 1349.01 4.70096 -1.78938 0
M  V30 13917 H 1348.71 4.68593 -3.54534 0
M  V30 13918 H 1350.24 5.36813 -2.90972 0
M  V30 13919 H 1351.65 3.66291 -4.41026 0
M  V30 13920 H 1350.05 3.21854 -5.06488 0
M  V30 13921 H 1351.12 1.95102 -4.43918 0
M  V30 13922 N 1352.46 1.37696 0.766659 0
M  V30 13923 C 1353.41 1.33871 1.88009 0
M  V30 13924 C 1354.38 0.2034 1.6485 0
M  V30 13925 O 1355.56 0.393569 1.86697 0
M  V30 13926 C 1352.7 1.1566 3.25141 0
M  V30 13927 C 1351.82 2.38465 3.6022 0
M  V30 13928 C 1350.95 2.13087 4.86587 0
M  V30 13929 C 1349.99 3.31732 5.14413 0
M  V30 13930 N 1349.13 3.05872 6.3197 0
M  V30 13931 H 1353.97 2.29065 1.90613 0
M  V30 13932 H 1351.5 1.13821 0.931837 0
M  V30 13933 H 1353.46 1.03122 4.04255 0
M  V30 13934 H 1352.09 0.241115 3.21898 0
M  V30 13935 H 1351.14 2.61725 2.76051 0
M  V30 13936 H 1352.46 3.26933 3.76718 0
M  V30 13937 H 1351.61 1.97609 5.73616 0
M  V30 13938 H 1350.35 1.21965 4.72203 0
M  V30 13939 H 1349.35 3.47743 4.25858 0
M  V30 13940 H 1350.58 4.23712 5.30702 0
M  V30 13941 H 1348.53 2.17384 6.18935 0
M  V30 13942 H 1348.44 3.87885 6.48908 0
M  V30 13943 H 1349.71 2.94023 7.21922 0
M  V30 13944 N 1353.94 -0.993397 1.22349 0
M  V30 13945 C 1354.85 -2.11771 1.00947 0
M  V30 13946 C 1355.87 -1.73949 -0.0420679 0
M  V30 13947 O 1357.04 -2.00837 0.150548 0
M  V30 13948 C 1354.11 -3.41654 0.589359 0
M  V30 13949 C 1353.17 -3.93579 1.71446 0
M  V30 13950 C 1352.4 -5.17264 1.3143 0
M  V30 13951 O 1352.62 -5.70074 0.192876 0
M  V30 13952 O 1351.56 -5.62929 2.13059 0
M  V30 13953 H 1355.38 -2.32708 1.95142 0
M  V30 13954 H 1352.97 -1.10144 1.00939 0
M  V30 13955 H 1354.85 -4.19813 0.365403 0
M  V30 13956 H 1353.53 -3.22077 -0.323738 0
M  V30 13957 H 1352.43 -3.16596 1.99294 0
M  V30 13958 H 1353.77 -4.17588 2.6054 0
M  V30 13959 N 1355.42 -1.03311 -1.19015 0
M  V30 13960 C 1356.67 -0.727266 -1.88132 0
M  V30 13961 C 1356.98 0.747488 -1.80754 0
M  V30 13962 O 1358.19 1.16654 -2.45161 0
M  V30 13963 C 1356.64 -1.25056 -3.37474 0
M  V30 13964 C 1356.25 -2.7534 -3.534 0
M  V30 13965 C 1357.99 -1.02091 -4.12041 0
M  V30 13966 C 1355.9 -3.21066 -4.96659 0
M  V30 13967 H 1354.83 -0.268349 -0.704631 0
M  V30 13968 H 1357.48 -1.24795 -1.3453 0
M  V30 13969 H 1355.86 -0.65777 -3.90499 0
M  V30 13970 H 1357.04 -3.40311 -3.10684 0
M  V30 13971 H 1355.35 -2.96633 -2.92229 0
M  V30 13972 H 1357.95 -1.33777 -5.17695 0
M  V30 13973 H 1358.29 0.0421413 -4.16279 0
M  V30 13974 H 1358.83 -1.57792 -3.65166 0
M  V30 13975 H 1355.56 -4.26719 -4.97586 0
M  V30 13976 H 1355.08 -2.60826 -5.4012 0
M  V30 13977 H 1356.76 -3.14651 -5.65335 0
M  V30 13978 N 1356.9 1.35099 -0.81154 0
M  V30 13979 C 1358.31 1.81082 -0.454543 0
M  V30 13980 C 1358.66 1.67361 1.02395 0
M  V30 13981 O 1357.78 1.20707 1.79607 0
M  V30 13982 C 1358.38 3.2877 -0.818274 0
M  V30 13983 C 1356.94 3.72877 -0.513808 0
M  V30 13984 C 1356.08 2.57008 -1.04125 0
M  V30 13985 H 1359.03 1.23007 -1.00274 0
M  V30 13986 H 1359.06 3.80318 -0.117683 0
M  V30 13987 H 1358.57 3.38725 -1.89439 0
M  V30 13988 H 1356.67 3.68468 0.553368 0
M  V30 13989 H 1356.78 4.67455 -1.0499 0
M  V30 13990 H 1355.15 2.5045 -0.463337 0
M  V30 13991 H 1355.93 2.69738 -2.12358 0
M  V30 13992 N 1358.37 0.56548 1.47106 0
M  V30 13993 C 1359.34 -0.167191 2.28589 0
M  V30 13994 C 1360.34 -0.835005 1.3742 0
M  V30 13995 O 1361.53 -0.689598 1.59969 0
M  V30 13996 C 1358.66 -1.24548 3.17333 0
M  V30 13997 H 1359.85 0.548677 2.94838 0
M  V30 13998 H 1357.4 0.322749 1.52931 0
M  V30 13999 H 1358.14 -1.99348 2.55794 0
M  V30 14000 H 1357.92 -0.771335 3.84438 0
M  V30 14001 H 1359.41 -1.75985 3.78707 0
M  V30 14002 N 1359.85 -1.54672 0.302354 0
M  V30 14003 C 1360.76 -2.27251 -0.582578 0
M  V30 14004 C 1361.78 -1.30819 -1.14727 0
M  V30 14005 O 1362.95 -1.63803 -1.17177 0
M  V30 14006 C 1360.02 -3.00016 -1.73757 0
M  V30 14007 C 1359.08 -4.11988 -1.20682 0
M  V30 14008 C 1358.31 -4.81273 -2.30676 0
M  V30 14009 O 1358.54 -4.49927 -3.50602 0
M  V30 14010 O 1357.47 -5.68647 -1.97291 0
M  V30 14011 H 1361.3 -3.03699 0.00621365 0
M  V30 14012 H 1358.88 -1.49242 0.0687684 0
M  V30 14013 H 1360.76 -3.45652 -2.41045 0
M  V30 14014 H 1359.44 -2.26462 -2.31294 0
M  V30 14015 H 1358.35 -3.70749 -0.499625 0
M  V30 14016 H 1359.68 -4.87524 -0.676858 0
M  V30 14017 N 1361.33 -0.0301034 -1.57571 0
M  V30 14018 C 1362.26 0.980187 -2.07183 0
M  V30 14019 C 1363.28 1.2882 -0.995449 0
M  V30 14020 O 1364.46 1.25268 -1.27162 0
M  V30 14021 C 1361.56 2.30734 -2.48224 0
M  V30 14022 C 1360.74 2.18434 -3.78953 0
M  V30 14023 C 1359.8 3.34092 -4.06533 0
M  V30 14024 O 1358.82 3.10934 -4.76769 0
M  V30 14025 N 1360.02 4.57914 -3.56784 0
M  V30 14026 H 1362.79 0.556877 -2.94481 0
M  V30 14027 H 1360.35 0.156632 -1.61141 0
M  V30 14028 H 1362.34 3.06936 -2.63766 0
M  V30 14029 H 1360.91 2.64703 -1.66287 0
M  V30 14030 H 1360.13 1.26953 -3.73198 0
M  V30 14031 H 1361.42 2.07421 -4.64601 0
M  V30 14032 H 1360.82 4.79623 -2.99964 0
M  V30 14033 H 1359.38 5.31281 -3.77603 0
M  V30 14034 N 1362.81 1.55714 0.243056 0
M  V30 14035 C 1363.74 1.85615 1.32748 0
M  V30 14036 C 1364.72 0.711577 1.46203 0
M  V30 14037 O 1365.9 0.957732 1.62357 0
M  V30 14038 C 1363.03 2.04425 2.70052 0
M  V30 14039 C 1362.08 3.27071 2.73727 0
M  V30 14040 S 1362.91 4.83615 2.2995 0
M  V30 14041 C 1364.07 5.05434 3.69171 0
M  V30 14042 H 1364.3 2.77305 1.07187 0
M  V30 14043 H 1361.83 1.47871 0.444234 0
M  V30 14044 H 1363.79 2.15946 3.4911 0
M  V30 14045 H 1362.45 1.1357 2.92849 0
M  V30 14046 H 1361.64 3.37211 3.74573 0
M  V30 14047 H 1361.25 3.14296 2.02716 0
M  V30 14048 H 1363.54 4.93013 4.64698 0
M  V30 14049 H 1364.48 6.07401 3.63963 0
M  V30 14050 H 1364.89 4.33262 3.61862 0
M  V30 14051 N 1364.29 -0.50888 1.49158 0
M  V30 14052 C 1365.56 -1.27021 1.48745 0
M  V30 14053 C 1365.94 -2.10045 0.210772 0
M  V30 14054 O 1365.29 -2.13773 -0.807061 0
M  V30 14055 C 1365.5 -2.13367 2.76181 0
M  V30 14056 C 1366.85 -2.72815 3.25357 0
M  V30 14057 O 1367.87 -2.23639 2.77243 0
M  V30 14058 O 1366.73 -3.62316 4.09133 0
M  V30 14059 H 1363.83 -0.574387 0.594986 0
M  V30 14060 H 1366.37 -0.523798 1.61414 0
M  V30 14061 H 1365.14 -1.51941 3.60596 0
M  V30 14062 H 1364.77 -2.95215 2.66334 0
M  V30 14063 N 1365.76 -1.381 -0.759346 0
M  V30 14064 C 1367.01 -1.33992 -1.5183 0
M  V30 14065 C 1367.34 0.0718172 -1.94367 0
M  V30 14066 O 1366.59 1.0477 -1.65293 0
M  V30 14067 C 1366.89 -2.23636 -2.78786 0
M  V30 14068 C 1366.56 -3.71703 -2.5524 0
M  V30 14069 C 1365.22 -4.12053 -2.48528 0
M  V30 14070 C 1367.57 -4.65455 -2.34523 0
M  V30 14071 C 1364.9 -5.44252 -2.19105 0
M  V30 14072 C 1367.25 -5.97905 -2.06622 0
M  V30 14073 C 1365.92 -6.37345 -1.98362 0
M  V30 14074 H 1365.19 -0.490311 -0.555587 0
M  V30 14075 H 1367.83 -1.70411 -0.873637 0
M  V30 14076 H 1366.14 -1.80253 -3.47874 0
M  V30 14077 H 1367.84 -2.17764 -3.36719 0
M  V30 14078 H 1364.43 -3.3971 -2.61333 0
M  V30 14079 H 1368.61 -4.35132 -2.38691 0
M  V30 14080 H 1363.87 -5.73758 -2.11214 0
M  V30 14081 H 1368.04 -6.70095 -1.89594 0
M  V30 14082 H 1365.67 -7.39706 -1.75328 0
M  V30 14083 N 1367.24 0.986894 -1.22875 0
M  V30 14084 C 1368.66 1.25185 -0.989997 0
M  V30 14085 C 1368.86 1.99057 0.31282 0
M  V30 14086 O 1367.91 2.30361 1.03392 0
M  V30 14087 C 1369.23 2.05775 -2.19265 0
M  V30 14088 C 1370.78 2.18938 -2.23686 0
M  V30 14089 C 1371.25 3.02917 -3.43519 0
M  V30 14090 N 1372.74 3.10503 -3.43718 0
M  V30 14091 C 1373.48 3.75789 -4.33094 0
M  V30 14092 N 1372.97 4.42952 -5.32696 0
M  V30 14093 N 1374.77 3.72611 -4.20854 0
M  V30 14094 H 1366.92 0.491816 -2.06628 0
M  V30 14095 H 1369.18 0.279856 -0.905751 0
M  V30 14096 H 1368.89 1.58864 -3.13776 0
M  V30 14097 H 1368.76 3.06529 -2.19818 0
M  V30 14098 H 1371.15 2.65061 -1.29718 0
M  V30 14099 H 1371.23 1.17595 -2.27168 0
M  V30 14100 H 1370.87 2.57493 -4.3779 0
M  V30 14101 H 1370.8 4.04415 -3.37277 0
M  V30 14102 H 1373.29 2.62709 -2.71647 0
M  V30 14103 H 1373.61 4.90527 -5.97162 0
M  V30 14104 H 1371.95 4.41681 -5.36603 0
M  V30 14105 H 1375.14 3.19305 -3.42289 0
M  V30 14106 H 1375.31 4.2321 -4.90711 0
M  V30 14107 N 1368.72 1.0394 1.18466 0
M  V30 14108 C 1369.68 0.633804 2.20262 0
M  V30 14109 C 1370.68 -0.308136 1.5782 0
M  V30 14110 O 1371.87 -0.0937087 1.73948 0
M  V30 14111 C 1369.01 -0.0709693 3.40826 0
M  V30 14112 H 1370.2 1.53463 2.57661 0
M  V30 14113 H 1367.75 0.831806 1.32328 0
M  V30 14114 H 1368.49 -0.985659 3.08958 0
M  V30 14115 H 1368.27 0.606023 3.87388 0
M  V30 14116 H 1369.76 -0.341298 4.16203 0
M  V30 14117 N 1370.2 -1.34667 0.818693 0
M  V30 14118 C 1371.15 -2.31501 0.225816 0
M  V30 14119 C 1372.14 -1.57205 -0.631112 0
M  V30 14120 O 1373.35 -1.72237 -0.522924 0
M  V30 14121 H 1369.72 -0.750039 0.0542747 0
M  V30 14122 H 1371.69 -2.79036 1.05743 0
M  V30 14123 C 1370.44 -3.42464 -0.60114 0
M  V30 14124 H 1369.76 -3.9977 0.0489207 0
M  V30 14125 H 1371.2 -4.12468 -0.982154 0
M  V30 14126 C 1369.66 -2.86551 -1.77173 0
M  V30 14127 O 1370.19 -2.81085 -2.86974 0
M  V30 14128 N 1368.4 -2.43432 -1.58712 0
M  V30 14129 H 1367.95 -2.48077 -0.693958 0
M  V30 14130 H 1367.9 -2.06371 -2.37188 0
M  V30 14131 N 1371.68 -0.573274 -1.46804 0
M  V30 14132 C 1372.61 0.153316 -2.32996 0
M  V30 14133 C 1373.59 0.893013 -1.44773 0
M  V30 14134 O 1374.77 0.870329 -1.73606 0
M  V30 14135 C 1371.9 1.1736 -3.2687 0
M  V30 14136 C 1370.86 0.549347 -4.2446 0
M  V30 14137 C 1370.18 1.67542 -5.07773 0
M  V30 14138 C 1371.48 -0.50736 -5.1983 0
M  V30 14139 H 1373.18 -0.566305 -2.93995 0
M  V30 14140 H 1370.72 -0.273785 -1.41373 0
M  V30 14141 H 1372.68 1.6902 -3.86019 0
M  V30 14142 H 1371.4 1.92337 -2.63958 0
M  V30 14143 H 1370.06 0.0539142 -3.6656 0
M  V30 14144 H 1369.71 2.41463 -4.41253 0
M  V30 14145 H 1369.41 1.26343 -5.73856 0
M  V30 14146 H 1370.93 2.19496 -5.69784 0
M  V30 14147 H 1372.34 -0.0762061 -5.73249 0
M  V30 14148 H 1370.74 -0.839139 -5.94204 0
M  V30 14149 H 1371.81 -1.39723 -4.64333 0
M  V30 14150 N 1373.15 1.5451 -0.310553 0
M  V30 14151 C 1374.09 2.2134 0.595098 0
M  V30 14152 C 1375.1 1.20917 1.09009 0
M  V30 14153 O 1376.29 1.47458 1.0059 0
M  V30 14154 C 1373.39 2.85384 1.82782 0
M  V30 14155 C 1372.56 4.11826 1.47372 0
M  V30 14156 C 1371.62 4.59584 2.56259 0
M  V30 14157 O 1370.65 5.24567 2.20949 0
M  V30 14158 N 1371.85 4.32709 3.86967 0
M  V30 14159 H 1374.61 2.99691 0.0229291 0
M  V30 14160 H 1372.17 1.61351 -0.133173 0
M  V30 14161 H 1374.17 3.14263 2.54992 0
M  V30 14162 H 1372.74 2.10816 2.30815 0
M  V30 14163 H 1371.96 3.89853 0.583826 0
M  V30 14164 H 1373.24 4.94138 1.21265 0
M  V30 14165 H 1372.64 3.80669 4.18458 0
M  V30 14166 H 1371.2 4.66275 4.55446 0
M  V30 14167 N 1374.63 0.0384594 1.57553 0
M  V30 14168 C 1376.05 -0.318006 1.564 0
M  V30 14169 C 1376.25 -1.72287 1.04496 0
M  V30 14170 O 1375.31 -2.42722 0.695861 0
M  V30 14171 C 1376.62 -0.158079 3.00284 0
M  V30 14172 C 1378.17 -0.230143 3.12153 0
M  V30 14173 C 1378.64 -0.0988948 4.57893 0
M  V30 14174 N 1380.13 -0.15558 4.62939 0
M  V30 14175 C 1380.87 -0.077948 5.73347 0
M  V30 14176 N 1380.36 0.0513054 6.92781 0
M  V30 14177 N 1382.16 -0.132612 5.61944 0
M  V30 14178 H 1374.31 0.957014 1.89618 0
M  V30 14179 H 1376.57 0.370396 0.872646 0
M  V30 14180 H 1376.28 0.810032 3.42245 0
M  V30 14181 H 1376.15 -0.924413 3.65697 0
M  V30 14182 H 1378.54 -1.18872 2.70099 0
M  V30 14183 H 1378.62 0.56673 2.49443 0
M  V30 14184 H 1378.26 0.856301 5.00629 0
M  V30 14185 H 1378.19 -0.91475 5.18594 0
M  V30 14186 H 1380.68 -0.255245 3.77037 0
M  V30 14187 H 1381 0.103595 7.72731 0
M  V30 14188 H 1379.34 0.0862166 6.94947 0
M  V30 14189 H 1382.53 -0.232056 4.67524 0
M  V30 14190 H 1382.71 -0.0686506 6.47964 0
M  V30 14191 N 1376.11 -1.55841 -0.234795 0
M  V30 14192 C 1377.04 -1.87793 -1.31402 0
M  V30 14193 C 1378.06 -0.765113 -1.43701 0
M  V30 14194 O 1379.25 -1.04332 -1.44834 0
M  V30 14195 C 1376.35 -2.05976 -2.69123 0
M  V30 14196 C 1375.52 -3.36914 -2.7894 0
M  V30 14197 C 1374.58 -3.44691 -3.97586 0
M  V30 14198 O 1373.6 -4.17818 -3.86545 0
M  V30 14199 N 1374.81 -2.74866 -5.11301 0
M  V30 14200 H 1377.57 -2.80957 -1.04324 0
M  V30 14201 H 1375.13 -1.56226 -0.424872 0
M  V30 14202 H 1377.12 -2.08507 -3.46853 0
M  V30 14203 H 1375.69 -1.195 -2.88857 0
M  V30 14204 H 1374.91 -3.46595 -1.87791 0
M  V30 14205 H 1376.2 -4.23196 -2.82458 0
M  V30 14206 H 1375.6 -2.15208 -5.23165 0
M  V30 14207 H 1374.16 -2.83075 -5.87122 0
M  V30 14208 N 1377.59 0.500963 -1.49426 0
M  V30 14209 C 1378.84 1.25694 -1.5915 0
M  V30 14210 C 1379.17 1.92209 -0.277365 0
M  V30 14211 O 1378.44 1.8072 0.719065 0
M  V30 14212 C 1378.73 2.32391 -2.75076 0
M  V30 14213 C 1378.58 1.70377 -4.16283 0
M  V30 14214 C 1379.9 3.33952 -2.86643 0
M  V30 14215 H 1377.02 0.455631 -0.579283 0
M  V30 14216 H 1379.66 0.555099 -1.8171 0
M  V30 14217 H 1377.81 2.92252 -2.55971 0
M  V30 14218 H 1379.48 1.14343 -4.46904 0
M  V30 14219 H 1377.72 1.00789 -4.21929 0
M  V30 14220 H 1378.4 2.47767 -4.9327 0
M  V30 14221 H 1380.87 2.84081 -3.04035 0
M  V30 14222 H 1379.75 4.05969 -3.69433 0
M  V30 14223 H 1380.01 3.96279 -1.95998 0
M  V30 14224 N 1379.07 1.38501 0.752011 0
M  V30 14225 C 1380.01 1.35857 1.86578 0
M  V30 14226 C 1380.98 0.220873 1.64625 0
M  V30 14227 O 1382.17 0.413348 1.86269 0
M  V30 14228 C 1379.31 1.19102 3.23896 0
M  V30 14229 C 1378.42 2.42272 3.5767 0
M  V30 14230 C 1377.56 2.18236 4.843 0
M  V30 14231 C 1376.6 3.37169 5.10865 0
M  V30 14232 N 1375.73 3.12558 6.28691 0
M  V30 14233 H 1380.57 2.31073 1.88173 0
M  V30 14234 H 1378.11 1.14803 0.919712 0
M  V30 14235 H 1380.07 1.07404 4.03138 0
M  V30 14236 H 1378.7 0.275243 3.21624 0
M  V30 14237 H 1377.75 2.64638 2.7326 0
M  V30 14238 H 1379.06 3.3091 3.73229 0
M  V30 14239 H 1378.22 2.03682 5.71488 0
M  V30 14240 H 1376.96 1.26966 4.70883 0
M  V30 14241 H 1375.96 3.52241 4.22145 0
M  V30 14242 H 1377.19 4.29317 5.26178 0
M  V30 14243 H 1375.13 2.23937 6.16594 0
M  V30 14244 H 1375.05 3.94746 6.44757 0
M  V30 14245 H 1376.32 3.01663 7.18763 0
M  V30 14246 N 1380.55 -0.980364 1.23396 0
M  V30 14247 C 1381.96 -1.53622 1.061 0
M  V30 14248 C 1382.31 -1.92648 -0.371645 0
M  V30 14249 O 1381.43 -1.76051 -1.25837 0
M  V30 14250 C 1382.03 -2.79159 1.91979 0
M  V30 14251 C 1380.59 -3.31144 1.78943 0
M  V30 14252 C 1379.73 -2.04135 1.87681 0
M  V30 14253 H 1382.68 -0.800047 1.37058 0
M  V30 14254 H 1382.71 -3.52011 1.4446 0
M  V30 14255 H 1382.22 -2.50723 2.96242 0
M  V30 14256 H 1380.32 -3.64459 0.774634 0
M  V30 14257 H 1380.43 -4.009 2.62329 0
M  V30 14258 H 1378.8 -2.18271 1.31262 0
M  V30 14259 H 1379.58 -1.78081 2.93499 0
M  V30 14260 N 1382.02 -1.04567 -1.17913 0
M  V30 14261 C 1382.97 -0.641119 -2.21717 0
M  V30 14262 C 1383.94 0.353585 -1.62293 0
M  V30 14263 O 1385.13 0.246427 -1.89202 0
M  V30 14264 C 1382.27 -0.0154726 -3.45097 0
M  V30 14265 C 1381.38 -1.05825 -4.18838 0
M  V30 14266 C 1380.51 -0.400588 -5.29687 0
M  V30 14267 C 1379.55 -1.42811 -5.95207 0
M  V30 14268 N 1378.69 -0.795059 -6.97584 0
M  V30 14269 H 1383.53 -1.5308 -2.55676 0
M  V30 14270 H 1381.07 -0.765715 -1.25599 0
M  V30 14271 H 1383.02 0.364653 -4.15603 0
M  V30 14272 H 1381.65 0.837704 -3.11741 0
M  V30 14273 H 1380.71 -1.55627 -3.47109 0
M  V30 14274 H 1382.02 -1.83849 -4.63682 0
M  V30 14275 H 1381.17 0.0334682 -6.06691 0
M  V30 14276 H 1379.91 0.411696 -4.85959 0
M  V30 14277 H 1378.92 -1.87225 -5.1694 0
M  V30 14278 H 1380.14 -2.24218 -6.41017 0
M  V30 14279 H 1378.09 -0.00317202 -6.56 0
M  V30 14280 H 1378 -1.51293 -7.40707 0
M  V30 14281 H 1379.27 -0.385567 -7.78546 0
M  V30 14282 N 1383.5 1.34231 -0.825823 0
M  V30 14283 C 1384.73 2.02417 -0.428348 0
M  V30 14284 C 1385.14 1.62181 0.966573 0
M  V30 14285 O 1384.5 0.828691 1.62601 0
M  V30 14286 C 1384.55 3.57678 -0.524271 0
M  V30 14287 O 1384.27 3.96458 -1.86422 0
M  V30 14288 C 1385.77 4.43132 -0.122069 0
M  V30 14289 H 1382.99 0.648699 -0.171554 0
M  V30 14290 H 1385.54 1.71443 -1.11478 0
M  V30 14291 H 1383.69 3.87232 0.114112 0
M  V30 14292 H 1384.11 4.91147 -1.84051 0
M  V30 14293 H 1385.58 5.51477 -0.240264 0
M  V30 14294 H 1386.06 4.29139 0.934705 0
M  V30 14295 H 1386.66 4.18912 -0.734366 0
M  V30 14296 N 1384.98 0.581051 1.46498 0
M  V30 14297 C 1386.23 0.0660934 2.02692 0
M  V30 14298 C 1386.56 -1.28985 1.45178 0
M  V30 14299 O 1385.83 -1.84479 0.616247 0
M  V30 14300 C 1386.12 -0.00145411 3.601 0
M  V30 14301 C 1385.97 1.38327 4.28002 0
M  V30 14302 C 1387.29 -0.702914 4.3445 0
M  V30 14303 H 1384.41 0.0254923 0.736559 0
M  V30 14304 H 1387.05 0.74793 1.7466 0
M  V30 14305 H 1385.2 -0.582118 3.84114 0
M  V30 14306 H 1386.87 2.00897 4.15257 0
M  V30 14307 H 1385.11 1.95144 3.87429 0
M  V30 14308 H 1385.79 1.28849 5.36751 0
M  V30 14309 H 1388.26 -0.209641 4.15572 0
M  V30 14310 H 1387.14 -0.719202 5.44168 0
M  V30 14311 H 1387.4 -1.76389 4.05388 0
M  V30 14312 N 1386.46 -1.54343 0.318742 0
M  V30 14313 C 1387.68 -2.05361 -0.290126 0
M  V30 14314 C 1388.11 -1.19362 -1.45376 0
M  V30 14315 O 1387.47 -0.201639 -1.80175 0
M  V30 14316 C 1387.51 -3.53601 -0.707025 0
M  V30 14317 O 1386.62 -3.70561 -1.80992 0
M  V30 14318 H 1385.96 -0.661858 -0.0532933 0
M  V30 14319 H 1388.49 -1.99228 0.46575 0
M  V30 14320 H 1388.5 -3.95782 -0.991005 0
M  V30 14321 H 1387.17 -4.1565 0.144091 0
M  V30 14322 H 1385.75 -3.40286 -1.52513 0
M  V30 14323 N 1387.94 -0.0468143 -1.5753 0
M  V30 14324 C 1388.85 0.944362 -2.14753 0
M  V30 14325 C 1389.86 1.34473 -1.10422 0
M  V30 14326 O 1391.04 1.42254 -1.42569 0
M  V30 14327 C 1388.1 2.2023 -2.67768 0
M  V30 14328 C 1387.16 1.8607 -3.8688 0
M  V30 14329 C 1386.4 3.05867 -4.37357 0
M  V30 14330 O 1386.62 4.19099 -3.86927 0
M  V30 14331 O 1385.55 2.87134 -5.28997 0
M  V30 14332 H 1389.38 0.48772 -2.99758 0
M  V30 14333 H 1386.96 0.174831 -1.48374 0
M  V30 14334 H 1388.85 2.94044 -3.01855 0
M  V30 14335 H 1387.52 2.65041 -1.85836 0
M  V30 14336 H 1386.43 1.09586 -3.5769 0
M  V30 14337 H 1387.76 1.46062 -4.70028 0
M  V30 14338 N 1389.41 1.55964 0.226527 0
M  V30 14339 C 1390.32 1.95169 1.30178 0
M  V30 14340 C 1391.34 0.854831 1.51554 0
M  V30 14341 O 1392.52 1.15798 1.64781 0
M  V30 14342 C 1389.58 2.25612 2.63249 0
M  V30 14343 C 1388.64 3.4884 2.50219 0
M  V30 14344 C 1387.88 3.77822 3.76944 0
M  V30 14345 O 1388.1 3.08556 4.79739 0
M  V30 14346 O 1387.03 4.7132 3.74354 0
M  V30 14347 H 1390.86 2.86794 0.999145 0
M  V30 14348 H 1388.44 1.43109 0.42898 0
M  V30 14349 H 1390.33 2.4641 3.41848 0
M  V30 14350 H 1389 1.37162 2.93203 0
M  V30 14351 H 1387.91 3.33326 1.69836 0
M  V30 14352 H 1389.24 4.37657 2.25205 0
M  V30 14353 N 1390.89 -0.493031 1.4969 0
M  V30 14354 C 1391.8 -1.61991 1.69694 0
M  V30 14355 C 1392.82 -1.64061 0.579641 0
M  V30 14356 O 1393.99 -1.82335 0.855323 0
M  V30 14357 C 1391.06 -2.98323 1.76648 0
M  V30 14358 C 1390.12 -3.06816 3.00271 0
M  V30 14359 C 1389.35 -4.36644 3.06883 0
M  V30 14360 O 1389.58 -5.25901 2.20872 0
M  V30 14361 O 1388.51 -4.50275 3.99419 0
M  V30 14362 H 1392.34 -1.48042 2.65174 0
M  V30 14363 H 1389.92 -0.670182 1.33525 0
M  V30 14364 H 1391.8 -3.79335 1.83529 0
M  V30 14365 H 1390.48 -3.12517 0.843482 0
M  V30 14366 H 1389.39 -2.24962 2.98903 0
M  V30 14367 H 1390.72 -2.97551 3.92077 0
M  V30 14368 N 1392.37 -1.38898 -0.744656 0
M  V30 14369 C 1393.79 -1.20291 -1.04892 0
M  V30 14370 C 1393.99 -0.0577705 -2.01417 0
M  V30 14371 O 1393.04 0.593638 -2.45422 0
M  V30 14372 C 1394.36 -2.53302 -1.62045 0
M  V30 14373 C 1395.9 -2.60063 -1.74173 0
M  V30 14374 C 1396.38 -3.93272 -2.34736 0
M  V30 14375 N 1397.87 -3.9486 -2.42157 0
M  V30 14376 C 1398.6 -4.94698 -2.89933 0
M  V30 14377 N 1398.1 -6.04934 -3.37678 0
M  V30 14378 N 1399.89 -4.82083 -2.89055 0
M  V30 14379 H 1392.04 -2.12144 -0.104294 0
M  V30 14380 H 1394.31 -0.941725 -0.108895 0
M  V30 14381 H 1394.01 -3.376 -0.985868 0
M  V30 14382 H 1393.89 -2.72335 -2.60986 0
M  V30 14383 H 1396.27 -1.76155 -2.36756 0
M  V30 14384 H 1396.36 -2.44889 -0.739115 0
M  V30 14385 H 1396 -4.77607 -1.72784 0
M  V30 14386 H 1395.93 -4.05762 -3.35656 0
M  V30 14387 H 1398.42 -3.15243 -2.08399 0
M  V30 14388 H 1398.73 -6.77036 -3.72616 0
M  V30 14389 H 1397.08 -6.08541 -3.35712 0
M  V30 14390 H 1400.27 -3.9507 -2.51072 0
M  V30 14391 H 1400.44 -5.60039 -3.25975 0
M  V30 14392 N 1393.85 0.973806 -1.23914 0
M  V30 14393 C 1394.8 2.06734 -1.02614 0
M  V30 14394 C 1395.77 1.65997 0.0585705 0
M  V30 14395 O 1396.95 1.90564 -0.0948467 0
M  V30 14396 C 1394.09 3.39292 -0.630493 0
M  V30 14397 C 1393.2 3.9326 -1.78803 0
M  V30 14398 C 1392.34 5.14059 -1.33854 0
M  V30 14399 C 1391.38 5.60209 -2.46642 0
M  V30 14400 N 1390.51 6.72232 -2.02603 0
M  V30 14401 H 1395.35 2.24287 -1.96212 0
M  V30 14402 H 1392.89 1.09935 -0.977376 0
M  V30 14403 H 1394.85 4.15446 -0.382163 0
M  V30 14404 H 1393.48 3.21682 0.268483 0
M  V30 14405 H 1392.53 3.13801 -2.15019 0
M  V30 14406 H 1393.84 4.23475 -2.63573 0
M  V30 14407 H 1393 5.97567 -1.04873 0
M  V30 14408 H 1391.74 4.85513 -0.46131 0
M  V30 14409 H 1390.74 4.75278 -2.7639 0
M  V30 14410 H 1391.97 5.90771 -3.34912 0
M  V30 14411 H 1389.91 6.45433 -1.17269 0
M  V30 14412 H 1389.83 7.01865 -2.80929 0
M  V30 14413 H 1391.1 7.59198 -1.76745 0
M  V30 14414 N 1395.33 1.05191 1.17357 0
M  V30 14415 C 1396.57 0.763113 1.87895 0
M  V30 14416 C 1396.91 -0.708071 1.80831 0
M  V30 14417 O 1396.18 -1.51777 1.21631 0
M  V30 14418 C 1396.46 1.2442 3.37923 0
M  V30 14419 C 1396.32 2.77832 3.53737 0
M  V30 14420 C 1397.64 0.843209 4.31947 0
M  V30 14421 H 1394.75 0.27869 0.682276 0
M  V30 14422 H 1397.4 1.3059 1.38008 0
M  V30 14423 H 1395.55 0.782438 3.80539 0
M  V30 14424 H 1397.22 3.32131 3.20135 0
M  V30 14425 H 1395.46 3.17108 2.96015 0
M  V30 14426 H 1396.13 3.06555 4.59052 0
M  V30 14427 H 1398.61 1.24073 3.97171 0
M  V30 14428 H 1397.48 1.20743 5.35455 0
M  V30 14429 H 1397.75 -0.252802 4.41377 0
M  V30 14430 N 1396.8 -1.33791 0.83293 0
M  V30 14431 C 1397.75 -2.26795 0.234069 0
M  V30 14432 C 1398.74 -1.48991 -0.60749 0
M  V30 14433 O 1399.93 -1.70907 -0.46043 0
M  V30 14434 C 1397.06 -3.38107 -0.594863 0
M  V30 14435 C 1396.15 -4.23315 0.257877 0
M  V30 14436 N 1396.54 -4.87899 1.33373 0
M  V30 14437 C 1394.83 -4.45978 0.0438997 0
M  V30 14438 C 1395.54 -5.51278 1.85655 0
M  V30 14439 N 1394.51 -5.31103 1.15892 0
M  V30 14440 H 1398.31 -2.7424 1.05688 0
M  V30 14441 H 1395.83 -1.47627 0.676767 0
M  V30 14442 H 1397.82 -4.03716 -1.04014 0
M  V30 14443 H 1396.48 -2.92212 -1.41571 0
M  V30 14444 H 1397.5 -4.88624 1.71659 0
M  V30 14445 H 1394.17 -4.10818 -0.743985 0
M  V30 14446 H 1395.56 -6.12723 2.75717 0
M  V30 14447 N 1398.28 -0.588812 -1.46187 0
M  V30 14448 C 1399.51 -0.0806571 -2.07243 0
M  V30 14449 C 1399.93 1.21766 -1.43369 0
M  V30 14450 O 1399.29 1.73694 -0.51964 0
M  V30 14451 C 1399.34 0.065267 -3.60541 0
M  V30 14452 O 1398.44 1.12026 -3.96893 0
M  V30 14453 H 1397.78 -0.0655622 -0.660755 0
M  V30 14454 H 1400.31 -0.813489 -1.87733 0
M  V30 14455 H 1400.32 0.269494 -4.07109 0
M  V30 14456 H 1399 -0.88284 -4.06422 0
M  V30 14457 H 1397.58 0.894 -3.62025 0
M  V30 14458 N 1399.76 1.54172 -0.326923 0
M  V30 14459 C 1401.17 1.86009 0.160446 0
M  V30 14460 C 1401.52 1.24851 1.51349 0
M  V30 14461 O 1400.65 0.555804 2.09141 0
M  V30 14462 C 1401.24 3.37488 0.297909 0
M  V30 14463 C 1399.8 3.69263 0.7295 0
M  V30 14464 C 1398.95 2.76911 -0.146778 0
M  V30 14465 H 1401.9 1.48972 -0.547093 0
M  V30 14466 H 1401.92 3.63388 1.12825 0
M  V30 14467 H 1401.43 3.81971 -0.687007 0
M  V30 14468 H 1399.53 3.30314 1.72404 0
M  V30 14469 H 1399.65 4.76149 0.53092 0
M  V30 14470 H 1398.01 2.51876 0.378212 0
M  V30 14471 H 1398.79 3.24221 -1.12852 0
M  V30 14472 N 1401.24 0.0551678 1.57503 0
M  V30 14473 C 1402.17 -0.947102 2.08717 0
M  V30 14474 C 1403.18 -1.2722 1.01582 0
M  V30 14475 O 1404.37 -1.23229 1.29139 0
M  V30 14476 C 1401.47 -2.26756 2.51863 0
M  V30 14477 C 1400.65 -2.12378 3.8238 0
M  V30 14478 C 1399.7 -3.27582 4.11797 0
M  V30 14479 O 1398.73 -3.03309 4.81656 0
M  V30 14480 N 1399.93 -4.5218 3.64024 0
M  V30 14481 H 1402.7 -0.509957 2.9533 0
M  V30 14482 H 1400.26 -0.130976 1.61369 0
M  V30 14483 H 1402.25 -3.02701 2.68616 0
M  V30 14484 H 1400.82 -2.62024 1.70477 0
M  V30 14485 H 1400.04 -1.21 3.7517 0
M  V30 14486 H 1401.33 -2.00003 4.67842 0
M  V30 14487 H 1400.73 -4.7479 3.07556 0
M  V30 14488 H 1399.28 -5.25206 3.86008 0
M  V30 14489 N 1402.72 -1.56081 -0.218252 0
M  V30 14490 C 1403.65 -1.89176 -1.29403 0
M  V30 14491 C 1404.66 -0.780312 -1.42881 0
M  V30 14492 O 1405.85 -1.05863 -1.4372 0
M  V30 14493 C 1402.95 -2.08818 -2.66923 0
M  V30 14494 C 1402.12 -3.39854 -2.75351 0
M  V30 14495 C 1401.18 -3.48889 -3.93908 0
M  V30 14496 O 1400.21 -4.21894 -3.82091 0
M  V30 14497 N 1401.41 -2.80273 -5.08357 0
M  V30 14498 H 1404.18 -2.82047 -1.01338 0
M  V30 14499 H 1401.74 -1.56667 -0.408278 0
M  V30 14500 H 1403.73 -2.12175 -3.44622 0
M  V30 14501 H 1402.3 -1.22557 -2.87574 0
M  V30 14502 H 1401.52 -3.48568 -1.84104 0
M  V30 14503 H 1402.81 -4.26168 -2.77954 0
M  V30 14504 H 1402.2 -2.20744 -5.20854 0
M  V30 14505 H 1400.76 -2.89286 -5.84086 0
M  V30 14506 N 1404.2 0.485086 -1.49949 0
M  V30 14507 C 1405.44 1.23999 -1.60474 0
M  V30 14508 C 1405.77 1.91904 -0.297736 0
M  V30 14509 O 1405.05 1.81472 0.699857 0
M  V30 14510 C 1405.33 2.2946 -2.77525 0
M  V30 14511 C 1405.19 1.65952 -4.18067 0
M  V30 14512 C 1406.5 3.30893 -2.90169 0
M  V30 14513 H 1403.62 0.449462 -0.584083 0
M  V30 14514 H 1406.27 0.535795 -1.82289 0
M  V30 14515 H 1404.42 2.89521 -2.59056 0
M  V30 14516 H 1406.09 1.09596 -4.48092 0
M  V30 14517 H 1404.33 0.963079 -4.22974 0
M  V30 14518 H 1405 2.42521 -4.9587 0
M  V30 14519 H 1407.48 2.8084 -3.07031 0
M  V30 14520 H 1406.35 4.02027 -3.73718 0
M  V30 14521 H 1406.61 3.94178 -2.0019 0
M  V30 14522 N 1405.67 1.39291 0.737279 0
M  V30 14523 C 1406.95 1.26901 1.48847 0
M  V30 14524 C 1407.33 -0.122417 2.10745 0
M  V30 14525 O 1406.68 -1.13343 1.98408 0
M  V30 14526 C 1406.89 2.3916 2.54172 0
M  V30 14527 C 1408.24 2.78368 3.20619 0
M  V30 14528 O 1409.26 2.38593 2.64484 0
M  V30 14529 O 1408.12 3.47014 4.22189 0
M  V30 14530 H 1405.21 0.497176 0.660867 0
M  V30 14531 H 1407.76 1.51159 0.771299 0
M  V30 14532 H 1406.53 3.3219 2.06797 0
M  V30 14533 H 1406.15 2.16555 3.33451 0
M  V30 14534 N 1407.15 -0.967221 1.24429 0
M  V30 14535 C 1408.4 -1.71026 1.08427 0
M  V30 14536 C 1408.73 -1.90815 -0.376812 0
M  V30 14537 O 1407.98 -1.46745 -1.29477 0
M  V30 14538 C 1408.28 -3.10507 1.76975 0
M  V30 14539 C 1407.95 -3.10557 3.26902 0
M  V30 14540 C 1406.61 -3.10278 3.67806 0
M  V30 14541 C 1408.96 -3.04852 4.22746 0
M  V30 14542 C 1406.29 -3.02027 5.02988 0
M  V30 14543 C 1408.64 -2.98143 5.57937 0
M  V30 14544 C 1407.3 -2.96193 5.98185 0
M  V30 14545 H 1406.57 -0.625827 0.396764 0
M  V30 14546 H 1409.22 -1.13094 1.54538 0
M  V30 14547 H 1407.53 -3.71906 1.2326 0
M  V30 14548 H 1409.22 -3.66794 1.62058 0
M  V30 14549 H 1405.81 -3.11539 2.94349 0
M  V30 14550 H 1410 -3.04197 3.92145 0
M  V30 14551 H 1405.25 -2.98878 5.33368 0
M  V30 14552 H 1409.43 -2.92688 6.31907 0
M  V30 14553 H 1407.05 -2.89555 7.02895 0
M  V30 14554 N 1408.63 -1.05812 -1.16797 0
M  V30 14555 C 1410.05 -0.780649 -1.39205 0
M  V30 14556 C 1410.25 0.622191 -1.91653 0
M  V30 14557 O 1409.3 1.38357 -2.11219 0
M  V30 14558 C 1410.61 -1.84148 -2.37718 0
M  V30 14559 C 1412.16 -1.86442 -2.51413 0
M  V30 14560 C 1412.64 -2.91566 -3.53204 0
M  V30 14561 N 1414.13 -2.90568 -3.60727 0
M  V30 14562 C 1414.86 -3.68556 -4.39265 0
M  V30 14563 N 1414.36 -4.56348 -5.21266 0
M  V30 14564 N 1416.15 -3.56969 -4.342 0
M  V30 14565 H 1408.3 -1.96313 -0.810871 0
M  V30 14566 H 1410.57 -0.850421 -0.418913 0
M  V30 14567 H 1410.27 -2.84864 -2.06265 0
M  V30 14568 H 1410.15 -1.68838 -3.37303 0
M  V30 14569 H 1412.53 -0.863873 -2.82172 0
M  V30 14570 H 1412.61 -2.0583 -1.5188 0
M  V30 14571 H 1412.26 -3.91811 -3.23182 0
M  V30 14572 H 1412.19 -2.69429 -4.52455 0
M  V30 14573 H 1414.68 -2.26918 -3.02186 0
M  V30 14574 H 1414.99 -5.12523 -5.78394 0
M  V30 14575 H 1413.34 -4.60406 -5.20626 0
M  V30 14576 H 1416.53 -2.87772 -3.69195 0
M  V30 14577 H 1416.7 -4.17993 -4.95162 0
M  V30 14578 N 1410.11 1.33347 -0.840014 0
M  V30 14579 C 1411.33 2.02485 -0.448856 0
M  V30 14580 C 1411.76 1.62781 0.942543 0
M  V30 14581 O 1411.12 0.82099 1.61646 0
M  V30 14582 C 1411.16 3.55928 -0.578582 0
M  V30 14583 O 1410.27 4.10507 0.394695 0
M  V30 14584 H 1409.61 0.63848 -0.182317 0
M  V30 14585 H 1412.14 1.70221 -1.13516 0
M  V30 14586 H 1412.15 4.05391 -0.460653 0
M  V30 14587 H 1410.82 3.8417 -1.5933 0
M  V30 14588 H 1409.4 3.72164 0.234227 0
M  V30 14589 N 1411.59 0.596556 1.45873 0
M  V30 14590 C 1412.83 0.0875879 2.02611 0
M  V30 14591 C 1413.16 -1.27438 1.46538 0
M  V30 14592 O 1412.44 -1.83815 0.635779 0
M  V30 14593 C 1412.72 0.0367394 3.60081 0
M  V30 14594 C 1412.58 1.42859 4.26511 0
M  V30 14595 C 1413.89 -0.656795 4.35171 0
M  V30 14596 H 1411.01 0.0333031 0.736247 0
M  V30 14597 H 1413.66 0.766413 1.73857 0
M  V30 14598 H 1411.81 -0.541345 3.8471 0
M  V30 14599 H 1413.48 2.0529 4.13102 0
M  V30 14600 H 1411.72 1.99243 3.85337 0
M  V30 14601 H 1412.39 1.34535 5.35354 0
M  V30 14602 H 1414.87 -0.165553 4.15771 0
M  V30 14603 H 1413.74 -0.661445 5.449 0
M  V30 14604 H 1414 -1.72079 4.07236 0
M  V30 14605 N 1413.06 -1.53996 0.335095 0
M  V30 14606 C 1413.99 -2.2768 -0.518087 0
M  V30 14607 C 1414.97 -1.28915 -1.10972 0
M  V30 14608 O 1416.16 -1.57745 -1.1327 0
M  V30 14609 C 1413.29 -3.04327 -1.67339 0
M  V30 14610 C 1412.24 -4.10525 -1.2105 0
M  V30 14611 C 1411.57 -4.75078 -2.45366 0
M  V30 14612 C 1412.87 -5.21337 -0.317055 0
M  V30 14613 H 1414.56 -2.99244 0.0965669 0
M  V30 14614 H 1412.11 -1.4392 0.0478842 0
M  V30 14615 H 1414.06 -3.54608 -2.27664 0
M  V30 14616 H 1412.79 -2.30399 -2.31481 0
M  V30 14617 H 1411.45 -3.61144 -0.630124 0
M  V30 14618 H 1411.09 -3.97754 -3.07897 0
M  V30 14619 H 1410.79 -5.46822 -2.1508 0
M  V30 14620 H 1412.32 -5.2814 -3.06432 0
M  V30 14621 H 1413.73 -5.67305 -0.826905 0
M  V30 14622 H 1412.13 -6.00006 -0.106458 0
M  V30 14623 H 1413.2 -4.80536 0.649068 0
M  V30 14624 N 1414.54 -0.0635198 -1.57472 0
M  V30 14625 C 1415.5 0.891881 -2.11135 0
M  V30 14626 C 1416.5 1.23182 -1.03358 0
M  V30 14627 O 1417.69 1.16646 -1.2938 0
M  V30 14628 C 1414.83 2.19792 -2.60584 0
M  V30 14629 H 1416.02 0.426461 -2.96852 0
M  V30 14630 H 1413.57 0.185069 -1.552 0
M  V30 14631 H 1414.31 2.70889 -1.78297 0
M  V30 14632 H 1414.09 1.96419 -3.39355 0
M  V30 14633 H 1415.58 2.88203 -3.02206 0
M  V30 14634 N 1416.02 1.56195 0.209972 0
M  V30 14635 C 1416.97 1.93355 1.26026 0
M  V30 14636 C 1417.94 0.792195 1.45991 0
M  V30 14637 O 1419.12 1.04909 1.5937 0
M  V30 14638 C 1416.26 2.26558 2.60318 0
M  V30 14639 C 1415.37 3.53685 2.48055 0
M  V30 14640 C 1414.51 3.76279 3.7495 0
M  V30 14641 C 1413.55 4.96881 3.57457 0
M  V30 14642 N 1412.69 5.15806 4.76328 0
M  V30 14643 H 1417.53 2.82907 0.936357 0
M  V30 14644 H 1415.06 1.40015 0.451022 0
M  V30 14645 H 1417.02 2.43821 3.38537 0
M  V30 14646 H 1415.65 1.40165 2.90781 0
M  V30 14647 H 1414.7 3.44551 1.61211 0
M  V30 14648 H 1416.01 4.42057 2.31056 0
M  V30 14649 H 1415.17 3.93702 4.6161 0
M  V30 14650 H 1413.91 2.86209 3.94887 0
M  V30 14651 H 1412.91 4.79397 2.69181 0
M  V30 14652 H 1414.14 5.88447 3.38979 0
M  V30 14653 H 1412.08 4.28681 4.96557 0
M  V30 14654 H 1412 5.98332 4.62099 0
M  V30 14655 H 1413.27 5.37674 5.64382 0
M  V30 14656 N 1417.5 -0.477127 1.50204 0
M  V30 14657 C 1418.44 -1.57587 1.68626 0
M  V30 14658 C 1419.41 -1.57499 0.527576 0
M  V30 14659 O 1420.6 -1.75121 0.757438 0
M  V30 14660 C 1417.74 -2.956 1.78086 0
M  V30 14661 C 1416.85 -3.05523 3.05417 0
M  V30 14662 C 1415.99 -4.34414 3.05709 0
M  V30 14663 C 1415.03 -4.38057 4.27519 0
M  V30 14664 N 1414.16 -5.5841 4.25585 0
M  V30 14665 H 1419 -1.41185 2.62433 0
M  V30 14666 H 1416.54 -0.686537 1.30096 0
M  V30 14667 H 1418.5 -3.75626 1.81552 0
M  V30 14668 H 1417.13 -3.10651 0.877251 0
M  V30 14669 H 1416.18 -2.18409 3.11451 0
M  V30 14670 H 1417.49 -3.04075 3.95398 0
M  V30 14671 H 1416.65 -5.22782 3.07871 0
M  V30 14672 H 1415.39 -4.38462 2.13548 0
M  V30 14673 H 1414.39 -3.48087 4.25577 0
M  V30 14674 H 1415.62 -4.35705 5.20901 0
M  V30 14675 H 1413.56 -5.63255 3.36274 0
M  V30 14676 H 1413.48 -5.58677 5.09328 0
M  V30 14677 H 1414.75 -6.4892 4.31884 0
M  V30 14678 N 1418.98 -1.3968 -0.729882 0
M  V30 14679 C 1420.22 -1.36911 -1.4866 0
M  V30 14680 C 1420.55 0.0326011 -1.94973 0
M  V30 14681 O 1419.82 0.984789 -1.69348 0
M  V30 14682 H 1418.4 -0.503848 -0.551495 0
M  V30 14683 H 1421.06 -1.74596 -0.866155 0
M  V30 14684 H 1420.15 -2.03504 -2.36628 0
M  V30 14685 N 1420.45 0.960609 -1.2494 0
M  V30 14686 C 1421.68 1.73928 -1.12057 0
M  V30 14687 C 1422.1 1.8596 0.32623 0
M  V30 14688 O 1421.45 1.35303 1.22472 0
M  V30 14689 C 1421.51 3.15614 -1.76267 0
M  V30 14690 O 1421.23 3.04177 -3.15291 0
M  V30 14691 C 1422.73 4.09786 -1.69086 0
M  V30 14692 H 1419.95 0.5452 -0.39115 0
M  V30 14693 H 1422.49 1.20556 -1.65186 0
M  V30 14694 H 1420.65 3.65949 -1.27123 0
M  V30 14695 H 1421.06 3.93513 -3.46768 0
M  V30 14696 H 1422.53 5.06835 -2.18683 0
M  V30 14697 H 1423.01 4.34312 -0.653453 0
M  V30 14698 H 1423.62 3.65365 -2.1769 0
M  V30 14699 N 1421.93 1.0643 1.16234 0
M  V30 14700 C 1423.16 0.802671 1.91238 0
M  V30 14701 C 1423.58 -0.637222 1.76978 0
M  V30 14702 O 1422.94 -1.44419 1.09603 0
M  V30 14703 C 1422.99 1.20389 3.3991 0
M  V30 14704 O 1422.09 0.343516 4.10967 0
M  V30 14705 H 1421.43 0.29323 0.595745 0
M  V30 14706 H 1423.96 1.42046 1.47255 0
M  V30 14707 H 1423.97 1.17604 3.90683 0
M  V30 14708 H 1422.65 2.2527 3.49608 0
M  V30 14709 H 1421.23 0.433051 3.70377 0
M  V30 14710 N 1423.41 -1.329 0.847073 0
M  V30 14711 C 1424.36 -2.29044 0.284199 0
M  V30 14712 C 1425.33 -1.54706 -0.604591 0
M  V30 14713 O 1426.51 -1.82966 -0.541116 0
M  V30 14714 C 1423.65 -3.4104 -0.527822 0
M  V30 14715 C 1422.77 -4.30273 0.385907 0
M  V30 14716 C 1421.9 -5.29391 -0.438009 0
M  V30 14717 C 1420.94 -6.10265 0.473596 0
M  V30 14718 N 1420.08 -7.01403 -0.312684 0
M  V30 14719 H 1424.92 -2.76582 1.10935 0
M  V30 14720 H 1422.45 -1.36085 0.558508 0
M  V30 14721 H 1424.41 -4.04686 -1.01417 0
M  V30 14722 H 1423.04 -2.94673 -1.31787 0
M  V30 14723 H 1422.09 -3.67275 0.99061 0
M  V30 14724 H 1423.41 -4.86837 1.08585 0
M  V30 14725 H 1422.56 -5.98604 -0.987842 0
M  V30 14726 H 1421.3 -4.73424 -1.17135 0
M  V30 14727 H 1420.3 -5.39963 1.03537 0
M  V30 14728 H 1421.53 -6.68316 1.20543 0
M  V30 14729 H 1419.47 -6.47875 -1.02926 0
M  V30 14730 H 1419.39 -7.55286 0.328376 0
M  V30 14731 H 1420.66 -7.74912 -0.844489 0
M  V30 14732 N 1424.89 -0.604284 -1.45555 0
M  V30 14733 C 1426.12 -0.104452 -2.06636 0
M  V30 14734 C 1426.53 1.20976 -1.44949 0
M  V30 14735 O 1425.89 1.73616 -0.562468 0
M  V30 14736 C 1425.94 0.0451646 -3.61472 0
M  V30 14737 O 1425.66 -1.21705 -4.20856 0
M  V30 14738 C 1427.16 0.57684 -4.39531 0
M  V30 14739 H 1424.38 -0.067326 -0.667614 0
M  V30 14740 H 1426.93 -0.831079 -1.86851 0
M  V30 14741 H 1425.08 0.722104 -3.80611 0
M  V30 14742 H 1425.49 -1.04462 -5.13992 0
M  V30 14743 H 1426.97 0.630627 -5.48386 0
M  V30 14744 H 1427.45 1.59842 -4.09081 0
M  V30 14745 H 1428.05 -0.0659444 -4.25249 0
M  V30 14746 N 1426.37 1.53816 -0.343257 0
M  V30 14747 C 1427.78 1.86169 0.140709 0
M  V30 14748 C 1428.13 1.26449 1.50017 0
M  V30 14749 O 1427.25 0.577955 2.08539 0
M  V30 14750 C 1427.85 3.37785 0.262097 0
M  V30 14751 C 1426.41 3.70016 0.690294 0
M  V30 14752 C 1425.55 2.7674 -0.17614 0
M  V30 14753 H 1428.51 1.48383 -0.562863 0
M  V30 14754 H 1428.53 3.64564 1.08964 0
M  V30 14755 H 1428.04 3.81221 -0.727481 0
M  V30 14756 H 1426.14 3.32124 1.68891 0
M  V30 14757 H 1426.25 4.76686 0.480388 0
M  V30 14758 H 1424.62 2.52263 0.351476 0
M  V30 14759 H 1425.4 3.23006 -1.16285 0
M  V30 14760 N 1427.84 0.0718701 1.57436 0
M  V30 14761 C 1429.09 -0.598116 1.93779 0
M  V30 14762 C 1429.42 -1.69258 0.952131 0
M  V30 14763 O 1428.7 -1.94491 -0.0186426 0
M  V30 14764 C 1428.98 -1.17499 3.40391 0
M  V30 14765 C 1428.83 -0.0871719 4.49716 0
M  V30 14766 C 1430.15 -2.08047 3.8782 0
M  V30 14767 H 1427.27 -0.215954 0.704651 0
M  V30 14768 H 1429.91 0.137854 1.89499 0
M  V30 14769 H 1428.06 -1.80221 3.44169 0
M  V30 14770 H 1429.74 0.545906 4.58058 0
M  V30 14771 H 1427.98 0.582213 4.29875 0
M  V30 14772 H 1428.65 -0.531202 5.49438 0
M  V30 14773 H 1431.13 -1.5526 3.86049 0
M  V30 14774 H 1430 -2.45345 4.91016 0
M  V30 14775 H 1430.26 -2.98879 3.25766 0
M  V30 14776 N 1429.32 -1.56304 -0.201686 0
M  V30 14777 C 1430.73 -1.7022 -0.766953 0
M  V30 14778 C 1431.08 -0.677318 -1.84138 0
M  V30 14779 O 1430.21 0.167604 -2.1575 0
M  V30 14780 C 1430.8 -3.08615 -1.39795 0
M  V30 14781 C 1429.36 -3.24317 -1.91037 0
M  V30 14782 C 1428.51 -2.66167 -0.777853 0
M  V30 14783 H 1431.46 -1.58683 0.0232884 0
M  V30 14784 H 1431.48 -3.05578 -2.26721 0
M  V30 14785 H 1430.99 -3.83185 -0.615728 0
M  V30 14786 H 1429.1 -2.54652 -2.71999 0
M  V30 14787 H 1429.21 -4.31753 -2.07669 0
M  V30 14788 H 1427.57 -2.25169 -1.19042 0
M  V30 14789 H 1428.36 -3.43299 -0.00798179 0
M  V30 14790 N 1430.8 0.469154 -1.50455 0
M  V30 14791 C 1431.71 1.59271 -1.7225 0
M  V30 14792 C 1432.73 1.63119 -0.605668 0
M  V30 14793 O 1433.9 1.80952 -0.884222 0
M  V30 14794 C 1430.97 2.95475 -1.81372 0
M  V30 14795 C 1430.03 3.02 -3.05114 0
M  V30 14796 C 1429.26 4.31707 -3.13791 0
M  V30 14797 O 1429.48 5.2232 -2.29211 0
M  V30 14798 O 1428.42 4.43864 -4.06532 0
M  V30 14799 H 1432.24 1.43804 -2.67496 0
M  V30 14800 H 1429.83 0.648855 -1.34574 0
M  V30 14801 H 1431.71 3.76367 -1.89541 0
M  V30 14802 H 1430.39 3.11136 -0.893094 0
M  V30 14803 H 1429.29 2.20178 -3.02444 0
M  V30 14804 H 1430.63 2.91275 -3.96761 0
M  V30 14805 N 1432.28 1.40065 0.722464 0
M  V30 14806 C 1433.23 1.39784 1.83655 0
M  V30 14807 C 1434.2 0.255743 1.64119 0
M  V30 14808 O 1435.38 0.452766 1.8535 0
M  V30 14809 C 1432.52 1.25946 3.21297 0
M  V30 14810 C 1431.63 2.49805 3.52451 0
M  V30 14811 C 1430.77 2.2846 4.79562 0
M  V30 14812 C 1429.81 3.4793 5.03598 0
M  V30 14813 N 1428.94 3.25823 6.21919 0
M  V30 14814 H 1433.78 2.35013 1.83229 0
M  V30 14815 H 1431.32 1.16728 0.895154 0
M  V30 14816 H 1433.28 1.15931 4.00769 0
M  V30 14817 H 1431.91 0.343402 3.20968 0
M  V30 14818 H 1430.96 2.70375 2.67585 0
M  V30 14819 H 1432.27 3.38753 3.66126 0
M  V30 14820 H 1431.43 2.15758 5.67039 0
M  V30 14821 H 1430.17 1.36926 4.68084 0
M  V30 14822 H 1429.17 3.61116 4.14579 0
M  V30 14823 H 1430.4 4.40382 5.16953 0
M  V30 14824 H 1428.34 2.36965 6.11705 0
M  V30 14825 H 1428.26 4.08333 6.36239 0
M  V30 14826 H 1429.53 3.16841 7.12202 0
M  V30 14827 N 1433.76 -0.95397 1.25448 0
M  V30 14828 C 1435 -1.70118 1.10399 0
M  V30 14829 C 1435.34 -1.90945 -0.354093 0
M  V30 14830 O 1434.61 -1.48088 -1.26096 0
M  V30 14831 C 1434.89 -3.08371 1.85955 0
M  V30 14832 C 1434.75 -2.9495 3.39595 0
M  V30 14833 C 1436.07 -4.08273 1.64321 0
M  V30 14834 H 1433.19 -0.617424 0.402438 0
M  V30 14835 H 1435.83 -1.10884 1.54288 0
M  V30 14836 H 1433.98 -3.58936 1.48651 0
M  V30 14837 H 1435.65 -2.51705 3.86578 0
M  V30 14838 H 1433.89 -2.30853 3.67273 0
M  V30 14839 H 1434.56 -3.92952 3.87676 0
M  V30 14840 H 1437.04 -3.6662 1.96796 0
M  V30 14841 H 1435.92 -5.03048 2.19622 0
M  V30 14842 H 1436.18 -4.38217 0.584685 0
M  V30 14843 N 1435.24 -1.07045 -1.15668 0
M  V30 14844 C 1436.65 -0.814932 -1.67975 0
M  V30 14845 C 1437 0.660408 -1.84751 0
M  V30 14846 O 1436.12 1.51156 -1.54857 0
M  V30 14847 C 1436.72 -1.47274 -3.05116 0
M  V30 14848 C 1435.28 -1.26481 -3.54513 0
M  V30 14849 C 1434.42 -1.54439 -2.30312 0
M  V30 14850 H 1437.37 -1.23291 -0.999251 0
M  V30 14851 H 1437.4 -0.892244 -3.69891 0
M  V30 14852 H 1436.91 -2.54649 -2.92874 0
M  V30 14853 H 1435.01 -0.211138 -3.72001 0
M  V30 14854 H 1435.12 -1.98283 -4.36143 0
M  V30 14855 H 1433.49 -0.965269 -2.357 0
M  V30 14856 H 1434.27 -2.6299 -2.20661 0
M  V30 14857 N 1436.71 1.32449 -0.85411 0
M  V30 14858 C 1438.12 1.79545 -0.511923 0
M  V30 14859 C 1438.48 1.70534 0.970188 0
M  V30 14860 O 1437.6 1.2636 1.75676 0
M  V30 14861 C 1438.2 3.26 -0.922456 0
M  V30 14862 C 1436.75 3.71053 -0.632176 0
M  V30 14863 C 1435.9 2.53565 -1.12249 0
M  V30 14864 H 1438.85 1.19755 -1.04137 0
M  V30 14865 H 1438.87 3.79751 -0.238618 0
M  V30 14866 H 1438.39 3.32526 -2.00119 0
M  V30 14867 H 1436.49 3.70042 0.435862 0
M  V30 14868 H 1436.6 4.63878 -1.19809 0
M  V30 14869 H 1434.96 2.48849 -0.542781 0
M  V30 14870 H 1435.75 2.62846 -2.20832 0
M  V30 14871 N 1438.19 0.611994 1.45232 0
M  V30 14872 C 1439.6 0.193464 1.85695 0
M  V30 14873 C 1439.95 -1.25069 1.5117 0
M  V30 14874 O 1439.08 -1.94894 0.940497 0
M  V30 14875 C 1439.67 0.344334 3.37046 0
M  V30 14876 C 1438.23 -0.0195378 3.76395 0
M  V30 14877 C 1437.38 0.666714 2.69166 0
M  V30 14878 H 1440.33 0.818395 1.35971 0
M  V30 14879 H 1440.35 -0.422209 3.7815 0
M  V30 14880 H 1439.86 1.3955 3.62143 0
M  V30 14881 H 1437.96 -1.06971 3.56915 0
M  V30 14882 H 1438.08 0.377184 4.77613 0
M  V30 14883 H 1436.44 0.103912 2.54488 0
M  V30 14884 H 1437.22 1.7201 2.97099 0
M  V30 14885 N 1439.67 -1.53632 0.351409 0
M  V30 14886 C 1440.62 -2.25281 -0.501724 0
M  V30 14887 C 1441.59 -1.25406 -1.08915 0
M  V30 14888 O 1442.77 -1.54157 -1.1243 0
M  V30 14889 C 1439.91 -3.03491 -1.64278 0
M  V30 14890 C 1439.02 -4.18233 -1.0819 0
M  V30 14891 C 1438.16 -4.83914 -2.1909 0
M  V30 14892 C 1437.2 -5.90712 -1.60394 0
M  V30 14893 N 1436.34 -6.50141 -2.65068 0
M  V30 14894 H 1441.18 -2.97775 0.11579 0
M  V30 14895 H 1438.71 -1.46938 0.0689141 0
M  V30 14896 H 1440.67 -3.47101 -2.31467 0
M  V30 14897 H 1439.3 -2.33279 -2.23116 0
M  V30 14898 H 1438.35 -3.7921 -0.300713 0
M  V30 14899 H 1439.66 -4.95023 -0.612644 0
M  V30 14900 H 1438.82 -5.30635 -2.94128 0
M  V30 14901 H 1437.56 -4.06565 -2.69362 0
M  V30 14902 H 1436.56 -5.43366 -0.838646 0
M  V30 14903 H 1437.79 -6.69973 -1.10964 0
M  V30 14904 H 1435.73 -5.75652 -3.14581 0
M  V30 14905 H 1435.65 -7.22427 -2.22788 0
M  V30 14906 H 1436.92 -7.01513 -3.39852 0
M  V30 14907 N 1441.15 -0.0802183 -1.57396 0
M  V30 14908 C 1442.56 0.451183 -1.81166 0
M  V30 14909 C 1442.91 1.69112 -0.994764 0
M  V30 14910 O 1442.03 2.15281 -0.219739 0
M  V30 14911 C 1442.63 0.825324 -3.28594 0
M  V30 14912 C 1441.19 1.30154 -3.53181 0
M  V30 14913 C 1440.34 0.290846 -2.75771 0
M  V30 14914 H 1443.29 -0.305829 -1.55725 0
M  V30 14915 H 1443.31 1.68608 -3.41104 0
M  V30 14916 H 1442.82 -0.0773119 -3.88023 0
M  V30 14917 H 1440.92 2.22239 -2.99066 0
M  V30 14918 H 1441.03 1.27365 -4.6186 0
M  V30 14919 H 1439.4 0.769894 -2.42785 0
M  V30 14920 H 1440.18 -0.604209 -3.37941 0
M  V30 14921 N 1442.63 1.56409 0.193394 0
M  V30 14922 C 1443.59 1.93822 1.22334 0
M  V30 14923 C 1444.59 0.819513 1.3835 0
M  V30 14924 O 1445.78 1.0869 1.36132 0
M  V30 14925 C 1442.91 2.21375 2.59241 0
M  V30 14926 H 1444.1 2.85967 0.903502 0
M  V30 14927 H 1441.66 1.50125 0.43498 0
M  V30 14928 H 1442.39 1.31874 2.96277 0
M  V30 14929 H 1442.18 3.02899 2.48988 0
M  V30 14930 H 1443.67 2.51319 3.33509 0
M  V30 14931 N 1444.1 -0.461169 1.50702 0
M  V30 14932 C 1445.33 -1.23554 1.65958 0
M  V30 14933 C 1445.75 -1.85584 0.346977 0
M  V30 14934 O 1445.1 -1.69672 -0.672129 0
M  V30 14935 C 1445.15 -2.33704 2.75799 0
M  V30 14936 O 1444.88 -1.74215 4.01971 0
M  V30 14937 C 1446.38 -3.24409 3.02116 0
M  V30 14938 H 1443.6 -0.373299 0.557574 0
M  V30 14939 H 1446.14 -0.549338 1.96984 0
M  V30 14940 H 1444.3 -2.98081 2.47439 0
M  V30 14941 H 1444.71 -2.46827 4.62792 0
M  V30 14942 H 1446.18 -3.97885 3.82611 0
M  V30 14943 H 1446.66 -3.83774 2.13576 0
M  V30 14944 H 1447.27 -2.65757 3.32044 0
M  V30 14945 N 1445.58 -1.40446 -0.715026 0
M  V30 14946 C 1446.99 -1.34564 -1.29419 0
M  V30 14947 C 1447.34 -0.0193984 -1.9619 0
M  V30 14948 O 1446.47 0.882616 -1.97582 0
M  V30 14949 C 1447.06 -2.43721 -2.35342 0
M  V30 14950 C 1445.62 -2.41297 -2.88881 0
M  V30 14951 C 1444.77 -2.2457 -1.62676 0
M  V30 14952 H 1447.72 -1.50244 -0.511116 0
M  V30 14953 H 1447.74 -2.1166 -3.16197 0
M  V30 14954 H 1447.25 -3.40234 -1.86715 0
M  V30 14955 H 1445.35 -1.48483 -3.41736 0
M  V30 14956 H 1445.47 -3.36903 -3.40637 0
M  V30 14957 H 1443.83 -1.72096 -1.87763 0
M  V30 14958 H 1444.61 -3.23082 -1.16074 0
M  V30 14959 N 1447.06 0.947303 -1.25952 0
M  V30 14960 C 1448.34 1.66964 -1.01894 0
M  V30 14961 C 1448.72 2.06192 0.452555 0
M  V30 14962 O 1448.06 1.78098 1.43156 0
M  V30 14963 C 1448.27 2.88643 -1.96179 0
M  V30 14964 C 1449.62 3.60432 -2.24441 0
M  V30 14965 O 1450.65 2.98737 -1.93996 0
M  V30 14966 O 1449.51 4.7154 -2.76247 0
M  V30 14967 H 1446.6 0.730875 -0.386976 0
M  V30 14968 H 1449.15 0.999577 -1.37137 0
M  V30 14969 H 1447.92 2.565 -2.95506 0
M  V30 14970 H 1447.54 3.63377 -1.61379 0
M  V30 14971 N 1448.54 1.07657 1.15099 0
M  V30 14972 C 1449.79 0.801609 1.85958 0
M  V30 14973 C 1450.11 -0.672415 1.82507 0
M  V30 14974 O 1449.37 -1.50958 1.2454 0
M  V30 14975 C 1449.67 1.25903 3.3449 0
M  V30 14976 C 1449.33 2.73954 3.58134 0
M  V30 14977 C 1448 3.14392 3.64296 0
M  V30 14978 C 1450.35 3.69502 3.67584 0
M  V30 14979 C 1447.68 4.49187 3.77422 0
M  V30 14980 C 1450.03 5.04063 3.82235 0
M  V30 14981 C 1448.69 5.44117 3.86643 0
M  V30 14982 H 1447.96 0.293329 0.68047 0
M  V30 14983 H 1450.61 1.34814 1.36005 0
M  V30 14984 H 1448.91 0.631943 3.8667 0
M  V30 14985 H 1450.61 1.02314 3.87728 0
M  V30 14986 H 1447.2 2.41652 3.53981 0
M  V30 14987 H 1451.38 3.39385 3.62121 0
M  V30 14988 H 1446.64 4.79685 3.79094 0
M  V30 14989 H 1450.81 5.7797 3.88489 0
M  V30 14990 H 1448.44 6.48567 3.96567 0
M  V30 14991 N 1450.02 -1.31994 0.861122 0
M  V30 14992 C 1451.43 -1.49756 0.551844 0
M  V30 14993 C 1451.63 -1.79473 -0.916056 0
M  V30 14994 O 1450.69 -1.86813 -1.69874 0
M  V30 14995 C 1452 -2.63737 1.44442 0
M  V30 14996 C 1453.55 -2.77621 1.44552 0
M  V30 14997 C 1454.02 -3.94689 2.32346 0
M  V30 14998 N 1455.52 -4.01961 2.30177 0
M  V30 14999 C 1456.25 -4.91794 2.94833 0
M  V30 15000 N 1455.75 -5.86589 3.68626 0
M  V30 15001 N 1457.54 -4.84968 2.84188 0
M  V30 15002 H 1449.69 -1.10972 1.81105 0
M  V30 15003 H 1451.95 -0.54753 0.773896 0
M  V30 15004 H 1451.66 -2.48526 2.48853 0
M  V30 15005 H 1451.53 -3.59671 1.13651 0
M  V30 15006 H 1453.92 -2.92251 0.409034 0
M  V30 15007 H 1454 -1.8238 1.79363 0
M  V30 15008 H 1453.65 -3.80817 3.36067 0
M  V30 15009 H 1453.58 -4.89219 1.94865 0
M  V30 15010 H 1456.07 -3.34132 1.76533 0
M  V30 15011 H 1456.38 -6.51846 4.15111 0
M  V30 15012 H 1454.72 -5.86596 3.72734 0
M  V30 15013 H 1457.92 -4.09883 2.26084 0
M  V30 15014 H 1458.09 -5.54774 3.34857 0
M  V30 15015 N 1451.49 -0.619688 -1.44906 0
M  V30 15016 C 1452.72 -0.124598 -2.07025 0
M  V30 15017 C 1453.14 1.18698 -1.45919 0
M  V30 15018 O 1452.5 1.72552 -0.556366 0
M  V30 15019 C 1452.55 -0.0112238 -3.60598 0
M  V30 15020 O 1451.65 1.03582 -3.9918 0
M  V30 15021 H 1451 -0.0795631 -0.659216 0
M  V30 15022 H 1453.53 -0.853127 -1.85965 0
M  V30 15023 H 1453.54 0.183079 -4.07589 0
M  V30 15024 H 1452.21 -0.968849 -4.04458 0
M  V30 15025 H 1450.79 0.817008 -3.6384 0
M  V30 15026 N 1452.97 1.53444 -0.359552 0
M  V30 15027 C 1454.22 2.01464 0.232366 0
M  V30 15028 C 1454.55 1.24656 1.48911 0
M  V30 15029 O 1453.83 0.338574 1.9153 0
M  V30 15030 C 1454.11 3.56172 0.530403 0
M  V30 15031 C 1453.96 4.43678 -0.739556 0
M  V30 15032 C 1455.28 4.19412 1.33347 0
M  V30 15033 H 1452.4 0.732314 0.0829802 0
M  V30 15034 H 1455.04 1.83752 -0.483253 0
M  V30 15035 H 1453.19 3.71396 1.14004 0
M  V30 15036 H 1454.86 4.40263 -1.37719 0
M  V30 15037 H 1453.11 4.11892 -1.36117 0
M  V30 15038 H 1453.78 5.49856 -0.486062 0
M  V30 15039 H 1456.25 4.07984 0.817816 0
M  V30 15040 H 1455.13 5.277 1.51075 0
M  V30 15041 H 1455.39 3.7508 2.34024 0
M  V30 15042 N 1454.45 0.0885642 1.57351 0
M  V30 15043 C 1455.38 -0.869946 2.16689 0
M  V30 15044 C 1456.36 -1.29878 1.09844 0
M  V30 15045 O 1457.55 -1.36684 1.37954 0
M  V30 15046 C 1454.68 -2.13148 2.74199 0
M  V30 15047 C 1453.63 -1.84149 3.86359 0
M  V30 15048 C 1452.96 -3.17075 4.30543 0
M  V30 15049 C 1454.26 -1.13357 5.09851 0
M  V30 15050 H 1455.95 -0.375578 2.97035 0
M  V30 15051 H 1453.5 -0.17921 1.42881 0
M  V30 15052 H 1455.45 -2.80634 3.14361 0
M  V30 15053 H 1454.17 -2.64856 1.91098 0
M  V30 15054 H 1452.83 -1.19063 3.46727 0
M  V30 15055 H 1452.48 -3.66658 3.44342 0
M  V30 15056 H 1452.18 -2.98457 5.06159 0
M  V30 15057 H 1453.7 -3.85731 4.73333 0
M  V30 15058 H 1455.12 -1.70941 5.47222 0
M  V30 15059 H 1453.52 -1.0494 5.90853 0
M  V30 15060 H 1454.59 -0.115273 4.84763 0
M  V30 15061 N 1455.93 -1.56509 -0.185096 0
M  V30 15062 C 1457.18 -1.80848 -0.902139 0
M  V30 15063 C 1457.5 -0.663295 -1.83372 0
M  V30 15064 O 1456.77 0.317754 -1.93306 0
M  V30 15065 H 1455.35 -0.667108 -0.336119 0
M  V30 15066 H 1458.01 -1.93989 -0.188211 0
M  V30 15067 H 1457.11 -2.74383 -1.48729 0
M  V30 15068 N 1457.41 0.45317 -1.50944 0
M  V30 15069 C 1458.65 1.20151 -1.62506 0
M  V30 15070 C 1458.98 1.92085 -0.335927 0
M  V30 15071 O 1458.25 1.84889 0.64751 0
M  V30 15072 H 1456.83 0.446502 -0.59887 0
M  V30 15073 H 1459.49 0.521103 -1.87804 0
M  V30 15074 H 1458.58 1.93972 -2.44502 0
M  V30 15075 N 1458.88 1.40823 0.707568 0
M  V30 15076 C 1459.83 1.41724 1.82162 0
M  V30 15077 C 1460.8 0.273135 1.63839 0
M  V30 15078 O 1461.99 0.472399 1.84859 0
M  V30 15079 C 1459.13 1.29347 3.19943 0
M  V30 15080 C 1458.24 2.53529 3.49782 0
M  V30 15081 C 1457.37 2.33533 4.77112 0
M  V30 15082 C 1456.41 3.53252 4.9988 0
M  V30 15083 N 1455.55 3.32401 6.18429 0
M  V30 15084 H 1460.39 2.36943 1.80726 0
M  V30 15085 H 1457.93 1.17671 0.882723 0
M  V30 15086 H 1459.89 1.20175 3.99517 0
M  V30 15087 H 1458.52 0.377426 3.20586 0
M  V30 15088 H 1457.57 2.73198 2.64702 0
M  V30 15089 H 1458.88 3.42617 3.62512 0
M  V30 15090 H 1458.03 2.2176 5.64719 0
M  V30 15091 H 1456.77 1.41883 4.66605 0
M  V30 15092 H 1455.78 3.65492 4.10725 0
M  V30 15093 H 1457 4.4584 5.12253 0
M  V30 15094 H 1454.95 2.4344 6.09158 0
M  V30 15095 H 1454.87 4.15059 6.31872 0
M  V30 15096 H 1456.13 3.24377 7.08802 0
M  V30 15097 N 1460.36 -0.94061 1.26453 0
M  V30 15098 C 1461.31 -2.03941 1.08059 0
M  V30 15099 C 1462.28 -1.66094 -0.0145388 0
M  V30 15100 O 1463.46 -1.90246 0.145338 0
M  V30 15101 C 1460.6 -3.37501 0.720228 0
M  V30 15102 C 1459.72 -3.88381 1.89167 0
M  V30 15103 C 1458.85 -5.10329 1.47437 0
M  V30 15104 C 1457.89 -5.53473 2.61408 0
M  V30 15105 N 1457.03 -6.66624 2.20355 0
M  V30 15106 H 1461.87 -2.19006 2.0209 0
M  V30 15107 H 1459.41 -1.07305 1.00618 0
M  V30 15108 H 1461.36 -4.14287 0.492177 0
M  V30 15109 H 1459.99 -3.2228 -0.183101 0
M  V30 15110 H 1459.05 -3.0799 2.23264 0
M  V30 15111 H 1460.36 -4.16338 2.74708 0
M  V30 15112 H 1459.51 -5.94577 1.20679 0
M  V30 15113 H 1458.25 -4.8412 0.589873 0
M  V30 15114 H 1457.26 -4.67782 2.88894 0
M  V30 15115 H 1458.48 -5.81684 3.50458 0
M  V30 15116 H 1456.43 -6.42097 1.34341 0
M  V30 15117 H 1456.34 -6.9417 2.99439 0
M  V30 15118 H 1457.61 -7.54245 1.96811 0
M  V30 15119 N 1461.84 -1.08266 -1.14527 0
M  V30 15120 C 1462.79 -0.711332 -2.19565 0
M  V30 15121 C 1463.76 0.301774 -1.63336 0
M  V30 15122 O 1464.94 0.186109 -1.8989 0
M  V30 15123 C 1462.08 -0.125255 -3.44873 0
M  V30 15124 C 1461.2 -1.19096 -4.15259 0
M  V30 15125 C 1460.33 -0.568901 -5.28145 0
M  V30 15126 C 1459.37 -1.61675 -5.90362 0
M  V30 15127 N 1458.51 -1.01659 -6.94701 0
M  V30 15128 H 1463.35 -1.61137 -2.50677 0
M  V30 15129 H 1460.88 -0.805286 -1.231 0
M  V30 15130 H 1462.84 0.232247 -4.16553 0
M  V30 15131 H 1461.47 0.738101 -3.14248 0
M  V30 15132 H 1460.52 -1.66591 -3.41982 0
M  V30 15133 H 1461.84 -1.98508 -4.57598 0
M  V30 15134 H 1460.99 -0.159563 -6.0649 0
M  V30 15135 H 1459.73 0.256884 -4.87023 0
M  V30 15136 H 1458.73 -2.03576 -5.10722 0
M  V30 15137 H 1459.96 -2.44498 -6.33559 0
M  V30 15138 H 1457.9 -0.211872 -6.55658 0
M  V30 15139 H 1457.82 -1.74781 -7.35518 0
M  V30 15140 H 1459.09 -0.63306 -7.76925 0
M  V30 15141 N 1463.32 1.31536 -0.86811 0
M  V30 15142 C 1464.25 2.31037 -0.33822 0
M  V30 15143 C 1465.23 1.60269 0.569892 0
M  V30 15144 O 1466.42 1.87987 0.487305 0
M  V30 15145 C 1463.55 3.44203 0.462753 0
M  V30 15146 C 1462.5 4.26549 -0.3521 0
M  V30 15147 C 1461.83 5.31605 0.574443 0
M  V30 15148 C 1463.13 4.97665 -1.58516 0
M  V30 15149 H 1464.82 2.75607 -1.16967 0
M  V30 15150 H 1462.37 1.325 -0.56389 0
M  V30 15151 H 1464.32 4.12862 0.843967 0
M  V30 15152 H 1463.04 2.98396 1.32769 0
M  V30 15153 H 1461.7 3.59555 -0.715237 0
M  V30 15154 H 1461.35 4.82048 1.43661 0
M  V30 15155 H 1461.05 5.87591 0.0331436 0
M  V30 15156 H 1462.57 6.03124 0.952541 0
M  V30 15157 H 1463.99 5.58931 -1.27549 0
M  V30 15158 H 1462.38 5.63437 -2.06539 0
M  V30 15159 H 1463.45 4.24756 -2.33902 0
M  V30 15160 N 1464.8 0.627364 1.44575 0
M  V30 15161 C 1466.21 0.213149 1.85479 0
M  V30 15162 C 1466.56 -1.23458 1.52488 0
M  V30 15163 O 1465.68 -1.93885 0.961115 0
M  V30 15164 C 1466.28 0.380063 3.36661 0
M  V30 15165 C 1464.84 0.020385 3.76394 0
M  V30 15166 C 1463.99 0.695225 2.68444 0
M  V30 15167 H 1466.94 0.832771 1.35095 0
M  V30 15168 H 1466.96 -0.382078 3.78577 0
M  V30 15169 H 1466.47 1.43383 3.60642 0
M  V30 15170 H 1464.57 -1.03179 3.58029 0
M  V30 15171 H 1464.68 0.42782 4.77186 0
M  V30 15172 H 1463.05 0.130898 2.54363 0
M  V30 15173 H 1463.83 1.75151 2.95257 0
M  V30 15174 N 1466.28 -1.53251 0.367684 0
M  V30 15175 C 1467.24 -2.24423 -0.465516 0
M  V30 15176 C 1468.24 -1.25283 -1.00801 0
M  V30 15177 O 1469.43 -1.49545 -0.893424 0
M  V30 15178 C 1466.56 -2.9826 -1.65087 0
M  V30 15179 H 1467.75 -2.99487 0.157292 0
M  V30 15180 H 1465.31 -1.55843 0.119409 0
M  V30 15181 H 1466.04 -2.27443 -2.31171 0
M  V30 15182 H 1465.83 -3.71003 -1.26882 0
M  V30 15183 H 1467.32 -3.52358 -2.24128 0
M  V30 15184 N 1467.75 -0.0969077 -1.57302 0
M  V30 15185 C 1468.66 0.875561 -2.17649 0
M  V30 15186 C 1469.68 1.30892 -1.14645 0
M  V30 15187 O 1470.86 1.37646 -1.47022 0
M  V30 15188 C 1467.92 2.116 -2.74639 0
M  V30 15189 C 1466.98 1.73667 -3.92604 0
M  V30 15190 C 1466.21 2.91798 -4.46867 0
M  V30 15191 O 1466.44 4.06577 -4.00064 0
M  V30 15192 O 1465.37 2.70159 -5.37864 0
M  V30 15193 H 1469.2 0.392107 -3.01158 0
M  V30 15194 H 1466.78 0.127539 -1.48855 0
M  V30 15195 H 1468.66 2.84292 -3.11057 0
M  V30 15196 H 1467.34 2.58994 -1.94174 0
M  V30 15197 H 1466.25 0.981505 -3.60995 0
M  V30 15198 H 1467.58 1.31035 -4.74437 0
M  V30 15199 N 1469.23 1.56605 0.176793 0
M  V30 15200 C 1470.18 1.96896 1.23833 0
M  V30 15201 C 1471.17 0.85693 1.46127 0
M  V30 15202 O 1472.38 1.04202 1.46772 0
M  V30 15203 H 1468.75 0.626363 0.416141 0
M  V30 15204 H 1470.73 2.85387 0.871607 0
M  V30 15205 C 1469.47 2.34034 2.57145 0
M  V30 15206 H 1468.8 3.1914 2.40811 0
M  V30 15207 H 1470.24 2.66074 3.30122 0
M  V30 15208 C 1468.7 1.18171 3.15495 0
M  V30 15209 O 1469.23 0.466448 3.98983 0
M  V30 15210 N 1467.43 0.953705 2.74505 0
M  V30 15211 H 1466.98 1.5371 2.06715 0
M  V30 15212 H 1466.94 0.180307 3.13883 0
M  V30 15213 N 1470.71 -0.445159 1.51182 0
M  V30 15214 C 1471.96 -1.19288 1.6314 0
M  V30 15215 C 1472.28 -1.91904 0.346109 0
M  V30 15216 O 1471.55 -1.8523 -0.637695 0
M  V30 15217 H 1470.13 -0.443319 0.601229 0
M  V30 15218 H 1472.79 -0.511136 1.88078 0
M  V30 15219 H 1471.89 -1.92672 2.45528 0
M  V30 15220 N 1472.19 -1.41197 -0.700089 0
M  V30 15221 C 1473.41 -1.43856 -1.494 0
M  V30 15222 C 1473.84 -0.0441877 -1.88048 0
M  V30 15223 O 1473.2 0.951503 -1.54325 0
M  V30 15224 C 1473.24 -2.34913 -2.73584 0
M  V30 15225 O 1472.35 -1.80305 -3.70896 0
M  V30 15226 H 1471.69 -0.488412 -0.449833 0
M  V30 15227 H 1474.22 -1.85606 -0.860911 0
M  V30 15228 H 1474.23 -2.50633 -3.21943 0
M  V30 15229 H 1472.9 -3.36229 -2.44791 0
M  V30 15230 H 1471.48 -1.74012 -3.29809 0
M  V30 15231 N 1473.67 0.933891 -1.2695 0
M  V30 15232 C 1474.89 1.72042 -1.15828 0
M  V30 15233 C 1475.32 1.85975 0.28193 0
M  V30 15234 O 1474.67 1.35528 1.20423 0
M  V30 15235 C 1474.72 3.10112 -1.84019 0
M  V30 15236 O 1473.83 3.96504 -1.13394 0
M  V30 15237 H 1473.17 0.527573 -0.40319 0
M  V30 15238 H 1475.7 1.16914 -1.67905 0
M  V30 15239 H 1475.71 3.60461 -1.91133 0
M  V30 15240 H 1474.38 2.99287 -2.8879 0
M  V30 15241 H 1472.96 3.54948 -1.14307 0
M  V30 15242 N 1475.14 1.08871 1.13951 0
M  V30 15243 C 1476.37 0.843055 1.89492 0
M  V30 15244 C 1476.79 -0.599539 1.78289 0
M  V30 15245 O 1476.15 -1.42062 1.12642 0
M  V30 15246 C 1476.2 1.27572 3.3728 0
M  V30 15247 O 1475.3 0.430611 4.10146 0
M  V30 15248 H 1474.64 0.3058 0.589391 0
M  V30 15249 H 1477.17 1.45137 1.44209 0
M  V30 15250 H 1477.18 1.25864 3.88101 0
M  V30 15251 H 1475.86 2.32635 3.44751 0
M  V30 15252 H 1474.44 0.511516 3.69375 0
M  V30 15253 N 1476.62 -1.31073 0.875073 0
M  V30 15254 C 1477.58 -2.26672 0.339481 0
M  V30 15255 C 1478.58 -1.52416 -0.512439 0
M  V30 15256 O 1479.77 -1.71217 -0.321012 0
M  V30 15257 C 1476.91 -3.36952 -0.517311 0
M  V30 15258 H 1478.1 -2.7556 1.18349 0
M  V30 15259 H 1475.65 -1.42093 0.65109 0
M  V30 15260 H 1476.39 -2.93364 -1.38231 0
M  V30 15261 H 1476.17 -3.9199 0.092773 0
M  V30 15262 H 1477.66 -4.08133 -0.884154 0
M  V30 15263 N 1478.1 -0.635022 -1.4424 0
M  V30 15264 C 1479.01 0.0686832 -2.34499 0
M  V30 15265 C 1480.03 0.831574 -1.52843 0
M  V30 15266 O 1481.2 0.782954 -1.85558 0
M  V30 15267 C 1478.27 1.03543 -3.30877 0
M  V30 15268 C 1477.33 0.271484 -4.28441 0
M  V30 15269 C 1476.56 1.19218 -5.20214 0
M  V30 15270 O 1476.78 2.43101 -5.16002 0
M  V30 15271 O 1475.72 0.6744 -5.9811 0
M  V30 15272 H 1479.54 -0.673781 -2.96132 0
M  V30 15273 H 1477.13 -0.395211 -1.44078 0
M  V30 15274 H 1479.01 1.59151 -3.90191 0
M  V30 15275 H 1477.69 1.75844 -2.71773 0
M  V30 15276 H 1476.59 -0.327736 -3.72662 0
M  V30 15277 H 1477.93 -0.411584 -4.90476 0
M  V30 15278 N 1479.58 1.53054 -0.375806 0
M  V30 15279 C 1480.81 2.0582 0.211135 0
M  V30 15280 C 1481.22 1.24856 1.4162 0
M  V30 15281 O 1480.58 0.291786 1.80152 0
M  V30 15282 C 1480.63 3.56577 0.594573 0
M  V30 15283 O 1480.35 4.34472 -0.562607 0
M  V30 15284 C 1481.85 4.25639 1.23882 0
M  V30 15285 H 1479.07 0.670085 0.0350268 0
M  V30 15286 H 1481.62 1.9732 -0.537135 0
M  V30 15287 H 1479.77 3.65194 1.29275 0
M  V30 15288 H 1480.18 5.23902 -0.250487 0
M  V30 15289 H 1481.66 5.32408 1.45759 0
M  V30 15290 H 1482.14 3.80001 2.20218 0
M  V30 15291 H 1482.74 4.21302 0.581786 0
M  V30 15292 N 1481.06 0.105248 1.57248 0
M  V30 15293 C 1481.99 -0.846915 2.176 0
M  V30 15294 C 1482.97 -1.28706 1.11216 0
M  V30 15295 O 1484.15 -1.35213 1.39396 0
M  V30 15296 C 1481.28 -2.10228 2.76445 0
M  V30 15297 C 1480.24 -1.80041 3.8829 0
M  V30 15298 C 1479.56 -3.12491 4.33882 0
M  V30 15299 C 1480.86 -1.07943 5.11024 0
M  V30 15300 H 1482.56 -0.344052 2.97417 0
M  V30 15301 H 1480.1 -0.164045 1.43063 0
M  V30 15302 H 1482.06 -2.77284 3.17319 0
M  V30 15303 H 1480.78 -2.62815 1.93897 0
M  V30 15304 H 1479.44 -1.15379 3.4797 0
M  V30 15305 H 1479.09 -3.62985 3.48211 0
M  V30 15306 H 1478.79 -2.93072 5.09296 0
M  V30 15307 H 1480.31 -3.80688 4.77398 0
M  V30 15308 H 1481.72 -1.65127 5.49004 0
M  V30 15309 H 1480.12 -0.986674 5.91933 0
M  V30 15310 H 1481.19 -0.0638511 4.84858 0
M  V30 15311 N 1482.53 -1.56697 -0.168486 0
M  V30 15312 C 1483.48 -1.9755 -1.22787 0
M  V30 15313 C 1484.48 -0.864668 -1.4567 0
M  V30 15314 O 1485.68 -1.04979 -1.46217 0
M  V30 15315 H 1482.06 -0.628561 -0.412813 0
M  V30 15316 H 1484.03 -2.85845 -0.85646 0
M  V30 15317 C 1482.78 -2.35394 -2.559 0
M  V30 15318 H 1482.1 -3.20412 -2.39115 0
M  V30 15319 H 1483.54 -2.67821 -3.28706 0
M  V30 15320 C 1482 -1.19842 -3.14864 0
M  V30 15321 O 1482.53 -0.487601 -3.9873 0
M  V30 15322 N 1480.74 -0.968249 -2.73995 0
M  V30 15323 H 1480.28 -1.54804 -2.05897 0
M  V30 15324 H 1480.24 -0.196951 -3.13783 0
M  V30 15325 N 1484.01 0.437135 -1.51416 0
M  V30 15326 C 1484.98 1.51313 -1.72154 0
M  V30 15327 C 1485.98 1.49523 -0.59157 0
M  V30 15328 O 1487.17 1.51541 -0.859118 0
M  V30 15329 C 1484.3 2.9085 -1.77818 0
M  V30 15330 H 1485.49 1.34229 -2.68184 0
M  V30 15331 H 1483.04 0.665822 -1.41409 0
M  V30 15332 H 1483.78 3.13338 -0.836033 0
M  V30 15333 H 1483.56 2.93554 -2.59939 0
M  V30 15334 H 1485.05 3.68905 -1.957 0
M  V30 15335 N 1485.49 1.41566 0.692592 0
M  V30 15336 C 1486.44 1.43648 1.80648 0
M  V30 15337 C 1487.41 0.290497 1.6354 0
M  V30 15338 O 1488.59 0.491979 1.84348 0
M  V30 15339 C 1485.73 1.32733 3.18553 0
M  V30 15340 C 1484.85 2.57224 3.47073 0
M  V30 15341 C 1483.98 2.38581 4.74608 0
M  V30 15342 C 1483.02 3.58534 4.96105 0
M  V30 15343 N 1482.16 3.38942 6.14868 0
M  V30 15344 H 1487 2.38847 1.78203 0
M  V30 15345 H 1484.53 1.186 0.870193 0
M  V30 15346 H 1486.49 1.24405 3.9822 0
M  V30 15347 H 1485.12 0.411407 3.20168 0
M  V30 15348 H 1484.17 2.7599 2.6179 0
M  V30 15349 H 1485.49 3.46443 3.58858 0
M  V30 15350 H 1484.64 2.27738 5.62335 0
M  V30 15351 H 1483.38 1.46824 4.65074 0
M  V30 15352 H 1482.38 3.69828 4.06826 0
M  V30 15353 H 1483.61 4.51248 5.07496 0
M  V30 15354 H 1481.55 2.49887 6.06541 0
M  V30 15355 H 1481.47 4.21737 6.27434 0
M  V30 15356 H 1482.74 3.31877 7.05321 0
M  V30 15357 N 1486.97 -0.927146 1.27443 0
M  V30 15358 C 1487.93 -2.00938 1.10257 0
M  V30 15359 C 1488.93 -1.60733 0.0463898 0
M  V30 15360 O 1490.12 -1.71752 0.291029 0
M  V30 15361 C 1487.25 -3.34047 0.680115 0
M  V30 15362 H 1488.45 -2.17615 2.06358 0
M  V30 15363 H 1486 -1.10802 1.10239 0
M  V30 15364 H 1486.73 -3.23069 -0.282259 0
M  V30 15365 H 1486.52 -3.64585 1.44291 0
M  V30 15366 H 1488.01 -4.13523 0.582126 0
M  V30 15367 N 1488.45 -1.09474 -1.13372 0
M  V30 15368 C 1489.69 -0.832323 -1.84933 0
M  V30 15369 C 1490.03 0.640469 -1.83335 0
M  V30 15370 O 1489.3 1.47158 -1.2718 0
M  V30 15371 C 1489.58 -1.36876 -3.33072 0
M  V30 15372 C 1489.44 -2.90769 -3.43181 0
M  V30 15373 C 1490.76 -1.00294 -4.2852 0
M  V30 15374 H 1487.87 -0.30382 -0.671463 0
M  V30 15375 H 1490.52 -1.35622 -1.33066 0
M  V30 15376 H 1488.67 -0.923134 -3.77373 0
M  V30 15377 H 1490.34 -3.43784 -3.07588 0
M  V30 15378 H 1488.58 -3.27876 -2.84042 0
M  V30 15379 H 1489.25 -3.23381 -4.47358 0
M  V30 15380 H 1491.73 -1.38729 -3.92293 0
M  V30 15381 H 1490.6 -1.40533 -5.30605 0
M  V30 15382 H 1490.87 0.0888133 -4.42011 0
M  V30 15383 N 1489.92 1.30607 -0.882012 0
M  V30 15384 C 1490.83 2.31967 -0.350503 0
M  V30 15385 C 1491.85 1.6522 0.54575 0
M  V30 15386 O 1493.03 1.96544 0.439581 0
M  V30 15387 C 1490.09 3.44037 0.428924 0
M  V30 15388 C 1489.15 4.26417 -0.496727 0
M  V30 15389 C 1488.39 5.33135 0.245597 0
M  V30 15390 O 1488.61 5.51077 1.47209 0
M  V30 15391 O 1487.54 6.00551 -0.402767 0
M  V30 15392 H 1491.37 2.79374 -1.19095 0
M  V30 15393 H 1488.95 1.34723 -0.645754 0
M  V30 15394 H 1490.84 4.12314 0.870346 0
M  V30 15395 H 1489.51 2.9877 1.24573 0
M  V30 15396 H 1488.42 3.60848 -0.986899 0
M  V30 15397 H 1489.75 4.7528 -1.27945 0
M  V30 15398 N 1491.4 0.642663 1.43901 0
M  V30 15399 C 1492.63 0.157518 2.06801 0
M  V30 15400 C 1493.05 -1.16361 1.47789 0
M  V30 15401 O 1492.41 -1.71645 0.583747 0
M  V30 15402 C 1492.46 0.0685904 3.60535 0
M  V30 15403 O 1491.56 -0.972183 4.00777 0
M  V30 15404 H 1490.9 0.0900406 0.657867 0
M  V30 15405 H 1493.43 0.882604 1.84584 0
M  V30 15406 H 1493.44 -0.118212 4.07829 0
M  V30 15407 H 1492.12 1.03307 4.02865 0
M  V30 15408 H 1490.7 -0.75902 3.65094 0
M  V30 15409 N 1492.88 -1.52852 0.383918 0
M  V30 15410 C 1494.11 -2.06406 -0.202764 0
M  V30 15411 C 1494.53 -1.25421 -1.40183 0
M  V30 15412 O 1493.89 -0.277876 -1.79158 0
M  V30 15413 C 1493.94 -3.56281 -0.556414 0
M  V30 15414 O 1493.04 -3.77904 -1.65113 0
M  V30 15415 H 1492.38 -0.663523 -0.0251737 0
M  V30 15416 H 1494.91 -1.97074 0.54983 0
M  V30 15417 H 1494.92 -3.99629 -0.822249 0
M  V30 15418 H 1493.6 -4.14665 0.320253 0
M  V30 15419 H 1492.17 -3.46448 -1.37943 0
M  V30 15420 N 1494.36 -0.113586 -1.5719 0
M  V30 15421 C 1495.31 0.83862 -2.15025 0
M  V30 15422 C 1496.28 1.26726 -1.07376 0
M  V30 15423 O 1497.46 1.34574 -1.35257 0
M  V30 15424 C 1494.6 2.08538 -2.74965 0
M  V30 15425 C 1493.71 1.70559 -3.96905 0
M  V30 15426 C 1492.85 2.90161 -4.44949 0
M  V30 15427 C 1491.89 2.48396 -5.59433 0
M  V30 15428 N 1491.03 3.60894 -6.02246 0
M  V30 15429 H 1495.87 0.338585 -2.9607 0
M  V30 15430 H 1493.4 0.155437 -1.46276 0
M  V30 15431 H 1495.36 2.81579 -3.07846 0
M  V30 15432 H 1493.99 2.56009 -1.96619 0
M  V30 15433 H 1493.04 0.874133 -3.7022 0
M  V30 15434 H 1494.35 1.35863 -4.7994 0
M  V30 15435 H 1493.51 3.71434 -4.7971 0
M  V30 15436 H 1492.25 3.28081 -3.60852 0
M  V30 15437 H 1491.25 1.65555 -5.24282 0
M  V30 15438 H 1492.48 2.116 -6.45292 0
M  V30 15439 H 1490.42 3.98497 -5.21091 0
M  V30 15440 H 1490.34 3.30103 -6.80124 0
M  V30 15441 H 1491.61 4.42622 -6.41643 0
M  V30 15442 N 1495.84 1.56784 0.160173 0
M  V30 15443 C 1497.25 1.72193 0.721552 0
M  V30 15444 C 1497.6 0.725901 1.82278 0
M  V30 15445 O 1496.72 -0.110343 2.16118 0
M  V30 15446 C 1497.32 3.12212 1.31563 0
M  V30 15447 C 1495.88 3.29268 1.82371 0
M  V30 15448 C 1495.03 2.68136 0.70701 0
M  V30 15449 H 1497.98 1.58565 -0.0653521 0
M  V30 15450 H 1498 3.11481 2.1854 0
M  V30 15451 H 1497.51 3.84682 0.513917 0
M  V30 15452 H 1495.61 2.61774 2.65152 0
M  V30 15453 H 1495.72 4.37107 1.96149 0
M  V30 15454 H 1494.09 2.28246 1.1303 0
M  V30 15455 H 1494.87 3.432 -0.0830407 0
M  V30 15456 N 1497.32 -0.429099 1.51646 0
M  V30 15457 C 1498.25 -1.52867 1.76505 0
M  V30 15458 C 1499.23 -1.58586 0.615178 0
M  V30 15459 O 1500.41 -1.74182 0.858742 0
M  V30 15460 C 1497.54 -2.90875 1.8976 0
M  V30 15461 C 1496.5 -3.00014 3.05247 0
M  V30 15462 C 1495.82 -4.40082 3.03696 0
M  V30 15463 C 1497.12 -2.73334 4.45068 0
M  V30 15464 H 1498.82 -1.32315 2.68576 0
M  V30 15465 H 1496.36 -0.635091 1.29238 0
M  V30 15466 H 1498.31 -3.67765 2.05734 0
M  V30 15467 H 1497.04 -3.12677 0.943442 0
M  V30 15468 H 1495.7 -2.25565 2.88991 0
M  V30 15469 H 1495.35 -4.58864 2.06042 0
M  V30 15470 H 1495.05 -4.47125 3.81252 0
M  V30 15471 H 1496.57 -5.18935 3.21774 0
M  V30 15472 H 1497.98 -3.39954 4.61632 0
M  V30 15473 H 1496.38 -2.91777 5.24391 0
M  V30 15474 H 1497.45 -1.68889 4.54538 0
M  V30 15475 N 1498.79 -1.41931 -0.685074 0
M  V30 15476 C 1500.02 -1.45432 -1.47866 0
M  V30 15477 C 1500.44 -0.0641302 -1.87991 0
M  V30 15478 O 1499.8 0.935081 -1.55325 0
M  V30 15479 C 1499.85 -2.37801 -2.71077 0
M  V30 15480 O 1498.95 -1.84229 -3.68963 0
M  V30 15481 H 1498.29 -0.493156 -0.444627 0
M  V30 15482 H 1500.82 -1.86508 -0.841177 0
M  V30 15483 H 1500.83 -2.54033 -3.19266 0
M  V30 15484 H 1499.51 -3.38807 -2.41211 0
M  V30 15485 H 1498.09 -1.775 -3.27945 0
M  V30 15486 N 1500.27 0.920374 -1.27933 0
M  V30 15487 C 1501.22 2.04331 -1.11138 0
M  V30 15488 C 1502.21 1.69369 -0.0324493 0
M  V30 15489 O 1503.42 1.78987 -0.190723 0
M  V30 15490 H 1499.79 0.669381 -0.342685 0
M  V30 15491 H 1501.77 2.15641 -2.06256 0
M  V30 15492 C 1500.51 3.38768 -0.783049 0
M  V30 15493 H 1499.84 3.6616 -1.60521 0
M  V30 15494 H 1501.28 4.1809 -0.705448 0
M  V30 15495 C 1499.74 3.32972 0.512927 0
M  V30 15496 O 1500.27 3.70792 1.54519 0
M  V30 15497 N 1498.47 2.86068 0.511232 0
M  V30 15498 H 1498.02 2.55487 -0.329229 0
M  V30 15499 H 1497.98 2.82573 1.3784 0
M  V30 15500 N 1501.75 1.10074 1.1279 0
M  V30 15501 C 1502.71 0.74967 2.16593 0
M  V30 15502 C 1503.71 -0.224046 1.59232 0
M  V30 15503 O 1504.9 -0.00137104 1.742 0
M  V30 15504 C 1502.03 0.109795 3.40723 0
M  V30 15505 H 1503.23 1.66906 2.49164 0
M  V30 15506 H 1500.78 0.900781 1.27733 0
M  V30 15507 H 1501.52 -0.820501 3.13749 0
M  V30 15508 H 1501.3 0.810517 3.83631 0
M  V30 15509 H 1502.79 -0.120198 4.17427 0
M  V30 15510 N 1503.23 -1.30138 0.888926 0
M  V30 15511 C 1504.16 -2.27013 0.315904 0
M  V30 15512 C 1505.17 -1.53871 -0.531746 0
M  V30 15513 O 1506.36 -1.75022 -0.350654 0
M  V30 15514 C 1503.46 -3.34087 -0.569119 0
M  V30 15515 C 1502.63 -4.36683 0.250359 0
M  V30 15516 C 1501.69 -5.23149 -0.565783 0
M  V30 15517 O 1500.72 -5.69199 0.0129167 0
M  V30 15518 N 1501.92 -5.49416 -1.8741 0
M  V30 15519 H 1504.69 -2.76821 1.14848 0
M  V30 15520 H 1502.25 -1.43359 0.752311 0
M  V30 15521 H 1504.24 -3.88857 -1.12125 0
M  V30 15522 H 1502.81 -2.84178 -1.30237 0
M  V30 15523 H 1502.03 -3.81723 0.983931 0
M  V30 15524 H 1503.32 -5.02279 0.811964 0
M  V30 15525 H 1502.72 -5.13793 -2.36713 0
M  V30 15526 H 1501.27 -6.07045 -2.37359 0
M  V30 15527 N 1504.71 -0.650285 -1.43559 0
M  V30 15528 C 1506.12 -0.24263 -1.85117 0
M  V30 15529 C 1506.47 1.21017 -1.54432 0
M  V30 15530 O 1505.59 1.92332 -0.991839 0
M  V30 15531 C 1506.19 -0.433575 -3.36014 0
M  V30 15532 C 1504.75 -0.0802635 -3.76314 0
M  V30 15533 C 1503.89 -0.737844 -2.67303 0
M  V30 15534 H 1506.84 -0.854158 -1.33753 0
M  V30 15535 H 1506.87 0.321801 -3.79137 0
M  V30 15536 H 1506.38 -1.49102 -3.58316 0
M  V30 15537 H 1504.48 0.974703 -3.59625 0
M  V30 15538 H 1504.59 -0.503683 -4.76445 0
M  V30 15539 H 1502.96 -0.171349 -2.54123 0
M  V30 15540 H 1503.74 -1.79826 -2.92434 0
M  V30 15541 N 1506.18 1.52647 -0.392018 0
M  V30 15542 C 1507.41 2.06511 0.191815 0
M  V30 15543 C 1507.83 1.26162 1.39516 0
M  V30 15544 O 1507.19 0.287373 1.79008 0
M  V30 15545 C 1507.24 3.56571 0.537512 0
M  V30 15546 O 1506.34 3.78774 1.63106 0
M  V30 15547 H 1505.68 0.663647 0.0216546 0
M  V30 15548 H 1508.21 1.96779 -0.560274 0
M  V30 15549 H 1508.22 4.00059 0.801044 0
M  V30 15550 H 1506.9 4.14489 -0.342239 0
M  V30 15551 H 1505.48 3.47175 1.36103 0
M  V30 15552 N 1507.66 0.121921 1.57128 0
M  V30 15553 C 1508.91 -0.534313 1.94909 0
M  V30 15554 C 1509.23 -1.67029 1.0063 0
M  V30 15555 O 1508.5 -1.95798 0.0631366 0
M  V30 15556 H 1507.08 -0.200372 0.719625 0
M  V30 15557 H 1509.74 0.191546 1.93956 0
M  V30 15558 H 1508.84 -0.926974 2.98016 0
M  V30 15559 N 1509.14 -1.56867 -0.151857 0
M  V30 15560 C 1510.55 -1.72573 -0.712411 0
M  V30 15561 C 1510.9 -0.735557 -1.8189 0
M  V30 15562 O 1510.03 0.09888 -2.16174 0
M  V30 15563 C 1510.62 -3.12906 -1.29905 0
M  V30 15564 C 1509.18 -3.30231 -1.80623 0
M  V30 15565 C 1508.33 -2.68507 -0.692781 0
M  V30 15566 H 1511.28 -1.58528 0.0737603 0
M  V30 15567 H 1511.3 -3.12636 -2.16885 0
M  V30 15568 H 1510.81 -3.84949 -0.493509 0
M  V30 15569 H 1508.91 -2.63176 -2.6376 0
M  V30 15570 H 1509.03 -4.38141 -1.93828 0
M  V30 15571 H 1507.39 -2.28842 -1.11818 0
M  V30 15572 H 1508.17 -3.43151 0.10124 0
M  V30 15573 N 1510.62 0.421051 -1.51871 0
M  V30 15574 C 1511.55 1.51928 -1.77313 0
M  V30 15575 C 1512.53 1.58258 -0.623579 0
M  V30 15576 O 1513.71 1.73724 -0.867967 0
M  V30 15577 C 1510.84 2.89865 -1.913 0
M  V30 15578 C 1509.8 2.98391 -3.06834 0
M  V30 15579 C 1509.12 4.38466 -3.06026 0
M  V30 15580 C 1510.42 2.7097 -4.46511 0
M  V30 15581 H 1512.12 1.30889 -2.69274 0
M  V30 15582 H 1509.66 0.628229 -1.29573 0
M  V30 15583 H 1511.62 3.66669 -2.07682 0
M  V30 15584 H 1510.34 3.12172 -0.960011 0
M  V30 15585 H 1509 2.24029 -2.90184 0
M  V30 15586 H 1508.65 4.57764 -2.08472 0
M  V30 15587 H 1508.35 4.45097 -3.83618 0
M  V30 15588 H 1509.87 5.17221 -3.24522 0
M  V30 15589 H 1511.29 3.37501 -4.63428 0
M  V30 15590 H 1509.68 2.88992 -5.25931 0
M  V30 15591 H 1510.75 1.66476 -4.55427 0
M  V30 15592 N 1512.1 1.42293 0.677538 0
M  V30 15593 C 1513.04 1.45556 1.79114 0
M  V30 15594 C 1514.01 0.307826 1.63223 0
M  V30 15595 O 1515.2 0.511504 1.83816 0
M  V30 15596 C 1512.34 1.36104 3.17127 0
M  V30 15597 C 1511.45 2.60891 3.44325 0
M  V30 15598 C 1510.59 2.43601 4.72051 0
M  V30 15599 C 1509.63 3.63775 4.92274 0
M  V30 15600 N 1508.76 3.45444 6.11239 0
M  V30 15601 H 1513.6 2.40723 1.7566 0
M  V30 15602 H 1511.14 1.19517 0.857565 0
M  V30 15603 H 1513.1 1.28622 3.96878 0
M  V30 15604 H 1511.73 0.445342 3.19713 0
M  V30 15605 H 1510.78 2.78751 2.58848 0
M  V30 15606 H 1512.09 3.50229 3.55163 0
M  V30 15607 H 1511.25 2.33689 5.59888 0
M  V30 15608 H 1509.98 1.51748 4.63491 0
M  V30 15609 H 1508.99 3.74122 4.0288 0
M  V30 15610 H 1510.21 4.56605 5.02681 0
M  V30 15611 H 1508.16 2.56306 6.03857 0
M  V30 15612 H 1508.08 4.28368 6.22926 0
M  V30 15613 H 1509.35 3.39339 7.01762 0
M  V30 15614 N 1513.57 -0.913576 1.28419 0
M  V30 15615 C 1514.99 -1.47782 1.14094 0
M  V30 15616 C 1515.34 -1.94347 -0.269004 0
M  V30 15617 O 1514.46 -1.82474 -1.16328 0
M  V30 15618 C 1515.06 -2.6859 2.06507 0
M  V30 15619 C 1513.62 -3.21193 1.96245 0
M  V30 15620 C 1512.76 -1.939 1.98238 0
M  V30 15621 H 1515.71 -0.726271 1.41106 0
M  V30 15622 H 1515.73 -3.43858 1.62916 0
M  V30 15623 H 1515.25 -2.34668 3.09116 0
M  V30 15624 H 1513.35 -3.5984 0.966737 0
M  V30 15625 H 1513.46 -3.8643 2.83211 0
M  V30 15626 H 1511.82 -2.11006 1.42648 0
M  V30 15627 H 1512.61 -1.62273 3.02527 0
M  V30 15628 N 1515.05 -1.1067 -1.12204 0
M  V30 15629 C 1516.3 -0.85189 -1.8404 0
M  V30 15630 C 1516.63 0.620988 -1.84004 0
M  V30 15631 O 1515.91 1.45801 -1.28734 0
M  V30 15632 C 1516.19 -1.40401 -3.31602 0
M  V30 15633 C 1516.04 -2.94392 -3.40078 0
M  V30 15634 C 1517.36 -1.04834 -4.27432 0
M  V30 15635 H 1514.48 -0.310924 -0.668203 0
M  V30 15636 H 1517.12 -1.37026 -1.3162 0
M  V30 15637 H 1515.27 -0.963107 -3.76373 0
M  V30 15638 H 1516.94 -3.47027 -3.03924 0
M  V30 15639 H 1515.19 -3.3087 -2.80548 0
M  V30 15640 H 1515.86 -3.28107 -4.43903 0
M  V30 15641 H 1518.33 -1.42882 -3.90799 0
M  V30 15642 H 1517.21 -1.46153 -5.29085 0
M  V30 15643 H 1517.47 0.0419272 -4.4208 0
M  V30 15644 N 1516.53 1.29665 -0.895815 0
M  V30 15645 C 1517.78 1.9533 -0.518725 0
M  V30 15646 C 1518.1 1.70995 0.937322 0
M  V30 15647 O 1517.37 1.03955 1.66043 0
M  V30 15648 H 1515.95 0.722736 -0.188841 0
M  V30 15649 H 1518.61 1.57991 -1.14126 0
M  V30 15650 H 1517.71 3.04193 -0.698057 0
M  V30 15651 N 1518.01 0.657889 1.43212 0
M  V30 15652 C 1518.96 -0.0427288 2.32561 0
M  V30 15653 C 1519.95 -0.808236 1.48875 0
M  V30 15654 O 1521.16 -0.718109 1.65055 0
M  V30 15655 H 1517.53 -0.0326049 0.751293 0
M  V30 15656 H 1519.5 0.728503 2.89371 0
M  V30 15657 C 1518.25 -0.99216 3.33244 0
M  V30 15658 H 1517.57 -0.412542 3.97666 0
M  V30 15659 H 1519.01 -1.45138 3.98385 0
M  V30 15660 C 1517.47 -2.09044 2.64201 0
M  V30 15661 O 1518 -3.17481 2.46107 0
M  V30 15662 N 1516.21 -1.85732 2.23499 0
M  V30 15663 H 1515.76 -0.975483 2.38416 0
M  V30 15664 H 1515.71 -2.5941 1.77634 0
M  V30 15665 N 1519.49 -1.52437 0.400108 0
M  V30 15666 C 1520.45 -2.2536 -0.417808 0
M  V30 15667 C 1521.45 -1.27393 -0.981204 0
M  V30 15668 O 1522.64 -1.51406 -0.861503 0
M  V30 15669 C 1519.77 -3.01695 -1.58724 0
M  V30 15670 H 1520.96 -2.99086 0.220782 0
M  V30 15671 H 1518.52 -1.55555 0.152439 0
M  V30 15672 H 1519.25 -2.32295 -2.26295 0
M  V30 15673 H 1519.04 -3.73611 -1.18984 0
M  V30 15674 H 1520.53 -3.57033 -2.16604 0
M  V30 15675 N 1520.96 -0.130252 -1.57061 0
M  V30 15676 C 1521.91 0.815767 -2.15902 0
M  V30 15677 C 1522.88 1.2558 -1.08715 0
M  V30 15678 O 1524.07 1.33132 -1.36677 0
M  V30 15679 C 1521.21 2.0561 -2.77162 0
M  V30 15680 C 1520.32 1.6634 -3.98692 0
M  V30 15681 C 1519.45 2.85425 -4.48002 0
M  V30 15682 C 1518.49 2.42449 -5.62036 0
M  V30 15683 N 1517.63 3.54486 -6.0604 0
M  V30 15684 H 1522.47 0.307164 -2.96413 0
M  V30 15685 H 1520.01 0.139913 -1.46433 0
M  V30 15686 H 1521.97 2.78298 -3.10815 0
M  V30 15687 H 1520.6 2.5391 -1.99323 0
M  V30 15688 H 1519.65 0.834817 -3.71127 0
M  V30 15689 H 1520.96 1.30765 -4.81354 0
M  V30 15690 H 1520.11 3.66325 -4.83623 0
M  V30 15691 H 1518.85 3.24235 -3.64312 0
M  V30 15692 H 1517.86 1.59985 -5.26008 0
M  V30 15693 H 1519.08 2.04744 -6.475 0
M  V30 15694 H 1517.03 3.92948 -5.25289 0
M  V30 15695 H 1516.95 3.22871 -6.83586 0
M  V30 15696 H 1518.21 4.35792 -6.46302 0
M  V30 15697 N 1522.44 1.56945 0.143535 0
M  V30 15698 C 1523.85 1.72949 0.703249 0
M  V30 15699 C 1524.21 0.745193 1.81497 0
M  V30 15700 O 1523.33 -0.0874144 2.16223 0
M  V30 15701 C 1523.93 3.1359 1.28244 0
M  V30 15702 C 1522.48 3.31184 1.78869 0
M  V30 15703 C 1521.63 2.6887 0.678531 0
M  V30 15704 H 1524.58 1.58487 -0.0821664 0
M  V30 15705 H 1524.6 3.13782 2.15224 0
M  V30 15706 H 1524.12 3.85206 0.473087 0
M  V30 15707 H 1522.22 2.64571 2.6236 0
M  V30 15708 H 1522.33 4.39163 1.91502 0
M  V30 15709 H 1520.69 2.29432 1.10603 0
M  V30 15710 H 1521.48 3.43092 -0.119437 0
M  V30 15711 N 1523.92 -0.412991 1.52093 0
M  V30 15712 C 1524.88 -1.48555 1.7454 0
M  V30 15713 C 1525.88 -1.48563 0.615283 0
M  V30 15714 O 1527.07 -1.50155 0.883119 0
M  V30 15715 C 1524.21 -2.87984 1.82423 0
M  V30 15716 H 1525.4 -1.29945 2.70285 0
M  V30 15717 H 1522.95 -0.643241 1.4245 0
M  V30 15718 H 1523.69 -3.11969 0.885777 0
M  V30 15719 H 1523.47 -2.89381 2.64577 0
M  V30 15720 H 1524.96 -3.65745 2.01545 0
M  V30 15721 N 1525.4 -1.4265 -0.669982 0
M  V30 15722 C 1526.31 -1.48916 -1.81276 0
M  V30 15723 C 1527.33 -0.377523 -1.69855 0
M  V30 15724 O 1528.5 -0.629151 -1.91321 0
M  V30 15725 C 1525.57 -1.39376 -3.17451 0
M  V30 15726 C 1524.63 -2.61072 -3.40793 0
M  V30 15727 C 1523.86 -2.51976 -4.70472 0
M  V30 15728 O 1524.08 -1.55827 -5.48702 0
M  V30 15729 O 1523.02 -3.42193 -4.95164 0
M  V30 15730 H 1526.84 -2.45382 -1.78945 0
M  V30 15731 H 1524.43 -1.24467 -0.826342 0
M  V30 15732 H 1526.31 -1.36435 -3.98702 0
M  V30 15733 H 1524.99 -0.460376 -3.20409 0
M  V30 15734 H 1523.89 -2.69587 -2.59372 0
M  V30 15735 H 1525.23 -3.53325 -3.42669 0
M  V30 15736 N 1526.88 0.906753 -1.28902 0
M  V30 15737 C 1528.11 1.69019 -1.19333 0
M  V30 15738 C 1528.52 1.87176 0.247065 0
M  V30 15739 O 1527.88 1.40376 1.16623 0
M  V30 15740 C 1527.93 3.07854 -1.89495 0
M  V30 15741 O 1527.65 2.90531 -3.27908 0
M  V30 15742 C 1529.15 4.02246 -1.86314 0
M  V30 15743 H 1526.37 0.528119 -0.413922 0
M  V30 15744 H 1528.91 1.13441 -1.70151 0
M  V30 15745 H 1527.07 3.60228 -1.42529 0
M  V30 15746 H 1527.48 3.78451 -3.63146 0
M  V30 15747 H 1528.96 4.97104 -2.39983 0
M  V30 15748 H 1529.43 4.31149 -0.837071 0
M  V30 15749 H 1530.04 3.55803 -2.3299 0
M  V30 15750 N 1528.36 1.11264 1.11616 0
M  V30 15751 C 1529.29 0.79149 2.19676 0
M  V30 15752 C 1530.27 -0.239351 1.68408 0
M  V30 15753 O 1531.45 -0.103228 1.93925 0
M  V30 15754 C 1528.58 0.231891 3.46525 0
M  V30 15755 C 1527.54 1.19439 4.10997 0
M  V30 15756 C 1526.86 0.495593 5.32398 0
M  V30 15757 C 1528.16 2.54437 4.56135 0
M  V30 15758 H 1529.86 1.69503 2.46797 0
M  V30 15759 H 1527.4 0.816433 1.18619 0
M  V30 15760 H 1529.35 -0.00497468 4.214 0
M  V30 15761 H 1528.08 -0.706938 3.18857 0
M  V30 15762 H 1526.74 1.41686 3.38113 0
M  V30 15763 H 1526.39 -0.447984 5.01001 0
M  V30 15764 H 1526.09 1.13753 5.76484 0
M  V30 15765 H 1527.61 0.267476 6.10014 0
M  V30 15766 H 1529.02 2.36289 5.22341 0
M  V30 15767 H 1527.42 3.14595 5.11028 0
M  V30 15768 H 1528.49 3.13795 3.69676 0
M  V30 15769 N 1529.83 -1.29188 0.902679 0
M  V30 15770 C 1530.78 -2.27632 0.381088 0
M  V30 15771 C 1531.75 -1.57131 -0.538431 0
M  V30 15772 O 1532.94 -1.85096 -0.463027 0
M  V30 15773 C 1530.08 -3.42971 -0.382701 0
M  V30 15774 C 1529.19 -4.28249 0.568054 0
M  V30 15775 C 1528.32 -5.30772 -0.213082 0
M  V30 15776 C 1527.36 -6.07707 0.732004 0
M  V30 15777 N 1526.5 -7.02098 -0.0149139 0
M  V30 15778 H 1531.34 -2.71628 1.22566 0
M  V30 15779 H 1528.88 -1.33594 0.615724 0
M  V30 15780 H 1530.83 -4.08623 -0.841619 0
M  V30 15781 H 1529.46 -2.99997 -1.19171 0
M  V30 15782 H 1528.52 -3.62743 1.14549 0
M  V30 15783 H 1529.83 -4.81794 1.29136 0
M  V30 15784 H 1528.98 -6.02255 -0.733065 0
M  V30 15785 H 1527.72 -4.77966 -0.969504 0
M  V30 15786 H 1526.73 -5.35086 1.26346 0
M  V30 15787 H 1527.95 -6.62602 1.4878 0
M  V30 15788 H 1525.9 -6.51658 -0.753548 0
M  V30 15789 H 1525.81 -7.53214 0.648423 0
M  V30 15790 H 1527.08 -7.77796 -0.515062 0
M  V30 15791 N 1531.31 -0.665475 -1.42861 0
M  V30 15792 C 1532.72 -0.26225 -1.84849 0
M  V30 15793 C 1533.07 1.19372 -1.55707 0
M  V30 15794 O 1532.2 1.91269 -1.01218 0
M  V30 15795 C 1532.79 -0.469189 -3.35535 0
M  V30 15796 C 1531.35 -0.120172 -3.76208 0
M  V30 15797 C 1530.5 -0.766153 -2.66506 0
M  V30 15798 H 1533.45 -0.868296 -1.32839 0
M  V30 15799 H 1533.47 0.281571 -3.79457 0
M  V30 15800 H 1532.98 -1.52894 -3.56714 0
M  V30 15801 H 1531.08 0.936505 -3.60639 0
M  V30 15802 H 1531.2 -0.554188 -4.75884 0
M  V30 15803 H 1529.56 -0.198292 -2.53927 0
M  V30 15804 H 1530.34 -1.82918 -2.9051 0
M  V30 15805 N 1532.79 1.52222 -0.408187 0
M  V30 15806 C 1533.72 2.23468 0.462332 0
M  V30 15807 C 1534.7 1.24257 1.04876 0
M  V30 15808 O 1535.88 1.53305 1.0968 0
M  V30 15809 C 1533.01 2.96256 1.64165 0
M  V30 15810 C 1532.06 4.09889 1.1787 0
M  V30 15811 S 1532.89 5.35305 0.144629 0
M  V30 15812 C 1534.05 6.11621 1.3293 0
M  V30 15813 H 1534.28 2.96958 -0.142615 0
M  V30 15814 H 1531.81 1.53196 -0.19248 0
M  V30 15815 H 1533.77 3.38798 2.3179 0
M  V30 15816 H 1532.43 2.2241 2.21794 0
M  V30 15817 H 1531.62 4.59989 2.05977 0
M  V30 15818 H 1531.23 3.69458 0.581119 0
M  V30 15819 H 1533.52 6.38939 2.25306 0
M  V30 15820 H 1534.46 7.02749 0.86885 0
M  V30 15821 H 1534.87 5.4267 1.55466 0
M  V30 15822 N 1534.27 0.138579 1.5699 0
M  V30 15823 C 1535.52 -0.513611 1.95465 0
M  V30 15824 C 1535.84 -1.65952 1.02396 0
M  V30 15825 O 1535.11 -1.9572 0.0839001 0
M  V30 15826 H 1533.69 -0.192729 0.72171 0
M  V30 15827 H 1536.35 0.212107 1.93742 0
M  V30 15828 H 1535.44 -0.895313 2.98983 0
M  V30 15829 N 1535.75 -1.57019 -0.13521 0
M  V30 15830 C 1536.69 -2.0011 -1.18569 0
M  V30 15831 C 1537.69 -0.895372 -1.43804 0
M  V30 15832 O 1538.89 -1.08057 -1.43957 0
M  V30 15833 H 1535.27 -0.637176 -0.399388 0
M  V30 15834 H 1537.24 -2.87597 -0.795636 0
M  V30 15835 C 1535.99 -2.40769 -2.50849 0
M  V30 15836 H 1535.31 -3.25412 -2.32265 0
M  V30 15837 H 1536.75 -2.74733 -3.22951 0
M  V30 15838 C 1535.21 -1.26494 -3.12251 0
M  V30 15839 O 1535.74 -0.572067 -3.97606 0
M  V30 15840 N 1533.95 -1.02615 -2.7188 0
M  V30 15841 H 1533.49 -1.59136 -2.02567 0
M  V30 15842 H 1533.45 -0.263464 -3.13294 0
M  V30 15843 N 1537.22 0.404919 -1.52309 0
M  V30 15844 C 1538.19 1.47627 -1.75325 0
M  V30 15845 C 1539.19 1.48234 -0.623153 0
M  V30 15846 O 1540.38 1.49685 -0.891069 0
M  V30 15847 C 1537.51 2.87013 -1.83947 0
M  V30 15848 H 1538.7 1.2851 -2.70971 0
M  V30 15849 H 1536.26 0.635677 -1.42789 0
M  V30 15850 H 1536.99 3.11495 -0.902309 0
M  V30 15851 H 1536.78 2.87974 -2.66108 0
M  V30 15852 H 1538.27 3.64671 -2.03481 0
M  V30 15853 N 1538.7 1.43003 0.662408 0
M  V30 15854 C 1539.65 1.47448 1.77561 0
M  V30 15855 C 1540.62 0.325121 1.62887 0
M  V30 15856 O 1541.8 0.530971 1.83263 0
M  V30 15857 C 1538.94 1.3946 3.15666 0
M  V30 15858 C 1538.06 2.64529 3.41539 0
M  V30 15859 C 1537.19 2.48594 4.69441 0
M  V30 15860 C 1536.23 3.68976 4.88388 0
M  V30 15861 N 1535.37 3.51908 6.0754 0
M  V30 15862 H 1540.21 2.42573 1.73097 0
M  V30 15863 H 1537.75 1.2042 0.84484 0
M  V30 15864 H 1539.7 1.32824 3.95492 0
M  V30 15865 H 1538.33 0.479227 3.19223 0
M  V30 15866 H 1537.39 2.81481 2.55877 0
M  V30 15867 H 1538.7 3.53977 3.51429 0
M  V30 15868 H 1537.85 2.39614 5.57378 0
M  V30 15869 H 1536.59 1.56656 4.61855 0
M  V30 15870 H 1535.6 3.78374 3.9889 0
M  V30 15871 H 1536.82 4.61911 4.9781 0
M  V30 15872 H 1534.77 2.62697 6.01104 0
M  V30 15873 H 1534.68 4.34951 6.18347 0
M  V30 15874 H 1535.95 3.46763 6.98123 0
M  V30 15875 N 1540.18 -0.899904 1.29381 0
M  V30 15876 C 1541.59 -1.46563 1.15655 0
M  V30 15877 C 1541.94 -1.94622 -0.248375 0
M  V30 15878 O 1541.07 -1.83698 -1.14386 0
M  V30 15879 C 1541.66 -2.66384 2.09344 0
M  V30 15880 C 1540.22 -3.19093 1.99641 0
M  V30 15881 C 1539.37 -1.91786 2.00283 0
M  V30 15882 H 1542.32 -0.711264 1.41869 0
M  V30 15883 H 1542.34 -3.42111 1.66554 0
M  V30 15884 H 1541.85 -2.31376 3.11587 0
M  V30 15885 H 1539.95 -3.58795 1.00485 0
M  V30 15886 H 1540.07 -3.83405 2.87293 0
M  V30 15887 H 1538.43 -2.09482 1.44878 0
M  V30 15888 H 1539.21 -1.59055 3.04231 0
M  V30 15889 N 1541.66 -1.11854 -1.11024 0
M  V30 15890 C 1542.62 -0.784033 -2.15373 0
M  V30 15891 C 1543.62 0.198686 -1.59568 0
M  V30 15892 O 1544.81 -0.0263428 -1.7418 0
M  V30 15893 C 1541.94 -0.163987 -3.40505 0
M  V30 15894 H 1543.14 -1.70849 -2.46477 0
M  V30 15895 H 1540.69 -0.920988 -1.26283 0
M  V30 15896 H 1541.42 0.770483 -3.15014 0
M  V30 15897 H 1541.21 -0.871447 -3.82293 0
M  V30 15898 H 1542.7 0.0537739 -4.17565 0
M  V30 15899 N 1543.14 1.28707 -0.909517 0
M  V30 15900 C 1544.05 2.31171 -0.399628 0
M  V30 15901 C 1545.06 1.6634 0.510582 0
M  V30 15902 O 1546.24 1.97432 0.397792 0
M  V30 15903 C 1543.3 3.44869 0.355852 0
M  V30 15904 C 1542.36 4.25267 -0.587065 0
M  V30 15905 C 1541.6 5.33536 0.132456 0
M  V30 15906 O 1541.82 5.54075 1.35486 0
M  V30 15907 O 1540.75 5.99561 -0.530062 0
M  V30 15908 H 1544.58 2.76785 -1.24995 0
M  V30 15909 H 1542.17 1.33323 -0.674186 0
M  V30 15910 H 1544.05 4.14068 0.782692 0
M  V30 15911 H 1542.72 3.01345 1.18207 0
M  V30 15912 H 1541.63 3.58673 -1.06322 0
M  V30 15913 H 1542.96 4.72459 -1.37998 0
M  V30 15914 N 1544.61 0.673042 1.42506 0
M  V30 15915 C 1545.84 0.202922 2.05902 0
M  V30 15916 C 1546.26 -1.13923 1.50556 0
M  V30 15917 O 1545.61 -1.70735 0.644662 0
M  V30 15918 C 1545.67 0.12735 3.61276 0
M  V30 15919 O 1545.39 1.41646 4.1457 0
M  V30 15920 C 1546.89 -0.366477 4.41783 0
M  V30 15921 H 1544.11 0.0991021 0.663641 0
M  V30 15922 H 1546.65 0.919282 1.82673 0
M  V30 15923 H 1544.81 -0.539687 3.83622 0
M  V30 15924 H 1545.22 1.28866 5.08423 0
M  V30 15925 H 1546.69 -0.368267 5.5077 0
M  V30 15926 H 1547.17 -1.40142 4.16241 0
M  V30 15927 H 1547.78 0.268761 4.2445 0
M  V30 15928 N 1546.09 -1.52004 0.416254 0
M  V30 15929 C 1547.02 -2.30106 -0.396671 0
M  V30 15930 C 1548 -1.34616 -1.03983 0
M  V30 15931 O 1549.19 -1.63528 -1.04749 0
M  V30 15932 C 1546.32 -3.12769 -1.50972 0
M  V30 15933 C 1545.27 -4.16365 -0.99119 0
M  V30 15934 C 1544.6 -4.87417 -2.19838 0
M  V30 15935 C 1545.9 -5.22284 -0.0402599 0
M  V30 15936 H 1547.59 -2.98312 0.255054 0
M  V30 15937 H 1545.14 -1.43464 0.124106 0
M  V30 15938 H 1547.09 -3.66178 -2.08547 0
M  V30 15939 H 1545.82 -2.42346 -2.18943 0
M  V30 15940 H 1544.47 -3.63976 -0.437803 0
M  V30 15941 H 1544.12 -4.13516 -2.8638 0
M  V30 15942 H 1543.82 -5.57454 -1.85792 0
M  V30 15943 H 1545.35 -5.43641 -2.78006 0
M  V30 15944 H 1546.76 -5.70891 -0.525027 0
M  V30 15945 H 1545.16 -5.99726 0.211742 0
M  V30 15946 H 1546.23 -4.7642 0.902877 0
M  V30 15947 N 1547.57 -0.146903 -1.56914 0
M  V30 15948 C 1548.52 0.792821 -2.16756 0
M  V30 15949 C 1549.49 1.2442 -1.1004 0
M  V30 15950 O 1550.67 1.31674 -1.38081 0
M  V30 15951 C 1547.81 2.02659 -2.79327 0
M  V30 15952 C 1546.93 1.62102 -4.00433 0
M  V30 15953 C 1546.06 2.80658 -4.51004 0
M  V30 15954 C 1545.1 2.36474 -5.64576 0
M  V30 15955 N 1544.24 3.48038 -6.09766 0
M  V30 15956 H 1549.08 0.275708 -2.96722 0
M  V30 15957 H 1546.61 0.124374 -1.46573 0
M  V30 15958 H 1548.57 2.74986 -3.13749 0
M  V30 15959 H 1547.2 2.51781 -2.02005 0
M  V30 15960 H 1546.25 0.795407 -3.71991 0
M  V30 15961 H 1547.57 1.25652 -4.82714 0
M  V30 15962 H 1546.72 3.61175 -4.87481 0
M  V30 15963 H 1545.46 3.20353 -3.6773 0
M  V30 15964 H 1544.46 1.54397 -5.27676 0
M  V30 15965 H 1545.69 1.97865 -6.49635 0
M  V30 15966 H 1543.63 3.87354 -5.29427 0
M  V30 15967 H 1543.55 3.15602 -6.86972 0
M  V30 15968 H 1544.82 4.28912 -6.50887 0
M  V30 15969 N 1549.05 1.57088 0.126881 0
M  V30 15970 C 1550.46 1.73685 0.684865 0
M  V30 15971 C 1550.81 0.764401 1.80697 0
M  V30 15972 O 1549.94 -0.0644761 2.16304 0
M  V30 15973 C 1550.53 3.14933 1.24911 0
M  V30 15974 C 1549.09 3.33063 1.75346 0
M  V30 15975 C 1548.24 2.69575 0.649976 0
M  V30 15976 H 1551.19 1.58391 -0.0989715 0
M  V30 15977 H 1551.21 3.16047 2.11884 0
M  V30 15978 H 1550.72 3.85686 0.432204 0
M  V30 15979 H 1548.82 2.67339 2.59539 0
M  V30 15980 H 1548.93 4.41169 1.86833 0
M  V30 15981 H 1547.3 2.30592 1.08163 0
M  V30 15982 H 1548.08 3.42946 -0.15582 0
M  V30 15983 N 1550.53 -0.396836 1.52522 0
M  V30 15984 C 1551.46 -1.50564 1.71481 0
M  V30 15985 C 1552.44 -1.5256 0.562524 0
M  V30 15986 O 1553.62 -1.71083 0.791378 0
M  V30 15987 C 1550.75 -2.89058 1.76531 0
M  V30 15988 C 1549.79 -3.04922 2.98202 0
M  V30 15989 S 1550.63 -2.76944 4.58326 0
M  V30 15990 C 1551.78 -4.17645 4.66179 0
M  V30 15991 H 1552.02 -1.34256 2.6526 0
M  V30 15992 H 1549.55 -0.589208 1.42715 0
M  V30 15993 H 1551.51 -3.6887 1.80125 0
M  V30 15994 H 1550.17 -3.02699 0.838582 0
M  V30 15995 H 1549.36 -4.06277 2.98254 0
M  V30 15996 H 1548.96 -2.32992 2.92559 0
M  V30 15997 H 1551.26 -5.11461 4.44312 0
M  V30 15998 H 1552.2 -4.22612 5.68159 0
M  V30 15999 H 1552.61 -4.03189 3.95093 0
M  V30 16000 N 1552.01 -1.43353 -0.654814 0
M  V30 16001 C 1553.25 -1.44599 -1.41193 0
M  V30 16002 C 1553.57 -0.0707955 -1.94871 0
M  V30 16003 O 1552.84 0.893637 -1.7433 0
M  V30 16004 H 1551.42 -0.532373 -0.524011 0
M  V30 16005 H 1554.09 -1.78942 -0.772388 0
M  V30 16006 H 1553.18 -2.15761 -2.25508 0
M  V30 16007 N 1553.48 0.89303 -1.29857 0
M  V30 16008 C 1554.43 2.01928 -1.15447 0
M  V30 16009 C 1555.43 1.69262 -0.0683677 0
M  V30 16010 O 1556.63 1.78542 -0.228646 0
M  V30 16011 H 1553.01 0.661961 -0.356807 0
M  V30 16012 H 1554.98 2.11218 -2.10784 0
M  V30 16013 C 1553.73 3.37031 -0.85473 0
M  V30 16014 H 1553.05 3.62673 -1.68251 0
M  V30 16015 H 1554.49 4.165 -0.793973 0
M  V30 16016 C 1552.95 3.33986 0.442183 0
M  V30 16017 O 1553.48 3.73986 1.4662 0
M  V30 16018 N 1551.68 2.87088 0.450438 0
M  V30 16019 H 1551.23 2.54732 -0.383347 0
M  V30 16020 H 1551.19 2.85433 1.31815 0
M  V30 16021 N 1554.96 1.12442 1.10429 0
M  V30 16022 C 1555.92 0.795443 2.14954 0
M  V30 16023 C 1556.92 -0.19022 1.59671 0
M  V30 16024 O 1558.11 0.0355797 1.74164 0
M  V30 16025 C 1555.25 0.182043 3.40414 0
M  V30 16026 H 1556.44 1.72153 2.45567 0
M  V30 16027 H 1553.99 0.927672 1.25793 0
M  V30 16028 H 1554.73 -0.753766 3.15419 0
M  V30 16029 H 1554.51 0.891708 3.81826 0
M  V30 16030 H 1556 -0.0316286 4.17588 0
M  V30 16031 N 1556.44 -1.28223 0.91633 0
M  V30 16032 C 1557.39 -2.27215 0.40521 0
M  V30 16033 C 1558.36 -1.57693 -0.521734 0
M  V30 16034 O 1559.54 -1.85577 -0.443369 0
M  V30 16035 C 1556.68 -3.43358 -0.346303 0
M  V30 16036 C 1555.79 -4.27622 0.613443 0
M  V30 16037 C 1554.93 -5.30969 -0.156775 0
M  V30 16038 C 1553.97 -6.06897 0.796418 0
M  V30 16039 N 1553.11 -7.02075 0.0595539 0
M  V30 16040 H 1557.95 -2.70312 1.2544 0
M  V30 16041 H 1555.48 -1.32933 0.629859 0
M  V30 16042 H 1557.44 -4.09492 -0.798231 0
M  V30 16043 H 1556.07 -3.01244 -1.15982 0
M  V30 16044 H 1555.12 -3.61508 1.1839 0
M  V30 16045 H 1556.43 -4.80397 1.34239 0
M  V30 16046 H 1555.59 -6.02999 -0.669146 0
M  V30 16047 H 1554.33 -4.78968 -0.918755 0
M  V30 16048 H 1553.33 -5.33716 1.32014 0
M  V30 16049 H 1554.56 -6.60987 1.558 0
M  V30 16050 H 1552.5 -6.5242 -0.684388 0
M  V30 16051 H 1552.42 -7.52484 0.728275 0
M  V30 16052 H 1553.69 -7.78299 -0.432538 0
M  V30 16053 N 1557.92 -0.68059 -1.42147 0
M  V30 16054 C 1559.33 -0.281841 -1.8456 0
M  V30 16055 C 1559.68 1.17714 -1.56965 0
M  V30 16056 O 1558.8 1.90185 -1.03241 0
M  V30 16057 C 1559.4 -0.504751 -3.35019 0
M  V30 16058 C 1557.96 -0.160067 -3.76059 0
M  V30 16059 C 1557.11 -0.794377 -2.65678 0
M  V30 16060 H 1560.06 -0.882337 -1.31911 0
M  V30 16061 H 1560.08 0.241308 -3.79734 0
M  V30 16062 H 1559.59 -1.56669 -3.55072 0
M  V30 16063 H 1557.69 0.898202 -3.61612 0
M  V30 16064 H 1557.8 -0.60463 -4.75269 0
M  V30 16065 H 1556.17 -0.225213 -2.53702 0
M  V30 16066 H 1556.95 -1.85989 -2.88553 0
M  V30 16067 N 1559.4 1.51781 -0.424309 0
M  V30 16068 C 1560.67 1.94514 0.205791 0
M  V30 16069 C 1561.05 1.36219 1.61269 0
M  V30 16070 O 1560.4 0.544019 2.21929 0
M  V30 16071 C 1560.61 3.48445 0.196749 0
M  V30 16072 C 1561.96 4.22628 0.408702 0
M  V30 16073 O 1562.98 3.55133 0.275441 0
M  V30 16074 O 1561.84 5.42344 0.672698 0
M  V30 16075 H 1558.94 0.815576 0.136983 0
M  V30 16076 H 1561.48 1.6273 -0.481349 0
M  V30 16077 H 1560.25 3.83297 -0.787342 0
M  V30 16078 H 1559.88 3.86634 0.92735 0
M  V30 16079 N 1560.87 0.155222 1.56834 0
M  V30 16080 C 1561.78 -0.794179 2.20749 0
M  V30 16081 C 1562.8 -1.26546 1.19424 0
M  V30 16082 O 1563.98 -1.32094 1.5203 0
M  V30 16083 C 1561.04 -2.01261 2.82303 0
M  V30 16084 C 1560.1 -1.58976 3.98779 0
M  V30 16085 C 1559.33 -2.75011 4.57389 0
M  V30 16086 O 1559.56 -3.91449 4.14879 0
M  V30 16087 O 1558.49 -2.50011 5.4752 0
M  V30 16088 H 1562.32 -0.280064 3.02406 0
M  V30 16089 H 1559.9 -0.0722048 1.49225 0
M  V30 16090 H 1561.78 -2.72551 3.21394 0
M  V30 16091 H 1560.46 -2.51609 2.03653 0
M  V30 16092 H 1559.37 -0.846848 3.64389 0
M  V30 16093 H 1560.7 -1.13336 4.78974 0
M  V30 16094 N 1562.35 -1.57153 -0.118549 0
M  V30 16095 C 1563.3 -2.01357 -1.1644 0
M  V30 16096 C 1564.29 -0.910574 -1.42846 0
M  V30 16097 O 1565.5 -1.09578 -1.42803 0
M  V30 16098 H 1561.87 -0.641376 -0.392607 0
M  V30 16099 H 1563.85 -2.88425 -0.765087 0
M  V30 16100 C 1562.59 -2.43416 -2.48282 0
M  V30 16101 H 1561.92 -3.27857 -2.288 0
M  V30 16102 H 1563.36 -2.78143 -3.20019 0
M  V30 16103 C 1561.82 -1.29799 -3.10892 0
M  V30 16104 O 1562.35 -0.614207 -3.96977 0
M  V30 16105 N 1560.55 -1.05493 -2.70776 0
M  V30 16106 H 1560.1 -1.61276 -2.00868 0
M  V30 16107 H 1560.06 -0.296678 -3.12997 0
M  V30 16108 N 1563.83 0.388742 -1.5273 0
M  V30 16109 C 1564.76 1.48133 -1.80496 0
M  V30 16110 C 1565.74 1.56899 -0.657008 0
M  V30 16111 O 1566.93 1.71844 -0.904621 0
M  V30 16112 C 1564.06 2.85742 -1.97405 0
M  V30 16113 C 1563.01 2.91815 -3.13094 0
M  V30 16114 C 1562.34 4.31876 -3.15258 0
M  V30 16115 C 1563.64 2.61438 -4.52159 0
M  V30 16116 H 1565.33 1.25147 -2.7199 0
M  V30 16117 H 1562.88 0.600603 -1.30877 0
M  V30 16118 H 1564.83 3.62182 -2.15412 0
M  V30 16119 H 1563.55 3.10065 -1.02601 0
M  V30 16120 H 1562.21 2.17824 -2.9487 0
M  V30 16121 H 1561.86 4.53239 -2.18135 0
M  V30 16122 H 1561.56 4.3686 -3.92972 0
M  V30 16123 H 1563.08 5.10221 -3.3542 0
M  V30 16124 H 1564.5 3.27596 -4.70483 0
M  V30 16125 H 1562.89 2.77771 -5.31943 0
M  V30 16126 H 1563.96 1.56778 -4.58856 0
M  V30 16127 N 1565.31 1.43698 0.647203 0
M  V30 16128 C 1566.25 1.49323 1.75987 0
M  V30 16129 C 1567.22 0.342379 1.62533 0
M  V30 16130 O 1568.41 0.550379 1.8269 0
M  V30 16131 C 1565.55 1.428 3.14169 0
M  V30 16132 C 1564.66 2.68136 3.38714 0
M  V30 16133 C 1563.8 2.53559 4.66778 0
M  V30 16134 C 1562.84 3.74135 4.84447 0
M  V30 16135 N 1561.97 3.58332 6.03774 0
M  V30 16136 H 1566.81 2.44395 1.70514 0
M  V30 16137 H 1564.35 1.21309 0.832021 0
M  V30 16138 H 1566.31 1.37011 3.94061 0
M  V30 16139 H 1564.94 0.513057 3.18697 0
M  V30 16140 H 1563.99 2.84179 2.52877 0
M  V30 16141 H 1565.3 3.57684 3.47654 0
M  V30 16142 H 1564.46 2.45513 5.54805 0
M  V30 16143 H 1563.2 1.61545 4.60168 0
M  V30 16144 H 1562.2 3.82584 3.94854 0
M  V30 16145 H 1563.43 4.67165 4.92883 0
M  V30 16146 H 1561.37 2.69057 5.98284 0
M  V30 16147 H 1561.29 4.41485 6.13699 0
M  V30 16148 H 1562.56 3.54148 6.94406 0
M  V30 16149 N 1566.79 -0.886131 1.30328 0
M  V30 16150 C 1568.01 -1.67625 1.22134 0
M  V30 16151 C 1568.44 -1.86893 -0.212712 0
M  V30 16152 O 1567.79 -1.39905 -1.1531 0
M  V30 16153 C 1567.84 -3.03068 1.95402 0
M  V30 16154 O 1566.95 -3.92022 1.28032 0
M  V30 16155 H 1566.29 -0.512246 0.422493 0
M  V30 16156 H 1568.82 -1.10602 1.72129 0
M  V30 16157 H 1568.83 -3.53119 2.04379 0
M  V30 16158 H 1567.5 -2.88363 2.99699 0
M  V30 16159 H 1566.08 -3.50461 1.27402 0
M  V30 16160 N 1568.26 -1.13026 -1.09832 0
M  V30 16161 C 1569.23 -0.806832 -2.14529 0
M  V30 16162 C 1570.23 0.18175 -1.5977 0
M  V30 16163 O 1571.42 -0.0448155 -1.74142 0
M  V30 16164 C 1568.55 -0.200093 -3.40312 0
M  V30 16165 H 1569.74 -1.73453 -2.44651 0
M  V30 16166 H 1567.3 -0.934331 -1.25299 0
M  V30 16167 H 1568.03 0.737028 -3.15814 0
M  V30 16168 H 1567.82 -0.911945 -3.81348 0
M  V30 16169 H 1569.31 0.00948247 -4.17599 0
M  V30 16170 N 1569.74 1.27735 -0.923117 0
M  V30 16171 C 1570.97 1.9922 -0.57672 0
M  V30 16172 C 1571.39 1.68446 0.837113 0
M  V30 16173 O 1570.75 0.922129 1.56098 0
M  V30 16174 C 1570.8 3.51528 -0.803768 0
M  V30 16175 O 1569.9 4.12186 0.132829 0
M  V30 16176 H 1569.24 0.625593 -0.222553 0
M  V30 16177 H 1571.77 1.62657 -1.24112 0
M  V30 16178 H 1571.78 4.01641 -0.717534 0
M  V30 16179 H 1570.46 3.7326 -1.83439 0
M  V30 16180 H 1569.04 3.729 -0.00292957 0
M  V30 16181 N 1571.22 0.688118 1.41784 0
M  V30 16182 C 1572.17 0.018099 2.30793 0
M  V30 16183 C 1573.14 -0.779009 1.46699 0
M  V30 16184 O 1574.32 -0.748556 1.75503 0
M  V30 16185 C 1571.46 -0.91769 3.32675 0
M  V30 16186 C 1570.58 -0.11299 4.31852 0
M  V30 16187 C 1569.71 -1.04574 5.20805 0
M  V30 16188 C 1568.75 -0.233509 6.11654 0
M  V30 16189 N 1567.89 -1.11967 6.93115 0
M  V30 16190 H 1572.73 0.782911 2.87532 0
M  V30 16191 H 1570.26 0.397806 1.41619 0
M  V30 16192 H 1572.22 -1.47421 3.90286 0
M  V30 16193 H 1570.85 -1.64898 2.77504 0
M  V30 16194 H 1569.9 0.560344 3.7625 0
M  V30 16195 H 1571.22 0.517033 4.96113 0
M  V30 16196 H 1570.37 -1.67174 5.83213 0
M  V30 16197 H 1569.11 -1.70963 4.56753 0
M  V30 16198 H 1568.11 0.405614 5.48302 0
M  V30 16199 H 1569.34 0.426479 6.7776 0
M  V30 16200 H 1567.28 -1.76972 6.31678 0
M  V30 16201 H 1567.2 -0.545042 7.54033 0
M  V30 16202 H 1568.47 -1.73272 7.59998 0
M  V30 16203 N 1572.7 -1.51554 0.432352 0
M  V30 16204 C 1573.61 -2.31371 -0.387885 0
M  V30 16205 C 1574.62 -1.40072 -1.03227 0
M  V30 16206 O 1575.8 -1.73145 -1.02873 0
M  V30 16207 C 1572.87 -3.13662 -1.47705 0
M  V30 16208 C 1571.93 -4.20734 -0.853315 0
M  V30 16209 C 1571.16 -4.99092 -1.89058 0
M  V30 16210 O 1571.38 -4.78022 -3.11209 0
M  V30 16211 O 1570.32 -5.83322 -1.48389 0
M  V30 16212 H 1574.14 -3.02554 0.263578 0
M  V30 16213 H 1571.73 -1.48122 0.195004 0
M  V30 16214 H 1573.61 -3.64837 -2.10884 0
M  V30 16215 H 1572.28 -2.45249 -2.11269 0
M  V30 16216 H 1571.19 -3.73649 -0.183616 0
M  V30 16217 H 1572.52 -4.91506 -0.261244 0
M  V30 16218 N 1574.18 -0.163538 -1.56749 0
M  V30 16219 C 1575.09 0.782461 -2.21167 0
M  V30 16220 C 1576.1 1.25911 -1.20093 0
M  V30 16221 O 1577.28 1.31286 -1.52728 0
M  V30 16222 C 1574.34 1.99761 -2.83366 0
M  V30 16223 C 1573.4 1.56859 -3.99617 0
M  V30 16224 C 1572.64 2.72582 -4.58841 0
M  V30 16225 O 1572.86 3.89243 -4.16949 0
M  V30 16226 O 1571.79 2.47104 -5.48838 0
M  V30 16227 H 1575.62 0.264023 -3.0255 0
M  V30 16228 H 1573.21 0.06429 -1.49262 0
M  V30 16229 H 1575.09 2.70843 -3.22835 0
M  V30 16230 H 1573.76 2.50526 -2.04984 0
M  V30 16231 H 1572.67 0.827511 -3.64833 0
M  V30 16232 H 1574 1.10794 -4.79568 0
M  V30 16233 N 1575.65 1.57214 0.110213 0
M  V30 16234 C 1576.58 2.04015 1.13579 0
M  V30 16235 C 1577.57 0.926215 1.42672 0
M  V30 16236 O 1578.75 1.19651 1.52962 0
M  V30 16237 C 1575.88 2.45187 2.45969 0
M  V30 16238 C 1574.83 3.60105 2.31319 0
M  V30 16239 C 1574.16 3.87205 3.68749 0
M  V30 16240 C 1575.46 4.91526 1.76635 0
M  V30 16241 H 1577.15 2.89944 0.746496 0
M  V30 16242 H 1574.7 1.39488 0.357642 0
M  V30 16243 H 1576.65 2.76534 3.17973 0
M  V30 16244 H 1575.38 1.56238 2.86805 0
M  V30 16245 H 1574.04 3.28981 1.61762 0
M  V30 16246 H 1573.68 2.95448 4.07087 0
M  V30 16247 H 1573.38 4.64563 3.59798 0
M  V30 16248 H 1574.91 4.21013 4.42245 0
M  V30 16249 H 1576.32 5.21351 2.38465 0
M  V30 16250 H 1574.72 5.72944 1.78482 0
M  V30 16251 H 1575.79 4.79456 0.724573 0
M  V30 16252 N 1577.13 -0.380637 1.52934 0
M  V30 16253 C 1578.08 -1.46544 1.78307 0
M  V30 16254 C 1579.05 -1.53825 0.626671 0
M  V30 16255 O 1580.23 -1.6995 0.867276 0
M  V30 16256 C 1577.37 -2.83676 1.96525 0
M  V30 16257 C 1576.49 -2.85481 3.24229 0
M  V30 16258 C 1575.62 -4.14092 3.32718 0
M  V30 16259 C 1574.66 -4.09982 4.54512 0
M  V30 16260 N 1573.8 -5.30214 4.60237 0
M  V30 16261 H 1578.64 -1.24209 2.7088 0
M  V30 16262 H 1576.18 -0.60241 1.34199 0
M  V30 16263 H 1578.13 -3.63319 2.05073 0
M  V30 16264 H 1576.76 -3.04443 1.07304 0
M  V30 16265 H 1575.82 -1.98159 3.24711 0
M  V30 16266 H 1577.13 -2.78313 4.13936 0
M  V30 16267 H 1576.28 -5.02144 3.40494 0
M  V30 16268 H 1575.02 -4.23993 2.41 0
M  V30 16269 H 1574.03 -3.20317 4.46852 0
M  V30 16270 H 1575.25 -4.01696 5.47556 0
M  V30 16271 H 1573.2 -5.40729 3.71414 0
M  V30 16272 H 1573.11 -5.25155 5.43827 0
M  V30 16273 H 1574.38 -6.2014 4.72279 0
M  V30 16274 N 1578.61 -1.44039 -0.639573 0
M  V30 16275 C 1579.56 -1.50254 -1.75192 0
M  V30 16276 C 1580.53 -0.350994 -1.62349 0
M  V30 16277 O 1581.71 -0.56006 -1.82395 0
M  V30 16278 C 1578.85 -1.44464 -3.13407 0
M  V30 16279 C 1577.97 -2.69929 -3.37287 0
M  V30 16280 C 1577.1 -2.56031 -4.65426 0
M  V30 16281 C 1576.14 -3.76699 -4.82456 0
M  V30 16282 N 1575.28 -3.61529 -6.01865 0
M  V30 16283 H 1580.12 -2.45296 -1.69216 0
M  V30 16284 H 1577.65 -1.21748 -0.825576 0
M  V30 16285 H 1579.61 -1.39099 -3.93328 0
M  V30 16286 H 1578.24 -0.529951 -3.1842 0
M  V30 16287 H 1577.29 -2.85516 -2.51366 0
M  V30 16288 H 1578.61 -3.59523 -3.45753 0
M  V30 16289 H 1577.76 -2.48451 -5.53495 0
M  V30 16290 H 1576.5 -1.63983 -4.59305 0
M  V30 16291 H 1575.5 -3.84672 -3.92819 0
M  V30 16292 H 1576.73 -4.69772 -4.90398 0
M  V30 16293 H 1574.67 -2.72226 -5.96849 0
M  V30 16294 H 1574.59 -4.44733 -6.1135 0
M  V30 16295 H 1575.86 -3.57826 -6.92518 0
M  V30 16296 N 1580.09 0.879207 -1.30796 0
M  V30 16297 C 1581.37 1.61328 -1.10602 0
M  V30 16298 C 1581.75 2.08301 0.342621 0
M  V30 16299 O 1581.09 1.85436 1.33514 0
M  V30 16300 C 1581.3 2.77838 -2.11203 0
M  V30 16301 C 1582.65 3.48028 -2.43231 0
M  V30 16302 O 1583.68 2.88034 -2.09559 0
M  V30 16303 O 1582.53 4.56233 -3.00854 0
M  V30 16304 H 1579.63 0.709335 -0.425174 0
M  V30 16305 H 1582.17 0.925478 -1.42243 0
M  V30 16306 H 1580.95 2.40475 -3.08687 0
M  V30 16307 H 1580.57 3.54312 -1.80414 0
M  V30 16308 N 1581.57 1.13606 1.09231 0
M  V30 16309 C 1582.81 0.900386 1.81717 0
M  V30 16310 C 1583.15 -0.571984 1.85586 0
M  V30 16311 O 1582.42 -1.42336 1.32554 0
M  V30 16312 C 1582.7 1.49143 3.27763 0
M  V30 16313 C 1582.56 3.03306 3.32153 0
M  V30 16314 C 1583.88 1.16129 4.24502 0
M  V30 16315 H 1581 0.328531 0.659724 0
M  V30 16316 H 1583.64 1.40467 1.27941 0
M  V30 16317 H 1581.79 1.06256 3.73687 0
M  V30 16318 H 1583.46 3.54963 2.94617 0
M  V30 16319 H 1581.7 3.38192 2.71677 0
M  V30 16320 H 1582.37 3.39761 4.35047 0
M  V30 16321 H 1584.85 1.53193 3.86874 0
M  V30 16322 H 1583.73 1.60129 5.25024 0
M  V30 16323 H 1583.99 0.0752973 4.42036 0
M  V30 16324 N 1583.05 -1.27244 0.929878 0
M  V30 16325 C 1583.99 -2.26773 0.429287 0
M  V30 16326 C 1584.96 -1.58238 -0.50498 0
M  V30 16327 O 1586.15 -1.86037 -0.423661 0
M  V30 16328 C 1583.29 -3.43706 -0.309865 0
M  V30 16329 C 1582.4 -4.26948 0.658764 0
M  V30 16330 C 1581.54 -5.31105 -0.10045 0
M  V30 16331 C 1580.57 -6.06018 0.860743 0
M  V30 16332 N 1579.71 -7.01972 0.134015 0
M  V30 16333 H 1584.55 -2.68967 1.283 0
M  V30 16334 H 1582.09 -1.32257 0.643923 0
M  V30 16335 H 1584.05 -4.10316 -0.754754 0
M  V30 16336 H 1582.68 -3.02457 -1.1278 0
M  V30 16337 H 1581.73 -3.60232 1.22218 0
M  V30 16338 H 1583.04 -4.78946 1.39326 0
M  V30 16339 H 1582.19 -6.03674 -0.605153 0
M  V30 16340 H 1580.93 -4.79915 -0.867902 0
M  V30 16341 H 1579.94 -5.32285 1.37668 0
M  V30 16342 H 1581.16 -6.59297 1.62801 0
M  V30 16343 H 1579.11 -6.53109 -0.615152 0
M  V30 16344 H 1579.03 -7.51669 0.808045 0
M  V30 16345 H 1580.29 -7.78714 -0.349964 0
M  V30 16346 N 1584.52 -0.695628 -1.41417 0
M  V30 16347 C 1585.47 -0.0189456 -2.32592 0
M  V30 16348 C 1586.47 0.76848 -1.50966 0
M  V30 16349 O 1587.67 0.674096 -1.66901 0
M  V30 16350 H 1584.05 0.0126742 -0.751893 0
M  V30 16351 H 1586.02 -0.804968 -2.87337 0
M  V30 16352 C 1584.77 0.903458 -3.35757 0
M  V30 16353 H 1584.09 0.306963 -3.9862 0
M  V30 16354 H 1585.53 1.34525 -4.02093 0
M  V30 16355 C 1583.99 2.01966 -2.69651 0
M  V30 16356 O 1584.52 3.10845 -2.54438 0
M  V30 16357 N 1582.72 1.79741 -2.28345 0
M  V30 16358 H 1582.27 0.911929 -2.40918 0
M  V30 16359 H 1582.23 2.54609 -1.84449 0
M  V30 16360 N 1586 1.51322 -0.440383 0
M  V30 16361 C 1587.28 1.94722 0.185148 0
M  V30 16362 C 1587.66 1.37922 1.59815 0
M  V30 16363 O 1587.01 0.567527 2.2134 0
M  V30 16364 C 1587.22 3.48634 0.159781 0
M  V30 16365 C 1588.56 4.23038 0.363853 0
M  V30 16366 O 1589.59 3.55406 0.237759 0
M  V30 16367 O 1588.45 5.43027 0.615137 0
M  V30 16368 H 1585.54 0.816983 0.128325 0
M  V30 16369 H 1588.09 1.62211 -0.498581 0
M  V30 16370 H 1586.86 3.8244 -0.827952 0
M  V30 16371 H 1586.48 3.87596 0.88629 0
M  V30 16372 N 1587.48 0.171848 1.5666 0
M  V30 16373 C 1588.73 -0.473669 1.97191 0
M  V30 16374 C 1589.06 -1.6286 1.05784 0
M  V30 16375 O 1588.33 -1.94216 0.105084 0
M  V30 16376 C 1588.62 -0.956134 3.47174 0
M  V30 16377 C 1588.47 0.199007 4.4936 0
M  V30 16378 C 1589.79 -1.82962 4.00266 0
M  V30 16379 H 1586.91 -0.170704 0.716958 0
M  V30 16380 H 1589.55 0.25809 1.88239 0
M  V30 16381 H 1587.7 -1.57969 3.54934 0
M  V30 16382 H 1589.37 0.836109 4.53659 0
M  V30 16383 H 1587.61 0.85442 4.25302 0
M  V30 16384 H 1588.29 -0.180704 5.51704 0
M  V30 16385 H 1590.76 -1.30394 3.95141 0
M  V30 16386 H 1589.64 -2.13621 5.05625 0
M  V30 16387 H 1589.9 -2.77557 3.44114 0
M  V30 16388 N 1588.96 -1.5727 -0.101874 0
M  V30 16389 C 1589.91 -2.0258 -1.14297 0
M  V30 16390 C 1590.9 -0.925674 -1.41872 0
M  V30 16391 O 1592.11 -1.11086 -1.41633 0
M  V30 16392 H 1588.48 -0.645504 -0.385782 0
M  V30 16393 H 1590.45 -2.8922 -0.734453 0
M  V30 16394 C 1589.2 -2.46036 -2.45686 0
M  V30 16395 H 1588.52 -3.30266 -2.2531 0
M  V30 16396 H 1589.96 -2.81522 -3.17051 0
M  V30 16397 C 1588.42 -1.33089 -3.09498 0
M  V30 16398 O 1588.95 -0.656277 -3.96303 0
M  V30 16399 N 1587.16 -1.08359 -2.69642 0
M  V30 16400 H 1586.71 -1.63397 -1.99146 0
M  V30 16401 H 1586.66 -0.329859 -3.12665 0
M  V30 16402 N 1590.44 0.372521 -1.53134 0
M  V30 16403 C 1591.68 1.12465 -1.70678 0
M  V30 16404 C 1592.04 1.8676 -0.445503 0
M  V30 16405 O 1593.24 2.64155 -0.497531 0
M  V30 16406 C 1591.51 2.06389 -2.91785 0
M  V30 16407 S 1593.07 2.89216 -3.3 0
M  V30 16408 H 1589.89 0.380458 -0.600644 0
M  V30 16409 H 1592.49 0.406831 -1.9122 0
M  V30 16410 H 1591.19 1.50559 -3.81786 0
M  V30 16411 H 1590.73 2.82654 -2.73624 0
M  V30 16412 H 1592.74 4.08642 -2.81471 0
M  V30 16413 N 1591.91 1.44376 0.631925 0
M  V30 16414 C 1592.86 1.51181 1.74393 0
M  V30 16415 C 1593.83 0.359599 1.62161 0
M  V30 16416 O 1595.02 0.569725 1.82096 0
M  V30 16417 C 1592.16 1.46124 3.12637 0
M  V30 16418 C 1591.27 2.71714 3.35851 0
M  V30 16419 C 1590.4 2.58496 4.64062 0
M  V30 16420 C 1589.44 3.79252 4.80452 0
M  V30 16421 N 1588.58 3.64715 5.99939 0
M  V30 16422 H 1593.42 2.4619 1.67912 0
M  V30 16423 H 1590.96 1.22184 0.819108 0
M  V30 16424 H 1592.91 1.41183 3.92585 0
M  V30 16425 H 1591.54 0.546831 3.18135 0
M  V30 16426 H 1590.6 2.86845 2.49848 0
M  V30 16427 H 1591.91 3.61351 3.43841 0
M  V30 16428 H 1591.06 2.51383 5.5217 0
M  V30 16429 H 1589.8 1.66417 4.58428 0
M  V30 16430 H 1588.81 3.8675 3.90774 0
M  V30 16431 H 1590.03 4.72367 4.879 0
M  V30 16432 H 1587.98 2.75388 5.95397 0
M  V30 16433 H 1587.89 4.47969 6.08982 0
M  V30 16434 H 1589.16 3.61493 6.90611 0
M  V30 16435 N 1593.39 -0.872258 1.31261 0
M  V30 16436 C 1594.81 -1.15763 1.09868 0
M  V30 16437 C 1595.01 -2.01065 -0.132331 0
M  V30 16438 O 1594.06 -2.38735 -0.822317 0
M  V30 16439 C 1595.38 -1.85199 2.36901 0
M  V30 16440 C 1596.92 -1.9791 2.42489 0
M  V30 16441 C 1597.4 -2.70759 3.69396 0
M  V30 16442 N 1598.89 -2.78296 3.70278 0
M  V30 16443 C 1599.63 -3.3527 4.65168 0
M  V30 16444 N 1599.12 -3.93193 5.70413 0
M  V30 16445 N 1600.91 -3.33206 4.52692 0
M  V30 16446 H 1593.07 -0.303784 2.10216 0
M  V30 16447 H 1595.33 -0.197172 0.927269 0
M  V30 16448 H 1595.03 -1.29968 3.26804 0
M  V30 16449 H 1594.91 -2.85493 2.46523 0
M  V30 16450 H 1597.3 -2.52305 1.53056 0
M  V30 16451 H 1597.38 -0.966644 2.36833 0
M  V30 16452 H 1597.02 -2.17031 4.59195 0
M  V30 16453 H 1596.95 -3.72407 3.72318 0
M  V30 16454 H 1599.44 -2.37185 2.94197 0
M  V30 16455 H 1599.75 -4.34771 6.38901 0
M  V30 16456 H 1598.1 -3.91575 5.7419 0
M  V30 16457 H 1601.29 -2.87191 3.69647 0
M  V30 16458 H 1601.46 -3.7731 5.26822 0
M  V30 16459 N 1594.87 -1.14184 -1.08627 0
M  V30 16460 C 1596.12 -0.906869 -1.80611 0
M  V30 16461 C 1596.44 0.568182 -1.86539 0
M  V30 16462 O 1595.71 1.41301 -1.35687 0
M  V30 16463 H 1594.29 -0.332523 -0.668908 0
M  V30 16464 H 1596.95 -1.43998 -1.31341 0
M  V30 16465 H 1596.05 -1.30484 -2.83514 0
M  V30 16466 N 1596.35 1.26749 -0.936613 0
M  V30 16467 C 1597.3 2.24218 -0.413552 0
M  V30 16468 C 1598.28 1.53347 0.487172 0
M  V30 16469 O 1599.47 1.74025 0.323163 0
M  V30 16470 C 1596.6 3.41765 0.324304 0
M  V30 16471 C 1595.69 4.19927 -0.593449 0
M  V30 16472 N 1596.08 4.75757 -1.71722 0
M  V30 16473 C 1594.38 4.44219 -0.398158 0
M  V30 16474 C 1595.08 5.34781 -2.28876 0
M  V30 16475 N 1594.06 5.20214 -1.5773 0
M  V30 16476 H 1597.86 2.64974 -1.27146 0
M  V30 16477 H 1595.37 1.41782 -0.791938 0
M  V30 16478 H 1597.37 4.10705 0.716034 0
M  V30 16479 H 1596.03 3.02538 1.17903 0
M  V30 16480 H 1597.04 4.73438 -2.09945 0
M  V30 16481 H 1593.72 4.15431 0.415175 0
M  V30 16482 H 1595.11 5.88875 -3.23536 0
M  V30 16483 N 1597.83 0.703118 1.41046 0
M  V30 16484 C 1598.79 0.0514476 2.29142 0
M  V30 16485 C 1599.79 -0.700223 1.44753 0
M  V30 16486 O 1600.98 -0.533985 1.65814 0
M  V30 16487 C 1598.11 -0.93735 3.2776 0
M  V30 16488 H 1599.3 0.827201 2.88266 0
M  V30 16489 H 1596.86 0.467045 1.49159 0
M  V30 16490 H 1597.59 -1.7406 2.7363 0
M  V30 16491 H 1597.38 -0.4014 3.9004 0
M  V30 16492 H 1598.87 -1.39088 3.93757 0
M  V30 16493 N 1599.3 -1.51086 0.448402 0
M  V30 16494 C 1600.55 -2.01778 -0.114116 0
M  V30 16495 C 1600.87 -1.3339 -1.4224 0
M  V30 16496 O 1600.14 -0.471938 -1.9013 0
M  V30 16497 H 1598.72 -0.745634 -0.0451624 0
M  V30 16498 H 1601.39 -1.85639 0.59364 0
M  V30 16499 H 1600.48 -3.10823 -0.28205 0
M  V30 16500 N 1600.78 -0.180154 -1.56567 0
M  V30 16501 C 1602.01 0.46854 -2.01525 0
M  V30 16502 C 1602.43 1.56211 -1.06036 0
M  V30 16503 O 1601.78 1.82392 -0.06269 0
M  V30 16504 C 1601.83 1.0387 -3.46256 0
M  V30 16505 O 1601.55 -0.0112203 -4.38099 0
M  V30 16506 C 1603.06 1.76475 -4.06659 0
M  V30 16507 H 1600.28 0.119098 -0.660346 0
M  V30 16508 H 1602.82 -0.284477 -2.02512 0
M  V30 16509 H 1600.97 1.74217 -3.46016 0
M  V30 16510 H 1601.39 0.41099 -5.22887 0
M  V30 16511 H 1602.86 2.11618 -5.09825 0
M  V30 16512 H 1603.34 2.66301 -3.49257 0
M  V30 16513 H 1603.95 1.10749 -4.10627 0
M  V30 16514 N 1602.26 1.57322 0.0935319 0
M  V30 16515 C 1603.49 1.90375 0.810245 0
M  V30 16516 C 1603.9 0.774011 1.72205 0
M  V30 16517 O 1603.26 -0.253918 1.80725 0
M  V30 16518 C 1603.31 3.23054 1.62228 0
M  V30 16519 O 1603.03 4.31682 0.747157 0
M  V30 16520 C 1604.53 3.6998 2.44192 0
M  V30 16521 H 1601.75 0.629769 0.231586 0
M  V30 16522 H 1604.3 2.04379 0.0702984 0
M  V30 16523 H 1602.45 3.10643 2.31472 0
M  V30 16524 H 1602.87 5.07884 1.30974 0
M  V30 16525 H 1604.34 4.65507 2.96659 0
M  V30 16526 H 1604.82 2.97899 3.22727 0
M  V30 16527 H 1605.42 3.85264 1.80144 0
M  V30 16528 N 1603.74 -0.364395 1.53329 0
M  V30 16529 C 1605.02 -1.12265 1.60174 0
M  V30 16530 C 1605.4 -2.0708 0.410015 0
M  V30 16531 O 1604.74 -2.20492 -0.599631 0
M  V30 16532 C 1604.95 -1.86071 2.9526 0
M  V30 16533 C 1606.3 -2.40562 3.49879 0
M  V30 16534 O 1607.33 -1.96196 2.97297 0
M  V30 16535 O 1606.18 -3.2167 4.41804 0
M  V30 16536 H 1603.28 -0.515062 0.647024 0
M  V30 16537 H 1605.82 -0.367563 1.65672 0
M  V30 16538 H 1604.6 -1.1688 3.73436 0
M  V30 16539 H 1604.22 -2.68486 2.93259 0
M  V30 16540 N 1605.22 -1.44709 -0.62426 0
M  V30 16541 C 1606.16 -1.52413 -1.75707 0
M  V30 16542 C 1607.16 -0.395303 -1.64723 0
M  V30 16543 O 1608.36 -0.570535 -1.70719 0
M  V30 16544 H 1604.74 -0.478401 -0.580204 0
M  V30 16545 H 1606.71 -2.47742 -1.66333 0
M  V30 16546 C 1605.46 -1.49208 -3.14058 0
M  V30 16547 H 1604.78 -2.35387 -3.23161 0
M  V30 16548 H 1606.22 -1.58658 -3.93197 0
M  V30 16549 C 1604.68 -0.213877 -3.3622 0
M  V30 16550 O 1605.21 0.713128 -3.95319 0
M  V30 16551 N 1603.42 -0.114834 -2.90373 0
M  V30 16552 H 1602.96 -0.870047 -2.42462 0
M  V30 16553 H 1602.92 0.739619 -3.05576 0
M  V30 16554 N 1606.69 0.865285 -1.31722 0
M  V30 16555 C 1607.6 2.00542 -1.21738 0
M  V30 16556 C 1608.62 1.7349 -0.133124 0
M  V30 16557 O 1609.8 1.98303 -0.351809 0
M  V30 16558 C 1606.86 3.33993 -0.930045 0
M  V30 16559 C 1605.92 3.74337 -2.10167 0
M  V30 16560 C 1605.16 5.0142 -1.82795 0
M  V30 16561 O 1605.38 5.65242 -0.765345 0
M  V30 16562 O 1604.31 5.38642 -2.68604 0
M  V30 16563 H 1608.14 2.11898 -2.17561 0
M  V30 16564 H 1605.72 0.994313 -1.11507 0
M  V30 16565 H 1607.61 4.14008 -0.785846 0
M  V30 16566 H 1606.28 3.237 -0.00188642 0
M  V30 16567 H 1605.19 2.94943 -2.3013 0
M  V30 16568 H 1606.52 3.89261 -3.01225 0
M  V30 16569 N 1608.17 1.14759 1.0802 0
M  V30 16570 C 1609.12 0.838134 2.15044 0
M  V30 16571 C 1610.09 -0.206031 1.64817 0
M  V30 16572 O 1611.27 -0.0750812 1.90652 0
M  V30 16573 C 1608.41 0.326112 3.43556 0
M  V30 16574 C 1607.53 1.43104 4.07609 0
M  V30 16575 C 1606.66 0.875857 5.2393 0
M  V30 16576 C 1605.7 1.9582 5.79932 0
M  V30 16577 N 1604.84 1.41989 6.87593 0
M  V30 16578 H 1609.68 1.75478 2.40856 0
M  V30 16579 H 1607.22 0.875686 1.18195 0
M  V30 16580 H 1609.17 0.0110103 4.17199 0
M  V30 16581 H 1607.8 -0.55363 3.18017 0
M  V30 16582 H 1606.86 1.86247 3.31687 0
M  V30 16583 H 1608.17 2.24849 4.45246 0
M  V30 16584 H 1607.32 0.512893 6.04528 0
M  V30 16585 H 1606.06 0.0275017 4.87692 0
M  V30 16586 H 1605.07 2.33006 4.97984 0
M  V30 16587 H 1606.29 2.81021 6.18227 0
M  V30 16588 H 1604.24 0.593779 6.53307 0
M  V30 16589 H 1604.15 2.17367 7.24077 0
M  V30 16590 H 1605.42 1.08495 7.71913 0
M  V30 16591 N 1609.65 -1.26251 0.943322 0
M  V30 16592 C 1611.07 -1.45943 0.645966 0
M  V30 16593 C 1611.27 -1.84936 -0.800064 0
M  V30 16594 O 1610.32 -1.97238 -1.57649 0
M  V30 16595 C 1611.64 -2.54017 1.60922 0
M  V30 16596 C 1613.18 -2.67866 1.61916 0
M  V30 16597 C 1613.66 -3.79113 2.56977 0
M  V30 16598 N 1615.15 -3.86509 2.55275 0
M  V30 16599 C 1615.88 -4.72048 3.25513 0
M  V30 16600 N 1615.38 -5.61959 4.05184 0
M  V30 16601 N 1617.17 -4.65913 3.14454 0
M  V30 16602 H 1609.32 -0.992295 1.87796 0
M  V30 16603 H 1611.59 -0.497204 0.80715 0
M  V30 16604 H 1611.29 -2.32197 2.64155 0
M  V30 16605 H 1611.17 -3.51715 1.36294 0
M  V30 16606 H 1613.55 -2.89059 0.594067 0
M  V30 16607 H 1613.64 -1.70604 1.90598 0
M  V30 16608 H 1613.28 -3.58673 3.59605 0
M  V30 16609 H 1613.21 -4.75836 2.25583 0
M  V30 16610 H 1615.7 -3.22229 1.97425 0
M  V30 16611 H 1616.01 -6.24127 4.55725 0
M  V30 16612 H 1614.36 -5.61704 4.09285 0
M  V30 16613 H 1617.55 -3.94675 2.51693 0
M  V30 16614 H 1617.72 -5.32356 3.69461 0
M  V30 16615 N 1611.13 -0.710588 -1.40671 0
M  V30 16616 C 1612.35 -0.256007 -2.05814 0
M  V30 16617 C 1612.78 1.09178 -1.53173 0
M  V30 16618 O 1612.14 1.68665 -0.664977 0
M  V30 16619 C 1612.19 -0.240528 -3.59797 0
M  V30 16620 O 1611.29 0.779859 -4.04959 0
M  V30 16621 H 1610.63 -0.121326 -0.652822 0
M  V30 16622 H 1613.16 -0.969667 -1.80163 0
M  V30 16623 H 1613.17 -0.0765027 -4.07928 0
M  V30 16624 H 1611.85 -1.22411 -3.97478 0
M  V30 16625 H 1610.42 0.583965 -3.68299 0
M  V30 16626 N 1612.61 1.50847 -0.456408 0
M  V30 16627 C 1613.52 2.31959 0.351027 0
M  V30 16628 C 1614.53 1.41697 1.00986 0
M  V30 16629 O 1615.71 1.7476 1.00105 0
M  V30 16630 C 1612.77 3.15973 1.42696 0
M  V30 16631 C 1611.84 4.22038 0.786272 0
M  V30 16632 C 1611.07 5.02036 1.81094 0
M  V30 16633 O 1611.29 4.82913 3.03564 0
M  V30 16634 O 1610.23 5.85609 1.3909 0
M  V30 16635 H 1614.05 3.02096 -0.311678 0
M  V30 16636 H 1611.64 1.47793 -0.218544 0
M  V30 16637 H 1613.52 3.68146 2.05053 0
M  V30 16638 H 1612.19 2.48579 2.0734 0
M  V30 16639 H 1611.1 3.73894 0.124148 0
M  V30 16640 H 1612.43 4.9186 0.183016 0
M  V30 16641 N 1614.09 0.188454 1.56469 0
M  V30 16642 C 1615.31 -0.460975 2.02212 0
M  V30 16643 C 1615.74 -1.54856 1.06777 0
M  V30 16644 O 1615.09 -1.81231 0.0501425 0
M  V30 16645 C 1615.14 -1.00047 3.46443 0
M  V30 16646 O 1614.25 -2.1137 3.54114 0
M  V30 16647 H 1613.59 -0.108497 0.655076 0
M  V30 16648 H 1616.12 0.297381 2.02427 0
M  V30 16649 H 1616.13 -1.31876 3.86099 0
M  V30 16650 H 1614.8 -0.204273 4.15398 0
M  V30 16651 H 1613.38 -1.80456 3.26328 0
M  V30 16652 N 1615.56 -1.5737 -0.0851874 0
M  V30 16653 C 1616.5 -1.99462 -1.12905 0
M  V30 16654 C 1617.51 -0.898597 -1.35754 0
M  V30 16655 O 1618.7 -1.17662 -1.34231 0
M  V30 16656 C 1615.8 -2.30689 -2.48266 0
M  V30 16657 C 1614.97 -3.61967 -2.45557 0
M  V30 16658 C 1614.03 -3.81017 -3.62922 0
M  V30 16659 O 1613.06 -4.52759 -3.44961 0
M  V30 16660 N 1614.26 -3.22348 -4.82775 0
M  V30 16661 H 1617.02 -2.89621 -0.7707 0
M  V30 16662 H 1614.58 -1.59564 -0.274033 0
M  V30 16663 H 1616.58 -2.40618 -3.254 0
M  V30 16664 H 1615.15 -1.46488 -2.76152 0
M  V30 16665 H 1614.37 -3.62916 -1.539 0
M  V30 16666 H 1615.65 -4.48191 -2.40836 0
M  V30 16667 H 1615.05 -2.64093 -5.00271 0
M  V30 16668 H 1613.61 -3.37747 -5.57468 0
M  V30 16669 N 1617.04 0.356258 -1.53521 0
M  V30 16670 C 1618.29 1.09573 -1.69818 0
M  V30 16671 C 1618.61 1.89559 -0.457406 0
M  V30 16672 O 1617.88 1.88633 0.528616 0
M  V30 16673 H 1616.46 0.407512 -0.626054 0
M  V30 16674 H 1619.12 0.400612 -1.90738 0
M  V30 16675 H 1618.22 1.7803 -2.56343 0
M  V30 16676 N 1618.52 1.45038 0.616577 0
M  V30 16677 C 1619.75 1.52094 1.40267 0
M  V30 16678 C 1620.16 0.150558 1.88199 0
M  V30 16679 O 1619.52 -0.846258 1.61693 0
M  V30 16680 C 1619.57 2.49786 2.61322 0
M  V30 16681 O 1619.29 3.81498 2.15385 0
M  V30 16682 C 1620.79 2.66451 3.54286 0
M  V30 16683 H 1618.01 0.515378 0.429681 0
M  V30 16684 H 1620.56 1.90141 0.752768 0
M  V30 16685 H 1618.71 2.14835 3.22373 0
M  V30 16686 H 1619.13 4.34374 2.93972 0
M  V30 16687 H 1620.6 3.38802 4.35795 0
M  V30 16688 H 1621.08 1.72177 4.04044 0
M  V30 16689 H 1621.68 3.02362 2.99095 0
M  V30 16690 N 1620 -0.858287 1.32179 0
M  V30 16691 C 1620.96 -1.94811 1.20753 0
M  V30 16692 C 1621.96 -1.60261 0.131526 0
M  V30 16693 O 1623.15 -1.69968 0.381662 0
M  V30 16694 C 1620.28 -3.29972 0.856229 0
M  V30 16695 H 1621.48 -2.06371 2.17603 0
M  V30 16696 H 1619.03 -1.04802 1.15958 0
M  V30 16697 H 1619.76 -3.24111 -0.11061 0
M  V30 16698 H 1619.55 -3.56424 1.63414 0
M  V30 16699 H 1621.04 -4.09856 0.800507 0
M  V30 16700 N 1621.48 -1.1533 -1.07409 0
M  V30 16701 C 1622.89 -0.937287 -1.61468 0
M  V30 16702 C 1623.24 0.521545 -1.89141 0
M  V30 16703 O 1622.36 1.39253 -1.65643 0
M  V30 16704 C 1622.96 -1.69501 -2.93351 0
M  V30 16705 C 1621.52 -1.52429 -3.44154 0
M  V30 16706 C 1620.66 -1.71098 -2.18222 0
M  V30 16707 H 1623.61 -1.30364 -0.905044 0
M  V30 16708 H 1623.64 -1.16416 -3.62253 0
M  V30 16709 H 1623.15 -2.75672 -2.73178 0
M  V30 16710 H 1621.25 -0.486498 -3.6941 0
M  V30 16711 H 1621.36 -2.30089 -4.20233 0
M  V30 16712 H 1619.73 -1.13745 -2.27891 0
M  V30 16713 H 1620.51 -2.78634 -2.00545 0
M  V30 16714 N 1622.95 1.25748 -0.950004 0
M  V30 16715 C 1623.92 2.24307 -0.47106 0
M  V30 16716 C 1624.92 1.55145 0.422704 0
M  V30 16717 O 1626.11 1.72797 0.220642 0
M  V30 16718 C 1623.24 3.39395 0.319979 0
M  V30 16719 H 1624.43 2.68192 -1.34214 0
M  V30 16720 H 1621.98 1.38056 -0.732827 0
M  V30 16721 H 1622.72 3.00925 1.20892 0
M  V30 16722 H 1622.5 3.90783 -0.321157 0
M  V30 16723 H 1623.99 4.12594 0.644697 0
M  V30 16724 N 1624.43 0.718038 1.40292 0
M  V30 16725 C 1625.68 0.258603 2.00842 0
M  V30 16726 C 1626.01 -1.14894 1.56938 0
M  V30 16727 O 1625.26 -1.79414 0.781606 0
M  V30 16728 C 1625.56 0.289374 3.56227 0
M  V30 16729 C 1625.23 1.64756 4.19722 0
M  V30 16730 C 1623.89 2.01934 4.36779 0
M  V30 16731 C 1626.24 2.54008 4.55115 0
M  V30 16732 C 1623.57 3.27905 4.86513 0
M  V30 16733 C 1625.92 3.79334 5.06249 0
M  V30 16734 C 1624.58 4.16626 5.21516 0
M  V30 16735 H 1623.85 0.0946296 0.734933 0
M  V30 16736 H 1626.5 0.921552 1.67868 0
M  V30 16737 H 1624.81 -0.457147 3.89124 0
M  V30 16738 H 1626.5 -0.0839832 4.00912 0
M  V30 16739 H 1623.09 1.34846 4.06835 0
M  V30 16740 H 1627.28 2.2656 4.4157 0
M  V30 16741 H 1622.53 3.56763 4.96518 0
M  V30 16742 H 1626.71 4.48663 5.32611 0
M  V30 16743 H 1624.33 5.14306 5.59815 0
M  V30 16744 N 1625.91 -1.50602 0.464402 0
M  V30 16745 C 1626.86 -2.28382 -0.333234 0
M  V30 16746 C 1627.83 -1.3314 -0.993125 0
M  V30 16747 O 1629.01 -1.62072 -1.00685 0
M  V30 16748 C 1626.15 -3.14841 -1.41313 0
M  V30 16749 C 1625.27 -4.25106 -0.768684 0
M  V30 16750 C 1624.4 -4.98833 -1.82591 0
M  V30 16751 C 1623.44 -6.00982 -1.16135 0
M  V30 16752 N 1622.58 -6.68012 -2.16112 0
M  V30 16753 H 1627.42 -2.96096 0.336354 0
M  V30 16754 H 1624.95 -1.46022 0.17772 0
M  V30 16755 H 1626.91 -3.63314 -2.05082 0
M  V30 16756 H 1625.54 -2.49186 -2.05197 0
M  V30 16757 H 1624.59 -3.80395 -0.0185964 0
M  V30 16758 H 1625.91 -4.98204 -0.243759 0
M  V30 16759 H 1625.06 -5.50991 -2.53957 0
M  V30 16760 H 1623.8 -4.25426 -2.38462 0
M  V30 16761 H 1622.8 -5.4809 -0.43328 0
M  V30 16762 H 1624.03 -6.76358 -0.609612 0
M  V30 16763 H 1621.97 -5.97401 -2.71013 0
M  V30 16764 H 1621.89 -7.36963 -1.68586 0
M  V30 16765 H 1623.16 -7.2479 -2.86879 0
M  V30 16766 N 1627.39 -0.19675 -1.56367 0
M  V30 16767 C 1628.32 0.75534 -2.16396 0
M  V30 16768 C 1629.33 1.17558 -1.12623 0
M  V30 16769 O 1630.52 1.11102 -1.39709 0
M  V30 16770 C 1627.62 2.03159 -2.71256 0
M  V30 16771 C 1626.8 1.77088 -3.99948 0
M  V30 16772 C 1625.85 2.89176 -4.39618 0
M  V30 16773 O 1624.88 2.58712 -5.07007 0
M  V30 16774 N 1626.08 4.17569 -4.03257 0
M  V30 16775 H 1628.85 0.241991 -2.98721 0
M  V30 16776 H 1626.41 -0.0148423 -1.61893 0
M  V30 16777 H 1628.4 2.77287 -2.94778 0
M  V30 16778 H 1626.97 2.45611 -1.93375 0
M  V30 16779 H 1626.19 0.867309 -3.84541 0
M  V30 16780 H 1627.48 1.5707 -4.83949 0
M  V30 16781 H 1626.88 4.45171 -3.49054 0
M  V30 16782 H 1625.43 4.88319 -4.31726 0
M  V30 16783 N 1628.87 1.57413 0.0768405 0
M  V30 16784 C 1629.81 2.0334 1.09185 0
M  V30 16785 C 1630.78 0.913073 1.38752 0
M  V30 16786 O 1631.97 1.18038 1.49906 0
M  V30 16787 C 1629.11 2.47805 2.40181 0
M  V30 16788 C 1628.22 3.73435 2.17188 0
M  V30 16789 C 1627.36 4.06703 3.41711 0
M  V30 16790 C 1626.4 5.25388 3.1406 0
M  V30 16791 N 1625.53 5.54319 4.309 0
M  V30 16792 H 1630.37 2.89825 0.693223 0
M  V30 16793 H 1627.91 1.43334 0.330736 0
M  V30 16794 H 1629.87 2.71635 3.16655 0
M  V30 16795 H 1628.5 1.64305 2.77856 0
M  V30 16796 H 1627.55 3.56974 1.3143 0
M  V30 16797 H 1628.86 4.60049 1.9276 0
M  V30 16798 H 1628.02 4.31407 4.26583 0
M  V30 16799 H 1626.75 3.18646 3.6921 0
M  V30 16800 H 1625.76 5.00486 2.27583 0
M  V30 16801 H 1626.98 6.15059 2.87888 0
M  V30 16802 H 1624.93 4.69222 4.5844 0
M  V30 16803 H 1624.85 6.35342 4.09727 0
M  V30 16804 H 1626.12 5.83571 5.16783 0
M  V30 16805 N 1630.34 -0.348112 1.53707 0
M  V30 16806 C 1631.27 -1.43296 1.8436 0
M  V30 16807 C 1632.26 -1.55102 0.698376 0
M  V30 16808 O 1633.44 -1.69385 0.949864 0
M  V30 16809 C 1630.57 -2.80407 2.04912 0
M  V30 16810 C 1629.52 -2.83412 3.20721 0
M  V30 16811 C 1628.85 -4.23365 3.26597 0
M  V30 16812 C 1630.15 -2.49358 4.58931 0
M  V30 16813 H 1631.84 -1.17892 2.75212 0
M  V30 16814 H 1629.39 -0.565692 1.32423 0
M  V30 16815 H 1631.34 -3.56343 2.24939 0
M  V30 16816 H 1630.07 -3.07236 1.10786 0
M  V30 16817 H 1628.73 -2.09929 3.00542 0
M  V30 16818 H 1628.37 -4.47297 2.30076 0
M  V30 16819 H 1628.07 -4.26287 4.04417 0
M  V30 16820 H 1629.6 -5.01149 3.4883 0
M  V30 16821 H 1631.01 -3.15006 4.79003 0
M  V30 16822 H 1629.41 -2.6357 5.3912 0
M  V30 16823 H 1630.48 -1.44557 4.62851 0
M  V30 16824 N 1631.82 -1.45363 -0.608876 0
M  V30 16825 C 1632.75 -1.49944 -1.73348 0
M  V30 16826 C 1633.77 -0.390352 -1.58051 0
M  V30 16827 O 1634.96 -0.657338 -1.65956 0
M  V30 16828 C 1632.06 -1.33886 -3.11332 0
M  V30 16829 C 1631.23 -2.58445 -3.52881 0
M  V30 16830 C 1630.29 -2.36963 -4.69825 0
M  V30 16831 O 1629.31 -3.10569 -4.77007 0
M  V30 16832 N 1630.52 -1.41442 -5.63005 0
M  V30 16833 H 1633.28 -2.46902 -1.69882 0
M  V30 16834 H 1630.84 -1.41086 -0.794119 0
M  V30 16835 H 1632.83 -1.17327 -3.8732 0
M  V30 16836 H 1631.4 -0.452095 -3.09314 0
M  V30 16837 H 1630.62 -2.90129 -2.66869 0
M  V30 16838 H 1631.91 -3.41245 -3.77398 0
M  V30 16839 H 1631.31 -0.806941 -5.59915 0
M  V30 16840 H 1629.87 -1.30855 -6.3853 0
M  V30 16841 N 1633.3 0.851265 -1.32632 0
M  V30 16842 C 1634.58 1.58945 -1.13999 0
M  V30 16843 C 1634.96 2.08981 0.29836 0
M  V30 16844 O 1634.31 1.88226 1.2955 0
M  V30 16845 C 1634.52 2.73296 -2.17049 0
M  V30 16846 C 1635.86 3.42791 -2.50559 0
M  V30 16847 O 1636.89 2.83524 -2.15621 0
M  V30 16848 O 1635.75 4.49749 -3.10464 0
M  V30 16849 H 1632.84 0.700157 -0.440124 0
M  V30 16850 H 1635.39 0.895098 -1.44174 0
M  V30 16851 H 1634.16 2.33873 -3.13718 0
M  V30 16852 H 1633.78 3.50405 -1.87888 0
M  V30 16853 N 1634.78 1.15898 1.06796 0
M  V30 16854 C 1636.02 0.938728 1.79766 0
M  V30 16855 C 1636.36 -0.53249 1.86757 0
M  V30 16856 O 1635.63 -1.39492 1.35544 0
M  V30 16857 C 1635.92 1.56062 3.24525 0
M  V30 16858 C 1635.77 3.10283 3.25645 0
M  V30 16859 C 1637.09 1.25108 4.21943 0
M  V30 16860 H 1634.21 0.342451 0.652607 0
M  V30 16861 H 1636.85 1.4315 1.24933 0
M  V30 16862 H 1635 1.14158 3.71349 0
M  V30 16863 H 1636.67 3.61132 2.87021 0
M  V30 16864 H 1634.91 3.43879 2.64443 0
M  V30 16865 H 1635.58 3.48913 4.27743 0
M  V30 16866 H 1638.06 1.61364 3.83537 0
M  V30 16867 H 1636.94 1.7123 5.21509 0
M  V30 16868 H 1637.2 0.169043 4.41777 0
M  V30 16869 N 1636.26 -1.25243 0.956659 0
M  V30 16870 C 1637.21 -2.23532 0.449171 0
M  V30 16871 C 1638.19 -1.54103 -0.462715 0
M  V30 16872 O 1639.38 -1.74517 -0.295436 0
M  V30 16873 C 1636.51 -3.42237 -0.269892 0
M  V30 16874 C 1635.6 -4.1893 0.660181 0
M  V30 16875 N 1635.99 -4.72965 1.7927 0
M  V30 16876 C 1634.29 -4.4353 0.468779 0
M  V30 16877 C 1634.99 -5.31072 2.37355 0
M  V30 16878 N 1633.96 -5.17638 1.65986 0
M  V30 16879 H 1637.77 -2.62918 1.31345 0
M  V30 16880 H 1635.28 -1.40504 0.814394 0
M  V30 16881 H 1637.28 -4.11792 -0.650604 0
M  V30 16882 H 1635.94 -3.04375 -1.13075 0
M  V30 16883 H 1636.95 -4.70038 2.17451 0
M  V30 16884 H 1633.62 -4.16038 -0.349031 0
M  V30 16885 H 1635.01 -5.83654 3.32863 0
M  V30 16886 N 1637.73 -0.725468 -1.3991 0
M  V30 16887 C 1638.98 -0.26965 -2.00999 0
M  V30 16888 C 1639.31 1.13727 -1.57416 0
M  V30 16889 O 1638.59 1.77345 -0.798693 0
M  V30 16890 C 1638.87 -0.360784 -3.58288 0
M  V30 16891 C 1638.72 -1.80679 -4.11916 0
M  V30 16892 C 1640.04 0.262328 -4.39317 0
M  V30 16893 H 1637.16 -0.0994547 -0.730259 0
M  V30 16894 H 1639.8 -0.91983 -1.6625 0
M  V30 16895 H 1637.95 0.192779 -3.88021 0
M  V30 16896 H 1639.63 -2.4165 -3.92942 0
M  V30 16897 H 1637.87 -2.33127 -3.65834 0
M  V30 16898 H 1638.54 -1.82189 -5.21068 0
M  V30 16899 H 1641.02 -0.209452 -4.15573 0
M  V30 16900 H 1639.89 0.168166 -5.48642 0
M  V30 16901 H 1640.15 1.34716 -4.21075 0
M  V30 16902 N 1639.21 1.50354 -0.472382 0
M  V30 16903 C 1640.18 2.27096 0.30981 0
M  V30 16904 C 1641.18 1.3193 0.919306 0
M  V30 16905 O 1642.37 1.55344 0.788284 0
M  V30 16906 C 1639.5 3.08924 1.44149 0
M  V30 16907 H 1640.69 2.97692 -0.363228 0
M  V30 16908 H 1638.24 1.5465 -0.226483 0
M  V30 16909 H 1638.98 2.42828 2.14954 0
M  V30 16910 H 1638.76 3.78862 1.01023 0
M  V30 16911 H 1640.25 3.66961 1.99323 0
M  V30 16912 N 1640.69 0.205039 1.56261 0
M  V30 16913 C 1641.6 -0.723548 2.23164 0
M  V30 16914 C 1642.62 -1.22683 1.23389 0
M  V30 16915 O 1643.79 -1.27191 1.56155 0
M  V30 16916 C 1640.86 -1.92178 2.88563 0
M  V30 16917 C 1639.92 -1.46209 4.03635 0
M  V30 16918 C 1639.15 -2.60321 4.65906 0
M  V30 16919 O 1639.38 -3.78051 4.27122 0
M  V30 16920 O 1638.31 -2.32465 5.55197 0
M  V30 16921 H 1642.14 -0.183715 3.03144 0
M  V30 16922 H 1639.72 -0.0246933 1.4938 0
M  V30 16923 H 1641.6 -2.62188 3.29902 0
M  V30 16924 H 1640.28 -2.45003 2.11555 0
M  V30 16925 H 1639.18 -0.730492 3.66899 0
M  V30 16926 H 1640.52 -0.980402 4.82337 0
M  V30 16927 N 1642.17 -1.57451 -0.0684915 0
M  V30 16928 C 1643.42 -1.87041 -0.765505 0
M  V30 16929 C 1643.74 -0.797489 -1.77947 0
M  V30 16930 O 1643.01 0.17349 -1.9513 0
M  V30 16931 H 1641.59 -0.690203 -0.285708 0
M  V30 16932 H 1644.25 -1.94851 -0.0437957 0
M  V30 16933 H 1643.35 -2.8466 -1.27966 0
M  V30 16934 N 1643.65 0.339955 -1.5389 0
M  V30 16935 C 1644.59 1.41765 -1.8213 0
M  V30 16936 C 1645.56 1.52109 -0.667235 0
M  V30 16937 O 1646.75 1.67591 -0.91203 0
M  V30 16938 C 1643.89 2.78366 -2.03977 0
M  V30 16939 C 1643 2.76785 -3.31684 0
M  V30 16940 C 1642.14 4.05125 -3.4358 0
M  V30 16941 C 1641.18 3.97787 -4.65223 0
M  V30 16942 N 1640.31 5.17825 -4.74133 0
M  V30 16943 H 1645.15 1.16984 -2.74078 0
M  V30 16944 H 1642.69 0.566618 -1.35749 0
M  V30 16945 H 1644.65 3.57755 -2.14633 0
M  V30 16946 H 1643.28 3.01491 -1.15338 0
M  V30 16947 H 1642.33 1.89481 -3.2985 0
M  V30 16948 H 1643.64 2.67241 -4.2117 0
M  V30 16949 H 1642.8 4.9294 -3.53688 0
M  V30 16950 H 1641.54 4.17455 -2.52157 0
M  V30 16951 H 1640.54 3.08357 -4.55188 0
M  V30 16952 H 1641.77 3.87037 -5.58014 0
M  V30 16953 H 1639.71 5.30691 -3.8562 0
M  V30 16954 H 1639.63 5.10552 -5.5756 0
M  V30 16955 H 1640.9 6.074 -4.88554 0
M  V30 16956 N 1645.13 1.45684 0.601159 0
M  V30 16957 C 1646.07 1.54846 1.71147 0
M  V30 16958 C 1647.04 0.393914 1.61361 0
M  V30 16959 O 1648.23 0.608222 1.80846 0
M  V30 16960 C 1645.37 1.52723 3.09467 0
M  V30 16961 C 1644.48 2.78776 3.30012 0
M  V30 16962 C 1643.62 2.68281 4.58474 0
M  V30 16963 C 1642.65 3.89358 4.72299 0
M  V30 16964 N 1641.79 3.77359 5.92068 0
M  V30 16965 H 1646.63 2.49696 1.62653 0
M  V30 16966 H 1644.17 1.23894 0.793006 0
M  V30 16967 H 1646.13 1.49479 3.89502 0
M  V30 16968 H 1644.76 0.614189 3.16903 0
M  V30 16969 H 1643.81 2.9208 2.43708 0
M  V30 16970 H 1645.12 3.68563 3.36099 0
M  V30 16971 H 1644.27 2.63039 5.46713 0
M  V30 16972 H 1643.01 1.76103 4.54795 0
M  V30 16973 H 1642.02 3.94952 3.82482 0
M  V30 16974 H 1643.24 4.82609 4.77771 0
M  V30 16975 H 1641.19 2.87955 5.89422 0
M  V30 16976 H 1641.11 4.60786 5.99343 0
M  V30 16977 H 1642.37 3.76061 6.82787 0
M  V30 16978 N 1646.6 -0.84422 1.33082 0
M  V30 16979 C 1647.53 -1.96899 1.25511 0
M  V30 16980 C 1648.51 -1.69549 0.13677 0
M  V30 16981 O 1649.7 -1.9145 0.325667 0
M  V30 16982 C 1646.83 -3.32947 0.988094 0
M  V30 16983 C 1645.78 -3.7468 2.06879 0
M  V30 16984 C 1645.11 -5.08475 1.65401 0
M  V30 16985 C 1646.41 -3.89033 3.48498 0
M  V30 16986 H 1648.1 -2.03491 2.19617 0
M  V30 16987 H 1645.65 -0.977659 1.05725 0
M  V30 16988 H 1647.6 -4.11198 0.921645 0
M  V30 16989 H 1646.33 -3.26598 0.0114067 0
M  V30 16990 H 1644.99 -2.98689 2.12557 0
M  V30 16991 H 1644.63 -4.98592 0.66449 0
M  V30 16992 H 1644.33 -5.37368 2.37717 0
M  V30 16993 H 1645.86 -5.89207 1.60212 0
M  V30 16994 H 1647.27 -4.57609 3.4535 0
M  V30 16995 H 1645.67 -4.29357 4.19253 0
M  V30 16996 H 1646.74 -2.91639 3.87395 0
M  V30 16997 N 1648.08 -1.16463 -1.0618 0
M  V30 16998 C 1649.01 -0.895399 -2.1565 0
M  V30 16999 C 1649.99 0.158729 -1.69358 0
M  V30 17000 O 1651.18 0.010586 -1.94197 0
M  V30 17001 C 1648.31 -0.396959 -3.45024 0
M  V30 17002 C 1647.26 -1.38913 -4.0483 0
M  V30 17003 C 1646.59 -0.749043 -5.29427 0
M  V30 17004 C 1647.89 -2.7591 -4.43476 0
M  V30 17005 H 1649.58 -1.81085 -2.38429 0
M  V30 17006 H 1647.13 -0.872098 -1.14588 0
M  V30 17007 H 1649.08 -0.196086 -4.20944 0
M  V30 17008 H 1647.8 0.554002 -3.21867 0
M  V30 17009 H 1646.46 -1.57657 -3.30968 0
M  V30 17010 H 1646.11 0.208439 -5.02568 0
M  V30 17011 H 1645.81 -1.41128 -5.704 0
M  V30 17012 H 1647.34 -0.558217 -6.08043 0
M  V30 17013 H 1648.75 -2.60942 -5.10473 0
M  V30 17014 H 1647.15 -3.38618 -4.95437 0
M  V30 17015 H 1648.22 -3.31076 -3.54284 0
M  V30 17016 N 1649.56 1.24734 -0.963288 0
M  V30 17017 C 1650.49 2.27892 -0.508667 0
M  V30 17018 C 1651.47 1.64055 0.449438 0
M  V30 17019 O 1652.66 1.91083 0.346519 0
M  V30 17020 C 1649.79 3.46688 0.206157 0
M  V30 17021 C 1648.74 4.22762 -0.667534 0
M  V30 17022 C 1648.07 5.34402 0.178529 0
M  V30 17023 C 1649.37 4.84535 -1.94995 0
M  V30 17024 H 1651.06 2.66171 -1.37088 0
M  V30 17025 H 1648.61 1.27952 -0.660622 0
M  V30 17026 H 1650.56 4.17985 0.535391 0
M  V30 17027 H 1649.28 3.07422 1.10269 0
M  V30 17028 H 1647.94 3.53259 -0.979976 0
M  V30 17029 H 1647.59 4.91377 1.07508 0
M  V30 17030 H 1647.29 5.86218 -0.402808 0
M  V30 17031 H 1648.81 6.08529 0.502533 0
M  V30 17032 H 1650.23 5.4793 -1.68658 0
M  V30 17033 H 1648.62 5.46564 -2.47765 0
M  V30 17034 H 1649.69 4.06236 -2.64765 0
M  V30 17035 N 1651.04 0.732878 1.39523 0
M  V30 17036 C 1651.97 0.0519358 2.29141 0
M  V30 17037 C 1652.98 -0.705687 1.4671 0
M  V30 17038 O 1654.17 -0.550202 1.69809 0
M  V30 17039 C 1651.27 -0.950691 3.25292 0
M  V30 17040 C 1650.44 -0.255028 4.36656 0
M  V30 17041 C 1649.5 -1.16546 5.13131 0
M  V30 17042 O 1648.53 -0.643742 5.65548 0
M  V30 17043 N 1649.73 -2.49534 5.24131 0
M  V30 17044 H 1652.5 0.8215 2.88221 0
M  V30 17045 H 1650.06 0.581924 1.5108 0
M  V30 17046 H 1652.05 -1.56232 3.73328 0
M  V30 17047 H 1650.62 -1.62148 2.67258 0
M  V30 17048 H 1649.84 0.537045 3.90525 0
M  V30 17049 H 1651.13 0.227162 5.08293 0
M  V30 17050 H 1650.53 -2.944 4.83058 0
M  V30 17051 H 1649.08 -3.05798 5.75613 0
M  V30 17052 N 1652.52 -1.50101 0.480349 0
M  V30 17053 C 1653.76 -2.0428 -0.0700589 0
M  V30 17054 C 1654.12 -1.35372 -1.36155 0
M  V30 17055 O 1655.32 -1.80157 -1.99492 0
M  V30 17056 C 1653.59 -3.56591 -0.240285 0
M  V30 17057 S 1655.15 -4.32379 -0.747916 0
M  V30 17058 H 1651.97 -0.710906 -0.0115761 0
M  V30 17059 H 1654.57 -1.84392 0.649604 0
M  V30 17060 H 1653.27 -4.04294 0.705315 0
M  V30 17061 H 1652.81 -3.80849 -0.985792 0
M  V30 17062 H 1654.82 -4.5322 -2.02005 0
M  V30 17063 N 1653.99 -0.213323 -1.5615 0
M  V30 17064 C 1654.93 0.732346 -2.17185 0
M  V30 17065 C 1655.94 1.16357 -1.13864 0
M  V30 17066 O 1657.13 1.09614 -1.40879 0
M  V30 17067 C 1654.23 2.0027 -2.73395 0
M  V30 17068 C 1653.4 1.72836 -4.01804 0
M  V30 17069 C 1652.46 2.84497 -4.4266 0
M  V30 17070 O 1651.49 2.5332 -5.09723 0
M  V30 17071 N 1652.69 4.13268 -4.07663 0
M  V30 17072 H 1655.45 0.210294 -2.98961 0
M  V30 17073 H 1653.01 -0.0320124 -1.61868 0
M  V30 17074 H 1655.01 2.74145 -2.97702 0
M  V30 17075 H 1653.58 2.43546 -1.9597 0
M  V30 17076 H 1652.8 0.826474 -3.85439 0
M  V30 17077 H 1654.08 1.51928 -4.85588 0
M  V30 17078 H 1653.48 4.41444 -3.53756 0
M  V30 17079 H 1652.04 4.83713 -4.36881 0
M  V30 17080 N 1655.47 1.57485 0.0601405 0
M  V30 17081 C 1656.72 1.88094 0.758192 0
M  V30 17082 C 1657.05 0.807138 1.76632 0
M  V30 17083 O 1656.33 -0.181347 1.93653 0
M  V30 17084 C 1656.61 3.29363 1.45574 0
M  V30 17085 C 1656.46 4.47408 0.463233 0
M  V30 17086 C 1657.78 3.69048 2.39773 0
M  V30 17087 H 1654.9 0.684106 0.274169 0
M  V30 17088 H 1657.54 1.89988 0.0212215 0
M  V30 17089 H 1655.69 3.27879 2.08393 0
M  V30 17090 H 1657.36 4.6102 -0.160641 0
M  V30 17091 H 1655.61 4.3324 -0.220408 0
M  V30 17092 H 1656.28 5.43065 0.989164 0
M  V30 17093 H 1658.75 3.71701 1.87024 0
M  V30 17094 H 1657.63 4.68761 2.85577 0
M  V30 17095 H 1657.89 2.9961 3.25094 0
M  V30 17096 N 1656.95 -0.331789 1.54068 0
M  V30 17097 C 1658.18 -1.09484 1.76148 0
M  V30 17098 C 1658.6 -1.81201 0.504772 0
M  V30 17099 O 1657.96 -1.7297 -0.54325 0
M  V30 17100 C 1658.01 -2.07495 2.94921 0
M  V30 17101 O 1657.11 -3.15239 2.65891 0
M  V30 17102 H 1656.45 -0.316071 0.583948 0
M  V30 17103 H 1658.98 -0.378593 2.01067 0
M  V30 17104 H 1658.99 -2.5051 3.22038 0
M  V30 17105 H 1657.67 -1.54696 3.8606 0
M  V30 17106 H 1656.24 -2.76958 2.49697 0
M  V30 17107 N 1658.43 -1.46001 -0.593424 0
M  V30 17108 C 1659.65 -1.54541 -1.38318 0
M  V30 17109 C 1660.08 -0.183555 -1.87202 0
M  V30 17110 O 1659.44 0.834407 -1.60958 0
M  V30 17111 C 1659.48 -2.54559 -2.55405 0
M  V30 17112 O 1658.59 -2.07321 -3.56499 0
M  V30 17113 H 1657.93 -0.520434 -0.412364 0
M  V30 17114 H 1660.46 -1.9148 -0.720862 0
M  V30 17115 H 1660.47 -2.73823 -3.02465 0
M  V30 17116 H 1659.14 -3.53461 -2.19176 0
M  V30 17117 H 1657.72 -1.97997 -3.15993 0
M  V30 17118 N 1659.91 0.83715 -1.33527 0
M  V30 17119 C 1661.18 1.57727 -1.15678 0
M  V30 17120 C 1661.56 2.09286 0.276178 0
M  V30 17121 O 1660.91 1.89589 1.27547 0
M  V30 17122 C 1661.12 2.70978 -2.19936 0
M  V30 17123 C 1662.47 3.40114 -2.5418 0
M  V30 17124 O 1663.49 2.81221 -2.18616 0
M  V30 17125 O 1662.35 4.46431 -3.15217 0
M  V30 17126 H 1659.45 0.69545 -0.447525 0
M  V30 17127 H 1661.99 0.879756 -1.45115 0
M  V30 17128 H 1660.76 2.30532 -3.16181 0
M  V30 17129 H 1660.39 3.48393 -1.91594 0
M  V30 17130 N 1661.38 1.17024 1.05561 0
M  V30 17131 C 1662.8 0.962856 1.59956 0
M  V30 17132 C 1663.15 -0.491388 1.89947 0
M  V30 17133 O 1662.27 -1.366 1.67838 0
M  V30 17134 C 1662.87 1.74146 2.90617 0
M  V30 17135 C 1661.43 1.57885 3.41686 0
M  V30 17136 C 1660.57 1.74548 2.15472 0
M  V30 17137 H 1663.52 1.31787 0.88419 0
M  V30 17138 H 1663.54 1.22165 3.60355 0
M  V30 17139 H 1663.06 2.79984 2.68758 0
M  V30 17140 H 1661.16 0.545207 3.6859 0
M  V30 17141 H 1661.27 2.36745 4.16519 0
M  V30 17142 H 1659.63 1.17356 2.26052 0
M  V30 17143 H 1660.42 2.81789 1.96087 0
M  V30 17144 N 1662.86 -1.24221 0.969889 0
M  V30 17145 C 1664.27 -1.74206 0.671494 0
M  V30 17146 C 1664.62 -1.78576 -0.81271 0
M  V30 17147 O 1663.75 -1.41664 -1.63586 0
M  V30 17148 C 1664.34 -3.16371 1.21222 0
M  V30 17149 C 1662.9 -3.63855 0.96368 0
M  V30 17150 C 1662.05 -2.42429 1.34623 0
M  V30 17151 H 1665 -1.09893 1.14496 0
M  V30 17152 H 1665.02 -3.7606 0.579552 0
M  V30 17153 H 1664.53 -3.13159 2.29245 0
M  V30 17154 H 1662.64 -3.72463 -0.100931 0
M  V30 17155 H 1662.75 -4.51207 1.61087 0
M  V30 17156 H 1661.11 -2.42952 0.764624 0
M  V30 17157 H 1661.9 -2.41896 2.436 0
M  V30 17158 N 1664.34 -0.740267 -1.39132 0
M  V30 17159 C 1665.3 -0.112183 -2.28925 0
M  V30 17160 C 1666.3 0.661598 -1.46559 0
M  V30 17161 O 1667.49 0.489835 -1.67171 0
M  V30 17162 C 1664.63 0.850121 -3.3013 0
M  V30 17163 H 1665.82 -0.903339 -2.85972 0
M  V30 17164 H 1663.37 -0.506427 -1.47868 0
M  V30 17165 H 1664.11 1.66744 -2.78149 0
M  V30 17166 H 1663.89 0.297847 -3.90967 0
M  V30 17167 H 1665.38 1.28599 -3.97306 0
M  V30 17168 N 1665.82 1.49844 -0.488302 0
M  V30 17169 C 1667.05 2.06819 0.0578807 0
M  V30 17170 C 1667.46 1.35018 1.31969 0
M  V30 17171 O 1666.82 0.424614 1.77492 0
M  V30 17172 C 1666.87 3.60005 0.328435 0
M  V30 17173 O 1666.59 4.29102 -0.883338 0
M  V30 17174 C 1668.09 4.33655 0.919675 0
M  V30 17175 H 1665.31 0.670837 -0.014775 0
M  V30 17176 H 1667.86 1.92792 -0.682022 0
M  V30 17177 H 1666.01 3.73777 1.0183 0
M  V30 17178 H 1666.42 5.206 -0.638414 0
M  V30 17179 H 1667.9 5.41753 1.05864 0
M  V30 17180 H 1668.38 3.95289 1.91424 0
M  V30 17181 H 1668.98 4.24457 0.267672 0
M  V30 17182 N 1667.3 0.221601 1.56034 0
M  V30 17183 C 1668.55 -0.410442 1.9748 0
M  V30 17184 C 1668.86 -1.60895 1.1123 0
M  V30 17185 O 1670.06 -2.31052 1.42574 0
M  V30 17186 C 1668.52 -0.781624 3.5131 0
M  V30 17187 C 1668.13 0.394077 4.46263 0
M  V30 17188 C 1669.87 -1.37927 4.01468 0
M  V30 17189 C 1667.78 0.000458181 5.914 0
M  V30 17190 H 1666.71 -0.157122 0.737447 0
M  V30 17191 H 1669.36 0.317821 1.80727 0
M  V30 17192 H 1667.74 -1.56731 3.63664 0
M  V30 17193 H 1668.92 1.17161 4.45657 0
M  V30 17194 H 1667.23 0.904959 4.06447 0
M  V30 17195 H 1669.83 -1.68667 5.07401 0
M  V30 17196 H 1670.17 -2.29507 3.47322 0
M  V30 17197 H 1670.7 -0.657015 3.92337 0
M  V30 17198 H 1667.44 0.882743 6.49529 0
M  V30 17199 H 1666.96 -0.741386 5.952 0
M  V30 17200 H 1668.64 -0.42621 6.45595 0
M  V30 17201 N 1668.77 -1.57515 -0.0517878 0
M  V30 17202 C 1670.02 -1.87396 -0.746022 0
M  V30 17203 C 1670.34 -0.817053 -1.77718 0
M  V30 17204 O 1671.54 -1.00435 -2.5224 0
M  V30 17205 C 1670 -3.32481 -1.37783 0
M  V30 17206 C 1669.61 -4.46349 -0.384208 0
M  V30 17207 C 1671.35 -3.71539 -2.05327 0
M  V30 17208 C 1669.26 -5.82484 -1.02307 0
M  V30 17209 H 1668.19 -0.699127 -0.282379 0
M  V30 17210 H 1670.84 -1.835 0.000245524 0
M  V30 17211 H 1669.22 -3.31051 -2.17304 0
M  V30 17212 H 1670.39 -4.59209 0.382639 0
M  V30 17213 H 1668.71 -4.15976 0.187873 0
M  V30 17214 H 1671.31 -4.70553 -2.53936 0
M  V30 17215 H 1671.65 -3.02361 -2.86153 0
M  V30 17216 H 1672.18 -3.75046 -1.32611 0
M  V30 17217 H 1668.92 -6.55005 -0.254704 0
M  V30 17218 H 1668.44 -5.73388 -1.7603 0
M  V30 17219 H 1670.12 -6.28476 -1.5371 0
M  V30 17220 N 1670.25 0.323614 -1.54242 0
M  V30 17221 C 1671.5 1.05935 -1.73636 0
M  V30 17222 C 1671.85 1.85684 -0.503888 0
M  V30 17223 O 1671.15 1.84861 0.503692 0
M  V30 17224 C 1671.34 2.01452 -2.95215 0
M  V30 17225 C 1671.17 1.31094 -4.30168 0
M  V30 17226 C 1669.94 1.04747 -4.94324 0
M  V30 17227 C 1672.14 0.726886 -5.09137 0
M  V30 17228 N 1670.12 0.311788 -6.13108 0
M  V30 17229 C 1671.49 0.122813 -6.19878 0
M  V30 17230 C 1673.55 0.629696 -4.93902 0
M  V30 17231 C 1672.25 -0.569019 -7.17046 0
M  V30 17232 C 1674.28 -0.0484359 -5.9138 0
M  V30 17233 C 1673.64 -0.641453 -7.01473 0
M  V30 17234 H 1669.74 0.371344 -0.688206 0
M  V30 17235 H 1672.32 0.340541 -1.91699 0
M  V30 17236 H 1670.49 2.70605 -2.78617 0
M  V30 17237 H 1672.22 2.6801 -3.03237 0
M  V30 17238 H 1668.98 1.33979 -4.54254 0
M  V30 17239 H 1669.4 -0.0419069 -6.76987 0
M  V30 17240 H 1674.04 1.0739 -4.08934 0
M  V30 17241 H 1671.76 -1.02505 -8.01572 0
M  V30 17242 H 1675.35 -0.123275 -5.81669 0
M  V30 17243 H 1674.23 -1.15786 -7.75605 0
M  V30 17244 N 1671.73 1.46313 0.585673 0
M  V30 17245 C 1672.96 1.55035 1.3701 0
M  V30 17246 C 1673.37 0.190444 1.87837 0
M  V30 17247 O 1672.73 -0.81177 1.63452 0
M  V30 17248 C 1672.78 2.55272 2.55965 0
M  V30 17249 O 1672.5 3.85981 2.07245 0
M  V30 17250 C 1674 2.73906 3.48555 0
M  V30 17251 H 1671.22 0.524377 0.418653 0
M  V30 17252 H 1673.77 1.91695 0.712267 0
M  V30 17253 H 1671.92 2.21625 3.17744 0
M  V30 17254 H 1672.34 4.40512 2.84692 0
M  V30 17255 H 1673.81 3.4797 4.2851 0
M  V30 17256 H 1674.29 1.80708 4.00301 0
M  V30 17257 H 1674.89 3.08638 2.92614 0
M  V30 17258 N 1673.21 -0.830057 1.33969 0
M  V30 17259 C 1674.14 -1.95557 1.27592 0
M  V30 17260 C 1675.12 -1.69395 0.154745 0
M  V30 17261 O 1676.31 -1.91094 0.345954 0
M  V30 17262 C 1673.44 -3.31881 1.02335 0
M  V30 17263 C 1672.39 -3.72464 2.10842 0
M  V30 17264 C 1671.72 -5.06692 1.70785 0
M  V30 17265 C 1673.02 -3.85315 3.52604 0
M  V30 17266 H 1674.71 -2.0115 2.21763 0
M  V30 17267 H 1672.26 -0.96639 1.06756 0
M  V30 17268 H 1674.21 -4.10197 0.965206 0
M  V30 17269 H 1672.93 -3.26568 0.0460462 0
M  V30 17270 H 1671.59 -2.96417 2.15714 0
M  V30 17271 H 1671.24 -4.97859 0.717334 0
M  V30 17272 H 1670.94 -5.34817 2.43403 0
M  V30 17273 H 1672.46 -5.87474 1.66452 0
M  V30 17274 H 1673.88 -4.5392 3.50185 0
M  V30 17275 H 1672.27 -4.24886 4.23783 0
M  V30 17276 H 1673.34 -2.87514 3.90466 0
M  V30 17277 N 1674.69 -1.17582 -1.04939 0
M  V30 17278 C 1675.64 -0.891102 -2.14854 0
M  V30 17279 C 1676.63 0.145242 -1.68776 0
M  V30 17280 O 1677.84 -0.00207978 -1.8 0
M  V30 17281 H 1674.21 -0.270641 -0.701611 0
M  V30 17282 H 1676.18 -1.82519 -2.36071 0
M  V30 17283 C 1674.93 -0.423679 -3.45109 0
M  V30 17284 H 1674.25 -1.2126 -3.80967 0
M  V30 17285 H 1675.69 -0.263369 -4.23181 0
M  V30 17286 C 1674.15 0.859085 -3.25763 0
M  V30 17287 O 1674.68 1.9253 -3.52555 0
M  V30 17288 N 1672.89 0.80824 -2.79134 0
M  V30 17289 H 1672.44 -0.0596431 -2.57531 0
M  V30 17290 H 1672.39 1.66697 -2.6657 0
M  V30 17291 N 1676.17 1.23705 -0.976463 0
M  V30 17292 C 1677.41 1.91635 -0.641897 0
M  V30 17293 C 1677.73 1.7661 0.826678 0
M  V30 17294 O 1677 1.14304 1.59096 0
M  V30 17295 H 1675.58 0.709264 -0.234422 0
M  V30 17296 H 1678.25 1.50414 -1.23943 0
M  V30 17297 H 1677.34 2.99138 -0.890099 0
M  V30 17298 N 1677.64 0.747635 1.38738 0
M  V30 17299 C 1678.59 0.11597 2.30508 0
M  V30 17300 C 1679.56 -0.716088 1.49871 0
M  V30 17301 O 1680.75 -0.673446 1.7852 0
M  V30 17302 C 1677.89 -0.775765 3.36268 0
M  V30 17303 C 1677 0.070275 4.31943 0
M  V30 17304 C 1676.13 -0.823908 5.24772 0
M  V30 17305 C 1675.17 0.0261249 6.12094 0
M  V30 17306 N 1674.31 -0.824688 6.9724 0
M  V30 17307 H 1679.15 0.904158 2.83952 0
M  V30 17308 H 1676.69 0.457513 1.39804 0
M  V30 17309 H 1678.64 -1.30735 3.96187 0
M  V30 17310 H 1677.27 -1.5298 2.84248 0
M  V30 17311 H 1676.33 0.719421 3.73535 0
M  V30 17312 H 1677.64 0.726987 4.93474 0
M  V30 17313 H 1676.79 -1.42287 5.89779 0
M  V30 17314 H 1675.53 -1.51437 4.63593 0
M  V30 17315 H 1674.54 0.637803 5.46088 0
M  V30 17316 H 1675.76 0.713556 6.75341 0
M  V30 17317 H 1673.71 -1.50021 6.38616 0
M  V30 17318 H 1673.62 -0.22474 7.55666 0
M  V30 17319 H 1674.89 -1.40882 7.66663 0
M  V30 17320 N 1679.12 -1.49583 0.496242 0
M  V30 17321 C 1680.35 -2.06847 -0.0469118 0
M  V30 17322 C 1680.76 -1.35715 -1.31251 0
M  V30 17323 O 1680.12 -0.434021 -1.77264 0
M  V30 17324 C 1680.17 -3.60174 -0.309338 0
M  V30 17325 O 1679.89 -4.28628 0.906082 0
M  V30 17326 C 1681.39 -4.34137 -0.896664 0
M  V30 17327 H 1678.61 -0.67075 0.0183324 0
M  V30 17328 H 1681.16 -1.92427 0.692237 0
M  V30 17329 H 1679.31 -3.74312 -0.998459 0
M  V30 17330 H 1679.73 -5.20254 0.666014 0
M  V30 17331 H 1681.2 -5.42307 -1.0299 0
M  V30 17332 H 1681.68 -3.96299 -1.89325 0
M  V30 17333 H 1682.28 -4.24593 -0.245158 0
M  V30 17334 N 1680.6 -0.229873 -1.55915 0
M  V30 17335 C 1681.53 0.671321 -2.23642 0
M  V30 17336 C 1682.51 1.19461 -1.21091 0
M  V30 17337 O 1683.7 1.23708 -1.49699 0
M  V30 17338 C 1680.83 1.87595 -2.92276 0
M  V30 17339 C 1679.78 1.48616 -4.01369 0
M  V30 17340 C 1679.11 2.77024 -4.57342 0
M  V30 17341 C 1680.41 0.669928 -5.17986 0
M  V30 17342 H 1682.1 0.106622 -2.9921 0
M  V30 17343 H 1679.65 0.0498418 -1.43914 0
M  V30 17344 H 1681.6 2.51191 -3.3835 0
M  V30 17345 H 1680.32 2.46576 -2.14168 0
M  V30 17346 H 1678.98 0.873623 -3.56038 0
M  V30 17347 H 1678.63 3.34166 -3.75955 0
M  V30 17348 H 1678.33 2.51674 -5.30975 0
M  V30 17349 H 1679.85 3.41548 -5.0614 0
M  V30 17350 H 1681.27 1.20978 -5.6039 0
M  V30 17351 H 1679.66 0.513174 -5.97902 0
M  V30 17352 H 1680.73 -0.321644 -4.83832 0
M  V30 17353 N 1682.08 1.5754 0.0434337 0
M  V30 17354 C 1683.02 2.0561 1.04848 0
M  V30 17355 C 1683.99 0.942299 1.36784 0
M  V30 17356 O 1685.18 1.21191 1.47368 0
M  V30 17357 C 1682.32 2.52844 2.3487 0
M  V30 17358 C 1681.43 3.77958 2.09218 0
M  V30 17359 C 1680.57 4.13859 3.33007 0
M  V30 17360 C 1679.61 5.31932 3.02845 0
M  V30 17361 N 1678.74 5.63335 4.19045 0
M  V30 17362 H 1683.58 2.9123 0.631591 0
M  V30 17363 H 1681.12 1.44003 0.300258 0
M  V30 17364 H 1683.08 2.78291 3.10822 0
M  V30 17365 H 1681.71 1.70161 2.74308 0
M  V30 17366 H 1680.76 3.59681 1.23828 0
M  V30 17367 H 1682.07 4.64034 1.82958 0
M  V30 17368 H 1681.23 4.40358 4.17336 0
M  V30 17369 H 1679.97 3.26406 3.62368 0
M  V30 17370 H 1678.97 5.052 2.16916 0
M  V30 17371 H 1680.2 6.21027 2.74777 0
M  V30 17372 H 1678.14 4.7884 4.48384 0
M  V30 17373 H 1678.06 6.4389 3.96158 0
M  V30 17374 H 1679.33 5.94402 5.04289 0
M  V30 17375 N 1683.56 -0.31543 1.54411 0
M  V30 17376 C 1684.78 -1.07173 1.76979 0
M  V30 17377 C 1685.2 -1.81432 0.522285 0
M  V30 17378 O 1684.56 -1.75306 -0.507348 0
M  V30 17379 C 1684.61 -2.06352 2.96818 0
M  V30 17380 O 1684.33 -1.35108 4.16746 0
M  V30 17381 C 1685.83 -2.94136 3.31661 0
M  V30 17382 H 1683.05 -0.318455 0.590616 0
M  V30 17383 H 1685.59 -0.359085 2.01323 0
M  V30 17384 H 1683.75 -2.7314 2.74724 0
M  V30 17385 H 1684.16 -2.01593 4.84211 0
M  V30 17386 H 1685.64 -3.59606 4.18793 0
M  V30 17387 H 1686.11 -3.6167 2.49182 0
M  V30 17388 H 1686.72 -2.32899 3.55863 0
M  V30 17389 N 1685.03 -1.46622 -0.577906 0
M  V30 17390 C 1686.26 -1.5576 -1.36185 0
M  V30 17391 C 1686.68 -0.200403 -1.87733 0
M  V30 17392 O 1686.03 0.803091 -1.6388 0
M  V30 17393 C 1686.09 -2.56626 -2.54608 0
M  V30 17394 O 1685.81 -3.87074 -2.05195 0
M  V30 17395 C 1687.31 -2.75751 -3.47097 0
M  V30 17396 H 1684.53 -0.526589 -0.415866 0
M  V30 17397 H 1687.07 -1.9207 -0.702091 0
M  V30 17398 H 1685.23 -2.23307 -3.16564 0
M  V30 17399 H 1685.64 -4.42015 -2.82352 0
M  V30 17400 H 1687.11 -3.50237 -4.26659 0
M  V30 17401 H 1687.59 -1.82829 -3.99337 0
M  V30 17402 H 1688.2 -3.10185 -2.90973 0
M  V30 17403 N 1686.51 0.822941 -1.34408 0
M  V30 17404 C 1687.46 1.93383 -1.25982 0
M  V30 17405 C 1688.43 1.6555 -0.13506 0
M  V30 17406 O 1689.61 1.88164 -0.316033 0
M  V30 17407 C 1686.75 3.29646 -1.02117 0
M  V30 17408 C 1685.87 3.69772 -2.23366 0
M  V30 17409 C 1685 4.94982 -1.92784 0
M  V30 17410 C 1684.04 5.2769 -3.10177 0
M  V30 17411 N 1683.18 6.44078 -2.79479 0
M  V30 17412 H 1688.02 1.99922 -2.20987 0
M  V30 17413 H 1685.56 0.978105 -1.0987 0
M  V30 17414 H 1687.51 4.08173 -0.863175 0
M  V30 17415 H 1686.14 3.2262 -0.107803 0
M  V30 17416 H 1685.2 2.86637 -2.50086 0
M  V30 17417 H 1686.51 3.89914 -3.11076 0
M  V30 17418 H 1685.66 5.81297 -1.73721 0
M  V30 17419 H 1684.4 4.76843 -1.02335 0
M  V30 17420 H 1683.41 4.39873 -3.29837 0
M  V30 17421 H 1684.63 5.47769 -4.01405 0
M  V30 17422 H 1682.58 6.27394 -1.91605 0
M  V30 17423 H 1682.49 6.64392 -3.60721 0
M  V30 17424 H 1683.76 7.33462 -2.63919 0
M  V30 17425 N 1687.99 1.18137 1.04314 0
M  V30 17426 C 1689.24 0.975203 1.77471 0
M  V30 17427 C 1689.57 -0.495399 1.88085 0
M  V30 17428 O 1688.82 -1.38401 1.38361 0
M  V30 17429 C 1689.12 1.57211 3.20966 0
M  V30 17430 C 1688.79 3.06842 3.30392 0
M  V30 17431 C 1687.45 3.47683 3.32671 0
M  V30 17432 C 1689.8 4.02855 3.30692 0
M  V30 17433 C 1687.13 4.83116 3.3289 0
M  V30 17434 C 1689.48 5.382 3.3245 0
M  V30 17435 C 1688.14 5.78492 3.33021 0
M  V30 17436 H 1687.41 0.356852 0.649413 0
M  V30 17437 H 1690.06 1.47163 1.22536 0
M  V30 17438 H 1688.37 0.997616 3.78886 0
M  V30 17439 H 1690.06 1.38804 3.76211 0
M  V30 17440 H 1686.65 2.74291 3.29336 0
M  V30 17441 H 1690.84 3.72355 3.28124 0
M  V30 17442 H 1686.09 5.13634 3.31647 0
M  V30 17443 H 1690.27 6.12367 3.31631 0
M  V30 17444 H 1687.89 6.83412 3.32944 0
M  V30 17445 N 1689.47 -1.23186 0.98301 0
M  V30 17446 C 1690.72 -1.90979 0.648851 0
M  V30 17447 C 1691.03 -1.77508 -0.82159 0
M  V30 17448 O 1692.24 -2.40128 -1.26692 0
M  V30 17449 C 1690.69 -3.42357 1.10995 0
M  V30 17450 C 1690.3 -3.64483 2.60492 0
M  V30 17451 C 1692.04 -4.1591 0.849653 0
M  V30 17452 C 1689.95 -5.09511 3.00255 0
M  V30 17453 H 1688.88 -0.715125 0.238983 0
M  V30 17454 H 1691.53 -1.39575 1.19126 0
M  V30 17455 H 1689.91 -3.92885 0.495735 0
M  V30 17456 H 1691.09 -3.24491 3.27173 0
M  V30 17457 H 1689.4 -3.04245 2.84296 0
M  V30 17458 H 1692 -5.22784 1.12256 0
M  V30 17459 H 1692.34 -4.15748 -0.214237 0
M  V30 17460 H 1692.88 -3.71379 1.42557 0
M  V30 17461 H 1689.62 -5.14805 4.05778 0
M  V30 17462 H 1689.14 -5.50443 2.38269 0
M  V30 17463 H 1690.81 -5.77862 2.91005 0
M  V30 17464 N 1690.95 -0.754982 -1.38339 0
M  V30 17465 C 1692.2 -0.308537 -1.99326 0
M  V30 17466 C 1692.51 1.1164 -1.60611 0
M  V30 17467 O 1693.71 1.66339 -2.14578 0
M  V30 17468 C 1692.17 -0.500688 -3.564 0
M  V30 17469 C 1691.78 -1.9348 -4.04066 0
M  V30 17470 C 1693.52 -0.117026 -4.24339 0
M  V30 17471 C 1691.43 -2.07544 -5.53786 0
M  V30 17472 H 1690.36 -0.111611 -0.745694 0
M  V30 17473 H 1693.01 -0.931722 -1.58086 0
M  V30 17474 H 1691.39 0.191702 -3.95536 0
M  V30 17475 H 1692.57 -2.66077 -3.76217 0
M  V30 17476 H 1690.88 -2.27351 -3.48856 0
M  V30 17477 H 1693.48 -0.200847 -5.34323 0
M  V30 17478 H 1693.82 0.930531 -4.05767 0
M  V30 17479 H 1694.35 -0.761323 -3.90447 0
M  V30 17480 H 1691.09 -3.10559 -5.77264 0
M  V30 17481 H 1690.61 -1.39409 -5.83374 0
M  V30 17482 H 1692.29 -1.86605 -6.19506 0
M  V30 17483 N 1692.42 1.49318 -0.504168 0
M  V30 17484 C 1693.35 2.32027 0.261837 0
M  V30 17485 C 1694.34 1.4045 0.959575 0
M  V30 17486 O 1695.52 1.69357 0.950365 0
M  V30 17487 C 1692.65 3.21039 1.3248 0
M  V30 17488 C 1691.6 4.21435 0.746752 0
M  V30 17489 C 1690.93 4.99405 1.91047 0
M  V30 17490 C 1692.23 5.21631 -0.264315 0
M  V30 17491 H 1693.92 2.96317 -0.428544 0
M  V30 17492 H 1691.47 1.42497 -0.207539 0
M  V30 17493 H 1693.42 3.77714 1.86843 0
M  V30 17494 H 1692.15 2.54699 2.04441 0
M  V30 17495 H 1690.81 3.6591 0.22485 0
M  V30 17496 H 1690.45 4.29509 2.61784 0
M  V30 17497 H 1690.15 5.67338 1.52975 0
M  V30 17498 H 1691.68 5.58924 2.45837 0
M  V30 17499 H 1693.09 5.72981 0.191288 0
M  V30 17500 H 1691.49 5.97472 -0.561039 0
M  V30 17501 H 1692.56 4.70346 -1.17911 0
M  V30 17502 N 1693.9 0.238138 1.5579 0
M  V30 17503 C 1695.13 -0.396409 2.03576 0
M  V30 17504 C 1695.55 -1.5138 1.11649 0
M  V30 17505 O 1694.91 -1.80979 0.107774 0
M  V30 17506 C 1694.96 -0.889749 3.49451 0
M  V30 17507 O 1694.06 -1.99997 3.60659 0
M  V30 17508 H 1693.4 -0.0876017 0.658196 0
M  V30 17509 H 1695.93 0.361632 2.01379 0
M  V30 17510 H 1695.94 -1.19526 3.901 0
M  V30 17511 H 1694.62 -0.0720136 4.15838 0
M  V30 17512 H 1693.2 -1.69983 3.31904 0
M  V30 17513 N 1695.38 -1.57561 -0.0350783 0
M  V30 17514 C 1696.31 -2.02953 -1.06502 0
M  V30 17515 C 1697.33 -0.941331 -1.32826 0
M  V30 17516 O 1698.51 -1.21873 -1.30419 0
M  V30 17517 C 1695.61 -2.38471 -2.40801 0
M  V30 17518 C 1694.79 -3.69596 -2.33917 0
M  V30 17519 C 1693.85 -3.9237 -3.50616 0
M  V30 17520 O 1692.87 -4.63504 -3.30382 0
M  V30 17521 N 1694.07 -3.37544 -4.72275 0
M  V30 17522 H 1696.84 -2.91926 -0.678169 0
M  V30 17523 H 1694.4 -1.60355 -0.22313 0
M  V30 17524 H 1696.39 -2.50849 -3.1758 0
M  V30 17525 H 1694.96 -1.55199 -2.71352 0
M  V30 17526 H 1694.18 -3.67629 -1.42277 0
M  V30 17527 H 1695.47 -4.55627 -2.26455 0
M  V30 17528 H 1694.87 -2.79875 -4.91616 0
M  V30 17529 H 1693.43 -3.55312 -5.4644 0
M  V30 17530 N 1696.86 0.307236 -1.54576 0
M  V30 17531 C 1697.77 1.4014 -1.88143 0
M  V30 17532 C 1698.78 1.5579 -0.774952 0
M  V30 17533 O 1699.96 1.70574 -1.07082 0
M  V30 17534 C 1697.03 2.74613 -2.11633 0
M  V30 17535 C 1696.09 2.68001 -3.35371 0
M  V30 17536 C 1695.32 3.96061 -3.57731 0
M  V30 17537 O 1695.54 4.95119 -2.83219 0
M  V30 17538 O 1694.48 3.98331 -4.51238 0
M  V30 17539 H 1698.3 1.14677 -2.81217 0
M  V30 17540 H 1695.89 0.502739 -1.40687 0
M  V30 17541 H 1697.77 3.54186 -2.2832 0
M  V30 17542 H 1696.44 2.99933 -1.21746 0
M  V30 17543 H 1695.35 1.86922 -3.24054 0
M  V30 17544 H 1696.68 2.47635 -4.25368 0
M  V30 17545 N 1698.34 1.46926 0.570122 0
M  V30 17546 C 1699.58 1.52585 1.32523 0
M  V30 17547 C 1699.91 0.184291 1.94127 0
M  V30 17548 O 1699.18 -0.790478 1.79244 0
M  V30 17549 H 1697.76 0.562019 0.492081 0
M  V30 17550 H 1700.42 1.83141 0.666746 0
M  V30 17551 H 1699.51 2.28541 2.12545 0
M  V30 17552 N 1699.82 -0.815801 1.34842 0
M  V30 17553 C 1701.04 -1.60915 1.30848 0
M  V30 17554 C 1701.47 -1.87758 -0.113345 0
M  V30 17555 O 1700.82 -1.4582 -1.07732 0
M  V30 17556 C 1700.87 -2.92284 2.11192 0
M  V30 17557 O 1699.98 -3.84685 1.48632 0
M  V30 17558 H 1699.32 -0.48913 0.449052 0
M  V30 17559 H 1701.85 -1.01322 1.7775 0
M  V30 17560 H 1701.86 -3.41789 2.2281 0
M  V30 17561 H 1700.53 -2.72071 3.14563 0
M  V30 17562 H 1699.11 -3.43215 1.458 0
M  V30 17563 N 1701.29 -1.18689 -1.03686 0
M  V30 17564 C 1702.22 -0.94094 -2.13702 0
M  V30 17565 C 1703.2 0.12277 -1.69656 0
M  V30 17566 O 1704.39 -0.0306085 -1.94176 0
M  V30 17567 C 1701.52 -0.470054 -3.44104 0
M  V30 17568 C 1700.47 -1.47468 -4.01792 0
M  V30 17569 C 1699.8 -0.861174 -5.2772 0
M  V30 17570 C 1701.1 -2.85254 -4.37524 0
M  V30 17571 H 1702.79 -1.86102 -2.34534 0
M  V30 17572 H 1700.34 -0.896207 -1.12713 0
M  V30 17573 H 1702.29 -0.28533 -4.20433 0
M  V30 17574 H 1701.02 0.485604 -3.2297 0
M  V30 17575 H 1699.68 -1.64641 -3.2755 0
M  V30 17576 H 1699.32 0.10179 -5.02897 0
M  V30 17577 H 1699.02 -1.53196 -5.67278 0
M  V30 17578 H 1700.55 -0.687066 -6.06722 0
M  V30 17579 H 1701.96 -2.71711 -5.04823 0
M  V30 17580 H 1700.36 -3.49051 -4.88143 0
M  V30 17581 H 1701.43 -3.38516 -3.47181 0
M  V30 17582 N 1702.77 1.22662 -0.989529 0
M  V30 17583 C 1704.01 1.9305 -0.671653 0
M  V30 17584 C 1704.38 1.75377 0.781465 0
M  V30 17585 O 1705.58 2.39996 1.2106 0
M  V30 17586 C 1703.85 3.41245 -1.0624 0
M  V30 17587 S 1705.41 4.30242 -0.862376 0
M  V30 17588 H 1702.22 0.667204 -0.245682 0
M  V30 17589 H 1704.83 1.48537 -1.2711 0
M  V30 17590 H 1703.53 3.51619 -2.11641 0
M  V30 17591 H 1703.06 3.90764 -0.454611 0
M  V30 17592 H 1705.08 4.95575 0.248897 0
M  V30 17593 N 1704.25 0.762308 1.37937 0
M  V30 17594 C 1705.47 0.332217 2.04722 0
M  V30 17595 C 1705.9 -1.03417 1.57119 0
M  V30 17596 O 1705.26 -1.6608 0.727117 0
M  V30 17597 C 1705.31 0.373899 3.58656 0
M  V30 17598 O 1704.41 -0.629024 4.07575 0
M  V30 17599 H 1703.75 0.145471 0.647869 0
M  V30 17600 H 1706.28 1.03586 1.7644 0
M  V30 17601 H 1706.29 0.22785 4.07363 0
M  V30 17602 H 1704.97 1.37079 3.92661 0
M  V30 17603 H 1703.54 -0.446871 3.70213 0
M  V30 17604 N 1705.73 -1.49049 0.51208 0
M  V30 17605 C 1706.97 -2.0278 -0.0285311 0
M  V30 17606 C 1707.31 -1.39003 -1.35617 0
M  V30 17607 O 1706.58 -0.52952 -1.87153 0
M  V30 17608 C 1706.86 -3.59701 -0.169433 0
M  V30 17609 C 1706.72 -4.33989 1.18211 0
M  V30 17610 C 1708.04 -4.30698 -0.904812 0
M  V30 17611 H 1705.16 -0.736946 -0.00889467 0
M  V30 17612 H 1707.8 -1.77959 0.66564 0
M  V30 17613 H 1705.95 -3.8098 -0.760667 0
M  V30 17614 H 1707.62 -4.24176 1.81307 0
M  V30 17615 H 1705.86 -3.9611 1.76859 0
M  V30 17616 H 1706.53 -5.42177 1.03671 0
M  V30 17617 H 1709.01 -4.14141 -0.40327 0
M  V30 17618 H 1707.89 -5.40221 -0.972264 0
M  V30 17619 H 1708.15 -3.96718 -1.95108 0
M  V30 17620 N 1707.21 -0.246397 -1.55662 0
M  V30 17621 C 1708.43 0.385607 -2.03784 0
M  V30 17622 C 1708.86 1.50786 -1.12451 0
M  V30 17623 O 1708.21 1.8092 -0.117371 0
M  V30 17624 C 1708.26 0.871204 -3.49918 0
M  V30 17625 O 1707.37 1.98082 -3.61715 0
M  V30 17626 H 1706.71 0.0841099 -0.658651 0
M  V30 17627 H 1709.24 -0.372306 -2.01184 0
M  V30 17628 H 1709.25 1.17455 -3.90728 0
M  V30 17629 H 1707.92 0.0499597 -4.1587 0
M  V30 17630 H 1706.5 1.6822 -3.32801 0
M  V30 17631 N 1708.68 1.57577 0.026722 0
M  V30 17632 C 1709.93 1.8856 0.716115 0
M  V30 17633 C 1710.25 0.845223 1.76395 0
M  V30 17634 O 1711.45 1.04435 2.5061 0
M  V30 17635 C 1709.91 3.34631 1.32476 0
M  V30 17636 C 1709.52 4.46904 0.313149 0
M  V30 17637 C 1711.26 3.74759 1.9939 0
M  V30 17638 C 1709.17 5.84038 0.930274 0
M  V30 17639 H 1708.1 0.703531 0.271221 0
M  V30 17640 H 1710.75 1.83476 -0.0294388 0
M  V30 17641 H 1709.13 3.34466 2.1201 0
M  V30 17642 H 1710.3 4.58542 -0.455647 0
M  V30 17643 H 1708.62 4.15624 -0.254028 0
M  V30 17644 H 1711.22 4.74534 2.46418 0
M  V30 17645 H 1711.56 3.06875 2.81307 0
M  V30 17646 H 1712.09 3.77108 1.26628 0
M  V30 17647 H 1708.83 6.55327 0.150466 0
M  V30 17648 H 1708.35 5.76116 1.66886 0
M  V30 17649 H 1710.03 6.30842 1.43692 0
M  V30 17650 N 1710.16 -0.299034 1.54737 0
M  V30 17651 C 1711.07 -1.39141 1.88884 0
M  V30 17652 C 1712.09 -1.55377 0.783203 0
M  V30 17653 O 1713.26 -1.70003 1.07985 0
M  V30 17654 C 1710.33 -2.73487 2.13087 0
M  V30 17655 C 1709.39 -2.66219 3.36788 0
M  V30 17656 C 1708.62 -3.94158 3.59827 0
M  V30 17657 O 1708.85 -4.9361 2.85841 0
M  V30 17658 O 1707.78 -3.95933 4.53344 0
M  V30 17659 H 1711.61 -1.13184 2.81821 0
M  V30 17660 H 1709.19 -0.495271 1.40952 0
M  V30 17661 H 1711.07 -3.5297 2.30195 0
M  V30 17662 H 1709.75 -2.99283 1.23335 0
M  V30 17663 H 1708.65 -1.85201 3.25041 0
M  V30 17664 H 1709.99 -2.45376 4.26675 0
M  V30 17665 N 1711.64 -1.47227 -0.562322 0
M  V30 17666 C 1712.59 -1.59329 -1.66981 0
M  V30 17667 C 1713.56 -0.436558 -1.6026 0
M  V30 17668 O 1714.74 -0.655956 -1.7917 0
M  V30 17669 C 1711.88 -1.60874 -3.05309 0
M  V30 17670 C 1710.99 -2.87428 -3.22505 0
M  V30 17671 C 1710.13 -2.80342 -4.512 0
M  V30 17672 C 1709.17 -4.01744 -4.6181 0
M  V30 17673 N 1708.31 -3.92924 -5.81855 0
M  V30 17674 H 1713.15 -2.53921 -1.55975 0
M  V30 17675 H 1710.68 -1.25953 -0.759879 0
M  V30 17676 H 1712.64 -1.59753 -3.85402 0
M  V30 17677 H 1711.27 -0.697994 -3.15163 0
M  V30 17678 H 1710.32 -2.98439 -2.35878 0
M  V30 17679 H 1711.63 -3.77345 -3.26209 0
M  V30 17680 H 1710.79 -2.77442 -5.39547 0
M  V30 17681 H 1709.53 -1.881 -4.49966 0
M  V30 17682 H 1708.53 -4.04954 -3.71877 0
M  V30 17683 H 1709.76 -4.95107 -4.64807 0
M  V30 17684 H 1707.7 -3.03481 -5.8158 0
M  V30 17685 H 1707.62 -4.76514 -5.86916 0
M  V30 17686 H 1708.89 -3.94031 -6.72577 0
M  V30 17687 N 1713.12 0.808639 -1.35273 0
M  V30 17688 C 1714.08 1.90195 -1.279 0
M  V30 17689 C 1715.08 1.59663 -0.190915 0
M  V30 17690 O 1716.27 1.68434 -0.444482 0
M  V30 17691 C 1713.4 3.26567 -0.978106 0
M  V30 17692 H 1714.6 1.98152 -2.25113 0
M  V30 17693 H 1712.15 1.00426 -1.19767 0
M  V30 17694 H 1712.88 3.24299 -0.00975789 0
M  V30 17695 H 1712.67 3.50114 -1.7653 0
M  V30 17696 H 1714.16 4.06602 -0.95207 0
M  V30 17697 N 1714.6 1.19237 1.03055 0
M  V30 17698 C 1715.53 0.95226 2.132 0
M  V30 17699 C 1716.51 -0.113771 1.69719 0
M  V30 17700 O 1717.69 0.0409057 1.94157 0
M  V30 17701 C 1714.82 0.488296 3.4385 0
M  V30 17702 C 1713.78 1.49597 4.01005 0
M  V30 17703 C 1713.1 0.889148 5.27255 0
M  V30 17704 C 1714.4 2.87571 4.36005 0
M  V30 17705 H 1716.1 1.87343 2.33544 0
M  V30 17706 H 1713.64 0.902172 1.12236 0
M  V30 17707 H 1715.6 0.307623 4.20276 0
M  V30 17708 H 1714.32 -0.468469 3.23223 0
M  V30 17709 H 1712.98 1.66376 3.26672 0
M  V30 17710 H 1712.63 -0.0751191 5.02944 0
M  V30 17711 H 1712.33 1.56202 5.66458 0
M  V30 17712 H 1713.85 0.719233 6.06349 0
M  V30 17713 H 1715.26 2.74384 5.03375 0
M  V30 17714 H 1713.66 3.51635 4.86285 0
M  V30 17715 H 1714.73 3.40353 3.45381 0
M  V30 17716 N 1716.07 -1.22136 0.99602 0
M  V30 17717 C 1717.49 -1.72743 0.708295 0
M  V30 17718 C 1717.84 -1.8026 -0.774649 0
M  V30 17719 O 1716.96 -1.45102 -1.60544 0
M  V30 17720 C 1717.56 -3.13729 1.27905 0
M  V30 17721 C 1716.12 -3.61729 1.04064 0
M  V30 17722 C 1715.26 -2.39519 1.39735 0
M  V30 17723 H 1718.21 -1.07439 1.16801 0
M  V30 17724 H 1718.23 -3.74746 0.65919 0
M  V30 17725 H 1717.75 -3.08225 2.35836 0
M  V30 17726 H 1715.85 -3.72594 -0.0219029 0
M  V30 17727 H 1715.96 -4.47689 1.70621 0
M  V30 17728 H 1714.32 -2.41275 0.815986 0
M  V30 17729 H 1715.11 -2.36675 2.48677 0
M  V30 17730 N 1717.55 -0.769612 -1.37531 0
M  V30 17731 C 1718.46 -0.15514 -2.34086 0
M  V30 17732 C 1719.48 0.682108 -1.60073 0
M  V30 17733 O 1720.65 0.602527 -1.92176 0
M  V30 17734 C 1717.72 0.715344 -3.3924 0
M  V30 17735 C 1716.78 -0.138116 -4.29078 0
M  V30 17736 C 1716.01 0.690916 -5.29209 0
M  V30 17737 O 1716.24 1.92812 -5.36824 0
M  V30 17738 O 1715.17 0.101247 -6.01815 0
M  V30 17739 H 1719 -0.952968 -2.88361 0
M  V30 17740 H 1716.58 -0.530738 -1.39655 0
M  V30 17741 H 1718.46 1.21236 -4.03584 0
M  V30 17742 H 1717.14 1.4914 -2.87296 0
M  V30 17743 H 1716.05 -0.681443 -3.67841 0
M  V30 17744 H 1717.38 -0.877202 -4.8432 0
M  V30 17745 N 1719.03 1.48775 -0.519977 0
M  V30 17746 C 1720.31 1.95429 0.0816701 0
M  V30 17747 C 1720.69 1.46199 1.52279 0
M  V30 17748 O 1720.04 0.684057 2.1802 0
M  V30 17749 C 1720.25 3.48991 -0.0252472 0
M  V30 17750 C 1721.59 4.24372 0.139099 0
M  V30 17751 O 1722.62 3.56166 0.0490322 0
M  V30 17752 O 1721.48 5.45524 0.326426 0
M  V30 17753 H 1718.57 0.822637 0.0848378 0
M  V30 17754 H 1721.12 1.5934 -0.583865 0
M  V30 17755 H 1719.89 3.77514 -1.02951 0
M  V30 17756 H 1719.51 3.91749 0.679588 0
M  V30 17757 N 1720.51 0.254649 1.55529 0
M  V30 17758 C 1721.92 -0.100019 1.59286 0
M  V30 17759 C 1722.12 -1.56289 1.27185 0
M  V30 17760 O 1721.18 -2.30854 1.02287 0
M  V30 17761 C 1722.49 0.256158 2.99607 0
M  V30 17762 C 1724.04 0.201091 3.12353 0
M  V30 17763 C 1724.52 0.531411 4.54907 0
M  V30 17764 N 1726.01 0.482199 4.60683 0
M  V30 17765 C 1726.74 0.710848 5.68977 0
M  V30 17766 N 1726.24 1.00304 6.85501 0
M  V30 17767 N 1728.03 0.641029 5.58433 0
M  V30 17768 H 1720.18 1.20856 1.74664 0
M  V30 17769 H 1722.45 0.486824 0.813453 0
M  V30 17770 H 1722.15 1.27275 3.27863 0
M  V30 17771 H 1722.03 -0.412994 3.74932 0
M  V30 17772 H 1724.41 -0.806189 2.83874 0
M  V30 17773 H 1724.49 0.904206 2.39286 0
M  V30 17774 H 1724.14 1.53628 4.84108 0
M  V30 17775 H 1724.07 -0.193269 5.26245 0
M  V30 17776 H 1726.56 0.265409 3.76967 0
M  V30 17777 H 1726.87 1.16472 7.63973 0
M  V30 17778 H 1725.22 1.04059 6.87166 0
M  V30 17779 H 1728.41 0.412751 4.66277 0
M  V30 17780 H 1728.58 0.822617 6.42757 0
M  V30 17781 N 1721.99 -1.57589 -0.0183649 0
M  V30 17782 C 1723.23 -1.89382 -0.705612 0
M  V30 17783 C 1723.56 -0.853698 -1.7532 0
M  V30 17784 O 1722.83 0.111322 -1.95583 0
M  V30 17785 H 1721.41 -0.698943 -0.263605 0
M  V30 17786 H 1724.07 -1.94891 0.0182168 0
M  V30 17787 H 1723.16 -2.88587 -1.18845 0
M  V30 17788 N 1723.46 0.290824 -1.54893 0
M  V30 17789 C 1724.39 1.36354 -1.89551 0
M  V30 17790 C 1725.38 1.52403 -0.75546 0
M  V30 17791 O 1726.56 1.65743 -1.01208 0
M  V30 17792 C 1723.69 2.72609 -2.15178 0
M  V30 17793 C 1722.64 2.71313 -3.31019 0
M  V30 17794 C 1721.97 4.10952 -3.42085 0
M  V30 17795 C 1723.27 2.32153 -4.6787 0
M  V30 17796 H 1724.96 1.07597 -2.79398 0
M  V30 17797 H 1722.51 0.516154 -1.34432 0
M  V30 17798 H 1724.46 3.47749 -2.3801 0
M  V30 17799 H 1723.19 3.02913 -1.22112 0
M  V30 17800 H 1721.85 1.9863 -3.08126 0
M  V30 17801 H 1721.49 4.38449 -2.46518 0
M  V30 17802 H 1721.19 4.10984 -4.1996 0
M  V30 17803 H 1722.72 4.87857 -3.67189 0
M  V30 17804 H 1724.13 2.97011 -4.90364 0
M  V30 17805 H 1722.53 2.4338 -5.48531 0
M  V30 17806 H 1723.6 1.27279 -4.67897 0
M  V30 17807 N 1724.94 1.47523 0.554506 0
M  V30 17808 C 1726.17 1.57678 1.33496 0
M  V30 17809 C 1726.58 0.226976 1.87834 0
M  V30 17810 O 1725.92 -0.790327 1.6583 0
M  V30 17811 C 1725.99 2.54423 2.53987 0
M  V30 17812 C 1725.65 4.00056 2.20916 0
M  V30 17813 C 1726.65 4.88462 1.78048 0
M  V30 17814 C 1724.33 4.45412 2.32192 0
M  V30 17815 C 1726.33 6.20244 1.46889 0
M  V30 17816 C 1724.01 5.77221 2.00646 0
M  V30 17817 C 1725.01 6.64459 1.58062 0
M  V30 17818 O 1724.7 7.93818 1.26917 0
M  V30 17819 H 1724.43 0.535053 0.413152 0
M  V30 17820 H 1726.98 1.93878 0.678279 0
M  V30 17821 H 1725.21 2.13296 3.22555 0
M  V30 17822 H 1726.9 2.54676 3.16061 0
M  V30 17823 H 1727.67 4.54667 1.68827 0
M  V30 17824 H 1723.55 3.77715 2.64296 0
M  V30 17825 H 1727.09 6.88292 1.13578 0
M  V30 17826 H 1722.99 6.10557 2.095 0
M  V30 17827 H 1723.76 8.06347 1.40525 0
M  V30 17828 N 1726.42 -0.801453 1.357 0
M  V30 17829 C 1727.37 -1.91355 1.29043 0
M  V30 17830 C 1728.34 -1.65314 0.161381 0
M  V30 17831 O 1729.52 -1.87638 0.345928 0
M  V30 17832 C 1726.66 -3.27979 1.07348 0
M  V30 17833 C 1725.78 -3.66172 2.29221 0
M  V30 17834 C 1724.91 -4.91853 2.00635 0
M  V30 17835 C 1723.95 -5.22688 3.18533 0
M  V30 17836 N 1723.09 -6.3955 2.8969 0
M  V30 17837 H 1727.93 -1.96381 2.24139 0
M  V30 17838 H 1725.46 -0.960502 1.11413 0
M  V30 17839 H 1727.42 -4.06748 0.928002 0
M  V30 17840 H 1726.05 -3.22408 0.159115 0
M  V30 17841 H 1725.1 -2.82623 2.54615 0
M  V30 17842 H 1726.42 -3.84916 3.1724 0
M  V30 17843 H 1725.57 -5.78459 1.82947 0
M  V30 17844 H 1724.31 -4.75154 1.09908 0
M  V30 17845 H 1723.31 -4.34569 3.36793 0
M  V30 17846 H 1724.54 -5.41313 4.10069 0
M  V30 17847 H 1722.48 -6.24266 2.01562 0
M  V30 17848 H 1722.4 -6.58569 3.71245 0
M  V30 17849 H 1723.67 -7.29171 2.75555 0
M  V30 17850 N 1727.9 -1.19782 -1.02421 0
M  V30 17851 C 1729.14 -1.0145 -1.77446 0
M  V30 17852 C 1729.5 0.44637 -1.86739 0
M  V30 17853 O 1730.7 0.749639 -2.58135 0
M  V30 17854 C 1728.97 -1.67055 -3.15955 0
M  V30 17855 S 1730.53 -1.63725 -4.07111 0
M  V30 17856 H 1727.35 -0.363945 -0.610791 0
M  V30 17857 H 1729.95 -1.52209 -1.2269 0
M  V30 17858 H 1728.66 -2.72571 -3.06811 0
M  V30 17859 H 1728.19 -1.16396 -3.75787 0
M  V30 17860 H 1730.2 -0.664732 -4.91727 0
M  V30 17861 N 1729.38 1.21606 -1.00248 0
M  V30 17862 C 1730.62 1.9089 -0.684765 0
M  V30 17863 C 1730.96 1.77749 0.78224 0
M  V30 17864 O 1730.23 1.15251 1.56676 0
M  V30 17865 C 1730.51 3.42778 -1.1034 0
M  V30 17866 C 1730.37 3.64923 -2.62967 0
M  V30 17867 C 1731.69 4.35064 -0.663877 0
M  V30 17868 H 1728.81 0.693217 -0.250239 0
M  V30 17869 H 1731.45 1.4329 -1.24772 0
M  V30 17870 H 1729.6 3.83449 -0.624415 0
M  V30 17871 H 1731.27 3.33595 -3.18609 0
M  V30 17872 H 1729.51 3.08874 -3.04596 0
M  V30 17873 H 1730.18 4.71335 -2.87311 0
M  V30 17874 H 1732.66 4.01962 -1.07544 0
M  V30 17875 H 1731.54 5.3999 -0.984987 0
M  V30 17876 H 1731.8 4.39954 0.435095 0
M  V30 17877 N 1730.86 0.776895 1.37121 0
M  V30 17878 C 1731.82 0.172839 2.28547 0
M  V30 17879 C 1732.82 -0.622508 1.48262 0
M  V30 17880 O 1734.01 -0.44534 1.68411 0
M  V30 17881 C 1731.14 -0.762294 3.32268 0
M  V30 17882 H 1732.33 0.978842 2.83476 0
M  V30 17883 H 1729.89 0.545454 1.46474 0
M  V30 17884 H 1730.62 -1.59311 2.82472 0
M  V30 17885 H 1730.41 -0.194084 3.91619 0
M  V30 17886 H 1731.9 -1.1802 4.00576 0
M  V30 17887 N 1732.33 -1.48497 0.527859 0
M  V30 17888 C 1733.28 -2.2959 -0.23607 0
M  V30 17889 C 1734.25 -1.37232 -0.935762 0
M  V30 17890 O 1735.44 -1.66196 -0.937202 0
M  V30 17891 C 1732.58 -3.20551 -1.27832 0
M  V30 17892 C 1731.69 -4.27984 -0.58769 0
M  V30 17893 C 1730.82 -5.06128 -1.61269 0
M  V30 17894 C 1729.86 -6.05367 -0.905404 0
M  V30 17895 N 1729 -6.76577 -1.87585 0
M  V30 17896 H 1733.84 -2.94403 0.461635 0
M  V30 17897 H 1731.38 -1.45137 0.239493 0
M  V30 17898 H 1733.33 -3.71686 -1.89488 0
M  V30 17899 H 1731.96 -2.57665 -1.94444 0
M  V30 17900 H 1731.02 -3.80132 0.142759 0
M  V30 17901 H 1732.33 -4.9879 -0.0322348 0
M  V30 17902 H 1731.48 -5.61266 -2.30359 0
M  V30 17903 H 1730.22 -4.35157 -2.20204 0
M  V30 17904 H 1729.23 -5.49435 -0.200426 0
M  V30 17905 H 1730.45 -6.78335 -0.322197 0
M  V30 17906 H 1728.4 -6.08358 -2.45432 0
M  V30 17907 H 1728.31 -7.4345 -1.37178 0
M  V30 17908 H 1729.58 -7.36305 -2.5588 0
M  V30 17909 N 1733.81 -0.262893 -1.55392 0
M  V30 17910 C 1734.76 0.645946 -2.23451 0
M  V30 17911 C 1735.75 1.16753 -1.2274 0
M  V30 17912 O 1736.96 1.12257 -1.40706 0
M  V30 17913 H 1733.33 0.226829 -0.716975 0
M  V30 17914 H 1735.31 0.0489539 -2.9836 0
M  V30 17915 C 1734.05 1.82451 -2.95985 0
M  V30 17916 H 1733.38 1.43233 -3.73262 0
M  V30 17917 H 1734.82 2.43731 -3.46945 0
M  V30 17918 C 1733.28 2.7055 -2.0076 0
M  V30 17919 O 1733.81 3.70552 -1.55093 0
M  V30 17920 N 1732.01 2.37457 -1.67519 0
M  V30 17921 H 1731.56 1.56184 -2.04852 0
M  V30 17922 H 1731.52 2.96675 -1.04074 0
M  V30 17923 N 1735.29 1.57597 0.0100073 0
M  V30 17924 C 1736.57 1.81329 0.733415 0
M  V30 17925 C 1736.95 0.865495 1.92542 0
M  V30 17926 O 1736.29 -0.088073 2.2833 0
M  V30 17927 C 1736.5 3.29559 1.14856 0
M  V30 17928 C 1737.85 3.95039 1.55658 0
M  V30 17929 O 1738.88 3.33822 1.24262 0
M  V30 17930 O 1737.74 5.02858 2.13999 0
M  V30 17931 H 1734.83 0.746334 0.35625 0
M  V30 17932 H 1737.38 1.69694 -0.0146791 0
M  V30 17933 H 1736.15 3.9016 0.298467 0
M  V30 17934 H 1735.77 3.46156 1.95607 0
M  V30 17935 N 1736.77 -0.282606 1.55045 0
M  V30 17936 C 1737.73 -1.33228 1.86502 0
M  V30 17937 C 1738.73 -1.42814 0.738977 0
M  V30 17938 O 1739.92 -1.42131 1.0072 0
M  V30 17939 C 1737.05 -2.71488 2.06173 0
M  V30 17940 H 1738.25 -1.06571 2.80326 0
M  V30 17941 H 1735.8 -0.520199 1.47389 0
M  V30 17942 H 1736.53 -3.03339 1.14699 0
M  V30 17943 H 1736.32 -2.65917 2.8815 0
M  V30 17944 H 1737.81 -3.47348 2.31817 0
M  V30 17945 N 1738.25 -1.47815 -0.546675 0
M  V30 17946 C 1739.49 -1.54674 -1.30078 0
M  V30 17947 C 1739.81 -0.215151 -1.93809 0
M  V30 17948 O 1739.08 0.761862 -1.80478 0
M  V30 17949 H 1737.66 -0.569776 -0.483078 0
M  V30 17950 H 1740.33 -1.84178 -0.637525 0
M  V30 17951 H 1739.42 -2.31894 -2.08882 0
M  V30 17952 N 1739.72 0.794246 -1.36123 0
M  V30 17953 C 1740.66 1.91514 -1.25917 0
M  V30 17954 C 1741.67 1.61805 -0.179715 0
M  V30 17955 O 1742.86 1.73143 -0.434029 0
M  V30 17956 C 1739.96 3.26201 -0.919018 0
M  V30 17957 C 1739.13 3.83725 -2.09937 0
M  V30 17958 C 1738.19 4.96842 -1.73304 0
M  V30 17959 O 1737.22 5.13615 -2.45333 0
M  V30 17960 N 1738.42 5.76691 -0.663887 0
M  V30 17961 H 1741.18 2.00793 -2.22491 0
M  V30 17962 H 1738.74 0.97228 -1.29454 0
M  V30 17963 H 1740.74 3.99361 -0.655208 0
M  V30 17964 H 1739.31 3.12571 -0.0425606 0
M  V30 17965 H 1738.53 3.02611 -2.52626 0
M  V30 17966 H 1739.81 4.18889 -2.88806 0
M  V30 17967 H 1739.21 5.65662 -0.0657071 0
M  V30 17968 H 1737.77 6.50176 -0.459889 0
M  V30 17969 N 1741.2 1.20323 1.01785 0
M  V30 17970 C 1742.16 0.9527 2.08462 0
M  V30 17971 C 1743.16 -0.0712564 1.60642 0
M  V30 17972 O 1744.35 0.164672 1.7342 0
M  V30 17973 C 1741.49 0.434052 3.38125 0
M  V30 17974 H 1742.68 1.89895 2.32121 0
M  V30 17975 H 1740.23 1.01843 1.18565 0
M  V30 17976 H 1740.97 -0.51772 3.20141 0
M  V30 17977 H 1740.75 1.17248 3.74159 0
M  V30 17978 H 1742.24 0.278215 4.16672 0
M  V30 17979 N 1742.68 -1.21073 1.00892 0
M  V30 17980 C 1743.59 -2.27265 0.582065 0
M  V30 17981 C 1744.61 -1.69872 -0.376785 0
M  V30 17982 O 1745.78 -1.99969 -0.239644 0
M  V30 17983 C 1742.85 -3.46606 -0.0806764 0
M  V30 17984 C 1741.91 -4.19257 0.923147 0
M  V30 17985 C 1741.14 -5.32901 0.291938 0
M  V30 17986 O 1741.36 -5.6309 -0.910282 0
M  V30 17987 O 1740.3 -5.93453 1.00483 0
M  V30 17988 H 1744.12 -2.65977 1.46594 0
M  V30 17989 H 1741.71 -1.27544 0.777999 0
M  V30 17990 H 1743.59 -4.18978 -0.451177 0
M  V30 17991 H 1742.27 -3.09785 -0.93887 0
M  V30 17992 H 1741.17 -3.4909 1.34488 0
M  V30 17993 H 1742.51 -4.59999 1.75106 0
M  V30 17994 N 1744.16 -0.784156 -1.36707 0
M  V30 17995 C 1745.4 -0.359468 -2.01214 0
M  V30 17996 C 1745.76 1.04773 -1.60893 0
M  V30 17997 O 1746.96 1.57321 -2.17953 0
M  V30 17998 C 1745.23 -0.512117 -3.53712 0
M  V30 17999 S 1746.79 -0.174528 -4.38453 0
M  V30 18000 H 1743.61 -0.137618 -0.697555 0
M  V30 18001 H 1746.21 -1.02149 -1.66691 0
M  V30 18002 H 1744.92 -1.53667 -3.80545 0
M  V30 18003 H 1744.45 0.166027 -3.9305 0
M  V30 18004 H 1746.46 1.02572 -4.85483 0
M  V30 18005 N 1745.64 1.48215 -0.535727 0
M  V30 18006 C 1746.86 2.07399 -0.00589172 0
M  V30 18007 C 1747.29 1.38886 1.26856 0
M  V30 18008 O 1746.64 0.456684 1.75454 0
M  V30 18009 C 1746.69 3.60071 0.195203 0
M  V30 18010 O 1745.8 3.92596 1.26261 0
M  V30 18011 H 1745.14 0.662689 -0.0416988 0
M  V30 18012 H 1747.67 1.90543 -0.745281 0
M  V30 18013 H 1747.68 4.05873 0.416085 0
M  V30 18014 H 1746.35 4.0934 -0.735747 0
M  V30 18015 H 1744.93 3.58567 1.02393 0
M  V30 18016 N 1747.11 0.27113 1.5525 0
M  V30 18017 C 1748.35 -0.34803 2.01415 0
M  V30 18018 C 1748.72 -1.53347 1.15536 0
M  V30 18019 O 1749.92 -2.222 1.51264 0
M  V30 18020 C 1748.19 -0.72441 3.49982 0
M  V30 18021 S 1749.75 -1.33067 4.18137 0
M  V30 18022 H 1746.57 -0.108431 0.702683 0
M  V30 18023 H 1749.17 0.392033 1.91529 0
M  V30 18024 H 1747.87 0.14729 4.10136 0
M  V30 18025 H 1747.4 -1.49604 3.63844 0
M  V30 18026 H 1749.42 -2.61934 4.21432 0
M  V30 18027 N 1748.59 -1.576 -0.00164943 0
M  V30 18028 C 1749.52 -2.05167 -1.02173 0
M  V30 18029 C 1750.54 -0.969293 -1.308 0
M  V30 18030 O 1751.73 -1.24612 -1.27805 0
M  V30 18031 C 1748.83 -2.43525 -2.35688 0
M  V30 18032 C 1748 -3.74475 -2.26025 0
M  V30 18033 C 1747.06 -3.99719 -3.42215 0
M  V30 18034 O 1746.08 -4.70408 -3.20476 0
M  V30 18035 N 1747.29 -3.47486 -4.65009 0
M  V30 18036 H 1750.05 -2.93299 -0.616095 0
M  V30 18037 H 1747.61 -1.60792 -0.189066 0
M  V30 18038 H 1749.6 -2.57528 -3.12188 0
M  V30 18039 H 1748.17 -1.6092 -2.67999 0
M  V30 18040 H 1747.39 -3.70564 -1.34447 0
M  V30 18041 H 1748.68 -4.60328 -2.16739 0
M  V30 18042 H 1748.08 -2.9024 -4.85569 0
M  V30 18043 H 1746.64 -3.66822 -5.38781 0
M  V30 18044 N 1750.07 0.274379 -1.55193 0
M  V30 18045 C 1751.32 1.00766 -1.75995 0
M  V30 18046 C 1751.65 1.8599 -0.558679 0
M  V30 18047 O 1750.92 1.8937 0.443784 0
M  V30 18048 C 1751.21 1.89137 -3.0643 0
M  V30 18049 C 1751.06 1.06914 -4.36909 0
M  V30 18050 C 1752.38 2.87869 -3.32896 0
M  V30 18051 H 1749.5 0.364915 -0.640317 0
M  V30 18052 H 1752.14 0.280156 -1.87923 0
M  V30 18053 H 1750.29 2.51166 -2.96391 0
M  V30 18054 H 1751.96 0.469666 -4.58903 0
M  V30 18055 H 1750.21 0.372566 -4.32197 0
M  V30 18056 H 1750.88 1.72063 -5.24498 0
M  V30 18057 H 1753.35 2.35974 -3.42718 0
M  V30 18058 H 1752.23 3.46845 -4.25429 0
M  V30 18059 H 1752.49 3.62921 -2.52469 0
M  V30 18060 N 1751.55 1.48103 0.538828 0
M  V30 18061 C 1752.78 1.59316 1.32008 0
M  V30 18062 C 1753.19 0.250107 1.87136 0
M  V30 18063 O 1752.55 -0.759358 1.65952 0
M  V30 18064 C 1752.6 2.63287 2.47714 0
M  V30 18065 O 1752.32 3.92379 1.9486 0
M  V30 18066 C 1753.82 2.84856 3.39664 0
M  V30 18067 H 1751.04 0.53743 0.401758 0
M  V30 18068 H 1753.59 1.93864 0.65092 0
M  V30 18069 H 1751.74 2.31621 3.10532 0
M  V30 18070 H 1752.15 4.49346 2.70534 0
M  V30 18071 H 1753.63 3.61426 4.17223 0
M  V30 18072 H 1754.11 1.93352 3.9435 0
M  V30 18073 H 1754.71 3.17791 2.82647 0
M  V30 18074 N 1753.03 -0.787016 1.36542 0
M  V30 18075 C 1754.27 -1.54728 1.311 0
M  V30 18076 C 1754.61 -1.93895 -0.108853 0
M  V30 18077 O 1753.88 -1.62896 -1.06278 0
M  V30 18078 C 1754.16 -2.82272 2.23594 0
M  V30 18079 C 1754.02 -2.49457 3.74287 0
M  V30 18080 C 1755.34 -3.84112 2.14816 0
M  V30 18081 H 1752.45 -0.561347 0.477555 0
M  V30 18082 H 1755.1 -0.904027 1.67115 0
M  V30 18083 H 1753.25 -3.37163 1.93011 0
M  V30 18084 H 1754.92 -2.00599 4.15401 0
M  V30 18085 H 1753.16 -1.82366 3.93605 0
M  V30 18086 H 1753.83 -3.40563 4.3442 0
M  V30 18087 H 1756.31 -3.38674 2.41741 0
M  V30 18088 H 1755.18 -4.71101 2.817 0
M  V30 18089 H 1755.45 -4.2725 1.13621 0
M  V30 18090 N 1754.5 -1.20861 -1.01145 0
M  V30 18091 C 1755.78 -0.93084 -1.72031 0
M  V30 18092 C 1756.16 0.559051 -2.03563 0
M  V30 18093 O 1755.51 1.52214 -1.70421 0
M  V30 18094 C 1755.72 -1.8092 -2.98444 0
M  V30 18095 C 1757.07 -2.05415 -3.71604 0
M  V30 18096 O 1758.09 -1.78216 -3.08411 0
M  V30 18097 O 1756.95 -2.5138 -4.85253 0
M  V30 18098 H 1754.04 -0.348488 -0.74999 0
M  V30 18099 H 1756.59 -1.3176 -1.06946 0
M  V30 18100 H 1755.36 -2.81783 -2.71503 0
M  V30 18101 H 1754.99 -1.42285 -3.71269 0
M  V30 18102 N 1755.98 1.20536 -1.01532 0
M  V30 18103 C 1757.26 1.85545 -0.619063 0
M  V30 18104 C 1757.64 1.90816 0.902916 0
M  V30 18105 O 1756.99 1.41506 1.79411 0
M  V30 18106 C 1757.2 3.25252 -1.26539 0
M  V30 18107 C 1758.55 4.01547 -1.38003 0
M  V30 18108 O 1759.57 3.34601 -1.22151 0
M  V30 18109 O 1758.43 5.21436 -1.63605 0
M  V30 18110 H 1755.52 0.798985 -0.21343 0
M  V30 18111 H 1758.07 1.28136 -1.11262 0
M  V30 18112 H 1756.84 3.16174 -2.30542 0
M  V30 18113 H 1756.46 3.90292 -0.758833 0
M  V30 18114 N 1757.46 0.791395 1.36289 0
M  V30 18115 C 1758.42 0.197069 2.28351 0
M  V30 18116 C 1759.42 -0.606748 1.48913 0
M  V30 18117 O 1760.61 -0.427453 1.68874 0
M  V30 18118 C 1757.75 -0.727009 3.33058 0
M  V30 18119 H 1758.94 1.00885 2.82422 0
M  V30 18120 H 1756.49 0.560959 1.45887 0
M  V30 18121 H 1757.23 -1.56306 2.84146 0
M  V30 18122 H 1757.01 -0.152537 3.91803 0
M  V30 18123 H 1758.5 -1.13765 4.01805 0
M  V30 18124 N 1758.94 -1.47929 0.54358 0
M  V30 18125 C 1760.35 -1.86395 0.10663 0
M  V30 18126 C 1760.7 -1.45171 -1.31984 0
M  V30 18127 O 1759.83 -0.848558 -1.99069 0
M  V30 18128 C 1760.42 -3.38285 0.186733 0
M  V30 18129 C 1758.98 -3.75894 -0.195098 0
M  V30 18130 C 1758.13 -2.71983 0.540427 0
M  V30 18131 H 1761.08 -1.3964 0.754076 0
M  V30 18132 H 1761.1 -3.75769 -0.598151 0
M  V30 18133 H 1760.61 -3.68258 1.22505 0
M  V30 18134 H 1758.71 -3.51536 -1.23504 0
M  V30 18135 H 1758.83 -4.78853 0.153975 0
M  V30 18136 H 1757.19 -2.54696 -0.0149151 0
M  V30 18137 H 1757.97 -3.04799 1.57963 0
M  V30 18138 N 1760.42 -0.27936 -1.55104 0
M  V30 18139 C 1761.38 0.593214 -2.2139 0
M  V30 18140 C 1762.38 1.07807 -1.19308 0
M  V30 18141 O 1763.57 0.97756 -1.44185 0
M  V30 18142 C 1760.7 1.81889 -2.88321 0
M  V30 18143 H 1761.9 0.0143941 -2.99897 0
M  V30 18144 H 1759.45 -0.0300083 -1.56271 0
M  V30 18145 H 1760.18 2.43811 -2.13838 0
M  V30 18146 H 1759.97 1.4791 -3.63132 0
M  V30 18147 H 1761.46 2.4393 -3.38951 0
M  V30 18148 N 1761.9 1.57599 -0.0067085 0
M  V30 18149 C 1763.12 1.95545 0.69115 0
M  V30 18150 C 1763.55 0.882014 1.66139 0
M  V30 18151 O 1762.9 -0.159242 1.80599 0
M  V30 18152 C 1762.95 3.3259 1.39342 0
M  V30 18153 O 1762.06 3.27368 2.50806 0
M  V30 18154 H 1761.4 0.638188 0.183336 0
M  V30 18155 H 1763.93 2.04506 -0.0618957 0
M  V30 18156 H 1763.94 3.6831 1.75532 0
M  V30 18157 H 1762.61 4.10269 0.682072 0
M  V30 18158 H 1761.19 3.03334 2.16894 0
M  V30 18159 N 1763.37 -0.266145 1.55336 0
M  V30 18160 C 1764.28 -1.35103 1.91793 0
M  V30 18161 C 1765.3 -1.5368 0.815985 0
M  V30 18162 O 1766.48 -1.67675 1.11567 0
M  V30 18163 C 1763.54 -2.68905 2.1884 0
M  V30 18164 C 1762.6 -2.59015 3.42359 0
M  V30 18165 C 1761.83 -3.86437 3.68106 0
M  V30 18166 O 1762.06 -4.87436 2.96247 0
M  V30 18167 O 1760.99 -3.86227 4.61641 0
M  V30 18168 H 1764.82 -1.07181 2.84158 0
M  V30 18169 H 1762.4 -0.465262 1.41971 0
M  V30 18170 H 1764.28 -3.48008 2.3763 0
M  V30 18171 H 1762.96 -2.96599 1.29656 0
M  V30 18172 H 1761.87 -1.78264 3.28896 0
M  V30 18173 H 1763.2 -2.3627 4.31784 0
M  V30 18174 N 1764.85 -1.48386 -0.530967 0
M  V30 18175 C 1765.8 -1.63279 -1.65658 0
M  V30 18176 C 1766.79 -0.499261 -1.61876 0
M  V30 18177 O 1768 -0.677951 -1.66745 0
M  V30 18178 H 1764.37 -0.514332 -0.548605 0
M  V30 18179 H 1766.35 -2.57818 -1.50241 0
M  V30 18180 C 1765.09 -1.68878 -3.03933 0
M  V30 18181 H 1764.42 -2.55462 -3.07537 0
M  V30 18182 H 1765.86 -1.83343 -3.82311 0
M  V30 18183 C 1764.32 -0.427267 -3.3418 0
M  V30 18184 O 1764.85 0.460276 -3.99054 0
M  V30 18185 N 1763.05 -0.299268 -2.89055 0
M  V30 18186 H 1762.6 -1.02248 -2.36438 0
M  V30 18187 H 1762.56 0.543787 -3.09662 0
M  V30 18188 N 1766.33 0.779763 -1.36958 0
M  V30 18189 C 1767.56 1.56875 -1.34899 0
M  V30 18190 C 1767.97 1.88679 0.0675345 0
M  V30 18191 O 1767.33 1.50852 1.02712 0
M  V30 18192 C 1767.38 2.88391 -2.17975 0
M  V30 18193 O 1767.1 2.57954 -3.54107 0
M  V30 18194 C 1768.6 3.82657 -2.23805 0
M  V30 18195 H 1765.82 0.486262 -0.462374 0
M  V30 18196 H 1768.37 0.967072 -1.80189 0
M  V30 18197 H 1766.52 3.45003 -1.76215 0
M  V30 18198 H 1766.94 3.42115 -3.97564 0
M  V30 18199 H 1768.41 4.71967 -2.86272 0
M  V30 18200 H 1768.89 4.21208 -1.24421 0
M  V30 18201 H 1769.49 3.31976 -2.65843 0
M  V30 18202 N 1767.81 1.21396 1.00503 0
M  V30 18203 C 1768.75 0.973198 2.09279 0
M  V30 18204 C 1769.72 -0.100797 1.65794 0
M  V30 18205 O 1770.91 0.0463185 1.90744 0
M  V30 18206 C 1768.05 0.543941 3.40786 0
M  V30 18207 C 1767.16 1.68737 3.97683 0
M  V30 18208 C 1766.3 1.20728 5.17299 0
M  V30 18209 C 1765.34 2.32305 5.66305 0
M  V30 18210 N 1764.47 1.8543 6.77171 0
M  V30 18211 H 1769.31 1.90441 2.29208 0
M  V30 18212 H 1766.85 0.949082 1.12387 0
M  V30 18213 H 1768.81 0.276311 4.16284 0
M  V30 18214 H 1767.44 -0.350263 3.20894 0
M  V30 18215 H 1766.49 2.06964 3.19171 0
M  V30 18216 H 1767.8 2.5271 4.30045 0
M  V30 18217 H 1766.96 0.896312 6.00043 0
M  V30 18218 H 1765.7 0.3376 4.8653 0
M  V30 18219 H 1764.7 2.64205 4.82158 0
M  V30 18220 H 1765.93 3.19769 5.99103 0
M  V30 18221 H 1763.87 1.00806 6.48208 0
M  V30 18222 H 1763.79 2.62976 7.08788 0
M  V30 18223 H 1765.06 1.57366 7.6345 0
M  V30 18224 N 1769.29 -1.19996 1.0217 0
M  V30 18225 C 1770.25 -2.21179 0.601036 0
M  V30 18226 C 1771.25 -1.57345 -0.331531 0
M  V30 18227 O 1772.44 -1.73789 -0.119521 0
M  V30 18228 C 1769.57 -3.40683 -0.121557 0
M  V30 18229 H 1770.76 -2.5991 1.49622 0
M  V30 18230 H 1768.32 -1.33548 0.812071 0
M  V30 18231 H 1769.05 -3.07461 -1.03142 0
M  V30 18232 H 1768.84 -3.88245 0.548448 0
M  V30 18233 H 1770.33 -4.1565 -0.403046 0
M  V30 18234 N 1770.76 -0.798611 -1.35867 0
M  V30 18235 C 1772.17 -0.437243 -1.81508 0
M  V30 18236 C 1772.53 1.03987 -1.66376 0
M  V30 18237 O 1771.65 1.80751 -1.18988 0
M  V30 18238 C 1772.25 -0.786865 -3.29536 0
M  V30 18239 C 1770.8 -0.478204 -3.7335 0
M  V30 18240 C 1769.95 -1.01668 -2.5799 0
M  V30 18241 H 1772.9 -0.990957 -1.23959 0
M  V30 18242 H 1772.92 -0.0813864 -3.80413 0
M  V30 18243 H 1772.44 -1.86198 -3.40517 0
M  V30 18244 H 1770.54 0.588503 -3.67923 0
M  V30 18245 H 1770.65 -1.00525 -4.68435 0
M  V30 18246 H 1769.01 -0.439417 -2.50881 0
M  V30 18247 H 1769.8 -2.09775 -2.71753 0
M  V30 18248 N 1772.24 1.47639 -0.551417 0
M  V30 18249 C 1773.15 2.33722 0.202799 0
M  V30 18250 C 1774.17 1.47832 0.917699 0
M  V30 18251 O 1775.34 1.80772 0.887885 0
M  V30 18252 C 1772.41 3.24408 1.22313 0
M  V30 18253 C 1771.47 4.26184 0.51628 0
M  V30 18254 C 1770.7 5.12537 1.488 0
M  V30 18255 O 1770.93 5.01241 2.72238 0
M  V30 18256 O 1769.86 5.93269 1.01566 0
M  V30 18257 H 1773.69 2.99503 -0.50317 0
M  V30 18258 H 1771.27 1.46104 -0.312093 0
M  V30 18259 H 1773.15 3.80441 1.81225 0
M  V30 18260 H 1771.83 2.61262 1.91112 0
M  V30 18261 H 1770.73 3.73927 -0.113886 0
M  V30 18262 H 1772.07 4.92028 -0.130158 0
M  V30 18263 N 1773.72 0.287581 1.54954 0
M  V30 18264 C 1774.65 -0.636117 2.19155 0
M  V30 18265 C 1775.63 -1.14295 1.15652 0
M  V30 18266 O 1776.82 -1.21362 1.44234 0
M  V30 18267 C 1773.94 -1.86888 2.82472 0
M  V30 18268 C 1772.99 -1.49645 3.99385 0
M  V30 18269 S 1773.82 -0.563886 5.32523 0
M  V30 18270 C 1774.98 -1.80474 5.99316 0
M  V30 18271 H 1775.21 -0.0906517 2.97162 0
M  V30 18272 H 1772.74 0.0717757 1.54233 0
M  V30 18273 H 1774.7 -2.57639 3.19581 0
M  V30 18274 H 1773.36 -2.38549 2.04336 0
M  V30 18275 H 1772.56 -2.41408 4.42423 0
M  V30 18276 H 1772.16 -0.869001 3.63764 0
M  V30 18277 H 1774.45 -2.74708 6.19307 0
M  V30 18278 H 1775.39 -1.41716 6.93774 0
M  V30 18279 H 1775.8 -1.97535 5.2881 0
M  V30 18280 N 1775.2 -1.57593 0.0150662 0
M  V30 18281 C 1776.15 -2.0936 -0.971443 0
M  V30 18282 C 1777.12 -0.992416 -1.33193 0
M  V30 18283 O 1778.3 -1.26577 -1.42769 0
M  V30 18284 C 1775.44 -2.61386 -2.25324 0
M  V30 18285 C 1774.55 -3.85462 -1.95046 0
M  V30 18286 C 1773.69 -4.25934 -3.17418 0
M  V30 18287 C 1772.73 -5.42805 -2.82894 0
M  V30 18288 N 1771.86 -5.78499 -3.97848 0
M  V30 18289 H 1776.7 -2.93373 -0.523068 0
M  V30 18290 H 1774.24 -1.45018 -0.246605 0
M  V30 18291 H 1776.2 -2.89635 -3.00279 0
M  V30 18292 H 1774.83 -1.80225 -2.67804 0
M  V30 18293 H 1773.88 -3.64029 -1.10394 0
M  V30 18294 H 1775.19 -4.70505 -1.6561 0
M  V30 18295 H 1774.35 -4.55544 -4.00705 0
M  V30 18296 H 1773.09 -3.3963 -3.50004 0
M  V30 18297 H 1772.09 -5.12903 -1.98016 0
M  V30 18298 H 1773.32 -6.30797 -2.51539 0
M  V30 18299 H 1771.26 -4.95152 -4.30303 0
M  V30 18300 H 1771.18 -6.5815 -3.71988 0
M  V30 18301 H 1772.45 -6.12708 -4.8188 0
M  V30 18302 N 1776.68 0.257904 -1.55475 0
M  V30 18303 C 1777.9 1.00955 -1.81171 0
M  V30 18304 C 1778.33 1.78586 -0.590651 0
M  V30 18305 O 1777.68 1.75365 0.460105 0
M  V30 18306 C 1777.73 1.93188 -3.04485 0
M  V30 18307 O 1776.84 3.02194 -2.80628 0
M  V30 18308 H 1776.18 0.28785 -0.598363 0
M  V30 18309 H 1778.71 0.28223 -2.02644 0
M  V30 18310 H 1778.72 2.3486 -3.33624 0
M  V30 18311 H 1777.39 1.361 -3.93001 0
M  V30 18312 H 1775.97 2.64729 -2.62627 0
M  V30 18313 N 1778.15 1.48666 0.52309 0
M  V30 18314 C 1779.57 1.34939 0.852268 0
M  V30 18315 C 1779.77 0.365638 1.98155 0
M  V30 18316 O 1778.83 -0.210671 2.5162 0
M  V30 18317 C 1780.14 2.75136 1.21329 0
M  V30 18318 C 1781.69 2.83675 1.32278 0
M  V30 18319 C 1782.16 4.24589 1.71721 0
M  V30 18320 N 1783.65 4.27295 1.78811 0
M  V30 18321 C 1784.39 5.33274 2.10729 0
M  V30 18322 N 1783.88 6.49523 2.41023 0
M  V30 18323 N 1785.68 5.20673 2.11793 0
M  V30 18324 H 1777.83 2.11237 -0.221919 0
M  V30 18325 H 1780.09 0.947291 -0.0366525 0
M  V30 18326 H 1779.8 3.48717 0.457065 0
M  V30 18327 H 1779.67 3.091 2.16187 0
M  V30 18328 H 1782.06 2.10345 2.06976 0
M  V30 18329 H 1782.14 2.53321 0.355248 0
M  V30 18330 H 1781.78 4.98438 0.975805 0
M  V30 18331 H 1781.71 4.52391 2.69536 0
M  V30 18332 H 1784.2 3.43447 1.57648 0
M  V30 18333 H 1784.52 7.26125 2.64503 0
M  V30 18334 H 1782.86 6.52786 2.38528 0
M  V30 18335 H 1786.05 4.28869 1.87588 0
M  V30 18336 H 1786.23 6.03365 2.36336 0
M  V30 18337 N 1779.63 -0.772489 1.37369 0
M  V30 18338 C 1781.05 -1.07294 1.18153 0
M  V30 18339 C 1781.25 -2.01493 0.0171782 0
M  V30 18340 O 1780.3 -2.44177 -0.642964 0
M  V30 18341 C 1781.62 -1.67116 2.49986 0
M  V30 18342 C 1783.17 -1.79377 2.56501 0
M  V30 18343 C 1783.64 -2.42612 3.88463 0
M  V30 18344 N 1785.13 -2.50063 3.89901 0
M  V30 18345 C 1785.87 -2.99841 4.88756 0
M  V30 18346 N 1785.36 -3.49798 5.98008 0
M  V30 18347 N 1787.16 -2.98709 4.76161 0
M  V30 18348 H 1779.31 -0.147014 2.11891 0
M  V30 18349 H 1781.57 -0.127846 0.93934 0
M  V30 18350 H 1781.28 -1.05369 3.35545 0
M  V30 18351 H 1781.15 -2.6642 2.67021 0
M  V30 18352 H 1783.54 -2.40257 1.71349 0
M  V30 18353 H 1783.62 -0.788304 2.4335 0
M  V30 18354 H 1783.26 -1.82372 4.74029 0
M  V30 18355 H 1783.19 -3.43763 3.98917 0
M  V30 18356 H 1785.68 -2.14709 3.1098 0
M  V30 18357 H 1786 -3.86181 6.69391 0
M  V30 18358 H 1784.34 -3.47905 6.01654 0
M  V30 18359 H 1787.53 -2.5898 3.89932 0
M  V30 18360 H 1787.7 -3.37193 5.53358 0
M  V30 18361 N 1781.11 -1.21927 -0.998575 0
M  V30 18362 C 1782.52 -1.03808 -1.5518 0
M  V30 18363 C 1782.87 0.400202 -1.92075 0
M  V30 18364 O 1782 1.28436 -1.74164 0
M  V30 18365 C 1782.59 -1.87814 -2.81978 0
M  V30 18366 C 1781.15 -1.74008 -3.33764 0
M  V30 18367 C 1780.3 -1.8463 -2.06899 0
M  V30 18368 H 1783.25 -1.35855 -0.820305 0
M  V30 18369 H 1783.27 -1.39219 -3.54116 0
M  V30 18370 H 1782.78 -2.92487 -2.55094 0
M  V30 18371 H 1780.88 -0.720445 -3.65569 0
M  V30 18372 H 1781 -2.56348 -4.0475 0
M  V30 18373 H 1779.36 -1.28007 -2.20196 0
M  V30 18374 H 1780.14 -2.90824 -1.82419 0
M  V30 18375 N 1782.59 1.19452 -1.02805 0
M  V30 18376 C 1783.54 2.22644 -0.608134 0
M  V30 18377 C 1784.51 1.6175 0.377639 0
M  V30 18378 O 1785.69 1.88815 0.274487 0
M  V30 18379 C 1782.83 3.45081 0.0357589 0
M  V30 18380 C 1781.94 4.20363 -0.995955 0
M  V30 18381 C 1781.08 5.30224 -0.321911 0
M  V30 18382 C 1780.12 5.97261 -1.33959 0
M  V30 18383 N 1779.25 6.98687 -0.691414 0
M  V30 18384 H 1784.09 2.57921 -1.49268 0
M  V30 18385 H 1781.63 1.26722 -0.746985 0
M  V30 18386 H 1783.59 4.15016 0.426309 0
M  V30 18387 H 1782.22 3.10463 0.883889 0
M  V30 18388 H 1781.27 3.49381 -1.50457 0
M  V30 18389 H 1782.58 4.6636 -1.76945 0
M  V30 18390 H 1781.74 6.06574 0.123528 0
M  V30 18391 H 1780.48 4.85294 0.483792 0
M  V30 18392 H 1779.48 5.19662 -1.7953 0
M  V30 18393 H 1780.71 6.44275 -2.14678 0
M  V30 18394 H 1778.65 6.55932 0.0942121 0
M  V30 18395 H 1778.57 7.42871 -1.40281 0
M  V30 18396 H 1779.84 7.79032 -0.269948 0
M  V30 18397 N 1784.07 0.805805 1.35442 0
M  V30 18398 C 1785.29 0.397179 2.03561 0
M  V30 18399 C 1785.72 -0.983665 1.6033 0
M  V30 18400 O 1785.07 -1.63683 0.779586 0
M  V30 18401 C 1785.12 0.487813 3.57285 0
M  V30 18402 O 1784.23 -0.499039 4.09369 0
M  V30 18403 H 1783.57 0.166009 0.642913 0
M  V30 18404 H 1786.1 1.09147 1.73055 0
M  V30 18405 H 1786.11 0.357334 4.06432 0
M  V30 18406 H 1784.78 1.49501 3.88101 0
M  V30 18407 H 1783.36 -0.328864 3.71447 0
M  V30 18408 N 1785.54 -1.47344 0.559239 0
M  V30 18409 C 1786.77 -2.07364 0.0388864 0
M  V30 18410 C 1787.19 -1.40886 -1.2463 0
M  V30 18411 O 1786.55 -0.48454 -1.74705 0
M  V30 18412 C 1786.6 -3.60336 -0.137894 0
M  V30 18413 O 1785.7 -3.94555 -1.2 0
M  V30 18414 H 1785.05 -0.661942 0.0522363 0
M  V30 18415 H 1787.58 -1.89333 0.7755 0
M  V30 18416 H 1787.59 -4.06483 -0.351462 0
M  V30 18417 H 1786.26 -4.08118 0.800776 0
M  V30 18418 H 1784.84 -3.6015 -0.966757 0
M  V30 18419 N 1787.02 -0.295795 -1.54799 0
M  V30 18420 C 1787.95 0.575863 -2.26288 0
M  V30 18421 C 1788.93 1.14217 -1.26049 0
M  V30 18422 O 1790.12 1.17248 -1.54812 0
M  V30 18423 C 1787.25 1.7503 -2.9997 0
M  V30 18424 C 1786.2 1.31459 -4.07311 0
M  V30 18425 C 1785.53 2.57377 -4.6868 0
M  V30 18426 C 1786.83 0.449629 -5.20361 0
M  V30 18427 H 1788.52 -0.0203797 -2.99393 0
M  V30 18428 H 1786.07 -0.0112418 -1.43996 0
M  V30 18429 H 1788.02 2.36615 -3.487 0
M  V30 18430 H 1786.75 2.3727 -2.24434 0
M  V30 18431 H 1785.4 0.721829 -3.59423 0
M  V30 18432 H 1785.05 3.1792 -3.89789 0
M  V30 18433 H 1784.75 2.28927 -5.41171 0
M  V30 18434 H 1786.28 3.19774 -5.2017 0
M  V30 18435 H 1787.69 0.971014 -5.65017 0
M  V30 18436 H 1786.09 0.259121 -5.9954 0
M  V30 18437 H 1787.16 -0.526564 -4.82032 0
M  V30 18438 N 1788.5 1.57583 -0.0234236 0
M  V30 18439 C 1789.91 1.79422 0.516201 0
M  V30 18440 C 1790.26 0.933151 1.72588 0
M  V30 18441 O 1789.39 0.141985 2.15934 0
M  V30 18442 C 1789.98 3.25405 0.943248 0
M  V30 18443 C 1788.54 3.48259 1.42802 0
M  V30 18444 C 1787.69 2.74543 0.390074 0
M  V30 18445 H 1790.64 1.56727 -0.24949 0
M  V30 18446 H 1790.66 3.34803 1.80795 0
M  V30 18447 H 1790.17 3.88049 0.0626242 0
M  V30 18448 H 1788.27 2.9086 2.32877 0
M  V30 18449 H 1788.39 4.56968 1.43933 0
M  V30 18450 H 1786.75 2.39852 0.856919 0
M  V30 18451 H 1787.53 3.399 -0.481986 0
M  V30 18452 N 1789.98 -0.249655 1.5561 0
M  V30 18453 C 1791.39 -0.818934 1.67781 0
M  V30 18454 C 1791.74 -1.86134 0.620374 0
M  V30 18455 O 1790.87 -2.15133 -0.233869 0
M  V30 18456 C 1791.46 -1.49219 3.0417 0
M  V30 18457 C 1790.02 -2.0092 3.18289 0
M  V30 18458 C 1789.17 -0.859333 2.63649 0
M  V30 18459 H 1792.12 -0.0255186 1.58679 0
M  V30 18460 H 1792.14 -2.36011 2.98461 0
M  V30 18461 H 1791.65 -0.733268 3.8111 0
M  V30 18462 H 1789.75 -2.79701 2.46167 0
M  V30 18463 H 1789.87 -2.20848 4.25163 0
M  V30 18464 H 1788.23 -1.2591 2.21402 0
M  V30 18465 H 1789.01 -0.113545 3.43112 0
M  V30 18466 N 1791.46 -1.48941 -0.515198 0
M  V30 18467 C 1792.7 -1.57943 -1.27207 0
M  V30 18468 C 1793.04 -0.259011 -1.92465 0
M  V30 18469 O 1792.31 0.736277 -1.80026 0
M  V30 18470 C 1792.59 -2.72846 -2.35005 0
M  V30 18471 C 1792.45 -4.14639 -1.74341 0
M  V30 18472 C 1793.77 -2.83444 -3.36672 0
M  V30 18473 H 1790.89 -0.574909 -0.461138 0
M  V30 18474 H 1793.53 -1.81172 -0.572413 0
M  V30 18475 H 1791.68 -2.5317 -2.94681 0
M  V30 18476 H 1793.35 -4.45793 -1.18602 0
M  V30 18477 H 1791.59 -4.20948 -1.0481 0
M  V30 18478 H 1792.26 -4.90883 -2.52463 0
M  V30 18479 H 1794.74 -3.01311 -2.86969 0
M  V30 18480 H 1793.62 -3.65542 -4.09475 0
M  V30 18481 H 1793.88 -1.92208 -3.98131 0
M  V30 18482 N 1792.94 0.765193 -1.37777 0
M  V30 18483 C 1793.87 1.89247 -1.36777 0
M  V30 18484 C 1794.85 1.68463 -0.235389 0
M  V30 18485 O 1796.03 1.89225 -0.436733 0
M  V30 18486 C 1793.16 3.2662 -1.18053 0
M  V30 18487 C 1792.12 3.61981 -2.28372 0
M  V30 18488 C 1791.44 4.97967 -1.94765 0
M  V30 18489 C 1792.74 3.68053 -3.70587 0
M  V30 18490 H 1794.44 1.90341 -2.31108 0
M  V30 18491 H 1791.98 0.914355 -1.11245 0
M  V30 18492 H 1793.93 4.05125 -1.15982 0
M  V30 18493 H 1792.66 3.25976 -0.201803 0
M  V30 18494 H 1791.32 2.85788 -2.2961 0
M  V30 18495 H 1790.97 4.93869 -0.954052 0
M  V30 18496 H 1790.67 5.22594 -2.68642 0
M  V30 18497 H 1792.19 5.78864 -1.94292 0
M  V30 18498 H 1793.6 4.36696 -3.71443 0
M  V30 18499 H 1792 4.04183 -4.43572 0
M  V30 18500 H 1793.07 2.68556 -4.03739 0
M  V30 18501 N 1794.41 1.22455 0.992094 0
M  V30 18502 C 1795.66 1.04752 1.72833 0
M  V30 18503 C 1795.98 -0.418152 1.90464 0
M  V30 18504 O 1795.25 -1.30072 1.46486 0
M  V30 18505 H 1793.83 0.384626 0.640368 0
M  V30 18506 H 1796.49 1.5398 1.19483 0
M  V30 18507 H 1795.59 1.52601 2.72249 0
M  V30 18508 N 1795.89 -1.18905 1.03437 0
M  V30 18509 C 1797.12 -1.92678 0.753853 0
M  V30 18510 C 1797.53 -1.75814 -0.688111 0
M  V30 18511 O 1796.89 -1.08363 -1.46846 0
M  V30 18512 C 1796.94 -3.44275 1.10258 0
M  V30 18513 O 1796.66 -3.60602 2.48793 0
M  V30 18514 C 1798.16 -4.35159 0.84566 0
M  V30 18515 H 1795.38 -0.611875 0.275408 0
M  V30 18516 H 1797.93 -1.50887 1.38034 0
M  V30 18517 H 1796.08 -3.83878 0.521177 0
M  V30 18518 H 1796.5 -4.54403 2.61951 0
M  V30 18519 H 1797.97 -5.40109 1.13958 0
M  V30 18520 H 1798.45 -4.3865 -0.219767 0
M  V30 18521 H 1799.05 -4.01245 1.41006 0
M  V30 18522 N 1797.37 -0.812977 -1.35013 0
M  V30 18523 C 1798.28 -0.229534 -2.33474 0
M  V30 18524 C 1799.3 0.630837 -1.62162 0
M  V30 18525 O 1800.47 0.541083 -1.93995 0
M  V30 18526 C 1797.54 0.607055 -3.41344 0
M  V30 18527 C 1796.6 -0.274554 -4.28421 0
M  V30 18528 C 1795.83 0.522202 -5.31139 0
M  V30 18529 O 1796.05 1.75636 -5.42686 0
M  V30 18530 O 1794.99 -0.0902666 -6.01832 0
M  V30 18531 H 1798.81 -1.04423 -2.85183 0
M  V30 18532 H 1796.4 -0.5749 -1.37896 0
M  V30 18533 H 1798.28 1.08335 -4.07236 0
M  V30 18534 H 1796.96 1.39924 -2.91895 0
M  V30 18535 H 1795.86 -0.798124 -3.65487 0
M  V30 18536 H 1797.2 -1.03084 -4.81284 0
M  V30 18537 N 1798.85 1.47045 -0.567045 0
M  V30 18538 C 1800.07 2.0734 -0.0498828 0
M  V30 18539 C 1800.5 1.41545 1.23881 0
M  V30 18540 O 1799.86 0.493798 1.74446 0
M  V30 18541 C 1799.9 3.60404 0.118782 0
M  V30 18542 O 1799.01 3.95186 1.17905 0
M  V30 18543 H 1798.35 0.661656 -0.055746 0
M  V30 18544 H 1800.88 1.8892 -0.78553 0
M  V30 18545 H 1800.89 4.06664 0.3299 0
M  V30 18546 H 1799.56 4.07688 -0.822409 0
M  V30 18547 H 1798.14 3.60658 0.947644 0
M  V30 18548 N 1800.33 0.304 1.5464 0
M  V30 18549 C 1801.6 -0.357665 1.92302 0
M  V30 18550 C 1801.98 -1.71453 1.23155 0
M  V30 18551 O 1801.33 -2.25512 0.368342 0
M  V30 18552 C 1801.54 -0.469339 3.4583 0
M  V30 18553 C 1802.89 -0.738803 4.18123 0
M  V30 18554 O 1803.91 -0.553033 3.51881 0
M  V30 18555 O 1802.77 -1.09585 5.354 0
M  V30 18556 H 1799.87 -0.200506 0.802326 0
M  V30 18557 H 1802.41 0.352279 1.66003 0
M  V30 18558 H 1801.18 0.484397 3.8829 0
M  V30 18559 H 1800.81 -1.22763 3.78173 0
M  V30 18560 N 1801.8 -1.57568 0.0317802 0
M  V30 18561 C 1802.77 -2.09296 -0.934239 0
M  V30 18562 C 1803.77 -1.00855 -1.25239 0
M  V30 18563 O 1804.96 -1.27004 -1.19229 0
M  V30 18564 C 1802.09 -2.56103 -2.24998 0
M  V30 18565 H 1803.28 -2.95933 -0.486183 0
M  V30 18566 H 1800.83 -1.54796 -0.2163 0
M  V30 18567 H 1801.57 -1.72803 -2.74426 0
M  V30 18568 H 1801.35 -3.35329 -2.03216 0
M  V30 18569 H 1802.84 -2.96339 -2.94233 0
M  V30 18570 N 1803.28 0.241399 -1.5574 0
M  V30 18571 C 1804.51 0.986075 -1.81891 0
M  V30 18572 C 1804.93 1.78734 -0.608254 0
M  V30 18573 O 1804.28 1.77527 0.423129 0
M  V30 18574 C 1804.33 1.91956 -3.06325 0
M  V30 18575 O 1804.05 1.15071 -4.22718 0
M  V30 18576 C 1805.56 2.77977 -3.45317 0
M  V30 18577 H 1802.78 0.289913 -0.605137 0
M  V30 18578 H 1805.32 0.262622 -2.02807 0
M  V30 18579 H 1803.47 2.59721 -2.87443 0
M  V30 18580 H 1803.89 1.78261 -4.93278 0
M  V30 18581 H 1805.36 3.39215 -4.35474 0
M  V30 18582 H 1805.84 3.49369 -2.66154 0
M  V30 18583 H 1806.45 2.15655 -3.66569 0
M  V30 18584 N 1804.76 1.49212 0.507292 0
M  V30 18585 C 1806.01 1.58616 1.26368 0
M  V30 18586 C 1806.34 0.269215 1.92325 0
M  V30 18587 O 1805.61 -0.72672 1.80414 0
M  V30 18588 C 1805.9 2.74088 2.33555 0
M  V30 18589 C 1805.75 4.15557 1.7214 0
M  V30 18590 C 1807.07 2.85225 3.35164 0
M  V30 18591 H 1804.19 0.577347 0.458083 0
M  V30 18592 H 1806.83 1.81473 0.562797 0
M  V30 18593 H 1804.98 2.5473 2.93335 0
M  V30 18594 H 1806.65 4.46416 1.16236 0
M  V30 18595 H 1804.9 4.21498 1.02576 0
M  V30 18596 H 1805.57 4.92215 2.49856 0
M  V30 18597 H 1808.04 3.02828 2.85367 0
M  V30 18598 H 1806.92 3.67709 4.07531 0
M  V30 18599 H 1807.18 1.94316 3.97107 0
M  V30 18600 N 1806.24 -0.757876 1.38181 0
M  V30 18601 C 1807.19 -1.87152 1.35065 0
M  V30 18602 C 1808.16 -1.64717 0.213892 0
M  V30 18603 O 1809.34 -1.86442 0.405448 0
M  V30 18604 C 1806.48 -3.24398 1.17728 0
M  V30 18605 C 1805.59 -3.58694 2.40754 0
M  V30 18606 C 1804.73 -4.85221 2.16181 0
M  V30 18607 C 1803.77 -5.1229 3.35001 0
M  V30 18608 N 1802.9 -6.3001 3.0989 0
M  V30 18609 H 1807.74 -1.89151 2.30274 0
M  V30 18610 H 1805.28 -0.924571 1.14412 0
M  V30 18611 H 1807.24 -4.0359 1.05694 0
M  V30 18612 H 1805.87 -3.21738 0.261606 0
M  V30 18613 H 1804.92 -2.74379 2.63477 0
M  V30 18614 H 1806.23 -3.74628 3.29325 0
M  V30 18615 H 1805.39 -5.72346 2.01258 0
M  V30 18616 H 1804.13 -4.71417 1.24969 0
M  V30 18617 H 1803.13 -4.23635 3.50448 0
M  V30 18618 H 1804.36 -5.27993 4.27083 0
M  V30 18619 H 1802.3 -6.17538 2.21321 0
M  V30 18620 H 1802.22 -6.46425 3.92009 0
M  V30 18621 H 1803.49 -7.20035 2.98613 0
M  V30 18622 N 1807.72 -1.22979 -0.985586 0
M  V30 18623 C 1808.66 -1.00637 -2.07704 0
M  V30 18624 C 1809.63 0.0744076 -1.65933 0
M  V30 18625 O 1810.82 -0.0766583 -1.90646 0
M  V30 18626 C 1807.96 -0.598088 -3.39878 0
M  V30 18627 C 1807.07 -1.75043 -3.94948 0
M  V30 18628 C 1806.21 -1.28943 -5.15313 0
M  V30 18629 C 1805.25 -2.41285 -5.62537 0
M  V30 18630 N 1804.38 -1.9618 -6.74135 0
M  V30 18631 H 1809.22 -1.94063 -2.26149 0
M  V30 18632 H 1806.76 -0.966841 -1.10863 0
M  V30 18633 H 1808.72 -0.342503 -4.15792 0
M  V30 18634 H 1807.35 0.299167 -3.21411 0
M  V30 18635 H 1806.4 -2.12015 -3.15838 0
M  V30 18636 H 1807.71 -2.5952 -4.25971 0
M  V30 18637 H 1806.87 -0.99166 -5.98541 0
M  V30 18638 H 1805.6 -0.41496 -4.85931 0
M  V30 18639 H 1804.61 -2.71842 -4.77893 0
M  V30 18640 H 1805.83 -3.2926 -5.9394 0
M  V30 18641 H 1803.78 -1.11105 -6.46523 0
M  V30 18642 H 1803.7 -2.74219 -7.04514 0
M  V30 18643 H 1804.97 -1.69492 -7.6085 0
M  V30 18644 N 1809.19 1.18355 -1.04066 0
M  V30 18645 C 1810.14 2.21987 -0.631714 0
M  V30 18646 C 1811.11 1.62142 0.360462 0
M  V30 18647 O 1812.3 1.89096 0.254445 0
M  V30 18648 C 1809.44 3.451 -0.000843566 0
M  V30 18649 C 1808.55 4.19283 -1.04048 0
M  V30 18650 C 1807.68 5.29852 -0.37813 0
M  V30 18651 C 1806.72 5.95807 -1.40287 0
M  V30 18652 N 1805.86 6.97915 -0.765481 0
M  V30 18653 H 1810.7 2.56323 -1.51995 0
M  V30 18654 H 1808.24 1.25923 -0.760384 0
M  V30 18655 H 1810.2 4.15445 0.382267 0
M  V30 18656 H 1808.83 3.11383 0.850911 0
M  V30 18657 H 1807.88 3.47765 -1.54154 0
M  V30 18658 H 1809.19 4.64457 -1.81882 0
M  V30 18659 H 1808.34 6.06671 0.059186 0
M  V30 18660 H 1807.08 4.8578 0.432293 0
M  V30 18661 H 1806.09 5.17729 -1.85032 0
M  V30 18662 H 1807.31 6.41962 -2.21499 0
M  V30 18663 H 1805.26 6.55995 0.0246364 0
M  V30 18664 H 1805.18 7.41341 -1.48152 0
M  V30 18665 H 1806.44 7.78702 -0.35256 0
M  V30 18666 N 1810.67 0.820125 1.3458 0
M  V30 18667 C 1812.08 0.466064 1.80789 0
M  V30 18668 C 1812.43 -1.01327 1.6801 0
M  V30 18669 O 1811.56 -1.78835 1.21849 0
M  V30 18670 C 1812.15 0.839192 3.28242 0
M  V30 18671 C 1810.71 0.53754 3.72542 0
M  V30 18672 C 1809.86 1.0576 2.5634 0
M  V30 18673 H 1812.81 1.01055 1.22366 0
M  V30 18674 H 1812.83 0.141897 3.80235 0
M  V30 18675 H 1812.34 1.91592 3.37512 0
M  V30 18676 H 1810.45 -0.529895 3.68813 0
M  V30 18677 H 1810.56 1.07964 4.66777 0
M  V30 18678 H 1808.92 0.479275 2.5015 0
M  V30 18679 H 1809.71 2.14072 2.68381 0
M  V30 18680 N 1812.15 -1.46743 0.574835 0
M  V30 18681 C 1813.11 -2.28691 -0.152633 0
M  V30 18682 C 1814.11 -1.37949 -0.826238 0
M  V30 18683 O 1815.3 -1.60405 -0.679398 0
M  V30 18684 C 1812.44 -3.1812 -1.22525 0
M  V30 18685 H 1813.63 -2.94483 0.567439 0
M  V30 18686 H 1811.18 -1.52723 0.33248 0
M  V30 18687 H 1811.92 -2.57058 -1.97716 0
M  V30 18688 H 1811.7 -3.84922 -0.746841 0
M  V30 18689 H 1813.19 -3.7982 -1.7357 0
M  V30 18690 N 1813.63 -0.312197 -1.54477 0
M  V30 18691 C 1815.04 0.178189 -1.85848 0
M  V30 18692 C 1815.39 1.52534 -1.23401 0
M  V30 18693 O 1814.52 2.09661 -0.535822 0
M  V30 18694 C 1815.11 0.330099 -3.37188 0
M  V30 18695 C 1813.67 0.764703 -3.6855 0
M  V30 18696 C 1812.82 -0.120348 -2.77039 0
M  V30 18697 H 1815.77 -0.532853 -1.49487 0
M  V30 18698 H 1815.79 1.16287 -3.62295 0
M  V30 18699 H 1815.3 -0.650527 -3.82609 0
M  V30 18700 H 1813.4 1.75548 -3.28654 0
M  V30 18701 H 1813.51 0.576331 -4.75621 0
M  V30 18702 H 1811.88 0.402229 -2.51504 0
M  V30 18703 H 1812.66 -1.09753 -3.25283 0
M  V30 18704 N 1815.11 1.57549 -0.040136 0
M  V30 18705 C 1816.05 2.10879 0.938013 0
M  V30 18706 C 1817.02 1.01348 1.31597 0
M  V30 18707 O 1818.21 1.28832 1.40737 0
M  V30 18708 C 1815.35 2.64938 2.21138 0
M  V30 18709 C 1814.46 3.88516 1.88889 0
M  V30 18710 C 1813.6 4.3093 3.10601 0
M  V30 18711 C 1812.64 5.47237 2.74223 0
M  V30 18712 N 1811.77 5.84755 3.88594 0
M  V30 18713 H 1816.61 2.94169 0.476328 0
M  V30 18714 H 1814.15 1.45392 0.223503 0
M  V30 18715 H 1816.11 2.94375 2.95633 0
M  V30 18716 H 1814.74 1.84463 2.64903 0
M  V30 18717 H 1813.79 3.6574 1.04588 0
M  V30 18718 H 1815.1 4.7308 1.58103 0
M  V30 18719 H 1814.26 4.61861 3.93407 0
M  V30 18720 H 1812.99 3.45155 3.44557 0
M  V30 18721 H 1812 5.15988 1.89831 0
M  V30 18722 H 1813.22 6.34719 2.41472 0
M  V30 18723 H 1811.17 5.01935 4.22371 0
M  V30 18724 H 1811.09 6.63984 3.6147 0
M  V30 18725 H 1812.36 6.20297 4.72072 0
M  V30 18726 N 1816.58 -0.233136 1.55866 0
M  V30 18727 C 1817.81 -0.976415 1.82411 0
M  V30 18728 C 1818.23 -1.78409 0.617724 0
M  V30 18729 O 1817.58 -1.77749 -0.413709 0
M  V30 18730 C 1817.64 -1.90328 3.07339 0
M  V30 18731 O 1817.36 -1.12828 4.23322 0
M  V30 18732 C 1818.86 -2.76142 3.46786 0
M  V30 18733 H 1816.08 -0.2867 0.606666 0
M  V30 18734 H 1818.62 -0.251863 2.02943 0
M  V30 18735 H 1816.78 -2.58193 2.88816 0
M  V30 18736 H 1817.19 -1.75643 4.94216 0
M  V30 18737 H 1818.66 -3.36901 4.37266 0
M  V30 18738 H 1819.14 -3.47953 2.68003 0
M  V30 18739 H 1819.75 -2.13708 3.67708 0
M  V30 18740 N 1818.06 -1.49479 -0.499372 0
M  V30 18741 C 1819.47 -1.52231 -1.08087 0
M  V30 18742 C 1819.83 -0.309442 -1.93744 0
M  V30 18743 O 1818.95 0.580587 -2.08466 0
M  V30 18744 C 1819.55 -2.75857 -1.96694 0
M  V30 18745 C 1818.1 -2.81381 -2.50003 0
M  V30 18746 C 1817.25 -2.46166 -1.27662 0
M  V30 18747 H 1820.2 -1.56153 -0.283211 0
M  V30 18748 H 1820.22 -2.56111 -2.81403 0
M  V30 18749 H 1819.74 -3.64114 -1.34324 0
M  V30 18750 H 1817.84 -1.97408 -3.16008 0
M  V30 18751 H 1817.95 -3.83591 -2.87045 0
M  V30 18752 H 1816.31 -1.97981 -1.60236 0
M  V30 18753 H 1817.1 -3.36699 -0.669974 0
M  V30 18754 N 1819.54 0.750537 -1.38581 0
M  V30 18755 C 1820.95 1.32802 -1.31227 0
M  V30 18756 C 1821.3 1.96176 0.0305372 0
M  V30 18757 O 1820.43 1.95272 0.932614 0
M  V30 18758 C 1821.02 2.41468 -2.37652 0
M  V30 18759 C 1819.58 2.94929 -2.33867 0
M  V30 18760 C 1818.73 1.68339 -2.20357 0
M  V30 18761 H 1821.68 0.549187 -1.48895 0
M  V30 18762 H 1821.7 3.21481 -2.03544 0
M  V30 18763 H 1821.21 1.95313 -3.35372 0
M  V30 18764 H 1819.31 3.45404 -1.39738 0
M  V30 18765 H 1819.43 3.491 -3.28125 0
M  V30 18766 H 1817.79 1.92082 -1.67262 0
M  V30 18767 H 1818.57 1.24258 -3.20023 0
M  V30 18768 N 1821.02 1.235 0.979051 0
M  V30 18769 C 1821.97 1.01737 2.07167 0
M  V30 18770 C 1822.94 -0.0656067 1.6597 0
M  V30 18771 O 1824.12 0.0867676 1.90603 0
M  V30 18772 C 1821.26 0.616104 3.39556 0
M  V30 18773 C 1820.37 1.77135 3.94014 0
M  V30 18774 C 1819.51 1.31674 5.14622 0
M  V30 18775 C 1818.55 2.44265 5.6125 0
M  V30 18776 N 1817.69 1.99752 6.73085 0
M  V30 18777 H 1822.53 1.9526 2.25117 0
M  V30 18778 H 1820.06 0.972707 1.10349 0
M  V30 18779 H 1822.02 0.364549 4.15604 0
M  V30 18780 H 1820.65 -0.282117 3.21565 0
M  V30 18781 H 1819.7 2.13687 3.14709 0
M  V30 18782 H 1821.01 2.61775 4.24588 0
M  V30 18783 H 1820.17 1.02339 5.98006 0
M  V30 18784 H 1818.91 0.440724 4.85705 0
M  V30 18785 H 1817.91 2.74373 4.76445 0
M  V30 18786 H 1819.14 3.32405 5.92186 0
M  V30 18787 H 1817.08 1.14532 6.45924 0
M  V30 18788 H 1817 2.77951 7.0305 0
M  V30 18789 H 1818.27 1.73525 7.5994 0
M  V30 18790 N 1822.5 -1.17802 1.04693 0
M  V30 18791 C 1823.46 -2.19854 0.647816 0
M  V30 18792 C 1824.46 -1.58013 -0.298081 0
M  V30 18793 O 1825.65 -1.74004 -0.0826309 0
M  V30 18794 C 1822.78 -3.40864 -0.0492661 0
M  V30 18795 H 1823.98 -2.56678 1.55101 0
M  V30 18796 H 1821.53 -1.31796 0.840215 0
M  V30 18797 H 1822.26 -3.0958 -0.965967 0
M  V30 18798 H 1822.05 -3.86995 0.630677 0
M  V30 18799 H 1823.54 -4.16412 -0.31479 0
M  V30 18800 N 1823.98 -0.827251 -1.34143 0
M  V30 18801 C 1824.94 -0.257543 -2.27748 0
M  V30 18802 C 1825.94 0.567053 -1.5047 0
M  V30 18803 O 1827.13 0.382529 -1.69948 0
M  V30 18804 C 1824.26 0.638449 -3.34868 0
M  V30 18805 H 1825.45 -1.08338 -2.79648 0
M  V30 18806 H 1823.01 -0.599441 -1.44348 0
M  V30 18807 H 1823.74 1.48717 -2.8819 0
M  V30 18808 H 1823.53 0.0486033 -3.9207 0
M  V30 18809 H 1825.02 1.03071 -4.0468 0
M  V30 18810 N 1825.45 1.46436 -0.582609 0
M  V30 18811 C 1826.39 2.2733 0.199056 0
M  V30 18812 C 1827.36 1.35621 0.896981 0
M  V30 18813 O 1828.55 1.65031 0.910887 0
M  V30 18814 C 1825.68 3.13352 1.28563 0
M  V30 18815 C 1824.72 4.20823 0.69355 0
M  V30 18816 S 1825.55 5.33349 -0.479488 0
M  V30 18817 C 1826.71 6.22937 0.608287 0
M  V30 18818 H 1826.94 2.93279 -0.487326 0
M  V30 18819 H 1824.48 1.49913 -0.369502 0
M  V30 18820 H 1826.43 3.63476 1.90775 0
M  V30 18821 H 1825.1 2.46716 1.94396 0
M  V30 18822 H 1824.29 4.80839 1.5103 0
M  V30 18823 H 1823.89 3.73711 0.147092 0
M  V30 18824 H 1826.18 6.60823 1.49397 0
M  V30 18825 H 1827.13 7.08086 0.0448907 0
M  V30 18826 H 1827.53 5.57078 0.912387 0
M  V30 18827 N 1826.93 0.320385 1.54309 0
M  V30 18828 C 1828.34 -0.16833 1.8594 0
M  V30 18829 C 1828.69 -1.51877 1.24208 0
M  V30 18830 O 1827.82 -2.09374 0.546933 0
M  V30 18831 C 1828.41 -0.312212 3.37358 0
M  V30 18832 C 1826.97 -0.745147 3.68951 0
M  V30 18833 C 1826.12 0.135038 2.76971 0
M  V30 18834 H 1829.07 0.540773 1.49202 0
M  V30 18835 H 1829.09 -1.14364 3.62906 0
M  V30 18836 H 1828.6 0.670809 3.82259 0
M  V30 18837 H 1826.7 -1.73803 3.29581 0
M  V30 18838 H 1826.82 -0.5511 4.7592 0
M  V30 18839 H 1825.18 -0.388886 2.51714 0
M  V30 18840 H 1825.96 1.11477 3.24697 0
M  V30 18841 N 1828.41 -1.57525 0.0484906 0
M  V30 18842 C 1829.82 -1.80221 -0.487592 0
M  V30 18843 C 1830.17 -0.96049 -1.71082 0
M  V30 18844 O 1829.3 -0.17632 -2.1568 0
M  V30 18845 C 1829.89 -3.26864 -0.89136 0
M  V30 18846 C 1828.45 -3.50487 -1.37244 0
M  V30 18847 C 1827.6 -2.75129 -0.346348 0
M  V30 18848 H 1830.55 -1.5631 0.274392 0
M  V30 18849 H 1830.57 -3.37637 -1.75446 0
M  V30 18850 H 1830.08 -3.881 -0.000880924 0
M  V30 18851 H 1828.18 -2.94528 -2.2822 0
M  V30 18852 H 1828.3 -4.592 -1.36645 0
M  V30 18853 H 1826.66 -2.41185 -0.818653 0
M  V30 18854 H 1827.44 -3.3909 0.536 0
M  V30 18855 N 1829.89 0.224867 -1.55988 0
M  V30 18856 C 1830.82 1.30204 -1.88626 0
M  V30 18857 C 1831.83 1.4321 -0.774248 0
M  V30 18858 O 1833.02 1.44167 -1.05253 0
M  V30 18859 C 1830.12 2.67806 -2.07685 0
M  V30 18860 C 1829.29 2.76789 -3.38684 0
M  V30 18861 C 1828.35 3.95383 -3.47216 0
M  V30 18862 O 1827.38 3.83876 -4.20271 0
M  V30 18863 N 1828.58 5.09541 -2.78116 0
M  V30 18864 H 1831.35 1.02533 -2.81615 0
M  V30 18865 H 1828.91 0.414916 -1.56493 0
M  V30 18866 H 1830.9 3.45518 -2.10712 0
M  V30 18867 H 1829.47 2.88091 -1.21336 0
M  V30 18868 H 1828.69 1.8558 -3.47784 0
M  V30 18869 H 1829.98 2.79758 -4.24986 0
M  V30 18870 H 1829.38 5.21785 -2.18535 0
M  V30 18871 H 1827.93 5.85307 -2.86808 0
M  V30 18872 N 1831.37 1.49742 0.491438 0
M  V30 18873 C 1832.61 1.58956 1.24161 0
M  V30 18874 C 1832.93 0.285882 1.935 0
M  V30 18875 O 1834.13 0.256678 2.70284 0
M  V30 18876 C 1832.59 2.805 2.25494 0
M  V30 18877 C 1832.2 4.17664 1.62051 0
M  V30 18878 C 1833.94 2.99049 3.0128 0
M  V30 18879 C 1831.85 5.3042 2.61551 0
M  V30 18880 H 1830.78 0.591883 0.467108 0
M  V30 18881 H 1833.43 1.76144 0.514364 0
M  V30 18882 H 1831.81 2.56827 3.01423 0
M  V30 18883 H 1832.99 4.51512 0.9205 0
M  V30 18884 H 1831.3 4.04553 0.986211 0
M  V30 18885 H 1833.9 3.80458 3.75707 0
M  V30 18886 H 1834.24 2.0998 3.59464 0
M  V30 18887 H 1834.77 3.22807 2.32466 0
M  V30 18888 H 1831.51 6.21579 2.08135 0
M  V30 18889 H 1831.03 5.01014 3.29765 0
M  V30 18890 H 1832.71 5.60152 3.23789 0
M  V30 18891 N 1832.84 -0.743177 1.38977 0
M  V30 18892 C 1834.09 -1.49798 1.35069 0
M  V30 18893 C 1834.41 -1.95527 -0.0533172 0
M  V30 18894 O 1835.61 -2.70648 -0.21497 0
M  V30 18895 C 1834.07 -2.70637 2.37242 0
M  V30 18896 C 1833.68 -2.3189 3.83316 0
M  V30 18897 C 1835.42 -3.4849 2.42395 0
M  V30 18898 C 1833.33 -3.49403 4.77149 0
M  V30 18899 H 1832.26 -0.562495 0.50211 0
M  V30 18900 H 1834.91 -0.81145 1.64584 0
M  V30 18901 H 1833.29 -3.41323 2.00785 0
M  V30 18902 H 1834.46 -1.68803 4.28768 0
M  V30 18903 H 1832.78 -1.67148 3.8138 0
M  V30 18904 H 1835.38 -4.35882 3.09694 0
M  V30 18905 H 1835.72 -3.9038 1.446 0
M  V30 18906 H 1836.25 -2.84825 2.77704 0
M  V30 18907 H 1832.99 -3.1257 5.76177 0
M  V30 18908 H 1832.51 -4.11498 4.36382 0
M  V30 18909 H 1834.19 -4.15847 4.95661 0
M  V30 18910 N 1834.32 -1.24018 -0.972487 0
M  V30 18911 C 1835.25 -0.986185 -2.06899 0
M  V30 18912 C 1836.27 0.0426574 -1.62744 0
M  V30 18913 O 1837.46 -0.193816 -1.77445 0
M  V30 18914 C 1834.56 -0.46551 -3.35688 0
M  V30 18915 C 1833.73 -1.55637 -4.08774 0
M  V30 18916 C 1832.79 -1.03918 -5.15837 0
M  V30 18917 O 1831.81 -1.72986 -5.42277 0
M  V30 18918 N 1833.02 0.128891 -5.80357 0
M  V30 18919 H 1835.78 -1.93025 -2.29263 0
M  V30 18920 H 1833.34 -1.14983 -1.13976 0
M  V30 18921 H 1835.33 -0.104379 -4.04565 0
M  V30 18922 H 1833.9 0.384166 -3.1023 0
M  V30 18923 H 1833.12 -2.08991 -3.3424 0
M  V30 18924 H 1834.41 -2.28973 -4.54366 0
M  V30 18925 H 1833.81 0.706438 -5.61272 0
M  V30 18926 H 1832.37 0.431211 -6.50372 0
M  V30 18927 N 1835.8 1.17245 -1.05316 0
M  V30 18928 C 1837.05 1.87536 -0.76398 0
M  V30 18929 C 1837.38 1.81115 0.709049 0
M  V30 18930 O 1836.63 1.21473 1.53437 0
M  V30 18931 C 1836.93 3.36958 -1.19138 0
M  V30 18932 C 1836.6 3.63581 -2.66683 0
M  V30 18933 C 1835.26 3.70556 -3.06988 0
M  V30 18934 C 1837.61 3.74954 -3.62021 0
M  V30 18935 C 1834.94 3.86396 -4.41492 0
M  V30 18936 C 1837.29 3.92313 -4.9626 0
M  V30 18937 C 1835.95 3.97527 -5.36217 0
M  V30 18938 H 1835.22 0.686241 -0.27956 0
M  V30 18939 H 1837.87 1.38694 -1.32047 0
M  V30 18940 H 1836.18 3.87865 -0.55391 0
M  V30 18941 H 1837.87 3.8971 -0.944815 0
M  V30 18942 H 1834.46 3.58778 -2.34471 0
M  V30 18943 H 1838.65 3.68885 -3.3202 0
M  V30 18944 H 1833.9 3.88681 -4.7195 0
M  V30 18945 H 1838.08 4.00055 -5.70026 0
M  V30 18946 H 1835.7 4.09553 -6.40445 0
M  V30 18947 N 1837.28 0.834353 1.33702 0
M  V30 18948 C 1838.69 0.485213 1.80285 0
M  V30 18949 C 1839.04 -0.995397 1.69075 0
M  V30 18950 O 1838.17 -1.77532 1.23738 0
M  V30 18951 C 1838.76 0.873959 3.27334 0
M  V30 18952 C 1837.32 0.577023 3.71951 0
M  V30 18953 C 1836.47 1.08473 2.55204 0
M  V30 18954 H 1839.42 1.02347 1.21288 0
M  V30 18955 H 1839.44 0.182218 3.80063 0
M  V30 18956 H 1838.95 1.95161 3.35461 0
M  V30 18957 H 1837.05 -0.490747 3.69354 0
M  V30 18958 H 1837.16 1.12909 4.65605 0
M  V30 18959 H 1835.53 0.505779 2.49628 0
M  V30 18960 H 1836.31 2.16906 2.66095 0
M  V30 18961 N 1838.76 -1.46125 0.590367 0
M  V30 18962 C 1839.67 -2.34177 -0.140761 0
M  V30 18963 C 1840.68 -1.50213 -0.878181 0
M  V30 18964 O 1841.86 -1.83063 -0.839644 0
M  V30 18965 C 1838.92 -3.27537 -1.13669 0
M  V30 18966 C 1837.98 -4.27403 -0.403103 0
M  V30 18967 C 1837.22 -5.16302 -1.35159 0
M  V30 18968 O 1837.44 -5.08283 -2.58853 0
M  V30 18969 O 1836.37 -5.95753 -0.858003 0
M  V30 18970 H 1840.2 -2.98063 0.582401 0
M  V30 18971 H 1837.79 -1.45225 0.35072 0
M  V30 18972 H 1839.67 -3.85112 -1.71074 0
M  V30 18973 H 1838.34 -2.66237 -1.84118 0
M  V30 18974 H 1837.25 -3.73493 0.212986 0
M  V30 18975 H 1838.58 -4.9151 0.260565 0
M  V30 18976 N 1840.23 -0.328564 -1.54137 0
M  V30 18977 C 1841.51 0.327026 -1.92847 0
M  V30 18978 C 1841.89 1.69472 -1.25867 0
M  V30 18979 O 1841.24 2.24897 -0.404172 0
M  V30 18980 C 1841.45 0.414261 -3.46533 0
M  V30 18981 C 1842.8 0.672189 -4.19245 0
M  V30 18982 O 1843.82 0.496982 -3.52716 0
M  V30 18983 O 1842.68 1.01053 -5.37076 0
M  V30 18984 H 1839.77 0.187716 -0.805414 0
M  V30 18985 H 1842.32 -0.378645 -1.65422 0
M  V30 18986 H 1841.09 -0.54611 -3.8747 0
M  V30 18987 H 1840.72 1.16731 -3.80078 0
M  V30 18988 N 1841.71 1.57497 -0.0568439 0
M  V30 18989 C 1842.64 2.08817 0.94488 0
M  V30 18990 C 1843.66 1.01717 1.27112 0
M  V30 18991 O 1844.85 1.2927 1.23092 0
M  V30 18992 C 1841.95 2.52104 2.26488 0
M  V30 18993 C 1841.12 3.82606 2.11971 0
M  V30 18994 C 1840.18 4.12145 3.27144 0
M  V30 18995 O 1839.2 4.81978 3.02797 0
M  V30 18996 N 1840.41 3.64505 4.51792 0
M  V30 18997 H 1843.17 2.95384 0.506814 0
M  V30 18998 H 1840.73 1.61383 0.129259 0
M  V30 18999 H 1842.72 2.68938 3.02415 0
M  V30 19000 H 1841.29 1.70756 2.61842 0
M  V30 19001 H 1840.51 3.75299 1.20601 0
M  V30 19002 H 1841.8 4.68055 1.99505 0
M  V30 19003 H 1841.2 3.08061 4.74462 0
M  V30 19004 H 1839.76 3.86566 5.24795 0
M  V30 19005 N 1843.19 -0.216591 1.56105 0
M  V30 19006 C 1844.14 -1.26844 1.92819 0
M  V30 19007 C 1845.11 -1.46326 0.785999 0
M  V30 19008 O 1846.29 -1.59813 1.04232 0
M  V30 19009 C 1843.43 -2.61276 2.25452 0
M  V30 19010 C 1842.55 -2.49552 3.5263 0
M  V30 19011 C 1841.68 -3.76541 3.74686 0
M  V30 19012 C 1840.72 -3.5956 4.95362 0
M  V30 19013 N 1839.86 -4.7851 5.13782 0
M  V30 19014 H 1844.7 -0.948341 2.82508 0
M  V30 19015 H 1842.23 -0.456953 1.39823 0
M  V30 19016 H 1844.19 -3.39567 2.42384 0
M  V30 19017 H 1842.82 -2.91373 1.38931 0
M  V30 19018 H 1841.87 -1.6267 3.43864 0
M  V30 19019 H 1843.19 -2.32927 4.41074 0
M  V30 19020 H 1842.34 -4.63275 3.91741 0
M  V30 19021 H 1841.08 -3.96097 2.84532 0
M  V30 19022 H 1840.08 -2.71211 4.78252 0
M  V30 19023 H 1841.31 -3.41471 5.87005 0
M  V30 19024 H 1839.25 -4.9837 4.26572 0
M  V30 19025 H 1839.17 -4.64631 5.96368 0
M  V30 19026 H 1840.44 -5.66656 5.35277 0
M  V30 19027 N 1844.67 -1.5 -0.48349 0
M  V30 19028 C 1845.91 -1.60606 -1.23829 0
M  V30 19029 C 1846.25 -0.299778 -1.91872 0
M  V30 19030 O 1845.52 0.697925 -1.81547 0
M  V30 19031 C 1845.81 -2.77769 -2.29165 0
M  V30 19032 C 1845.66 -4.18243 -1.65507 0
M  V30 19033 C 1846.98 -2.90521 -3.30584 0
M  V30 19034 H 1844.1 -0.584561 -0.44884 0
M  V30 19035 H 1846.74 -1.82346 -0.533855 0
M  V30 19036 H 1844.89 -2.59364 -2.89245 0
M  V30 19037 H 1846.56 -4.48208 -1.09119 0
M  V30 19038 H 1844.8 -4.23077 -0.958577 0
M  V30 19039 H 1845.47 -4.96128 -2.41994 0
M  V30 19040 H 1847.95 -3.0733 -2.80513 0
M  V30 19041 H 1846.83 -3.74146 -4.0163 0
M  V30 19042 H 1847.09 -2.00609 -3.93965 0
M  V30 19043 N 1846.15 0.735796 -1.39369 0
M  V30 19044 C 1847.56 1.04124 -1.20956 0
M  V30 19045 C 1847.76 2.01376 -0.0705944 0
M  V30 19046 O 1846.82 2.45795 0.577999 0
M  V30 19047 C 1848.13 1.60429 -2.54329 0
M  V30 19048 C 1849.68 1.72513 -2.61167 0
M  V30 19049 C 1850.15 2.32227 -3.94759 0
M  V30 19050 N 1851.65 2.39638 -3.96394 0
M  V30 19051 C 1852.38 2.86777 -4.96534 0
M  V30 19052 N 1851.88 3.3382 -6.07072 0
M  V30 19053 N 1853.67 2.85979 -4.83913 0
M  V30 19054 H 1845.82 0.0907834 -2.12206 0
M  V30 19055 H 1848.08 0.102896 -0.942399 0
M  V30 19056 H 1847.79 0.964351 -3.38221 0
M  V30 19057 H 1847.66 2.59247 -2.73991 0
M  V30 19058 H 1850.05 2.35629 -1.77659 0
M  V30 19059 H 1850.13 0.723507 -2.45355 0
M  V30 19060 H 1849.78 1.69739 -4.78697 0
M  V30 19061 H 1849.71 3.33066 -4.07891 0
M  V30 19062 H 1852.2 2.06388 -3.16563 0
M  V30 19063 H 1852.51 3.68297 -6.79395 0
M  V30 19064 H 1850.85 3.3183 -6.10666 0
M  V30 19065 H 1854.05 2.48551 -3.96661 0
M  V30 19066 H 1854.22 3.22403 -5.62104 0
M  V30 19067 N 1847.63 1.24532 0.965897 0
M  V30 19068 C 1848.59 1.04026 2.04233 0
M  V30 19069 C 1849.59 -0.00305855 1.608 0
M  V30 19070 O 1850.78 0.238077 1.72565 0
M  V30 19071 C 1847.91 0.577072 3.3598 0
M  V30 19072 H 1849.1 1.99569 2.23858 0
M  V30 19073 H 1846.66 1.0678 1.14139 0
M  V30 19074 H 1847.39 -0.381471 3.22049 0
M  V30 19075 H 1847.18 1.33012 3.6885 0
M  V30 19076 H 1848.67 0.45469 4.15117 0
M  V30 19077 N 1849.1 -1.16685 1.05936 0
M  V30 19078 C 1850.35 -1.86758 0.772386 0
M  V30 19079 C 1850.67 -1.81885 -0.703051 0
M  V30 19080 O 1849.94 -1.24992 -1.50844 0
M  V30 19081 H 1848.52 -0.69143 0.282725 0
M  V30 19082 H 1851.18 -1.41518 1.3401 0
M  V30 19083 H 1850.28 -2.92296 1.09405 0
M  V30 19084 N 1850.58 -0.841432 -1.33258 0
M  V30 19085 C 1851.49 -0.279006 -2.32935 0
M  V30 19086 C 1852.51 0.596298 -1.63463 0
M  V30 19087 O 1853.68 0.499812 -1.951 0
M  V30 19088 C 1850.75 0.534514 -3.42555 0
M  V30 19089 C 1849.81 -0.365366 -4.27742 0
M  V30 19090 C 1849.04 0.409423 -5.32127 0
M  V30 19091 O 1849.27 1.64085 -5.4629 0
M  V30 19092 O 1848.2 -0.217904 -6.01505 0
M  V30 19093 H 1852.03 -1.10448 -2.82904 0
M  V30 19094 H 1849.61 -0.60402 -1.36645 0
M  V30 19095 H 1851.49 0.996723 -4.09443 0
M  V30 19096 H 1850.17 1.33701 -2.94798 0
M  V30 19097 H 1849.07 -0.875469 -3.63712 0
M  V30 19098 H 1850.41 -1.1327 -4.78989 0
M  V30 19099 N 1852.06 1.4581 -0.598108 0
M  V30 19100 C 1853.28 2.07188 -0.0938515 0
M  V30 19101 C 1853.71 1.44141 1.20851 0
M  V30 19102 O 1853.07 0.530689 1.73359 0
M  V30 19103 C 1853.12 3.60575 0.0423086 0
M  V30 19104 O 1852.22 3.97598 1.09496 0
M  V30 19105 H 1851.56 0.660324 -0.0697682 0
M  V30 19106 H 1854.09 1.87211 -0.825426 0
M  V30 19107 H 1854.1 4.07272 0.243566 0
M  V30 19108 H 1852.78 4.05852 -0.9087 0
M  V30 19109 H 1851.35 3.62587 0.87093 0
M  V30 19110 N 1853.54 0.336733 1.53961 0
M  V30 19111 C 1854.78 -0.262248 2.01097 0
M  V30 19112 C 1855.12 -1.50745 1.22431 0
M  V30 19113 O 1854.39 -1.92012 0.310103 0
M  V30 19114 C 1854.67 -0.583219 3.55346 0
M  V30 19115 C 1854.53 0.67361 4.44727 0
M  V30 19116 C 1855.85 -1.39558 4.17386 0
M  V30 19117 H 1852.97 -0.0938423 0.731001 0
M  V30 19118 H 1855.61 0.455921 1.84449 0
M  V30 19119 H 1853.76 -1.19505 3.69663 0
M  V30 19120 H 1855.43 1.31168 4.42258 0
M  V30 19121 H 1853.67 1.29987 4.13867 0
M  V30 19122 H 1854.34 0.404382 5.50517 0
M  V30 19123 H 1856.82 -0.878292 4.06725 0
M  V30 19124 H 1855.7 -1.58892 5.25399 0
M  V30 19125 H 1855.96 -2.39567 3.71564 0
M  V30 19126 N 1855.02 -1.57465 0.0651956 0
M  V30 19127 C 1855.93 -2.15841 -0.919235 0
M  V30 19128 C 1856.94 -1.11984 -1.33175 0
M  V30 19129 O 1858.12 -1.44219 -1.4058 0
M  V30 19130 C 1855.18 -2.7032 -2.1709 0
M  V30 19131 C 1854.24 -3.89026 -1.81542 0
M  V30 19132 C 1853.48 -4.40897 -3.00742 0
M  V30 19133 O 1853.7 -3.91792 -4.14555 0
M  V30 19134 O 1852.63 -5.32312 -2.80941 0
M  V30 19135 H 1856.46 -3.00307 -0.452704 0
M  V30 19136 H 1854.04 -1.48567 -0.157504 0
M  V30 19137 H 1855.93 -3.05266 -2.90501 0
M  V30 19138 H 1854.6 -1.88917 -2.62854 0
M  V30 19139 H 1853.51 -3.58944 -1.05404 0
M  V30 19140 H 1854.84 -4.71701 -1.40567 0
M  V30 19141 N 1856.49 0.20831 -1.56217 0
M  V30 19142 C 1857.42 1.26115 -1.96513 0
M  V30 19143 C 1858.4 1.48185 -0.835183 0
M  V30 19144 O 1859.59 1.60145 -1.09851 0
M  V30 19145 C 1856.72 2.6082 -2.29326 0
M  V30 19146 C 1855.67 2.53385 -3.44935 0
M  V30 19147 C 1855 3.92241 -3.63388 0
M  V30 19148 C 1856.3 2.07026 -4.79518 0
M  V30 19149 H 1857.99 0.92635 -2.84709 0
M  V30 19150 H 1855.54 0.444169 -1.36979 0
M  V30 19151 H 1857.49 3.34644 -2.56109 0
M  V30 19152 H 1856.22 2.96014 -1.37997 0
M  V30 19153 H 1854.88 1.82018 -3.18222 0
M  V30 19154 H 1854.52 4.24766 -2.69413 0
M  V30 19155 H 1854.22 3.88145 -4.41154 0
M  V30 19156 H 1855.75 4.67707 -3.92533 0
M  V30 19157 H 1857.16 2.70601 -5.05419 0
M  V30 19158 H 1855.56 2.13961 -5.60661 0
M  V30 19159 H 1856.63 1.02298 -4.73986 0
M  V30 19160 N 1857.97 1.50255 0.475528 0
M  V30 19161 C 1859.22 1.61022 1.22793 0
M  V30 19162 C 1859.55 0.308508 1.92038 0
M  V30 19163 O 1858.8 -0.70533 1.82547 0
M  V30 19164 C 1859.1 2.73698 2.29835 0
M  V30 19165 C 1858.77 4.14333 1.77873 0
M  V30 19166 C 1857.43 4.526 1.63423 0
M  V30 19167 C 1859.78 5.02247 1.39275 0
M  V30 19168 C 1857.11 5.76525 1.08791 0
M  V30 19169 C 1859.46 6.26715 0.860869 0
M  V30 19170 C 1858.12 6.63788 0.702959 0
M  V30 19171 H 1857.39 0.589221 0.449332 0
M  V30 19172 H 1860.04 1.84173 0.524633 0
M  V30 19173 H 1858.35 2.44617 3.06055 0
M  V30 19174 H 1860.04 2.79233 2.87802 0
M  V30 19175 H 1856.63 3.84142 1.90087 0
M  V30 19176 H 1860.82 4.73319 1.49276 0
M  V30 19177 H 1856.07 6.03927 0.952987 0
M  V30 19178 H 1860.25 6.942 0.553109 0
M  V30 19179 H 1857.87 7.59693 0.277471 0
M  V30 19180 N 1859.45 -0.728395 1.39758 0
M  V30 19181 C 1860.7 -1.48514 1.37069 0
M  V30 19182 C 1861.02 -1.94976 -0.0305263 0
M  V30 19183 O 1860.29 -1.69453 -0.982987 0
M  V30 19184 H 1858.87 -0.550958 0.504434 0
M  V30 19185 H 1861.53 -0.864297 1.74688 0
M  V30 19186 H 1860.63 -2.36411 2.03755 0
M  V30 19187 N 1860.93 -1.25042 -0.959279 0
M  V30 19188 C 1861.87 -1.0502 -2.05522 0
M  V30 19189 C 1862.84 0.039194 -1.66054 0
M  V30 19190 O 1864.03 -0.11708 -1.9044 0
M  V30 19191 C 1861.17 -0.670047 -3.38533 0
M  V30 19192 C 1860.28 -1.83381 -3.91146 0
M  V30 19193 C 1859.42 -1.39844 -5.12462 0
M  V30 19194 C 1858.46 -2.53163 -5.57293 0
M  V30 19195 N 1857.59 -2.10435 -6.69822 0
M  V30 19196 H 1862.43 -1.98816 -2.21982 0
M  V30 19197 H 1859.97 -0.990139 -1.08787 0
M  V30 19198 H 1861.93 -0.430621 -4.14972 0
M  V30 19199 H 1860.56 0.230924 -3.21973 0
M  V30 19200 H 1859.61 -2.18667 -3.1127 0
M  V30 19201 H 1860.92 -2.68497 -4.2037 0
M  V30 19202 H 1860.08 -1.1184 -5.96303 0
M  V30 19203 H 1858.82 -0.51794 -4.84942 0
M  V30 19204 H 1857.82 -2.81918 -4.7202 0
M  V30 19205 H 1859.05 -3.41784 -5.86822 0
M  V30 19206 H 1856.99 -1.24794 -6.44021 0
M  V30 19207 H 1856.91 -2.89101 -6.98539 0
M  V30 19208 H 1858.18 -1.85593 -7.57084 0
M  V30 19209 N 1862.41 1.16121 -1.06553 0
M  V30 19210 C 1863.65 1.86991 -0.784989 0
M  V30 19211 C 1863.99 1.81645 0.686919 0
M  V30 19212 O 1863.26 1.23394 1.50347 0
M  V30 19213 C 1863.54 3.36448 -1.28355 0
M  V30 19214 C 1863.4 3.5047 -2.81941 0
M  V30 19215 C 1864.72 4.30933 -0.893561 0
M  V30 19216 H 1861.83 0.678978 -0.286633 0
M  V30 19217 H 1864.48 1.36475 -1.32192 0
M  V30 19218 H 1862.63 3.796 -0.826796 0
M  V30 19219 H 1864.3 3.16237 -3.35845 0
M  V30 19220 H 1862.54 2.92294 -3.20541 0
M  V30 19221 H 1863.21 4.55443 -3.11891 0
M  V30 19222 H 1865.69 3.95696 -1.287 0
M  V30 19223 H 1864.56 5.3401 -1.26984 0
M  V30 19224 H 1864.83 4.41642 0.201274 0
M  V30 19225 N 1863.88 0.848487 1.3281 0
M  V30 19226 C 1865.11 0.462643 2.01661 0
M  V30 19227 C 1865.53 -0.938906 1.63799 0
M  V30 19228 O 1864.88 -1.61171 0.85617 0
M  V30 19229 C 1864.94 0.584905 3.56737 0
M  V30 19230 O 1864.66 1.93124 3.93236 0
M  V30 19231 C 1866.16 0.197265 4.42861 0
M  V30 19232 H 1863.38 0.18254 0.645694 0
M  V30 19233 H 1865.92 1.14372 1.69527 0
M  V30 19234 H 1864.08 -0.0483701 3.8737 0
M  V30 19235 H 1864.49 1.92361 4.87952 0
M  V30 19236 H 1865.96 0.333833 5.5099 0
M  V30 19237 H 1866.44 -0.861732 4.30663 0
M  V30 19238 H 1867.05 0.805363 4.17605 0
M  V30 19239 N 1865.36 -1.4549 0.605832 0
M  V30 19240 C 1866.61 -2.01852 0.10014 0
M  V30 19241 C 1866.93 -1.47699 -1.27319 0
M  V30 19242 O 1866.2 -0.670571 -1.84066 0
M  V30 19243 H 1864.78 -0.746225 0.0340291 0
M  V30 19244 H 1867.44 -1.78311 0.786834 0
M  V30 19245 H 1866.54 -3.12062 0.0485925 0
M  V30 19246 N 1866.84 -0.344893 -1.5378 0
M  V30 19247 C 1868.07 0.252559 -2.05353 0
M  V30 19248 C 1868.48 1.44107 -1.21978 0
M  V30 19249 O 1867.84 1.80704 -0.25543 0
M  V30 19250 C 1867.89 0.666294 -3.55307 0
M  V30 19251 O 1867.61 -0.474957 -4.35518 0
M  V30 19252 C 1869.11 1.32432 -4.23056 0
M  V30 19253 H 1866.33 0.0485202 -0.669243 0
M  V30 19254 H 1868.88 -0.497271 -1.98362 0
M  V30 19255 H 1867.03 1.36606 -3.62515 0
M  V30 19256 H 1867.45 -0.144883 -5.243 0
M  V30 19257 H 1868.92 1.56456 -5.29363 0
M  V30 19258 H 1869.4 2.27829 -3.75487 0
M  V30 19259 H 1870 0.66655 -4.20044 0
M  V30 19260 N 1868.32 1.57428 -0.0735454 0
M  V30 19261 C 1869.25 2.09808 0.922679 0
M  V30 19262 C 1870.26 1.0306 1.26026 0
M  V30 19263 O 1871.45 1.30568 1.21714 0
M  V30 19264 C 1868.55 2.54492 2.23801 0
M  V30 19265 C 1867.73 3.84832 2.07901 0
M  V30 19266 C 1866.78 4.15592 3.22754 0
M  V30 19267 O 1865.81 4.85163 2.97667 0
M  V30 19268 N 1867.01 3.69277 4.47901 0
M  V30 19269 H 1869.78 2.95905 0.475456 0
M  V30 19270 H 1867.34 1.61511 0.112135 0
M  V30 19271 H 1869.33 2.7213 2.99545 0
M  V30 19272 H 1867.9 1.73523 2.60016 0
M  V30 19273 H 1867.12 3.76557 1.16614 0
M  V30 19274 H 1868.41 4.70144 1.9453 0
M  V30 19275 H 1867.81 3.13076 4.71168 0
M  V30 19276 H 1866.36 3.92111 5.20665 0
M  V30 19277 N 1869.8 -0.200022 1.56326 0
M  V30 19278 C 1871.21 -0.765141 1.70301 0
M  V30 19279 C 1871.56 -1.84066 0.679277 0
M  V30 19280 O 1870.68 -2.15768 -0.165308 0
M  V30 19281 C 1871.28 -1.39466 3.08763 0
M  V30 19282 C 1869.84 -1.90692 3.2452 0
M  V30 19283 C 1868.98 -0.77502 2.66249 0
M  V30 19284 H 1871.94 0.024977 1.5868 0
M  V30 19285 H 1871.96 -2.26396 3.05819 0
M  V30 19286 H 1871.47 -0.61165 3.8325 0
M  V30 19287 H 1869.57 -2.71728 2.54941 0
M  V30 19288 H 1869.68 -2.0721 4.31973 0
M  V30 19289 H 1868.05 -1.18802 2.25296 0
M  V30 19290 H 1868.83 -0.00432851 3.433 0
M  V30 19291 N 1871.27 -1.50505 -0.467553 0
M  V30 19292 C 1872.52 -1.60911 -1.21617 0
M  V30 19293 C 1872.84 -0.31663 -1.9302 0
M  V30 19294 O 1874.04 -0.299645 -2.69841 0
M  V30 19295 C 1872.5 -2.84052 -2.21003 0
M  V30 19296 C 1872.11 -4.20189 -1.55386 0
M  V30 19297 C 1873.85 -3.03805 -2.96484 0
M  V30 19298 C 1871.76 -5.34514 -2.5308 0
M  V30 19299 H 1870.69 -0.59924 -0.457633 0
M  V30 19300 H 1873.34 -1.7694 -0.486276 0
M  V30 19301 H 1871.72 -2.6159 -2.97299 0
M  V30 19302 H 1872.89 -4.5292 -0.848552 0
M  V30 19303 H 1871.21 -4.0607 -0.921725 0
M  V30 19304 H 1873.81 -3.86387 -3.69606 0
M  V30 19305 H 1874.15 -2.15672 -3.56078 0
M  V30 19306 H 1874.68 -3.26465 -2.27301 0
M  V30 19307 H 1871.42 -6.24811 -1.9822 0
M  V30 19308 H 1870.94 -5.06197 -3.21752 0
M  V30 19309 H 1872.62 -5.65232 -3.14836 0
M  V30 19310 N 1872.75 0.720973 -1.40142 0
M  V30 19311 C 1873.98 1.51012 -1.41431 0
M  V30 19312 C 1874.4 1.88796 -0.0125516 0
M  V30 19313 O 1873.75 1.55073 0.962217 0
M  V30 19314 C 1873.8 2.78886 -2.3001 0
M  V30 19315 O 1873.52 2.42703 -3.64729 0
M  V30 19316 C 1875.03 3.7282 -2.39834 0
M  V30 19317 H 1872.25 0.466214 -0.482582 0
M  V30 19318 H 1874.79 0.889777 -1.84128 0
M  V30 19319 H 1872.94 3.37219 -1.90689 0
M  V30 19320 H 1873.36 3.24945 -4.11717 0
M  V30 19321 H 1874.83 4.594 -3.06032 0
M  V30 19322 H 1875.31 4.15552 -1.42173 0
M  V30 19323 H 1875.92 3.20402 -2.79684 0
M  V30 19324 N 1874.23 1.25549 0.952634 0
M  V30 19325 C 1875.47 1.11623 1.7123 0
M  V30 19326 C 1875.83 -0.336737 1.89024 0
M  V30 19327 O 1877.04 -0.597864 2.62067 0
M  V30 19328 C 1875.31 1.85192 3.05677 0
M  V30 19329 S 1876.87 1.87182 3.96873 0
M  V30 19330 H 1873.68 0.398936 0.588533 0
M  V30 19331 H 1876.29 1.59103 1.13607 0
M  V30 19332 H 1874.99 2.89995 2.90398 0
M  V30 19333 H 1874.52 1.38108 3.68361 0
M  V30 19334 H 1876.54 0.950292 4.87015 0
M  V30 19335 N 1875.71 -1.15554 1.07168 0
M  V30 19336 C 1876.94 -1.90182 0.81477 0
M  V30 19337 C 1877.35 -1.77914 -0.631829 0
M  V30 19338 O 1876.71 -1.1298 -1.43324 0
M  V30 19339 C 1876.76 -3.40593 1.21155 0
M  V30 19340 O 1876.48 -3.52504 2.60139 0
M  V30 19341 C 1877.98 -4.32248 0.983675 0
M  V30 19342 H 1875.2 -0.602804 0.294735 0
M  V30 19343 H 1877.75 -1.46419 1.42764 0
M  V30 19344 H 1875.9 -3.82026 0.643041 0
M  V30 19345 H 1876.31 -4.45839 2.76275 0
M  V30 19346 H 1877.79 -5.3621 1.31084 0
M  V30 19347 H 1878.27 -4.39127 -0.0801022 0
M  V30 19348 H 1878.87 -3.96556 1.537 0
M  V30 19349 N 1877.19 -0.855519 -1.32358 0
M  V30 19350 C 1878.43 -0.469284 -1.97912 0
M  V30 19351 C 1878.79 0.964638 -1.66471 0
M  V30 19352 O 1878.08 1.66785 -0.943052 0
M  V30 19353 C 1878.28 -0.64624 -3.51509 0
M  V30 19354 C 1878.1 -2.09581 -3.97877 0
M  V30 19355 C 1876.87 -2.73449 -4.24916 0
M  V30 19356 C 1879.07 -3.06649 -4.12881 0
M  V30 19357 N 1877.05 -4.09308 -4.57537 0
M  V30 19358 C 1878.43 -4.27498 -4.49049 0
M  V30 19359 C 1880.48 -3.02833 -3.95217 0
M  V30 19360 C 1879.18 -5.4503 -4.69398 0
M  V30 19361 C 1881.21 -4.1961 -4.16751 0
M  V30 19362 C 1880.57 -5.39218 -4.53237 0
M  V30 19363 H 1876.67 -0.220478 -0.750276 0
M  V30 19364 H 1879.25 -1.10709 -1.60161 0
M  V30 19365 H 1877.43 -0.038129 -3.88381 0
M  V30 19366 H 1879.16 -0.229815 -4.04047 0
M  V30 19367 H 1875.91 -2.24482 -4.17019 0
M  V30 19368 H 1876.34 -4.7939 -4.78032 0
M  V30 19369 H 1880.98 -2.1148 -3.66109 0
M  V30 19370 H 1878.7 -6.36914 -4.97359 0
M  V30 19371 H 1882.28 -4.18094 -4.04585 0
M  V30 19372 H 1881.16 -6.28075 -4.69565 0
M  V30 19373 N 1878.67 1.45167 -0.61354 0
M  V30 19374 C 1879.6 2.27701 0.150791 0
M  V30 19375 C 1880.58 1.37493 0.868012 0
M  V30 19376 O 1881.76 1.66926 0.875677 0
M  V30 19377 C 1878.89 3.16008 1.21887 0
M  V30 19378 C 1877.93 4.222 0.604131 0
M  V30 19379 S 1878.77 5.32212 -0.592512 0
M  V30 19380 C 1879.92 6.24087 0.476016 0
M  V30 19381 H 1880.16 2.92179 -0.549425 0
M  V30 19382 H 1877.69 1.49096 -0.401218 0
M  V30 19383 H 1879.65 3.67441 1.83022 0
M  V30 19384 H 1878.31 2.50784 1.89119 0
M  V30 19385 H 1877.5 4.83934 1.40797 0
M  V30 19386 H 1877.1 3.73939 0.0677896 0
M  V30 19387 H 1879.39 6.63843 1.35346 0
M  V30 19388 H 1880.34 7.08022 -0.105315 0
M  V30 19389 H 1880.75 5.58888 0.794018 0
M  V30 19390 N 1880.14 0.353044 1.53595 0
M  V30 19391 C 1881.09 -0.499326 2.25334 0
M  V30 19392 C 1882.06 -1.08781 1.25522 0
M  V30 19393 O 1883.25 -1.12265 1.54276 0
M  V30 19394 C 1880.39 -1.63955 3.03666 0
M  V30 19395 C 1879.5 -1.07745 4.18348 0
M  V30 19396 C 1878.63 -2.18575 4.84147 0
M  V30 19397 C 1877.67 -1.59765 5.90882 0
M  V30 19398 N 1876.81 -2.64376 6.50423 0
M  V30 19399 H 1881.65 0.118959 2.97762 0
M  V30 19400 H 1879.19 0.0704777 1.46931 0
M  V30 19401 H 1881.14 -2.31097 3.47347 0
M  V30 19402 H 1879.77 -2.22868 2.33516 0
M  V30 19403 H 1878.83 -0.296678 3.79241 0
M  V30 19404 H 1880.14 -0.607375 4.95088 0
M  V30 19405 H 1879.29 -2.93563 5.30948 0
M  V30 19406 H 1878.03 -2.68929 4.06852 0
M  V30 19407 H 1877.04 -0.832863 5.43455 0
M  V30 19408 H 1878.26 -1.10251 6.70091 0
M  V30 19409 H 1876.21 -3.13968 5.75986 0
M  V30 19410 H 1876.12 -2.22019 7.22664 0
M  V30 19411 H 1877.39 -3.39105 7.01875 0
M  V30 19412 N 1881.62 -1.57387 0.0818932 0
M  V30 19413 C 1882.87 -1.93869 -0.584899 0
M  V30 19414 C 1883.2 -0.962686 -1.69005 0
M  V30 19415 O 1882.45 0.0199955 -1.9569 0
M  V30 19416 C 1882.75 -3.36939 -1.19193 0
M  V30 19417 C 1882.42 -4.50402 -0.211908 0
M  V30 19418 C 1881.08 -4.81165 0.0576757 0
M  V30 19419 C 1883.43 -5.19184 0.457992 0
M  V30 19420 C 1880.76 -5.78044 1.00408 0
M  V30 19421 C 1883.11 -6.17077 1.39278 0
M  V30 19422 C 1881.77 -6.46253 1.67073 0
M  V30 19423 H 1881.04 -0.709417 -0.21403 0
M  V30 19424 H 1883.69 -1.90872 0.154919 0
M  V30 19425 H 1882 -3.3645 -2.00771 0
M  V30 19426 H 1883.69 -3.62461 -1.71532 0
M  V30 19427 H 1880.28 -4.26415 -0.43221 0
M  V30 19428 H 1884.47 -4.95603 0.262847 0
M  V30 19429 H 1879.72 -5.9897 1.22656 0
M  V30 19430 H 1883.9 -6.69474 1.91775 0
M  V30 19431 H 1881.52 -7.21132 2.40566 0
M  V30 19432 N 1883.1 0.191729 -1.56429 0
M  V30 19433 C 1884.52 0.542701 -1.5009 0
M  V30 19434 C 1884.72 1.85685 -0.782522 0
M  V30 19435 O 1883.77 2.50275 -0.334432 0
M  V30 19436 C 1885.08 0.594326 -2.94768 0
M  V30 19437 C 1886.63 0.682929 -3.05459 0
M  V30 19438 C 1887.11 0.765634 -4.51555 0
M  V30 19439 N 1888.6 0.829072 -4.5572 0
M  V30 19440 C 1889.33 0.91329 -5.6608 0
M  V30 19441 N 1888.83 0.959603 -6.86122 0
M  V30 19442 N 1890.62 0.950739 -5.54001 0
M  V30 19443 H 1882.77 -0.670241 -2.01548 0
M  V30 19444 H 1885.04 -0.239168 -0.917335 0
M  V30 19445 H 1884.74 -0.302238 -3.50399 0
M  V30 19446 H 1884.62 1.44787 -3.48305 0
M  V30 19447 H 1887 1.56992 -2.49875 0
M  V30 19448 H 1887.08 -0.19688 -2.55041 0
M  V30 19449 H 1886.73 -0.117022 -5.07765 0
M  V30 19450 H 1886.66 1.66129 -4.99709 0
M  V30 19451 H 1889.15 0.802391 -3.69283 0
M  V30 19452 H 1889.46 1.02447 -7.65979 0
M  V30 19453 H 1887.81 0.928223 -6.88774 0
M  V30 19454 H 1891 0.911418 -4.59141 0
M  V30 19455 H 1891.17 1.01291 -6.40034 0
M  V30 19456 N 1884.58 1.50751 0.459565 0
M  V30 19457 C 1885.52 1.70454 1.55609 0
M  V30 19458 C 1886.49 0.545921 1.56872 0
M  V30 19459 O 1887.68 0.777824 1.74226 0
M  V30 19460 C 1884.82 1.81524 2.93501 0
M  V30 19461 C 1883.93 3.08962 3.01938 0
M  V30 19462 C 1883.07 3.10758 4.30816 0
M  V30 19463 C 1882.11 4.32602 4.33038 0
M  V30 19464 N 1881.24 4.32073 5.53405 0
M  V30 19465 H 1886.08 2.64062 1.38112 0
M  V30 19466 H 1883.62 1.30889 0.671307 0
M  V30 19467 H 1885.58 1.85923 3.73481 0
M  V30 19468 H 1884.21 0.913445 3.09606 0
M  V30 19469 H 1883.26 3.13979 2.14759 0
M  V30 19470 H 1884.57 3.9892 2.9944 0
M  V30 19471 H 1883.73 3.13951 5.19153 0
M  V30 19472 H 1882.47 2.1865 4.3594 0
M  V30 19473 H 1881.47 4.2961 3.43097 0
M  V30 19474 H 1882.7 5.2595 4.29596 0
M  V30 19475 H 1880.64 3.42824 5.59292 0
M  V30 19476 H 1880.56 5.15814 5.52695 0
M  V30 19477 H 1881.83 4.39428 6.43835 0
M  V30 19478 N 1886.06 -0.713531 1.40522 0
M  V30 19479 C 1886.99 -1.83847 1.36868 0
M  V30 19480 C 1888 -1.60482 0.273746 0
M  V30 19481 O 1889.19 -1.70318 0.534238 0
M  V30 19482 C 1886.29 -3.20288 1.10764 0
M  V30 19483 C 1885.46 -3.70833 2.31952 0
M  V30 19484 C 1884.52 -4.85893 2.01977 0
M  V30 19485 O 1883.55 -4.98438 2.74861 0
M  V30 19486 N 1884.75 -5.7184 0.998985 0
M  V30 19487 H 1887.51 -1.87479 2.3382 0
M  V30 19488 H 1885.08 -0.895151 1.34902 0
M  V30 19489 H 1887.07 -3.94861 0.886932 0
M  V30 19490 H 1885.64 -3.11791 0.224726 0
M  V30 19491 H 1884.86 -2.87368 2.6984 0
M  V30 19492 H 1886.15 -4.01339 3.12738 0
M  V30 19493 H 1885.54 -5.64317 0.395392 0
M  V30 19494 H 1884.1 -6.46388 0.838178 0
M  V30 19495 N 1887.53 -1.26053 -0.945962 0
M  V30 19496 C 1888.78 -1.10706 -1.68603 0
M  V30 19497 C 1889.1 0.350167 -1.9244 0
M  V30 19498 O 1890.3 0.624224 -2.64227 0
M  V30 19499 C 1888.76 -1.93306 -3.0358 0
M  V30 19500 C 1888.37 -3.43574 -2.87508 0
M  V30 19501 C 1890.11 -1.86555 -3.8131 0
M  V30 19502 C 1888.02 -4.18438 -4.17928 0
M  V30 19503 H 1886.95 -0.410689 -0.632337 0
M  V30 19504 H 1889.6 -1.50322 -1.0524 0
M  V30 19505 H 1887.98 -1.4652 -3.67897 0
M  V30 19506 H 1889.15 -3.98096 -2.3207 0
M  V30 19507 H 1887.47 -3.51511 -2.23224 0
M  V30 19508 H 1890.07 -2.39775 -4.77925 0
M  V30 19509 H 1890.41 -0.83525 -4.07835 0
M  V30 19510 H 1890.94 -2.31138 -3.23759 0
M  V30 19511 H 1887.68 -5.21917 -3.96589 0
M  V30 19512 H 1887.2 -3.68698 -4.73098 0
M  V30 19513 H 1888.88 -4.26626 -4.86415 0
M  V30 19514 N 1889.01 1.14984 -1.07779 0
M  V30 19515 C 1889.94 2.19494 -0.659934 0
M  V30 19516 C 1890.96 1.60201 0.289756 0
M  V30 19517 O 1892.15 1.78328 0.0784004 0
M  V30 19518 C 1889.25 3.38862 0.0506161 0
M  V30 19519 C 1888.42 4.27693 -0.916355 0
M  V30 19520 C 1887.48 5.25642 -0.242303 0
M  V30 19521 O 1886.5 5.62282 -0.884715 0
M  V30 19522 N 1887.71 5.7164 1.01033 0
M  V30 19523 H 1890.47 2.5596 -1.55899 0
M  V30 19524 H 1888.03 1.30143 -0.963043 0
M  V30 19525 H 1890.02 4.01444 0.512331 0
M  V30 19526 H 1888.59 3.00775 0.851671 0
M  V30 19527 H 1887.81 3.62145 -1.55708 0
M  V30 19528 H 1889.1 4.83913 -1.57182 0
M  V30 19529 H 1888.5 5.43991 1.55212 0
M  V30 19530 H 1887.06 6.36241 1.41565 0
M  V30 19531 N 1890.49 0.862526 1.31902 0
M  V30 19532 C 1891.4 0.316029 2.32462 0
M  V30 19533 C 1892.42 -0.570217 1.64391 0
M  V30 19534 O 1893.59 -0.46871 1.9587 0
M  V30 19535 C 1890.66 -0.479949 3.43362 0
M  V30 19536 C 1889.72 0.43337 4.27107 0
M  V30 19537 C 1888.95 -0.324714 5.32711 0
M  V30 19538 O 1889.17 -1.55373 5.48831 0
M  V30 19539 O 1888.11 0.313571 6.01083 0
M  V30 19540 H 1891.93 1.14935 2.81111 0
M  V30 19541 H 1889.52 0.625683 1.35667 0
M  V30 19542 H 1891.4 -0.931458 4.10977 0
M  V30 19543 H 1890.08 -1.28994 2.96888 0
M  V30 19544 H 1888.98 0.933222 3.62273 0
M  V30 19545 H 1890.32 1.20876 4.77127 0
M  V30 19546 N 1891.97 -1.4484 0.62123 0
M  V30 19547 C 1893.19 -2.07012 0.126801 0
M  V30 19548 C 1893.62 -1.46046 -1.18542 0
M  V30 19549 O 1892.98 -0.558202 -1.72493 0
M  V30 19550 C 1893.02 -3.60597 0.0150611 0
M  V30 19551 O 1892.13 -3.9929 -1.03157 0
M  V30 19552 H 1891.47 -0.659131 0.0802646 0
M  V30 19553 H 1894 -1.85874 0.855105 0
M  V30 19554 H 1894.01 -4.07608 -0.178742 0
M  V30 19555 H 1892.68 -4.04354 0.973153 0
M  V30 19556 H 1891.26 -3.63927 -0.813135 0
M  V30 19557 N 1893.45 -0.361184 -1.53405 0
M  V30 19558 C 1894.36 0.495394 -2.2931 0
M  V30 19559 C 1895.37 1.09649 -1.35104 0
M  V30 19560 O 1896.55 1.10838 -1.68158 0
M  V30 19561 C 1893.61 1.62176 -3.06431 0
M  V30 19562 C 1892.67 1.04865 -4.16295 0
M  V30 19563 C 1891.91 2.12134 -4.89729 0
M  V30 19564 O 1892.13 3.33169 -4.62985 0
M  V30 19565 O 1891.06 1.75438 -5.75765 0
M  V30 19566 H 1894.89 -0.122155 -3.03454 0
M  V30 19567 H 1892.48 -0.125695 -1.4887 0
M  V30 19568 H 1894.36 2.27673 -3.54603 0
M  V30 19569 H 1893.03 2.22479 -2.35127 0
M  V30 19570 H 1891.94 0.357717 -3.72386 0
M  V30 19571 H 1893.27 0.490239 -4.89752 0
M  V30 19572 N 1894.92 1.57341 -0.0902386 0
M  V30 19573 C 1895.87 2.10293 0.880961 0
M  V30 19574 C 1896.86 1.01683 1.24697 0
M  V30 19575 O 1898.05 1.27965 1.22286 0
M  V30 19576 C 1895.18 2.68293 2.14182 0
M  V30 19577 C 1894.27 3.83938 1.80146 0
M  V30 19578 N 1894.66 4.92166 1.16646 0
M  V30 19579 C 1892.95 3.93581 2.09785 0
M  V30 19580 C 1893.66 5.72845 1.01113 0
M  V30 19581 N 1892.63 5.21716 1.52686 0
M  V30 19582 H 1896.43 2.91354 0.385979 0
M  V30 19583 H 1893.95 1.62006 0.113118 0
M  V30 19584 H 1895.94 3.04555 2.84697 0
M  V30 19585 H 1894.6 1.88685 2.6425 0
M  V30 19586 H 1895.62 5.11143 0.833854 0
M  V30 19587 H 1892.29 3.24975 2.62102 0
M  V30 19588 H 1893.68 6.69924 0.514913 0
M  V30 19589 N 1896.4 -0.183431 1.56529 0
M  V30 19590 C 1897.34 -1.25565 1.90548 0
M  V30 19591 C 1898.31 -1.4338 0.766876 0
M  V30 19592 O 1899.5 -1.58582 1.01902 0
M  V30 19593 C 1896.62 -2.62051 2.14586 0
M  V30 19594 C 1895.67 -2.61041 3.37283 0
M  V30 19595 S 1896.5 -2.11319 4.92041 0
M  V30 19596 C 1897.66 -3.49606 5.1916 0
M  V30 19597 H 1897.89 -0.96522 2.81195 0
M  V30 19598 H 1895.43 -0.387456 1.49459 0
M  V30 19599 H 1897.38 -3.40611 2.29116 0
M  V30 19600 H 1896.04 -2.883 1.24668 0
M  V30 19601 H 1895.24 -3.61426 3.51265 0
M  V30 19602 H 1894.84 -1.90569 3.21806 0
M  V30 19603 H 1897.13 -4.45537 5.10395 0
M  V30 19604 H 1898.07 -3.40509 6.20854 0
M  V30 19605 H 1898.48 -3.45057 4.46761 0
M  V30 19606 N 1897.88 -1.50992 -0.451564 0
M  V30 19607 C 1898.83 -1.71277 -1.54703 0
M  V30 19608 C 1899.8 -0.554233 -1.56581 0
M  V30 19609 O 1900.98 -0.787053 -1.73811 0
M  V30 19610 C 1898.12 -1.83078 -2.92535 0
M  V30 19611 C 1897.24 -3.10559 -3.00295 0
M  V30 19612 C 1896.37 -3.13039 -4.29162 0
M  V30 19613 C 1895.41 -4.34893 -4.30737 0
M  V30 19614 N 1894.55 -4.35002 -5.51106 0
M  V30 19615 H 1899.39 -2.64791 -1.3671 0
M  V30 19616 H 1896.92 -1.31243 -0.664356 0
M  V30 19617 H 1898.88 -1.87901 -3.7249 0
M  V30 19618 H 1897.51 -0.929851 -3.09117 0
M  V30 19619 H 1896.56 -3.15113 -2.13091 0
M  V30 19620 H 1897.88 -4.00503 -2.9732 0
M  V30 19621 H 1897.03 -3.167 -5.17481 0
M  V30 19622 H 1895.77 -2.20959 -4.34774 0
M  V30 19623 H 1894.77 -4.31423 -3.40814 0
M  V30 19624 H 1896 -5.28221 -4.26801 0
M  V30 19625 H 1893.94 -3.45785 -5.57466 0
M  V30 19626 H 1893.86 -5.18738 -5.49952 0
M  V30 19627 H 1895.13 -4.42836 -6.41496 0
M  V30 19628 N 1899.36 0.706069 -1.40899 0
M  V30 19629 C 1900.6 1.46821 -1.39898 0
M  V30 19630 C 1900.94 1.942 -0.00437855 0
M  V30 19631 O 1900.21 1.68815 0.966002 0
M  V30 19632 C 1900.5 2.68756 -2.39671 0
M  V30 19633 C 1900.35 2.27211 -3.88195 0
M  V30 19634 C 1901.67 3.70935 -2.36845 0
M  V30 19635 H 1898.79 0.532549 -0.509471 0
M  V30 19636 H 1901.43 0.805057 -1.72101 0
M  V30 19637 H 1899.58 3.25337 -2.1234 0
M  V30 19638 H 1901.25 1.76038 -4.2639 0
M  V30 19639 H 1899.49 1.59108 -4.03568 0
M  V30 19640 H 1900.16 3.14656 -4.53537 0
M  V30 19641 H 1902.64 3.24004 -2.61076 0
M  V30 19642 H 1901.52 4.53876 -3.08687 0
M  V30 19643 H 1901.78 4.19899 -1.38337 0
M  V30 19644 N 1900.84 1.26553 0.939264 0
M  V30 19645 C 1901.75 1.10059 2.07181 0
M  V30 19646 C 1902.76 0.033599 1.73968 0
M  V30 19647 O 1903.94 0.237723 1.99992 0
M  V30 19648 C 1901 0.737342 3.38769 0
M  V30 19649 C 1900.06 1.88395 3.85753 0
M  V30 19650 C 1899.3 1.53794 5.11061 0
M  V30 19651 O 1899.52 0.440543 5.68696 0
M  V30 19652 O 1898.45 2.37332 5.53134 0
M  V30 19653 H 1902.28 2.05075 2.24004 0
M  V30 19654 H 1899.87 1.05633 1.05651 0
M  V30 19655 H 1901.75 0.547578 4.17827 0
M  V30 19656 H 1900.42 -0.183404 3.2318 0
M  V30 19657 H 1899.33 2.1287 3.07632 0
M  V30 19658 H 1900.66 2.78449 4.05865 0
M  V30 19659 N 1902.31 -1.14411 1.08387 0
M  V30 19660 C 1903.26 -2.21558 0.708165 0
M  V30 19661 C 1904.26 -1.66969 -0.285982 0
M  V30 19662 O 1905.46 -1.79386 -0.14857 0
M  V30 19663 H 1901.84 -0.721799 0.210974 0
M  V30 19664 H 1903.81 -2.50518 1.62122 0
M  V30 19665 C 1902.56 -3.47444 0.13337 0
M  V30 19666 H 1901.88 -3.89779 0.889513 0
M  V30 19667 H 1903.32 -4.23901 -0.0917154 0
M  V30 19668 C 1901.78 -3.1743 -1.1287 0
M  V30 19669 O 1902.31 -3.35205 -2.2136 0
M  V30 19670 N 1900.52 -2.71391 -1.03901 0
M  V30 19671 H 1900.06 -2.57127 -0.156094 0
M  V30 19672 H 1900.02 -2.51684 -1.88422 0
M  V30 19673 N 1903.79 -0.869509 -1.31443 0
M  V30 19674 C 1905.02 -0.493849 -2.01435 0
M  V30 19675 C 1905.44 0.906049 -1.6484 0
M  V30 19676 O 1904.8 1.59777 -0.856794 0
M  V30 19677 C 1904.85 -0.657723 -3.54551 0
M  V30 19678 O 1903.95 0.303155 -4.11284 0
M  V30 19679 H 1903.29 -0.196494 -0.63426 0
M  V30 19680 H 1905.82 -1.1728 -1.6765 0
M  V30 19681 H 1905.83 -0.550841 -4.04264 0
M  V30 19682 H 1904.51 -1.67848 -3.80526 0
M  V30 19683 H 1903.09 0.151268 -3.72593 0
M  V30 19684 N 1905.27 1.44508 -0.628902 0
M  V30 19685 C 1906.18 2.34468 0.0786233 0
M  V30 19686 C 1907.2 1.52489 0.838046 0
M  V30 19687 O 1908.37 1.85224 0.790813 0
M  V30 19688 C 1905.44 3.30435 1.04945 0
M  V30 19689 C 1904.5 4.28322 0.289643 0
M  V30 19690 C 1903.73 5.19704 1.21422 0
M  V30 19691 O 1903.95 5.14967 2.45286 0
M  V30 19692 O 1902.89 5.97819 0.699748 0
M  V30 19693 H 1906.71 2.96414 -0.661222 0
M  V30 19694 H 1904.3 1.44244 -0.3891 0
M  V30 19695 H 1906.18 3.89513 1.60804 0
M  V30 19696 H 1904.86 2.71025 1.76994 0
M  V30 19697 H 1903.76 3.72797 -0.311936 0
M  V30 19698 H 1905.1 4.90646 -0.390789 0
M  V30 19699 N 1906.75 0.369315 1.53212 0
M  V30 19700 C 1907.7 -0.490481 2.2737 0
M  V30 19701 C 1908.69 -1.08021 1.30491 0
M  V30 19702 O 1909.9 -1.02298 1.48105 0
M  V30 19703 H 1906.27 -0.176899 0.730897 0
M  V30 19704 H 1908.24 0.156696 2.97988 0
M  V30 19705 C 1906.99 -1.61628 3.0785 0
M  V30 19706 H 1906.32 -1.1718 3.82242 0
M  V30 19707 H 1907.76 -2.19252 3.62911 0
M  V30 19708 C 1906.21 -2.56077 2.18921 0
M  V30 19709 O 1906.74 -3.58988 1.80251 0
M  V30 19710 N 1904.95 -2.25352 1.83479 0
M  V30 19711 H 1904.5 -1.41701 2.15124 0
M  V30 19712 H 1904.46 -2.888 1.24264 0
M  V30 19713 N 1908.23 -1.57291 0.0985816 0
M  V30 19714 C 1909.48 -1.94094 -0.563189 0
M  V30 19715 C 1909.8 -0.981394 -1.68504 0
M  V30 19716 O 1909.07 -0.0340632 -1.9587 0
M  V30 19717 H 1907.65 -0.716571 -0.211033 0
M  V30 19718 H 1910.31 -1.94219 0.162732 0
M  V30 19719 H 1909.4 -2.96607 -0.971113 0
M  V30 19720 N 1909.71 0.175127 -1.56624 0
M  V30 19721 C 1910.93 0.912099 -1.86267 0
M  V30 19722 C 1911.36 1.75204 -0.684485 0
M  V30 19723 O 1910.71 1.77557 0.366501 0
M  V30 19724 C 1910.76 1.76776 -3.14297 0
M  V30 19725 O 1909.87 2.86894 -2.96253 0
M  V30 19726 H 1909.21 0.255728 -0.61278 0
M  V30 19727 H 1911.74 0.174416 -2.03855 0
M  V30 19728 H 1911.75 2.16845 -3.45604 0
M  V30 19729 H 1910.42 1.15077 -3.99663 0
M  V30 19730 H 1909 2.50435 -2.76291 0
M  V30 19731 N 1911.18 1.5123 0.44355 0
M  V30 19732 C 1912.13 1.72095 1.53792 0
M  V30 19733 C 1913.1 0.562529 1.56284 0
M  V30 19734 O 1914.29 0.796259 1.73391 0
M  V30 19735 C 1911.43 1.84627 2.9156 0
M  V30 19736 C 1910.54 3.12147 2.98644 0
M  V30 19737 C 1909.67 3.1531 4.27496 0
M  V30 19738 C 1908.71 4.37171 4.28425 0
M  V30 19739 N 1907.85 4.37919 5.48791 0
M  V30 19740 H 1912.69 2.65512 1.35304 0
M  V30 19741 H 1910.23 1.31593 0.657387 0
M  V30 19742 H 1912.18 1.89874 3.71488 0
M  V30 19743 H 1910.81 0.946232 3.0862 0
M  V30 19744 H 1909.87 3.16239 2.11417 0
M  V30 19745 H 1911.18 4.02074 2.95192 0
M  V30 19746 H 1910.33 3.19439 5.15794 0
M  V30 19747 H 1909.07 2.23261 4.33596 0
M  V30 19748 H 1908.08 4.33225 3.38521 0
M  V30 19749 H 1909.3 5.30477 4.23994 0
M  V30 19750 H 1907.25 3.48737 5.55624 0
M  V30 19751 H 1907.16 5.21647 5.47193 0
M  V30 19752 H 1908.43 4.46232 6.39138 0
M  V30 19753 N 1912.66 -0.698586 1.41271 0
M  V30 19754 C 1913.59 -1.82505 1.4565 0
M  V30 19755 C 1914.57 -1.67149 0.315497 0
M  V30 19756 O 1915.76 -1.86926 0.526518 0
M  V30 19757 C 1912.89 -3.20616 1.33502 0
M  V30 19758 C 1911.84 -3.50672 2.45383 0
M  V30 19759 C 1911.17 -4.88107 2.18302 0
M  V30 19760 C 1912.47 -3.49952 3.87725 0
M  V30 19761 H 1914.16 -1.79098 2.39926 0
M  V30 19762 H 1911.71 -0.860237 1.15481 0
M  V30 19763 H 1913.66 -3.9913 1.35179 0
M  V30 19764 H 1912.38 -3.24642 0.357101 0
M  V30 19765 H 1911.04 -2.74507 2.42984 0
M  V30 19766 H 1910.69 -4.88755 1.1886 0
M  V30 19767 H 1910.39 -5.09182 2.9327 0
M  V30 19768 H 1911.92 -5.68934 2.21689 0
M  V30 19769 H 1913.33 -4.18476 3.91855 0
M  V30 19770 H 1911.73 -3.82559 4.62351 0
M  V30 19771 H 1912.8 -2.48988 4.16093 0
M  V30 19772 N 1914.14 -1.27049 -0.93254 0
M  V30 19773 C 1915.37 -1.15903 -1.71389 0
M  V30 19774 C 1915.78 0.284726 -1.86641 0
M  V30 19775 O 1915.14 1.19428 -1.37997 0
M  V30 19776 C 1915.19 -1.83254 -3.11609 0
M  V30 19777 O 1914.91 -3.21988 -2.97078 0
M  V30 19778 C 1916.41 -1.78172 -4.05918 0
M  V30 19779 H 1913.63 -0.403197 -0.536352 0
M  V30 19780 H 1916.18 -1.67831 -1.16846 0
M  V30 19781 H 1914.33 -1.35243 -3.63026 0
M  V30 19782 H 1914.75 -3.55447 -3.85691 0
M  V30 19783 H 1916.22 -2.29919 -5.01838 0
M  V30 19784 H 1916.7 -0.750036 -4.32748 0
M  V30 19785 H 1917.3 -2.25774 -3.60425 0
M  V30 19786 N 1915.62 1.13835 -1.08993 0
M  V30 19787 C 1916.87 1.84361 -0.818161 0
M  V30 19788 C 1917.18 1.84185 0.658437 0
M  V30 19789 O 1918.39 2.50559 1.04558 0
M  V30 19790 C 1916.84 3.30973 -1.41367 0
M  V30 19791 C 1916.45 3.3955 -2.92249 0
M  V30 19792 C 1918.19 4.06571 -1.22066 0
M  V30 19793 C 1916.1 4.80408 -3.44908 0
M  V30 19794 H 1915.03 0.690704 -0.302397 0
M  V30 19795 H 1917.68 1.28283 -1.31208 0
M  V30 19796 H 1916.06 3.86826 -0.84745 0
M  V30 19797 H 1917.24 2.93716 -3.5506 0
M  V30 19798 H 1915.55 2.77413 -3.10533 0
M  V30 19799 H 1918.15 5.10554 -1.58868 0
M  V30 19800 H 1918.49 4.15989 -0.160946 0
M  V30 19801 H 1919.03 3.57036 -1.75415 0
M  V30 19802 H 1915.76 4.76181 -4.5048 0
M  V30 19803 H 1915.28 5.26756 -2.86859 0
M  V30 19804 H 1916.96 5.49315 -3.4185 0
M  V30 19805 N 1917.1 0.876467 1.3098 0
M  V30 19806 C 1918.03 0.352925 2.30817 0
M  V30 19807 C 1919.01 -0.559675 1.60629 0
M  V30 19808 O 1920.19 -0.475326 1.88293 0
M  V30 19809 C 1917.32 -0.440827 3.44491 0
M  V30 19810 C 1916.28 0.379253 4.26316 0
M  V30 19811 C 1915.6 -0.540582 5.3196 0
M  V30 19812 C 1916.9 1.61682 4.96645 0
M  V30 19813 H 1918.6 1.18719 2.74857 0
M  V30 19814 H 1916.14 0.572316 1.32138 0
M  V30 19815 H 1918.09 -0.817661 4.13391 0
M  V30 19816 H 1916.82 -1.30866 2.99235 0
M  V30 19817 H 1915.48 0.738117 3.59092 0
M  V30 19818 H 1915.13 -1.40588 4.82953 0
M  V30 19819 H 1914.83 0.00427133 5.876 0
M  V30 19820 H 1916.35 -0.914118 6.03719 0
M  V30 19821 H 1917.76 1.31105 5.58108 0
M  V30 19822 H 1916.16 2.10123 5.62111 0
M  V30 19823 H 1917.23 2.36602 4.23258 0
M  V30 19824 N 1918.57 -1.44173 0.636557 0
M  V30 19825 C 1919.54 -2.29133 -0.0554994 0
M  V30 19826 C 1920.54 -1.41329 -0.766986 0
M  V30 19827 O 1921.73 -1.63142 -0.610753 0
M  V30 19828 C 1918.86 -3.23031 -1.08922 0
M  V30 19829 H 1920.05 -2.91811 0.691829 0
M  V30 19830 H 1917.6 -1.51175 0.396956 0
M  V30 19831 H 1918.34 -2.65213 -1.86635 0
M  V30 19832 H 1918.12 -3.87743 -0.58291 0
M  V30 19833 H 1919.61 -3.8684 -1.57304 0
M  V30 19834 N 1920.05 -0.377435 -1.53014 0
M  V30 19835 C 1921.01 0.451217 -2.24715 0
M  V30 19836 C 1922.01 1.00001 -1.25923 0
M  V30 19837 O 1923.2 0.883884 -1.5011 0
M  V30 19838 C 1920.34 1.63185 -2.99305 0
M  V30 19839 H 1921.53 -0.176358 -2.99381 0
M  V30 19840 H 1919.08 -0.12933 -1.55764 0
M  V30 19841 H 1919.82 2.29718 -2.2891 0
M  V30 19842 H 1919.6 1.24517 -3.71804 0
M  V30 19843 H 1921.09 2.2188 -3.53778 0
M  V30 19844 N 1921.53 1.57237 -0.106922 0
M  V30 19845 C 1922.95 1.57634 0.249708 0
M  V30 19846 C 1923.15 1.11888 1.67581 0
M  V30 19847 O 1922.2 0.80073 2.39467 0
M  V30 19848 C 1923.52 3.00688 0.0273757 0
M  V30 19849 C 1925.06 3.12858 0.0942116 0
M  V30 19850 C 1925.54 4.5789 -0.100275 0
M  V30 19851 N 1927.03 4.63177 -0.045837 0
M  V30 19852 C 1927.76 5.73144 -0.171398 0
M  V30 19853 N 1927.26 6.91903 -0.352455 0
M  V30 19854 N 1929.05 5.61989 -0.111827 0
M  V30 19855 H 1921.2 1.85278 -1.03855 0
M  V30 19856 H 1923.47 0.855717 -0.407985 0
M  V30 19857 H 1923.17 3.38399 -0.958063 0
M  V30 19858 H 1923.05 3.6937 0.764546 0
M  V30 19859 H 1925.43 2.75012 1.07016 0
M  V30 19860 H 1925.52 2.46743 -0.674643 0
M  V30 19861 H 1925.16 4.96433 -1.07315 0
M  V30 19862 H 1925.09 5.22081 0.688418 0
M  V30 19863 H 1927.58 3.7779 0.0910806 0
M  V30 19864 H 1927.89 7.7155 -0.439454 0
M  V30 19865 H 1926.24 6.93915 -0.388274 0
M  V30 19866 H 1929.43 4.68091 0.0285732 0
M  V30 19867 H 1929.6 6.47649 -0.213127 0
M  V30 19868 N 1923.01 -0.166818 1.56715 0
M  V30 19869 C 1923.94 -1.23113 1.93328 0
M  V30 19870 C 1924.95 -1.40238 0.826866 0
M  V30 19871 O 1926.14 -1.40161 1.10531 0
M  V30 19872 C 1923.24 -2.59914 2.17481 0
M  V30 19873 C 1922.42 -2.64028 3.48723 0
M  V30 19874 C 1921.47 -3.82224 3.61651 0
M  V30 19875 O 1920.5 -3.68014 4.34229 0
M  V30 19876 N 1921.7 -4.98868 2.96835 0
M  V30 19877 H 1924.47 -0.920103 2.85227 0
M  V30 19878 H 1922.03 -0.356548 1.57925 0
M  V30 19879 H 1924.02 -3.37459 2.2339 0
M  V30 19880 H 1922.59 -2.83389 1.31945 0
M  V30 19881 H 1921.81 -1.72544 3.54432 0
M  V30 19882 H 1923.1 -2.63792 4.35076 0
M  V30 19883 H 1922.5 -5.13314 2.3775 0
M  V30 19884 H 1921.05 -5.74259 3.08333 0
M  V30 19885 N 1924.49 -1.51463 -0.435524 0
M  V30 19886 C 1925.4 -1.75755 -1.55394 0
M  V30 19887 C 1926.41 -0.641853 -1.61729 0
M  V30 19888 O 1927.59 -0.924311 -1.78937 0
M  V30 19889 C 1924.65 -1.87908 -2.91361 0
M  V30 19890 C 1923.71 -3.11766 -2.95128 0
M  V30 19891 C 1922.95 -3.2333 -4.2461 0
M  V30 19892 O 1923.17 -2.40789 -5.17085 0
M  V30 19893 O 1922.1 -4.16319 -4.34698 0
M  V30 19894 H 1925.93 -2.70633 -1.3781 0
M  V30 19895 H 1923.52 -1.35986 -0.618717 0
M  V30 19896 H 1925.4 -1.97877 -3.72052 0
M  V30 19897 H 1924.07 -0.962179 -3.09069 0
M  V30 19898 H 1922.98 -3.07274 -2.13386 0
M  V30 19899 H 1924.31 -4.03151 -2.82365 0
M  V30 19900 N 1925.96 0.691085 -1.4164 0
M  V30 19901 C 1926.91 1.79718 -1.40305 0
M  V30 19902 C 1927.9 1.58502 -0.276751 0
M  V30 19903 O 1929.09 1.69258 -0.517761 0
M  V30 19904 C 1926.22 3.18059 -1.29203 0
M  V30 19905 C 1925.31 3.44954 -2.46714 0
M  V30 19906 N 1925.7 3.42522 -3.72172 0
M  V30 19907 C 1923.99 3.75521 -2.40624 0
M  V30 19908 C 1924.7 3.68447 -4.50135 0
M  V30 19909 N 1923.67 3.88412 -3.80312 0
M  V30 19910 H 1927.47 1.76207 -2.3522 0
M  V30 19911 H 1924.99 0.891261 -1.35758 0
M  V30 19912 H 1926.98 3.97299 -1.26329 0
M  V30 19913 H 1925.64 3.22778 -0.352775 0
M  V30 19914 H 1926.66 3.22799 -4.04996 0
M  V30 19915 H 1923.33 3.87584 -1.55193 0
M  V30 19916 H 1924.72 3.72665 -5.5908 0
M  V30 19917 N 1927.44 1.27542 0.925789 0
M  V30 19918 C 1928.68 1.1523 1.68823 0
M  V30 19919 C 1929.05 -0.296566 1.89696 0
M  V30 19920 O 1930.25 -0.542141 2.63276 0
M  V30 19921 C 1928.52 1.91634 3.0168 0
M  V30 19922 S 1930.08 1.95558 3.92814 0
M  V30 19923 H 1926.9 0.41133 0.579938 0
M  V30 19924 H 1929.5 1.61477 1.10207 0
M  V30 19925 H 1928.2 2.9609 2.84181 0
M  V30 19926 H 1927.73 1.4589 3.65349 0
M  V30 19927 H 1929.75 1.05338 4.8489 0
M  V30 19928 N 1928.92 -1.13255 1.09595 0
M  V30 19929 C 1930.17 -1.84206 0.831411 0
M  V30 19930 C 1930.49 -1.8403 -0.64483 0
M  V30 19931 O 1929.76 -1.29728 -1.46791 0
M  V30 19932 H 1928.34 -0.682085 0.304579 0
M  V30 19933 H 1931 -1.37183 1.38444 0
M  V30 19934 H 1930.1 -2.88667 1.18649 0
M  V30 19935 N 1930.4 -0.883401 -1.30514 0
M  V30 19936 C 1931.64 -0.507734 -1.97993 0
M  V30 19937 C 1932 0.925497 -1.68222 0
M  V30 19938 O 1933.2 1.40721 -2.29022 0
M  V30 19939 C 1931.47 -0.773081 -3.48939 0
M  V30 19940 S 1933.03 -0.499281 -4.3595 0
M  V30 19941 H 1929.85 -0.188981 -0.685425 0
M  V30 19942 H 1932.45 -1.14233 -1.58654 0
M  V30 19943 H 1931.16 -1.81472 -3.68098 0
M  V30 19944 H 1930.69 -0.125985 -3.93198 0
M  V30 19945 H 1932.7 0.662772 -4.91754 0
M  V30 19946 N 1931.88 1.43833 -0.644194 0
M  V30 19947 C 1933.11 2.0597 -0.161163 0
M  V30 19948 C 1933.51 1.48309 1.17478 0
M  V30 19949 O 1932.86 0.60548 1.73435 0
M  V30 19950 C 1932.92 3.59497 0.014069 0
M  V30 19951 C 1932.58 4.39693 -1.24575 0
M  V30 19952 C 1933.58 4.72336 -2.17244 0
M  V30 19953 C 1931.27 4.79853 -1.48481 0
M  V30 19954 C 1933.26 5.44036 -3.3212 0
M  V30 19955 C 1930.95 5.51299 -2.63652 0
M  V30 19956 C 1931.94 5.83312 -3.55297 0
M  V30 19957 O 1931.63 6.53301 -4.68458 0
M  V30 19958 H 1931.36 0.670886 -0.0829965 0
M  V30 19959 H 1933.92 1.85477 -0.882467 0
M  V30 19960 H 1932.15 3.78531 0.790652 0
M  V30 19961 H 1933.84 4.03361 0.453309 0
M  V30 19962 H 1934.6 4.41836 -2.00014 0
M  V30 19963 H 1930.48 4.54348 -0.780324 0
M  V30 19964 H 1934.03 5.6894 -4.03674 0
M  V30 19965 H 1929.92 5.81214 -2.80821 0
M  V30 19966 H 1930.69 6.71778 -4.67607 0
M  V30 19967 N 1933.35 0.385544 1.52811 0
M  V30 19968 C 1934.58 -0.198025 2.0595 0
M  V30 19969 C 1935 -1.40822 1.25756 0
M  V30 19970 O 1934.35 -1.79963 0.303251 0
M  V30 19971 C 1934.41 -0.571856 3.56948 0
M  V30 19972 O 1934.13 0.59026 4.34105 0
M  V30 19973 C 1935.63 -1.21169 4.26419 0
M  V30 19974 H 1932.85 -0.0307594 0.670295 0
M  V30 19975 H 1935.39 0.549688 1.96974 0
M  V30 19976 H 1933.55 -1.26947 3.6601 0
M  V30 19977 H 1933.96 0.28384 5.23731 0
M  V30 19978 H 1935.43 -1.42366 5.33325 0
M  V30 19979 H 1935.91 -2.17794 3.81395 0
M  V30 19980 H 1936.52 -0.554949 4.21664 0
M  V30 19981 N 1934.83 -1.57178 0.115259 0
M  V30 19982 C 1935.76 -2.18134 -0.833042 0
M  V30 19983 C 1936.74 -1.12033 -1.27995 0
M  V30 19984 O 1937.93 -1.40254 -1.34323 0
M  V30 19985 C 1935.06 -2.77778 -2.08463 0
M  V30 19986 C 1934.01 -3.89429 -1.77565 0
M  V30 19987 C 1933.34 -4.35863 -3.09722 0
M  V30 19988 C 1934.64 -5.11701 -1.04687 0
M  V30 19989 H 1936.33 -2.9763 -0.325107 0
M  V30 19990 H 1933.88 -1.43164 -0.154933 0
M  V30 19991 H 1935.83 -3.19079 -2.75258 0
M  V30 19992 H 1934.56 -1.95566 -2.61575 0
M  V30 19993 H 1933.21 -3.48698 -1.13161 0
M  V30 19994 H 1932.86 -3.50515 -3.6076 0
M  V30 19995 H 1932.56 -5.11152 -2.89823 0
M  V30 19996 H 1934.09 -4.79812 -3.77641 0
M  V30 19997 H 1935.5 -5.50045 -1.61628 0
M  V30 19998 H 1933.9 -5.92549 -0.948964 0
M  V30 19999 H 1934.97 -4.84889 -0.032977 0
M  V30 20000 N 1936.31 0.158505 -1.56801 0
M  V30 20001 C 1937.24 1.19799 -2.00426 0
M  V30 20002 C 1938.22 1.45453 -0.881905 0
M  V30 20003 O 1939.41 1.56569 -1.1489 0
M  V30 20004 C 1936.54 2.53392 -2.37508 0
M  V30 20005 C 1935.49 2.42283 -3.52822 0
M  V30 20006 C 1934.82 3.80482 -3.75683 0
M  V30 20007 C 1936.12 1.91666 -4.85862 0
M  V30 20008 H 1937.81 0.835303 -2.87512 0
M  V30 20009 H 1935.36 0.400366 -1.38322 0
M  V30 20010 H 1937.31 3.26326 -2.66625 0
M  V30 20011 H 1936.03 2.91474 -1.47345 0
M  V30 20012 H 1934.69 1.71801 -3.23852 0
M  V30 20013 H 1934.34 4.15979 -2.8279 0
M  V30 20014 H 1934.04 3.73913 -4.5328 0
M  V30 20015 H 1935.57 4.54982 -4.07214 0
M  V30 20016 H 1936.98 2.54384 -5.13772 0
M  V30 20017 H 1935.38 1.96016 -5.67184 0
M  V30 20018 H 1936.45 0.871666 -4.77001 0
M  V30 20019 N 1937.79 1.51692 0.427485 0
M  V30 20020 C 1939.04 1.65091 1.17782 0
M  V30 20021 C 1939.37 0.370783 1.90627 0
M  V30 20022 O 1938.64 -0.630065 1.84012 0
M  V30 20023 C 1938.93 2.86083 2.18697 0
M  V30 20024 C 1938.78 4.24098 1.4987 0
M  V30 20025 C 1940.1 3.0259 3.19573 0
M  V30 20026 H 1937.22 0.600817 0.426835 0
M  V30 20027 H 1939.86 1.84202 0.46581 0
M  V30 20028 H 1938.01 2.6992 2.79419 0
M  V30 20029 H 1939.68 4.51949 0.924093 0
M  V30 20030 H 1937.92 4.26343 0.800894 0
M  V30 20031 H 1938.6 5.04768 2.23413 0
M  V30 20032 H 1941.07 3.17529 2.68914 0
M  V30 20033 H 1939.95 3.88794 3.87467 0
M  V30 20034 H 1940.21 2.15093 3.86248 0
M  V30 20035 N 1939.27 -0.683564 1.42004 0
M  V30 20036 C 1940.18 -1.82689 1.4718 0
M  V30 20037 C 1941.19 -1.70208 0.361298 0
M  V30 20038 O 1942.37 -1.91912 0.610867 0
M  V30 20039 C 1939.43 -3.18767 1.3634 0
M  V30 20040 C 1938.5 -3.43269 2.57808 0
M  V30 20041 C 1937.73 -4.72855 2.47476 0
M  V30 20042 O 1937.95 -5.50164 1.50584 0
M  V30 20043 O 1936.89 -4.98407 3.37452 0
M  V30 20044 H 1940.71 -1.81279 2.43663 0
M  V30 20045 H 1938.3 -0.838182 1.23672 0
M  V30 20046 H 1940.18 -3.99986 1.32624 0
M  V30 20047 H 1938.85 -3.20834 0.429781 0
M  V30 20048 H 1937.76 -2.61933 2.67099 0
M  V30 20049 H 1939.09 -3.46025 3.50039 0
M  V30 20050 N 1940.75 -1.28031 -0.919012 0
M  V30 20051 C 1941.69 -1.11355 -2.04213 0
M  V30 20052 C 1942.69 -0.0342517 -1.69365 0
M  V30 20053 O 1943.89 -0.192628 -1.78966 0
M  V30 20054 H 1940.27 -0.343397 -0.669016 0
M  V30 20055 H 1942.24 -2.06485 -2.15421 0
M  V30 20056 C 1940.99 -0.786653 -3.38684 0
M  V30 20057 H 1940.31 -1.6091 -3.65989 0
M  V30 20058 H 1941.75 -0.709897 -4.18015 0
M  V30 20059 C 1940.21 0.509383 -3.33027 0
M  V30 20060 O 1940.74 1.54125 -3.70956 0
M  V30 20061 N 1938.95 0.508188 -2.86122 0
M  V30 20062 H 1938.49 -0.331947 -2.55452 0
M  V30 20063 H 1938.45 1.37539 -2.82719 0
M  V30 20064 N 1942.22 1.12672 -1.10194 0
M  V30 20065 C 1943.17 2.18326 -0.748496 0
M  V30 20066 C 1944.14 1.63824 0.274007 0
M  V30 20067 O 1945.33 1.90179 0.153852 0
M  V30 20068 C 1942.47 3.4461 -0.183772 0
M  V30 20069 C 1941.58 4.13178 -1.26127 0
M  V30 20070 C 1940.71 5.27103 -0.658462 0
M  V30 20071 C 1939.75 5.87533 -1.71672 0
M  V30 20072 N 1938.89 6.92876 -1.13435 0
M  V30 20073 H 1943.73 2.47906 -1.65369 0
M  V30 20074 H 1941.27 1.21715 -0.826064 0
M  V30 20075 H 1943.22 4.16887 0.161511 0
M  V30 20076 H 1941.85 3.15456 0.684657 0
M  V30 20077 H 1940.91 3.39105 -1.72372 0
M  V30 20078 H 1942.22 4.54163 -2.06246 0
M  V30 20079 H 1941.37 6.06132 -0.26248 0
M  V30 20080 H 1940.11 4.87389 0.174183 0
M  V30 20081 H 1939.12 5.07193 -2.12215 0
M  V30 20082 H 1940.34 6.29318 -2.55217 0
M  V30 20083 H 1938.29 6.55204 -0.323127 0
M  V30 20084 H 1938.2 7.32446 -1.8724 0
M  V30 20085 H 1939.47 7.75739 -0.764838 0
M  V30 20086 N 1943.7 0.89031 1.30043 0
M  V30 20087 C 1944.63 0.377386 2.3043 0
M  V30 20088 C 1945.61 -0.542607 1.61213 0
M  V30 20089 O 1946.8 -0.455328 1.88787 0
M  V30 20090 C 1943.93 -0.404264 3.44939 0
M  V30 20091 C 1942.88 0.424448 4.2589 0
M  V30 20092 C 1942.21 -0.48413 5.32504 0
M  V30 20093 C 1943.51 1.6694 4.94902 0
M  V30 20094 H 1945.2 1.21628 2.73582 0
M  V30 20095 H 1942.75 0.586299 1.31524 0
M  V30 20096 H 1944.7 -0.773769 4.14235 0
M  V30 20097 H 1943.42 -1.27685 3.00606 0
M  V30 20098 H 1942.08 0.776162 3.58289 0
M  V30 20099 H 1941.73 -1.35458 4.84417 0
M  V30 20100 H 1941.43 0.0665939 5.87562 0
M  V30 20101 H 1942.96 -0.850034 6.04654 0
M  V30 20102 H 1944.37 1.37017 5.56686 0
M  V30 20103 H 1942.77 2.16073 5.59851 0
M  V30 20104 H 1943.84 2.41077 4.20725 0
M  V30 20105 N 1945.18 -1.43489 0.651812 0
M  V30 20106 C 1946.43 -2.01431 0.164307 0
M  V30 20107 C 1946.75 -1.51674 -1.22556 0
M  V30 20108 O 1946.02 -0.728791 -1.81839 0
M  V30 20109 H 1944.6 -0.744764 0.0577525 0
M  V30 20110 H 1947.26 -1.75718 0.843164 0
M  V30 20111 H 1946.36 -3.1175 0.147848 0
M  V30 20112 N 1946.66 -0.393643 -1.52605 0
M  V30 20113 C 1947.88 0.189618 -2.06531 0
M  V30 20114 C 1948.31 1.39382 -1.26311 0
M  V30 20115 O 1947.67 1.78977 -0.289278 0
M  V30 20116 C 1947.71 0.533717 -3.56628 0
M  V30 20117 O 1946.82 1.62703 -3.78948 0
M  V30 20118 H 1946.16 0.0209483 -0.663669 0
M  V30 20119 H 1948.69 -0.562368 -1.9672 0
M  V30 20120 H 1948.7 0.796786 -4.00144 0
M  V30 20121 H 1947.37 -0.34665 -4.14453 0
M  V30 20122 H 1945.95 1.35734 -3.47319 0
M  V30 20123 N 1948.14 1.57115 -0.123593 0
M  V30 20124 C 1949.55 1.5789 0.232975 0
M  V30 20125 C 1949.75 1.13659 1.66385 0
M  V30 20126 O 1948.81 0.826084 2.38604 0
M  V30 20127 C 1950.12 3.007 -0.0045178 0
M  V30 20128 C 1951.67 3.12941 0.0610235 0
M  V30 20129 C 1952.14 4.57758 -0.148835 0
M  V30 20130 N 1953.63 4.63103 -0.0949606 0
M  V30 20131 C 1954.37 5.7293 -0.232177 0
M  V30 20132 N 1953.87 6.9149 -0.42582 0
M  V30 20133 N 1955.66 5.61839 -0.171428 0
M  V30 20134 H 1947.81 1.84166 -1.05814 0
M  V30 20135 H 1950.07 0.851342 -0.417038 0
M  V30 20136 H 1949.78 3.37364 -0.993901 0
M  V30 20137 H 1949.65 3.70161 0.725327 0
M  V30 20138 H 1952.04 2.76131 1.04094 0
M  V30 20139 H 1952.12 2.46014 -0.700776 0
M  V30 20140 H 1951.76 4.95267 -1.12574 0
M  V30 20141 H 1951.69 5.22782 0.633006 0
M  V30 20142 H 1954.19 3.77866 0.0510058 0
M  V30 20143 H 1954.5 7.7104 -0.521263 0
M  V30 20144 H 1952.84 6.93464 -0.461851 0
M  V30 20145 H 1956.03 4.68095 -0.0210758 0
M  V30 20146 H 1956.21 6.47387 -0.281807 0
M  V30 20147 N 1949.61 -0.150187 1.56883 0
M  V30 20148 C 1950.55 -1.21056 1.94623 0
M  V30 20149 C 1951.56 -1.39353 0.841694 0
M  V30 20150 O 1952.75 -1.38981 1.12011 0
M  V30 20151 C 1949.85 -2.57592 2.20226 0
M  V30 20152 C 1949.02 -2.60315 3.51504 0
M  V30 20153 C 1948.08 -3.78367 3.65684 0
M  V30 20154 O 1947.11 -3.63388 4.38107 0
M  V30 20155 N 1948.31 -4.95691 3.0211 0
M  V30 20156 H 1951.07 -0.8898 2.86186 0
M  V30 20157 H 1948.63 -0.339778 1.58294 0
M  V30 20158 H 1950.63 -3.35071 2.26957 0
M  V30 20159 H 1949.2 -2.81973 1.34943 0
M  V30 20160 H 1948.42 -1.68776 3.56242 0
M  V30 20161 H 1949.7 -2.59163 4.3785 0
M  V30 20162 H 1949.1 -5.10764 2.43181 0
M  V30 20163 H 1947.66 -5.70957 3.14407 0
M  V30 20164 N 1951.09 -1.51916 -0.419434 0
M  V30 20165 C 1952.06 -1.73908 -1.49293 0
M  V30 20166 C 1953.06 -0.60898 -1.48822 0
M  V30 20167 O 1954.25 -0.876745 -1.50528 0
M  V30 20168 C 1951.38 -1.812 -2.88755 0
M  V30 20169 H 1952.57 -2.69732 -1.3109 0
M  V30 20170 H 1950.12 -1.42176 -0.649274 0
M  V30 20171 H 1950.86 -0.872544 -3.12341 0
M  V30 20172 H 1950.64 -2.63348 -2.905 0
M  V30 20173 H 1952.13 -1.99992 -3.66596 0
M  V30 20174 N 1952.57 0.676023 -1.42365 0
M  V30 20175 C 1953.5 1.80154 -1.41695 0
M  V30 20176 C 1954.52 1.597 -0.316199 0
M  V30 20177 O 1955.7 1.68841 -0.579207 0
M  V30 20178 C 1952.8 3.17239 -1.19217 0
M  V30 20179 C 1951.98 3.64553 -2.41703 0
M  V30 20180 C 1951.04 4.80367 -2.14788 0
M  V30 20181 O 1950.06 4.90975 -2.87979 0
M  V30 20182 N 1951.26 5.6899 -1.15025 0
M  V30 20183 H 1954.03 1.81214 -2.38708 0
M  V30 20184 H 1951.59 0.859069 -1.37228 0
M  V30 20185 H 1953.58 3.92371 -0.991311 0
M  V30 20186 H 1952.15 3.11086 -0.307313 0
M  V30 20187 H 1951.37 2.80112 -2.77364 0
M  V30 20188 H 1952.66 3.92906 -3.23268 0
M  V30 20189 H 1952.06 5.6307 -0.544872 0
M  V30 20190 H 1950.62 6.43939 -1.00926 0
M  V30 20191 N 1954.05 1.28517 0.912209 0
M  V30 20192 C 1955.29 1.15932 1.66396 0
M  V30 20193 C 1955.63 -0.291123 1.92006 0
M  V30 20194 O 1954.9 -1.21159 1.52154 0
M  V30 20195 C 1955.19 1.95993 3.0209 0
M  V30 20196 C 1955.04 3.49109 2.83625 0
M  V30 20197 C 1956.36 1.77655 4.0265 0
M  V30 20198 H 1953.48 0.42252 0.603859 0
M  V30 20199 H 1956.12 1.5785 1.05752 0
M  V30 20200 H 1954.27 1.60372 3.53855 0
M  V30 20201 H 1955.94 3.94644 2.38859 0
M  V30 20202 H 1954.18 3.74664 2.18653 0
M  V30 20203 H 1954.85 4.00386 3.79993 0
M  V30 20204 H 1957.33 2.08743 3.59952 0
M  V30 20205 H 1956.21 2.36043 4.95555 0
M  V30 20206 H 1956.47 0.728445 4.36057 0
M  V30 20207 N 1955.53 -1.12086 1.1079 0
M  V30 20208 C 1956.47 -2.20006 0.755001 0
M  V30 20209 C 1957.47 -1.67538 -0.250501 0
M  V30 20210 O 1958.67 -1.79661 -0.110486 0
M  V30 20211 H 1955.05 -0.717162 0.226237 0
M  V30 20212 H 1957.02 -2.47022 1.67399 0
M  V30 20213 C 1955.77 -3.47083 0.207038 0
M  V30 20214 H 1955.09 -3.87805 0.971991 0
M  V30 20215 H 1956.53 -4.24 -0.00177915 0
M  V30 20216 C 1954.99 -3.19753 -1.06112 0
M  V30 20217 O 1955.52 -3.39825 -2.142 0
M  V30 20218 N 1953.73 -2.73534 -0.981212 0
M  V30 20219 H 1953.27 -2.574 -0.101519 0
M  V30 20220 H 1953.23 -2.55624 -1.83041 0
M  V30 20221 N 1957 -0.897194 -1.29569 0
M  V30 20222 C 1957.93 -0.389601 -2.30227 0
M  V30 20223 C 1958.92 0.53405 -1.61499 0
M  V30 20224 O 1960.1 0.44531 -1.89025 0
M  V30 20225 C 1957.23 0.385966 -3.45149 0
M  V30 20226 C 1956.18 -0.447028 -4.25659 0
M  V30 20227 C 1955.51 0.455883 -5.32753 0
M  V30 20228 C 1956.81 -1.69562 -4.9401 0
M  V30 20229 H 1958.5 -1.23077 -2.72933 0
M  V30 20230 H 1956.05 -0.593265 -1.31211 0
M  V30 20231 H 1958 0.751791 -4.1464 0
M  V30 20232 H 1956.73 1.26089 -3.01279 0
M  V30 20233 H 1955.39 -0.795152 -3.57873 0
M  V30 20234 H 1955.03 1.32887 -4.85129 0
M  V30 20235 H 1954.73 -0.0977528 -5.87519 0
M  V30 20236 H 1956.26 0.817956 -6.05097 0
M  V30 20237 H 1957.67 -1.39968 -5.55951 0
M  V30 20238 H 1956.07 -2.19039 -5.58697 0
M  V30 20239 H 1957.14 -2.43305 -4.19441 0
M  V30 20240 N 1958.48 1.43142 -0.659413 0
M  V30 20241 C 1959.71 2.06087 -0.183265 0
M  V30 20242 C 1960.13 1.49462 1.15354 0
M  V30 20243 O 1959.48 0.628341 1.71342 0
M  V30 20244 C 1959.53 3.61381 -0.0928701 0
M  V30 20245 O 1959.25 4.15902 -1.37684 0
M  V30 20246 C 1960.76 4.41413 0.408616 0
M  V30 20247 H 1957.98 0.664557 -0.092765 0
M  V30 20248 H 1960.52 1.83542 -0.901809 0
M  V30 20249 H 1958.67 3.8309 0.576268 0
M  V30 20250 H 1959.09 5.09629 -1.24009 0
M  V30 20251 H 1960.56 5.50394 0.420806 0
M  V30 20252 H 1961.04 4.14885 1.44108 0
M  V30 20253 H 1961.65 4.24687 -0.228247 0
M  V30 20254 N 1959.96 0.40173 1.52394 0
M  V30 20255 C 1961.21 -0.17672 2.02029 0
M  V30 20256 C 1961.54 -1.45417 1.28715 0
M  V30 20257 O 1960.81 -1.90524 0.391263 0
M  V30 20258 C 1961.1 -0.43198 3.575 0
M  V30 20259 C 1960.95 0.861628 4.4147 0
M  V30 20260 C 1962.27 -1.2173 4.2293 0
M  V30 20261 H 1959.39 -0.0627536 0.734323 0
M  V30 20262 H 1962.03 0.533742 1.82349 0
M  V30 20263 H 1960.18 -1.03719 3.74399 0
M  V30 20264 H 1961.85 1.49808 4.36297 0
M  V30 20265 H 1960.1 1.47424 4.07981 0
M  V30 20266 H 1960.77 0.637511 5.48306 0
M  V30 20267 H 1963.24 -0.704996 4.10084 0
M  V30 20268 H 1962.12 -1.36465 5.31666 0
M  V30 20269 H 1962.38 -2.23592 3.81391 0
M  V30 20270 N 1961.44 -1.57047 0.131923 0
M  V30 20271 C 1962.68 -1.95921 -0.5237 0
M  V30 20272 C 1963.02 -1.01606 -1.65499 0
M  V30 20273 O 1962.29 -0.0556233 -1.9442 0
M  V30 20274 C 1962.58 -3.44629 -1.04418 0
M  V30 20275 C 1962.43 -4.4972 0.084583 0
M  V30 20276 C 1963.75 -3.9548 -1.93089 0
M  V30 20277 H 1960.87 -0.712382 -0.188894 0
M  V30 20278 H 1963.51 -1.88835 0.2101 0
M  V30 20279 H 1961.66 -3.50799 -1.6695 0
M  V30 20280 H 1963.33 -4.5564 0.720384 0
M  V30 20281 H 1961.57 -4.27339 0.745906 0
M  V30 20282 H 1962.24 -5.51066 -0.321051 0
M  V30 20283 H 1964.72 -3.91695 -1.40408 0
M  V30 20284 H 1963.6 -5.00025 -2.2642 0
M  V30 20285 H 1963.86 -3.36939 -2.86224 0
M  V30 20286 N 1962.92 0.141865 -1.5696 0
M  V30 20287 C 1964.19 0.882597 -1.74555 0
M  V30 20288 C 1964.57 1.9911 -0.701321 0
M  V30 20289 O 1963.92 2.26792 0.278854 0
M  V30 20290 C 1964.13 1.42034 -3.18791 0
M  V30 20291 C 1965.48 1.88172 -3.80626 0
M  V30 20292 O 1966.5 1.51764 -3.22252 0
M  V30 20293 O 1965.36 2.55333 -4.83185 0
M  V30 20294 H 1962.46 0.417461 -0.713902 0
M  V30 20295 H 1965 0.127389 -1.69221 0
M  V30 20296 H 1963.77 0.623945 -3.86293 0
M  V30 20297 H 1963.4 2.2389 -3.28571 0
M  V30 20298 N 1964.39 1.52136 0.411372 0
M  V30 20299 C 1965.34 1.75318 1.50107 0
M  V30 20300 C 1966.31 0.595552 1.55056 0
M  V30 20301 O 1967.5 0.832859 1.71663 0
M  V30 20302 C 1964.64 1.9077 2.87578 0
M  V30 20303 C 1963.75 3.18411 2.91956 0
M  V30 20304 C 1962.88 3.24307 4.20712 0
M  V30 20305 C 1961.92 4.4616 4.19056 0
M  V30 20306 N 1961.06 4.49461 5.39379 0
M  V30 20307 H 1965.9 2.68323 1.29642 0
M  V30 20308 H 1963.44 1.32958 0.629326 0
M  V30 20309 H 1965.4 1.97711 3.67377 0
M  V30 20310 H 1964.03 1.01148 3.06543 0
M  V30 20311 H 1963.08 3.20652 2.04661 0
M  V30 20312 H 1964.39 4.08245 2.86597 0
M  V30 20313 H 1963.54 3.30308 5.08902 0
M  V30 20314 H 1962.28 2.32408 4.28763 0
M  V30 20315 H 1961.29 4.40308 3.29255 0
M  V30 20316 H 1962.51 5.39351 4.12646 0
M  V30 20317 H 1960.46 3.60444 5.48102 0
M  V30 20318 H 1960.38 5.33136 5.36005 0
M  V30 20319 H 1961.64 4.59688 6.29529 0
M  V30 20320 N 1965.87 -0.668464 1.42721 0
M  V30 20321 C 1967.28 -1.24925 1.38747 0
M  V30 20322 C 1967.64 -1.96021 0.0838911 0
M  V30 20323 O 1966.76 -2.00378 -0.817178 0
M  V30 20324 C 1967.36 -2.27201 2.51327 0
M  V30 20325 C 1965.91 -2.80792 2.50665 0
M  V30 20326 C 1965.06 -1.55205 2.29797 0
M  V30 20327 H 1968.01 -0.461443 1.51843 0
M  V30 20328 H 1968.03 -3.09067 2.21941 0
M  V30 20329 H 1967.55 -1.75428 3.46189 0
M  V30 20330 H 1965.65 -3.36669 1.59639 0
M  V30 20331 H 1965.76 -3.29376 3.4792 0
M  V30 20332 H 1964.12 -1.82004 1.78176 0
M  V30 20333 H 1964.91 -1.05389 3.26723 0
M  V30 20334 N 1967.35 -1.28999 -0.905381 0
M  V30 20335 C 1968.63 -1.07329 -1.63523 0
M  V30 20336 C 1969.01 0.384519 -2.07568 0
M  V30 20337 O 1968.36 1.37223 -1.82708 0
M  V30 20338 C 1968.57 -2.05563 -2.82037 0
M  V30 20339 C 1969.91 -2.3617 -3.52858 0
M  V30 20340 O 1970.94 -2.03713 -2.92198 0
M  V30 20341 O 1969.8 -2.91601 -4.62202 0
M  V30 20342 H 1966.89 -0.410796 -0.717757 0
M  V30 20343 H 1969.44 -1.40349 -0.953949 0
M  V30 20344 H 1968.21 -3.03779 -2.46645 0
M  V30 20345 H 1967.83 -1.73238 -3.57875 0
M  V30 20346 N 1968.83 1.11497 -1.11383 0
M  V30 20347 C 1970.24 1.64742 -0.878467 0
M  V30 20348 C 1970.59 1.87138 0.589393 0
M  V30 20349 O 1969.72 1.60515 1.45134 0
M  V30 20350 C 1970.31 2.99271 -1.58815 0
M  V30 20351 C 1968.87 3.49426 -1.39923 0
M  V30 20352 C 1968.02 2.24248 -1.6312 0
M  V30 20353 H 1970.97 0.951453 -1.27016 0
M  V30 20354 H 1970.99 3.66215 -1.03281 0
M  V30 20355 H 1970.5 2.82939 -2.65645 0
M  V30 20356 H 1968.6 3.70924 -0.353006 0
M  V30 20357 H 1968.72 4.28255 -2.1479 0
M  V30 20358 H 1967.08 2.31843 -1.05455 0
M  V30 20359 H 1967.86 2.10459 -2.71223 0
M  V30 20360 N 1970.31 0.904053 1.29092 0
M  V30 20361 C 1971.72 0.580096 1.77459 0
M  V30 20362 C 1972.07 -0.904375 1.74113 0
M  V30 20363 O 1971.19 -1.70724 1.32975 0
M  V30 20364 C 1971.79 1.04624 3.22241 0
M  V30 20365 C 1970.35 0.773375 3.68369 0
M  V30 20366 C 1969.5 1.21848 2.49095 0
M  V30 20367 H 1972.45 1.08633 1.15692 0
M  V30 20368 H 1972.47 0.383425 3.78563 0
M  V30 20369 H 1971.98 2.12669 3.24644 0
M  V30 20370 H 1970.08 -0.294271 3.71436 0
M  V30 20371 H 1970.19 1.37431 4.58966 0
M  V30 20372 H 1968.56 0.63739 2.46596 0
M  V30 20373 H 1969.34 2.30706 2.54223 0
M  V30 20374 N 1971.79 -1.4279 0.666995 0
M  V30 20375 C 1972.75 -2.29199 -0.00688445 0
M  V30 20376 C 1973.75 -1.42924 -0.736835 0
M  V30 20377 O 1974.94 -1.64401 -0.576011 0
M  V30 20378 C 1972.07 -3.25268 -1.02046 0
M  V30 20379 H 1973.26 -2.90278 0.753571 0
M  V30 20380 H 1970.82 -1.50299 0.428933 0
M  V30 20381 H 1971.55 -2.69112 -1.80967 0
M  V30 20382 H 1971.34 -3.88892 -0.500533 0
M  V30 20383 H 1972.83 -3.9009 -1.49063 0
M  V30 20384 N 1973.26 -0.409806 -1.52179 0
M  V30 20385 C 1974.51 0.16543 -2.01422 0
M  V30 20386 C 1974.83 1.45588 -1.29727 0
M  V30 20387 O 1974.1 1.9127 -0.423399 0
M  V30 20388 H 1972.68 0.0641237 -0.744243 0
M  V30 20389 H 1975.34 -0.546204 -1.8709 0
M  V30 20390 H 1974.44 0.361061 -3.10004 0
M  V30 20391 N 1974.74 1.56975 -0.14025 0
M  V30 20392 C 1975.97 2.00267 0.519675 0
M  V30 20393 C 1976.38 1.02026 1.58859 0
M  V30 20394 O 1975.74 0.0162519 1.82493 0
M  V30 20395 C 1975.79 3.435 1.12648 0
M  V30 20396 O 1975.51 4.37985 0.100277 0
M  V30 20397 C 1977.01 4.02036 1.86767 0
M  V30 20398 H 1974.23 0.657101 0.135865 0
M  V30 20399 H 1976.78 2.0317 -0.232847 0
M  V30 20400 H 1974.93 3.4147 1.82967 0
M  V30 20401 H 1975.35 5.21672 0.543929 0
M  V30 20402 H 1976.82 5.04274 2.24525 0
M  V30 20403 H 1977.3 3.42367 2.75103 0
M  V30 20404 H 1977.9 4.07676 1.21163 0
M  V30 20405 N 1976.22 -0.133539 1.57033 0
M  V30 20406 C 1977.63 -0.692222 1.73393 0
M  V30 20407 C 1977.98 -1.81019 0.756735 0
M  V30 20408 O 1977.11 -2.16275 -0.0736448 0
M  V30 20409 C 1977.7 -1.26245 3.144 0
M  V30 20410 C 1976.26 -1.76756 3.32316 0
M  V30 20411 C 1975.41 -0.661397 2.69297 0
M  V30 20412 H 1978.36 0.0922563 1.58432 0
M  V30 20413 H 1978.38 -2.13221 3.15146 0
M  V30 20414 H 1977.89 -0.44855 3.85499 0
M  V30 20415 H 1975.99 -2.6067 2.66236 0
M  V30 20416 H 1976.11 -1.88702 4.40373 0
M  V30 20417 H 1974.47 -1.0914 2.30132 0
M  V30 20418 H 1975.25 0.141281 3.43009 0
M  V30 20419 N 1977.7 -1.52352 -0.403298 0
M  V30 20420 C 1978.94 -1.68377 -1.15881 0
M  V30 20421 C 1979.3 -0.407785 -1.8762 0
M  V30 20422 O 1980.5 -0.444209 -2.65104 0
M  V30 20423 C 1978.77 -2.87568 -2.12226 0
M  V30 20424 S 1980.33 -3.24106 -2.95806 0
M  V30 20425 H 1977.15 -0.592856 -0.392482 0
M  V30 20426 H 1979.75 -1.90362 -0.445274 0
M  V30 20427 H 1978.46 -3.78675 -1.5822 0
M  V30 20428 H 1977.99 -2.67874 -2.8811 0
M  V30 20429 H 1980 -2.73181 -4.1423 0
M  V30 20430 N 1979.18 0.660885 -1.43074 0
M  V30 20431 C 1980.14 1.75586 -1.47317 0
M  V30 20432 C 1981.14 1.56744 -0.358871 0
M  V30 20433 O 1982.33 1.62782 -0.620299 0
M  V30 20434 C 1979.46 3.14377 -1.31833 0
M  V30 20435 H 1980.65 1.73207 -2.44825 0
M  V30 20436 H 1978.21 0.871828 -1.29726 0
M  V30 20437 H 1978.94 3.22373 -0.353027 0
M  V30 20438 H 1978.73 3.29457 -2.12604 0
M  V30 20439 H 1980.22 3.94238 -1.37718 0
M  V30 20440 N 1980.65 1.29477 0.898527 0
M  V30 20441 C 1981.88 1.20529 1.68783 0
M  V30 20442 C 1982.3 -0.230536 1.86682 0
M  V30 20443 O 1981.66 -1.1664 1.38798 0
M  V30 20444 C 1981.71 1.92501 3.04919 0
M  V30 20445 O 1980.81 1.24286 3.93226 0
M  V30 20446 H 1980.16 0.417586 0.516254 0
M  V30 20447 H 1982.69 1.71066 1.1224 0
M  V30 20448 H 1982.7 2.01001 3.55053 0
M  V30 20449 H 1981.37 2.96934 2.9121 0
M  V30 20450 H 1979.95 1.24052 3.51661 0
M  V30 20451 N 1982.13 -1.10905 1.11972 0
M  V30 20452 C 1983.41 -1.79218 0.783601 0
M  V30 20453 C 1983.79 -1.9817 -0.727451 0
M  V30 20454 O 1983.14 -1.57084 -1.65942 0
M  V30 20455 C 1983.35 -3.12538 1.55309 0
M  V30 20456 C 1984.7 -3.87492 1.73595 0
M  V30 20457 O 1985.72 -3.22244 1.5178 0
M  V30 20458 O 1984.58 -5.04588 2.09887 0
M  V30 20459 H 1981.67 -0.776524 0.284498 0
M  V30 20460 H 1984.22 -1.17598 1.22347 0
M  V30 20461 H 1982.99 -2.94133 2.58072 0
M  V30 20462 H 1982.61 -3.81874 1.10714 0
M  V30 20463 N 1983.61 -0.910886 -1.2861 0
M  V30 20464 C 1984.86 -0.53847 -1.94379 0
M  V30 20465 C 1985.17 0.92185 -1.72515 0
M  V30 20466 O 1986.38 1.40229 -2.32482 0
M  V30 20467 C 1984.83 -0.91216 -3.48149 0
M  V30 20468 C 1984.44 -2.39201 -3.78796 0
M  V30 20469 C 1986.19 -0.610192 -4.20092 0
M  V30 20470 C 1984.09 -2.70598 -5.25862 0
M  V30 20471 H 1983.02 -0.197657 -0.727632 0
M  V30 20472 H 1985.67 -1.10941 -1.46165 0
M  V30 20473 H 1984.06 -0.270034 -3.95078 0
M  V30 20474 H 1985.23 -3.08063 -3.42686 0
M  V30 20475 H 1983.55 -2.66414 -3.20019 0
M  V30 20476 H 1986.14 -0.821472 -5.28352 0
M  V30 20477 H 1986.49 0.451862 -4.1384 0
M  V30 20478 H 1987.02 -1.21066 -3.7893 0
M  V30 20479 H 1983.76 -3.75645 -5.37188 0
M  V30 20480 H 1983.28 -2.0637 -5.6318 0
M  V30 20481 H 1984.96 -2.57451 -5.93572 0
M  V30 20482 N 1985.09 1.42434 -0.674558 0
M  V30 20483 C 1986.5 1.55847 -0.344087 0
M  V30 20484 C 1986.7 1.65424 1.15053 0
M  V30 20485 O 1985.76 1.62103 1.93594 0
M  V30 20486 C 1987.07 2.80859 -1.07419 0
M  V30 20487 C 1988.62 2.94631 -1.05649 0
M  V30 20488 C 1989.1 4.22503 -1.76791 0
M  V30 20489 N 1990.59 4.29415 -1.73658 0
M  V30 20490 C 1991.32 5.27171 -2.25561 0
M  V30 20491 N 1990.82 6.31082 -2.85845 0
M  V30 20492 N 1992.61 5.18968 -2.15937 0
M  V30 20493 H 1984.76 1.34461 -1.6442 0
M  V30 20494 H 1987.03 0.647231 -0.692673 0
M  V30 20495 H 1986.73 2.79919 -2.12928 0
M  V30 20496 H 1986.61 3.71743 -0.63927 0
M  V30 20497 H 1988.99 2.95098 -0.00973704 0
M  V30 20498 H 1989.07 2.04977 -1.53029 0
M  V30 20499 H 1988.72 4.22796 -2.81435 0
M  V30 20500 H 1988.65 5.11091 -1.26861 0
M  V30 20501 H 1991.14 3.5495 -1.29687 0
M  V30 20502 H 1991.45 7.02029 -3.2307 0
M  V30 20503 H 1989.8 6.31644 -2.89914 0
M  V30 20504 H 1992.99 4.3671 -1.6853 0
M  V30 20505 H 1993.16 5.9499 -2.56693 0
M  V30 20506 N 1986.57 0.417871 1.51959 0
M  V30 20507 C 1987.79 -0.156736 2.06807 0
M  V30 20508 C 1988.22 -1.37354 1.28512 0
M  V30 20509 O 1987.57 -1.78494 0.317715 0
M  V30 20510 C 1987.62 -0.476913 3.57432 0
M  V30 20511 O 1986.73 -1.56654 3.81488 0
M  V30 20512 H 1986.07 -0.0103873 0.663919 0
M  V30 20513 H 1988.6 0.593593 1.958 0
M  V30 20514 H 1988.61 -0.733026 4.01361 0
M  V30 20515 H 1987.28 0.412542 4.13849 0
M  V30 20516 H 1985.86 -1.30191 3.49435 0
M  V30 20517 N 1988.04 -1.56898 0.148573 0
M  V30 20518 C 1989.27 -2.00974 -0.512287 0
M  V30 20519 C 1989.69 -1.02801 -1.57523 0
M  V30 20520 O 1989.05 -0.00400411 -1.813 0
M  V30 20521 C 1989.1 -3.43785 -1.08832 0
M  V30 20522 O 1988.2 -3.4862 -2.20313 0
M  V30 20523 H 1987.55 -0.652102 -0.125133 0
M  V30 20524 H 1990.08 -2.03119 0.245769 0
M  V30 20525 H 1990.09 -3.82618 -1.41659 0
M  V30 20526 H 1988.76 -4.14744 -0.309923 0
M  V30 20527 H 1987.34 -3.2163 -1.88702 0
M  V30 20528 N 1989.52 0.125209 -1.57102 0
M  V30 20529 C 1990.75 0.852378 -1.89075 0
M  V30 20530 C 1991.17 1.72938 -0.739878 0
M  V30 20531 O 1990.53 1.78633 0.309828 0
M  V30 20532 C 1990.58 1.66688 -3.19762 0
M  V30 20533 O 1989.68 2.77324 -3.0523 0
M  V30 20534 H 1989.02 0.236103 -0.620606 0
M  V30 20535 H 1991.55 0.109473 -2.04307 0
M  V30 20536 H 1991.56 2.0574 -3.52328 0
M  V30 20537 H 1990.24 1.02303 -4.03121 0
M  V30 20538 H 1988.82 2.41519 -2.84118 0
M  V30 20539 N 1991 1.52564 0.395213 0
M  V30 20540 C 1991.93 1.79867 1.48897 0
M  V30 20541 C 1992.91 0.650351 1.57176 0
M  V30 20542 O 1994.1 0.897328 1.72226 0
M  V30 20543 C 1991.23 1.96192 2.86576 0
M  V30 20544 C 1990.18 3.11854 2.9314 0
M  V30 20545 C 1989.51 3.13424 4.33208 0
M  V30 20546 C 1990.81 4.51046 2.63353 0
M  V30 20547 H 1992.5 2.71457 1.26299 0
M  V30 20548 H 1990.05 1.30621 0.606145 0
M  V30 20549 H 1992 2.13875 3.63091 0
M  V30 20550 H 1990.72 1.01286 3.10498 0
M  V30 20551 H 1989.38 2.93944 2.19072 0
M  V30 20552 H 1989.03 2.16212 4.5416 0
M  V30 20553 H 1988.73 3.91117 4.38522 0
M  V30 20554 H 1990.25 3.33254 5.11639 0
M  V30 20555 H 1991.67 4.6909 3.29587 0
M  V30 20556 H 1990.07 5.3076 2.80024 0
M  V30 20557 H 1991.14 4.58187 1.58722 0
M  V30 20558 N 1992.48 -0.653289 1.43422 0
M  V30 20559 C 1993.71 -1.44093 1.48475 0
M  V30 20560 C 1994.12 -1.88521 0.102614 0
M  V30 20561 O 1993.48 -1.59487 -0.887134 0
M  V30 20562 C 1993.53 -2.67595 2.43054 0
M  V30 20563 O 1993.25 -2.25025 3.75893 0
M  V30 20564 C 1994.75 -3.60953 2.57348 0
M  V30 20565 H 1991.97 -0.442658 0.504276 0
M  V30 20566 H 1994.52 -0.800914 1.88164 0
M  V30 20567 H 1992.67 -3.27736 2.06561 0
M  V30 20568 H 1993.08 -3.04932 4.26752 0
M  V30 20569 H 1994.56 -4.44276 3.27602 0
M  V30 20570 H 1995.04 -4.08295 1.61838 0
M  V30 20571 H 1995.64 -3.06693 2.94652 0
M  V30 20572 N 1993.96 -1.29952 -0.891648 0
M  V30 20573 C 1994.89 -1.18331 -2.01296 0
M  V30 20574 C 1995.87 -0.0755571 -1.69932 0
M  V30 20575 O 1997.05 -0.256435 -1.92499 0
M  V30 20576 C 1994.18 -0.867421 -3.36293 0
M  V30 20577 C 1993.14 -1.93237 -3.81894 0
M  V30 20578 C 1992.46 -1.46962 -5.14107 0
M  V30 20579 C 1993.76 -3.34246 -4.01344 0
M  V30 20580 H 1995.46 -2.12138 -2.11276 0
M  V30 20581 H 1993 -1.02132 -1.01514 0
M  V30 20582 H 1994.96 -0.772806 -4.14253 0
M  V30 20583 H 1993.68 0.106342 -3.26427 0
M  V30 20584 H 1992.34 -2.01651 -3.06157 0
M  V30 20585 H 1991.99 -0.484311 -5.00663 0
M  V30 20586 H 1991.69 -2.1819 -5.45589 0
M  V30 20587 H 1993.21 -1.38866 -5.94599 0
M  V30 20588 H 1994.62 -3.28629 -4.69762 0
M  V30 20589 H 1993.02 -4.03502 -4.44192 0
M  V30 20590 H 1994.09 -3.76629 -3.05415 0
M  V30 20591 N 1995.44 1.1031 -1.12559 0
M  V30 20592 C 1996.66 1.86618 -0.9049 0
M  V30 20593 C 1997.09 1.80164 0.540597 0
M  V30 20594 O 1996.44 1.17252 1.38281 0
M  V30 20595 C 1996.49 3.32903 -1.38592 0
M  V30 20596 O 1995.6 4.08508 -0.565225 0
M  V30 20597 H 1994.94 0.579019 -0.325013 0
M  V30 20598 H 1997.47 1.39359 -1.498 0
M  V30 20599 H 1997.48 3.83753 -1.38556 0
M  V30 20600 H 1996.15 3.36917 -2.43844 0
M  V30 20601 H 1994.73 3.67494 -0.632682 0
M  V30 20602 N 1996.91 0.917694 1.28125 0
M  V30 20603 C 1998.16 0.563176 1.95448 0
M  V30 20604 C 1998.51 -0.884114 1.70884 0
M  V30 20605 O 1997.81 -1.62095 1.02155 0
M  V30 20606 C 1998 0.813214 3.48025 0
M  V30 20607 C 1997.83 2.28326 3.87424 0
M  V30 20608 C 1996.6 2.93411 4.11386 0
M  V30 20609 C 1998.8 3.25999 3.9778 0
M  V30 20610 N 1996.78 4.30671 4.37488 0
M  V30 20611 C 1998.15 4.48436 4.28141 0
M  V30 20612 C 2000.21 3.21345 3.80318 0
M  V30 20613 C 1998.91 5.66805 4.42859 0
M  V30 20614 C 2000.94 4.39016 3.96256 0
M  V30 20615 C 2000.3 5.60228 4.26994 0
M  V30 20616 H 1996.4 0.256024 0.738902 0
M  V30 20617 H 1998.98 1.18224 1.54697 0
M  V30 20618 H 1997.15 0.223387 3.87757 0
M  V30 20619 H 1998.88 0.422329 4.0249 0
M  V30 20620 H 1995.64 2.44123 4.05834 0
M  V30 20621 H 1996.06 5.01652 4.54615 0
M  V30 20622 H 2000.7 2.28707 3.55602 0
M  V30 20623 H 1998.42 6.59918 4.66405 0
M  V30 20624 H 2002.01 4.36921 3.84176 0
M  V30 20625 H 2000.89 6.49764 4.39064 0
M  V30 20626 N 1998.39 -1.42074 0.682102 0
M  V30 20627 C 1999.62 -2.05471 0.215716 0
M  V30 20628 C 2000.03 -1.51372 -1.13504 0
M  V30 20629 O 1999.37 -0.651251 -1.71768 0
M  V30 20630 C 1999.43 -3.59408 0.0812503 0
M  V30 20631 C 1999.1 -4.36236 1.36189 0
M  V30 20632 C 2000.1 -4.6641 2.29691 0
M  V30 20633 C 1997.78 -4.75747 1.61152 0
M  V30 20634 C 1999.77 -5.35039 3.46428 0
M  V30 20635 C 1997.46 -5.44115 2.78176 0
M  V30 20636 C 1998.46 -5.73687 3.70638 0
M  V30 20637 O 1998.15 -6.40651 4.85615 0
M  V30 20638 H 1997.88 -0.668449 0.100755 0
M  V30 20639 H 2000.43 -1.83072 0.931332 0
M  V30 20640 H 1998.66 -3.80494 -0.690014 0
M  V30 20641 H 2000.35 -4.04421 -0.346206 0
M  V30 20642 H 2001.12 -4.36378 2.11658 0
M  V30 20643 H 1997 -4.52119 0.900512 0
M  V30 20644 H 2000.54 -5.58037 4.18617 0
M  V30 20645 H 1996.44 -5.73565 2.96132 0
M  V30 20646 H 1997.21 -6.59144 4.85254 0
M  V30 20647 N 1999.87 -0.425924 -1.51735 0
M  V30 20648 C 2001.12 0.144058 -2.01586 0
M  V30 20649 C 2001.44 1.44204 -1.31264 0
M  V30 20650 O 2000.71 1.9081 -0.443661 0
M  V30 20651 H 1999.29 0.0562264 -0.744881 0
M  V30 20652 H 2001.95 -0.566016 -1.865 0
M  V30 20653 H 2001.05 0.328161 -3.1037 0
M  V30 20654 N 2001.35 1.56817 -0.156891 0
M  V30 20655 C 2002.57 2.01242 0.501622 0
M  V30 20656 C 2003 1.03635 1.56976 0
M  V30 20657 O 2002.36 0.0136188 1.81295 0
M  V30 20658 C 2002.4 3.44357 1.07007 0
M  V30 20659 O 2001.51 3.49783 2.18461 0
M  V30 20660 H 2000.85 0.652757 0.121673 0
M  V30 20661 H 2003.38 2.02985 -0.256537 0
M  V30 20662 H 2003.39 3.83364 1.39628 0
M  V30 20663 H 2002.06 4.14902 0.287924 0
M  V30 20664 H 2000.64 3.22626 1.86994 0
M  V30 20665 N 2002.83 -0.116876 1.57166 0
M  V30 20666 C 2004.05 -0.842338 1.89524 0
M  V30 20667 C 2004.48 -1.72543 0.749039 0
M  V30 20668 O 2003.83 -1.78795 -0.30035 0
M  V30 20669 C 2003.88 -1.64989 3.20641 0
M  V30 20670 O 2002.99 -2.75701 3.06696 0
M  V30 20671 H 2002.33 -0.232809 0.621849 0
M  V30 20672 H 2004.86 -0.0986366 2.04362 0
M  V30 20673 H 2004.87 -2.03869 3.53414 0
M  V30 20674 H 2003.54 -1.00164 4.03658 0
M  V30 20675 H 2002.12 -2.40009 2.85395 0
M  V30 20676 N 2004.3 -1.52772 -0.387116 0
M  V30 20677 C 2005.53 -1.71538 -1.15145 0
M  V30 20678 C 2005.94 -0.434325 -1.84147 0
M  V30 20679 O 2005.28 0.60113 -1.73586 0
M  V30 20680 C 2005.35 -2.81074 -2.24137 0
M  V30 20681 C 2005.01 -4.2213 -1.75086 0
M  V30 20682 C 2006.01 -5.05224 -1.22658 0
M  V30 20683 C 2003.69 -4.68458 -1.81252 0
M  V30 20684 C 2005.69 -6.32726 -0.770461 0
M  V30 20685 C 2003.37 -5.95945 -1.35251 0
M  V30 20686 C 2004.37 -6.77909 -0.832359 0
M  V30 20687 O 2004.06 -8.03006 -0.379074 0
M  V30 20688 H 2003.79 -0.577655 -0.351128 0
M  V30 20689 H 2006.35 -2.00215 -0.458605 0
M  V30 20690 H 2004.58 -2.47822 -2.96852 0
M  V30 20691 H 2006.26 -2.88225 -2.85799 0
M  V30 20692 H 2007.03 -4.70614 -1.1725 0
M  V30 20693 H 2002.91 -4.04748 -2.2068 0
M  V30 20694 H 2006.45 -6.96651 -0.363786 0
M  V30 20695 H 2002.35 -6.30058 -1.40345 0
M  V30 20696 H 2003.12 -8.16969 -0.500379 0
M  V30 20697 N 2005.78 0.645673 -1.43767 0
M  V30 20698 C 2007.06 1.40331 -1.3626 0
M  V30 20699 C 2007.44 2.11095 -0.0141031 0
M  V30 20700 O 2006.79 2.05321 1.00277 0
M  V30 20701 C 2007 2.38177 -2.55094 0
M  V30 20702 C 2008.34 3.01949 -2.98516 0
M  V30 20703 O 2009.37 2.48504 -2.55195 0
M  V30 20704 O 2008.23 3.98868 -3.73586 0
M  V30 20705 H 2005.32 0.627337 -0.538866 0
M  V30 20706 H 2007.87 0.671948 -1.5583 0
M  V30 20707 H 2006.64 1.84886 -3.44866 0
M  V30 20708 H 2006.26 3.18752 -2.37662 0
M  V30 20709 N 2007.26 1.30423 0.884744 0
M  V30 20710 C 2008.51 1.19023 1.63334 0
M  V30 20711 C 2008.83 -0.255228 1.93322 0
M  V30 20712 O 2008.1 -1.17189 1.56983 0
M  V30 20713 H 2006.68 0.437514 0.605467 0
M  V30 20714 H 2009.34 1.63552 1.06003 0
M  V30 20715 H 2008.44 1.75125 2.58336 0
M  V30 20716 N 2008.74 -1.09711 1.13142 0
M  V30 20717 C 2009.99 -1.81468 0.889593 0
M  V30 20718 C 2010.31 -1.85988 -0.585956 0
M  V30 20719 O 2009.58 -1.34332 -1.42589 0
M  V30 20720 H 2008.16 -0.67205 0.326125 0
M  V30 20721 H 2010.82 -1.32709 1.42739 0
M  V30 20722 H 2009.91 -2.84746 1.27773 0
M  V30 20723 N 2010.22 -0.924476 -1.27637 0
M  V30 20724 C 2011.44 -0.57884 -1.99159 0
M  V30 20725 C 2011.87 0.83532 -1.68535 0
M  V30 20726 O 2011.22 1.55999 -0.92379 0
M  V30 20727 C 2011.27 -0.807508 -3.51442 0
M  V30 20728 O 2010.38 0.128443 -4.122 0
M  V30 20729 H 2009.72 -0.223218 -0.625356 0
M  V30 20730 H 2012.25 -1.24285 -1.62525 0
M  V30 20731 H 2012.26 -0.721808 -4.01564 0
M  V30 20732 H 2010.93 -1.83836 -3.73064 0
M  V30 20733 H 2009.51 -0.00689785 -3.72899 0
M  V30 20734 N 2011.69 1.41711 -0.689627 0
M  V30 20735 C 2012.66 2.29181 -0.02958 0
M  V30 20736 C 2013.66 1.44079 0.714004 0
M  V30 20737 O 2014.85 1.65297 0.549783 0
M  V30 20738 C 2011.98 3.26851 0.968583 0
M  V30 20739 H 2013.17 2.89042 -0.799656 0
M  V30 20740 H 2010.73 1.49598 -0.45279 0
M  V30 20741 H 2011.46 2.71957 1.76663 0
M  V30 20742 H 2011.25 3.89639 0.4386 0
M  V30 20743 H 2012.74 3.92412 1.42839 0
M  V30 20744 N 2013.17 0.433965 1.51507 0
M  V30 20745 C 2014.42 -0.133827 2.02358 0
M  V30 20746 C 2014.75 -1.42654 1.3177 0
M  V30 20747 O 2014.03 -1.89651 0.431588 0
M  V30 20748 C 2014.31 -0.356052 3.58335 0
M  V30 20749 C 2014.16 0.955077 4.39543 0
M  V30 20750 C 2015.48 -1.12732 4.25417 0
M  V30 20751 H 2012.6 -0.0471634 0.735489 0
M  V30 20752 H 2015.24 0.572301 1.81176 0
M  V30 20753 H 2013.39 -0.957541 3.76515 0
M  V30 20754 H 2015.06 1.59029 4.33021 0
M  V30 20755 H 2013.31 1.56044 4.04762 0
M  V30 20756 H 2013.98 0.753671 5.46831 0
M  V30 20757 H 2016.45 -0.617852 4.11487 0
M  V30 20758 H 2015.33 -1.25157 5.34441 0
M  V30 20759 H 2015.59 -2.15452 3.86048 0
M  V30 20760 N 2014.65 -1.56732 0.165206 0
M  V30 20761 C 2015.58 -2.1483 -0.798785 0
M  V30 20762 C 2016.6 -1.10232 -1.19803 0
M  V30 20763 O 2017.78 -1.37442 -1.13894 0
M  V30 20764 C 2014.88 -2.67108 -2.08583 0
M  V30 20765 C 2014.06 -3.96299 -1.8511 0
M  V30 20766 C 2013.12 -4.33702 -2.97975 0
M  V30 20767 O 2012.14 -5.01692 -2.68875 0
M  V30 20768 N 2013.34 -3.94762 -4.25609 0
M  V30 20769 H 2016.11 -2.98173 -0.302127 0
M  V30 20770 H 2013.67 -1.6189 -0.0177783 0
M  V30 20771 H 2015.66 -2.89132 -2.8317 0
M  V30 20772 H 2014.23 -1.88388 -2.49457 0
M  V30 20773 H 2013.45 -3.82715 -0.944608 0
M  V30 20774 H 2014.74 -4.80686 -1.66788 0
M  V30 20775 H 2014.14 -3.40014 -4.52114 0
M  V30 20776 H 2012.7 -4.218 -4.96919 0
M  V30 20777 N 2016.13 0.10854 -1.57226 0
M  V30 20778 C 2017.35 0.832276 -1.89968 0
M  V30 20779 C 2017.78 1.72143 -0.758179 0
M  V30 20780 O 2017.14 1.78952 0.290864 0
M  V30 20781 C 2017.18 1.63287 -3.21512 0
M  V30 20782 O 2016.29 2.74071 -3.08154 0
M  V30 20783 H 2015.63 0.229508 -0.623075 0
M  V30 20784 H 2018.16 0.0877974 -2.04412 0
M  V30 20785 H 2018.17 2.01992 -3.5449 0
M  V30 20786 H 2016.84 0.98022 -4.04184 0
M  V30 20787 H 2015.42 2.38492 -2.86664 0
M  V30 20788 N 2017.61 1.52975 0.379009 0
M  V30 20789 C 2018.84 1.72146 1.14234 0
M  V30 20790 C 2019.24 0.444085 1.83914 0
M  V30 20791 O 2018.59 -0.591916 1.73902 0
M  V30 20792 C 2018.65 2.82259 2.22643 0
M  V30 20793 C 2018.31 4.23053 1.72845 0
M  V30 20794 C 2019.31 5.05867 1.19977 0
M  V30 20795 C 2017 4.69413 1.78765 0
M  V30 20796 C 2018.99 6.33126 0.736895 0
M  V30 20797 C 2016.68 5.96654 1.32089 0
M  V30 20798 C 2017.67 6.78341 0.796397 0
M  V30 20799 O 2017.36 8.03195 0.336483 0
M  V30 20800 H 2017.09 0.579509 0.348059 0
M  V30 20801 H 2019.65 2.00455 0.44798 0
M  V30 20802 H 2017.88 2.49393 2.95533 0
M  V30 20803 H 2019.57 2.89737 2.84267 0
M  V30 20804 H 2020.33 4.71229 1.14753 0
M  V30 20805 H 2016.21 4.05913 2.1853 0
M  V30 20806 H 2019.76 6.96834 0.326836 0
M  V30 20807 H 2015.65 6.30794 1.37002 0
M  V30 20808 H 2016.42 8.17223 0.457046 0
M  V30 20809 N 2019.08 -0.63804 1.44107 0
M  V30 20810 C 2020.31 -1.43004 1.50215 0
M  V30 20811 C 2020.73 -1.87678 0.125903 0
M  V30 20812 O 2020.09 -1.58316 -0.883508 0
M  V30 20813 C 2020.14 -2.63112 2.46585 0
M  V30 20814 O 2019.24 -3.62706 1.9626 0
M  V30 20815 H 2018.59 -0.428173 0.507508 0
M  V30 20816 H 2021.12 -0.779402 1.89173 0
M  V30 20817 H 2021.13 -3.10742 2.64393 0
M  V30 20818 H 2019.8 -2.29941 3.46554 0
M  V30 20819 H 2018.38 -3.21932 1.88186 0
M  V30 20820 N 2020.56 -1.3089 -0.877815 0
M  V30 20821 C 2021.81 -1.19488 -1.62498 0
M  V30 20822 C 2022.12 0.247666 -1.94026 0
M  V30 20823 O 2023.33 0.483286 -2.67164 0
M  V30 20824 C 2021.79 -2.09126 -2.92906 0
M  V30 20825 C 2021.39 -3.58331 -2.68891 0
M  V30 20826 C 2023.14 -2.06505 -3.70885 0
M  V30 20827 C 2021.05 -4.40003 -3.9516 0
M  V30 20828 H 2019.98 -0.44363 -0.609679 0
M  V30 20829 H 2022.63 -1.5569 -0.971235 0
M  V30 20830 H 2021.01 -1.65815 -3.59613 0
M  V30 20831 H 2022.18 -4.09838 -2.10642 0
M  V30 20832 H 2020.5 -3.62849 -2.04278 0
M  V30 20833 H 2023.09 -2.64772 -4.64543 0
M  V30 20834 H 2023.44 -1.05026 -4.02834 0
M  V30 20835 H 2023.97 -2.47975 -3.11052 0
M  V30 20836 H 2020.71 -5.42205 -3.68366 0
M  V30 20837 H 2020.23 -3.93258 -4.52889 0
M  V30 20838 H 2021.91 -4.5181 -4.63117 0
M  V30 20839 N 2022.04 1.0911 -1.13723 0
M  V30 20840 C 2022.95 2.19388 -0.831037 0
M  V30 20841 C 2023.97 1.73007 0.185658 0
M  V30 20842 O 2025.14 2.01394 0.015917 0
M  V30 20843 C 2022.21 3.45355 -0.305036 0
M  V30 20844 C 2021.27 4.064 -1.38338 0
M  V30 20845 C 2020.5 5.26355 -0.882388 0
M  V30 20846 O 2020.72 5.69718 0.278833 0
M  V30 20847 O 2019.66 5.78609 -1.65816 0
M  V30 20848 H 2023.48 2.48037 -1.75246 0
M  V30 20849 H 2021.07 1.18108 -0.91493 0
M  V30 20850 H 2022.95 4.21396 -0.0172636 0
M  V30 20851 H 2021.63 3.18301 0.588762 0
M  V30 20852 H 2020.53 3.31981 -1.72452 0
M  V30 20853 H 2021.87 4.37688 -2.25144 0
M  V30 20854 N 2023.52 0.931232 1.27145 0
M  V30 20855 C 2024.77 0.569326 1.93498 0
M  V30 20856 C 2025.08 -0.894288 1.73959 0
M  V30 20857 O 2026.29 -1.36513 2.34684 0
M  V30 20858 C 2024.74 0.967432 3.46654 0
M  V30 20859 C 2024.35 2.45197 3.74943 0
M  V30 20860 C 2026.09 0.676947 4.19068 0
M  V30 20861 C 2024 2.7893 5.2149 0
M  V30 20862 H 2022.93 0.209208 0.724395 0
M  V30 20863 H 2025.58 1.13252 1.44382 0
M  V30 20864 H 2023.96 0.332853 3.94599 0
M  V30 20865 H 2025.14 3.13476 3.37742 0
M  V30 20866 H 2023.45 2.71472 3.1574 0
M  V30 20867 H 2026.05 0.905425 5.26978 0
M  V30 20868 H 2026.39 -0.385967 4.14507 0
M  V30 20869 H 2026.93 1.27079 3.76956 0
M  V30 20870 H 2023.67 3.84144 5.31144 0
M  V30 20871 H 2023.19 2.15304 5.59825 0
M  V30 20872 H 2024.86 2.66862 5.89401 0
M  V30 20873 N 2025 -1.41343 0.697132 0
M  V30 20874 C 2026.24 -2.02004 0.237858 0
M  V30 20875 C 2026.6 -1.54232 -1.15022 0
M  V30 20876 O 2025.89 -0.74437 -1.76549 0
M  V30 20877 C 2026.09 -3.56617 0.236459 0
M  V30 20878 C 2025.91 -4.19396 1.62287 0
M  V30 20879 C 2024.68 -4.53622 2.22609 0
M  V30 20880 C 2026.88 -4.45497 2.56977 0
M  V30 20881 N 2024.86 -5.01697 3.53798 0
M  V30 20882 C 2026.24 -4.95364 3.72847 0
M  V30 20883 C 2028.29 -4.27511 2.55223 0
M  V30 20884 C 2026.99 -5.29134 4.87247 0
M  V30 20885 C 2029.02 -4.62371 3.68737 0
M  V30 20886 C 2028.38 -5.1241 4.83337 0
M  V30 20887 H 2024.48 -0.7707 0.132462 0
M  V30 20888 H 2027.06 -1.71863 0.91495 0
M  V30 20889 H 2025.24 -3.86229 -0.410125 0
M  V30 20890 H 2026.97 -4.04001 -0.237789 0
M  V30 20891 H 2023.72 -4.40129 1.7488 0
M  V30 20892 H 2024.15 -5.30138 4.21049 0
M  V30 20893 H 2028.79 -3.8806 1.67837 0
M  V30 20894 H 2026.51 -5.67508 5.75292 0
M  V30 20895 H 2030.09 -4.50112 3.68634 0
M  V30 20896 H 2028.97 -5.38879 5.69718 0
M  V30 20897 N 2026.48 -0.441993 -1.51275 0
M  V30 20898 C 2027.75 0.183076 -1.94741 0
M  V30 20899 C 2028.13 1.59668 -1.38092 0
M  V30 20900 O 2027.48 2.21279 -0.569882 0
M  V30 20901 C 2027.69 0.156071 -3.48651 0
M  V30 20902 C 2029.04 0.359351 -4.23077 0
M  V30 20903 O 2030.06 0.233977 -3.55431 0
M  V30 20904 O 2028.92 0.609358 -5.43092 0
M  V30 20905 H 2026.02 0.127455 -0.817119 0
M  V30 20906 H 2028.56 -0.500307 -1.62157 0
M  V30 20907 H 2027.33 -0.832021 -3.82352 0
M  V30 20908 H 2026.96 0.882165 -3.8769 0
M  V30 20909 N 2027.95 1.56642 -0.173515 0
M  V30 20910 C 2029.18 2.01763 0.480249 0
M  V30 20911 C 2029.6 1.05294 1.55868 0
M  V30 20912 O 2028.96 0.0328468 1.8127 0
M  V30 20913 C 2029.01 3.45473 1.03349 0
M  V30 20914 O 2028.11 3.52081 2.14739 0
M  V30 20915 H 2027.45 0.654011 0.114743 0
M  V30 20916 H 2029.98 2.02702 -0.278052 0
M  V30 20917 H 2029.99 3.84823 1.35554 0
M  V30 20918 H 2028.67 4.15184 0.243902 0
M  V30 20919 H 2027.25 3.24591 1.83562 0
M  V30 20920 N 2029.43 -0.1002 1.57281 0
M  V30 20921 C 2030.39 -1.10612 2.00743 0
M  V30 20922 C 2031.39 -1.33241 0.900199 0
M  V30 20923 O 2032.58 -1.2944 1.1658 0
M  V30 20924 C 2029.72 -2.45642 2.36375 0
M  V30 20925 H 2030.91 -0.732144 2.90826 0
M  V30 20926 H 2028.46 -0.345091 1.52443 0
M  V30 20927 H 2029.2 -2.87925 1.4923 0
M  V30 20928 H 2028.98 -2.30567 3.17146 0
M  V30 20929 H 2030.47 -3.18002 2.70674 0
M  V30 20930 N 2030.91 -1.53174 -0.370891 0
M  V30 20931 C 2031.86 -1.79899 -1.47442 0
M  V30 20932 C 2032.85 -0.667827 -1.55681 0
M  V30 20933 O 2034.06 -0.850668 -1.58631 0
M  V30 20934 H 2030.43 -0.56952 -0.491071 0
M  V30 20935 H 2032.4 -2.72275 -1.22102 0
M  V30 20936 C 2031.15 -2.00106 -2.84347 0
M  V30 20937 H 2030.48 -2.86585 -2.78764 0
M  V30 20938 H 2031.92 -2.22786 -3.60752 0
M  V30 20939 C 2030.37 -0.778651 -3.27778 0
M  V30 20940 O 2030.9 0.0352246 -4.01685 0
M  V30 20941 N 2029.11 -0.603599 -2.84262 0
M  V30 20942 H 2028.66 -1.26705 -2.24285 0
M  V30 20943 H 2028.62 0.212903 -3.13678 0
M  V30 20944 N 2032.39 0.630389 -1.44443 0
M  V30 20945 C 2033.33 1.74232 -1.51367 0
M  V30 20946 C 2034.3 1.62122 -0.361324 0
M  V30 20947 O 2035.49 1.82035 -0.571662 0
M  V30 20948 C 2032.63 3.12481 -1.46457 0
M  V30 20949 C 2031.74 3.35561 -2.72071 0
M  V30 20950 C 2030.88 4.63787 -2.58989 0
M  V30 20951 C 2029.92 4.80048 -3.79764 0
M  V30 20952 N 2029.05 5.99551 -3.65354 0
M  V30 20953 H 2033.89 1.6765 -2.46368 0
M  V30 20954 H 2031.43 0.817807 -1.22272 0
M  V30 20955 H 2033.39 3.92435 -1.41601 0
M  V30 20956 H 2032.02 3.18076 -0.550216 0
M  V30 20957 H 2031.07 2.49543 -2.8711 0
M  V30 20958 H 2032.38 3.43456 -3.61717 0
M  V30 20959 H 2031.54 5.51902 -2.51971 0
M  V30 20960 H 2030.28 4.58251 -1.66905 0
M  V30 20961 H 2029.28 3.90362 -3.87166 0
M  V30 20962 H 2030.51 4.87397 -4.72886 0
M  V30 20963 H 2028.45 5.95104 -2.76021 0
M  V30 20964 H 2028.37 6.08505 -4.48617 0
M  V30 20965 H 2029.64 6.90226 -3.62228 0
M  V30 20966 N 2033.87 1.31354 0.870861 0
M  V30 20967 C 2035.09 1.23948 1.65664 0
M  V30 20968 C 2035.51 -0.195353 1.87787 0
M  V30 20969 O 2034.87 -1.12708 1.43538 0
M  V30 20970 C 2034.92 1.97912 3.02511 0
M  V30 20971 O 2034.64 3.35795 2.81377 0
M  V30 20972 C 2036.14 1.97336 3.96955 0
M  V30 20973 H 2033.36 0.428328 0.516504 0
M  V30 20974 H 2035.9 1.73214 1.08706 0
M  V30 20975 H 2034.06 1.52409 3.5616 0
M  V30 20976 H 2034.47 3.73444 3.68293 0
M  V30 20977 H 2035.95 2.53601 4.90297 0
M  V30 20978 H 2036.42 0.955651 4.28677 0
M  V30 20979 H 2037.03 2.42714 3.49242 0
M  V30 20980 N 2035.34 -1.08505 1.143 0
M  V30 20981 C 2036.59 -1.81308 0.921896 0
M  V30 20982 C 2036.94 -1.84498 -0.545746 0
M  V30 20983 O 2036.24 -1.3091 -1.39904 0
M  V30 20984 C 2036.43 -3.26425 1.45538 0
M  V30 20985 C 2036.26 -3.37374 2.97336 0
M  V30 20986 C 2035.03 -3.48623 3.65773 0
M  V30 20987 C 2037.23 -3.29112 3.95209 0
M  V30 20988 N 2035.21 -3.48353 5.05493 0
M  V30 20989 C 2036.58 -3.35822 5.21175 0
M  V30 20990 C 2038.64 -3.12842 3.87342 0
M  V30 20991 C 2037.34 -3.27937 6.40195 0
M  V30 20992 C 2039.37 -3.06287 5.05907 0
M  V30 20993 C 2038.73 -3.13598 6.30742 0
M  V30 20994 H 2034.83 -0.67731 0.390865 0
M  V30 20995 H 2037.41 -1.29607 1.45293 0
M  V30 20996 H 2035.58 -3.76574 0.951129 0
M  V30 20997 H 2037.31 -3.87288 1.1743 0
M  V30 20998 H 2034.07 -3.52472 3.16323 0
M  V30 20999 H 2034.49 -3.51777 5.78431 0
M  V30 21000 H 2039.13 -3.06053 2.91705 0
M  V30 21001 H 2036.85 -3.33488 7.36078 0
M  V30 21002 H 2040.44 -2.9482 5.0157 0
M  V30 21003 H 2039.32 -3.08554 7.20946 0
M  V30 21004 N 2036.82 -0.937962 -1.26649 0
M  V30 21005 C 2037.77 -0.443717 -2.26495 0
M  V30 21006 C 2038.74 0.494894 -1.58556 0
M  V30 21007 O 2039.92 0.411807 -1.86303 0
M  V30 21008 C 2037.06 0.287974 -3.43896 0
M  V30 21009 C 2036.18 -0.685936 -4.2652 0
M  V30 21010 C 2035.31 0.0666303 -5.31158 0
M  V30 21011 C 2034.35 -0.899313 -6.05457 0
M  V30 21012 N 2033.49 -0.17871 -7.01873 0
M  V30 21013 H 2038.33 -1.3001 -2.68144 0
M  V30 21014 H 2035.86 -0.652331 -1.31845 0
M  V30 21015 H 2037.82 0.728613 -4.10788 0
M  V30 21016 H 2036.45 1.10852 -3.03169 0
M  V30 21017 H 2035.5 -1.24509 -3.59446 0
M  V30 21018 H 2036.82 -1.42373 -4.7805 0
M  V30 21019 H 2035.97 0.566702 -6.04047 0
M  V30 21020 H 2034.71 0.837326 -4.80458 0
M  V30 21021 H 2033.71 -1.41054 -5.31398 0
M  V30 21022 H 2034.94 -1.66996 -6.58247 0
M  V30 21023 H 2032.89 0.573553 -6.53488 0
M  V30 21024 H 2032.8 -0.855891 -7.51139 0
M  V30 21025 H 2034.07 0.300374 -7.78921 0
M  V30 21026 N 2038.3 1.40971 -0.704618 0
M  V30 21027 C 2039.21 2.34555 -0.0457738 0
M  V30 21028 C 2040.23 1.56717 0.756037 0
M  V30 21029 O 2041.4 1.89156 0.691518 0
M  V30 21030 C 2038.47 3.35534 0.872815 0
M  V30 21031 C 2037.53 4.29255 0.062192 0
M  V30 21032 C 2036.76 5.2541 0.937031 0
M  V30 21033 O 2036.98 5.27245 2.17644 0
M  V30 21034 O 2035.92 6.00687 0.381874 0
M  V30 21035 H 2039.74 2.92493 -0.817415 0
M  V30 21036 H 2037.33 1.41979 -0.465014 0
M  V30 21037 H 2039.21 3.97489 1.3993 0
M  V30 21038 H 2037.89 2.80026 1.62379 0
M  V30 21039 H 2036.79 3.7062 -0.509109 0
M  V30 21040 H 2038.13 4.87885 -0.65032 0
M  V30 21041 N 2039.78 0.45001 1.51039 0
M  V30 21042 C 2040.71 -0.345315 2.30933 0
M  V30 21043 C 2041.69 -1.00959 1.36899 0
M  V30 21044 O 2042.87 -1.0108 1.6582 0
M  V30 21045 C 2040 -1.43968 3.16055 0
M  V30 21046 C 2038.96 -0.898198 4.18469 0
M  V30 21047 C 2038.28 -2.08927 4.92193 0
M  V30 21048 C 2039.58 0.0760911 5.22245 0
M  V30 21049 H 2041.28 0.321441 2.97669 0
M  V30 21050 H 2038.82 0.156032 1.43152 0
M  V30 21051 H 2040.78 -2.00338 3.70732 0
M  V30 21052 H 2039.5 -2.1349 2.47163 0
M  V30 21053 H 2038.16 -0.356617 3.64861 0
M  V30 21054 H 2037.81 -2.77098 4.19792 0
M  V30 21055 H 2037.51 -1.73328 5.61454 0
M  V30 21056 H 2039.03 -2.65827 5.49698 0
M  V30 21057 H 2040.45 -0.397728 5.71919 0
M  V30 21058 H 2038.84 0.345281 5.99106 0
M  V30 21059 H 2039.91 1.00878 4.74291 0
M  V30 21060 N 2041.26 -1.56548 0.18182 0
M  V30 21061 C 2042.22 -2.17247 -0.730497 0
M  V30 21062 C 2043.22 -1.12333 -1.15056 0
M  V30 21063 O 2044.41 -1.3779 -1.06581 0
M  V30 21064 C 2041.54 -2.76383 -1.99563 0
M  V30 21065 H 2042.73 -2.9922 -0.201904 0
M  V30 21066 H 2040.29 -1.56153 -0.0677734 0
M  V30 21067 H 2041.02 -1.98173 -2.56706 0
M  V30 21068 H 2040.81 -3.53172 -1.70329 0
M  V30 21069 H 2042.3 -3.23034 -2.64649 0
M  V30 21070 N 2042.73 0.0918577 -1.57332 0
M  V30 21071 C 2043.96 0.808218 -1.90461 0
M  V30 21072 C 2044.38 1.72122 -0.775843 0
M  V30 21073 O 2043.73 1.80752 0.251995 0
M  V30 21074 C 2043.79 1.61885 -3.23227 0
M  V30 21075 O 2043.51 0.742563 -4.31761 0
M  V30 21076 C 2045.01 2.43798 -3.7024 0
M  V30 21077 H 2042.23 0.230915 -0.630015 0
M  V30 21078 H 2044.77 0.0681235 -2.04387 0
M  V30 21079 H 2042.93 2.31142 -3.1089 0
M  V30 21080 H 2043.34 1.30433 -5.08023 0
M  V30 21081 H 2044.81 2.96164 -4.65823 0
M  V30 21082 H 2045.29 3.2241 -2.98242 0
M  V30 21083 H 2045.9 1.79734 -3.85455 0
M  V30 21084 N 2044.21 1.53368 0.362763 0
M  V30 21085 C 2045.45 1.7139 1.11376 0
M  V30 21086 C 2045.82 0.457385 1.86472 0
M  V30 21087 O 2047.02 0.514341 2.63833 0
M  V30 21088 C 2045.29 2.93093 2.04527 0
M  V30 21089 S 2046.85 3.31834 2.87109 0
M  V30 21090 H 2043.67 0.603054 0.376626 0
M  V30 21091 H 2046.27 1.91475 0.394647 0
M  V30 21092 H 2044.97 3.82737 1.48125 0
M  V30 21093 H 2044.5 2.75418 2.80906 0
M  V30 21094 H 2046.52 2.84067 4.06842 0
M  V30 21095 N 2045.69 -0.62272 1.44776 0
M  V30 21096 C 2047.11 -0.941829 1.28848 0
M  V30 21097 C 2047.31 -2.00178 0.230395 0
M  V30 21098 O 2046.36 -2.49611 -0.38085 0
M  V30 21099 C 2047.68 -1.39711 2.66273 0
M  V30 21100 C 2049.22 -1.51214 2.7405 0
M  V30 21101 C 2049.7 -2.00123 4.11964 0
M  V30 21102 N 2051.19 -2.07381 4.14183 0
M  V30 21103 C 2051.92 -2.46413 5.17753 0
M  V30 21104 N 2051.42 -2.84523 6.31679 0
M  V30 21105 N 2053.21 -2.46621 5.05109 0
M  V30 21106 H 2045.36 0.0781334 2.12256 0
M  V30 21107 H 2047.63 -0.0276831 0.947596 0
M  V30 21108 H 2047.33 -0.692534 3.44814 0
M  V30 21109 H 2047.21 -2.36654 2.93726 0
M  V30 21110 H 2049.59 -2.20767 1.95822 0
M  V30 21111 H 2049.68 -0.526248 2.50328 0
M  V30 21112 H 2049.32 -1.31163 4.90672 0
M  V30 21113 H 2049.25 -2.99599 4.33068 0
M  V30 21114 H 2051.74 -1.8058 3.31963 0
M  V30 21115 H 2052.05 -3.13144 7.06513 0
M  V30 21116 H 2050.4 -2.82254 6.35104 0
M  V30 21117 H 2053.59 -2.16244 4.15158 0
M  V30 21118 H 2053.76 -2.76715 5.85946 0
M  V30 21119 N 2047.17 -1.31814 -0.863883 0
M  V30 21120 C 2048.39 -1.24961 -1.65528 0
M  V30 21121 C 2048.82 0.18096 -1.87228 0
M  V30 21122 O 2048.18 1.12919 -1.41842 0
M  V30 21123 C 2048.22 -2.00518 -2.99708 0
M  V30 21124 O 2047.33 -1.34668 -3.89793 0
M  V30 21125 H 2046.67 -0.431127 -0.505001 0
M  V30 21126 H 2049.2 -1.73981 -1.07665 0
M  V30 21127 H 2049.21 -2.10344 -3.49599 0
M  V30 21128 H 2047.88 -3.0455 -2.83235 0
M  V30 21129 H 2046.46 -1.33332 -3.48249 0
M  V30 21130 N 2048.65 1.07897 -1.14873 0
M  V30 21131 C 2049.87 1.84117 -0.943847 0
M  V30 21132 C 2050.29 1.81844 0.507767 0
M  V30 21133 O 2049.65 1.22585 1.352 0
M  V30 21134 C 2049.7 3.31438 -1.4433 0
M  V30 21135 O 2049.42 3.33746 -2.83805 0
M  V30 21136 C 2050.92 4.24445 -1.2791 0
M  V30 21137 H 2048.14 0.581068 -0.335561 0
M  V30 21138 H 2050.68 1.36237 -1.52512 0
M  V30 21139 H 2048.84 3.76689 -0.904683 0
M  V30 21140 H 2049.25 4.25748 -3.06332 0
M  V30 21141 H 2050.73 5.25906 -1.67711 0
M  V30 21142 H 2051.2 4.38636 -0.222593 0
M  V30 21143 H 2051.81 3.85025 -1.80653 0
M  V30 21144 N 2050.12 0.944665 1.2615 0
M  V30 21145 C 2051.35 0.610451 1.98213 0
M  V30 21146 C 2051.77 -0.808401 1.69843 0
M  V30 21147 O 2051.13 -1.5451 0.948491 0
M  V30 21148 C 2051.18 0.863318 3.50113 0
M  V30 21149 O 2050.28 -0.062849 4.12352 0
M  V30 21150 H 2049.63 0.233139 0.621725 0
M  V30 21151 H 2052.16 1.26855 1.60527 0
M  V30 21152 H 2052.17 0.785602 4.00365 0
M  V30 21153 H 2050.84 1.89748 3.70092 0
M  V30 21154 H 2049.42 0.066222 3.72841 0
M  V30 21155 N 2051.6 -1.40596 0.712085 0
M  V30 21156 C 2052.85 -2.0095 0.250087 0
M  V30 21157 C 2053.18 -1.5645 -1.15558 0
M  V30 21158 O 2052.43 -0.773994 -1.79744 0
M  V30 21159 C 2052.73 -3.56346 0.27427 0
M  V30 21160 C 2052.4 -4.20416 1.62975 0
M  V30 21161 C 2051.06 -4.37632 2.0008 0
M  V30 21162 C 2053.41 -4.56187 2.52076 0
M  V30 21163 C 2050.74 -4.87899 3.2584 0
M  V30 21164 C 2053.09 -5.07853 3.77185 0
M  V30 21165 C 2051.76 -5.23277 4.14412 0
M  V30 21166 H 2051.03 -0.735327 0.0915134 0
M  V30 21167 H 2053.67 -1.68257 0.914427 0
M  V30 21168 H 2051.98 -3.88927 -0.473638 0
M  V30 21169 H 2053.67 -4.00873 -0.100977 0
M  V30 21170 H 2050.26 -4.07403 1.3312 0
M  V30 21171 H 2054.45 -4.42527 2.24686 0
M  V30 21172 H 2049.7 -4.98026 3.54655 0
M  V30 21173 H 2053.88 -5.34509 4.46401 0
M  V30 21174 H 2051.51 -5.6199 5.11929 0
M  V30 21175 N 2053.08 -0.458013 -1.50798 0
M  V30 21176 C 2054.03 0.357083 -2.29843 0
M  V30 21177 C 2055.02 1.00229 -1.36567 0
M  V30 21178 O 2056.23 0.934888 -1.53818 0
M  V30 21179 H 2052.6 0.133985 -0.739968 0
M  V30 21180 H 2054.57 -0.330165 -2.96568 0
M  V30 21181 C 2053.32 1.43404 -3.1675 0
M  V30 21182 H 2052.65 0.946947 -3.88424 0
M  V30 21183 H 2054.09 1.9772 -3.75077 0
M  V30 21184 C 2052.55 2.42878 -2.33478 0
M  V30 21185 O 2053.08 3.47868 -2.00874 0
M  V30 21186 N 2051.28 2.14272 -1.96306 0
M  V30 21187 H 2050.83 1.28918 -2.2302 0
M  V30 21188 H 2050.79 2.81064 -1.40891 0
M  V30 21189 N 2054.56 1.56449 -0.190119 0
M  V30 21190 C 2055.81 1.9773 0.450624 0
M  V30 21191 C 2056.14 1.07678 1.61614 0
M  V30 21192 O 2055.41 0.127743 1.9408 0
M  V30 21193 C 2055.7 3.48267 0.915552 0
M  V30 21194 C 2055.55 4.49097 -0.251436 0
M  V30 21195 C 2056.87 4.02374 1.78278 0
M  V30 21196 H 2053.99 0.718902 0.162325 0
M  V30 21197 H 2056.63 1.87925 -0.28004 0
M  V30 21198 H 2054.78 3.56753 1.53816 0
M  V30 21199 H 2056.45 4.52653 -0.888996 0
M  V30 21200 H 2054.69 4.24276 -0.903996 0
M  V30 21201 H 2055.37 5.51877 0.116306 0
M  V30 21202 H 2057.84 3.96636 1.25774 0
M  V30 21203 H 2056.72 5.08084 2.07706 0
M  V30 21204 H 2056.98 3.4733 2.73522 0
M  V30 21205 N 2056.04 -0.0835127 1.57379 0
M  V30 21206 C 2056.97 -1.12692 1.99582 0
M  V30 21207 C 2057.98 -1.35658 0.900041 0
M  V30 21208 O 2059.17 -1.34105 1.17805 0
M  V30 21209 C 2056.27 -2.4802 2.30953 0
M  V30 21210 C 2055.44 -2.45172 3.62228 0
M  V30 21211 C 2054.5 -3.62516 3.81403 0
M  V30 21212 O 2053.53 -3.44479 4.53126 0
M  V30 21213 N 2054.73 -4.82432 3.22862 0
M  V30 21214 H 2057.5 -0.767618 2.89703 0
M  V30 21215 H 2055.06 -0.272335 1.59593 0
M  V30 21216 H 2057.05 -3.25144 2.40964 0
M  V30 21217 H 2055.62 -2.75996 1.46781 0
M  V30 21218 H 2054.84 -1.53514 3.6308 0
M  V30 21219 H 2056.13 -2.40359 4.48448 0
M  V30 21220 H 2055.53 -4.9999 2.64625 0
M  V30 21221 H 2054.08 -5.57108 3.3834 0
M  V30 21222 N 2057.52 -1.53558 -0.354624 0
M  V30 21223 C 2058.79 -1.60886 -1.11243 0
M  V30 21224 C 2059.17 -0.423192 -2.06815 0
M  V30 21225 O 2058.52 0.585579 -2.20869 0
M  V30 21226 C 2058.73 -2.96439 -1.84188 0
M  V30 21227 C 2060.08 -3.51404 -2.38329 0
M  V30 21228 O 2061.1 -2.9854 -1.94299 0
M  V30 21229 O 2059.96 -4.43843 -3.1885 0
M  V30 21230 H 2057.06 -0.650291 -0.510932 0
M  V30 21231 H 2059.6 -1.65902 -0.357007 0
M  V30 21232 H 2058.37 -3.74173 -1.145 0
M  V30 21233 H 2058 -2.94963 -2.66613 0
M  V30 21234 N 2058.99 0.615033 -1.45104 0
M  V30 21235 C 2059.92 1.73703 -1.56043 0
M  V30 21236 C 2060.9 1.65025 -0.412413 0
M  V30 21237 O 2062.09 1.83539 -0.634606 0
M  V30 21238 C 2059.22 3.12287 -1.51968 0
M  V30 21239 C 2058.17 3.35769 -2.65411 0
M  V30 21240 C 2057.5 4.74549 -2.46389 0
M  V30 21241 C 2058.8 3.26752 -4.07469 0
M  V30 21242 H 2060.49 1.64805 -2.4996 0
M  V30 21243 H 2058.04 0.791445 -1.203 0
M  V30 21244 H 2059.99 3.9057 -1.58219 0
M  V30 21245 H 2058.72 3.22008 -0.545769 0
M  V30 21246 H 2057.38 2.59874 -2.58575 0
M  V30 21247 H 2057.02 4.80994 -1.47153 0
M  V30 21248 H 2056.72 4.91217 -3.22458 0
M  V30 21249 H 2058.25 5.55041 -2.54482 0
M  V30 21250 H 2059.66 3.94918 -4.15587 0
M  V30 21251 H 2058.06 3.54952 -4.83869 0
M  V30 21252 H 2059.13 2.24305 -4.29902 0
M  V30 21253 N 2060.47 1.3227 0.85688 0
M  V30 21254 C 2061.4 1.23626 1.98088 0
M  V30 21255 C 2062.38 0.120585 1.69672 0
M  V30 21256 O 2063.57 0.307383 1.91752 0
M  V30 21257 C 2060.7 0.956279 3.33875 0
M  V30 21258 C 2059.65 2.03295 3.76637 0
M  V30 21259 C 2058.98 1.60541 5.1003 0
M  V30 21260 C 2060.28 3.4477 3.92341 0
M  V30 21261 H 2061.97 2.17665 2.05578 0
M  V30 21262 H 2059.52 1.04788 0.987703 0
M  V30 21263 H 2061.47 0.882366 4.12059 0
M  V30 21264 H 2060.19 -0.0197585 3.26594 0
M  V30 21265 H 2058.85 2.09698 3.00703 0
M  V30 21266 H 2058.5 0.616883 4.99203 0
M  V30 21267 H 2058.2 2.32578 5.39612 0
M  V30 21268 H 2059.73 1.54582 5.90709 0
M  V30 21269 H 2061.14 3.40968 4.60884 0
M  V30 21270 H 2059.54 4.15137 4.33338 0
M  V30 21271 H 2060.61 3.84594 2.95322 0
M  V30 21272 N 2061.95 -1.07287 1.15444 0
M  V30 21273 C 2063.36 -1.61368 0.939004 0
M  V30 21274 C 2063.71 -1.89196 -0.519532 0
M  V30 21275 O 2062.84 -1.65791 -1.39076 0
M  V30 21276 C 2063.43 -2.93171 1.69813 0
M  V30 21277 C 2061.99 -3.43992 1.52796 0
M  V30 21278 C 2061.14 -2.1804 1.7133 0
M  V30 21279 H 2064.09 -0.903656 1.3046 0
M  V30 21280 H 2064.11 -3.62129 1.16802 0
M  V30 21281 H 2063.62 -2.72885 2.75963 0
M  V30 21282 H 2061.72 -3.69358 0.490429 0
M  V30 21283 H 2061.84 -4.19988 2.30536 0
M  V30 21284 H 2060.2 -2.2777 1.13987 0
M  V30 21285 H 2060.98 -2.00248 2.78847 0
M  V30 21286 N 2063.43 -0.951342 -1.25647 0
M  V30 21287 C 2064.7 -0.521845 -1.8851 0
M  V30 21288 C 2065.08 1.00082 -1.85868 0
M  V30 21289 O 2064.43 1.86519 -1.31995 0
M  V30 21290 C 2064.64 -1.09473 -3.31386 0
M  V30 21291 C 2065.99 -1.16958 -4.08174 0
M  V30 21292 O 2067.01 -1.04605 -3.40494 0
M  V30 21293 O 2065.87 -1.36298 -5.29231 0
M  V30 21294 H 2062.97 -0.171638 -0.808993 0
M  V30 21295 H 2065.51 -1.04456 -1.33742 0
M  V30 21296 H 2064.29 -2.13807 -3.27723 0
M  V30 21297 H 2063.91 -0.555071 -3.93706 0
M  V30 21298 N 2064.91 1.40216 -0.719531 0
M  V30 21299 C 2065.86 2.27954 -0.0458686 0
M  V30 21300 C 2066.84 1.43462 0.728523 0
M  V30 21301 O 2068.03 1.66518 0.600075 0
M  V30 21302 C 2065.16 3.32035 0.872205 0
M  V30 21303 C 2064.25 4.23998 0.0927891 0
M  V30 21304 N 2064.64 4.97251 -0.926022 0
M  V30 21305 C 2062.94 4.44816 0.324761 0
M  V30 21306 C 2063.64 5.64733 -1.39469 0
M  V30 21307 N 2062.61 5.38862 -0.716112 0
M  V30 21308 H 2066.41 2.82035 -0.826658 0
M  V30 21309 H 2063.93 1.52714 -0.552469 0
M  V30 21310 H 2065.93 3.93741 1.37017 0
M  V30 21311 H 2064.59 2.79514 1.65233 0
M  V30 21312 H 2065.6 5.01137 -1.30698 0
M  V30 21313 H 2062.27 4.03265 1.0809 0
M  V30 21314 H 2063.66 6.3341 -2.24145 0
M  V30 21315 N 2066.38 0.466004 1.50553 0
M  V30 21316 C 2067.29 -0.33625 2.32178 0
M  V30 21317 C 2068.31 -1.00081 1.42337 0
M  V30 21318 O 2069.49 -0.989904 1.75393 0
M  V30 21319 C 2066.55 -1.40682 3.16875 0
M  V30 21320 C 2065.61 -0.759384 4.2253 0
M  V30 21321 C 2064.84 -1.77894 5.03179 0
M  V30 21322 O 2065.07 -3.00483 4.84836 0
M  V30 21323 O 2064 -1.35358 5.86483 0
M  V30 21324 H 2067.83 0.330908 3.01892 0
M  V30 21325 H 2065.41 0.22795 1.47651 0
M  V30 21326 H 2067.29 -2.02704 3.69444 0
M  V30 21327 H 2065.97 -2.05753 2.49894 0
M  V30 21328 H 2064.88 -0.100338 3.73965 0
M  V30 21329 H 2066.21 -0.151694 4.91966 0
M  V30 21330 N 2067.86 -1.56346 0.198413 0
M  V30 21331 C 2069.09 -2.01765 -0.444344 0
M  V30 21332 C 2069.5 -1.0777 -1.55507 0
M  V30 21333 O 2068.84 -0.0753476 -1.83545 0
M  V30 21334 C 2068.9 -3.43574 -1.05816 0
M  V30 21335 C 2068.57 -4.5692 -0.0857655 0
M  V30 21336 C 2069.57 -5.15083 0.706081 0
M  V30 21337 C 2067.25 -5.02293 0.0262794 0
M  V30 21338 C 2069.24 -6.17072 1.5969 0
M  V30 21339 C 2066.93 -6.04125 0.920659 0
M  V30 21340 C 2067.93 -6.61388 1.70453 0
M  V30 21341 O 2067.62 -7.61242 2.58392 0
M  V30 21342 H 2067.35 -0.666052 -0.115545 0
M  V30 21343 H 2069.9 -2.03117 0.305386 0
M  V30 21344 H 2068.13 -3.39219 -1.85654 0
M  V30 21345 H 2069.82 -3.7278 -1.60592 0
M  V30 21346 H 2070.59 -4.80893 0.629841 0
M  V30 21347 H 2066.47 -4.57416 -0.57369 0
M  V30 21348 H 2070.01 -6.61695 2.20919 0
M  V30 21349 H 2065.91 -6.37738 0.998002 0
M  V30 21350 H 2066.68 -7.78674 2.52208 0
M  V30 21351 N 2069.34 0.0751653 -1.57421 0
M  V30 21352 C 2070.29 1.08969 -2.03456 0
M  V30 21353 C 2071.26 1.38655 -0.914549 0
M  V30 21354 O 2072.44 1.4978 -1.18197 0
M  V30 21355 C 2069.58 2.39917 -2.4806 0
M  V30 21356 C 2068.7 2.1679 -3.73666 0
M  V30 21357 C 2067.83 3.41278 -4.07066 0
M  V30 21358 C 2066.87 3.13501 -5.25722 0
M  V30 21359 N 2066.01 4.30309 -5.54778 0
M  V30 21360 H 2070.85 0.690138 -2.89898 0
M  V30 21361 H 2068.38 0.32921 -1.43369 0
M  V30 21362 H 2070.34 3.16366 -2.71972 0
M  V30 21363 H 2068.97 2.77681 -1.646 0
M  V30 21364 H 2068.02 1.3105 -3.57114 0
M  V30 21365 H 2069.34 1.9227 -4.60254 0
M  V30 21366 H 2068.49 4.26124 -4.31861 0
M  V30 21367 H 2067.23 3.68871 -3.19039 0
M  V30 21368 H 2066.23 2.2705 -5.00728 0
M  V30 21369 H 2067.46 2.87234 -6.15365 0
M  V30 21370 H 2065.4 4.5794 -4.69709 0
M  V30 21371 H 2065.32 4.09051 -6.35778 0
M  V30 21372 H 2066.59 5.16162 -5.84121 0
M  V30 21373 N 2070.82 1.53744 0.346476 0
M  V30 21374 C 2072.07 1.70849 1.08705 0
M  V30 21375 C 2072.39 0.470151 1.88732 0
M  V30 21376 O 2071.65 -0.548082 1.87868 0
M  V30 21377 C 2071.95 2.92192 2.05812 0
M  V30 21378 C 2071.61 4.27917 1.42119 0
M  V30 21379 C 2070.28 4.64821 1.24477 0
M  V30 21380 C 2072.63 5.12243 0.962087 0
M  V30 21381 C 2069.96 5.83671 0.595386 0
M  V30 21382 C 2072.31 6.31756 0.326627 0
M  V30 21383 C 2070.97 6.67358 0.137866 0
M  V30 21384 H 2070.24 0.625182 0.397779 0
M  V30 21385 H 2072.89 1.87957 0.366657 0
M  V30 21386 H 2071.19 2.69675 2.84223 0
M  V30 21387 H 2072.89 3.0262 2.63101 0
M  V30 21388 H 2069.48 3.9887 1.56847 0
M  V30 21389 H 2073.66 4.84267 1.08625 0
M  V30 21390 H 2068.92 6.09831 0.437727 0
M  V30 21391 H 2073.09 6.9639 -0.0372189 0
M  V30 21392 H 2070.72 7.59312 -0.367372 0
M  V30 21393 N 2072.3 -0.607329 1.45428 0
M  V30 21394 C 2073.71 -0.92811 1.29839 0
M  V30 21395 C 2073.91 -1.99923 0.251614 0
M  V30 21396 O 2072.97 -2.50001 -0.354354 0
M  V30 21397 C 2074.28 -1.36879 2.6774 0
M  V30 21398 C 2075.83 -1.48299 2.75638 0
M  V30 21399 C 2076.3 -1.95743 4.14064 0
M  V30 21400 N 2077.8 -2.02976 4.16359 0
M  V30 21401 C 2078.53 -2.40908 5.20337 0
M  V30 21402 N 2078.03 -2.77807 6.34661 0
M  V30 21403 N 2079.82 -2.41249 5.07696 0
M  V30 21404 H 2071.97 0.100642 2.12161 0
M  V30 21405 H 2074.23 -0.017631 0.947836 0
M  V30 21406 H 2073.94 -0.655923 3.45529 0
M  V30 21407 H 2073.81 -2.33525 2.96219 0
M  V30 21408 H 2076.2 -2.18677 1.98152 0
M  V30 21409 H 2076.28 -0.499667 2.50872 0
M  V30 21410 H 2075.93 -1.25951 4.92035 0
M  V30 21411 H 2075.86 -2.94989 4.36221 0
M  V30 21412 H 2078.35 -1.77048 3.3386 0
M  V30 21413 H 2078.66 -3.05633 7.09794 0
M  V30 21414 H 2077 -2.75502 6.38062 0
M  V30 21415 H 2080.2 -2.11829 4.17428 0
M  V30 21416 H 2080.37 -2.70485 5.88848 0
M  V30 21417 N 2073.77 -1.32722 -0.849853 0
M  V30 21418 C 2075.02 -1.23739 -1.60675 0
M  V30 21419 C 2075.35 0.199183 -1.93176 0
M  V30 21420 O 2074.63 1.13761 -1.57761 0
M  V30 21421 C 2074.91 -2.10183 -2.92395 0
M  V30 21422 C 2074.76 -3.62243 -2.66646 0
M  V30 21423 C 2076.08 -1.96664 -3.93715 0
M  V30 21424 H 2073.2 -0.45085 -0.583013 0
M  V30 21425 H 2075.84 -1.62716 -0.980999 0
M  V30 21426 H 2073.99 -1.77072 -3.458 0
M  V30 21427 H 2075.67 -4.05591 -2.19758 0
M  V30 21428 H 2073.91 -3.8467 -2.00529 0
M  V30 21429 H 2074.58 -4.1806 -3.60458 0
M  V30 21430 H 2077.06 -2.25679 -3.49583 0
M  V30 21431 H 2075.93 -2.59417 -4.83729 0
M  V30 21432 H 2076.19 -0.935664 -4.32085 0
M  V30 21433 N 2075.25 1.06673 -1.16011 0
M  V30 21434 C 2076.67 1.31515 -0.90421 0
M  V30 21435 C 2076.87 1.96524 0.445021 0
M  V30 21436 O 2075.92 2.22945 1.18541 0
M  V30 21437 C 2077.24 2.19955 -2.05037 0
M  V30 21438 C 2078.79 2.33384 -2.08569 0
M  V30 21439 C 2079.26 3.25176 -3.22528 0
M  V30 21440 N 2080.75 3.32759 -3.2222 0
M  V30 21441 C 2081.49 4.03866 -4.07038 0
M  V30 21442 N 2080.98 4.77529 -5.01934 0
M  V30 21443 N 2082.78 3.99877 -3.95037 0
M  V30 21444 H 2074.93 0.628672 -2.02883 0
M  V30 21445 H 2077.19 0.339704 -0.885045 0
M  V30 21446 H 2076.9 1.79458 -3.02469 0
M  V30 21447 H 2076.77 3.20521 -1.98862 0
M  V30 21448 H 2079.16 2.7313 -1.11732 0
M  V30 21449 H 2079.24 1.32499 -2.1881 0
M  V30 21450 H 2078.88 2.86147 -4.19622 0
M  V30 21451 H 2078.81 4.26031 -3.09524 0
M  V30 21452 H 2081.3 2.80259 -2.53502 0
M  V30 21453 H 2081.62 5.29302 -5.6308 0
M  V30 21454 H 2079.96 4.76522 -5.05917 0
M  V30 21455 H 2083.15 3.41446 -3.20207 0
M  V30 21456 H 2083.32 4.55027 -4.61361 0
M  V30 21457 N 2076.73 0.957992 1.25141 0
M  V30 21458 C 2077.69 0.485333 2.24003 0
M  V30 21459 C 2078.69 -0.412817 1.55411 0
M  V30 21460 O 2079.88 -0.209635 1.72934 0
M  V30 21461 C 2077.02 -0.298362 3.39592 0
M  V30 21462 H 2078.21 1.35918 2.67332 0
M  V30 21463 H 2075.76 0.741602 1.37586 0
M  V30 21464 H 2076.5 -1.18973 3.01688 0
M  V30 21465 H 2076.28 0.346033 3.9057 0
M  V30 21466 H 2077.77 -0.618412 4.12996 0
M  V30 21467 N 2078.21 -1.39832 0.726957 0
M  V30 21468 C 2079.46 -1.99907 0.268315 0
M  V30 21469 C 2079.77 -1.58329 -1.14854 0
M  V30 21470 O 2080.98 -2.11183 -1.70628 0
M  V30 21471 C 2079.43 -3.57337 0.428781 0
M  V30 21472 C 2079.04 -4.07882 1.853 0
M  V30 21473 C 2080.78 -4.24488 0.031508 0
M  V30 21474 C 2078.69 -5.57856 1.96344 0
M  V30 21475 H 2077.62 -0.747791 0.0965646 0
M  V30 21476 H 2080.27 -1.59931 0.899682 0
M  V30 21477 H 2078.65 -3.95069 -0.271354 0
M  V30 21478 H 2079.83 -3.81502 2.58444 0
M  V30 21479 H 2078.14 -3.53366 2.20276 0
M  V30 21480 H 2080.74 -5.34619 0.0931531 0
M  V30 21481 H 2081.08 -4.0381 -1.01209 0
M  V30 21482 H 2081.62 -3.91901 0.682503 0
M  V30 21483 H 2078.36 -5.83404 2.98865 0
M  V30 21484 H 2077.88 -5.86064 1.27627 0
M  V30 21485 H 2079.55 -6.2314 1.74085 0
M  V30 21486 N 2079.69 -0.473982 -1.50304 0
M  V30 21487 C 2080.63 0.332685 -2.30209 0
M  V30 21488 C 2081.63 0.987746 -1.37622 0
M  V30 21489 O 2082.83 0.918521 -1.548 0
M  V30 21490 H 2079.21 0.126129 -0.741347 0
M  V30 21491 H 2081.18 -0.361602 -2.96201 0
M  V30 21492 C 2079.93 1.40037 -3.18253 0
M  V30 21493 H 2079.25 0.905697 -3.89406 0
M  V30 21494 H 2080.69 1.93731 -3.77153 0
M  V30 21495 C 2079.15 2.40388 -2.36041 0
M  V30 21496 O 2079.68 3.45718 -2.04553 0
M  V30 21497 N 2077.89 2.12178 -1.98567 0
M  V30 21498 H 2077.43 1.26545 -2.24375 0
M  V30 21499 H 2077.39 2.79554 -1.43864 0
M  V30 21500 N 2081.16 1.56239 -0.206702 0
M  V30 21501 C 2082.41 1.98197 0.429627 0
M  V30 21502 C 2082.74 1.09386 1.60463 0
M  V30 21503 O 2082.02 0.148321 1.93934 0
M  V30 21504 C 2082.3 3.49218 0.878562 0
M  V30 21505 C 2082.15 4.48805 -0.299054 0
M  V30 21506 C 2083.47 4.04243 1.74 0
M  V30 21507 H 2080.59 0.720583 0.154691 0
M  V30 21508 H 2083.23 1.87617 -0.299957 0
M  V30 21509 H 2081.38 3.58365 1.50023 0
M  V30 21510 H 2083.06 4.51684 -0.936956 0
M  V30 21511 H 2081.3 4.23294 -0.948945 0
M  V30 21512 H 2081.97 5.5197 0.0577652 0
M  V30 21513 H 2084.45 3.97948 1.2156 0
M  V30 21514 H 2083.32 5.10259 2.02305 0
M  V30 21515 H 2083.58 3.50212 2.69823 0
M  V30 21516 N 2082.64 -0.0668159 1.57458 0
M  V30 21517 C 2083.87 -0.776687 1.91445 0
M  V30 21518 C 2084.28 -1.71389 0.801403 0
M  V30 21519 O 2083.62 -1.82206 -0.233788 0
M  V30 21520 C 2083.69 -1.61981 3.2094 0
M  V30 21521 C 2083.35 -0.851453 4.48998 0
M  V30 21522 C 2084.35 -0.168463 5.19627 0
M  V30 21523 C 2082.03 -0.817153 4.95609 0
M  V30 21524 C 2084.03 0.538543 6.35121 0
M  V30 21525 C 2081.71 -0.106378 6.11007 0
M  V30 21526 C 2082.71 0.570265 6.80615 0
M  V30 21527 O 2082.4 1.26958 7.93812 0
M  V30 21528 H 2082.13 -0.225698 0.63721 0
M  V30 21529 H 2084.68 -0.0398627 2.05361 0
M  V30 21530 H 2082.91 -2.39956 3.03246 0
M  V30 21531 H 2084.6 -2.20882 3.40538 0
M  V30 21532 H 2085.37 -0.186236 4.84642 0
M  V30 21533 H 2081.25 -1.33329 4.41299 0
M  V30 21534 H 2084.79 1.06725 6.89388 0
M  V30 21535 H 2080.69 -0.0865497 6.45442 0
M  V30 21536 H 2081.46 1.17936 8.09959 0
M  V30 21537 N 2084.12 -1.53926 -0.338317 0
M  V30 21538 C 2085.37 -1.71085 -1.07584 0
M  V30 21539 C 2085.69 -0.479497 -1.89013 0
M  V30 21540 O 2084.96 0.506566 -1.89237 0
M  V30 21541 H 2083.54 -0.630767 -0.400178 0
M  V30 21542 H 2086.2 -1.91193 -0.378324 0
M  V30 21543 H 2085.3 -2.58404 -1.75026 0
M  V30 21544 N 2085.6 0.599608 -1.45748 0
M  V30 21545 C 2086.83 1.38483 -1.53721 0
M  V30 21546 C 2087.24 1.8801 -0.172512 0
M  V30 21547 O 2086.6 1.6267 0.82733 0
M  V30 21548 C 2086.65 2.5839 -2.52818 0
M  V30 21549 O 2086.37 2.10918 -3.83986 0
M  V30 21550 C 2087.87 3.51153 -2.70567 0
M  V30 21551 H 2085.09 0.423637 -0.520358 0
M  V30 21552 H 2087.64 0.730527 -1.91007 0
M  V30 21553 H 2085.79 3.19844 -2.18583 0
M  V30 21554 H 2086.21 2.88883 -4.37775 0
M  V30 21555 H 2087.68 4.31811 -3.43865 0
M  V30 21556 H 2088.16 4.02008 -1.7688 0
M  V30 21557 H 2088.76 2.95546 -3.05831 0
M  V30 21558 N 2087.08 1.33171 0.842803 0
M  V30 21559 C 2088.3 1.27579 1.63519 0
M  V30 21560 C 2088.73 -0.151151 1.87492 0
M  V30 21561 O 2088.09 -1.10648 1.4362 0
M  V30 21562 C 2088.13 2.05261 2.9648 0
M  V30 21563 O 2087.24 1.40852 3.87601 0
M  V30 21564 H 2086.58 0.439106 0.498078 0
M  V30 21565 H 2089.11 1.75672 1.04883 0
M  V30 21566 H 2089.12 2.15879 3.46209 0
M  V30 21567 H 2087.79 3.09018 2.78354 0
M  V30 21568 H 2086.37 1.38855 3.46083 0
M  V30 21569 N 2088.56 -1.06056 1.16576 0
M  V30 21570 C 2089.47 -2.17107 0.888912 0
M  V30 21571 C 2090.48 -1.73438 -0.139723 0
M  V30 21572 O 2091.66 -2.01365 0.0374846 0
M  V30 21573 C 2088.72 -3.44425 0.396494 0
M  V30 21574 C 2087.78 -4.02589 1.49065 0
M  V30 21575 C 2087.02 -5.2383 1.02163 0
M  V30 21576 O 2087.24 -5.70257 -0.127684 0
M  V30 21577 O 2086.17 -5.7401 1.81098 0
M  V30 21578 H 2090 -2.43304 1.81761 0
M  V30 21579 H 2087.58 -1.1564 0.945923 0
M  V30 21580 H 2089.47 -4.21203 0.128983 0
M  V30 21581 H 2088.14 -3.1975 -0.504164 0
M  V30 21582 H 2087.05 -3.27292 1.81193 0
M  V30 21583 H 2088.38 -4.31565 2.3667 0
M  V30 21584 N 2090.03 -0.964615 -1.24631 0
M  V30 21585 C 2091.44 -0.664103 -1.74489 0
M  V30 21586 C 2091.8 0.820273 -1.7823 0
M  V30 21587 O 2090.92 1.64185 -1.40969 0
M  V30 21588 C 2091.52 -1.1988 -3.16882 0
M  V30 21589 C 2090.07 -0.948248 -3.6426 0
M  V30 21590 C 2089.22 -1.33594 -2.42998 0
M  V30 21591 H 2092.17 -1.14029 -1.10377 0
M  V30 21592 H 2092.19 -0.563605 -3.76303 0
M  V30 21593 H 2091.71 -2.27916 -3.14128 0
M  V30 21594 H 2089.81 0.116719 -3.72417 0
M  V30 21595 H 2089.92 -1.59173 -4.51886 0
M  V30 21596 H 2088.28 -0.754319 -2.43274 0
M  V30 21597 H 2089.07 -2.42573 -2.42927 0
M  V30 21598 N 2091.51 1.39445 -0.734362 0
M  V30 21599 C 2092.74 2.0535 -0.290903 0
M  V30 21600 C 2093.16 1.55004 1.06562 0
M  V30 21601 O 2092.52 0.693509 1.67512 0
M  V30 21602 C 2092.57 3.59337 -0.301562 0
M  V30 21603 O 2091.67 4.06225 0.711013 0
M  V30 21604 H 2091.01 0.650668 -0.132389 0
M  V30 21605 H 2093.54 1.78491 -1.00011 0
M  V30 21606 H 2093.55 4.0774 -0.14573 0
M  V30 21607 H 2092.23 3.95343 -1.2914 0
M  V30 21608 H 2090.8 3.69237 0.521369 0
M  V30 21609 N 2092.99 0.481946 1.5005 0
M  V30 21610 C 2093.92 -0.343006 2.26619 0
M  V30 21611 C 2094.93 -0.947538 1.32384 0
M  V30 21612 O 2096.12 -0.834105 1.57813 0
M  V30 21613 C 2093.22 -1.49609 3.0409 0
M  V30 21614 C 2092.4 -1.00236 4.2576 0
M  V30 21615 C 2091.46 -2.03077 4.85434 0
M  V30 21616 O 2090.48 -1.607 5.46044 0
M  V30 21617 N 2091.68 -3.35975 4.73393 0
M  V30 21618 H 2094.45 0.313457 2.98056 0
M  V30 21619 H 2092.01 0.313362 1.58838 0
M  V30 21620 H 2094 -2.18123 3.40888 0
M  V30 21621 H 2092.57 -2.05705 2.35381 0
M  V30 21622 H 2091.79 -0.14274 3.93941 0
M  V30 21623 H 2093.08 -0.650587 5.04623 0
M  V30 21624 H 2092.48 -3.73107 4.25215 0
M  V30 21625 H 2091.03 -4.00256 5.1443 0
M  V30 21626 N 2094.47 -1.56127 0.214985 0
M  V30 21627 C 2095.38 -2.2362 -0.709323 0
M  V30 21628 C 2096.39 -1.24168 -1.21895 0
M  V30 21629 O 2097.57 -1.56962 -1.26194 0
M  V30 21630 C 2094.63 -2.89781 -1.90337 0
M  V30 21631 C 2093.7 -4.04558 -1.43636 0
M  V30 21632 C 2092.93 -4.67555 -2.57349 0
M  V30 21633 O 2093.15 -4.29521 -3.75324 0
M  V30 21634 O 2092.09 -5.56666 -2.28925 0
M  V30 21635 H 2095.91 -3.03255 -0.164408 0
M  V30 21636 H 2093.5 -1.49392 -0.0151812 0
M  V30 21637 H 2095.38 -3.31565 -2.60082 0
M  V30 21638 H 2094.05 -2.1311 -2.43651 0
M  V30 21639 H 2092.96 -3.67356 -0.707115 0
M  V30 21640 H 2094.29 -4.82951 -0.94967 0
M  V30 21641 N 2095.95 0.0584645 -1.57492 0
M  V30 21642 C 2097.17 0.771417 -1.9252 0
M  V30 21643 C 2097.6 1.69644 -0.812561 0
M  V30 21644 O 2096.95 1.79786 0.233784 0
M  V30 21645 C 2097 1.52975 -3.26544 0
M  V30 21646 O 2096.11 2.64128 -3.16718 0
M  V30 21647 H 2095.45 0.209569 -0.630061 0
M  V30 21648 H 2097.98 0.022721 -2.04587 0
M  V30 21649 H 2097.99 1.90612 -3.60737 0
M  V30 21650 H 2096.66 0.851136 -4.07098 0
M  V30 21651 H 2095.24 2.29251 -2.94106 0
M  V30 21652 N 2097.42 1.54103 0.330149 0
M  V30 21653 C 2098.33 1.86042 1.42918 0
M  V30 21654 C 2099.35 0.75174 1.56923 0
M  V30 21655 O 2100.53 1.04538 1.72145 0
M  V30 21656 C 2097.59 2.07533 2.77724 0
M  V30 21657 C 2096.65 3.31356 2.7295 0
M  V30 21658 C 2095.88 3.51812 4.01328 0
M  V30 21659 O 2096.11 2.75838 4.99269 0
M  V30 21660 O 2095.04 4.45275 4.04986 0
M  V30 21661 H 2098.87 2.79483 1.18839 0
M  V30 21662 H 2096.45 1.39925 0.523569 0
M  V30 21663 H 2098.33 2.23037 3.57537 0
M  V30 21664 H 2097.01 1.1728 3.01707 0
M  V30 21665 H 2095.92 3.21243 1.91712 0
M  V30 21666 H 2097.25 4.21645 2.53922 0
M  V30 21667 N 2098.9 -0.59187 1.46064 0
M  V30 21668 C 2099.83 -1.71199 1.58787 0
M  V30 21669 C 2100.81 -1.64348 0.438615 0
M  V30 21670 O 2102 -1.82506 0.663725 0
M  V30 21671 C 2099.13 -3.0983 1.56917 0
M  V30 21672 C 2098.08 -3.31505 2.70719 0
M  V30 21673 C 2097.41 -4.70569 2.53907 0
M  V30 21674 C 2098.71 -3.20228 4.12615 0
M  V30 21675 H 2100.4 -1.60807 2.5255 0
M  V30 21676 H 2097.95 -0.772206 1.21544 0
M  V30 21677 H 2099.9 -3.88003 1.64413 0
M  V30 21678 H 2098.63 -3.21099 0.596928 0
M  V30 21679 H 2097.28 -2.55727 2.62677 0
M  V30 21680 H 2096.93 -4.78592 1.54787 0
M  V30 21681 H 2096.63 -4.86025 3.30232 0
M  V30 21682 H 2098.16 -5.50923 2.6328 0
M  V30 21683 H 2099.57 -3.88257 4.21817 0
M  V30 21684 H 2097.97 -3.47209 4.89455 0
M  V30 21685 H 2099.04 -2.17437 4.33416 0
M  V30 21686 N 2100.38 -1.33616 -0.835729 0
M  V30 21687 C 2101.61 -1.28297 -1.62319 0
M  V30 21688 C 2102.02 0.145496 -1.88239 0
M  V30 21689 O 2101.38 1.08862 -1.46476 0
M  V30 21690 C 2101.43 -2.05863 -2.97158 0
M  V30 21691 O 2101.15 -3.43137 -2.72375 0
M  V30 21692 C 2102.65 -2.07791 -3.91584 0
M  V30 21693 H 2099.87 -0.441872 -0.504966 0
M  V30 21694 H 2102.42 -1.76036 -1.04075 0
M  V30 21695 H 2100.57 -1.61799 -3.51994 0
M  V30 21696 H 2100.99 -3.83078 -3.58262 0
M  V30 21697 H 2102.46 -2.66511 -4.834 0
M  V30 21698 H 2102.94 -1.06897 -4.25993 0
M  V30 21699 H 2103.54 -2.51888 -3.42684 0
M  V30 21700 N 2101.86 1.05436 -1.17136 0
M  V30 21701 C 2103.09 1.82074 -0.982688 0
M  V30 21702 C 2103.5 1.8288 0.469081 0
M  V30 21703 O 2102.86 1.25425 1.3257 0
M  V30 21704 C 2102.91 3.28302 -1.51328 0
M  V30 21705 O 2102.63 3.27651 -2.9082 0
M  V30 21706 C 2104.13 4.21637 -1.36885 0
M  V30 21707 H 2101.35 0.57382 -0.347811 0
M  V30 21708 H 2103.9 1.32971 -1.55367 0
M  V30 21709 H 2102.05 3.74685 -0.984381 0
M  V30 21710 H 2102.46 4.19154 -3.15294 0
M  V30 21711 H 2103.94 5.2223 -1.78828 0
M  V30 21712 H 2104.42 4.38065 -0.315584 0
M  V30 21713 H 2105.02 3.81107 -1.88779 0
M  V30 21714 N 2103.34 0.971211 1.24118 0
M  V30 21715 C 2104.58 0.635963 1.9257 0
M  V30 21716 C 2104.92 -0.827222 1.75701 0
M  V30 21717 O 2104.19 -1.59559 1.11226 0
M  V30 21718 C 2104.47 1.01581 3.45476 0
M  V30 21719 C 2104.33 2.53595 3.71497 0
M  V30 21720 C 2105.65 0.552941 4.36613 0
M  V30 21721 H 2102.76 0.232516 0.699361 0
M  V30 21722 H 2105.41 1.21085 1.46419 0
M  V30 21723 H 2103.56 0.526628 3.84914 0
M  V30 21724 H 2105.23 3.10016 3.41596 0
M  V30 21725 H 2103.47 2.96637 3.16526 0
M  V30 21726 H 2104.14 2.75222 4.78494 0
M  V30 21727 H 2106.62 0.972795 4.04569 0
M  V30 21728 H 2105.49 0.847244 5.42322 0
M  V30 21729 H 2105.76 -0.54692 4.38704 0
M  V30 21730 N 2104.81 -1.39054 0.741747 0
M  V30 21731 C 2106.06 -1.99978 0.292077 0
M  V30 21732 C 2106.38 -1.59162 -1.12662 0
M  V30 21733 O 2105.65 -0.842958 -1.76836 0
M  V30 21734 H 2104.23 -0.739584 0.105 0
M  V30 21735 H 2106.9 -1.7 0.953207 0
M  V30 21736 H 2105.99 -3.10178 0.34581 0
M  V30 21737 N 2106.29 -0.489897 -1.49792 0
M  V30 21738 C 2107.2 0.29927 -2.32683 0
M  V30 21739 C 2108.22 0.978042 -1.43911 0
M  V30 21740 O 2109.39 0.961875 -1.76946 0
M  V30 21741 C 2106.46 1.35623 -3.19073 0
M  V30 21742 C 2105.52 0.692067 -4.23685 0
M  V30 21743 C 2104.75 1.69866 -5.05946 0
M  V30 21744 O 2104.98 2.92732 -4.89555 0
M  V30 21745 O 2103.91 1.2601 -5.88562 0
M  V30 21746 H 2107.74 -0.378894 -3.01327 0
M  V30 21747 H 2105.32 -0.251411 -1.47269 0
M  V30 21748 H 2107.2 1.96801 -3.72622 0
M  V30 21749 H 2105.88 2.01752 -2.53136 0
M  V30 21750 H 2104.79 0.040831 -3.74078 0
M  V30 21751 H 2106.12 0.0734074 -4.92145 0
M  V30 21752 N 2107.77 1.56011 -0.223262 0
M  V30 21753 C 2108.72 2.20365 0.686157 0
M  V30 21754 C 2109.69 1.15978 1.18905 0
M  V30 21755 O 2110.87 1.44339 1.24783 0
M  V30 21756 C 2108.01 2.88879 1.88793 0
M  V30 21757 C 2107.13 4.07863 1.42378 0
M  V30 21758 C 2106.26 4.64156 2.58326 0
M  V30 21759 C 2105.3 5.75438 2.08656 0
M  V30 21760 N 2104.44 6.26015 3.17883 0
M  V30 21761 H 2109.28 2.97713 0.130656 0
M  V30 21762 H 2106.81 1.47005 0.0527363 0
M  V30 21763 H 2108.77 3.26788 2.59356 0
M  V30 21764 H 2107.4 2.14045 2.41629 0
M  V30 21765 H 2106.45 3.75428 0.613024 0
M  V30 21766 H 2107.77 4.88268 1.01958 0
M  V30 21767 H 2106.92 5.04517 3.36968 0
M  V30 21768 H 2105.66 3.82918 3.02035 0
M  V30 21769 H 2104.66 5.34578 1.28476 0
M  V30 21770 H 2105.89 6.58513 1.65944 0
M  V30 21771 H 2103.83 5.4769 3.61071 0
M  V30 21772 H 2103.75 7.01548 2.8172 0
M  V30 21773 H 2105.02 6.71033 3.96655 0
M  V30 21774 N 2109.25 -0.0501116 1.5752 0
M  V30 21775 C 2110.66 -0.599337 1.76819 0
M  V30 21776 C 2111.01 -1.76753 0.851625 0
M  V30 21777 O 2110.14 -2.16361 0.0411012 0
M  V30 21778 C 2110.73 -1.09402 3.2065 0
M  V30 21779 C 2109.29 -1.58893 3.41219 0
M  V30 21780 C 2108.44 -0.517719 2.72424 0
M  V30 21781 H 2111.39 0.176108 1.5772 0
M  V30 21782 H 2111.41 -1.96217 3.26005 0
M  V30 21783 H 2110.92 -0.243574 3.87335 0
M  V30 21784 H 2109.02 -2.46191 2.7968 0
M  V30 21785 H 2109.13 -1.65093 4.49757 0
M  V30 21786 H 2107.5 -0.967874 2.35594 0
M  V30 21787 H 2108.28 0.322904 3.41778 0
M  V30 21788 N 2110.73 -1.54276 -0.321972 0
M  V30 21789 C 2111.64 -1.86797 -1.41929 0
M  V30 21790 C 2112.65 -0.760051 -1.56522 0
M  V30 21791 O 2113.83 -1.0545 -1.71588 0
M  V30 21792 C 2110.89 -2.09003 -2.7662 0
M  V30 21793 C 2109.95 -3.32799 -2.71189 0
M  V30 21794 C 2109.19 -3.53936 -3.99456 0
M  V30 21795 O 2109.41 -2.78482 -4.97799 0
M  V30 21796 O 2108.34 -4.47417 -4.02619 0
M  V30 21797 H 2112.17 -2.8011 -1.17355 0
M  V30 21798 H 2109.76 -1.40201 -0.516141 0
M  V30 21799 H 2111.64 -2.2493 -3.56349 0
M  V30 21800 H 2110.31 -1.18879 -3.01081 0
M  V30 21801 H 2109.22 -3.22256 -1.90006 0
M  V30 21802 H 2110.55 -4.22986 -2.51683 0
M  V30 21803 N 2112.2 0.584116 -1.46376 0
M  V30 21804 C 2113.11 1.72116 -1.59415 0
M  V30 21805 C 2114.13 1.67314 -0.477692 0
M  V30 21806 O 2115.31 1.87248 -0.74162 0
M  V30 21807 C 2112.37 3.08617 -1.57975 0
M  V30 21808 C 2111.43 3.24694 -2.80842 0
M  V30 21809 C 2110.67 4.54683 -2.79462 0
M  V30 21810 O 2110.89 5.38484 -1.88126 0
M  V30 21811 O 2109.82 4.73977 -3.70985 0
M  V30 21812 H 2113.65 1.64062 -2.55572 0
M  V30 21813 H 2111.23 0.750995 -1.29153 0
M  V30 21814 H 2113.12 3.899 -1.59863 0
M  V30 21815 H 2111.79 3.17111 -0.649775 0
M  V30 21816 H 2110.7 2.4291 -2.84509 0
M  V30 21817 H 2112.03 3.2109 -3.73044 0
M  V30 21818 N 2113.68 1.34058 0.828631 0
M  V30 21819 C 2115.09 1.2341 1.40095 0
M  V30 21820 C 2115.45 -0.142779 1.9568 0
M  V30 21821 O 2114.57 -1.04286 1.89614 0
M  V30 21822 C 2115.17 2.23441 2.54675 0
M  V30 21823 C 2113.72 2.16602 3.07832 0
M  V30 21824 C 2112.87 2.1036 1.80676 0
M  V30 21825 H 2115.82 1.45507 0.633514 0
M  V30 21826 H 2115.84 1.84809 3.32605 0
M  V30 21827 H 2115.36 3.23642 2.1419 0
M  V30 21828 H 2113.46 1.19738 3.52836 0
M  V30 21829 H 2113.57 3.07604 3.6731 0
M  V30 21830 H 2111.93 1.55992 2.01342 0
M  V30 21831 H 2112.72 3.12386 1.42373 0
M  V30 21832 N 2115.16 -1.04814 1.17694 0
M  V30 21833 C 2116.11 -2.12651 0.897118 0
M  V30 21834 C 2117.08 -1.65323 -0.160501 0
M  V30 21835 O 2118.26 -1.90787 -0.0224765 0
M  V30 21836 C 2115.4 -3.42526 0.420731 0
M  V30 21837 C 2114.52 -4.03508 1.54291 0
M  V30 21838 C 2113.65 -5.21315 1.02001 0
M  V30 21839 C 2112.69 -5.74311 2.11738 0
M  V30 21840 N 2111.83 -6.83415 1.60897 0
M  V30 21841 H 2116.67 -2.35925 1.82054 0
M  V30 21842 H 2114.2 -1.15736 0.907948 0
M  V30 21843 H 2116.16 -4.1701 0.126057 0
M  V30 21844 H 2114.79 -3.19423 -0.46572 0
M  V30 21845 H 2113.84 -3.26425 1.95323 0
M  V30 21846 H 2115.16 -4.38876 2.37042 0
M  V30 21847 H 2114.31 -6.02884 0.679408 0
M  V30 21848 H 2113.05 -4.87431 0.161982 0
M  V30 21849 H 2112.05 -4.91369 2.46651 0
M  V30 21850 H 2113.28 -6.10242 2.97963 0
M  V30 21851 H 2111.23 -6.51421 0.773715 0
M  V30 21852 H 2111.14 -7.17807 2.37252 0
M  V30 21853 H 2112.41 -7.68627 1.29741 0
M  V30 21854 N 2116.64 -0.977779 -1.23601 0
M  V30 21855 C 2117.92 -0.561714 -1.87361 0
M  V30 21856 C 2118.3 0.961166 -1.87949 0
M  V30 21857 O 2117.64 1.83678 -1.35922 0
M  V30 21858 C 2117.85 -1.16478 -3.28989 0
M  V30 21859 C 2119.2 -1.2559 -4.05601 0
M  V30 21860 O 2120.23 -1.11804 -3.38199 0
M  V30 21861 O 2119.09 -1.47493 -5.2622 0
M  V30 21862 H 2116.18 -0.18876 -0.80517 0
M  V30 21863 H 2118.73 -1.07269 -1.31497 0
M  V30 21864 H 2117.5 -2.20711 -3.23114 0
M  V30 21865 H 2117.12 -0.638457 -3.9244 0
M  V30 21866 N 2118.12 1.38658 -0.749111 0
M  V30 21867 C 2119.03 2.34291 -0.120373 0
M  V30 21868 C 2120.04 1.59043 0.705796 0
M  V30 21869 O 2121.22 1.9126 0.63099 0
M  V30 21870 C 2118.28 3.38141 0.765626 0
M  V30 21871 C 2117.35 4.29236 -0.0744037 0
M  V30 21872 C 2116.58 5.28125 0.769401 0
M  V30 21873 O 2116.8 5.33902 2.0076 0
M  V30 21874 O 2115.74 6.01598 0.190576 0
M  V30 21875 H 2119.56 2.89744 -0.910056 0
M  V30 21876 H 2117.15 1.40428 -0.509948 0
M  V30 21877 H 2119.03 4.0174 1.27214 0
M  V30 21878 H 2117.7 2.8505 1.53388 0
M  V30 21879 H 2116.61 3.68812 -0.626761 0
M  V30 21880 H 2117.94 4.85569 -0.805208 0
M  V30 21881 N 2119.6 0.497834 1.49531 0
M  V30 21882 C 2120.84 -0.0478795 2.02743 0
M  V30 21883 C 2121.17 -1.36937 1.37702 0
M  V30 21884 O 2120.45 -1.8765 0.511637 0
M  V30 21885 C 2120.73 -0.203749 3.59523 0
M  V30 21886 C 2120.59 1.14064 4.35097 0
M  V30 21887 C 2121.9 -0.945869 4.29815 0
M  V30 21888 H 2119.02 -0.0159264 0.736828 0
M  V30 21889 H 2121.67 0.648629 1.78586 0
M  V30 21890 H 2119.82 -0.796987 3.80237 0
M  V30 21891 H 2121.49 1.77252 4.25887 0
M  V30 21892 H 2119.73 1.73071 3.9778 0
M  V30 21893 H 2120.4 0.984923 5.43142 0
M  V30 21894 H 2122.88 -0.44277 4.13738 0
M  V30 21895 H 2121.75 -1.02377 5.39268 0
M  V30 21896 H 2122.01 -1.98884 3.94839 0
M  V30 21897 N 2121.07 -1.5589 0.231532 0
M  V30 21898 C 2121.98 -2.24359 -0.685566 0
M  V30 21899 C 2123 -1.25454 -1.20571 0
M  V30 21900 O 2124.18 -1.58292 -1.24522 0
M  V30 21901 C 2121.24 -2.91783 -1.87252 0
M  V30 21902 C 2120.3 -4.06059 -1.39337 0
M  V30 21903 C 2119.53 -4.70258 -2.52375 0
M  V30 21904 O 2119.76 -4.33477 -3.70747 0
M  V30 21905 O 2118.69 -5.59063 -2.23008 0
M  V30 21906 H 2122.52 -3.03412 -0.132235 0
M  V30 21907 H 2120.1 -1.494 0.000664697 0
M  V30 21908 H 2121.98 -3.34305 -2.56551 0
M  V30 21909 H 2120.66 -2.15683 -2.41377 0
M  V30 21910 H 2119.57 -3.68086 -0.668112 0
M  V30 21911 H 2120.9 -4.83932 -0.898393 0
M  V30 21912 N 2122.55 0.0417572 -1.57545 0
M  V30 21913 C 2123.8 0.736189 -1.88966 0
M  V30 21914 C 2124.13 1.75678 -0.827697 0
M  V30 21915 O 2123.41 1.93851 0.158734 0
M  V30 21916 C 2123.69 1.4172 -3.3104 0
M  V30 21917 C 2123.54 0.410987 -4.47918 0
M  V30 21918 C 2124.86 2.3545 -3.71822 0
M  V30 21919 H 2121.98 0.266166 -0.687259 0
M  V30 21920 H 2124.62 -0.000952352 -1.9 0
M  V30 21921 H 2122.77 2.04552 -3.30289 0
M  V30 21922 H 2124.44 -0.214433 -4.60801 0
M  V30 21923 H 2122.69 -0.270954 -4.32953 0
M  V30 21924 H 2123.36 0.925718 -5.44182 0
M  V30 21925 H 2125.83 1.82673 -3.73858 0
M  V30 21926 H 2124.71 2.80087 -4.72062 0
M  V30 21927 H 2124.97 3.21575 -3.03384 0
M  V30 21928 N 2124.03 1.54445 0.313786 0
M  V30 21929 C 2125.25 1.77413 1.07421 0
M  V30 21930 C 2125.68 0.525885 1.80599 0
M  V30 21931 O 2125.04 -0.523027 1.73592 0
M  V30 21932 C 2125.09 2.97322 2.04039 0
M  V30 21933 O 2124.19 2.69552 3.12115 0
M  V30 21934 H 2123.53 0.587597 0.309235 0
M  V30 21935 H 2126.06 2.01495 0.355102 0
M  V30 21936 H 2126.07 3.2494 2.46735 0
M  V30 21937 H 2124.75 3.87839 1.5018 0
M  V30 21938 H 2123.32 2.52913 2.74025 0
M  V30 21939 N 2125.51 -0.576345 1.46683 0
M  V30 21940 C 2126.78 -1.3367 1.428 0
M  V30 21941 C 2127.16 -2.10788 0.114803 0
M  V30 21942 O 2126.51 -2.09871 -0.903671 0
M  V30 21943 C 2126.72 -2.25735 2.66167 0
M  V30 21944 C 2128.07 -2.87363 3.12583 0
M  V30 21945 O 2129.09 -2.36045 2.6676 0
M  V30 21946 O 2127.95 -3.80589 3.92191 0
M  V30 21947 H 2125.05 -0.600913 0.568184 0
M  V30 21948 H 2127.59 -0.596834 1.58858 0
M  V30 21949 H 2126.37 -1.68221 3.53295 0
M  V30 21950 H 2125.99 -3.07049 2.52599 0
M  V30 21951 N 2126.99 -1.34495 -0.82151 0
M  V30 21952 C 2128.26 -1.17511 -1.56367 0
M  V30 21953 C 2128.64 0.251735 -2.09594 0
M  V30 21954 O 2127.99 1.25325 -1.91065 0
M  V30 21955 C 2128.2 -2.23083 -2.68393 0
M  V30 21956 C 2129.55 -2.58132 -3.37124 0
M  V30 21957 O 2130.57 -2.21883 -2.78651 0
M  V30 21958 O 2129.43 -3.20405 -4.42722 0
M  V30 21959 H 2126.53 -0.455611 -0.690179 0
M  V30 21960 H 2129.07 -1.46132 -0.862761 0
M  V30 21961 H 2127.84 -3.1885 -2.26827 0
M  V30 21962 H 2127.47 -1.95647 -3.46133 0
M  V30 21963 N 2128.46 1.04188 -1.18248 0
M  V30 21964 C 2129.74 1.74344 -0.886757 0
M  V30 21965 C 2130.12 2.02074 0.610675 0
M  V30 21966 O 2129.47 1.66492 1.56501 0
M  V30 21967 C 2129.68 3.02952 -1.73267 0
M  V30 21968 C 2131.03 3.76712 -1.95892 0
M  V30 21969 O 2132.05 3.12847 -1.70309 0
M  V30 21970 O 2130.91 4.91493 -2.38949 0
M  V30 21971 H 2128 0.758616 -0.329288 0
M  V30 21972 H 2130.55 1.10265 -1.28995 0
M  V30 21973 H 2129.32 2.78587 -2.74782 0
M  V30 21974 H 2128.95 3.7477 -1.3279 0
M  V30 21975 N 2129.94 0.98432 1.23081 0
M  V30 21976 C 2130.85 0.536158 2.28391 0
M  V30 21977 C 2131.87 -0.410933 1.69078 0
M  V30 21978 O 2133.04 -0.279885 1.99446 0
M  V30 21979 C 2130.11 -0.150493 3.46373 0
M  V30 21980 C 2129.17 0.83849 4.21032 0
M  V30 21981 C 2128.4 0.184512 5.33381 0
M  V30 21982 O 2128.63 -1.02355 5.61141 0
M  V30 21983 O 2127.56 0.885058 5.95357 0
M  V30 21984 H 2131.39 1.41206 2.68877 0
M  V30 21985 H 2128.97 0.752144 1.29086 0
M  V30 21986 H 2130.85 -0.535499 4.17984 0
M  V30 21987 H 2129.53 -1.00109 3.07831 0
M  V30 21988 H 2128.44 1.27427 3.51729 0
M  V30 21989 H 2129.77 1.65802 4.63433 0
M  V30 21990 N 2131.42 -1.38259 0.756453 0
M  V30 21991 C 2132.37 -2.3043 0.130645 0
M  V30 21992 C 2133.34 -1.50324 -0.70653 0
M  V30 21993 O 2134.52 -1.78945 -0.662065 0
M  V30 21994 C 2131.66 -3.36755 -0.754338 0
M  V30 21995 C 2130.78 -4.31889 0.0977771 0
M  V30 21996 C 2129.91 -5.25286 -0.790477 0
M  V30 21997 C 2128.95 -6.12065 0.0650988 0
M  V30 21998 N 2128.09 -6.97751 -0.780275 0
M  V30 21999 H 2132.93 -2.83371 0.92222 0
M  V30 22000 H 2130.46 -1.3951 0.466406 0
M  V30 22001 H 2132.42 -3.97012 -1.2821 0
M  V30 22002 H 2131.05 -2.85216 -1.51167 0
M  V30 22003 H 2130.1 -3.73069 0.743191 0
M  V30 22004 H 2131.42 -4.93001 0.758393 0
M  V30 22005 H 2130.57 -5.90673 -1.38529 0
M  V30 22006 H 2129.31 -4.64548 -1.48482 0
M  V30 22007 H 2128.31 -5.45671 0.672561 0
M  V30 22008 H 2129.54 -6.74873 0.756543 0
M  V30 22009 H 2127.48 -6.39558 -1.45951 0
M  V30 22010 H 2127.4 -7.55794 -0.176619 0
M  V30 22011 H 2128.67 -7.67545 -1.35997 0
M  V30 22012 N 2132.9 -0.505757 -1.49264 0
M  V30 22013 C 2133.81 0.274574 -2.32988 0
M  V30 22014 C 2134.82 0.962724 -1.4494 0
M  V30 22015 O 2136 0.943054 -1.77956 0
M  V30 22016 C 2133.07 1.32231 -3.20493 0
M  V30 22017 C 2132.13 0.64709 -4.24395 0
M  V30 22018 C 2131.36 1.6449 -5.07719 0
M  V30 22019 O 2131.58 2.87523 -4.92632 0
M  V30 22020 O 2130.52 1.19761 -5.89865 0
M  V30 22021 H 2134.34 -0.410833 -3.00908 0
M  V30 22022 H 2131.93 -0.267017 -1.46994 0
M  V30 22023 H 2133.81 1.92838 -3.74689 0
M  V30 22024 H 2132.48 1.99056 -2.55262 0
M  V30 22025 H 2131.39 0.00115278 -3.741 0
M  V30 22026 H 2132.72 0.0212046 -4.92195 0
M  V30 22027 N 2134.38 1.55765 -0.239796 0
M  V30 22028 C 2135.79 1.84814 0.264689 0
M  V30 22029 C 2136.14 1.16151 1.58124 0
M  V30 22030 O 2135.26 0.437435 2.11933 0
M  V30 22031 C 2135.86 3.35281 0.487032 0
M  V30 22032 C 2134.42 3.64582 0.935793 0
M  V30 22033 C 2133.56 2.77299 0.00901728 0
M  V30 22034 H 2136.52 1.5181 -0.46254 0
M  V30 22035 H 2136.54 3.56476 1.33061 0
M  V30 22036 H 2136.05 3.85227 -0.471338 0
M  V30 22037 H 2134.15 3.20108 1.90688 0
M  V30 22038 H 2134.26 4.72415 0.797573 0
M  V30 22039 H 2132.63 2.49354 0.519113 0
M  V30 22040 H 2133.41 3.30049 -0.944598 0
M  V30 22041 N 2135.85 -0.0334016 1.57565 0
M  V30 22042 C 2136.76 -1.05241 2.0967 0
M  V30 22043 C 2137.78 -1.39917 1.03437 0
M  V30 22044 O 2138.96 -1.49324 1.35146 0
M  V30 22045 C 2136.02 -2.3357 2.56215 0
M  V30 22046 C 2135.08 -2.05514 3.76912 0
M  V30 22047 C 2134.32 -3.27724 4.21227 0
M  V30 22048 O 2134.54 -4.38244 3.65101 0
M  V30 22049 O 2133.47 -3.13679 5.13701 0
M  V30 22050 H 2137.3 -0.639612 2.96888 0
M  V30 22051 H 2134.88 -0.250101 1.47292 0
M  V30 22052 H 2136.77 -3.09022 2.86502 0
M  V30 22053 H 2135.44 -2.74153 1.7211 0
M  V30 22054 H 2134.35 -1.27644 3.5165 0
M  V30 22055 H 2135.68 -1.69789 4.61988 0
M  V30 22056 N 2137.33 -1.54609 -0.305591 0
M  V30 22057 C 2138.58 -1.73929 -1.04291 0
M  V30 22058 C 2138.91 -0.521093 -1.87078 0
M  V30 22059 O 2138.19 0.481847 -1.88437 0
M  V30 22060 C 2138.47 -3.02557 -1.95272 0
M  V30 22061 C 2138.32 -4.34666 -1.15695 0
M  V30 22062 C 2139.64 -3.27028 -2.94517 0
M  V30 22063 H 2136.76 -0.632835 -0.377741 0
M  V30 22064 H 2139.4 -1.87321 -0.317961 0
M  V30 22065 H 2137.55 -2.91271 -2.57087 0
M  V30 22066 H 2139.22 -4.57863 -0.562028 0
M  V30 22067 H 2137.47 -4.31359 -0.459568 0
M  V30 22068 H 2138.14 -5.20925 -1.82595 0
M  V30 22069 H 2140.61 -3.37894 -2.42831 0
M  V30 22070 H 2139.49 -4.18355 -3.55346 0
M  V30 22071 H 2139.75 -2.45106 -3.67934 0
M  V30 22072 N 2138.81 0.568558 -1.46987 0
M  V30 22073 C 2140.09 1.3291 -1.43507 0
M  V30 22074 C 2140.47 2.10724 -0.12598 0
M  V30 22075 O 2139.82 2.10348 0.892528 0
M  V30 22076 C 2140.03 2.2432 -2.6736 0
M  V30 22077 C 2141.37 2.85701 -3.14102 0
M  V30 22078 O 2142.4 2.34627 -2.68009 0
M  V30 22079 O 2141.26 3.78504 -3.94204 0
M  V30 22080 H 2138.35 0.597891 -0.571363 0
M  V30 22081 H 2140.9 0.588401 -1.59173 0
M  V30 22082 H 2139.67 1.66345 -3.54182 0
M  V30 22083 H 2139.29 3.05705 -2.54224 0
M  V30 22084 N 2140.29 1.34929 0.814366 0
M  V30 22085 C 2141.52 1.30673 1.60025 0
M  V30 22086 C 2141.93 -0.119552 1.88822 0
M  V30 22087 O 2141.27 -1.07963 1.48626 0
M  V30 22088 C 2141.33 2.0381 2.96145 0
M  V30 22089 C 2141 3.53033 2.90201 0
M  V30 22090 C 2141.99 4.47776 2.64183 0
M  V30 22091 C 2139.68 3.9557 3.09564 0
M  V30 22092 C 2141.67 5.83031 2.57592 0
M  V30 22093 C 2139.36 5.30923 3.02596 0
M  V30 22094 C 2140.36 6.24465 2.76645 0
M  V30 22095 O 2140.04 7.57336 2.69626 0
M  V30 22096 H 2139.78 0.450688 0.503842 0
M  V30 22097 H 2142.33 1.78247 1.02064 0
M  V30 22098 H 2140.56 1.50862 3.56058 0
M  V30 22099 H 2142.25 1.92733 3.57224 0
M  V30 22100 H 2143.02 4.16231 2.48951 0
M  V30 22101 H 2138.89 3.23151 3.28777 0
M  V30 22102 H 2142.44 6.56015 2.37256 0
M  V30 22103 H 2138.34 5.62083 3.17384 0
M  V30 22104 H 2139.1 7.67171 2.8529 0
M  V30 22105 N 2141.77 -1.0356 1.18799 0
M  V30 22106 C 2143.18 -1.29071 0.938761 0
M  V30 22107 C 2143.38 -1.97635 -0.39276 0
M  V30 22108 O 2142.44 -2.26009 -1.12588 0
M  V30 22109 C 2143.75 -2.14442 2.10797 0
M  V30 22110 C 2145.3 -2.27772 2.14684 0
M  V30 22111 C 2145.77 -3.16511 3.31036 0
M  V30 22112 N 2147.27 -3.24099 3.30929 0
M  V30 22113 C 2148 -3.92932 4.17603 0
M  V30 22114 N 2147.5 -4.64053 5.14419 0
M  V30 22115 N 2149.29 -3.89263 4.05501 0
M  V30 22116 H 2141.44 -0.57466 2.04478 0
M  V30 22117 H 2143.7 -0.316119 0.893741 0
M  V30 22118 H 2143.41 -1.71376 3.07121 0
M  V30 22119 H 2143.28 -3.15136 2.0729 0
M  V30 22120 H 2145.67 -2.70072 1.18934 0
M  V30 22121 H 2145.75 -1.26651 2.22246 0
M  V30 22122 H 2145.4 -2.74921 4.27061 0
M  V30 22123 H 2145.33 -4.17675 3.20711 0
M  V30 22124 H 2147.82 -2.7344 2.60843 0
M  V30 22125 H 2148.13 -5.14187 5.76916 0
M  V30 22126 H 2146.47 -4.62941 5.18373 0
M  V30 22127 H 2149.67 -3.32836 3.29147 0
M  V30 22128 H 2149.84 -4.42635 4.73263 0
M  V30 22129 N 2143.25 -0.990834 -1.22557 0
M  V30 22130 C 2144.47 -0.683901 -1.9527 0
M  V30 22131 C 2144.89 0.751046 -1.73219 0
M  V30 22132 O 2144.25 1.50657 -1.02999 0
M  V30 22133 C 2144.3 -0.977753 -3.48026 0
M  V30 22134 O 2144.02 -2.35631 -3.69337 0
M  V30 22135 C 2145.52 -0.688232 -4.37925 0
M  V30 22136 H 2142.74 -0.25317 -0.621406 0
M  V30 22137 H 2145.28 -1.32505 -1.55765 0
M  V30 22138 H 2143.44 -0.382447 -3.85508 0
M  V30 22139 H 2143.85 -2.45399 -4.63551 0
M  V30 22140 H 2145.33 -0.944126 -5.43866 0
M  V30 22141 H 2145.8 0.377761 -4.37572 0
M  V30 22142 H 2146.41 -1.26449 -4.06067 0
M  V30 22143 N 2144.72 1.37856 -0.763775 0
M  V30 22144 C 2145.97 2.00179 -0.324977 0
M  V30 22145 C 2146.3 1.60492 1.09343 0
M  V30 22146 O 2145.58 0.847295 1.75075 0
M  V30 22147 C 2145.86 3.57157 -0.459452 0
M  V30 22148 C 2145.71 4.06777 -1.9197 0
M  V30 22149 C 2147.03 4.39874 0.141077 0
M  V30 22150 H 2144.15 0.727238 -0.119555 0
M  V30 22151 H 2146.79 1.6365 -0.965327 0
M  V30 22152 H 2144.94 3.88405 0.0857008 0
M  V30 22153 H 2146.62 3.86128 -2.52394 0
M  V30 22154 H 2144.86 3.59266 -2.43127 0
M  V30 22155 H 2145.53 5.15845 -1.96489 0
M  V30 22156 H 2148.01 4.14837 -0.323975 0
M  V30 22157 H 2146.88 5.48897 0.0168029 0
M  V30 22158 H 2147.14 4.2463 1.23052 0
M  V30 22159 N 2146.2 0.513665 1.48994 0
M  V30 22160 C 2147.43 -0.0227686 2.06887 0
M  V30 22161 C 2147.84 -1.29658 1.37238 0
M  V30 22162 O 2147.2 -1.76745 0.454679 0
M  V30 22163 C 2147.25 -0.267284 3.60511 0
M  V30 22164 O 2146.97 0.956043 4.27541 0
M  V30 22165 C 2148.47 -0.845937 4.35154 0
M  V30 22166 H 2145.69 0.0261591 0.67049 0
M  V30 22167 H 2148.24 0.714646 1.91607 0
M  V30 22168 H 2146.39 -0.954707 3.75452 0
M  V30 22169 H 2146.81 0.726684 5.19442 0
M  V30 22170 H 2148.28 -0.966539 5.43472 0
M  V30 22171 H 2148.76 -1.84687 3.98481 0
M  V30 22172 H 2149.36 -0.19559 4.2485 0
M  V30 22173 N 2147.68 -1.55636 0.248053 0
M  V30 22174 C 2148.93 -1.98148 -0.376864 0
M  V30 22175 C 2149.24 -1.13944 -1.58984 0
M  V30 22176 O 2150.45 -1.46475 -2.28598 0
M  V30 22177 C 2148.9 -3.52586 -0.721883 0
M  V30 22178 C 2148.51 -4.4553 0.469765 0
M  V30 22179 C 2150.26 -4.03751 -1.31093 0
M  V30 22180 C 2148.16 -5.91314 0.100837 0
M  V30 22181 H 2147.09 -0.740008 -0.144582 0
M  V30 22182 H 2149.74 -1.80161 0.348451 0
M  V30 22183 H 2148.13 -3.66272 -1.50536 0
M  V30 22184 H 2149.3 -4.43604 1.24708 0
M  V30 22185 H 2147.61 -4.04853 0.973816 0
M  V30 22186 H 2150.21 -5.10191 -1.6003 0
M  V30 22187 H 2150.55 -3.51167 -2.23578 0
M  V30 22188 H 2151.09 -3.93395 -0.590329 0
M  V30 22189 H 2147.83 -6.47937 0.992861 0
M  V30 22190 H 2147.35 -5.96373 -0.640255 0
M  V30 22191 H 2149.03 -6.46225 -0.316571 0
M  V30 22192 N 2149.16 0.0250451 -1.5758 0
M  V30 22193 C 2150.11 1.04281 -2.07914 0
M  V30 22194 C 2151.1 1.37188 -0.993769 0
M  V30 22195 O 2152.31 1.36046 -1.17862 0
M  V30 22196 H 2148.68 0.353839 -0.663552 0
M  V30 22197 H 2150.65 0.592514 -2.92458 0
M  V30 22198 C 2149.4 2.33393 -2.57726 0
M  V30 22199 H 2148.72 2.08934 -3.40862 0
M  V30 22200 H 2150.16 3.02943 -2.96651 0
M  V30 22201 C 2148.62 3.02638 -1.48026 0
M  V30 22202 O 2149.15 3.9263 -0.848789 0
M  V30 22203 N 2147.36 2.64036 -1.21381 0
M  V30 22204 H 2146.91 1.90939 -1.72916 0
M  V30 22205 H 2146.86 3.10684 -0.481967 0
M  V30 22206 N 2150.64 1.54769 0.297388 0
M  V30 22207 C 2151.86 1.78217 1.05101 0
M  V30 22208 C 2152.28 0.543423 1.8081 0
M  V30 22209 O 2151.64 -0.486854 1.75886 0
M  V30 22210 C 2151.69 2.99206 2.02874 0
M  V30 22211 O 2151.41 4.18295 1.30236 0
M  V30 22212 C 2152.91 3.35071 2.90245 0
M  V30 22213 H 2150.13 0.594292 0.31154 0
M  V30 22214 H 2152.67 2.01728 0.335565 0
M  V30 22215 H 2150.83 2.77893 2.69915 0
M  V30 22216 H 2151.24 4.86531 1.95928 0
M  V30 22217 H 2152.72 4.22961 3.54694 0
M  V30 22218 H 2153.19 2.53386 3.58737 0
M  V30 22219 H 2153.8 3.58556 2.2873 0
M  V30 22220 N 2152.11 -0.560755 1.47286 0
M  V30 22221 C 2153.02 -1.69558 1.62133 0
M  V30 22222 C 2154.04 -1.66533 0.50425 0
M  V30 22223 O 2155.22 -1.86045 0.771315 0
M  V30 22224 C 2152.28 -3.06065 1.62865 0
M  V30 22225 C 2151.34 -3.20185 2.85972 0
M  V30 22226 C 2150.57 -4.5018 2.8666 0
M  V30 22227 O 2150.8 -5.35423 1.96669 0
M  V30 22228 O 2149.73 -4.68015 3.78478 0
M  V30 22229 H 2153.56 -1.59976 2.5815 0
M  V30 22230 H 2151.14 -0.730353 1.30331 0
M  V30 22231 H 2153.02 -3.87307 1.66046 0
M  V30 22232 H 2151.7 -3.16037 0.700143 0
M  V30 22233 H 2150.61 -2.38353 2.88337 0
M  V30 22234 H 2151.94 -3.15114 3.78106 0
M  V30 22235 N 2153.59 -1.35359 -0.807199 0
M  V30 22236 C 2154.52 -1.24083 -1.92707 0
M  V30 22237 C 2155.54 -0.164267 -1.61969 0
M  V30 22238 O 2156.73 -0.417487 -1.73549 0
M  V30 22239 C 2153.83 -0.88785 -3.27063 0
M  V30 22240 C 2153 -2.06266 -3.85711 0
M  V30 22241 C 2152.06 -1.68555 -4.98473 0
M  V30 22242 O 2151.08 -2.40421 -5.15933 0
M  V30 22243 N 2152.29 -0.608828 -5.77298 0
M  V30 22244 H 2155.05 -2.20565 -2.02907 0
M  V30 22245 H 2152.61 -1.2852 -0.984589 0
M  V30 22246 H 2154.6 -0.61707 -3.99968 0
M  V30 22247 H 2153.17 -0.0127324 -3.12597 0
M  V30 22248 H 2152.39 -2.49727 -3.05008 0
M  V30 22249 H 2153.68 -2.84796 -4.21626 0
M  V30 22250 H 2153.08 -0.0117274 -5.65699 0
M  V30 22251 H 2151.64 -0.397827 -6.50585 0
M  V30 22252 N 2155.07 1.02928 -1.19346 0
M  V30 22253 C 2156.02 2.11197 -0.930836 0
M  V30 22254 C 2156.99 1.65557 0.13418 0
M  V30 22255 O 2158.17 1.90798 -0.00787889 0
M  V30 22256 C 2155.31 3.41813 -0.47517 0
M  V30 22257 C 2154.42 4.01002 -1.60691 0
M  V30 22258 C 2153.56 5.19626 -1.10282 0
M  V30 22259 C 2152.6 5.7087 -2.20848 0
M  V30 22260 N 2151.74 6.80769 -1.71749 0
M  V30 22261 H 2156.58 2.32999 -1.85784 0
M  V30 22262 H 2154.11 1.14276 -0.926246 0
M  V30 22263 H 2156.07 4.16756 -0.192384 0
M  V30 22264 H 2154.7 3.20123 0.414844 0
M  V30 22265 H 2153.75 3.23276 -2.00491 0
M  V30 22266 H 2155.06 4.3505 -2.43994 0
M  V30 22267 H 2154.22 6.01727 -0.775236 0
M  V30 22268 H 2152.96 4.87112 -0.239508 0
M  V30 22269 H 2151.96 4.87383 -2.54437 0
M  V30 22270 H 2153.19 6.05424 -3.07633 0
M  V30 22271 H 2151.13 6.50108 -0.877253 0
M  V30 22272 H 2151.05 7.13942 -2.48642 0
M  V30 22273 H 2152.32 7.66466 -1.41953 0
M  V30 22274 N 2156.55 0.997319 1.2203 0
M  V30 22275 C 2157.79 0.676667 1.91178 0
M  V30 22276 C 2158.13 -0.789768 1.77416 0
M  V30 22277 O 2157.4 -1.57163 1.14586 0
M  V30 22278 C 2157.68 1.08886 3.43243 0
M  V30 22279 C 2157.54 2.61418 3.66034 0
M  V30 22280 C 2158.86 0.645428 4.35342 0
M  V30 22281 H 2155.98 0.247298 0.694271 0
M  V30 22282 H 2158.62 1.24163 1.43818 0
M  V30 22283 H 2156.77 0.608155 3.8371 0
M  V30 22284 H 2158.44 3.17192 3.34943 0
M  V30 22285 H 2156.68 3.03284 3.10163 0
M  V30 22286 H 2157.35 2.8531 4.72549 0
M  V30 22287 H 2159.83 1.05839 4.02414 0
M  V30 22288 H 2158.71 0.962088 5.40403 0
M  V30 22289 H 2158.97 -0.453741 4.39765 0
M  V30 22290 N 2158.03 -1.37449 0.771075 0
M  V30 22291 C 2159.25 -2.04506 0.345245 0
M  V30 22292 C 2159.68 -1.57774 -1.02415 0
M  V30 22293 O 2159.03 -0.737677 -1.65614 0
M  V30 22294 C 2159.08 -3.58411 0.396728 0
M  V30 22295 O 2158.19 -4.07967 -0.60306 0
M  V30 22296 H 2157.53 -0.64693 0.149593 0
M  V30 22297 H 2160.06 -1.75777 1.04708 0
M  V30 22298 H 2160.07 -4.0721 0.253784 0
M  V30 22299 H 2158.74 -3.9178 1.39576 0
M  V30 22300 H 2157.32 -3.7049 -0.423289 0
M  V30 22301 N 2159.5 -0.52156 -1.4872 0
M  V30 22302 C 2160.78 0.0795904 -1.95438 0
M  V30 22303 C 2161.16 1.52124 -1.46361 0
M  V30 22304 O 2160.51 2.17948 -0.686376 0
M  V30 22305 C 2160.72 -0.028961 -3.48988 0
M  V30 22306 C 2162.07 0.134582 -4.24387 0
M  V30 22307 O 2163.09 0.0452419 -3.56171 0
M  V30 22308 O 2161.95 0.32062 -5.45559 0
M  V30 22309 H 2159.04 0.0839623 -0.822727 0
M  V30 22310 H 2161.59 -0.58556 -1.59277 0
M  V30 22311 H 2160.36 -1.03353 -3.77404 0
M  V30 22312 H 2159.99 0.675418 -3.91821 0
M  V30 22313 N 2160.98 1.55502 -0.256304 0
M  V30 22314 C 2162.23 1.99168 0.365812 0
M  V30 22315 C 2162.56 1.14455 1.57259 0
M  V30 22316 O 2161.81 0.197615 1.947 0
M  V30 22317 C 2162.11 3.48098 0.810077 0
M  V30 22318 C 2161.78 4.49967 -0.289975 0
M  V30 22319 C 2160.44 4.77544 -0.592079 0
M  V30 22320 C 2162.79 5.10877 -1.03217 0
M  V30 22321 C 2160.12 5.63304 -1.64029 0
M  V30 22322 C 2162.47 5.97775 -2.06996 0
M  V30 22323 C 2161.14 6.23681 -2.37861 0
M  V30 22324 H 2160.41 0.728809 0.13386 0
M  V30 22325 H 2163.05 1.87968 -0.366092 0
M  V30 22326 H 2161.36 3.56679 1.62134 0
M  V30 22327 H 2163.05 3.79279 1.30186 0
M  V30 22328 H 2159.64 4.28577 -0.0443795 0
M  V30 22329 H 2163.83 4.89612 -0.812025 0
M  V30 22330 H 2159.08 5.81628 -1.88465 0
M  V30 22331 H 2163.26 6.44013 -2.64992 0
M  V30 22332 H 2160.89 6.89929 -3.19221 0
M  V30 22333 N 2162.46 -0.0166879 1.57591 0
M  V30 22334 C 2163.69 -0.715388 1.93819 0
M  V30 22335 C 2164.1 -1.68753 0.855524 0
M  V30 22336 O 2163.44 -1.82858 -0.175702 0
M  V30 22337 C 2163.5 -1.51689 3.2593 0
M  V30 22338 C 2163.17 -0.708176 4.5148 0
M  V30 22339 C 2164.16 -0.00306199 5.199 0
M  V30 22340 C 2161.85 -0.659065 4.97957 0
M  V30 22341 C 2163.84 0.740329 6.33086 0
M  V30 22342 C 2161.53 0.0880628 6.11037 0
M  V30 22343 C 2162.53 0.786509 6.78456 0
M  V30 22344 O 2162.22 1.52148 7.89371 0
M  V30 22345 H 2161.95 -0.205311 0.644068 0
M  V30 22346 H 2164.5 0.0254916 2.05384 0
M  V30 22347 H 2162.73 -2.30187 3.10726 0
M  V30 22348 H 2164.42 -2.09936 3.47393 0
M  V30 22349 H 2165.19 -0.0319562 4.84989 0
M  V30 22350 H 2161.07 -1.19222 4.45317 0
M  V30 22351 H 2164.61 1.28603 6.85644 0
M  V30 22352 H 2160.51 0.118837 6.45391 0
M  V30 22353 H 2161.28 1.43645 8.05797 0
M  V30 22354 N 2163.94 -1.54924 -0.289176 0
M  V30 22355 C 2165.22 -1.65459 -1.04319 0
M  V30 22356 C 2165.6 -0.510528 -2.04834 0
M  V30 22357 O 2164.94 0.491374 -2.23154 0
M  V30 22358 C 2165.15 -3.03984 -1.71449 0
M  V30 22359 C 2166.5 -3.61196 -2.2321 0
M  V30 22360 O 2167.53 -3.06513 -1.81462 0
M  V30 22361 O 2166.38 -4.56967 -2.99739 0
M  V30 22362 H 2163.48 -0.671376 -0.482891 0
M  V30 22363 H 2166.02 -1.67267 -0.286321 0
M  V30 22364 H 2164.8 -3.78693 -0.985267 0
M  V30 22365 H 2164.42 -3.06005 -2.53863 0
M  V30 22366 N 2165.42 0.552936 -1.47582 0
M  V30 22367 C 2166.67 1.30628 -1.53685 0
M  V30 22368 C 2166.98 1.94516 -0.205625 0
M  V30 22369 O 2168.18 2.71114 -0.144695 0
M  V30 22370 C 2166.64 2.369 -2.70936 0
M  V30 22371 C 2166.25 1.79183 -4.10606 0
M  V30 22372 C 2167.99 3.13388 -2.86336 0
M  V30 22373 C 2165.9 2.8326 -5.19151 0
M  V30 22374 H 2164.83 0.491183 -0.572062 0
M  V30 22375 H 2167.48 0.58676 -1.73866 0
M  V30 22376 H 2165.86 3.11785 -2.44143 0
M  V30 22377 H 2167.04 1.10641 -4.4732 0
M  V30 22378 H 2165.35 1.15265 -4.00129 0
M  V30 22379 H 2167.95 3.91117 -3.64597 0
M  V30 22380 H 2168.29 3.67839 -1.94936 0
M  V30 22381 H 2168.82 2.45615 -3.12919 0
M  V30 22382 H 2165.56 2.3366 -6.12441 0
M  V30 22383 H 2165.08 3.502 -4.8695 0
M  V30 22384 H 2166.76 3.46674 -5.46284 0
M  V30 22385 N 2166.89 1.35785 0.800009 0
M  V30 22386 C 2167.8 1.31374 1.94366 0
M  V30 22387 C 2168.82 0.217584 1.72634 0
M  V30 22388 O 2170 0.448112 1.96352 0
M  V30 22389 C 2167.06 1.09184 3.29059 0
M  V30 22390 C 2166.12 2.28175 3.63641 0
M  V30 22391 C 2165.36 2.07034 4.91907 0
M  V30 22392 O 2165.58 1.04013 5.60836 0
M  V30 22393 O 2164.51 2.94557 5.249 0
M  V30 22394 H 2168.34 2.27637 2.01035 0
M  V30 22395 H 2165.92 1.16224 0.938743 0
M  V30 22396 H 2167.81 0.98684 4.09682 0
M  V30 22397 H 2166.48 0.159766 3.23305 0
M  V30 22398 H 2165.39 2.44241 2.83367 0
M  V30 22399 H 2166.72 3.19852 3.74106 0
M  V30 22400 N 2168.37 -1.02294 1.19891 0
M  V30 22401 C 2169.28 -2.14169 0.957533 0
M  V30 22402 C 2170.3 -1.73795 -0.0844739 0
M  V30 22403 O 2171.47 -2.01144 0.101528 0
M  V30 22404 C 2168.54 -3.4299 0.50587 0
M  V30 22405 C 2167.6 -3.97643 1.61797 0
M  V30 22406 C 2166.83 -5.20315 1.18777 0
M  V30 22407 O 2167.06 -5.70375 0.0538032 0
M  V30 22408 O 2165.99 -5.67957 1.99268 0
M  V30 22409 H 2169.82 -2.37398 1.89409 0
M  V30 22410 H 2167.4 -1.12572 0.982234 0
M  V30 22411 H 2169.28 -4.20579 0.26292 0
M  V30 22412 H 2167.96 -3.21192 -0.402182 0
M  V30 22413 H 2166.87 -3.21362 1.91514 0
M  V30 22414 H 2168.2 -4.23817 2.5028 0
M  V30 22415 N 2169.85 -1.00378 -1.21499 0
M  V30 22416 C 2171.27 -0.71638 -1.42619 0
M  V30 22417 C 2171.47 0.70891 -1.88618 0
M  V30 22418 O 2170.52 1.47842 -2.04693 0
M  V30 22419 C 2171.84 -1.7312 -2.45866 0
M  V30 22420 C 2173.38 -1.74788 -2.5965 0
M  V30 22421 C 2173.86 -2.75162 -3.66128 0
M  V30 22422 N 2175.35 -2.73823 -3.73598 0
M  V30 22423 C 2176.08 -3.48149 -4.55609 0
M  V30 22424 N 2175.58 -4.32111 -5.41527 0
M  V30 22425 N 2177.37 -3.36805 -4.50021 0
M  V30 22426 H 2169.52 -1.92412 -0.899518 0
M  V30 22427 H 2171.79 -0.830441 -0.457244 0
M  V30 22428 H 2171.49 -2.75165 -2.19036 0
M  V30 22429 H 2171.37 -1.53287 -3.44649 0
M  V30 22430 H 2173.75 -0.734346 -2.85817 0
M  V30 22431 H 2173.84 -1.98693 -1.61105 0
M  V30 22432 H 2173.48 -3.76671 -3.40707 0
M  V30 22433 H 2173.41 -2.48523 -4.64267 0
M  V30 22434 H 2175.9 -2.12907 -3.12216 0
M  V30 22435 H 2176.21 -4.85624 -6.01156 0
M  V30 22436 H 2174.56 -4.36194 -5.41073 0
M  V30 22437 H 2177.75 -2.70643 -3.81929 0
M  V30 22438 H 2177.92 -3.94986 -5.13702 0
M  V30 22439 N 2171.33 1.37038 -0.778354 0
M  V30 22440 C 2172.26 2.3278 -0.183215 0
M  V30 22441 C 2173.24 1.56107 0.675623 0
M  V30 22442 O 2174.42 1.84314 0.611726 0
M  V30 22443 C 2171.55 3.40346 0.691526 0
M  V30 22444 C 2170.51 4.27948 -0.0665313 0
M  V30 22445 C 2169.83 5.26584 0.928085 0
M  V30 22446 C 2171.13 5.07137 -1.24936 0
M  V30 22447 H 2172.83 2.82801 -0.983049 0
M  V30 22448 H 2170.37 1.35969 -0.474169 0
M  V30 22449 H 2172.33 4.06306 1.11773 0
M  V30 22450 H 2171.05 2.88866 1.52395 0
M  V30 22451 H 2169.71 3.63528 -0.473586 0
M  V30 22452 H 2169.36 4.71381 1.75524 0
M  V30 22453 H 2169.06 5.86058 0.425371 0
M  V30 22454 H 2170.58 5.95419 1.35309 0
M  V30 22455 H 2172 5.662 -0.899476 0
M  V30 22456 H 2170.39 5.7597 -1.68461 0
M  V30 22457 H 2171.46 4.39425 -2.05021 0
M  V30 22458 N 2172.81 0.529439 1.48441 0
M  V30 22459 C 2174.06 -0.00484705 2.02099 0
M  V30 22460 C 2174.38 -1.34819 1.40886 0
M  V30 22461 O 2173.65 -1.873 0.574052 0
M  V30 22462 H 2172.23 -0.00477953 0.746985 0
M  V30 22463 H 2174.89 0.693148 1.82158 0
M  V30 22464 H 2173.98 -0.113574 3.11893 0
M  V30 22465 N 2174.29 -1.55364 0.264547 0
M  V30 22466 C 2175.51 -2.0422 -0.361799 0
M  V30 22467 C 2175.94 -1.14203 -1.49464 0
M  V30 22468 O 2175.29 -0.138477 -1.8077 0
M  V30 22469 C 2175.34 -3.50911 -0.830308 0
M  V30 22470 O 2174.45 -3.64002 -1.93847 0
M  V30 22471 H 2173.79 -0.659588 -0.0764174 0
M  V30 22472 H 2176.32 -2.00736 0.39576 0
M  V30 22473 H 2176.33 -3.92072 -1.12887 0
M  V30 22474 H 2175 -4.159 -0.00142245 0
M  V30 22475 H 2173.58 -3.34741 -1.64325 0
M  V30 22476 N 2175.76 0.00833021 -1.57598 0
M  V30 22477 C 2177.01 0.693539 -1.89827 0
M  V30 22478 C 2177.33 1.74773 -0.864844 0
M  V30 22479 O 2176.6 1.9565 0.0988666 0
M  V30 22480 H 2175.18 0.25915 -0.700607 0
M  V30 22481 H 2177.84 -0.0306259 -1.94876 0
M  V30 22482 H 2176.94 1.17005 -2.89337 0
M  V30 22483 N 2177.24 1.55075 0.280956 0
M  V30 22484 C 2178.19 1.87409 1.34709 0
M  V30 22485 C 2179.16 0.72482 1.49451 0
M  V30 22486 O 2180.34 0.975348 1.63987 0
M  V30 22487 C 2177.48 2.14456 2.70375 0
M  V30 22488 C 2176.6 3.42009 2.6392 0
M  V30 22489 C 2175.73 3.58796 3.91713 0
M  V30 22490 C 2174.77 4.8007 3.79736 0
M  V30 22491 N 2173.91 4.93556 4.99346 0
M  V30 22492 H 2178.75 2.78344 1.06435 0
M  V30 22493 H 2176.28 1.37813 0.514379 0
M  V30 22494 H 2178.24 2.28135 3.493 0
M  V30 22495 H 2176.87 1.26764 2.96868 0
M  V30 22496 H 2175.92 3.36844 1.7675 0
M  V30 22497 H 2177.24 4.31065 2.50967 0
M  V30 22498 H 2176.39 3.7225 4.79077 0
M  V30 22499 H 2175.13 2.6791 4.07524 0
M  V30 22500 H 2174.13 4.66628 2.90754 0
M  V30 22501 H 2175.36 5.72383 3.65451 0
M  V30 22502 H 2173.31 4.05599 5.15582 0
M  V30 22503 H 2173.22 5.76645 4.88893 0
M  V30 22504 H 2174.49 5.11387 5.88305 0
M  V30 22505 N 2178.72 -0.545102 1.47873 0
M  V30 22506 C 2179.97 -1.30171 1.55119 0
M  V30 22507 C 2180.29 -1.93268 0.21859 0
M  V30 22508 O 2179.55 -1.79059 -0.789717 0
M  V30 22509 C 2179.85 -2.42353 2.62678 0
M  V30 22510 C 2179.51 -1.97008 4.05584 0
M  V30 22511 C 2178.18 -1.84358 4.44484 0
M  V30 22512 C 2180.53 -1.62553 4.95203 0
M  V30 22513 C 2177.86 -1.35566 5.70823 0
M  V30 22514 C 2180.21 -1.15228 6.22017 0
M  V30 22515 C 2178.87 -1.01184 6.59786 0
M  V30 22516 H 2178.14 -0.476329 0.567619 0
M  V30 22517 H 2180.79 -0.609975 1.81526 0
M  V30 22518 H 2179.09 -3.17133 2.30074 0
M  V30 22519 H 2180.79 -3.00514 2.65504 0
M  V30 22520 H 2177.38 -2.078 3.74856 0
M  V30 22521 H 2181.57 -1.71193 4.6584 0
M  V30 22522 H 2176.82 -1.23367 5.98824 0
M  V30 22523 H 2181 -0.87634 6.90864 0
M  V30 22524 H 2178.62 -0.631553 7.57572 0
M  V30 22525 N 2180.2 -1.36208 -0.792797 0
M  V30 22526 C 2181.45 -1.29992 -1.54746 0
M  V30 22527 C 2181.77 0.121446 -1.94621 0
M  V30 22528 O 2181.04 1.06096 -1.64683 0
M  V30 22529 H 2179.62 -0.478184 -0.573889 0
M  V30 22530 H 2182.28 -1.70466 -0.944845 0
M  V30 22531 H 2181.37 -1.92505 -2.45658 0
M  V30 22532 N 2181.68 1.01656 -1.20431 0
M  V30 22533 C 2182.61 2.10319 -0.910955 0
M  V30 22534 C 2183.62 1.62485 0.1013 0
M  V30 22535 O 2184.81 1.78028 -0.129719 0
M  V30 22536 C 2181.91 3.37148 -0.344189 0
M  V30 22537 C 2181.08 4.14119 -1.40799 0
M  V30 22538 C 2180.14 5.19248 -0.852542 0
M  V30 22539 O 2179.17 5.48161 -1.53324 0
M  V30 22540 N 2180.37 5.79515 0.338032 0
M  V30 22541 H 2183.13 2.36073 -1.84634 0
M  V30 22542 H 2180.7 1.18047 -1.10799 0
M  V30 22543 H 2182.69 4.04679 0.0415379 0
M  V30 22544 H 2181.26 3.08644 0.495757 0
M  V30 22545 H 2180.48 3.41557 -1.96805 0
M  V30 22546 H 2181.77 4.62326 -2.12444 0
M  V30 22547 H 2181.16 5.5836 0.908322 0
M  V30 22548 H 2179.72 6.48395 0.665396 0
M  V30 22549 N 2183.15 1.01021 1.20965 0
M  V30 22550 C 2184.4 0.696906 1.9045 0
M  V30 22551 C 2184.73 -0.770906 1.78243 0
M  V30 22552 O 2184.01 -1.55939 1.16246 0
M  V30 22553 C 2184.29 1.1252 3.42069 0
M  V30 22554 C 2184.14 2.65285 3.63241 0
M  V30 22555 C 2185.46 0.691566 4.34632 0
M  V30 22556 H 2182.58 0.254648 0.691609 0
M  V30 22557 H 2185.22 1.25681 1.42493 0
M  V30 22558 H 2183.37 0.648818 3.83044 0
M  V30 22559 H 2185.05 3.20727 3.3156 0
M  V30 22560 H 2183.29 3.06557 3.06929 0
M  V30 22561 H 2183.96 2.90306 4.69496 0
M  V30 22562 H 2186.44 1.10101 4.01269 0
M  V30 22563 H 2185.31 1.01935 5.39352 0
M  V30 22564 H 2185.57 -0.407073 4.40222 0
M  V30 22565 N 2184.63 -1.36623 0.78561 0
M  V30 22566 C 2185.88 -1.99342 0.356255 0
M  V30 22567 C 2186.21 -1.62355 -1.07103 0
M  V30 22568 O 2185.46 -0.868184 -1.75388 0
M  V30 22569 C 2185.76 -3.54391 0.462776 0
M  V30 22570 C 2185.43 -4.11186 1.85031 0
M  V30 22571 C 2184.09 -4.2641 2.22997 0
M  V30 22572 C 2186.44 -4.42184 2.75904 0
M  V30 22573 C 2183.77 -4.69941 3.51244 0
M  V30 22574 C 2186.12 -4.87145 4.03575 0
M  V30 22575 C 2184.78 -5.00575 4.41567 0
M  V30 22576 H 2184.05 -0.729443 0.130363 0
M  V30 22577 H 2186.7 -1.63173 1.00233 0
M  V30 22578 H 2185.01 -3.9089 -0.266811 0
M  V30 22579 H 2186.7 -4.00845 0.111658 0
M  V30 22580 H 2183.29 -3.99774 1.54528 0
M  V30 22581 H 2187.48 -4.29994 2.47827 0
M  V30 22582 H 2182.73 -4.78526 3.80556 0
M  V30 22583 H 2186.91 -5.10094 4.74106 0
M  V30 22584 H 2184.53 -5.34064 5.40999 0
M  V30 22585 N 2186.11 -0.537304 -1.48158 0
M  V30 22586 C 2187.53 -0.195663 -1.58396 0
M  V30 22587 C 2187.73 1.30132 -1.53843 0
M  V30 22588 O 2186.78 2.08011 -1.43135 0
M  V30 22589 C 2188.09 -0.804684 -2.89733 0
M  V30 22590 C 2189.64 -0.774086 -3.03277 0
M  V30 22591 C 2190.12 -1.36181 -4.37285 0
M  V30 22592 N 2191.61 -1.32411 -4.43871 0
M  V30 22593 C 2192.34 -1.74869 -5.46085 0
M  V30 22594 N 2191.84 -2.2509 -6.55215 0
M  V30 22595 N 2193.63 -1.66061 -5.3701 0
M  V30 22596 H 2185.78 -1.51014 -1.4936 0
M  V30 22597 H 2188.05 -0.628585 -0.709637 0
M  V30 22598 H 2187.75 -1.85596 -2.98742 0
M  V30 22599 H 2187.63 -0.286039 -3.76114 0
M  V30 22600 H 2190.01 0.26845 -2.93876 0
M  V30 22601 H 2190.09 -1.33028 -2.18489 0
M  V30 22602 H 2189.74 -2.40332 -4.47441 0
M  V30 22603 H 2189.67 -0.781239 -5.20773 0
M  V30 22604 H 2192.16 -0.956544 -3.65594 0
M  V30 22605 H 2192.47 -2.55463 -7.29355 0
M  V30 22606 H 2190.82 -2.29088 -6.56158 0
M  V30 22607 H 2194.01 -1.26618 -4.5065 0
M  V30 22608 H 2194.18 -1.9947 -6.16535 0
M  V30 22609 N 2187.59 1.55221 -0.272782 0
M  V30 22610 C 2188.52 2.25408 0.609392 0
M  V30 22611 C 2189.5 1.2434 1.16076 0
M  V30 22612 O 2190.68 1.53054 1.19533 0
M  V30 22613 C 2187.81 2.97338 1.79464 0
M  V30 22614 C 2186.77 4.05315 1.37491 0
M  V30 22615 C 2186.09 4.64808 2.64307 0
M  V30 22616 C 2187.39 5.19636 0.526828 0
M  V30 22617 H 2189.09 2.9939 0.0240678 0
M  V30 22618 H 2186.63 1.43996 0.0101357 0
M  V30 22619 H 2188.59 3.45149 2.41765 0
M  V30 22620 H 2187.31 2.20887 2.40576 0
M  V30 22621 H 2185.97 3.58312 0.775106 0
M  V30 22622 H 2185.62 3.85027 3.23672 0
M  V30 22623 H 2185.32 5.37713 2.36935 0
M  V30 22624 H 2186.84 5.15366 3.2746 0
M  V30 22625 H 2188.26 5.63513 1.05478 0
M  V30 22626 H 2186.65 5.9909 0.348095 0
M  V30 22627 H 2187.72 4.82761 -0.454948 0
M  V30 22628 N 2189.07 2.77022e-05 1.576 0
M  V30 22629 C 2190.31 -0.685829 1.90851 0
M  V30 22630 C 2190.65 -1.73422 0.873984 0
M  V30 22631 O 2189.92 -1.94204 -0.107282 0
M  V30 22632 C 2190.2 -1.32893 3.34681 0
M  V30 22633 C 2190.06 -0.292085 4.48851 0
M  V30 22634 C 2191.38 -2.25509 3.77933 0
M  V30 22635 H 2188.49 -0.247851 0.694074 0
M  V30 22636 H 2191.14 0.0513272 1.89931 0
M  V30 22637 H 2189.29 -1.95723 3.35596 0
M  V30 22638 H 2190.96 0.336531 4.60071 0
M  V30 22639 H 2189.2 0.385648 4.32082 0
M  V30 22640 H 2189.87 -0.781112 5.46445 0
M  V30 22641 H 2192.35 -1.72696 3.7857 0
M  V30 22642 H 2191.22 -2.67473 4.79322 0
M  V30 22643 H 2191.49 -3.13419 3.11803 0
M  V30 22644 N 2190.54 -1.55222 -0.272728 0
M  V30 22645 C 2191.45 -1.91218 -1.35915 0
M  V30 22646 C 2192.47 -0.809463 -1.54025 0
M  V30 22647 O 2193.65 -1.10855 -1.68146 0
M  V30 22648 C 2190.71 -2.17698 -2.69831 0
M  V30 22649 C 2189.77 -3.41258 -2.60464 0
M  V30 22650 C 2189.01 -3.66465 -3.87994 0
M  V30 22651 O 2189.23 -2.94178 -4.88688 0
M  V30 22652 O 2188.16 -4.59999 -3.88181 0
M  V30 22653 H 2191.99 -2.83701 -1.08385 0
M  V30 22654 H 2189.57 -1.41772 -0.471276 0
M  V30 22655 H 2191.46 -2.36153 -3.49012 0
M  V30 22656 H 2190.13 -1.28397 -2.97146 0
M  V30 22657 H 2189.04 -3.28137 -1.79657 0
M  V30 22658 H 2190.37 -4.30778 -2.38098 0
M  V30 22659 N 2192.02 0.537252 -1.4816 0
M  V30 22660 C 2192.97 1.64253 -1.62141 0
M  V30 22661 C 2193.94 1.59496 -0.463696 0
M  V30 22662 O 2195.12 1.78031 -0.686272 0
M  V30 22663 C 2192.26 3.02534 -1.66033 0
M  V30 22664 C 2191.38 3.17579 -2.9286 0
M  V30 22665 C 2190.51 4.46377 -2.8796 0
M  V30 22666 C 2189.55 4.54925 -4.09524 0
M  V30 22667 N 2188.69 5.75102 -4.02743 0
M  V30 22668 H 2193.53 1.51643 -2.56532 0
M  V30 22669 H 2191.07 0.738391 -1.27225 0
M  V30 22670 H 2193.02 3.82635 -1.66272 0
M  V30 22671 H 2191.65 3.13933 -0.751387 0
M  V30 22672 H 2190.71 2.30779 -3.02399 0
M  V30 22673 H 2192.02 3.19757 -3.82827 0
M  V30 22674 H 2191.17 5.3476 -2.8656 0
M  V30 22675 H 2189.91 4.46709 -1.9571 0
M  V30 22676 H 2188.92 3.6495 -4.11208 0
M  V30 22677 H 2190.14 4.56337 -5.02925 0
M  V30 22678 H 2188.09 5.76345 -3.13309 0
M  V30 22679 H 2188 5.78743 -4.86408 0
M  V30 22680 H 2189.27 6.65792 -4.0539 0
M  V30 22681 N 2193.5 1.36626 0.785562 0
M  V30 22682 C 2194.45 1.31267 1.89836 0
M  V30 22683 C 2195.42 0.180662 1.65115 0
M  V30 22684 O 2196.6 0.367802 1.87221 0
M  V30 22685 C 2193.74 1.11168 3.26704 0
M  V30 22686 C 2192.86 2.33478 3.63472 0
M  V30 22687 C 2191.99 2.06361 4.89478 0
M  V30 22688 C 2191.03 3.24611 5.18935 0
M  V30 22689 N 2190.17 2.97134 6.36126 0
M  V30 22690 H 2195.01 2.26416 1.93752 0
M  V30 22691 H 2192.54 1.12526 0.947434 0
M  V30 22692 H 2194.5 0.975408 4.05637 0
M  V30 22693 H 2193.13 0.196731 3.222 0
M  V30 22694 H 2192.18 2.57896 2.79632 0
M  V30 22695 H 2193.5 3.21711 3.81187 0
M  V30 22696 H 2192.65 1.89685 5.76285 0
M  V30 22697 H 2191.39 1.15446 4.73839 0
M  V30 22698 H 2190.39 3.41842 4.30609 0
M  V30 22699 H 2191.62 4.16358 5.36491 0
M  V30 22700 H 2189.56 2.08834 6.21872 0
M  V30 22701 H 2189.48 3.78906 6.54191 0
M  V30 22702 H 2190.75 2.84046 7.25905 0
M  V30 22703 N 2194.98 -1.01016 1.20969 0
M  V30 22704 C 2196.21 -1.78301 1.04959 0
M  V30 22705 C 2196.62 -1.84495 -0.400883 0
M  V30 22706 O 2195.98 -1.30259 -1.27823 0
M  V30 22707 C 2196.03 -3.22459 1.63409 0
M  V30 22708 O 2195.75 -3.16632 3.0278 0
M  V30 22709 C 2197.25 -4.16266 1.52439 0
M  V30 22710 H 2194.47 -0.560515 0.368868 0
M  V30 22711 H 2197.02 -1.27113 1.60195 0
M  V30 22712 H 2195.17 -3.70773 1.12276 0
M  V30 22713 H 2195.58 -4.07164 3.30633 0
M  V30 22714 H 2197.06 -5.15233 1.98087 0
M  V30 22715 H 2197.54 -4.36592 0.477952 0
M  V30 22716 H 2198.14 -3.73838 2.02794 0
M  V30 22717 N 2196.46 -1.01661 -1.20428 0
M  V30 22718 C 2197.87 -0.731467 -1.41851 0
M  V30 22719 C 2198.07 0.688865 -1.89359 0
M  V30 22720 O 2197.13 1.45662 -2.06249 0
M  V30 22721 C 2198.44 -1.75718 -2.44016 0
M  V30 22722 C 2199.99 -1.77532 -2.57782 0
M  V30 22723 C 2200.46 -2.7903 -3.63189 0
M  V30 22724 N 2201.96 -2.7777 -3.70673 0
M  V30 22725 C 2202.69 -3.52962 -4.51891 0
M  V30 22726 N 2202.19 -4.3783 -5.36914 0
M  V30 22727 N 2203.98 -3.41559 -4.46424 0
M  V30 22728 H 2196.13 -1.93355 -0.879059 0
M  V30 22729 H 2198.39 -0.835244 -0.448411 0
M  V30 22730 H 2198.1 -2.77473 -2.16105 0
M  V30 22731 H 2197.97 -1.56933 -3.43004 0
M  V30 22732 H 2200.36 -0.764619 -2.85022 0
M  V30 22733 H 2200.44 -2.0039 -1.58989 0
M  V30 22734 H 2200.09 -3.80264 -3.36693 0
M  V30 22735 H 2200.02 -2.53433 -4.61605 0
M  V30 22736 H 2202.51 -2.16206 -3.09941 0
M  V30 22737 H 2202.82 -4.91973 -5.95972 0
M  V30 22738 H 2201.16 -4.41908 -5.36416 0
M  V30 22739 H 2204.36 -2.74679 -3.79037 0
M  V30 22740 H 2204.53 -4.00413 -5.09484 0
M  V30 22741 N 2197.93 1.36205 -0.792844 0
M  V30 22742 C 2198.88 2.30003 -0.191693 0
M  V30 22743 C 2199.85 1.52145 0.666426 0
M  V30 22744 O 2201.04 1.80638 0.614388 0
M  V30 22745 C 2198.18 3.38636 0.664788 0
M  V30 22746 C 2197.29 4.31478 -0.212251 0
M  V30 22747 C 2196.42 5.27197 0.650929 0
M  V30 22748 C 2195.46 6.11678 -0.227354 0
M  V30 22749 N 2194.6 6.99574 0.595004 0
M  V30 22750 H 2199.44 2.80826 -0.997027 0
M  V30 22751 H 2196.98 1.38224 -0.503231 0
M  V30 22752 H 2198.94 4.00271 1.17638 0
M  V30 22753 H 2197.57 2.89124 1.43552 0
M  V30 22754 H 2196.62 3.70968 -0.841842 0
M  V30 22755 H 2197.93 4.90817 -0.888837 0
M  V30 22756 H 2197.08 5.94138 1.2282 0
M  V30 22757 H 2195.82 4.68321 1.36113 0
M  V30 22758 H 2194.83 5.43696 -0.817 0
M  V30 22759 H 2196.05 6.7263 -0.935208 0
M  V30 22760 H 2194 6.43203 1.28943 0
M  V30 22761 H 2193.92 7.55996 -0.0238281 0
M  V30 22762 H 2195.18 7.70881 1.15599 0
M  V30 22763 N 2199.41 0.545154 1.47871 0
M  V30 22764 C 2200.66 0.016646 2.02793 0
M  V30 22765 C 2200.99 -1.32487 1.41989 0
M  V30 22766 O 2200.27 -1.85927 0.571078 0
M  V30 22767 C 2200.55 -0.0892662 3.59989 0
M  V30 22768 C 2200.4 1.27849 4.31248 0
M  V30 22769 C 2201.72 -0.808648 4.32607 0
M  V30 22770 H 2198.84 0.00752331 0.736962 0
M  V30 22771 H 2201.48 0.705116 1.76432 0
M  V30 22772 H 2199.63 -0.675614 3.8258 0
M  V30 22773 H 2201.3 1.90711 4.20032 0
M  V30 22774 H 2199.55 1.85639 3.92072 0
M  V30 22775 H 2200.22 1.15722 5.39734 0
M  V30 22776 H 2202.69 -0.310919 4.14937 0
M  V30 22777 H 2201.57 -0.851686 5.42252 0
M  V30 22778 H 2201.83 -1.86222 4.00966 0
M  V30 22779 N 2200.89 -1.55074 0.28101 0
M  V30 22780 C 2202.14 -2.00745 -0.327538 0
M  V30 22781 C 2202.49 -1.166 -1.53043 0
M  V30 22782 O 2201.78 -0.229484 -1.90221 0
M  V30 22783 C 2201.98 -3.49343 -0.754595 0
M  V30 22784 C 2201.81 -4.47869 0.405369 0
M  V30 22785 C 2200.58 -4.97382 0.891034 0
M  V30 22786 C 2202.78 -4.99033 1.2438 0
M  V30 22787 N 2200.76 -5.7972 2.01985 0
M  V30 22788 C 2202.13 -5.78876 2.22041 0
M  V30 22789 C 2204.18 -4.8126 1.27646 0
M  V30 22790 C 2202.89 -6.42841 3.22721 0
M  V30 22791 C 2204.91 -5.46027 2.27174 0
M  V30 22792 C 2204.27 -6.25687 3.23567 0
M  V30 22793 H 2200.37 -0.777382 -0.0848637 0
M  V30 22794 H 2202.96 -1.90412 0.406375 0
M  V30 22795 H 2201.13 -3.60007 -1.45772 0
M  V30 22796 H 2202.86 -3.81837 -1.34098 0
M  V30 22797 H 2199.62 -4.71269 0.469345 0
M  V30 22798 H 2200.04 -6.25579 2.58805 0
M  V30 22799 H 2204.68 -4.19273 0.54501 0
M  V30 22800 H 2202.4 -7.03973 3.96796 0
M  V30 22801 H 2205.99 -5.34213 2.3045 0
M  V30 22802 H 2204.87 -6.74917 3.99321 0
M  V30 22803 N 2202.37 -0.00838561 -1.57598 0
M  V30 22804 C 2203.33 0.965206 -2.07886 0
M  V30 22805 C 2204.33 1.26723 -0.989847 0
M  V30 22806 O 2205.52 1.21101 -1.2522 0
M  V30 22807 C 2202.65 2.28775 -2.52735 0
M  V30 22808 H 2203.85 0.53006 -2.95179 0
M  V30 22809 H 2201.4 0.239256 -1.54458 0
M  V30 22810 H 2202.14 2.76961 -1.6871 0
M  V30 22811 H 2201.92 2.08172 -3.32276 0
M  V30 22812 H 2203.41 2.986 -2.91938 0
M  V30 22813 N 2203.85 1.55365 0.264492 0
M  V30 22814 C 2205.1 1.76023 0.99299 0
M  V30 22815 C 2205.42 0.569132 1.8651 0
M  V30 22816 O 2204.69 -0.415701 1.91439 0
M  V30 22817 H 2203.27 0.649141 0.369627 0
M  V30 22818 H 2205.93 1.9278 0.286673 0
M  V30 22819 H 2205.02 2.6646 1.62498 0
M  V30 22820 N 2205.33 -0.529387 1.48443 0
M  V30 22821 C 2206.27 -1.63391 1.63009 0
M  V30 22822 C 2207.24 -1.59248 0.472148 0
M  V30 22823 O 2208.43 -1.77664 0.695704 0
M  V30 22824 C 2205.57 -3.0165 1.67635 0
M  V30 22825 C 2204.68 -3.16022 2.94541 0
M  V30 22826 C 2203.82 -4.44844 2.90323 0
M  V30 22827 C 2202.85 -4.52747 4.11931 0
M  V30 22828 N 2201.99 -5.72958 4.05788 0
M  V30 22829 H 2206.83 -1.5028 2.57332 0
M  V30 22830 H 2204.37 -0.731634 1.27615 0
M  V30 22831 H 2206.33 -3.81748 1.68299 0
M  V30 22832 H 2204.96 -3.1353 0.768025 0
M  V30 22833 H 2204.01 -2.29172 3.03619 0
M  V30 22834 H 2205.32 -3.17723 3.84518 0
M  V30 22835 H 2204.47 -5.33233 2.89391 0
M  V30 22836 H 2203.21 -4.45665 1.98076 0
M  V30 22837 H 2202.22 -3.62764 4.13137 0
M  V30 22838 H 2203.44 -4.53663 5.05338 0
M  V30 22839 H 2201.39 -5.74675 3.16361 0
M  V30 22840 H 2201.31 -5.76155 4.8947 0
M  V30 22841 H 2202.57 -6.63633 4.08915 0
M  V30 22842 N 2206.8 -1.37041 -0.778305 0
M  V30 22843 C 2208.05 -1.31887 -1.53662 0
M  V30 22844 C 2208.38 0.0985962 -1.9425 0
M  V30 22845 O 2207.63 1.07038 -1.63834 0
M  V30 22846 C 2207.93 -2.19773 -2.81842 0
M  V30 22847 C 2207.6 -3.6815 -2.60338 0
M  V30 22848 C 2206.26 -4.08589 -2.54182 0
M  V30 22849 C 2208.61 -4.62179 -2.40915 0
M  V30 22850 C 2205.94 -5.41181 -2.26584 0
M  V30 22851 C 2208.29 -5.95001 -2.14842 0
M  V30 22852 C 2206.96 -6.34551 -2.07126 0
M  V30 22853 H 2206.23 -0.482608 -0.562291 0
M  V30 22854 H 2208.87 -1.69191 -0.897039 0
M  V30 22855 H 2207.18 -1.75442 -3.50325 0
M  V30 22856 H 2208.88 -2.13103 -3.39688 0
M  V30 22857 H 2205.47 -3.36076 -2.6599 0
M  V30 22858 H 2209.65 -4.31802 -2.44665 0
M  V30 22859 H 2204.91 -5.70793 -2.19101 0
M  V30 22860 H 2209.08 -6.67418 -1.9881 0
M  V30 22861 H 2206.71 -7.37219 -1.85505 0
M  V30 22862 N 2208.28 1.00373 -1.21503 0
M  V30 22863 C 2209.53 1.74169 -1.03302 0
M  V30 22864 C 2209.86 1.89612 0.433293 0
M  V30 22865 O 2209.11 1.42837 1.33777 0
M  V30 22866 C 2209.41 3.15624 -1.67679 0
M  V30 22867 C 2209.08 3.20125 -3.17539 0
M  V30 22868 C 2207.74 3.2106 -3.58432 0
M  V30 22869 C 2210.09 3.17268 -4.1351 0
M  V30 22870 C 2207.42 3.16826 -4.938 0
M  V30 22871 C 2209.77 3.14575 -5.4884 0
M  V30 22872 C 2208.43 3.13821 -5.89129 0
M  V30 22873 H 2207.7 0.63733 -0.378011 0
M  V30 22874 H 2210.35 1.17632 -1.51113 0
M  V30 22875 H 2208.66 3.75402 -1.12165 0
M  V30 22876 H 2210.35 3.71444 -1.51098 0
M  V30 22877 H 2206.94 3.2014 -2.84971 0
M  V30 22878 H 2211.13 3.15704 -3.82942 0
M  V30 22879 H 2206.38 3.14581 -5.2426 0
M  V30 22880 H 2210.56 3.11319 -6.22939 0
M  V30 22881 H 2208.18 3.10294 -6.93989 0
M  V30 22882 N 2209.76 1.02298 1.19887 0
M  V30 22883 C 2210.71 0.598691 2.229 0
M  V30 22884 C 2211.68 -0.384492 1.61589 0
M  V30 22885 O 2212.86 -0.282489 1.88697 0
M  V30 22886 C 2210 -0.0503869 3.45063 0
M  V30 22887 C 2209.11 0.978127 4.20781 0
M  V30 22888 C 2208.25 0.299432 5.30355 0
M  V30 22889 C 2207.29 1.31426 5.97824 0
M  V30 22890 N 2206.43 0.66179 6.98974 0
M  V30 22891 H 2211.27 1.48173 2.58551 0
M  V30 22892 H 2208.8 0.741606 1.27038 0
M  V30 22893 H 2210.76 -0.443898 4.14832 0
M  V30 22894 H 2209.39 -0.897042 3.10085 0
M  V30 22895 H 2208.44 1.48975 3.50015 0
M  V30 22896 H 2209.75 1.74967 4.67106 0
M  V30 22897 H 2208.91 -0.14924 6.06516 0
M  V30 22898 H 2207.65 -0.50436 4.85085 0
M  V30 22899 H 2206.65 1.77326 5.20419 0
M  V30 22900 H 2207.88 2.11945 6.45179 0
M  V30 22901 H 2205.82 -0.122017 6.55887 0
M  V30 22902 H 2205.74 1.3713 7.43459 0
M  V30 22903 H 2207.01 0.236922 7.7914 0
M  V30 22904 N 2211.24 -1.35782 0.800057 0
M  V30 22905 C 2212.2 -2.28221 0.211605 0
M  V30 22906 C 2213.2 -1.49297 -0.597254 0
M  V30 22907 O 2214.39 -1.69143 -0.416692 0
M  V30 22908 C 2211.52 -3.33514 -0.705787 0
M  V30 22909 H 2212.72 -2.81774 1.02682 0
M  V30 22910 H 2210.27 -1.45527 0.570236 0
M  V30 22911 H 2211 -2.85136 -1.54493 0
M  V30 22912 H 2210.79 -3.91892 -0.127586 0
M  V30 22913 H 2212.28 -4.02521 -1.11204 0
M  V30 22914 N 2212.72 -0.552988 -1.4758 0
M  V30 22915 C 2213.95 -0.0320454 -2.06575 0
M  V30 22916 C 2214.35 1.26522 -1.40673 0
M  V30 22917 O 2213.7 1.76882 -0.495839 0
M  V30 22918 C 2213.76 0.23885 -3.58706 0
M  V30 22919 C 2213.42 -0.968351 -4.46623 0
M  V30 22920 C 2214.42 -1.87282 -4.84996 0
M  V30 22921 C 2212.1 -1.18183 -4.88199 0
M  V30 22922 C 2214.1 -2.9745 -5.6374 0
M  V30 22923 C 2211.79 -2.28661 -5.66708 0
M  V30 22924 C 2212.78 -3.18125 -6.04388 0
M  V30 22925 O 2212.47 -4.26688 -6.81317 0
M  V30 22926 H 2212.2 -0.0408808 -0.674763 0
M  V30 22927 H 2214.76 -0.764753 -1.90632 0
M  V30 22928 H 2212.99 1.02582 -3.72846 0
M  V30 22929 H 2214.68 0.704661 -3.99737 0
M  V30 22930 H 2215.44 -1.71992 -4.53479 0
M  V30 22931 H 2211.32 -0.494674 -4.58338 0
M  V30 22932 H 2214.87 -3.67306 -5.9307 0
M  V30 22933 H 2210.76 -2.43925 -5.97638 0
M  V30 22934 H 2211.53 -4.24683 -6.99705 0
M  V30 22935 N 2214.19 1.54923 -0.28923 0
M  V30 22936 C 2215.42 2.0477 0.329263 0
M  V30 22937 C 2215.84 1.16566 1.47628 0
M  V30 22938 O 2215.2 0.167218 1.80527 0
M  V30 22939 C 2215.25 3.52187 0.774376 0
M  V30 22940 O 2214.35 3.6704 1.88031 0
M  V30 22941 H 2213.69 0.66072 0.0659143 0
M  V30 22942 H 2216.22 2.00081 -0.427645 0
M  V30 22943 H 2216.23 3.93818 1.06635 0
M  V30 22944 H 2214.91 4.1585 -0.0647438 0
M  V30 22945 H 2213.49 3.37313 1.58979 0
M  V30 22946 N 2215.67 0.0167433 1.57591 0
M  V30 22947 C 2216.63 -0.954167 2.08395 0
M  V30 22948 C 2217.63 -1.26196 0.996553 0
M  V30 22949 O 2218.82 -1.20436 1.25861 0
M  V30 22950 C 2215.96 -2.27431 2.53944 0
M  V30 22951 H 2217.15 -0.514399 2.95455 0
M  V30 22952 H 2214.7 -0.231062 1.54583 0
M  V30 22953 H 2215.44 -2.76063 1.70176 0
M  V30 22954 H 2215.22 -2.06406 3.33375 0
M  V30 22955 H 2216.71 -2.97048 2.93517 0
M  V30 22956 N 2217.15 -1.55503 -0.256249 0
M  V30 22957 C 2218.1 -1.89528 -1.3171 0
M  V30 22958 C 2219.07 -0.748505 -1.48279 0
M  V30 22959 O 2220.25 -1.00131 -1.62414 0
M  V30 22960 C 2217.39 -2.1873 -2.66929 0
M  V30 22961 C 2216.51 -3.46165 -2.58445 0
M  V30 22962 C 2215.64 -3.64982 -3.85955 0
M  V30 22963 C 2214.68 -4.86051 -3.7205 0
M  V30 22964 N 2213.82 -5.01438 -4.91431 0
M  V30 22965 H 2218.66 -2.80003 -1.01993 0
M  V30 22966 H 2216.19 -1.38614 -0.492389 0
M  V30 22967 H 2218.15 -2.33663 -3.45626 0
M  V30 22968 H 2216.78 -1.31471 -2.94814 0
M  V30 22969 H 2215.83 -3.39613 -1.71368 0
M  V30 22970 H 2217.15 -4.35003 -2.44077 0
M  V30 22971 H 2216.3 -3.79824 -4.73095 0
M  V30 22972 H 2215.04 -2.7436 -4.0321 0
M  V30 22973 H 2214.04 -4.71195 -2.83294 0
M  V30 22974 H 2215.27 -5.78125 -3.56299 0
M  V30 22975 H 2213.21 -4.1375 -5.09065 0
M  V30 22976 H 2213.13 -5.8435 -4.79658 0
M  V30 22977 H 2214.4 -5.20682 -5.80095 0
M  V30 22978 N 2218.63 0.521507 -1.48721 0
M  V30 22979 C 2219.54 1.652 -1.66572 0
M  V30 22980 C 2220.55 1.65138 -0.548226 0
M  V30 22981 O 2221.73 1.83934 -0.820371 0
M  V30 22982 C 2218.8 3.01639 -1.70923 0
M  V30 22983 C 2217.86 3.1249 -2.94361 0
M  V30 22984 C 2217.09 4.42421 -2.98495 0
M  V30 22985 O 2217.31 5.3002 -2.10796 0
M  V30 22986 O 2216.25 4.57815 -3.90754 0
M  V30 22987 H 2220.07 1.53075 -2.62301 0
M  V30 22988 H 2217.66 0.695541 -1.32222 0
M  V30 22989 H 2219.54 3.82768 -1.76256 0
M  V30 22990 H 2218.21 3.1407 -0.783688 0
M  V30 22991 H 2217.12 2.30625 -2.94556 0
M  V30 22992 H 2218.45 3.04979 -3.86327 0
M  V30 22993 N 2220.11 1.37452 0.771027 0
M  V30 22994 C 2221.05 1.33273 1.88433 0
M  V30 22995 C 2222.02 0.198165 1.64914 0
M  V30 22996 O 2223.21 0.387639 1.86821 0
M  V30 22997 C 2220.35 1.14627 3.25507 0
M  V30 22998 C 2219.46 2.3732 3.60975 0
M  V30 22999 C 2218.6 2.11541 4.87261 0
M  V30 23000 C 2217.64 3.30097 5.15463 0
M  V30 23001 N 2216.77 3.03864 6.32938 0
M  V30 23002 H 2221.61 2.28458 1.9134 0
M  V30 23003 H 2219.15 1.13525 0.935446 0
M  V30 23004 H 2221.11 1.01838 4.0458 0
M  V30 23005 H 2219.74 0.230893 3.21973 0
M  V30 23006 H 2218.79 2.60847 2.76881 0
M  V30 23007 H 2220.1 3.25736 3.77754 0
M  V30 23008 H 2219.26 1.95787 5.74241 0
M  V30 23009 H 2217.99 1.20465 4.72588 0
M  V30 23010 H 2217 3.46389 4.26959 0
M  V30 23011 H 2218.22 4.22025 5.32045 0
M  V30 23012 H 2216.17 2.15418 6.19622 0
M  V30 23013 H 2216.09 3.85823 6.50136 0
M  V30 23014 H 2217.36 2.91729 7.22852 0
M  V30 23015 N 2221.58 -0.997276 1.22033 0
M  V30 23016 C 2222.49 -2.1209 1.00275 0
M  V30 23017 C 2223.51 -1.73935 -0.0475905 0
M  V30 23018 O 2224.69 -2.00883 0.144171 0
M  V30 23019 C 2221.75 -3.41839 0.578509 0
M  V30 23020 C 2220.81 -3.94122 1.70196 0
M  V30 23021 C 2220.05 -5.17679 1.29787 0
M  V30 23022 O 2220.27 -5.70132 0.174776 0
M  V30 23023 O 2219.2 -5.63603 2.11271 0
M  V30 23024 H 2223.03 -2.33327 1.94402 0
M  V30 23025 H 2220.61 -1.10464 1.00589 0
M  V30 23026 H 2222.5 -4.19927 0.352072 0
M  V30 23027 H 2221.17 -3.21973 -0.333962 0
M  V30 23028 H 2220.08 -3.17227 1.98287 0
M  V30 23029 H 2221.41 -4.18413 2.59213 0
M  V30 23030 N 2223.06 -1.02932 -1.19343 0
M  V30 23031 C 2224.01 -0.604041 -2.2462 0
M  V30 23032 C 2225 0.363558 -1.65453 0
M  V30 23033 O 2226.21 0.232088 -1.78497 0
M  V30 23034 H 2222.59 -0.177073 -0.730855 0
M  V30 23035 H 2224.56 -1.50259 -2.57808 0
M  V30 23036 C 2223.31 0.0288516 -3.47688 0
M  V30 23037 H 2222.63 -0.70672 -3.93504 0
M  V30 23038 H 2224.07 0.289358 -4.23011 0
M  V30 23039 C 2222.53 1.27555 -3.11819 0
M  V30 23040 O 2223.06 2.36756 -3.24514 0
M  V30 23041 N 2221.26 1.16448 -2.66248 0
M  V30 23042 H 2220.81 0.275869 -2.56119 0
M  V30 23043 H 2220.77 1.99957 -2.4262 0
M  V30 23044 N 2224.54 1.35356 -0.807246 0
M  V30 23045 C 2225.79 1.98003 -0.384411 0
M  V30 23046 C 2226.1 1.64756 1.05427 0
M  V30 23047 O 2227.31 2.20772 1.58025 0
M  V30 23048 C 2225.76 3.54229 -0.636389 0
M  V30 23049 C 2225.37 3.96385 -2.08766 0
M  V30 23050 C 2227.12 4.23583 -0.278943 0
M  V30 23051 C 2225.02 5.45459 -2.28535 0
M  V30 23052 H 2223.95 0.740889 -0.139999 0
M  V30 23053 H 2226.6 1.54414 -0.991396 0
M  V30 23054 H 2224.99 3.95979 0.040556 0
M  V30 23055 H 2226.16 3.65785 -2.80247 0
M  V30 23056 H 2224.48 3.39922 -2.40503 0
M  V30 23057 H 2227.07 5.33166 -0.404693 0
M  V30 23058 H 2227.42 4.09024 0.77494 0
M  V30 23059 H 2227.95 3.87256 -0.909832 0
M  V30 23060 H 2224.69 5.64986 -3.32371 0
M  V30 23061 H 2224.21 5.77626 -1.61579 0
M  V30 23062 H 2225.89 6.1193 -2.1012 0
M  V30 23063 N 2226.02 0.560807 1.47284 0
M  V30 23064 C 2227.43 0.220837 1.58065 0
M  V30 23065 C 2227.63 -1.27668 1.55894 0
M  V30 23066 O 2226.69 -2.05708 1.46426 0
M  V30 23067 C 2228 0.850676 2.88416 0
M  V30 23068 C 2229.55 0.822237 3.02007 0
M  V30 23069 C 2230.03 1.43121 4.35064 0
M  V30 23070 N 2231.52 1.39456 4.41708 0
M  V30 23071 C 2232.25 1.83534 5.43234 0
M  V30 23072 N 2231.75 2.35485 6.51551 0
M  V30 23073 N 2233.54 1.74583 5.34301 0
M  V30 23074 H 2225.69 1.53371 1.46939 0
M  V30 23075 H 2227.96 0.639795 0.699547 0
M  V30 23076 H 2227.66 1.90326 2.95752 0
M  V30 23077 H 2227.54 0.345839 3.75611 0
M  V30 23078 H 2229.92 -0.221663 2.94266 0
M  V30 23079 H 2230 1.36487 2.16345 0
M  V30 23080 H 2229.65 2.4742 4.43561 0
M  V30 23081 H 2229.58 0.86399 5.19464 0
M  V30 23082 H 2232.07 1.01459 3.64026 0
M  V30 23083 H 2232.38 2.67034 7.25198 0
M  V30 23084 H 2230.73 2.39498 6.5243 0
M  V30 23085 H 2233.92 1.33771 4.48579 0
M  V30 23086 H 2234.09 2.09253 6.13284 0
M  V30 23087 N 2227.5 -1.54768 0.297442 0
M  V30 23088 C 2228.43 -2.20827 -0.613842 0
M  V30 23089 C 2229.44 -1.19989 -1.1003 0
M  V30 23090 O 2230.63 -1.466 -1.01836 0
M  V30 23091 C 2227.73 -2.83824 -1.85195 0
M  V30 23092 C 2226.9 -4.10561 -1.50858 0
M  V30 23093 C 2225.96 -4.57395 -2.60146 0
M  V30 23094 O 2224.99 -5.22674 -2.25389 0
M  V30 23095 N 2226.19 -4.29413 -3.90621 0
M  V30 23096 H 2228.96 -2.99661 -0.0483364 0
M  V30 23097 H 2226.52 -1.61458 0.119488 0
M  V30 23098 H 2228.51 -3.1209 -2.57647 0
M  V30 23099 H 2227.08 -2.08852 -2.32594 0
M  V30 23100 H 2226.3 -3.89344 -0.616857 0
M  V30 23101 H 2227.59 -4.93092 -1.2545 0
M  V30 23102 H 2226.98 -3.77108 -4.21671 0
M  V30 23103 H 2225.54 -4.62396 -4.59383 0
M  V30 23104 N 2228.97 -0.0251005 -1.5758 0
M  V30 23105 C 2229.88 0.973867 -2.13431 0
M  V30 23106 C 2230.9 1.35982 -1.08559 0
M  V30 23107 O 2232.08 1.44205 -1.40595 0
M  V30 23108 C 2229.14 2.23899 -2.64707 0
M  V30 23109 C 2228.2 1.91384 -3.84279 0
M  V30 23110 C 2227.44 3.11865 -4.331 0
M  V30 23111 O 2227.66 4.24391 -3.81115 0
M  V30 23112 O 2226.59 2.94397 -5.24989 0
M  V30 23113 H 2230.42 0.528984 -2.99058 0
M  V30 23114 H 2228 0.195262 -1.48118 0
M  V30 23115 H 2229.89 2.98176 -2.97774 0
M  V30 23116 H 2228.56 2.67576 -1.82166 0
M  V30 23117 H 2227.47 1.14505 -3.56145 0
M  V30 23118 H 2228.8 1.52526 -4.67971 0
M  V30 23119 N 2230.45 1.55637 0.247999 0
M  V30 23120 C 2231.7 1.76619 0.974103 0
M  V30 23121 C 2232.01 0.588829 1.86527 0
M  V30 23122 O 2233.22 0.681641 2.62804 0
M  V30 23123 C 2231.68 3.12682 1.78207 0
M  V30 23124 C 2231.28 4.38063 0.938353 0
M  V30 23125 C 2233.03 3.43004 2.50098 0
M  V30 23126 C 2230.94 5.65158 1.74215 0
M  V30 23127 H 2229.87 0.658411 0.367438 0
M  V30 23128 H 2232.52 1.82068 0.228808 0
M  V30 23129 H 2230.9 3.01337 2.56928 0
M  V30 23130 H 2232.07 4.60393 0.193554 0
M  V30 23131 H 2230.39 4.15068 0.332832 0
M  V30 23132 H 2232.98 4.35176 3.10687 0
M  V30 23133 H 2233.33 2.64277 3.21657 0
M  V30 23134 H 2233.86 3.55559 1.78388 0
M  V30 23135 H 2230.6 6.46703 1.07031 0
M  V30 23136 H 2230.12 5.46931 2.46226 0
M  V30 23137 H 2231.8 6.04374 2.30956 0
M  V30 23138 N 2231.93 -0.513613 1.48996 0
M  V30 23139 C 2233.16 -1.29759 1.61794 0
M  V30 23140 C 2233.58 -1.85936 0.284508 0
M  V30 23141 O 2232.94 -1.65234 -0.746156 0
M  V30 23142 C 2232.99 -2.41268 2.67997 0
M  V30 23143 O 2232.09 -3.44768 2.26294 0
M  V30 23144 H 2231.43 -0.383621 0.54197 0
M  V30 23145 H 2233.96 -0.616273 1.95098 0
M  V30 23146 H 2233.97 -2.87216 2.89777 0
M  V30 23147 H 2232.65 -1.99743 3.64795 0
M  V30 23148 H 2231.22 -3.04825 2.14793 0
M  V30 23149 N 2233.41 -1.37859 -0.763727 0
M  V30 23150 C 2234.66 -1.3283 -1.51786 0
M  V30 23151 C 2234.97 0.0823376 -1.95427 0
M  V30 23152 O 2236.18 0.255124 -2.70299 0
M  V30 23153 C 2234.63 -2.33198 -2.74129 0
M  V30 23154 C 2234.24 -3.79831 -2.37555 0
M  V30 23155 C 2235.99 -2.37195 -3.5205 0
M  V30 23156 C 2233.89 -4.7191 -3.56448 0
M  V30 23157 H 2232.82 -0.493705 -0.569887 0
M  V30 23158 H 2235.47 -1.63361 -0.835793 0
M  V30 23159 H 2233.86 -1.95696 -3.44266 0
M  V30 23160 H 2235.03 -4.26215 -1.7515 0
M  V30 23161 H 2233.34 -3.78856 -1.72791 0
M  V30 23162 H 2235.94 -3.0319 -4.40432 0
M  V30 23163 H 2236.28 -1.38789 -3.92484 0
M  V30 23164 H 2236.82 -2.73445 -2.88917 0
M  V30 23165 H 2233.56 -5.71474 -3.21089 0
M  V30 23166 H 2233.08 -4.30225 -4.17931 0
M  V30 23167 H 2234.76 -4.89433 -4.23159 0
M  V30 23168 N 2234.89 0.990791 -1.22561 0
M  V30 23169 C 2235.82 2.07904 -0.94081 0
M  V30 23170 C 2236.8 1.62178 0.117054 0
M  V30 23171 O 2237.98 1.88494 -0.0149837 0
M  V30 23172 C 2235.11 3.36143 -0.41538 0
M  V30 23173 C 2234.16 4.00796 -1.45825 0
M  V30 23174 S 2234.99 4.41377 -3.03227 0
M  V30 23175 C 2236.14 5.72784 -2.52327 0
M  V30 23176 H 2236.38 2.31742 -1.86234 0
M  V30 23177 H 2233.91 1.12556 -1.0569 0
M  V30 23178 H 2235.87 4.10328 -0.118819 0
M  V30 23179 H 2234.53 3.10332 0.485066 0
M  V30 23180 H 2233.72 4.93142 -1.04053 0
M  V30 23181 H 2233.32 3.32946 -1.70362 0
M  V30 23182 H 2235.62 6.4922 -1.937 0
M  V30 23183 H 2236.56 6.19386 -3.43172 0
M  V30 23184 H 2236.97 5.30286 -1.93539 0
M  V30 23185 N 2236.37 1.03564 1.18795 0
M  V30 23186 C 2237.31 0.615945 2.24296 0
M  V30 23187 C 2238.31 -0.354779 1.65643 0
M  V30 23188 O 2239.51 -0.222619 1.78618 0
M  V30 23189 H 2235.89 0.180947 0.729906 0
M  V30 23190 H 2237.86 1.51624 2.57007 0
M  V30 23191 C 2236.61 -0.0104124 3.47698 0
M  V30 23192 H 2235.93 0.727578 3.93124 0
M  V30 23193 H 2237.37 -0.266921 4.23159 0
M  V30 23194 C 2235.83 -1.25899 3.12491 0
M  V30 23195 O 2236.36 -2.35032 3.25765 0
M  V30 23196 N 2234.57 -1.15034 2.66862 0
M  V30 23197 H 2234.11 -0.262283 2.56261 0
M  V30 23198 H 2234.07 -1.98668 2.43677 0
M  V30 23199 N 2237.84 -1.34926 0.814413 0
M  V30 23200 C 2239.08 -2.00364 0.4042 0
M  V30 23201 C 2239.45 -1.63187 -1.01163 0
M  V30 23202 O 2240.65 -2.21403 -1.52427 0
M  V30 23203 C 2238.92 -3.52483 0.59078 0
M  V30 23204 S 2240.48 -4.37955 0.272152 0
M  V30 23205 H 2237.3 -0.694316 0.153122 0
M  V30 23206 H 2239.9 -1.64374 1.05837 0
M  V30 23207 H 2238.6 -3.77028 1.62106 0
M  V30 23208 H 2238.13 -3.93322 -0.0784322 0
M  V30 23209 H 2240.15 -4.87647 -0.917319 0
M  V30 23210 N 2239.32 -0.56861 -1.46985 0
M  V30 23211 C 2240.25 0.160712 -2.32946 0
M  V30 23212 C 2241.23 0.897605 -1.44489 0
M  V30 23213 O 2242.42 0.875836 -1.73328 0
M  V30 23214 C 2239.55 1.18397 -3.26496 0
M  V30 23215 C 2238.5 0.56282 -4.24283 0
M  V30 23216 C 2237.83 1.69154 -5.07239 0
M  V30 23217 C 2239.13 -0.490853 -5.19988 0
M  V30 23218 H 2240.82 -0.556968 -2.94174 0
M  V30 23219 H 2238.37 -0.269295 -1.4146 0
M  V30 23220 H 2240.32 1.70244 -3.8548 0
M  V30 23221 H 2239.04 1.93174 -2.63346 0
M  V30 23222 H 2237.7 0.0655519 -3.66541 0
M  V30 23223 H 2237.35 2.42863 -4.40485 0
M  V30 23224 H 2237.05 1.28164 -5.73452 0
M  V30 23225 H 2238.58 2.21304 -5.69084 0
M  V30 23226 H 2239.99 -0.0580055 -5.73271 0
M  V30 23227 H 2238.39 -0.820269 -5.94467 0
M  V30 23228 H 2239.46 -1.38248 -4.64775 0
M  V30 23229 N 2240.8 1.54608 -0.305646 0
M  V30 23230 C 2241.75 2.20406 0.583556 0
M  V30 23231 C 2242.73 1.17857 1.09537 0
M  V30 23232 O 2243.93 1.43559 1.03537 0
M  V30 23233 C 2241.05 2.95186 1.75272 0
M  V30 23234 C 2240.14 4.05055 1.25665 0
M  V30 23235 N 2240.53 5.03528 0.47891 0
M  V30 23236 C 2238.83 4.1868 1.53697 0
M  V30 23237 C 2239.53 5.81306 0.214167 0
M  V30 23238 N 2238.51 5.37751 0.79528 0
M  V30 23239 H 2242.31 2.93894 -0.0181462 0
M  V30 23240 H 2239.82 1.62023 -0.110629 0
M  V30 23241 H 2241.82 3.40795 2.40134 0
M  V30 23242 H 2240.48 2.23215 2.35808 0
M  V30 23243 H 2241.49 5.17753 0.123382 0
M  V30 23244 H 2238.17 3.57916 2.14947 0
M  V30 23245 H 2239.56 6.70643 -0.410774 0
M  V30 23246 N 2242.28 0.033457 1.57564 0
M  V30 23247 C 2243.23 -0.956201 2.0698 0
M  V30 23248 C 2244.21 -1.28282 0.971216 0
M  V30 23249 O 2245.4 -1.2682 1.23473 0
M  V30 23250 C 2242.53 -2.23714 2.60397 0
M  V30 23251 C 2241.62 -1.9387 3.77194 0
M  V30 23252 N 2242.01 -1.34313 4.87641 0
M  V30 23253 C 2240.31 -2.23838 3.85762 0
M  V30 23254 C 2241.01 -1.21699 5.68827 0
M  V30 23255 N 2239.98 -1.71395 5.15873 0
M  V30 23256 H 2243.79 -0.490764 2.89774 0
M  V30 23257 H 2241.3 -0.171449 1.61492 0
M  V30 23258 H 2243.3 -2.95491 2.94093 0
M  V30 23259 H 2241.96 -2.70881 1.79036 0
M  V30 23260 H 2242.97 -1.01758 5.07805 0
M  V30 23261 H 2239.65 -2.73648 3.15315 0
M  V30 23262 H 2241.04 -0.756092 6.67632 0
M  V30 23263 N 2243.76 -1.55766 -0.239741 0
M  V30 23264 C 2245.17 -1.68299 -0.808234 0
M  V30 23265 C 2245.52 -0.632214 -1.85735 0
M  V30 23266 O 2244.64 0.220166 -2.15277 0
M  V30 23267 C 2245.24 -3.05114 -1.47279 0
M  V30 23268 C 2243.8 -3.19562 -1.98889 0
M  V30 23269 C 2242.94 -2.64191 -0.842528 0
M  V30 23270 H 2245.89 -1.58693 -0.0154143 0
M  V30 23271 H 2245.92 -2.99958 -2.34106 0
M  V30 23272 H 2245.43 -3.81569 -0.708986 0
M  V30 23273 H 2243.53 -2.47943 -2.78128 0
M  V30 23274 H 2243.64 -4.2656 -2.18136 0
M  V30 23275 H 2242.01 -2.22199 -1.24497 0
M  V30 23276 H 2242.79 -3.43178 -0.0916949 0
M  V30 23277 N 2245.23 0.505704 -1.49266 0
M  V30 23278 C 2246.18 1.60777 -1.65588 0
M  V30 23279 C 2247.15 1.58477 -0.497424 0
M  V30 23280 O 2248.34 1.76535 -0.723881 0
M  V30 23281 C 2245.48 2.98945 -1.72413 0
M  V30 23282 C 2244.59 3.11296 -2.99531 0
M  V30 23283 C 2243.72 4.40168 -2.97364 0
M  V30 23284 C 2242.76 4.46136 -4.19082 0
M  V30 23285 N 2241.9 5.6643 -4.14851 0
M  V30 23286 H 2246.74 1.46167 -2.5969 0
M  V30 23287 H 2244.28 0.711239 -1.28763 0
M  V30 23288 H 2246.23 3.79022 -1.74351 0
M  V30 23289 H 2244.86 3.12269 -0.817807 0
M  V30 23290 H 2243.92 2.24312 -3.07226 0
M  V30 23291 H 2245.23 3.11565 -3.89524 0
M  V30 23292 H 2244.38 5.28562 -2.97838 0
M  V30 23293 H 2243.12 4.42457 -2.05141 0
M  V30 23294 H 2242.13 3.56145 -4.18856 0
M  V30 23295 H 2243.35 4.45566 -5.12491 0
M  V30 23296 H 2241.3 5.6957 -3.25463 0
M  V30 23297 H 2241.21 5.68296 -4.98574 0
M  V30 23298 H 2242.48 6.57043 -4.19422 0
M  V30 23299 N 2246.71 1.38262 0.756405 0
M  V30 23300 C 2247.64 1.37979 1.88372 0
M  V30 23301 C 2248.62 0.246111 1.6831 0
M  V30 23302 O 2249.81 0.448773 1.88944 0
M  V30 23303 C 2246.94 1.2013 3.25862 0
M  V30 23304 C 2245.89 2.30673 3.60519 0
M  V30 23305 C 2245.22 1.97932 4.96716 0
M  V30 23306 C 2246.52 3.72923 3.65686 0
M  V30 23307 H 2248.21 2.32315 1.88865 0
M  V30 23308 H 2245.76 1.11825 0.907253 0
M  V30 23309 H 2247.71 1.18559 4.04378 0
M  V30 23310 H 2246.44 0.222555 3.25841 0
M  V30 23311 H 2245.09 2.31425 2.8432 0
M  V30 23312 H 2244.74 0.98548 4.93252 0
M  V30 23313 H 2244.44 2.71965 5.20873 0
M  V30 23314 H 2245.97 1.97974 5.77615 0
M  V30 23315 H 2247.38 3.74216 4.34322 0
M  V30 23316 H 2245.78 4.46137 4.0135 0
M  V30 23317 H 2246.85 4.05441 2.6598 0
M  V30 23318 N 2248.19 -0.984277 1.23084 0
M  V30 23319 C 2249.44 -1.72759 1.06217 0
M  V30 23320 C 2249.77 -1.90024 -0.40055 0
M  V30 23321 O 2249.04 -1.44969 -1.2967 0
M  V30 23322 C 2249.33 -3.12814 1.7838 0
M  V30 23323 C 2249.18 -3.03143 3.32301 0
M  V30 23324 C 2250.5 -4.12159 1.54316 0
M  V30 23325 H 2247.62 -0.627054 0.387262 0
M  V30 23326 H 2250.26 -1.14614 1.51538 0
M  V30 23327 H 2248.41 -3.62454 1.39854 0
M  V30 23328 H 2250.08 -2.61057 3.80325 0
M  V30 23329 H 2248.33 -2.39741 3.61534 0
M  V30 23330 H 2249 -4.02289 3.77979 0
M  V30 23331 H 2251.47 -3.7131 1.87797 0
M  V30 23332 H 2250.35 -5.08254 2.0729 0
M  V30 23333 H 2250.61 -4.39512 0.477649 0
M  V30 23334 N 2249.67 -1.04192 -1.18244 0
M  V30 23335 C 2250.6 -0.592127 -2.21419 0
M  V30 23336 C 2251.61 0.338881 -1.59234 0
M  V30 23337 O 2252.8 0.1332 -1.78002 0
M  V30 23338 C 2249.9 0.154794 -3.38546 0
M  V30 23339 C 2249.08 -0.784403 -4.30309 0
M  V30 23340 C 2248.13 -0.0805508 -5.26138 0
M  V30 23341 O 2247.16 -0.711391 -5.64737 0
M  V30 23342 N 2248.36 1.18564 -5.68263 0
M  V30 23343 H 2251.13 -1.47954 -2.60633 0
M  V30 23344 H 2248.69 -0.922568 -1.33042 0
M  V30 23345 H 2250.68 0.635535 -3.99679 0
M  V30 23346 H 2249.25 0.943758 -2.98013 0
M  V30 23347 H 2248.47 -1.44498 -3.66762 0
M  V30 23348 H 2249.76 -1.42227 -4.88517 0
M  V30 23349 H 2249.16 1.71867 -5.3896 0
M  V30 23350 H 2247.71 1.61063 -6.31587 0
M  V30 23351 N 2251.15 1.34492 -0.821557 0
M  V30 23352 C 2252.39 2.00146 -0.41482 0
M  V30 23353 C 2252.75 1.63721 1.00296 0
M  V30 23354 O 2253.95 2.22209 1.51251 0
M  V30 23355 C 2252.22 3.52165 -0.609465 0
M  V30 23356 S 2253.78 4.37805 -0.295374 0
M  V30 23357 H 2250.6 0.693494 -0.156802 0
M  V30 23358 H 2253.2 1.6381 -1.06707 0
M  V30 23359 H 2251.91 3.76163 -1.64103 0
M  V30 23360 H 2251.44 3.93358 0.0575723 0
M  V30 23361 H 2253.45 4.88127 0.891445 0
M  V30 23362 N 2252.62 0.576397 1.46681 0
M  V30 23363 C 2253.87 0.0596577 2.02712 0
M  V30 23364 C 2254.2 -1.29445 1.44767 0
M  V30 23365 O 2253.48 -1.84674 0.610387 0
M  V30 23366 C 2253.76 -0.012887 3.60098 0
M  V30 23367 C 2253.61 1.36967 4.28439 0
M  V30 23368 C 2254.93 -0.716704 4.34225 0
M  V30 23369 H 2252.05 0.0231537 0.736636 0
M  V30 23370 H 2254.69 0.742381 1.74896 0
M  V30 23371 H 2252.84 -0.594311 3.83927 0
M  V30 23372 H 2254.52 1.99578 4.15892 0
M  V30 23373 H 2252.76 1.93913 3.88046 0
M  V30 23374 H 2253.43 1.27145 5.37158 0
M  V30 23375 H 2255.91 -0.222834 4.15503 0
M  V30 23376 H 2254.78 -0.736475 5.43937 0
M  V30 23377 H 2255.04 -1.77675 4.04826 0
M  V30 23378 N 2254.1 -1.54444 0.313841 0
M  V30 23379 C 2255.38 -1.92526 -0.345413 0
M  V30 23380 C 2255.76 -1.24245 -1.70665 0
M  V30 23381 O 2255.11 -0.382694 -2.25273 0
M  V30 23382 C 2255.32 -3.46122 -0.447309 0
M  V30 23383 C 2256.67 -4.18585 -0.712164 0
M  V30 23384 O 2257.69 -3.52226 -0.530616 0
M  V30 23385 O 2256.55 -5.36087 -1.06173 0
M  V30 23386 H 2253.64 -0.803586 -0.195393 0
M  V30 23387 H 2256.19 -1.65776 0.362842 0
M  V30 23388 H 2254.96 -3.87974 0.509111 0
M  V30 23389 H 2254.58 -3.78947 -1.20353 0
M  V30 23390 N 2255.58 -0.0418125 -1.57545 0
M  V30 23391 C 2256.54 0.920893 -2.09886 0
M  V30 23392 C 2257.54 1.24595 -1.0165 0
M  V30 23393 O 2258.73 1.18418 -1.27761 0
M  V30 23394 C 2255.87 2.23363 -2.57531 0
M  V30 23395 H 2257.06 0.467329 -2.96236 0
M  V30 23396 H 2254.61 0.20644 -1.54931 0
M  V30 23397 H 2255.35 2.7332 -1.74547 0
M  V30 23398 H 2255.13 2.01077 -3.36616 0
M  V30 23399 H 2256.62 2.9234 -2.98206 0
M  V30 23400 N 2257.06 1.55891 0.231477 0
M  V30 23401 C 2258.31 1.78442 0.95732 0
M  V30 23402 C 2258.63 0.608852 1.84725 0
M  V30 23403 O 2257.89 -0.407216 1.91416 0
M  V30 23404 C 2258.19 3.06653 1.83571 0
M  V30 23405 C 2257.85 4.3728 1.09985 0
M  V30 23406 C 2256.52 4.72774 0.896546 0
M  V30 23407 C 2258.87 5.17969 0.579467 0
M  V30 23408 C 2256.2 5.8648 0.160793 0
M  V30 23409 C 2258.55 6.32439 -0.142894 0
M  V30 23410 C 2257.21 6.66542 -0.357544 0
M  V30 23411 H 2256.48 0.652966 0.350308 0
M  V30 23412 H 2259.13 1.90159 0.226225 0
M  V30 23413 H 2257.43 2.90015 2.63436 0
M  V30 23414 H 2259.13 3.21302 2.39929 0
M  V30 23415 H 2255.72 4.09405 1.26828 0
M  V30 23416 H 2259.9 4.9099 0.724038 0
M  V30 23417 H 2255.16 6.11398 -0.0158367 0
M  V30 23418 H 2259.33 6.94195 -0.553681 0
M  V30 23419 H 2256.96 7.54495 -0.929599 0
M  V30 23420 N 2258.54 -0.497781 1.49532 0
M  V30 23421 C 2259.45 -1.62529 1.69179 0
M  V30 23422 C 2260.46 -1.64245 0.574429 0
M  V30 23423 O 2261.64 -1.82606 0.849529 0
M  V30 23424 C 2258.7 -2.98882 1.757 0
M  V30 23425 C 2257.76 -3.07768 2.99295 0
M  V30 23426 C 2257 -4.37616 3.05496 0
M  V30 23427 O 2257.22 -5.26599 2.19201 0
M  V30 23428 O 2256.15 -4.51541 3.97988 0
M  V30 23429 H 2259.98 -1.48883 2.64703 0
M  V30 23430 H 2257.57 -0.674418 1.33312 0
M  V30 23431 H 2259.45 -3.79916 1.82324 0
M  V30 23432 H 2258.12 -3.12784 0.833555 0
M  V30 23433 H 2257.03 -2.2591 2.98187 0
M  V30 23434 H 2258.36 -2.98794 3.9113 0
M  V30 23435 N 2260.01 -1.38661 -0.749062 0
M  V30 23436 C 2260.92 -1.38497 -1.89356 0
M  V30 23437 C 2261.94 -0.281506 -1.71708 0
M  V30 23438 O 2263.12 -0.520678 -1.94553 0
M  V30 23439 C 2260.18 -1.21322 -3.2478 0
M  V30 23440 C 2259.24 -2.41514 -3.54922 0
M  V30 23441 C 2258.48 -2.25148 -4.83884 0
M  V30 23442 O 2258.7 -1.24756 -5.5659 0
M  V30 23443 O 2257.63 -3.13835 -5.13606 0
M  V30 23444 H 2261.46 -2.34942 -1.92448 0
M  V30 23445 H 2259.04 -1.19628 -0.89496 0
M  V30 23446 H 2260.93 -1.13821 -4.05737 0
M  V30 23447 H 2259.6 -0.279649 -3.2249 0
M  V30 23448 H 2258.51 -2.5459 -2.74107 0
M  V30 23449 H 2259.84 -3.33516 -3.61977 0
M  V30 23450 N 2261.49 0.977736 -1.23605 0
M  V30 23451 C 2262.44 2.07059 -1.01957 0
M  V30 23452 C 2263.41 1.65977 0.0638405 0
M  V30 23453 O 2264.6 1.90593 -0.0887959 0
M  V30 23454 C 2261.74 3.3949 -0.619717 0
M  V30 23455 C 2260.85 3.93826 -1.77554 0
M  V30 23456 C 2259.98 5.14481 -1.32221 0
M  V30 23457 C 2259.02 5.60989 -2.44862 0
M  V30 23458 N 2258.16 6.72872 -2.00468 0
M  V30 23459 H 2263 2.24909 -1.95499 0
M  V30 23460 H 2260.54 1.10245 -0.973881 0
M  V30 23461 H 2262.49 4.15565 -0.368971 0
M  V30 23462 H 2261.12 3.21595 0.278695 0
M  V30 23463 H 2260.18 3.14482 -2.14022 0
M  V30 23464 H 2261.49 4.2431 -2.62227 0
M  V30 23465 H 2260.64 5.97897 -1.02975 0
M  V30 23466 H 2259.38 4.85657 -0.445893 0
M  V30 23467 H 2258.39 4.76153 -2.74879 0
M  V30 23468 H 2259.61 5.91832 -3.33035 0
M  V30 23469 H 2257.56 6.45802 -1.1522 0
M  V30 23470 H 2257.47 7.02754 -2.78699 0
M  V30 23471 H 2258.74 7.59755 -1.74334 0
M  V30 23472 N 2262.97 1.04818 1.1769 0
M  V30 23473 C 2263.93 0.650156 2.19785 0
M  V30 23474 C 2264.93 -0.296399 1.58045 0
M  V30 23475 O 2266.12 -0.0807791 1.74013 0
M  V30 23476 C 2263.26 -0.0456387 3.40869 0
M  V30 23477 H 2264.45 1.55374 2.56513 0
M  V30 23478 H 2262 0.841617 1.31706 0
M  V30 23479 H 2262.74 -0.962672 3.09682 0
M  V30 23480 H 2262.52 0.634795 3.86927 0
M  V30 23481 H 2264.01 -0.310358 4.16445 0
M  V30 23482 N 2264.45 -1.34055 0.828678 0
M  V30 23483 C 2265.4 -2.31327 0.243014 0
M  V30 23484 C 2266.39 -1.57669 -0.619412 0
M  V30 23485 O 2267.6 -1.72621 -0.51011 0
M  V30 23486 H 2263.97 -0.749615 0.0598471 0
M  V30 23487 H 2265.94 -2.78242 1.07814 0
M  V30 23488 C 2264.69 -3.42901 -0.575673 0
M  V30 23489 H 2264.02 -3.99723 0.0786284 0
M  V30 23490 H 2265.46 -4.13186 -0.951475 0
M  V30 23491 C 2263.91 -2.8786 -1.75039 0
M  V30 23492 O 2264.44 -2.8321 -2.84877 0
M  V30 23493 N 2262.65 -2.44604 -1.56898 0
M  V30 23494 H 2262.2 -2.48585 -0.675503 0
M  V30 23495 H 2262.16 -2.08128 -2.35648 0
M  V30 23496 N 2265.93 -0.584167 -1.46374 0
M  V30 23497 C 2267.18 -0.0680095 -2.01585 0
M  V30 23498 C 2267.49 1.30042 -1.46111 0
M  V30 23499 O 2268.7 1.908 -1.93151 0
M  V30 23500 C 2267.15 -0.070984 -3.5983 0
M  V30 23501 C 2266.76 -1.43782 -4.243 0
M  V30 23502 C 2268.5 0.391154 -4.22694 0
M  V30 23503 C 2266.41 -1.39845 -5.74628 0
M  V30 23504 H 2265.34 -0.0216553 -0.753689 0
M  V30 23505 H 2267.99 -0.736031 -1.68092 0
M  V30 23506 H 2266.37 0.66323 -3.90407 0
M  V30 23507 H 2267.55 -2.19188 -4.05331 0
M  V30 23508 H 2265.86 -1.8401 -3.73536 0
M  V30 23509 H 2268.46 0.439431 -5.32891 0
M  V30 23510 H 2268.8 1.40899 -3.91731 0
M  V30 23511 H 2269.34 -0.289043 -3.96749 0
M  V30 23512 H 2266.07 -2.39313 -6.10253 0
M  V30 23513 H 2265.59 -0.686609 -5.95857 0
M  V30 23514 H 2267.27 -1.11198 -6.37373 0
M  V30 23515 N 2267.41 1.54275 -0.322027 0
M  V30 23516 C 2268.65 2.00838 0.281425 0
M  V30 23517 C 2268.98 1.20987 1.51907 0
M  V30 23518 O 2268.26 0.291767 1.92299 0
M  V30 23519 C 2268.54 3.54773 0.6171 0
M  V30 23520 C 2268.4 4.4535 -0.631143 0
M  V30 23521 C 2269.71 4.16036 1.43535 0
M  V30 23522 H 2266.83 0.730072 0.100813 0
M  V30 23523 H 2269.48 1.84875 -0.4383 0
M  V30 23524 H 2267.63 3.68506 1.23027 0
M  V30 23525 H 2269.3 4.4349 -1.26942 0
M  V30 23526 H 2267.54 4.15088 -1.26032 0
M  V30 23527 H 2268.21 5.50878 -0.351832 0
M  V30 23528 H 2270.69 4.05868 0.917063 0
M  V30 23529 H 2269.56 5.23859 1.63898 0
M  V30 23530 H 2269.82 3.69262 2.43101 0
M  V30 23531 N 2268.88 0.0501669 1.5752 0
M  V30 23532 C 2269.82 -0.959926 2.07028 0
M  V30 23533 C 2270.79 -1.30456 0.970562 0
M  V30 23534 O 2271.98 -1.41761 1.24242 0
M  V30 23535 C 2269.11 -2.2742 2.50994 0
M  V30 23536 C 2268.15 -2.08268 3.72192 0
M  V30 23537 S 2268.98 -1.36198 5.1789 0
M  V30 23538 C 2270.14 -2.68951 5.65169 0
M  V30 23539 H 2270.37 -0.53858 2.92381 0
M  V30 23540 H 2267.91 -0.162072 1.53547 0
M  V30 23541 H 2269.86 -3.02966 2.76987 0
M  V30 23542 H 2268.53 -2.66683 1.65949 0
M  V30 23543 H 2267.72 -3.0548 4.00871 0
M  V30 23544 H 2267.32 -1.40862 3.46459 0
M  V30 23545 H 2269.61 -3.65123 5.70694 0
M  V30 23546 H 2270.56 -2.44909 6.64399 0
M  V30 23547 H 2270.96 -2.75164 4.92895 0
M  V30 23548 N 2270.36 -1.56011 -0.223207 0
M  V30 23549 C 2271.61 -1.79213 -0.949248 0
M  V30 23550 C 2271.94 -0.619527 -1.84053 0
M  V30 23551 O 2271.22 0.381283 -1.90726 0
M  V30 23552 C 2271.5 -3.12483 -1.7896 0
M  V30 23553 C 2271.35 -4.40188 -0.92492 0
M  V30 23554 C 2272.67 -3.4218 -2.76768 0
M  V30 23555 H 2269.79 -0.651969 -0.343665 0
M  V30 23556 H 2272.43 -1.88743 -0.21822 0
M  V30 23557 H 2270.58 -3.04489 -2.41285 0
M  V30 23558 H 2272.25 -4.60199 -0.318535 0
M  V30 23559 H 2270.5 -4.33188 -0.230268 0
M  V30 23560 H 2271.17 -5.29872 -1.54726 0
M  V30 23561 H 2273.64 -3.50291 -2.24578 0
M  V30 23562 H 2272.52 -4.36603 -3.3267 0
M  V30 23563 H 2272.78 -2.64265 -3.54424 0
M  V30 23564 N 2271.84 0.489844 -1.49794 0
M  V30 23565 C 2272.77 1.59853 -1.70203 0
M  V30 23566 C 2273.75 1.60936 -0.550789 0
M  V30 23567 O 2274.94 1.775 -0.787872 0
M  V30 23568 C 2272.07 2.98284 -1.77888 0
M  V30 23569 C 2271.02 3.12068 -2.92912 0
M  V30 23570 C 2270.35 4.5196 -2.8572 0
M  V30 23571 C 2271.65 2.91043 -4.33695 0
M  V30 23572 H 2273.34 1.43027 -2.63028 0
M  V30 23573 H 2270.89 0.686642 -1.26575 0
M  V30 23574 H 2272.84 3.75755 -1.90751 0
M  V30 23575 H 2271.56 3.16224 -0.816708 0
M  V30 23576 H 2270.22 2.37024 -2.79669 0
M  V30 23577 H 2269.87 4.66792 -1.87388 0
M  V30 23578 H 2269.57 4.62122 -3.62929 0
M  V30 23579 H 2271.09 5.31477 -3.00607 0
M  V30 23580 H 2272.51 3.58276 -4.47561 0
M  V30 23581 H 2270.9 3.12666 -5.12211 0
M  V30 23582 H 2271.97 1.87063 -4.47365 0
M  V30 23583 N 2273.32 1.39056 0.741698 0
M  V30 23584 C 2274.23 1.395 1.88619 0
M  V30 23585 C 2275.24 0.290608 1.71556 0
M  V30 23586 O 2276.42 0.530988 1.94274 0
M  V30 23587 C 2273.48 1.23042 3.24132 0
M  V30 23588 C 2272.55 2.43393 3.53636 0
M  V30 23589 C 2271.78 2.27711 4.82683 0
M  V30 23590 O 2272 1.27706 5.5592 0
M  V30 23591 O 2270.94 3.16554 5.11935 0
M  V30 23592 H 2274.76 2.35959 1.91199 0
M  V30 23593 H 2272.35 1.20101 0.888604 0
M  V30 23594 H 2274.23 1.15971 4.05128 0
M  V30 23595 H 2272.9 0.296747 3.22337 0
M  V30 23596 H 2271.81 2.5604 2.72753 0
M  V30 23597 H 2273.14 3.35431 3.60204 0
M  V30 23598 N 2274.8 -0.971167 1.24121 0
M  V30 23599 C 2276.04 -1.70799 1.07287 0
M  V30 23600 C 2276.36 -1.91696 -0.388868 0
M  V30 23601 O 2277.56 -2.62915 -0.677333 0
M  V30 23602 C 2276.02 -3.07413 1.8715 0
M  V30 23603 C 2275.63 -2.94371 3.37712 0
M  V30 23604 C 2277.37 -3.84992 1.78834 0
M  V30 23605 C 2275.28 -4.26274 4.09933 0
M  V30 23606 H 2274.21 -0.640483 0.397865 0
M  V30 23607 H 2276.86 -1.08247 1.48172 0
M  V30 23608 H 2275.24 -3.70774 1.39078 0
M  V30 23609 H 2276.42 -2.40044 3.93339 0
M  V30 23610 H 2274.73 -2.30261 3.46942 0
M  V30 23611 H 2277.33 -4.82658 2.30098 0
M  V30 23612 H 2277.67 -4.09435 0.752912 0
M  V30 23613 H 2278.2 -3.2835 2.24568 0
M  V30 23614 H 2274.94 -4.07024 5.13821 0
M  V30 23615 H 2274.46 -4.8043 3.59091 0
M  V30 23616 H 2276.14 -4.94912 4.16739 0
M  V30 23617 N 2276.27 -1.05441 -1.17133 0
M  V30 23618 C 2277.52 -0.76711 -1.87732 0
M  V30 23619 C 2277.85 0.704221 -1.80982 0
M  V30 23620 O 2277.13 1.51517 -1.21954 0
M  V30 23621 C 2277.41 -1.25139 -3.37657 0
M  V30 23622 C 2277.26 -2.78584 -3.53145 0
M  V30 23623 C 2278.58 -0.8524 -4.31766 0
M  V30 23624 H 2275.7 -0.280141 -0.681682 0
M  V30 23625 H 2278.34 -1.30883 -1.3773 0
M  V30 23626 H 2276.49 -0.790536 -3.80372 0
M  V30 23627 H 2278.17 -3.32812 -3.19428 0
M  V30 23628 H 2276.41 -3.17737 -2.9534 0
M  V30 23629 H 2277.08 -3.07531 -4.58398 0
M  V30 23630 H 2279.56 -1.24918 -3.96906 0
M  V30 23631 H 2278.43 -1.21883 -5.35197 0
M  V30 23632 H 2278.69 0.243407 -4.41429 0
M  V30 23633 N 2277.75 1.33613 -0.835776 0
M  V30 23634 C 2278.98 2.02626 -0.442425 0
M  V30 23635 C 2279.4 1.62481 0.947707 0
M  V30 23636 O 2278.76 0.815854 1.61906 0
M  V30 23637 C 2278.81 3.5611 -0.567279 0
M  V30 23638 O 2277.91 4.1038 0.407726 0
M  V30 23639 H 2277.25 0.639055 -0.180289 0
M  V30 23640 H 2279.78 1.70581 -1.12975 0
M  V30 23641 H 2279.79 4.05535 -0.44778 0
M  V30 23642 H 2278.47 3.84674 -1.58109 0
M  V30 23643 H 2277.05 3.72087 0.246042 0
M  V30 23644 N 2279.23 0.591922 1.46062 0
M  V30 23645 C 2280.48 0.0808746 2.01938 0
M  V30 23646 C 2280.8 -1.28722 1.46477 0
M  V30 23647 O 2280.07 -1.84697 0.652976 0
M  V30 23648 H 2278.65 0.0269069 0.746515 0
M  V30 23649 H 2281.31 0.769783 1.79054 0
M  V30 23650 H 2280.41 0.0188126 3.12094 0
M  V30 23651 N 2280.71 -1.54102 0.330204 0
M  V30 23652 C 2281.96 -2.00291 -0.269836 0
M  V30 23653 C 2282.28 -1.21989 -1.52131 0
M  V30 23654 O 2281.55 -0.323472 -1.93211 0
M  V30 23655 H 2280.13 -0.739907 -0.102697 0
M  V30 23656 H 2282.79 -1.89675 0.448282 0
M  V30 23657 H 2281.89 -3.0771 -0.521606 0
M  V30 23658 N 2282.19 -0.0585199 -1.57491 0
M  V30 23659 C 2283.1 0.928376 -2.15449 0
M  V30 23660 C 2284.11 1.33648 -1.11419 0
M  V30 23661 O 2285.29 1.4119 -1.43622 0
M  V30 23662 C 2282.35 2.18234 -2.69397 0
M  V30 23663 C 2281.41 1.8319 -3.88253 0
M  V30 23664 C 2280.65 3.02608 -4.39618 0
M  V30 23665 O 2280.87 4.16212 -3.90031 0
M  V30 23666 O 2279.8 2.83195 -5.31116 0
M  V30 23667 H 2283.63 0.46543 -3.00112 0
M  V30 23668 H 2281.22 0.1638 -1.48499 0
M  V30 23669 H 2283.1 2.91792 -3.04032 0
M  V30 23670 H 2281.77 2.63652 -1.87801 0
M  V30 23671 H 2280.68 1.06924 -3.58494 0
M  V30 23672 H 2282.01 1.42565 -4.71101 0
M  V30 23673 N 2283.66 1.56128 0.21493 0
M  V30 23674 C 2284.59 1.95976 1.26947 0
M  V30 23675 C 2285.58 0.828894 1.48537 0
M  V30 23676 O 2286.76 1.09171 1.60609 0
M  V30 23677 C 2283.89 2.28218 2.6179 0
M  V30 23678 C 2282.84 3.43858 2.54845 0
M  V30 23679 C 2282.17 3.61722 3.93778 0
M  V30 23680 C 2283.47 4.78636 2.09057 0
M  V30 23681 H 2285.16 2.84314 0.93841 0
M  V30 23682 H 2282.71 1.36789 0.449972 0
M  V30 23683 H 2284.66 2.54688 3.35726 0
M  V30 23684 H 2283.39 1.36741 2.96596 0
M  V30 23685 H 2282.05 3.17447 1.83365 0
M  V30 23686 H 2281.69 2.6761 4.25904 0
M  V30 23687 H 2281.39 4.39505 3.90012 0
M  V30 23688 H 2282.92 3.90547 4.69367 0
M  V30 23689 H 2284.33 5.04267 2.72741 0
M  V30 23690 H 2282.73 5.59749 2.16336 0
M  V30 23691 H 2283.8 4.73549 1.04306 0
M  V30 23692 N 2285.14 -0.481893 1.50052 0
M  V30 23693 C 2286.39 -1.23475 1.605 0
M  V30 23694 C 2286.72 -1.92167 0.300364 0
M  V30 23695 O 2285.97 -1.82247 -0.713062 0
M  V30 23696 C 2286.27 -2.30993 2.72721 0
M  V30 23697 C 2285.94 -1.79628 4.13575 0
M  V30 23698 C 2284.6 -1.6534 4.51903 0
M  V30 23699 C 2286.95 -1.41403 5.01652 0
M  V30 23700 C 2284.28 -1.11234 5.76059 0
M  V30 23701 C 2286.63 -0.887428 6.26345 0
M  V30 23702 C 2285.3 -0.731091 6.63484 0
M  V30 23703 H 2284.57 -0.451826 0.587311 0
M  V30 23704 H 2287.21 -0.532435 1.83949 0
M  V30 23705 H 2285.52 -3.07089 2.43317 0
M  V30 23706 H 2287.21 -2.88983 2.78011 0
M  V30 23707 H 2283.8 -1.91714 3.83332 0
M  V30 23708 H 2287.99 -1.51281 4.72681 0
M  V30 23709 H 2283.24 -0.978579 6.03518 0
M  V30 23710 H 2287.42 -0.582532 6.93959 0
M  V30 23711 H 2285.05 -0.309672 7.59569 0
M  V30 23712 N 2286.62 -1.39448 -0.734313 0
M  V30 23713 C 2287.53 -1.40498 -1.87876 0
M  V30 23714 C 2288.55 -0.299702 -1.71399 0
M  V30 23715 O 2289.72 -0.541283 -1.9399 0
M  V30 23716 C 2286.79 -1.2476 -3.23475 0
M  V30 23717 C 2285.85 -2.45265 -3.5234 0
M  V30 23718 C 2285.08 -2.30268 -4.81469 0
M  V30 23719 O 2285.3 -1.30652 -5.55235 0
M  V30 23720 O 2284.24 -3.19265 -5.10249 0
M  V30 23721 H 2288.06 -2.3697 -1.89945 0
M  V30 23722 H 2285.65 -1.2057 -0.882222 0
M  V30 23723 H 2287.53 -1.18118 -4.04507 0
M  V30 23724 H 2286.21 -0.313838 -3.22175 0
M  V30 23725 H 2285.11 -2.57483 -2.71392 0
M  V30 23726 H 2286.45 -3.37337 -3.5842 0
M  V30 23727 N 2288.1 0.964571 -1.24635 0
M  V30 23728 C 2289.51 1.23379 -1.01242 0
M  V30 23729 C 2289.71 1.99589 0.276865 0
M  V30 23730 O 2288.77 2.32189 0.9922 0
M  V30 23731 C 2290.08 2.01787 -2.22941 0
M  V30 23732 C 2291.63 2.14868 -2.27598 0
M  V30 23733 C 2292.11 2.96672 -3.48927 0
M  V30 23734 N 2293.6 3.04253 -3.49262 0
M  V30 23735 C 2294.33 3.67916 -4.39801 0
M  V30 23736 N 2293.83 4.33272 -5.40599 0
M  V30 23737 N 2295.62 3.64959 -4.27506 0
M  V30 23738 H 2287.77 0.454466 -2.07481 0
M  V30 23739 H 2290.04 0.263474 -0.910651 0
M  V30 23740 H 2289.74 1.53178 -3.1659 0
M  V30 23741 H 2289.62 3.02514 -2.25311 0
M  V30 23742 H 2292 2.62678 -1.34478 0
M  V30 23743 H 2292.08 1.13478 -2.29252 0
M  V30 23744 H 2291.73 2.49555 -4.42363 0
M  V30 23745 H 2291.66 3.98266 -3.44517 0
M  V30 23746 H 2294.15 2.57767 -2.76342 0
M  V30 23747 H 2294.46 4.79676 -6.05913 0
M  V30 23748 H 2292.81 4.31931 -5.44482 0
M  V30 23749 H 2296 3.13079 -3.47993 0
M  V30 23750 H 2296.17 4.1429 -4.98265 0
M  V30 23751 N 2289.58 1.0606 1.16572 0
M  V30 23752 C 2290.83 0.770977 1.86384 0
M  V30 23753 C 2291.14 -0.705097 1.82449 0
M  V30 23754 O 2292.34 -1.10901 2.47817 0
M  V30 23755 C 2290.8 1.32899 3.34464 0
M  V30 23756 C 2290.41 2.83513 3.46878 0
M  V30 23757 C 2292.15 1.1168 4.09546 0
M  V30 23758 C 2290.06 3.32571 4.8903 0
M  V30 23759 H 2288.99 0.284721 0.698176 0
M  V30 23760 H 2291.64 1.27901 1.31581 0
M  V30 23761 H 2290.02 0.748731 3.88857 0
M  V30 23762 H 2291.2 3.4747 3.02657 0
M  V30 23763 H 2289.51 3.03373 2.85226 0
M  V30 23764 H 2292.11 1.45823 5.14431 0
M  V30 23765 H 2292.45 0.0550267 4.16264 0
M  V30 23766 H 2292.98 1.66272 3.61384 0
M  V30 23767 H 2289.72 4.38216 4.87491 0
M  V30 23768 H 2289.24 2.73361 5.33886 0
M  V30 23769 H 2290.92 3.2776 5.57837 0
M  V30 23770 N 2291.06 -1.33168 0.84285 0
M  V30 23771 C 2292.3 -1.96914 0.436773 0
M  V30 23772 C 2292.62 -1.67493 -1.01022 0
M  V30 23773 O 2293.82 -2.24884 -1.52116 0
M  V30 23774 C 2292.28 -3.52417 0.730082 0
M  V30 23775 C 2291.89 -3.9071 2.19202 0
M  V30 23776 C 2293.63 -4.22694 0.391151 0
M  V30 23777 C 2291.54 -5.39208 2.42917 0
M  V30 23778 H 2290.47 -0.736917 0.159593 0
M  V30 23779 H 2293.12 -1.51731 1.03199 0
M  V30 23780 H 2291.5 -3.95948 0.0644451 0
M  V30 23781 H 2292.68 -3.58226 2.89846 0
M  V30 23782 H 2290.99 -3.33426 2.49431 0
M  V30 23783 H 2293.59 -5.31906 0.54591 0
M  V30 23784 H 2293.93 -4.10935 -0.666222 0
M  V30 23785 H 2294.46 -3.84707 1.01219 0
M  V30 23786 H 2291.2 -5.55976 3.47234 0
M  V30 23787 H 2290.72 -5.73139 1.76837 0
M  V30 23788 H 2292.4 -6.06144 2.2627 0
M  V30 23789 N 2292.53 -0.599659 -1.45746 0
M  V30 23790 C 2293.81 -0.024119 -1.95585 0
M  V30 23791 C 2294.19 1.44152 -1.54219 0
M  V30 23792 O 2293.54 2.14003 -0.800941 0
M  V30 23793 C 2293.75 -0.213911 -3.48344 0
M  V30 23794 C 2295.1 -0.0905648 -4.24503 0
M  V30 23795 O 2296.12 -0.14362 -3.5591 0
M  V30 23796 O 2294.98 0.0309806 -5.46491 0
M  V30 23797 H 2292.07 0.0402333 -0.826021 0
M  V30 23798 H 2294.62 -0.669166 -1.5595 0
M  V30 23799 H 2293.39 -1.23213 -3.71395 0
M  V30 23800 H 2293.01 0.466773 -3.94851 0
M  V30 23801 N 2294.01 1.53925 -0.338371 0
M  V30 23802 C 2294.92 2.28549 0.52938 0
M  V30 23803 C 2295.94 1.33461 1.11642 0
M  V30 23804 O 2297.11 1.66494 1.13322 0
M  V30 23805 C 2294.18 3.03989 1.66707 0
M  V30 23806 C 2293.24 4.14693 1.11034 0
M  V30 23807 C 2292.47 4.86526 2.19381 0
M  V30 23808 O 2292.7 4.57988 3.40005 0
M  V30 23809 O 2291.63 5.73097 1.83966 0
M  V30 23810 H 2295.46 3.03602 -0.0770932 0
M  V30 23811 H 2293.04 1.4904 -0.103582 0
M  V30 23812 H 2294.92 3.51184 2.32912 0
M  V30 23813 H 2293.6 2.31798 2.25945 0
M  V30 23814 H 2292.5 3.71814 0.412958 0
M  V30 23815 H 2293.84 4.88971 0.562889 0
M  V30 23816 N 2295.49 0.0668712 1.57458 0
M  V30 23817 C 2296.77 -0.6441 1.84691 0
M  V30 23818 C 2297.15 -1.88091 0.958376 0
M  V30 23819 O 2296.49 -2.28488 0.0233981 0
M  V30 23820 C 2296.7 -0.986451 3.34769 0
M  V30 23821 C 2298.05 -1.36205 4.02161 0
M  V30 23822 O 2299.08 -1.07833 3.39486 0
M  V30 23823 O 2297.94 -1.89218 5.12698 0
M  V30 23824 H 2295.03 -0.319424 0.762822 0
M  V30 23825 H 2297.58 0.0974284 1.6942 0
M  V30 23826 H 2296.35 -0.107814 3.91151 0
M  V30 23827 H 2295.97 -1.78491 3.55284 0
M  V30 23828 N 2296.97 -1.56239 -0.206647 0
M  V30 23829 C 2298.21 -1.79943 -0.92881 0
M  V30 23830 C 2298.54 -0.638163 -1.83733 0
M  V30 23831 O 2297.8 0.376712 -1.9204 0
M  V30 23832 C 2298.1 -3.09535 -1.78669 0
M  V30 23833 C 2297.76 -4.38975 -1.03015 0
M  V30 23834 C 2296.42 -4.74141 -0.821218 0
M  V30 23835 C 2298.78 -5.18825 -0.49699 0
M  V30 23836 C 2296.1 -5.86661 -0.0674687 0
M  V30 23837 C 2298.46 -6.32131 0.243491 0
M  V30 23838 C 2297.12 -6.65889 0.463539 0
M  V30 23839 H 2296.39 -0.658457 -0.339876 0
M  V30 23840 H 2299.04 -1.90495 -0.195944 0
M  V30 23841 H 2297.34 -2.9417 -2.58788 0
M  V30 23842 H 2299.04 -3.25079 -2.34787 0
M  V30 23843 H 2295.63 -4.11371 -1.20298 0
M  V30 23844 H 2299.81 -4.9208 -0.645834 0
M  V30 23845 H 2295.07 -6.11295 0.113103 0
M  V30 23846 H 2299.24 -6.93227 0.664052 0
M  V30 23847 H 2296.87 -7.5292 1.04951 0
M  V30 23848 N 2298.45 0.473929 -1.50305 0
M  V30 23849 C 2299.36 1.59817 -1.71743 0
M  V30 23850 C 2300.37 1.6331 -0.600486 0
M  V30 23851 O 2301.55 1.81231 -0.878473 0
M  V30 23852 C 2298.61 2.96049 -1.80433 0
M  V30 23853 C 2297.67 3.02967 -3.04154 0
M  V30 23854 C 2296.91 4.32701 -3.12419 0
M  V30 23855 O 2297.13 5.23045 -2.27551 0
M  V30 23856 O 2296.06 4.45152 -4.05121 0
M  V30 23857 H 2299.89 1.44653 -2.67038 0
M  V30 23858 H 2297.47 0.653124 -1.34368 0
M  V30 23859 H 2299.36 3.76967 -1.88345 0
M  V30 23860 H 2298.03 3.11418 -0.883211 0
M  V30 23861 H 2296.94 2.21137 -3.01744 0
M  V30 23862 H 2298.27 2.92534 -3.95834 0
M  V30 23863 N 2299.92 1.39835 0.726907 0
M  V30 23864 C 2300.85 1.41944 1.85403 0
M  V30 23865 C 2301.83 0.281757 1.6775 0
M  V30 23866 O 2303.02 0.48875 1.87949 0
M  V30 23867 C 2300.15 1.27015 3.2324 0
M  V30 23868 C 2299.1 2.38268 3.55545 0
M  V30 23869 C 2298.43 2.08423 4.92406 0
M  V30 23870 C 2299.73 3.80595 3.57693 0
M  V30 23871 H 2301.42 2.36269 1.83895 0
M  V30 23872 H 2298.97 1.13725 0.883329 0
M  V30 23873 H 2300.92 1.2711 4.01772 0
M  V30 23874 H 2299.65 0.291621 3.25295 0
M  V30 23875 H 2298.31 2.37404 2.79347 0
M  V30 23876 H 2297.95 1.08988 4.9105 0
M  V30 23877 H 2297.65 2.82952 5.14987 0
M  V30 23878 H 2299.18 2.10181 5.73285 0
M  V30 23879 H 2300.59 3.83344 4.26286 0
M  V30 23880 H 2298.99 4.5455 3.91796 0
M  V30 23881 H 2300.06 4.10992 2.5732 0
M  V30 23882 N 2301.4 -0.957948 1.25144 0
M  V30 23883 C 2302.63 -1.73689 1.12427 0
M  V30 23884 C 2303.04 -1.86029 -0.322272 0
M  V30 23885 O 2302.4 -1.35563 -1.22184 0
M  V30 23886 C 2302.45 -3.15238 1.76938 0
M  V30 23887 O 2302.17 -3.03505 3.15937 0
M  V30 23888 C 2303.67 -4.09426 1.69957 0
M  V30 23889 H 2300.89 -0.544366 0.392309 0
M  V30 23890 H 2303.44 -1.20204 1.65442 0
M  V30 23891 H 2301.59 -3.65678 1.27901 0
M  V30 23892 H 2302.01 -3.92774 3.47605 0
M  V30 23893 H 2303.48 -5.06368 2.19762 0
M  V30 23894 H 2303.96 -4.34172 0.662695 0
M  V30 23895 H 2304.56 -3.649 2.18467 0
M  V30 23896 N 2302.88 -1.06677 -1.16008 0
M  V30 23897 C 2303.79 -0.692218 -2.24155 0
M  V30 23898 C 2304.81 0.293483 -1.71507 0
M  V30 23899 O 2305.98 0.141826 -2.009 0
M  V30 23900 C 2303.05 -0.0884741 -3.46587 0
M  V30 23901 C 2302.11 -1.12654 -4.14255 0
M  V30 23902 C 2301.34 -0.551509 -5.30843 0
M  V30 23903 O 2301.56 0.634556 -5.66859 0
M  V30 23904 O 2300.5 -1.29308 -5.87846 0
M  V30 23905 H 2304.32 -1.59392 -2.58511 0
M  V30 23906 H 2301.91 -0.839282 -1.23598 0
M  V30 23907 H 2303.79 0.246287 -4.2068 0
M  V30 23908 H 2302.47 0.786657 -3.13996 0
M  V30 23909 H 2301.37 -1.51354 -3.42115 0
M  V30 23910 H 2302.71 -1.97333 -4.50911 0
M  V30 23911 N 2304.36 1.32719 -0.8499 0
M  V30 23912 C 2305.77 1.50218 -0.539128 0
M  V30 23913 C 2305.97 1.7869 0.931239 0
M  V30 23914 O 2305.03 1.85366 1.71452 0
M  V30 23915 C 2306.34 2.64952 -1.42201 0
M  V30 23916 C 2307.89 2.78837 -1.42194 0
M  V30 23917 C 2308.37 3.96644 -2.28992 0
M  V30 23918 N 2309.86 4.03898 -2.26761 0
M  V30 23919 C 2310.59 4.94276 -2.90653 0
M  V30 23920 N 2310.09 5.89693 -3.63639 0
M  V30 23921 N 2311.88 4.8736 -2.80066 0
M  V30 23922 H 2304.03 1.12503 -1.80158 0
M  V30 23923 H 2306.29 0.554071 -0.769226 0
M  V30 23924 H 2306 2.50627 -2.46737 0
M  V30 23925 H 2305.87 3.60622 -1.10597 0
M  V30 23926 H 2308.26 2.92588 -0.384242 0
M  V30 23927 H 2308.34 1.83895 -1.7781 0
M  V30 23928 H 2307.99 3.83652 -3.32826 0
M  V30 23929 H 2307.92 4.90853 -1.9071 0
M  V30 23930 H 2310.41 3.35617 -1.73694 0
M  V30 23931 H 2310.72 6.55342 -4.09569 0
M  V30 23932 H 2309.07 5.89735 -3.67747 0
M  V30 23933 H 2312.26 4.11785 -2.226 0
M  V30 23934 H 2312.43 5.57593 -3.30142 0
M  V30 23935 N 2305.84 0.60738 1.45426 0
M  V30 23936 C 2306.75 -0.113422 2.34326 0
M  V30 23937 C 2307.76 -0.860591 1.51228 0
M  V30 23938 O 2308.94 -0.818223 1.8403 0
M  V30 23939 C 2306 -1.09838 3.28841 0
M  V30 23940 C 2305.06 -0.353196 4.27845 0
M  V30 23941 C 2304.3 -1.29124 5.17844 0
M  V30 23942 O 2304.52 -2.52904 5.11269 0
M  V30 23943 O 2303.45 -0.788418 5.96714 0
M  V30 23944 H 2307.28 0.617146 2.97363 0
M  V30 23945 H 2304.87 0.367644 1.44806 0
M  V30 23946 H 2306.75 -1.66568 3.87083 0
M  V30 23947 H 2305.42 -1.80998 2.68368 0
M  V30 23948 H 2304.33 0.25656 3.73219 0
M  V30 23949 H 2305.66 0.317909 4.91172 0
M  V30 23950 N 2307.31 -1.53743 0.34653 0
M  V30 23951 C 2308.55 -2.02873 -0.249377 0
M  V30 23952 C 2308.92 -1.22878 -1.47529 0
M  V30 23953 O 2310.12 -1.61921 -2.14557 0
M  V30 23954 C 2308.39 -3.53098 -0.552847 0
M  V30 23955 S 2309.95 -4.2413 -1.12514 0
M  V30 23956 H 2306.77 -0.707136 -0.0740295 0
M  V30 23957 H 2309.37 -1.89389 0.484983 0
M  V30 23958 H 2308.07 -4.08929 0.347155 0
M  V30 23959 H 2307.6 -3.70708 -1.31679 0
M  V30 23960 H 2309.62 -4.33706 -2.41067 0
M  V30 23961 N 2308.79 -0.0752207 -1.5742 0
M  V30 23962 C 2310.04 0.592697 -1.92795 0
M  V30 23963 C 2310.35 1.70561 -0.957508 0
M  V30 23964 O 2311.56 2.43333 -1.20421 0
M  V30 23965 C 2310.02 1.10563 -3.42497 0
M  V30 23966 C 2309.62 0.0235334 -4.47994 0
M  V30 23967 C 2311.37 1.74741 -3.86867 0
M  V30 23968 C 2309.28 0.550699 -5.8883 0
M  V30 23969 H 2308.21 0.225164 -0.719595 0
M  V30 23970 H 2310.86 -0.14801 -1.82902 0
M  V30 23971 H 2309.24 1.8994 -3.47475 0
M  V30 23972 H 2310.41 -0.751179 -4.54636 0
M  V30 23973 H 2308.73 -0.522232 -4.13112 0
M  V30 23974 H 2311.32 2.1522 -4.89474 0
M  V30 23975 H 2311.67 2.60876 -3.24421 0
M  V30 23976 H 2312.2 1.01979 -3.84506 0
M  V30 23977 H 2308.94 -0.273572 -6.54929 0
M  V30 23978 H 2308.46 1.29286 -5.85701 0
M  V30 23979 H 2310.14 1.02602 -6.38813 0
M  V30 23980 N 2310.27 1.56347 0.198358 0
M  V30 23981 C 2311.22 1.94286 1.24585 0
M  V30 23982 C 2312.19 0.803022 1.45399 0
M  V30 23983 O 2313.37 1.0609 1.58586 0
M  V30 23984 C 2310.51 2.28486 2.58627 0
M  V30 23985 C 2309.63 3.55518 2.4542 0
M  V30 23986 C 2308.76 3.79055 3.72143 0
M  V30 23987 C 2307.8 4.99524 3.53754 0
M  V30 23988 N 2306.94 5.19332 4.72482 0
M  V30 23989 H 2311.78 2.83595 0.915307 0
M  V30 23990 H 2309.31 1.40346 0.440604 0
M  V30 23991 H 2311.27 2.4633 3.36715 0
M  V30 23992 H 2309.9 1.42322 2.89731 0
M  V30 23993 H 2308.95 3.45739 1.58646 0
M  V30 23994 H 2310.27 4.43762 2.27764 0
M  V30 23995 H 2309.42 3.97121 4.58672 0
M  V30 23996 H 2308.16 2.89135 3.92749 0
M  V30 23997 H 2307.16 4.81384 2.65611 0
M  V30 23998 H 2308.39 5.9095 3.34597 0
M  V30 23999 H 2306.33 4.32359 4.93358 0
M  V30 24000 H 2306.25 6.01749 4.57639 0
M  V30 24001 H 2307.52 5.41853 5.60371 0
M  V30 24002 N 2311.75 -0.465951 1.50554 0
M  V30 24003 C 2312.98 -1.239 1.65325 0
M  V30 24004 C 2313.39 -1.86155 0.338084 0
M  V30 24005 O 2312.73 -1.70229 -0.690488 0
M  V30 24006 C 2312.79 -2.38435 2.69052 0
M  V30 24007 C 2312.46 -1.96777 4.12465 0
M  V30 24008 C 2313.45 -1.48736 4.9817 0
M  V30 24009 C 2311.14 -2.05341 4.58411 0
M  V30 24010 C 2313.13 -1.09809 6.2787 0
M  V30 24011 C 2310.82 -1.66025 5.88115 0
M  V30 24012 C 2311.82 -1.18338 6.7267 0
M  V30 24013 O 2311.5 -0.795684 7.99953 0
M  V30 24014 H 2311.24 -0.38066 0.558636 0
M  V30 24015 H 2313.79 -0.561987 1.97562 0
M  V30 24016 H 2312.02 -3.09324 2.32068 0
M  V30 24017 H 2313.71 -3.00385 2.7299 0
M  V30 24018 H 2314.48 -1.41538 4.63888 0
M  V30 24019 H 2310.35 -2.41407 3.92739 0
M  V30 24020 H 2313.9 -0.725171 6.93821 0
M  V30 24021 H 2309.8 -1.72884 6.21917 0
M  V30 24022 H 2310.56 -0.924079 8.13267 0
M  V30 24023 N 2313.23 -1.40218 -0.719481 0
M  V30 24024 C 2314.16 -1.34574 -1.84296 0
M  V30 24025 C 2315.14 -0.216769 -1.61149 0
M  V30 24026 O 2316.32 -0.399788 -1.84212 0
M  V30 24027 C 2313.45 -1.09341 -3.20566 0
M  V30 24028 C 2312.49 -2.24637 -3.62547 0
M  V30 24029 S 2313.33 -3.8701 -3.70113 0
M  V30 24030 C 2314.48 -3.64033 -5.09147 0
M  V30 24031 H 2314.72 -2.29654 -1.88803 0
M  V30 24032 H 2312.25 -1.26458 -0.885879 0
M  V30 24033 H 2314.21 -0.954672 -3.99245 0
M  V30 24034 H 2312.87 -0.159219 -3.13696 0
M  V30 24035 H 2312.06 -2.02614 -4.6148 0
M  V30 24036 H 2311.66 -2.34794 -2.91115 0
M  V30 24037 H 2313.96 -3.22259 -5.95949 0
M  V30 24038 H 2314.9 -4.62482 -5.36205 0
M  V30 24039 H 2315.31 -2.97801 -4.79557 0
M  V30 24040 N 2314.7 0.951297 -1.25651 0
M  V30 24041 C 2316.12 1.22298 -1.02545 0
M  V30 24042 C 2316.32 1.99871 0.25568 0
M  V30 24043 O 2315.38 2.33228 0.967517 0
M  V30 24044 C 2316.69 1.99411 -2.25068 0
M  V30 24045 C 2318.24 2.12442 -2.29864 0
M  V30 24046 C 2318.71 2.92954 -3.52054 0
M  V30 24047 N 2320.2 3.00532 -3.5247 0
M  V30 24048 C 2320.94 3.63231 -4.43679 0
M  V30 24049 N 2320.43 4.27514 -5.45164 0
M  V30 24050 N 2322.23 3.60404 -4.31353 0
M  V30 24051 H 2314.38 0.432434 -2.07951 0
M  V30 24052 H 2316.64 0.2538 -0.913394 0
M  V30 24053 H 2316.35 1.49812 -3.18197 0
M  V30 24054 H 2316.22 3.00107 -2.28507 0
M  V30 24055 H 2318.61 2.61237 -1.37257 0
M  V30 24056 H 2318.69 1.1104 -2.30442 0
M  V30 24057 H 2318.33 2.44849 -4.44985 0
M  V30 24058 H 2318.26 3.9459 -3.48722 0
M  V30 24059 H 2320.75 2.54821 -2.7906 0
M  V30 24060 H 2321.07 4.73223 -6.10966 0
M  V30 24061 H 2319.41 4.26131 -5.49033 0
M  V30 24062 H 2322.6 3.09371 -3.51294 0
M  V30 24063 H 2322.78 4.08982 -5.02631 0
M  V30 24064 N 2316.18 1.07291 1.1544 0
M  V30 24065 C 2317.11 0.650624 2.19772 0
M  V30 24066 C 2318.13 -0.296544 1.60076 0
M  V30 24067 O 2319.32 -0.0859592 1.78293 0
M  V30 24068 C 2316.42 -0.0649803 3.38838 0
M  V30 24069 C 2315.59 0.898216 4.28078 0
M  V30 24070 C 2314.65 0.220019 5.2574 0
M  V30 24071 O 2313.67 0.860871 5.62652 0
M  V30 24072 N 2314.88 -1.03455 5.71207 0
M  V30 24073 H 2317.64 1.54812 2.56619 0
M  V30 24074 H 2315.2 0.957517 1.3055 0
M  V30 24075 H 2317.19 -0.529344 4.01223 0
M  V30 24076 H 2315.76 -0.864414 3.00411 0
M  V30 24077 H 2314.98 1.54171 3.62801 0
M  V30 24078 H 2316.27 1.55129 4.84574 0
M  V30 24079 H 2315.67 -1.57517 5.43328 0
M  V30 24080 H 2314.23 -1.44261 6.35635 0
M  V30 24081 N 2317.66 -1.32267 0.856927 0
M  V30 24082 C 2318.91 -1.9644 0.457633 0
M  V30 24083 C 2319.22 -1.68555 -0.992397 0
M  V30 24084 O 2320.43 -2.26485 -1.49723 0
M  V30 24085 C 2318.88 -3.51623 0.76742 0
M  V30 24086 C 2318.49 -3.88364 2.23333 0
M  V30 24087 C 2320.24 -4.22255 0.435961 0
M  V30 24088 C 2318.14 -5.36601 2.48622 0
M  V30 24089 H 2317.07 -0.735182 0.1674 0
M  V30 24090 H 2319.72 -1.50628 1.04802 0
M  V30 24091 H 2318.11 -3.95857 0.106437 0
M  V30 24092 H 2319.28 -3.55132 2.93629 0
M  V30 24093 H 2317.6 -3.30762 2.52954 0
M  V30 24094 H 2320.19 -5.31297 0.602295 0
M  V30 24095 H 2320.54 -4.11618 -0.6226 0
M  V30 24096 H 2321.07 -3.83612 1.05293 0
M  V30 24097 H 2317.81 -5.52261 3.53111 0
M  V30 24098 H 2317.33 -5.71231 1.82906 0
M  V30 24099 H 2319.01 -6.0371 2.32687 0
M  V30 24100 N 2319.14 -0.615084 -1.45102 0
M  V30 24101 C 2320.36 -0.118025 -2.07064 0
M  V30 24102 C 2320.79 1.1916 -1.45542 0
M  V30 24103 O 2320.15 1.72728 -0.550885 0
M  V30 24104 C 2320.19 0.000225002 -3.606 0
M  V30 24105 O 2319.3 1.04849 -3.98849 0
M  V30 24106 H 2318.64 -0.0774697 -0.659465 0
M  V30 24107 H 2321.17 -0.847218 -1.86235 0
M  V30 24108 H 2321.18 0.196019 -4.07529 0
M  V30 24109 H 2319.85 -0.956003 -4.04763 0
M  V30 24110 H 2318.43 0.828555 -3.63579 0
M  V30 24111 N 2320.62 1.53557 -0.354678 0
M  V30 24112 C 2321.53 2.29098 0.50511 0
M  V30 24113 C 2322.54 1.34638 1.10221 0
M  V30 24114 O 2323.72 1.67686 1.1155 0
M  V30 24115 C 2320.78 3.0574 1.63474 0
M  V30 24116 C 2319.85 4.15847 1.06629 0
M  V30 24117 C 2319.08 4.88826 2.14208 0
M  V30 24118 O 2319.3 4.61568 3.35129 0
M  V30 24119 O 2318.24 5.75016 1.77877 0
M  V30 24120 H 2322.06 3.03503 -0.10929 0
M  V30 24121 H 2319.65 1.48922 -0.119384 0
M  V30 24122 H 2321.53 3.53634 2.29174 0
M  V30 24123 H 2320.2 2.34182 2.23474 0
M  V30 24124 H 2319.11 3.72231 0.373499 0
M  V30 24125 H 2320.44 4.8954 0.510995 0
M  V30 24126 N 2322.1 0.083568 1.57378 0
M  V30 24127 C 2323.34 -0.581684 1.93548 0
M  V30 24128 C 2323.66 -1.69433 0.96527 0
M  V30 24129 O 2322.93 -1.95894 0.0153713 0
M  V30 24130 H 2321.51 -0.217861 0.714525 0
M  V30 24131 H 2324.18 0.144192 1.94366 0
M  V30 24132 H 2323.27 -0.999371 2.95667 0
M  V30 24133 N 2323.57 -1.5645 -0.190064 0
M  V30 24134 C 2324.82 -1.81186 -0.911021 0
M  V30 24135 C 2325.15 -0.658428 -1.82697 0
M  V30 24136 O 2324.43 0.340741 -1.91492 0
M  V30 24137 C 2324.71 -3.16208 -1.72291 0
M  V30 24138 C 2324.56 -4.42051 -0.831341 0
M  V30 24139 C 2325.88 -3.47974 -2.69448 0
M  V30 24140 H 2323 -0.659112 -0.329758 0
M  V30 24141 H 2325.64 -1.89163 -0.178135 0
M  V30 24142 H 2323.79 -3.09539 -2.34773 0
M  V30 24143 H 2325.47 -4.60771 -0.220848 0
M  V30 24144 H 2323.71 -4.33579 -0.13833 0
M  V30 24145 H 2324.38 -5.33034 -1.43451 0
M  V30 24146 H 2326.86 -3.54976 -2.17097 0
M  V30 24147 H 2325.73 -4.43561 -3.23334 0
M  V30 24148 H 2325.99 -2.71723 -3.48739 0
M  V30 24149 N 2325.05 0.45796 -1.50799 0
M  V30 24150 C 2325.96 1.57986 -1.73429 0
M  V30 24151 C 2326.98 1.62664 -0.617773 0
M  V30 24152 O 2328.15 1.80289 -0.897646 0
M  V30 24153 C 2325.22 2.94119 -1.83562 0
M  V30 24154 C 2324.28 2.99724 -3.0735 0
M  V30 24155 C 2323.51 4.29363 -3.16991 0
M  V30 24156 O 2323.74 5.20603 -2.33086 0
M  V30 24157 O 2322.67 4.4083 -4.0982 0
M  V30 24158 H 2326.5 1.41812 -2.68557 0
M  V30 24159 H 2324.08 0.638836 -1.35053 0
M  V30 24160 H 2325.96 3.74948 -1.92332 0
M  V30 24161 H 2324.64 3.10464 -0.916191 0
M  V30 24162 H 2323.54 2.17924 -3.04072 0
M  V30 24163 H 2324.88 2.88319 -3.98915 0
M  V30 24164 N 2326.53 1.40598 0.712035 0
M  V30 24165 C 2327.76 1.42184 1.49891 0
M  V30 24166 C 2328.17 0.020841 1.89189 0
M  V30 24167 O 2327.51 -0.966409 1.56225 0
M  V30 24168 C 2327.57 2.25216 2.80211 0
M  V30 24169 C 2327.24 3.73587 2.63215 0
M  V30 24170 C 2328.23 4.66139 2.3024 0
M  V30 24171 C 2325.92 4.17443 2.79369 0
M  V30 24172 C 2327.91 6.00532 2.13634 0
M  V30 24173 C 2325.6 5.51906 2.6238 0
M  V30 24174 C 2326.6 6.43266 2.29561 0
M  V30 24175 O 2326.29 7.75249 2.12705 0
M  V30 24176 H 2326.02 0.48682 0.469023 0
M  V30 24177 H 2328.57 1.85327 0.885608 0
M  V30 24178 H 2326.8 1.76858 3.43887 0
M  V30 24179 H 2328.49 2.187 3.41943 0
M  V30 24180 H 2329.26 4.33551 2.1739 0
M  V30 24181 H 2325.14 3.46649 3.039 0
M  V30 24182 H 2328.68 6.71807 1.87941 0
M  V30 24183 H 2324.58 5.84077 2.74816 0
M  V30 24184 H 2325.34 7.8622 2.27598 0
M  V30 24185 N 2328.01 -0.94462 1.26153 0
M  V30 24186 C 2329.26 -1.68485 1.10886 0
M  V30 24187 C 2329.57 -1.92477 -0.348119 0
M  V30 24188 O 2330.78 -2.64293 -0.621412 0
M  V30 24189 C 2329.23 -3.03374 1.93629 0
M  V30 24190 C 2328.84 -2.87142 3.4388 0
M  V30 24191 C 2330.58 -3.81112 1.8696 0
M  V30 24192 C 2328.49 -4.17482 4.18882 0
M  V30 24193 H 2327.42 -0.6319 0.411362 0
M  V30 24194 H 2330.07 -1.0508 1.50434 0
M  V30 24195 H 2328.45 -3.67741 1.46911 0
M  V30 24196 H 2329.63 -2.31646 3.98342 0
M  V30 24197 H 2327.94 -2.2285 3.51748 0
M  V30 24198 H 2330.54 -4.77669 2.40284 0
M  V30 24199 H 2330.88 -4.07746 0.83959 0
M  V30 24200 H 2331.42 -3.23513 2.31483 0
M  V30 24201 H 2328.15 -3.96034 5.22339 0
M  V30 24202 H 2327.67 -4.72705 3.69201 0
M  V30 24203 H 2329.35 -4.85961 4.27143 0
M  V30 24204 N 2329.49 -1.07901 -1.1487 0
M  V30 24205 C 2330.44 -0.674065 -2.17808 0
M  V30 24206 C 2331.42 0.303671 -1.58008 0
M  V30 24207 O 2332.61 0.116509 -1.76616 0
M  V30 24208 C 2329.74 -0.0793921 -3.43208 0
M  V30 24209 C 2328.83 -1.08261 -4.10049 0
M  V30 24210 N 2329.22 -2.26418 -4.52293 0
M  V30 24211 C 2327.52 -0.917201 -4.36467 0
M  V30 24212 C 2328.22 -2.90109 -5.04194 0
M  V30 24213 N 2327.19 -2.17745 -4.98085 0
M  V30 24214 H 2330.99 -1.57391 -2.48204 0
M  V30 24215 H 2328.51 -0.952999 -1.31498 0
M  V30 24216 H 2330.51 0.228646 -4.16273 0
M  V30 24217 H 2329.17 0.815495 -3.14292 0
M  V30 24218 H 2330.18 -2.64104 -4.45499 0
M  V30 24219 H 2326.85 -0.0756812 -4.17431 0
M  V30 24220 H 2328.24 -3.90468 -5.46795 0
M  V30 24221 N 2330.96 1.31811 -0.863929 0
M  V30 24222 C 2331.91 2.28663 -0.313343 0
M  V30 24223 C 2332.88 1.55463 0.584841 0
M  V30 24224 O 2334.07 1.8364 0.517773 0
M  V30 24225 C 2331.21 3.41684 0.48435 0
M  V30 24226 C 2330.32 4.29747 -0.440669 0
M  V30 24227 C 2329.45 5.29906 0.370558 0
M  V30 24228 C 2328.49 6.09613 -0.551272 0
M  V30 24229 N 2327.63 7.01745 0.223339 0
M  V30 24230 H 2332.47 2.75146 -1.14449 0
M  V30 24231 H 2330.01 1.35363 -0.575793 0
M  V30 24232 H 2331.96 4.05944 0.962555 0
M  V30 24233 H 2330.59 2.96327 1.28024 0
M  V30 24234 H 2329.65 3.65984 -1.0373 0
M  V30 24235 H 2330.96 4.85415 -1.14776 0
M  V30 24236 H 2330.11 5.99813 0.911533 0
M  V30 24237 H 2328.85 4.74878 1.11097 0
M  V30 24238 H 2327.86 5.38601 -1.10405 0
M  V30 24239 H 2329.08 6.66727 -1.29044 0
M  V30 24240 H 2327.03 6.49133 0.946672 0
M  V30 24241 H 2326.94 7.54807 -0.424532 0
M  V30 24242 H 2328.21 7.75925 0.745739 0
M  V30 24243 N 2332.44 0.62277 1.44773 0
M  V30 24244 C 2333.37 -0.125445 2.28856 0
M  V30 24245 C 2334.39 -0.817044 1.40813 0
M  V30 24246 O 2335.58 -0.679889 1.65045 0
M  V30 24247 C 2332.68 -1.19944 3.16965 0
M  V30 24248 C 2331.85 -0.591988 4.33375 0
M  V30 24249 C 2330.91 -1.55884 5.0258 0
M  V30 24250 O 2329.93 -1.07923 5.58875 0
M  V30 24251 N 2331.14 -2.89325 5.03261 0
M  V30 24252 H 2333.9 0.596119 2.93712 0
M  V30 24253 H 2331.46 0.46333 1.55129 0
M  V30 24254 H 2333.45 -1.84638 3.60126 0
M  V30 24255 H 2332.02 -1.82333 2.53916 0
M  V30 24256 H 2331.24 0.233391 3.93508 0
M  V30 24257 H 2332.53 -0.166649 5.08527 0
M  V30 24258 H 2331.93 -3.30879 4.58842 0
M  V30 24259 H 2330.49 -3.49402 5.50238 0
M  V30 24260 N 2333.92 -1.53367 0.362817 0
M  V30 24261 C 2335.17 -2.00818 -0.22729 0
M  V30 24262 C 2335.49 -1.25188 -1.49509 0
M  V30 24263 O 2334.76 -0.364382 -1.92481 0
M  V30 24264 H 2333.34 -0.741919 -0.0869792 0
M  V30 24265 H 2336 -1.88681 0.488414 0
M  V30 24266 H 2335.1 -3.08748 -0.456219 0
M  V30 24267 N 2335.4 -0.091913 -1.57332 0
M  V30 24268 C 2336.65 0.572215 -1.93413 0
M  V30 24269 C 2336.96 1.69536 -0.975545 0
M  V30 24270 O 2338.17 2.42042 -1.22995 0
M  V30 24271 C 2336.62 1.06924 -3.4365 0
M  V30 24272 C 2336.23 -0.0239837 -4.47994 0
M  V30 24273 C 2337.97 1.70628 -3.88698 0
M  V30 24274 C 2335.88 0.488215 -5.89381 0
M  V30 24275 H 2334.81 0.217519 -0.721943 0
M  V30 24276 H 2337.46 -0.167401 -1.82735 0
M  V30 24277 H 2335.84 1.86244 -3.4947 0
M  V30 24278 H 2337.02 -0.799357 -4.53814 0
M  V30 24279 H 2335.33 -0.566018 -4.12535 0
M  V30 24280 H 2337.93 2.10016 -4.91729 0
M  V30 24281 H 2338.27 2.57421 -3.2717 0
M  V30 24282 H 2338.81 0.978955 -3.85566 0
M  V30 24283 H 2335.55 -0.343021 -6.54602 0
M  V30 24284 H 2335.07 1.23066 -5.87039 0
M  V30 24285 H 2336.74 0.958205 -6.39865 0
M  V30 24286 N 2336.88 1.56548 0.181765 0
M  V30 24287 C 2338.12 1.81666 0.901399 0
M  V30 24288 C 2338.46 0.668107 1.82346 0
M  V30 24289 O 2337.73 -0.330581 1.9167 0
M  V30 24290 C 2338.01 3.17118 1.70612 0
M  V30 24291 C 2337.87 4.42485 0.807886 0
M  V30 24292 C 2339.19 3.49398 2.67599 0
M  V30 24293 H 2336.3 0.660851 0.326258 0
M  V30 24294 H 2338.95 1.89255 0.168101 0
M  V30 24295 H 2337.1 3.10779 2.33128 0
M  V30 24296 H 2338.77 4.60882 0.196409 0
M  V30 24297 H 2337.01 4.33647 0.115334 0
M  V30 24298 H 2337.68 5.33788 1.40623 0
M  V30 24299 H 2340.16 3.56122 2.15212 0
M  V30 24300 H 2339.03 4.45269 3.20977 0
M  V30 24301 H 2339.3 2.73569 3.47293 0
M  V30 24302 N 2338.35 -0.449957 1.5104 0
M  V30 24303 C 2339.3 -1.54332 1.67826 0
M  V30 24304 C 2340.29 -1.51836 0.532426 0
M  V30 24305 O 2341.48 -1.58502 0.78779 0
M  V30 24306 C 2338.61 -2.92625 1.79515 0
M  V30 24307 C 2337.7 -2.99925 2.99843 0
M  V30 24308 N 2338.09 -2.76993 4.23212 0
M  V30 24309 C 2336.38 -3.31077 2.98838 0
M  V30 24310 C 2337.09 -2.89809 5.04366 0
M  V30 24311 N 2336.06 -3.20932 4.38752 0
M  V30 24312 H 2339.86 -1.35335 2.60887 0
M  V30 24313 H 2337.38 -0.657059 1.48514 0
M  V30 24314 H 2339.37 -3.71267 1.89649 0
M  V30 24315 H 2338.03 -3.12652 0.876282 0
M  V30 24316 H 2339.05 -2.52164 4.52365 0
M  V30 24317 H 2335.72 -3.56959 2.16533 0
M  V30 24318 H 2337.11 -2.76141 6.12532 0
M  V30 24319 N 2339.83 -1.40974 -0.704569 0
M  V30 24320 C 2340.76 -1.44876 -1.83121 0
M  V30 24321 C 2341.74 -0.308409 -1.67281 0
M  V30 24322 O 2342.93 -0.518589 -1.87148 0
M  V30 24323 C 2340.06 -1.32142 -3.21179 0
M  V30 24324 C 2339.01 -2.43894 -3.5171 0
M  V30 24325 C 2338.34 -2.16231 -4.89028 0
M  V30 24326 C 2339.64 -3.86238 -3.51593 0
M  V30 24327 H 2341.33 -2.39164 -1.80113 0
M  V30 24328 H 2338.88 -1.15116 -0.865124 0
M  V30 24329 H 2340.83 -1.33486 -3.99699 0
M  V30 24330 H 2339.56 -0.343336 -3.2479 0
M  V30 24331 H 2338.21 -2.41818 -2.75535 0
M  V30 24332 H 2337.86 -1.16787 -4.89254 0
M  V30 24333 H 2337.56 -2.91109 -5.10421 0
M  V30 24334 H 2339.09 -2.19275 -5.69869 0
M  V30 24335 H 2340.5 -3.90078 -4.20134 0
M  V30 24336 H 2338.9 -4.60725 -3.84515 0
M  V30 24337 H 2339.97 -4.15033 -2.50749 0
M  V30 24338 N 2341.31 0.937917 -1.26653 0
M  V30 24339 C 2342.59 1.66202 -1.03132 0
M  V30 24340 C 2342.97 2.06523 0.437219 0
M  V30 24341 O 2342.32 1.79156 1.41828 0
M  V30 24342 C 2342.53 2.87177 -1.98319 0
M  V30 24343 C 2343.87 3.58754 -2.27113 0
M  V30 24344 O 2344.9 2.97287 -1.96211 0
M  V30 24345 O 2343.76 4.69474 -2.79744 0
M  V30 24346 H 2340.85 0.727979 -0.392396 0
M  V30 24347 H 2343.4 0.989358 -1.37876 0
M  V30 24348 H 2342.17 2.54296 -2.97404 0
M  V30 24349 H 2341.79 3.62167 -1.64075 0
M  V30 24350 N 2342.79 1.08509 1.14296 0
M  V30 24351 C 2343.72 0.737685 2.21541 0
M  V30 24352 C 2344.7 -0.280347 1.67774 0
M  V30 24353 O 2345.88 -0.150487 1.93616 0
M  V30 24354 C 2343.01 0.14732 3.46987 0
M  V30 24355 C 2341.97 1.09382 4.13787 0
M  V30 24356 C 2341.29 0.365618 5.33449 0
M  V30 24357 C 2342.59 2.43238 4.62204 0
M  V30 24358 H 2344.29 1.63435 2.50858 0
M  V30 24359 H 2341.83 0.787264 1.20574 0
M  V30 24360 H 2343.79 -0.107734 4.21262 0
M  V30 24361 H 2342.51 -0.784483 3.17039 0
M  V30 24362 H 2341.17 1.33399 3.41468 0
M  V30 24363 H 2340.82 -0.570022 4.9976 0
M  V30 24364 H 2340.52 0.996614 5.79087 0
M  V30 24365 H 2342.04 0.118641 6.10485 0
M  V30 24366 H 2343.46 2.23481 5.27948 0
M  V30 24367 H 2341.85 3.0204 5.18548 0
M  V30 24368 H 2342.92 3.04687 3.77218 0
M  V30 24369 N 2344.27 -1.31351 0.870907 0
M  V30 24370 C 2345.21 -2.28494 0.325465 0
M  V30 24371 C 2346.18 -1.55771 -0.576588 0
M  V30 24372 O 2347.37 -1.83912 -0.508026 0
M  V30 24373 C 2344.51 -3.41936 -0.466223 0
M  V30 24374 C 2343.62 -4.29507 0.463454 0
M  V30 24375 C 2342.76 -5.30095 -0.342451 0
M  V30 24376 C 2341.8 -6.09312 0.583593 0
M  V30 24377 N 2340.93 -7.01853 -0.18612 0
M  V30 24378 H 2345.77 -2.74536 1.15906 0
M  V30 24379 H 2343.31 -1.35055 0.582963 0
M  V30 24380 H 2345.27 -4.06449 -0.941013 0
M  V30 24381 H 2343.9 -2.97002 -1.26451 0
M  V30 24382 H 2342.95 -3.65429 1.05669 0
M  V30 24383 H 2344.26 -4.848 1.17349 0
M  V30 24384 H 2343.42 -6.00288 -0.87971 0
M  V30 24385 H 2342.15 -4.7546 -1.08577 0
M  V30 24386 H 2341.16 -5.38008 1.1326 0
M  V30 24387 H 2342.38 -6.66033 1.32578 0
M  V30 24388 H 2340.33 -6.49626 -0.912234 0
M  V30 24389 H 2340.25 -7.54571 0.464555 0
M  V30 24390 H 2341.52 -7.76309 -0.70458 0
M  V30 24391 N 2345.74 -0.630439 -1.44441 0
M  V30 24392 C 2347.16 -0.217096 -1.85434 0
M  V30 24393 C 2347.51 1.23133 -1.5275 0
M  V30 24394 O 2346.63 1.9368 -0.965239 0
M  V30 24395 C 2347.23 -0.387227 -3.3658 0
M  V30 24396 C 2345.79 -0.0283959 -3.76389 0
M  V30 24397 C 2344.93 -0.700937 -2.68295 0
M  V30 24398 H 2347.88 -0.835644 -1.34917 0
M  V30 24399 H 2347.9 0.37402 -3.78657 0
M  V30 24400 H 2347.42 -1.4415 -3.60336 0
M  V30 24401 H 2345.52 1.02417 -3.58248 0
M  V30 24402 H 2345.63 -0.437976 -4.77094 0
M  V30 24403 H 2343.99 -0.136312 -2.54335 0
M  V30 24404 H 2344.78 -1.75779 -2.94884 0
M  V30 24405 N 2347.22 1.53172 -0.370945 0
M  V30 24406 C 2348.13 2.29621 0.480783 0
M  V30 24407 C 2349.15 1.358 1.08786 0
M  V30 24408 O 2350.32 1.6886 1.09765 0
M  V30 24409 C 2347.39 3.07457 1.60222 0
M  V30 24410 C 2346.45 4.16955 1.02212 0
M  V30 24411 C 2345.68 4.9107 2.09012 0
M  V30 24412 O 2345.91 4.65097 3.30214 0
M  V30 24413 O 2344.84 5.7687 1.71768 0
M  V30 24414 H 2348.67 3.0337 -0.141474 0
M  V30 24415 H 2346.25 1.48787 -0.135172 0
M  V30 24416 H 2348.13 3.56045 2.2541 0
M  V30 24417 H 2346.81 2.36539 2.20978 0
M  V30 24418 H 2345.72 3.72606 0.333998 0
M  V30 24419 H 2347.05 4.90055 0.459044 0
M  V30 24420 N 2348.7 0.100255 1.57281 0
M  V30 24421 C 2349.65 -0.87429 2.15543 0
M  V30 24422 C 2350.64 -1.28857 1.09964 0
M  V30 24423 O 2351.85 -1.2625 1.283 0
M  V30 24424 H 2348.22 -0.299991 0.689572 0
M  V30 24425 H 2350.19 -0.358238 2.96242 0
M  V30 24426 C 2348.94 -2.12175 2.75458 0
M  V30 24427 H 2348.27 -1.81186 3.56387 0
M  V30 24428 H 2349.71 -2.78412 3.19786 0
M  V30 24429 C 2348.17 -2.89918 1.71607 0
M  V30 24430 O 2348.7 -3.84644 1.15811 0
M  V30 24431 N 2346.9 -2.53555 1.41979 0
M  V30 24432 H 2346.45 -1.76595 1.87542 0
M  V30 24433 H 2346.41 -3.05871 0.727328 0
M  V30 24434 N 2350.18 -1.56643 -0.17346 0
M  V30 24435 C 2351.43 -1.81065 -0.888726 0
M  V30 24436 C 2351.74 -0.677152 -1.83505 0
M  V30 24437 O 2352.95 -0.806252 -2.59252 0
M  V30 24438 C 2351.4 -3.20829 -1.63086 0
M  V30 24439 C 2351.01 -4.42041 -0.728279 0
M  V30 24440 C 2352.76 -3.54545 -2.33448 0
M  V30 24441 C 2350.66 -5.72826 -1.47052 0
M  V30 24442 H 2349.59 -0.675192 -0.335606 0
M  V30 24443 H 2352.24 -1.82952 -0.14168 0
M  V30 24444 H 2350.63 -3.13252 -2.42258 0
M  V30 24445 H 2351.8 -4.60792 0.0263259 0
M  V30 24446 H 2350.11 -4.16183 -0.134419 0
M  V30 24447 H 2352.71 -4.49503 -2.8957 0
M  V30 24448 H 2353.05 -2.79323 -3.08682 0
M  V30 24449 H 2353.59 -3.63666 -1.61221 0
M  V30 24450 H 2350.33 -6.51073 -0.760544 0
M  V30 24451 H 2349.85 -5.58055 -2.1985 0
M  V30 24452 H 2351.53 -6.14705 -2.01858 0
M  V30 24453 N 2351.66 0.44194 -1.51277 0
M  V30 24454 C 2352.59 1.55588 -1.66936 0
M  V30 24455 C 2353.57 1.54162 -0.516986 0
M  V30 24456 O 2354.75 1.73357 -0.74024 0
M  V30 24457 C 2351.88 2.94171 -1.67872 0
M  V30 24458 C 2350.93 3.13641 -2.89019 0
M  V30 24459 S 2351.76 2.90428 -4.49902 0
M  V30 24460 C 2352.91 4.31301 -4.53575 0
M  V30 24461 H 2353.15 1.42071 -2.61157 0
M  V30 24462 H 2350.68 0.631317 -1.40903 0
M  V30 24463 H 2352.64 3.74055 -1.69095 0
M  V30 24464 H 2351.3 3.05055 -0.74835 0
M  V30 24465 H 2350.49 4.14952 -2.86061 0
M  V30 24466 H 2350.09 2.41575 -2.85513 0
M  V30 24467 H 2352.39 5.24426 -4.28933 0
M  V30 24468 H 2353.33 4.39293 -5.55362 0
M  V30 24469 H 2353.74 4.14741 -3.8295 0
M  V30 24470 N 2353.14 1.41345 0.697083 0
M  V30 24471 C 2354.38 1.42088 1.46937 0
M  V30 24472 C 2354.74 0.0280734 1.91979 0
M  V30 24473 O 2355.94 -0.0897031 2.6865 0
M  V30 24474 C 2354.21 2.39833 2.64981 0
M  V30 24475 S 2355.77 2.59092 3.54143 0
M  V30 24476 H 2352.59 0.503368 0.502137 0
M  V30 24477 H 2355.19 1.7777 0.813515 0
M  V30 24478 H 2353.89 3.39832 2.30092 0
M  V30 24479 H 2353.43 2.05498 3.35461 0
M  V30 24480 H 2355.44 1.85719 4.60134 0
M  V30 24481 N 2354.61 -0.931187 1.27148 0
M  V30 24482 C 2355.86 -1.68099 1.13449 0
M  V30 24483 C 2356.19 -1.91552 -0.319594 0
M  V30 24484 O 2355.47 -1.50338 -1.23404 0
M  V30 24485 C 2355.75 -3.04967 1.91487 0
M  V30 24486 C 2355.6 -2.88776 3.4486 0
M  V30 24487 C 2356.92 -4.05243 1.71658 0
M  V30 24488 H 2354.04 -0.610065 0.413509 0
M  V30 24489 H 2356.68 -1.08083 1.56263 0
M  V30 24490 H 2354.83 -3.56196 1.55101 0
M  V30 24491 H 2356.51 -2.44691 3.91055 0
M  V30 24492 H 2354.75 -2.24191 3.71377 0
M  V30 24493 H 2355.42 -3.85895 3.94701 0
M  V30 24494 H 2357.9 -3.63011 2.03377 0
M  V30 24495 H 2356.77 -4.99005 2.2866 0
M  V30 24496 H 2357.03 -4.37091 0.663631 0
M  V30 24497 N 2356.09 -1.09114 -1.13719 0
M  V30 24498 C 2357.04 -0.722258 -2.21102 0
M  V30 24499 C 2358.03 0.275344 -1.67147 0
M  V30 24500 O 2359.24 0.137144 -1.79477 0
M  V30 24501 H 2355.61 -0.215565 -0.720441 0
M  V30 24502 H 2357.59 -1.63714 -2.4948 0
M  V30 24503 C 2356.33 -0.155491 -3.47352 0
M  V30 24504 H 2355.66 -0.914314 -3.89205 0
M  V30 24505 H 2357.1 0.0647221 -4.23951 0
M  V30 24506 C 2355.56 1.10847 -3.18142 0
M  V30 24507 O 2356.09 2.19221 -3.36608 0
M  V30 24508 N 2354.29 1.02171 -2.72047 0
M  V30 24509 H 2353.84 0.139719 -2.57221 0
M  V30 24510 H 2353.8 1.86815 -2.52878 0
M  V30 24511 N 2357.57 1.30887 -0.877861 0
M  V30 24512 C 2358.52 2.28318 -0.337578 0
M  V30 24513 C 2359.49 1.56075 0.568319 0
M  V30 24514 O 2360.67 1.84179 0.498266 0
M  V30 24515 C 2357.81 3.42179 0.448082 0
M  V30 24516 C 2356.92 4.29255 -0.486225 0
M  V30 24517 C 2356.06 5.30269 0.314334 0
M  V30 24518 C 2355.1 6.08994 -0.615898 0
M  V30 24519 N 2354.24 7.01942 0.148897 0
M  V30 24520 H 2359.08 2.73917 -1.1736 0
M  V30 24521 H 2356.61 1.34744 -0.590117 0
M  V30 24522 H 2358.57 4.06942 0.919445 0
M  V30 24523 H 2357.2 2.97668 1.24874 0
M  V30 24524 H 2356.25 3.64863 -1.07606 0
M  V30 24525 H 2357.56 4.84171 -1.19918 0
M  V30 24526 H 2356.72 6.00746 0.847863 0
M  V30 24527 H 2355.46 4.76029 1.06054 0
M  V30 24528 H 2354.46 5.37399 -1.16112 0
M  V30 24529 H 2355.69 6.6532 -1.36108 0
M  V30 24530 H 2353.63 6.50101 0.87777 0
M  V30 24531 H 2353.55 7.54314 -0.504565 0
M  V30 24532 H 2354.82 7.76672 0.6634 0
M  V30 24533 N 2359.05 0.638091 1.44105 0
M  V30 24534 C 2360.28 0.152651 2.06336 0
M  V30 24535 C 2360.69 -1.1756 1.47733 0
M  V30 24536 O 2360.05 -1.72256 0.602836 0
M  V30 24537 C 2360.1 0.0392126 3.61479 0
M  V30 24538 O 2359.82 1.31495 4.179 0
M  V30 24539 C 2361.32 -0.474099 4.40758 0
M  V30 24540 H 2358.54 0.0828893 0.665861 0
M  V30 24541 H 2361.08 0.874463 1.8486 0
M  V30 24542 H 2359.24 -0.633075 3.82192 0
M  V30 24543 H 2359.65 1.1643 5.11414 0
M  V30 24544 H 2361.13 -0.502466 5.49708 0
M  V30 24545 H 2361.6 -1.50251 4.127 0
M  V30 24546 H 2362.21 0.165176 4.24979 0
M  V30 24547 N 2360.53 -1.52973 0.379063 0
M  V30 24548 C 2361.77 -2.01048 -0.205978 0
M  V30 24549 C 2362.09 -1.26767 -1.48173 0
M  V30 24550 O 2361.36 -0.384776 -1.92084 0
M  V30 24551 H 2359.94 -0.7428 -0.0791053 0
M  V30 24552 H 2362.61 -1.88152 0.508399 0
M  V30 24553 H 2361.7 -3.09214 -0.423446 0
M  V30 24554 N 2362 -0.108595 -1.57225 0
M  V30 24555 C 2363.23 0.559919 -1.9918 0
M  V30 24556 C 2363.65 1.60882 -0.988051 0
M  V30 24557 O 2363 1.82488 0.0205192 0
M  V30 24558 C 2363.05 1.19546 -3.41161 0
M  V30 24559 O 2362.78 0.1885 -4.37694 0
M  V30 24560 C 2364.28 1.9483 -3.98191 0
M  V30 24561 H 2361.5 0.149076 -0.65423 0
M  V30 24562 H 2364.04 -0.191866 -2.03598 0
M  V30 24563 H 2362.2 1.89809 -3.37715 0
M  V30 24564 H 2362.61 0.648922 -5.2047 0
M  V30 24565 H 2364.08 2.34639 -4.99648 0
M  V30 24566 H 2364.56 2.81945 -3.36755 0
M  V30 24567 H 2365.17 1.29353 -4.05152 0
M  V30 24568 N 2363.48 1.56732 0.16515 0
M  V30 24569 C 2364.9 1.50989 0.517148 0
M  V30 24570 C 2365.1 0.813926 1.8433 0
M  V30 24571 O 2364.15 0.376864 2.49672 0
M  V30 24572 C 2365.47 2.95734 0.544209 0
M  V30 24573 C 2367.01 3.06574 0.630985 0
M  V30 24574 C 2367.49 4.5279 0.688881 0
M  V30 24575 N 2368.98 4.57061 0.751602 0
M  V30 24576 C 2369.72 5.67549 0.817077 0
M  V30 24577 N 2369.21 6.87652 0.843008 0
M  V30 24578 N 2371 5.55535 0.856571 0
M  V30 24579 H 2363.16 2.00381 -0.704353 0
M  V30 24580 H 2365.42 0.913143 -0.254703 0
M  V30 24581 H 2365.12 3.49835 -0.361668 0
M  V30 24582 H 2365 3.50713 1.38854 0
M  V30 24583 H 2367.39 2.52503 1.52729 0
M  V30 24584 H 2367.47 2.5467 -0.24014 0
M  V30 24585 H 2367.11 5.07493 -0.203189 0
M  V30 24586 H 2367.04 5.02456 1.57624 0
M  V30 24587 H 2369.53 3.70592 0.739596 0
M  V30 24588 H 2369.84 7.67608 0.894313 0
M  V30 24589 H 2368.19 6.9025 0.811183 0
M  V30 24590 H 2371.38 4.60622 0.833356 0
M  V30 24591 H 2371.55 6.41661 0.904134 0
M  V30 24592 N 2364.96 -0.433911 1.51509 0
M  V30 24593 C 2366.21 -1.18002 1.6358 0
M  V30 24594 C 2366.52 -1.92267 0.359548 0
M  V30 24595 O 2367.73 -2.69107 0.359679 0
M  V30 24596 C 2366.18 -2.14621 2.88905 0
M  V30 24597 C 2365.79 -1.45988 4.23546 0
M  V30 24598 C 2367.54 -2.89644 3.10333 0
M  V30 24599 C 2365.44 -2.4111 5.40018 0
M  V30 24600 H 2364.37 -0.444171 0.609285 0
M  V30 24601 H 2367.02 -0.446741 1.77979 0
M  V30 24602 H 2365.41 -2.91398 2.68147 0
M  V30 24603 H 2366.58 -0.747452 4.54697 0
M  V30 24604 H 2364.89 -0.831043 4.08023 0
M  V30 24605 H 2367.49 -3.60908 3.94525 0
M  V30 24606 H 2367.84 -3.51185 2.2355 0
M  V30 24607 H 2368.37 -2.19972 3.31447 0
M  V30 24608 H 2365.11 -1.84253 6.29072 0
M  V30 24609 H 2364.63 -3.10397 5.13239 0
M  V30 24610 H 2366.31 -3.02167 5.72105 0
M  V30 24611 N 2366.44 -1.41713 -0.689577 0
M  V30 24612 C 2367.39 -1.44033 -1.80342 0
M  V30 24613 C 2368.36 -0.293977 -1.63478 0
M  V30 24614 O 2369.54 -0.495902 -1.84243 0
M  V30 24615 C 2366.68 -1.3341 -3.1827 0
M  V30 24616 C 2365.79 -2.57963 -3.46525 0
M  V30 24617 C 2364.93 -2.3959 -4.74099 0
M  V30 24618 C 2363.97 -3.59589 -4.95341 0
M  V30 24619 N 2363.1 -3.4025 -6.14145 0
M  V30 24620 H 2367.94 -2.39225 -1.77694 0
M  V30 24621 H 2365.48 -1.18785 -0.867667 0
M  V30 24622 H 2367.44 -1.25253 -3.97954 0
M  V30 24623 H 2366.07 -0.41822 -3.20079 0
M  V30 24624 H 2365.12 -2.76546 -2.61202 0
M  V30 24625 H 2366.43 -3.47206 -3.5812 0
M  V30 24626 H 2365.59 -2.28934 -5.61849 0
M  V30 24627 H 2364.33 -1.47813 -4.64761 0
M  V30 24628 H 2363.33 -3.70693 -4.06038 0
M  V30 24629 H 2364.56 -4.52327 -5.06534 0
M  V30 24630 H 2362.5 -2.51177 -6.06008 0
M  V30 24631 H 2362.42 -4.23072 -6.26535 0
M  V30 24632 H 2363.69 -3.33377 -7.04613 0
M  V30 24633 N 2367.92 0.924431 -1.2764 0
M  V30 24634 C 2368.85 2.04242 -1.1317 0
M  V30 24635 C 2369.83 1.70069 -0.0322859 0
M  V30 24636 O 2371.01 1.9309 -0.207362 0
M  V30 24637 C 2368.14 3.38392 -0.781556 0
M  V30 24638 C 2367.1 3.86688 -1.83456 0
M  V30 24639 C 2366.42 5.17681 -1.33831 0
M  V30 24640 C 2367.72 4.0972 -3.23924 0
M  V30 24641 H 2369.42 2.16607 -2.06693 0
M  V30 24642 H 2366.96 1.0408 -0.995155 0
M  V30 24643 H 2368.92 4.16086 -0.66713 0
M  V30 24644 H 2367.64 3.2605 0.189381 0
M  V30 24645 H 2366.3 3.1119 -1.93794 0
M  V30 24646 H 2365.95 5.01733 -0.356738 0
M  V30 24647 H 2365.65 5.50965 -2.04234 0
M  V30 24648 H 2367.17 5.97941 -1.23689 0
M  V30 24649 H 2368.58 4.77973 -3.16567 0
M  V30 24650 H 2366.98 4.54317 -3.92067 0
M  V30 24651 H 2368.05 3.14901 -3.68735 0
M  V30 24652 N 2369.39 1.09715 1.13139 0
M  V30 24653 C 2370.64 0.829883 1.83836 0
M  V30 24654 C 2370.96 -0.646696 1.846 0
M  V30 24655 O 2372.16 -1.0296 2.5122 0
M  V30 24656 C 2370.62 1.43472 3.30066 0
M  V30 24657 C 2370.23 2.94405 3.37682 0
M  V30 24658 C 2371.97 1.24652 4.05786 0
M  V30 24659 C 2369.88 3.4796 4.78202 0
M  V30 24660 H 2368.81 0.306789 0.688765 0
M  V30 24661 H 2371.46 1.32023 1.27445 0
M  V30 24662 H 2369.84 0.872064 3.86278 0
M  V30 24663 H 2371.01 3.56923 2.91449 0
M  V30 24664 H 2369.33 3.12293 2.7543 0
M  V30 24665 H 2371.93 1.62115 5.09532 0
M  V30 24666 H 2372.27 0.18743 4.15878 0
M  V30 24667 H 2372.8 1.77685 3.55912 0
M  V30 24668 H 2369.54 4.53503 4.73303 0
M  V30 24669 H 2369.06 2.90208 5.24919 0
M  V30 24670 H 2370.74 3.45341 5.47127 0
M  V30 24671 N 2370.87 -1.30419 0.88479 0
M  V30 24672 C 2372.15 -1.90967 0.423219 0
M  V30 24673 C 2372.53 -1.80418 -1.09601 0
M  V30 24674 O 2371.88 -1.22128 -1.93124 0
M  V30 24675 C 2372.09 -3.36625 0.921115 0
M  V30 24676 C 2373.44 -4.13698 0.955976 0
M  V30 24677 O 2374.46 -3.45468 0.867767 0
M  V30 24678 O 2373.32 -5.35596 1.08623 0
M  V30 24679 H 2370.41 -0.816816 0.129383 0
M  V30 24680 H 2372.96 -1.38988 0.973678 0
M  V30 24681 H 2371.73 -3.38386 1.96495 0
M  V30 24682 H 2371.35 -3.96058 0.34981 0
M  V30 24683 N 2372.35 -0.645724 -1.43764 0
M  V30 24684 C 2373.6 -0.156075 -2.01898 0
M  V30 24685 C 2373.93 1.22731 -1.50889 0
M  V30 24686 O 2373.18 1.83159 -0.689304 0
M  V30 24687 C 2373.48 -0.107742 -3.57238 0
M  V30 24688 C 2373.15 -1.43186 -4.27561 0
M  V30 24689 C 2371.81 -1.79448 -4.46489 0
M  V30 24690 C 2374.16 -2.30522 -4.6745 0
M  V30 24691 C 2371.49 -3.02725 -5.02568 0
M  V30 24692 C 2373.84 -3.53084 -5.24895 0
M  V30 24693 C 2372.5 -3.89551 -5.42039 0
M  V30 24694 H 2371.77 -0.057112 -0.738796 0
M  V30 24695 H 2374.42 -0.834943 -1.7234 0
M  V30 24696 H 2372.73 0.65455 -3.86294 0
M  V30 24697 H 2374.42 0.287868 -3.99965 0
M  V30 24698 H 2371.01 -1.1397 -4.13169 0
M  V30 24699 H 2375.2 -2.03798 -4.52526 0
M  V30 24700 H 2370.45 -3.31037 -5.14027 0
M  V30 24701 H 2374.63 -4.20981 -5.54751 0
M  V30 24702 H 2372.25 -4.85155 -5.85259 0
M  V30 24703 N 2373.83 1.5277 -0.38717 0
M  V30 24704 C 2375.08 2.01154 0.195313 0
M  V30 24705 C 2375.4 1.27551 1.47498 0
M  V30 24706 O 2374.67 0.394958 1.91877 0
M  V30 24707 H 2373.25 0.743209 0.0751649 0
M  V30 24708 H 2375.91 1.8788 -0.51837 0
M  V30 24709 H 2375.01 3.09434 0.407042 0
M  V30 24710 N 2375.31 0.116931 1.57166 0
M  V30 24711 C 2376.24 -0.83072 2.18223 0
M  V30 24712 C 2377.22 -1.27875 1.12169 0
M  V30 24713 O 2378.4 -1.34173 1.40396 0
M  V30 24714 C 2375.53 -2.08168 2.77999 0
M  V30 24715 C 2374.49 -1.7715 3.89618 0
M  V30 24716 C 2373.81 -3.09258 4.36192 0
M  V30 24717 C 2375.11 -1.04142 5.11812 0
M  V30 24718 H 2376.81 -0.32194 2.97664 0
M  V30 24719 H 2374.35 -0.153409 1.43181 0
M  V30 24720 H 2376.31 -2.74918 3.19371 0
M  V30 24721 H 2375.03 -2.61366 1.95845 0
M  V30 24722 H 2373.69 -1.1279 3.48818 0
M  V30 24723 H 2373.34 -3.60387 3.50899 0
M  V30 24724 H 2373.04 -2.89279 5.1146 0
M  V30 24725 H 2374.56 -3.7713 4.80214 0
M  V30 24726 H 2375.97 -1.61043 5.50216 0
M  V30 24727 H 2374.37 -0.942657 5.9265 0
M  V30 24728 H 2375.44 -0.027817 4.84892 0
M  V30 24729 N 2376.78 -1.56818 -0.156836 0
M  V30 24730 C 2377.75 -1.96624 -1.17777 0
M  V30 24731 C 2378.75 -0.851579 -1.36399 0
M  V30 24732 O 2379.94 -1.11838 -1.33559 0
M  V30 24733 C 2377.07 -2.27365 -2.54004 0
M  V30 24734 H 2378.26 -2.87997 -0.836513 0
M  V30 24735 H 2375.82 -1.511 -0.399823 0
M  V30 24736 H 2376.55 -1.38753 -2.93118 0
M  V30 24737 H 2376.34 -3.08627 -2.4185 0
M  V30 24738 H 2377.83 -2.59034 -3.27553 0
M  V30 24739 N 2378.26 0.425871 -1.51737 0
M  V30 24740 C 2379.68 0.763235 -1.40167 0
M  V30 24741 C 2379.88 1.95376 -0.492996 0
M  V30 24742 O 2378.93 2.52455 0.0475371 0
M  V30 24743 C 2380.25 1.03286 -2.82405 0
M  V30 24744 C 2381.8 1.13659 -2.91634 0
M  V30 24745 C 2382.27 1.43908 -4.34804 0
M  V30 24746 N 2383.76 1.50808 -4.37962 0
M  V30 24747 C 2384.5 1.75807 -5.45783 0
M  V30 24748 N 2383.99 1.98522 -6.63748 0
M  V30 24749 N 2385.79 1.77684 -5.33277 0
M  V30 24750 H 2377.94 -0.358037 -2.09361 0
M  V30 24751 H 2380.2 -0.097826 -0.942939 0
M  V30 24752 H 2379.91 0.230634 -3.50943 0
M  V30 24753 H 2379.78 1.95749 -3.22432 0
M  V30 24754 H 2382.17 1.92943 -2.23287 0
M  V30 24755 H 2382.25 0.190711 -2.55088 0
M  V30 24756 H 2381.89 0.651482 -5.03704 0
M  V30 24757 H 2381.82 2.39721 -4.68872 0
M  V30 24758 H 2384.31 1.35111 -3.52921 0
M  V30 24759 H 2384.63 2.17 -7.41708 0
M  V30 24760 H 2382.97 1.95821 -6.66843 0
M  V30 24761 H 2386.16 1.59465 -4.401 0
M  V30 24762 H 2386.33 1.96829 -6.17384 0
M  V30 24763 N 2379.74 1.42077 0.682052 0
M  V30 24764 C 2381.16 1.24843 0.994302 0
M  V30 24765 C 2381.36 0.147424 2.0096 0
M  V30 24766 O 2380.41 -0.483739 2.47823 0
M  V30 24767 C 2381.73 2.60268 1.50602 0
M  V30 24768 C 2383.27 2.67563 1.62417 0
M  V30 24769 C 2383.75 4.03337 2.16987 0
M  V30 24770 N 2385.24 4.05254 2.2433 0
M  V30 24771 C 2385.97 5.07121 2.67612 0
M  V30 24772 N 2385.47 6.19374 3.104 0
M  V30 24773 N 2387.26 4.94479 2.67296 0
M  V30 24774 H 2379.41 2.12398 0.00970174 0
M  V30 24775 H 2381.68 0.945641 0.0668427 0
M  V30 24776 H 2381.38 3.41656 0.834523 0
M  V30 24777 H 2381.26 2.83689 2.48597 0
M  V30 24778 H 2383.64 1.86525 2.28675 0
M  V30 24779 H 2383.73 2.47938 0.629309 0
M  V30 24780 H 2383.37 4.84828 1.5134 0
M  V30 24781 H 2383.3 4.20309 3.1725 0
M  V30 24782 H 2385.79 3.24212 1.94152 0
M  V30 24783 H 2386.1 6.9296 3.42091 0
M  V30 24784 H 2384.45 6.2289 3.08275 0
M  V30 24785 H 2387.64 4.05861 2.33226 0
M  V30 24786 H 2387.81 5.74002 3.00708 0
M  V30 24787 N 2381.22 -0.917649 1.28129 0
M  V30 24788 C 2382.15 -2.03639 1.14251 0
M  V30 24789 C 2383.13 -1.7005 0.0413047 0
M  V30 24790 O 2384.32 -1.92977 0.217599 0
M  V30 24791 C 2381.45 -3.37973 0.799491 0
M  V30 24792 C 2380.4 -3.8571 1.85504 0
M  V30 24793 C 2379.73 -5.16964 1.36575 0
M  V30 24794 C 2381.03 -4.07997 3.26092 0
M  V30 24795 H 2382.72 -2.15508 2.07839 0
M  V30 24796 H 2380.27 -1.03551 1.00066 0
M  V30 24797 H 2382.22 -4.15726 0.689187 0
M  V30 24798 H 2380.94 -3.26146 -0.172088 0
M  V30 24799 H 2379.6 -3.10158 1.95442 0
M  V30 24800 H 2379.25 -5.01537 0.383341 0
M  V30 24801 H 2378.95 -5.49874 2.07153 0
M  V30 24802 H 2380.47 -5.97277 1.26859 0
M  V30 24803 H 2381.89 -4.76287 3.19098 0
M  V30 24804 H 2380.28 -4.52231 3.9447 0
M  V30 24805 H 2381.35 -3.12941 3.70399 0
M  V30 24806 N 2382.7 -1.10314 -1.12555 0
M  V30 24807 C 2383.61 -0.763181 -2.21839 0
M  V30 24808 C 2384.62 0.23877 -1.72354 0
M  V30 24809 O 2385.8 0.0778393 -2.0125 0
M  V30 24810 C 2382.86 -0.198693 -3.4613 0
M  V30 24811 C 2381.93 -1.25776 -4.10462 0
M  V30 24812 C 2381.16 -0.720113 -5.28819 0
M  V30 24813 O 2381.38 0.453893 -5.68591 0
M  V30 24814 O 2380.32 -1.47945 -5.83435 0
M  V30 24815 H 2384.14 -1.67536 -2.53309 0
M  V30 24816 H 2381.73 -0.878179 -1.20865 0
M  V30 24817 H 2383.61 0.112326 -4.2125 0
M  V30 24818 H 2382.28 0.686363 -3.1634 0
M  V30 24819 H 2381.19 -1.62162 -3.37127 0
M  V30 24820 H 2382.52 -2.11579 -4.44404 0
M  V30 24821 N 2384.18 1.29948 -0.891694 0
M  V30 24822 C 2385.12 2.29904 -0.353106 0
M  V30 24823 C 2386.12 1.60445 0.543481 0
M  V30 24824 O 2387.32 1.74858 0.427169 0
M  V30 24825 H 2383.7 0.745906 -0.0955441 0
M  V30 24826 H 2385.67 2.72781 -1.20966 0
M  V30 24827 C 2384.42 3.45257 0.411414 0
M  V30 24828 H 2383.74 3.98892 -0.269252 0
M  V30 24829 H 2385.18 4.17255 0.753254 0
M  V30 24830 C 2383.64 2.95883 1.61105 0
M  V30 24831 O 2384.17 2.9648 2.7104 0
M  V30 24832 N 2382.38 2.51812 1.45049 0
M  V30 24833 H 2381.92 2.51525 0.556131 0
M  V30 24834 H 2381.88 2.19134 2.2545 0
M  V30 24835 N 2385.65 0.653339 1.4342 0
M  V30 24836 C 2386.62 -0.0287548 2.29182 0
M  V30 24837 C 2387.62 -0.75044 1.42215 0
M  V30 24838 O 2388.81 -0.591672 1.63844 0
M  V30 24839 C 2385.94 -1.05145 3.2428 0
M  V30 24840 H 2387.13 0.725838 2.90984 0
M  V30 24841 H 2384.68 0.414572 1.50702 0
M  V30 24842 H 2385.42 -1.83527 2.67373 0
M  V30 24843 H 2385.2 -0.537619 3.88397 0
M  V30 24844 H 2386.69 -1.52779 3.88649 0
M  V30 24845 N 2387.13 -1.52563 0.395266 0
M  V30 24846 C 2388.38 -2.01255 -0.184643 0
M  V30 24847 C 2388.7 -1.28332 -1.4682 0
M  V30 24848 O 2387.97 -0.405128 -1.91665 0
M  V30 24849 H 2386.55 -0.743597 -0.0712225 0
M  V30 24850 H 2389.21 -1.87603 0.528326 0
M  V30 24851 H 2388.31 -3.09646 -0.390626 0
M  V30 24852 N 2388.61 -0.125265 -1.57101 0
M  V30 24853 C 2389.83 0.542066 -2.00191 0
M  V30 24854 C 2390.26 1.59032 -1.00452 0
M  V30 24855 O 2389.62 1.81286 0.0229104 0
M  V30 24856 C 2389.67 1.13923 -3.42131 0
M  V30 24857 O 2388.77 2.25464 -3.45311 0
M  V30 24858 H 2388.11 0.1348 -0.650173 0
M  V30 24859 H 2390.64 -0.215588 -2.03461 0
M  V30 24860 H 2390.65 1.47324 -3.80473 0
M  V30 24861 H 2389.33 0.371458 -4.14238 0
M  V30 24862 H 2387.9 1.93456 -3.18793 0
M  V30 24863 N 2390.09 1.56899 0.148518 0
M  V30 24864 C 2391.02 2.01184 1.18521 0
M  V30 24865 C 2392 0.891148 1.44888 0
M  V30 24866 O 2393.18 1.15885 1.55834 0
M  V30 24867 C 2390.31 2.39116 2.51874 0
M  V30 24868 C 2389.27 3.54357 2.40031 0
M  V30 24869 C 2388.59 3.78098 3.78082 0
M  V30 24870 C 2389.89 4.87072 1.88568 0
M  V30 24871 H 2391.59 2.88038 0.816979 0
M  V30 24872 H 2389.13 1.38574 0.39155 0
M  V30 24873 H 2391.09 2.68698 3.24622 0
M  V30 24874 H 2389.81 1.49198 2.9053 0
M  V30 24875 H 2388.47 3.24939 1.69736 0
M  V30 24876 H 2388.12 2.85433 4.1417 0
M  V30 24877 H 2387.82 4.55651 3.7102 0
M  V30 24878 H 2389.34 4.10103 4.5238 0
M  V30 24879 H 2390.76 5.15381 2.51108 0
M  V30 24880 H 2389.15 5.68421 1.924 0
M  V30 24881 H 2390.22 4.77546 0.841276 0
M  V30 24882 N 2391.57 -0.417818 1.51961 0
M  V30 24883 C 2392.51 -1.50849 1.7468 0
M  V30 24884 C 2393.48 -1.55307 0.588974 0
M  V30 24885 O 2394.67 -1.72014 0.825575 0
M  V30 24886 C 2391.81 -2.88384 1.89549 0
M  V30 24887 C 2390.92 -2.93303 3.17171 0
M  V30 24888 C 2390.06 -4.22083 3.22521 0
M  V30 24889 C 2389.09 -4.20943 4.4438 0
M  V30 24890 N 2388.23 -5.41279 4.4717 0
M  V30 24891 H 2393.07 -1.30778 2.67771 0
M  V30 24892 H 2390.61 -0.634957 1.3269 0
M  V30 24893 H 2392.57 -3.68212 1.96152 0
M  V30 24894 H 2391.2 -3.06969 0.998478 0
M  V30 24895 H 2390.25 -2.06019 3.19782 0
M  V30 24896 H 2391.56 -2.88325 4.07026 0
M  V30 24897 H 2390.71 -5.10298 3.28148 0
M  V30 24898 H 2389.45 -4.29744 2.30589 0
M  V30 24899 H 2388.46 -3.31119 4.38908 0
M  V30 24900 H 2389.68 -4.14929 5.37597 0
M  V30 24901 H 2387.63 -5.49625 3.58117 0
M  V30 24902 H 2387.55 -5.38261 5.30859 0
M  V30 24903 H 2388.81 -6.31472 4.57016 0
M  V30 24904 N 2393.04 -1.42436 -0.674508 0
M  V30 24905 C 2394.29 -1.43133 -1.43669 0
M  V30 24906 C 2394.62 -0.0476362 -1.94142 0
M  V30 24907 O 2393.9 0.928158 -1.70925 0
M  V30 24908 C 2394.18 -2.45598 -2.63351 0
M  V30 24909 C 2394.03 -3.9316 -2.18507 0
M  V30 24910 C 2395.35 -2.45049 -3.65567 0
M  V30 24911 H 2392.47 -0.521207 -0.521068 0
M  V30 24912 H 2395.11 -1.73852 -0.766521 0
M  V30 24913 H 2393.26 -2.19534 -3.20526 0
M  V30 24914 H 2394.94 -4.30205 -1.66497 0
M  V30 24915 H 2393.18 -4.07012 -1.50079 0
M  V30 24916 H 2393.85 -4.60433 -3.04475 0
M  V30 24917 H 2396.33 -2.68228 -3.18108 0
M  V30 24918 H 2395.2 -3.18721 -4.46887 0
M  V30 24919 H 2395.46 -1.47656 -4.16713 0
M  V30 24920 N 2394.52 0.910841 -1.28614 0
M  V30 24921 C 2395.45 2.0303 -1.15329 0
M  V30 24922 C 2396.43 1.70026 -0.0503222 0
M  V30 24923 O 2397.62 1.92859 -0.22783 0
M  V30 24924 C 2394.75 3.37544 -0.817403 0
M  V30 24925 C 2393.7 3.84721 -1.87547 0
M  V30 24926 C 2393.03 5.16232 -1.39314 0
M  V30 24927 C 2394.33 4.06261 -3.28251 0
M  V30 24928 H 2396.02 2.14402 -2.08979 0
M  V30 24929 H 2393.57 1.03019 -1.00614 0
M  V30 24930 H 2395.52 4.15355 -0.711224 0
M  V30 24931 H 2394.24 3.26233 0.154789 0
M  V30 24932 H 2392.9 3.09117 -1.97084 0
M  V30 24933 H 2392.55 5.01327 -0.409934 0
M  V30 24934 H 2392.25 5.48768 -2.10066 0
M  V30 24935 H 2393.78 5.96595 -1.30024 0
M  V30 24936 H 2395.19 4.74588 -3.21619 0
M  V30 24937 H 2393.59 4.50133 -3.96863 0
M  V30 24938 H 2394.66 3.10973 -3.72054 0
M  V30 24939 N 2396 1.10909 1.11969 0
M  V30 24940 C 2397.25 0.85454 1.83586 0
M  V30 24941 C 2397.58 -0.619867 1.84358 0
M  V30 24942 O 2396.83 -1.47329 1.28812 0
M  V30 24943 C 2397.13 1.35431 3.30746 0
M  V30 24944 C 2396.8 2.84099 3.50141 0
M  V30 24945 C 2395.46 3.24696 3.55142 0
M  V30 24946 C 2397.81 3.79878 3.5685 0
M  V30 24947 C 2395.14 4.59813 3.64402 0
M  V30 24948 C 2397.49 5.14804 3.67641 0
M  V30 24949 C 2396.15 5.54968 3.709 0
M  V30 24950 H 2395.42 0.312698 0.671789 0
M  V30 24951 H 2398.07 1.38654 1.32088 0
M  V30 24952 H 2396.38 0.742429 3.84701 0
M  V30 24953 H 2398.07 1.13377 3.84638 0
M  V30 24954 H 2394.66 2.51691 3.46914 0
M  V30 24955 H 2398.85 3.49617 3.52252 0
M  V30 24956 H 2394.1 4.90346 3.652 0
M  V30 24957 H 2398.28 5.8886 3.71776 0
M  V30 24958 H 2395.9 6.59659 3.77828 0
M  V30 24959 N 2397.48 -1.29474 0.898573 0
M  V30 24960 C 2398.73 -1.95219 0.522881 0
M  V30 24961 C 2399.05 -1.71194 -0.93368 0
M  V30 24962 O 2398.32 -1.04308 -1.65821 0
M  V30 24963 H 2396.9 -0.722333 0.190379 0
M  V30 24964 H 2399.56 -1.57748 1.14462 0
M  V30 24965 H 2398.66 -3.04044 0.704529 0
M  V30 24966 N 2398.96 -0.660936 -1.43071 0
M  V30 24967 C 2400.18 -0.185458 -2.06067 0
M  V30 24968 C 2400.6 1.15195 -1.49584 0
M  V30 24969 O 2399.96 1.71275 -0.630164 0
M  V30 24970 C 2400.01 -0.0967158 -3.61371 0
M  V30 24971 O 2399.73 -1.38126 -4.15756 0
M  V30 24972 C 2401.23 0.403918 -4.41456 0
M  V30 24973 H 2398.45 -0.0934721 -0.664458 0
M  V30 24974 H 2400.99 -0.903762 -1.83446 0
M  V30 24975 H 2399.15 0.572191 -3.83151 0
M  V30 24976 H 2399.56 -1.24551 -5.09497 0
M  V30 24977 H 2401.04 0.414948 -5.50438 0
M  V30 24978 H 2401.51 1.43666 -4.15038 0
M  V30 24979 H 2402.12 -0.232766 -4.24663 0
M  V30 24980 N 2400.43 1.52351 -0.403352 0
M  V30 24981 C 2401.85 1.86578 0.0675454 0
M  V30 24982 C 2402.2 1.32239 1.44939 0
M  V30 24983 O 2401.32 0.659343 2.06111 0
M  V30 24984 C 2401.92 3.38553 0.129344 0
M  V30 24985 C 2400.48 3.7244 0.544564 0
M  V30 24986 C 2399.62 2.75836 -0.2846 0
M  V30 24987 H 2402.57 1.4606 -0.620657 0
M  V30 24988 H 2402.59 3.68559 0.945746 0
M  V30 24989 H 2402.11 3.78072 -0.876516 0
M  V30 24990 H 2400.21 3.38496 1.55728 0
M  V30 24991 H 2400.32 4.78203 0.292961 0
M  V30 24992 H 2398.68 2.53448 0.252214 0
M  V30 24993 H 2399.47 3.18194 -1.2887 0
M  V30 24994 N 2401.91 0.133594 1.57033 0
M  V30 24995 C 2402.82 -0.824525 2.19633 0
M  V30 24996 C 2403.84 -1.2818 1.17668 0
M  V30 24997 O 2405.01 -1.34177 1.50195 0
M  V30 24998 C 2402.08 -2.05132 2.79502 0
M  V30 24999 C 2401.14 -1.64457 3.96551 0
M  V30 25000 C 2400.37 -2.81289 4.53555 0
M  V30 25001 O 2400.6 -3.97129 4.09445 0
M  V30 25002 O 2399.53 -2.57532 5.44023 0
M  V30 25003 H 2403.36 -0.321712 3.01991 0
M  V30 25004 H 2400.94 -0.0927627 1.49112 0
M  V30 25005 H 2402.82 -2.76954 3.17607 0
M  V30 25006 H 2401.5 -2.54392 2.00166 0
M  V30 25007 H 2400.41 -0.896984 3.63187 0
M  V30 25008 H 2401.74 -1.19926 4.77366 0
M  V30 25009 N 2403.39 -1.56975 -0.140195 0
M  V30 25010 C 2404.64 -1.8372 -0.851655 0
M  V30 25011 C 2404.97 -0.715516 -1.80861 0
M  V30 25012 O 2404.22 0.294922 -1.93465 0
M  V30 25013 C 2404.52 -3.16835 -1.6538 0
M  V30 25014 C 2404.19 -4.42949 -0.843034 0
M  V30 25015 C 2402.85 -4.77197 -0.61938 0
M  V30 25016 C 2405.2 -5.20466 -0.276491 0
M  V30 25017 C 2402.53 -5.86419 0.181415 0
M  V30 25018 C 2404.88 -6.3053 0.51138 0
M  V30 25019 C 2403.54 -6.63323 0.745548 0
M  V30 25020 H 2402.81 -0.67228 -0.311643 0
M  V30 25021 H 2405.46 -1.91155 -0.114972 0
M  V30 25022 H 2403.77 -3.04881 -2.46079 0
M  V30 25023 H 2405.46 -3.34744 -2.20788 0
M  V30 25024 H 2402.05 -4.16103 -1.02742 0
M  V30 25025 H 2406.24 -4.94376 -0.436545 0
M  V30 25026 H 2401.49 -6.10266 0.372272 0
M  V30 25027 H 2405.67 -6.89786 0.957475 0
M  V30 25028 H 2403.29 -7.47792 1.36791 0
M  V30 25029 N 2404.87 0.409753 -1.5218 0
M  V30 25030 C 2406.11 1.15848 -1.66455 0
M  V30 25031 C 2406.45 1.90182 -0.393005 0
M  V30 25032 O 2405.72 1.84735 0.608547 0
M  V30 25033 C 2406.01 2.15344 -2.88616 0
M  V30 25034 C 2405.86 1.44911 -4.25818 0
M  V30 25035 C 2407.18 3.1602 -3.06299 0
M  V30 25036 H 2404.3 0.419794 -0.605757 0
M  V30 25037 H 2406.94 0.444282 -1.84733 0
M  V30 25038 H 2405.09 2.7625 -2.73163 0
M  V30 25039 H 2406.76 0.871285 -4.52997 0
M  V30 25040 H 2405 0.751084 -4.27248 0
M  V30 25041 H 2405.67 2.17507 -5.07341 0
M  V30 25042 H 2408.15 2.6519 -3.20646 0
M  V30 25043 H 2407.03 3.82903 -3.93289 0
M  V30 25044 H 2407.29 3.83711 -2.19586 0
M  V30 25045 N 2406.35 1.42792 0.666944 0
M  V30 25046 C 2407.31 1.46571 1.76209 0
M  V30 25047 C 2408.31 0.352224 1.56895 0
M  V30 25048 O 2409.5 0.613393 1.63043 0
M  V30 25049 C 2406.63 1.305 3.14933 0
M  V30 25050 H 2407.82 2.44089 1.74243 0
M  V30 25051 H 2405.38 1.29355 0.877319 0
M  V30 25052 H 2406.11 0.339358 3.2252 0
M  V30 25053 H 2405.9 2.11205 3.30356 0
M  V30 25054 H 2407.39 1.36045 3.94818 0
M  V30 25055 N 2407.82 -0.904008 1.29095 0
M  V30 25056 C 2409.24 -1.4693 1.15189 0
M  V30 25057 C 2409.59 -1.94542 -0.254553 0
M  V30 25058 O 2408.71 -1.83334 -1.14969 0
M  V30 25059 C 2409.31 -2.67048 2.08497 0
M  V30 25060 C 2407.87 -3.19726 1.98627 0
M  V30 25061 C 2407.01 -1.92421 1.99673 0
M  V30 25062 H 2409.96 -0.715764 1.41642 0
M  V30 25063 H 2409.98 -3.42638 1.65467 0
M  V30 25064 H 2409.5 -2.32364 3.10851 0
M  V30 25065 H 2407.6 -3.59112 0.993452 0
M  V30 25066 H 2407.71 -3.84315 2.86075 0
M  V30 25067 H 2406.07 -2.09941 1.44212 0
M  V30 25068 H 2406.86 -1.6002 3.03724 0
M  V30 25069 N 2409.3 -1.11501 -1.11379 0
M  V30 25070 C 2410.21 -0.786667 -2.21017 0
M  V30 25071 C 2411.23 0.220477 -1.72598 0
M  V30 25072 O 2412.4 0.0564897 -2.01321 0
M  V30 25073 C 2409.47 -0.235394 -3.459 0
M  V30 25074 C 2408.53 -1.30122 -4.09105 0
M  V30 25075 C 2407.76 -0.776161 -5.28026 0
M  V30 25076 O 2407.99 0.393561 -5.69041 0
M  V30 25077 O 2406.92 -1.54125 -5.81833 0
M  V30 25078 H 2410.75 -1.70213 -2.51518 0
M  V30 25079 H 2408.33 -0.890949 -1.19927 0
M  V30 25080 H 2410.21 0.067641 -4.21346 0
M  V30 25081 H 2408.89 0.652773 -3.1705 0
M  V30 25082 H 2407.8 -1.65728 -3.35388 0
M  V30 25083 H 2409.13 -2.1628 -4.42135 0
M  V30 25084 N 2410.78 1.28995 -0.905426 0
M  V30 25085 C 2412.03 1.95614 -0.535073 0
M  V30 25086 C 2412.36 1.71166 0.917374 0
M  V30 25087 O 2411.64 1.02788 1.65121 0
M  V30 25088 C 2411.92 3.50286 -0.83498 0
M  V30 25089 C 2411.77 3.84168 -2.33955 0
M  V30 25090 C 2413.09 4.38895 -0.325395 0
M  V30 25091 H 2410.21 0.710495 -0.195874 0
M  V30 25092 H 2412.85 1.52511 -1.13315 0
M  V30 25093 H 2411 3.8713 -0.325972 0
M  V30 25094 H 2412.67 3.57238 -2.91854 0
M  V30 25095 H 2410.92 3.31508 -2.79795 0
M  V30 25096 H 2411.59 4.92145 -2.49995 0
M  V30 25097 H 2414.06 4.09076 -0.761328 0
M  V30 25098 H 2412.94 5.45991 -0.564391 0
M  V30 25099 H 2413.2 4.35271 0.774067 0
M  V30 25100 N 2412.26 0.668514 1.42719 0
M  V30 25101 C 2413.51 0.185424 2.00846 0
M  V30 25102 C 2413.82 -1.21302 1.53444 0
M  V30 25103 O 2415.03 -1.79215 2.03947 0
M  V30 25104 C 2413.48 0.280654 3.58804 0
M  V30 25105 C 2413.09 1.68276 4.15196 0
M  V30 25106 C 2414.84 -0.144046 4.24256 0
M  V30 25107 C 2412.74 1.73109 5.65497 0
M  V30 25108 H 2411.67 0.0655607 0.751144 0
M  V30 25109 H 2414.32 0.832781 1.63515 0
M  V30 25110 H 2412.71 -0.434484 3.93609 0
M  V30 25111 H 2413.88 2.42447 3.91862 0
M  V30 25112 H 2412.19 2.05476 3.62172 0
M  V30 25113 H 2414.79 -0.127992 5.34547 0
M  V30 25114 H 2415.13 -1.1782 3.99279 0
M  V30 25115 H 2415.67 0.519867 3.94388 0
M  V30 25116 H 2412.41 2.74486 5.95263 0
M  V30 25117 H 2411.93 1.03284 5.9084 0
M  V30 25118 H 2413.61 1.48169 6.29805 0
M  V30 25119 N 2413.74 -1.52135 0.411426 0
M  V30 25120 C 2414.69 -2.28636 -0.427593 0
M  V30 25121 C 2415.68 -1.3342 -1.04381 0
M  V30 25122 O 2416.89 -1.5087 -0.981746 0
M  V30 25123 H 2413.26 -0.735498 -0.156676 0
M  V30 25124 H 2415.23 -2.97443 0.238813 0
M  V30 25125 C 2413.98 -3.1219 -1.53077 0
M  V30 25126 H 2413.3 -3.85328 -1.06594 0
M  V30 25127 H 2414.74 -3.6882 -2.09161 0
M  V30 25128 C 2413.2 -2.25899 -2.49942 0
M  V30 25129 O 2413.73 -1.90082 -3.53881 0
M  V30 25130 N 2411.94 -1.89624 -2.20207 0
M  V30 25131 H 2411.49 -2.1895 -1.35715 0
M  V30 25132 H 2411.44 -1.32181 -2.85264 0
M  V30 25133 N 2415.22 -0.14192 -1.5696 0
M  V30 25134 C 2416.45 0.516793 -2.00032 0
M  V30 25135 C 2416.85 1.59291 -1.02094 0
M  V30 25136 O 2416.2 1.83698 -0.00912886 0
M  V30 25137 C 2416.26 1.18134 -3.39536 0
M  V30 25138 C 2415.92 0.250433 -4.56313 0
M  V30 25139 C 2416.92 -0.51993 -5.17294 0
M  V30 25140 C 2414.6 0.154819 -5.02061 0
M  V30 25141 C 2416.6 -1.37341 -6.22428 0
M  V30 25142 C 2414.29 -0.702268 -6.07051 0
M  V30 25143 C 2415.28 -1.46499 -6.67103 0
M  V30 25144 O 2414.97 -2.30781 -7.70062 0
M  V30 25145 H 2414.7 0.139482 -0.661454 0
M  V30 25146 H 2417.26 -0.231962 -2.04086 0
M  V30 25147 H 2415.49 1.97763 -3.32305 0
M  V30 25148 H 2417.18 1.73926 -3.66748 0
M  V30 25149 H 2417.94 -0.456065 -4.82851 0
M  V30 25150 H 2413.82 0.73822 -4.55051 0
M  V30 25151 H 2417.37 -1.96921 -6.69229 0
M  V30 25152 H 2413.26 -0.767443 -6.40922 0
M  V30 25153 H 2414.03 -2.23973 -7.8726 0
M  V30 25154 N 2416.69 1.57047 0.131868 0
M  V30 25155 C 2417.6 2.02678 1.18147 0
M  V30 25156 C 2418.62 0.94485 1.46112 0
M  V30 25157 O 2419.8 1.25544 1.57483 0
M  V30 25158 C 2416.86 2.41107 2.49135 0
M  V30 25159 C 2415.92 3.63322 2.28682 0
M  V30 25160 C 2415.15 3.99909 3.53424 0
M  V30 25161 O 2415.38 3.36981 4.60217 0
M  V30 25162 O 2414.31 4.9308 3.45189 0
M  V30 25163 H 2418.14 2.92307 0.824017 0
M  V30 25164 H 2415.72 1.45439 0.341719 0
M  V30 25165 H 2417.6 2.66617 3.26333 0
M  V30 25166 H 2416.28 1.54629 2.84379 0
M  V30 25167 H 2415.19 3.4298 1.49384 0
M  V30 25168 H 2416.52 4.50466 1.98347 0
M  V30 25169 N 2418.17 -0.401677 1.52395 0
M  V30 25170 C 2419.58 -0.980174 1.58901 0
M  V30 25171 C 2419.93 -1.91338 0.434066 0
M  V30 25172 O 2419.06 -2.11784 -0.444582 0
M  V30 25173 C 2419.65 -1.78446 2.87997 0
M  V30 25174 C 2418.21 -2.31287 2.96957 0
M  V30 25175 C 2417.36 -1.11478 2.53905 0
M  V30 25176 H 2420.31 -0.181652 1.57657 0
M  V30 25177 H 2420.33 -2.64254 2.7377 0
M  V30 25178 H 2419.84 -1.105 3.72037 0
M  V30 25179 H 2417.94 -3.02582 2.17427 0
M  V30 25180 H 2418.06 -2.61642 4.01348 0
M  V30 25181 H 2416.42 -1.471 2.07927 0
M  V30 25182 H 2417.2 -0.450869 3.40326 0
M  V30 25183 N 2419.65 -1.43144 -0.659362 0
M  V30 25184 C 2420.9 -1.43723 -1.41515 0
M  V30 25185 C 2421.21 -0.062852 -1.95499 0
M  V30 25186 O 2422.42 0.0539206 -2.71446 0
M  V30 25187 C 2420.87 -2.5289 -2.56076 0
M  V30 25188 C 2420.48 -3.96406 -2.08726 0
M  V30 25189 C 2422.23 -2.62655 -3.33485 0
M  V30 25190 C 2420.13 -4.9705 -3.20461 0
M  V30 25191 H 2419.06 -0.534618 -0.531696 0
M  V30 25192 H 2421.71 -1.6911 -0.712314 0
M  V30 25193 H 2420.1 -2.20693 -3.28801 0
M  V30 25194 H 2421.27 -4.38033 -1.43052 0
M  V30 25195 H 2419.58 -3.9063 -1.44212 0
M  V30 25196 H 2422.18 -3.35025 -4.16729 0
M  V30 25197 H 2422.52 -1.6752 -3.81107 0
M  V30 25198 H 2423.06 -2.94123 -2.67837 0
M  V30 25199 H 2419.8 -5.93717 -2.77814 0
M  V30 25200 H 2419.32 -4.60041 -3.84866 0
M  V30 25201 H 2421 -5.19474 -3.85689 0
M  V30 25202 N 2421.13 0.897149 -1.29572 0
M  V30 25203 C 2422.38 1.64462 -1.17459 0
M  V30 25204 C 2422.7 1.9307 0.273664 0
M  V30 25205 O 2421.97 1.55857 1.18682 0
M  V30 25206 H 2420.55 0.609614 -0.431717 0
M  V30 25207 H 2423.21 1.07559 -1.62533 0
M  V30 25208 H 2422.3 2.59995 -1.72652 0
M  V30 25209 N 2422.61 1.1209 1.10786 0
M  V30 25210 C 2423.84 0.895384 1.86189 0
M  V30 25211 C 2424.24 -0.55867 1.80764 0
M  V30 25212 O 2423.59 -1.39783 1.1919 0
M  V30 25213 C 2423.65 1.28743 3.35657 0
M  V30 25214 C 2423.31 2.75204 3.64845 0
M  V30 25215 C 2424.31 3.73406 3.61751 0
M  V30 25216 C 2421.99 3.1202 3.93635 0
M  V30 25217 C 2423.99 5.0644 3.87036 0
M  V30 25218 C 2421.68 4.45237 4.18577 0
M  V30 25219 C 2422.67 5.42256 4.15267 0
M  V30 25220 O 2422.36 6.73073 4.39578 0
M  V30 25221 H 2422.09 0.320081 0.59542 0
M  V30 25222 H 2424.65 1.49369 1.40989 0
M  V30 25223 H 2422.88 0.632307 3.81495 0
M  V30 25224 H 2424.57 1.03663 3.9244 0
M  V30 25225 H 2425.33 3.46309 3.39551 0
M  V30 25226 H 2421.21 2.37116 3.95344 0
M  V30 25227 H 2424.76 5.82157 3.84368 0
M  V30 25228 H 2420.65 4.72065 4.40255 0
M  V30 25229 H 2421.42 6.78964 4.57111 0
M  V30 25230 N 2424.08 -1.28513 0.912254 0
M  V30 25231 C 2425.05 -2.25607 0.404263 0
M  V30 25232 C 2426.05 -1.53821 -0.468575 0
M  V30 25233 O 2427.24 -1.72066 -0.271843 0
M  V30 25234 C 2424.37 -3.38295 -0.420594 0
M  V30 25235 H 2425.56 -2.72058 1.26193 0
M  V30 25236 H 2423.11 -1.4017 0.691519 0
M  V30 25237 H 2423.85 -2.97203 -1.29772 0
M  V30 25238 H 2423.63 -3.91564 0.205004 0
M  V30 25239 H 2425.12 -4.10498 -0.766899 0
M  V30 25240 N 2425.56 -0.676073 -1.42362 0
M  V30 25241 C 2426.79 -0.207304 -2.05859 0
M  V30 25242 C 2427.21 1.13602 -1.50798 0
M  V30 25243 O 2426.56 1.70597 -0.648295 0
M  V30 25244 C 2426.61 -0.135039 -3.61248 0
M  V30 25245 O 2426.33 -1.42528 -4.14267 0
M  V30 25246 C 2427.84 0.357073 -4.4186 0
M  V30 25247 H 2425.06 -0.100514 -0.663429 0
M  V30 25248 H 2427.6 -0.923168 -1.82477 0
M  V30 25249 H 2425.75 0.531521 -3.83736 0
M  V30 25250 H 2426.17 -1.29948 -5.08147 0
M  V30 25251 H 2427.64 0.356544 -5.50847 0
M  V30 25252 H 2428.12 1.39256 -4.16539 0
M  V30 25253 H 2428.73 -0.277794 -4.24392 0
M  V30 25254 N 2427.04 1.51915 -0.419488 0
M  V30 25255 C 2428.32 1.94448 0.211965 0
M  V30 25256 C 2428.7 1.35706 1.617 0
M  V30 25257 O 2428.05 0.53697 2.22101 0
M  V30 25258 C 2428.26 3.48381 0.207811 0
M  V30 25259 C 2429.6 4.22497 0.422118 0
M  V30 25260 O 2430.63 3.55044 0.286715 0
M  V30 25261 O 2429.49 5.42128 0.689913 0
M  V30 25262 H 2426.58 0.815137 0.139571 0
M  V30 25263 H 2429.13 1.62882 -0.47618 0
M  V30 25264 H 2427.9 3.83545 -0.775169 0
M  V30 25265 H 2427.52 3.86338 0.93962 0
M  V30 25266 N 2428.52 0.150242 1.56882 0
M  V30 25267 C 2429.45 -0.82632 2.12714 0
M  V30 25268 C 2430.43 -1.2402 1.05156 0
M  V30 25269 O 2431.61 -1.33573 1.33006 0
M  V30 25270 C 2428.74 -2.10997 2.64949 0
M  V30 25271 C 2427.79 -1.84177 3.84683 0
M  V30 25272 S 2428.62 -1.02986 5.25504 0
M  V30 25273 C 2429.78 -2.32463 5.8113 0
M  V30 25274 H 2430.01 -0.351546 2.95214 0
M  V30 25275 H 2427.54 -0.064094 1.54267 0
M  V30 25276 H 2429.5 -2.84737 2.95694 0
M  V30 25277 H 2428.16 -2.55589 1.82573 0
M  V30 25278 H 2427.35 -2.79368 4.19487 0
M  V30 25279 H 2426.96 -1.18543 3.54716 0
M  V30 25280 H 2429.25 -3.2809 5.92759 0
M  V30 25281 H 2430.19 -2.02159 6.78629 0
M  V30 25282 H 2430.6 -2.4326 5.09396 0
M  V30 25283 N 2430 -1.57115 -0.123538 0
M  V30 25284 C 2431.24 -1.85766 -0.828395 0
M  V30 25285 C 2431.6 -0.737403 -1.77708 0
M  V30 25286 O 2430.89 0.262945 -1.89787 0
M  V30 25287 C 2431.08 -3.18571 -1.6201 0
M  V30 25288 C 2430.91 -4.43409 -0.749585 0
M  V30 25289 C 2429.68 -5.03665 -0.406162 0
M  V30 25290 C 2431.88 -5.14253 -0.0692601 0
M  V30 25291 N 2429.86 -6.12056 0.475497 0
M  V30 25292 C 2431.23 -6.16352 0.671583 0
M  V30 25293 C 2433.29 -4.97899 0.00763145 0
M  V30 25294 C 2431.99 -7.03865 1.48209 0
M  V30 25295 C 2434.02 -5.85896 0.804948 0
M  V30 25296 C 2433.38 -6.87494 1.534 0
M  V30 25297 H 2429.48 -0.730074 -0.280206 0
M  V30 25298 H 2432.06 -1.94481 -0.0923841 0
M  V30 25299 H 2430.23 -3.10961 -2.32719 0
M  V30 25300 H 2431.97 -3.35046 -2.26994 0
M  V30 25301 H 2428.72 -4.67666 -0.747364 0
M  V30 25302 H 2429.15 -6.70883 0.908042 0
M  V30 25303 H 2433.79 -4.19316 -0.541667 0
M  V30 25304 H 2431.51 -7.8186 2.04256 0
M  V30 25305 H 2435.09 -5.75308 0.866743 0
M  V30 25306 H 2433.97 -7.54407 2.14104 0
M  V30 25307 N 2431.47 0.393589 -1.52606 0
M  V30 25308 C 2432.7 1.16492 -1.71594 0
M  V30 25309 C 2433.12 1.83087 -0.431363 0
M  V30 25310 O 2432.48 1.70641 0.612493 0
M  V30 25311 C 2432.53 2.19208 -2.86322 0
M  V30 25312 O 2431.63 3.25695 -2.52975 0
M  V30 25313 H 2430.98 0.33934 -0.57074 0
M  V30 25314 H 2433.51 0.459289 -1.99378 0
M  V30 25315 H 2433.52 2.63281 -3.11684 0
M  V30 25316 H 2432.19 1.70123 -3.79514 0
M  V30 25317 H 2430.77 2.86792 -2.38337 0
M  V30 25318 N 2432.95 1.43492 0.651762 0
M  V30 25319 C 2434.2 1.44472 1.40751 0
M  V30 25320 C 2434.51 0.0732189 1.95463 0
M  V30 25321 O 2435.72 -0.0395244 2.71471 0
M  V30 25322 C 2434.18 2.54244 2.54731 0
M  V30 25323 C 2433.78 3.97507 2.06621 0
M  V30 25324 C 2435.53 2.6442 3.32088 0
M  V30 25325 C 2433.44 4.98743 3.1782 0
M  V30 25326 H 2432.37 0.53743 0.528853 0
M  V30 25327 H 2435.02 1.69486 0.703335 0
M  V30 25328 H 2433.4 2.22434 3.27626 0
M  V30 25329 H 2434.57 4.38785 1.40727 0
M  V30 25330 H 2432.89 3.91389 1.42139 0
M  V30 25331 H 2435.48 3.3723 4.14946 0
M  V30 25332 H 2435.83 1.69538 3.80214 0
M  V30 25333 H 2436.36 2.95539 2.66274 0
M  V30 25334 H 2433.1 5.95182 2.74661 0
M  V30 25335 H 2432.62 4.62076 3.82421 0
M  V30 25336 H 2434.3 5.21512 3.82928 0
M  V30 25337 N 2434.43 -0.890264 1.30046 0
M  V30 25338 C 2435.68 -1.63837 1.1833 0
M  V30 25339 C 2436 -1.93213 -0.263421 0
M  V30 25340 O 2435.27 -1.56485 -1.17853 0
M  V30 25341 H 2433.85 -0.607316 0.434944 0
M  V30 25342 H 2436.51 -1.06695 1.63101 0
M  V30 25343 H 2435.61 -2.59076 1.74029 0
M  V30 25344 N 2435.91 -1.12676 -1.1019 0
M  V30 25345 C 2437.15 -0.884947 -1.82473 0
M  V30 25346 C 2437.49 0.587698 -1.85094 0
M  V30 25347 O 2436.76 1.43455 -1.31343 0
M  V30 25348 C 2437.05 -1.46359 -3.29015 0
M  V30 25349 C 2436.9 -3.00479 -3.34713 0
M  V30 25350 C 2438.22 -1.12526 -4.25471 0
M  V30 25351 H 2435.34 -0.322926 -0.662486 0
M  V30 25352 H 2437.98 -1.39378 -1.29127 0
M  V30 25353 H 2436.13 -1.03084 -3.74574 0
M  V30 25354 H 2437.8 -3.52452 -2.97616 0
M  V30 25355 H 2436.04 -3.35877 -2.74535 0
M  V30 25356 H 2436.71 -3.36061 -4.37912 0
M  V30 25357 H 2439.19 -1.49907 -3.88159 0
M  V30 25358 H 2438.07 -1.55672 -5.26362 0
M  V30 25359 H 2438.33 -0.0378184 -4.42084 0
M  V30 25360 N 2437.39 1.28028 -0.919057 0
M  V30 25361 C 2438.64 1.94033 -0.550836 0
M  V30 25362 C 2438.95 1.73098 0.910847 0
M  V30 25363 O 2440.15 2.3337 1.38746 0
M  V30 25364 C 2438.61 3.47561 -0.93431 0
M  V30 25365 C 2438.22 3.77266 -2.41608 0
M  V30 25366 C 2439.96 4.19695 -0.636928 0
M  V30 25367 C 2437.87 5.24128 -2.73941 0
M  V30 25368 H 2436.8 0.726358 -0.202286 0
M  V30 25369 H 2439.45 1.45456 -1.1187 0
M  V30 25370 H 2437.83 3.94898 -0.295184 0
M  V30 25371 H 2439.01 3.40718 -3.10239 0
M  V30 25372 H 2437.32 3.18316 -2.68447 0
M  V30 25373 H 2439.92 5.27818 -0.855098 0
M  V30 25374 H 2440.26 4.1412 0.425502 0
M  V30 25375 H 2440.79 3.78151 -1.23476 0
M  V30 25376 H 2437.53 5.34785 -3.79058 0
M  V30 25377 H 2437.05 5.61854 -2.09952 0
M  V30 25378 H 2438.73 5.91921 -2.61225 0
M  V30 25379 N 2438.86 0.683613 1.42002 0
M  V30 25380 C 2440.1 0.213549 2.03281 0
M  V30 25381 C 2440.47 -1.16094 1.52926 0
M  V30 25382 O 2441.67 -1.72617 2.06051 0
M  V30 25383 C 2439.94 0.255919 3.56483 0
M  V30 25384 S 2441.5 -0.141852 4.38571 0
M  V30 25385 H 2438.32 0.0869977 0.705657 0
M  V30 25386 H 2440.92 0.89873 1.73618 0
M  V30 25387 H 2439.62 1.25847 3.90628 0
M  V30 25388 H 2439.15 -0.448807 3.90832 0
M  V30 25389 H 2441.17 -1.37286 4.7683 0
M  V30 25390 N 2440.34 -1.5169 0.427538 0
M  V30 25391 C 2441.57 -2.06119 -0.14095 0
M  V30 25392 C 2441.98 -1.2959 -1.37851 0
M  V30 25393 O 2441.32 -0.346067 -1.80411 0
M  V30 25394 C 2441.39 -3.55448 -0.538213 0
M  V30 25395 C 2441.05 -4.5316 0.591174 0
M  V30 25396 C 2442.05 -4.98969 1.46036 0
M  V30 25397 C 2439.73 -4.96377 0.769115 0
M  V30 25398 C 2441.73 -5.86656 2.49227 0
M  V30 25399 C 2439.41 -5.83856 1.80431 0
M  V30 25400 C 2440.41 -6.28892 2.66428 0
M  V30 25401 O 2440.1 -7.14636 3.68171 0
M  V30 25402 H 2439.83 -0.675817 -0.0157336 0
M  V30 25403 H 2442.39 -1.96364 0.60253 0
M  V30 25404 H 2440.62 -3.62953 -1.33425 0
M  V30 25405 H 2442.3 -3.92437 -1.03673 0
M  V30 25406 H 2443.07 -4.66283 1.33437 0
M  V30 25407 H 2438.95 -4.6087 0.109354 0
M  V30 25408 H 2442.49 -6.21729 3.16383 0
M  V30 25409 H 2438.39 -6.15955 1.93053 0
M  V30 25410 H 2439.16 -7.32792 3.64635 0
M  V30 25411 N 2441.82 -0.15856 -1.568 0
M  V30 25412 C 2443.07 0.489667 -1.95666 0
M  V30 25413 C 2443.38 1.65246 -1.04657 0
M  V30 25414 O 2444.59 2.36608 -1.3315 0
M  V30 25415 C 2443.05 0.922521 -3.47876 0
M  V30 25416 C 2442.65 -0.213971 -4.47489 0
M  V30 25417 C 2444.4 1.53989 -3.95585 0
M  V30 25418 C 2442.3 0.237799 -5.90922 0
M  V30 25419 H 2441.23 0.186704 -0.730519 0
M  V30 25420 H 2443.89 -0.244754 -1.8186 0
M  V30 25421 H 2442.27 1.71255 -3.57054 0
M  V30 25422 H 2443.44 -0.991115 -4.50015 0
M  V30 25423 H 2441.76 -0.740479 -4.09763 0
M  V30 25424 H 2444.35 1.88972 -5.00194 0
M  V30 25425 H 2444.7 2.43313 -3.37794 0
M  V30 25426 H 2445.23 0.814542 -3.89371 0
M  V30 25427 H 2441.97 -0.620351 -6.52558 0
M  V30 25428 H 2441.49 0.980572 -5.9173 0
M  V30 25429 H 2443.17 0.685954 -6.43353 0
M  V30 25430 N 2443.3 1.57178 0.115204 0
M  V30 25431 C 2444.23 2.03653 1.14227 0
M  V30 25432 C 2445.21 0.921681 1.42965 0
M  V30 25433 O 2446.4 1.19164 1.53341 0
M  V30 25434 C 2443.53 2.44405 2.46746 0
M  V30 25435 C 2442.48 3.59369 2.32461 0
M  V30 25436 C 2441.81 3.86033 3.69977 0
M  V30 25437 C 2443.11 4.90962 1.78194 0
M  V30 25438 H 2444.8 2.89706 0.755698 0
M  V30 25439 H 2442.35 1.39374 0.362068 0
M  V30 25440 H 2444.3 2.75523 3.1885 0
M  V30 25441 H 2443.02 1.55327 2.873 0
M  V30 25442 H 2441.68 3.28466 1.62805 0
M  V30 25443 H 2441.33 2.94154 4.08023 0
M  V30 25444 H 2441.03 4.63419 3.61271 0
M  V30 25445 H 2442.55 4.19606 4.4358 0
M  V30 25446 H 2443.97 5.20592 2.40119 0
M  V30 25447 H 2442.36 5.72374 1.803 0
M  V30 25448 H 2443.43 4.79223 0.739792 0
M  V30 25449 N 2444.78 -0.38549 1.52813 0
M  V30 25450 C 2446.02 -1.13185 1.68277 0
M  V30 25451 C 2446.36 -1.89532 0.423212 0
M  V30 25452 O 2445.63 -1.8568 -0.57908 0
M  V30 25453 C 2445.91 -2.10725 2.92005 0
M  V30 25454 C 2445.77 -1.38118 4.28069 0
M  V30 25455 C 2447.09 -3.11107 3.11288 0
M  V30 25456 H 2444.21 -0.410104 0.612359 0
M  V30 25457 H 2446.85 -0.414836 1.85416 0
M  V30 25458 H 2445 -2.7187 2.77523 0
M  V30 25459 H 2446.67 -0.799107 4.54326 0
M  V30 25460 H 2444.91 -0.683017 4.28389 0
M  V30 25461 H 2445.58 -2.09408 5.10737 0
M  V30 25462 H 2448.06 -2.60055 3.24824 0
M  V30 25463 H 2446.94 -3.76598 3.99331 0
M  V30 25464 H 2447.2 -3.80169 2.25663 0
M  V30 25465 N 2446.26 -1.43835 -0.644143 0
M  V30 25466 C 2447.48 -1.49607 -1.4364 0
M  V30 25467 C 2447.91 -0.117946 -1.8773 0
M  V30 25468 O 2447.26 0.890211 -1.5794 0
M  V30 25469 C 2447.31 -2.45468 -2.64155 0
M  V30 25470 O 2446.42 -1.94721 -3.63535 0
M  V30 25471 H 2445.76 -0.505688 -0.43032 0
M  V30 25472 H 2448.29 -1.88841 -0.787415 0
M  V30 25473 H 2448.3 -2.63073 -3.1186 0
M  V30 25474 H 2446.97 -3.45576 -2.31408 0
M  V30 25475 H 2445.55 -1.8682 -3.22727 0
M  V30 25476 N 2447.73 0.883355 -1.30517 0
M  V30 25477 C 2448.98 1.63207 -1.19197 0
M  V30 25478 C 2449.3 1.9335 0.253171 0
M  V30 25479 O 2448.57 1.57107 1.17022 0
M  V30 25480 H 2447.15 0.605001 -0.438158 0
M  V30 25481 H 2449.81 1.05829 -1.63665 0
M  V30 25482 H 2448.91 2.5815 -1.754 0
M  V30 25483 N 2449.21 1.13259 1.09591 0
M  V30 25484 C 2450.14 0.830984 2.18213 0
M  V30 25485 C 2451.12 -0.208936 1.68812 0
M  V30 25486 O 2452.31 -0.0682324 1.9408 0
M  V30 25487 C 2449.44 0.294357 3.4605 0
M  V30 25488 C 2448.39 1.26833 4.08775 0
M  V30 25489 C 2447.72 0.591542 5.31418 0
M  V30 25490 C 2449.02 2.62623 4.51472 0
M  V30 25491 H 2450.71 1.73927 2.437 0
M  V30 25492 H 2448.26 0.837695 1.17127 0
M  V30 25493 H 2450.21 0.0710347 4.2134 0
M  V30 25494 H 2448.93 -0.64931 3.20081 0
M  V30 25495 H 2447.59 1.47762 3.35503 0
M  V30 25496 H 2447.24 -0.357544 5.01728 0
M  V30 25497 H 2446.94 1.24133 5.74339 0
M  V30 25498 H 2448.47 0.377462 6.09432 0
M  V30 25499 H 2449.88 2.45672 5.17994 0
M  V30 25500 H 2448.28 3.23761 5.05271 0
M  V30 25501 H 2449.35 3.20412 3.63956 0
M  V30 25502 N 2450.69 -1.27539 0.925834 0
M  V30 25503 C 2451.91 -1.99097 0.580959 0
M  V30 25504 C 2452.34 -1.68624 -0.833526 0
M  V30 25505 O 2451.7 -0.925449 -1.55901 0
M  V30 25506 C 2451.75 -3.51356 0.811248 0
M  V30 25507 O 2450.85 -4.12213 -0.124056 0
M  V30 25508 H 2450.19 -0.625118 0.223884 0
M  V30 25509 H 2452.72 -1.62393 1.24458 0
M  V30 25510 H 2452.73 -4.01487 0.726081 0
M  V30 25511 H 2451.41 -3.72869 1.84233 0
M  V30 25512 H 2449.98 -3.72898 0.0108661 0
M  V30 25513 N 2452.17 -0.691135 -1.41637 0
M  V30 25514 C 2453.58 -0.295549 -1.84346 0
M  V30 25515 C 2453.93 1.16544 -1.57835 0
M  V30 25516 O 2453.05 1.89412 -1.04652 0
M  V30 25517 C 2453.65 -0.529634 -3.34635 0
M  V30 25518 C 2452.21 -0.18801 -3.7593 0
M  V30 25519 C 2451.36 -0.814099 -2.65081 0
M  V30 25520 H 2454.31 -0.892115 -1.31252 0
M  V30 25521 H 2454.33 0.213082 -3.79903 0
M  V30 25522 H 2453.84 -1.59304 -3.53898 0
M  V30 25523 H 2451.94 0.871304 -3.62269 0
M  V30 25524 H 2452.05 -0.639933 -4.74807 0
M  V30 25525 H 2450.42 -0.244061 -2.53528 0
M  V30 25526 H 2451.2 -1.88128 -2.87163 0
M  V30 25527 N 2453.65 1.51461 -0.435577 0
M  V30 25528 C 2454.89 2.02073 0.131479 0
M  V30 25529 C 2455.22 1.31983 1.42866 0
M  V30 25530 O 2454.48 0.422917 1.91076 0
M  V30 25531 C 2454.77 3.55162 0.399357 0
M  V30 25532 C 2454.44 4.43532 -0.811798 0
M  V30 25533 C 2453.1 4.67405 -1.14395 0
M  V30 25534 C 2455.45 4.95389 -1.61985 0
M  V30 25535 C 2452.78 5.4038 -2.28486 0
M  V30 25536 C 2455.13 5.69616 -2.75174 0
M  V30 25537 C 2453.8 5.91752 -3.08845 0
M  V30 25538 H 2453.07 0.739436 0.0481114 0
M  V30 25539 H 2455.72 1.82429 -0.582412 0
M  V30 25540 H 2454.02 3.73127 1.19512 0
M  V30 25541 H 2455.72 3.91855 0.851501 0
M  V30 25542 H 2452.31 4.25147 -0.542973 0
M  V30 25543 H 2456.49 4.76831 -1.37645 0
M  V30 25544 H 2451.75 5.55735 -2.5489 0
M  V30 25545 H 2455.92 6.08787 -3.38158 0
M  V30 25546 H 2453.55 6.48079 -3.97364 0
M  V30 25547 N 2455.12 0.166873 1.56714 0
M  V30 25548 C 2456.06 -0.803713 2.13578 0
M  V30 25549 C 2457.04 -1.22898 1.06466 0
M  V30 25550 O 2458.22 -1.32154 1.34415 0
M  V30 25551 C 2455.35 -2.08175 2.67172 0
M  V30 25552 C 2454.39 -1.80086 3.86615 0
M  V30 25553 S 2455.23 -0.974068 5.26566 0
M  V30 25554 C 2456.38 -2.26287 5.83562 0
M  V30 25555 H 2456.61 -0.320215 2.9557 0
M  V30 25556 H 2454.15 -0.0477283 1.54326 0
M  V30 25557 H 2456.11 -2.81585 2.98697 0
M  V30 25558 H 2454.77 -2.53639 1.85273 0
M  V30 25559 H 2453.96 -2.74903 4.22427 0
M  V30 25560 H 2453.56 -1.14775 3.55953 0
M  V30 25561 H 2455.85 -3.21784 5.96205 0
M  V30 25562 H 2456.8 -1.9495 6.80735 0
M  V30 25563 H 2457.2 -2.37844 5.11948 0
M  V30 25564 N 2456.6 -1.57237 -0.106866 0
M  V30 25565 C 2457.85 -1.85119 -0.810889 0
M  V30 25566 C 2458.17 -0.753858 -1.79839 0
M  V30 25567 O 2457.44 0.221022 -1.94649 0
M  V30 25568 H 2456.02 -0.68303 -0.302454 0
M  V30 25569 H 2458.68 -1.94686 -0.0912982 0
M  V30 25570 H 2457.78 -2.81454 -1.3487 0
M  V30 25571 N 2458.08 0.377381 -1.53015 0
M  V30 25572 C 2459.36 1.13619 -1.59217 0
M  V30 25573 C 2459.74 2.0742 -0.392444 0
M  V30 25574 O 2459.09 2.19976 0.618303 0
M  V30 25575 C 2459.3 1.88568 -2.93672 0
M  V30 25576 C 2460.64 2.43519 -3.47827 0
M  V30 25577 O 2461.67 1.9871 -2.95623 0
M  V30 25578 O 2460.53 3.25404 -4.39061 0
M  V30 25579 H 2457.62 0.520529 -0.642634 0
M  V30 25580 H 2460.17 0.381596 -1.65354 0
M  V30 25581 H 2458.94 1.20042 -3.72432 0
M  V30 25582 H 2458.56 2.70963 -2.90972 0
M  V30 25583 N 2459.56 1.44175 0.636506 0
M  V30 25584 C 2460.51 1.50918 1.76993 0
M  V30 25585 C 2461.5 0.381324 1.65052 0
M  V30 25586 O 2462.71 0.556041 1.71196 0
M  V30 25587 H 2459.08 0.473465 0.584239 0
M  V30 25588 H 2461.05 2.46323 1.68427 0
M  V30 25589 C 2459.8 1.4654 3.15312 0
M  V30 25590 H 2459.12 2.32639 3.25145 0
M  V30 25591 H 2460.56 1.55319 3.94528 0
M  V30 25592 C 2459.02 0.185364 3.3639 0
M  V30 25593 O 2459.55 -0.746618 3.94701 0
M  V30 25594 N 2457.76 0.0902117 2.9046 0
M  V30 25595 H 2457.31 0.849459 2.43191 0
M  V30 25596 H 2457.26 -0.7655 3.04938 0
M  V30 25597 N 2461.04 -0.876421 1.30983 0
M  V30 25598 C 2462.31 -1.61092 1.10945 0
M  V30 25599 C 2462.69 -2.08373 -0.338187 0
M  V30 25600 O 2462.04 -1.85719 -1.33119 0
M  V30 25601 C 2462.25 -2.77388 2.11794 0
M  V30 25602 C 2463.6 -3.4751 2.43971 0
M  V30 25603 O 2464.62 -2.87587 2.10171 0
M  V30 25604 O 2463.48 -4.55592 3.01825 0
M  V30 25605 H 2460.58 -0.708429 0.426682 0
M  V30 25606 H 2463.12 -0.922449 1.42439 0
M  V30 25607 H 2461.89 -2.39817 3.09198 0
M  V30 25608 H 2461.52 -3.53927 1.81167 0
M  V30 25609 N 2462.51 -1.13839 -1.08989 0
M  V30 25610 C 2463.46 -0.815385 -2.1784 0
M  V30 25611 C 2464.46 0.204204 -1.68165 0
M  V30 25612 O 2465.66 0.0608988 -1.79897 0
M  V30 25613 H 2462.04 -0.245928 -0.71065 0
M  V30 25614 H 2464.01 -1.74148 -2.42312 0
M  V30 25615 C 2462.76 -0.302675 -3.4638 0
M  V30 25616 H 2462.08 -1.07857 -3.84977 0
M  V30 25617 H 2463.52 -0.115148 -4.23844 0
M  V30 25618 C 2461.98 0.972535 -3.22558 0
M  V30 25619 O 2462.51 2.04748 -3.45603 0
M  V30 25620 N 2460.72 0.905407 -2.76135 0
M  V30 25621 H 2460.26 0.0304968 -2.57582 0
M  V30 25622 H 2460.22 1.75922 -2.60574 0
M  V30 25623 N 2463.99 1.27046 -0.932584 0
M  V30 25624 C 2464.9 2.30413 -0.441259 0
M  V30 25625 C 2465.92 1.67234 0.480496 0
M  V30 25626 O 2467.09 1.98118 0.362116 0
M  V30 25627 C 2464.16 3.45455 0.29359 0
M  V30 25628 C 2463.22 4.24139 -0.663675 0
M  V30 25629 C 2462.45 5.33688 0.0361994 0
M  V30 25630 O 2462.68 5.56429 1.2547 0
M  V30 25631 O 2461.61 5.98508 -0.63812 0
M  V30 25632 H 2465.44 2.74486 -1.29967 0
M  V30 25633 H 2463.02 1.32086 -0.698124 0
M  V30 25634 H 2464.9 4.15412 0.707878 0
M  V30 25635 H 2463.58 3.03428 1.12753 0
M  V30 25636 H 2462.49 3.56697 -1.12774 0
M  V30 25637 H 2463.82 4.69893 -1.46497 0
M  V30 25638 N 2465.47 0.698636 1.41269 0
M  V30 25639 C 2466.7 0.240028 2.05503 0
M  V30 25640 C 2467.11 -1.11189 1.52586 0
M  V30 25641 O 2466.47 -1.69544 0.675353 0
M  V30 25642 C 2466.52 0.192493 3.60987 0
M  V30 25643 O 2466.24 1.49101 4.11947 0
M  V30 25644 C 2467.74 -0.286732 4.42372 0
M  V30 25645 H 2464.96 0.111056 0.661746 0
M  V30 25646 H 2467.51 0.952082 1.80985 0
M  V30 25647 H 2465.66 -0.470405 3.84533 0
M  V30 25648 H 2466.08 1.38016 5.06016 0
M  V30 25649 H 2467.55 -0.268864 5.51345 0
M  V30 25650 H 2468.03 -1.32612 4.18701 0
M  V30 25651 H 2468.63 0.345276 4.23896 0
M  V30 25652 N 2466.95 -1.51228 0.443603 0
M  V30 25653 C 2467.88 -2.30784 -0.355102 0
M  V30 25654 C 2468.86 -1.3647 -1.01538 0
M  V30 25655 O 2470.04 -1.65391 -1.01782 0
M  V30 25656 C 2467.17 -3.15442 -1.45306 0
M  V30 25657 C 2466.13 -4.18085 -0.915929 0
M  V30 25658 C 2465.45 -4.91303 -2.11011 0
M  V30 25659 C 2466.75 -5.22272 0.053952 0
M  V30 25660 H 2468.45 -2.97803 0.308819 0
M  V30 25661 H 2465.99 -1.43217 0.149963 0
M  V30 25662 H 2467.95 -3.6988 -2.01908 0
M  V30 25663 H 2466.67 -2.46255 -2.14536 0
M  V30 25664 H 2465.33 -3.64707 -0.372081 0
M  V30 25665 H 2464.98 -4.18614 -2.78875 0
M  V30 25666 H 2464.68 -5.60715 -1.75707 0
M  V30 25667 H 2466.2 -5.48567 -2.68155 0
M  V30 25668 H 2467.62 -5.71745 -0.421969 0
M  V30 25669 H 2466.01 -5.99247 0.319881 0
M  V30 25670 H 2467.08 -4.74714 0.988663 0
M  V30 25671 N 2468.43 -0.175182 -1.56623 0
M  V30 25672 C 2469.39 0.7397 -2.16936 0
M  V30 25673 C 2470.39 1.15532 -1.11844 0
M  V30 25674 O 2471.58 1.07164 -1.37337 0
M  V30 25675 C 2468.71 2.00733 -2.75534 0
M  V30 25676 H 2469.9 0.214586 -2.99131 0
M  V30 25677 H 2467.46 0.0743922 -1.56123 0
M  V30 25678 H 2468.19 2.57544 -1.97083 0
M  V30 25679 H 2467.98 1.71825 -3.52447 0
M  V30 25680 H 2469.47 2.66016 -3.21909 0
M  V30 25681 N 2469.91 1.57292 0.0985263 0
M  V30 25682 C 2470.85 2.02823 1.13866 0
M  V30 25683 C 2471.85 0.928691 1.41675 0
M  V30 25684 O 2473.05 1.11387 1.41396 0
M  V30 25685 H 2469.43 0.646324 0.384408 0
M  V30 25686 H 2471.4 2.89376 0.728296 0
M  V30 25687 C 2470.15 2.46558 2.45162 0
M  V30 25688 H 2469.47 3.30744 2.24607 0
M  V30 25689 H 2470.91 2.82196 3.16451 0
M  V30 25690 C 2469.37 1.33747 3.09214 0
M  V30 25691 O 2469.9 0.66471 3.96162 0
M  V30 25692 N 2468.11 1.08932 2.69411 0
M  V30 25693 H 2467.65 1.63821 1.98798 0
M  V30 25694 H 2467.61 0.336513 3.12594 0
M  V30 25695 N 2471.38 -0.369261 1.53213 0
M  V30 25696 C 2472.63 -1.11394 1.69468 0
M  V30 25697 C 2472.96 -1.89073 0.44329 0
M  V30 25698 O 2472.24 -1.86283 -0.559354 0
M  V30 25699 C 2472.52 -2.07616 2.94224 0
M  V30 25700 C 2472.37 -1.3357 4.2951 0
M  V30 25701 C 2473.69 -3.07788 3.1457 0
M  V30 25702 H 2470.81 -0.403586 0.616674 0
M  V30 25703 H 2473.45 -0.395147 1.85846 0
M  V30 25704 H 2471.6 -2.68911 2.80391 0
M  V30 25705 H 2473.28 -0.750875 4.55148 0
M  V30 25706 H 2471.52 -0.637542 4.2909 0
M  V30 25707 H 2472.19 -2.0398 5.12929 0
M  V30 25708 H 2474.67 -2.56595 3.27564 0
M  V30 25709 H 2473.54 -3.72341 4.03303 0
M  V30 25710 H 2473.8 -3.77755 2.29682 0
M  V30 25711 N 2472.86 -1.4451 -0.628851 0
M  V30 25712 C 2474.09 -1.509 -1.41552 0
M  V30 25713 C 2474.5 -0.134597 -1.8832 0
M  V30 25714 O 2473.86 0.859936 -1.6097 0
M  V30 25715 C 2473.91 -2.47561 -2.63431 0
M  V30 25716 O 2473.63 -3.79658 -2.18612 0
M  V30 25717 C 2475.13 -2.63438 -3.56533 0
M  V30 25718 H 2472.35 -0.511717 -0.434035 0
M  V30 25719 H 2474.9 -1.89496 -0.768861 0
M  V30 25720 H 2473.05 -2.12094 -3.24183 0
M  V30 25721 H 2473.47 -4.31866 -2.97644 0
M  V30 25722 H 2474.94 -3.35095 -4.38651 0
M  V30 25723 H 2475.42 -1.68745 -4.0549 0
M  V30 25724 H 2476.02 -2.99815 -3.01647 0
M  V30 25725 N 2474.34 0.869463 -1.31446 0
M  V30 25726 C 2475.56 1.66056 -1.24259 0
M  V30 25727 C 2475.99 1.87149 0.188895 0
M  V30 25728 O 2475.35 1.41362 1.13519 0
M  V30 25729 C 2475.4 3.00555 -1.99246 0
M  V30 25730 O 2474.5 3.9036 -1.33014 0
M  V30 25731 H 2473.84 0.506824 -0.428982 0
M  V30 25732 H 2476.37 1.08401 -1.73523 0
M  V30 25733 H 2476.38 3.50488 -2.0886 0
M  V30 25734 H 2475.06 2.84523 -3.03347 0
M  V30 25735 H 2473.63 3.48811 -1.31854 0
M  V30 25736 N 2475.82 1.14415 1.08383 0
M  V30 25737 C 2476.78 0.834086 2.13485 0
M  V30 25738 C 2477.78 -0.161389 1.59988 0
M  V30 25739 O 2478.97 0.0669881 1.74071 0
M  V30 25740 C 2476.1 0.243414 3.4003 0
M  V30 25741 H 2477.3 1.76555 2.42422 0
M  V30 25742 H 2474.85 0.950211 1.24099 0
M  V30 25743 H 2475.58 -0.696751 3.16727 0
M  V30 25744 H 2475.37 0.960434 3.80155 0
M  V30 25745 H 2476.86 0.0436976 4.17577 0
M  V30 25746 N 2477.3 -1.26549 0.939309 0
M  V30 25747 C 2478.52 -1.97931 0.602571 0
M  V30 25748 C 2478.94 -1.69965 -0.82203 0
M  V30 25749 O 2478.3 -0.966811 -1.54787 0
M  V30 25750 C 2478.35 -3.51772 0.833008 0
M  V30 25751 O 2478.07 -3.78764 2.20158 0
M  V30 25752 C 2479.57 -4.40396 0.50656 0
M  V30 25753 H 2476.79 -0.631343 0.227259 0
M  V30 25754 H 2479.33 -1.61111 1.2595 0
M  V30 25755 H 2477.49 -3.86759 0.222712 0
M  V30 25756 H 2477.9 -4.73302 2.26022 0
M  V30 25757 H 2479.38 -5.47305 0.718429 0
M  V30 25758 H 2479.85 -4.35636 -0.558375 0
M  V30 25759 H 2480.46 -4.10949 1.0955 0
M  V30 25760 N 2478.77 -0.706118 -1.40896 0
M  V30 25761 C 2480.02 -0.250716 -2.01849 0
M  V30 25762 C 2480.37 1.14038 -1.54962 0
M  V30 25763 O 2479.67 1.76072 -0.755597 0
M  V30 25764 C 2479.86 -0.259162 -3.56459 0
M  V30 25765 C 2479.69 -1.64954 -4.18354 0
M  V30 25766 C 2478.46 -2.25493 -4.52196 0
M  V30 25767 C 2480.66 -2.59808 -4.43852 0
M  V30 25768 N 2478.64 -3.56986 -4.99434 0
M  V30 25769 C 2480.01 -3.75993 -4.9298 0
M  V30 25770 C 2482.07 -2.5794 -4.25877 0
M  V30 25771 C 2480.77 -4.90606 -5.26021 0
M  V30 25772 C 2482.8 -3.71674 -4.60014 0
M  V30 25773 C 2482.16 -4.8659 -5.09322 0
M  V30 25774 H 2478.26 -0.137367 -0.769841 0
M  V30 25775 H 2480.84 -0.925875 -1.71277 0
M  V30 25776 H 2479.01 0.385524 -3.86482 0
M  V30 25777 H 2480.74 0.212059 -4.04144 0
M  V30 25778 H 2477.5 -1.77679 -4.39007 0
M  V30 25779 H 2477.92 -4.24416 -5.27447 0
M  V30 25780 H 2482.56 -1.70305 -3.86983 0
M  V30 25781 H 2480.28 -5.78894 -5.63833 0
M  V30 25782 H 2483.87 -3.71492 -4.47755 0
M  V30 25783 H 2482.75 -5.73138 -5.3524 0
M  V30 25784 N 2480.25 1.50991 -0.451617 0
M  V30 25785 C 2481.53 1.94854 0.170672 0
M  V30 25786 C 2481.91 1.39106 1.58786 0
M  V30 25787 O 2481.26 0.58396 2.20912 0
M  V30 25788 C 2481.47 3.48743 0.133867 0
M  V30 25789 C 2482.81 4.23297 0.332405 0
M  V30 25790 O 2483.84 3.55572 0.211341 0
M  V30 25791 O 2482.7 5.43469 0.574765 0
M  V30 25792 H 2479.79 0.817914 0.12225 0
M  V30 25793 H 2482.34 1.61836 -0.510622 0
M  V30 25794 H 2481.11 3.81815 -0.85635 0
M  V30 25795 H 2480.73 3.88244 0.857461 0
M  V30 25796 N 2481.73 0.183486 1.56528 0
M  V30 25797 C 2482.98 -0.458323 1.97245 0
M  V30 25798 C 2483.3 -1.62427 1.06995 0
M  V30 25799 O 2482.56 -1.9541 0.106576 0
M  V30 25800 C 2482.86 -0.971577 3.43941 0
M  V30 25801 C 2482.52 0.0797577 4.50829 0
M  V30 25802 C 2481.19 0.368668 4.79786 0
M  V30 25803 C 2483.54 0.792729 5.15136 0
M  V30 25804 C 2480.87 1.37573 5.70343 0
M  V30 25805 C 2483.22 1.78886 6.06781 0
M  V30 25806 C 2481.88 2.08509 6.34098 0
M  V30 25807 H 2481.15 -0.167712 0.721771 0
M  V30 25808 H 2483.8 0.278009 1.89471 0
M  V30 25809 H 2482.1 -1.78596 3.48727 0
M  V30 25810 H 2483.8 -1.47737 3.72793 0
M  V30 25811 H 2480.39 -0.155593 4.28317 0
M  V30 25812 H 2484.58 0.582745 4.92867 0
M  V30 25813 H 2479.83 1.61128 5.89786 0
M  V30 25814 H 2484.01 2.34661 6.55673 0
M  V30 25815 H 2481.63 2.8669 7.04069 0
M  V30 25816 N 2483.21 -1.57342 -0.0901833 0
M  V30 25817 C 2484.48 -1.77363 -0.82473 0
M  V30 25818 C 2484.86 -0.766404 -1.96696 0
M  V30 25819 O 2484.21 0.204139 -2.27586 0
M  V30 25820 C 2484.42 -3.23288 -1.31476 0
M  V30 25821 C 2485.77 -3.86607 -1.75556 0
M  V30 25822 O 2486.79 -3.27067 -1.41087 0
M  V30 25823 O 2485.65 -4.91318 -2.39309 0
M  V30 25824 H 2482.75 -0.727241 -0.393764 0
M  V30 25825 H 2485.29 -1.69549 -0.071684 0
M  V30 25826 H 2484.07 -3.88136 -0.496603 0
M  V30 25827 H 2483.69 -3.35754 -2.12967 0
M  V30 25828 N 2484.69 0.36113 -1.53407 0
M  V30 25829 C 2485.96 1.11924 -1.60413 0
M  V30 25830 C 2486.34 2.06992 -0.414421 0
M  V30 25831 O 2485.69 2.20619 0.594937 0
M  V30 25832 C 2485.9 1.85442 -2.95655 0
M  V30 25833 C 2487.25 2.39817 -3.5039 0
M  V30 25834 O 2488.27 1.95563 -2.97714 0
M  V30 25835 O 2487.13 3.20729 -4.42487 0
M  V30 25836 H 2484.23 0.513684 -0.648119 0
M  V30 25837 H 2486.77 0.364036 -1.65749 0
M  V30 25838 H 2485.54 1.16085 -3.73684 0
M  V30 25839 H 2485.17 2.67861 -2.9383 0
M  V30 25840 N 2486.16 1.44842 0.621179 0
M  V30 25841 C 2487.07 1.54983 1.76117 0
M  V30 25842 C 2488.09 0.434957 1.68476 0
M  V30 25843 O 2489.27 0.693726 1.89075 0
M  V30 25844 C 2486.33 1.5007 3.12538 0
M  V30 25845 C 2485.39 2.72488 3.31736 0
M  V30 25846 C 2484.63 2.678 4.61648 0
M  V30 25847 O 2484.85 1.74361 5.43097 0
M  V30 25848 O 2483.78 3.58802 4.83265 0
M  V30 25849 H 2487.61 2.51314 1.70514 0
M  V30 25850 H 2485.19 1.272 0.783621 0
M  V30 25851 H 2487.08 1.49889 3.93842 0
M  V30 25852 H 2485.75 0.568862 3.18662 0
M  V30 25853 H 2484.66 2.78235 2.50072 0
M  V30 25854 H 2485.99 3.64752 3.3048 0
M  V30 25855 N 2487.64 -0.862479 1.31905 0
M  V30 25856 C 2488.61 -1.95193 1.20134 0
M  V30 25857 C 2489.61 -1.60302 0.126437 0
M  V30 25858 O 2490.8 -1.70088 0.376264 0
M  V30 25859 C 2487.93 -3.30242 0.845749 0
M  V30 25860 H 2489.12 -2.0706 2.16947 0
M  V30 25861 H 2486.67 -1.0517 1.15624 0
M  V30 25862 H 2487.41 -3.24075 -0.1209 0
M  V30 25863 H 2487.19 -3.56941 1.62282 0
M  V30 25864 H 2488.68 -4.10108 0.78749 0
M  V30 25865 N 2489.12 -1.14988 -1.07775 0
M  V30 25866 C 2490.37 -0.922088 -1.80288 0
M  V30 25867 C 2490.7 0.551017 -1.86532 0
M  V30 25868 O 2489.95 1.42447 -1.34191 0
M  V30 25869 C 2490.25 -1.47613 -3.25492 0
M  V30 25870 C 2489.92 -2.96898 -3.39355 0
M  V30 25871 C 2488.58 -3.37653 -3.42846 0
M  V30 25872 C 2490.93 -3.9286 -3.42506 0
M  V30 25873 C 2488.26 -4.73021 -3.47086 0
M  V30 25874 C 2490.61 -5.28094 -3.48281 0
M  V30 25875 C 2489.27 -5.68351 -3.50048 0
M  V30 25876 H 2488.54 -0.337416 -0.659721 0
M  V30 25877 H 2491.19 -1.43461 -1.26851 0
M  V30 25878 H 2489.5 -0.884697 -3.81681 0
M  V30 25879 H 2491.19 -1.27574 -3.80165 0
M  V30 25880 H 2487.78 -2.64393 -3.37334 0
M  V30 25881 H 2491.97 -3.6245 -3.39033 0
M  V30 25882 H 2487.22 -5.03562 -3.46749 0
M  V30 25883 H 2491.4 -6.02252 -3.49665 0
M  V30 25884 H 2489.02 -6.73227 -3.53085 0
M  V30 25885 N 2490.6 1.26049 -0.946007 0
M  V30 25886 C 2491.88 1.8873 -0.513849 0
M  V30 25887 C 2492.26 1.85442 1.00869 0
M  V30 25888 O 2491.6 1.31203 1.87077 0
M  V30 25889 C 2491.81 3.31847 -1.08067 0
M  V30 25890 C 2493.16 4.08666 -1.15227 0
M  V30 25891 O 2494.19 3.40935 -1.03161 0
M  V30 25892 O 2493.04 5.29804 -1.34054 0
M  V30 25893 H 2490.14 0.809713 -0.168207 0
M  V30 25894 H 2492.68 1.34184 -1.03888 0
M  V30 25895 H 2491.46 3.28626 -2.12416 0
M  V30 25896 H 2491.08 3.93938 -0.538376 0
M  V30 25897 N 2492.08 0.71358 1.4052 0
M  V30 25898 C 2492.99 0.0607079 2.34521 0
M  V30 25899 C 2494 -0.746043 1.57195 0
M  V30 25900 O 2495.18 -0.67946 1.89592 0
M  V30 25901 C 2492.24 -0.851432 3.36083 0
M  V30 25902 C 2491.3 -0.0348584 4.29286 0
M  V30 25903 C 2490.54 -0.903557 5.25996 0
M  V30 25904 O 2490.76 -2.14282 5.2862 0
M  V30 25905 O 2489.69 -0.343618 6.00918 0
M  V30 25906 H 2493.52 0.836023 2.91966 0
M  V30 25907 H 2491.11 0.474045 1.4168 0
M  V30 25908 H 2492.99 -1.37397 3.98372 0
M  V30 25909 H 2491.66 -1.60593 2.81055 0
M  V30 25910 H 2490.57 0.532698 3.70288 0
M  V30 25911 H 2491.9 0.681372 4.87461 0
M  V30 25912 N 2493.55 -1.50749 0.459618 0
M  V30 25913 C 2494.8 -2.01447 -0.100936 0
M  V30 25914 C 2495.12 -1.34715 -1.41814 0
M  V30 25915 O 2496.32 -1.76506 -2.06296 0
M  V30 25916 C 2494.78 -3.59162 -0.230407 0
M  V30 25917 C 2494.39 -4.34845 1.07768 0
M  V30 25918 C 2496.13 -4.17938 -0.743535 0
M  V30 25919 C 2494.04 -5.84316 0.912632 0
M  V30 25920 H 2492.97 -0.752857 -0.041497 0
M  V30 25921 H 2495.62 -1.73662 0.592772 0
M  V30 25922 H 2494 -3.83486 -0.987635 0
M  V30 25923 H 2495.17 -4.22253 1.84497 0
M  V30 25924 H 2493.49 -3.87625 1.52104 0
M  V30 25925 H 2496.09 -5.27344 -0.883866 0
M  V30 25926 H 2496.43 -3.78565 -1.73189 0
M  V30 25927 H 2496.96 -3.97776 -0.04401 0
M  V30 25928 H 2493.7 -6.28141 1.87402 0
M  V30 25929 H 2493.22 -5.99513 0.185527 0
M  V30 25930 H 2494.9 -6.44443 0.57466 0
M  V30 25931 N 2495.03 -0.191784 -1.56429 0
M  V30 25932 C 2496.26 0.45667 -2.0231 0
M  V30 25933 C 2496.68 1.54628 -1.07106 0
M  V30 25934 O 2496.04 1.8122 -0.0539996 0
M  V30 25935 C 2496.09 0.993098 -3.46655 0
M  V30 25936 O 2495.19 2.10616 -3.54563 0
M  V30 25937 H 2494.53 0.107103 -0.655305 0
M  V30 25938 H 2497.06 -0.301689 -2.02364 0
M  V30 25939 H 2497.07 1.31054 -3.86379 0
M  V30 25940 H 2495.75 0.195431 -4.15441 0
M  V30 25941 H 2494.33 1.79761 -3.26711 0
M  V30 25942 N 2496.51 1.57387 0.0818378 0
M  V30 25943 C 2497.79 1.77798 0.815312 0
M  V30 25944 C 2498.17 0.776825 1.96287 0
M  V30 25945 O 2497.52 -0.192066 2.27691 0
M  V30 25946 C 2497.73 3.23981 1.29759 0
M  V30 25947 C 2499.07 3.87533 1.73504 0
M  V30 25948 O 2500.1 3.27811 1.39351 0
M  V30 25949 O 2498.96 4.9258 2.367 0
M  V30 25950 H 2496.05 0.729319 0.389901 0
M  V30 25951 H 2498.6 1.69584 0.0626915 0
M  V30 25952 H 2497.37 3.88394 0.476012 0
M  V30 25953 H 2496.99 3.36879 2.11183 0
M  V30 25954 N 2497.99 -0.35299 1.53596 0
M  V30 25955 C 2499.27 -1.11072 1.61004 0
M  V30 25956 C 2499.65 -2.06769 0.425393 0
M  V30 25957 O 2498.99 -2.20931 -0.583229 0
M  V30 25958 C 2499.2 -1.83872 2.96635 0
M  V30 25959 C 2500.55 -2.37955 3.51657 0
M  V30 25960 O 2501.58 -1.93981 2.98747 0
M  V30 25961 O 2500.43 -3.18378 4.44182 0
M  V30 25962 H 2497.53 -0.510239 0.650834 0
M  V30 25963 H 2500.07 -0.355241 1.6594 0
M  V30 25964 H 2498.85 -1.14101 3.74295 0
M  V30 25965 H 2498.47 -2.66299 2.95246 0
M  V30 25966 N 2499.47 -1.45169 -0.613489 0
M  V30 25967 C 2500.43 -1.5301 -1.70647 0
M  V30 25968 C 2501.43 -0.410212 -1.5548 0
M  V30 25969 O 2502.62 -0.673483 -1.60654 0
M  V30 25970 C 2499.75 -1.42098 -3.09872 0
M  V30 25971 H 2500.95 -2.50388 -1.65064 0
M  V30 25972 H 2498.5 -1.32522 -0.828705 0
M  V30 25973 H 2499.23 -0.458825 -3.21038 0
M  V30 25974 H 2499.02 -2.2332 -3.22289 0
M  V30 25975 H 2500.51 -1.50605 -3.89497 0
M  V30 25976 N 2500.95 0.855472 -1.32361 0
M  V30 25977 C 2501.89 1.96398 -1.21229 0
M  V30 25978 C 2502.86 1.6583 -0.0946496 0
M  V30 25979 O 2504.05 1.88879 -0.270054 0
M  V30 25980 C 2501.19 3.32038 -0.940477 0
M  V30 25981 C 2500.3 3.75109 -2.14283 0
M  V30 25982 C 2499.44 4.99536 -1.80657 0
M  V30 25983 C 2498.47 5.35097 -2.97217 0
M  V30 25984 N 2497.61 6.50701 -2.63689 0
M  V30 25985 H 2502.45 2.05251 -2.16046 0
M  V30 25986 H 2499.99 1.00461 -1.07453 0
M  V30 25987 H 2501.95 4.10156 -0.763383 0
M  V30 25988 H 2500.58 3.22787 -0.029098 0
M  V30 25989 H 2499.63 2.92651 -2.43022 0
M  V30 25990 H 2500.94 3.97384 -3.01475 0
M  V30 25991 H 2500.09 5.8536 -1.59494 0
M  V30 25992 H 2498.83 4.79196 -0.906762 0
M  V30 25993 H 2497.84 4.47785 -3.19012 0
M  V30 25994 H 2499.06 5.57394 -3.87928 0
M  V30 25995 H 2497.01 6.3188 -1.76249 0
M  V30 25996 H 2496.93 6.7299 -3.44412 0
M  V30 25997 H 2498.19 7.3968 -2.45955 0
M  V30 25998 N 2502.42 1.15558 1.07164 0
M  V30 25999 C 2503.7 0.8421 1.76545 0
M  V30 26000 C 2504.08 -0.661904 2.00455 0
M  V30 26001 O 2503.43 -1.60688 1.62455 0
M  V30 26002 C 2503.64 1.65501 3.07263 0
M  V30 26003 C 2504.99 1.86241 3.81575 0
M  V30 26004 O 2506.01 1.62293 3.1708 0
M  V30 26005 O 2504.87 2.26364 4.97415 0
M  V30 26006 H 2501.96 0.309875 0.766751 0
M  V30 26007 H 2504.51 1.26147 1.13512 0
M  V30 26008 H 2503.28 2.67603 2.85489 0
M  V30 26009 H 2502.9 1.2321 3.78028 0
M  V30 26010 N 2503.9 -1.25546 0.952678 0
M  V30 26011 C 2505.15 -1.93207 0.606407 0
M  V30 26012 C 2505.48 -1.74637 -0.856279 0
M  V30 26013 O 2504.73 -1.08379 -1.62949 0
M  V30 26014 C 2505.03 -3.4565 0.908879 0
M  V30 26015 C 2504.7 -3.84373 2.35728 0
M  V30 26016 C 2503.36 -3.94655 2.75319 0
M  V30 26017 C 2505.71 -4.03585 3.298 0
M  V30 26018 C 2503.04 -4.21555 4.08055 0
M  V30 26019 C 2505.39 -4.31977 4.62146 0
M  V30 26020 C 2504.05 -4.40475 5.01536 0
M  V30 26021 H 2503.32 -0.706995 0.2219 0
M  V30 26022 H 2505.97 -1.4913 1.20135 0
M  V30 26023 H 2504.28 -3.91115 0.231525 0
M  V30 26024 H 2505.97 -3.96185 0.619567 0
M  V30 26025 H 2502.56 -3.76925 2.04024 0
M  V30 26026 H 2506.75 -3.95058 3.00404 0
M  V30 26027 H 2502 -4.26349 4.38219 0
M  V30 26028 H 2506.18 -4.45788 5.3502 0
M  V30 26029 H 2503.8 -4.61072 6.04414 0
M  V30 26030 N 2505.38 -0.721022 -1.40139 0
M  V30 26031 C 2506.63 -0.259839 -2.00019 0
M  V30 26032 C 2506.94 1.15524 -1.57841 0
M  V30 26033 O 2508.15 1.71522 -2.10458 0
M  V30 26034 C 2506.6 -0.413629 -3.57515 0
M  V30 26035 C 2506.21 -1.83569 -4.08664 0
M  V30 26036 C 2507.96 -0.0135133 -4.24498 0
M  V30 26037 C 2505.86 -1.93978 -5.58683 0
M  V30 26038 H 2504.79 -0.0933938 -0.748194 0
M  V30 26039 H 2507.44 -0.892894 -1.60311 0
M  V30 26040 H 2505.83 0.288099 -3.94951 0
M  V30 26041 H 2507 -2.56824 -3.82594 0
M  V30 26042 H 2505.31 -2.18776 -3.54297 0
M  V30 26043 H 2507.91 -0.0704894 -5.34654 0
M  V30 26044 H 2508.25 1.0292 -4.03377 0
M  V30 26045 H 2508.79 -0.665884 -3.92187 0
M  V30 26046 H 2505.53 -2.9639 -5.84665 0
M  V30 26047 H 2505.05 -1.25142 -5.866 0
M  V30 26048 H 2506.73 -1.71442 -6.23872 0
M  V30 26049 N 2506.86 1.50503 -0.467606 0
M  V30 26050 C 2508.08 2.0721 0.0886579 0
M  V30 26051 C 2508.51 1.32959 1.33055 0
M  V30 26052 O 2507.87 0.376228 1.77353 0
M  V30 26053 C 2507.91 3.58807 0.359139 0
M  V30 26054 O 2507.02 3.86432 1.44027 0
M  V30 26055 H 2506.36 0.663901 -0.0114466 0
M  V30 26056 H 2508.89 1.93743 -0.657647 0
M  V30 26057 H 2508.9 4.03554 0.600671 0
M  V30 26058 H 2507.57 4.12269 -0.548383 0
M  V30 26059 H 2506.15 3.53526 1.18632 0
M  V30 26060 N 2508.34 0.200077 1.56325 0
M  V30 26061 C 2509.28 -0.735443 2.20667 0
M  V30 26062 C 2510.28 -1.21603 1.17937 0
M  V30 26063 O 2511.48 -1.17835 1.3607 0
M  V30 26064 H 2507.86 -0.255529 0.707254 0
M  V30 26065 H 2509.83 -0.169114 2.9792 0
M  V30 26066 C 2508.58 -1.94227 2.88394 0
M  V30 26067 H 2507.9 -1.58155 3.67188 0
M  V30 26068 H 2509.34 -2.57511 3.36844 0
M  V30 26069 C 2507.8 -2.78418 1.89697 0
M  V30 26070 O 2508.33 -3.765 1.40038 0
M  V30 26071 N 2506.54 -2.44013 1.57817 0
M  V30 26072 H 2506.08 -1.6431 1.98393 0
M  V30 26073 H 2506.04 -3.00627 0.920378 0
M  V30 26074 N 2509.81 -1.57429 -0.0734901 0
M  V30 26075 C 2510.74 -2.0661 -1.08787 0
M  V30 26076 C 2511.72 -0.959261 -1.40471 0
M  V30 26077 O 2512.91 -1.23188 -1.50128 0
M  V30 26078 C 2510.04 -2.50861 -2.40179 0
M  V30 26079 C 2508.99 -3.65406 -2.22851 0
M  V30 26080 C 2508.32 -3.95706 -3.59612 0
M  V30 26081 C 2509.62 -4.95514 -1.65115 0
M  V30 26082 H 2511.31 -2.91608 -0.678622 0
M  V30 26083 H 2508.86 -1.40285 -0.324989 0
M  V30 26084 H 2510.81 -2.8388 -3.11432 0
M  V30 26085 H 2509.54 -1.6289 -2.8308 0
M  V30 26086 H 2508.2 -3.32667 -1.54039 0
M  V30 26087 H 2507.84 -3.04869 -4.0008 0
M  V30 26088 H 2507.54 -4.72834 -3.48857 0
M  V30 26089 H 2509.07 -4.3122 -4.32299 0
M  V30 26090 H 2510.48 -5.26775 -2.26232 0
M  V30 26091 H 2508.88 -5.76953 -1.65061 0
M  V30 26092 H 2509.95 -4.81016 -0.612474 0
M  V30 26093 N 2511.29 0.344839 -1.53781 0
M  V30 26094 C 2512.22 1.42903 -1.84665 0
M  V30 26095 C 2513.2 1.54953 -0.701675 0
M  V30 26096 O 2514.39 1.69182 -0.953467 0
M  V30 26097 C 2511.52 2.79971 -2.05508 0
M  V30 26098 C 2510.47 2.82728 -3.21323 0
M  V30 26099 C 2509.8 4.22669 -3.27498 0
M  V30 26100 C 2511.1 2.48381 -4.59461 0
M  V30 26101 H 2512.79 1.17306 -2.75463 0
M  V30 26102 H 2510.34 0.562872 -1.32543 0
M  V30 26103 H 2512.29 3.55863 -2.25697 0
M  V30 26104 H 2511.01 3.07 -1.1144 0
M  V30 26105 H 2509.67 2.09289 -3.00988 0
M  V30 26106 H 2509.32 4.46806 -2.31027 0
M  V30 26107 H 2509.02 4.25426 -4.05323 0
M  V30 26108 H 2510.55 5.00405 -3.49895 0
M  V30 26109 H 2511.96 3.13986 -4.79672 0
M  V30 26110 H 2510.36 2.62422 -5.3968 0
M  V30 26111 H 2511.43 1.43572 -4.63158 0
M  V30 26112 N 2512.77 1.45492 0.605781 0
M  V30 26113 C 2513.72 1.54302 1.71638 0
M  V30 26114 C 2514.69 0.388789 1.61486 0
M  V30 26115 O 2515.87 0.602477 1.81038 0
M  V30 26116 C 2513.01 1.51739 3.0995 0
M  V30 26117 C 2512.12 2.77727 3.30895 0
M  V30 26118 C 2511.26 2.66824 4.59324 0
M  V30 26119 C 2510.3 3.87857 4.73533 0
M  V30 26120 N 2509.44 3.75477 5.93263 0
M  V30 26121 H 2514.28 2.49178 1.63444 0
M  V30 26122 H 2511.81 1.23642 0.796936 0
M  V30 26123 H 2513.77 1.48241 3.89975 0
M  V30 26124 H 2512.4 0.604124 3.17096 0
M  V30 26125 H 2511.45 2.91305 2.44634 0
M  V30 26126 H 2512.76 3.67494 3.37267 0
M  V30 26127 H 2511.92 2.61302 5.47546 0
M  V30 26128 H 2510.66 1.74659 4.55352 0
M  V30 26129 H 2509.66 3.93736 3.83735 0
M  V30 26130 H 2510.89 4.8109 4.79301 0
M  V30 26131 H 2508.83 2.86082 5.90333 0
M  V30 26132 H 2508.75 4.58881 6.00803 0
M  V30 26133 H 2510.02 3.73891 6.83978 0
M  V30 26134 N 2514.25 -0.848441 1.32813 0
M  V30 26135 C 2515.2 -1.95752 1.22269 0
M  V30 26136 C 2516.17 -1.65778 0.103443 0
M  V30 26137 O 2517.35 -1.88733 0.280066 0
M  V30 26138 C 2514.49 -3.31534 0.958073 0
M  V30 26139 C 2513.6 -3.73968 2.16269 0
M  V30 26140 C 2512.74 -4.98571 1.83303 0
M  V30 26141 C 2511.78 -5.33513 3.00051 0
M  V30 26142 N 2510.91 -6.49294 2.67137 0
M  V30 26143 H 2515.75 -2.04103 2.17131 0
M  V30 26144 H 2513.29 -0.998894 1.07984 0
M  V30 26145 H 2515.25 -4.09746 0.785124 0
M  V30 26146 H 2513.88 -3.22767 0.0462158 0
M  V30 26147 H 2512.93 -2.91358 2.44571 0
M  V30 26148 H 2514.24 -3.9578 3.03579 0
M  V30 26149 H 2513.4 -5.84506 1.62596 0
M  V30 26150 H 2512.14 -4.78709 0.932162 0
M  V30 26151 H 2511.14 -4.46087 3.21382 0
M  V30 26152 H 2512.37 -5.55329 3.90879 0
M  V30 26153 H 2510.31 -6.30936 1.79598 0
M  V30 26154 H 2510.23 -6.71155 3.47976 0
M  V30 26155 H 2511.5 -7.38365 2.49874 0
M  V30 26156 N 2515.73 -1.16125 -1.06549 0
M  V30 26157 C 2517 -0.851451 -1.76096 0
M  V30 26158 C 2517.38 0.651264 -2.00803 0
M  V30 26159 O 2516.73 1.59824 -1.63305 0
M  V30 26160 C 2516.94 -1.67128 -3.06381 0
M  V30 26161 C 2518.29 -1.88262 -3.80582 0
M  V30 26162 O 2519.31 -1.63972 -3.16215 0
M  V30 26163 O 2518.17 -2.28999 -4.96208 0
M  V30 26164 H 2515.27 -0.313937 -0.765096 0
M  V30 26165 H 2517.81 -1.26747 -1.12841 0
M  V30 26166 H 2516.58 -2.69113 -2.84066 0
M  V30 26167 H 2516.21 -1.25213 -3.77369 0
M  V30 26168 N 2517.2 1.25039 -0.959323 0
M  V30 26169 C 2518.14 2.24161 -0.427458 0
M  V30 26170 C 2519.12 1.5492 0.49381 0
M  V30 26171 O 2520.3 1.83597 0.427112 0
M  V30 26172 C 2517.43 3.36518 0.383834 0
M  V30 26173 C 2516.47 4.23807 -0.478506 0
M  V30 26174 S 2517.31 5.00141 -1.91362 0
M  V30 26175 C 2518.46 6.15963 -1.11088 0
M  V30 26176 H 2518.69 2.68928 -1.26748 0
M  V30 26177 H 2516.23 1.34188 -0.763737 0
M  V30 26178 H 2518.19 4.01688 0.845968 0
M  V30 26179 H 2516.85 2.90326 1.19873 0
M  V30 26180 H 2516.04 5.03794 0.143972 0
M  V30 26181 H 2515.64 3.63595 -0.876034 0
M  V30 26182 H 2517.93 6.76533 -0.361818 0
M  V30 26183 H 2518.88 6.82554 -1.88484 0
M  V30 26184 H 2519.28 5.60872 -0.638942 0
M  V30 26185 N 2518.68 0.728444 1.39755 0
M  V30 26186 C 2519.63 0.0841924 2.30646 0
M  V30 26187 C 2520.6 -0.736673 1.4887 0
M  V30 26188 O 2521.78 -0.697984 1.77575 0
M  V30 26189 C 2518.92 -0.822033 3.35167 0
M  V30 26190 C 2518.04 0.0107422 4.31999 0
M  V30 26191 C 2517.17 -0.896149 5.23586 0
M  V30 26192 C 2516.21 -0.0582305 6.12072 0
M  V30 26193 N 2515.35 -0.920696 6.96037 0
M  V30 26194 H 2520.19 0.864941 2.85171 0
M  V30 26195 H 2517.73 0.438203 1.40421 0
M  V30 26196 H 2519.68 -1.36182 3.94348 0
M  V30 26197 H 2518.31 -1.56883 2.82113 0
M  V30 26198 H 2517.37 0.667875 3.74491 0
M  V30 26199 H 2518.68 0.658912 4.94429 0
M  V30 26200 H 2517.83 -1.50402 5.87762 0
M  V30 26201 H 2516.57 -1.57811 4.61462 0
M  V30 26202 H 2515.58 0.562486 5.46915 0
M  V30 26203 H 2516.8 0.620419 6.7626 0
M  V30 26204 H 2514.75 -1.58807 6.36487 0
M  V30 26205 H 2514.66 -0.328857 7.55284 0
M  V30 26206 H 2515.93 -1.51434 7.64649 0
M  V30 26207 N 2520.16 -1.50253 0.475581 0
M  V30 26208 C 2521.11 -2.30244 -0.330235 0
M  V30 26209 C 2522.1 -1.37727 -0.986281 0
M  V30 26210 O 2523.31 -1.54898 -0.916873 0
M  V30 26211 H 2519.68 -0.741481 -0.12534 0
M  V30 26212 H 2521.65 -2.96162 0.364754 0
M  V30 26213 C 2520.4 -3.18402 -1.39698 0
M  V30 26214 H 2519.73 -3.89502 -0.901552 0
M  V30 26215 H 2521.17 -3.77359 -1.93329 0
M  V30 26216 C 2519.63 -2.36297 -2.40136 0
M  V30 26217 O 2520.16 -2.0492 -3.455 0
M  V30 26218 N 2518.36 -1.98793 -2.11966 0
M  V30 26219 H 2517.91 -2.24509 -1.26306 0
M  V30 26220 H 2517.87 -1.44162 -2.79401 0
M  V30 26221 N 2521.64 -0.208365 -1.56217 0
M  V30 26222 C 2523.05 0.147262 -1.58919 0
M  V30 26223 C 2523.25 1.59996 -1.22489 0
M  V30 26224 O 2522.31 2.33789 -0.95389 0
M  V30 26225 C 2523.62 -0.167101 -3.00235 0
M  V30 26226 C 2525.17 -0.108274 -3.12813 0
M  V30 26227 C 2525.65 -0.396129 -4.56284 0
M  V30 26228 N 2527.14 -0.345223 -4.61912 0
M  V30 26229 C 2527.87 -0.541624 -5.70836 0
M  V30 26230 N 2527.37 -0.799089 -6.88176 0
M  V30 26231 N 2529.16 -0.474966 -5.6009 0
M  V30 26232 H 2521.31 -1.15617 -1.78175 0
M  V30 26233 H 2523.58 -0.46246 -0.827547 0
M  V30 26234 H 2523.28 -1.17486 -3.31496 0
M  V30 26235 H 2523.16 0.524118 -3.73541 0
M  V30 26236 H 2525.54 0.890107 -2.81356 0
M  V30 26237 H 2525.62 -0.832771 -2.41865 0
M  V30 26238 H 2525.27 -1.39189 -4.88456 0
M  V30 26239 H 2525.2 0.349409 -5.2544 0
M  V30 26240 H 2527.69 -0.153383 -3.77589 0
M  V30 26241 H 2528 -0.937405 -7.67094 0
M  V30 26242 H 2526.35 -0.836135 -6.89952 0
M  V30 26243 H 2529.54 -0.274146 -4.67297 0
M  V30 26244 H 2529.71 -0.63144 -6.44916 0
M  V30 26245 N 2523.12 1.57465 0.0651402 0
M  V30 26246 C 2524.05 2.07184 1.0769 0
M  V30 26247 C 2525.03 0.966697 1.39961 0
M  V30 26248 O 2526.21 1.23982 1.49472 0
M  V30 26249 C 2523.34 2.52131 2.38845 0
M  V30 26250 C 2522.3 3.66582 2.2091 0
M  V30 26251 C 2521.62 3.97608 3.57508 0
M  V30 26252 C 2522.92 4.96383 1.62485 0
M  V30 26253 H 2524.62 2.91964 0.663148 0
M  V30 26254 H 2522.16 1.40455 0.317544 0
M  V30 26255 H 2524.12 2.85528 3.09923 0
M  V30 26256 H 2522.84 1.64389 2.82213 0
M  V30 26257 H 2521.5 3.33479 1.52273 0
M  V30 26258 H 2521.15 3.06986 3.98458 0
M  V30 26259 H 2520.85 4.74678 3.46345 0
M  V30 26260 H 2522.37 4.33506 4.30006 0
M  V30 26261 H 2523.78 5.27967 2.23435 0
M  V30 26262 H 2522.18 5.7782 1.61999 0
M  V30 26263 H 2523.25 4.81334 0.586956 0
M  V30 26264 N 2524.59 -0.336679 1.53962 0
M  V30 26265 C 2525.87 -1.09358 1.62173 0
M  V30 26266 C 2526.25 -2.06307 0.447299 0
M  V30 26267 O 2525.6 -2.21538 -0.559763 0
M  V30 26268 C 2525.81 -1.80715 2.98568 0
M  V30 26269 C 2527.16 -2.34212 3.54161 0
M  V30 26270 O 2528.18 -1.90802 3.00788 0
M  V30 26271 O 2527.04 -3.13649 4.47534 0
M  V30 26272 H 2524.13 -0.503308 0.656209 0
M  V30 26273 H 2526.68 -0.337621 1.66308 0
M  V30 26274 H 2525.45 -1.10125 3.75484 0
M  V30 26275 H 2525.08 -2.63153 2.98054 0
M  V30 26276 N 2526.07 -1.45812 -0.598057 0
M  V30 26277 C 2527.31 -1.51872 -1.368 0
M  V30 26278 C 2527.68 -0.160257 -1.9133 0
M  V30 26279 O 2528.88 -0.0955774 -2.6863 0
M  V30 26280 C 2527.15 -2.57517 -2.4783 0
M  V30 26281 S 2528.71 -2.82872 -3.35453 0
M  V30 26282 H 2525.53 -0.536763 -0.466268 0
M  V30 26283 H 2528.13 -1.82952 -0.68912 0
M  V30 26284 H 2526.83 -3.54875 -2.06135 0
M  V30 26285 H 2526.36 -2.28119 -3.20508 0
M  V30 26286 H 2528.38 -2.16975 -4.46247 0
M  V30 26287 N 2527.55 0.841385 -1.33261 0
M  V30 26288 C 2528.78 1.62861 -1.27608 0
M  V30 26289 C 2529.19 1.88175 0.153474 0
M  V30 26290 O 2528.55 1.46013 1.09482 0
M  V30 26291 C 2528.6 2.98028 -2.04602 0
M  V30 26292 O 2528.32 2.73828 -3.4198 0
M  V30 26293 C 2529.82 3.92461 -2.06129 0
M  V30 26294 H 2527.04 0.506834 -0.439727 0
M  V30 26295 H 2529.59 1.04821 -1.75593 0
M  V30 26296 H 2527.74 3.52677 -1.60305 0
M  V30 26297 H 2528.16 3.59883 -3.81556 0
M  V30 26298 H 2529.63 4.84526 -2.64459 0
M  V30 26299 H 2530.11 4.26442 -1.0509 0
M  V30 26300 H 2530.71 3.43749 -2.50433 0
M  V30 26301 N 2529.03 1.16688 1.05932 0
M  V30 26302 C 2529.96 0.834541 2.13467 0
M  V30 26303 C 2530.97 -0.159812 1.62014 0
M  V30 26304 O 2532.16 0.0654542 1.7838 0
M  V30 26305 C 2529.26 0.22242 3.38169 0
M  V30 26306 C 2528.44 1.25778 4.18926 0
M  V30 26307 C 2527.5 0.664794 5.21984 0
M  V30 26308 O 2526.52 1.33462 5.53332 0
M  V30 26309 N 2527.72 -0.546732 5.7792 0
M  V30 26310 H 2530.49 1.76004 2.42575 0
M  V30 26311 H 2528.05 1.06471 1.21965 0
M  V30 26312 H 2530.04 -0.187401 4.04266 0
M  V30 26313 H 2528.61 -0.606704 3.06656 0
M  V30 26314 H 2527.83 1.84364 3.4843 0
M  V30 26315 H 2529.12 1.95639 4.69684 0
M  V30 26316 H 2528.52 -1.10903 5.54723 0
M  V30 26317 H 2527.07 -0.898715 6.45574 0
M  V30 26318 N 2530.51 -1.24529 0.96594 0
M  V30 26319 C 2531.75 -1.94296 0.63469 0
M  V30 26320 C 2532.11 -1.73854 -0.814791 0
M  V30 26321 O 2533.31 -2.37642 -1.25618 0
M  V30 26322 C 2531.58 -3.4321 0.997081 0
M  V30 26323 S 2533.14 -4.3181 0.780114 0
M  V30 26324 H 2529.96 -0.671771 0.232904 0
M  V30 26325 H 2532.56 -1.50936 1.24252 0
M  V30 26326 H 2531.27 -3.55594 2.04892 0
M  V30 26327 H 2530.8 -3.91561 0.379957 0
M  V30 26328 H 2532.81 -4.9501 -0.343425 0
M  V30 26329 N 2531.99 -0.735845 -1.39367 0
M  V30 26330 C 2532.92 -0.111547 -2.33233 0
M  V30 26331 C 2533.9 0.723307 -1.53955 0
M  V30 26332 O 2535.08 0.668115 -1.82345 0
M  V30 26333 C 2532.21 0.795857 -3.38058 0
M  V30 26334 C 2531.17 0.0650968 -4.2795 0
M  V30 26335 C 2530.49 1.08957 -5.23481 0
M  V30 26336 C 2531.79 -1.09282 -5.10739 0
M  V30 26337 H 2533.49 -0.895621 -2.8569 0
M  V30 26338 H 2531.03 -0.432134 -1.37363 0
M  V30 26339 H 2532.98 1.24214 -4.02677 0
M  V30 26340 H 2531.71 1.61206 -2.84043 0
M  V30 26341 H 2530.37 -0.361575 -3.64813 0
M  V30 26342 H 2530.02 1.89936 -4.65761 0
M  V30 26343 H 2529.72 0.605386 -5.84473 0
M  V30 26344 H 2531.24 1.53554 -5.90977 0
M  V30 26345 H 2532.65 -0.72494 -5.68698 0
M  V30 26346 H 2531.05 -1.5067 -5.80877 0
M  V30 26347 H 2532.12 -1.91412 -4.45522 0
M  V30 26348 N 2533.46 1.49999 -0.483543 0
M  V30 26349 C 2534.4 2.26655 0.340594 0
M  V30 26350 C 2535.41 1.32485 0.946129 0
M  V30 26351 O 2536.6 1.57902 0.832425 0
M  V30 26352 C 2533.7 3.04249 1.49285 0
M  V30 26353 C 2532.87 4.25866 0.997829 0
M  V30 26354 C 2531.93 4.8565 2.02561 0
M  V30 26355 O 2530.96 5.46215 1.60119 0
M  V30 26356 N 2532.16 4.7375 3.35471 0
M  V30 26357 H 2534.92 2.98023 -0.316629 0
M  V30 26358 H 2532.48 1.58805 -0.315052 0
M  V30 26359 H 2534.48 3.4112 2.1776 0
M  V30 26360 H 2533.05 2.356 2.05454 0
M  V30 26361 H 2532.27 3.93956 0.138548 0
M  V30 26362 H 2533.55 5.04692 0.645217 0
M  V30 26363 H 2532.95 4.25612 3.72654 0
M  V30 26364 H 2531.51 5.14855 3.99709 0
M  V30 26365 N 2534.94 0.216646 1.56104 0
M  V30 26366 C 2535.89 -0.70876 2.16704 0
M  V30 26367 C 2536.88 -1.16104 1.11394 0
M  V30 26368 O 2538.07 -1.11585 1.37397 0
M  V30 26369 C 2535.2 -1.91881 2.84669 0
M  V30 26370 C 2534.28 -1.48644 3.97197 0
M  V30 26371 N 2534.67 -0.766346 4.99961 0
M  V30 26372 C 2532.97 -1.77411 4.09196 0
M  V30 26373 C 2533.67 -0.546557 5.79127 0
M  V30 26374 N 2532.65 -1.10179 5.32317 0
M  V30 26375 H 2536.45 -0.15011 2.93516 0
M  V30 26376 H 2533.96 0.0177054 1.6239 0
M  V30 26377 H 2535.96 -2.59248 3.26491 0
M  V30 26378 H 2534.62 -2.48198 2.09351 0
M  V30 26379 H 2535.63 -0.419543 5.16198 0
M  V30 26380 H 2532.31 -2.35082 3.45025 0
M  V30 26381 H 2533.7 0.0262211 6.71895 0
M  V30 26382 N 2536.42 -1.57498 -0.0567885 0
M  V30 26383 C 2537.83 -1.76563 -0.606827 0
M  V30 26384 C 2538.18 -0.844125 -1.77113 0
M  V30 26385 O 2537.31 -0.0319291 -2.16376 0
M  V30 26386 C 2537.9 -3.20184 -1.1076 0
M  V30 26387 C 2536.46 -3.40542 -1.60338 0
M  V30 26388 C 2535.61 -2.72202 -0.529263 0
M  V30 26389 H 2538.56 -1.57793 0.16942 0
M  V30 26390 H 2538.58 -3.2517 -1.97597 0
M  V30 26391 H 2538.09 -3.87228 -0.259992 0
M  V30 26392 H 2536.19 -2.78633 -2.47374 0
M  V30 26393 H 2536.31 -4.49053 -1.66998 0
M  V30 26394 H 2534.67 -2.35181 -0.977852 0
M  V30 26395 H 2535.45 -3.41912 0.308412 0
M  V30 26396 N 2537.9 0.328509 -1.54138 0
M  V30 26397 C 2539.14 1.06485 -1.73299 0
M  V30 26398 C 2539.5 1.85844 -0.49799 0
M  V30 26399 O 2538.79 1.847 0.509559 0
M  V30 26400 C 2538.99 2.02388 -2.94574 0
M  V30 26401 C 2538.81 1.32459 -4.2975 0
M  V30 26402 C 2537.58 1.06315 -4.93989 0
M  V30 26403 C 2539.78 0.743047 -5.08904 0
M  V30 26404 N 2537.76 0.331252 -6.13006 0
M  V30 26405 C 2539.14 0.142493 -6.19836 0
M  V30 26406 C 2541.19 0.645373 -4.937 0
M  V30 26407 C 2539.89 -0.546251 -7.17223 0
M  V30 26408 C 2541.92 -0.0296598 -5.91393 0
M  V30 26409 C 2541.28 -0.619179 -7.01673 0
M  V30 26410 H 2537.38 0.373527 -0.687024 0
M  V30 26411 H 2539.96 0.346626 -1.9159 0
M  V30 26412 H 2538.14 2.71488 -2.77757 0
M  V30 26413 H 2539.87 2.68972 -3.02384 0
M  V30 26414 H 2536.62 1.3542 -4.53826 0
M  V30 26415 H 2537.05 -0.0204129 -6.76997 0
M  V30 26416 H 2541.69 1.08687 -4.08591 0
M  V30 26417 H 2539.41 -0.9996 -8.01894 0
M  V30 26418 H 2542.99 -0.104807 -5.81706 0
M  V30 26419 H 2541.87 -1.13323 -7.75969 0
M  V30 26420 N 2539.38 1.46127 0.590316 0
M  V30 26421 C 2540.31 1.58969 1.71029 0
M  V30 26422 C 2541.29 0.440364 1.64301 0
M  V30 26423 O 2542.47 0.665666 1.82435 0
M  V30 26424 C 2539.6 1.57246 3.09662 0
M  V30 26425 C 2538.56 2.71072 3.31216 0
M  V30 26426 C 2537.88 2.54408 4.70299 0
M  V30 26427 C 2539.18 4.12956 3.19789 0
M  V30 26428 H 2540.88 2.52721 1.60538 0
M  V30 26429 H 2538.42 1.21626 0.770912 0
M  V30 26430 H 2540.37 1.64826 3.87828 0
M  V30 26431 H 2539.1 0.600345 3.21035 0
M  V30 26432 H 2537.76 2.62949 2.55447 0
M  V30 26433 H 2537.41 1.55296 4.78427 0
M  V30 26434 H 2537.11 3.30749 4.85674 0
M  V30 26435 H 2538.63 2.63867 5.50642 0
M  V30 26436 H 2540.04 4.2223 3.87807 0
M  V30 26437 H 2538.44 4.89824 3.46688 0
M  V30 26438 H 2539.51 4.33647 2.16976 0
M  V30 26439 N 2540.85 -0.834306 1.33705 0
M  V30 26440 C 2541.79 -1.94912 1.18678 0
M  V30 26441 C 2542.76 -1.62397 0.081143 0
M  V30 26442 O 2543.95 -1.86911 0.244219 0
M  V30 26443 C 2541.08 -3.28592 0.821289 0
M  V30 26444 C 2540.12 -3.80075 1.93507 0
M  V30 26445 S 2540.95 -4.01203 3.54678 0
M  V30 26446 C 2542.11 -5.37827 3.20145 0
M  V30 26447 H 2542.34 -2.0736 2.13047 0
M  V30 26448 H 2539.88 -0.988603 1.186 0
M  V30 26449 H 2541.83 -4.05834 0.617194 0
M  V30 26450 H 2540.5 -3.13928 -0.103872 0
M  V30 26451 H 2539.69 -4.76818 1.63282 0
M  V30 26452 H 2539.29 -3.09743 2.09607 0
M  V30 26453 H 2541.58 -6.20829 2.71253 0
M  V30 26454 H 2542.53 -5.73029 4.15985 0
M  V30 26455 H 2542.93 -5.02797 2.56622 0
M  V30 26456 N 2542.33 -1.17248 -1.05312 0
M  V30 26457 C 2543.28 -0.888096 -2.13029 0
M  V30 26458 C 2544.25 0.167508 -1.65253 0
M  V30 26459 O 2545.43 0.0305639 -1.90776 0
M  V30 26460 C 2542.57 -0.406207 -3.42701 0
M  V30 26461 C 2541.69 -1.52579 -4.04158 0
M  V30 26462 C 2540.82 -0.9979 -5.21743 0
M  V30 26463 C 2539.86 -2.09301 -5.75204 0
M  V30 26464 N 2539 -1.57998 -6.84091 0
M  V30 26465 H 2543.84 -1.81052 -2.36694 0
M  V30 26466 H 2541.37 -0.903034 -1.16119 0
M  V30 26467 H 2543.33 -0.108378 -4.17059 0
M  V30 26468 H 2541.96 0.479257 -3.19222 0
M  V30 26469 H 2541.01 -1.93937 -3.2725 0
M  V30 26470 H 2542.33 -2.3518 -4.39877 0
M  V30 26471 H 2541.48 -0.653845 -6.03166 0
M  V30 26472 H 2540.22 -0.141318 -4.87495 0
M  V30 26473 H 2539.22 -2.44566 -4.9241 0
M  V30 26474 H 2540.45 -2.95373 -6.11499 0
M  V30 26475 H 2538.4 -0.746094 -6.51743 0
M  V30 26476 H 2538.31 -2.34207 -7.18807 0
M  V30 26477 H 2539.58 -1.26482 -7.6917 0
M  V30 26478 N 2543.81 1.24015 -0.972531 0
M  V30 26479 C 2545.09 1.87597 -0.553766 0
M  V30 26480 C 2545.47 1.8754 0.969125 0
M  V30 26481 O 2544.82 1.35142 1.84252 0
M  V30 26482 C 2545.03 3.2948 -1.15082 0
M  V30 26483 C 2546.37 4.0613 -1.23869 0
M  V30 26484 O 2547.4 3.3867 -1.10369 0
M  V30 26485 O 2546.26 5.26841 -1.45261 0
M  V30 26486 H 2543.35 0.805963 -0.185345 0
M  V30 26487 H 2545.9 1.3195 -1.06711 0
M  V30 26488 H 2544.67 3.24046 -2.19339 0
M  V30 26489 H 2544.29 3.92708 -0.621815 0
M  V30 26490 N 2545.29 0.743226 1.38974 0
M  V30 26491 C 2546.52 0.305286 2.04635 0
M  V30 26492 C 2546.93 -1.06278 1.56046 0
M  V30 26493 O 2546.29 -1.6731 0.728951 0
M  V30 26494 C 2546.34 0.307241 3.60192 0
M  V30 26495 O 2546.06 1.62131 4.06995 0
M  V30 26496 C 2547.56 -0.14585 4.4306 0
M  V30 26497 H 2544.78 0.132053 0.657878 0
M  V30 26498 H 2547.33 1.00918 1.77865 0
M  V30 26499 H 2545.48 -0.34783 3.85835 0
M  V30 26500 H 2545.89 1.54045 5.01369 0
M  V30 26501 H 2547.37 -0.0933213 5.51921 0
M  V30 26502 H 2547.85 -1.19224 4.22708 0
M  V30 26503 H 2548.45 0.479961 4.22583 0
M  V30 26504 N 2546.77 -1.4974 0.491491 0
M  V30 26505 C 2547.71 -2.28946 -0.291986 0
M  V30 26506 C 2548.68 -1.3491 -0.968949 0
M  V30 26507 O 2549.87 -1.63861 -0.977452 0
M  V30 26508 C 2547.01 -3.17338 -1.35611 0
M  V30 26509 C 2546.12 -4.26423 -0.691882 0
M  V30 26510 C 2545.26 -5.02045 -1.73563 0
M  V30 26511 C 2544.3 -6.02979 -1.05276 0
M  V30 26512 N 2543.43 -6.71801 -2.04028 0
M  V30 26513 H 2548.27 -2.95441 0.389706 0
M  V30 26514 H 2545.81 -1.45678 0.204029 0
M  V30 26515 H 2547.77 -3.66954 -1.98495 0
M  V30 26516 H 2546.4 -2.52847 -2.00669 0
M  V30 26517 H 2545.45 -3.80367 0.0500192 0
M  V30 26518 H 2546.76 -4.98563 -0.153858 0
M  V30 26519 H 2545.92 -5.55482 -2.43977 0
M  V30 26520 H 2544.65 -4.29658 -2.3075 0
M  V30 26521 H 2543.66 -5.48782 -0.33435 0
M  V30 26522 H 2544.88 -6.77348 -0.487517 0
M  V30 26523 H 2542.83 -6.02192 -2.60194 0
M  V30 26524 H 2542.75 -7.39884 -1.55266 0
M  V30 26525 H 2544.02 -7.29847 -2.73759 0
M  V30 26526 N 2548.24 -0.224922 -1.55987 0
M  V30 26527 C 2549.19 0.700244 -2.21809 0
M  V30 26528 C 2550.19 1.19712 -1.19856 0
M  V30 26529 O 2551.39 1.15655 -1.37927 0
M  V30 26530 H 2547.77 0.244245 -0.71123 0
M  V30 26531 H 2549.74 0.121696 -2.98152 0
M  V30 26532 C 2548.49 1.89615 -2.91447 0
M  V30 26533 H 2547.81 1.52293 -3.69658 0
M  V30 26534 H 2549.25 2.52119 -3.40899 0
M  V30 26535 C 2547.71 2.75365 -1.94103 0
M  V30 26536 O 2548.24 3.74224 -1.4601 0
M  V30 26537 N 2546.45 2.41471 -1.61679 0
M  V30 26538 H 2545.99 1.61133 -2.00982 0
M  V30 26539 H 2545.95 2.99124 -0.968089 0
M  V30 26540 N 2549.72 1.57526 0.0484352 0
M  V30 26541 C 2550.66 2.0062 1.08751 0
M  V30 26542 C 2551.63 0.887082 1.3627 0
M  V30 26543 O 2552.82 1.15134 1.49253 0
M  V30 26544 C 2549.94 2.36281 2.4267 0
M  V30 26545 C 2548.99 3.58439 2.31135 0
M  V30 26546 S 2549.82 5.0836 1.68317 0
M  V30 26547 C 2550.98 5.47245 3.03767 0
M  V30 26548 H 2551.21 2.88441 0.720364 0
M  V30 26549 H 2548.75 1.52233 0.257774 0
M  V30 26550 H 2550.7 2.57499 3.19694 0
M  V30 26551 H 2549.36 1.48947 2.76539 0
M  V30 26552 H 2548.56 3.80984 3.29951 0
M  V30 26553 H 2548.16 3.36972 1.62252 0
M  V30 26554 H 2550.45 5.46744 4.00096 0
M  V30 26555 H 2551.39 6.47783 2.85977 0
M  V30 26556 H 2551.8 4.74723 3.05448 0
M  V30 26557 N 2551.2 -0.32033 1.5431 0
M  V30 26558 C 2552.11 -1.4173 1.86948 0
M  V30 26559 C 2553.13 -1.56441 0.761717 0
M  V30 26560 O 2554.3 -1.71475 1.05632 0
M  V30 26561 C 2551.37 -2.76397 2.09297 0
M  V30 26562 C 2550.43 -2.70835 3.33087 0
M  V30 26563 C 2549.66 -3.99079 3.5436 0
M  V30 26564 O 2549.88 -4.97503 2.79011 0
M  V30 26565 O 2548.82 -4.02142 4.47845 0
M  V30 26566 H 2552.64 -1.17057 2.80234 0
M  V30 26567 H 2550.23 -0.514649 1.40256 0
M  V30 26568 H 2552.11 -3.56109 2.25309 0
M  V30 26569 H 2550.79 -3.00954 1.19199 0
M  V30 26570 H 2549.69 -1.89663 3.22458 0
M  V30 26571 H 2551.03 -2.51232 4.23253 0
M  V30 26572 N 2552.68 -1.46438 -0.582558 0
M  V30 26573 C 2553.64 -1.56595 -1.67363 0
M  V30 26574 C 2554.64 -0.443099 -1.54574 0
M  V30 26575 O 2555.83 -0.707409 -1.5919 0
M  V30 26576 C 2552.96 -1.48639 -3.06789 0
M  V30 26577 H 2554.16 -2.53833 -1.59715 0
M  V30 26578 H 2551.71 -1.3425 -0.800409 0
M  V30 26579 H 2552.44 -0.526819 -3.19992 0
M  V30 26580 H 2552.23 -2.30106 -3.1748 0
M  V30 26581 H 2553.72 -1.58833 -3.86215 0
M  V30 26582 N 2554.16 0.827204 -1.34146 0
M  V30 26583 C 2555.1 1.93782 -1.25367 0
M  V30 26584 C 2556.07 1.65592 -0.129803 0
M  V30 26585 O 2557.26 1.88264 -0.310057 0
M  V30 26586 C 2554.4 3.29968 -1.0107 0
M  V30 26587 C 2553.51 3.7048 -2.22191 0
M  V30 26588 C 2552.65 4.95592 -1.91212 0
M  V30 26589 C 2551.69 5.28672 -3.085 0
M  V30 26590 N 2550.82 6.44962 -2.77432 0
M  V30 26591 H 2555.66 2.00623 -2.20351 0
M  V30 26592 H 2553.2 0.981589 -1.09559 0
M  V30 26593 H 2555.16 4.08445 -0.850211 0
M  V30 26594 H 2553.79 3.22653 -0.0975593 0
M  V30 26595 H 2552.84 2.8743 -2.49175 0
M  V30 26596 H 2554.15 3.909 -3.09837 0
M  V30 26597 H 2553.31 5.81845 -1.71875 0
M  V30 26598 H 2552.04 4.77165 -1.0082 0
M  V30 26599 H 2551.05 4.40918 -3.28438 0
M  V30 26600 H 2552.27 5.4904 -3.99664 0
M  V30 26601 H 2550.22 6.27999 -1.89612 0
M  V30 26602 H 2550.14 6.65534 -3.5861 0
M  V30 26603 H 2551.41 7.34296 -2.61589 0
M  V30 26604 N 2555.63 1.17805 1.04688 0
M  V30 26605 C 2556.58 0.899381 2.12555 0
M  V30 26606 C 2557.55 -0.158742 1.6534 0
M  V30 26607 O 2558.74 -0.0204462 1.90789 0
M  V30 26608 C 2555.88 0.424375 3.42481 0
M  V30 26609 C 2554.99 1.5472 4.03343 0
M  V30 26610 C 2554.12 1.02556 5.21206 0
M  V30 26611 C 2553.16 2.12349 5.74086 0
M  V30 26612 N 2552.3 1.61624 6.83244 0
M  V30 26613 H 2557.14 1.82305 2.35731 0
M  V30 26614 H 2554.68 0.909179 1.15639 0
M  V30 26615 H 2556.64 0.130495 4.16996 0
M  V30 26616 H 2555.27 -0.462321 3.19472 0
M  V30 26617 H 2554.32 1.9567 3.26217 0
M  V30 26618 H 2555.63 2.37509 4.38624 0
M  V30 26619 H 2554.78 0.685824 6.02811 0
M  V30 26620 H 2553.52 0.167169 4.87413 0
M  V30 26621 H 2552.53 2.47174 4.91106 0
M  V30 26622 H 2553.75 2.98612 6.09924 0
M  V30 26623 H 2551.7 0.780647 6.51339 0
M  V30 26624 H 2551.62 2.38016 7.17554 0
M  V30 26625 H 2552.88 1.30559 7.68489 0
M  V30 26626 N 2557.11 -1.23497 0.979094 0
M  V30 26627 C 2558.04 -2.27226 0.537646 0
M  V30 26628 C 2559.02 -1.64614 -0.42851 0
M  V30 26629 O 2560.21 -1.91509 -0.322157 0
M  V30 26630 C 2557.34 -3.46922 -0.161991 0
M  V30 26631 C 2556.29 -4.21878 0.721317 0
M  V30 26632 C 2555.62 -5.34586 -0.110461 0
M  V30 26633 C 2556.92 -4.82013 2.01149 0
M  V30 26634 H 2558.61 -2.64404 1.40467 0
M  V30 26635 H 2556.16 -1.27101 0.676863 0
M  V30 26636 H 2558.11 -4.18633 -0.482119 0
M  V30 26637 H 2556.84 -3.08801 -1.06345 0
M  V30 26638 H 2555.49 -3.51983 1.02488 0
M  V30 26639 H 2555.14 -4.92706 -1.01242 0
M  V30 26640 H 2554.84 -5.85657 0.477428 0
M  V30 26641 H 2556.37 -6.09119 -0.424999 0
M  V30 26642 H 2557.78 -5.45738 1.75622 0
M  V30 26643 H 2556.18 -5.43365 2.54705 0
M  V30 26644 H 2557.25 -4.02831 2.69916 0
M  V30 26645 N 2558.59 -0.750586 -1.38578 0
M  V30 26646 C 2559.82 -0.314848 -2.04996 0
M  V30 26647 C 2560.24 1.04746 -1.56237 0
M  V30 26648 O 2559.6 1.66691 -0.713011 0
M  V30 26649 C 2559.65 -0.343478 -3.5896 0
M  V30 26650 O 2558.75 0.663556 -4.07027 0
M  V30 26651 H 2558.09 -0.139973 -0.649079 0
M  V30 26652 H 2560.62 -1.02087 -1.77312 0
M  V30 26653 H 2560.63 -0.193305 -4.07542 0
M  V30 26654 H 2559.31 -1.33745 -3.93809 0
M  V30 26655 H 2557.88 0.478242 -3.69821 0
M  V30 26656 N 2560.07 1.49477 -0.499425 0
M  V30 26657 C 2561.02 2.29097 0.279841 0
M  V30 26658 C 2561.99 1.35422 0.961781 0
M  V30 26659 O 2563.17 1.64377 0.968748 0
M  V30 26660 C 2560.31 3.18053 1.33926 0
M  V30 26661 C 2559.42 4.26784 0.669258 0
M  V30 26662 C 2558.56 5.02958 1.70899 0
M  V30 26663 C 2557.6 6.03529 1.02077 0
M  V30 26664 N 2556.74 6.72874 2.00462 0
M  V30 26665 H 2561.58 2.9523 -0.405369 0
M  V30 26666 H 2559.11 1.45568 -0.211752 0
M  V30 26667 H 2561.07 3.68002 1.96547 0
M  V30 26668 H 2559.7 2.53908 1.99326 0
M  V30 26669 H 2558.75 3.80335 -0.0701903 0
M  V30 26670 H 2560.06 4.98637 0.127416 0
M  V30 26671 H 2559.22 5.56768 2.41028 0
M  V30 26672 H 2557.96 4.30875 2.28468 0
M  V30 26673 H 2556.96 5.48952 0.305242 0
M  V30 26674 H 2558.19 6.77597 0.451589 0
M  V30 26675 H 2556.13 6.03563 2.56997 0
M  V30 26676 H 2556.05 7.40697 1.5134 0
M  V30 26677 H 2557.32 7.31288 2.69885 0
M  V30 26678 N 2561.55 0.233191 1.55865 0
M  V30 26679 C 2562.82 -0.444954 1.90472 0
M  V30 26680 C 2563.2 -1.76888 1.15212 0
M  V30 26681 O 2562.55 -2.26956 0.265159 0
M  V30 26682 C 2562.76 -0.626499 3.43331 0
M  V30 26683 C 2564.11 -0.928637 4.14321 0
M  V30 26684 O 2565.13 -0.712864 3.48994 0
M  V30 26685 O 2563.99 -1.33877 5.29848 0
M  V30 26686 H 2561.09 -0.236871 0.792351 0
M  V30 26687 H 2563.63 0.27624 1.67437 0
M  V30 26688 H 2562.41 0.306891 3.90095 0
M  V30 26689 H 2562.03 -1.39875 3.72184 0
M  V30 26690 N 2563.03 -1.57549 -0.0400806 0
M  V30 26691 C 2564.44 -1.54621 -0.395529 0
M  V30 26692 C 2564.64 -0.95783 -1.77279 0
M  V30 26693 O 2563.7 -0.574074 -2.45887 0
M  V30 26694 C 2565.01 -2.99124 -0.307482 0
M  V30 26695 C 2566.56 -3.10619 -0.38537 0
M  V30 26696 C 2567.03 -4.56832 -0.326892 0
M  V30 26697 N 2568.52 -4.61589 -0.386021 0
M  V30 26698 C 2569.26 -5.72247 -0.36349 0
M  V30 26699 N 2568.76 -6.92176 -0.293899 0
M  V30 26700 N 2570.55 -5.60585 -0.412405 0
M  V30 26701 H 2562.7 -1.9415 0.861359 0
M  V30 26702 H 2564.96 -0.890015 0.326461 0
M  V30 26703 H 2564.67 -3.45855 0.638522 0
M  V30 26704 H 2564.54 -3.60638 -1.10545 0
M  V30 26705 H 2566.93 -2.63842 -1.3218 0
M  V30 26706 H 2567.01 -2.51957 0.441755 0
M  V30 26707 H 2566.65 -5.04274 0.605827 0
M  V30 26708 H 2566.58 -5.13393 -1.17198 0
M  V30 26709 H 2569.08 -3.75297 -0.442766 0
M  V30 26710 H 2569.39 -7.72287 -0.281504 0
M  V30 26711 H 2567.73 -6.94513 -0.26011 0
M  V30 26712 H 2570.92 -4.65788 -0.464687 0
M  V30 26713 H 2571.1 -6.46817 -0.391378 0
M  V30 26714 N 2564.5 0.312142 -1.54478 0
M  V30 26715 C 2565.44 1.40881 -1.79521 0
M  V30 26716 C 2566.41 1.49226 -0.645779 0
M  V30 26717 O 2567.6 1.6646 -0.884498 0
M  V30 26718 C 2564.73 2.78886 -1.92199 0
M  V30 26719 C 2563.77 2.88018 -3.1456 0
M  V30 26720 S 2564.6 2.51254 -4.72897 0
M  V30 26721 C 2565.76 3.91308 -4.88496 0
M  V30 26722 H 2565.99 1.19427 -2.72258 0
M  V30 26723 H 2563.53 0.509629 -1.45747 0
M  V30 26724 H 2565.48 3.58378 -2.00188 0
M  V30 26725 H 2564.15 2.97615 -1.00419 0
M  V30 26726 H 2563.34 3.89215 -3.20199 0
M  V30 26727 H 2562.94 2.16508 -3.04959 0
M  V30 26728 H 2565.23 4.86187 -4.71835 0
M  V30 26729 H 2566.18 3.90645 -5.90595 0
M  V30 26730 H 2566.58 3.80793 -4.16721 0
M  V30 26731 N 2565.98 1.46745 0.574784 0
M  V30 26732 C 2566.93 1.57908 1.68326 0
M  V30 26733 C 2567.9 0.422955 1.60625 0
M  V30 26734 O 2569.08 0.640742 1.7972 0
M  V30 26735 C 2566.22 1.5828 3.06662 0
M  V30 26736 C 2565.34 2.84683 3.2493 0
M  V30 26737 C 2564.47 2.76507 4.53561 0
M  V30 26738 C 2563.51 3.97814 4.652 0
M  V30 26739 N 2562.65 3.87977 5.85165 0
M  V30 26740 H 2567.49 2.52589 1.58122 0
M  V30 26741 H 2565.02 1.25305 0.77053 0
M  V30 26742 H 2566.98 1.5648 3.86743 0
M  V30 26743 H 2565.61 0.671249 3.15744 0
M  V30 26744 H 2564.66 2.96428 2.384 0
M  V30 26745 H 2565.98 3.74566 3.29397 0
M  V30 26746 H 2565.13 2.72857 5.4188 0
M  V30 26747 H 2563.87 1.84278 4.51545 0
M  V30 26748 H 2562.87 4.01787 3.75296 0
M  V30 26749 H 2564.1 4.91148 4.68988 0
M  V30 26750 H 2562.05 2.9854 5.84132 0
M  V30 26751 H 2561.96 4.71521 5.90935 0
M  V30 26752 H 2563.23 3.88315 6.75893 0
M  V30 26753 N 2567.46 -0.820078 1.34583 0
M  V30 26754 C 2568.41 -1.93115 1.26393 0
M  V30 26755 C 2569.38 -1.65521 0.138583 0
M  V30 26756 O 2570.56 -1.88097 0.320037 0
M  V30 26757 C 2567.7 -3.29427 1.02818 0
M  V30 26758 C 2566.81 -3.69296 2.24153 0
M  V30 26759 C 2565.95 -4.94571 1.93838 0
M  V30 26760 C 2564.99 -5.27028 3.113 0
M  V30 26761 N 2564.13 -6.43481 2.80849 0
M  V30 26762 H 2568.97 -1.99451 2.21412 0
M  V30 26763 H 2566.5 -0.975765 1.10078 0
M  V30 26764 H 2568.46 -4.07988 0.87186 0
M  V30 26765 H 2567.09 -3.22596 0.114669 0
M  V30 26766 H 2566.14 -2.86105 2.50696 0
M  V30 26767 H 2567.45 -3.89251 3.11905 0
M  V30 26768 H 2566.61 -5.80926 1.74958 0
M  V30 26769 H 2565.35 -4.76624 1.03349 0
M  V30 26770 H 2564.35 -4.3917 3.30772 0
M  V30 26771 H 2565.58 -5.46913 4.0257 0
M  V30 26772 H 2563.52 -6.26985 1.9294 0
M  V30 26773 H 2563.44 -6.63622 3.62134 0
M  V30 26774 H 2564.71 -7.32899 2.6548 0
M  V30 26775 N 2568.94 -1.18359 -1.04062 0
M  V30 26776 C 2570.17 -1.00241 -1.80652 0
M  V30 26777 C 2570.58 0.45233 -1.83713 0
M  V30 26778 O 2569.92 1.32596 -1.27137 0
M  V30 26779 C 2569.98 -1.48094 -3.2758 0
M  V30 26780 C 2569.64 -2.96008 -3.48179 0
M  V30 26781 C 2570.64 -3.93862 -3.39365 0
M  V30 26782 C 2568.33 -3.34439 -3.74774 0
M  V30 26783 C 2570.32 -5.28144 -3.56851 0
M  V30 26784 C 2568.01 -4.68884 -3.91907 0
M  V30 26785 C 2569.01 -5.65545 -3.82946 0
M  V30 26786 O 2568.69 -6.97556 -3.99588 0
M  V30 26787 H 2568.43 -0.354251 -0.575745 0
M  V30 26788 H 2570.98 -1.57335 -1.32041 0
M  V30 26789 H 2569.21 -0.853654 -3.7716 0
M  V30 26790 H 2570.9 -1.26367 -3.85728 0
M  V30 26791 H 2571.66 -3.65517 -3.18783 0
M  V30 26792 H 2567.54 -2.59762 -3.80847 0
M  V30 26793 H 2571.09 -6.03577 -3.49773 0
M  V30 26794 H 2566.98 -4.9693 -4.11984 0
M  V30 26795 H 2567.75 -7.0446 -4.16748 0
M  V30 26796 N 2570.42 1.22976 -0.98563 0
M  V30 26797 C 2571.35 2.23204 -0.47491 0
M  V30 26798 C 2572.33 1.55933 0.460838 0
M  V30 26799 O 2573.51 1.84462 0.388072 0
M  V30 26800 C 2570.64 3.37257 0.312367 0
M  V30 26801 C 2569.68 4.22697 -0.568294 0
M  V30 26802 S 2570.52 4.95969 -2.01927 0
M  V30 26803 C 2571.67 6.13468 -1.24128 0
M  V30 26804 H 2571.91 2.66179 -1.32423 0
M  V30 26805 H 2569.44 1.32538 -0.792029 0
M  V30 26806 H 2571.4 4.03393 0.760574 0
M  V30 26807 H 2570.06 2.92803 1.13688 0
M  V30 26808 H 2569.25 5.03986 0.0370771 0
M  V30 26809 H 2568.85 3.61655 -0.952961 0
M  V30 26810 H 2571.14 6.75613 -0.505239 0
M  V30 26811 H 2572.09 6.78402 -2.02919 0
M  V30 26812 H 2572.5 5.59391 -0.757767 0
M  V30 26813 N 2571.89 0.757924 1.38178 0
M  V30 26814 C 2572.86 0.141326 2.28764 0
M  V30 26815 C 2573.86 -0.642881 1.4739 0
M  V30 26816 O 2575.05 -0.468507 1.67782 0
M  V30 26817 C 2572.18 -0.808011 3.31186 0
M  V30 26818 H 2573.37 0.939683 2.84798 0
M  V30 26819 H 2570.92 0.525216 1.47211 0
M  V30 26820 H 2571.66 -1.63188 2.8025 0
M  V30 26821 H 2571.44 -0.248035 3.91315 0
M  V30 26822 H 2572.93 -1.23529 3.98911 0
M  V30 26823 N 2573.37 -1.4921 0.507345 0
M  V30 26824 C 2574.79 -1.58758 0.16371 0
M  V30 26825 C 2574.99 -1.5119 -1.33206 0
M  V30 26826 O 2574.04 -1.38915 -2.10853 0
M  V30 26827 C 2575.36 -2.91296 0.746146 0
M  V30 26828 C 2576.91 -3.04775 0.712826 0
M  V30 26829 C 2577.38 -4.3994 1.27344 0
M  V30 26830 N 2578.87 -4.46449 1.23441 0
M  V30 26831 C 2579.61 -5.49497 1.63831 0
M  V30 26832 N 2579.1 -6.59617 2.11843 0
M  V30 26833 N 2580.9 -5.40247 1.55208 0
M  V30 26834 H 2573.05 -1.52372 1.47974 0
M  V30 26835 H 2575.31 -0.722158 0.61416 0
M  V30 26836 H 2575.02 -3.02421 1.7954 0
M  V30 26837 H 2574.89 -3.76614 0.210203 0
M  V30 26838 H 2577.28 -2.93276 -0.327604 0
M  V30 26839 H 2577.36 -2.21124 1.28599 0
M  V30 26840 H 2577 -4.52192 2.31268 0
M  V30 26841 H 2576.93 -5.22241 0.676157 0
M  V30 26842 H 2579.42 -3.67447 0.882692 0
M  V30 26843 H 2579.74 -7.34354 2.40716 0
M  V30 26844 H 2578.08 -6.60641 2.15822 0
M  V30 26845 H 2581.27 -4.5311 1.17513 0
M  V30 26846 H 2581.44 -6.20429 1.87008 0
M  V30 26847 N 2574.85 -0.241454 -1.55739 0
M  V30 26848 C 2576.27 0.11352 -1.59196 0
M  V30 26849 C 2576.47 1.57362 -1.25855 0
M  V30 26850 O 2575.52 2.31713 -1.00327 0
M  V30 26851 C 2576.84 -0.230748 -2.99813 0
M  V30 26852 C 2578.38 -0.174602 -3.12513 0
M  V30 26853 C 2578.86 -0.492825 -4.55341 0
M  V30 26854 N 2580.35 -0.443124 -4.61076 0
M  V30 26855 C 2581.08 -0.662585 -5.69559 0
M  V30 26856 N 2580.58 -0.944882 -6.86326 0
M  V30 26857 N 2582.37 -0.593662 -5.58956 0
M  V30 26858 H 2574.52 -1.19371 -1.75683 0
M  V30 26859 H 2576.79 -0.47991 -0.817552 0
M  V30 26860 H 2576.49 -1.24491 -3.2893 0
M  V30 26861 H 2576.37 0.444767 -3.74569 0
M  V30 26862 H 2578.75 0.830227 -2.83181 0
M  V30 26863 H 2578.84 -0.883887 -2.40044 0
M  V30 26864 H 2578.48 -1.49518 -4.85393 0
M  V30 26865 H 2578.41 0.237877 -5.26062 0
M  V30 26866 H 2580.9 -0.23344 -3.77178 0
M  V30 26867 H 2581.21 -1.09991 -7.64933 0
M  V30 26868 H 2579.56 -0.982296 -6.88023 0
M  V30 26869 H 2582.75 -0.373205 -4.6661 0
M  V30 26870 H 2582.92 -0.768094 -6.43432 0
M  V30 26871 N 2576.33 1.57568 0.0317248 0
M  V30 26872 C 2577.28 2.06384 1.03317 0
M  V30 26873 C 2578.25 0.952438 1.3608 0
M  V30 26874 O 2579.43 1.22283 1.46463 0
M  V30 26875 C 2576.57 2.54582 2.32985 0
M  V30 26876 C 2575.68 3.79502 2.06403 0
M  V30 26877 C 2574.82 4.16323 3.29922 0
M  V30 26878 C 2573.86 5.34168 2.98883 0
M  V30 26879 N 2572.99 5.66433 4.14847 0
M  V30 26880 H 2577.83 2.91691 0.609931 0
M  V30 26881 H 2575.37 1.44222 0.289548 0
M  V30 26882 H 2577.33 2.80593 3.08745 0
M  V30 26883 H 2575.96 1.72195 2.73036 0
M  V30 26884 H 2575.01 3.60592 1.21152 0
M  V30 26885 H 2576.32 4.65381 1.79504 0
M  V30 26886 H 2575.48 4.43447 4.14052 0
M  V30 26887 H 2574.22 3.2909 3.59932 0
M  V30 26888 H 2573.22 5.06799 2.13156 0
M  V30 26889 H 2574.45 6.23052 2.70154 0
M  V30 26890 H 2572.39 4.82159 4.44813 0
M  V30 26891 H 2572.31 6.46816 3.91362 0
M  V30 26892 H 2573.58 5.98133 4.99857 0
M  V30 26893 N 2577.81 -0.303946 1.54641 0
M  V30 26894 C 2579.05 -1.03715 1.74971 0
M  V30 26895 C 2579.41 -1.85028 0.527493 0
M  V30 26896 O 2578.7 -1.85487 -0.48011 0
M  V30 26897 C 2578.89 -1.97676 2.97756 0
M  V30 26898 C 2578.72 -1.25606 4.31802 0
M  V30 26899 C 2577.49 -0.984431 4.95618 0
M  V30 26900 C 2579.69 -0.661991 5.10022 0
M  V30 26901 N 2577.67 -0.233686 6.13455 0
M  V30 26902 C 2579.04 -0.0438646 6.19984 0
M  V30 26903 C 2581.1 -0.566748 4.94664 0
M  V30 26904 C 2579.8 0.660286 7.16263 0
M  V30 26905 C 2581.83 0.123741 5.91271 0
M  V30 26906 C 2581.19 0.730731 7.006 0
M  V30 26907 H 2577.29 -0.36255 0.692879 0
M  V30 26908 H 2579.87 -0.316102 1.92117 0
M  V30 26909 H 2578.04 -2.67035 2.82041 0
M  V30 26910 H 2579.78 -2.64127 3.06625 0
M  V30 26911 H 2576.53 -1.28183 4.55923 0
M  V30 26912 H 2576.96 0.128115 6.76879 0
M  V30 26913 H 2581.6 -1.02173 4.10269 0
M  V30 26914 H 2579.32 1.12705 8.00202 0
M  V30 26915 H 2582.9 0.197338 5.81465 0
M  V30 26916 H 2581.78 1.25653 7.74068 0
M  V30 26917 N 2579.28 -1.47047 -0.566994 0
M  V30 26918 C 2580.22 -1.54847 -1.68982 0
M  V30 26919 C 2581.23 -0.435459 -1.56868 0
M  V30 26920 O 2582.42 -0.704599 -1.64005 0
M  V30 26921 C 2579.52 -1.42748 -3.0737 0
M  V30 26922 C 2578.69 -2.68446 -3.45334 0
M  V30 26923 C 2577.75 -2.50322 -4.62845 0
M  V30 26924 O 2576.78 -3.24103 -4.67916 0
M  V30 26925 N 2577.98 -1.57509 -5.58723 0
M  V30 26926 H 2580.74 -2.51666 -1.6274 0
M  V30 26927 H 2578.3 -1.43303 -0.753385 0
M  V30 26928 H 2580.3 -1.28372 -3.838 0
M  V30 26929 H 2578.87 -0.540499 -3.07892 0
M  V30 26930 H 2578.09 -2.97653 -2.5845 0
M  V30 26931 H 2579.37 -3.51914 -3.6747 0
M  V30 26932 H 2578.77 -0.966974 -5.57374 0
M  V30 26933 H 2577.33 -1.49089 -6.3452 0
M  V30 26934 N 2580.76 0.812929 -1.35016 0
M  V30 26935 C 2581.71 1.92442 -1.27416 0
M  V30 26936 C 2582.68 1.65445 -0.147359 0
M  V30 26937 O 2583.86 1.87924 -0.330007 0
M  V30 26938 C 2581 3.28878 -1.04564 0
M  V30 26939 C 2580.12 3.68102 -2.26108 0
M  V30 26940 C 2579.25 4.93536 -1.96458 0
M  V30 26941 C 2578.29 5.2537 -3.1409 0
M  V30 26942 N 2577.43 6.41983 -2.84258 0
M  V30 26943 H 2582.27 1.98274 -2.22466 0
M  V30 26944 H 2579.81 0.969913 -1.10594 0
M  V30 26945 H 2581.76 4.0752 -0.893484 0
M  V30 26946 H 2580.39 3.22531 -0.131775 0
M  V30 26947 H 2579.45 2.84771 -2.52209 0
M  V30 26948 H 2580.76 3.87592 -3.13965 0
M  V30 26949 H 2579.91 5.7999 -1.78036 0
M  V30 26950 H 2578.65 4.76069 -1.05876 0
M  V30 26951 H 2577.66 4.37409 -3.33096 0
M  V30 26952 H 2578.88 5.44771 -4.05465 0
M  V30 26953 H 2576.83 6.25953 -1.96263 0
M  V30 26954 H 2576.74 6.61693 -3.65649 0
M  V30 26955 H 2578.01 7.31481 -2.69363 0
M  V30 26956 N 2582.24 1.18909 1.03433 0
M  V30 26957 C 2583.47 1.01345 1.8038 0
M  V30 26958 C 2583.88 -0.437973 1.8365 0
M  V30 26959 O 2583.24 -1.30422 1.27657 0
M  V30 26960 C 2583.29 1.56879 3.25686 0
M  V30 26961 O 2583.01 2.96339 3.22668 0
M  V30 26962 C 2584.51 1.44022 4.19253 0
M  V30 26963 H 2581.73 0.3575 0.567833 0
M  V30 26964 H 2584.28 1.57602 1.30315 0
M  V30 26965 H 2582.43 1.04783 3.7296 0
M  V30 26966 H 2582.85 3.22362 4.13742 0
M  V30 26967 H 2584.32 1.87666 5.1912 0
M  V30 26968 H 2584.8 0.389892 4.37466 0
M  V30 26969 H 2585.4 1.95221 3.77848 0
M  V30 26970 N 2583.72 -1.22452 0.992137 0
M  V30 26971 C 2584.97 -1.90802 0.666249 0
M  V30 26972 C 2585.29 -1.77648 -0.80412 0
M  V30 26973 O 2584.56 -1.16321 -1.57627 0
M  V30 26974 H 2583.14 -0.706221 0.243435 0
M  V30 26975 H 2585.8 -1.48823 1.25848 0
M  V30 26976 H 2584.9 -2.9798 0.928121 0
M  V30 26977 N 2585.2 -0.765242 -1.37774 0
M  V30 26978 C 2586.14 -0.134839 -2.32209 0
M  V30 26979 C 2587.14 0.692288 -1.54608 0
M  V30 26980 O 2588.34 0.590079 -1.70053 0
M  V30 26981 H 2584.72 -0.0248137 -0.75159 0
M  V30 26982 H 2586.69 -0.947168 -2.82969 0
M  V30 26983 C 2585.44 0.735004 -3.39843 0
M  V30 26984 H 2584.76 0.107921 -3.99654 0
M  V30 26985 H 2586.2 1.14318 -4.08298 0
M  V30 26986 C 2584.66 1.88276 -2.79381 0
M  V30 26987 O 2585.19 2.97778 -2.69613 0
M  V30 26988 N 2583.4 1.68138 -2.37019 0
M  V30 26989 H 2582.94 0.790729 -2.45164 0
M  V30 26990 H 2582.9 2.451 -1.96909 0
M  V30 26991 N 2586.67 1.48939 -0.515251 0
M  V30 26992 C 2587.64 2.27891 0.244641 0
M  V30 26993 C 2588.64 1.34508 0.881143 0
M  V30 26994 O 2589.83 1.57538 0.743469 0
M  V30 26995 C 2586.96 3.12926 1.35242 0
M  V30 26996 H 2588.15 2.9653 -0.448341 0
M  V30 26997 H 2585.71 1.53938 -0.270683 0
M  V30 26998 H 2586.44 2.48884 2.07911 0
M  V30 26999 H 2586.23 3.816 0.901307 0
M  V30 27000 H 2587.72 3.72519 1.88731 0
M  V30 27001 N 2588.15 0.249709 1.55609 0
M  V30 27002 C 2589.4 -0.374806 1.99306 0
M  V30 27003 C 2589.73 -1.57385 1.13769 0
M  V30 27004 O 2589.01 -1.93451 0.201745 0
M  V30 27005 C 2589.29 -0.781924 3.51508 0
M  V30 27006 C 2589.14 0.422707 4.47809 0
M  V30 27007 C 2590.46 -1.62786 4.08887 0
M  V30 27008 H 2587.58 -0.13476 0.724575 0
M  V30 27009 H 2590.22 0.351582 1.86719 0
M  V30 27010 H 2588.37 -1.40083 3.62366 0
M  V30 27011 H 2590.05 1.06116 4.48929 0
M  V30 27012 H 2588.29 1.06532 4.20516 0
M  V30 27013 H 2588.96 0.0944736 5.51919 0
M  V30 27014 H 2591.44 -1.10539 4.01149 0
M  V30 27015 H 2590.31 -1.88157 5.15643 0
M  V30 27016 H 2590.57 -2.60062 3.57519 0
M  V30 27017 N 2589.63 -1.57583 -0.0233682 0
M  V30 27018 C 2591.05 -1.55032 -0.379107 0
M  V30 27019 C 2591.25 -0.976579 -1.76253 0
M  V30 27020 O 2590.3 -0.600121 -2.45265 0
M  V30 27021 C 2591.62 -2.99433 -0.275739 0
M  V30 27022 C 2593.16 -3.1101 -0.352403 0
M  V30 27023 C 2593.64 -4.57153 -0.278421 0
M  V30 27024 N 2595.13 -4.61972 -0.337041 0
M  V30 27025 C 2595.87 -5.726 -0.302775 0
M  V30 27026 N 2595.36 -6.92449 -0.220468 0
M  V30 27027 N 2597.15 -5.60991 -0.352924 0
M  V30 27028 H 2589.31 -1.93226 0.881903 0
M  V30 27029 H 2591.57 -0.886503 0.335882 0
M  V30 27030 H 2591.27 -3.45158 0.675168 0
M  V30 27031 H 2591.15 -3.6179 -1.06714 0
M  V30 27032 H 2593.54 -2.65229 -1.29375 0
M  V30 27033 H 2593.62 -2.51474 0.468453 0
M  V30 27034 H 2593.26 -5.03603 0.659278 0
M  V30 27035 H 2593.19 -5.14607 -1.11746 0
M  V30 27036 H 2595.68 -3.75746 -0.402936 0
M  V30 27037 H 2595.99 -7.72542 -0.199577 0
M  V30 27038 H 2594.34 -6.9475 -0.186433 0
M  V30 27039 H 2597.53 -4.66254 -0.415258 0
M  V30 27040 H 2597.7 -6.47196 -0.322752 0
M  V30 27041 N 2591.11 0.29574 -1.548 0
M  V30 27042 C 2592.07 1.34804 -1.85366 0
M  V30 27043 C 2593.07 1.43435 -0.726842 0
M  V30 27044 O 2594.26 1.4298 -0.995113 0
M  V30 27045 C 2591.39 2.73226 -2.03864 0
M  V30 27046 H 2592.59 1.08944 -2.79412 0
M  V30 27047 H 2590.14 0.532676 -1.46943 0
M  V30 27048 H 2590.88 3.04301 -1.12123 0
M  V30 27049 H 2590.66 2.68351 -2.85885 0
M  V30 27050 H 2592.15 3.49301 -2.28863 0
M  V30 27051 N 2592.59 1.47346 0.559187 0
M  V30 27052 C 2593.84 1.5313 1.31278 0
M  V30 27053 C 2594.15 0.197378 1.94602 0
M  V30 27054 O 2595.36 0.133201 2.71173 0
M  V30 27055 C 2593.81 2.69929 2.38046 0
M  V30 27056 C 2593.42 4.09843 1.80922 0
M  V30 27057 C 2595.16 2.85004 3.14599 0
M  V30 27058 C 2593.07 5.17945 2.85459 0
M  V30 27059 H 2592 0.569975 0.493604 0
M  V30 27060 H 2594.65 1.73616 0.594125 0
M  V30 27061 H 2593.03 2.4282 3.12817 0
M  V30 27062 H 2594.21 4.46847 1.12537 0
M  V30 27063 H 2592.52 3.99636 1.1696 0
M  V30 27064 H 2595.12 3.62936 3.92659 0
M  V30 27065 H 2595.46 1.93375 3.68662 0
M  V30 27066 H 2596 3.11875 2.46939 0
M  V30 27067 H 2592.73 6.11445 2.36254 0
M  V30 27068 H 2592.25 4.85461 3.52261 0
M  V30 27069 H 2593.93 5.44809 3.48987 0
M  V30 27070 N 2594.07 -0.805758 1.35445 0
M  V30 27071 C 2595.31 -1.5598 1.2851 0
M  V30 27072 C 2595.63 -1.94497 -0.140012 0
M  V30 27073 O 2594.9 -1.63663 -1.07663 0
M  V30 27074 H 2593.48 -0.578426 0.472686 0
M  V30 27075 H 2596.15 -0.961068 1.69557 0
M  V30 27076 H 2595.24 -2.47484 1.90153 0
M  V30 27077 N 2595.54 -1.19456 -1.02801 0
M  V30 27078 C 2596.96 -0.94696 -1.28471 0
M  V30 27079 C 2597.16 0.380168 -1.97881 0
M  V30 27080 O 2596.22 1.11147 -2.26721 0
M  V30 27081 C 2597.53 -2.12158 -2.13095 0
M  V30 27082 C 2599.08 -2.1613 -2.264 0
M  V30 27083 C 2599.55 -3.33045 -3.14396 0
M  V30 27084 N 2601.04 -3.32986 -3.21985 0
M  V30 27085 C 2601.78 -4.20096 -3.90265 0
M  V30 27086 N 2601.27 -5.17363 -4.60768 0
M  V30 27087 N 2603.07 -4.07971 -3.86673 0
M  V30 27088 H 2595.22 -2.0484 -0.561629 0
M  V30 27089 H 2597.48 -0.895736 -0.310422 0
M  V30 27090 H 2597.19 -3.08206 -1.69417 0
M  V30 27091 H 2597.06 -2.09293 -3.13809 0
M  V30 27092 H 2599.45 -1.20652 -2.69309 0
M  V30 27093 H 2599.53 -2.23048 -1.25233 0
M  V30 27094 H 2599.17 -4.28803 -2.72196 0
M  V30 27095 H 2599.1 -3.23364 -4.15624 0
M  V30 27096 H 2601.59 -2.62579 -2.71773 0
M  V30 27097 H 2601.91 -5.80178 -5.10503 0
M  V30 27098 H 2600.25 -5.2131 -4.59631 0
M  V30 27099 H 2603.44 -3.3126 -3.30733 0
M  V30 27100 H 2603.62 -4.76072 -4.39613 0
M  V30 27101 N 2597.02 1.21924 -0.998617 0
M  V30 27102 C 2597.95 2.26342 -0.573728 0
M  V30 27103 C 2598.93 1.65275 0.402267 0
M  V30 27104 O 2600.12 1.91998 0.291649 0
M  V30 27105 C 2597.25 3.47136 0.106778 0
M  V30 27106 C 2596.2 4.20677 -0.788342 0
M  V30 27107 C 2595.53 5.34694 0.0253987 0
M  V30 27108 C 2596.83 4.78752 -2.08792 0
M  V30 27109 H 2598.52 2.62136 -1.44655 0
M  V30 27110 H 2596.07 1.26008 -0.696998 0
M  V30 27111 H 2598.02 4.19347 0.415457 0
M  V30 27112 H 2596.74 3.10454 1.01419 0
M  V30 27113 H 2595.4 3.50308 -1.08075 0
M  V30 27114 H 2595.05 4.94254 0.933902 0
M  V30 27115 H 2594.75 5.84824 -0.57054 0
M  V30 27116 H 2596.28 6.09718 0.32804 0
M  V30 27117 H 2597.69 5.42875 -1.84282 0
M  V30 27118 H 2596.09 5.39244 -2.63317 0
M  V30 27119 H 2597.16 3.98486 -2.76291 0
M  V30 27120 N 2598.5 0.772537 1.37367 0
M  V30 27121 C 2599.72 0.347421 2.04469 0
M  V30 27122 C 2600.15 -1.02247 1.57883 0
M  V30 27123 O 2599.51 -1.65535 0.739439 0
M  V30 27124 C 2599.56 0.400542 3.58369 0
M  V30 27125 O 2598.66 -0.598718 4.08031 0
M  V30 27126 H 2598 0.150282 0.64677 0
M  V30 27127 H 2600.53 1.04895 1.75665 0
M  V30 27128 H 2600.54 0.258117 4.07183 0
M  V30 27129 H 2599.22 1.39993 3.91631 0
M  V30 27130 H 2597.79 -0.419346 3.70535 0
M  V30 27131 N 2599.98 -1.48664 0.523142 0
M  V30 27132 C 2601.2 -2.07397 -0.011692 0
M  V30 27133 C 2601.63 -1.37805 -1.28029 0
M  V30 27134 O 2600.99 -0.441793 -1.75835 0
M  V30 27135 C 2601.03 -3.59893 -0.225723 0
M  V30 27136 O 2600.14 -3.91512 -1.29585 0
M  V30 27137 H 2599.48 -0.663019 0.036079 0
M  V30 27138 H 2602.01 -1.91168 0.7291 0
M  V30 27139 H 2602.02 -4.05505 -0.45048 0
M  V30 27140 H 2600.69 -4.09949 0.701016 0
M  V30 27141 H 2599.27 -3.57686 -1.05429 0
M  V30 27142 N 2601.46 -0.257958 -1.55475 0
M  V30 27143 C 2602.39 0.677823 -2.17901 0
M  V30 27144 C 2603.37 1.16481 -1.1345 0
M  V30 27145 O 2604.55 1.24093 -1.41892 0
M  V30 27146 C 2601.68 1.92244 -2.78855 0
M  V30 27147 C 2600.72 1.57239 -3.96457 0
M  V30 27148 S 2601.56 0.665408 -5.3135 0
M  V30 27149 C 2602.71 1.91878 -5.95763 0
M  V30 27150 H 2602.95 0.147344 -2.96935 0
M  V30 27151 H 2600.48 -0.0423295 -1.54342 0
M  V30 27152 H 2602.44 2.63691 -3.14606 0
M  V30 27153 H 2601.1 2.42405 -1.99746 0
M  V30 27154 H 2600.29 2.49807 -4.37736 0
M  V30 27155 H 2599.89 0.938262 -3.6204 0
M  V30 27156 H 2602.18 2.86477 -6.13952 0
M  V30 27157 H 2603.13 1.5493 -6.90943 0
M  V30 27158 H 2603.54 2.07591 -5.24944 0
M  V30 27159 N 2602.93 1.57593 0.0150108 0
M  V30 27160 C 2603.9 2.0643 0.99596 0
M  V30 27161 C 2604.9 0.970926 1.28178 0
M  V30 27162 O 2606.09 1.23409 1.22947 0
M  V30 27163 C 2603.22 2.49311 2.32502 0
M  V30 27164 H 2604.41 2.94359 0.573822 0
M  V30 27165 H 2601.97 1.54086 0.262159 0
M  V30 27166 H 2602.7 1.6458 2.79435 0
M  V30 27167 H 2602.49 3.29149 2.13081 0
M  V30 27168 H 2603.98 2.87473 3.02901 0
M  V30 27169 N 2604.41 -0.287527 1.54955 0
M  V30 27170 C 2605.35 -1.38007 1.8174 0
M  V30 27171 C 2606.32 -1.4818 0.669438 0
M  V30 27172 O 2607.51 -1.65032 0.910868 0
M  V30 27173 C 2604.63 -2.75793 1.96611 0
M  V30 27174 C 2603.68 -2.82977 3.19102 0
M  V30 27175 S 2604.51 -2.43698 4.76835 0
M  V30 27176 C 2605.67 -3.83487 4.9466 0
M  V30 27177 H 2605.9 -1.1508 2.74124 0
M  V30 27178 H 2603.44 -0.486377 1.46539 0
M  V30 27179 H 2605.39 -3.55148 2.05864 0
M  V30 27180 H 2604.05 -2.9598 1.05141 0
M  V30 27181 H 2603.25 -3.84072 3.26351 0
M  V30 27182 H 2602.85 -2.11629 3.08365 0
M  V30 27183 H 2605.14 -4.78619 4.7951 0
M  V30 27184 H 2606.08 -3.812 5.96735 0
M  V30 27185 H 2606.49 -3.74115 4.22727 0
M  V30 27186 N 2605.89 -1.47641 -0.551365 0
M  V30 27187 C 2607.14 -1.53824 -1.30464 0
M  V30 27188 C 2607.45 -0.207695 -1.94494 0
M  V30 27189 O 2608.66 -0.14758 -2.71099 0
M  V30 27190 C 2607.11 -2.71188 -2.36612 0
M  V30 27191 C 2606.72 -4.10796 -1.78746 0
M  V30 27192 C 2608.47 -2.86669 -3.13083 0
M  V30 27193 C 2606.37 -5.19452 -2.82708 0
M  V30 27194 H 2605.3 -0.572585 -0.490574 0
M  V30 27195 H 2607.95 -1.73928 -0.584909 0
M  V30 27196 H 2606.34 -2.44475 -3.11525 0
M  V30 27197 H 2607.51 -4.47437 -1.10165 0
M  V30 27198 H 2605.83 -4.00251 -1.14839 0
M  V30 27199 H 2608.42 -3.65013 -3.90729 0
M  V30 27200 H 2608.77 -1.95328 -3.67631 0
M  V30 27201 H 2609.3 -3.1318 -2.45282 0
M  V30 27202 H 2606.04 -6.12689 -2.33008 0
M  V30 27203 H 2605.56 -4.87322 -3.49681 0
M  V30 27204 H 2607.24 -5.46652 -3.46093 0
M  V30 27205 N 2607.37 0.798563 -1.3587 0
M  V30 27206 C 2608.59 1.59236 -1.32886 0
M  V30 27207 C 2609.02 1.87887 0.0894257 0
M  V30 27208 O 2608.38 1.4718 1.05866 0
M  V30 27209 C 2608.42 2.89571 -2.14897 0
M  V30 27210 O 2607.53 3.82761 -1.53519 0
M  V30 27211 H 2606.87 0.483372 -0.455245 0
M  V30 27212 H 2609.4 0.990507 -1.79025 0
M  V30 27213 H 2609.41 3.38924 -2.27145 0
M  V30 27214 H 2608.08 2.68043 -3.18003 0
M  V30 27215 H 2606.66 3.41331 -1.50159 0
M  V30 27216 N 2608.85 1.19999 1.02166 0
M  V30 27217 C 2610.09 1.00507 1.75336 0
M  V30 27218 C 2610.42 -0.464473 1.89388 0
M  V30 27219 O 2609.69 -1.33605 1.43271 0
M  V30 27220 H 2608.27 0.368896 0.649557 0
M  V30 27221 H 2610.93 1.51021 1.23202 0
M  V30 27222 H 2610.02 1.45917 2.75889 0
M  V30 27223 N 2610.32 -1.21392 1.00507 0
M  V30 27224 C 2611.25 -2.26034 0.585723 0
M  V30 27225 C 2612.24 -1.65486 -0.393496 0
M  V30 27226 O 2613.42 -1.92149 -0.281463 0
M  V30 27227 C 2610.55 -3.47188 -0.0883673 0
M  V30 27228 C 2609.5 -4.20253 0.810641 0
M  V30 27229 C 2608.83 -5.347 0.00295781 0
M  V30 27230 C 2610.13 -4.77638 2.11328 0
M  V30 27231 H 2611.82 -2.61365 1.46043 0
M  V30 27232 H 2609.37 -1.25636 0.70367 0
M  V30 27233 H 2611.32 -4.19561 -0.393212 0
M  V30 27234 H 2610.05 -3.10988 -0.997711 0
M  V30 27235 H 2608.71 -3.49729 1.09931 0
M  V30 27236 H 2608.35 -4.94743 -0.907678 0
M  V30 27237 H 2608.05 -5.84513 0.601547 0
M  V30 27238 H 2609.58 -6.09884 -0.295701 0
M  V30 27239 H 2610.99 -5.4189 1.87158 0
M  V30 27240 H 2609.39 -5.3784 2.66173 0
M  V30 27241 H 2610.46 -3.97015 2.784 0
M  V30 27242 N 2611.8 -0.779811 -1.36955 0
M  V30 27243 C 2613.03 -0.35826 -2.04282 0
M  V30 27244 C 2613.45 1.01408 -1.58423 0
M  V30 27245 O 2612.81 1.65141 -0.748208 0
M  V30 27246 C 2612.86 -0.419542 -3.58151 0
M  V30 27247 O 2611.96 0.57707 -4.08343 0
M  V30 27248 H 2611.3 -0.15371 -0.645964 0
M  V30 27249 H 2613.83 -1.05825 -1.75106 0
M  V30 27250 H 2613.84 -0.279707 -4.0704 0
M  V30 27251 H 2612.52 -1.42068 -3.90883 0
M  V30 27252 H 2611.1 0.39969 -3.70752 0
M  V30 27253 N 2613.28 1.48384 -0.531019 0
M  V30 27254 C 2614.53 2.021 0.00269637 0
M  V30 27255 C 2614.85 1.41029 1.34669 0
M  V30 27256 O 2614.12 0.576045 1.87239 0
M  V30 27257 H 2612.7 0.746989 0.00398461 0
M  V30 27258 H 2615.36 1.82084 -0.695086 0
M  V30 27259 H 2614.46 3.11905 0.110255 0
M  V30 27260 N 2614.76 0.2662 1.55336 0
M  V30 27261 C 2616.17 -0.0881785 1.59356 0
M  V30 27262 C 2616.37 -1.5534 1.28343 0
M  V30 27263 O 2615.43 -2.30087 1.04 0
M  V30 27264 C 2616.74 0.278416 2.99408 0
M  V30 27265 C 2618.29 0.224298 3.12195 0
M  V30 27266 C 2618.77 0.565203 4.54499 0
M  V30 27267 N 2620.26 0.516421 4.60312 0
M  V30 27268 C 2620.99 0.753113 5.68433 0
M  V30 27269 N 2620.49 1.05395 6.84736 0
M  V30 27270 N 2622.28 0.682512 5.57941 0
M  V30 27271 H 2614.43 1.22151 1.73761 0
M  V30 27272 H 2616.7 0.492856 0.809813 0
M  V30 27273 H 2616.4 1.29708 3.26908 0
M  V30 27274 H 2616.28 -0.38512 3.75229 0
M  V30 27275 H 2618.66 -0.78507 2.84466 0
M  V30 27276 H 2618.74 0.921964 2.38607 0
M  V30 27277 H 2618.39 1.57222 4.82953 0
M  V30 27278 H 2618.32 -0.154155 5.26374 0
M  V30 27279 H 2620.81 0.293416 3.76759 0
M  V30 27280 H 2621.12 1.22146 7.63086 0
M  V30 27281 H 2619.47 1.09163 6.86373 0
M  V30 27282 H 2622.66 0.447391 4.65957 0
M  V30 27283 H 2622.83 0.870361 6.42128 0
M  V30 27284 N 2616.24 -1.57599 -0.0066531 0
M  V30 27285 C 2617.18 -2.08001 -1.0002 0
M  V30 27286 C 2618.15 -0.973967 -1.34548 0
M  V30 27287 O 2619.34 -1.24598 -1.44499 0
M  V30 27288 C 2616.48 -2.58256 -2.28905 0
M  V30 27289 C 2615.59 -3.82738 -2.00339 0
M  V30 27290 C 2614.73 -4.21519 -3.23257 0
M  V30 27291 C 2613.77 -5.38855 -2.90347 0
M  V30 27292 N 2612.9 -5.72961 -4.05783 0
M  V30 27293 H 2617.74 -2.92625 -0.563448 0
M  V30 27294 H 2615.28 -1.44665 -0.266567 0
M  V30 27295 H 2617.24 -2.85469 -3.04242 0
M  V30 27296 H 2615.87 -1.76517 -2.70262 0
M  V30 27297 H 2614.92 -3.62473 -1.154 0
M  V30 27298 H 2616.23 -4.68178 -1.72078 0
M  V30 27299 H 2615.39 -4.49979 -4.06945 0
M  V30 27300 H 2614.12 -3.34774 -3.54651 0
M  V30 27301 H 2613.13 -5.10126 -2.05066 0
M  V30 27302 H 2614.35 -6.27271 -2.60208 0
M  V30 27303 H 2612.3 -4.89175 -4.37086 0
M  V30 27304 H 2612.22 -6.52961 -3.81023 0
M  V30 27305 H 2613.49 -6.06009 -4.90278 0
M  V30 27306 N 2617.72 0.279305 -1.55105 0
M  V30 27307 C 2618.94 1.03442 -1.79762 0
M  V30 27308 C 2619.37 1.79383 -0.565984 0
M  V30 27309 O 2618.72 1.74714 0.484229 0
M  V30 27310 C 2618.77 1.97366 -3.01793 0
M  V30 27311 O 2617.88 3.06033 -2.76437 0
M  V30 27312 H 2617.22 0.296069 -0.594339 0
M  V30 27313 H 2619.75 0.31013 -2.02236 0
M  V30 27314 H 2619.76 2.39436 -3.30355 0
M  V30 27315 H 2618.43 1.41503 -3.91088 0
M  V30 27316 H 2617.01 2.68323 -2.58954 0
M  V30 27317 N 2619.19 1.47931 0.543528 0
M  V30 27318 C 2620.42 1.59147 1.32992 0
M  V30 27319 C 2620.84 0.246989 1.86471 0
M  V30 27320 O 2620.2 -0.779295 1.63697 0
M  V30 27321 C 2620.25 2.63082 2.46618 0
M  V30 27322 O 2619.35 2.19301 3.49257 0
M  V30 27323 H 2618.69 0.534131 0.394462 0
M  V30 27324 H 2621.22 1.93817 0.655455 0
M  V30 27325 H 2621.23 2.83932 2.92996 0
M  V30 27326 H 2619.91 3.60697 2.07053 0
M  V30 27327 H 2618.49 2.08608 3.09091 0
M  V30 27328 N 2620.67 -0.791347 1.36292 0
M  V30 27329 C 2621.9 -1.58013 1.33564 0
M  V30 27330 C 2622.31 -1.88615 -0.0835285 0
M  V30 27331 O 2621.67 -1.49976 -1.03988 0
M  V30 27332 C 2621.72 -2.90229 2.15522 0
M  V30 27333 O 2621.44 -2.60946 3.51907 0
M  V30 27334 C 2622.94 -3.8454 2.20553 0
M  V30 27335 H 2620.16 -0.490165 0.458235 0
M  V30 27336 H 2622.71 -0.982314 1.79362 0
M  V30 27337 H 2620.86 -3.46484 1.73284 0
M  V30 27338 H 2621.28 -3.45474 3.9465 0
M  V30 27339 H 2622.75 -4.74377 2.8226 0
M  V30 27340 H 2623.23 -4.22248 1.20845 0
M  V30 27341 H 2623.83 -3.34218 2.63018 0
M  V30 27342 N 2622.15 -1.2054 -1.01528 0
M  V30 27343 C 2623.4 -1.01435 -1.74801 0
M  V30 27344 C 2623.72 0.454423 -1.89631 0
M  V30 27345 O 2622.99 1.32843 -1.43977 0
M  V30 27346 H 2621.57 -0.372336 -0.647592 0
M  V30 27347 H 2624.23 -1.51672 -1.224 0
M  V30 27348 H 2623.33 -1.47378 -2.75111 0
M  V30 27349 N 2623.63 1.20858 -1.01149 0
M  V30 27350 C 2624.85 1.94622 -0.716732 0
M  V30 27351 C 2625.28 1.73965 0.715384 0
M  V30 27352 O 2624.64 1.03065 1.49155 0
M  V30 27353 C 2624.68 3.44933 -1.05136 0
M  V30 27354 O 2623.79 4.12089 -0.160204 0
M  V30 27355 H 2623.13 0.60821 -0.266415 0
M  V30 27356 H 2625.66 1.53433 -1.35349 0
M  V30 27357 H 2625.67 3.95532 -1.00093 0
M  V30 27358 H 2624.34 3.59291 -2.09482 0
M  V30 27359 H 2622.92 3.71938 -0.267722 0
M  V30 27360 N 2625.11 0.787064 1.3654 0
M  V30 27361 C 2626.52 0.421839 1.81872 0
M  V30 27362 C 2626.87 -1.05394 1.65489 0
M  V30 27363 O 2625.99 -1.81753 1.17451 0
M  V30 27364 C 2626.59 0.758899 3.30191 0
M  V30 27365 C 2625.15 0.446534 3.73742 0
M  V30 27366 C 2624.29 0.994773 2.58843 0
M  V30 27367 H 2627.24 0.980412 1.24794 0
M  V30 27368 H 2627.27 0.0491317 3.80468 0
M  V30 27369 H 2626.78 1.83305 3.42083 0
M  V30 27370 H 2624.88 -0.619674 3.67411 0
M  V30 27371 H 2624.99 0.965498 4.69271 0
M  V30 27372 H 2623.36 0.418132 2.51244 0
M  V30 27373 H 2624.14 2.07463 2.73521 0
M  V30 27374 N 2626.58 -1.48101 0.53888 0
M  V30 27375 C 2627.81 -2.06896 0.01235 0
M  V30 27376 C 2628.23 -1.39419 -1.2731 0
M  V30 27377 O 2627.58 -0.484613 -1.75948 0
M  V30 27378 C 2627.63 -3.60912 -0.206055 0
M  V30 27379 O 2627.36 -4.25857 1.02847 0
M  V30 27380 C 2628.86 -4.36527 -0.771956 0
M  V30 27381 H 2626.08 -0.669949 0.0375357 0
M  V30 27382 H 2628.62 -1.90366 0.747065 0
M  V30 27383 H 2626.78 -3.77018 -0.890844 0
M  V30 27384 H 2627.19 -5.18133 0.814745 0
M  V30 27385 H 2628.66 -5.45034 -0.874155 0
M  V30 27386 H 2629.14 -4.01559 -1.77897 0
M  V30 27387 H 2629.75 -4.25121 -0.123451 0
M  V30 27388 N 2628.06 -0.274434 -1.55192 0
M  V30 27389 C 2629.29 0.348788 -2.04446 0
M  V30 27390 C 2629.71 1.48733 -1.15152 0
M  V30 27391 O 2629.07 1.80679 -0.149984 0
M  V30 27392 C 2629.12 0.807947 -3.51432 0
M  V30 27393 O 2628.22 1.91525 -3.65229 0
M  V30 27394 H 2627.56 0.072216 -0.660061 0
M  V30 27395 H 2630.09 -0.408533 -2.0048 0
M  V30 27396 H 2630.1 1.10388 -3.92783 0
M  V30 27397 H 2628.78 -0.0250596 -4.15892 0
M  V30 27398 H 2627.35 1.6219 -3.35781 0
M  V30 27399 N 2629.54 1.576 -0.00170483 0
M  V30 27400 C 2630.95 1.78694 0.540879 0
M  V30 27401 C 2631.3 0.909278 1.73858 0
M  V30 27402 O 2630.43 0.112214 2.16109 0
M  V30 27403 C 2631.02 3.24074 0.988003 0
M  V30 27404 C 2629.58 3.46258 1.47588 0
M  V30 27405 C 2628.73 2.73979 0.427872 0
M  V30 27406 H 2631.68 1.57056 -0.227867 0
M  V30 27407 H 2631.7 3.3228 1.85392 0
M  V30 27408 H 2631.21 3.87926 0.116095 0
M  V30 27409 H 2629.31 2.87623 2.36863 0
M  V30 27410 H 2629.43 4.54941 1.50217 0
M  V30 27411 H 2627.79 2.38648 0.889892 0
M  V30 27412 H 2628.57 3.40532 -0.435098 0
M  V30 27413 N 2631.02 -0.271076 1.55251 0
M  V30 27414 C 2631.95 -1.33929 1.91272 0
M  V30 27415 C 2632.93 -1.51429 0.774806 0
M  V30 27416 O 2634.11 -1.6444 1.0331 0
M  V30 27417 C 2631.24 -2.69847 2.18632 0
M  V30 27418 C 2630.2 -2.67076 3.34447 0
M  V30 27419 C 2629.52 -4.06563 3.47291 0
M  V30 27420 C 2630.82 -2.26176 4.70788 0
M  V30 27421 H 2632.52 -1.0403 2.80746 0
M  V30 27422 H 2630.06 -0.498993 1.35078 0
M  V30 27423 H 2632.02 -3.4469 2.42419 0
M  V30 27424 H 2630.74 -3.01333 1.2596 0
M  V30 27425 H 2629.4 -1.9469 3.10631 0
M  V30 27426 H 2629.05 -4.35274 2.52082 0
M  V30 27427 H 2628.75 -4.05603 4.25159 0
M  V30 27428 H 2630.27 -4.83142 3.73372 0
M  V30 27429 H 2631.69 -2.90743 4.94107 0
M  V30 27430 H 2630.08 -2.36375 5.51586 0
M  V30 27431 H 2631.15 -1.2131 4.6948 0
M  V30 27432 N 2632.5 -1.48217 -0.535675 0
M  V30 27433 C 2633.44 -1.62752 -1.66176 0
M  V30 27434 C 2634.44 -0.494119 -1.62033 0
M  V30 27435 O 2635.64 -0.672653 -1.66959 0
M  V30 27436 H 2632.02 -0.512587 -0.550235 0
M  V30 27437 H 2633.99 -2.5734 -1.51059 0
M  V30 27438 C 2632.74 -1.67913 -3.04468 0
M  V30 27439 H 2632.06 -2.54485 -3.08347 0
M  V30 27440 H 2633.5 -1.82128 -3.82891 0
M  V30 27441 C 2631.96 -0.416655 -3.34314 0
M  V30 27442 O 2632.49 0.472944 -3.98906 0
M  V30 27443 N 2630.7 -0.290089 -2.89148 0
M  V30 27444 H 2630.24 -1.01497 -2.36762 0
M  V30 27445 H 2630.2 0.553616 -3.09487 0
M  V30 27446 N 2633.97 0.784108 -1.3671 0
M  V30 27447 C 2634.94 1.87857 -1.3131 0
M  V30 27448 C 2635.94 1.59292 -0.219682 0
M  V30 27449 O 2637.13 1.67605 -0.47479 0
M  V30 27450 C 2634.26 3.24749 -1.03685 0
M  V30 27451 H 2635.45 1.9406 -2.2865 0
M  V30 27452 H 2633.01 0.982499 -1.21559 0
M  V30 27453 H 2633.74 3.24228 -0.0682506 0
M  V30 27454 H 2633.53 3.46872 -1.82817 0
M  V30 27455 H 2635.02 4.04819 -1.02526 0
M  V30 27456 N 2635.45 1.21076 1.00888 0
M  V30 27457 C 2636.36 0.982462 2.13037 0
M  V30 27458 C 2637.38 -0.0641856 1.73882 0
M  V30 27459 O 2638.55 0.124996 2.01012 0
M  V30 27460 C 2635.62 0.545864 3.42376 0
M  V30 27461 C 2634.68 1.66427 3.95728 0
M  V30 27462 C 2633.91 1.24841 5.18893 0
M  V30 27463 O 2634.14 0.120365 5.70273 0
M  V30 27464 O 2633.07 2.05883 5.65593 0
M  V30 27465 H 2636.9 1.92167 2.35171 0
M  V30 27466 H 2634.48 0.995305 1.11418 0
M  V30 27467 H 2636.36 0.311986 4.20244 0
M  V30 27468 H 2635.04 -0.364671 3.21639 0
M  V30 27469 H 2633.95 1.95251 3.19105 0
M  V30 27470 H 2635.28 2.55209 4.20867 0
M  V30 27471 N 2636.93 -1.2032 1.01789 0
M  V30 27472 C 2637.88 -2.23152 0.589236 0
M  V30 27473 C 2638.85 -1.61424 -0.391339 0
M  V30 27474 O 2640.03 -1.88576 -0.290485 0
M  V30 27475 C 2637.17 -3.45039 -0.065014 0
M  V30 27476 C 2636.29 -4.21192 0.960281 0
M  V30 27477 C 2635.42 -5.30478 0.276947 0
M  V30 27478 C 2634.46 -5.98376 1.28891 0
M  V30 27479 N 2633.6 -6.99248 0.632154 0
M  V30 27480 H 2638.44 -2.59177 1.47076 0
M  V30 27481 H 2635.97 -1.27351 0.736214 0
M  V30 27482 H 2637.93 -4.1464 -0.461479 0
M  V30 27483 H 2636.56 -3.09702 -0.910179 0
M  V30 27484 H 2635.61 -3.50644 1.4749 0
M  V30 27485 H 2636.93 -4.67844 1.72985 0
M  V30 27486 H 2636.08 -6.06448 -0.17495 0
M  V30 27487 H 2634.82 -4.84867 -0.524918 0
M  V30 27488 H 2633.82 -5.21166 1.75118 0
M  V30 27489 H 2635.05 -6.46072 2.09208 0
M  V30 27490 H 2632.99 -6.55829 -0.149819 0
M  V30 27491 H 2632.91 -7.44034 1.33977 0
M  V30 27492 H 2634.18 -7.79233 0.203892 0
M  V30 27493 N 2638.41 -0.794293 -1.3612 0
M  V30 27494 C 2639.34 -0.210369 -2.3255 0
M  V30 27495 C 2640.32 0.657359 -1.56885 0
M  V30 27496 O 2641.5 0.590174 -1.85015 0
M  V30 27497 C 2638.63 0.651759 -3.4113 0
M  V30 27498 C 2637.59 -0.11647 -4.27841 0
M  V30 27499 C 2636.91 0.866567 -5.27631 0
M  V30 27500 C 2638.21 -1.30846 -5.05645 0
M  V30 27501 H 2639.91 -1.01599 -2.81635 0
M  V30 27502 H 2637.45 -0.490005 -1.35407 0
M  V30 27503 H 2639.41 1.07023 -4.07583 0
M  V30 27504 H 2638.13 1.49013 -2.90624 0
M  V30 27505 H 2636.79 -0.515979 -3.62951 0
M  V30 27506 H 2636.44 1.70011 -4.73398 0
M  V30 27507 H 2636.14 0.356947 -5.86515 0
M  V30 27508 H 2637.66 1.28351 -5.96958 0
M  V30 27509 H 2639.08 -0.965492 -5.65112 0
M  V30 27510 H 2637.47 -1.75171 -5.73964 0
M  V30 27511 H 2638.54 -2.10136 -4.37002 0
M  V30 27512 N 2639.89 1.47813 -0.546727 0
M  V30 27513 C 2640.8 2.33656 0.210219 0
M  V30 27514 C 2641.81 1.4754 0.922387 0
M  V30 27515 O 2642.99 1.80489 0.89362 0
M  V30 27516 C 2640.05 3.24018 1.23342 0
M  V30 27517 C 2639.11 4.26018 0.529809 0
M  V30 27518 C 2638.35 5.12062 1.50426 0
M  V30 27519 O 2638.57 5.00374 2.73828 0
M  V30 27520 O 2637.5 5.92944 1.03449 0
M  V30 27521 H 2641.33 2.99661 -0.493658 0
M  V30 27522 H 2638.92 1.46202 -0.307452 0
M  V30 27523 H 2640.8 3.79864 1.82432 0
M  V30 27524 H 2639.47 2.60654 1.91941 0
M  V30 27525 H 2638.38 3.73961 -0.102013 0
M  V30 27526 H 2639.71 4.92067 -0.114536 0
M  V30 27527 N 2641.36 0.28266 1.55044 0
M  V30 27528 C 2642.59 -0.337941 2.04628 0
M  V30 27529 C 2643.01 -1.48121 1.15939 0
M  V30 27530 O 2642.37 -1.80596 0.159564 0
M  V30 27531 C 2642.42 -0.789298 3.51856 0
M  V30 27532 O 2641.52 -1.89585 3.66239 0
M  V30 27533 H 2640.87 -0.0687145 0.660435 0
M  V30 27534 H 2643.4 0.41916 2.0026 0
M  V30 27535 H 2643.41 -1.08304 3.93363 0
M  V30 27536 H 2642.08 0.047115 4.15873 0
M  V30 27537 H 2640.66 -1.60407 3.36636 0
M  V30 27538 N 2642.84 -1.57597 0.0100627 0
M  V30 27539 C 2643.75 -2.12492 -0.994189 0
M  V30 27540 C 2644.77 -1.07256 -1.37011 0
M  V30 27541 O 2645.94 -1.39212 -1.4554 0
M  V30 27542 C 2643.01 -2.62559 -2.26415 0
M  V30 27543 C 2642.07 -3.82436 -1.95042 0
M  V30 27544 C 2641.3 -4.30105 -3.15983 0
M  V30 27545 O 2641.53 -3.77048 -4.28009 0
M  V30 27546 O 2640.46 -5.22156 -2.99393 0
M  V30 27547 H 2644.29 -2.98539 -0.557496 0
M  V30 27548 H 2641.87 -1.47925 -0.209387 0
M  V30 27549 H 2643.75 -2.94915 -3.01004 0
M  V30 27550 H 2642.43 -1.79605 -2.69303 0
M  V30 27551 H 2641.34 -3.55037 -1.17898 0
M  V30 27552 H 2642.67 -4.66494 -1.56984 0
M  V30 27553 N 2644.32 0.262839 -1.55393 0
M  V30 27554 C 2645.23 1.34694 -1.9208 0
M  V30 27555 C 2646.25 1.53506 -0.819254 0
M  V30 27556 O 2647.42 1.67437 -1.11924 0
M  V30 27557 C 2644.49 2.68439 -2.19412 0
M  V30 27558 C 2643.55 2.58286 -3.42909 0
M  V30 27559 C 2642.78 3.85653 -3.68928 0
M  V30 27560 O 2643 4.86805 -2.97283 0
M  V30 27561 O 2641.94 3.85244 -4.62462 0
M  V30 27562 H 2645.76 1.06576 -2.84386 0
M  V30 27563 H 2643.35 0.462239 -1.42069 0
M  V30 27564 H 2645.23 3.47502 -2.38371 0
M  V30 27565 H 2643.91 2.96323 -1.30287 0
M  V30 27566 H 2642.81 1.77564 -3.29275 0
M  V30 27567 H 2644.15 2.3535 -4.32286 0
M  V30 27568 N 2645.8 1.48499 0.527807 0
M  V30 27569 C 2647.08 1.47117 1.28902 0
M  V30 27570 C 2647.46 0.184044 2.10296 0
M  V30 27571 O 2646.8 -0.834181 2.12729 0
M  V30 27572 C 2647.01 2.73445 2.16861 0
M  V30 27573 C 2648.36 3.21861 2.7693 0
M  V30 27574 O 2649.39 2.74377 2.27147 0
M  V30 27575 O 2648.24 4.04492 3.67489 0
M  V30 27576 H 2645.34 0.587633 0.581907 0
M  V30 27577 H 2647.88 1.60735 0.544282 0
M  V30 27578 H 2646.66 3.58635 1.56515 0
M  V30 27579 H 2646.28 2.62558 2.98578 0
M  V30 27580 N 2647.28 -0.776847 1.37123 0
M  V30 27581 C 2648.52 -1.53749 1.32246 0
M  V30 27582 C 2648.86 -1.9397 -0.0944404 0
M  V30 27583 O 2648.13 -1.63682 -1.05065 0
M  V30 27584 C 2648.41 -2.80603 2.25686 0
M  V30 27585 C 2648.27 -2.46669 3.76131 0
M  V30 27586 C 2649.59 -3.82505 2.17664 0
M  V30 27587 H 2646.71 -0.557782 0.481714 0
M  V30 27588 H 2649.35 -0.891583 1.67782 0
M  V30 27589 H 2647.5 -3.3572 1.95511 0
M  V30 27590 H 2649.17 -1.97506 4.1688 0
M  V30 27591 H 2647.41 -1.79436 3.9495 0
M  V30 27592 H 2648.08 -3.37326 4.36939 0
M  V30 27593 H 2650.56 -3.36869 2.44251 0
M  V30 27594 H 2649.44 -4.68995 2.85193 0
M  V30 27595 H 2649.7 -4.26394 1.16793 0
M  V30 27596 N 2648.76 -1.2161 -1.00244 0
M  V30 27597 C 2649.98 -1.0617 -1.78165 0
M  V30 27598 C 2650.41 0.384002 -1.84139 0
M  V30 27599 O 2649.76 1.2771 -1.28685 0
M  V30 27600 C 2649.81 -1.66648 -3.19783 0
M  V30 27601 O 2648.92 -0.913684 -4.02151 0
M  V30 27602 H 2648.26 -0.3735 -0.548993 0
M  V30 27603 H 2650.79 -1.61206 -1.25991 0
M  V30 27604 H 2650.8 -1.70975 -3.70448 0
M  V30 27605 H 2649.47 -2.71856 -3.14749 0
M  V30 27606 H 2648.05 -0.945698 -3.60709 0
M  V30 27607 N 2650.23 1.19778 -1.02425 0
M  V30 27608 C 2651.17 2.22274 -0.559192 0
M  V30 27609 C 2652.18 1.58713 0.362482 0
M  V30 27610 O 2653.37 1.77785 0.15961 0
M  V30 27611 C 2650.47 3.38279 0.205035 0
M  V30 27612 C 2649.64 4.31426 -0.720437 0
M  V30 27613 C 2648.7 5.262 -0.00243618 0
M  V30 27614 O 2647.73 5.65731 -0.627477 0
M  V30 27615 N 2648.93 5.6644 1.26987 0
M  V30 27616 H 2651.69 2.62801 -1.44068 0
M  V30 27617 H 2649.25 1.34397 -0.902716 0
M  V30 27618 H 2651.25 3.98691 0.694798 0
M  V30 27619 H 2649.82 2.9658 0.987895 0
M  V30 27620 H 2649.04 3.68866 -1.39037 0
M  V30 27621 H 2650.32 4.90575 -1.34959 0
M  V30 27622 H 2649.72 5.3635 1.79849 0
M  V30 27623 H 2648.28 6.29126 1.70421 0
M  V30 27624 N 2651.71 0.801501 1.35697 0
M  V30 27625 C 2652.67 0.214034 2.28198 0
M  V30 27626 C 2653.67 -0.595665 1.4936 0
M  V30 27627 O 2654.86 -0.414891 1.69187 0
M  V30 27628 C 2652 -0.702238 3.33589 0
M  V30 27629 H 2653.19 1.02981 2.81664 0
M  V30 27630 H 2650.74 0.571785 1.45466 0
M  V30 27631 H 2651.48 -1.5419 2.853 0
M  V30 27632 H 2651.26 -0.123415 3.91906 0
M  V30 27633 H 2652.75 -1.10775 4.02639 0
M  V30 27634 N 2653.19 -1.47521 0.554558 0
M  V30 27635 C 2654.44 -2.02478 0.0295146 0
M  V30 27636 C 2654.76 -1.42919 -1.31926 0
M  V30 27637 O 2654.02 -0.573418 -1.87111 0
M  V30 27638 C 2654.32 -3.57212 -0.115864 0
M  V30 27639 C 2653.98 -4.35678 1.16168 0
M  V30 27640 C 2652.65 -4.56836 1.51176 0
M  V30 27641 C 2655 -4.8095 2.00839 0
M  V30 27642 C 2652.33 -5.20515 2.70705 0
M  V30 27643 C 2654.68 -5.45947 3.19569 0
M  V30 27644 C 2653.34 -5.65339 3.54892 0
M  V30 27645 H 2652.61 -0.740921 0.0108002 0
M  V30 27646 H 2655.26 -1.77224 0.725537 0
M  V30 27647 H 2653.56 -3.81445 -0.894835 0
M  V30 27648 H 2655.26 -3.97382 -0.53742 0
M  V30 27649 H 2651.85 -4.19488 0.8791 0
M  V30 27650 H 2656.04 -4.64385 1.75101 0
M  V30 27651 H 2651.29 -5.33723 2.98245 0
M  V30 27652 H 2655.47 -5.7999 3.85466 0
M  V30 27653 H 2653.09 -6.14453 4.47607 0
M  V30 27654 N 2654.67 -0.290879 -1.54892 0
M  V30 27655 C 2655.6 0.583044 -2.26104 0
M  V30 27656 C 2656.58 1.14617 -1.25686 0
M  V30 27657 O 2657.76 1.17739 -1.54439 0
M  V30 27658 C 2654.89 1.75982 -2.99412 0
M  V30 27659 C 2653.85 1.32751 -4.06892 0
M  V30 27660 C 2653.17 2.58864 -4.67861 0
M  V30 27661 C 2654.47 0.466148 -5.20216 0
M  V30 27662 H 2656.17 -0.0108741 -2.99398 0
M  V30 27663 H 2653.71 -0.00666999 -1.43998 0
M  V30 27664 H 2655.67 2.3772 -3.47947 0
M  V30 27665 H 2654.39 2.37981 -2.23679 0
M  V30 27666 H 2653.05 0.733236 -3.59192 0
M  V30 27667 H 2652.7 3.19156 -3.88778 0
M  V30 27668 H 2652.4 2.30644 -5.40442 0
M  V30 27669 H 2653.92 3.21424 -5.19152 0
M  V30 27670 H 2655.34 0.988948 -5.64706 0
M  V30 27671 H 2653.73 0.278155 -5.99455 0
M  V30 27672 H 2654.8 -0.511257 -4.82197 0
M  V30 27673 N 2656.15 1.57589 -0.0184203 0
M  V30 27674 C 2657.06 2.13017 0.982906 0
M  V30 27675 C 2658.07 1.07981 1.36441 0
M  V30 27676 O 2659.25 1.39982 1.448 0
M  V30 27677 C 2656.31 2.63756 2.25019 0
M  V30 27678 C 2655.37 3.83465 1.93011 0
M  V30 27679 C 2654.61 4.31775 3.13698 0
M  V30 27680 O 2654.83 3.79312 4.26003 0
M  V30 27681 O 2653.76 5.23737 2.9662 0
M  V30 27682 H 2657.59 2.98831 0.541656 0
M  V30 27683 H 2655.17 1.48034 0.201539 0
M  V30 27684 H 2657.06 2.96507 2.99435 0
M  V30 27685 H 2655.73 1.8103 2.68346 0
M  V30 27686 H 2654.64 3.55657 1.16013 0
M  V30 27687 H 2655.97 4.6732 1.54508 0
M  V30 27688 N 2657.62 -0.254594 1.5553 0
M  V30 27689 C 2658.59 -1.29842 1.88875 0
M  V30 27690 C 2659.59 -1.41458 0.764616 0
M  V30 27691 O 2660.78 -1.40291 1.03267 0
M  V30 27692 C 2657.91 -2.67725 2.11036 0
M  V30 27693 H 2659.1 -1.01497 2.82203 0
M  V30 27694 H 2656.65 -0.49353 1.48304 0
M  V30 27695 H 2657.39 -3.01221 1.20151 0
M  V30 27696 H 2657.17 -2.60677 2.92899 0
M  V30 27697 H 2658.66 -3.4311 2.38044 0
M  V30 27698 N 2659.1 -1.48777 -0.519925 0
M  V30 27699 C 2660.35 -1.57539 -1.27708 0
M  V30 27700 C 2660.68 -0.2529 -1.92546 0
M  V30 27701 O 2659.96 0.741989 -1.79791 0
M  V30 27702 C 2660.24 -2.72098 -2.3587 0
M  V30 27703 C 2660.09 -4.14083 -1.75657 0
M  V30 27704 C 2661.41 -2.82373 -3.3757 0
M  V30 27705 H 2658.53 -0.573442 -0.462961 0
M  V30 27706 H 2661.17 -1.8099 -0.578162 0
M  V30 27707 H 2659.32 -2.52233 -2.95484 0
M  V30 27708 H 2660.99 -4.45414 -1.20017 0
M  V30 27709 H 2659.24 -4.20613 -1.06146 0
M  V30 27710 H 2659.91 -4.90079 -2.5402 0
M  V30 27711 H 2662.38 -3.00398 -2.87924 0
M  V30 27712 H 2661.26 -3.6424 -4.10634 0
M  V30 27713 H 2661.52 -1.90943 -3.9874 0
M  V30 27714 N 2660.58 0.769564 -1.37534 0
M  V30 27715 C 2661.54 1.86454 -1.33295 0
M  V30 27716 C 2662.54 1.5905 -0.236565 0
M  V30 27717 O 2663.73 1.67092 -0.49254 0
M  V30 27718 C 2660.86 3.23631 -1.07124 0
M  V30 27719 H 2662.06 1.91623 -2.30696 0
M  V30 27720 H 2659.61 0.96955 -1.22594 0
M  V30 27721 H 2660.35 3.24138 -0.102635 0
M  V30 27722 H 2660.13 3.44914 -1.86485 0
M  V30 27723 H 2661.62 4.03709 -1.06813 0
M  V30 27724 N 2662.06 1.22139 0.995977 0
M  V30 27725 C 2662.97 1.005 2.11983 0
M  V30 27726 C 2663.98 -0.0457395 1.7394 0
M  V30 27727 O 2665.16 0.146309 2.00868 0
M  V30 27728 C 2662.23 0.582146 3.41778 0
M  V30 27729 C 2661.29 1.70615 3.9394 0
M  V30 27730 C 2660.52 1.30337 5.1754 0
M  V30 27731 O 2660.74 0.180843 5.70113 0
M  V30 27732 O 2659.68 2.1187 5.63378 0
M  V30 27733 H 2663.5 1.94651 2.3312 0
M  V30 27734 H 2661.09 1.00707 1.10356 0
M  V30 27735 H 2662.97 0.356541 4.19889 0
M  V30 27736 H 2661.64 -0.330536 3.22008 0
M  V30 27737 H 2660.55 1.98625 3.17016 0
M  V30 27738 H 2661.88 2.59658 4.18137 0
M  V30 27739 N 2663.54 -1.19233 1.03059 0
M  V30 27740 C 2664.45 -2.26178 0.622962 0
M  V30 27741 C 2665.46 -1.70523 -0.346083 0
M  V30 27742 O 2666.64 -2.00369 -0.203537 0
M  V30 27743 C 2663.7 -3.46695 -0.0181454 0
M  V30 27744 C 2662.76 -4.17524 0.998619 0
M  V30 27745 C 2662 -5.32288 0.388011 0
M  V30 27746 O 2662.22 -5.6464 -0.808569 0
M  V30 27747 O 2661.15 -5.91544 1.11171 0
M  V30 27748 H 2664.98 -2.6329 1.51368 0
M  V30 27749 H 2662.57 -1.2612 0.800878 0
M  V30 27750 H 2664.45 -4.19723 -0.375532 0
M  V30 27751 H 2663.12 -3.11428 -0.88284 0
M  V30 27752 H 2662.03 -3.46608 1.40762 0
M  V30 27753 H 2663.36 -4.56766 1.83374 0
M  V30 27754 N 2665.01 -0.808686 -1.3527 0
M  V30 27755 C 2665.96 -0.218523 -2.29763 0
M  V30 27756 C 2666.93 0.648625 -1.52912 0
M  V30 27757 O 2668.12 0.593265 -1.81342 0
M  V30 27758 C 2665.26 0.625222 -3.39389 0
M  V30 27759 C 2664.37 -0.262592 -4.31201 0
M  V30 27760 C 2663.5 0.589359 -5.2792 0
M  V30 27761 C 2662.54 -0.298724 -6.11371 0
M  V30 27762 N 2661.68 0.51332 -7.00221 0
M  V30 27763 H 2666.52 -1.02973 -2.79644 0
M  V30 27764 H 2664.06 -0.519328 -1.37628 0
M  V30 27765 H 2666.02 1.12959 -4.01617 0
M  V30 27766 H 2664.65 1.40168 -2.9078 0
M  V30 27767 H 2663.7 -0.885078 -3.6996 0
M  V30 27768 H 2665.01 -0.946057 -4.89746 0
M  V30 27769 H 2664.16 1.15878 -5.95531 0
M  V30 27770 H 2662.9 1.30638 -4.69878 0
M  V30 27771 H 2661.91 -0.880396 -5.42705 0
M  V30 27772 H 2663.13 -1.01364 -6.71492 0
M  V30 27773 H 2661.08 1.21428 -6.44664 0
M  V30 27774 H 2661 -0.112055 -7.55917 0
M  V30 27775 H 2662.26 1.06595 -7.72177 0
M  V30 27776 N 2666.49 1.47225 -0.562374 0
M  V30 27777 C 2667.9 1.86244 -0.130358 0
M  V30 27778 C 2668.25 1.4684 1.30125 0
M  V30 27779 O 2667.38 0.87384 1.97972 0
M  V30 27780 C 2667.97 3.3802 -0.229797 0
M  V30 27781 C 2666.53 3.76112 0.147214 0
M  V30 27782 C 2665.68 2.71273 -0.575018 0
M  V30 27783 H 2668.63 1.38669 -0.771798 0
M  V30 27784 H 2668.65 3.765 0.55025 0
M  V30 27785 H 2668.16 3.66668 -1.27184 0
M  V30 27786 H 2666.27 3.5308 1.19017 0
M  V30 27787 H 2666.38 4.78618 -0.214943 0
M  V30 27788 H 2664.74 2.54694 -0.0175204 0
M  V30 27789 H 2665.53 3.02763 -1.61832 0
M  V30 27790 N 2667.97 0.299089 1.54736 0
M  V30 27791 C 2668.92 -0.592894 2.20156 0
M  V30 27792 C 2669.9 -1.10036 1.17392 0
M  V30 27793 O 2671.1 -1.04145 1.43118 0
M  V30 27794 C 2668.23 -1.76522 2.9444 0
M  V30 27795 C 2667.31 -1.27381 4.04518 0
M  V30 27796 N 2667.7 -0.50025 5.0332 0
M  V30 27797 C 2666 -1.5547 4.18025 0
M  V30 27798 C 2666.7 -0.238807 5.8121 0
M  V30 27799 N 2665.68 -0.818068 5.37409 0
M  V30 27800 H 2669.48 0.00568762 2.93899 0
M  V30 27801 H 2666.99 0.10376 1.62068 0
M  V30 27802 H 2668.99 -2.41576 3.39774 0
M  V30 27803 H 2667.65 -2.36752 2.22213 0
M  V30 27804 H 2668.66 -0.145328 5.17696 0
M  V30 27805 H 2665.34 -2.16463 3.57002 0
M  V30 27806 H 2666.73 0.382341 6.70811 0
M  V30 27807 N 2669.45 -1.57577 0.0267774 0
M  V30 27808 C 2670.69 -1.91988 -0.653337 0
M  V30 27809 C 2671.03 -0.903293 -1.71913 0
M  V30 27810 O 2670.3 0.0743045 -1.94358 0
M  V30 27811 C 2670.59 -3.36888 -1.27194 0
M  V30 27812 C 2670.44 -4.49282 -0.215859 0
M  V30 27813 C 2671.76 -3.81707 -2.19062 0
M  V30 27814 H 2668.88 -0.698181 -0.236035 0
M  V30 27815 H 2671.52 -1.89816 0.083557 0
M  V30 27816 H 2669.67 -3.3887 -1.89999 0
M  V30 27817 H 2671.34 -4.59433 0.414571 0
M  V30 27818 H 2669.58 -4.31366 0.458931 0
M  V30 27819 H 2670.25 -5.47693 -0.688251 0
M  V30 27820 H 2672.73 -3.81447 -1.66246 0
M  V30 27821 H 2671.61 -4.83793 -2.59299 0
M  V30 27822 H 2671.87 -3.17078 -3.08081 0
M  V30 27823 N 2670.93 0.246342 -1.55663 0
M  V30 27824 C 2671.87 1.30501 -1.90363 0
M  V30 27825 C 2672.84 1.47799 -0.757931 0
M  V30 27826 O 2674.03 1.61773 -1.01163 0
M  V30 27827 C 2671.17 2.65531 -2.20425 0
M  V30 27828 C 2670.28 2.56236 -3.47803 0
M  V30 27829 C 2669.42 3.83623 -3.67433 0
M  V30 27830 C 2668.46 3.68948 -4.8841 0
M  V30 27831 N 2667.59 4.88228 -5.04557 0
M  V30 27832 H 2672.43 1.00208 -2.80646 0
M  V30 27833 H 2669.97 0.483553 -1.38925 0
M  V30 27834 H 2671.93 3.44131 -2.35859 0
M  V30 27835 H 2670.56 2.93971 -1.33345 0
M  V30 27836 H 2669.61 1.69202 -3.40697 0
M  V30 27837 H 2670.92 2.41302 -4.36549 0
M  V30 27838 H 2670.08 4.70666 -3.82829 0
M  V30 27839 H 2668.81 4.01455 -2.76921 0
M  V30 27840 H 2667.82 2.80288 -4.72989 0
M  V30 27841 H 2669.04 3.5261 -5.80381 0
M  V30 27842 H 2666.99 5.0642 -4.16983 0
M  V30 27843 H 2666.91 4.75927 -5.87392 0
M  V30 27844 H 2668.18 5.76768 -5.24365 0
M  V30 27845 N 2672.4 1.4905 0.512027 0
M  V30 27846 C 2673.82 1.51309 1.09373 0
M  V30 27847 C 2674.17 0.293005 1.94 0
M  V30 27848 O 2673.29 -0.59824 2.07966 0
M  V30 27849 C 2673.89 2.74179 1.99026 0
M  V30 27850 C 2672.45 2.79251 2.5238 0
M  V30 27851 C 2671.59 2.45075 1.29744 0
M  V30 27852 H 2674.54 1.55907 0.296439 0
M  V30 27853 H 2674.56 2.53716 2.83564 0
M  V30 27854 H 2674.08 3.62962 1.37406 0
M  V30 27855 H 2672.18 1.94722 3.1767 0
M  V30 27856 H 2672.29 3.81144 2.90286 0
M  V30 27857 H 2670.65 1.96615 1.61909 0
M  V30 27858 H 2671.44 3.36119 0.698496 0
M  V30 27859 N 2673.88 -0.762259 1.3794 0
M  V30 27860 C 2675.11 -1.5492 1.36688 0
M  V30 27861 C 2675.52 -1.89141 -0.0473767 0
M  V30 27862 O 2674.86 -1.52639 -1.0221 0
M  V30 27863 C 2674.93 -2.88148 2.14968 0
M  V30 27864 C 2674.59 -2.76512 3.63855 0
M  V30 27865 C 2675.59 -2.46896 4.57535 0
M  V30 27866 C 2673.27 -2.94236 4.071 0
M  V30 27867 C 2675.27 -2.35145 5.9244 0
M  V30 27868 C 2672.95 -2.82106 5.42088 0
M  V30 27869 C 2673.95 -2.52602 6.34572 0
M  V30 27870 O 2673.64 -2.40516 7.67077 0
M  V30 27871 H 2673.37 -0.486268 0.469595 0
M  V30 27872 H 2675.92 -0.951844 1.82014 0
M  V30 27873 H 2674.15 -3.50039 1.64346 0
M  V30 27874 H 2675.84 -3.49605 2.06231 0
M  V30 27875 H 2676.61 -2.32879 4.25432 0
M  V30 27876 H 2672.49 -3.162 3.35468 0
M  V30 27877 H 2676.03 -2.12038 6.64594 0
M  V30 27878 H 2671.93 -2.95694 5.7379 0
M  V30 27879 H 2672.7 -2.55794 7.77504 0
M  V30 27880 N 2675.36 -1.22666 -0.989486 0
M  V30 27881 C 2676.61 -1.05328 -1.72952 0
M  V30 27882 C 2676.94 0.411134 -1.90105 0
M  V30 27883 O 2676.19 1.32101 -1.44388 0
M  V30 27884 C 2676.49 -1.71351 -3.13646 0
M  V30 27885 C 2676.16 -3.21253 -3.16397 0
M  V30 27886 C 2674.82 -3.62155 -3.16855 0
M  V30 27887 C 2677.17 -4.17184 -3.12421 0
M  V30 27888 C 2674.5 -4.97463 -3.11042 0
M  V30 27889 C 2676.85 -5.52474 -3.08149 0
M  V30 27890 C 2675.51 -5.92751 -3.06924 0
M  V30 27891 H 2674.78 -0.385423 -0.632875 0
M  V30 27892 H 2677.43 -1.52475 -1.1586 0
M  V30 27893 H 2675.74 -1.16538 -3.74067 0
M  V30 27894 H 2677.43 -1.55423 -3.69655 0
M  V30 27895 H 2674.02 -2.88687 -3.16793 0
M  V30 27896 H 2678.21 -3.866 -3.11214 0
M  V30 27897 H 2673.46 -5.27896 -3.08441 0
M  V30 27898 H 2677.64 -6.2653 -3.04028 0
M  V30 27899 H 2675.26 -6.97563 -3.02174 0
M  V30 27900 N 2676.84 1.18685 -1.0369 0
M  V30 27901 C 2678.06 1.93058 -0.757853 0
M  V30 27902 C 2678.49 1.75443 0.678323 0
M  V30 27903 O 2677.85 1.06205 1.46936 0
M  V30 27904 C 2677.9 3.42625 -1.12429 0
M  V30 27905 O 2677 4.11656 -0.247578 0
M  V30 27906 H 2676.34 0.602422 -0.279256 0
M  V30 27907 H 2678.87 1.50528 -1.38573 0
M  V30 27908 H 2678.88 3.9332 -1.0846 0
M  V30 27909 H 2677.56 3.54767 -2.17056 0
M  V30 27910 H 2676.13 3.71286 -0.346555 0
M  V30 27911 N 2678.32 0.815849 1.34839 0
M  V30 27912 C 2679.26 0.230705 2.29644 0
M  V30 27913 C 2680.23 -0.640506 1.53254 0
M  V30 27914 O 2681.42 -0.58364 1.81654 0
M  V30 27915 C 2678.56 -0.607215 3.39716 0
M  V30 27916 C 2677.67 0.285455 4.31056 0
M  V30 27917 C 2676.81 -0.561353 5.28226 0
M  V30 27918 C 2675.85 0.331143 6.11204 0
M  V30 27919 N 2674.98 -0.476179 7.00483 0
M  V30 27920 H 2679.82 1.04455 2.79094 0
M  V30 27921 H 2677.36 0.526619 1.3735 0
M  V30 27922 H 2679.32 -1.10828 4.0221 0
M  V30 27923 H 2677.95 -1.38624 2.91519 0
M  V30 27924 H 2677 0.904686 3.69486 0
M  V30 27925 H 2678.31 0.972016 4.89237 0
M  V30 27926 H 2677.47 -1.12718 5.96137 0
M  V30 27927 H 2676.21 -1.28145 4.70564 0
M  V30 27928 H 2675.21 0.909165 5.42231 0
M  V30 27929 H 2676.44 1.04924 6.70945 0
M  V30 27930 H 2674.38 -1.18008 6.45299 0
M  V30 27931 H 2674.3 0.152141 7.55847 0
M  V30 27932 H 2675.57 -1.02498 7.72732 0
M  V30 27933 N 2679.8 -1.46924 0.570174 0
M  V30 27934 C 2681.02 -2.06824 0.056233 0
M  V30 27935 C 2681.44 -1.42088 -1.24324 0
M  V30 27936 O 2680.8 -0.521825 -1.74881 0
M  V30 27937 C 2680.85 -3.61268 -0.129454 0
M  V30 27938 O 2680.57 -4.23579 1.11857 0
M  V30 27939 C 2682.07 -4.38066 -0.679189 0
M  V30 27940 H 2679.29 -0.669002 0.0517378 0
M  V30 27941 H 2681.83 -1.88738 0.787277 0
M  V30 27942 H 2679.99 -3.78823 -0.810672 0
M  V30 27943 H 2680.4 -5.16289 0.924466 0
M  V30 27944 H 2681.88 -5.46766 -0.758348 0
M  V30 27945 H 2682.35 -4.05242 -1.69339 0
M  V30 27946 H 2682.96 -4.25287 -0.0332489 0
M  V30 27947 N 2681.27 -0.307291 -1.54575 0
M  V30 27948 C 2682.52 0.300941 -1.99442 0
M  V30 27949 C 2682.84 1.54518 -1.19931 0
M  V30 27950 O 2684.04 2.2284 -1.55096 0
M  V30 27951 C 2682.5 0.586747 -3.55085 0
M  V30 27952 C 2682.11 -0.639516 -4.43412 0
M  V30 27953 C 2683.85 1.15583 -4.08462 0
M  V30 27954 C 2681.76 -0.326514 -5.90498 0
M  V30 27955 H 2680.69 0.116225 -0.744988 0
M  V30 27956 H 2683.34 -0.416978 -1.787 0
M  V30 27957 H 2681.72 1.36443 -3.71752 0
M  V30 27958 H 2682.89 -1.41553 -4.3852 0
M  V30 27959 H 2681.21 -1.12767 -4.0084 0
M  V30 27960 H 2683.81 1.40436 -5.15928 0
M  V30 27961 H 2684.15 2.10009 -3.59447 0
M  V30 27962 H 2684.68 0.439709 -3.95362 0
M  V30 27963 H 2681.42 -1.23951 -6.43674 0
M  V30 27964 H 2680.94 0.412107 -5.98383 0
M  V30 27965 H 2682.62 0.0696256 -6.46963 0
M  V30 27966 N 2682.75 1.57561 -0.0351337 0
M  V30 27967 C 2684.17 1.56332 0.321306 0
M  V30 27968 C 2684.37 1.04132 1.72507 0
M  V30 27969 O 2683.42 0.690736 2.42868 0
M  V30 27970 C 2684.74 3.0025 0.164416 0
M  V30 27971 C 2686.28 3.12103 0.236731 0
M  V30 27972 C 2686.76 4.57871 0.10856 0
M  V30 27973 N 2688.25 4.62905 0.165351 0
M  V30 27974 C 2688.99 5.73329 0.0900498 0
M  V30 27975 N 2688.48 6.9279 -0.0366823 0
M  V30 27976 N 2690.27 5.61914 0.144473 0
M  V30 27977 H 2682.43 1.8982 -0.95301 0
M  V30 27978 H 2684.69 0.873426 -0.368553 0
M  V30 27979 H 2684.39 3.42415 -0.802806 0
M  V30 27980 H 2684.27 3.65501 0.93213 0
M  V30 27981 H 2686.66 2.69848 1.19442 0
M  V30 27982 H 2686.74 2.49562 -0.561463 0
M  V30 27983 H 2686.38 5.00809 -0.845732 0
M  V30 27984 H 2686.31 5.184 0.925694 0
M  V30 27985 H 2688.8 3.76982 0.263203 0
M  V30 27986 H 2689.11 7.72751 -0.0872845 0
M  V30 27987 H 2687.46 6.94963 -0.0715477 0
M  V30 27988 H 2690.65 4.67474 0.241924 0
M  V30 27989 H 2690.82 6.47948 0.0823274 0
M  V30 27990 N 2684.23 -0.238084 1.55791 0
M  V30 27991 C 2685.51 -0.988231 1.688 0
M  V30 27992 C 2685.89 -2.03044 0.577597 0
M  V30 27993 O 2685.23 -2.24649 -0.41774 0
M  V30 27994 C 2685.44 -1.61362 3.09457 0
M  V30 27995 C 2686.79 -2.11214 3.68339 0
M  V30 27996 O 2687.82 -1.71287 3.12313 0
M  V30 27997 O 2686.68 -2.84552 4.66575 0
M  V30 27998 H 2683.77 -0.460556 0.686889 0
M  V30 27999 H 2686.32 -0.231172 1.68118 0
M  V30 28000 H 2685.09 -0.860228 3.81727 0
M  V30 28001 H 2684.71 -2.43665 3.14186 0
M  V30 28002 N 2685.71 -1.4932 -0.504115 0
M  V30 28003 C 2686.64 -1.6867 -1.6147 0
M  V30 28004 C 2687.62 -0.535407 -1.61454 0
M  V30 28005 O 2688.8 -0.770899 -1.78244 0
M  V30 28006 C 2685.93 -1.75033 -2.99968 0
M  V30 28007 C 2684.89 -2.89921 -3.14849 0
M  V30 28008 C 2684.21 -2.81395 -4.54666 0
M  V30 28009 C 2685.51 -4.30898 -2.95168 0
M  V30 28010 H 2687.21 -2.61651 -1.45531 0
M  V30 28011 H 2684.75 -1.25914 -0.698689 0
M  V30 28012 H 2686.71 -1.87157 -3.77558 0
M  V30 28013 H 2685.43 -0.786496 -3.16989 0
M  V30 28014 H 2684.09 -2.77395 -2.39682 0
M  V30 28015 H 2683.74 -1.82926 -4.68559 0
M  V30 28016 H 2683.44 -3.58503 -4.65564 0
M  V30 28017 H 2684.96 -2.95522 -5.34321 0
M  V30 28018 H 2686.38 -4.44122 -3.62531 0
M  V30 28019 H 2684.77 -5.09204 -3.1754 0
M  V30 28020 H 2685.84 -4.45559 -1.91324 0
M  V30 28021 N 2687.19 0.754933 -1.38342 0
M  V30 28022 C 2688.1 1.89941 -1.37693 0
M  V30 28023 C 2689.11 1.71826 -0.274225 0
M  V30 28024 O 2690.29 1.94772 -0.512426 0
M  V30 28025 C 2687.35 3.25291 -1.19944 0
M  V30 28026 C 2686.41 3.55942 -2.40007 0
M  V30 28027 C 2685.65 4.84834 -2.23095 0
M  V30 28028 O 2685.87 5.57114 -1.22396 0
M  V30 28029 O 2684.8 5.14932 -3.11655 0
M  V30 28030 H 2688.63 1.93442 -2.34124 0
M  V30 28031 H 2686.21 0.900023 -1.19247 0
M  V30 28032 H 2688.1 4.06216 -1.121 0
M  V30 28033 H 2686.77 3.22605 -0.265976 0
M  V30 28034 H 2685.68 2.75184 -2.53426 0
M  V30 28035 H 2687.01 3.63388 -3.31979 0
M  V30 28036 N 2688.66 1.23189 0.982967 0
M  V30 28037 C 2689.91 1.06401 1.72646 0
M  V30 28038 C 2690.24 -0.398528 1.90067 0
M  V30 28039 O 2689.52 -1.29515 1.45107 0
M  V30 28040 C 2689.8 1.78713 3.12624 0
M  V30 28041 C 2689.65 3.32624 3.02789 0
M  V30 28042 C 2690.97 1.54754 4.11994 0
M  V30 28043 H 2688.09 0.387929 0.626642 0
M  V30 28044 H 2690.73 1.5166 1.14452 0
M  V30 28045 H 2688.88 1.4024 3.62305 0
M  V30 28046 H 2690.56 3.80602 2.60652 0
M  V30 28047 H 2688.8 3.61789 2.39356 0
M  V30 28048 H 2689.47 3.78407 4.01886 0
M  V30 28049 H 2691.95 1.88192 3.7111 0
M  V30 28050 H 2690.82 2.0783 5.08033 0
M  V30 28051 H 2691.08 0.482326 4.39461 0
M  V30 28052 N 2690.14 -1.18133 1.04318 0
M  V30 28053 C 2691.39 -1.88455 0.749161 0
M  V30 28054 C 2691.72 -1.80301 -0.721459 0
M  V30 28055 O 2691 -1.20502 -1.52674 0
M  V30 28056 C 2691.28 -3.38836 1.21911 0
M  V30 28057 C 2691.13 -3.55787 2.75201 0
M  V30 28058 C 2692.45 -4.3256 0.811161 0
M  V30 28059 H 2689.57 -0.684324 0.273624 0
M  V30 28060 H 2692.21 -1.38973 1.29563 0
M  V30 28061 H 2690.36 -3.81109 0.754204 0
M  V30 28062 H 2692.03 -3.22589 3.29748 0
M  V30 28063 H 2690.28 -2.98358 3.14905 0
M  V30 28064 H 2690.95 -4.61312 3.03143 0
M  V30 28065 H 2693.42 -3.9808 1.21125 0
M  V30 28066 H 2692.3 -5.36336 1.1677 0
M  V30 28067 H 2692.56 -4.41177 -0.285518 0
M  V30 28068 N 2691.62 -0.822988 -1.34405 0
M  V30 28069 C 2692.53 -0.246879 -2.33297 0
M  V30 28070 C 2693.55 0.618768 -1.62626 0
M  V30 28071 O 2694.72 0.526651 -1.94392 0
M  V30 28072 C 2691.79 0.581671 -3.41786 0
M  V30 28073 C 2690.85 -0.306384 -4.28205 0
M  V30 28074 C 2690.08 0.482716 -5.31513 0
M  V30 28075 O 2690.3 1.71598 -5.43976 0
M  V30 28076 O 2689.24 -0.134989 -6.01749 0
M  V30 28077 H 2693.06 -1.06539 -2.844 0
M  V30 28078 H 2690.65 -0.585132 -1.37465 0
M  V30 28079 H 2692.53 1.05305 -4.0803 0
M  V30 28080 H 2691.21 1.37751 -2.92927 0
M  V30 28081 H 2690.11 -0.825263 -3.64884 0
M  V30 28082 H 2691.45 -1.06658 -4.80505 0
M  V30 28083 N 2693.1 1.4662 -0.577957 0
M  V30 28084 C 2694.35 2.02006 -0.0616015 0
M  V30 28085 C 2694.67 1.45242 1.30114 0
M  V30 28086 O 2693.94 0.635322 1.85312 0
M  V30 28087 H 2692.52 0.746738 -0.0197823 0
M  V30 28088 H 2695.18 1.7978 -0.752663 0
M  V30 28089 H 2694.28 3.12098 0.0109689 0
M  V30 28090 N 2694.58 0.315484 1.5441 0
M  V30 28091 C 2695.8 -0.29446 2.05299 0
M  V30 28092 C 2696.23 -1.45628 1.19055 0
M  V30 28093 O 2695.58 -1.80217 0.197835 0
M  V30 28094 C 2695.63 -0.714487 3.53451 0
M  V30 28095 O 2694.74 -1.81774 3.70178 0
M  V30 28096 H 2694.08 -0.0546902 0.661744 0
M  V30 28097 H 2696.61 0.461543 1.99326 0
M  V30 28098 H 2696.62 -0.999357 3.95572 0
M  V30 28099 H 2695.29 0.135317 4.1568 0
M  V30 28100 H 2693.87 -1.5323 3.39963 0
M  V30 28101 N 2696.05 -1.5754 0.0434891 0
M  V30 28102 C 2697.02 -2.09984 -0.918659 0
M  V30 28103 C 2698.02 -1.01783 -1.24486 0
M  V30 28104 O 2699.21 -1.27887 -1.18282 0
M  V30 28105 C 2696.34 -2.57768 -2.23088 0
M  V30 28106 H 2697.53 -2.96286 -0.464177 0
M  V30 28107 H 2695.09 -1.54953 -0.204791 0
M  V30 28108 H 2695.82 -1.74837 -2.73134 0
M  V30 28109 H 2695.61 -3.3683 -2.00718 0
M  V30 28110 H 2697.1 -2.98517 -2.92023 0
M  V30 28111 N 2697.53 0.229818 -1.55915 0
M  V30 28112 C 2698.5 1.26821 -1.90916 0
M  V30 28113 C 2699.5 1.40223 -0.787024 0
M  V30 28114 O 2700.69 1.3863 -1.05486 0
M  V30 28115 C 2697.82 2.64333 -2.15269 0
M  V30 28116 H 2699.01 0.969948 -2.83782 0
M  V30 28117 H 2696.56 0.469873 -1.4907 0
M  V30 28118 H 2697.3 2.99272 -1.24928 0
M  V30 28119 H 2697.08 2.55984 -2.9701 0
M  V30 28120 H 2698.57 3.3928 -2.43473 0
M  V30 28121 N 2699.01 1.49585 0.49619 0
M  V30 28122 C 2700.43 1.36454 0.82779 0
M  V30 28123 C 2700.63 0.40132 1.97463 0
M  V30 28124 O 2699.68 -0.165251 2.51959 0
M  V30 28125 C 2701 2.77279 1.16347 0
M  V30 28126 C 2702.54 2.86015 1.2714 0
M  V30 28127 C 2703.02 4.27618 1.64034 0
M  V30 28128 N 2704.51 4.30451 1.71074 0
M  V30 28129 C 2705.24 5.36988 2.01076 0
M  V30 28130 N 2704.74 6.53764 2.29269 0
M  V30 28131 N 2706.53 5.24408 2.02367 0
M  V30 28132 H 2698.68 2.10803 -0.259984 0
M  V30 28133 H 2700.95 0.946476 -0.053733 0
M  V30 28134 H 2700.65 3.49485 0.394092 0
M  V30 28135 H 2700.53 3.1295 2.10576 0
M  V30 28136 H 2702.91 2.14044 2.03149 0
M  V30 28137 H 2703 2.53921 0.309498 0
M  V30 28138 H 2702.64 5.00117 0.885742 0
M  V30 28139 H 2702.57 4.57179 2.61332 0
M  V30 28140 H 2705.06 3.46234 1.51427 0
M  V30 28141 H 2705.37 7.30778 2.51363 0
M  V30 28142 H 2703.72 6.56982 2.26715 0
M  V30 28143 H 2706.91 4.32183 1.79822 0
M  V30 28144 H 2707.08 6.0753 2.25414 0
M  V30 28145 N 2700.49 -0.747586 1.3874 0
M  V30 28146 C 2701.74 -1.50687 1.35277 0
M  V30 28147 C 2702.06 -1.94421 -0.0553017 0
M  V30 28148 O 2701.32 -1.66177 -1.03362 0
M  V30 28149 C 2701.62 -2.76876 2.25996 0
M  V30 28150 C 2701.28 -2.52073 3.73858 0
M  V30 28151 C 2699.95 -2.45018 4.14149 0
M  V30 28152 C 2702.3 -2.3056 4.67431 0
M  V30 28153 C 2699.63 -2.14473 5.46093 0
M  V30 28154 C 2701.98 -2.01535 5.99639 0
M  V30 28155 C 2700.64 -1.9294 6.39007 0
M  V30 28156 H 2699.91 -0.551401 0.495013 0
M  V30 28157 H 2702.56 -0.859128 1.71147 0
M  V30 28158 H 2700.86 -3.4633 1.83202 0
M  V30 28159 H 2702.56 -3.34857 2.20617 0
M  V30 28160 H 2699.15 -2.58438 3.41918 0
M  V30 28161 H 2703.33 -2.34986 4.37144 0
M  V30 28162 H 2698.59 -2.06332 5.75532 0
M  V30 28163 H 2702.76 -1.83894 6.71681 0
M  V30 28164 H 2700.39 -1.69037 7.41168 0
M  V30 28165 N 2701.97 -1.23709 -0.97642 0
M  V30 28166 C 2703.24 -0.979729 -1.69295 0
M  V30 28167 C 2703.62 0.500519 -2.05081 0
M  V30 28168 O 2702.97 1.4727 -1.7471 0
M  V30 28169 C 2703.18 -1.89394 -2.9314 0
M  V30 28170 C 2704.53 -2.15974 -3.65569 0
M  V30 28171 O 2705.55 -1.86976 -3.0318 0
M  V30 28172 O 2704.41 -2.65175 -4.77854 0
M  V30 28173 H 2701.51 -0.369825 -0.739702 0
M  V30 28174 H 2704.05 -1.34769 -1.03129 0
M  V30 28175 H 2702.82 -2.89443 -2.63322 0
M  V30 28176 H 2702.45 -1.5286 -3.67042 0
M  V30 28177 N 2703.44 1.17579 -1.04943 0
M  V30 28178 C 2704.68 1.89462 -0.767029 0
M  V30 28179 C 2705.05 1.79054 0.693091 0
M  V30 28180 O 2706.25 2.45731 1.08949 0
M  V30 28181 C 2704.52 3.35526 -1.23114 0
M  V30 28182 S 2706.08 4.2541 -1.07573 0
M  V30 28183 H 2702.9 0.654131 -0.278628 0
M  V30 28184 H 2705.5 1.42018 -1.34354 0
M  V30 28185 H 2704.2 3.40635 -2.28902 0
M  V30 28186 H 2703.73 3.88013 -0.648792 0
M  V30 28187 H 2705.75 4.962 0.00160745 0
M  V30 28188 N 2704.92 0.830104 1.33967 0
M  V30 28189 C 2705.87 0.255048 2.29386 0
M  V30 28190 C 2706.84 -0.624216 1.53925 0
M  V30 28191 O 2708.02 -0.56434 1.82263 0
M  V30 28192 C 2705.16 -0.57115 3.40341 0
M  V30 28193 C 2704.28 0.331159 4.30729 0
M  V30 28194 C 2703.41 -0.505296 5.28791 0
M  V30 28195 C 2702.45 0.39595 6.10818 0
M  V30 28196 N 2701.59 -0.401856 7.00949 0
M  V30 28197 H 2706.43 1.07409 2.7797 0
M  V30 28198 H 2703.97 0.541157 1.36784 0
M  V30 28199 H 2705.92 -1.06555 4.03363 0
M  V30 28200 H 2704.55 -1.35524 2.92973 0
M  V30 28201 H 2703.61 0.943824 3.68505 0
M  V30 28202 H 2704.92 1.02385 4.88179 0
M  V30 28203 H 2704.07 -1.06389 5.97299 0
M  V30 28204 H 2702.81 -1.23146 4.71896 0
M  V30 28205 H 2701.82 0.966624 5.41236 0
M  V30 28206 H 2703.04 1.12034 6.69795 0
M  V30 28207 H 2700.99 -1.11157 6.46514 0
M  V30 28208 H 2700.9 0.2323 7.55643 0
M  V30 28209 H 2702.17 -0.942966 7.73775 0
M  V30 28210 N 2706.4 -1.46311 0.585725 0
M  V30 28211 C 2707.65 -2.01578 0.0701547 0
M  V30 28212 C 2707.96 -1.46249 -1.29887 0
M  V30 28213 O 2709.17 -1.93354 -1.90595 0
M  V30 28214 C 2707.63 -3.59822 0.0748131 0
M  V30 28215 C 2707.23 -4.24147 1.44234 0
M  V30 28216 C 2708.98 -4.22735 -0.386655 0
M  V30 28217 C 2706.88 -5.74479 1.40456 0
M  V30 28218 H 2705.81 -0.753665 0.0224574 0
M  V30 28219 H 2708.47 -1.68013 0.737819 0
M  V30 28220 H 2706.85 -3.90477 -0.659075 0
M  V30 28221 H 2708.02 -4.05097 2.1962 0
M  V30 28222 H 2706.34 -3.7334 1.84408 0
M  V30 28223 H 2708.93 -5.32938 -0.43376 0
M  V30 28224 H 2709.28 -3.91881 -1.40482 0
M  V30 28225 H 2709.81 -3.96718 0.293265 0
M  V30 28226 H 2706.55 -6.09998 2.39963 0
M  V30 28227 H 2706.07 -5.95784 0.69295 0
M  V30 28228 H 2707.75 -6.37254 1.11876 0
M  V30 28229 N 2707.88 -0.323668 -1.54241 0
M  V30 28230 C 2708.79 0.551165 -2.28034 0
M  V30 28231 C 2709.81 1.12911 -1.3239 0
M  V30 28232 O 2710.98 1.14905 -1.65405 0
M  V30 28233 C 2708.05 1.696 -3.02385 0
M  V30 28234 C 2707.11 1.14986 -4.13614 0
M  V30 28235 C 2706.34 2.24013 -4.84411 0
M  V30 28236 O 2706.56 3.4436 -4.54722 0
M  V30 28237 O 2705.5 1.89426 -5.71315 0
M  V30 28238 H 2709.32 -0.0481193 -3.03662 0
M  V30 28239 H 2706.91 -0.0893551 -1.49133 0
M  V30 28240 H 2708.79 2.36252 -3.48945 0
M  V30 28241 H 2707.47 2.28147 -2.29632 0
M  V30 28242 H 2706.37 0.448419 -3.71403 0
M  V30 28243 H 2707.71 0.609522 -4.88411 0
M  V30 28244 N 2709.36 1.57515 -0.0518432 0
M  V30 28245 C 2710.61 1.92337 0.620561 0
M  V30 28246 C 2710.93 0.930937 1.71343 0
M  V30 28247 O 2710.2 -0.0240996 1.95885 0
M  V30 28248 H 2708.78 0.70999 0.232213 0
M  V30 28249 H 2711.44 1.94617 -0.105003 0
M  V30 28250 H 2710.53 2.93594 1.05874 0
M  V30 28251 N 2710.84 -0.221546 1.56035 0
M  V30 28252 C 2712.07 -0.961436 1.82866 0
M  V30 28253 C 2712.47 -1.78448 0.628735 0
M  V30 28254 O 2711.82 -1.79018 -0.412077 0
M  V30 28255 C 2711.88 -1.92798 3.03429 0
M  V30 28256 C 2711.54 -1.28946 4.38431 0
M  V30 28257 C 2712.54 -0.679341 5.15442 0
M  V30 28258 C 2710.22 -1.30123 4.85153 0
M  V30 28259 C 2712.22 -0.0895028 6.37337 0
M  V30 28260 C 2709.91 -0.707544 6.0699 0
M  V30 28261 C 2710.9 -0.102735 6.82923 0
M  V30 28262 O 2710.59 0.481711 8.02455 0
M  V30 28263 H 2710.32 -0.287349 0.611888 0
M  V30 28264 H 2712.88 -0.241896 2.03971 0
M  V30 28265 H 2711.11 -2.68651 2.78143 0
M  V30 28266 H 2712.8 -2.53342 3.17132 0
M  V30 28267 H 2713.56 -0.662577 4.80453 0
M  V30 28268 H 2709.44 -1.76137 4.26024 0
M  V30 28269 H 2712.99 0.383192 6.96547 0
M  V30 28270 H 2708.88 -0.721721 6.41453 0
M  V30 28271 H 2709.65 0.376031 8.17636 0
M  V30 28272 N 2712.31 -1.49846 -0.48825 0
M  V30 28273 C 2713.72 -1.5303 -1.06952 0
M  V30 28274 C 2714.08 -0.323831 -1.93509 0
M  V30 28275 O 2713.2 0.565079 -2.08892 0
M  V30 28276 C 2713.8 -2.77311 -1.94639 0
M  V30 28277 C 2712.35 -2.83231 -2.47905 0
M  V30 28278 C 2711.5 -2.47108 -1.25829 0
M  V30 28279 H 2714.45 -1.56359 -0.271598 0
M  V30 28280 H 2714.47 -2.58195 -2.79492 0
M  V30 28281 H 2713.99 -3.65102 -1.31614 0
M  V30 28282 H 2712.09 -1.99751 -3.14532 0
M  V30 28283 H 2712.2 -3.85714 -2.84186 0
M  V30 28284 H 2710.56 -1.99166 -1.58761 0
M  V30 28285 H 2711.35 -3.37188 -0.644934 0
M  V30 28286 N 2713.79 0.740218 -1.39135 0
M  V30 28287 C 2715.07 1.49115 -1.26587 0
M  V30 28288 C 2715.45 2.10718 0.126865 0
M  V30 28289 O 2714.8 1.98168 1.13762 0
M  V30 28290 C 2715.01 2.54676 -2.38623 0
M  V30 28291 C 2716.35 3.21206 -2.77691 0
M  V30 28292 O 2717.38 2.64987 -2.38034 0
M  V30 28293 O 2716.24 4.2292 -3.46122 0
M  V30 28294 H 2713.33 0.661915 -0.49578 0
M  V30 28295 H 2715.88 0.774488 -1.50996 0
M  V30 28296 H 2714.65 2.07498 -3.31753 0
M  V30 28297 H 2714.27 3.33908 -2.1585 0
M  V30 28298 N 2715.27 1.24225 0.969846 0
M  V30 28299 C 2716.68 1.07401 1.52715 0
M  V30 28300 C 2717.03 -0.355265 1.92957 0
M  V30 28301 O 2716.16 -1.24337 1.77114 0
M  V30 28302 C 2716.75 1.94344 2.77517 0
M  V30 28303 C 2715.31 1.8175 3.29612 0
M  V30 28304 C 2714.46 1.89408 2.02533 0
M  V30 28305 H 2717.41 1.37733 0.788374 0
M  V30 28306 H 2717.43 1.47445 3.50771 0
M  V30 28307 H 2716.94 2.98361 2.48198 0
M  V30 28308 H 2715.04 0.805569 3.63787 0
M  V30 28309 H 2715.16 2.65725 3.98656 0
M  V30 28310 H 2713.52 1.33112 2.17148 0
M  V30 28311 H 2714.3 2.95002 1.75581 0
M  V30 28312 N 2716.75 -1.1702 1.05565 0
M  V30 28313 C 2717.66 -2.24805 0.670797 0
M  V30 28314 C 2718.67 -1.71219 -0.309835 0
M  V30 28315 O 2719.85 -2.00756 -0.16099 0
M  V30 28316 C 2716.91 -3.46656 0.0553979 0
M  V30 28317 C 2715.98 -4.15312 1.08696 0
M  V30 28318 C 2715.21 -5.31345 0.50083 0
M  V30 28319 O 2715.43 -5.66228 -0.688618 0
M  V30 28320 O 2714.37 -5.89053 1.23693 0
M  V30 28321 H 2718.19 -2.6002 1.56918 0
M  V30 28322 H 2715.78 -1.24393 0.82745 0
M  V30 28323 H 2717.66 -4.20426 -0.286418 0
M  V30 28324 H 2716.33 -3.13231 -0.816583 0
M  V30 28325 H 2715.24 -3.43544 1.48083 0
M  V30 28326 H 2716.57 -4.52773 1.93022 0
M  V30 28327 N 2718.23 -0.837197 -1.33524 0
M  V30 28328 C 2719.47 -0.432739 -1.98129 0
M  V30 28329 C 2719.8 1.00505 -1.6617 0
M  V30 28330 O 2719.08 1.70237 -0.940719 0
M  V30 28331 C 2719.36 -0.651896 -3.5415 0
M  V30 28332 C 2719.22 -2.13683 -3.95802 0
M  V30 28333 C 2720.53 -0.096971 -4.39993 0
M  V30 28334 H 2717.65 -0.158702 -0.71971 0
M  V30 28335 H 2720.3 -1.0524 -1.58191 0
M  V30 28336 H 2718.45 -0.124437 -3.88301 0
M  V30 28337 H 2720.12 -2.72903 -3.71916 0
M  V30 28338 H 2718.36 -2.62197 -3.45594 0
M  V30 28339 H 2719.03 -2.24093 -5.04466 0
M  V30 28340 H 2721.51 -0.547805 -4.12478 0
M  V30 28341 H 2720.38 -0.280013 -5.48185 0
M  V30 28342 H 2720.64 0.999124 -4.30662 0
M  V30 28343 N 2719.7 1.45999 -0.593476 0
M  V30 28344 C 2720.95 2.02629 -0.0833111 0
M  V30 28345 C 2721.28 1.46268 1.27747 0
M  V30 28346 O 2720.56 0.631898 1.83949 0
M  V30 28347 C 2720.84 3.60088 -0.0291389 0
M  V30 28348 C 2720.69 4.26811 -1.41958 0
M  V30 28349 C 2722.01 4.35032 0.665979 0
M  V30 28350 H 2719.13 0.736316 -0.031749 0
M  V30 28351 H 2721.77 1.74018 -0.762742 0
M  V30 28352 H 2719.92 3.84595 0.549464 0
M  V30 28353 H 2721.6 4.13535 -2.04418 0
M  V30 28354 H 2719.84 3.85757 -1.98429 0
M  V30 28355 H 2720.51 5.35637 -1.33405 0
M  V30 28356 H 2722.99 4.15735 0.174328 0
M  V30 28357 H 2721.86 5.44759 0.672945 0
M  V30 28358 H 2722.12 4.06872 1.72938 0
M  V30 28359 N 2721.18 0.331843 1.54067 0
M  V30 28360 C 2722.43 -0.26136 2.01714 0
M  V30 28361 C 2722.78 -1.49127 1.21569 0
M  V30 28362 O 2722.08 -1.89363 0.291901 0
M  V30 28363 C 2722.27 -0.63933 3.51635 0
M  V30 28364 C 2722.1 0.552399 4.46294 0
M  V30 28365 C 2720.87 1.05408 4.94183 0
M  V30 28366 C 2723.07 1.4072 4.94674 0
M  V30 28367 N 2721.05 2.20935 5.72766 0
M  V30 28368 C 2722.42 2.40953 5.71263 0
M  V30 28369 C 2724.48 1.434 4.76803 0
M  V30 28370 C 2723.18 3.43681 6.31883 0
M  V30 28371 C 2725.2 2.45003 5.38263 0
M  V30 28372 C 2724.57 3.43963 6.1471 0
M  V30 28373 H 2720.67 -0.0592592 0.779751 0
M  V30 28374 H 2723.25 0.468759 1.88973 0
M  V30 28375 H 2721.42 -1.33857 3.64605 0
M  V30 28376 H 2723.15 -1.21471 3.8604 0
M  V30 28377 H 2719.91 0.624034 4.69471 0
M  V30 28378 H 2720.33 2.79233 6.16732 0
M  V30 28379 H 2724.97 0.682563 4.17254 0
M  V30 28380 H 2722.69 4.19727 6.90547 0
M  V30 28381 H 2726.28 2.4789 5.26348 0
M  V30 28382 H 2725.16 4.21295 6.61423 0
M  V30 28383 N 2722.66 -1.57485 0.0601958 0
M  V30 28384 C 2723.91 -1.93045 -0.611561 0
M  V30 28385 C 2724.24 -0.939304 -1.70315 0
M  V30 28386 O 2723.49 0.0469616 -1.95644 0
M  V30 28387 C 2723.79 -3.35264 -1.23825 0
M  V30 28388 C 2723.46 -4.50067 -0.273958 0
M  V30 28389 C 2722.12 -4.81199 -0.00863935 0
M  V30 28390 C 2724.47 -5.19766 0.3864 0
M  V30 28391 C 2721.8 -5.79373 0.924319 0
M  V30 28392 C 2724.15 -6.18938 1.30761 0
M  V30 28393 C 2722.81 -6.48494 1.58151 0
M  V30 28394 H 2722.08 -0.7064 -0.223786 0
M  V30 28395 H 2724.73 -1.91068 0.1286 0
M  V30 28396 H 2723.04 -3.33651 -2.05388 0
M  V30 28397 H 2724.73 -3.60062 -1.76511 0
M  V30 28398 H 2721.32 -4.25779 -0.490933 0
M  V30 28399 H 2725.51 -4.95919 0.194523 0
M  V30 28400 H 2720.76 -6.00604 1.1439 0
M  V30 28401 H 2724.94 -6.72053 1.82531 0
M  V30 28402 H 2722.56 -7.24379 2.30605 0
M  V30 28403 N 2724.14 0.213268 -1.5615 0
M  V30 28404 C 2725.09 1.26434 -1.93089 0
M  V30 28405 C 2726.06 1.46158 -0.789111 0
M  V30 28406 O 2727.24 1.59591 -1.04572 0
M  V30 28407 C 2724.38 2.60796 -2.26008 0
M  V30 28408 C 2723.49 2.48801 -3.5316 0
M  V30 28409 C 2722.63 3.75743 -3.75487 0
M  V30 28410 C 2721.67 3.58505 -4.96126 0
M  V30 28411 N 2720.8 4.77416 -5.14799 0
M  V30 28412 H 2725.64 0.942326 -2.82709 0
M  V30 28413 H 2723.18 0.453976 -1.3992 0
M  V30 28414 H 2725.14 3.39051 -2.43106 0
M  V30 28415 H 2723.77 2.91076 -1.39551 0
M  V30 28416 H 2722.82 1.61938 -3.4421 0
M  V30 28417 H 2724.13 2.31988 -4.41569 0
M  V30 28418 H 2723.29 4.6244 -3.92726 0
M  V30 28419 H 2722.03 3.9549 -2.85375 0
M  V30 28420 H 2721.03 2.70192 -4.78828 0
M  V30 28421 H 2722.26 3.4022 -5.8773 0
M  V30 28422 H 2720.2 4.97461 -4.27631 0
M  V30 28423 H 2720.12 4.6336 -5.97355 0
M  V30 28424 H 2721.39 5.65516 -5.36481 0
M  V30 28425 N 2725.62 1.50103 0.480296 0
M  V30 28426 C 2726.89 1.51144 1.24157 0
M  V30 28427 C 2727.27 0.250855 2.09604 0
M  V30 28428 O 2726.62 -0.76608 2.15275 0
M  V30 28429 C 2726.83 2.80206 2.08052 0
M  V30 28430 C 2728.18 3.30509 2.6655 0
M  V30 28431 O 2729.2 2.81465 2.18303 0
M  V30 28432 O 2728.06 4.15979 3.54435 0
M  V30 28433 H 2725.16 0.605849 0.562918 0
M  V30 28434 H 2727.7 1.62385 0.49287 0
M  V30 28435 H 2726.47 3.63433 1.45026 0
M  V30 28436 H 2726.1 2.71924 2.90074 0
M  V30 28437 N 2727.09 -0.732829 1.39526 0
M  V30 28438 C 2728.37 -1.48441 1.27376 0
M  V30 28439 C 2728.75 -2.10783 -0.115688 0
M  V30 28440 O 2728.1 -1.98768 -1.12709 0
M  V30 28441 C 2728.31 -2.53407 2.3997 0
M  V30 28442 C 2729.66 -3.19729 2.7939 0
M  V30 28443 O 2730.68 -2.63721 2.39436 0
M  V30 28444 O 2729.54 -4.21079 3.4836 0
M  V30 28445 H 2726.63 -0.659276 0.499283 0
M  V30 28446 H 2729.18 -0.766469 1.51405 0
M  V30 28447 H 2727.95 -2.05736 3.32849 0
M  V30 28448 H 2727.58 -3.32758 2.17618 0
M  V30 28449 N 2728.57 -1.24737 -0.963244 0
M  V30 28450 C 2729.5 -1.00153 -2.0616 0
M  V30 28451 C 2730.52 0.0305619 -1.62771 0
M  V30 28452 O 2731.71 -0.206997 -1.77296 0
M  V30 28453 C 2728.81 -0.490444 -3.35332 0
M  V30 28454 C 2727.98 -1.58671 -4.07606 0
M  V30 28455 C 2727.04 -1.07749 -5.1505 0
M  V30 28456 O 2726.06 -1.77011 -5.40977 0
M  V30 28457 N 2727.27 0.0857585 -5.80437 0
M  V30 28458 H 2730.03 -1.94723 -2.27822 0
M  V30 28459 H 2727.59 -1.15827 -1.13119 0
M  V30 28460 H 2729.58 -0.134442 -4.04477 0
M  V30 28461 H 2728.15 0.361101 -3.10507 0
M  V30 28462 H 2727.37 -2.11469 -3.32678 0
M  V30 28463 H 2728.66 -2.32344 -4.52652 0
M  V30 28464 H 2728.06 0.664707 -5.61781 0
M  V30 28465 H 2726.62 0.382867 -6.50675 0
M  V30 28466 N 2730.05 1.16459 -1.06184 0
M  V30 28467 C 2731.28 1.91407 -0.798633 0
M  V30 28468 C 2731.7 1.76843 0.640956 0
M  V30 28469 O 2731.06 1.09298 1.4465 0
M  V30 28470 C 2731.11 3.40163 -1.19671 0
M  V30 28471 O 2730.21 4.11038 -0.33484 0
M  V30 28472 H 2729.55 0.596363 -0.291972 0
M  V30 28473 H 2732.08 1.47555 -1.41735 0
M  V30 28474 H 2732.09 3.90931 -1.16779 0
M  V30 28475 H 2730.77 3.50083 -2.24532 0
M  V30 28476 H 2729.34 3.70468 -0.425233 0
M  V30 28477 N 2731.53 0.844266 1.33079 0
M  V30 28478 C 2732.78 0.438868 1.96868 0
M  V30 28479 C 2733.09 -1.00844 1.67601 0
M  V30 28480 O 2734.3 -1.51877 2.25046 0
M  V30 28481 C 2732.75 0.733832 3.52339 0
M  V30 28482 C 2732.36 2.19617 3.90477 0
M  V30 28483 C 2734.1 0.395649 4.22652 0
M  V30 28484 C 2732.01 2.4349 5.38949 0
M  V30 28485 H 2730.94 0.160377 0.736746 0
M  V30 28486 H 2733.59 1.0336 1.51621 0
M  V30 28487 H 2731.97 0.0686586 3.9594 0
M  V30 28488 H 2733.15 2.90227 3.57917 0
M  V30 28489 H 2731.46 2.49786 3.33161 0
M  V30 28490 H 2734.06 0.55157 5.31848 0
M  V30 28491 H 2734.4 -0.661849 4.11005 0
M  V30 28492 H 2734.94 1.01628 3.84599 0
M  V30 28493 H 2731.68 3.47825 5.55606 0
M  V30 28494 H 2731.2 1.77447 5.72951 0
M  V30 28495 H 2732.87 2.26915 6.05903 0
M  V30 28496 N 2733.01 -1.45682 0.60121 0
M  V30 28497 C 2734.42 -1.57396 0.264343 0
M  V30 28498 C 2734.62 -1.59356 -1.23321 0
M  V30 28499 O 2733.68 -1.52043 -2.01592 0
M  V30 28500 C 2734.99 -2.85961 0.929889 0
M  V30 28501 C 2736.54 -2.99625 0.905209 0
M  V30 28502 C 2737.01 -4.30951 1.55064 0
M  V30 28503 N 2738.51 -4.37695 1.51584 0
M  V30 28504 C 2739.24 -5.37966 1.98445 0
M  V30 28505 N 2738.74 -6.44809 2.53364 0
M  V30 28506 N 2740.53 -5.29283 1.89251 0
M  V30 28507 H 2732.68 -1.42653 1.57365 0
M  V30 28508 H 2734.94 -0.681637 0.658843 0
M  V30 28509 H 2734.65 -2.90391 1.98409 0
M  V30 28510 H 2734.52 -3.74515 0.44929 0
M  V30 28511 H 2736.91 -2.94766 -0.140429 0
M  V30 28512 H 2736.99 -2.12498 1.42401 0
M  V30 28513 H 2736.64 -4.36569 2.59558 0
M  V30 28514 H 2736.57 -5.16884 1.00691 0
M  V30 28515 H 2739.06 -3.61089 1.11459 0
M  V30 28516 H 2739.37 -7.17559 2.86931 0
M  V30 28517 H 2737.71 -6.45578 2.57399 0
M  V30 28518 H 2740.91 -4.44719 1.46091 0
M  V30 28519 H 2741.08 -6.0728 2.26086 0
M  V30 28520 N 2734.48 -0.340009 -1.53889 0
M  V30 28521 C 2735.39 0.526948 -2.28605 0
M  V30 28522 C 2736.41 1.115 -1.3358 0
M  V30 28523 O 2737.59 1.13145 -1.66614 0
M  V30 28524 C 2734.65 1.66384 -3.04167 0
M  V30 28525 C 2733.71 1.10592 -4.14811 0
M  V30 28526 C 2732.95 2.18863 -4.86759 0
M  V30 28527 O 2733.17 3.39518 -4.58349 0
M  V30 28528 O 2732.1 1.83356 -5.73292 0
M  V30 28529 H 2735.93 -0.080324 -3.03594 0
M  V30 28530 H 2733.51 -0.105168 -1.49029 0
M  V30 28531 H 2735.4 2.32538 -3.51431 0
M  V30 28532 H 2734.07 2.25699 -2.32038 0
M  V30 28533 H 2732.98 0.409001 -3.71857 0
M  V30 28534 H 2734.31 0.557685 -4.8903 0
M  V30 28535 N 2735.96 1.57451 -0.0685468 0
M  V30 28536 C 2737.19 1.98107 0.613884 0
M  V30 28537 C 2737.61 0.94653 1.6255 0
M  V30 28538 O 2736.97 -0.0882506 1.81085 0
M  V30 28539 C 2737.02 3.37802 1.26183 0
M  V30 28540 O 2736.12 3.36958 2.37767 0
M  V30 28541 H 2735.46 0.644891 0.158152 0
M  V30 28542 H 2737.99 2.04106 -0.142099 0
M  V30 28543 H 2738 3.74915 1.60944 0
M  V30 28544 H 2736.68 4.12629 0.520553 0
M  V30 28545 H 2735.26 3.11612 2.04823 0
M  V30 28546 N 2737.44 -0.204984 1.56261 0
M  V30 28547 C 2738.86 -0.555406 1.49624 0
M  V30 28548 C 2739.06 -1.86342 0.766752 0
M  V30 28549 O 2738.11 -2.5055 0.313202 0
M  V30 28550 C 2739.43 -0.619296 2.94254 0
M  V30 28551 C 2740.97 -0.708802 3.04869 0
M  V30 28552 C 2741.45 -0.80389 4.5089 0
M  V30 28553 N 2742.94 -0.867678 4.55001 0
M  V30 28554 C 2743.68 -0.96125 5.65285 0
M  V30 28555 N 2743.17 -1.01774 6.85284 0
M  V30 28556 N 2744.96 -0.997674 5.53175 0
M  V30 28557 H 2737.12 0.653129 2.02109 0
M  V30 28558 H 2739.38 0.231382 0.919329 0
M  V30 28559 H 2739.08 0.27252 3.50643 0
M  V30 28560 H 2738.96 -1.47734 3.47065 0
M  V30 28561 H 2741.35 -1.59105 2.48535 0
M  V30 28562 H 2741.43 0.17525 2.55199 0
M  V30 28563 H 2741.07 0.073969 5.07846 0
M  V30 28564 H 2741 -1.7036 4.98282 0
M  V30 28565 H 2743.49 -0.83367 3.6859 0
M  V30 28566 H 2743.8 -1.08938 7.65083 0
M  V30 28567 H 2742.15 -0.986585 6.87962 0
M  V30 28568 H 2745.34 -0.950312 4.58352 0
M  V30 28569 H 2745.51 -1.06714 6.39153 0
M  V30 28570 N 2738.92 -1.50356 -0.472329 0
M  V30 28571 C 2739.87 -1.65517 -1.56806 0
M  V30 28572 C 2740.85 -0.509827 -1.52609 0
M  V30 28573 O 2742.05 -0.764173 -1.59654 0
M  V30 28574 C 2739.17 -1.75152 -2.95257 0
M  V30 28575 C 2738.26 -2.95358 -3.04343 0
M  V30 28576 N 2738.65 -4.19053 -2.83245 0
M  V30 28577 C 2736.95 -2.9389 -3.35477 0
M  V30 28578 C 2737.65 -5.00009 -2.97265 0
M  V30 28579 N 2736.63 -4.33939 -3.2741 0
M  V30 28580 H 2740.43 -2.58849 -1.39193 0
M  V30 28581 H 2737.94 -1.47523 -0.679034 0
M  V30 28582 H 2739.94 -1.84116 -3.74041 0
M  V30 28583 H 2738.6 -0.829772 -3.13919 0
M  V30 28584 H 2739.61 -4.48571 -2.58852 0
M  V30 28585 H 2736.29 -2.1121 -3.60134 0
M  V30 28586 H 2737.68 -6.08366 -2.85203 0
M  V30 28587 N 2740.4 0.725419 -1.39912 0
M  V30 28588 C 2741.64 1.48515 -1.37657 0
M  V30 28589 C 2741.97 1.94485 0.024364 0
M  V30 28590 O 2741.23 1.67801 1.00705 0
M  V30 28591 C 2741.53 2.73246 -2.30373 0
M  V30 28592 C 2741.19 2.46093 -3.77821 0
M  V30 28593 C 2739.85 2.38398 -4.17995 0
M  V30 28594 C 2742.21 2.23095 -4.7104 0
M  V30 28595 C 2739.53 2.05758 -5.49436 0
M  V30 28596 C 2741.89 1.9197 -6.02769 0
M  V30 28597 C 2740.55 1.8275 -6.41996 0
M  V30 28598 H 2739.82 0.543456 -0.503723 0
M  V30 28599 H 2742.47 0.831792 -1.72492 0
M  V30 28600 H 2740.77 3.43371 -1.88689 0
M  V30 28601 H 2742.47 3.31305 -2.25916 0
M  V30 28602 H 2739.06 2.52965 -3.45986 0
M  V30 28603 H 2743.24 2.28002 -4.40827 0
M  V30 28604 H 2738.5 1.9715 -5.78742 0
M  V30 28605 H 2742.67 1.73185 -6.74522 0
M  V30 28606 H 2740.3 1.57224 -7.43764 0
M  V30 28607 N 2741.88 1.25246 0.956615 0
M  V30 28608 C 2742.81 1.01245 2.05626 0
M  V30 28609 C 2743.82 -0.0219293 1.62785 0
M  V30 28610 O 2745.01 0.216397 1.77183 0
M  V30 28611 C 2742.11 0.50822 3.35068 0
M  V30 28612 C 2741.28 1.6083 4.06759 0
M  V30 28613 C 2740.34 1.10479 5.14471 0
M  V30 28614 O 2739.37 1.79877 5.4003 0
M  V30 28615 N 2740.57 -0.0549753 5.80474 0
M  V30 28616 H 2743.33 1.95929 2.26786 0
M  V30 28617 H 2740.9 1.16425 1.12503 0
M  V30 28618 H 2742.89 0.15589 4.044 0
M  V30 28619 H 2741.46 -0.344629 3.10694 0
M  V30 28620 H 2740.68 2.1323 3.31552 0
M  V30 28621 H 2741.97 2.34741 4.51414 0
M  V30 28622 H 2741.36 -0.634905 5.62126 0
M  V30 28623 H 2739.92 -0.348355 6.50868 0
M  V30 28624 N 2743.35 -1.15894 1.068 0
M  V30 28625 C 2744.6 -1.85889 0.782829 0
M  V30 28626 C 2744.92 -1.82895 -0.693466 0
M  V30 28627 O 2746.12 -2.48518 -1.0932 0
M  V30 28628 C 2744.58 -3.33611 1.35026 0
M  V30 28629 C 2744.19 -3.45066 2.85716 0
M  V30 28630 C 2745.93 -4.08827 1.14285 0
M  V30 28631 C 2743.84 -4.86903 3.35678 0
M  V30 28632 H 2742.77 -0.696349 0.289161 0
M  V30 28633 H 2745.42 -1.30764 1.28736 0
M  V30 28634 H 2743.8 -3.88373 0.773475 0
M  V30 28635 H 2744.97 -3.00439 3.4939 0
M  V30 28636 H 2743.29 -2.83289 3.05183 0
M  V30 28637 H 2745.89 -5.13493 1.49096 0
M  V30 28638 H 2746.23 -4.1622 0.0815307 0
M  V30 28639 H 2746.76 -3.60318 1.68569 0
M  V30 28640 H 2743.5 -4.84691 4.41311 0
M  V30 28641 H 2743.02 -5.32134 2.76755 0
M  V30 28642 H 2744.7 -5.55739 3.31305 0
M  V30 28643 N 2744.83 -0.851312 -1.32629 0
M  V30 28644 C 2746.11 -0.374482 -1.91982 0
M  V30 28645 C 2746.49 1.14158 -1.7757 0
M  V30 28646 O 2745.84 1.9617 -1.17174 0
M  V30 28647 C 2746.05 -0.835148 -3.3886 0
M  V30 28648 C 2747.39 -0.850383 -4.15997 0
M  V30 28649 O 2748.42 -0.779566 -3.47565 0
M  V30 28650 O 2747.28 -0.949575 -5.38187 0
M  V30 28651 H 2744.37 -0.108554 -0.819845 0
M  V30 28652 H 2746.92 -0.937991 -1.41421 0
M  V30 28653 H 2745.69 -1.8782 -3.43278 0
M  V30 28654 H 2745.31 -0.248902 -3.9682 0
M  V30 28655 N 2746.31 1.45361 -0.608928 0
M  V30 28656 C 2747.54 2.06302 -0.110888 0
M  V30 28657 C 2747.95 1.454 1.21059 0
M  V30 28658 O 2747.29 0.563007 1.7486 0
M  V30 28659 C 2747.35 3.59356 0.10173 0
M  V30 28660 C 2747.02 4.426 -1.13816 0
M  V30 28661 C 2748.01 4.77493 -2.05662 0
M  V30 28662 C 2745.7 4.83331 -1.36736 0
M  V30 28663 C 2747.69 5.51973 -3.18755 0
M  V30 28664 C 2745.38 5.57565 -2.5013 0
M  V30 28665 C 2746.38 5.91803 -3.40967 0
M  V30 28666 O 2746.07 6.6453 -4.52388 0
M  V30 28667 H 2745.8 0.67271 -0.0666119 0
M  V30 28668 H 2748.35 1.87574 -0.836974 0
M  V30 28669 H 2746.58 3.7649 0.882724 0
M  V30 28670 H 2748.27 4.02135 0.551536 0
M  V30 28671 H 2749.04 4.46583 -1.8918 0
M  V30 28672 H 2744.92 4.56116 -0.669296 0
M  V30 28673 H 2748.46 5.78615 -3.8968 0
M  V30 28674 H 2744.36 5.87889 -2.66564 0
M  V30 28675 H 2745.12 6.82981 -4.51087 0
M  V30 28676 N 2747.79 0.348166 1.53706 0
M  V30 28677 C 2749.06 -0.302441 1.93248 0
M  V30 28678 C 2749.44 -1.67855 1.28015 0
M  V30 28679 O 2748.79 -2.24364 0.432779 0
M  V30 28680 C 2749 -0.370098 3.47032 0
M  V30 28681 C 2750.35 -0.618746 4.20067 0
M  V30 28682 O 2751.37 -0.452025 3.5332 0
M  V30 28683 O 2750.23 -0.942056 5.38319 0
M  V30 28684 H 2747.33 -0.177444 0.807739 0
M  V30 28685 H 2749.87 0.399679 1.64926 0
M  V30 28686 H 2748.65 0.595408 3.86744 0
M  V30 28687 H 2748.27 -1.11882 3.81534 0
M  V30 28688 N 2749.27 -1.57412 0.0768958 0
M  V30 28689 C 2750.18 -2.16518 -0.903169 0
M  V30 28690 C 2751.19 -1.12971 -1.32339 0
M  V30 28691 O 2752.37 -1.4526 -1.39504 0
M  V30 28692 C 2749.43 -2.71926 -2.15075 0
M  V30 28693 C 2748.49 -3.90364 -1.78646 0
M  V30 28694 C 2747.73 -4.4312 -2.97457 0
M  V30 28695 O 2747.95 -3.94862 -4.11632 0
M  V30 28696 O 2746.88 -5.34385 -2.76977 0
M  V30 28697 H 2750.71 -3.00635 -0.430374 0
M  V30 28698 H 2748.29 -1.4868 -0.146459 0
M  V30 28699 H 2750.18 -3.07416 -2.88224 0
M  V30 28700 H 2748.85 -1.90865 -2.61443 0
M  V30 28701 H 2747.76 -3.59717 -1.02733 0
M  V30 28702 H 2749.09 -4.72733 -1.37057 0
M  V30 28703 N 2750.74 0.196695 -1.56368 0
M  V30 28704 C 2752.02 0.943129 -1.71361 0
M  V30 28705 C 2752.4 2.01442 -0.631228 0
M  V30 28706 O 2751.75 2.25678 0.358032 0
M  V30 28707 C 2751.96 1.531 -3.13626 0
M  V30 28708 C 2753.31 2.01374 -3.7381 0
M  V30 28709 O 2754.33 1.62946 -3.16744 0
M  V30 28710 O 2753.19 2.72082 -4.73955 0
M  V30 28711 H 2750.28 0.442183 -0.698859 0
M  V30 28712 H 2752.83 0.186517 -1.68672 0
M  V30 28713 H 2751.6 0.758717 -3.83874 0
M  V30 28714 H 2751.23 2.35249 -3.20536 0
M  V30 28715 N 2752.22 1.50604 0.464349 0
M  V30 28716 C 2753.47 1.6161 1.21353 0
M  V30 28717 C 2753.79 0.321677 1.92328 0
M  V30 28718 O 2753.06 -0.661199 1.84404 0
M  V30 28719 H 2751.64 0.595543 0.450929 0
M  V30 28720 H 2754.3 1.87413 0.535013 0
M  V30 28721 H 2753.4 2.43058 1.95779 0
M  V30 28722 N 2753.7 -0.717989 1.40295 0
M  V30 28723 C 2754.65 -1.85341 1.4054 0
M  V30 28724 C 2755.64 -1.66964 0.286222 0
M  V30 28725 O 2756.85 -1.74098 0.457135 0
M  V30 28726 H 2753.22 -0.610382 0.439247 0
M  V30 28727 H 2755.19 -1.82251 2.36278 0
M  V30 28728 C 2753.94 -3.23183 1.28251 0
M  V30 28729 H 2753.27 -3.37928 2.13646 0
M  V30 28730 H 2754.71 -4.02771 1.32481 0
M  V30 28731 C 2753.17 -3.36899 -0.00749108 0
M  V30 28732 O 2753.7 -3.8978 -0.971323 0
M  V30 28733 N 2751.9 -2.905 -0.0761969 0
M  V30 28734 H 2751.45 -2.47655 0.708863 0
M  V30 28735 H 2751.41 -3.00057 -0.938793 0
M  V30 28736 N 2755.18 -1.25752 -0.94996 0
M  V30 28737 C 2756.42 -1.11988 -1.70992 0
M  V30 28738 C 2756.78 0.332713 -1.89095 0
M  V30 28739 O 2757.98 0.592285 -2.62193 0
M  V30 28740 C 2756.25 -1.85842 -3.05282 0
M  V30 28741 S 2757.81 -1.88026 -3.96474 0
M  V30 28742 H 2754.63 -0.400188 -0.587682 0
M  V30 28743 H 2757.23 -1.59344 -1.13268 0
M  V30 28744 H 2755.94 -2.90613 -2.8978 0
M  V30 28745 H 2755.47 -1.38891 -3.68066 0
M  V30 28746 H 2757.48 -0.960656 -4.86812 0
M  V30 28747 N 2756.66 1.15326 -1.07413 0
M  V30 28748 C 2757.88 1.90549 -0.818889 0
M  V30 28749 C 2758.31 1.77513 0.622163 0
M  V30 28750 O 2757.66 1.10826 1.43482 0
M  V30 28751 C 2757.71 3.38875 -1.23273 0
M  V30 28752 O 2756.82 4.1066 -0.378418 0
M  V30 28753 H 2756.16 0.593233 -0.29828 0
M  V30 28754 H 2758.69 1.46043 -1.43292 0
M  V30 28755 H 2758.7 3.8967 -1.20919 0
M  V30 28756 H 2757.37 3.47682 -2.28232 0
M  V30 28757 H 2755.95 3.69996 -0.464502 0
M  V30 28758 N 2758.13 0.858334 1.32176 0
M  V30 28759 C 2759.06 0.321082 2.31282 0
M  V30 28760 C 2760.05 -0.581758 1.59842 0
M  V30 28761 O 2761.23 -0.501229 1.8762 0
M  V30 28762 C 2758.36 -0.48826 3.43851 0
M  V30 28763 C 2757.31 0.320466 4.26799 0
M  V30 28764 C 2756.64 -0.61384 5.31165 0
M  V30 28765 C 2757.94 1.54822 4.98826 0
M  V30 28766 H 2759.63 1.1492 2.76467 0
M  V30 28767 H 2757.18 0.554051 1.32915 0
M  V30 28768 H 2759.13 -0.874553 4.12225 0
M  V30 28769 H 2757.86 -1.34978 2.97403 0
M  V30 28770 H 2756.52 0.68856 3.60076 0
M  V30 28771 H 2756.16 -1.47231 4.8097 0
M  V30 28772 H 2755.86 -0.0767064 5.8755 0
M  V30 28773 H 2757.39 -0.99723 6.02402 0
M  V30 28774 H 2758.8 1.23401 5.59862 0
M  V30 28775 H 2757.2 2.02356 5.64953 0
M  V30 28776 H 2758.27 2.30746 4.26479 0
M  V30 28777 N 2759.61 -1.45036 0.616628 0
M  V30 28778 C 2760.86 -2.01384 0.112897 0
M  V30 28779 C 2761.17 -1.48971 -1.26755 0
M  V30 28780 O 2762.38 -1.97354 -1.86451 0
M  V30 28781 C 2760.84 -3.59583 0.15112 0
M  V30 28782 C 2760.44 -4.20992 1.53198 0
M  V30 28783 C 2762.19 -4.2346 -0.2969 0
M  V30 28784 C 2760.1 -5.7137 1.5261 0
M  V30 28785 H 2759.03 -0.75302 0.0384387 0
M  V30 28786 H 2761.68 -1.66411 0.773291 0
M  V30 28787 H 2760.06 -3.91787 -0.576101 0
M  V30 28788 H 2761.23 -4.00348 2.28163 0
M  V30 28789 H 2759.55 -3.69344 1.92286 0
M  V30 28790 H 2762.14 -5.33738 -0.320618 0
M  V30 28791 H 2762.49 -3.94772 -1.32138 0
M  V30 28792 H 2763.02 -3.96006 0.377349 0
M  V30 28793 H 2759.76 -6.04771 2.52848 0
M  V30 28794 H 2759.28 -5.9418 0.819168 0
M  V30 28795 H 2760.96 -6.34738 1.25368 0
M  V30 28796 N 2761.09 -0.356312 -1.53519 0
M  V30 28797 C 2762.34 0.237338 -2.00299 0
M  V30 28798 C 2762.65 1.50625 -1.24786 0
M  V30 28799 O 2763.86 2.17793 -1.62107 0
M  V30 28800 C 2762.31 0.473482 -3.56772 0
M  V30 28801 C 2761.92 -0.780261 -4.41153 0
M  V30 28802 C 2763.67 1.02529 -4.11932 0
M  V30 28803 C 2761.57 -0.514211 -5.8916 0
M  V30 28804 H 2760.5 0.0924649 -0.748309 0
M  V30 28805 H 2763.15 -0.473619 -1.77283 0
M  V30 28806 H 2761.54 1.24547 -3.75904 0
M  V30 28807 H 2762.71 -1.55433 -4.33794 0
M  V30 28808 H 2761.03 -1.25462 -3.97049 0
M  V30 28809 H 2763.62 1.23951 -5.20135 0
M  V30 28810 H 2763.97 1.98467 -3.65946 0
M  V30 28811 H 2764.5 0.313705 -3.96561 0
M  V30 28812 H 2761.24 -1.44366 -6.39405 0
M  V30 28813 H 2760.76 0.221527 -5.99391 0
M  V30 28814 H 2762.44 -0.136236 -6.46857 0
M  V30 28815 N 2762.57 1.57369 -0.0852427 0
M  V30 28816 C 2763.79 1.98747 0.592838 0
M  V30 28817 C 2764.22 0.963717 1.61537 0
M  V30 28818 O 2763.58 -0.0690391 1.81169 0
M  V30 28819 C 2763.62 3.39121 1.22593 0
M  V30 28820 O 2762.73 3.39461 2.34179 0
M  V30 28821 H 2762.07 0.646532 0.151303 0
M  V30 28822 H 2764.6 2.03944 -0.163739 0
M  V30 28823 H 2764.61 3.76601 1.56959 0
M  V30 28824 H 2763.28 4.13158 0.476759 0
M  V30 28825 H 2761.86 3.13767 2.01507 0
M  V30 28826 N 2764.05 -0.188399 1.5647 0
M  V30 28827 C 2765.32 -0.934028 1.71858 0
M  V30 28828 C 2765.7 -2.01104 0.641902 0
M  V30 28829 O 2765.05 -2.25864 -0.346058 0
M  V30 28830 C 2765.26 -1.51435 3.14434 0
M  V30 28831 C 2766.61 -1.99389 3.74872 0
M  V30 28832 O 2767.63 -1.61264 3.17604 0
M  V30 28833 O 2766.49 -2.69565 4.75392 0
M  V30 28834 H 2763.59 -0.43847 0.701194 0
M  V30 28835 H 2766.13 -0.17757 1.68768 0
M  V30 28836 H 2764.9 -0.738349 3.84271 0
M  V30 28837 H 2764.53 -2.33546 3.21779 0
M  V30 28838 N 2765.53 -1.50848 -0.456355 0
M  V30 28839 C 2766.77 -1.62814 -1.20912 0
M  V30 28840 C 2767.1 -0.334337 -1.913 0
M  V30 28841 O 2766.38 0.665066 -1.82776 0
M  V30 28842 C 2766.66 -2.81857 -2.24117 0
M  V30 28843 C 2766.52 -4.21161 -1.57936 0
M  V30 28844 C 2767.83 -2.96437 -3.2529 0
M  V30 28845 H 2764.95 -0.592562 -0.438223 0
M  V30 28846 H 2767.6 -1.83279 -0.500878 0
M  V30 28847 H 2765.75 -2.64539 -2.8452 0
M  V30 28848 H 2767.42 -4.50104 -1.01017 0
M  V30 28849 H 2765.66 -4.24737 -0.88211 0
M  V30 28850 H 2766.33 -5.00412 -2.33005 0
M  V30 28851 H 2768.81 -3.12339 -2.74924 0
M  V30 28852 H 2767.68 -3.81329 -3.94816 0
M  V30 28853 H 2767.94 -2.07683 -3.90282 0
M  V30 28854 N 2767 0.710538 -1.40674 0
M  V30 28855 C 2768.24 1.48286 -1.40679 0
M  V30 28856 C 2768.61 1.91998 -0.00975305 0
M  V30 28857 O 2769.81 2.68552 0.115334 0
M  V30 28858 C 2768.08 2.67258 -2.37293 0
M  V30 28859 S 2769.64 3.56599 -2.557 0
M  V30 28860 H 2766.46 0.506918 -0.498553 0
M  V30 28861 H 2769.06 0.830441 -1.76986 0
M  V30 28862 H 2767.76 2.33324 -3.37621 0
M  V30 28863 H 2767.29 3.37406 -2.02288 0
M  V30 28864 H 2769.31 4.61885 -1.81319 0
M  V30 28865 N 2768.48 1.26254 0.943277 0
M  V30 28866 C 2769.73 1.11454 1.6859 0
M  V30 28867 C 2770.05 -0.343089 1.91958 0
M  V30 28868 O 2769.32 -1.24223 1.51477 0
M  V30 28869 H 2767.9 0.409459 0.624782 0
M  V30 28870 H 2770.56 1.5855 1.13348 0
M  V30 28871 H 2769.66 1.63167 2.66051 0
M  V30 28872 N 2769.96 -1.14755 1.08024 0
M  V30 28873 C 2771.24 -1.8185 0.720418 0
M  V30 28874 C 2771.62 -1.95504 -0.796341 0
M  V30 28875 O 2770.96 -1.51182 -1.71337 0
M  V30 28876 C 2771.17 -3.17781 1.44279 0
M  V30 28877 C 2772.52 -3.93328 1.59932 0
M  V30 28878 O 2773.55 -3.27357 1.40412 0
M  V30 28879 O 2772.41 -5.11623 1.92105 0
M  V30 28880 H 2769.5 -0.786003 0.257156 0
M  V30 28881 H 2772.05 -1.21807 1.18158 0
M  V30 28882 H 2770.82 -3.02983 2.47623 0
M  V30 28883 H 2770.44 -3.85514 0.972858 0
M  V30 28884 N 2771.44 -0.865331 -1.31719 0
M  V30 28885 C 2772.71 -0.394823 -1.91574 0
M  V30 28886 C 2773.09 1.12268 -1.78771 0
M  V30 28887 O 2772.44 1.94916 -1.19248 0
M  V30 28888 C 2772.65 -0.871042 -3.37955 0
M  V30 28889 C 2774 -0.894457 -4.15072 0
M  V30 28890 O 2775.02 -0.816386 -3.46718 0
M  V30 28891 O 2773.88 -1.0066 -5.3715 0
M  V30 28892 H 2770.98 -0.117243 -0.818647 0
M  V30 28893 H 2773.52 -0.952938 -1.40418 0
M  V30 28894 H 2772.3 -1.9145 -3.41266 0
M  V30 28895 H 2771.92 -0.290977 -3.96534 0
M  V30 28896 N 2772.92 1.44707 -0.624311 0
M  V30 28897 C 2774.19 1.95516 -0.0573125 0
M  V30 28898 C 2774.57 1.56644 1.41513 0
M  V30 28899 O 2773.92 0.837148 2.12613 0
M  V30 28900 C 2774.13 3.47931 -0.273005 0
M  V30 28901 C 2775.48 4.24289 -0.162603 0
M  V30 28902 O 2776.5 3.55615 -0.204009 0
M  V30 28903 O 2775.36 5.46465 -0.0617807 0
M  V30 28904 H 2772.46 0.826585 0.0262073 0
M  V30 28905 H 2775 1.54791 -0.695539 0
M  V30 28906 H 2773.77 3.6925 -1.29499 0
M  V30 28907 H 2773.4 3.95586 0.399687 0
M  V30 28908 N 2774.39 0.364449 1.53328 0
M  V30 28909 C 2775.36 -0.470252 2.24324 0
M  V30 28910 C 2776.36 -1.01065 1.2507 0
M  V30 28911 O 2777.55 -0.896579 1.49356 0
M  V30 28912 C 2774.68 -1.65717 2.97911 0
M  V30 28913 H 2775.87 0.15097 2.9952 0
M  V30 28914 H 2773.42 0.11612 1.55868 0
M  V30 28915 H 2774.16 -2.31651 2.26954 0
M  V30 28916 H 2773.94 -1.27665 3.70735 0
M  V30 28917 H 2775.43 -2.24872 3.51884 0
M  V30 28918 N 2775.87 -1.57322 0.0935872 0
M  V30 28919 C 2776.82 -2.13941 -0.865897 0
M  V30 28920 C 2777.79 -1.05756 -1.28081 0
M  V30 28921 O 2778.97 -1.33535 -1.36283 0
M  V30 28922 C 2776.11 -2.72291 -2.12018 0
M  V30 28923 C 2775.23 -3.94704 -1.75593 0
M  V30 28924 C 2774.36 -4.41224 -2.95796 0
M  V30 28925 C 2773.4 -5.56229 -2.55491 0
M  V30 28926 N 2772.54 -5.97608 -3.68523 0
M  V30 28927 H 2777.38 -2.95616 -0.376209 0
M  V30 28928 H 2774.91 -1.46067 -0.174026 0
M  V30 28929 H 2776.87 -3.0424 -2.85471 0
M  V30 28930 H 2775.5 -1.93347 -2.58489 0
M  V30 28931 H 2774.55 -3.69079 -0.921143 0
M  V30 28932 H 2775.87 -4.78174 -1.41955 0
M  V30 28933 H 2775.02 -4.74948 -3.77504 0
M  V30 28934 H 2773.76 -3.56651 -3.32643 0
M  V30 28935 H 2772.76 -5.22134 -1.72209 0
M  V30 28936 H 2773.99 -6.42549 -2.19789 0
M  V30 28937 H 2771.94 -5.15982 -4.05091 0
M  V30 28938 H 2771.85 -6.75871 -3.38725 0
M  V30 28939 H 2773.12 -6.35962 -4.50746 0
M  V30 28940 N 2777.35 0.180099 -1.56568 0
M  V30 28941 C 2778.58 0.912614 -1.85351 0
M  V30 28942 C 2778.99 1.76718 -0.675826 0
M  V30 28943 O 2778.33 1.80048 0.364469 0
M  V30 28944 C 2778.39 1.84686 -3.08434 0
M  V30 28945 C 2778.06 1.17276 -4.41696 0
M  V30 28946 C 2779.05 0.542442 -5.17062 0
M  V30 28947 C 2776.74 1.17214 -4.88432 0
M  V30 28948 C 2778.73 -0.0795073 -6.3735 0
M  V30 28949 C 2776.42 0.546363 -6.08653 0
M  V30 28950 C 2777.42 -0.0783658 -6.82955 0
M  V30 28951 O 2777.11 -0.694299 -8.00896 0
M  V30 28952 H 2776.84 0.271025 -0.619291 0
M  V30 28953 H 2779.39 0.187732 -2.0454 0
M  V30 28954 H 2777.62 2.61183 -2.85168 0
M  V30 28955 H 2779.31 2.44845 -3.23737 0
M  V30 28956 H 2780.08 0.53496 -4.82041 0
M  V30 28957 H 2775.96 1.6478 -4.30544 0
M  V30 28958 H 2779.5 -0.567734 -6.95286 0
M  V30 28959 H 2775.4 0.551397 -6.43141 0
M  V30 28960 H 2776.16 -0.592681 -8.16351 0
M  V30 28961 N 2778.83 1.51088 0.448349 0
M  V30 28962 C 2780.06 1.67002 1.2214 0
M  V30 28963 C 2780.47 0.362731 1.85283 0
M  V30 28964 O 2779.83 -0.65769 1.70237 0
M  V30 28965 C 2779.88 2.77774 2.31352 0
M  V30 28966 O 2779.6 4.03437 1.70794 0
M  V30 28967 C 2781.1 3.04861 3.2183 0
M  V30 28968 H 2778.32 0.560725 0.368549 0
M  V30 28969 H 2780.86 1.97443 0.532584 0
M  V30 28970 H 2779.02 2.49963 2.95969 0
M  V30 28971 H 2779.43 4.64872 2.42887 0
M  V30 28972 H 2780.91 3.85978 3.9462 0
M  V30 28973 H 2781.38 2.16828 3.81945 0
M  V30 28974 H 2781.99 3.3429 2.62927 0
M  V30 28975 N 2780.31 -0.703068 1.41049 0
M  V30 28976 C 2781.55 -1.47538 1.41464 0
M  V30 28977 C 2781.91 -1.9199 0.019935 0
M  V30 28978 O 2783.11 -2.6861 -0.101091 0
M  V30 28979 C 2781.38 -2.65995 2.38707 0
M  V30 28980 S 2782.94 -3.55238 2.57588 0
M  V30 28981 H 2779.76 -0.504267 0.501235 0
M  V30 28982 H 2782.36 -0.821043 1.77424 0
M  V30 28983 H 2781.07 -2.31531 3.38854 0
M  V30 28984 H 2780.6 -3.36329 2.04075 0
M  V30 28985 H 2782.61 -4.60917 1.83766 0
M  V30 28986 N 2781.78 -1.26752 -0.936569 0
M  V30 28987 C 2782.73 -1.0871 -2.03595 0
M  V30 28988 C 2783.7 0.00923623 -1.66097 0
M  V30 28989 O 2784.89 -0.151411 -1.90198 0
M  V30 28990 C 2782.03 -0.730999 -3.37269 0
M  V30 28991 C 2781.14 -1.90406 -3.87775 0
M  V30 28992 C 2780.27 -1.49065 -5.09856 0
M  V30 28993 C 2779.31 -2.63173 -5.52636 0
M  V30 28994 N 2778.45 -2.22482 -6.65917 0
M  V30 28995 H 2783.29 -2.02788 -2.1836 0
M  V30 28996 H 2780.83 -1.0096 -1.06984 0
M  V30 28997 H 2782.79 -0.505401 -4.14127 0
M  V30 28998 H 2781.42 0.172811 -3.22337 0
M  V30 28999 H 2780.47 -2.24246 -3.07275 0
M  V30 29000 H 2781.78 -2.76035 -4.15459 0
M  V30 29001 H 2780.93 -1.22577 -5.94188 0
M  V30 29002 H 2779.67 -0.605326 -4.83929 0
M  V30 29003 H 2778.68 -2.90386 -4.66858 0
M  V30 29004 H 2779.9 -3.52313 -5.80562 0
M  V30 29005 H 2777.85 -1.3639 -6.41665 0
M  V30 29006 H 2777.77 -3.01653 -6.93211 0
M  V30 29007 H 2779.03 -1.99218 -7.53613 0
M  V30 29008 N 2783.26 1.1418 -1.08631 0
M  V30 29009 C 2784.23 2.17529 -0.722065 0
M  V30 29010 C 2785.23 1.58934 0.244278 0
M  V30 29011 O 2786.42 1.74184 0.0235239 0
M  V30 29012 C 2783.55 3.40835 -0.0664565 0
M  V30 29013 H 2784.74 2.51266 -1.63724 0
M  V30 29014 H 2782.29 1.28868 -0.884465 0
M  V30 29015 H 2783.03 3.1268 0.860334 0
M  V30 29016 H 2782.81 3.84631 -0.761665 0
M  V30 29017 H 2784.3 4.1724 0.173272 0
M  V30 29018 N 2784.74 0.872304 1.31258 0
M  V30 29019 C 2785.99 0.485118 1.96912 0
M  V30 29020 C 2786.32 -0.960637 1.68776 0
M  V30 29021 O 2785.59 -1.67683 0.985524 0
M  V30 29022 C 2785.88 0.745564 3.52297 0
M  V30 29023 C 2785.73 2.24102 3.89998 0
M  V30 29024 C 2787.05 0.213593 4.39581 0
M  V30 29025 H 2784.17 0.177729 0.715249 0
M  V30 29026 H 2786.81 1.09397 1.55346 0
M  V30 29027 H 2784.96 0.227344 3.87834 0
M  V30 29028 H 2786.63 2.82668 3.6455 0
M  V30 29029 H 2784.88 2.71267 3.38521 0
M  V30 29030 H 2785.55 2.3739 4.98347 0
M  V30 29031 H 2788.02 0.656974 4.10881 0
M  V30 29032 H 2786.9 0.425256 5.4725 0
M  V30 29033 H 2787.16 -0.88459 4.3316 0
M  V30 29034 N 2786.22 -1.44374 0.631976 0
M  V30 29035 C 2787.17 -2.32446 -0.0846284 0
M  V30 29036 C 2788.16 -1.47395 -0.834931 0
M  V30 29037 O 2789.37 -1.63734 -0.747735 0
M  V30 29038 H 2785.74 -0.750583 -0.0461376 0
M  V30 29039 H 2787.71 -2.90636 0.676241 0
M  V30 29040 C 2786.46 -3.31402 -1.05205 0
M  V30 29041 H 2785.78 -3.96858 -0.484133 0
M  V30 29042 H 2787.22 -3.95705 -1.52293 0
M  V30 29043 C 2785.68 -2.60391 -2.13771 0
M  V30 29044 O 2786.21 -2.40346 -3.21865 0
M  V30 29045 N 2784.42 -2.20116 -1.89729 0
M  V30 29046 H 2783.97 -2.36619 -1.01829 0
M  V30 29047 H 2783.92 -1.72931 -2.62569 0
M  V30 29048 N 2787.7 -0.372575 -1.53133 0
M  V30 29049 C 2788.92 0.218062 -2.0625 0
M  V30 29050 C 2789.35 1.41109 -1.24378 0
M  V30 29051 O 2788.7 1.79359 -0.264585 0
M  V30 29052 C 2788.75 0.582814 -3.55859 0
M  V30 29053 O 2787.86 1.6791 -3.7667 0
M  V30 29054 H 2787.2 0.0300924 -0.663318 0
M  V30 29055 H 2789.73 -0.535204 -1.97476 0
M  V30 29056 H 2789.74 0.851855 -3.99008 0
M  V30 29057 H 2788.41 -0.289501 -4.14891 0
M  V30 29058 H 2786.99 1.40507 -3.45416 0
M  V30 29059 N 2789.17 1.5727 -0.101929 0
M  V30 29060 C 2790.1 2.1742 0.851506 0
M  V30 29061 C 2791.09 1.10944 1.2894 0
M  V30 29062 O 2792.27 1.3911 1.35507 0
M  V30 29063 C 2789.4 2.76 2.10811 0
M  V30 29064 C 2788.35 3.87909 1.8086 0
M  V30 29065 C 2787.68 4.33221 3.13406 0
M  V30 29066 C 2788.98 5.10795 1.09021 0
M  V30 29067 H 2790.67 2.97343 0.350329 0
M  V30 29068 H 2788.22 1.43028 0.167065 0
M  V30 29069 H 2790.17 3.16733 2.77953 0
M  V30 29070 H 2788.9 1.93342 2.63223 0
M  V30 29071 H 2787.56 3.47726 1.16113 0
M  V30 29072 H 2787.2 3.47444 3.63719 0
M  V30 29073 H 2786.9 5.08677 2.94146 0
M  V30 29074 H 2788.43 4.76593 3.81695 0
M  V30 29075 H 2789.84 5.48655 1.66286 0
M  V30 29076 H 2788.24 5.91723 0.999166 0
M  V30 29077 H 2789.31 4.84843 0.0740852 0
M  V30 29078 N 2790.65 -0.171793 1.56661 0
M  V30 29079 C 2791.9 -0.886742 1.81608 0
M  V30 29080 C 2792.22 -1.82802 0.67885 0
M  V30 29081 O 2791.49 -1.93569 -0.30132 0
M  V30 29082 H 2790.07 -0.330439 0.66994 0
M  V30 29083 H 2792.73 -0.171723 1.94142 0
M  V30 29084 H 2791.83 -1.46393 2.75637 0
M  V30 29085 N 2792.13 -1.51324 -0.44033 0
M  V30 29086 C 2793.04 -1.75261 -1.55952 0
M  V30 29087 C 2794.06 -0.636715 -1.61932 0
M  V30 29088 O 2795.23 -0.918625 -1.7923 0
M  V30 29089 C 2792.3 -1.86982 -2.91956 0
M  V30 29090 C 2791.36 -3.10827 -2.96117 0
M  V30 29091 C 2790.59 -3.2198 -4.25634 0
M  V30 29092 O 2790.81 -2.39146 -5.17847 0
M  V30 29093 O 2789.75 -4.14937 -4.36017 0
M  V30 29094 H 2793.57 -2.70194 -1.38668 0
M  V30 29095 H 2791.16 -1.35789 -0.623031 0
M  V30 29096 H 2793.04 -1.96695 -3.72678 0
M  V30 29097 H 2791.72 -0.952361 -3.09373 0
M  V30 29098 H 2790.62 -3.06595 -2.14361 0
M  V30 29099 H 2791.96 -4.02252 -2.83644 0
M  V30 29100 N 2793.61 0.695578 -1.41419 0
M  V30 29101 C 2794.57 1.79126 -1.42991 0
M  V30 29102 C 2795.57 1.57573 -0.320542 0
M  V30 29103 O 2796.76 1.64246 -0.580419 0
M  V30 29104 C 2793.89 3.17498 -1.24128 0
M  V30 29105 H 2795.09 1.79125 -2.40529 0
M  V30 29106 H 2792.64 0.903203 -1.27562 0
M  V30 29107 H 2793.37 3.23138 -0.274309 0
M  V30 29108 H 2793.16 3.34544 -2.04506 0
M  V30 29109 H 2794.65 3.97479 -1.28063 0
M  V30 29110 N 2795.09 1.27247 0.929833 0
M  V30 29111 C 2796.32 1.16268 1.71142 0
M  V30 29112 C 2796.73 -0.280753 1.86701 0
M  V30 29113 O 2796.09 -1.19134 1.38251 0
M  V30 29114 C 2796.14 1.83916 3.11219 0
M  V30 29115 O 2795.86 3.22619 2.96392 0
M  V30 29116 C 2797.36 1.79035 4.05538 0
M  V30 29117 H 2794.58 0.404338 0.535492 0
M  V30 29118 H 2797.12 1.68079 1.16489 0
M  V30 29119 H 2795.28 1.36015 3.62738 0
M  V30 29120 H 2795.69 3.56268 3.84933 0
M  V30 29121 H 2797.17 2.30987 5.01347 0
M  V30 29122 H 2797.64 0.759244 4.32588 0
M  V30 29123 H 2798.25 2.26541 3.59943 0
M  V30 29124 N 2796.57 -1.13603 1.09235 0
M  V30 29125 C 2797.81 -1.86485 0.836818 0
M  V30 29126 C 2798.17 -1.81503 -0.626159 0
M  V30 29127 O 2799.37 -2.49605 -0.997536 0
M  V30 29128 C 2797.64 -3.30725 1.35482 0
M  V30 29129 S 2799.2 -4.21124 1.23287 0
M  V30 29130 H 2796.02 -0.643339 0.302714 0
M  V30 29131 H 2798.62 -1.36934 1.39533 0
M  V30 29132 H 2797.32 -3.31905 2.41387 0
M  V30 29133 H 2796.86 -3.85338 0.792354 0
M  V30 29134 H 2798.87 -4.95864 0.182555 0
M  V30 29135 N 2798.04 -0.879253 -1.30793 0
M  V30 29136 C 2799.27 -0.509584 -2.00526 0
M  V30 29137 C 2799.69 0.900421 -1.65945 0
M  V30 29138 O 2799.04 1.59129 -0.893553 0
M  V30 29139 C 2799.09 -0.668005 -3.55274 0
M  V30 29140 O 2798.82 -2.02249 -3.88622 0
M  V30 29141 C 2800.32 -0.300572 -4.4228 0
M  V30 29142 H 2797.54 -0.19756 -0.641257 0
M  V30 29143 H 2800.08 -1.18298 -1.66811 0
M  V30 29144 H 2798.24 -0.0420524 -3.87377 0
M  V30 29145 H 2798.65 -2.03697 -4.8333 0
M  V30 29146 H 2800.12 -0.462339 -5.5006 0
M  V30 29147 H 2800.6 0.760984 -4.32557 0
M  V30 29148 H 2801.21 -0.902609 -4.15612 0
M  V30 29149 N 2799.52 1.44037 -0.639624 0
M  V30 29150 C 2800.48 2.29144 0.0506226 0
M  V30 29151 C 2801.48 1.41492 0.763976 0
M  V30 29152 O 2802.67 1.63272 0.60728 0
M  V30 29153 C 2799.81 3.23262 1.08235 0
M  V30 29154 H 2801 2.91663 -0.698038 0
M  V30 29155 H 2798.55 1.5109 -0.400173 0
M  V30 29156 H 2799.29 2.65609 1.8607 0
M  V30 29157 H 2799.07 3.87866 0.574656 0
M  V30 29158 H 2800.56 3.87174 1.56481 0
M  V30 29159 N 2801 0.380691 1.52933 0
M  V30 29160 C 2801.91 -0.466152 2.29922 0
M  V30 29161 C 2802.93 -1.0792 1.36489 0
M  V30 29162 O 2804.1 -1.08687 1.69555 0
M  V30 29163 C 2801.17 -1.58261 3.08471 0
M  V30 29164 C 2800.23 -0.995553 4.17597 0
M  V30 29165 C 2799.46 -2.0588 4.92391 0
M  V30 29166 O 2799.68 -3.27246 4.6719 0
M  V30 29167 O 2798.62 -1.68092 5.77952 0
M  V30 29168 H 2802.44 0.160788 3.03274 0
M  V30 29169 H 2800.03 0.144643 1.48698 0
M  V30 29170 H 2801.91 -2.23139 3.57473 0
M  V30 29171 H 2800.59 -2.19467 2.37941 0
M  V30 29172 H 2799.49 -0.310266 3.72811 0
M  V30 29173 H 2800.83 -0.427831 4.90337 0
M  V30 29174 N 2802.48 -1.57214 0.110268 0
M  V30 29175 C 2803.41 -2.17869 -0.839964 0
M  V30 29176 C 2804.39 -1.11626 -1.2835 0
M  V30 29177 O 2805.57 -1.39826 -1.34767 0
M  V30 29178 C 2802.7 -2.77114 -2.09344 0
M  V30 29179 C 2801.66 -3.88863 -1.788 0
M  V30 29180 C 2800.98 -4.34877 -3.11104 0
M  V30 29181 C 2802.28 -5.11366 -1.06311 0
M  V30 29182 H 2803.98 -2.97525 -0.334555 0
M  V30 29183 H 2801.52 -1.43114 -0.159477 0
M  V30 29184 H 2803.48 -3.18203 -2.76269 0
M  V30 29185 H 2802.2 -1.94735 -2.62194 0
M  V30 29186 H 2800.86 -3.48337 -1.14267 0
M  V30 29187 H 2800.51 -3.49368 -3.61871 0
M  V30 29188 H 2800.21 -5.10229 -2.91444 0
M  V30 29189 H 2801.73 -4.78611 -3.79162 0
M  V30 29190 H 2803.15 -5.49529 -1.63374 0
M  V30 29191 H 2801.54 -5.92245 -0.967772 0
M  V30 29192 H 2802.61 -4.84876 -0.0483717 0
M  V30 29193 N 2803.96 0.163482 -1.5675 0
M  V30 29194 C 2805.2 0.877179 -1.81627 0
M  V30 29195 C 2805.52 1.8307 -0.688823 0
M  V30 29196 O 2806.72 2.58734 -0.822743 0
M  V30 29197 C 2805.18 1.6104 -3.21861 0
M  V30 29198 C 2804.79 0.700118 -4.42496 0
M  V30 29199 C 2806.53 2.31185 -3.56025 0
M  V30 29200 C 2804.44 1.43402 -5.73751 0
M  V30 29201 H 2803.37 0.3313 -0.677316 0
M  V30 29202 H 2806.02 0.130028 -1.83039 0
M  V30 29203 H 2804.4 2.40258 -3.14789 0
M  V30 29204 H 2805.58 -0.0556659 -4.60766 0
M  V30 29205 H 2803.89 0.107916 -4.1626 0
M  V30 29206 H 2806.49 2.86702 -4.51338 0
M  V30 29207 H 2806.83 3.06897 -2.81283 0
M  V30 29208 H 2807.36 1.58902 -3.64685 0
M  V30 29209 H 2804.1 0.719072 -6.51544 0
M  V30 29210 H 2803.62 2.16293 -5.59444 0
M  V30 29211 H 2805.3 1.97939 -6.15978 0
M  V30 29212 N 2805.43 1.51555 0.432299 0
M  V30 29213 C 2806.68 1.64717 1.18306 0
M  V30 29214 C 2807.01 0.364729 1.90744 0
M  V30 29215 O 2806.29 -0.635904 1.83811 0
M  V30 29216 C 2806.57 2.85387 2.19605 0
M  V30 29217 C 2806.42 4.2362 1.51216 0
M  V30 29218 C 2807.74 3.01574 3.20532 0
M  V30 29219 H 2804.86 0.599459 0.42874 0
M  V30 29220 H 2807.5 1.84053 0.471656 0
M  V30 29221 H 2805.65 2.69032 2.80275 0
M  V30 29222 H 2807.33 4.51654 0.938437 0
M  V30 29223 H 2805.57 4.26086 0.814426 0
M  V30 29224 H 2806.24 5.04056 2.25015 0
M  V30 29225 H 2808.72 3.16674 2.6992 0
M  V30 29226 H 2807.59 3.87562 3.88699 0
M  V30 29227 H 2807.85 2.13865 3.86929 0
M  V30 29228 N 2806.91 -0.688069 1.41786 0
M  V30 29229 C 2807.82 -1.83155 1.46599 0
M  V30 29230 C 2808.84 -1.70321 0.355892 0
M  V30 29231 O 2810.01 -1.92105 0.60477 0
M  V30 29232 C 2807.08 -3.19198 1.35327 0
M  V30 29233 C 2806.14 -3.44086 2.56717 0
M  V30 29234 C 2805.37 -4.73638 2.45973 0
M  V30 29235 O 2805.6 -5.50639 1.48837 0
M  V30 29236 O 2804.53 -4.99476 3.35868 0
M  V30 29237 H 2808.36 -1.82051 2.43086 0
M  V30 29238 H 2805.94 -0.842104 1.23406 0
M  V30 29239 H 2807.82 -4.00405 1.31354 0
M  V30 29240 H 2806.5 -3.20969 0.419592 0
M  V30 29241 H 2805.4 -2.62779 2.66266 0
M  V30 29242 H 2806.74 -3.47135 3.48939 0
M  V30 29243 N 2808.39 -1.27739 -0.923072 0
M  V30 29244 C 2809.62 -1.17174 -1.70523 0
M  V30 29245 C 2810.03 0.270848 -1.86847 0
M  V30 29246 O 2809.39 1.18399 -1.38881 0
M  V30 29247 C 2809.44 -1.85564 -3.10239 0
M  V30 29248 O 2809.16 -3.24187 -2.94677 0
M  V30 29249 C 2810.66 -1.81183 -4.04583 0
M  V30 29250 H 2807.88 -0.407172 -0.53334 0
M  V30 29251 H 2810.43 -1.68694 -1.15596 0
M  V30 29252 H 2808.58 -1.37937 -3.62011 0
M  V30 29253 H 2809 -3.58304 -3.83039 0
M  V30 29254 H 2810.47 -2.33642 -5.00115 0
M  V30 29255 H 2810.95 -0.782175 -4.32179 0
M  V30 29256 H 2811.55 -2.28447 -3.58737 0
M  V30 29257 N 2809.87 1.13022 -1.09836 0
M  V30 29258 C 2810.8 2.17661 -0.685491 0
M  V30 29259 C 2811.78 1.59615 0.310114 0
M  V30 29260 O 2812.96 1.87321 0.210487 0
M  V30 29261 C 2810.09 3.38698 -0.0105071 0
M  V30 29262 C 2809.14 4.15356 -0.968595 0
M  V30 29263 S 2809.97 4.74465 -2.48281 0
M  V30 29264 C 2811.13 5.98844 -1.82035 0
M  V30 29265 H 2811.36 2.52346 -1.57191 0
M  V30 29266 H 2808.89 1.24385 -0.91475 0
M  V30 29267 H 2810.85 4.08805 0.372622 0
M  V30 29268 H 2809.51 3.02306 0.85262 0
M  V30 29269 H 2808.7 5.02045 -0.443461 0
M  V30 29270 H 2808.31 3.50926 -1.29333 0
M  V30 29271 H 2810.6 6.67722 -1.14689 0
M  V30 29272 H 2811.54 6.55972 -2.66657 0
M  V30 29273 H 2811.95 5.49622 -1.28749 0
M  V30 29274 N 2811.35 0.886177 1.30325 0
M  V30 29275 C 2812.26 0.357907 2.31854 0
M  V30 29276 C 2813.27 -0.540473 1.65393 0
M  V30 29277 O 2814.45 -0.433304 1.96684 0
M  V30 29278 C 2811.51 -0.417939 3.44172 0
M  V30 29279 C 2810.57 0.510338 4.26256 0
M  V30 29280 C 2809.81 -0.228575 5.3321 0
M  V30 29281 O 2810.03 -1.45449 5.51544 0
M  V30 29282 O 2808.96 0.421938 6.00419 0
M  V30 29283 H 2812.79 1.19987 2.78993 0
M  V30 29284 H 2810.38 0.650052 1.34516 0
M  V30 29285 H 2812.26 -0.857178 4.1259 0
M  V30 29286 H 2810.93 -1.23618 2.99166 0
M  V30 29287 H 2809.84 0.998414 3.60531 0
M  V30 29288 H 2811.17 1.29462 4.74869 0
M  V30 29289 N 2812.82 -1.43695 0.647253 0
M  V30 29290 C 2813.73 -2.34549 -0.0487585 0
M  V30 29291 C 2814.75 -1.53544 -0.818559 0
M  V30 29292 O 2815.93 -1.86217 -0.767162 0
M  V30 29293 C 2812.99 -3.31745 -1.00728 0
M  V30 29294 C 2812.05 -4.28656 -0.235075 0
M  V30 29295 C 2811.29 -5.21208 -1.14794 0
M  V30 29296 O 2811.51 -5.18049 -2.38708 0
M  V30 29297 O 2810.44 -5.98661 -0.623562 0
M  V30 29298 H 2814.27 -2.95548 0.698915 0
M  V30 29299 H 2811.85 -1.43737 0.407438 0
M  V30 29300 H 2813.74 -3.91529 -1.5583 0
M  V30 29301 H 2812.41 -2.73257 -1.73529 0
M  V30 29302 H 2811.32 -3.7237 0.359385 0
M  V30 29303 H 2812.65 -4.90109 0.453238 0
M  V30 29304 N 2814.3 -0.388796 -1.52729 0
M  V30 29305 C 2815.55 0.193173 -2.01175 0
M  V30 29306 C 2815.87 1.47362 -1.27708 0
M  V30 29307 O 2815.14 1.91835 -0.396999 0
M  V30 29308 H 2813.72 0.074374 -0.743288 0
M  V30 29309 H 2816.38 -0.520369 -1.87825 0
M  V30 29310 H 2815.48 0.403749 -3.09477 0
M  V30 29311 N 2815.78 1.57153 -0.118604 0
M  V30 29312 C 2816.69 2.18836 0.845446 0
M  V30 29313 C 2817.71 1.1644 1.29297 0
M  V30 29314 O 2818.88 1.48908 1.35604 0
M  V30 29315 C 2815.95 2.77532 2.0779 0
M  V30 29316 C 2815.01 3.94963 1.68233 0
M  V30 29317 C 2814.24 4.5085 2.85604 0
M  V30 29318 O 2814.46 4.05636 4.01018 0
M  V30 29319 O 2813.4 5.4154 2.62712 0
M  V30 29320 H 2817.22 3.0167 0.350515 0
M  V30 29321 H 2814.81 1.49016 0.106987 0
M  V30 29322 H 2816.69 3.1495 2.79972 0
M  V30 29323 H 2815.37 1.9773 2.5629 0
M  V30 29324 H 2814.27 3.62315 0.931599 0
M  V30 29325 H 2815.61 4.762 1.24475 0
M  V30 29326 N 2817.26 -0.155167 1.56834 0
M  V30 29327 C 2818.51 -0.86743 1.82538 0
M  V30 29328 C 2818.83 -1.82072 0.6982 0
M  V30 29329 O 2818.1 -1.93877 -0.280773 0
M  V30 29330 H 2816.68 -0.323315 0.673407 0
M  V30 29331 H 2819.34 -0.151122 1.94313 0
M  V30 29332 H 2818.44 -1.43461 2.77174 0
M  V30 29333 N 2818.74 -1.51782 -0.424256 0
M  V30 29334 C 2819.65 -1.76905 -1.54084 0
M  V30 29335 C 2820.66 -0.653854 -1.61247 0
M  V30 29336 O 2821.84 -0.937583 -1.78245 0
M  V30 29337 C 2818.9 -1.90068 -2.89957 0
M  V30 29338 C 2817.96 -3.1395 -2.92803 0
M  V30 29339 C 2817.2 -3.26476 -4.22195 0
M  V30 29340 O 2817.42 -2.44625 -5.15281 0
M  V30 29341 O 2816.35 -4.19538 -4.31592 0
M  V30 29342 H 2820.18 -2.71649 -1.35795 0
M  V30 29343 H 2817.77 -1.36442 -0.608594 0
M  V30 29344 H 2819.65 -2.00637 -3.70571 0
M  V30 29345 H 2818.32 -0.985121 -3.08346 0
M  V30 29346 H 2817.23 -3.08851 -2.11097 0
M  V30 29347 H 2818.56 -4.05238 -2.79361 0
M  V30 29348 N 2820.21 0.68054 -1.42149 0
M  V30 29349 C 2821.46 1.43776 -1.42031 0
M  V30 29350 C 2821.78 1.94967 -0.035669 0
M  V30 29351 O 2821.05 1.72691 0.924906 0
M  V30 29352 H 2819.63 0.533519 -0.522844 0
M  V30 29353 H 2822.3 0.804507 -1.77521 0
M  V30 29354 H 2821.39 2.29359 -2.11662 0
M  V30 29355 N 2821.69 1.28226 0.916285 0
M  V30 29356 C 2822.6 1.13778 2.05163 0
M  V30 29357 C 2823.62 0.0649724 1.73879 0
M  V30 29358 O 2824.79 0.273757 1.99531 0
M  V30 29359 C 2821.86 0.798326 3.37384 0
M  V30 29360 C 2820.92 1.95323 3.82292 0
M  V30 29361 C 2820.15 1.62987 5.08204 0
M  V30 29362 O 2820.38 0.543048 5.67809 0
M  V30 29363 O 2819.31 2.4727 5.48763 0
M  V30 29364 H 2823.14 2.09082 2.20269 0
M  V30 29365 H 2820.72 1.07521 1.03728 0
M  V30 29366 H 2822.6 0.622853 4.16772 0
M  V30 29367 H 2821.28 -0.125082 3.23458 0
M  V30 29368 H 2820.19 2.18384 3.03742 0
M  V30 29369 H 2821.52 2.85725 4.00777 0
M  V30 29370 N 2823.17 -1.12438 1.10433 0
M  V30 29371 C 2824.08 -2.21758 0.765541 0
M  V30 29372 C 2825.1 -1.72379 -0.236936 0
M  V30 29373 O 2826.27 -2.01258 -0.0756976 0
M  V30 29374 C 2823.34 -3.46109 0.202377 0
M  V30 29375 C 2822.4 -4.10328 1.26213 0
M  V30 29376 C 2821.63 -5.28743 0.72574 0
M  V30 29377 O 2821.85 -5.68639 -0.447842 0
M  V30 29378 O 2820.79 -5.83277 1.48566 0
M  V30 29379 H 2824.61 -2.5313 1.67806 0
M  V30 29380 H 2822.2 -1.20772 0.879464 0
M  V30 29381 H 2824.08 -4.21262 -0.107844 0
M  V30 29382 H 2822.76 -3.16412 -0.682996 0
M  V30 29383 H 2821.66 -3.36954 1.6252 0
M  V30 29384 H 2823 -4.44179 2.12051 0
M  V30 29385 N 2824.65 -0.893076 -1.29853 0
M  V30 29386 C 2825.56 -0.370198 -2.31661 0
M  V30 29387 C 2826.58 0.531694 -1.65677 0
M  V30 29388 O 2827.75 0.422868 -1.96911 0
M  V30 29389 C 2824.82 0.39968 -3.44389 0
M  V30 29390 C 2823.88 -0.532936 -4.25979 0
M  V30 29391 C 2823.11 0.200294 -5.33324 0
M  V30 29392 O 2823.33 1.42522 -5.52308 0
M  V30 29393 O 2822.27 -0.453774 -6.00187 0
M  V30 29394 H 2826.09 -1.21465 -2.78352 0
M  V30 29395 H 2823.68 -0.657176 -1.3417 0
M  V30 29396 H 2825.56 0.835285 -4.13039 0
M  V30 29397 H 2824.24 1.2203 -2.99817 0
M  V30 29398 H 2823.14 -1.01752 -3.59996 0
M  V30 29399 H 2824.48 -1.31978 -4.74176 0
M  V30 29400 N 2826.13 1.4335 -0.654865 0
M  V30 29401 C 2827.04 2.34572 0.0363191 0
M  V30 29402 C 2828.05 1.53975 0.810405 0
M  V30 29403 O 2829.23 1.86621 0.757275 0
M  V30 29404 C 2826.29 3.32274 0.989675 0
M  V30 29405 C 2825.36 4.28775 0.212339 0
M  V30 29406 C 2824.59 5.2181 1.12028 0
M  V30 29407 O 2824.81 5.19307 2.35958 0
M  V30 29408 O 2823.75 5.98984 0.591805 0
M  V30 29409 H 2827.57 2.95174 -0.714579 0
M  V30 29410 H 2825.16 1.43519 -0.415055 0
M  V30 29411 H 2827.04 3.9235 1.53752 0
M  V30 29412 H 2825.71 2.74174 1.72077 0
M  V30 29413 H 2824.62 3.72174 -0.379127 0
M  V30 29414 H 2825.95 4.89861 -0.479224 0
M  V30 29415 N 2827.61 0.39689 1.52521 0
M  V30 29416 C 2828.52 -0.44174 2.30404 0
M  V30 29417 C 2829.53 -1.06466 1.37626 0
M  V30 29418 O 2830.71 -1.06883 1.70699 0
M  V30 29419 C 2827.77 -1.5498 3.10132 0
M  V30 29420 C 2826.83 -0.951206 4.18629 0
M  V30 29421 C 2826.07 -2.00646 4.94547 0
M  V30 29422 O 2826.29 -3.22272 4.70634 0
M  V30 29423 O 2825.22 -1.61952 5.79703 0
M  V30 29424 H 2829.05 0.192946 3.03086 0
M  V30 29425 H 2826.63 0.160406 1.48536 0
M  V30 29426 H 2828.52 -2.19335 3.5982 0
M  V30 29427 H 2827.19 -2.16931 2.40255 0
M  V30 29428 H 2826.1 -0.270707 3.73119 0
M  V30 29429 H 2827.43 -0.375801 4.90763 0
M  V30 29430 O 2829.12 -1.5927 0.267451 0
M  V30 29431 H 2829.81 -1.91299 -0.304065 0
M  V30 END ATOM
M  V30 BEGIN BOND
M  V30 END BOND
M  V30 END CTAB
M  END
$$$$
