drugbank_target|Q8IXJ6 NAD-dependent protein deacetylase sirtuin-2 (DB15493)
 OpenBabel12092121203D

  0  0  0     0  0            999 V3000
M  V30 BEGIN CTAB
M  V30 COUNTS 6012 6081 0 0 0
M  V30 BEGIN ATOM
M  V30 1 H -0.908 1.98254 -0.117106 0
M  V30 2 N 0 1.576 0 0
M  V30 3 C 0.933 2.03868 1.02534 0
M  V30 4 C 1.911 0.928543 1.3348 0
M  V30 5 O 3.095 1.19667 1.45644 0
M  V30 6 C 0.222 2.43627 2.35294 0
M  V30 7 C -0.732 3.65373 2.2001 0
M  V30 8 S 0.101 5.13292 1.52614 0
M  V30 9 C 1.257 5.56322 2.86805 0
M  V30 10 H 1.49 2.90518 0.631377 0
M  V30 11 H -0.977 1.52953 0.210867 0
M  V30 12 H 0.981 2.67203 3.11629 0
M  V30 13 H -0.358 1.57376 2.7183 0
M  V30 14 H -1.165 3.90944 3.18086 0
M  V30 15 H -1.563 3.418 1.51819 0
M  V30 16 H 0.729 5.58782 3.83104 0
M  V30 17 H 1.672 6.56266 2.65933 0
M  V30 18 H 2.08 4.83886 2.90714 0
M  V30 19 N 1.4781 -0.272755 1.55222 0
M  V30 20 C 2.4411 -1.32041 1.87344 0
M  V30 21 C 3.4411 -1.42342 0.74803 0
M  V30 22 O 4.6311 -1.41488 1.0162 0
M  V30 23 C 1.7631 -2.70173 2.07893 0
M  V30 24 H 2.9561 -1.04789 2.80997 0
M  V30 25 H 0.5091 -0.51083 1.47717 0
M  V30 26 H 1.2441 -3.02605 1.16622 0
M  V30 27 H 1.0291 -2.64082 2.89833 0
M  V30 28 H 2.5191 -3.45869 2.34017 0
M  V30 29 N 2.9562 -1.48159 -0.537278 0
M  V30 30 C 3.8662 -1.64807 -1.6696 0
M  V30 31 C 4.8822 -0.530651 -1.65711 0
M  V30 32 O 6.0582 -0.800784 -1.84796 0
M  V30 33 C 3.1232 -1.67708 -3.03438 0
M  V30 34 C 2.1842 -2.91025 -3.156 0
M  V30 35 C 1.4172 -2.93778 -4.45567 0
M  V30 36 O 1.6402 -2.05153 -5.3223 0
M  V30 37 O 0.5742 -3.85868 -4.61941 0
M  V30 38 H 4.4002 -2.6066 -1.55853 0
M  V30 39 H 1.9852 -1.31475 -0.709549 0
M  V30 40 H 3.8672 -1.7218 -3.84619 0
M  V30 41 H 2.5422 -0.750278 -3.14885 0
M  V30 42 H 1.4492 -2.92089 -2.33741 0
M  V30 43 H 2.7822 -3.83065 -3.09066 0
M  V30 44 N 4.4343 0.785586 -1.36625 0
M  V30 45 C 5.8453 1.36101 -1.27803 0
M  V30 46 C 6.1963 1.96035 0.0804875 0
M  V30 47 O 5.3213 1.92834 0.982042 0
M  V30 48 C 5.9163 2.47442 -2.31426 0
M  V30 49 C 4.4753 3.00789 -2.26281 0
M  V30 50 C 3.6223 1.73896 -2.15999 0
M  V30 51 H 6.5733 0.586928 -1.47448 0
M  V30 52 H 6.5943 3.2656 -1.95291 0
M  V30 53 H 6.1063 2.03791 -3.30289 0
M  V30 54 H 4.2073 3.48851 -1.30896 0
M  V30 55 H 4.3203 3.57343 -3.19128 0
M  V30 56 H 2.6843 1.9628 -1.62316 0
M  V30 57 H 3.4673 1.32368 -3.16755 0
M  V30 58 N 5.9124 1.20967 1.01018 0
M  V30 59 C 7.1894 0.93264 1.71934 0
M  V30 60 C 7.5694 -0.55692 2.03621 0
M  V30 61 O 6.9174 -1.52035 1.7058 0
M  V30 62 C 7.1274 1.81233 2.98254 0
M  V30 63 C 8.4754 2.05804 3.71389 0
M  V30 64 O 9.4994 1.78539 3.08225 0
M  V30 65 O 8.3584 2.51888 4.84989 0
M  V30 66 H 5.4524 0.349272 0.749625 0
M  V30 67 H 7.9984 1.31871 1.06808 0
M  V30 68 H 6.7704 2.82067 2.71208 0
M  V30 69 H 6.3934 1.42674 3.7112 0
M  V30 70 N 7.3905 -1.2043 1.01659 0
M  V30 71 C 8.8015 -1.71517 0.737482 0
M  V30 72 C 9.1525 -1.81547 -0.743973 0
M  V30 73 O 8.2775 -1.47803 -1.58061 0
M  V30 74 C 8.8725 -3.11515 1.33206 0
M  V30 75 C 7.4315 -3.59912 1.10183 0
M  V30 76 C 6.5785 -2.37116 1.43776 0
M  V30 77 H 9.5295 -1.05444 1.18606 0
M  V30 78 H 9.5505 -3.73575 0.722636 0
M  V30 79 H 9.0625 -3.04182 2.41028 0
M  V30 80 H 7.1635 -3.72577 0.0412756 0
M  V30 81 H 7.2765 -4.44731 1.78188 0
M  V30 82 H 5.6405 -2.39857 0.856778 0
M  V30 83 H 6.4235 -2.32424 2.52654 0
M  V30 84 N 8.8686 -0.792821 -1.36206 0
M  V30 85 C 10.0936 -0.377701 -2.03932 0
M  V30 86 C 10.5186 0.998947 -1.59382 0
M  V30 87 O 9.8766 1.64421 -0.763903 0
M  V30 88 C 9.9246 -0.453635 -3.57735 0
M  V30 89 O 9.0286 0.538151 -4.08874 0
M  V30 90 H 8.3696 -0.159855 -0.644471 0
M  V30 91 H 10.8996 -1.07488 -1.7409 0
M  V30 92 H 10.9096 -0.318464 -4.06755 0
M  V30 93 H 9.5846 -1.45784 -3.89512 0
M  V30 94 H 8.1616 0.364359 -3.71116 0
M  V30 95 N 10.3467 1.47872 -0.545128 0
M  V30 96 C 11.2967 2.26842 0.229456 0
M  V30 97 C 12.2807 1.33626 0.896267 0
M  V30 98 O 13.4727 1.58063 0.79657 0
M  V30 99 C 10.6017 3.19089 1.26638 0
M  V30 100 C 9.6877 4.19783 0.603598 0
M  V30 101 N 10.0787 5.0479 -0.319405 0
M  V30 102 C 8.3767 4.3765 0.858989 0
M  V30 103 C 9.0777 5.77433 -0.703241 0
M  V30 104 N 8.0537 5.43566 -0.0608309 0
M  V30 105 H 11.8557 2.89947 -0.480391 0
M  V30 106 H 9.3697 1.58263 -0.364209 0
M  V30 107 H 11.3667 3.74337 1.83515 0
M  V30 108 H 10.0267 2.5754 1.97745 0
M  V30 109 H 11.0377 5.13244 -0.692889 0
M  V30 110 H 7.7147 3.87281 1.55948 0
M  V30 111 H 9.1047 6.55824 -1.46098 0
M  V30 112 N 11.8248 0.280983 1.55075 0
M  V30 113 C 13.2358 -0.215629 1.85451 0
M  V30 114 C 13.5868 -1.54991 1.203 0
M  V30 115 O 12.7118 -2.10699 0.493435 0
M  V30 116 C 13.3068 -0.398026 3.36454 0
M  V30 117 C 11.8658 -0.838866 3.66933 0
M  V30 118 C 11.0128 0.064458 2.77225 0
M  V30 119 H 13.9638 0.502601 1.50531 0
M  V30 120 H 13.9848 -1.23569 3.59876 0
M  V30 121 H 13.4968 0.573241 3.83843 0
M  V30 122 H 11.5978 -1.8214 3.25048 0
M  V30 123 H 11.7108 -0.672123 4.74362 0
M  V30 124 H 10.0748 -0.452863 2.50642 0
M  V30 125 H 10.8578 1.03172 3.2743 0
M  V30 126 N 13.3029 -1.57598 0.00835791 0
M  V30 127 C 14.2329 -2.1198 -0.979113 0
M  V30 128 C 15.2139 -1.03091 -1.35301 0
M  V30 129 O 16.3989 -1.30818 -1.43528 0
M  V30 130 C 13.5289 -2.62995 -2.26828 0
M  V30 131 C 12.4829 -3.76485 -2.03576 0
M  V30 132 C 11.8089 -4.13846 -3.38579 0
M  V30 133 C 13.1089 -5.0342 -1.39161 0
M  V30 134 H 14.8029 -2.94738 -0.526281 0
M  V30 135 H 12.3489 -1.41783 -0.251704 0
M  V30 136 H 14.3019 -2.99669 -2.96271 0
M  V30 137 H 13.0259 -1.7737 -2.7424 0
M  V30 138 H 11.6849 -3.40217 -1.36557 0
M  V30 139 H 11.3329 -3.25232 -3.83709 0
M  V30 140 H 11.0329 -4.90312 -3.23834 0
M  V30 141 H 12.5569 -4.53086 -4.09323 0
M  V30 142 H 13.9709 -5.37812 -1.98573 0
M  V30 143 H 12.3679 -5.84746 -1.34878 0
M  V30 144 H 13.4379 -4.83548 -0.361868 0
M  V30 145 N 14.781 0.264519 -1.55364 0
M  V30 146 C 15.691 1.34902 -1.91934 0
M  V30 147 C 16.707 1.53595 -0.817593 0
M  V30 148 O 17.883 1.67558 -1.11742 0
M  V30 149 C 14.948 2.68676 -2.19121 0
M  V30 150 C 14.009 2.58657 -3.4263 0
M  V30 151 C 13.242 3.86051 -3.68511 0
M  V30 152 O 13.465 4.87126 -2.96757 0
M  V30 153 O 12.399 3.85744 -4.62045 0
M  V30 154 H 16.225 1.06883 -2.8427 0
M  V30 155 H 13.81 0.463775 -1.42019 0
M  V30 156 H 15.692 3.47759 -2.37995 0
M  V30 157 H 14.367 2.96463 -1.29966 0
M  V30 158 H 13.274 1.7792 -3.29082 0
M  V30 159 H 14.607 2.35818 -4.32031 0
M  V30 160 N 16.2591 1.48442 0.529413 0
M  V30 161 C 17.4871 1.60151 1.30994 0
M  V30 162 C 17.9021 0.261985 1.86973 0
M  V30 163 O 17.2591 -0.748805 1.66431 0
M  V30 164 C 17.3101 2.64854 2.46038 0
M  V30 165 O 17.0311 3.93608 1.92365 0
M  V30 166 C 18.5321 2.87007 3.37849 0
M  V30 167 H 15.7521 0.539971 0.398338 0
M  V30 168 H 18.2961 1.94273 0.638597 0
M  V30 169 H 16.4511 2.33589 3.09055 0
M  V30 170 H 16.8651 4.51055 2.67675 0
M  V30 171 H 18.3391 3.64068 4.14919 0
M  V30 172 H 18.8161 1.95852 3.93114 0
M  V30 173 H 19.4221 3.19579 2.80623 0
M  V30 174 N 17.7372 -0.778329 1.37039 0
M  V30 175 C 18.6692 -1.90034 1.2814 0
M  V30 176 C 19.6822 -1.61585 0.198558 0
M  V30 177 O 20.8712 -1.72625 0.454175 0
M  V30 178 C 17.9712 -3.25108 0.956968 0
M  V30 179 C 17.1442 -3.81253 2.14394 0
M  V30 180 C 16.2032 -4.94789 1.79082 0
M  V30 181 O 15.2292 -5.10721 2.51301 0
M  V30 182 N 16.4312 -5.75878 0.731043 0
M  V30 183 H 19.1962 -1.98186 2.24816 0
M  V30 184 H 16.7572 -0.957129 1.30578 0
M  V30 185 H 18.7492 -3.9857 0.701701 0
M  V30 186 H 17.3192 -3.125 0.0789812 0
M  V30 187 H 16.5392 -2.99647 2.56135 0
M  V30 188 H 17.8272 -4.15495 2.93668 0
M  V30 189 H 17.2252 -5.65547 0.131618 0
M  V30 190 H 15.7822 -6.49596 0.535622 0
M  V30 191 N 19.2153 -1.21501 -1.00376 0
M  V30 192 C 20.1783 -0.976927 -2.07337 0
M  V30 193 C 21.1783 0.0525322 -1.60714 0
M  V30 194 O 22.3683 -0.184869 -1.73216 0
M  V30 195 C 19.5003 -0.473423 -3.37597 0
M  V30 196 H 20.6933 -1.92587 -2.29892 0
M  V30 197 H 18.2463 -1.03217 -1.17371 0
M  V30 198 H 18.9813 0.480379 -3.20722 0
M  V30 199 H 18.7663 -1.216 -3.72768 0
M  V30 200 H 20.2563 -0.32675 -4.1632 0
M  V30 201 N 20.6934 1.19889 -1.02296 0
M  V30 202 C 21.9414 1.89046 -0.714558 0
M  V30 203 C 22.2624 1.79636 0.758681 0
M  V30 204 O 21.5324 1.20292 1.54618 0
M  V30 205 H 20.1124 0.699802 -0.261317 0
M  V30 206 H 22.7744 1.45574 -1.29592 0
M  V30 207 H 21.8704 2.95524 -1.0036 0
M  V30 208 N 22.1715 0.800033 1.35784 0
M  V30 209 C 23.1185 0.203848 2.29898 0
M  V30 210 C 24.0885 -0.658375 1.52495 0
M  V30 211 O 25.2735 -0.604832 1.8096 0
M  V30 212 C 22.4135 -0.64688 3.38983 0
M  V30 213 C 21.5265 0.235054 4.3136 0
M  V30 214 C 20.6615 -0.623054 5.27533 0
M  V30 215 C 19.7005 0.259682 6.11549 0
M  V30 216 N 18.8375 -0.558019 6.99879 0
M  V30 217 H 23.6775 1.01186 2.80295 0
M  V30 218 H 21.2145 0.51053 1.37957 0
M  V30 219 H 23.1725 -1.15521 4.00887 0
M  V30 220 H 21.8025 -1.42021 2.89879 0
M  V30 221 H 20.8545 0.861438 3.70518 0
M  V30 222 H 22.1665 0.914768 4.9034 0
M  V30 223 H 21.3205 -1.19678 5.94779 0
M  V30 224 H 20.0595 -1.33636 4.69034 0
M  V30 225 H 19.0645 0.845726 5.43256 0
M  V30 226 H 20.2895 0.970748 6.72126 0
M  V30 227 H 18.2355 -1.25542 6.43875 0
M  V30 228 H 18.1525 0.0637872 7.55973 0
M  V30 229 H 19.4205 -1.11523 7.71481 0
M  V30 230 N 23.6496 -1.47581 0.552962 0
M  V30 231 C 24.8956 -2.02782 0.0273648 0
M  V30 232 C 25.2286 -1.42687 -1.31734 0
M  V30 233 O 24.5036 -0.580897 -1.85623 0
M  V30 234 C 24.7866 -3.60031 -0.0702371 0
M  V30 235 C 24.6396 -4.30566 1.30126 0
M  V30 236 C 25.9586 -4.33028 -0.785771 0
M  V30 237 H 23.0776 -0.736912 0.0114185 0
M  V30 238 H 25.7196 -1.76056 0.714432 0
M  V30 239 H 23.8696 -3.82932 -0.655382 0
M  V30 240 H 25.5416 -4.19018 1.92929 0
M  V30 241 H 23.7846 -3.91086 1.87709 0
M  V30 242 H 24.4556 -5.39114 1.18573 0
M  V30 243 H 26.9316 -4.15095 -0.288982 0
M  V30 244 H 25.8076 -5.42695 -0.823013 0
M  V30 245 H 26.0686 -4.01945 -1.841 0
M  V30 246 N 25.1277 -0.289203 -1.54924 0
M  V30 247 C 26.0597 0.625583 -2.20497 0
M  V30 248 C 27.0727 1.10667 -1.19402 0
M  V30 249 O 28.2617 1.02615 -1.46056 0
M  V30 250 C 25.3617 1.86702 -2.82835 0
M  V30 251 C 24.5347 1.5304 -4.09753 0
M  V30 252 C 23.5937 2.62576 -4.56005 0
M  V30 253 O 22.6197 2.28167 -5.21468 0
M  V30 254 N 23.8217 3.92901 -4.27328 0
M  V30 255 H 26.5867 0.0642801 -2.99631 0
M  V30 256 H 24.1477 -0.110896 -1.6152 0
M  V30 257 H 26.1397 2.59304 -3.10715 0
M  V30 258 H 24.7097 2.33702 -2.07611 0
M  V30 259 H 23.9297 0.637564 -3.8901 0
M  V30 260 H 25.2177 1.28072 -4.92418 0
M  V30 261 H 24.6157 4.23671 -3.74859 0
M  V30 262 H 23.1727 4.61837 -4.59946 0
M  V30 263 N 26.6058 1.57591 -0.0167156 0
M  V30 264 C 27.5158 2.1291 0.98521 0
M  V30 265 C 28.5318 1.07834 1.36557 0
M  V30 266 O 29.7078 1.39826 1.44951 0
M  V30 267 C 26.7728 2.63512 2.25305 0
M  V30 268 C 25.8338 3.83256 1.93426 0
M  V30 269 C 25.0668 4.31435 3.14165 0
M  V30 270 O 25.2898 3.78851 4.26413 0
M  V30 271 O 24.2238 5.23416 2.97186 0
M  V30 272 H 28.0498 2.98772 0.544888 0
M  V30 273 H 25.6348 1.48012 0.203141 0
M  V30 274 H 27.5168 2.96183 2.99756 0
M  V30 275 H 26.1918 1.8074 2.68542 0
M  V30 276 H 25.0988 3.55531 1.16398 0
M  V30 277 H 26.4318 4.67153 1.55013 0
M  V30 278 N 28.0839 -0.256276 1.55502 0
M  V30 279 C 29.0469 -1.30047 1.88734 0
M  V30 280 C 30.0469 -1.4154 0.763086 0
M  V30 281 O 31.2369 -1.40403 1.03115 0
M  V30 282 C 28.3689 -2.67953 2.10747 0
M  V30 283 H 29.5619 -1.01802 2.82093 0
M  V30 284 H 27.1149 -0.495134 1.4825 0
M  V30 285 H 27.8499 -3.01351 1.19825 0
M  V30 286 H 27.6349 -2.60993 2.92617 0
M  V30 287 H 29.1249 -3.43368 2.37673 0
M  V30 288 N 29.562 -1.4872 -0.521534 0
M  V30 289 C 30.494 -1.59968 -1.64143 0
M  V30 290 C 31.507 -0.483463 -1.55456 0
M  V30 291 O 32.696 -0.75467 -1.61762 0
M  V30 292 C 29.796 -1.52127 -3.02838 0
M  V30 293 C 28.969 -2.78932 -3.36921 0
M  V30 294 C 28.028 -2.64428 -4.54933 0
M  V30 295 O 27.054 -3.38331 -4.57735 0
M  V30 296 N 28.256 -1.74606 -5.53618 0
M  V30 297 H 31.021 -2.56548 -1.54929 0
M  V30 298 H 28.582 -1.45551 -0.708988 0
M  V30 299 H 30.574 -1.40106 -3.79674 0
M  V30 300 H 29.144 -0.634868 -3.06085 0
M  V30 301 H 28.364 -3.05455 -2.4918 0
M  V30 302 H 29.652 -3.63041 -3.56481 0
M  V30 303 H 29.05 -1.13782 -5.54139 0
M  V30 304 H 27.607 -1.6852 -6.29638 0
M  V30 305 N 31.0401 0.771051 -1.3745 0
M  V30 306 C 32.3171 1.519 -1.23231 0
M  V30 307 C 32.6971 2.10383 0.173809 0
M  V30 308 O 32.0451 1.95583 1.18151 0
M  V30 309 C 32.2551 2.59933 -2.32886 0
M  V30 310 C 33.6031 3.27316 -2.70461 0
M  V30 311 O 34.6271 2.70228 -2.32068 0
M  V30 312 O 33.4861 4.30531 -3.36608 0
M  V30 313 H 30.5801 0.672803 -0.480901 0
M  V30 314 H 33.1261 0.807957 -1.49232 0
M  V30 315 H 31.8981 2.14842 -3.27045 0
M  V30 316 H 31.5211 3.38637 -2.08353 0
M  V30 317 N 32.5182 1.22032 0.997298 0
M  V30 318 C 33.7432 1.06921 1.77715 0
M  V30 319 C 34.1682 -0.376226 1.84299 0
M  V30 320 O 33.5262 -1.27165 1.29223 0
M  V30 321 C 33.5742 1.67996 3.19076 0
M  V30 322 O 32.6782 0.930653 4.01762 0
M  V30 323 H 32.0192 0.375814 0.547412 0
M  V30 324 H 34.5492 1.61737 1.25309 0
M  V30 325 H 34.5592 1.72538 3.69723 0
M  V30 326 H 33.2342 2.73182 3.13599 0
M  V30 327 H 31.8112 0.960917 3.60307 0
M  V30 328 N 33.9963 -1.19345 1.0293 0
M  V30 329 C 35.2733 -1.84811 0.640642 0
M  V30 330 C 35.6533 -1.91855 -0.88062 0
M  V30 331 O 35.0013 -1.43587 -1.7775 0
M  V30 332 C 35.2113 -3.23755 1.30321 0
M  V30 333 C 36.5593 -3.99912 1.42673 0
M  V30 334 O 37.5833 -3.33155 1.26041 0
M  V30 335 O 36.4423 -5.19494 1.6967 0
M  V30 336 H 33.5363 -0.796443 0.222726 0
M  V30 337 H 36.0823 -1.26831 1.12748 0
M  V30 338 H 34.8543 -3.13466 2.34211 0
M  V30 339 H 34.4773 -3.89381 0.804261 0
M  V30 340 N 35.4744 -0.807222 -1.35358 0
M  V30 341 C 36.6994 -0.399309 -2.0352 0
M  V30 342 C 37.1244 0.981986 -1.60433 0
M  V30 343 O 36.4824 1.63601 -0.781299 0
M  V30 344 C 36.5304 -0.491552 -3.57234 0
M  V30 345 O 35.6344 0.494754 -4.09421 0
M  V30 346 H 34.9754 -0.166682 -0.642739 0
M  V30 347 H 37.5054 -1.09328 -1.72941 0
M  V30 348 H 37.5154 -0.361588 -4.06395 0
M  V30 349 H 36.1904 -1.49907 -3.87944 0
M  V30 350 H 34.7674 0.324977 -3.71481 0
M  V30 351 N 36.9525 1.47285 -0.560781 0
M  V30 352 C 38.2295 1.9558 0.0277798 0
M  V30 353 C 38.6095 1.5034 1.48192 0
M  V30 354 O 37.9575 0.743882 2.16052 0
M  V30 355 C 38.1675 3.48789 -0.121418 0
M  V30 356 C 39.5155 4.24594 0.0220912 0
M  V30 357 O 40.5395 3.56166 -0.0491439 0
M  V30 358 O 39.3985 5.46217 0.175958 0
M  V30 359 H 36.4925 0.824663 0.0621342 0
M  V30 360 H 39.0385 1.5767 -0.627556 0
M  V30 361 H 37.8105 3.74533 -1.13316 0
M  V30 362 H 37.4335 3.93473 0.571366 0
M  V30 363 N 38.4306 0.297415 1.54768 0
M  V30 364 C 39.6556 -0.318435 2.04941 0
M  V30 365 C 40.0806 -1.4701 1.17345 0
M  V30 366 O 39.4386 -1.80436 0.176758 0
M  V30 367 C 39.4866 -0.755749 3.52592 0
M  V30 368 O 38.5906 -1.86088 3.68028 0
M  V30 369 H 37.9316 -0.062421 0.661059 0
M  V30 370 H 40.4616 0.438215 1.99852 0
M  V30 371 H 40.4716 -1.04552 3.94376 0
M  V30 372 H 39.1466 0.0867233 4.1581 0
M  V30 373 H 37.7236 -1.57193 3.38149 0
M  V30 374 N 39.9087 -1.5758 0.0250728 0
M  V30 375 C 40.8187 -2.1343 -0.973905 0
M  V30 376 C 41.8347 -1.08556 -1.35984 0
M  V30 377 O 43.0107 -1.40592 -1.44207 0
M  V30 378 C 40.0757 -2.64703 -2.23904 0
M  V30 379 C 39.1367 -3.84276 -1.91391 0
M  V30 380 C 38.3697 -4.33095 -3.11873 0
M  V30 381 O 38.5927 -3.81107 -4.24398 0
M  V30 382 O 37.5267 -5.24984 -2.94406 0
M  V30 383 H 41.3527 -2.99057 -0.529036 0
M  V30 384 H 38.9377 -1.48118 -0.195288 0
M  V30 385 H 40.8197 -2.97769 -2.98181 0
M  V30 386 H 39.4947 -1.82161 -2.6758 0
M  V30 387 H 38.4017 -3.56143 -1.14511 0
M  V30 388 H 39.7347 -4.67968 -1.52534 0
M  V30 389 N 41.3868 0.248026 -1.55636 0
M  V30 390 C 42.6348 0.974295 -1.77065 0
M  V30 391 C 42.9558 1.85897 -0.588849 0
M  V30 392 O 42.2258 1.91868 0.395407 0
M  V30 393 H 40.8058 0.362733 -0.653019 0
M  V30 394 H 43.4678 0.266244 -1.93073 0
M  V30 395 H 42.5638 1.59667 -2.68166 0
M  V30 396 N 42.8649 1.48995 0.513639 0
M  V30 397 C 44.1129 1.57531 1.26604 0
M  V30 398 C 44.4339 0.258236 1.93283 0
M  V30 399 O 43.7039 -0.721502 1.8213 0
M  V30 400 H 42.2839 0.580387 0.470276 0
M  V30 401 H 44.9459 1.85552 0.596373 0
M  V30 402 H 44.0419 2.36486 2.03669 0
M  V30 403 N 44.343 -0.763751 1.37857 0
M  V30 404 C 45.306 -1.85889 1.34081 0
M  V30 405 C 46.306 -1.58949 0.243277 0
M  V30 406 O 47.496 -1.66882 0.499589 0
M  V30 407 C 44.628 -3.23176 1.08489 0
M  V30 408 H 45.821 -1.90648 2.31502 0
M  V30 409 H 43.374 -0.964367 1.23003 0
M  V30 410 H 44.109 -3.24091 0.116318 0
M  V30 411 H 43.894 -3.44124 1.8794 0
M  V30 412 H 45.384 -4.03254 1.08517 0
M  V30 413 N 45.8211 -1.22559 -0.990812 0
M  V30 414 C 46.7841 -0.998863 -2.0629 0
M  V30 415 C 47.7841 0.0354834 -1.60761 0
M  V30 416 O 48.9741 -0.203231 -1.7301 0
M  V30 417 C 46.1061 -0.509203 -3.37076 0
M  V30 418 H 47.2991 -1.95014 -2.27837 0
M  V30 419 H 44.8521 -1.04456 -1.16269 0
M  V30 420 H 45.5871 0.446335 -3.21214 0
M  V30 421 H 45.3721 -1.25547 -3.71457 0
M  V30 422 H 46.8621 -0.370888 -4.1595 0
M  V30 423 N 47.2992 1.18797 -1.03562 0
M  V30 424 C 48.5472 1.88278 -0.734569 0
M  V30 425 C 48.8682 1.8043 0.739586 0
M  V30 426 O 48.1382 1.21925 1.53333 0
M  V30 427 H 46.7182 0.696991 -0.268725 0
M  V30 428 H 49.3802 1.44192 -1.31129 0
M  V30 429 H 48.4762 2.94443 -1.03489 0
M  V30 430 N 48.7773 0.814389 1.34928 0
M  V30 431 C 50.0253 0.397636 1.9815 0
M  V30 432 C 50.3463 -1.04069 1.64908 0
M  V30 433 O 49.6163 -1.72121 0.93548 0
M  V30 434 H 48.1963 0.144043 0.732981 0
M  V30 435 H 50.8583 1.04195 1.6471 0
M  V30 436 H 49.9543 0.509688 3.0791 0
M  V30 437 N 50.2554 -1.46986 0.568584 0
M  V30 438 C 51.1654 -2.33942 -0.17555 0
M  V30 439 C 52.1814 -1.48891 -0.90041 0
M  V30 440 O 53.3574 -1.81794 -0.86676 0
M  V30 441 C 50.4224 -3.25811 -1.18524 0
M  V30 442 C 49.4834 -4.26757 -0.466582 0
M  V30 443 C 48.7164 -5.14236 -1.42817 0
M  V30 444 O 48.9394 -5.04379 -2.66379 0
M  V30 445 O 47.8734 -5.94412 -0.946453 0
M  V30 446 H 51.6994 -2.98896 0.538036 0
M  V30 447 H 49.2844 -1.4573 0.329097 0
M  V30 448 H 51.1664 -3.82527 -1.76779 0
M  V30 449 H 49.8414 -2.63471 -1.88055 0
M  V30 450 H 48.7484 -3.73769 0.157451 0
M  V30 451 H 50.0814 -4.91843 0.187485 0
M  V30 452 N 51.7335 -0.305618 -1.54608 0
M  V30 453 C 52.6965 0.555591 -2.22364 0
M  V30 454 C 53.6965 1.05768 -1.21119 0
M  V30 455 O 54.8865 0.952972 -1.45822 0
M  V30 456 C 52.0185 1.76974 -2.91364 0
M  V30 457 H 53.2115 -0.0364572 -2.99878 0
M  V30 458 H 50.7645 -0.0565007 -1.56198 0
M  V30 459 H 51.4995 2.40151 -2.17941 0
M  V30 460 H 51.2845 1.41732 -3.65588 0
M  V30 461 H 52.7745 2.38148 -3.43038 0
M  V30 462 N 53.2116 1.57565 -0.0334293 0
M  V30 463 C 54.4886 1.83282 0.683163 0
M  V30 464 C 54.8686 0.91823 1.90084 0
M  V30 465 O 54.2166 -0.025113 2.28486 0
M  V30 466 C 54.4266 3.32599 1.0573 0
M  V30 467 C 55.7746 3.99179 1.44711 0
M  V30 468 O 56.7986 3.3712 1.15015 0
M  V30 469 O 55.6576 5.08565 2.0006 0
M  V30 470 H 52.7516 0.755869 0.335546 0
M  V30 471 H 55.2976 1.69589 -0.0614402 0
M  V30 472 H 54.0696 3.90834 0.190828 0
M  V30 473 H 53.6926 3.51415 1.85993 0
M  V30 474 N 54.6897 -0.239769 1.55765 0
M  V30 475 C 55.6227 -1.32356 1.85895 0
M  V30 476 C 56.6007 -1.46053 0.714662 0
M  V30 477 O 57.7847 -1.62154 0.961157 0
M  V30 478 C 54.9117 -2.6962 2.04994 0
M  V30 479 C 53.9577 -2.73036 3.27648 0
M  V30 480 S 54.7907 -2.28929 4.84099 0
M  V30 481 C 55.9467 -3.68103 5.06212 0
M  V30 482 H 56.1797 -1.06601 2.77531 0
M  V30 483 H 53.7127 -0.441112 1.47965 0
M  V30 484 H 55.6707 -3.48653 2.16682 0
M  V30 485 H 54.3317 -2.92609 1.14188 0
M  V30 486 H 53.5247 -3.7386 3.38 0
M  V30 487 H 53.1267 -2.02052 3.14723 0
M  V30 488 H 55.4187 -4.63656 4.93993 0
M  V30 489 H 56.3617 -3.6268 6.08168 0
M  V30 490 H 56.7697 -3.60947 4.34025 0
M  V30 491 N 56.1678 -1.49265 -0.50573 0
M  V30 492 C 57.4448 -1.49012 -1.26707 0
M  V30 493 C 57.8248 -0.215205 -2.1 0
M  V30 494 O 57.1728 0.802547 -2.13943 0
M  V30 495 C 57.3828 -2.7663 -2.12783 0
M  V30 496 C 58.7308 -3.25932 -2.72127 0
M  V30 497 O 59.7548 -2.77715 -2.23054 0
M  V30 498 O 58.6138 -4.09897 -3.61451 0
M  V30 499 H 55.7078 -0.596197 -0.57313 0
M  V30 500 H 58.2538 -1.61524 -0.52039 0
M  V30 501 H 57.0258 -3.60916 -1.5118 0
M  V30 502 H 56.6488 -2.66956 -2.94653 0
M  V30 503 N 57.6459 0.756429 -1.3826 0
M  V30 504 C 58.8929 1.51547 -1.34312 0
M  V30 505 C 59.2209 1.94382 0.0677144 0
M  V30 506 O 58.4759 1.65514 1.04421 0
M  V30 507 C 58.7749 2.78313 -2.24224 0
M  V30 508 C 58.4409 2.54455 -3.72241 0
M  V30 509 C 57.1029 2.47657 -4.12576 0
M  V30 510 C 59.4549 2.3354 -4.65949 0
M  V30 511 C 56.7829 2.17956 -5.44713 0
M  V30 512 C 59.1349 2.05359 -5.9834 0
M  V30 513 C 57.7989 1.97016 -6.37762 0
M  V30 514 H 57.0689 0.55455 -0.491482 0
M  V30 515 H 59.7159 0.870039 -1.70595 0
M  V30 516 H 58.0209 3.47492 -1.80987 0
M  V30 517 H 59.7179 3.36259 -2.18474 0
M  V30 518 H 56.3079 2.60616 -3.40261 0
M  V30 519 H 60.4919 2.37772 -4.35635 0
M  V30 520 H 55.7479 2.10003 -5.74203 0
M  V30 521 H 59.9219 1.88179 -6.70494 0
M  V30 522 H 57.5489 1.73766 -7.40074 0
M  V30 523 N 59.124 1.23083 0.984299 0
M  V30 524 C 60.054 1.03292 2.09411 0
M  V30 525 C 61.035 -0.048923 1.7003 0
M  V30 526 O 62.22 0.114967 1.93859 0
M  V30 527 C 59.35 0.619155 3.41736 0
M  V30 528 C 58.304 1.64791 3.95004 0
M  V30 529 C 57.63 1.0897 5.23478 0
M  V30 530 C 58.93 3.03999 4.24714 0
M  V30 531 H 60.624 1.96119 2.26225 0
M  V30 532 H 58.17 0.944344 1.08711 0
M  V30 533 H 60.123 0.467777 4.18796 0
M  V30 534 H 58.847 -0.344786 3.24775 0
M  V30 535 H 57.506 1.78721 3.20085 0
M  V30 536 H 57.154 0.11686 5.02864 0
M  V30 537 H 56.854 1.77704 5.60085 0
M  V30 538 H 58.378 0.950093 6.03163 0
M  V30 539 H 59.792 2.93393 4.92538 0
M  V30 540 H 58.189 3.69936 4.72512 0
M  V30 541 H 59.259 3.53285 3.32142 0
M  V30 542 N 60.6021 -1.18246 1.0419 0
M  V30 543 C 62.0181 -1.40269 0.761366 0
M  V30 544 C 62.2181 -1.90777 -0.648578 0
M  V30 545 O 61.2741 -2.0929 -1.41258 0
M  V30 546 C 62.5871 -2.40237 1.8085 0
M  V30 547 C 64.1351 -2.53961 1.82955 0
M  V30 548 C 64.6101 -3.57194 2.86664 0
M  V30 549 N 66.1011 -3.64702 2.85563 0
M  V30 550 C 66.8361 -4.44309 3.6246 0
M  V30 551 N 66.3321 -5.27514 4.49111 0
M  V30 552 N 68.1251 -4.39084 3.50944 0
M  V30 553 H 60.2761 -0.837882 1.95175 0
M  V30 554 H 62.5391 -0.430608 0.84456 0
M  V30 555 H 62.2451 -2.10176 2.81991 0
M  V30 556 H 62.1191 -3.39601 1.64168 0
M  V30 557 H 64.5061 -2.83338 0.824855 0
M  V30 558 H 64.5871 -1.54706 2.03715 0
M  V30 559 H 64.2311 -3.28558 3.87314 0
M  V30 560 H 64.1611 -4.5613 2.6316 0
M  V30 561 H 66.6521 -3.05289 2.22727 0
M  V30 562 H 66.9651 -5.85411 5.04493 0
M  V30 563 H 65.3101 -5.2693 4.53178 0
M  V30 564 H 68.5011 -3.7313 2.82651 0
M  V30 565 H 68.6741 -5.00883 4.11121 0
M  V30 566 N 62.0802 -0.821533 -1.34494 0
M  V30 567 C 63.0282 -0.230702 -2.31453 0
M  V30 568 C 64.0222 0.627793 -1.57338 0
M  V30 569 O 65.2282 0.519288 -1.72347 0
M  V30 570 H 61.6032 -0.0558577 -0.749923 0
M  V30 571 H 63.5742 -1.06332 -2.78812 0
M  V30 572 C 62.3232 0.59391 -3.4259 0
M  V30 573 H 61.6462 -0.0573588 -3.99759 0
M  V30 574 H 63.0862 0.973446 -4.12674 0
M  V30 575 C 61.5452 1.76568 -2.86924 0
M  V30 576 O 62.0752 2.8638 -2.81691 0
M  V30 577 N 60.2812 1.58198 -2.43766 0
M  V30 578 H 59.8282 0.68872 -2.48222 0
M  V30 579 H 59.7862 2.36752 -2.06871 0
M  V30 580 N 63.5583 1.46682 -0.576371 0
M  V30 581 C 64.4883 2.33028 0.148397 0
M  V30 582 C 65.4693 1.44961 0.889956 0
M  V30 583 O 66.6543 1.73789 0.866662 0
M  V30 584 C 63.7843 3.27117 1.1667 0
M  V30 585 C 62.7383 4.24575 0.540386 0
M  V30 586 C 62.0643 5.08126 1.6647 0
M  V30 587 C 63.3643 5.19722 -0.518331 0
M  V30 588 H 65.0583 2.93875 -0.572509 0
M  V30 589 H 62.6043 1.41315 -0.276768 0
M  V30 590 H 64.5573 3.86374 1.68204 0
M  V30 591 H 63.2813 2.64364 1.9178 0
M  V30 592 H 61.9403 3.66571 0.0461769 0
M  V30 593 H 61.5883 4.41762 2.40531 0
M  V30 594 H 61.2883 5.74122 1.25131 0
M  V30 595 H 62.8123 5.70246 2.18293 0
M  V30 596 H 64.2263 5.73232 -0.0883058 0
M  V30 597 H 62.6233 5.94026 -0.851679 0
M  V30 598 H 63.6933 4.64037 -1.40703 0
M  V30 599 N 65.0364 0.313813 1.54444 0
M  V30 600 C 66.2834 -0.291675 2.00388 0
M  V30 601 C 66.6114 -1.52904 1.2021 0
M  V30 602 O 65.8664 -1.93833 0.269707 0
M  V30 603 C 66.1654 -0.680386 3.50864 0
M  V30 604 C 65.8314 0.456699 4.48581 0
M  V30 605 C 64.4934 0.768824 4.75018 0
M  V30 606 C 66.8454 1.22098 5.06697 0
M  V30 607 C 64.1734 1.84812 5.56831 0
M  V30 608 C 66.5254 2.29029 5.89685 0
M  V30 609 C 65.1894 2.60834 6.14428 0
M  V30 610 H 64.4594 -0.106732 0.733273 0
M  V30 611 H 67.1064 0.43557 1.86481 0
M  V30 612 H 65.4114 -1.48791 3.62448 0
M  V30 613 H 67.1084 -1.16026 3.83847 0
M  V30 614 H 63.6984 0.203337 4.28117 0
M  V30 615 H 67.8824 0.993096 4.86263 0
M  V30 616 H 63.1384 2.09912 5.74236 0
M  V30 617 H 67.3124 2.887 6.33739 0
M  V30 618 H 64.9394 3.44596 6.77612 0
M  V30 619 N 66.5145 -1.57545 0.0417849 0
M  V30 620 C 67.7395 -1.97035 -0.647455 0
M  V30 621 C 68.1645 -0.918775 -1.64135 0
M  V30 622 O 67.5225 0.119006 -1.80909 0
M  V30 623 C 67.5705 -3.35609 -1.31905 0
M  V30 624 O 66.6745 -3.3287 -2.43457 0
M  V30 625 H 66.0155 -0.64211 -0.169086 0
M  V30 626 H 68.5455 -2.04318 0.107399 0
M  V30 627 H 68.5555 -3.72126 -1.67291 0
M  V30 628 H 67.2305 -4.11685 -0.590586 0
M  V30 629 H 65.8075 -3.08087 -2.10088 0
M  V30 630 N 67.9926 0.231505 -1.5589 0
M  V30 631 C 68.9246 1.31006 -1.8807 0
M  V30 632 C 69.9376 1.43539 -0.768145 0
M  V30 633 O 71.1266 1.44614 -1.04638 0
M  V30 634 C 68.2266 2.68688 -2.06543 0
M  V30 635 C 67.3996 2.78228 -3.37502 0
M  V30 636 C 66.4586 3.96857 -3.4553 0
M  V30 637 O 65.4846 3.85662 -4.18633 0
M  V30 638 N 66.6866 5.1072 -2.75944 0
M  V30 639 H 69.4516 1.03731 -2.81176 0
M  V30 640 H 67.0126 0.421573 -1.56315 0
M  V30 641 H 69.0046 3.46412 -2.09239 0
M  V30 642 H 67.5746 2.88605 -1.20109 0
M  V30 643 H 66.7946 1.87059 -3.46991 0
M  V30 644 H 68.0826 2.81564 -4.23791 0
M  V30 645 H 67.4806 5.2271 -2.16311 0
M  V30 646 H 66.0376 5.86523 -2.84314 0
M  V30 647 N 69.4707 1.49531 0.497807 0
M  V30 648 C 70.6987 1.62893 1.27567 0
M  V30 649 C 71.1137 0.301585 1.86376 0
M  V30 650 O 70.4707 -0.713335 1.67982 0
M  V30 651 C 70.5217 2.70013 2.40364 0
M  V30 652 O 70.2427 3.976 1.83972 0
M  V30 653 C 71.7437 2.94109 3.31685 0
M  V30 654 H 68.9637 0.548298 0.386794 0
M  V30 655 H 71.5077 1.95584 0.597245 0
M  V30 656 H 69.6627 2.40092 3.04031 0
M  V30 657 H 70.0767 4.56631 2.58047 0
M  V30 658 H 71.5507 3.72788 4.07104 0
M  V30 659 H 72.0277 2.04147 3.88871 0
M  V30 660 H 72.6337 3.2546 2.73781 0
M  V30 661 N 70.9488 -0.749086 1.3866 0
M  V30 662 C 71.8788 -1.8764 1.38973 0
M  V30 663 C 72.8598 -1.68178 0.255004 0
M  V30 664 O 74.0448 -1.88704 0.458754 0
M  V30 665 C 71.1748 -3.25222 1.21851 0
M  V30 666 C 70.1288 -3.59295 2.32575 0
M  V30 667 C 69.4548 -4.95663 2.00555 0
M  V30 668 C 70.7548 -3.63709 3.7485 0
M  V30 669 H 72.4488 -1.87635 2.3331 0
M  V30 670 H 69.9948 -0.901329 1.12303 0
M  V30 671 H 71.9478 -4.03746 1.20695 0
M  V30 672 H 70.6718 -3.25719 0.239775 0
M  V30 673 H 69.3308 -2.83093 2.32925 0
M  V30 674 H 68.9788 -4.92724 1.01154 0
M  V30 675 H 68.6788 -5.19429 2.74714 0
M  V30 676 H 70.2028 -5.7656 2.01024 0
M  V30 677 H 71.6168 -4.32338 3.76506 0
M  V30 678 H 70.0138 -3.98986 4.48252 0
M  V30 679 H 71.0838 -2.63834 4.06841 0
M  V30 680 N 72.4269 -1.23603 -0.977757 0
M  V30 681 C 73.6519 -1.09735 -1.75991 0
M  V30 682 C 74.0769 0.346858 -1.84874 0
M  V30 683 O 73.4349 1.25093 -1.3123 0
M  V30 684 C 73.4829 -1.73051 -3.16363 0
M  V30 685 O 72.5869 -0.994452 -4.0023 0
M  V30 686 H 71.9279 -0.384476 -0.541364 0
M  V30 687 H 74.4579 -1.6371 -1.2272 0
M  V30 688 H 74.4679 -1.78398 -3.66931 0
M  V30 689 H 73.1429 -2.78137 -3.09213 0
M  V30 690 H 71.7199 -1.01812 -3.58732 0
M  V30 691 N 73.905 1.17692 -1.04816 0
M  V30 692 C 74.835 2.23777 -0.666791 0
M  V30 693 C 75.816 1.66796 0.33361 0
M  V30 694 O 77.001 1.93039 0.212042 0
M  V30 695 C 74.131 3.47281 -0.0367933 0
M  V30 696 C 73.085 4.17059 -0.961546 0
M  V30 697 C 72.411 5.34342 -0.195626 0
M  V30 698 C 73.711 4.69713 -2.28402 0
M  V30 699 H 75.405 2.55933 -1.55367 0
M  V30 700 H 72.951 1.23019 -0.748484 0
M  V30 701 H 74.904 4.20706 0.241775 0
M  V30 702 H 73.628 3.14381 0.885004 0
M  V30 703 H 72.287 3.45541 -1.22462 0
M  V30 704 H 71.935 4.97692 0.728816 0
M  V30 705 H 71.635 5.81966 -0.811775 0
M  V30 706 H 73.159 6.10553 0.0757473 0
M  V30 707 H 74.573 5.34794 -2.06563 0
M  V30 708 H 72.97 5.279 -2.8538 0
M  V30 709 H 74.04 3.86726 -2.92525 0
M  V30 710 N 75.3831 0.828654 1.34056 0
M  V30 711 C 76.6311 0.41863 1.97717 0
M  V30 712 C 76.9521 -1.02314 1.66002 0
M  V30 713 O 76.2221 -1.71119 0.953683 0
M  V30 714 H 74.8021 0.151809 0.731412 0
M  V30 715 H 77.4641 1.05936 1.63596 0
M  V30 716 H 76.5601 0.542318 3.07352 0
M  V30 717 N 76.8612 -1.46375 0.584142 0
M  V30 718 C 78.0862 -2.07268 0.0740405 0
M  V30 719 C 78.5112 -1.42979 -1.22223 0
M  V30 720 O 77.8692 -0.514092 -1.73859 0
M  V30 721 C 77.9172 -3.60518 -0.0767769 0
M  V30 722 O 77.0212 -3.96533 -1.13292 0
M  V30 723 H 76.3622 -0.660961 0.0634524 0
M  V30 724 H 78.8922 -1.87991 0.807492 0
M  V30 725 H 78.9022 -4.07021 -0.282489 0
M  V30 726 H 77.5772 -4.06702 0.86986 0
M  V30 727 H 76.1542 -3.61738 -0.905553 0
M  V30 728 N 78.3393 -0.321999 -1.54275 0
M  V30 729 C 79.2713 0.578671 -2.21775 0
M  V30 730 C 80.2843 1.08109 -1.21722 0
M  V30 731 O 81.4733 0.994938 -1.482 0
M  V30 732 C 78.5733 1.80661 -2.86731 0
M  V30 733 C 77.7463 1.44314 -4.12907 0
M  V30 734 C 76.8053 2.52845 -4.61472 0
M  V30 735 O 75.8313 2.17054 -5.2619 0
M  V30 736 N 77.0333 3.83748 -4.35566 0
M  V30 737 H 79.7983 0.000709447 -2.997 0
M  V30 738 H 77.3593 -0.145132 -1.61248 0
M  V30 739 H 79.3513 2.52655 -3.16145 0
M  V30 740 H 77.9213 2.29245 -2.12521 0
M  V30 741 H 77.1413 0.554906 -3.90275 0
M  V30 742 H 78.4293 1.17598 -4.95023 0
M  V30 743 H 77.8273 4.15625 -3.83761 0
M  V30 744 H 76.3843 4.51977 -4.69638 0
M  V30 745 N 79.8174 1.5752 -0.0501392 0
M  V30 746 C 80.7644 2.1147 0.924603 0
M  V30 747 C 81.7344 1.02182 1.30951 0
M  V30 748 O 82.9194 1.29723 1.39916 0
M  V30 749 C 80.0594 2.66337 2.19451 0
M  V30 750 C 79.1724 3.89708 1.86418 0
M  V30 751 C 78.3074 4.32893 3.07859 0
M  V30 752 C 77.3464 5.48967 2.70742 0
M  V30 753 N 76.4834 5.87211 3.84874 0
M  V30 754 H 81.3234 2.94465 0.457639 0
M  V30 755 H 78.8604 1.45531 0.214266 0
M  V30 756 H 80.8184 2.96247 2.93758 0
M  V30 757 H 79.4484 1.86141 2.63726 0
M  V30 758 H 78.5004 3.66396 1.02264 0
M  V30 759 H 79.8124 4.74074 1.55096 0
M  V30 760 H 78.9664 4.6435 3.90466 0
M  V30 761 H 77.7054 3.47336 3.42358 0
M  V30 762 H 76.7104 5.17183 1.86551 0
M  V30 763 H 77.9354 6.3624 2.37436 0
M  V30 764 H 75.8814 5.04607 4.19175 0
M  V30 765 H 75.7984 6.66266 3.57247 0
M  V30 766 H 77.0664 6.23282 4.68123 0
M  V30 767 N 81.2955 -0.223234 1.56011 0
M  V30 768 C 82.2055 -1.29766 1.95443 0
M  V30 769 C 83.2215 -1.51373 0.858028 0
M  V30 770 O 84.3975 -1.64536 1.16146 0
M  V30 771 C 81.4625 -2.62772 2.26167 0
M  V30 772 C 80.5235 -2.49482 3.49367 0
M  V30 773 C 79.7565 -3.76145 3.78616 0
M  V30 774 O 79.9795 -4.79087 3.09568 0
M  V30 775 O 78.9135 -3.73358 4.72109 0
M  V30 776 H 82.7395 -0.99309 2.87004 0
M  V30 777 H 80.3245 -0.425958 1.43199 0
M  V30 778 H 82.2065 -3.41327 2.47131 0
M  V30 779 H 80.8815 -2.92913 1.37781 0
M  V30 780 H 79.7885 -1.69133 3.33684 0
M  V30 781 H 81.1215 -2.2428 4.38131 0
M  V30 782 N 82.7736 -1.49793 -0.48987 0
M  V30 783 C 84.1896 -1.36803 -0.822022 0
M  V30 784 C 84.3896 -0.409652 -1.97292 0
M  V30 785 O 83.4456 0.154614 -2.52026 0
M  V30 786 C 84.7586 -2.77768 -1.15175 0
M  V30 787 C 86.3066 -2.86549 -1.25931 0
M  V30 788 C 86.7816 -4.28306 -1.62228 0
M  V30 789 N 88.2726 -4.31169 -1.69256 0
M  V30 790 C 89.0076 -5.37832 -1.98807 0
M  V30 791 N 88.5036 -6.54726 -2.26507 0
M  V30 792 N 90.2966 -5.25258 -2.00152 0
M  V30 793 H 82.4476 -2.10691 0.268881 0
M  V30 794 H 84.7106 -0.946241 0.057728 0
M  V30 795 H 84.4166 -3.49648 -0.379335 0
M  V30 796 H 84.2906 -3.13836 -2.09253 0
M  V30 797 H 86.6776 -2.14899 -2.02243 0
M  V30 798 H 86.7586 -2.54049 -0.298776 0
M  V30 799 H 86.4026 -5.00486 -0.864622 0
M  V30 800 H 86.3326 -4.58279 -2.594 0
M  V30 801 H 88.8236 -3.4687 -1.49965 0
M  V30 802 H 89.1366 -7.31833 -2.48276 0
M  V30 803 H 87.4816 -6.57933 -2.23939 0
M  V30 804 H 90.6726 -4.32938 -1.77996 0
M  V30 805 H 90.8456 -6.08476 -2.22848 0
M  V30 806 N 84.2517 0.741722 -1.39055 0
M  V30 807 C 85.1817 1.869 -1.39966 0
M  V30 808 C 86.1627 1.6804 -0.26392 0
M  V30 809 O 87.3477 1.88458 -0.468755 0
M  V30 810 C 84.4777 3.24572 -1.23574 0
M  V30 811 C 83.4317 3.58056 -2.34477 0
M  V30 812 C 82.7577 4.94593 -2.0318 0
M  V30 813 C 84.0577 3.61716 -3.76774 0
M  V30 814 H 85.7517 1.86395 -2.34302 0
M  V30 815 H 83.2977 0.895361 -1.1278 0
M  V30 816 H 85.2507 4.031 -1.22834 0
M  V30 817 H 83.9747 3.25587 -0.257045 0
M  V30 818 H 82.6337 2.81854 -2.34423 0
M  V30 819 H 82.2817 4.92181 -1.03765 0
M  V30 820 H 81.9817 5.17964 -2.77465 0
M  V30 821 H 83.5057 5.75486 -2.04079 0
M  V30 822 H 84.9197 4.30335 -3.78794 0
M  V30 823 H 83.3167 3.96603 -4.50362 0
M  V30 824 H 84.3867 2.61672 -4.08235 0
M  V30 825 N 85.7298 1.2412 0.971189 0
M  V30 826 C 86.6598 1.05508 2.08304 0
M  V30 827 C 87.6408 -0.0308864 1.70072 0
M  V30 828 O 88.8258 0.135521 1.93727 0
M  V30 829 C 85.9558 0.655365 3.4106 0
M  V30 830 C 84.9098 1.68971 3.93234 0
M  V30 831 C 84.2358 1.14516 5.22293 0
M  V30 832 C 85.5358 3.08487 4.21465 0
M  V30 833 H 87.2298 1.98507 2.24132 0
M  V30 834 H 84.7758 0.955821 1.07704 0
M  V30 835 H 86.7288 0.51217 4.18276 0
M  V30 836 H 85.4528 -0.31032 3.25122 0
M  V30 837 H 84.1118 1.82106 3.18171 0
M  V30 838 H 83.7598 0.170189 5.02712 0
M  V30 839 H 83.4598 1.83635 5.58168 0
M  V30 840 H 84.9838 1.01401 6.02121 0
M  V30 841 H 86.3978 2.98601 4.89398 0
M  V30 842 H 84.7948 3.74926 4.68562 0
M  V30 843 H 85.8648 3.56787 3.28376 0
M  V30 844 N 87.2079 -1.17134 1.05439 0
M  V30 845 C 88.4849 -1.83411 0.679699 0
M  V30 846 C 88.8649 -1.9368 -0.839726 0
M  V30 847 O 88.2129 -1.47325 -1.74664 0
M  V30 848 C 88.4229 -3.20918 1.37159 0
M  V30 849 C 89.7709 -3.96796 1.51123 0
M  V30 850 O 90.7949 -3.30406 1.3308 0
M  V30 851 O 89.6539 -5.15778 1.80651 0
M  V30 852 H 86.7479 -0.79154 0.239569 0
M  V30 853 H 89.2939 -1.24411 1.15413 0
M  V30 854 H 88.0659 -3.08428 2.40807 0
M  V30 855 H 87.6889 -3.87587 0.886674 0
M  V30 856 N 88.686 -0.835752 -1.33615 0
M  V30 857 C 89.596 -0.269088 -2.33052 0
M  V30 858 C 90.612 0.603251 -1.63208 0
M  V30 859 O 91.788 0.508112 -1.94885 0
M  V30 860 C 88.853 0.549091 -3.42324 0
M  V30 861 C 87.914 -0.347156 -4.27894 0
M  V30 862 C 87.147 0.43207 -5.31948 0
M  V30 863 O 87.37 1.66409 -5.45586 0
M  V30 864 O 86.304 -0.192298 -6.01593 0
M  V30 865 H 90.13 -1.09243 -2.83372 0
M  V30 866 H 87.715 -0.598198 -1.36901 0
M  V30 867 H 89.597 1.01414 -4.09015 0
M  V30 868 H 88.272 1.34955 -2.94226 0
M  V30 869 H 87.179 -0.859979 -3.64081 0
M  V30 870 H 88.512 -1.1123 -4.79467 0
M  V30 871 N 90.1641 1.46063 -0.591896 0
M  V30 872 C 91.0941 2.33172 0.123673 0
M  V30 873 C 92.0751 1.45897 0.87453 0
M  V30 874 O 93.2601 1.74698 0.848181 0
M  V30 875 C 90.3901 3.28336 1.13194 0
M  V30 876 C 89.3441 4.25124 0.495324 0
M  V30 877 C 88.6701 5.09863 1.61071 0
M  V30 878 C 89.9701 5.19143 -0.573425 0
M  V30 879 H 91.6641 2.93252 -0.603646 0
M  V30 880 H 89.2101 1.41014 -0.291741 0
M  V30 881 H 91.1631 3.88137 1.64097 0
M  V30 882 H 89.8871 2.66383 1.88965 0
M  V30 883 H 88.5461 3.66599 0.00729452 0
M  V30 884 H 88.1941 4.44288 2.35832 0
M  V30 885 H 87.8941 5.75417 1.19035 0
M  V30 886 H 89.4181 5.72529 2.12233 0
M  V30 887 H 90.8321 5.73106 -0.1491 0
M  V30 888 H 89.2291 5.93089 -0.914636 0
M  V30 889 H 90.2991 4.62519 -1.45617 0
M  V30 890 N 91.6422 0.330177 1.54103 0
M  V30 891 C 92.8702 -0.272179 2.05102 0
M  V30 892 C 93.2852 -1.45267 1.20595 0
M  V30 893 O 92.6422 -1.8094 0.238144 0
M  V30 894 C 92.6932 -0.70023 3.54653 0
M  V30 895 O 92.4142 0.433301 4.35952 0
M  V30 896 C 93.9152 -1.3647 4.21771 0
M  V30 897 H 91.1352 -0.0549159 0.668749 0
M  V30 898 H 93.6792 0.478285 1.98828 0
M  V30 899 H 91.8342 -1.40066 3.61193 0
M  V30 900 H 92.2482 0.0947539 5.24414 0
M  V30 901 H 93.7222 -1.61509 5.27843 0
M  V30 902 H 94.1992 -2.31409 3.73292 0
M  V30 903 H 94.8052 -0.706675 4.19388 0
M  V30 904 N 93.1203 -1.57491 0.0584922 0
M  V30 905 C 94.0503 -2.14988 -0.911178 0
M  V30 906 C 95.0313 -1.07343 -1.31952 0
M  V30 907 O 96.2163 -1.35318 -1.39294 0
M  V30 908 C 93.3463 -2.70078 -2.18347 0
M  V30 909 C 92.3003 -3.82771 -1.91495 0
M  V30 910 C 91.6263 -4.24408 -3.25241 0
M  V30 911 C 92.9263 -5.07592 -1.23075 0
M  V30 912 H 94.6203 -2.96263 -0.432246 0
M  V30 913 H 92.1663 -1.42512 -0.206469 0
M  V30 914 H 94.1193 -3.08943 -2.86587 0
M  V30 915 H 92.8433 -1.86005 -2.68458 0
M  V30 916 H 91.5023 -3.44389 -1.25664 0
M  V30 917 H 91.1503 -3.37275 -3.73168 0
M  V30 918 H 90.8503 -5.00366 -3.08071 0
M  V30 919 H 92.3743 -4.65879 -3.94701 0
M  V30 920 H 93.7883 -5.43857 -1.81362 0
M  V30 921 H 92.1853 -5.88741 -1.16207 0
M  V30 922 H 93.2553 -4.84454 -0.207847 0
M  V30 923 N 94.5984 0.214957 -1.56127 0
M  V30 924 C 95.5084 1.28727 -1.96129 0
M  V30 925 C 96.5244 1.50916 -0.866044 0
M  V30 926 O 97.7004 1.63918 -1.17016 0
M  V30 927 C 94.7654 2.61569 -2.27558 0
M  V30 928 C 93.8264 2.47625 -3.50685 0
M  V30 929 C 93.0594 3.74132 -3.80606 0
M  V30 930 O 93.2824 4.77438 -3.12104 0
M  V30 931 O 92.2164 3.70849 -4.74083 0
M  V30 932 H 96.0424 0.977855 -2.87527 0
M  V30 933 H 93.6274 0.418358 -1.43423 0
M  V30 934 H 95.5094 3.40012 -2.48938 0
M  V30 935 H 94.1844 2.92178 -1.39332 0
M  V30 936 H 93.0914 1.67361 -3.34576 0
M  V30 937 H 94.4244 2.21954 -4.39315 0
M  V30 938 N 96.0765 1.50051 0.48192 0
M  V30 939 C 97.3245 1.60181 1.23234 0
M  V30 940 C 97.6455 0.299176 1.92691 0
M  V30 941 O 96.9155 -0.682708 1.83619 0
M  V30 942 H 95.4955 0.590232 0.457859 0
M  V30 943 H 98.1575 1.86775 0.556881 0
M  V30 944 H 97.2535 2.40753 1.98607 0
M  V30 945 N 97.5546 -0.734337 1.39446 0
M  V30 946 C 98.8006 -1.49613 1.36908 0
M  V30 947 C 99.1336 -1.94169 -0.0347829 0
M  V30 948 O 98.4086 -1.66833 -0.999847 0
M  V30 949 C 98.6916 -2.73534 2.34203 0
M  V30 950 C 98.5446 -2.34993 3.83534 0
M  V30 951 C 99.8636 -3.75635 2.29317 0
M  V30 952 H 96.9826 -0.542714 0.498629 0
M  V30 953 H 99.6246 -0.839597 1.70443 0
M  V30 954 H 97.7746 -3.29553 2.05736 0
M  V30 955 H 99.4466 -1.84601 4.22753 0
M  V30 956 H 97.6896 -1.67213 4.00278 0
M  V30 957 H 98.3606 -3.23738 4.47099 0
M  V30 958 H 100.837 -3.29203 2.54489 0
M  V30 959 H 99.7126 -4.60008 2.99472 0
M  V30 960 H 99.9736 -4.22603 1.29842 0
M  V30 961 N 99.0327 -1.24633 -0.964593 0
M  V30 962 C 99.9957 -1.0424 -2.04124 0
M  V30 963 C 100.996 0.00137563 -1.608 0
M  V30 964 O 102.186 -0.239883 -1.7254 0
M  V30 965 C 99.3177 -0.580588 -3.3592 0
M  V30 966 H 100.511 -1.99803 -2.23649 0
M  V30 967 H 98.0637 -1.06899 -1.14027 0
M  V30 968 H 98.7987 0.3781 -3.22088 0
M  V30 969 H 98.5837 -1.33398 -3.6871 0
M  V30 970 H 100.074 -0.459034 -4.15069 0
M  V30 971 N 100.511 1.16574 -1.06058 0
M  V30 972 C 101.927 1.3904 -0.783585 0
M  V30 973 C 102.127 1.91784 0.618145 0
M  V30 974 O 101.183 2.11511 1.37911 0
M  V30 975 C 102.496 2.37329 -1.84649 0
M  V30 976 C 104.044 2.51018 -1.86973 0
M  V30 977 C 104.519 3.52588 -2.92311 0
M  V30 978 N 106.01 3.60113 -2.91329 0
M  V30 979 C 106.745 4.38486 -3.69482 0
M  V30 980 N 106.241 5.20302 -4.57447 0
M  V30 981 N 108.034 4.33446 -3.57885 0
M  V30 982 H 100.185 0.806725 -1.96483 0
M  V30 983 H 102.448 0.417117 -0.851303 0
M  V30 984 H 102.154 2.05663 -2.85299 0
M  V30 985 H 102.028 3.36946 -1.6955 0
M  V30 986 H 104.415 2.81989 -0.869827 0
M  V30 987 H 104.496 1.51445 -2.0615 0
M  V30 988 H 104.14 3.22354 -3.92492 0
M  V30 989 H 104.07 4.51886 -2.70383 0
M  V30 990 H 106.561 3.01707 -2.27555 0
M  V30 991 H 106.874 5.77311 -5.13743 0
M  V30 992 H 105.219 5.19653 -4.61503 0
M  V30 993 H 108.41 3.68586 -2.88551 0
M  V30 994 H 108.583 4.94279 -4.19037 0
M  V30 995 N 101.989 0.842826 1.3317 0
M  V30 996 C 103.219 0.453397 2.01564 0
M  V30 997 C 103.627 -0.951147 1.63554 0
M  V30 998 O 102.97 -1.63021 0.846746 0
M  V30 999 C 103.032 0.499013 3.5602 0
M  V30 1000 C 102.696 1.86037 4.1742 0
M  V30 1001 C 103.693 2.82416 4.36506 0
M  V30 1002 C 101.378 2.15428 4.53757 0
M  V30 1003 C 103.372 4.06346 4.91082 0
M  V30 1004 C 101.059 3.39615 5.0804 0
M  V30 1005 C 102.057 4.3489 5.26649 0
M  V30 1006 O 101.745 5.5688 5.79776 0
M  V30 1007 H 101.477 0.177871 0.652179 0
M  V30 1008 H 104.031 1.13808 1.70988 0
M  V30 1009 H 102.261 -0.242467 3.85939 0
M  V30 1010 H 103.95 0.126852 4.05702 0
M  V30 1011 H 104.716 2.6101 4.08777 0
M  V30 1012 H 100.595 1.42061 4.38565 0
M  V30 1013 H 104.139 4.80722 5.05522 0
M  V30 1014 H 100.036 3.60876 5.352 0
M  V30 1015 H 100.804 5.58674 5.98185 0
M  V30 1016 N 103.467 -1.45747 0.599634 0
M  V30 1017 C 104.4 -2.27547 -0.172552 0
M  V30 1018 C 105.378 -1.36657 -0.881116 0
M  V30 1019 O 106.562 -1.66081 -0.891595 0
M  V30 1020 C 103.689 -3.14829 -1.24903 0
M  V30 1021 C 102.735 -4.21603 -0.644465 0
M  V30 1022 S 103.568 -5.32754 0.541606 0
M  V30 1023 C 104.724 -6.23604 -0.535656 0
M  V30 1024 H 104.957 -2.92691 0.521468 0
M  V30 1025 H 102.49 -1.49473 0.386947 0
M  V30 1026 H 104.448 -3.65675 -1.86527 0
M  V30 1027 H 103.109 -2.48965 -1.91508 0
M  V30 1028 H 102.302 -4.82566 -1.45417 0
M  V30 1029 H 101.904 -3.73857 -0.103534 0
M  V30 1030 H 104.196 -6.62519 -1.41686 0
M  V30 1031 H 105.139 -7.0809 0.0376246 0
M  V30 1032 H 105.547 -5.58103 -0.84741 0
M  V30 1033 N 104.945 -0.338344 -1.53925 0
M  V30 1034 C 105.877 0.555117 -2.22376 0
M  V30 1035 C 106.89 1.06812 -1.22862 0
M  V30 1036 O 108.079 0.979163 -1.49247 0
M  V30 1037 C 105.179 1.77609 -2.88631 0
M  V30 1038 C 104.352 1.39927 -4.14414 0
M  V30 1039 C 103.411 2.47936 -4.64127 0
M  V30 1040 O 102.437 2.11461 -5.28463 0
M  V30 1041 N 103.639 3.79107 -4.39612 0
M  V30 1042 H 106.404 -0.0310778 -2.99684 0
M  V30 1043 H 103.965 -0.162226 -1.61085 0
M  V30 1044 H 105.957 2.49287 -3.18807 0
M  V30 1045 H 104.527 2.26978 -2.14941 0
M  V30 1046 H 103.747 0.513481 -3.90841 0
M  V30 1047 H 105.035 1.12341 -4.96243 0
M  V30 1048 H 104.433 4.11531 -3.88148 0
M  V30 1049 H 102.99 4.4697 -4.74406 0
M  V30 1050 N 106.423 1.57458 -0.0668435 0
M  V30 1051 C 107.648 1.9804 0.616027 0
M  V30 1052 C 108.073 0.944771 1.62652 0
M  V30 1053 O 107.431 -0.0902094 1.81075 0
M  V30 1054 C 107.479 3.37665 1.26549 0
M  V30 1055 O 106.583 3.36701 2.38131 0
M  V30 1056 H 105.924 0.644719 0.158849 0
M  V30 1057 H 108.454 2.04121 -0.139891 0
M  V30 1058 H 108.464 3.7474 1.6135 0
M  V30 1059 H 107.139 4.12573 0.525016 0
M  V30 1060 H 105.716 3.1139 2.0516 0
M  V30 1061 N 107.901 -0.206675 1.56239 0
M  V30 1062 C 108.811 -1.27686 1.96808 0
M  V30 1063 C 109.827 -1.50455 0.874035 0
M  V30 1064 O 111.003 -1.63295 1.17884 0
M  V30 1065 C 108.068 -2.60358 2.28942 0
M  V30 1066 C 107.129 -2.45762 3.51994 0
M  V30 1067 C 106.362 -3.72108 3.82585 0
M  V30 1068 O 106.585 -4.75776 3.14631 0
M  V30 1069 O 105.519 -3.6833 4.76043 0
M  V30 1070 H 109.345 -0.962593 2.88041 0
M  V30 1071 H 106.93 -0.410746 1.43643 0
M  V30 1072 H 108.812 -3.38687 2.50737 0
M  V30 1073 H 107.487 -2.91435 1.4088 0
M  V30 1074 H 106.394 -1.65584 3.35459 0
M  V30 1075 H 107.727 -2.19621 4.40486 0
M  V30 1076 N 109.379 -1.50304 -0.473955 0
M  V30 1077 C 110.795 -1.37667 -0.807466 0
M  V30 1078 C 110.995 -0.430555 -1.96846 0
M  V30 1079 O 110.051 0.127874 -2.52176 0
M  V30 1080 C 111.364 -2.78974 -1.12223 0
M  V30 1081 C 112.912 -2.87868 -1.22885 0
M  V30 1082 C 113.387 -4.30003 -1.57676 0
M  V30 1083 N 114.878 -4.3294 -1.64673 0
M  V30 1084 C 115.613 -5.3991 -1.93091 0
M  V30 1085 N 115.109 -6.57092 -2.1955 0
M  V30 1086 N 116.902 -5.27351 -1.94569 0
M  V30 1087 H 109.053 -2.10394 0.291212 0
M  V30 1088 H 111.316 -0.945575 0.0677609 0
M  V30 1089 H 111.022 -3.50031 -0.342229 0
M  V30 1090 H 110.896 -3.16038 -2.05913 0
M  V30 1091 H 113.283 -2.17032 -1.99953 0
M  V30 1092 H 113.364 -2.54352 -0.271814 0
M  V30 1093 H 113.008 -5.01375 -0.81149 0
M  V30 1094 H 112.938 -4.61004 -2.54525 0
M  V30 1095 H 115.429 -3.48441 -1.46277 0
M  V30 1096 H 115.742 -7.34425 -2.405 0
M  V30 1097 H 114.087 -6.60272 -2.16948 0
M  V30 1098 H 117.278 -4.34801 -1.73394 0
M  V30 1099 H 117.451 -6.10805 -2.16381 0
M  V30 1100 N 110.857 0.726932 -1.39834 0
M  V30 1101 C 112.097 1.4992 -1.38936 0
M  V30 1102 C 112.461 1.91996 0.0126883 0
M  V30 1103 O 113.662 2.68399 0.146715 0
M  V30 1104 C 111.933 2.70013 -2.34153 0
M  V30 1105 S 113.492 3.59563 -2.51515 0
M  V30 1106 H 110.31 0.51271 -0.492595 0
M  V30 1107 H 112.912 0.85107 -1.76003 0
M  V30 1108 H 111.616 2.37254 -3.34871 0
M  V30 1109 H 111.147 3.39748 -1.98331 0
M  V30 1110 H 113.162 4.63973 -1.75909 0
M  V30 1111 N 112.336 1.25143 0.95797 0
M  V30 1112 C 113.752 1.01892 1.22842 0
M  V30 1113 C 113.952 -0.266311 1.99732 0
M  V30 1114 O 113.008 -0.979913 2.3271 0
M  V30 1115 C 114.321 2.24004 2.00606 0
M  V30 1116 C 115.869 2.28731 2.13662 0
M  V30 1117 C 116.344 3.5049 2.94823 0
M  V30 1118 N 117.835 3.50866 3.02403 0
M  V30 1119 C 118.57 4.4174 3.65586 0
M  V30 1120 N 118.066 5.42882 4.30408 0
M  V30 1121 N 119.859 4.29429 3.62694 0
M  V30 1122 H 112.01 2.07718 0.443493 0
M  V30 1123 H 114.273 0.912031 0.258657 0
M  V30 1124 H 113.979 3.17395 1.51503 0
M  V30 1125 H 113.853 2.26907 3.01319 0
M  V30 1126 H 116.24 1.35865 2.61963 0
M  V30 1127 H 116.321 2.29848 1.12265 0
M  V30 1128 H 115.965 4.43676 2.47213 0
M  V30 1129 H 115.895 3.46617 3.96439 0
M  V30 1130 H 118.386 2.777 2.56302 0
M  V30 1131 H 118.699 6.0844 4.76467 0
M  V30 1132 H 117.044 5.46758 4.29047 0
M  V30 1133 H 120.235 3.49643 3.11236 0
M  V30 1134 H 120.408 5.00448 4.1165 0
M  V30 1135 N 113.814 -1.1601 1.06675 0
M  V30 1136 C 115.23 -1.38622 0.790948 0
M  V30 1137 C 115.43 -1.92109 -0.607965 0
M  V30 1138 O 114.486 -2.12239 -1.36787 0
M  V30 1139 C 115.799 -2.36347 1.85905 0
M  V30 1140 C 117.347 -2.50023 1.88301 0
M  V30 1141 C 117.822 -3.51033 2.94176 0
M  V30 1142 N 119.313 -3.58563 2.93235 0
M  V30 1143 C 120.048 -4.36521 3.71803 0
M  V30 1144 N 119.544 -5.17869 4.602 0
M  V30 1145 N 121.337 -4.31541 3.60178 0
M  V30 1146 H 113.488 -0.796294 1.96908 0
M  V30 1147 H 115.751 -0.412597 0.853503 0
M  V30 1148 H 115.457 -2.04147 2.86386 0
M  V30 1149 H 115.331 -3.36042 1.71334 0
M  V30 1150 H 117.718 -2.81524 0.884769 0
M  V30 1151 H 117.799 -1.5035 2.06951 0
M  V30 1152 H 117.443 -3.20268 3.94196 0
M  V30 1153 H 117.373 -4.50445 2.72776 0
M  V30 1154 H 119.864 -3.00496 2.29152 0
M  V30 1155 H 120.177 -5.74578 5.16797 0
M  V30 1156 H 118.522 -5.17199 4.64253 0
M  V30 1157 H 121.713 -3.67051 2.90502 0
M  V30 1158 H 121.886 -4.9205 4.21653 0
M  V30 1159 N 115.292 -0.849877 -1.32721 0
M  V30 1160 C 116.538 -0.451591 -1.97708 0
M  V30 1161 C 116.871 0.989175 -1.6712 0
M  V30 1162 O 116.146 1.69334 -0.956891 0
M  V30 1163 C 116.429 -0.685598 -3.53513 0
M  V30 1164 C 116.282 -2.17444 -3.93749 0
M  V30 1165 C 117.601 -0.138874 -4.39881 0
M  V30 1166 H 114.72 -0.16555 -0.718166 0
M  V30 1167 H 117.362 -1.06742 -1.57182 0
M  V30 1168 H 115.512 -0.161416 -3.88165 0
M  V30 1169 H 117.184 -2.76433 -3.693 0
M  V30 1170 H 115.427 -2.65476 -3.43081 0
M  V30 1171 H 116.098 -2.28888 -5.02309 0
M  V30 1172 H 118.574 -0.587068 -4.11938 0
M  V30 1173 H 117.45 -0.332213 -5.47894 0
M  V30 1174 H 117.711 0.95806 -4.31594 0
M  V30 1175 N 116.77 1.45427 -0.607355 0
M  V30 1176 C 118.019 2.01452 -0.100036 0
M  V30 1177 C 118.332 1.48159 1.27704 0
M  V30 1178 O 119.538 1.96159 1.87707 0
M  V30 1179 C 117.994 3.59672 -0.128158 0
M  V30 1180 C 117.602 4.21962 -1.50507 0
M  V30 1181 C 119.346 4.23262 0.323932 0
M  V30 1182 C 117.253 5.72333 -1.48959 0
M  V30 1183 H 116.183 0.75325 -0.0336299 0
M  V30 1184 H 118.834 1.66901 -0.76265 0
M  V30 1185 H 117.216 3.91411 0.601105 0
M  V30 1186 H 118.39 4.01796 -2.25602 0
M  V30 1187 H 116.705 3.70565 -1.89923 0
M  V30 1188 H 119.302 5.33522 0.354691 0
M  V30 1189 H 119.645 3.93921 1.34656 0
M  V30 1190 H 120.178 3.96239 -0.352056 0
M  V30 1191 H 116.917 6.06373 -2.48981 0
M  V30 1192 H 116.437 5.94691 -0.781214 0
M  V30 1193 H 118.116 6.35525 -1.21313 0
M  V30 1194 N 118.248 0.346503 1.53744 0
M  V30 1195 C 119.488 -0.249413 2.02873 0
M  V30 1196 C 119.852 -1.47532 1.22876 0
M  V30 1197 O 121.053 -2.1456 1.61918 0
M  V30 1198 C 119.324 -0.552909 3.53097 0
M  V30 1199 S 120.883 -1.12521 4.24128 0
M  V30 1200 H 117.701 -0.074042 0.707134 0
M  V30 1201 H 120.303 0.48495 1.8939 0
M  V30 1202 H 119.007 0.347083 4.0893 0
M  V30 1203 H 118.538 -1.31686 3.70705 0
M  V30 1204 H 120.553 -2.41075 4.33702 0
M  V30 1205 N 119.726 -1.57421 0.075193 0
M  V30 1206 C 120.656 -2.15942 -0.888324 0
M  V30 1207 C 121.637 -1.08737 -1.30806 0
M  V30 1208 O 122.822 -1.36787 -1.37851 0
M  V30 1209 C 119.952 -2.72379 -2.1547 0
M  V30 1210 C 118.906 -3.8478 -1.87425 0
M  V30 1211 C 118.232 -4.27834 -3.20721 0
M  V30 1212 C 119.532 -5.08869 -1.17684 0
M  V30 1213 H 121.226 -2.96705 -0.400799 0
M  V30 1214 H 118.772 -1.42723 -0.191342 0
M  V30 1215 H 120.725 -3.11965 -2.83295 0
M  V30 1216 H 119.449 -1.88841 -2.6647 0
M  V30 1217 H 118.108 -3.45703 -1.22004 0
M  V30 1218 H 117.756 -3.41214 -3.6957 0
M  V30 1219 H 117.456 -5.03605 -3.02746 0
M  V30 1220 H 118.98 -4.70039 -3.89738 0
M  V30 1221 H 120.394 -5.4575 -1.75584 0
M  V30 1222 H 118.791 -5.8994 -1.09956 0
M  V30 1223 H 119.861 -4.84648 -0.156453 0
M  V30 1224 N 121.204 0.198386 -1.56346 0
M  V30 1225 C 122.45 0.920648 -1.80698 0
M  V30 1226 C 122.783 1.83045 -0.648697 0
M  V30 1227 O 122.058 1.91308 0.350925 0
M  V30 1228 C 122.341 1.73971 -3.15287 0
M  V30 1229 C 122.194 0.85485 -4.41602 0
M  V30 1230 C 123.513 2.71296 -3.46535 0
M  V30 1231 H 120.632 0.333261 -0.657348 0
M  V30 1232 H 123.274 0.188198 -1.89066 0
M  V30 1233 H 121.424 2.36416 -3.08285 0
M  V30 1234 H 123.096 0.245362 -4.60647 0
M  V30 1235 H 121.339 0.161398 -4.335 0
M  V30 1236 H 122.01 1.46286 -5.32264 0
M  V30 1237 H 124.486 2.18983 -3.53816 0
M  V30 1238 H 123.362 3.2569 -4.41834 0
M  V30 1239 H 123.623 3.5018 -2.69864 0
M  V30 1240 N 122.682 1.50554 0.465978 0
M  V30 1241 C 123.93 1.61479 1.21528 0
M  V30 1242 C 124.251 0.319596 1.92363 0
M  V30 1243 O 123.521 -0.663194 1.84333 0
M  V30 1244 H 122.101 0.595055 0.451573 0
M  V30 1245 H 124.763 1.87355 0.53704 0
M  V30 1246 H 123.859 2.42846 1.96042 0
M  V30 1247 N 124.16 -0.719506 1.40217 0
M  V30 1248 C 125.123 -1.8153 1.39927 0
M  V30 1249 C 126.123 -1.58095 0.293723 0
M  V30 1250 O 127.313 -1.65209 0.552429 0
M  V30 1251 C 124.445 -3.19561 1.18716 0
M  V30 1252 H 125.638 -1.83186 2.37451 0
M  V30 1253 H 123.191 -0.924746 1.26008 0
M  V30 1254 H 123.926 -3.23557 0.219366 0
M  V30 1255 H 123.711 -3.3797 1.98793 0
M  V30 1256 H 125.201 -3.99598 1.21291 0
M  V30 1257 N 125.638 -1.25649 -0.95132 0
M  V30 1258 C 126.886 -1.10375 -1.69298 0
M  V30 1259 C 127.207 0.355339 -1.91735 0
M  V30 1260 O 126.477 1.25188 -1.50681 0
M  V30 1261 H 125.057 -0.405461 -0.627384 0
M  V30 1262 H 127.719 -1.57823 -1.14358 0
M  V30 1263 H 126.815 -1.61465 -2.67087 0
M  V30 1264 N 127.117 1.15442 -1.07289 0
M  V30 1265 C 128.366 1.85557 -0.790669 0
M  V30 1266 C 128.679 1.83186 0.685739 0
M  V30 1267 O 129.885 2.48977 1.0827 0
M  V30 1268 C 128.341 3.33038 -1.36433 0
M  V30 1269 C 127.949 3.43856 -2.8717 0
M  V30 1270 C 129.693 4.0834 -1.1601 0
M  V30 1271 C 127.6 4.85482 -3.3773 0
M  V30 1272 H 126.53 0.695122 -0.292098 0
M  V30 1273 H 129.181 1.30219 -1.29287 0
M  V30 1274 H 127.563 3.88043 -0.789864 0
M  V30 1275 H 128.737 2.98961 -3.50655 0
M  V30 1276 H 127.052 2.81998 -3.06376 0
M  V30 1277 H 129.649 5.12859 -1.51262 0
M  V30 1278 H 129.992 4.16182 -0.0991007 0
M  V30 1279 H 130.525 3.59603 -1.70089 0
M  V30 1280 H 127.264 4.82823 -4.43353 0
M  V30 1281 H 126.784 5.30961 -2.78999 0
M  V30 1282 H 128.463 5.54335 -3.33648 0
M  V30 1283 N 128.595 0.856903 1.32268 0
M  V30 1284 C 129.82 0.474569 2.01897 0
M  V30 1285 C 130.245 -0.921766 1.63967 0
M  V30 1286 O 129.603 -1.60589 0.84148 0
M  V30 1287 C 129.651 0.623799 3.55164 0
M  V30 1288 O 128.755 -0.342459 4.10976 0
M  V30 1289 H 128.096 0.190422 0.63611 0
M  V30 1290 H 130.626 1.15672 1.68764 0
M  V30 1291 H 130.636 0.512169 4.04773 0
M  V30 1292 H 129.311 1.64202 3.82113 0
M  V30 1293 H 127.888 -0.18688 3.72431 0
M  V30 1294 N 130.073 -1.45103 0.615059 0
M  V30 1295 C 131.301 -2.06553 0.11977 0
M  V30 1296 C 131.716 -1.45842 -1.19898 0
M  V30 1297 O 131.073 -0.575325 -1.73194 0
M  V30 1298 C 131.124 -3.61495 -0.018364 0
M  V30 1299 O 130.845 -4.19942 1.24822 0
M  V30 1300 C 132.346 -4.39947 -0.544237 0
M  V30 1301 H 129.566 -0.667096 0.0722739 0
M  V30 1302 H 132.11 -1.8623 0.84491 0
M  V30 1303 H 130.265 -3.81135 -0.693865 0
M  V30 1304 H 130.679 -5.13204 1.0827 0
M  V30 1305 H 132.153 -5.48838 -0.589953 0
M  V30 1306 H 132.63 -4.10255 -1.56805 0
M  V30 1307 H 133.236 -4.25188 0.0974703 0
M  V30 1308 N 131.551 -0.354651 -1.53558 0
M  V30 1309 C 132.776 0.242153 -2.05981 0
M  V30 1310 C 133.201 1.42553 -1.2272 0
M  V30 1311 O 132.559 1.79656 -0.243604 0
M  V30 1312 C 132.607 0.624367 -3.55154 0
M  V30 1313 O 131.711 1.72301 -3.74681 0
M  V30 1314 H 131.052 0.0378432 -0.662921 0
M  V30 1315 H 133.582 -0.512087 -1.98088 0
M  V30 1316 H 133.592 0.898433 -3.97985 0
M  V30 1317 H 132.267 -0.240989 -4.15201 0
M  V30 1318 H 130.844 1.44535 -3.4375 0
M  V30 1319 N 133.029 1.57378 -0.0835403 0
M  V30 1320 C 133.992 2.12252 0.864959 0
M  V30 1321 C 134.992 1.04916 1.21858 0
M  V30 1322 O 136.182 1.30853 1.14991 0
M  V30 1323 C 133.314 2.63358 2.16461 0
M  V30 1324 H 134.507 2.97371 0.388676 0
M  V30 1325 H 132.06 1.55423 0.165317 0
M  V30 1326 H 132.795 1.81727 2.686 0
M  V30 1327 H 132.58 3.41826 1.92087 0
M  V30 1328 H 134.07 3.05847 2.84337 0
M  V30 1329 N 134.507 -0.190092 1.56449 0
M  V30 1330 C 135.755 -0.907908 1.80559 0
M  V30 1331 C 136.076 -1.83583 0.657438 0
M  V30 1332 O 135.346 -1.93203 -0.323924 0
M  V30 1333 H 133.926 -0.338247 0.666032 0
M  V30 1334 H 136.588 -0.194403 1.93928 0
M  V30 1335 H 135.684 -1.49604 2.73907 0
M  V30 1336 N 135.985 -1.50799 -0.457987 0
M  V30 1337 C 137.234 -1.6168 -1.20593 0
M  V30 1338 C 137.547 -0.32888 -1.92815 0
M  V30 1339 O 138.753 -0.316773 -2.69646 0
M  V30 1340 C 137.209 -2.8545 -2.19195 0
M  V30 1341 C 136.817 -4.21168 -1.52715 0
M  V30 1342 C 138.561 -3.05681 -2.94549 0
M  V30 1343 C 136.468 -5.3611 -2.4968 0
M  V30 1344 H 135.398 -0.602134 -0.453818 0
M  V30 1345 H 138.049 -1.77245 -0.475031 0
M  V30 1346 H 136.431 -2.63472 -2.95632 0
M  V30 1347 H 137.605 -4.53449 -0.819775 0
M  V30 1348 H 135.92 -4.06648 -0.895922 0
M  V30 1349 H 138.517 -3.88727 -3.67145 0
M  V30 1350 H 138.86 -2.17929 -3.54701 0
M  V30 1351 H 139.393 -3.27901 -2.25223 0
M  V30 1352 H 136.132 -6.26057 -1.94249 0
M  V30 1353 H 135.652 -5.0823 -3.18532 0
M  V30 1354 H 137.331 -5.6722 -3.11241 0
M  V30 1355 N 137.463 0.71206 -1.40597 0
M  V30 1356 C 138.874 1.29135 -1.34837 0
M  V30 1357 C 139.225 1.96186 -0.0235395 0
M  V30 1358 O 138.35 1.97768 0.878444 0
M  V30 1359 C 138.945 2.34827 -2.44217 0
M  V30 1360 C 137.504 2.88371 -2.41907 0
M  V30 1361 C 136.651 1.62202 -2.24913 0
M  V30 1362 H 139.602 0.507944 -1.50352 0
M  V30 1363 H 139.623 3.15749 -2.12327 0
M  V30 1364 H 139.135 1.85996 -3.40627 0
M  V30 1365 H 137.236 3.41422 -1.49204 0
M  V30 1366 H 137.349 3.39925 -3.37621 0
M  V30 1367 H 135.713 1.874 -1.72492 0
M  V30 1368 H 136.496 1.15391 -3.23326 0
M  V30 1369 N 138.941 1.26152 0.944643 0
M  V30 1370 C 140.218 1.02247 1.66748 0
M  V30 1371 C 140.598 -0.448202 2.06287 0
M  V30 1372 O 139.946 -1.42779 1.78399 0
M  V30 1373 C 140.156 1.96788 2.88228 0
M  V30 1374 C 141.504 2.25201 3.59958 0
M  V30 1375 O 142.528 1.94626 2.98327 0
M  V30 1376 O 141.387 2.77242 4.70956 0
M  V30 1377 H 138.481 0.388517 0.730057 0
M  V30 1378 H 141.027 1.37348 0.99668 0
M  V30 1379 H 139.799 2.96047 2.55875 0
M  V30 1380 H 139.422 1.62145 3.63035 0
M  V30 1381 N 140.419 -1.14872 1.07899 0
M  V30 1382 C 141.666 -1.85789 0.805532 0
M  V30 1383 C 141.994 -1.82649 -0.668561 0
M  V30 1384 O 141.249 -1.24858 -1.50695 0
M  V30 1385 C 141.548 -3.34223 1.26609 0
M  V30 1386 C 141.214 -3.57555 2.74709 0
M  V30 1387 C 139.876 -3.63631 3.1516 0
M  V30 1388 C 142.228 -3.66803 3.70277 0
M  V30 1389 C 139.556 -3.76473 4.49983 0
M  V30 1390 C 141.908 -3.8117 5.04869 0
M  V30 1391 C 140.572 -3.85494 5.44932 0
M  V30 1392 H 139.842 -0.679849 0.294765 0
M  V30 1393 H 142.489 -1.3572 1.35101 0
M  V30 1394 H 140.794 -3.86536 0.640103 0
M  V30 1395 H 142.491 -3.87511 1.03132 0
M  V30 1396 H 139.081 -3.5347 2.42398 0
M  V30 1397 H 143.265 -3.61404 3.40149 0
M  V30 1398 H 138.521 -3.7808 4.80484 0
M  V30 1399 H 142.695 -3.87268 5.78789 0
M  V30 1400 H 140.322 -3.95197 6.49403 0
M  V30 1401 N 141.898 -0.863906 -1.31812 0
M  V30 1402 C 143.314 -0.555004 -1.49639 0
M  V30 1403 C 143.514 0.912266 -1.79666 0
M  V30 1404 O 142.57 1.69479 -1.87171 0
M  V30 1405 C 143.883 -1.44998 -2.63431 0
M  V30 1406 C 145.431 -1.45138 -2.77316 0
M  V30 1407 C 145.906 -2.33179 -3.94197 0
M  V30 1408 N 147.397 -2.31025 -4.01474 0
M  V30 1409 C 148.132 -2.95871 -4.9117 0
M  V30 1410 N 147.628 -3.69863 -5.8581 0
M  V30 1411 N 149.421 -2.85211 -4.84367 0
M  V30 1412 H 141.572 -1.81339 -1.10589 0
M  V30 1413 H 143.835 -0.77505 -0.545895 0
M  V30 1414 H 143.541 -2.49377 -2.48 0
M  V30 1415 H 143.415 -1.14409 -3.59431 0
M  V30 1416 H 145.802 -0.415201 -2.92164 0
M  V30 1417 H 145.883 -1.79747 -1.82001 0
M  V30 1418 H 145.527 -3.3687 -3.80107 0
M  V30 1419 H 145.457 -1.95897 -4.88807 0
M  V30 1420 H 147.948 -1.77238 -3.33759 0
M  V30 1421 H 148.261 -4.16486 -6.50968 0
M  V30 1422 H 146.606 -3.73971 -5.85808 0
M  V30 1423 H 149.797 -2.26948 -4.09405 0
M  V30 1424 H 149.97 -3.36027 -5.54066 0
M  V30 1425 N 143.376 1.44774 -0.622745 0
M  V30 1426 C 144.601 2.06999 -0.128968 0
M  V30 1427 C 145.026 1.4617 1.1839 0
M  V30 1428 O 144.384 0.560007 1.72434 0
M  V30 1429 C 144.432 3.60595 -0.0188351 0
M  V30 1430 O 143.536 3.99398 1.02739 0
M  V30 1431 H 142.877 0.659047 -0.0809544 0
M  V30 1432 H 145.407 1.85784 -0.85705 0
M  V30 1433 H 145.417 4.07627 0.174476 0
M  V30 1434 H 144.092 4.04252 -0.977384 0
M  V30 1435 H 142.669 3.64011 0.809326 0
M  V30 1436 N 144.854 0.36279 1.53368 0
M  V30 1437 C 146.265 -0.117022 1.86333 0
M  V30 1438 C 146.616 -1.48397 1.28347 0
M  V30 1439 O 145.741 -2.07787 0.604428 0
M  V30 1440 C 146.336 -0.21912 3.38091 0
M  V30 1441 C 144.895 -0.643184 3.70864 0
M  V30 1442 C 144.042 0.211318 2.76494 0
M  V30 1443 H 146.993 0.581687 1.47655 0
M  V30 1444 H 147.014 -1.04319 3.6592 0
M  V30 1445 H 146.526 0.775902 3.80265 0
M  V30 1446 H 144.627 -1.64654 3.34245 0
M  V30 1447 H 144.74 -0.41973 4.77258 0
M  V30 1448 H 143.104 -0.319367 2.5269 0
M  V30 1449 H 143.887 1.20383 3.21501 0
M  V30 1450 N 146.332 -1.57332 0.0918853 0
M  V30 1451 C 147.557 -1.98995 -0.584442 0
M  V30 1452 C 147.982 -0.970528 -1.61128 0
M  V30 1453 O 147.34 0.0613904 -1.81196 0
M  V30 1454 C 147.388 -3.39636 -1.21161 0
M  V30 1455 O 146.492 -3.40447 -2.32744 0
M  V30 1456 H 145.833 -0.647165 -0.148572 0
M  V30 1457 H 148.363 -2.03873 0.172347 0
M  V30 1458 H 148.373 -3.7726 -1.55367 0
M  V30 1459 H 147.048 -4.13356 -0.459313 0
M  V30 1460 H 145.625 -3.14614 -2.0018 0
M  V30 1461 N 147.81 0.181792 -1.56548 0
M  V30 1462 C 149.038 0.915947 -1.85521 0
M  V30 1463 C 149.453 1.76282 -0.676016 0
M  V30 1464 O 148.81 1.79012 0.355077 0
M  V30 1465 C 148.861 1.80126 -3.13427 0
M  V30 1466 O 148.582 0.988562 -4.26801 0
M  V30 1467 C 150.083 2.64597 -3.55673 0
M  V30 1468 H 147.303 0.26661 -0.61576 0
M  V30 1469 H 149.847 0.185039 -2.03661 0
M  V30 1470 H 148.002 2.48563 -2.97145 0
M  V30 1471 H 148.416 1.59308 -4.99721 0
M  V30 1472 H 149.89 3.2235 -4.48101 0
M  V30 1473 H 150.367 3.38958 -2.79292 0
M  V30 1474 H 150.973 2.0151 -3.74532 0
M  V30 1475 N 149.288 1.51039 0.449983 0
M  V30 1476 C 150.536 1.62759 1.19808 0
M  V30 1477 C 150.857 0.339981 1.92013 0
M  V30 1478 O 150.127 -0.643606 1.85026 0
M  V30 1479 H 148.707 0.599811 0.445237 0
M  V30 1480 H 151.369 1.87914 0.517138 0
M  V30 1481 H 150.465 2.44911 1.93455 0
M  V30 1482 N 150.766 -0.704594 1.40972 0
M  V30 1483 C 151.696 -1.83124 1.44872 0
M  V30 1484 C 152.677 -1.67281 0.30838 0
M  V30 1485 O 153.862 -1.87149 0.518556 0
M  V30 1486 C 150.992 -3.21181 1.32136 0
M  V30 1487 C 149.946 -3.51714 2.43888 0
M  V30 1488 C 149.272 -4.89032 2.16222 0
M  V30 1489 C 150.572 -3.516 3.86232 0
M  V30 1490 H 152.266 -1.80117 2.39161 0
M  V30 1491 H 149.812 -0.865145 1.15114 0
M  V30 1492 H 151.765 -3.99702 1.33479 0
M  V30 1493 H 150.489 -3.24791 0.343279 0
M  V30 1494 H 149.148 -2.75539 2.41813 0
M  V30 1495 H 148.796 -4.89256 1.16778 0
M  V30 1496 H 148.496 -5.10426 2.911 0
M  V30 1497 H 150.02 -5.69873 2.19265 0
M  V30 1498 H 151.434 -4.2014 3.9007 0
M  V30 1499 H 149.831 -3.84523 4.60719 0
M  V30 1500 H 150.901 -2.50757 4.15029 0
M  V30 1501 N 152.244 -1.26651 -0.937939 0
M  V30 1502 C 153.474 -1.15006 -1.71631 0
M  V30 1503 C 153.882 0.297026 -1.86854 0
M  V30 1504 O 153.225 1.21493 -1.37786 0
M  V30 1505 C 153.287 -1.74984 -3.14039 0
M  V30 1506 C 152.951 -3.24103 -3.2219 0
M  V30 1507 C 153.948 -4.20877 -3.05219 0
M  V30 1508 C 151.633 -3.64625 -3.45476 0
M  V30 1509 C 153.627 -5.56151 -3.11408 0
M  V30 1510 C 151.314 -5.00032 -3.513 0
M  V30 1511 C 152.312 -5.95604 -3.34282 0
M  V30 1512 O 152 -7.28545 -3.3982 0
M  V30 1513 H 151.732 -0.401183 -0.544085 0
M  V30 1514 H 154.286 -1.67832 -1.18413 0
M  V30 1515 H 152.516 -1.16624 -3.68695 0
M  V30 1516 H 154.205 -1.58199 -3.73802 0
M  V30 1517 H 154.971 -3.90908 -2.87081 0
M  V30 1518 H 150.85 -2.90718 -3.57777 0
M  V30 1519 H 154.394 -6.30727 -2.98043 0
M  V30 1520 H 150.291 -5.29659 -3.68959 0
M  V30 1521 H 151.059 -7.3686 -3.56343 0
M  V30 1522 N 153.722 1.14298 -1.08507 0
M  V30 1523 C 154.999 1.81544 -0.728088 0
M  V30 1524 C 155.379 1.95838 0.78808 0
M  V30 1525 O 154.727 1.51904 1.70697 0
M  V30 1526 C 154.937 3.17169 -1.45619 0
M  V30 1527 C 156.285 3.9265 -1.61591 0
M  V30 1528 O 157.309 3.26762 -1.41793 0
M  V30 1529 O 156.168 5.10807 -1.94263 0
M  V30 1530 H 153.262 0.78491 -0.260471 0
M  V30 1531 H 155.808 1.21307 -1.18671 0
M  V30 1532 H 154.58 3.01934 -2.489 0
M  V30 1533 H 154.203 3.851 -0.989124 0
M  V30 1534 N 155.201 0.870884 1.31352 0
M  V30 1535 C 156.149 0.316445 2.30437 0
M  V30 1536 C 157.143 -0.568965 1.59559 0
M  V30 1537 O 158.349 -0.454964 1.74155 0
M  V30 1538 H 154.724 0.0836521 0.747333 0
M  V30 1539 H 156.695 1.16606 2.74673 0
M  V30 1540 C 155.444 -0.46635 3.44558 0
M  V30 1541 H 154.767 0.205687 3.99271 0
M  V30 1542 H 156.207 -0.819614 4.16003 0
M  V30 1543 C 154.666 -1.65797 2.9328 0
M  V30 1544 O 155.196 -2.75728 2.92125 0
M  V30 1545 N 153.402 -1.49041 2.4947 0
M  V30 1546 H 152.949 -0.59612 2.50608 0
M  V30 1547 H 152.907 -2.28911 2.15516 0
M  V30 1548 N 156.679 -1.44442 0.630414 0
M  V30 1549 C 157.609 -2.33418 -0.0618083 0
M  V30 1550 C 158.59 -1.48165 -0.835541 0
M  V30 1551 O 159.775 -1.76886 -0.801564 0
M  V30 1552 C 156.905 -3.31222 -1.04449 0
M  V30 1553 C 155.859 -4.26288 -0.382436 0
M  V30 1554 C 155.185 -5.13954 -1.47497 0
M  V30 1555 C 156.485 -5.1744 0.710865 0
M  V30 1556 H 158.179 -2.91548 0.681184 0
M  V30 1557 H 155.725 -1.40191 0.329026 0
M  V30 1558 H 157.678 -3.92351 -1.53748 0
M  V30 1559 H 156.402 -2.71299 -1.81836 0
M  V30 1560 H 155.061 -3.6649 0.0899054 0
M  V30 1561 H 154.709 -4.50385 -2.2397 0
M  V30 1562 H 154.409 -5.7837 -1.03737 0
M  V30 1563 H 155.933 -5.77955 -1.96979 0
M  V30 1564 H 157.347 -5.72509 0.300996 0
M  V30 1565 H 155.744 -5.90455 1.07156 0
M  V30 1566 H 156.814 -4.58496 1.57829 0
M  V30 1567 N 158.157 -0.370918 -1.53173 0
M  V30 1568 C 159.067 0.480823 -2.2962 0
M  V30 1569 C 160.083 1.08789 -1.35798 0
M  V30 1570 O 161.259 1.09768 -1.68858 0
M  V30 1571 C 158.324 1.60227 -3.07454 0
M  V30 1572 C 157.385 1.0222 -4.16953 0
M  V30 1573 C 156.618 2.0902 -4.91066 0
M  V30 1574 O 156.841 3.30222 -4.65091 0
M  V30 1575 O 155.775 1.71778 -5.76867 0
M  V30 1576 H 159.601 -0.141421 -3.03371 0
M  V30 1577 H 157.186 -0.135146 -1.48787 0
M  V30 1578 H 159.068 2.25417 -3.56041 0
M  V30 1579 H 157.743 2.20982 -2.36535 0
M  V30 1580 H 156.65 0.334064 -3.72605 0
M  V30 1581 H 157.983 0.459131 -4.90054 0
M  V30 1582 N 159.635 1.57281 -0.100228 0
M  V30 1583 C 160.582 2.14305 0.856858 0
M  V30 1584 C 161.552 1.06296 1.27634 0
M  V30 1585 O 162.737 1.34109 1.35718 0
M  V30 1586 C 159.877 2.73184 2.10866 0
M  V30 1587 C 158.99 3.95442 1.73925 0
M  V30 1588 C 158.125 4.42468 2.93931 0
M  V30 1589 C 157.164 5.57303 2.5314 0
M  V30 1590 N 156.301 5.99158 3.65997 0
M  V30 1591 H 161.141 2.95772 0.363726 0
M  V30 1592 H 158.678 1.46139 0.167858 0
M  V30 1593 H 160.636 3.05442 2.84185 0
M  V30 1594 H 159.266 1.94437 2.57671 0
M  V30 1595 H 158.318 3.69464 0.905554 0
M  V30 1596 H 159.63 4.78769 1.39935 0
M  V30 1597 H 158.784 4.76537 3.75496 0
M  V30 1598 H 157.523 3.58052 3.31134 0
M  V30 1599 H 156.528 5.22857 1.70003 0
M  V30 1600 H 157.753 6.43471 2.17075 0
M  V30 1601 H 155.699 5.17687 4.02909 0
M  V30 1602 H 155.616 6.77295 3.35869 0
M  V30 1603 H 156.884 6.3786 4.48057 0
M  V30 1604 N 161.113 -0.173488 1.56642 0
M  V30 1605 C 162.343 -0.904781 1.85734 0
M  V30 1606 C 162.751 -1.76431 0.68328 0
M  V30 1607 O 162.094 -1.802 -0.356865 0
M  V30 1608 C 162.156 -1.83382 3.09211 0
M  V30 1609 C 161.82 -1.15411 4.42187 0
M  V30 1610 C 162.817 -0.520609 5.17287 0
M  V30 1611 C 160.502 -1.15151 4.88923 0
M  V30 1612 C 162.496 0.106412 6.37311 0
M  V30 1613 C 160.183 -0.520664 6.08878 0
M  V30 1614 C 161.181 0.107196 6.82916 0
M  V30 1615 O 160.869 0.728102 8.00596 0
M  V30 1616 H 160.601 -0.268408 0.62043 0
M  V30 1617 H 163.155 -0.179096 2.04618 0
M  V30 1618 H 161.385 -2.59976 2.86268 0
M  V30 1619 H 163.074 -2.43476 3.24768 0
M  V30 1620 H 163.84 -0.514606 4.82262 0
M  V30 1621 H 159.719 -1.62961 4.31236 0
M  V30 1622 H 163.263 0.597081 6.9504 0
M  V30 1623 H 159.16 -0.524242 6.43368 0
M  V30 1624 H 159.928 0.627138 8.16094 0
M  V30 1625 N 162.591 -1.51276 -0.441967 0
M  V30 1626 C 163.541 -1.6864 -1.53442 0
M  V30 1627 C 164.525 -0.540444 -1.51552 0
M  V30 1628 O 165.717 -0.796157 -1.58083 0
M  V30 1629 C 162.846 -1.8106 -2.91672 0
M  V30 1630 C 161.932 -3.01424 -2.98336 0
M  V30 1631 N 162.323 -4.2467 -2.74752 0
M  V30 1632 C 160.621 -3.00584 -3.29493 0
M  V30 1633 C 161.322 -5.05891 -2.87139 0
M  V30 1634 N 160.298 -4.40442 -3.18609 0
M  V30 1635 H 164.1 -2.61598 -1.33954 0
M  V30 1636 H 161.614 -1.4886 -0.6492 0
M  V30 1637 H 163.611 -1.91609 -3.70259 0
M  V30 1638 H 162.271 -0.892795 -3.12185 0
M  V30 1639 H 163.282 -4.53691 -2.49769 0
M  V30 1640 H 159.959 -2.18417 -3.55809 0
M  V30 1641 H 161.349 -6.13983 -2.72899 0
M  V30 1642 N 164.069 0.697108 -1.41344 0
M  V30 1643 C 164.999 1.82353 -1.45841 0
M  V30 1644 C 165.98 1.67115 -0.317247 0
M  V30 1645 O 167.165 1.86871 -0.528474 0
M  V30 1646 C 164.295 3.20476 -1.33838 0
M  V30 1647 C 163.249 3.50415 -2.4575 0
M  V30 1648 C 162.575 4.87878 -2.18813 0
M  V30 1649 C 163.875 3.49546 -3.88091 0
M  V30 1650 H 165.569 1.78846 -2.40113 0
M  V30 1651 H 163.115 0.859028 -1.15571 0
M  V30 1652 H 165.068 3.98988 -1.35596 0
M  V30 1653 H 163.792 3.24604 -0.360498 0
M  V30 1654 H 162.451 2.74253 -2.43271 0
M  V30 1655 H 162.099 4.8863 -1.19371 0
M  V30 1656 H 161.799 5.08875 -2.93803 0
M  V30 1657 H 163.323 5.68702 -2.22284 0
M  V30 1658 H 164.737 4.18066 -3.92293 0
M  V30 1659 H 163.134 3.82075 -4.62751 0
M  V30 1660 H 164.204 2.48552 -4.16353 0
M  V30 1661 N 165.547 1.27147 0.931209 0
M  V30 1662 C 166.958 1.12044 1.49342 0
M  V30 1663 C 167.309 -0.295795 1.93957 0
M  V30 1664 O 166.434 -1.18835 1.80852 0
M  V30 1665 C 167.029 2.02781 2.71414 0
M  V30 1666 C 165.588 1.91794 3.2387 0
M  V30 1667 C 164.735 1.95543 1.96617 0
M  V30 1668 H 167.686 1.40091 0.745672 0
M  V30 1669 H 167.707 1.58156 3.46074 0
M  V30 1670 H 167.219 3.05848 2.38911 0
M  V30 1671 H 165.32 0.916992 3.6114 0
M  V30 1672 H 165.433 2.77852 3.90302 0
M  V30 1673 H 163.797 1.39722 2.12955 0
M  V30 1674 H 164.58 3.00259 1.66432 0
M  V30 1675 N 167.025 -1.13721 1.09112 0
M  V30 1676 C 168.255 -1.88499 0.845671 0
M  V30 1677 C 168.663 -1.79218 -0.606432 0
M  V30 1678 O 168.006 -1.1544 -1.42896 0
M  V30 1679 C 168.068 -3.38954 1.19793 0
M  V30 1680 C 167.732 -3.72018 2.65428 0
M  V30 1681 C 168.729 -3.7153 3.63677 0
M  V30 1682 C 166.414 -4.01775 3.01467 0
M  V30 1683 C 168.408 -4.00336 4.95994 0
M  V30 1684 C 166.095 -4.30243 4.33975 0
M  V30 1685 C 167.093 -4.29508 5.31048 0
M  V30 1686 O 166.781 -4.5728 6.61173 0
M  V30 1687 H 166.513 -0.603702 0.304171 0
M  V30 1688 H 169.067 -1.44903 1.45576 0
M  V30 1689 H 167.297 -3.83039 0.530871 0
M  V30 1690 H 168.986 -3.95052 0.932146 0
M  V30 1691 H 169.752 -3.4862 3.37179 0
M  V30 1692 H 165.631 -4.01496 2.26544 0
M  V30 1693 H 169.175 -3.99678 5.71755 0
M  V30 1694 H 165.072 -4.52625 4.60219 0
M  V30 1695 H 165.84 -4.74964 6.66597 0
M  V30 1696 N 168.503 -0.877838 -1.30888 0
M  V30 1697 C 169.914 -0.544193 -1.78593 0
M  V30 1698 C 170.265 0.939301 -1.72254 0
M  V30 1699 O 169.39 1.7337 -1.29505 0
M  V30 1700 C 169.985 -0.98105 -3.24285 0
M  V30 1701 C 168.544 -0.698935 -3.69854 0
M  V30 1702 C 167.691 -1.168 -2.51502 0
M  V30 1703 H 170.642 -1.06278 -1.17859 0
M  V30 1704 H 170.663 -0.307009 -3.79259 0
M  V30 1705 H 170.175 -2.06079 -3.28866 0
M  V30 1706 H 168.276 0.369112 -3.70767 0
M  V30 1707 H 168.389 -1.28148 -4.61644 0
M  V30 1708 H 166.753 -0.587535 -2.47831 0
M  V30 1709 H 167.536 -2.25533 -2.58824 0
M  V30 1710 N 169.982 1.44106 -0.638065 0
M  V30 1711 C 170.892 2.34513 0.0637334 0
M  V30 1712 C 171.908 1.53018 0.828346 0
M  V30 1713 O 173.084 1.85723 0.779036 0
M  V30 1714 C 170.149 3.31095 1.02844 0
M  V30 1715 C 169.21 4.28497 0.26244 0
M  V30 1716 C 168.443 5.20465 1.1812 0
M  V30 1717 O 168.666 5.16514 2.42011 0
M  V30 1718 O 167.6 5.98251 0.661774 0
M  V30 1719 H 171.426 2.95989 -0.68003 0
M  V30 1720 H 169.011 1.43994 -0.398252 0
M  V30 1721 H 170.893 3.90526 1.58327 0
M  V30 1722 H 169.568 2.72144 1.7527 0
M  V30 1723 H 168.475 3.72592 -0.335602 0
M  V30 1724 H 169.808 4.90388 -0.421936 0
M  V30 1725 N 171.46 0.379036 1.52974 0
M  V30 1726 C 172.423 -0.448865 2.24762 0
M  V30 1727 C 173.423 -0.998689 1.26027 0
M  V30 1728 O 174.613 -0.882313 1.50203 0
M  V30 1729 C 171.745 -1.62872 2.99476 0
M  V30 1730 H 172.938 0.179491 2.99362 0
M  V30 1731 H 170.491 0.13096 1.5575 0
M  V30 1732 H 171.226 -2.29479 2.29151 0
M  V30 1733 H 171.011 -1.24128 3.71934 0
M  V30 1734 H 172.501 -2.2151 3.5401 0
M  V30 1735 N 172.938 -1.57226 0.108567 0
M  V30 1736 C 174.187 -1.94008 -0.551703 0
M  V30 1737 C 174.5 -0.993442 -1.68494 0
M  V30 1738 O 175.706 -1.25551 -2.40726 0
M  V30 1739 C 174.162 -3.44763 -1.03279 0
M  V30 1740 C 173.77 -4.47943 0.0714193 0
M  V30 1741 C 175.514 -3.90483 -1.66503 0
M  V30 1742 C 173.421 -5.89865 -0.425779 0
M  V30 1743 H 172.351 -0.724206 -0.209863 0
M  V30 1744 H 175.002 -1.82547 0.186741 0
M  V30 1745 H 173.384 -3.51422 -1.82533 0
M  V30 1746 H 174.558 -4.52942 0.847365 0
M  V30 1747 H 172.873 -4.11913 0.609669 0
M  V30 1748 H 175.47 -4.93925 -2.04798 0
M  V30 1749 H 175.813 -3.29877 -2.53942 0
M  V30 1750 H 176.346 -3.86581 -0.938074 0
M  V30 1751 H 173.085 -6.54202 0.412316 0
M  V30 1752 H 172.605 -5.88309 -1.16843 0
M  V30 1753 H 174.284 -6.40844 -0.890397 0
M  V30 1754 N 174.416 0.165178 -1.56732 0
M  V30 1755 C 175.663 0.880807 -1.8234 0
M  V30 1756 C 175.991 1.81977 -0.686621 0
M  V30 1757 O 175.246 1.92971 0.325697 0
M  V30 1758 C 175.545 1.70405 -3.1416 0
M  V30 1759 C 175.211 0.913475 -4.4155 0
M  V30 1760 C 173.873 0.695303 -4.7615 0
M  V30 1761 C 176.225 0.359349 -5.1996 0
M  V30 1762 C 173.553 -0.0879947 -5.86634 0
M  V30 1763 C 175.905 -0.410893 -6.31264 0
M  V30 1764 C 174.569 -0.639808 -6.64427 0
M  V30 1765 H 173.839 0.32231 -0.667231 0
M  V30 1766 H 176.486 0.145402 -1.90947 0
M  V30 1767 H 174.791 2.50903 -3.00923 0
M  V30 1768 H 176.488 2.26091 -3.31186 0
M  V30 1769 H 173.078 1.09357 -4.14414 0
M  V30 1770 H 177.262 0.515228 -4.93618 0
M  V30 1771 H 172.518 -0.27503 -6.10781 0
M  V30 1772 H 176.692 -0.847494 -6.91224 0
M  V30 1773 H 174.319 -1.24864 -7.49875 0
M  V30 1774 N 175.894 1.51508 0.433938 0
M  V30 1775 C 176.804 1.75917 1.5521 0
M  V30 1776 C 177.82 0.643545 1.61662 0
M  V30 1777 O 178.996 0.926183 1.7884 0
M  V30 1778 C 176.061 1.88213 2.91164 0
M  V30 1779 C 175.122 3.12074 2.94802 0
M  V30 1780 C 174.355 3.23774 4.24271 0
M  V30 1781 O 174.578 2.4133 5.16833 0
M  V30 1782 O 173.512 4.16774 4.34262 0
M  V30 1783 H 177.338 2.70777 1.37527 0
M  V30 1784 H 174.923 1.36051 0.617293 0
M  V30 1785 H 176.805 1.98267 3.71845 0
M  V30 1786 H 175.48 0.965413 3.08968 0
M  V30 1787 H 174.387 3.07497 2.13065 0
M  V30 1788 H 175.72 4.03446 2.81943 0
M  V30 1789 N 177.372 -0.689602 1.41712 0
M  V30 1790 C 178.621 -1.44534 1.40686 0
M  V30 1791 C 178.934 -1.95588 0.0213352 0
M  V30 1792 O 180.14 -2.71271 -0.111534 0
M  V30 1793 C 178.596 -2.61387 2.47396 0
M  V30 1794 C 178.204 -2.17094 3.91885 0
M  V30 1795 C 179.948 -3.38986 2.55517 0
M  V30 1796 C 177.855 -3.3094 4.90135 0
M  V30 1797 H 176.785 -0.542925 0.52321 0
M  V30 1798 H 179.436 -0.748054 1.6756 0
M  V30 1799 H 177.818 -3.33412 2.13664 0
M  V30 1800 H 178.992 -1.52318 4.34897 0
M  V30 1801 H 177.307 -1.52473 3.8748 0
M  V30 1802 H 179.904 -4.23747 3.26102 0
M  V30 1803 H 180.247 -3.84578 1.59391 0
M  V30 1804 H 180.78 -2.74021 2.8837 0
M  V30 1805 H 177.519 -2.90355 5.87685 0
M  V30 1806 H 177.039 -3.94546 4.51767 0
M  V30 1807 H 178.718 -3.9663 5.11169 0
M  V30 1808 N 178.85 -1.27639 -0.924453 0
M  V30 1809 C 180.075 -1.17101 -1.71179 0
M  V30 1810 C 180.5 0.268134 -1.86179 0
M  V30 1811 O 179.858 1.19415 -1.36418 0
M  V30 1812 C 179.906 -1.86313 -3.08739 0
M  V30 1813 O 179.01 -1.16331 -3.95652 0
M  V30 1814 H 178.351 -0.407091 -0.524569 0
M  V30 1815 H 180.881 -1.68767 -1.15666 0
M  V30 1816 H 180.891 -1.938 -3.59034 0
M  V30 1817 H 179.566 -2.91001 -2.97138 0
M  V30 1818 H 178.143 -1.16935 -3.54091 0
M  V30 1819 N 180.328 1.1314 -1.09713 0
M  V30 1820 C 181.558 1.88048 -0.855656 0
M  V30 1821 C 181.966 1.79537 0.596919 0
M  V30 1822 O 181.309 1.16196 1.42282 0
M  V30 1823 C 181.371 3.38314 -1.21589 0
M  V30 1824 C 181.035 3.70605 -2.67397 0
M  V30 1825 C 182.032 3.69596 -3.65643 0
M  V30 1826 C 179.717 4.0017 -3.03593 0
M  V30 1827 C 181.711 3.977 -4.9811 0
M  V30 1828 C 179.398 4.27935 -4.36251 0
M  V30 1829 C 180.396 4.26685 -5.33318 0
M  V30 1830 O 180.084 4.53767 -6.63589 0
M  V30 1831 H 179.816 0.60208 -0.307368 0
M  V30 1832 H 182.37 1.44128 -1.46343 0
M  V30 1833 H 180.6 3.82752 -0.551177 0
M  V30 1834 H 182.289 3.94552 -0.953083 0
M  V30 1835 H 183.055 3.46826 -3.39023 0
M  V30 1836 H 178.934 4.00289 -2.2867 0
M  V30 1837 H 182.478 3.9664 -5.73866 0
M  V30 1838 H 178.375 4.50178 -4.62613 0
M  V30 1839 H 179.143 4.71422 -6.69107 0
M  V30 1840 N 181.806 0.884767 1.30421 0
M  V30 1841 C 183.053 0.503105 1.96151 0
M  V30 1842 C 183.381 -0.947676 1.69851 0
M  V30 1843 O 182.636 -1.68467 0.995861 0
M  V30 1844 C 182.935 0.724318 3.49983 0
M  V30 1845 C 182.601 2.15015 3.96332 0
M  V30 1846 C 181.263 2.54005 4.08699 0
M  V30 1847 C 183.615 3.07936 4.20505 0
M  V30 1848 C 180.943 3.85128 4.42599 0
M  V30 1849 C 183.295 4.3859 4.55874 0
M  V30 1850 C 181.959 4.77474 4.66449 0
M  V30 1851 H 181.229 0.184099 0.717766 0
M  V30 1852 H 183.876 1.12058 1.55291 0
M  V30 1853 H 182.181 0.0238086 3.91793 0
M  V30 1854 H 183.878 0.408617 3.98913 0
M  V30 1855 H 180.468 1.8375 3.87213 0
M  V30 1856 H 184.652 2.79033 4.10431 0
M  V30 1857 H 179.908 4.14996 4.48986 0
M  V30 1858 H 184.082 5.10629 4.7353 0
M  V30 1859 H 181.709 5.79115 4.92473 0
M  V30 1860 N 183.284 -1.43765 0.645699 0
M  V30 1861 C 184.231 -2.30745 -0.0504648 0
M  V30 1862 C 185.201 -1.4432 -0.822241 0
M  V30 1863 O 186.386 -1.73202 -0.800358 0
M  V30 1864 C 183.526 -3.29802 -1.0161 0
M  V30 1865 C 182.639 -4.31326 -0.241219 0
M  V30 1866 C 181.774 -5.17469 -1.19998 0
M  V30 1867 C 180.813 -6.10691 -0.415094 0
M  V30 1868 N 179.95 -6.89483 -1.32506 0
M  V30 1869 H 184.79 -2.8973 0.697155 0
M  V30 1870 H 182.327 -1.42738 0.355563 0
M  V30 1871 H 184.285 -3.85734 -1.58949 0
M  V30 1872 H 182.915 -2.72483 -1.73069 0
M  V30 1873 H 181.967 -3.77749 0.448334 0
M  V30 1874 H 183.279 -4.9743 0.369437 0
M  V30 1875 H 182.433 -5.7799 -1.84424 0
M  V30 1876 H 181.172 -4.51473 -1.84455 0
M  V30 1877 H 180.177 -5.49265 0.242565 0
M  V30 1878 H 181.402 -6.78727 0.224966 0
M  V30 1879 H 179.348 -6.26142 -1.95657 0
M  V30 1880 H 179.265 -7.52081 -0.768783 0
M  V30 1881 H 180.533 -7.54516 -1.9577 0
M  V30 1882 N 184.763 -0.387143 -1.52771 0
M  V30 1883 C 185.71 0.449048 -2.26389 0
M  V30 1884 C 186.68 1.05961 -1.27912 0
M  V30 1885 O 187.865 1.08804 -1.56737 0
M  V30 1886 C 185.005 1.57155 -3.0724 0
M  V30 1887 C 184.118 0.984066 -4.20643 0
M  V30 1888 C 183.253 2.07745 -4.88892 0
M  V30 1889 C 182.292 1.46574 -5.94292 0
M  V30 1890 N 181.429 2.49834 -6.56146 0
M  V30 1891 H 186.269 -0.185205 -2.97424 0
M  V30 1892 H 183.806 -0.103164 -1.46738 0
M  V30 1893 H 185.764 2.23309 -3.52405 0
M  V30 1894 H 184.394 2.17615 -2.38419 0
M  V30 1895 H 183.446 0.212193 -3.79808 0
M  V30 1896 H 184.758 0.497029 -4.96318 0
M  V30 1897 H 183.912 2.81673 -5.3735 0
M  V30 1898 H 182.651 2.59807 -4.12737 0
M  V30 1899 H 181.656 0.711696 -5.45174 0
M  V30 1900 H 182.881 0.953088 -6.72379 0
M  V30 1901 H 180.827 3.0107 -5.82832 0
M  V30 1902 H 180.744 2.05879 -7.27427 0
M  V30 1903 H 182.012 3.23399 -7.09249 0
M  V30 1904 N 186.241 1.57166 -0.116904 0
M  V30 1905 C 187.191 2.11756 0.845178 0
M  V30 1906 C 188.175 1.03783 1.22955 0
M  V30 1907 O 189.367 1.3002 1.20099 0
M  V30 1908 C 186.496 2.71886 2.09602 0
M  V30 1909 C 185.582 3.86937 1.7361 0
M  V30 1910 N 185.973 4.94073 1.08284 0
M  V30 1911 C 184.271 3.97082 2.03082 0
M  V30 1912 C 184.972 5.74477 0.913855 0
M  V30 1913 N 183.948 5.2423 1.43818 0
M  V30 1914 H 187.75 2.91967 0.336523 0
M  V30 1915 H 185.264 1.62174 0.0856332 0
M  V30 1916 H 187.261 3.09338 2.79492 0
M  V30 1917 H 185.921 1.93138 2.61013 0
M  V30 1918 H 186.932 5.12483 0.747067 0
M  V30 1919 H 183.609 3.29372 2.56554 0
M  V30 1920 H 184.999 6.70701 0.40125 0
M  V30 1921 N 187.719 -0.156864 1.56817 0
M  V30 1922 C 189.13 -0.717916 1.72345 0
M  V30 1923 C 189.481 -1.82124 0.729747 0
M  V30 1924 O 188.606 -2.16141 -0.105781 0
M  V30 1925 C 189.201 -1.30904 3.12489 0
M  V30 1926 C 187.76 -1.81676 3.29653 0
M  V30 1927 C 186.907 -0.701349 2.68284 0
M  V30 1928 H 189.858 0.0686989 1.58551 0
M  V30 1929 H 189.879 -2.17882 3.11942 0
M  V30 1930 H 189.391 -0.505796 3.8479 0
M  V30 1931 H 187.492 -2.64598 2.62333 0
M  V30 1932 H 187.605 -1.95226 4.3752 0
M  V30 1933 H 185.969 -1.12548 2.28484 0
M  V30 1934 H 186.752 0.0902846 3.43181 0
M  V30 1935 N 189.197 -1.51736 -0.425897 0
M  V30 1936 C 190.107 -1.76738 -1.54275 0
M  V30 1937 C 191.123 -0.65211 -1.61318 0
M  V30 1938 O 192.299 -0.935654 -1.78346 0
M  V30 1939 C 189.364 -1.89755 -2.90162 0
M  V30 1940 C 188.425 -3.13633 -2.93143 0
M  V30 1941 C 187.658 -3.2602 -4.22548 0
M  V30 1942 O 187.881 -2.44067 -5.15546 0
M  V30 1943 O 186.815 -4.19071 -4.32046 0
M  V30 1944 H 190.641 -2.71502 -1.36089 0
M  V30 1945 H 188.226 -1.36376 -0.610069 0
M  V30 1946 H 190.108 -2.00236 -3.70788 0
M  V30 1947 H 188.783 -0.981785 -3.08452 0
M  V30 1948 H 187.69 -3.08622 -2.11431 0
M  V30 1949 H 189.023 -4.04936 -2.798 0
M  V30 1950 N 190.675 0.682077 -1.42076 0
M  V30 1951 C 192.086 1.26246 -1.37546 0
M  V30 1952 C 192.437 1.96092 -0.0651481 0
M  V30 1953 O 191.562 1.99587 0.836297 0
M  V30 1954 C 192.157 2.29594 -2.49143 0
M  V30 1955 C 190.716 2.83175 -2.47969 0
M  V30 1956 C 189.863 1.57395 -2.28303 0
M  V30 1957 H 192.814 0.475937 -1.51395 0
M  V30 1958 H 192.835 3.11175 -2.18976 0
M  V30 1959 H 192.347 1.78729 -3.44496 0
M  V30 1960 H 190.448 3.3818 -1.56413 0
M  V30 1961 H 190.561 3.32687 -3.44755 0
M  V30 1962 H 188.925 1.83699 -1.76428 0
M  V30 1963 H 189.708 1.08507 -3.25701 0
M  V30 1964 N 192.153 1.28127 0.917671 0
M  V30 1965 C 193.4 1.15052 1.66641 0
M  V30 1966 C 193.728 -0.301677 1.92146 0
M  V30 1967 O 192.983 -1.23622 1.51711 0
M  V30 1968 C 193.282 1.89018 3.03327 0
M  V30 1969 C 192.948 3.38832 2.97496 0
M  V30 1970 C 191.61 3.79693 2.95613 0
M  V30 1971 C 193.962 4.34378 2.88036 0
M  V30 1972 C 191.29 5.14447 2.82066 0
M  V30 1973 C 193.642 5.69201 2.7603 0
M  V30 1974 C 192.306 6.09343 2.72502 0
M  V30 1975 H 191.576 0.421006 0.609783 0
M  V30 1976 H 194.223 1.58855 1.06945 0
M  V30 1977 H 192.528 1.37752 3.66785 0
M  V30 1978 H 194.225 1.76321 3.60156 0
M  V30 1979 H 190.815 3.06342 2.99754 0
M  V30 1980 H 194.999 4.03775 2.88581 0
M  V30 1981 H 190.255 5.44681 2.77728 0
M  V30 1982 H 194.429 6.42901 2.67678 0
M  V30 1983 H 192.056 7.13712 2.61762 0
M  V30 1984 N 193.631 -1.12557 1.10312 0
M  V30 1985 C 194.878 -1.84038 0.844759 0
M  V30 1986 C 195.206 -1.84026 -0.629668 0
M  V30 1987 O 194.461 -1.28026 -1.48013 0
M  V30 1988 C 194.76 -3.31462 1.33669 0
M  V30 1989 C 194.426 -3.51647 2.82232 0
M  V30 1990 C 193.088 -3.56864 3.22802 0
M  V30 1991 C 195.44 -3.58867 3.77974 0
M  V30 1992 C 192.768 -3.66844 4.57867 0
M  V30 1993 C 195.12 -3.70375 5.1284 0
M  V30 1994 C 193.784 -3.73848 5.52986 0
M  V30 1995 H 193.054 -0.673444 0.309119 0
M  V30 1996 H 195.701 -1.32824 1.37949 0
M  V30 1997 H 194.006 -3.85091 0.721949 0
M  V30 1998 H 195.703 -3.85236 1.11329 0
M  V30 1999 H 192.293 -3.48249 2.49842 0
M  V30 2000 H 196.477 -3.54107 3.47738 0
M  V30 2001 H 191.733 -3.67804 4.88396 0
M  V30 2002 H 195.907 -3.74904 5.86873 0
M  V30 2003 H 193.534 -3.81333 6.57639 0
M  V30 2004 N 195.109 -0.891671 -1.2995 0
M  V30 2005 C 196.072 -0.36828 -2.26222 0
M  V30 2006 C 197.072 0.493014 -1.53056 0
M  V30 2007 O 198.262 0.299213 -1.71611 0
M  V30 2008 C 195.394 0.47442 -3.37583 0
M  V30 2009 H 196.587 -1.21844 -2.74033 0
M  V30 2010 H 194.14 -0.669107 -1.41254 0
M  V30 2011 H 194.875 1.34489 -2.95099 0
M  V30 2012 H 194.66 -0.142615 -3.91841 0
M  V30 2013 H 196.15 0.83218 -4.09224 0
M  V30 2014 N 196.587 1.43421 -0.653314 0
M  V30 2015 C 197.517 2.33487 0.0246656 0
M  V30 2016 C 198.498 1.49475 0.811863 0
M  V30 2017 O 199.683 1.78139 0.773322 0
M  V30 2018 C 196.813 3.32841 0.99166 0
M  V30 2019 C 195.767 4.26842 0.314568 0
M  V30 2020 C 195.093 5.16236 1.39302 0
M  V30 2021 C 196.393 5.16243 -0.793095 0
M  V30 2022 H 198.087 2.90427 -0.727481 0
M  V30 2023 H 195.633 1.39649 -0.351287 0
M  V30 2024 H 197.586 3.94747 1.47487 0
M  V30 2025 H 196.31 2.74158 1.77497 0
M  V30 2026 H 194.969 3.663 -0.148199 0
M  V30 2027 H 194.617 4.53891 2.16776 0
M  V30 2028 H 194.317 5.79948 0.945223 0
M  V30 2029 H 195.841 5.81015 1.87759 0
M  V30 2030 H 197.255 5.71958 -0.392039 0
M  V30 2031 H 195.652 5.88676 -1.16536 0
M  V30 2032 H 196.722 4.55927 -1.65103 0
M  V30 2033 N 198.065 0.39524 1.52563 0
M  V30 2034 C 199.028 -0.425001 2.25225 0
M  V30 2035 C 200.028 -0.985266 1.27079 0
M  V30 2036 O 201.218 -0.866332 1.5113 0
M  V30 2037 C 198.35 -1.59686 3.01186 0
M  V30 2038 H 199.543 0.211233 2.99155 0
M  V30 2039 H 197.096 0.147472 1.55603 0
M  V30 2040 H 197.831 -2.27035 2.31572 0
M  V30 2041 H 197.616 -1.20176 3.73229 0
M  V30 2042 H 199.106 -2.17743 3.5634 0
M  V30 2043 N 199.544 -1.57102 0.125237 0
M  V30 2044 C 200.491 -2.15641 -0.822655 0
M  V30 2045 C 201.461 -1.08313 -1.25927 0
M  V30 2046 O 202.646 -1.36251 -1.33567 0
M  V30 2047 C 199.786 -2.76504 -2.06494 0
M  V30 2048 C 198.899 -3.98158 -1.67612 0
M  V30 2049 C 198.034 -4.47088 -2.86854 0
M  V30 2050 C 197.073 -5.6126 -2.44242 0
M  V30 2051 N 196.21 -6.04905 -3.56419 0
M  V30 2052 H 201.05 -2.96313 -0.316625 0
M  V30 2053 H 198.587 -1.46388 -0.144588 0
M  V30 2054 H 200.545 -3.09925 -2.79289 0
M  V30 2055 H 199.175 -1.98512 -2.54545 0
M  V30 2056 H 198.227 -3.70858 -0.846661 0
M  V30 2057 H 199.539 -4.80934 -1.32301 0
M  V30 2058 H 198.693 -4.82451 -3.67867 0
M  V30 2059 H 197.432 -3.63275 -3.25396 0
M  V30 2060 H 196.437 -5.25495 -1.61663 0
M  V30 2061 H 197.662 -6.46843 -2.0681 0
M  V30 2062 H 195.608 -5.24032 -3.94623 0
M  V30 2063 H 195.525 -6.82552 -3.25051 0
M  V30 2064 H 196.793 -6.44907 -4.37853 0
M  V30 2065 N 201.022 0.148545 -1.56898 0
M  V30 2066 C 201.932 1.20293 -2.01412 0
M  V30 2067 C 202.948 1.47107 -0.929273 0
M  V30 2068 O 204.124 1.58807 -1.23863 0
M  V30 2069 C 201.189 2.51682 -2.38447 0
M  V30 2070 C 200.25 2.32529 -3.60872 0
M  V30 2071 C 199.483 3.57653 -3.96132 0
M  V30 2072 O 199.706 4.63771 -3.32073 0
M  V30 2073 O 198.64 3.50408 -4.89385 0
M  V30 2074 H 202.466 0.855025 -2.91416 0
M  V30 2075 H 200.051 0.357151 -1.45068 0
M  V30 2076 H 201.933 3.29147 -2.63135 0
M  V30 2077 H 200.608 2.86006 -1.51599 0
M  V30 2078 H 199.515 1.53019 -3.41373 0
M  V30 2079 H 200.848 2.03121 -4.48333 0
M  V30 2080 N 202.5 1.5196 0.417844 0
M  V30 2081 C 203.43 1.77634 1.51554 0
M  V30 2082 C 204.411 0.626918 1.58126 0
M  V30 2083 O 205.596 0.871632 1.7354 0
M  V30 2084 C 202.726 1.91911 2.8946 0
M  V30 2085 C 201.68 3.07463 2.97743 0
M  V30 2086 C 201.006 3.06951 4.37819 0
M  V30 2087 C 202.306 4.47082 2.70027 0
M  V30 2088 H 204 2.6955 1.3032 0
M  V30 2089 H 201.546 1.29706 0.625492 0
M  V30 2090 H 203.499 2.08455 3.6623 0
M  V30 2091 H 202.223 0.966598 3.11969 0
M  V30 2092 H 200.882 2.90656 2.23416 0
M  V30 2093 H 200.53 2.09438 4.57323 0
M  V30 2094 H 200.23 3.84556 4.44286 0
M  V30 2095 H 201.754 3.25613 5.16535 0
M  V30 2096 H 203.168 4.6414 3.36522 0
M  V30 2097 H 201.565 5.2654 2.87881 0
M  V30 2098 H 202.635 4.55777 1.65514 0
M  V30 2099 N 203.978 -0.674533 1.42435 0
M  V30 2100 C 205.208 -1.46071 1.46105 0
M  V30 2101 C 205.616 -1.89067 0.0709605 0
M  V30 2102 O 204.959 -1.58731 -0.924677 0
M  V30 2103 C 205.021 -2.74145 2.32561 0
M  V30 2104 C 204.685 -2.53224 3.8043 0
M  V30 2105 C 205.682 -2.17809 4.72075 0
M  V30 2106 C 203.367 -2.6821 4.24698 0
M  V30 2107 C 205.361 -1.97648 6.05982 0
M  V30 2108 C 203.048 -2.47665 5.58664 0
M  V30 2109 C 204.046 -2.12437 6.49122 0
M  V30 2110 O 203.734 -1.9209 7.80613 0
M  V30 2111 H 203.466 -0.455959 0.499076 0
M  V30 2112 H 206.02 -0.836193 1.87609 0
M  V30 2113 H 204.25 -3.3908 1.85908 0
M  V30 2114 H 205.939 -3.36028 2.27683 0
M  V30 2115 H 206.705 -2.05826 4.39159 0
M  V30 2116 H 202.584 -2.94609 3.54579 0
M  V30 2117 H 206.128 -1.70075 6.7655 0
M  V30 2118 H 202.025 -2.59244 5.91154 0
M  V30 2119 H 202.793 -2.06686 7.91974 0
M  V30 2120 N 205.456 -1.28612 -0.910864 0
M  V30 2121 C 206.867 -1.14406 -1.47541 0
M  V30 2122 C 207.218 0.264901 -1.94403 0
M  V30 2123 O 206.343 1.15942 -1.82719 0
M  V30 2124 C 206.938 -2.07073 -2.68153 0
M  V30 2125 C 205.497 -1.96923 -3.20778 0
M  V30 2126 C 204.644 -1.98646 -1.93481 0
M  V30 2127 H 207.595 -1.41259 -0.723291 0
M  V30 2128 H 207.616 -1.63642 -3.43514 0
M  V30 2129 H 207.128 -3.09611 -2.34015 0
M  V30 2130 H 205.229 -0.97433 -3.59635 0
M  V30 2131 H 205.342 -2.84026 -3.85832 0
M  V30 2132 H 203.706 -1.43093 -2.10705 0
M  V30 2133 H 204.489 -3.02868 -1.61634 0
M  V30 2134 N 206.934 1.1197 -1.10907 0
M  V30 2135 C 208.182 1.83225 -0.852819 0
M  V30 2136 C 208.503 1.84769 0.623341 0
M  V30 2137 O 207.773 1.3143 1.45269 0
M  V30 2138 H 206.353 0.67849 -0.312507 0
M  V30 2139 H 209.015 1.3556 -1.40033 0
M  V30 2140 H 208.111 2.87265 -1.22005 0
M  V30 2141 N 208.412 0.89855 1.29475 0
M  V30 2142 C 209.344 0.332726 2.26772 0
M  V30 2143 C 210.357 -0.520323 1.54261 0
M  V30 2144 O 211.546 -0.337668 1.75277 0
M  V30 2145 C 208.646 -0.544334 3.345 0
M  V30 2146 C 207.819 0.282728 4.36485 0
M  V30 2147 C 206.878 -0.526982 5.23555 0
M  V30 2148 O 205.904 0.0551165 5.69173 0
M  V30 2149 N 207.106 -1.83331 5.5079 0
M  V30 2150 H 209.871 1.16897 2.75962 0
M  V30 2151 H 207.432 0.762919 1.42798 0
M  V30 2152 H 209.424 -1.09239 3.89678 0
M  V30 2153 H 207.994 -1.28127 2.85136 0
M  V30 2154 H 207.214 1.01221 3.80983 0
M  V30 2155 H 208.502 0.84918 5.01664 0
M  V30 2156 H 207.9 -2.32898 5.15534 0
M  V30 2157 H 206.457 -2.32852 6.08788 0
M  V30 2158 N 209.89 -1.43072 0.660911 0
M  V30 2159 C 211.137 -2.01721 0.177445 0
M  V30 2160 C 211.465 -1.5218 -1.21126 0
M  V30 2161 O 210.72 -0.708659 -1.82419 0
M  V30 2162 C 211.019 -3.57103 0.145563 0
M  V30 2163 C 210.685 -4.26021 1.47705 0
M  V30 2164 C 209.347 -4.44563 1.84165 0
M  V30 2165 C 211.699 -4.64983 2.35458 0
M  V30 2166 C 209.027 -4.99334 3.0803 0
M  V30 2167 C 211.379 -5.21127 3.58622 0
M  V30 2168 C 210.043 -5.37884 3.95268 0
M  V30 2169 H 209.313 -0.73815 0.0649317 0
M  V30 2170 H 211.96 -1.71446 0.853144 0
M  V30 2171 H 210.265 -3.86965 -0.61361 0
M  V30 2172 H 211.962 -4.00248 -0.2455 0
M  V30 2173 H 208.552 -4.11939 1.18339 0
M  V30 2174 H 212.736 -4.50343 2.08579 0
M  V30 2175 H 207.992 -5.10493 3.36462 0
M  V30 2176 H 212.166 -5.50262 4.26831 0
M  V30 2177 H 209.793 -5.80089 4.91325 0
M  V30 2178 N 211.368 -0.403325 -1.52352 0
M  V30 2179 C 212.315 0.425011 -2.26853 0
M  V30 2180 C 213.285 1.04598 -1.29029 0
M  V30 2181 O 214.47 1.07135 -1.57882 0
M  V30 2182 C 211.61 1.53888 -3.08889 0
M  V30 2183 C 210.723 0.939396 -4.21663 0
M  V30 2184 C 209.858 2.02547 -4.91068 0
M  V30 2185 C 208.897 1.40263 -5.95813 0
M  V30 2186 N 208.034 2.4286 -6.58759 0
M  V30 2187 H 212.874 -0.21674 -2.97211 0
M  V30 2188 H 210.411 -0.118722 -1.4662 0
M  V30 2189 H 212.369 2.19558 -3.54753 0
M  V30 2190 H 210.999 2.15074 -2.40714 0
M  V30 2191 H 210.051 0.171898 -3.80011 0
M  V30 2192 H 211.363 0.44436 -4.96817 0
M  V30 2193 H 210.517 2.75958 -5.40308 0
M  V30 2194 H 209.256 2.55415 -4.15469 0
M  V30 2195 H 208.261 0.653833 -5.45898 0
M  V30 2196 H 209.486 0.881719 -6.73352 0
M  V30 2197 H 207.432 2.94871 -5.85992 0
M  V30 2198 H 207.349 1.98152 -7.2957 0
M  V30 2199 H 208.617 3.15858 -7.12639 0
M  V30 2200 N 212.846 1.57033 -0.133567 0
M  V30 2201 C 214.257 1.82593 0.389464 0
M  V30 2202 C 214.608 1.05156 1.6564 0
M  V30 2203 O 213.733 0.292644 2.14412 0
M  V30 2204 C 214.328 3.31204 0.713377 0
M  V30 2205 C 212.887 3.57393 1.18098 0
M  V30 2206 C 212.034 2.76598 0.197126 0
M  V30 2207 H 214.985 1.54598 -0.358481 0
M  V30 2208 H 215.006 3.46627 1.56939 0
M  V30 2209 H 214.518 3.87537 -0.2089 0
M  V30 2210 H 212.619 3.06433 2.11966 0
M  V30 2211 H 212.732 4.65915 1.11624 0
M  V30 2212 H 211.096 2.45257 0.687088 0
M  V30 2213 H 211.879 3.35697 -0.718504 0
M  V30 2214 N 214.325 -0.140222 1.56975 0
M  V30 2215 C 215.553 -0.866437 1.87884 0
M  V30 2216 C 215.968 -1.74428 0.722517 0
M  V30 2217 O 215.325 -1.79891 -0.30749 0
M  V30 2218 C 215.376 -1.71753 3.18093 0
M  V30 2219 O 215.097 -0.875056 4.29272 0
M  V30 2220 C 216.598 -2.55074 3.62563 0
M  V30 2221 H 213.818 -0.25019 0.622612 0
M  V30 2222 H 216.362 -0.130977 2.0408 0
M  V30 2223 H 214.517 -2.40598 3.03631 0
M  V30 2224 H 214.931 -1.46002 5.03769 0
M  V30 2225 H 216.405 -3.10356 4.5649 0
M  V30 2226 H 216.882 -3.31434 2.88181 0
M  V30 2227 H 217.488 -1.91509 3.79743 0
M  V30 2228 N 215.803 -1.52179 -0.40978 0
M  V30 2229 C 217.052 -1.65434 -1.15388 0
M  V30 2230 C 217.365 -0.390056 -1.91671 0
M  V30 2231 O 218.571 -0.402399 -2.68501 0
M  V30 2232 C 217.027 -2.92279 -2.10003 0
M  V30 2233 C 216.635 -4.25813 -1.39239 0
M  V30 2234 C 218.379 -3.14897 -2.84675 0
M  V30 2235 C 216.286 -5.43782 -2.32498 0
M  V30 2236 H 215.216 -0.616267 -0.434432 0
M  V30 2237 H 217.867 -1.78666 -0.418401 0
M  V30 2238 H 216.249 -2.72744 -2.871 0
M  V30 2239 H 217.423 -4.55828 -0.675099 0
M  V30 2240 H 215.738 -4.09292 -0.766097 0
M  V30 2241 H 218.335 -4.0021 -3.54593 0
M  V30 2242 H 218.678 -2.29103 -3.47588 0
M  V30 2243 H 219.211 -3.34901 -2.14677 0
M  V30 2244 H 215.95 -6.3192 -1.74233 0
M  V30 2245 H 215.47 -5.18106 -3.02201 0
M  V30 2246 H 217.149 -5.76834 -2.93038 0
M  V30 2247 N 217.281 0.66697 -1.42791 0
M  V30 2248 C 218.521 1.43892 -1.4517 0
M  V30 2249 C 218.885 1.91877 -0.0687551 0
M  V30 2250 O 220.086 2.6878 0.0327455 0
M  V30 2251 C 218.357 2.59839 -2.45395 0
M  V30 2252 S 219.916 3.48572 -2.66539 0
M  V30 2253 H 216.734 0.491356 -0.513897 0
M  V30 2254 H 219.336 0.775656 -1.79454 0
M  V30 2255 H 218.04 2.22838 -3.44632 0
M  V30 2256 H 217.571 3.3103 -2.12562 0
M  V30 2257 H 219.586 4.56094 -1.95429 0
M  V30 2258 N 218.759 1.29093 0.90403 0
M  V30 2259 C 219.709 1.10482 1.99443 0
M  V30 2260 C 220.693 0.0255401 1.6088 0
M  V30 2261 O 221.885 0.24677 1.75271 0
M  V30 2262 C 219.014 0.778882 3.34348 0
M  V30 2263 C 218.1 1.89749 3.79284 0
M  V30 2264 N 218.491 3.14045 3.96497 0
M  V30 2265 C 216.789 1.78955 4.08523 0
M  V30 2266 C 217.49 3.86996 4.34292 0
M  V30 2267 N 216.466 3.14909 4.43095 0
M  V30 2268 H 220.268 2.04778 2.10815 0
M  V30 2269 H 217.782 1.20155 1.09255 0
M  V30 2270 H 219.779 0.62661 4.12164 0
M  V30 2271 H 218.439 -0.156205 3.24324 0
M  V30 2272 H 219.45 3.49548 3.82148 0
M  V30 2273 H 216.127 0.926886 4.07081 0
M  V30 2274 H 217.517 4.93941 4.55491 0
M  V30 2275 N 220.237 -1.11381 1.11499 0
M  V30 2276 C 221.467 -1.86663 0.885464 0
M  V30 2277 C 221.875 -1.80464 -0.568281 0
M  V30 2278 O 221.218 -1.18445 -1.40415 0
M  V30 2279 C 221.28 -3.36337 1.26956 0
M  V30 2280 C 220.944 -3.66304 2.73259 0
M  V30 2281 C 221.941 -3.63733 3.71476 0
M  V30 2282 C 219.626 -3.9529 3.09921 0
M  V30 2283 C 221.62 -3.89725 5.04374 0
M  V30 2284 C 219.307 -4.20941 4.43004 0
M  V30 2285 C 220.305 -4.18147 5.40039 0
M  V30 2286 O 219.993 -4.43153 6.70724 0
M  V30 2287 H 219.725 -0.597114 0.316908 0
M  V30 2288 H 222.279 -1.41782 1.48617 0
M  V30 2289 H 220.509 -3.81826 0.611999 0
M  V30 2290 H 222.198 -3.92986 1.01573 0
M  V30 2291 H 222.964 -3.41389 3.44498 0
M  V30 2292 H 218.843 -3.966 2.35009 0
M  V30 2293 H 222.387 -3.8746 5.80104 0
M  V30 2294 H 218.284 -4.42761 4.69716 0
M  V30 2295 H 219.052 -4.60717 6.76522 0
M  V30 2296 N 221.715 -0.905404 -1.28997 0
M  V30 2297 C 222.962 -0.534248 -1.95325 0
M  V30 2298 C 223.29 0.920535 -1.71337 0
M  V30 2299 O 222.545 1.66861 -1.02254 0
M  V30 2300 C 222.844 -0.779906 -3.48787 0
M  V30 2301 C 222.51 -2.21293 -3.92861 0
M  V30 2302 C 221.172 -2.60475 -4.04606 0
M  V30 2303 C 223.524 -3.14587 -4.15553 0
M  V30 2304 C 220.852 -3.9212 -4.36416 0
M  V30 2305 C 223.204 -4.45787 -4.48839 0
M  V30 2306 C 221.868 -4.84834 -4.58794 0
M  V30 2307 H 221.138 -0.195495 -0.714747 0
M  V30 2308 H 223.785 -1.14514 -1.53488 0
M  V30 2309 H 222.09 -0.0861365 -3.91705 0
M  V30 2310 H 223.787 -0.472029 -3.98212 0
M  V30 2311 H 220.377 -1.89887 -3.84241 0
M  V30 2312 H 224.561 -2.85528 -4.0594 0
M  V30 2313 H 219.817 -4.22086 -4.42327 0
M  V30 2314 H 223.991 -5.18098 -4.65346 0
M  V30 2315 H 221.618 -5.86877 -4.83197 0
M  V30 2316 N 223.193 1.4272 -0.668489 0
M  V30 2317 C 224.126 2.28111 0.0637898 0
M  V30 2318 C 225.104 1.40705 0.814912 0
M  V30 2319 O 226.288 1.70146 0.81134 0
M  V30 2320 C 223.415 3.20429 1.0974 0
M  V30 2321 C 222.461 4.24197 0.442579 0
M  V30 2322 S 223.294 5.29563 -0.795173 0
M  V30 2323 C 224.45 6.25449 0.237516 0
M  V30 2324 H 224.683 2.8987 -0.660521 0
M  V30 2325 H 222.216 1.47456 -0.457821 0
M  V30 2326 H 224.174 3.74158 1.68868 0
M  V30 2327 H 222.835 2.57818 1.79411 0
M  V30 2328 H 222.028 4.88954 1.22227 0
M  V30 2329 H 221.63 3.73925 -0.0749554 0
M  V30 2330 H 223.922 6.68524 1.09915 0
M  V30 2331 H 224.865 7.07104 -0.375421 0
M  V30 2332 H 225.273 5.61511 0.580167 0
M  V30 2333 N 224.671 0.411399 1.52136 0
M  V30 2334 C 226.087 0.0623865 1.59478 0
M  V30 2335 C 226.287 -1.42554 1.4241 0
M  V30 2336 O 225.343 -2.19263 1.2522 0
M  V30 2337 C 226.656 0.559331 2.95452 0
M  V30 2338 C 228.204 0.517503 3.08692 0
M  V30 2339 C 228.679 0.990994 4.4715 0
M  V30 2340 N 230.17 0.947908 4.53397 0
M  V30 2341 C 230.905 1.28544 5.58806 0
M  V30 2342 N 230.401 1.69454 6.71757 0
M  V30 2343 N 232.194 1.20526 5.49026 0
M  V30 2344 H 224.345 1.37982 1.61477 0
M  V30 2345 H 226.608 0.566977 0.759764 0
M  V30 2346 H 226.314 1.59938 3.1323 0
M  V30 2347 H 226.188 -0.0298014 3.77188 0
M  V30 2348 H 228.575 -0.513505 2.90598 0
M  V30 2349 H 228.656 1.14272 2.28857 0
M  V30 2350 H 228.3 2.02034 4.65988 0
M  V30 2351 H 228.23 0.34257 5.25485 0
M  V30 2352 H 230.721 0.647157 3.72317 0
M  V30 2353 H 231.034 1.93513 7.48179 0
M  V30 2354 H 229.379 1.73359 6.73032 0
M  V30 2355 H 232.57 0.884505 4.59667 0
M  V30 2356 H 232.743 1.47161 6.31069 0
M  V30 2357 N 226.149 -1.5696 0.141893 0
M  V30 2358 C 227.079 -2.19516 -0.795936 0
M  V30 2359 C 228.06 -1.14187 -1.26077 0
M  V30 2360 O 229.245 -1.42511 -1.31925 0
M  V30 2361 C 226.375 -2.81272 -2.03723 0
M  V30 2362 C 225.329 -3.92384 -1.70936 0
M  V30 2363 C 224.655 -4.41052 -3.02287 0
M  V30 2364 C 225.955 -5.13403 -0.959954 0
M  V30 2365 H 227.649 -2.98138 -0.274596 0
M  V30 2366 H 225.195 -1.43406 -0.130636 0
M  V30 2367 H 227.148 -3.237 -2.69808 0
M  V30 2368 H 225.872 -1.99973 -2.58221 0
M  V30 2369 H 224.531 -3.50566 -1.07232 0
M  V30 2370 H 224.179 -3.56582 -3.54765 0
M  V30 2371 H 223.879 -5.15993 -2.81114 0
M  V30 2372 H 225.403 -4.86146 -3.69451 0
M  V30 2373 H 226.817 -5.52706 -1.52279 0
M  V30 2374 H 225.214 -5.94073 -0.848357 0
M  V30 2375 H 226.284 -4.84875 0.0492434 0
M  V30 2376 N 227.627 0.131896 -1.57047 0
M  V30 2377 C 228.557 1.16384 -2.02428 0
M  V30 2378 C 229.538 1.43936 -0.90644 0
M  V30 2379 O 230.723 1.54599 -1.17528 0
M  V30 2380 C 227.853 2.49328 -2.4177 0
M  V30 2381 C 226.807 2.36266 -3.56879 0
M  V30 2382 C 226.133 3.74057 -3.8208 0
M  V30 2383 C 227.433 1.834 -4.89042 0
M  V30 2384 H 229.127 0.786433 -2.88887 0
M  V30 2385 H 226.673 0.376855 -1.38981 0
M  V30 2386 H 228.626 3.21759 -2.7212 0
M  V30 2387 H 227.35 2.88934 -1.52266 0
M  V30 2388 H 226.009 1.66286 -3.26718 0
M  V30 2389 H 225.657 4.11125 -2.89803 0
M  V30 2390 H 225.357 3.66174 -4.59554 0
M  V30 2391 H 226.881 4.48012 -4.1487 0
M  V30 2392 H 228.295 2.45636 -5.18011 0
M  V30 2393 H 226.692 1.8637 -5.70426 0
M  V30 2394 H 227.762 0.790662 -4.7841 0
M  V30 2395 N 229.106 1.52395 0.401703 0
M  V30 2396 C 230.053 1.76268 1.48991 0
M  V30 2397 C 231.023 0.605386 1.54675 0
M  V30 2398 O 232.208 0.843742 1.7113 0
M  V30 2399 C 229.348 1.92592 2.86361 0
M  V30 2400 C 228.461 3.20259 2.89928 0
M  V30 2401 C 227.596 3.26972 4.18644 0
M  V30 2402 C 226.635 4.48812 4.16214 0
M  V30 2403 N 225.772 4.52877 5.36514 0
M  V30 2404 H 230.612 2.6914 1.27935 0
M  V30 2405 H 228.149 1.33355 0.620871 0
M  V30 2406 H 230.107 2.0004 3.66115 0
M  V30 2407 H 228.737 1.03093 3.05895 0
M  V30 2408 H 227.789 3.21945 2.02621 0
M  V30 2409 H 229.101 4.10056 2.83999 0
M  V30 2410 H 228.255 3.33533 5.06794 0
M  V30 2411 H 226.994 2.35126 4.27278 0
M  V30 2412 H 225.999 4.4239 3.26453 0
M  V30 2413 H 227.224 5.41961 4.09213 0
M  V30 2414 H 225.17 3.63917 5.45802 0
M  V30 2415 H 225.087 5.36529 5.32609 0
M  V30 2416 H 226.355 4.63676 6.26597 0
M  V30 2417 N 230.584 -0.659388 1.43143 0
M  V30 2418 C 231.861 -1.41627 1.34912 0
M  V30 2419 C 232.241 -2.11099 -0.00607785 0
M  V30 2420 O 231.589 -2.04353 -1.02236 0
M  V30 2421 C 231.799 -2.40604 2.52805 0
M  V30 2422 C 233.147 -3.04789 2.95616 0
M  V30 2423 O 234.171 -2.50932 2.52807 0
M  V30 2424 O 233.03 -4.02421 3.69756 0
M  V30 2425 H 230.124 -0.63246 0.532844 0
M  V30 2426 H 232.67 -0.686814 1.5518 0
M  V30 2427 H 231.442 -1.88174 3.43083 0
M  V30 2428 H 231.065 -3.21009 2.34604 0
M  V30 2429 N 232.062 -1.29571 -0.897171 0
M  V30 2430 C 233.009 -1.14916 -2.00158 0
M  V30 2431 C 233.979 -0.0418149 -1.66047 0
M  V30 2432 O 235.164 -0.209793 -1.89643 0
M  V30 2433 C 232.304 -0.834307 -3.34863 0
M  V30 2434 C 231.417 -2.02234 -3.8174 0
M  V30 2435 C 230.552 -1.64664 -5.05034 0
M  V30 2436 C 229.591 -2.80033 -5.44286 0
M  V30 2437 N 228.728 -2.42843 -6.58765 0
M  V30 2438 H 233.568 -2.09403 -2.12025 0
M  V30 2439 H 231.105 -1.042 -1.0383 0
M  V30 2440 H 233.063 -0.632436 -4.12379 0
M  V30 2441 H 231.693 0.0736656 -3.22716 0
M  V30 2442 H 230.745 -2.33583 -3.00238 0
M  V30 2443 H 232.057 -2.88673 -4.06779 0
M  V30 2444 H 231.211 -1.4078 -5.9014 0
M  V30 2445 H 229.95 -0.753766 -4.8184 0
M  V30 2446 H 228.955 -3.04596 -4.57713 0
M  V30 2447 H 230.18 -3.69989 -5.6946 0
M  V30 2448 H 228.126 -1.56046 -6.3717 0
M  V30 2449 H 228.043 -3.22815 -6.83613 0
M  V30 2450 H 229.311 -2.22285 -7.47134 0
M  V30 2451 N 233.54 1.10788 -1.12088 0
M  V30 2452 C 234.788 1.8231 -0.872205 0
M  V30 2453 C 235.109 1.85419 0.603709 0
M  V30 2454 O 234.379 1.32963 1.43867 0
M  V30 2455 H 232.959 0.675137 -0.319686 0
M  V30 2456 H 235.621 1.34068 -1.41463 0
M  V30 2457 H 234.717 2.85955 -1.25045 0
M  V30 2458 N 235.018 0.912232 1.28515 0
M  V30 2459 C 235.948 0.416403 2.29757 0
M  V30 2460 C 236.929 -0.515194 1.6211 0
M  V30 2461 O 238.114 -0.423253 1.89532 0
M  V30 2462 C 235.244 -0.34572 3.45575 0
M  V30 2463 C 234.198 0.496599 4.25109 0
M  V30 2464 C 233.524 -0.393771 5.33248 0
M  V30 2465 C 234.824 1.75307 4.92001 0
M  V30 2466 H 236.518 1.26249 2.7148 0
M  V30 2467 H 234.064 0.608515 1.30511 0
M  V30 2468 H 236.017 -0.703422 4.15488 0
M  V30 2469 H 234.741 -1.2257 3.02728 0
M  V30 2470 H 233.4 0.8368 3.56922 0
M  V30 2471 H 233.048 -1.27225 4.86644 0
M  V30 2472 H 232.748 0.166209 5.87365 0
M  V30 2473 H 234.272 -0.747389 6.06009 0
M  V30 2474 H 235.686 1.46437 5.54283 0
M  V30 2475 H 234.083 2.25534 5.56106 0
M  V30 2476 H 235.153 2.48176 4.16577 0
M  V30 2477 N 236.496 -1.42363 0.676048 0
M  V30 2478 C 237.426 -2.33497 0.0124832 0
M  V30 2479 C 238.407 -1.50748 -0.787981 0
M  V30 2480 O 239.592 -1.79346 -0.744884 0
M  V30 2481 C 236.722 -3.34377 -0.938582 0
M  V30 2482 C 235.676 -4.27289 -0.246622 0
M  V30 2483 C 235.002 -5.18386 -1.31071 0
M  V30 2484 C 236.302 -5.14916 0.875125 0
M  V30 2485 H 237.996 -2.89233 0.773593 0
M  V30 2486 H 235.542 -1.39073 0.37346 0
M  V30 2487 H 237.495 -3.97044 -1.41188 0
M  V30 2488 H 236.219 -2.76947 -1.73113 0
M  V30 2489 H 234.878 -3.66018 0.206456 0
M  V30 2490 H 234.526 -4.57282 -2.09528 0
M  V30 2491 H 234.226 -5.81378 -0.852839 0
M  V30 2492 H 235.75 -5.83929 -1.78492 0
M  V30 2493 H 237.164 -5.71262 0.482983 0
M  V30 2494 H 235.561 -5.86747 1.25887 0
M  V30 2495 H 236.631 -4.53242 1.72335 0
M  V30 2496 N 237.974 -0.419461 -1.51915 0
M  V30 2497 C 238.904 0.391813 -2.30189 0
M  V30 2498 C 239.885 1.03699 -1.34836 0
M  V30 2499 O 241.07 1.04403 -1.63748 0
M  V30 2500 C 238.2 1.50312 -3.13087 0
M  V30 2501 C 237.154 0.9824 -4.16573 0
M  V30 2502 C 236.48 2.18809 -4.8788 0
M  V30 2503 C 237.78 0.0292356 -5.22292 0
M  V30 2504 H 239.474 -0.26135 -2.98257 0
M  V30 2505 H 237.02 -0.127134 -1.43438 0
M  V30 2506 H 238.973 2.07773 -3.66617 0
M  V30 2507 H 237.697 2.18431 -2.42807 0
M  V30 2508 H 236.356 0.430119 -3.64068 0
M  V30 2509 H 236.004 2.85507 -4.14119 0
M  V30 2510 H 235.704 1.84615 -5.57845 0
M  V30 2511 H 237.228 2.76858 -5.44226 0
M  V30 2512 H 238.642 0.512976 -5.71 0
M  V30 2513 H 237.039 -0.2244 -5.9968 0
M  V30 2514 H 238.109 -0.912931 -4.76228 0
M  V30 2515 N 239.452 1.56882 -0.150215 0
M  V30 2516 C 240.868 1.58263 0.20617 0
M  V30 2517 C 241.068 1.16464 1.64434 0
M  V30 2518 O 240.124 0.866422 2.3717 0
M  V30 2519 C 241.437 3.00649 -0.0555025 0
M  V30 2520 C 242.985 3.12999 0.00795388 0
M  V30 2521 C 243.46 4.5744 -0.226429 0
M  V30 2522 N 244.951 4.62875 -0.173469 0
M  V30 2523 C 245.686 5.72454 -0.329288 0
M  V30 2524 N 245.182 6.90669 -0.543005 0
M  V30 2525 N 246.975 5.61467 -0.266666 0
M  V30 2526 H 239.126 1.82345 -1.08922 0
M  V30 2527 H 241.389 0.844149 -0.431413 0
M  V30 2528 H 241.095 3.3563 -1.05096 0
M  V30 2529 H 240.969 3.71337 0.66246 0
M  V30 2530 H 243.356 2.77857 0.993966 0
M  V30 2531 H 243.437 2.4479 -0.742388 0
M  V30 2532 H 243.081 4.93287 -1.20956 0
M  V30 2533 H 243.011 5.2378 0.544274 0
M  V30 2534 H 245.502 3.77898 -0.0130709 0
M  V30 2535 H 245.815 7.70045 -0.651922 0
M  V30 2536 H 244.16 6.92581 -0.579366 0
M  V30 2537 H 247.351 4.67992 -0.100441 0
M  V30 2538 H 247.524 6.46816 -0.391535 0
M  V30 2539 N 240.93 -0.123565 1.57115 0
M  V30 2540 C 242.17 -0.838097 1.86428 0
M  V30 2541 C 242.534 -1.77266 0.737611 0
M  V30 2542 O 243.735 -2.52842 0.912389 0
M  V30 2543 C 242.006 -1.57219 3.20962 0
M  V30 2544 S 243.565 -2.32893 3.71896 0
M  V30 2545 H 240.383 -0.279811 0.653626 0
M  V30 2546 H 242.985 -0.0967034 1.95261 0
M  V30 2547 H 241.689 -0.877522 4.00909 0
M  V30 2548 H 241.22 -2.35405 3.15195 0
M  V30 2549 H 243.235 -3.5853 3.43032 0
M  V30 2550 N 242.408 -1.52605 -0.393616 0
M  V30 2551 C 243.638 -1.71046 -1.15874 0
M  V30 2552 C 244.046 -0.426483 -1.84331 0
M  V30 2553 O 243.389 0.608513 -1.73329 0
M  V30 2554 C 243.451 -2.80118 -2.25332 0
M  V30 2555 C 243.115 -4.21381 -1.76881 0
M  V30 2556 C 244.112 -5.04697 -1.24808 0
M  V30 2557 C 241.797 -4.67683 -1.83244 0
M  V30 2558 C 243.791 -6.32393 -0.797387 0
M  V30 2559 C 241.478 -5.95364 -1.37787 0
M  V30 2560 C 242.476 -6.77549 -0.861208 0
M  V30 2561 O 242.164 -8.02837 -0.413252 0
M  V30 2562 H 241.896 -0.576155 -0.353583 0
M  V30 2563 H 244.45 -2.00018 -0.467123 0
M  V30 2564 H 242.68 -2.46557 -2.97904 0
M  V30 2565 H 244.369 -2.87006 -2.87023 0
M  V30 2566 H 245.135 -4.70111 -1.19252 0
M  V30 2567 H 241.014 -4.03805 -2.22401 0
M  V30 2568 H 244.558 -6.9649 -0.393437 0
M  V30 2569 H 240.455 -6.29455 -1.43026 0
M  V30 2570 H 241.223 -8.16749 -0.53515 0
M  V30 2571 N 243.887 0.651787 -1.4349 0
M  V30 2572 C 245.115 1.43937 -1.48626 0
M  V30 2573 C 245.53 1.8851 -0.104587 0
M  V30 2574 O 244.887 1.5958 0.885464 0
M  V30 2575 C 244.938 2.6734 -2.43334 0
M  V30 2576 O 244.659 2.24631 -3.76128 0
M  V30 2577 C 246.16 3.60683 -2.57726 0
M  V30 2578 H 243.38 0.44213 -0.504739 0
M  V30 2579 H 245.924 0.798944 -1.88248 0
M  V30 2580 H 244.079 3.2752 -2.06904 0
M  V30 2581 H 244.493 3.04485 -4.2707 0
M  V30 2582 H 245.967 4.43933 -3.28067 0
M  V30 2583 H 246.444 4.08126 -1.62265 0
M  V30 2584 H 247.05 3.06384 -2.94973 0
M  V30 2585 N 245.365 1.30045 0.890287 0
M  V30 2586 C 246.297 1.11786 2.00091 0
M  V30 2587 C 247.31 0.0626307 1.62679 0
M  V30 2588 O 248.499 0.308112 1.75821 0
M  V30 2589 C 245.599 0.681527 3.31977 0
M  V30 2590 C 244.772 1.81735 3.97858 0
M  V30 2591 C 243.831 1.37045 5.08041 0
M  V30 2592 O 242.857 2.07677 5.29961 0
M  V30 2593 N 244.059 0.246525 5.79976 0
M  V30 2594 H 246.824 2.07441 2.16306 0
M  V30 2595 H 244.385 1.2211 1.06305 0
M  V30 2596 H 246.377 0.365675 4.03045 0
M  V30 2597 H 244.947 -0.182828 3.12065 0
M  V30 2598 H 244.167 2.30159 3.20032 0
M  V30 2599 H 245.455 2.57865 4.38615 0
M  V30 2600 H 244.853 -0.34215 5.64664 0
M  V30 2601 H 243.41 -0.00990438 6.51799 0
M  V30 2602 N 246.843 -1.10192 1.12674 0
M  V30 2603 C 247.791 -2.18694 0.792196 0
M  V30 2604 C 248.785 -1.67938 -0.222058 0
M  V30 2605 O 249.991 -1.79822 -0.0800074 0
M  V30 2606 H 246.366 -0.713223 0.238364 0
M  V30 2607 H 248.337 -2.44149 1.71564 0
M  V30 2608 C 247.086 -3.46682 0.265859 0
M  V30 2609 H 246.409 -3.86101 1.03761 0
M  V30 2610 H 247.849 -4.23942 0.0701128 0
M  V30 2611 C 246.308 -3.21506 -1.00675 0
M  V30 2612 O 246.838 -3.43408 -2.08408 0
M  V30 2613 N 245.044 -2.75158 -0.934692 0
M  V30 2614 H 244.591 -2.57535 -0.0578604 0
M  V30 2615 H 244.549 -2.58691 -1.7868 0
M  V30 2616 N 248.321 -0.919034 -1.28029 0
M  V30 2617 C 249.57 -0.550802 -1.94034 0
M  V30 2618 C 249.883 0.910877 -1.73096 0
M  V30 2619 O 251.089 1.3875 -2.33368 0
M  V30 2620 C 249.545 -0.934249 -3.47563 0
M  V30 2621 C 249.153 -2.41602 -3.7727 0
M  V30 2622 C 250.897 -0.636854 -4.19696 0
M  V30 2623 C 248.804 -2.73932 -5.24133 0
M  V30 2624 H 247.734 -0.202273 -0.726362 0
M  V30 2625 H 250.385 -1.11867 -1.45458 0
M  V30 2626 H 248.767 -0.295115 -3.94899 0
M  V30 2627 H 249.941 -3.10233 -3.40723 0
M  V30 2628 H 248.256 -2.68441 -3.18321 0
M  V30 2629 H 250.853 -0.855005 -5.2782 0
M  V30 2630 H 251.196 0.425575 -4.14119 0
M  V30 2631 H 251.729 -1.23469 -3.78154 0
M  V30 2632 H 248.468 -3.79049 -5.34792 0
M  V30 2633 H 247.988 -2.09942 -5.61858 0
M  V30 2634 H 249.667 -2.61215 -5.91925 0
M  V30 2635 N 249.799 1.42003 -0.683588 0
M  V30 2636 C 251.076 1.95112 -0.138075 0
M  V30 2637 C 251.456 1.62359 1.34918 0
M  V30 2638 O 250.804 0.924311 2.08971 0
M  V30 2639 C 251.014 3.46505 -0.416581 0
M  V30 2640 C 252.362 4.23254 -0.337834 0
M  V30 2641 O 253.386 3.54468 -0.35082 0
M  V30 2642 O 252.245 5.45743 -0.287596 0
M  V30 2643 H 249.339 0.826961 -0.00797996 0
M  V30 2644 H 251.885 1.51784 -0.758924 0
M  V30 2645 H 250.657 3.63582 -1.4465 0
M  V30 2646 H 250.28 3.969 0.235839 0
M  V30 2647 N 251.277 0.427512 1.51691 0
M  V30 2648 C 252.505 -0.141191 2.06418 0
M  V30 2649 C 252.92 -1.37303 1.29589 0
M  V30 2650 O 252.277 -1.79059 0.352732 0
M  V30 2651 C 252.328 -0.473266 3.58389 0
M  V30 2652 O 252.049 0.709673 4.32314 0
M  V30 2653 C 253.55 -1.09371 4.29596 0
M  V30 2654 H 250.77 -0.0122747 0.670888 0
M  V30 2655 H 253.314 0.603764 1.95384 0
M  V30 2656 H 251.469 -1.16812 3.69369 0
M  V30 2657 H 251.883 0.42807 5.2275 0
M  V30 2658 H 253.357 -1.27613 5.37046 0
M  V30 2659 H 253.834 -2.072 3.87253 0
M  V30 2660 H 254.44 -0.43853 4.23033 0
M  V30 2661 N 252.755 -1.56801 0.158532 0
M  V30 2662 C 253.685 -2.20347 -0.772609 0
M  V30 2663 C 254.666 -1.15518 -1.24859 0
M  V30 2664 O 255.851 -1.43902 -1.30406 0
M  V30 2665 C 252.981 -2.83417 -2.00729 0
M  V30 2666 C 251.935 -3.94174 -1.66765 0
M  V30 2667 C 251.261 -4.44233 -2.97592 0
M  V30 2668 C 252.561 -5.14392 -0.905447 0
M  V30 2669 H 254.255 -2.98413 -0.242959 0
M  V30 2670 H 251.801 -1.43537 -0.115419 0
M  V30 2671 H 253.754 -3.26543 -2.6636 0
M  V30 2672 H 252.478 -2.02701 -2.56086 0
M  V30 2673 H 251.137 -3.51684 -1.03508 0
M  V30 2674 H 250.785 -3.60325 -3.50963 0
M  V30 2675 H 250.485 -5.18945 -2.75626 0
M  V30 2676 H 252.009 -4.90037 -3.64274 0
M  V30 2677 H 253.423 -5.5429 -1.46408 0
M  V30 2678 H 251.82 -5.9494 -0.7853 0
M  V30 2679 H 252.89 -4.84795 0.100668 0
M  V30 2680 N 254.233 0.115231 -1.57178 0
M  V30 2681 C 255.143 1.15994 -2.03918 0
M  V30 2682 C 256.159 1.45103 -0.960268 0
M  V30 2683 O 257.335 1.56144 -1.27204 0
M  V30 2684 C 254.4 2.46568 -2.43732 0
M  V30 2685 C 253.461 2.24822 -3.65723 0
M  V30 2686 C 252.694 3.4917 -4.03629 0
M  V30 2687 O 252.917 4.56623 -3.41835 0
M  V30 2688 O 251.851 3.39949 -4.96708 0
M  V30 2689 H 255.677 0.793019 -2.93164 0
M  V30 2690 H 253.262 0.3263 -1.45793 0
M  V30 2691 H 255.144 3.23492 -2.70057 0
M  V30 2692 H 253.819 2.82726 -1.57631 0
M  V30 2693 H 252.726 1.45744 -3.44542 0
M  V30 2694 H 254.059 1.93566 -4.52541 0
M  V30 2695 N 255.711 1.52812 0.385517 0
M  V30 2696 C 257.127 1.4214 0.725829 0
M  V30 2697 C 257.327 0.544589 1.94001 0
M  V30 2698 O 256.383 0.0193693 2.52493 0
M  V30 2699 C 257.696 2.85042 0.957668 0
M  V30 2700 C 259.244 2.94543 1.05892 0
M  V30 2701 C 259.719 4.38464 1.32337 0
M  V30 2702 N 261.21 4.41804 1.39151 0
M  V30 2703 C 261.945 5.5025 1.61285 0
M  V30 2704 N 261.441 6.68775 1.80866 0
M  V30 2705 N 263.234 5.37798 1.63492 0
M  V30 2706 H 255.385 2.08338 -0.413383 0
M  V30 2707 H 257.648 0.940016 -0.122775 0
M  V30 2708 H 257.354 3.51431 0.137568 0
M  V30 2709 H 257.228 3.27505 1.87137 0
M  V30 2710 H 259.615 2.28321 1.86959 0
M  V30 2711 H 259.696 2.55504 0.123057 0
M  V30 2712 H 259.34 5.05254 0.517793 0
M  V30 2713 H 259.27 4.75059 2.27214 0
M  V30 2714 H 261.761 3.56377 1.25713 0
M  V30 2715 H 262.074 7.47197 1.97271 0
M  V30 2716 H 260.419 6.71797 1.78083 0
M  V30 2717 H 263.61 4.44171 1.47749 0
M  V30 2718 H 263.783 6.22382 1.80402 0
M  V30 2719 N 257.189 -0.644168 1.43834 0
M  V30 2720 C 258.438 -1.39985 1.45214 0
M  V30 2721 C 258.751 -1.95421 0.0835494 0
M  V30 2722 O 259.957 -2.71488 -0.0251748 0
M  V30 2723 C 258.413 -2.53384 2.55587 0
M  V30 2724 C 258.021 -2.04517 3.98594 0
M  V30 2725 C 259.765 -3.30685 2.66172 0
M  V30 2726 C 257.672 -3.1518 5.00416 0
M  V30 2727 H 256.602 -0.526005 0.540218 0
M  V30 2728 H 259.253 -0.694367 1.69855 0
M  V30 2729 H 257.635 -3.26446 2.24163 0
M  V30 2730 H 258.809 -1.38405 4.39523 0
M  V30 2731 H 257.124 -1.40068 3.92135 0
M  V30 2732 H 259.721 -4.13158 3.39418 0
M  V30 2733 H 260.064 -3.79312 1.71546 0
M  V30 2734 H 260.597 -2.64708 2.96942 0
M  V30 2735 H 257.336 -2.71511 5.96625 0
M  V30 2736 H 256.856 -3.79974 4.64091 0
M  V30 2737 H 258.535 -3.80166 5.23529 0
M  V30 2738 N 258.668 -1.30515 -0.883378 0
M  V30 2739 C 259.631 -1.1701 -1.97082 0
M  V30 2740 C 260.631 -0.10089 -1.60483 0
M  V30 2741 O 261.821 -0.349127 -1.70666 0
M  V30 2742 C 258.953 -0.793045 -3.31547 0
M  V30 2743 H 260.146 -2.13622 -2.10489 0
M  V30 2744 H 257.699 -1.13935 -1.06998 0
M  V30 2745 H 258.434 0.172499 -3.23841 0
M  V30 2746 H 258.219 -1.56576 -3.5948 0
M  V30 2747 H 259.709 -0.722073 -4.1131 0
M  V30 2748 N 260.146 1.09593 -1.13257 0
M  V30 2749 C 261.394 1.81375 -0.891492 0
M  V30 2750 C 261.715 1.86049 0.584009 0
M  V30 2751 O 260.985 1.34481 1.42449 0
M  V30 2752 H 259.565 0.671708 -0.326828 0
M  V30 2753 H 262.227 1.3256 -1.42877 0
M  V30 2754 H 261.323 2.84612 -1.28071 0
M  V30 2755 N 261.624 0.925811 1.2754 0
M  V30 2756 C 262.554 0.440748 2.29303 0
M  V30 2757 C 263.535 -0.497971 1.62648 0
M  V30 2758 O 264.72 -0.403126 1.8997 0
M  V30 2759 C 261.85 -0.309048 3.45922 0
M  V30 2760 C 260.804 0.54166 4.24559 0
M  V30 2761 C 260.13 -0.337191 5.33636 0
M  V30 2762 C 261.43 1.80516 4.90114 0
M  V30 2763 H 263.124 1.29121 2.70126 0
M  V30 2764 H 260.67 0.622323 1.29858 0
M  V30 2765 H 262.623 -0.659315 4.1621 0
M  V30 2766 H 261.347 -1.19352 3.04011 0
M  V30 2767 H 260.006 0.874609 3.56014 0
M  V30 2768 H 259.654 -1.22056 4.87966 0
M  V30 2769 H 259.354 0.228497 5.87156 0
M  V30 2770 H 260.878 -0.683072 6.06767 0
M  V30 2771 H 262.292 1.52307 5.52698 0
M  V30 2772 H 260.689 2.3142 5.53683 0
M  V30 2773 H 261.759 2.52581 4.13921 0
M  V30 2774 N 263.102 -1.41638 0.69111 0
M  V30 2775 C 264.012 -2.34588 0.0233487 0
M  V30 2776 C 265.028 -1.55987 -0.770984 0
M  V30 2777 O 266.204 -1.88486 -0.709569 0
M  V30 2778 C 263.269 -3.34684 -0.904851 0
M  V30 2779 C 262.33 -4.29176 -0.103225 0
M  V30 2780 C 261.563 -5.2449 -0.987216 0
M  V30 2781 O 261.786 -5.2514 -2.22674 0
M  V30 2782 O 260.72 -6.00295 -0.439281 0
M  V30 2783 H 264.546 -2.93261 0.789416 0
M  V30 2784 H 262.131 -1.42417 0.45142 0
M  V30 2785 H 264.013 -3.96133 -1.43724 0
M  V30 2786 H 262.688 -2.78461 -1.65049 0
M  V30 2787 H 261.595 -3.71089 0.473655 0
M  V30 2788 H 262.928 -4.88484 0.60365 0
M  V30 2789 N 264.58 -0.43555 -1.51462 0
M  V30 2790 C 265.512 0.41257 -2.25456 0
M  V30 2791 C 266.525 0.987822 -1.29406 0
M  V30 2792 O 267.714 0.882266 -1.55172 0
M  V30 2793 C 264.814 1.58894 -2.99342 0
M  V30 2794 C 263.987 1.13288 -4.22474 0
M  V30 2795 C 263.046 2.17917 -4.78956 0
M  V30 2796 O 262.072 1.77425 -5.40841 0
M  V30 2797 N 263.274 3.50382 -4.62832 0
M  V30 2798 H 266.039 -0.221603 -2.9888 0
M  V30 2799 H 263.6 -0.264342 -1.59727 0
M  V30 2800 H 265.592 2.28508 -3.34015 0
M  V30 2801 H 264.162 2.12849 -2.28941 0
M  V30 2802 H 263.382 0.263881 -3.93316 0
M  V30 2803 H 264.67 0.805542 -5.02383 0
M  V30 2804 H 264.068 3.86013 -4.13534 0
M  V30 2805 H 262.625 4.15895 -5.01871 0
M  V30 2806 N 266.058 1.56714 -0.166846 0
M  V30 2807 C 266.968 2.21331 0.777791 0
M  V30 2808 C 267.984 1.20358 1.25658 0
M  V30 2809 O 269.16 1.53005 1.30964 0
M  V30 2810 C 266.225 2.83787 1.99163 0
M  V30 2811 C 265.286 3.99947 1.56016 0
M  V30 2812 C 264.519 4.59415 2.71613 0
M  V30 2813 O 264.742 4.17769 3.88362 0
M  V30 2814 O 263.676 5.49359 2.45945 0
M  V30 2815 H 267.502 3.02605 0.257636 0
M  V30 2816 H 265.087 1.49275 0.0611393 0
M  V30 2817 H 266.969 3.23405 2.70161 0
M  V30 2818 H 265.644 2.05513 2.50092 0
M  V30 2819 H 264.551 3.65007 0.819809 0
M  V30 2820 H 265.884 4.79801 1.09782 0
M  V30 2821 N 267.536 -0.106894 1.57237 0
M  V30 2822 C 268.813 -0.843526 1.76477 0
M  V30 2823 C 269.193 -1.97499 0.745464 0
M  V30 2824 O 268.541 -2.27357 -0.228306 0
M  V30 2825 C 268.751 -1.34903 3.21873 0
M  V30 2826 C 270.099 -1.79654 3.8472 0
M  V30 2827 O 271.123 -1.44554 3.2555 0
M  V30 2828 O 269.982 -2.44515 4.88748 0
M  V30 2829 H 267.076 -0.401468 0.723016 0
M  V30 2830 H 269.622 -0.0896927 1.69463 0
M  V30 2831 H 268.394 -0.53781 3.87586 0
M  V30 2832 H 268.017 -2.16522 3.33473 0
M  V30 2833 N 269.014 -1.53014 -0.377408 0
M  V30 2834 C 269.944 -1.81589 -1.46791 0
M  V30 2835 C 270.925 -0.668622 -1.56408 0
M  V30 2836 O 272.11 -0.917337 -1.71168 0
M  V30 2837 C 269.24 -1.99519 -2.8427 0
M  V30 2838 C 268.194 -3.15249 -2.89486 0
M  V30 2839 C 267.52 -3.18451 -4.29527 0
M  V30 2840 C 268.82 -4.54084 -2.58079 0
M  V30 2841 H 270.514 -2.7291 -1.23127 0
M  V30 2842 H 268.06 -1.31319 -0.590883 0
M  V30 2843 H 270.013 -2.18092 -3.60575 0
M  V30 2844 H 268.737 -1.04897 -3.09296 0
M  V30 2845 H 267.396 -2.96477 -2.15631 0
M  V30 2846 H 267.044 -2.2149 -4.5161 0
M  V30 2847 H 266.744 -3.962 -4.33934 0
M  V30 2848 H 268.268 -3.39193 -5.07721 0
M  V30 2849 H 269.682 -4.72899 -3.24098 0
M  V30 2850 H 268.079 -5.33987 -2.7382 0
M  V30 2851 H 269.149 -4.60006 -1.53372 0
M  V30 2852 N 270.492 0.636531 -1.44174 0
M  V30 2853 C 271.738 1.39826 -1.4689 0
M  V30 2854 C 272.071 1.93947 -0.0990585 0
M  V30 2855 O 271.346 1.73325 0.882544 0
M  V30 2856 C 271.629 2.56751 -2.5249 0
M  V30 2857 C 271.482 2.08014 -3.98811 0
M  V30 2858 C 272.801 3.58946 -2.54649 0
M  V30 2859 H 269.92 0.507075 -0.53483 0
M  V30 2860 H 272.562 0.720188 -1.75822 0
M  V30 2861 H 270.712 3.14597 -2.2795 0
M  V30 2862 H 272.384 1.5504 -4.34466 0
M  V30 2863 H 270.627 1.39242 -4.10846 0
M  V30 2864 H 271.298 2.92169 -4.68339 0
M  V30 2865 H 273.774 3.1089 -2.76563 0
M  V30 2866 H 272.65 4.38286 -3.3045 0
M  V30 2867 H 272.911 4.12655 -1.58646 0
M  V30 2868 N 271.97 1.30982 0.876444 0
M  V30 2869 C 272.88 1.2003 2.01569 0
M  V30 2870 C 273.896 0.11838 1.73597 0
M  V30 2871 O 275.072 0.33495 1.98595 0
M  V30 2872 C 272.137 0.901637 3.34771 0
M  V30 2873 C 271.198 2.06979 3.76109 0
M  V30 2874 C 270.431 1.78529 5.02954 0
M  V30 2875 O 270.654 0.717296 5.65872 0
M  V30 2876 O 269.588 2.64019 5.40905 0
M  V30 2877 H 273.414 2.15753 2.13739 0
M  V30 2878 H 270.999 1.10658 1.00375 0
M  V30 2879 H 272.881 0.750645 4.1466 0
M  V30 2880 H 271.556 -0.0256141 3.2369 0
M  V30 2881 H 270.463 2.27616 2.96887 0
M  V30 2882 H 271.796 2.97907 3.91807 0
M  V30 2883 N 273.449 -1.08991 1.13837 0
M  V30 2884 C 274.412 -2.13925 0.822715 0
M  V30 2885 C 275.412 -1.599 -0.1699 0
M  V30 2886 O 276.602 -1.74104 0.0577251 0
M  V30 2887 C 273.734 -3.40155 0.225318 0
M  V30 2888 H 274.927 -2.43358 1.75262 0
M  V30 2889 H 272.48 -1.24603 0.943594 0
M  V30 2890 H 273.215 -3.16352 -0.713594 0
M  V30 2891 H 273 -3.80661 0.940193 0
M  V30 2892 H 274.49 -4.17594 0.0214784 0
M  V30 2893 N 274.927 -0.932562 -1.27047 0
M  V30 2894 C 275.877 -0.406392 -2.24349 0
M  V30 2895 C 276.861 0.492066 -1.53191 0
M  V30 2896 O 278.053 0.328717 -1.73921 0
M  V30 2897 C 275.182 0.335214 -3.41659 0
M  V30 2898 C 274.268 -0.58004 -4.20115 0
M  V30 2899 N 274.659 -1.70203 -4.76303 0
M  V30 2900 C 272.957 -0.383974 -4.44344 0
M  V30 2901 C 273.658 -2.27167 -5.35509 0
M  V30 2902 N 272.634 -1.56068 -5.20715 0
M  V30 2903 H 276.436 -1.26299 -2.65378 0
M  V30 2904 H 273.95 -0.787408 -1.42034 0
M  V30 2905 H 275.947 0.729142 -4.10474 0
M  V30 2906 H 274.607 1.18868 -3.0216 0
M  V30 2907 H 275.618 -2.08433 -4.74106 0
M  V30 2908 H 272.295 0.428436 -4.15296 0
M  V30 2909 H 273.685 -3.21654 -5.89905 0
M  V30 2910 N 276.405 1.4127 -0.698611 0
M  V30 2911 C 277.653 2.00782 -0.230409 0
M  V30 2912 C 277.974 1.5562 1.17505 0
M  V30 2913 O 277.244 0.78815 1.79346 0
M  V30 2914 H 275.824 0.742464 -0.0821944 0
M  V30 2915 H 278.486 1.72852 -0.90045 0
M  V30 2916 H 277.582 3.11095 -0.25021 0
M  V30 2917 N 277.883 0.443576 1.51229 0
M  V30 2918 C 279.111 -0.11929 2.06556 0
M  V30 2919 C 279.526 -1.35921 1.31038 0
M  V30 2920 O 278.883 -1.78675 0.371704 0
M  V30 2921 C 278.934 -0.435228 3.5887 0
M  V30 2922 O 278.655 0.755486 4.31537 0
M  V30 2923 C 280.156 -1.04808 4.30732 0
M  V30 2924 H 277.376 -0.0051584 0.67098 0
M  V30 2925 H 279.92 0.624453 1.94733 0
M  V30 2926 H 278.075 -1.12887 3.70588 0
M  V30 2927 H 278.489 0.483491 5.22267 0
M  V30 2928 H 279.963 -1.2191 5.3837 0
M  V30 2929 H 280.44 -2.03081 3.89429 0
M  V30 2930 H 281.046 -0.393637 4.23474 0
M  V30 2931 N 279.361 -1.56624 0.175154 0
M  V30 2932 C 280.608 -1.96999 -0.468811 0
M  V30 2933 C 280.936 -1.06129 -1.62994 0
M  V30 2934 O 280.191 -0.0961771 -1.95464 0
M  V30 2935 C 280.49 -3.43419 -0.989864 0
M  V30 2936 C 280.156 -4.50866 0.0557687 0
M  V30 2937 C 278.818 -4.79975 0.343134 0
M  V30 2938 C 281.17 -5.15551 0.765308 0
M  V30 2939 C 278.498 -5.71066 1.34536 0
M  V30 2940 C 280.85 -6.07724 1.75654 0
M  V30 2941 C 279.514 -6.35199 2.05132 0
M  V30 2942 H 278.784 -0.720869 -0.17155 0
M  V30 2943 H 281.431 -1.89616 0.267924 0
M  V30 2944 H 279.736 -3.47772 -1.80449 0
M  V30 2945 H 281.433 -3.72002 -1.49719 0
M  V30 2946 H 278.023 -4.28229 -0.178381 0
M  V30 2947 H 282.207 -4.9317 0.556513 0
M  V30 2948 H 277.463 -5.90635 1.57988 0
M  V30 2949 H 281.637 -6.56912 2.31169 0
M  V30 2950 H 279.264 -7.05584 2.8294 0
M  V30 2951 N 280.839 0.0985539 -1.57292 0
M  V30 2952 C 282.069 0.815135 -1.8984 0
M  V30 2953 C 282.477 1.7297 -0.766679 0
M  V30 2954 O 281.82 1.81698 0.270483 0
M  V30 2955 C 281.882 1.6842 -3.17608 0
M  V30 2956 C 281.546 0.94182 -4.4719 0
M  V30 2957 C 282.543 0.273212 -5.19182 0
M  V30 2958 C 280.228 0.916927 -4.9386 0
M  V30 2959 C 282.222 -0.410361 -6.36078 0
M  V30 2960 C 279.909 0.229567 -6.10669 0
M  V30 2961 C 280.907 -0.432902 -6.81627 0
M  V30 2962 O 280.595 -1.10925 -7.9621 0
M  V30 2963 H 280.327 0.238501 -0.632529 0
M  V30 2964 H 282.881 0.0812659 -2.05239 0
M  V30 2965 H 281.111 2.46022 -2.98345 0
M  V30 2966 H 282.8 2.27704 -3.36015 0
M  V30 2967 H 283.566 0.283927 -4.84168 0
M  V30 2968 H 279.445 1.42201 -4.3852 0
M  V30 2969 H 282.989 -0.928013 -6.914 0
M  V30 2970 H 278.886 0.216686 -6.45136 0
M  V30 2971 H 279.654 -1.01579 -8.12172 0
M  V30 2972 N 282.317 1.53212 0.369288 0
M  V30 2973 C 283.545 1.73119 1.13303 0
M  V30 2974 C 283.96 0.458455 1.83149 0
M  V30 2975 O 283.317 -0.568403 1.73423 0
M  V30 2976 C 283.368 2.89413 2.16616 0
M  V30 2977 O 283.089 4.11761 1.49614 0
M  V30 2978 C 284.59 3.21161 3.05566 0
M  V30 2979 H 281.81 0.579107 0.338934 0
M  V30 2980 H 284.354 1.99942 0.429338 0
M  V30 2981 H 282.509 2.64994 2.82589 0
M  V30 2982 H 282.923 4.76858 2.18419 0
M  V30 2983 H 284.397 4.05949 3.74045 0
M  V30 2984 H 284.874 2.36369 3.70171 0
M  V30 2985 H 285.48 3.47492 2.45213 0
M  V30 2986 N 283.795 -0.628877 1.44509 0
M  V30 2987 C 285.02 -1.42048 1.5112 0
M  V30 2988 C 285.445 -1.87594 0.137818 0
M  V30 2989 O 284.803 -1.58873 -0.873437 0
M  V30 2990 C 284.851 -2.61541 2.48251 0
M  V30 2991 O 283.955 -3.61453 1.98559 0
M  V30 2992 H 283.296 -0.424942 0.510216 0
M  V30 2993 H 285.826 -0.767374 1.89664 0
M  V30 2994 H 285.836 -3.09057 2.66361 0
M  V30 2995 H 284.511 -2.27736 3.48007 0
M  V30 2996 H 283.088 -3.20731 1.90227 0
M  V30 2997 N 285.273 -1.31445 -0.869486 0
M  V30 2998 C 286.223 -1.15731 -1.96444 0
M  V30 2999 C 287.207 -0.0681855 -1.60755 0
M  V30 3000 O 288.399 -0.293154 -1.74555 0
M  V30 3001 C 285.528 -0.867255 -3.32165 0
M  V30 3002 C 284.614 -1.99738 -3.74119 0
M  V30 3003 N 285.005 -3.24447 -3.88031 0
M  V30 3004 C 283.303 -1.89723 -4.03635 0
M  V30 3005 C 284.004 -3.98374 -4.23879 0
M  V30 3006 N 282.98 -3.26547 -4.3459 0
M  V30 3007 H 286.782 -2.10296 -2.05312 0
M  V30 3008 H 284.296 -1.23009 -1.06031 0
M  V30 3009 H 286.293 -0.735668 -4.10358 0
M  V30 3010 H 284.953 0.0701614 -3.24624 0
M  V30 3011 H 285.964 -3.59557 -3.72746 0
M  V30 3012 H 282.641 -1.03449 -4.04481 0
M  V30 3013 H 284.031 -5.05844 -4.42235 0
M  V30 3014 N 286.751 1.08385 -1.14413 0
M  V30 3015 C 287.991 1.8238 -0.922868 0
M  V30 3016 C 288.355 1.84225 0.540842 0
M  V30 3017 O 289.556 2.53985 0.880058 0
M  V30 3018 C 287.827 3.24048 -1.50757 0
M  V30 3019 S 289.386 4.14917 -1.4279 0
M  V30 3020 H 286.204 0.628524 -0.332384 0
M  V30 3021 H 288.806 1.30278 -1.45766 0
M  V30 3022 H 287.51 3.20288 -2.56601 0
M  V30 3023 H 287.041 3.81224 -0.971178 0
M  V30 3024 H 289.056 4.94473 -0.413582 0
M  V30 3025 N 288.23 0.939286 1.26551 0
M  V30 3026 C 289.476 0.586715 1.94128 0
M  V30 3027 C 289.809 -0.8717 1.73537 0
M  V30 3028 O 289.084 -1.62339 1.07127 0
M  V30 3029 C 289.367 0.927497 3.4795 0
M  V30 3030 C 289.22 2.44052 3.77834 0
M  V30 3031 C 290.539 0.441569 4.37879 0
M  V30 3032 H 287.658 0.21463 0.705055 0
M  V30 3033 H 290.3 1.17316 1.49455 0
M  V30 3034 H 288.45 0.428431 3.8613 0
M  V30 3035 H 290.122 3.01216 3.4938 0
M  V30 3036 H 288.365 2.8848 3.23978 0
M  V30 3037 H 289.036 2.62947 4.85348 0
M  V30 3038 H 291.512 0.869448 4.06915 0
M  V30 3039 H 290.388 0.708856 5.44304 0
M  V30 3040 H 290.649 -0.658467 4.37169 0
M  V30 3041 N 289.708 -1.40897 0.706093 0
M  V30 3042 C 290.933 -2.05895 0.249435 0
M  V30 3043 C 291.358 -1.52823 -1.09666 0
M  V30 3044 O 290.716 -0.659589 -1.68876 0
M  V30 3045 C 290.764 -3.59872 0.22904 0
M  V30 3046 O 289.868 -4.04708 -0.792784 0
M  V30 3047 H 289.209 -0.653206 0.119241 0
M  V30 3048 H 291.739 -1.80471 0.96391 0
M  V30 3049 H 291.749 -4.07951 0.0634791 0
M  V30 3050 H 290.424 -3.97866 1.21141 0
M  V30 3051 H 289.001 -3.68111 -0.59572 0
M  V30 3052 N 291.186 -0.45159 -1.50991 0
M  V30 3053 C 292.149 0.341117 -2.26647 0
M  V30 3054 C 293.149 0.937422 -1.30649 0
M  V30 3055 O 294.339 0.809644 -1.54241 0
M  V30 3056 C 291.471 1.48398 -3.06905 0
M  V30 3057 H 292.664 -0.322117 -2.98165 0
M  V30 3058 H 290.217 -0.205122 -1.54948 0
M  V30 3059 H 290.952 2.18284 -2.39838 0
M  V30 3060 H 290.737 1.06241 -3.77432 0
M  V30 3061 H 292.227 2.04367 -3.64176 0
M  V30 3062 N 292.664 1.56529 -0.183458 0
M  V30 3063 C 293.889 2.02064 0.467428 0
M  V30 3064 C 294.314 1.06282 1.55196 0
M  V30 3065 O 293.672 0.0443565 1.81246 0
M  V30 3066 C 293.72 3.46122 1.01153 0
M  V30 3067 O 292.824 3.53437 2.12499 0
M  V30 3068 H 292.165 0.654726 0.110588 0
M  V30 3069 H 294.695 2.02521 -0.290917 0
M  V30 3070 H 294.705 3.85676 1.33108 0
M  V30 3071 H 293.38 4.15331 0.217533 0
M  V30 3072 H 291.957 3.2575 1.81497 0
M  V30 3073 N 294.142 -0.090211 1.57342 0
M  V30 3074 C 295.382 -0.798365 1.88163 0
M  V30 3075 C 295.746 -1.75662 0.775046 0
M  V30 3076 O 296.947 -2.50849 0.965816 0
M  V30 3077 C 295.218 -1.50376 3.24225 0
M  V30 3078 S 296.777 -2.24952 3.76752 0
M  V30 3079 H 293.595 -0.265883 0.659414 0
M  V30 3080 H 296.197 -0.055264 1.95422 0
M  V30 3081 H 294.901 -0.792286 4.0268 0
M  V30 3082 H 294.432 -2.28666 3.20118 0
M  V30 3083 H 296.447 -3.51173 3.5056 0
M  V30 3084 N 295.62 -1.53406 -0.361157 0
M  V30 3085 C 297.036 -1.43277 -0.703124 0
M  V30 3086 C 297.236 -0.575384 -1.9311 0
M  V30 3087 O 296.292 -0.0595362 -2.5243 0
M  V30 3088 C 297.605 -2.8653 -0.9122 0
M  V30 3089 C 299.153 -2.96191 -1.01193 0
M  V30 3090 C 299.628 -4.40514 -1.25345 0
M  V30 3091 N 301.119 -4.43962 -1.32105 0
M  V30 3092 C 301.854 -5.52746 -1.5251 0
M  V30 3093 N 301.35 -6.71567 -1.70203 0
M  V30 3094 N 303.143 -5.40331 -1.54916 0
M  V30 3095 H 295.294 -2.07654 0.446475 0
M  V30 3096 H 297.557 -0.937944 0.137715 0
M  V30 3097 H 297.263 -3.51605 -0.0816414 0
M  V30 3098 H 297.137 -3.30441 -1.81903 0
M  V30 3099 H 299.524 -2.31266 -1.83303 0
M  V30 3100 H 299.605 -2.55667 -0.0823929 0
M  V30 3101 H 299.249 -5.06014 -0.437346 0
M  V30 3102 H 299.179 -4.78614 -2.19627 0
M  V30 3103 H 301.67 -3.58332 -1.20028 0
M  V30 3104 H 301.983 -7.50241 -1.85359 0
M  V30 3105 H 300.328 -6.74545 -1.67373 0
M  V30 3106 H 303.519 -4.46465 -1.40663 0
M  V30 3107 H 303.692 -6.25173 -1.70477 0
M  V30 3108 N 297.098 0.621204 -1.44841 0
M  V30 3109 C 298.048 1.72663 -1.48901 0
M  V30 3110 C 299.032 1.56964 -0.353702 0
M  V30 3111 O 300.224 1.66532 -0.599669 0
M  V30 3112 C 297.353 3.11381 -1.44557 0
M  V30 3113 C 296.439 3.32514 -2.6324 0
M  V30 3114 N 296.83 3.23969 -3.8843 0
M  V30 3115 C 295.128 3.63343 -2.58647 0
M  V30 3116 C 295.829 3.46062 -4.67564 0
M  V30 3117 N 294.805 3.69407 -3.98797 0
M  V30 3118 H 298.607 1.64529 -2.43531 0
M  V30 3119 H 296.121 0.82401 -1.39942 0
M  V30 3120 H 298.118 3.90667 -1.4555 0
M  V30 3121 H 296.778 3.20674 -0.509731 0
M  V30 3122 H 297.789 3.02669 -4.20252 0
M  V30 3123 H 294.466 3.79556 -1.73906 0
M  V30 3124 H 295.856 3.44963 -5.76585 0
M  V30 3125 N 298.576 1.31904 0.862503 0
M  V30 3126 C 299.486 1.22161 2.00285 0
M  V30 3127 C 300.502 0.136785 1.73462 0
M  V30 3128 O 301.678 0.355994 1.98229 0
M  V30 3129 C 298.743 0.937093 3.33796 0
M  V30 3130 C 297.804 2.10957 3.73893 0
M  V30 3131 C 297.037 1.83853 5.01033 0
M  V30 3132 O 297.26 0.777274 5.65079 0
M  V30 3133 O 296.194 2.69741 5.38074 0
M  V30 3134 H 300.02 2.18008 2.11439 0
M  V30 3135 H 297.605 1.11716 0.991957 0
M  V30 3136 H 299.487 0.794583 4.13841 0
M  V30 3137 H 298.162 0.00871894 3.23699 0
M  V30 3138 H 297.069 2.30752 2.94456 0
M  V30 3139 H 298.402 3.02046 3.88625 0
M  V30 3140 N 300.054 -1.07777 1.14986 0
M  V30 3141 C 301.284 -1.83752 0.944402 0
M  V30 3142 C 301.692 -1.8218 -0.51058 0
M  V30 3143 O 301.035 -1.22852 -1.36576 0
M  V30 3144 C 301.097 -3.32128 1.37592 0
M  V30 3145 C 300.761 -3.57425 2.84775 0
M  V30 3146 C 301.758 -3.5173 3.8286 0
M  V30 3147 C 299.443 -3.8523 3.2234 0
M  V30 3148 C 301.437 -3.73482 5.16517 0
M  V30 3149 C 299.124 -4.06634 4.56171 0
M  V30 3150 C 300.122 -4.00754 5.53069 0
M  V30 3151 O 299.81 -4.2159 6.84483 0
M  V30 3152 H 299.542 -0.58673 0.335744 0
M  V30 3153 H 302.096 -1.36982 1.53052 0
M  V30 3154 H 300.326 -3.79686 0.733165 0
M  V30 3155 H 302.015 -3.89555 1.14024 0
M  V30 3156 H 302.781 -3.30256 3.55184 0
M  V30 3157 H 298.66 -3.88923 2.47508 0
M  V30 3158 H 302.204 -3.68808 5.92137 0
M  V30 3159 H 298.101 -4.27593 4.83564 0
M  V30 3160 H 298.869 -4.38961 6.90837 0
M  V30 3161 N 301.532 -0.945985 -1.26051 0
M  V30 3162 C 302.943 -0.638096 -1.75457 0
M  V30 3163 C 303.294 0.846672 -1.76991 0
M  V30 3164 O 302.419 1.66262 -1.38513 0
M  V30 3165 C 303.014 -1.15157 -3.18629 0
M  V30 3166 C 301.573 -0.894004 -3.65629 0
M  V30 3167 C 300.72 -1.29967 -2.44957 0
M  V30 3168 H 303.671 -1.12376 -1.1206 0
M  V30 3169 H 303.692 -0.507615 -3.77099 0
M  V30 3170 H 303.204 -2.23222 -3.1748 0
M  V30 3171 H 301.305 0.172057 -3.72203 0
M  V30 3172 H 301.418 -1.52439 -4.54202 0
M  V30 3173 H 299.782 -0.718078 -2.44368 0
M  V30 3174 H 300.565 -2.38935 -2.46505 0
M  V30 3175 N 303.011 1.40521 -0.713556 0
M  V30 3176 C 303.941 2.33381 -0.0743864 0
M  V30 3177 C 304.922 1.52784 0.747735 0
M  V30 3178 O 306.107 1.81258 0.697071 0
M  V30 3179 C 303.237 3.36748 0.849598 0
M  V30 3180 C 302.191 4.27793 0.133247 0
M  V30 3181 C 301.517 5.21679 1.17281 0
M  V30 3182 C 302.817 5.12415 -1.01134 0
M  V30 3183 H 304.511 2.87081 -0.850007 0
M  V30 3184 H 302.057 1.38034 -0.410201 0
M  V30 3185 H 304.01 4.00648 1.30612 0
M  V30 3186 H 302.734 2.81439 1.65709 0
M  V30 3187 H 301.393 3.65342 -0.303426 0
M  V30 3188 H 301.041 4.62677 1.9733 0
M  V30 3189 H 300.741 5.83435 0.698397 0
M  V30 3190 H 302.265 5.88456 1.62947 0
M  V30 3191 H 303.679 5.69781 -0.634274 0
M  V30 3192 H 302.076 5.83203 -1.41399 0
M  V30 3193 H 303.146 4.48514 -1.84292 0
M  V30 3194 N 304.489 0.459591 1.5075 0
M  V30 3195 C 305.714 -0.0996819 2.0716 0
M  V30 3196 C 306.139 -1.33761 1.32249 0
M  V30 3197 O 305.497 -1.77551 0.366786 0
M  V30 3198 C 305.545 -0.378226 3.58611 0
M  V30 3199 O 304.649 -1.46081 3.85661 0
M  V30 3200 H 303.99 0.00791392 0.663953 0
M  V30 3201 H 306.52 0.647329 1.9409 0
M  V30 3202 H 306.53 -0.622135 4.03229 0
M  V30 3203 H 305.205 0.526439 4.12555 0
M  V30 3204 H 303.782 -1.20511 3.5289 0
M  V30 3205 N 305.967 -1.56429 0.191757 0
M  V30 3206 C 307.213 -1.98541 -0.441943 0
M  V30 3207 C 307.568 -1.07646 -1.59468 0
M  V30 3208 O 306.861 -0.120191 -1.91223 0
M  V30 3209 C 307.055 -3.44449 -0.953384 0
M  V30 3210 C 306.884 -4.49456 0.148262 0
M  V30 3211 C 305.654 -5.01668 0.604781 0
M  V30 3212 C 307.852 -5.05336 0.95602 0
M  V30 3213 N 305.834 -5.90334 1.6846 0
M  V30 3214 C 307.205 -5.9064 1.88531 0
M  V30 3215 C 309.26 -4.87779 0.998811 0
M  V30 3216 C 307.963 -6.60264 2.85383 0
M  V30 3217 C 309.989 -5.58139 1.95537 0
M  V30 3218 C 309.351 -6.43187 2.8721 0
M  V30 3219 H 305.45 -0.771247 -0.129236 0
M  V30 3220 H 308.034 -1.92426 0.296682 0
M  V30 3221 H 306.205 -3.5107 -1.66146 0
M  V30 3222 H 307.937 -3.73533 -1.55741 0
M  V30 3223 H 304.692 -4.73183 0.198736 0
M  V30 3224 H 305.116 -6.39371 2.22561 0
M  V30 3225 H 309.758 -4.21705 0.304048 0
M  V30 3226 H 307.476 -7.25538 3.55837 0
M  V30 3227 H 311.062 -5.46532 1.99484 0
M  V30 3228 H 309.942 -6.96674 3.60022 0
M  V30 3229 N 307.445 0.0818655 -1.57387 0
M  V30 3230 C 308.378 1.12986 -1.98266 0
M  V30 3231 C 309.356 1.38123 -0.857954 0
M  V30 3232 O 310.54 1.51663 -1.1194 0
M  V30 3233 C 307.667 2.47632 -2.31076 0
M  V30 3234 C 306.713 2.38693 -3.53452 0
M  V30 3235 S 307.546 1.79071 -5.04672 0
M  V30 3236 C 308.702 3.15316 -5.40673 0
M  V30 3237 H 308.935 0.781435 -2.86846 0
M  V30 3238 H 306.468 0.290034 -1.51651 0
M  V30 3239 H 308.426 3.25089 -2.50654 0
M  V30 3240 H 307.087 2.79638 -1.43043 0
M  V30 3241 H 306.28 3.37964 -3.73893 0
M  V30 3242 H 305.882 1.69369 -3.33452 0
M  V30 3243 H 308.174 4.11613 -5.38127 0
M  V30 3244 H 309.117 2.99664 -6.41566 0
M  V30 3245 H 309.525 3.15457 -4.68132 0
M  V30 3246 N 308.923 1.53595 0.353017 0
M  V30 3247 C 309.87 1.80919 1.43308 0
M  V30 3248 C 310.84 0.654288 1.5267 0
M  V30 3249 O 312.025 0.897759 1.6836 0
M  V30 3250 C 309.165 2.01605 2.80089 0
M  V30 3251 C 308.278 3.29321 2.79593 0
M  V30 3252 C 307.413 3.40125 4.0803 0
M  V30 3253 C 306.452 4.61826 4.01725 0
M  V30 3254 N 305.589 4.69716 5.21834 0
M  V30 3255 H 310.429 2.73074 1.19308 0
M  V30 3256 H 307.966 1.35263 0.578131 0
M  V30 3257 H 309.924 2.11586 3.59565 0
M  V30 3258 H 308.554 1.12772 3.0246 0
M  V30 3259 H 307.606 3.28229 1.92276 0
M  V30 3260 H 308.918 4.18884 2.70809 0
M  V30 3261 H 308.072 3.49488 4.95927 0
M  V30 3262 H 306.811 2.48601 4.19582 0
M  V30 3263 H 305.816 4.52552 3.12213 0
M  V30 3264 H 307.041 5.54705 3.91764 0
M  V30 3265 H 304.987 3.81097 5.33948 0
M  V30 3266 H 304.904 5.53202 5.1527 0
M  V30 3267 H 306.172 4.83376 6.11529 0
M  V30 3268 N 310.401 -0.613514 1.45168 0
M  V30 3269 C 311.311 -1.75296 1.55912 0
M  V30 3270 C 312.327 -1.68244 0.443856 0
M  V30 3271 O 313.503 -1.88706 0.70371 0
M  V30 3272 C 310.568 -3.1174 1.5172 0
M  V30 3273 C 309.629 -3.30291 2.74238 0
M  V30 3274 C 308.862 -4.60226 2.70236 0
M  V30 3275 O 309.085 -5.42168 1.77229 0
M  V30 3276 O 308.019 -4.81361 3.61352 0
M  V30 3277 H 311.845 -1.69183 2.52212 0
M  V30 3278 H 309.43 -0.776886 1.27612 0
M  V30 3279 H 311.312 -3.93044 1.51968 0
M  V30 3280 H 309.987 -3.18357 0.585697 0
M  V30 3281 H 308.894 -2.48598 2.79553 0
M  V30 3282 H 310.227 -3.28547 3.66494 0
M  V30 3283 N 311.879 -1.3236 -0.855495 0
M  V30 3284 C 312.826 -1.21225 -1.964 0
M  V30 3285 C 313.796 -0.0946204 -1.6583 0
M  V30 3286 O 314.981 -0.27002 -1.8888 0
M  V30 3287 C 312.121 -0.940419 -3.32039 0
M  V30 3288 C 311.234 -2.14276 -3.75113 0
M  V30 3289 C 310.369 -1.80648 -4.9954 0
M  V30 3290 C 309.408 -2.97208 -5.35102 0
M  V30 3291 N 308.545 -2.63678 -6.50706 0
M  V30 3292 H 313.385 -2.16042 -2.05255 0
M  V30 3293 H 310.922 -1.07451 -1.00463 0
M  V30 3294 H 312.88 -0.763311 -4.10158 0
M  V30 3295 H 311.51 -0.0290413 -3.22787 0
M  V30 3296 H 310.562 -2.43017 -2.92655 0
M  V30 3297 H 311.874 -3.01468 -3.97389 0
M  V30 3298 H 311.028 -1.59484 -5.85363 0
M  V30 3299 H 309.767 -0.906678 -4.79198 0
M  V30 3300 H 308.772 -3.19004 -4.47791 0
M  V30 3301 H 309.997 -3.87918 -5.57401 0
M  V30 3302 H 307.943 -1.76238 -6.31883 0
M  V30 3303 H 307.86 -3.444 -6.72997 0
M  V30 3304 H 309.128 -2.45942 -7.39684 0
M  V30 3305 N 313.357 1.07166 -1.15556 0
M  V30 3306 C 314.606 1.79181 -0.926132 0
M  V30 3307 C 314.919 1.87768 0.547967 0
M  V30 3308 O 316.125 2.56323 0.895036 0
M  V30 3309 C 314.581 3.22 -1.60761 0
M  V30 3310 C 314.189 3.21607 -3.11886 0
M  V30 3311 C 315.933 3.9861 -1.4598 0
M  V30 3312 C 313.84 4.59092 -3.72812 0
M  V30 3313 H 312.77 0.67154 -0.342856 0
M  V30 3314 H 315.421 1.2027 -1.3859 0
M  V30 3315 H 313.803 3.81115 -1.07553 0
M  V30 3316 H 314.977 2.72127 -3.71865 0
M  V30 3317 H 313.292 2.58495 -3.2645 0
M  V30 3318 H 315.889 5.00225 -1.88888 0
M  V30 3319 H 316.232 4.143 -0.407541 0
M  V30 3320 H 316.765 3.45996 -1.96295 0
M  V30 3321 H 313.504 4.48606 -4.77946 0
M  V30 3322 H 313.024 5.08803 -3.17616 0
M  V30 3323 H 314.703 5.28059 -3.73848 0
M  V30 3324 N 314.835 0.952656 1.25548 0
M  V30 3325 C 316.082 0.606373 1.93208 0
M  V30 3326 C 316.41 -0.85631 1.74636 0
M  V30 3327 O 315.665 -1.62951 1.08376 0
M  V30 3328 C 315.964 0.908818 3.45652 0
M  V30 3329 C 315.63 2.35722 3.84378 0
M  V30 3330 C 314.292 2.75312 3.9466 0
M  V30 3331 C 316.644 3.29793 4.03591 0
M  V30 3332 C 313.972 4.08047 4.21562 0
M  V30 3333 C 316.324 4.62138 4.31985 0
M  V30 3334 C 314.988 5.01528 4.40484 0
M  V30 3335 H 314.258 0.221888 0.706998 0
M  V30 3336 H 316.905 1.20132 1.49133 0
M  V30 3337 H 315.21 0.231456 3.91116 0
M  V30 3338 H 316.907 0.619498 3.96186 0
M  V30 3339 H 313.497 2.04017 3.76928 0
M  V30 3340 H 317.681 3.00397 3.95064 0
M  V30 3341 H 312.937 4.38212 4.26357 0
M  V30 3342 H 317.111 5.35012 4.45797 0
M  V30 3343 H 314.738 6.04406 4.61083 0
M  V30 3344 N 316.313 -1.40141 0.720998 0
M  V30 3345 C 317.538 -2.05618 0.271258 0
M  V30 3346 C 317.963 -1.53978 -1.08039 0
M  V30 3347 O 317.321 -0.677463 -1.68167 0
M  V30 3348 C 317.369 -3.59609 0.267197 0
M  V30 3349 O 316.473 -4.05526 -0.749814 0
M  V30 3350 H 315.814 -0.651904 0.126162 0
M  V30 3351 H 318.344 -1.79439 0.982997 0
M  V30 3352 H 318.354 -4.0786 0.106744 0
M  V30 3353 H 317.029 -3.96559 1.25354 0
M  V30 3354 H 315.606 -3.68722 -0.556644 0
M  V30 3355 N 317.792 -0.46758 -1.50504 0
M  V30 3356 C 318.702 0.33382 -2.32213 0
M  V30 3357 C 319.718 0.999323 -1.42441 0
M  V30 3358 O 320.894 0.988068 -1.75497 0
M  V30 3359 C 317.959 1.4035 -3.17022 0
M  V30 3360 C 317.02 0.754961 -4.2261 0
M  V30 3361 C 316.253 1.77367 -5.03365 0
M  V30 3362 O 316.476 2.99976 -4.8515 0
M  V30 3363 O 315.41 1.34744 -5.86624 0
M  V30 3364 H 319.236 -0.334067 -3.01857 0
M  V30 3365 H 316.821 -0.229496 -1.47627 0
M  V30 3366 H 318.703 2.02318 -3.69656 0
M  V30 3367 H 317.378 2.05492 -2.5011 0
M  V30 3368 H 316.285 0.0964244 -3.73976 0
M  V30 3369 H 317.618 0.146545 -4.91982 0
M  V30 3370 N 319.27 1.56325 -0.20005 0
M  V30 3371 C 320.516 1.98012 0.438059 0
M  V30 3372 C 320.849 1.08702 1.60927 0
M  V30 3373 O 320.124 0.140064 1.93995 0
M  V30 3374 C 320.407 3.48841 0.893419 0
M  V30 3375 C 320.26 4.48928 -0.279947 0
M  V30 3376 C 321.579 4.03498 1.75719 0
M  V30 3377 H 318.698 0.719918 0.157757 0
M  V30 3378 H 321.34 1.87743 -0.291968 0
M  V30 3379 H 319.49 3.57723 1.51547 0
M  V30 3380 H 321.162 4.52079 -0.91772 0
M  V30 3381 H 319.405 4.23694 -0.930919 0
M  V30 3382 H 320.076 5.5194 0.0812601 0
M  V30 3383 H 322.552 3.97427 1.23253 0
M  V30 3384 H 321.428 5.09393 2.04476 0
M  V30 3385 H 321.689 3.4906 2.71311 0
M  V30 3386 N 320.748 -0.0735177 1.57428 0
M  V30 3387 C 321.976 -0.785969 1.9139 0
M  V30 3388 C 322.391 -1.71207 0.795847 0
M  V30 3389 O 321.748 -1.81033 -0.230915 0
M  V30 3390 C 321.799 -1.58107 3.25091 0
M  V30 3391 O 321.52 -0.6922 4.32597 0
M  V30 3392 C 323.021 -2.39467 3.73055 0
M  V30 3393 H 320.241 -0.223558 0.632663 0
M  V30 3394 H 322.785 -0.044302 2.04452 0
M  V30 3395 H 320.94 -2.27503 3.13562 0
M  V30 3396 H 321.354 -1.24504 5.09508 0
M  V30 3397 H 322.828 -2.90716 4.69242 0
M  V30 3398 H 323.305 -3.18913 3.01979 0
M  V30 3399 H 323.911 -1.7523 3.87523 0
M  V30 3400 N 322.226 -1.5378 -0.344866 0
M  V30 3401 C 323.637 -1.62428 -0.920552 0
M  V30 3402 C 323.988 -0.504747 -1.89596 0
M  V30 3403 O 323.113 0.365711 -2.13287 0
M  V30 3404 C 323.708 -2.94419 -1.67639 0
M  V30 3405 C 322.267 -3.05333 -2.20111 0
M  V30 3406 C 321.414 -2.57866 -1.01982 0
M  V30 3407 H 324.365 -1.58222 -0.123042 0
M  V30 3408 H 324.386 -2.83384 -2.53917 0
M  V30 3409 H 323.898 -3.7588 -0.966224 0
M  V30 3410 H 321.999 -2.28502 -2.94308 0
M  V30 3411 H 322.112 -4.10778 -2.46573 0
M  V30 3412 H 320.476 -2.13241 -1.39285 0
M  V30 3413 H 321.259 -3.41765 -0.324308 0
M  V30 3414 N 323.704 0.605807 -1.45491 0
M  V30 3415 C 324.651 1.7164 -1.54299 0
M  V30 3416 C 325.621 1.61486 -0.388761 0
M  V30 3417 O 326.806 1.81039 -0.602445 0
M  V30 3418 C 323.946 3.09953 -1.51734 0
M  V30 3419 C 323.059 3.309 -2.77721 0
M  V30 3420 C 322.194 4.59329 -2.66816 0
M  V30 3421 C 321.233 4.7354 -3.87848 0
M  V30 3422 N 320.37 5.9327 -3.75467 0
M  V30 3423 H 325.21 1.63449 -2.49176 0
M  V30 3424 H 322.747 0.796957 -1.23641 0
M  V30 3425 H 324.705 3.89977 -1.48235 0
M  V30 3426 H 323.335 3.17098 -0.604068 0
M  V30 3427 H 322.387 2.44639 -2.913 0
M  V30 3428 H 323.699 3.37274 -3.67488 0
M  V30 3429 H 322.853 5.4755 -2.61292 0
M  V30 3430 H 321.592 4.55355 -1.74651 0
M  V30 3431 H 320.597 3.83741 -3.93729 0
M  V30 3432 H 321.822 4.79309 -4.81082 0
M  V30 3433 H 319.768 5.90338 -2.86072 0
M  V30 3434 H 319.685 6.00811 -4.5887 0
M  V30 3435 H 320.953 6.83984 -3.73879 0
M  V30 3436 N 325.182 1.32811 0.848464 0
M  V30 3437 C 326.422 1.25046 1.61687 0
M  V30 3438 C 326.786 -0.183464 1.91121 0
M  V30 3439 O 327.987 -0.384937 2.66029 0
M  V30 3440 C 326.258 2.09201 2.89775 0
M  V30 3441 S 327.817 2.18526 3.80515 0
M  V30 3442 H 324.635 0.445023 0.554505 0
M  V30 3443 H 327.237 1.67733 1.00429 0
M  V30 3444 H 325.941 3.12433 2.66108 0
M  V30 3445 H 325.472 1.67315 3.56047 0
M  V30 3446 H 327.487 1.3393 4.77784 0
M  V30 3447 N 326.66 -1.06551 1.16123 0
M  V30 3448 C 327.57 -2.17484 0.879662 0
M  V30 3449 C 328.586 -1.73377 -0.147104 0
M  V30 3450 O 329.762 -2.01379 0.0289128 0
M  V30 3451 C 326.827 -3.44591 0.381829 0
M  V30 3452 C 325.888 -4.0322 1.4735 0
M  V30 3453 C 325.121 -5.24261 0.999324 0
M  V30 3454 O 325.344 -5.70198 -0.151957 0
M  V30 3455 O 324.278 -5.74775 1.78653 0
M  V30 3456 H 328.104 -2.44075 1.80724 0
M  V30 3457 H 325.689 -1.16042 0.940992 0
M  V30 3458 H 327.571 -4.21254 0.111053 0
M  V30 3459 H 326.246 -3.19532 -0.51777 0
M  V30 3460 H 325.153 -3.2806 1.79798 0
M  V30 3461 H 326.486 -4.32568 2.34831 0
M  V30 3462 N 328.138 -0.959301 -1.25041 0
M  V30 3463 C 329.415 -0.533805 -1.88175 0
M  V30 3464 C 329.795 0.988994 -1.865 0
M  V30 3465 O 329.143 1.85677 -1.33177 0
M  V30 3466 C 329.353 -1.11575 -3.30684 0
M  V30 3467 C 330.701 -1.19548 -4.07423 0
M  V30 3468 O 331.725 -1.06765 -3.39823 0
M  V30 3469 O 330.584 -1.39656 -5.28354 0
M  V30 3470 H 327.678 -0.176772 -0.807887 0
M  V30 3471 H 330.224 -1.05303 -1.33076 0
M  V30 3472 H 328.996 -2.15884 -3.26358 0
M  V30 3473 H 328.619 -0.580059 -3.93346 0
M  V30 3474 N 329.616 1.39756 -0.72842 0
M  V30 3475 C 330.856 2.025 -0.278078 0
M  V30 3476 C 331.22 1.5654 1.11173 0
M  V30 3477 O 332.421 2.11435 1.65978 0
M  V30 3478 C 330.692 3.55489 -0.369139 0
M  V30 3479 S 332.251 4.388 0.00232983 0
M  V30 3480 H 329.069 0.702534 -0.109391 0
M  V30 3481 H 331.671 1.70672 -0.95348 0
M  V30 3482 H 330.375 3.86429 -1.38204 0
M  V30 3483 H 329.906 3.92061 0.324308 0
M  V30 3484 H 331.921 4.80954 1.22055 0
M  V30 3485 N 331.094 0.475555 1.50254 0
M  V30 3486 C 332.026 -0.352649 2.26471 0
M  V30 3487 C 333.039 -0.953165 1.3198 0
M  V30 3488 O 334.228 -0.840815 1.57457 0
M  V30 3489 C 331.328 -1.50902 3.0345 0
M  V30 3490 C 330.501 -1.02047 4.25329 0
M  V30 3491 C 329.56 -2.05142 4.84565 0
M  V30 3492 O 328.586 -1.63023 5.45355 0
M  V30 3493 N 329.788 -3.37987 4.71959 0
M  V30 3494 H 332.553 0.300767 2.98187 0
M  V30 3495 H 330.114 0.306598 1.5897 0
M  V30 3496 H 332.106 -2.19572 3.39956 0
M  V30 3497 H 330.676 -2.06705 2.34504 0
M  V30 3498 H 329.896 -0.159507 3.93877 0
M  V30 3499 H 331.184 -0.672061 5.04342 0
M  V30 3500 H 330.582 -3.74913 4.23623 0
M  V30 3501 H 329.139 -4.02443 5.12721 0
M  V30 3502 N 332.573 -1.56217 0.208337 0
M  V30 3503 C 333.798 -2.02782 -0.435222 0
M  V30 3504 C 334.223 -1.08738 -1.53485 0
M  V30 3505 O 333.581 -0.0731855 -1.81152 0
M  V30 3506 C 333.629 -3.47687 -0.956335 0
M  V30 3507 O 332.733 -3.56773 -2.06849 0
M  V30 3508 H 332.074 -0.656403 -0.100158 0
M  V30 3509 H 334.604 -2.02033 0.3231 0
M  V30 3510 H 334.614 -3.87745 -1.26955 0
M  V30 3511 H 333.289 -4.15624 -0.15143 0
M  V30 3512 H 331.866 -3.28597 -1.76292 0
M  V30 3513 N 334.051 0.0651679 -1.57465 0
M  V30 3514 C 334.981 1.07693 -2.07182 0
M  V30 3515 C 335.962 1.39962 -0.966673 0
M  V30 3516 O 337.147 1.49475 -1.2398 0
M  V30 3517 C 334.277 2.3885 -2.52127 0
M  V30 3518 C 333.231 2.20917 -3.66579 0
M  V30 3519 C 332.557 3.57515 -3.97601 0
M  V30 3520 C 333.857 1.62493 -4.9638 0
M  V30 3521 H 335.551 0.663199 -2.91962 0
M  V30 3522 H 333.097 0.317569 -1.40455 0
M  V30 3523 H 335.05 3.09928 -2.85522 0
M  V30 3524 H 333.774 2.82215 -1.64384 0
M  V30 3525 H 332.433 1.52279 -3.33477 0
M  V30 3526 H 332.081 3.98463 -3.06979 0
M  V30 3527 H 331.781 3.46353 -4.74672 0
M  V30 3528 H 333.305 4.30013 -4.33499 0
M  V30 3529 H 334.719 2.23445 -5.27963 0
M  V30 3530 H 333.116 1.62009 -5.77818 0
M  V30 3531 H 334.186 0.587041 -4.81333 0
M  V30 3532 N 335.529 1.53961 0.336706 0
M  V30 3533 C 336.775 1.7179 1.07777 0
M  V30 3534 C 337.108 0.483263 1.88091 0
M  V30 3535 O 336.383 -0.519747 1.87427 0
M  V30 3536 C 336.666 2.98558 2.01334 0
M  V30 3537 C 336.519 4.32245 1.24437 0
M  V30 3538 C 337.838 3.21023 3.01052 0
M  V30 3539 H 334.957 0.625089 0.390426 0
M  V30 3540 H 337.599 1.86641 0.35567 0
M  V30 3541 H 335.749 2.86028 2.62908 0
M  V30 3542 H 337.421 4.56637 0.654243 0
M  V30 3543 H 335.664 4.30344 0.546458 0
M  V30 3544 H 336.335 5.17137 1.93063 0
M  V30 3545 H 338.811 3.32929 2.49595 0
M  V30 3546 H 337.687 4.11104 3.6371 0
M  V30 3547 H 337.948 2.37637 3.72802 0
M  V30 3548 N 337.007 -0.598083 1.45811 0
M  V30 3549 C 337.954 -1.7082 1.55207 0
M  V30 3550 C 338.924 -1.61278 0.39732 0
M  V30 3551 O 340.109 -1.80717 0.612038 0
M  V30 3552 C 337.249 -3.09144 1.53376 0
M  V30 3553 C 336.362 -3.29423 2.79472 0
M  V30 3554 C 335.497 -4.57907 2.69248 0
M  V30 3555 C 334.536 -4.71476 3.90354 0
M  V30 3556 N 333.673 -5.9127 3.78608 0
M  V30 3557 H 338.513 -1.62125 2.50039 0
M  V30 3558 H 336.05 -0.790389 1.24062 0
M  V30 3559 H 338.008 -3.89186 1.50301 0
M  V30 3560 H 336.638 -3.16773 0.620876 0
M  V30 3561 H 335.69 -2.43091 2.92594 0
M  V30 3562 H 337.002 -3.3532 3.69272 0
M  V30 3563 H 336.156 -5.46157 2.64192 0
M  V30 3564 H 334.895 -4.54423 1.77063 0
M  V30 3565 H 333.9 -3.81648 3.95759 0
M  V30 3566 H 335.125 -4.76751 4.83617 0
M  V30 3567 H 333.071 -5.88813 2.89199 0
M  V30 3568 H 332.988 -5.98369 4.6205 0
M  V30 3569 H 334.256 -6.81992 3.77501 0
M  V30 3570 N 338.485 -1.33259 -0.841409 0
M  V30 3571 C 339.896 -1.22066 -1.41269 0
M  V30 3572 C 340.247 0.161479 -1.95534 0
M  V30 3573 O 339.372 1.06094 -1.88608 0
M  V30 3574 C 339.967 -2.20996 -2.568 0
M  V30 3575 C 338.526 -2.13649 -3.09888 0
M  V30 3576 C 337.673 -2.08623 -1.82679 0
M  V30 3577 H 340.624 -1.44895 -0.647395 0
M  V30 3578 H 340.645 -1.81621 -3.34356 0
M  V30 3579 H 340.157 -3.2158 -2.17274 0
M  V30 3580 H 338.258 -1.16359 -3.53965 0
M  V30 3581 H 338.371 -3.04079 -3.70234 0
M  V30 3582 H 336.735 -1.54061 -2.02824 0
M  V30 3583 H 337.518 -3.1101 -1.45353 0
M  V30 3584 N 339.963 1.05934 -1.16686 0
M  V30 3585 C 341.24 1.75643 -0.860747 0
M  V30 3586 C 341.62 2.01144 0.640641 0
M  V30 3587 O 340.968 1.64147 1.58959 0
M  V30 3588 C 341.178 3.05493 -1.68745 0
M  V30 3589 C 342.526 3.79581 -1.90271 0
M  V30 3590 O 343.55 3.15344 -1.65641 0
M  V30 3591 O 342.409 4.9499 -2.31618 0
M  V30 3592 H 339.503 0.763426 -0.317977 0
M  V30 3593 H 342.049 1.1217 -1.27342 0
M  V30 3594 H 340.821 2.8264 -2.70611 0
M  V30 3595 H 340.444 3.76702 -1.27206 0
M  V30 3596 N 341.441 0.965919 1.2453 0
M  V30 3597 C 342.69 0.622437 1.91856 0
M  V30 3598 C 343.003 -0.846006 1.76358 0
M  V30 3599 O 344.209 -1.29993 2.38357 0
M  V30 3600 C 342.665 1.0626 3.43856 0
M  V30 3601 C 342.273 2.55437 3.68043 0
M  V30 3602 C 344.017 0.792183 4.17043 0
M  V30 3603 C 341.924 2.93196 5.13605 0
M  V30 3604 H 340.854 0.229092 0.718354 0
M  V30 3605 H 343.505 1.17189 1.41206 0
M  V30 3606 H 341.887 0.441476 3.93531 0
M  V30 3607 H 343.061 3.22665 3.28974 0
M  V30 3608 H 341.376 2.8007 3.08139 0
M  V30 3609 H 343.973 1.05031 5.24283 0
M  V30 3610 H 344.316 -0.271584 4.15413 0
M  V30 3611 H 344.849 1.37419 3.73311 0
M  V30 3612 H 341.588 3.98636 5.20355 0
M  V30 3613 H 341.108 2.30651 5.53679 0
M  V30 3614 H 342.787 2.83004 5.81823 0
M  V30 3615 N 342.919 -1.39368 0.735821 0
M  V30 3616 C 344.165 -2.00794 0.284544 0
M  V30 3617 C 344.498 -1.58255 -1.12557 0
M  V30 3618 O 343.773 -0.811819 -1.76748 0
M  V30 3619 C 344.056 -3.58011 0.387337 0
M  V30 3620 C 343.909 -4.10566 1.83728 0
M  V30 3621 C 345.228 -4.395 -0.22975 0
M  V30 3622 H 342.347 -0.729501 0.104866 0
M  V30 3623 H 344.989 -1.65564 0.93213 0
M  V30 3624 H 343.139 -3.88154 -0.164006 0
M  V30 3625 H 344.811 -3.91139 2.44556 0
M  V30 3626 H 343.054 -3.64095 2.35833 0
M  V30 3627 H 343.725 -5.19702 1.86047 0
M  V30 3628 H 346.201 -4.15406 0.240257 0
M  V30 3629 H 345.077 -5.48752 -0.127485 0
M  V30 3630 H 345.338 -4.22062 -1.3159 0
M  V30 3631 N 344.397 -0.483516 -1.5 0
M  V30 3632 C 345.644 0.0671597 -2.02389 0
M  V30 3633 C 345.972 1.38597 -1.36459 0
M  V30 3634 O 345.227 1.89634 -0.483458 0
M  V30 3635 C 345.526 0.286226 -3.56252 0
M  V30 3636 C 345.192 -0.952416 -4.40726 0
M  V30 3637 C 343.854 -1.29199 -4.63531 0
M  V30 3638 C 346.206 -1.77655 -4.89988 0
M  V30 3639 C 343.534 -2.45553 -5.32842 0
M  V30 3640 C 345.886 -2.93147 -5.60578 0
M  V30 3641 C 344.55 -3.27505 -5.81633 0
M  V30 3642 H 343.82 0.0245755 -0.740592 0
M  V30 3643 H 346.467 -0.640124 -1.80485 0
M  V30 3644 H 344.772 1.07587 -3.76739 0
M  V30 3645 H 346.469 0.726473 -3.94365 0
M  V30 3646 H 343.059 -0.677881 -4.23205 0
M  V30 3647 H 347.243 -1.52737 -4.72213 0
M  V30 3648 H 342.499 -2.72431 -5.47349 0
M  V30 3649 H 346.673 -3.57344 -5.97727 0
M  V30 3650 H 344.3 -4.1777 -6.35116 0
M  V30 3651 N 345.875 1.56104 -0.216619 0
M  V30 3652 C 347.122 1.98172 0.416416 0
M  V30 3653 C 347.45 1.10413 1.60122 0
M  V30 3654 O 346.705 0.147967 1.9514 0
M  V30 3655 C 347.004 3.45923 0.898464 0
M  V30 3656 C 346.67 4.50559 -0.175288 0
M  V30 3657 C 345.332 4.78897 -0.470271 0
M  V30 3658 C 347.684 5.1334 -0.901728 0
M  V30 3659 C 345.012 5.67299 -1.4963 0
M  V30 3660 C 347.364 6.02853 -1.91705 0
M  V30 3661 C 346.028 6.29537 -2.21901 0
M  V30 3662 H 345.298 0.725164 0.152377 0
M  V30 3663 H 347.945 1.88839 -0.318103 0
M  V30 3664 H 346.25 3.52434 1.71165 0
M  V30 3665 H 347.947 3.75841 1.39803 0
M  V30 3666 H 344.537 4.28551 0.0647806 0
M  V30 3667 H 348.721 4.91521 -0.687072 0
M  V30 3668 H 343.977 5.86239 -1.73592 0
M  V30 3669 H 348.151 6.50552 -2.48505 0
M  V30 3670 H 345.778 6.97835 -3.01548 0
M  V30 3671 N 347.353 -0.0568162 1.57498 0
M  V30 3672 C 348.601 -0.751617 1.87604 0
M  V30 3673 C 348.922 -1.77351 0.81066 0
M  V30 3674 O 348.192 -1.95254 -0.159018 0
M  V30 3675 H 346.772 -0.280583 0.692302 0
M  V30 3676 H 349.434 -0.0293483 1.94878 0
M  V30 3677 H 348.53 -1.25852 2.856 0
M  V30 3678 N 348.832 -1.54138 -0.328536 0
M  V30 3679 C 349.742 -1.86192 -1.42723 0
M  V30 3680 C 350.758 -0.753382 -1.56844 0
M  V30 3681 O 351.934 -1.04718 -1.72035 0
M  V30 3682 C 348.999 -2.07824 -2.77507 0
M  V30 3683 C 348.06 -3.31641 -2.72603 0
M  V30 3684 C 347.293 -3.52232 -4.00959 0
M  V30 3685 O 347.516 -2.7636 -4.9898 0
M  V30 3686 O 346.45 -4.45699 -4.0452 0
M  V30 3687 H 350.276 -2.79608 -1.18547 0
M  V30 3688 H 347.861 -1.3998 -0.522104 0
M  V30 3689 H 349.743 -2.23411 -3.57303 0
M  V30 3690 H 348.418 -1.17596 -3.01584 0
M  V30 3691 H 347.325 -3.21444 -1.91376 0
M  V30 3692 H 348.658 -4.2191 -2.53481 0
M  V30 3693 N 350.31 0.590341 -1.46126 0
M  V30 3694 C 351.535 1.37991 -1.54833 0
M  V30 3695 C 351.96 1.87163 -0.187506 0
M  V30 3696 O 351.318 1.61133 0.831008 0
M  V30 3697 C 351.366 2.54867 -2.55098 0
M  V30 3698 O 350.47 3.56061 -2.08073 0
M  V30 3699 H 349.811 0.411265 -0.521303 0
M  V30 3700 H 352.341 0.716819 -1.91632 0
M  V30 3701 H 352.351 3.01886 -2.74461 0
M  V30 3702 H 351.026 2.18429 -3.53923 0
M  V30 3703 H 349.603 3.15574 -1.98664 0
M  V30 3704 N 351.788 1.33704 0.83433 0
M  V30 3705 C 352.718 1.26967 1.95963 0
M  V30 3706 C 353.699 0.149337 1.69443 0
M  V30 3707 O 354.884 0.339852 1.91203 0
M  V30 3708 C 352.014 1.01275 3.32206 0
M  V30 3709 C 350.968 2.09652 3.73136 0
M  V30 3710 C 350.294 1.69166 5.07235 0
M  V30 3711 C 351.594 3.51372 3.86439 0
M  V30 3712 H 353.288 2.2112 2.01857 0
M  V30 3713 H 350.834 1.06447 0.969793 0
M  V30 3714 H 352.787 0.952106 4.10503 0
M  V30 3715 H 351.511 0.0356203 3.26581 0
M  V30 3716 H 350.17 2.14766 2.97104 0
M  V30 3717 H 349.818 0.701437 4.98085 0
M  V30 3718 H 349.518 2.41694 5.35591 0
M  V30 3719 H 351.042 1.64576 5.88003 0
M  V30 3720 H 352.456 3.48734 4.55036 0
M  V30 3721 H 350.853 4.22425 4.26236 0
M  V30 3722 H 351.923 3.89546 2.88759 0
M  V30 3723 N 353.266 -1.05314 1.17247 0
M  V30 3724 C 354.677 -1.59753 0.96623 0
M  V30 3725 C 355.028 -1.9005 -0.487378 0
M  V30 3726 O 354.153 -1.68126 -1.36245 0
M  V30 3727 C 354.748 -2.90249 1.74759 0
M  V30 3728 C 353.307 -3.41352 1.58606 0
M  V30 3729 C 352.454 -2.15103 1.75002 0
M  V30 3730 H 355.405 -0.881406 1.31973 0
M  V30 3731 H 355.426 -3.60097 1.22925 0
M  V30 3732 H 354.938 -2.68166 2.8055 0
M  V30 3733 H 353.039 -3.68474 0.552985 0
M  V30 3734 H 353.152 -4.16019 2.37624 0
M  V30 3735 H 351.516 -2.25804 1.17833 0
M  V30 3736 H 352.299 -1.95491 2.82202 0
M  V30 3737 N 354.744 -0.972509 -1.24016 0
M  V30 3738 C 355.707 -0.511403 -2.23422 0
M  V30 3739 C 356.707 0.394679 -1.55881 0
M  V30 3740 O 357.897 0.189469 -1.73167 0
M  V30 3741 C 355.029 0.258769 -3.39916 0
M  V30 3742 H 356.222 -1.39024 -2.6573 0
M  V30 3743 H 353.775 -0.757585 -1.36713 0
M  V30 3744 H 354.51 1.1545 -3.03054 0
M  V30 3745 H 354.295 -0.391522 -3.9014 0
M  V30 3746 H 355.785 0.570244 -4.13688 0
M  V30 3747 N 356.222 1.38976 -0.743202 0
M  V30 3748 C 357.638 1.53984 -0.419664 0
M  V30 3749 C 357.838 1.70837 1.0685 0
M  V30 3750 O 356.894 1.7135 1.8546 0
M  V30 3751 C 358.207 2.75287 -1.20985 0
M  V30 3752 C 359.755 2.89129 -1.19889 0
M  V30 3753 C 360.23 4.13381 -1.97181 0
M  V30 3754 N 361.721 4.20437 -1.94389 0
M  V30 3755 C 362.456 5.15547 -2.50996 0
M  V30 3756 N 361.952 6.16395 -3.16274 0
M  V30 3757 N 363.745 5.07822 -2.40984 0
M  V30 3758 H 355.896 1.26285 -1.7078 0
M  V30 3759 H 358.159 0.612689 -0.723406 0
M  V30 3760 H 357.865 2.69204 -2.26323 0
M  V30 3761 H 357.739 3.68184 -0.819759 0
M  V30 3762 H 360.126 2.947 -0.153606 0
M  V30 3763 H 360.207 1.97272 -1.62841 0
M  V30 3764 H 359.851 4.08572 -3.01714 0
M  V30 3765 H 359.781 5.04298 -1.51629 0
M  V30 3766 H 362.272 3.48205 -1.46839 0
M  V30 3767 H 362.585 6.85443 -3.56915 0
M  V30 3768 H 360.93 6.16758 -3.20367 0
M  V30 3769 H 364.121 4.27973 -1.89622 0
M  V30 3770 H 364.294 5.81767 -2.85397 0
M  V30 3771 N 357.7 0.491464 1.49741 0
M  V30 3772 C 358.947 -0.0564256 2.02421 0
M  V30 3773 C 359.275 -1.37872 1.37192 0
M  V30 3774 O 358.53 -1.89375 0.493508 0
M  V30 3775 C 358.829 -0.267329 3.56399 0
M  V30 3776 C 358.495 0.975775 4.40215 0
M  V30 3777 C 357.157 1.31655 4.62839 0
M  V30 3778 C 359.509 1.80251 4.89039 0
M  V30 3779 C 356.837 2.48375 5.31532 0
M  V30 3780 C 359.189 2.96116 5.59015 0
M  V30 3781 C 357.853 3.30585 5.79888 0
M  V30 3782 H 357.123 -0.0206476 0.740712 0
M  V30 3783 H 359.77 0.649686 1.80143 0
M  V30 3784 H 358.075 -1.05588 3.77304 0
M  V30 3785 H 359.772 -0.705549 3.94744 0
M  V30 3786 H 356.362 0.700315 4.2284 0
M  V30 3787 H 360.546 1.55239 4.71396 0
M  V30 3788 H 355.802 2.7533 5.45897 0
M  V30 3789 H 359.976 3.60509 5.95824 0
M  V30 3790 H 357.603 4.21132 6.32892 0
M  V30 3791 N 359.178 -1.55987 0.224894 0
M  V30 3792 C 360.425 -1.9839 -0.4059 0
M  V30 3793 C 360.753 -1.11261 -1.59535 0
M  V30 3794 O 360.008 -0.158314 -1.95059 0
M  V30 3795 C 360.307 -3.46394 -0.880106 0
M  V30 3796 C 359.973 -4.5046 0.19918 0
M  V30 3797 C 358.635 -4.7864 0.495661 0
M  V30 3798 C 360.987 -5.12855 0.928939 0
M  V30 3799 C 358.315 -5.66497 1.52636 0
M  V30 3800 C 360.667 -6.01828 1.949 0
M  V30 3801 C 359.331 -6.28351 2.25236 0
M  V30 3802 H 358.601 -0.725961 -0.148529 0
M  V30 3803 H 361.248 -1.88668 0.328113 0
M  V30 3804 H 359.553 -3.53337 -1.69294 0
M  V30 3805 H 361.25 -3.76577 -1.37808 0
M  V30 3806 H 357.84 -4.28579 -0.0420526 0
M  V30 3807 H 362.024 -4.9115 0.713129 0
M  V30 3808 H 357.28 -5.8531 1.76698 0
M  V30 3809 H 361.454 -6.49225 2.51951 0
M  V30 3810 H 359.081 -6.96226 3.05244 0
M  V30 3811 N 360.656 0.0484629 -1.57525 0
M  V30 3812 C 361.881 0.759177 -1.93006 0
M  V30 3813 C 362.306 1.69125 -0.823317 0
M  V30 3814 O 361.664 1.79931 0.222364 0
M  V30 3815 C 361.712 1.50899 -3.27509 0
M  V30 3816 O 360.816 2.62112 -3.18388 0
M  V30 3817 H 360.157 0.205564 -0.631379 0
M  V30 3818 H 362.687 0.00972959 -2.04598 0
M  V30 3819 H 362.697 1.88317 -3.6194 0
M  V30 3820 H 361.372 0.825269 -4.0763 0
M  V30 3821 H 359.949 2.27379 -2.95556 0
M  V30 3822 N 362.134 1.5431 0.320358 0
M  V30 3823 C 363.374 1.74395 1.0661 0
M  V30 3824 C 363.738 0.508602 1.85141 0
M  V30 3825 O 364.939 0.586856 2.62316 0
M  V30 3826 C 363.21 2.98619 1.96371 0
M  V30 3827 S 364.769 3.39621 2.77854 0
M  V30 3828 H 361.587 0.613204 0.359863 0
M  V30 3829 H 364.189 1.9249 0.341727 0
M  V30 3830 H 362.893 3.86673 1.3752 0
M  V30 3831 H 362.424 2.83055 2.73209 0
M  V30 3832 H 364.439 2.95172 3.98858 0
M  V30 3833 N 363.613 -0.582584 1.46437 0
M  V30 3834 C 364.546 -1.70633 1.51524 0
M  V30 3835 C 365.524 -1.58349 0.369351 0
M  V30 3836 O 366.708 -1.79563 0.573516 0
M  V30 3837 C 363.835 -3.08687 1.39392 0
M  V30 3838 C 362.881 -3.3949 2.58164 0
M  V30 3839 S 363.714 -3.31548 4.20519 0
M  V30 3840 C 364.87 -4.72139 4.10896 0
M  V30 3841 H 365.103 -1.66058 2.46601 0
M  V30 3842 H 362.636 -0.761337 1.34324 0
M  V30 3843 H 364.594 -3.8833 1.33079 0
M  V30 3844 H 363.255 -3.10751 0.457436 0
M  V30 3845 H 362.448 -4.40071 2.45669 0
M  V30 3846 H 362.05 -2.67415 2.61468 0
M  V30 3847 H 364.342 -5.62527 3.77584 0
M  V30 3848 H 365.285 -4.89692 5.11476 0
M  V30 3849 H 365.693 -4.48995 3.42146 0
M  V30 3850 N 365.091 -1.34144 -0.827227 0
M  V30 3851 C 366.023 -1.21206 -1.9453 0
M  V30 3852 C 367.036 -0.140176 -1.62195 0
M  V30 3853 O 368.225 -0.391647 -1.7415 0
M  V30 3854 C 365.325 -0.839141 -3.28347 0
M  V30 3855 C 364.498 -2.0051 -3.88734 0
M  V30 3856 C 363.557 -1.61128 -5.00923 0
M  V30 3857 O 362.583 -2.32726 -5.19449 0
M  V30 3858 N 363.785 -0.522958 -5.7814 0
M  V30 3859 H 366.55 -2.17525 -2.06162 0
M  V30 3860 H 364.111 -1.27043 -1.00358 0
M  V30 3861 H 366.103 -0.557556 -4.00841 0
M  V30 3862 H 364.673 0.0337293 -3.12582 0
M  V30 3863 H 363.893 -2.45166 -3.08686 0
M  V30 3864 H 365.181 -2.78498 -4.25812 0
M  V30 3865 H 364.579 0.0723518 -5.65654 0
M  V30 3866 H 363.136 -0.301089 -6.51104 0
M  V30 3867 N 366.569 1.04691 -1.17803 0
M  V30 3868 C 367.794 1.81984 -0.994813 0
M  V30 3869 C 368.219 1.82586 0.452112 0
M  V30 3870 O 367.577 1.23854 1.324 0
M  V30 3871 C 367.625 3.2575 -1.54659 0
M  V30 3872 O 366.729 4.05267 -0.763728 0
M  V30 3873 H 366.07 0.562483 -0.352857 0
M  V30 3874 H 368.6 1.3189 -1.56417 0
M  V30 3875 H 368.61 3.76541 -1.57102 0
M  V30 3876 H 367.285 3.24627 -2.59981 0
M  V30 3877 H 365.862 3.63972 -0.811108 0
M  V30 3878 N 368.047 0.979072 1.23499 0
M  V30 3879 C 369.324 0.563674 1.87302 0
M  V30 3880 C 369.704 -0.959199 1.88049 0
M  V30 3881 O 369.052 -1.83535 1.36114 0
M  V30 3882 C 369.262 1.16822 3.28867 0
M  V30 3883 C 370.61 1.26014 4.0547 0
M  V30 3884 O 371.634 1.12158 3.38082 0
M  V30 3885 O 370.493 1.48044 5.26066 0
M  V30 3886 H 367.587 0.189602 0.804972 0
M  V30 3887 H 370.133 1.07407 1.31384 0
M  V30 3888 H 368.905 2.21049 3.22883 0
M  V30 3889 H 368.528 0.642564 3.92373 0
M  V30 3890 N 369.525 -1.3858 0.750561 0
M  V30 3891 C 370.772 -2.00184 0.305373 0
M  V30 3892 C 371.1 -1.59575 -1.11203 0
M  V30 3893 O 370.355 -0.823236 -1.77542 0
M  V30 3894 C 370.654 -3.55455 0.372373 0
M  V30 3895 C 370.32 -4.15765 1.745 0
M  V30 3896 C 368.982 -4.31951 2.12065 0
M  V30 3897 C 371.334 -4.49067 2.64553 0
M  V30 3898 C 368.662 -4.78734 3.39162 0
M  V30 3899 C 371.014 -4.97265 3.91038 0
M  V30 3900 C 369.678 -5.11658 4.28676 0
M  V30 3901 H 368.948 -0.732526 0.111744 0
M  V30 3902 H 371.595 -1.65673 0.960451 0
M  V30 3903 H 369.9 -3.90084 -0.366272 0
M  V30 3904 H 371.597 -4.00999 0.00953918 0
M  V30 3905 H 368.187 -4.03579 1.44297 0
M  V30 3906 H 372.371 -4.36166 2.36796 0
M  V30 3907 H 367.627 -4.88062 3.68246 0
M  V30 3908 H 371.801 -5.22003 4.60962 0
M  V30 3909 H 369.428 -5.47668 5.27222 0
M  V30 3910 N 371.003 -0.499398 -1.49478 0
M  V30 3911 C 371.933 0.269244 -2.31943 0
M  V30 3912 C 372.914 0.964054 -1.40143 0
M  V30 3913 O 374.099 0.955767 -1.69052 0
M  V30 3914 C 371.229 1.33504 -3.20615 0
M  V30 3915 C 370.183 0.760202 -4.21195 0
M  V30 3916 C 369.509 1.9264 -4.98792 0
M  V30 3917 C 370.809 -0.247661 -5.21712 0
M  V30 3918 H 372.503 -0.419082 -2.96452 0
M  V30 3919 H 370.049 -0.202988 -1.42562 0
M  V30 3920 H 372.002 1.88048 -3.77115 0
M  V30 3921 H 370.726 2.05253 -2.54045 0
M  V30 3922 H 369.385 0.23653 -3.65836 0
M  V30 3923 H 369.033 2.63154 -4.28671 0
M  V30 3924 H 368.733 1.54785 -5.66847 0
M  V30 3925 H 370.257 2.4762 -5.58137 0
M  V30 3926 H 371.671 0.209579 -5.72917 0
M  V30 3927 H 370.068 -0.541962 -5.97648 0
M  V30 3928 H 371.138 -1.16409 -4.7072 0
M  V30 3929 N 372.481 1.55866 -0.233164 0
M  V30 3930 C 373.428 2.20796 0.67215 0
M  V30 3931 C 374.398 1.16731 1.18166 0
M  V30 3932 O 375.583 1.45129 1.23864 0
M  V30 3933 C 372.723 2.90072 1.86955 0
M  V30 3934 C 371.836 4.08759 1.39786 0
M  V30 3935 C 370.971 4.65787 2.55374 0
M  V30 3936 C 370.01 5.76752 2.04998 0
M  V30 3937 N 369.147 6.28021 3.13901 0
M  V30 3938 H 373.987 2.9779 0.111749 0
M  V30 3939 H 371.524 1.47036 0.0434007 0
M  V30 3940 H 373.482 3.28428 2.57276 0
M  V30 3941 H 372.112 2.15575 2.40265 0
M  V30 3942 H 371.164 3.7581 0.589173 0
M  V30 3943 H 372.476 4.88906 0.98856 0
M  V30 3944 H 371.63 5.06646 3.33758 0
M  V30 3945 H 370.369 3.84828 2.99598 0
M  V30 3946 H 369.374 5.35383 1.25079 0
M  V30 3947 H 370.599 6.59553 1.61759 0
M  V30 3948 H 368.545 5.49971 3.57586 0
M  V30 3949 H 368.462 7.03323 2.7726 0
M  V30 3950 H 369.73 6.73538 3.92386 0
M  V30 3951 N 373.959 -0.0401083 1.57549 0
M  V30 3952 C 375.205 -0.734211 1.89043 0
M  V30 3953 C 375.538 -1.75591 0.829535 0
M  V30 3954 O 374.813 -1.93868 -0.156706 0
M  V30 3955 C 375.096 -1.41374 3.31188 0
M  V30 3956 C 374.949 -0.406299 4.47961 0
M  V30 3957 C 376.268 -2.35061 3.72068 0
M  V30 3958 H 373.387 -0.265447 0.687537 0
M  V30 3959 H 376.029 0.00294087 1.9 0
M  V30 3960 H 374.179 -2.04206 3.30503 0
M  V30 3961 H 375.851 0.219255 4.60779 0
M  V30 3962 H 374.094 0.275485 4.32924 0
M  V30 3963 H 374.765 -0.920022 5.44279 0
M  V30 3964 H 377.241 -1.82282 3.74049 0
M  V30 3965 H 376.117 -2.79593 4.72355 0
M  V30 3966 H 376.378 -3.21258 3.0372 0
M  V30 3967 N 375.437 -1.54477 -0.31217 0
M  V30 3968 C 376.714 -1.63891 -1.06767 0
M  V30 3969 C 377.094 -0.480028 -2.0557 0
M  V30 3970 O 376.442 0.524487 -2.22399 0
M  V30 3971 C 376.652 -3.01402 -1.75948 0
M  V30 3972 C 378 -3.57838 -2.28554 0
M  V30 3973 O 379.024 -3.03782 -1.85998 0
M  V30 3974 O 377.883 -4.52462 -3.06497 0
M  V30 3975 H 374.977 -0.664125 -0.492816 0
M  V30 3976 H 377.523 -1.66823 -0.311149 0
M  V30 3977 H 376.295 -3.77187 -1.04144 0
M  V30 3978 H 375.918 -3.02199 -2.58383 0
M  V30 3979 N 376.915 0.57481 -1.46744 0
M  V30 3980 C 377.845 1.69337 -1.60771 0
M  V30 3981 C 378.826 1.63825 -0.457736 0
M  V30 3982 O 380.011 1.8172 -0.684947 0
M  V30 3983 C 377.141 3.0798 -1.60517 0
M  V30 3984 C 376.095 3.28327 -2.74564 0
M  V30 3985 C 375.421 4.67578 -2.59373 0
M  V30 3986 C 376.721 3.15398 -4.16319 0
M  V30 3987 H 378.415 1.57853 -2.54407 0
M  V30 3988 H 375.961 0.75799 -1.22436 0
M  V30 3989 H 377.914 3.86061 -1.68923 0
M  V30 3990 H 376.638 3.20381 -0.634305 0
M  V30 3991 H 375.297 2.52649 -2.65639 0
M  V30 3992 H 374.945 4.76755 -1.60353 0
M  V30 3993 H 374.645 4.82144 -3.35873 0
M  V30 3994 H 376.169 5.47817 -2.69682 0
M  V30 3995 H 377.583 3.83315 -4.26313 0
M  V30 3996 H 375.98 3.41482 -4.93468 0
M  V30 3997 H 377.05 2.12372 -4.3592 0
M  V30 3998 N 378.394 1.34581 0.820102 0
M  V30 3999 C 379.324 1.29038 1.94606 0
M  V30 4000 C 380.305 0.1673 1.69275 0
M  V30 4001 O 381.49 0.360112 1.90832 0
M  V30 4002 C 378.62 1.04793 3.31113 0
M  V30 4003 C 377.574 2.13597 3.70891 0
M  V30 4004 C 376.9 1.74537 5.05412 0
M  V30 4005 C 378.2 3.55451 3.8269 0
M  V30 4006 H 379.894 2.23248 1.99501 0
M  V30 4007 H 377.44 1.0747 0.958449 0
M  V30 4008 H 379.393 0.995592 4.0947 0
M  V30 4009 H 378.117 0.0702565 3.26524 0
M  V30 4010 H 376.776 2.17905 2.9481 0
M  V30 4011 H 376.424 0.754226 4.97313 0
M  V30 4012 H 376.124 2.47361 5.32997 0
M  V30 4013 H 377.648 1.70803 5.86224 0
M  V30 4014 H 379.062 3.5354 4.51312 0
M  V30 4015 H 377.459 4.26922 4.21732 0
M  V30 4016 H 378.529 3.92587 2.84611 0
M  V30 4017 N 379.872 -1.04064 1.18357 0
M  V30 4018 C 380.802 -2.14001 0.934113 0
M  V30 4019 C 381.783 -1.69616 -0.128186 0
M  V30 4020 O 382.968 -1.94185 0.0244093 0
M  V30 4021 C 380.098 -3.44253 0.459066 0
M  V30 4022 C 379.052 -4.02261 1.46185 0
M  V30 4023 C 378.378 -5.27992 0.844322 0
M  V30 4024 C 379.678 -4.38432 2.83856 0
M  V30 4025 H 381.372 -2.35127 1.85352 0
M  V30 4026 H 378.918 -1.12998 0.892604 0
M  V30 4027 H 380.871 -4.20522 0.271907 0
M  V30 4028 H 379.595 -3.22813 -0.495912 0
M  V30 4029 H 378.254 -3.28074 1.63595 0
M  V30 4030 H 377.902 -5.02862 -0.117845 0
M  V30 4031 H 377.602 -5.67765 1.51384 0
M  V30 4032 H 379.126 -6.06938 0.667693 0
M  V30 4033 H 380.54 -5.05688 2.70098 0
M  V30 4034 H 378.937 -4.89254 3.47491 0
M  V30 4035 H 380.007 -3.4826 3.37406 0
M  V30 4036 N 381.35 -0.985608 -1.22978 0
M  V30 4037 C 382.596 -0.65836 -1.91816 0
M  V30 4038 C 382.929 0.806692 -1.76653 0
M  V30 4039 O 382.204 1.58252 -1.13078 0
M  V30 4040 C 382.487 -1.056 -3.44268 0
M  V30 4041 C 382.34 -2.57906 -3.68516 0
M  V30 4042 C 383.659 -0.603781 -4.35939 0
M  V30 4043 H 380.778 -0.24065 -0.696604 0
M  V30 4044 H 383.42 -1.22783 -1.44998 0
M  V30 4045 H 381.57 -0.571445 -3.84274 0
M  V30 4046 H 383.242 -3.13976 -3.3796 0
M  V30 4047 H 381.485 -3.00305 -3.13048 0
M  V30 4048 H 382.156 -2.80779 -4.75255 0
M  V30 4049 H 384.632 -1.01987 -4.03408 0
M  V30 4050 H 383.508 -0.910383 -5.41298 0
M  V30 4051 H 383.769 0.495761 -4.39312 0
M  V30 4052 N 382.828 1.3818 -0.7579 0
M  V30 4053 C 383.761 2.28055 -0.0814093 0
M  V30 4054 C 384.739 1.45603 0.723779 0
M  V30 4055 O 385.923 1.74961 0.701491 0
M  V30 4056 C 383.05 3.2676 0.891394 0
M  V30 4057 C 382.096 4.26153 0.171909 0
M  V30 4058 S 382.929 5.23434 -1.13035 0
M  V30 4059 C 384.085 6.25694 -0.160727 0
M  V30 4060 H 384.318 2.85082 -0.84353 0
M  V30 4061 H 381.851 1.44246 -0.550671 0
M  V30 4062 H 383.809 3.8414 1.44731 0
M  V30 4063 H 382.47 2.68706 1.62652 0
M  V30 4064 H 381.663 4.95738 0.908843 0
M  V30 4065 H 381.265 3.72691 -0.312606 0
M  V30 4066 H 383.557 6.74161 0.671773 0
M  V30 4067 H 384.5 7.03285 -0.824353 0
M  V30 4068 H 384.908 5.64064 0.221892 0
M  V30 4069 N 384.306 0.507319 1.49211 0
M  V30 4070 C 385.554 -0.0348839 2.0207 0
M  V30 4071 C 385.875 -1.36898 1.38866 0
M  V30 4072 O 385.145 -1.88133 0.546151 0
M  V30 4073 H 383.725 -0.0158812 0.746831 0
M  V30 4074 H 386.387 0.665998 1.83168 0
M  V30 4075 H 385.483 -0.159917 3.1169 0
M  V30 4076 N 385.784 -1.5574 0.241426 0
M  V30 4077 C 387.012 -2.03208 -0.389134 0
M  V30 4078 C 387.427 -1.12082 -1.51931 0
M  V30 4079 O 386.784 -0.134183 -1.82006 0
M  V30 4080 C 386.835 -3.50064 -0.902087 0
M  V30 4081 O 386.556 -4.37717 0.18305 0
M  V30 4082 C 388.057 -4.13268 -1.60389 0
M  V30 4083 H 385.277 -0.664509 -0.0931053 0
M  V30 4084 H 387.821 -2.0124 0.36369 0
M  V30 4085 H 385.976 -3.52583 -1.60511 0
M  V30 4086 H 386.39 -5.24097 -0.205579 0
M  V30 4087 H 387.864 -5.17733 -1.91458 0
M  V30 4088 H 388.341 -3.59434 -2.52397 0
M  V30 4089 H 388.947 -4.14655 -0.945576 0
M  V30 4090 N 387.262 0.0317525 -1.57568 0
M  V30 4091 C 388.487 0.738664 -1.938 0
M  V30 4092 C 388.912 1.68242 -0.841208 0
M  V30 4093 O 388.27 1.80157 0.203267 0
M  V30 4094 C 388.318 1.47417 -3.29091 0
M  V30 4095 O 387.422 2.5872 -3.2115 0
M  V30 4096 H 386.763 0.198856 -0.633524 0
M  V30 4097 H 389.293 -0.0119713 -2.04596 0
M  V30 4098 H 389.303 1.84468 -3.63917 0
M  V30 4099 H 387.978 0.781988 -4.08482 0
M  V30 4100 H 386.555 2.24231 -2.97951 0
M  V30 4101 N 388.74 1.54641 0.303973 0
M  V30 4102 C 389.67 1.88386 1.3796 0
M  V30 4103 C 390.651 0.742485 1.5304 0
M  V30 4104 O 391.836 0.997959 1.66597 0
M  V30 4105 C 388.966 2.12854 2.74427 0
M  V30 4106 C 387.92 3.28702 2.74115 0
M  V30 4107 C 387.246 3.38582 4.13844 0
M  V30 4108 C 388.546 4.65881 2.3612 0
M  V30 4109 H 390.24 2.78474 1.09966 0
M  V30 4110 H 387.786 1.33988 0.527556 0
M  V30 4111 H 389.739 2.35047 3.49758 0
M  V30 4112 H 388.463 1.19535 3.03939 0
M  V30 4113 H 387.122 3.06428 2.0124 0
M  V30 4114 H 386.77 2.42784 4.40528 0
M  V30 4115 H 386.47 4.16453 4.14537 0
M  V30 4116 H 387.994 3.63031 4.90959 0
M  V30 4117 H 389.408 4.87823 3.01167 0
M  V30 4118 H 387.805 5.46444 2.48031 0
M  V30 4119 H 388.875 4.66799 1.3125 0
M  V30 4120 N 390.218 -0.567019 1.47046 0
M  V30 4121 C 391.15 -1.68985 1.54844 0
M  V30 4122 C 392.163 -1.56869 0.435431 0
M  V30 4123 O 393.352 -1.64006 0.70457 0
M  V30 4124 C 390.452 -3.07373 1.42742 0
M  V30 4125 C 389.625 -3.45339 2.6844 0
M  V30 4126 C 388.684 -4.62849 2.50314 0
M  V30 4127 O 387.71 -4.67922 3.24095 0
M  V30 4128 N 388.912 -5.58726 1.57499 0
M  V30 4129 H 391.677 -1.62745 2.51663 0
M  V30 4130 H 389.238 -0.753411 1.43302 0
M  V30 4131 H 391.23 -3.83803 1.28365 0
M  V30 4132 H 389.8 -3.07893 0.540445 0
M  V30 4133 H 389.02 -2.58455 2.97648 0
M  V30 4134 H 390.308 -3.67476 3.51907 0
M  V30 4135 H 389.706 -5.57376 0.966876 0
M  V30 4136 H 388.263 -6.34523 1.49078 0
M  V30 4137 N 391.696 -1.35014 -0.812953 0
M  V30 4138 C 392.942 -1.2812 -1.57204 0
M  V30 4139 C 393.275 0.145869 -1.93651 0
M  V30 4140 O 392.55 1.0937 -1.60836 0
M  V30 4141 C 392.833 -2.18162 -2.86492 0
M  V30 4142 C 392.686 -3.69454 -2.56561 0
M  V30 4143 C 394.005 -2.07439 -3.88145 0
M  V30 4144 H 391.124 -0.466746 -0.570366 0
M  V30 4145 H 393.766 -1.65357 -0.935783 0
M  V30 4146 H 391.916 -1.86535 -3.40789 0
M  V30 4147 H 393.588 -4.11493 -2.08497 0
M  V30 4148 H 391.831 -3.9005 -1.89851 0
M  V30 4149 H 392.502 -4.27835 -3.48799 0
M  V30 4150 H 394.978 -2.35228 -3.4323 0
M  V30 4151 H 393.854 -2.7265 -4.76396 0
M  V30 4152 H 394.115 -1.05439 -4.29343 0
M  V30 4153 N 393.175 1.03435 -1.18907 0
M  V30 4154 C 394.107 2.1165 -0.879595 0
M  V30 4155 C 395.12 1.62316 0.125439 0
M  V30 4156 O 396.309 1.78201 -0.103245 0
M  V30 4157 C 393.409 3.37622 -0.294042 0
M  V30 4158 C 392.582 4.16166 -1.34629 0
M  V30 4159 C 391.641 5.20457 -0.775274 0
M  V30 4160 O 390.667 5.50379 -1.4516 0
M  V30 4161 N 391.869 5.78949 0.424126 0
M  V30 4162 H 394.634 2.38791 -1.81105 0
M  V30 4163 H 392.195 1.19681 -1.09032 0
M  V30 4164 H 394.187 4.04572 0.101679 0
M  V30 4165 H 392.757 3.07873 0.541575 0
M  V30 4166 H 391.977 3.44444 -1.91707 0
M  V30 4167 H 393.265 4.65432 -2.05549 0
M  V30 4168 H 392.663 5.56948 0.991209 0
M  V30 4169 H 391.22 6.47334 0.761691 0
M  V30 4170 N 394.653 0.992116 1.22453 0
M  V30 4171 C 396.064 0.702776 1.72968 0
M  V30 4172 C 396.415 -0.780399 1.80012 0
M  V30 4173 O 395.54 -1.61007 1.44589 0
M  V30 4174 C 396.135 1.26903 3.14135 0
M  V30 4175 C 394.694 1.02909 3.62059 0
M  V30 4176 C 393.841 1.38969 2.39964 0
M  V30 4177 H 396.792 1.16457 1.07812 0
M  V30 4178 H 396.813 0.647223 3.74955 0
M  V30 4179 H 396.325 2.34851 3.08977 0
M  V30 4180 H 394.426 -0.0337979 3.72585 0
M  V30 4181 H 394.539 1.69191 4.48231 0
M  V30 4182 H 392.903 0.808279 2.41535 0
M  V30 4183 H 393.686 2.4792 2.37467 0
M  V30 4184 N 396.131 -1.37776 0.765217 0
M  V30 4185 C 397.378 -1.99849 0.326588 0
M  V30 4186 C 397.706 -1.60746 -1.09504 0
M  V30 4187 O 396.961 -0.84202 -1.76659 0
M  V30 4188 C 397.26 -3.5504 0.410053 0
M  V30 4189 C 396.926 -4.13891 1.78899 0
M  V30 4190 C 395.588 -4.29678 2.16635 0
M  V30 4191 C 397.94 -4.46236 2.69301 0
M  V30 4192 C 395.268 -4.7511 3.44221 0
M  V30 4193 C 397.62 -4.93089 3.9629 0
M  V30 4194 C 396.284 -5.07082 4.34078 0
M  V30 4195 H 395.554 -0.7313 0.119507 0
M  V30 4196 H 398.201 -1.64645 0.977968 0
M  V30 4197 H 396.506 -3.90451 -0.324878 0
M  V30 4198 H 398.203 -4.00966 0.0520699 0
M  V30 4199 H 394.793 -4.02026 1.48569 0
M  V30 4200 H 398.977 -4.3363 2.41409 0
M  V30 4201 H 394.233 -4.84129 3.73402 0
M  V30 4202 H 398.407 -5.17084 4.66472 0
M  V30 4203 H 396.034 -5.42046 5.33001 0
M  V30 4204 N 397.609 -0.515225 -1.4894 0
M  V30 4205 C 398.572 0.244681 -2.2789 0
M  V30 4206 C 399.572 0.881166 -1.34507 0
M  V30 4207 O 400.762 0.743497 -1.57537 0
M  V30 4208 C 397.894 1.35247 -3.12923 0
M  V30 4209 H 399.087 -0.448289 -2.96531 0
M  V30 4210 H 396.64 -0.270656 -1.53939 0
M  V30 4211 H 397.375 2.07916 -2.48881 0
M  V30 4212 H 397.16 0.901374 -3.81599 0
M  V30 4213 H 398.65 1.88737 -3.72516 0
M  V30 4214 N 399.087 1.5561 -0.249682 0
M  V30 4215 C 400.312 2.03865 0.381305 0
M  V30 4216 C 400.737 1.12769 1.50548 0
M  V30 4217 O 400.095 0.121189 1.80895 0
M  V30 4218 C 400.143 3.50101 0.863816 0
M  V30 4219 O 399.247 3.62132 1.97318 0
M  V30 4220 H 398.588 0.658827 0.0827194 0
M  V30 4221 H 401.118 2.01105 -0.376552 0
M  V30 4222 H 401.128 3.90975 1.1663 0
M  V30 4223 H 399.803 4.1588 0.0411816 0
M  V30 4224 H 398.38 3.33155 1.67517 0
M  V30 4225 N 400.565 -0.0233959 1.57583 0
M  V30 4226 C 401.495 -1.02162 2.09965 0
M  V30 4227 C 402.476 -1.3735 1.00344 0
M  V30 4228 O 403.661 -1.46135 1.27899 0
M  V30 4229 C 400.791 -2.32081 2.58371 0
M  V30 4230 C 399.745 -2.1112 3.72307 0
M  V30 4231 C 399.071 -3.46848 4.06941 0
M  V30 4232 C 400.371 -1.49276 5.00514 0
M  V30 4233 H 402.065 -0.585557 2.93618 0
M  V30 4234 H 399.611 -0.280218 1.41247 0
M  V30 4235 H 401.564 -3.02249 2.93639 0
M  V30 4236 H 400.288 -2.77758 1.71808 0
M  V30 4237 H 398.947 -1.43384 3.37397 0
M  V30 4238 H 398.595 -3.90184 3.17436 0
M  V30 4239 H 398.295 -3.33646 4.83688 0
M  V30 4240 H 399.819 -4.18369 4.44747 0
M  V30 4241 H 401.233 -2.09368 5.33702 0
M  V30 4242 H 399.63 -1.46632 5.8191 0
M  V30 4243 H 400.7 -0.459217 4.82721 0
M  V30 4244 N 402.043 -1.548 -0.295768 0
M  V30 4245 C 403.292 -1.73538 -1.02798 0
M  V30 4246 C 403.605 -0.531159 -1.8825 0
M  V30 4247 O 404.811 -0.600458 -2.64777 0
M  V30 4248 C 403.267 -3.07051 -1.87744 0
M  V30 4249 C 402.875 -4.34968 -1.07269 0
M  V30 4250 C 404.619 -3.35146 -2.60533 0
M  V30 4251 C 402.526 -5.5953 -1.91521 0
M  V30 4252 H 401.456 -0.646794 -0.387522 0
M  V30 4253 H 404.107 -1.81278 -0.284718 0
M  V30 4254 H 402.489 -2.93289 -2.66078 0
M  V30 4255 H 403.663 -4.5958 -0.335117 0
M  V30 4256 H 401.978 -4.13847 -0.460384 0
M  V30 4257 H 404.575 -4.2541 -3.23929 0
M  V30 4258 H 404.918 -2.54255 -3.29636 0
M  V30 4259 H 405.451 -3.49902 -1.89244 0
M  V30 4260 H 402.19 -6.43103 -1.26878 0
M  V30 4261 H 401.71 -5.39096 -2.62937 0
M  V30 4262 H 403.389 -5.96982 -2.49442 0
M  V30 4263 N 403.521 0.559213 -1.47345 0
M  V30 4264 C 404.746 1.34676 -1.57725 0
M  V30 4265 C 405.171 1.86723 -0.227164 0
M  V30 4266 O 404.529 1.6286 0.796642 0
M  V30 4267 C 404.577 2.49399 -2.60447 0
M  V30 4268 O 403.681 3.51567 -2.15578 0
M  V30 4269 H 403.022 0.400115 -0.52991 0
M  V30 4270 H 405.552 0.676009 -1.93109 0
M  V30 4271 H 405.562 2.95996 -2.80803 0
M  V30 4272 H 404.237 2.10873 -3.58477 0
M  V30 4273 H 402.814 3.11289 -2.05313 0
M  V30 4274 N 404.999 1.35443 0.805782 0
M  V30 4275 C 405.946 1.28431 1.91766 0
M  V30 4276 C 406.916 0.156102 1.65365 0
M  V30 4277 O 408.101 0.339936 1.87747 0
M  V30 4278 C 405.241 1.06301 3.2832 0
M  V30 4279 C 404.354 2.2805 3.66902 0
M  V30 4280 C 403.489 1.99064 4.92491 0
M  V30 4281 C 402.528 3.16863 5.23703 0
M  V30 4282 N 401.665 2.87647 6.40471 0
M  V30 4283 H 406.505 2.23511 1.97096 0
M  V30 4284 H 404.042 1.11105 0.964054 0
M  V30 4285 H 406 0.915012 4.07042 0
M  V30 4286 H 404.63 0.148822 3.22457 0
M  V30 4287 H 403.682 2.53711 2.83434 0
M  V30 4288 H 404.994 3.1601 3.85927 0
M  V30 4289 H 404.148 1.81099 5.7904 0
M  V30 4290 H 402.887 1.0839 4.75503 0
M  V30 4291 H 401.892 3.35404 4.35642 0
M  V30 4292 H 403.117 4.08339 5.4262 0
M  V30 4293 H 401.063 1.99568 6.24907 0
M  V30 4294 H 400.98 3.69141 6.59751 0
M  V30 4295 H 402.248 2.73226 7.30047 0
M  V30 4296 N 406.477 -1.02803 1.19454 0
M  V30 4297 C 407.44 -2.09264 0.934955 0
M  V30 4298 C 408.44 -1.60576 -0.0849015 0
M  V30 4299 O 409.63 -1.73554 0.149933 0
M  V30 4300 C 406.762 -3.38482 0.40531 0
M  V30 4301 H 407.955 -2.33726 1.87916 0
M  V30 4302 H 405.508 -1.19426 1.00832 0
M  V30 4303 H 406.243 -3.19689 -0.544899 0
M  V30 4304 H 406.028 -3.75142 1.14065 0
M  V30 4305 H 407.518 -4.16894 0.242806 0
M  V30 4306 N 407.956 -0.998596 -1.21925 0
M  V30 4307 C 409.367 -0.711939 -1.72593 0
M  V30 4308 C 409.718 0.770842 -1.80423 0
M  V30 4309 O 408.843 1.60237 -1.4544 0
M  V30 4310 C 409.438 -1.28567 -3.13458 0
M  V30 4311 C 407.997 -1.04828 -3.61508 0
M  V30 4312 C 407.144 -1.4024 -2.39224 0
M  V30 4313 H 410.095 -1.17027 -1.07193 0
M  V30 4314 H 410.116 -0.667098 -3.74607 0
M  V30 4315 H 409.628 -2.36486 -3.07727 0
M  V30 4316 H 407.729 0.0140383 -3.72597 0
M  V30 4317 H 407.842 -1.71566 -4.47328 0
M  V30 4318 H 406.206 -0.821077 -2.41103 0
M  V30 4319 H 406.989 -2.49176 -2.36149 0
M  V30 4320 N 409.434 1.37368 -0.772513 0
M  V30 4321 C 410.364 2.32856 -0.173304 0
M  V30 4322 C 411.345 1.55818 0.682262 0
M  V30 4323 O 412.53 1.84052 0.619566 0
M  V30 4324 C 409.66 3.40048 0.706007 0
M  V30 4325 C 408.614 4.27973 -0.0483144 0
M  V30 4326 C 407.94 5.26184 0.950491 0
M  V30 4327 C 409.24 5.07665 -1.22776 0
M  V30 4328 H 410.934 2.83217 -0.971002 0
M  V30 4329 H 408.48 1.3617 -0.468377 0
M  V30 4330 H 410.433 4.05827 1.13501 0
M  V30 4331 H 409.157 2.88214 1.53623 0
M  V30 4332 H 407.816 3.63726 -0.458107 0
M  V30 4333 H 407.464 4.7063 1.77529 0
M  V30 4334 H 407.164 5.85872 0.450314 0
M  V30 4335 H 408.688 5.94838 1.37842 0
M  V30 4336 H 410.102 5.66578 -0.875366 0
M  V30 4337 H 408.499 5.76681 -1.66007 0
M  V30 4338 H 409.569 4.40294 -2.03149 0
M  V30 4339 N 410.912 0.523116 1.48665 0
M  V30 4340 C 412.137 -0.0117284 2.07397 0
M  V30 4341 C 412.562 -1.28031 1.37803 0
M  V30 4342 O 411.92 -1.75836 0.441762 0
M  V30 4343 C 411.968 -0.225786 3.59892 0
M  V30 4344 O 411.072 -1.29592 3.91509 0
M  V30 4345 H 410.413 0.0360673 0.66302 0
M  V30 4346 H 412.943 0.729066 1.9117 0
M  V30 4347 H 412.953 -0.450552 4.05505 0
M  V30 4348 H 411.628 0.700944 4.09951 0
M  V30 4349 H 410.205 -1.05436 3.57684 0
M  V30 4350 N 412.39 -1.55475 0.257931 0
M  V30 4351 C 413.618 -2.03609 -0.367559 0
M  V30 4352 C 414.033 -1.13687 -1.50734 0
M  V30 4353 O 413.39 -0.153479 -1.81853 0
M  V30 4354 C 413.441 -3.51001 -0.864908 0
M  V30 4355 O 413.162 -4.37499 0.229465 0
M  V30 4356 C 414.663 -4.14946 -1.55997 0
M  V30 4357 H 411.883 -0.665459 -0.0860521 0
M  V30 4358 H 414.427 -2.00843 0.385014 0
M  V30 4359 H 412.582 -3.54266 -1.56762 0
M  V30 4360 H 412.996 -5.24286 -0.14998 0
M  V30 4361 H 414.47 -5.19735 -1.85956 0
M  V30 4362 H 414.947 -3.6209 -2.4857 0
M  V30 4363 H 415.553 -4.15635 -0.901543 0
M  V30 4364 N 413.868 0.0150385 -1.57593 0
M  V30 4365 C 415.279 0.559832 -1.78109 0
M  V30 4366 C 415.63 1.74814 -0.890756 0
M  V30 4367 O 414.755 2.16216 -0.0892482 0
M  V30 4368 C 415.35 1.02238 -3.23006 0
M  V30 4369 C 413.909 1.51258 -3.44671 0
M  V30 4370 C 413.056 0.456955 -2.73509 0
M  V30 4371 H 416.007 -0.211169 -1.57289 0
M  V30 4372 H 416.028 1.88912 -3.30292 0
M  V30 4373 H 415.54 0.157302 -3.87781 0
M  V30 4374 H 413.641 2.39905 -2.8509 0
M  V30 4375 H 413.754 1.55042 -4.5332 0
M  V30 4376 H 412.118 0.915196 -2.37689 0
M  V30 4377 H 412.901 -0.398896 -3.40975 0
M  V30 4378 N 415.346 1.54954 0.287554 0
M  V30 4379 C 416.762 1.46469 0.633964 0
M  V30 4380 C 416.962 0.666865 1.90145 0
M  V30 4381 O 416.018 0.179906 2.51858 0
M  V30 4382 C 417.331 2.90556 0.774454 0
M  V30 4383 C 418.879 3.00681 0.869462 0
M  V30 4384 C 419.354 4.45993 1.04184 0
M  V30 4385 N 420.845 4.4976 1.10772 0
M  V30 4386 C 421.58 5.59393 1.25964 0
M  V30 4387 N 421.076 6.78923 1.37968 0
M  V30 4388 N 422.869 5.47107 1.28959 0
M  V30 4389 H 415.02 2.05288 -0.545041 0
M  V30 4390 H 417.283 0.930305 -0.182308 0
M  V30 4391 H 416.989 3.51594 -0.086207 0
M  V30 4392 H 416.863 3.38743 1.6593 0
M  V30 4393 H 419.25 2.39749 1.7206 0
M  V30 4394 H 419.331 2.55769 -0.0396831 0
M  V30 4395 H 418.975 5.07524 0.195422 0
M  V30 4396 H 418.905 4.88548 1.96542 0
M  V30 4397 H 421.396 3.63651 1.02794 0
M  V30 4398 H 421.709 7.58231 1.49353 0
M  V30 4399 H 420.054 6.81763 1.34999 0
M  V30 4400 H 423.245 4.52668 1.19202 0
M  V30 4401 H 423.418 6.32595 1.40455 0
M  V30 4402 N 416.824 -0.551391 1.4764 0
M  V30 4403 C 417.754 -1.66757 1.63445 0
M  V30 4404 C 418.735 -1.63077 0.483742 0
M  V30 4405 O 419.92 -1.80607 0.71377 0
M  V30 4406 C 417.05 -3.05387 1.65396 0
M  V30 4407 C 416.004 -3.23918 2.79752 0
M  V30 4408 C 415.33 -4.63393 2.66779 0
M  V30 4409 C 416.63 -3.08735 4.21284 0
M  V30 4410 H 418.324 -1.53786 2.56886 0
M  V30 4411 H 415.87 -0.738415 1.23626 0
M  V30 4412 H 417.823 -3.83325 1.75043 0
M  V30 4413 H 416.547 -3.19332 0.685195 0
M  V30 4414 H 415.206 -2.48391 2.69625 0
M  V30 4415 H 414.854 -4.74144 1.67918 0
M  V30 4416 H 414.554 -4.7674 3.43501 0
M  V30 4417 H 416.078 -5.43458 2.78364 0
M  V30 4418 H 417.492 -3.76484 4.32357 0
M  V30 4419 H 415.889 -3.33588 4.98838 0
M  V30 4420 H 416.959 -2.0541 4.39243 0
M  V30 4421 N 418.302 -1.35869 -0.798587 0
M  V30 4422 C 419.232 -1.32118 -1.92528 0
M  V30 4423 C 420.213 -0.194209 -1.68988 0
M  V30 4424 O 421.398 -0.390426 -1.90235 0
M  V30 4425 C 418.528 -1.10047 -3.29404 0
M  V30 4426 C 417.482 -2.19471 -3.67446 0
M  V30 4427 C 416.808 -1.82555 -5.02571 0
M  V30 4428 C 418.108 -3.61495 -3.76987 0
M  V30 4429 H 419.802 -2.26394 -1.95924 0
M  V30 4430 H 417.348 -1.08981 -0.94123 0
M  V30 4431 H 419.301 -1.06061 -4.07835 0
M  V30 4432 H 418.025 -0.122195 -3.26371 0
M  V30 4433 H 416.684 -2.22568 -2.91306 0
M  V30 4434 H 416.332 -0.833249 -4.9605 0
M  V30 4435 H 416.032 -2.5581 -5.28995 0
M  V30 4436 H 417.556 -1.80108 -5.83432 0
M  V30 4437 H 418.97 -3.60676 -4.4563 0
M  V30 4438 H 417.367 -4.33577 -4.14887 0
M  V30 4439 H 418.437 -3.97065 -2.78329 0
M  V30 4440 N 419.78 1.02168 -1.19998 0
M  V30 4441 C 421.029 1.75091 -1.0013 0
M  V30 4442 C 421.342 1.89923 0.467835 0
M  V30 4443 O 422.548 2.59888 0.785515 0
M  V30 4444 C 421.004 3.14892 -1.74273 0
M  V30 4445 C 420.612 3.0809 -3.25245 0
M  V30 4446 C 422.356 3.9206 -1.62755 0
M  V30 4447 C 420.263 4.42867 -3.91948 0
M  V30 4448 H 419.193 0.656394 -0.37103 0
M  V30 4449 H 421.844 1.14284 -1.43567 0
M  V30 4450 H 420.226 3.7621 -1.2362 0
M  V30 4451 H 421.4 2.5611 -3.83072 0
M  V30 4452 H 419.715 2.44416 -3.3712 0
M  V30 4453 H 422.312 4.91764 -2.09934 0
M  V30 4454 H 422.655 4.12199 -0.582894 0
M  V30 4455 H 423.188 3.37359 -2.10793 0
M  V30 4456 H 419.927 4.27931 -4.96543 0
M  V30 4457 H 419.447 4.94874 -3.3891 0
M  V30 4458 H 421.126 5.11728 -3.95909 0
M  V30 4459 N 421.258 1.00505 1.21394 0
M  V30 4460 C 422.206 0.558623 2.25792 0
M  V30 4461 C 423.2 -0.396848 1.64686 0
M  V30 4462 O 424.406 -0.268035 1.77993 0
M  V30 4463 H 420.781 0.1623 0.734277 0
M  V30 4464 H 422.752 1.4503 2.60785 0
M  V30 4465 C 421.501 -0.0989574 3.47559 0
M  V30 4466 H 420.824 0.627225 3.94849 0
M  V30 4467 H 422.264 -0.3746 4.22342 0
M  V30 4468 C 420.723 -1.33817 3.09184 0
M  V30 4469 O 421.253 -2.43252 3.19674 0
M  V30 4470 N 419.459 -1.21793 2.63846 0
M  V30 4471 H 419.006 -0.32746 2.5551 0
M  V30 4472 H 418.964 -2.04809 2.38539 0
M  V30 4473 N 422.737 -1.36956 0.779787 0
M  V30 4474 C 423.684 -2.30175 0.169697 0
M  V30 4475 C 424.654 -1.51501 -0.68094 0
M  V30 4476 O 425.839 -1.80042 -0.631629 0
M  V30 4477 C 422.979 -3.37985 -0.697131 0
M  V30 4478 C 422.092 -4.31661 0.170992 0
M  V30 4479 C 421.227 -5.2655 -0.701298 0
M  V30 4480 C 420.266 -6.11867 0.168869 0
M  V30 4481 N 419.403 -6.98973 -0.661855 0
M  V30 4482 H 424.243 -2.81767 0.970135 0
M  V30 4483 H 421.78 -1.38699 0.489994 0
M  V30 4484 H 423.738 -3.99128 -1.2146 0
M  V30 4485 H 422.368 -2.87739 -1.46309 0
M  V30 4486 H 421.42 -3.71756 0.80634 0
M  V30 4487 H 422.732 -4.91644 0.841875 0
M  V30 4488 H 421.886 -5.92937 -1.28494 0
M  V30 4489 H 420.625 -4.66998 -1.40584 0
M  V30 4490 H 419.63 -5.44452 0.764986 0
M  V30 4491 H 420.855 -6.73493 0.870863 0
M  V30 4492 H 418.801 -6.41941 -1.35086 0
M  V30 4493 H 418.718 -7.55984 -0.0484447 0
M  V30 4494 H 419.986 -7.6974 -1.22963 0
M  V30 4495 N 424.215 -0.530993 -1.48385 0
M  V30 4496 C 425.125 0.23503 -2.3342 0
M  V30 4497 C 426.141 0.93801 -1.46552 0
M  V30 4498 O 427.317 0.912745 -1.7953 0
M  V30 4499 C 424.382 1.26778 -3.22689 0
M  V30 4500 C 423.443 0.575038 -4.25431 0
M  V30 4501 C 422.676 1.55858 -5.10435 0
M  V30 4502 O 422.899 2.79129 -4.97437 0
M  V30 4503 O 421.833 1.09742 -5.91811 0
M  V30 4504 H 425.659 -0.461794 -3.00169 0
M  V30 4505 H 423.244 -0.291903 -1.46521 0
M  V30 4506 H 425.126 1.86457 -3.77904 0
M  V30 4507 H 423.801 1.94699 -2.586 0
M  V30 4508 H 422.708 -0.0622782 -3.74048 0
M  V30 4509 H 424.041 -0.062253 -4.92161 0
M  V30 4510 N 425.693 1.55336 -0.266172 0
M  V30 4511 C 426.64 2.22172 0.625165 0
M  V30 4512 C 427.61 1.19211 1.15663 0
M  V30 4513 O 428.795 1.47723 1.20758 0
M  V30 4514 C 425.935 2.93972 1.8076 0
M  V30 4515 C 425.048 4.11632 1.31084 0
M  V30 4516 C 424.183 4.71099 2.45436 0
M  V30 4517 C 423.222 5.8097 1.92718 0
M  V30 4518 N 422.359 6.34538 3.00509 0
M  V30 4519 H 427.199 2.9796 0.0485582 0
M  V30 4520 H 424.736 1.47095 0.0122024 0
M  V30 4521 H 426.694 3.33811 2.50251 0
M  V30 4522 H 425.324 2.20623 2.35638 0
M  V30 4523 H 424.376 3.76975 0.509326 0
M  V30 4524 H 425.688 4.90893 0.884633 0
M  V30 4525 H 424.842 5.13612 3.22936 0
M  V30 4526 H 423.581 3.91096 2.91368 0
M  V30 4527 H 422.586 5.37916 1.13695 0
M  V30 4528 H 423.811 6.62836 1.47733 0
M  V30 4529 H 421.757 5.57433 3.45839 0
M  V30 4530 H 421.674 7.09046 2.62279 0
M  V30 4531 H 422.942 6.81709 3.78011 0
M  V30 4532 N 427.171 -0.0066808 1.57599 0
M  V30 4533 C 428.134 -0.985035 2.06953 0
M  V30 4534 C 429.134 -1.27663 0.977687 0
M  V30 4535 O 430.324 -1.22293 1.24057 0
M  V30 4536 C 427.456 -2.3118 2.50536 0
M  V30 4537 H 428.649 -0.558255 2.94658 0
M  V30 4538 H 426.202 -0.254011 1.54222 0
M  V30 4539 H 426.937 -2.78561 1.66054 0
M  V30 4540 H 426.722 -2.11338 3.3027 0
M  V30 4541 H 428.212 -3.01377 2.8907 0
M  V30 4542 N 428.649 -1.55105 -0.279332 0
M  V30 4543 C 429.897 -1.75066 -1.00977 0
M  V30 4544 C 430.218 -0.551276 -1.87045 0
M  V30 4545 O 429.488 0.433984 -1.91032 0
M  V30 4546 H 428.068 -0.645578 -0.375816 0
M  V30 4547 H 430.73 -1.92497 -0.305089 0
M  V30 4548 H 429.826 -2.64894 -1.65038 0
M  V30 4549 N 430.127 0.543554 -1.4793 0
M  V30 4550 C 431.059 1.665 -1.57513 0
M  V30 4551 C 432.072 1.56156 -0.460333 0
M  V30 4552 O 433.261 1.62865 -0.730573 0
M  V30 4553 C 430.361 3.05063 -1.47614 0
M  V30 4554 C 429.534 3.41024 -2.739 0
M  V30 4555 C 428.593 4.58809 -2.57645 0
M  V30 4556 O 427.619 4.62707 -3.31498 0
M  V30 4557 N 428.821 5.56149 -1.66368 0
M  V30 4558 H 431.586 1.5872 -2.5422 0
M  V30 4559 H 429.147 0.730517 -1.44482 0
M  V30 4560 H 431.139 3.81712 -1.34455 0
M  V30 4561 H 429.709 3.06994 -0.589359 0
M  V30 4562 H 428.929 2.53687 -3.01723 0
M  V30 4563 H 430.217 3.61831 -3.57709 0
M  V30 4564 H 429.615 5.55767 -1.05543 0
M  V30 4565 H 428.172 6.32071 -1.59154 0
M  V30 4566 N 431.605 1.3629 0.791371 0
M  V30 4567 C 432.83 1.33726 1.58531 0
M  V30 4568 C 433.255 -0.0794933 1.87932 0
M  V30 4569 O 432.613 -1.05087 1.47738 0
M  V30 4570 C 432.661 2.16425 2.88431 0
M  V30 4571 O 431.765 1.5554 3.81944 0
M  V30 4572 H 431.106 0.457793 0.480959 0
M  V30 4573 H 433.636 1.79547 0.981031 0
M  V30 4574 H 433.646 2.28933 3.37718 0
M  V30 4575 H 432.321 3.19415 2.66359 0
M  V30 4576 H 430.898 1.51961 3.40532 0
M  V30 4577 N 433.083 -1.0153 1.20538 0
M  V30 4578 C 434.36 -1.72327 0.925343 0
M  V30 4579 C 434.74 -2.03383 -0.565547 0
M  V30 4580 O 434.088 -1.69934 -1.52757 0
M  V30 4581 C 434.298 -2.9902 1.79967 0
M  V30 4582 C 435.646 -3.72258 2.04228 0
M  V30 4583 O 436.67 -3.08979 1.77231 0
M  V30 4584 O 435.529 -4.86053 2.4983 0
M  V30 4585 H 432.623 -0.751099 0.346092 0
M  V30 4586 H 435.169 -1.07366 1.31417 0
M  V30 4587 H 433.941 -2.72402 2.80915 0
M  V30 4588 H 433.564 -3.71721 1.41099 0
M  V30 4589 N 434.561 -1.01147 -1.20859 0
M  V30 4590 C 435.972 -0.730205 -1.71828 0
M  V30 4591 C 436.323 0.751662 -1.8123 0
M  V30 4592 O 435.448 1.58686 -1.47132 0
M  V30 4593 C 436.043 -1.31885 -3.12077 0
M  V30 4594 C 434.602 -1.08656 -3.60376 0
M  V30 4595 C 433.749 -1.42769 -2.37723 0
M  V30 4596 H 436.7 -1.18158 -1.05945 0
M  V30 4597 H 436.721 -0.706793 -3.73878 0
M  V30 4598 H 436.233 -2.39737 -3.05201 0
M  V30 4599 H 434.334 -0.0254814 -3.72591 0
M  V30 4600 H 434.447 -1.76301 -4.45483 0
M  V30 4601 H 432.811 -0.846603 -2.40218 0
M  V30 4602 H 433.594 -2.51666 -2.33493 0
M  V30 4603 N 436.039 1.36541 -0.78704 0
M  V30 4604 C 437.286 1.99304 -0.358341 0
M  V30 4605 C 437.614 1.62467 1.06933 0
M  V30 4606 O 436.869 0.870019 1.75297 0
M  V30 4607 C 437.168 3.54343 -0.466485 0
M  V30 4608 C 436.834 4.10993 -1.85461 0
M  V30 4609 C 435.496 4.26177 -2.23443 0
M  V30 4610 C 437.848 4.41895 -2.76366 0
M  V30 4611 C 435.176 4.69573 -3.51736 0
M  V30 4612 C 437.528 4.86722 -4.04084 0
M  V30 4613 C 436.192 5.00112 -4.42091 0
M  V30 4614 H 435.462 0.729306 -0.131126 0
M  V30 4615 H 438.109 1.63068 -1.00404 0
M  V30 4616 H 436.414 3.90918 0.262719 0
M  V30 4617 H 438.111 4.00833 -0.115854 0
M  V30 4618 H 434.701 3.99612 -1.54946 0
M  V30 4619 H 438.885 4.29735 -2.48277 0
M  V30 4620 H 434.141 4.78127 -3.81057 0
M  V30 4621 H 438.315 5.09598 -4.7464 0
M  V30 4622 H 435.942 5.33498 -5.41557 0
M  V30 4623 N 437.518 0.538854 1.48102 0
M  V30 4624 C 438.448 -0.207654 2.32575 0
M  V30 4625 C 439.429 -0.926559 1.4265 0
M  V30 4626 O 440.614 -0.91061 1.71527 0
M  V30 4627 C 437.744 -1.24957 3.24042 0
M  V30 4628 C 436.698 -0.648263 4.23062 0
M  V30 4629 C 436.024 -1.79348 5.03725 0
M  V30 4630 C 437.324 0.385897 5.20872 0
M  V30 4631 H 439.018 0.497534 2.95237 0
M  V30 4632 H 436.564 0.240715 1.41974 0
M  V30 4633 H 438.517 -1.77983 3.81969 0
M  V30 4634 H 437.241 -1.98446 2.59397 0
M  V30 4635 H 435.9 -0.139452 3.66335 0
M  V30 4636 H 435.548 -2.51696 4.35498 0
M  V30 4637 H 435.248 -1.39702 5.70751 0
M  V30 4638 H 436.772 -2.32735 5.64506 0
M  V30 4639 H 438.186 -0.057607 5.73271 0
M  V30 4640 H 436.583 0.700227 5.96001 0
M  V30 4641 H 437.653 1.28848 4.67468 0
M  V30 4642 N 438.996 -1.55193 0.274407 0
M  V30 4643 C 440.244 -1.99187 -0.341902 0
M  V30 4644 C 440.565 -1.16422 -1.56431 0
M  V30 4645 O 439.835 -0.253573 -1.94252 0
M  V30 4646 H 438.415 -0.735721 -0.129317 0
M  V30 4647 H 441.077 -1.91168 0.379578 0
M  V30 4648 H 440.173 -3.05629 -0.632253 0
M  V30 4649 N 440.474 -0.00167713 -1.576 0
M  V30 4650 C 441.407 1.02317 -2.03977 0
M  V30 4651 C 442.385 1.33381 -0.929963 0
M  V30 4652 O 443.569 1.45517 -1.19822 0
M  V30 4653 C 440.696 2.35035 -2.43878 0
M  V30 4654 C 439.742 2.19621 -3.65607 0
M  V30 4655 S 440.575 1.52068 -5.13455 0
M  V30 4656 C 441.731 2.86212 -5.56627 0
M  V30 4657 H 441.964 0.628285 -2.90585 0
M  V30 4658 H 439.497 0.209239 -1.52976 0
M  V30 4659 H 441.455 3.11345 -2.67534 0
M  V30 4660 H 440.116 2.71663 -1.57665 0
M  V30 4661 H 439.309 3.1767 -3.91282 0
M  V30 4662 H 438.911 1.51455 -3.41961 0
M  V30 4663 H 441.203 3.82509 -5.59189 0
M  V30 4664 H 442.146 2.65235 -6.56549 0
M  V30 4665 H 442.554 2.90199 -4.84195 0
M  V30 4666 N 441.952 1.55251 0.271103 0
M  V30 4667 C 443.201 1.75151 1.00025 0
M  V30 4668 C 443.514 0.561041 1.87381 0
M  V30 4669 O 444.72 0.642506 2.63788 0
M  V30 4670 C 443.176 3.09999 1.82835 0
M  V30 4671 C 442.784 4.3662 1.00336 0
M  V30 4672 C 444.528 3.39249 2.55168 0
M  V30 4673 C 442.435 5.62506 1.82595 0
M  V30 4674 H 441.365 0.652877 0.377183 0
M  V30 4675 H 444.016 1.81708 0.255843 0
M  V30 4676 H 442.398 2.97485 2.61378 0
M  V30 4677 H 443.572 4.60055 0.261959 0
M  V30 4678 H 441.887 4.14527 0.394486 0
M  V30 4679 H 444.484 4.3051 3.1712 0
M  V30 4680 H 444.827 2.59467 3.2555 0
M  V30 4681 H 445.36 3.52869 1.83653 0
M  V30 4682 H 442.099 6.45041 1.16631 0
M  V30 4683 H 441.619 5.43211 2.54327 0
M  V30 4684 H 443.298 6.00875 2.39913 0
M  V30 4685 N 443.43 -0.535701 1.48216 0
M  V30 4686 C 444.363 -1.65726 1.56876 0
M  V30 4687 C 445.341 -1.57094 0.419542 0
M  V30 4688 O 446.525 -1.77648 0.630352 0
M  V30 4689 C 443.652 -3.04096 1.49142 0
M  V30 4690 C 442.698 -3.31105 2.68834 0
M  V30 4691 S 443.531 -3.18001 4.30854 0
M  V30 4692 C 444.687 -4.58828 4.25709 0
M  V30 4693 H 444.92 -1.58129 2.51759 0
M  V30 4694 H 442.453 -0.718218 1.36678 0
M  V30 4695 H 444.411 -3.839 1.45366 0
M  V30 4696 H 443.072 -3.09139 0.556067 0
M  V30 4697 H 442.265 -4.32033 2.59545 0
M  V30 4698 H 441.867 -2.58961 2.69843 0
M  V30 4699 H 444.159 -5.5023 3.95289 0
M  V30 4700 H 445.102 -4.73172 5.26796 0
M  V30 4701 H 445.51 -4.37883 3.56257 0
M  V30 4702 N 444.908 -1.36708 -0.784132 0
M  V30 4703 C 446.156 -1.30972 -1.53918 0
M  V30 4704 C 446.477 0.109086 -1.94695 0
M  V30 4705 O 445.747 1.05048 -1.65353 0
M  V30 4706 H 444.327 -0.481819 -0.570841 0
M  V30 4707 H 446.989 -1.71063 -0.934002 0
M  V30 4708 H 446.085 -1.94061 -2.44431 0
M  V30 4709 N 446.386 1.0089 -1.21074 0
M  V30 4710 C 447.316 2.1145 -0.990523 0
M  V30 4711 C 448.297 1.69897 0.0831699 0
M  V30 4712 O 449.482 1.94052 -0.0758853 0
M  V30 4713 C 446.612 3.42914 -0.550177 0
M  V30 4714 C 445.566 3.98244 -1.56799 0
M  V30 4715 C 444.892 5.25568 -0.984013 0
M  V30 4716 C 446.192 4.30752 -2.95381 0
M  V30 4717 H 447.886 2.3013 -1.91521 0
M  V30 4718 H 445.432 1.10592 -0.92225 0
M  V30 4719 H 447.385 4.19653 -0.383305 0
M  V30 4720 H 446.109 3.24014 0.41015 0
M  V30 4721 H 444.768 3.23621 -1.72236 0
M  V30 4722 H 444.416 5.02998 -0.0155216 0
M  V30 4723 H 444.116 5.63551 -1.66384 0
M  V30 4724 H 445.64 6.04955 -0.828378 0
M  V30 4725 H 447.054 4.98349 -2.8341 0
M  V30 4726 H 445.451 4.79869 -3.60341 0
M  V30 4727 H 446.521 3.39192 -3.46521 0
M  V30 4728 N 447.864 1.01787 1.20321 0
M  V30 4729 C 449.112 0.706538 1.89347 0
M  V30 4730 C 449.433 -0.766289 1.79313 0
M  V30 4731 O 448.703 -1.55126 1.19635 0
M  V30 4732 H 447.283 0.258348 0.700903 0
M  V30 4733 H 449.945 1.28974 1.46122 0
M  V30 4734 H 449.041 0.991066 2.95946 0
M  V30 4735 N 449.342 -1.36122 0.79427 0
M  V30 4736 C 450.59 -1.98718 0.368177 0
M  V30 4737 C 450.911 -1.63345 -1.06506 0
M  V30 4738 O 450.181 -0.909825 -1.73491 0
M  V30 4739 H 448.761 -0.735038 0.133146 0
M  V30 4740 H 451.423 -1.66239 1.01739 0
M  V30 4741 H 450.519 -3.08633 0.463923 0
M  V30 4742 N 450.82 -0.546701 -1.47814 0
M  V30 4743 C 452.068 -0.0187037 -2.02091 0
M  V30 4744 C 452.389 1.33168 -1.42447 0
M  V30 4745 O 451.659 1.86619 -0.595839 0
M  V30 4746 H 450.239 -0.00392531 -0.74699 0
M  V30 4747 H 452.901 -0.714327 -1.81338 0
M  V30 4748 H 451.997 0.0772219 -3.12004 0
M  V30 4749 N 452.299 1.55045 -0.282633 0
M  V30 4750 C 453.232 2.18951 0.64311 0
M  V30 4751 C 454.21 1.15287 1.14664 0
M  V30 4752 O 455.394 1.43846 1.21822 0
M  V30 4753 C 452.521 2.81874 1.87789 0
M  V30 4754 C 451.567 3.98906 1.50919 0
M  V30 4755 S 452.4 5.3234 0.580884 0
M  V30 4756 C 453.556 5.98737 1.82387 0
M  V30 4757 H 453.789 2.97131 0.100138 0
M  V30 4758 H 451.322 1.54255 -0.0668514 0
M  V30 4759 H 453.28 3.18757 2.58658 0
M  V30 4760 H 451.941 2.03573 2.392 0
M  V30 4761 H 451.134 4.4165 2.42819 0
M  V30 4762 H 450.736 3.63485 0.88061 0
M  V30 4763 H 453.028 6.18427 2.76684 0
M  V30 4764 H 453.971 6.93318 1.4393 0
M  V30 4765 H 454.379 5.28177 1.99223 0
M  V30 4766 N 453.777 0.010035 1.57597 0
M  V30 4767 C 455.054 -0.710296 1.82248 0
M  V30 4768 C 455.434 -1.91426 0.889911 0
M  V30 4769 O 454.782 -2.28424 -0.0590292 0
M  V30 4770 C 454.992 -1.10655 3.30993 0
M  V30 4771 C 456.34 -1.50621 3.96987 0
M  V30 4772 O 457.364 -1.20007 3.35375 0
M  V30 4773 O 456.223 -2.07587 5.05539 0
M  V30 4774 H 453.317 -0.34673 0.750804 0
M  V30 4775 H 455.863 0.0362578 1.69661 0
M  V30 4776 H 454.635 -0.248826 3.90508 0
M  V30 4777 H 454.258 -1.91189 3.48615 0
M  V30 4778 N 455.255 -1.55392 -0.262866 0
M  V30 4779 C 456.502 -1.76476 -0.993109 0
M  V30 4780 C 456.83 -0.571479 -1.85915 0
M  V30 4781 O 456.085 0.445733 -1.90556 0
M  V30 4782 C 456.384 -3.02889 -1.89718 0
M  V30 4783 C 456.05 -4.34974 -1.18781 0
M  V30 4784 C 454.712 -4.7087 -0.991699 0
M  V30 4785 C 457.064 -5.16695 -0.683798 0
M  V30 4786 C 454.392 -5.86036 -0.279024 0
M  V30 4787 C 456.744 -6.32598 0.0153327 0
M  V30 4788 C 455.408 -6.67127 0.223062 0
M  V30 4789 H 454.678 -0.64577 -0.363404 0
M  V30 4790 H 457.325 -1.89664 -0.264525 0
M  V30 4791 H 455.63 -2.84644 -2.6923 0
M  V30 4792 H 457.327 -3.16399 -2.46359 0
M  V30 4793 H 453.917 -4.06765 -1.35058 0
M  V30 4794 H 458.101 -4.8943 -0.8229 0
M  V30 4795 H 453.357 -6.11306 -0.107456 0
M  V30 4796 H 457.531 -6.95171 0.413584 0
M  V30 4797 H 455.158 -7.56216 0.777265 0
M  V30 4798 N 456.733 0.527833 -1.48498 0
M  V30 4799 C 458.01 1.28905 -1.47115 0
M  V30 4800 C 458.39 2.10297 -0.184007 0
M  V30 4801 O 457.738 2.12728 0.834218 0
M  V30 4802 C 457.948 2.16866 -2.73441 0
M  V30 4803 C 459.296 2.76936 -3.21857 0
M  V30 4804 O 460.32 2.27152 -2.74373 0
M  V30 4805 O 459.179 3.67496 -4.04486 0
M  V30 4806 H 456.273 0.581918 -0.587623 0
M  V30 4807 H 458.819 0.544311 -1.60734 0
M  V30 4808 H 457.591 1.56521 -3.58632 0
M  V30 4809 H 457.214 2.98583 -2.62553 0
M  V30 4810 N 458.211 1.37122 0.776871 0
M  V30 4811 C 459.436 1.354 1.57104 0
M  V30 4812 C 459.861 -0.0595562 1.88006 0
M  V30 4813 O 459.219 -1.03514 1.48844 0
M  V30 4814 C 459.267 2.19472 2.8612 0
M  V30 4815 O 458.371 1.59582 3.80273 0
M  V30 4816 H 457.712 0.462869 0.476076 0
M  V30 4817 H 460.242 1.80577 0.961932 0
M  V30 4818 H 460.252 2.32502 3.35271 0
M  V30 4819 H 458.927 3.22222 2.62956 0
M  V30 4820 H 457.504 1.55564 3.38902 0
M  V30 4821 N 459.689 -1.00246 1.21608 0
M  V30 4822 C 460.636 -2.09073 0.977613 0
M  V30 4823 C 461.606 -1.65815 -0.097297 0
M  V30 4824 O 462.791 -1.90734 0.0503445 0
M  V30 4825 C 459.931 -3.40671 0.551133 0
M  V30 4826 C 459.044 -3.97326 1.69576 0
M  V30 4827 C 458.179 -5.17043 1.2182 0
M  V30 4828 C 457.218 -5.65813 2.335 0
M  V30 4829 N 456.355 -6.76778 1.86859 0
M  V30 4830 H 461.195 -2.28806 1.90924 0
M  V30 4831 H 458.732 -1.12186 0.951452 0
M  V30 4832 H 460.69 -4.16225 0.285097 0
M  V30 4833 H 459.32 -3.20967 -0.343489 0
M  V30 4834 H 458.372 -3.18734 2.07637 0
M  V30 4835 H 459.684 -4.29511 2.53617 0
M  V30 4836 H 458.838 -5.99852 0.908975 0
M  V30 4837 H 457.577 -4.86458 0.347869 0
M  V30 4838 H 456.582 -4.81599 2.65222 0
M  V30 4839 H 457.807 -5.98427 3.21033 0
M  V30 4840 H 455.753 -6.47994 1.02174 0
M  V30 4841 H 455.67 -7.08231 2.64471 0
M  V30 4842 H 456.938 -7.63116 1.58978 0
M  V30 4843 N 461.167 -1.02423 -1.1978 0
M  V30 4844 C 462.114 -0.601023 -2.22837 0
M  V30 4845 C 463.084 0.382801 -1.61629 0
M  V30 4846 O 464.269 0.280514 -1.88727 0
M  V30 4847 C 461.409 0.0467755 -3.45068 0
M  V30 4848 C 460.522 -0.98253 -4.20678 0
M  V30 4849 C 459.657 -0.304982 -5.30324 0
M  V30 4850 C 458.696 -1.32052 -5.97686 0
M  V30 4851 N 457.833 -0.669105 -6.98904 0
M  V30 4852 H 462.673 -1.48444 -2.58396 0
M  V30 4853 H 460.21 -0.742936 -1.2696 0
M  V30 4854 H 462.168 0.439556 -4.14878 0
M  V30 4855 H 460.798 0.893796 -3.10179 0
M  V30 4856 H 459.85 -1.49341 -3.49859 0
M  V30 4857 H 461.162 -1.75455 -4.66923 0
M  V30 4858 H 460.316 0.142893 -6.06532 0
M  V30 4859 H 459.055 0.499283 -4.85138 0
M  V30 4860 H 458.06 -1.7787 -5.20233 0
M  V30 4861 H 459.285 -2.1262 -6.44957 0
M  V30 4862 H 457.231 0.115152 -6.55899 0
M  V30 4863 H 457.148 -1.37908 -7.43315 0
M  V30 4864 H 458.416 -0.245076 -7.79115 0
M  V30 4865 N 462.645 1.35699 -0.801477 0
M  V30 4866 C 463.608 2.28199 -0.213994 0
M  V30 4867 C 464.608 1.49359 0.595691 0
M  V30 4868 O 465.798 1.69186 0.414921 0
M  V30 4869 C 462.93 3.33587 0.702297 0
M  V30 4870 H 464.123 2.81666 -1.02976 0
M  V30 4871 H 461.676 1.45467 -0.571759 0
M  V30 4872 H 462.411 2.85297 1.54195 0
M  V30 4873 H 462.196 3.91906 0.123484 0
M  V30 4874 H 463.686 4.02638 1.10783 0
M  V30 4875 N 464.123 0.554532 1.47522 0
M  V30 4876 C 465.353 0.0342074 2.06572 0
M  V30 4877 C 465.761 -1.26375 1.40805 0
M  V30 4878 O 465.104 -1.7683 0.49769 0
M  V30 4879 C 465.166 -0.235096 3.5873 0
M  V30 4880 C 464.83 0.973024 4.46521 0
M  V30 4881 C 465.827 1.8779 4.848 0
M  V30 4882 C 463.512 1.18694 4.88075 0
M  V30 4883 C 465.506 2.98039 5.63428 0
M  V30 4884 C 463.193 2.29254 5.66468 0
M  V30 4885 C 464.191 3.18757 6.04055 0
M  V30 4886 O 463.879 4.27401 6.8087 0
M  V30 4887 H 463.611 0.041587 0.67472 0
M  V30 4888 H 466.165 0.766748 1.90552 0
M  V30 4889 H 464.395 -1.02191 3.72953 0
M  V30 4890 H 466.084 -0.700477 3.9981 0
M  V30 4891 H 466.85 1.72467 4.53299 0
M  V30 4892 H 462.729 0.49947 4.58286 0
M  V30 4893 H 466.273 3.67926 5.92685 0
M  V30 4894 H 462.17 2.4455 5.97382 0
M  V30 4895 H 462.938 4.25415 6.9926 0
M  V30 4896 N 465.601 -1.54893 0.290851 0
M  V30 4897 C 467.017 -1.59476 -0.0628432 0
M  V30 4898 C 467.217 -1.30795 -1.5328 0
M  V30 4899 O 466.273 -1.07644 -2.28406 0
M  V30 4900 C 467.586 -2.98928 0.325962 0
M  V30 4901 C 469.134 -3.11799 0.273882 0
M  V30 4902 C 469.609 -4.53544 0.637359 0
M  V30 4903 N 471.1 -4.59433 0.589507 0
M  V30 4904 C 471.835 -5.67164 0.84335 0
M  V30 4905 N 471.331 -6.82975 1.16263 0
M  V30 4906 N 473.124 -5.56786 0.771091 0
M  V30 4907 H 465.275 -1.71798 1.24896 0
M  V30 4908 H 467.538 -0.801879 0.505663 0
M  V30 4909 H 467.244 -3.24805 1.34887 0
M  V30 4910 H 467.118 -3.75793 -0.325441 0
M  V30 4911 H 469.505 -2.85677 -0.739765 0
M  V30 4912 H 469.586 -2.37112 0.959766 0
M  V30 4913 H 469.23 -4.80394 1.64877 0
M  V30 4914 H 469.16 -5.26553 -0.0704866 0
M  V30 4915 H 471.651 -3.76245 0.353252 0
M  V30 4916 H 471.964 -7.61048 1.34257 0
M  V30 4917 H 470.309 -6.84552 1.20057 0
M  V30 4918 H 473.5 -4.65187 0.521383 0
M  V30 4919 H 473.673 -6.40664 0.972295 0
M  V30 4920 N 467.08 -0.0183926 -1.57589 0
M  V30 4921 C 468.357 0.700621 -1.82622 0
M  V30 4922 C 468.737 1.90951 -0.90005 0
M  V30 4923 O 468.085 2.28452 0.0469145 0
M  V30 4924 C 468.295 1.08899 -3.31575 0
M  V30 4925 C 469.643 1.48514 -3.9778 0
M  V30 4926 O 470.667 1.18227 -3.36007 0
M  V30 4927 O 469.526 2.04903 -5.06633 0
M  V30 4928 H 466.62 0.342743 -0.752633 0
M  V30 4929 H 469.166 -0.0452548 -1.6964 0
M  V30 4930 H 467.938 0.228113 -3.90635 0
M  V30 4931 H 467.561 1.89338 -3.49624 0
M  V30 4932 N 468.558 1.5553 0.254621 0
M  V30 4933 C 469.804 1.77262 0.985193 0
M  V30 4934 C 470.137 0.582286 1.85265 0
M  V30 4935 O 469.412 -0.419666 1.89919 0
M  V30 4936 C 469.695 3.0881 1.85225 0
M  V30 4937 C 469.548 4.38233 1.0135 0
M  V30 4938 C 470.867 3.3653 2.83612 0
M  V30 4939 H 467.986 0.644906 0.356742 0
M  V30 4940 H 470.628 1.88264 0.256236 0
M  V30 4941 H 468.778 2.99562 2.47376 0
M  V30 4942 H 470.45 4.59463 0.411269 0
M  V30 4943 H 468.693 4.32636 0.317574 0
M  V30 4944 H 469.364 5.26644 1.65379 0
M  V30 4945 H 471.84 3.45691 2.31596 0
M  V30 4946 H 470.716 4.29805 3.41407 0
M  V30 4947 H 470.977 2.57064 3.59681 0
M  V30 4948 N 470.036 -0.519951 1.48776 0
M  V30 4949 C 470.999 -1.60574 1.6355 0
M  V30 4950 C 471.999 -1.52557 0.508234 0
M  V30 4951 O 473.189 -1.56047 0.774262 0
M  V30 4952 C 470.321 -3.00211 1.61512 0
M  V30 4953 H 471.514 -1.4881 2.60376 0
M  V30 4954 H 469.067 -0.742772 1.37523 0
M  V30 4955 H 469.802 -3.17471 0.662009 0
M  V30 4956 H 469.587 -3.07439 2.43359 0
M  V30 4957 H 471.077 -3.79134 1.75064 0
M  V30 4958 N 471.514 -1.37532 -0.769588 0
M  V30 4959 C 472.76 -1.34063 -1.52966 0
M  V30 4960 C 473.115 0.0737942 -1.92258 0
M  V30 4961 O 472.408 1.03291 -1.61374 0
M  V30 4962 C 472.602 -2.21558 -2.8044 0
M  V30 4963 C 472.431 -3.71367 -2.53608 0
M  V30 4964 C 471.201 -4.40464 -2.47628 0
M  V30 4965 C 473.399 -4.64177 -2.21459 0
M  V30 4966 N 471.381 -5.758 -2.12902 0
M  V30 4967 C 472.752 -5.87907 -1.9689 0
M  V30 4968 C 474.807 -4.52541 -2.07633 0
M  V30 4969 C 473.51 -7.01304 -1.59892 0
M  V30 4970 C 475.536 -5.65825 -1.72034 0
M  V30 4971 C 474.898 -6.88606 -1.48327 0
M  V30 4972 H 470.997 -0.545856 -0.559969 0
M  V30 4973 H 473.581 -1.72773 -0.897634 0
M  V30 4974 H 471.752 -1.85061 -3.41478 0
M  V30 4975 H 473.484 -2.09332 -3.46356 0
M  V30 4976 H 470.239 -3.93491 -2.63556 0
M  V30 4977 H 470.663 -6.47328 -1.9823 0
M  V30 4978 H 475.305 -3.58183 -2.24643 0
M  V30 4979 H 473.023 -7.95594 -1.4162 0
M  V30 4980 H 476.609 -5.58793 -1.61991 0
M  V30 4981 H 475.489 -7.74779 -1.21189 0
M  V30 4982 N 472.992 0.995999 -1.22138 0
M  V30 4983 C 473.922 2.10387 -1.01289 0
M  V30 4984 C 474.903 1.69975 0.0651454 0
M  V30 4985 O 476.088 1.9396 -0.0964628 0
M  V30 4986 C 473.218 3.42312 -0.586517 0
M  V30 4987 C 472.172 3.96558 -1.61014 0
M  V30 4988 C 471.498 5.24494 -1.0397 0
M  V30 4989 C 472.798 4.27595 -2.99933 0
M  V30 4990 H 474.492 2.28086 -1.93951 0
M  V30 4991 H 472.038 1.09607 -0.933928 0
M  V30 4992 H 473.991 4.19223 -0.427793 0
M  V30 4993 H 472.715 3.24431 0.375761 0
M  V30 4994 H 471.374 3.21776 -1.75658 0
M  V30 4995 H 471.022 5.02953 -0.0688703 0
M  V30 4996 H 470.722 5.61755 -1.72352 0
M  V30 4997 H 472.246 6.04042 -0.892494 0
M  V30 4998 H 473.66 4.95315 -2.8868 0
M  V30 4999 H 472.057 4.76021 -3.6541 0
M  V30 5000 H 473.127 3.35498 -3.50099 0
M  V30 5001 N 474.47 1.03057 1.19235 0
M  V30 5002 C 475.718 0.726581 1.88587 0
M  V30 5003 C 476.039 -0.747227 1.80115 0
M  V30 5004 O 475.309 -1.53849 1.21274 0
M  V30 5005 H 473.889 0.265768 0.698124 0
M  V30 5006 H 476.551 1.30516 1.44746 0
M  V30 5007 H 475.647 1.0224 2.94879 0
M  V30 5008 N 475.948 -1.35272 0.808662 0
M  V30 5009 C 476.858 -2.33546 0.222079 0
M  V30 5010 C 477.874 -1.6196 -0.636011 0
M  V30 5011 O 479.05 -1.93822 -0.547274 0
M  V30 5012 C 476.115 -3.41148 -0.61795 0
M  V30 5013 C 475.176 -4.28507 0.260875 0
M  V30 5014 C 474.409 -5.3097 -0.539156 0
M  V30 5015 O 474.632 -5.42123 -1.77367 0
M  V30 5016 O 473.566 -6.01858 0.0710526 0
M  V30 5017 H 477.392 -2.85515 1.03512 0
M  V30 5018 H 474.977 -1.38079 0.570495 0
M  V30 5019 H 476.859 -4.06889 -1.09634 0
M  V30 5020 H 475.534 -2.91447 -1.40855 0
M  V30 5021 H 474.441 -3.6574 0.786451 0
M  V30 5022 H 475.774 -4.81611 1.01547 0
M  V30 5023 N 477.426 -0.562348 -1.47226 0
M  V30 5024 C 478.666 -0.0426374 -2.04356 0
M  V30 5025 C 479.03 1.28487 -1.42671 0
M  V30 5026 O 480.231 1.89259 -1.90878 0
M  V30 5027 C 478.502 0.0433826 -3.57374 0
M  V30 5028 S 480.061 0.508472 -4.35844 0
M  V30 5029 H 476.879 -0.0276234 -0.710463 0
M  V30 5030 H 479.481 -0.750245 -1.80531 0
M  V30 5031 H 478.185 -0.927072 -3.99792 0
M  V30 5032 H 477.716 0.774387 -3.85703 0
M  V30 5033 H 479.731 1.76719 -4.63665 0
M  V30 5034 N 478.904 1.54736 -0.299062 0
M  V30 5035 C 480.181 1.92187 0.363802 0
M  V30 5036 C 480.561 1.22607 1.71845 0
M  V30 5037 O 479.909 0.361141 2.25628 0
M  V30 5038 C 480.119 3.45678 0.480377 0
M  V30 5039 C 481.467 4.17885 0.752147 0
M  V30 5040 O 482.491 3.51702 0.564264 0
M  V30 5041 O 481.35 5.35048 1.11294 0
M  V30 5042 H 478.444 0.801681 0.203066 0
M  V30 5043 H 480.99 1.66115 -0.346978 0
M  V30 5044 H 479.762 3.88443 -0.471999 0
M  V30 5045 H 479.385 3.77779 1.2397 0
M  V30 5046 N 480.382 0.0267497 1.57577 0
M  V30 5047 C 481.314 -0.984594 2.06974 0
M  V30 5048 C 482.327 -1.29032 0.992705 0
M  V30 5049 O 483.516 -1.25539 1.26895 0
M  V30 5050 C 480.616 -2.31262 2.47732 0
M  V30 5051 C 479.789 -2.1924 3.78487 0
M  V30 5052 C 478.848 -3.34956 4.05821 0
M  V30 5053 O 477.874 -3.11948 4.76106 0
M  V30 5054 N 479.076 -4.58672 3.55809 0
M  V30 5055 H 481.841 -0.563143 2.94362 0
M  V30 5056 H 479.402 -0.160061 1.61107 0
M  V30 5057 H 481.394 -3.07496 2.63112 0
M  V30 5058 H 479.964 -2.65056 1.65723 0
M  V30 5059 H 479.184 -1.27747 3.72927 0
M  V30 5060 H 480.472 -2.08409 4.64158 0
M  V30 5061 H 479.87 -4.8026 2.98942 0
M  V30 5062 H 478.427 -5.32083 3.76472 0
M  V30 5063 N 481.861 -1.55662 -0.24637 0
M  V30 5064 C 483.109 -1.77168 -0.972411 0
M  V30 5065 C 483.43 -0.590827 -1.85834 0
M  V30 5066 O 482.7 0.393365 -1.9191 0
M  V30 5067 H 481.28 -0.653405 -0.362038 0
M  V30 5068 H 483.942 -1.93101 -0.264189 0
M  V30 5069 H 483.038 -2.68335 -1.59382 0
M  V30 5070 N 483.339 0.512053 -1.4905 0
M  V30 5071 C 484.579 1.27715 -1.59588 0
M  V30 5072 C 484.943 1.90071 -0.271502 0
M  V30 5073 O 486.144 2.67616 -0.251987 0
M  V30 5074 C 484.415 2.32399 -2.71524 0
M  V30 5075 S 485.974 3.18396 -3.01943 0
M  V30 5076 H 482.792 0.43419 -0.563027 0
M  V30 5077 H 485.394 0.581315 -1.86657 0
M  V30 5078 H 484.098 1.85101 -3.66287 0
M  V30 5079 H 483.629 3.06667 -2.46412 0
M  V30 5080 H 485.644 4.32842 -2.42616 0
M  V30 5081 N 484.817 1.37938 0.762283 0
M  V30 5082 C 485.747 1.37176 1.88958 0
M  V30 5083 C 486.728 0.238945 1.68413 0
M  V30 5084 O 487.913 0.440726 1.89133 0
M  V30 5085 C 485.043 1.18742 3.2637 0
M  V30 5086 C 483.997 2.29136 3.61498 0
M  V30 5087 C 483.323 1.95816 4.97554 0
M  V30 5088 C 484.623 3.71363 3.6727 0
M  V30 5089 H 486.317 2.31509 1.89853 0
M  V30 5090 H 483.863 1.11438 0.912005 0
M  V30 5091 H 485.816 1.16837 4.04879 0
M  V30 5092 H 484.54 0.208683 3.25933 0
M  V30 5093 H 483.199 2.30213 2.85303 0
M  V30 5094 H 482.847 0.964475 4.93667 0
M  V30 5095 H 482.547 2.69745 5.22026 0
M  V30 5096 H 484.071 1.95513 5.78452 0
M  V30 5097 H 485.485 3.72364 4.35911 0
M  V30 5098 H 483.882 4.44425 4.03245 0
M  V30 5099 H 484.952 4.04305 2.67704 0
M  V30 5100 N 486.295 -0.989507 1.22664 0
M  V30 5101 C 487.258 -2.06183 1.00106 0
M  V30 5102 C 488.258 -1.60765 -0.0337726 0
M  V30 5103 O 489.448 -1.72989 0.205072 0
M  V30 5104 C 486.58 -3.37021 0.51279 0
M  V30 5105 H 487.773 -2.27629 1.95256 0
M  V30 5106 H 485.326 -1.16158 1.0458 0
M  V30 5107 H 486.061 -3.21261 -0.442917 0
M  V30 5108 H 485.846 -3.71323 1.25942 0
M  V30 5109 H 487.336 -4.1591 0.375315 0
M  V30 5110 N 487.773 -1.03688 -1.18687 0
M  V30 5111 C 488.703 -0.645407 -2.24403 0
M  V30 5112 C 489.684 0.349511 -1.66471 0
M  V30 5113 O 490.869 0.230453 -1.92828 0
M  V30 5114 C 487.999 -0.00365337 -3.473 0
M  V30 5115 C 486.953 -0.921705 -4.17958 0
M  V30 5116 C 486.279 -0.144629 -5.34504 0
M  V30 5117 C 487.579 -2.23909 -4.71871 0
M  V30 5118 H 489.273 -1.52917 -2.57404 0
M  V30 5119 H 486.819 -0.736711 -1.23728 0
M  V30 5120 H 488.772 0.281908 -4.20456 0
M  V30 5121 H 487.496 0.914963 -3.13522 0
M  V30 5122 H 486.155 -1.19159 -3.46694 0
M  V30 5123 H 485.803 0.776274 -4.96974 0
M  V30 5124 H 485.503 -0.756206 -5.82714 0
M  V30 5125 H 487.027 0.134004 -6.10453 0
M  V30 5126 H 488.441 -2.0145 -5.36741 0
M  V30 5127 H 486.838 -2.8033 -5.30599 0
M  V30 5128 H 487.908 -2.88822 -3.895 0
M  V30 5129 N 489.251 1.34841 -0.815825 0
M  V30 5130 C 490.214 2.27959 -0.238185 0
M  V30 5131 C 491.214 1.49983 0.579816 0
M  V30 5132 O 492.404 1.69617 0.396953 0
M  V30 5133 C 489.536 3.34314 0.666876 0
M  V30 5134 H 490.729 2.80558 -1.05958 0
M  V30 5135 H 488.282 1.44852 -0.587156 0
M  V30 5136 H 489.017 2.86916 1.5116 0
M  V30 5137 H 488.802 3.92014 0.0819106 0
M  V30 5138 H 490.292 4.0379 1.06506 0
M  V30 5139 N 490.729 0.570148 1.46925 0
M  V30 5140 C 491.639 -0.173061 2.33961 0
M  V30 5141 C 492.655 -0.898825 1.48987 0
M  V30 5142 O 493.831 -0.864825 1.81887 0
M  V30 5143 C 490.896 -1.18177 3.25937 0
M  V30 5144 C 489.957 -0.462041 4.26806 0
M  V30 5145 C 489.19 -1.4227 5.14388 0
M  V30 5146 O 489.413 -2.65842 5.04662 0
M  V30 5147 O 488.347 -0.940127 5.94513 0
M  V30 5148 H 492.173 0.541216 2.98839 0
M  V30 5149 H 489.758 0.330647 1.45695 0
M  V30 5150 H 491.64 -1.76372 3.82715 0
M  V30 5151 H 490.315 -1.87774 2.63671 0
M  V30 5152 H 489.222 0.161429 3.73752 0
M  V30 5153 H 490.555 0.192719 4.91823 0
M  V30 5154 N 492.207 -1.54576 0.307264 0
M  V30 5155 C 493.137 -2.26708 -0.55907 0
M  V30 5156 C 494.118 -1.26893 -1.1328 0
M  V30 5157 O 495.303 -1.55677 -1.16097 0
M  V30 5158 C 492.433 -3.01259 -1.72801 0
M  V30 5159 C 491.387 -4.08275 -1.28435 0
M  V30 5160 C 490.713 -4.70575 -2.53895 0
M  V30 5161 C 492.013 -5.2068 -0.411038 0
M  V30 5162 H 493.707 -2.9937 0.042576 0
M  V30 5163 H 491.253 -1.43983 0.0219173 0
M  V30 5164 H 493.206 -3.50444 -2.34023 0
M  V30 5165 H 491.93 -2.26187 -2.356 0
M  V30 5166 H 490.589 -3.59949 -0.695161 0
M  V30 5167 H 490.237 -3.92136 -3.15021 0
M  V30 5168 H 489.937 -5.42854 -2.24908 0
M  V30 5169 H 491.461 -5.22527 -3.15908 0
M  V30 5170 H 492.875 -5.65721 -0.929097 0
M  V30 5171 H 491.272 -5.99716 -0.214664 0
M  V30 5172 H 492.342 -4.81629 0.562287 0
M  V30 5173 N 493.685 -0.035106 -1.57561 0
M  V30 5174 C 494.615 0.942993 -2.13612 0
M  V30 5175 C 495.596 1.33531 -1.05373 0
M  V30 5176 O 496.781 1.41287 -1.33235 0
M  V30 5177 C 493.911 2.22332 -2.66807 0
M  V30 5178 C 492.865 1.97156 -3.79886 0
M  V30 5179 C 492.191 3.31506 -4.19533 0
M  V30 5180 C 493.491 1.30596 -5.05709 0
M  V30 5181 H 495.185 0.476179 -2.95589 0
M  V30 5182 H 492.731 0.227602 -1.4219 0
M  V30 5183 H 494.684 2.91142 -3.04654 0
M  V30 5184 H 493.408 2.7119 -1.81999 0
M  V30 5185 H 492.067 1.30763 -3.42486 0
M  V30 5186 H 491.715 3.78134 -3.31698 0
M  V30 5187 H 491.415 3.15465 -4.95738 0
M  V30 5188 H 492.939 4.01574 -4.59968 0
M  V30 5189 H 494.353 1.89416 -5.41105 0
M  V30 5190 H 492.75 1.24934 -5.86951 0
M  V30 5191 H 493.82 0.279742 -4.84092 0
M  V30 5192 N 495.163 1.55791 0.238111 0
M  V30 5193 C 496.411 1.77681 0.963001 0
M  V30 5194 C 496.732 0.600674 1.85518 0
M  V30 5195 O 496.002 -0.383182 1.92116 0
M  V30 5196 H 494.582 0.655315 0.358568 0
M  V30 5197 H 497.244 1.93239 0.253945 0
M  V30 5198 H 496.34 2.69177 1.57956 0
M  V30 5199 N 496.642 -0.504142 1.49319 0
M  V30 5200 C 497.888 -1.25767 1.59857 0
M  V30 5201 C 498.243 -1.90348 0.280262 0
M  V30 5202 O 497.536 -1.77588 -0.719241 0
M  V30 5203 C 497.73 -2.35021 2.69258 0
M  V30 5204 C 497.559 -1.81154 4.11598 0
M  V30 5205 C 496.329 -1.62596 4.78425 0
M  V30 5206 C 498.527 -1.3252 4.96934 0
M  V30 5207 N 496.509 -1.03625 6.05091 0
M  V30 5208 C 497.88 -0.856633 6.14054 0
M  V30 5209 C 499.935 -1.21063 4.82958 0
M  V30 5210 C 498.638 -0.284841 7.18736 0
M  V30 5211 C 500.664 -0.652815 5.87786 0
M  V30 5212 C 500.026 -0.194461 7.04132 0
M  V30 5213 H 496.125 -0.450293 0.639343 0
M  V30 5214 H 498.709 -0.565344 1.86311 0
M  V30 5215 H 496.88 -3.01719 2.44581 0
M  V30 5216 H 498.612 -3.02061 2.69335 0
M  V30 5217 H 495.367 -1.86873 4.35173 0
M  V30 5218 H 495.791 -0.76076 6.72712 0
M  V30 5219 H 500.433 -1.551 3.93324 0
M  V30 5220 H 498.151 0.0677979 8.08072 0
M  V30 5221 H 501.737 -0.566994 5.79031 0
M  V30 5222 H 500.617 0.230442 7.83861 0
M  V30 5223 N 498.12 -1.38341 -0.754957 0
M  V30 5224 C 499.067 -1.3546 -1.86867 0
M  V30 5225 C 500.037 -0.217369 -1.64672 0
M  V30 5226 O 501.222 -0.409383 -1.86356 0
M  V30 5227 C 498.362 -1.18413 -3.24149 0
M  V30 5228 C 497.475 -2.41511 -3.58185 0
M  V30 5229 C 496.61 -2.17205 -4.84763 0
M  V30 5230 C 495.649 -3.36081 -5.11582 0
M  V30 5231 N 494.786 -3.11219 -6.29354 0
M  V30 5232 H 499.626 -2.30672 -1.88664 0
M  V30 5233 H 497.163 -1.14607 -0.922154 0
M  V30 5234 H 499.121 -1.06545 -4.03366 0
M  V30 5235 H 497.751 -0.268397 -3.21682 0
M  V30 5236 H 496.803 -2.64056 -2.73822 0
M  V30 5237 H 498.115 -3.30115 -3.73932 0
M  V30 5238 H 497.269 -2.02465 -5.7192 0
M  V30 5239 H 496.008 -1.25964 -4.71152 0
M  V30 5240 H 495.013 -3.51341 -4.22894 0
M  V30 5241 H 496.238 -4.28196 -5.27091 0
M  V30 5242 H 494.184 -2.22624 -6.17069 0
M  V30 5243 H 494.101 -3.93373 -6.45596 0
M  V30 5244 H 495.369 -3.00132 -7.19403 0
M  V30 5245 N 499.598 0.982988 -1.23187 0
M  V30 5246 C 500.545 2.07491 -1.01075 0
M  V30 5247 C 501.515 1.65949 0.070905 0
M  V30 5248 O 502.7 1.90629 -0.0806822 0
M  V30 5249 C 499.84 3.39751 -0.605261 0
M  V30 5250 C 498.953 3.94578 -1.75876 0
M  V30 5251 C 498.088 5.15039 -1.3003 0
M  V30 5252 C 497.127 5.62027 -2.42472 0
M  V30 5253 N 496.264 6.73719 -1.97602 0
M  V30 5254 H 501.104 2.25739 -1.9454 0
M  V30 5255 H 498.641 1.10659 -0.969179 0
M  V30 5256 H 500.599 4.15719 -0.351279 0
M  V30 5257 H 499.229 3.21473 0.292382 0
M  V30 5258 H 498.281 3.1539 -2.12681 0
M  V30 5259 H 499.593 4.25422 -2.60418 0
M  V30 5260 H 498.747 5.9833 -1.00429 0
M  V30 5261 H 497.486 4.85843 -0.425216 0
M  V30 5262 H 496.491 4.77318 -2.7285 0
M  V30 5263 H 497.716 5.93244 -3.30512 0
M  V30 5264 H 495.662 6.46287 -1.1247 0
M  V30 5265 H 495.579 7.03934 -2.75705 0
M  V30 5266 H 496.847 7.6049 -1.71098 0
M  V30 5267 N 501.076 1.04316 1.18135 0
M  V30 5268 C 501.986 0.646876 2.25505 0
M  V30 5269 C 503.002 -0.328008 1.7088 0
M  V30 5270 O 504.178 -0.182309 2.00573 0
M  V30 5271 C 501.243 0.0185664 3.46695 0
M  V30 5272 C 500.304 1.04277 4.16443 0
M  V30 5273 C 499.537 0.444352 5.31847 0
M  V30 5274 O 499.76 -0.748735 5.65465 0
M  V30 5275 O 498.694 1.17428 5.90334 0
M  V30 5276 H 502.52 1.54147 2.61672 0
M  V30 5277 H 500.105 0.814188 1.25265 0
M  V30 5278 H 501.987 -0.331068 4.20097 0
M  V30 5279 H 500.662 -0.849814 3.12346 0
M  V30 5280 H 499.569 1.44425 3.45098 0
M  V30 5281 H 500.902 1.882 4.54798 0
M  V30 5282 N 502.554 -1.34406 0.822964 0
M  V30 5283 C 503.484 -2.32052 0.259608 0
M  V30 5284 C 504.465 -1.58243 -0.623961 0
M  V30 5285 O 505.65 -1.86224 -0.55083 0
M  V30 5286 C 502.78 -3.42434 -0.579314 0
M  V30 5287 C 501.734 -4.27499 0.20712 0
M  V30 5288 C 501.06 -5.29349 -0.754547 0
M  V30 5289 C 502.36 -5.02758 1.41533 0
M  V30 5290 H 504.054 -2.79418 1.07545 0
M  V30 5291 H 501.6 -1.34338 0.518593 0
M  V30 5292 H 503.553 -4.0976 -0.983612 0
M  V30 5293 H 502.277 -2.93717 -1.4282 0
M  V30 5294 H 500.936 -3.61776 0.592787 0
M  V30 5295 H 500.584 -4.76895 -1.59939 0
M  V30 5296 H 500.284 -5.8714 -0.232561 0
M  V30 5297 H 501.808 -5.99544 -1.1567 0
M  V30 5298 H 503.222 -5.62938 1.08504 0
M  V30 5299 H 501.619 -5.70123 1.87296 0
M  V30 5300 H 502.689 -4.32451 2.1935 0
M  V30 5301 N 504.032 -0.577932 -1.46621 0
M  V30 5302 C 504.942 0.160651 -2.34049 0
M  V30 5303 C 505.958 0.890911 -1.49462 0
M  V30 5304 O 507.134 0.855166 -1.82343 0
M  V30 5305 C 504.199 1.16447 -3.26559 0
M  V30 5306 C 503.26 0.4394 -4.27045 0
M  V30 5307 C 502.493 1.3954 -5.15135 0
M  V30 5308 O 502.716 2.63162 -5.06065 0
M  V30 5309 O 501.65 0.908585 -5.95003 0
M  V30 5310 H 505.476 -0.557057 -2.98547 0
M  V30 5311 H 503.061 -0.338369 -1.45518 0
M  V30 5312 H 504.943 1.7434 -3.83645 0
M  V30 5313 H 503.618 1.86373 -2.64663 0
M  V30 5314 H 502.525 -0.181247 -3.73661 0
M  V30 5315 H 503.858 -0.218799 -4.91713 0
M  V30 5316 N 505.51 1.54411 -0.315457 0
M  V30 5317 C 506.787 1.92562 0.343398 0
M  V30 5318 C 507.167 1.24423 1.70535 0
M  V30 5319 O 506.515 0.385051 2.25232 0
M  V30 5320 C 506.725 3.46168 0.443687 0
M  V30 5321 C 508.073 4.18659 0.707783 0
M  V30 5322 O 509.097 3.52281 0.52693 0
M  V30 5323 O 507.956 5.36198 1.05612 0
M  V30 5324 H 505.05 0.80379 0.194552 0
M  V30 5325 H 507.596 1.65738 -0.364577 0
M  V30 5326 H 506.368 3.8792 -0.513172 0
M  V30 5327 H 505.991 3.79073 1.19956 0
M  V30 5328 N 506.988 0.0434614 1.5754 0
M  V30 5329 C 507.918 -0.931651 2.14109 0
M  V30 5330 C 508.899 -1.32971 1.06079 0
M  V30 5331 O 510.084 -1.40579 1.33982 0
M  V30 5332 C 507.214 -2.20914 2.67982 0
M  V30 5333 C 506.168 -1.95139 3.80926 0
M  V30 5334 C 505.494 -3.29276 4.21285 0
M  V30 5335 C 506.794 -1.27913 5.06395 0
M  V30 5336 H 508.488 -0.460497 2.95837 0
M  V30 5337 H 506.034 -0.220058 1.42309 0
M  V30 5338 H 507.987 -2.89522 3.06194 0
M  V30 5339 H 506.711 -2.70221 1.83434 0
M  V30 5340 H 505.37 -1.28945 3.43175 0
M  V30 5341 H 505.018 -3.76369 3.33699 0
M  V30 5342 H 504.718 -3.12831 4.97404 0
M  V30 5343 H 506.242 -3.99129 4.62091 0
M  V30 5344 H 507.656 -1.86544 5.42102 0
M  V30 5345 H 506.053 -1.2182 5.87605 0
M  V30 5346 H 507.123 -0.254066 4.84234 0
M  V30 5347 N 508.466 -1.55915 -0.229846 0
M  V30 5348 C 509.712 -1.78807 -0.956868 0
M  V30 5349 C 510.045 -0.611687 -1.84315 0
M  V30 5350 O 509.32 0.389398 -1.90562 0
M  V30 5351 C 509.603 -3.11718 -1.80288 0
M  V30 5352 C 509.456 -4.3979 -0.943649 0
M  V30 5353 C 510.775 -3.40999 -2.78222 0
M  V30 5354 H 507.894 -0.6505 -0.346437 0
M  V30 5355 H 510.536 -1.88648 -0.226252 0
M  V30 5356 H 508.686 -3.03459 -2.42579 0
M  V30 5357 H 510.358 -4.60059 -0.338121 0
M  V30 5358 H 508.601 -4.33086 -0.248705 0
M  V30 5359 H 509.272 -5.29208 -1.5698 0
M  V30 5360 H 511.748 -3.49332 -2.26067 0
M  V30 5361 H 510.624 -4.35183 -3.34526 0
M  V30 5362 H 510.885 -2.62754 -3.55546 0
M  V30 5363 N 509.944 0.496216 -1.49584 0
M  V30 5364 C 511.36 0.827814 -1.36453 0
M  V30 5365 C 511.56 1.97464 -0.401285 0
M  V30 5366 O 510.616 2.51958 0.165296 0
M  V30 5367 C 511.929 1.16352 -2.77277 0
M  V30 5368 C 513.477 1.27145 -2.86013 0
M  V30 5369 C 513.952 1.64042 -4.27615 0
M  V30 5370 N 515.443 1.71082 -4.30448 0
M  V30 5371 C 516.178 2.01085 -5.36984 0
M  V30 5372 N 515.674 2.2928 -6.5376 0
M  V30 5373 N 517.467 2.02376 -5.24405 0
M  V30 5374 H 509.618 -0.259947 -2.10803 0
M  V30 5375 H 511.881 -0.0537163 -0.946477 0
M  V30 5376 H 511.587 0.394153 -3.49484 0
M  V30 5377 H 511.461 2.10582 -3.12946 0
M  V30 5378 H 513.848 2.03152 -2.1404 0
M  V30 5379 H 513.929 0.309542 -2.5392 0
M  V30 5380 H 513.573 0.88583 -5.00115 0
M  V30 5381 H 513.503 2.6134 -4.57175 0
M  V30 5382 H 515.994 1.51434 -3.46232 0
M  V30 5383 H 516.307 2.51376 -7.30774 0
M  V30 5384 H 514.652 2.26726 -6.56978 0
M  V30 5385 H 517.843 1.79829 -4.32179 0
M  V30 5386 H 518.016 2.25425 -6.07526 0
M  V30 5387 N 511.423 1.38739 0.74761 0
M  V30 5388 C 512.839 1.20067 1.05148 0
M  V30 5389 C 513.039 0.0534835 2.01429 0
M  V30 5390 O 512.095 -0.59886 2.45296 0
M  V30 5391 C 513.408 2.52957 1.62584 0
M  V30 5392 C 514.956 2.59692 1.74726 0
M  V30 5393 C 515.431 3.92772 2.35573 0
M  V30 5394 N 516.922 3.94343 2.42997 0
M  V30 5395 C 517.657 4.9408 2.90985 0
M  V30 5396 N 517.153 6.04214 3.38965 0
M  V30 5397 N 518.946 4.81466 2.9008 0
M  V30 5398 H 511.097 2.12121 0.108808 0
M  V30 5399 H 513.36 0.941491 0.110899 0
M  V30 5400 H 513.066 3.37389 0.993051 0
M  V30 5401 H 512.94 2.71779 2.61565 0
M  V30 5402 H 515.327 1.75651 2.3713 0
M  V30 5403 H 515.408 2.44731 0.744326 0
M  V30 5404 H 515.052 4.77238 1.738 0
M  V30 5405 H 514.982 4.05046 3.36519 0
M  V30 5406 H 517.473 3.14799 2.0907 0
M  V30 5407 H 517.786 6.76241 3.74056 0
M  V30 5408 H 516.131 6.07825 3.37007 0
M  V30 5409 H 519.322 3.94535 2.51912 0
M  V30 5410 H 519.495 5.59344 3.27166 0
M  V30 5411 N 512.901 -0.976442 1.23707 0
M  V30 5412 C 513.811 -2.10359 1.03856 0
M  V30 5413 C 514.827 -1.73991 -0.0180919 0
M  V30 5414 O 516.003 -2.0061 0.178211 0
M  V30 5415 C 513.068 -3.40809 0.636387 0
M  V30 5416 C 512.129 -3.91179 1.76854 0
M  V30 5417 C 511.362 -5.15404 1.38546 0
M  V30 5418 O 511.585 -5.69754 0.27142 0
M  V30 5419 O 510.519 -5.5994 2.20797 0
M  V30 5420 H 514.345 -2.29997 1.98331 0
M  V30 5421 H 511.93 -1.08742 1.02448 0
M  V30 5422 H 513.812 -4.19269 0.423223 0
M  V30 5423 H 512.487 -3.22493 -0.279322 0
M  V30 5424 H 511.394 -3.13819 2.03638 0
M  V30 5425 H 512.727 -4.13958 2.6627 0
M  V30 5426 N 514.379 -1.04941 -1.1758 0
M  V30 5427 C 515.329 -0.618378 -2.19454 0
M  V30 5428 C 516.313 0.343813 -1.57184 0
M  V30 5429 O 517.505 0.16145 -1.76262 0
M  V30 5430 C 514.634 0.00803847 -3.43299 0
M  V30 5431 C 513.72 -0.977827 -4.12673 0
M  V30 5432 N 514.111 -2.14826 -4.57912 0
M  V30 5433 C 512.409 -0.805748 -4.38661 0
M  V30 5434 C 513.11 -2.77174 -5.11419 0
M  V30 5435 N 512.086 -2.04989 -5.03468 0
M  V30 5436 H 515.888 -1.51018 -2.52132 0
M  V30 5437 H 513.402 -0.919201 -1.33882 0
M  V30 5438 H 515.399 0.334584 -4.15555 0
M  V30 5439 H 514.059 0.895272 -3.12114 0
M  V30 5440 H 515.07 -2.52673 -4.52081 0
M  V30 5441 H 511.747 0.0306506 -4.17489 0
M  V30 5442 H 513.137 -3.76416 -5.56562 0
M  V30 5443 N 515.857 1.33968 -0.830081 0
M  V30 5444 C 516.82 2.27694 -0.26235 0
M  V30 5445 C 517.82 1.50589 0.563876 0
M  V30 5446 O 519.01 1.70028 0.378941 0
M  V30 5447 C 516.142 3.35002 0.63138 0
M  V30 5448 H 517.335 2.79419 -1.08928 0
M  V30 5449 H 514.888 1.44221 -0.602486 0
M  V30 5450 H 515.623 2.88504 1.48109 0
M  V30 5451 H 515.408 3.92079 0.0403276 0
M  V30 5452 H 516.898 4.04897 1.02217 0
M  V30 5453 N 517.335 0.585699 1.46312 0
M  V30 5454 C 518.56 0.0762461 2.0726 0
M  V30 5455 C 518.985 -1.22071 1.43109 0
M  V30 5456 O 518.343 -1.73804 0.515942 0
M  V30 5457 C 518.391 -0.0729404 3.60526 0
M  V30 5458 O 517.495 -1.1287 3.96654 0
M  V30 5459 H 516.836 0.0641558 0.660893 0
M  V30 5460 H 519.366 0.809492 1.87905 0
M  V30 5461 H 519.376 -0.278158 4.07051 0
M  V30 5462 H 518.051 0.874188 4.06609 0
M  V30 5463 H 516.628 -0.901703 3.61834 0
M  V30 5464 N 518.813 -1.54241 0.323641 0
M  V30 5465 C 520.062 -1.9975 -0.279806 0
M  V30 5466 C 520.375 -1.2156 -1.5324 0
M  V30 5467 O 521.581 -1.57447 -2.21185 0
M  V30 5468 C 520.037 -3.55686 -0.549115 0
M  V30 5469 C 519.645 -4.4271 0.686432 0
M  V30 5470 C 521.389 -4.09663 -1.11251 0
M  V30 5471 C 519.296 -5.90119 0.389022 0
M  V30 5472 H 518.226 -0.746177 -0.10833 0
M  V30 5473 H 520.877 -1.78248 0.435877 0
M  V30 5474 H 519.259 -3.73176 -1.32499 0
M  V30 5475 H 520.433 -4.36996 1.46188 0
M  V30 5476 H 518.748 -3.99623 1.17005 0
M  V30 5477 H 521.345 -5.17386 -1.34965 0
M  V30 5478 H 521.688 -3.61651 -2.06191 0
M  V30 5479 H 522.221 -3.95806 -0.39782 0
M  V30 5480 H 518.96 -6.42326 1.30759 0
M  V30 5481 H 518.48 -5.98785 -0.348722 0
M  V30 5482 H 520.159 -6.47 -0.0011164 0
M  V30 5483 N 520.291 -0.0518155 -1.57515 0
M  V30 5484 C 521.568 0.661727 -1.84067 0
M  V30 5485 C 521.948 1.88999 -0.940351 0
M  V30 5486 O 521.296 2.285 -0.00155404 0
M  V30 5487 C 521.506 1.01841 -3.3381 0
M  V30 5488 C 522.854 1.40043 -4.00841 0
M  V30 5489 O 523.878 1.11073 -3.38439 0
M  V30 5490 O 522.737 1.94111 -5.10865 0
M  V30 5491 H 519.831 0.326702 -0.759733 0
M  V30 5492 H 522.377 -0.0812277 -1.69505 0
M  V30 5493 H 521.149 0.145202 -3.91031 0
M  V30 5494 H 520.772 1.81879 -3.53562 0
M  V30 5495 N 521.769 1.56035 0.221574 0
M  V30 5496 C 522.732 1.91584 1.2581 0
M  V30 5497 C 523.732 0.794425 1.39805 0
M  V30 5498 O 524.922 1.06217 1.38071 0
M  V30 5499 C 522.054 2.16663 2.63192 0
M  V30 5500 H 523.247 2.8429 0.954935 0
M  V30 5501 H 520.8 1.49316 0.461988 0
M  V30 5502 H 521.535 1.26508 2.98607 0
M  V30 5503 H 521.32 2.98358 2.5441 0
M  V30 5504 H 522.81 2.45262 3.37988 0
M  V30 5505 N 523.247 -0.488276 1.49845 0
M  V30 5506 C 524.179 -1.60539 1.63584 0
M  V30 5507 C 525.192 -1.5434 0.517972 0
M  V30 5508 O 526.381 -1.60041 0.790516 0
M  V30 5509 C 523.481 -2.99374 1.58835 0
M  V30 5510 C 522.654 -3.30624 2.86368 0
M  V30 5511 C 521.713 -4.4893 2.74496 0
M  V30 5512 O 520.739 -4.50085 3.48443 0
M  V30 5513 N 521.941 -5.49591 1.86894 0
M  V30 5514 H 524.706 -1.49176 2.59936 0
M  V30 5515 H 522.267 -0.67639 1.47094 0
M  V30 5516 H 524.259 -3.76459 1.48529 0
M  V30 5517 H 522.829 -3.04595 0.702892 0
M  V30 5518 H 522.049 -2.42314 3.1093 0
M  V30 5519 H 523.337 -3.48305 3.70892 0
M  V30 5520 H 522.735 -5.51467 1.26097 0
M  V30 5521 H 521.292 -6.25728 1.82503 0
M  V30 5522 N 524.725 -1.39134 -0.740242 0
M  V30 5523 C 525.95 -1.39518 -1.53459 0
M  V30 5524 C 526.375 0.00968883 -1.88098 0
M  V30 5525 O 525.733 0.995312 -1.51536 0
M  V30 5526 C 525.781 -2.26981 -2.802 0
M  V30 5527 O 524.885 -1.69609 -3.75908 0
M  V30 5528 H 524.226 -0.475328 -0.463637 0
M  V30 5529 H 526.756 -1.83064 -0.913717 0
M  V30 5530 H 526.766 -2.41309 -3.28989 0
M  V30 5531 H 525.441 -3.29081 -2.5432 0
M  V30 5532 H 524.018 -1.64495 -3.34658 0
M  V30 5533 N 526.204 0.969867 -1.24223 0
M  V30 5534 C 527.452 1.70918 -1.0785 0
M  V30 5535 C 527.773 1.91186 0.383763 0
M  V30 5536 O 527.043 1.48806 1.27411 0
M  V30 5537 H 525.623 0.633334 -0.396103 0
M  V30 5538 H 528.285 1.16689 -1.56108 0
M  V30 5539 H 527.381 2.69455 -1.57482 0
M  V30 5540 N 527.682 1.05563 1.17022 0
M  V30 5541 C 528.645 0.664098 2.19368 0
M  V30 5542 C 529.645 -0.286358 1.5823 0
M  V30 5543 O 530.835 -0.069728 1.7406 0
M  V30 5544 C 527.967 -0.0239932 3.40892 0
M  V30 5545 H 529.16 1.57 2.55521 0
M  V30 5546 H 526.713 0.849964 1.31169 0
M  V30 5547 H 527.448 -0.942988 3.10287 0
M  V30 5548 H 527.233 0.659351 3.86516 0
M  V30 5549 H 528.723 -0.283909 4.16634 0
M  V30 5550 N 529.16 -1.33526 0.837174 0
M  V30 5551 C 530.408 -1.97446 0.431211 0
M  V30 5552 C 530.729 -1.6665 -1.01255 0
M  V30 5553 O 529.999 -0.964559 -1.70508 0
M  V30 5554 H 528.579 -0.73043 0.156463 0
M  V30 5555 H 531.241 -1.62918 1.06976 0
M  V30 5556 H 530.337 -3.07001 0.561877 0
M  V30 5557 N 530.638 -0.59345 -1.46 0
M  V30 5558 C 531.884 -0.0832754 -2.02629 0
M  V30 5559 C 532.217 1.27749 -1.46266 0
M  V30 5560 O 531.492 1.8395 -0.631866 0
M  V30 5561 C 531.775 -0.0290756 -3.60088 0
M  V30 5562 C 531.628 -1.41951 -4.26814 0
M  V30 5563 C 532.947 0.666055 -4.35031 0
M  V30 5564 H 530.066 -0.031736 -0.736316 0
M  V30 5565 H 532.708 -0.762711 -1.74019 0
M  V30 5566 H 530.858 0.549532 -3.84594 0
M  V30 5567 H 532.53 -2.04411 -4.13538 0
M  V30 5568 H 530.773 -1.98422 -3.8576 0
M  V30 5569 H 531.444 -1.33395 -5.3564 0
M  V30 5570 H 533.92 0.174401 -4.15734 0
M  V30 5571 H 532.796 0.673041 -5.44758 0
M  V30 5572 H 533.057 1.72946 -4.06869 0
M  V30 5573 N 532.116 1.54067 -0.331816 0
M  V30 5574 C 533.527 1.86059 0.15454 0
M  V30 5575 C 533.878 1.25331 1.50952 0
M  V30 5576 O 533.003 0.562441 2.08963 0
M  V30 5577 C 533.598 3.37581 0.287192 0
M  V30 5578 C 532.157 3.69493 0.717773 0
M  V30 5579 C 531.304 2.76863 -0.155569 0
M  V30 5580 H 534.255 1.48797 -0.55182 0
M  V30 5581 H 534.276 3.63744 1.11671 0
M  V30 5582 H 533.788 3.81751 -0.699131 0
M  V30 5583 H 531.889 3.3086 1.71354 0
M  V30 5584 H 532.002 4.76315 0.5158 0
M  V30 5585 H 530.366 2.51995 0.370213 0
M  V30 5586 H 531.149 3.23861 -1.13881 0
M  V30 5587 N 533.594 0.0601682 1.57485 0
M  V30 5588 C 534.542 -0.928899 2.13247 0
M  V30 5589 C 535.536 -1.31616 1.06647 0
M  V30 5590 O 536.742 -1.29476 1.25043 0
M  V30 5591 H 533.117 -0.317455 0.681708 0
M  V30 5592 H 535.088 -0.433566 2.95233 0
M  V30 5593 C 533.837 -2.19121 2.69965 0
M  V30 5594 H 533.16 -1.90204 3.51657 0
M  V30 5595 H 534.6 -2.86465 3.12592 0
M  V30 5596 C 533.059 -2.94195 1.64168 0
M  V30 5597 O 533.589 -3.87468 1.05978 0
M  V30 5598 N 531.795 -2.57089 1.35476 0
M  V30 5599 H 531.342 -1.81314 1.82984 0
M  V30 5600 H 531.3 -3.07624 0.649196 0
M  V30 5601 N 535.072 -1.5615 -0.213296 0
M  V30 5602 C 536.483 -1.69645 -0.779582 0
M  V30 5603 C 536.834 -0.663615 -1.84636 0
M  V30 5604 O 535.959 0.183633 -2.15619 0
M  V30 5605 C 536.554 -3.07567 -1.42084 0
M  V30 5606 C 535.113 -3.22889 -1.93442 0
M  V30 5607 C 534.26 -2.65581 -0.797612 0
M  V30 5608 H 537.211 -1.58696 0.0114951 0
M  V30 5609 H 537.232 -3.03884 -2.28986 0
M  V30 5610 H 536.744 -3.82716 -0.644187 0
M  V30 5611 H 534.845 -2.52623 -2.73884 0
M  V30 5612 H 534.958 -4.30197 -2.10872 0
M  V30 5613 H 533.322 -2.24278 -1.20712 0
M  V30 5614 H 534.105 -3.43284 -0.033494 0
M  V30 5615 N 536.55 0.480323 -1.50102 0
M  V30 5616 C 537.775 1.26126 -1.64642 0
M  V30 5617 C 538.2 1.85257 -0.325823 0
M  V30 5618 O 537.558 1.66854 0.709194 0
M  V30 5619 C 537.606 2.35243 -2.73301 0
M  V30 5620 O 536.71 3.39646 -2.33911 0
M  V30 5621 H 536.051 0.371463 -0.550374 0
M  V30 5622 H 538.581 0.572696 -1.96421 0
M  V30 5623 H 538.591 2.80695 -2.96098 0
M  V30 5624 H 537.266 1.91574 -3.6915 0
M  V30 5625 H 535.843 2.99969 -2.21525 0
M  V30 5626 N 538.028 1.39524 0.732853 0
M  V30 5627 C 539.256 1.40143 1.52209 0
M  V30 5628 C 539.671 -0.00348836 1.888 0
M  V30 5629 O 539.028 -0.975357 1.5425 0
M  V30 5630 C 539.079 2.27632 2.8083 0
M  V30 5631 O 538.8 3.62654 2.45792 0
M  V30 5632 C 540.301 2.36658 3.74844 0
M  V30 5633 H 537.521 0.478604 0.470297 0
M  V30 5634 H 540.065 1.83366 0.905388 0
M  V30 5635 H 538.22 1.87818 3.38826 0
M  V30 5636 H 538.634 4.08941 3.28431 0
M  V30 5637 H 540.108 3.02118 4.61984 0
M  V30 5638 H 540.585 1.38638 4.16745 0
M  V30 5639 H 541.191 2.76951 3.22766 0
M  V30 5640 N 539.506 -0.963266 1.24736 0
M  V30 5641 C 540.731 -1.74699 1.11781 0
M  V30 5642 C 541.156 -1.85267 -0.325258 0
M  V30 5643 O 540.514 -1.32681 -1.23553 0
M  V30 5644 C 540.562 -3.14322 1.76731 0
M  V30 5645 O 539.666 -3.99043 1.04109 0
M  V30 5646 H 539.007 -0.53684 0.390767 0
M  V30 5647 H 541.537 -1.20801 1.65131 0
M  V30 5648 H 541.547 -3.64824 1.82668 0
M  V30 5649 H 540.222 -3.05946 2.81726 0
M  V30 5650 H 538.799 -3.5752 1.05991 0
M  V30 5651 N 540.985 -1.06182 -1.16461 0
M  V30 5652 C 541.948 -0.675723 -2.19013 0
M  V30 5653 C 542.948 0.277963 -1.58379 0
M  V30 5654 O 544.138 0.0604962 -1.74095 0
M  V30 5655 C 541.27 0.00591459 -3.40899 0
M  V30 5656 H 542.463 -1.58353 -2.54685 0
M  V30 5657 H 540.016 -0.856908 -1.30716 0
M  V30 5658 H 540.751 0.92652 -3.10783 0
M  V30 5659 H 540.536 -0.67984 -3.86161 0
M  V30 5660 H 542.026 0.26181 -4.16778 0
M  V30 5661 N 542.463 1.3308 -0.844243 0
M  V30 5662 C 543.688 2.02341 -0.455282 0
M  V30 5663 C 544.113 1.6308 0.93737 0
M  V30 5664 O 543.471 0.826118 1.61385 0
M  V30 5665 C 543.519 3.55743 -0.58988 0
M  V30 5666 O 542.623 4.1063 0.38166 0
M  V30 5667 H 541.964 0.637898 -0.184343 0
M  V30 5668 H 544.494 1.6986 -1.14056 0
M  V30 5669 H 544.504 4.05243 -0.473522 0
M  V30 5670 H 543.179 3.83662 -1.60549 0
M  V30 5671 H 541.756 3.72236 0.22241 0
M  V30 5672 N 543.941 0.601185 1.45683 0
M  V30 5673 C 545.352 0.179659 1.85834 0
M  V30 5674 C 545.703 -1.26189 1.50236 0
M  V30 5675 O 544.828 -1.95587 0.925987 0
M  V30 5676 C 545.423 0.319277 3.37292 0
M  V30 5677 C 543.982 -0.0475092 3.7637 0
M  V30 5678 C 543.129 0.646692 2.69654 0
M  V30 5679 H 546.08 0.808268 1.36575 0
M  V30 5680 H 546.101 -0.4503 3.77826 0
M  V30 5681 H 545.613 1.36855 3.6317 0
M  V30 5682 H 543.714 -1.0962 3.5611 0
M  V30 5683 H 543.827 0.34168 4.7788 0
M  V30 5684 H 542.191 0.0849971 2.54558 0
M  V30 5685 H 542.974 1.69797 2.98369 0
M  V30 5686 N 545.419 -1.53889 0.339982 0
M  V30 5687 C 546.366 -2.24902 -0.518452 0
M  V30 5688 C 547.336 -1.24593 -1.09844 0
M  V30 5689 O 548.521 -1.53317 -1.13572 0
M  V30 5690 C 545.661 -3.02262 -1.66529 0
M  V30 5691 C 544.774 -4.17418 -1.11295 0
M  V30 5692 C 543.909 -4.82273 -2.2268 0
M  V30 5693 C 542.948 -5.89503 -1.6478 0
M  V30 5694 N 542.085 -6.48153 -2.69893 0
M  V30 5695 H 546.925 -2.97853 0.0936579 0
M  V30 5696 H 544.462 -1.46986 0.0579924 0
M  V30 5697 H 546.42 -3.45371 -2.3404 0
M  V30 5698 H 545.05 -2.31614 -2.24844 0
M  V30 5699 H 544.102 -3.78976 -0.328886 0
M  V30 5700 H 545.414 -4.94554 -0.649414 0
M  V30 5701 H 544.568 -5.28435 -2.98063 0
M  V30 5702 H 543.307 -4.04552 -2.72376 0
M  V30 5703 H 542.312 -5.42728 -0.879004 0
M  V30 5704 H 543.537 -6.6913 -1.1594 0
M  V30 5705 H 541.483 -5.73298 -3.1885 0
M  V30 5706 H 541.4 -7.20752 -2.28151 0
M  V30 5707 H 542.668 -6.98968 -3.45056 0
M  V30 5708 N 546.897 -0.0685191 -1.57451 0
M  V30 5709 C 547.844 0.899861 -2.12535 0
M  V30 5710 C 548.814 1.29749 -1.03703 0
M  V30 5711 O 549.999 1.38392 -1.31348 0
M  V30 5712 C 547.139 2.16328 -2.6888 0
M  V30 5713 C 546.252 1.81857 -3.91857 0
M  V30 5714 C 545.387 3.02786 -4.36457 0
M  V30 5715 C 544.426 2.64317 -5.5209 0
M  V30 5716 N 543.563 3.77994 -5.91663 0
M  V30 5717 H 548.403 0.423243 -2.94979 0
M  V30 5718 H 545.94 0.197268 -1.45771 0
M  V30 5719 H 547.898 2.90281 -2.99655 0
M  V30 5720 H 546.528 2.61536 -1.89206 0
M  V30 5721 H 545.58 0.979808 -3.67565 0
M  V30 5722 H 546.892 1.49553 -4.75852 0
M  V30 5723 H 546.046 3.85021 -4.68875 0
M  V30 5724 H 544.785 3.38281 -3.51308 0
M  V30 5725 H 543.79 1.80503 -5.19325 0
M  V30 5726 H 545.015 2.29995 -6.38967 0
M  V30 5727 H 542.961 4.13258 -5.09464 0
M  V30 5728 H 542.878 3.49447 -6.7039 0
M  V30 5729 H 544.146 4.60818 -6.28703 0
M  V30 5730 N 548.375 1.56261 0.205012 0
M  V30 5731 C 549.6 1.84491 0.947512 0
M  V30 5732 C 550.025 0.650894 1.76479 0
M  V30 5733 O 549.383 -0.40035 1.76824 0
M  V30 5734 C 549.431 3.10863 1.82747 0
M  V30 5735 O 548.535 2.90719 2.925 0
M  V30 5736 H 547.876 0.607783 0.267386 0
M  V30 5737 H 550.406 2.03485 0.213323 0
M  V30 5738 H 550.416 3.41399 2.23407 0
M  V30 5739 H 549.091 3.97392 1.2269 0
M  V30 5740 H 547.668 2.71457 2.55667 0
M  V30 5741 N 549.853 -0.472356 1.50355 0
M  V30 5742 C 551.264 -1.05326 1.54154 0
M  V30 5743 C 551.615 -1.93155 0.344303 0
M  V30 5744 O 550.74 -2.09479 -0.542928 0
M  V30 5745 C 551.335 -1.91691 2.79356 0
M  V30 5746 C 549.894 -2.44892 2.8584 0
M  V30 5747 C 549.041 -1.23205 2.48426 0
M  V30 5748 H 551.992 -0.255027 1.56637 0
M  V30 5749 H 552.013 -2.76742 2.6114 0
M  V30 5750 H 551.525 -1.27741 3.66475 0
M  V30 5751 H 549.626 -3.12399 2.0307 0
M  V30 5752 H 549.739 -2.80086 3.88701 0
M  V30 5753 H 548.103 -1.56643 2.00836 0
M  V30 5754 H 548.886 -0.609194 3.37852 0
M  V30 5755 N 551.331 -1.39911 -0.725443 0
M  V30 5756 C 552.742 -1.33599 -1.30415 0
M  V30 5757 C 553.093 -0.00481792 -1.96199 0
M  V30 5758 O 552.218 0.897275 -1.96921 0
M  V30 5759 C 552.813 -2.41965 -2.37146 0
M  V30 5760 C 551.372 -2.39144 -2.90667 0
M  V30 5761 C 550.519 -2.23355 -1.64341 0
M  V30 5762 H 553.47 -1.4986 -0.522267 0
M  V30 5763 H 553.491 -2.09304 -3.17761 0
M  V30 5764 H 553.003 -3.38837 -1.89238 0
M  V30 5765 H 551.104 -1.4594 -3.4283 0
M  V30 5766 H 551.217 -3.34362 -3.43131 0
M  V30 5767 H 549.581 -1.70696 -1.89037 0
M  V30 5768 H 550.364 -3.2221 -1.18471 0
M  V30 5769 N 552.809 0.956637 -1.25245 0
M  V30 5770 C 554.22 1.51569 -1.09012 0
M  V30 5771 C 554.571 1.93322 0.334813 0
M  V30 5772 O 553.696 1.78421 1.22454 0
M  V30 5773 C 554.291 2.75444 -1.97271 0
M  V30 5774 C 552.85 3.27669 -1.8523 0
M  V30 5775 C 551.997 2.00517 -1.91542 0
M  V30 5776 H 554.948 0.773746 -1.3856 0
M  V30 5777 H 554.969 3.4919 -1.51151 0
M  V30 5778 H 554.481 2.45024 -3.00973 0
M  V30 5779 H 552.582 3.62914 -0.844045 0
M  V30 5780 H 552.695 3.9582 -2.69932 0
M  V30 5781 H 551.059 2.15727 -1.35404 0
M  V30 5782 H 551.842 1.72448 -2.96844 0
M  V30 5783 N 554.287 1.06798 1.15896 0
M  V30 5784 C 555.25 0.687328 2.18651 0
M  V30 5785 C 556.25 -0.269559 1.58524 0
M  V30 5786 O 557.44 -0.0512627 1.74125 0
M  V30 5787 C 554.572 0.0121642 3.40898 0
M  V30 5788 H 555.765 1.59701 2.53842 0
M  V30 5789 H 553.318 0.863828 1.3026 0
M  V30 5790 H 554.053 -0.910025 3.1127 0
M  V30 5791 H 553.838 0.700309 3.85795 0
M  V30 5792 H 555.328 -0.239703 4.16911 0
M  V30 5793 N 555.766 -1.3263 0.851289 0
M  V30 5794 C 556.713 -2.28952 0.291469 0
M  V30 5795 C 557.683 -1.54897 -0.599676 0
M  V30 5796 O 558.868 -1.83137 -0.535305 0
M  V30 5797 C 556.008 -3.41206 -0.516992 0
M  V30 5798 C 555.121 -4.30148 0.399566 0
M  V30 5799 C 554.256 -5.29527 -0.4212 0
M  V30 5800 C 553.295 -6.10112 0.492969 0
M  V30 5801 N 552.432 -7.01499 -0.290414 0
M  V30 5802 H 557.272 -2.76228 1.11813 0
M  V30 5803 H 554.809 -1.35907 0.562826 0
M  V30 5804 H 556.767 -4.05005 -1.00132 0
M  V30 5805 H 555.397 -2.9509 -1.30851 0
M  V30 5806 H 554.449 -3.66959 1.00227 0
M  V30 5807 H 555.761 -4.8649 1.1013 0
M  V30 5808 H 554.915 -5.98914 -0.968832 0
M  V30 5809 H 553.654 -4.73794 -1.15632 0
M  V30 5810 H 552.659 -5.39632 1.05251 0
M  V30 5811 H 553.884 -6.6793 1.22664 0
M  V30 5812 H 551.83 -6.48199 -1.00868 0
M  V30 5813 H 551.747 -7.55178 0.352354 0
M  V30 5814 H 553.015 -7.75176 -0.819882 0
M  V30 5815 N 557.244 -0.608902 -1.45362 0
M  V30 5816 C 558.521 -0.0365378 -1.95566 0
M  V30 5817 C 558.901 1.43169 -1.55131 0
M  V30 5818 O 558.249 2.1349 -0.814513 0
M  V30 5819 C 558.459 -0.236026 -3.48201 0
M  V30 5820 C 559.807 -0.117518 -4.24437 0
M  V30 5821 O 560.831 -0.166217 -3.55812 0
M  V30 5822 O 559.69 -0.00372127 -5.465 0
M  V30 5823 H 556.784 0.0349874 -0.82626 0
M  V30 5824 H 559.33 -0.679055 -1.55521 0
M  V30 5825 H 558.102 -1.25569 -3.70605 0
M  V30 5826 H 557.725 0.441691 -3.95139 0
M  V30 5827 N 558.722 1.53707 -0.348139 0
M  V30 5828 C 559.632 2.28881 0.514857 0
M  V30 5829 C 560.648 1.34168 1.10793 0
M  V30 5830 O 561.824 1.6721 1.12262 0
M  V30 5831 C 558.889 3.05042 1.64774 0
M  V30 5832 C 557.95 4.15389 1.08398 0
M  V30 5833 C 557.183 4.87909 2.16287 0
M  V30 5834 O 557.406 4.60137 3.3709 0
M  V30 5835 O 556.34 5.74254 1.80323 0
M  V30 5836 H 560.166 3.03547 -0.0963699 0
M  V30 5837 H 557.751 1.48972 -0.113043 0
M  V30 5838 H 559.633 3.52656 2.30677 0
M  V30 5839 H 558.308 2.33228 2.24469 0
M  V30 5840 H 557.215 3.72068 0.389341 0
M  V30 5841 H 558.548 4.89318 0.531829 0
M  V30 5842 N 560.2 0.0768682 1.57412 0
M  V30 5843 C 561.163 -0.873949 2.11884 0
M  V30 5844 C 562.163 -1.22301 1.04398 0
M  V30 5845 O 563.353 -1.15545 1.30365 0
M  V30 5846 C 560.485 -2.17575 2.62438 0
M  V30 5847 H 561.678 -0.401278 2.97203 0
M  V30 5848 H 559.231 -0.171904 1.55352 0
M  V30 5849 H 559.966 -2.69368 1.80587 0
M  V30 5850 H 559.751 -1.93534 3.41009 0
M  V30 5851 H 561.241 -2.85631 3.04639 0
M  V30 5852 N 561.678 -1.56367 -0.196722 0
M  V30 5853 C 563.094 -1.49916 -0.54749 0
M  V30 5854 C 563.294 -0.77659 -1.85934 0
M  V30 5855 O 562.35 -0.32644 -2.50381 0
M  V30 5856 C 563.663 -2.94577 -0.603734 0
M  V30 5857 C 565.211 -3.05239 -0.692677 0
M  V30 5858 C 565.686 -4.51308 -0.780046 0
M  V30 5859 N 567.177 -4.55453 -0.843616 0
M  V30 5860 C 567.912 -5.65786 -0.931358 0
M  V30 5861 N 567.408 -6.85812 -0.981503 0
M  V30 5862 N 569.201 -5.53695 -0.968421 0
M  V30 5863 H 561.352 -2.01761 0.663803 0
M  V30 5864 H 563.615 -0.918094 0.236238 0
M  V30 5865 H 563.321 -3.50494 0.29105 0
M  V30 5866 H 563.195 -3.47841 -1.45898 0
M  V30 5867 H 565.582 -2.49372 -1.57789 0
M  V30 5868 H 565.663 -2.55103 0.188736 0
M  V30 5869 H 565.307 -5.078 0.100811 0
M  V30 5870 H 565.237 -4.99176 -1.67724 0
M  V30 5871 H 567.728 -3.69025 -0.814176 0
M  V30 5872 H 568.041 -7.65648 -1.04892 0
M  V30 5873 H 566.386 -6.88474 -0.950208 0
M  V30 5874 H 569.577 -4.58848 -0.926072 0
M  V30 5875 H 569.75 -6.39708 -1.03334 0
M  V30 5876 N 563.156 0.464375 -1.50603 0
M  V30 5877 C 564.384 1.23907 -1.65695 0
M  V30 5878 C 564.799 1.85658 -0.343027 0
M  V30 5879 O 564.156 1.69529 0.675739 0
M  V30 5880 C 564.207 2.3429 -2.75301 0
M  V30 5881 O 563.928 1.7507 -4.01599 0
M  V30 5882 C 565.429 3.25051 -3.01424 0
M  V30 5883 H 562.649 0.374485 -0.556778 0
M  V30 5884 H 565.193 0.55353 -1.96866 0
M  V30 5885 H 563.348 2.98607 -2.46804 0
M  V30 5886 H 563.762 2.47812 -4.62266 0
M  V30 5887 H 565.236 3.98699 -3.81763 0
M  V30 5888 H 565.713 3.84227 -2.12758 0
M  V30 5889 H 566.319 2.66463 -3.31477 0
M  V30 5890 N 564.634 1.40294 0.718013 0
M  V30 5891 C 565.862 1.4175 1.50714 0
M  V30 5892 C 566.277 0.0165366 1.88793 0
M  V30 5893 O 565.634 -0.958942 1.55276 0
M  V30 5894 C 565.685 2.30598 2.784 0
M  V30 5895 O 565.406 3.6524 2.41932 0
M  V30 5896 C 566.907 2.4062 3.72313 0
M  V30 5897 H 564.127 0.483565 0.465194 0
M  V30 5898 H 566.671 1.84316 0.885889 0
M  V30 5899 H 564.826 1.91401 3.36815 0
M  V30 5900 H 565.24 4.12402 3.24076 0
M  V30 5901 H 566.714 3.07001 4.58753 0
M  V30 5902 H 567.191 1.4305 4.15251 0
M  V30 5903 H 567.797 2.80359 3.19811 0
M  V30 5904 N 566.112 -0.949982 1.2575 0
M  V30 5905 C 567.022 -2.08109 1.08295 0
M  V30 5906 C 568.038 -1.7399 0.0188181 0
M  V30 5907 O 569.214 -2.00187 0.220724 0
M  V30 5908 C 566.279 -3.39383 0.708534 0
M  V30 5909 C 565.34 -3.8734 1.85111 0
M  V30 5910 C 564.573 -5.12349 1.49447 0
M  V30 5911 O 564.796 -5.6905 0.392212 0
M  V30 5912 O 563.73 -5.5513 2.32624 0
M  V30 5913 H 567.556 -2.25738 2.03165 0
M  V30 5914 H 565.141 -1.06545 1.04731 0
M  V30 5915 H 567.023 -4.18277 0.512061 0
M  V30 5916 H 565.698 -3.23013 -0.210854 0
M  V30 5917 H 564.605 -3.09429 2.10248 0
M  V30 5918 H 565.938 -4.08216 2.74991 0
M  V30 5919 N 567.59 -1.07411 -1.15328 0
M  V30 5920 C 569.006 -0.799759 -1.38116 0
M  V30 5921 C 569.206 0.59572 -1.92493 0
M  V30 5922 O 568.262 1.35433 -2.13106 0
M  V30 5923 C 569.575 -1.87407 -2.35158 0
M  V30 5924 C 571.123 -1.89889 -2.48819 0
M  V30 5925 C 571.598 -2.96406 -3.49153 0
M  V30 5926 N 573.089 -2.95512 -3.56689 0
M  V30 5927 C 573.824 -3.74575 -4.34144 0
M  V30 5928 N 573.32 -4.63488 -5.14928 0
M  V30 5929 N 575.113 -3.62919 -4.29239 0
M  V30 5930 H 567.264 -1.97411 -0.78374 0
M  V30 5931 H 569.527 -0.856113 -0.407154 0
M  V30 5932 H 569.233 -2.8768 -2.0232 0
M  V30 5933 H 569.107 -1.73471 -3.34944 0
M  V30 5934 H 571.494 -0.902677 -2.80955 0
M  V30 5935 H 571.575 -2.07904 -1.49029 0
M  V30 5936 H 571.219 -3.96227 -3.17752 0
M  V30 5937 H 571.149 -2.75638 -4.48699 0
M  V30 5938 H 573.64 -2.31061 -2.99031 0
M  V30 5939 H 573.953 -5.20445 -5.71276 0
M  V30 5940 H 572.298 -4.67537 -5.14232 0
M  V30 5941 H 575.489 -2.92833 -3.65194 0
M  V30 5942 H 575.662 -4.24777 -4.89355 0
M  V30 5943 N 569.068 1.32177 -0.85831 0
M  V30 5944 C 569.978 2.32561 -0.308606 0
M  V30 5945 C 570.994 1.64209 0.575462 0
M  V30 5946 O 572.17 1.95719 0.474961 0
M  V30 5947 C 569.235 3.43207 0.490909 0
M  V30 5948 C 568.296 4.27243 -0.419733 0
M  V30 5949 C 567.529 5.32605 0.341719 0
M  V30 5950 O 567.752 5.48332 1.57125 0
M  V30 5951 O 566.686 6.0118 -0.294379 0
M  V30 5952 H 570.512 2.81477 -1.14037 0
M  V30 5953 H 568.097 1.35866 -0.621349 0
M  V30 5954 H 569.979 4.10677 0.944574 0
M  V30 5955 H 568.654 2.96474 1.29941 0
M  V30 5956 H 567.561 3.62569 -0.921652 0
M  V30 5957 H 568.894 4.7751 -1.19352 0
M  V30 5958 N 570.547 0.616602 1.45037 0
M  V30 5959 C 571.494 -0.0969439 2.30596 0
M  V30 5960 C 572.464 -0.851151 1.42635 0
M  V30 5961 O 573.649 -0.835092 1.71554 0
M  V30 5962 C 570.789 -1.08234 3.27688 0
M  V30 5963 C 569.902 -0.328072 4.30752 0
M  V30 5964 C 569.037 -1.30399 5.14946 0
M  V30 5965 C 568.076 -0.538049 6.09731 0
M  V30 5966 N 567.213 -1.46371 6.86673 0
M  V30 5967 H 572.053 0.63864 2.91076 0
M  V30 5968 H 569.59 0.326733 1.43425 0
M  V30 5969 H 571.548 -1.66688 3.82454 0
M  V30 5970 H 570.178 -1.78523 2.68941 0
M  V30 5971 H 569.23 0.372136 3.78575 0
M  V30 5972 H 570.542 0.269142 4.98073 0
M  V30 5973 H 569.696 -1.96032 5.74157 0
M  V30 5974 H 568.435 -1.93514 4.47665 0
M  V30 5975 H 567.44 0.131852 5.49642 0
M  V30 5976 H 568.665 0.0881732 6.79043 0
M  V30 5977 H 566.611 -2.08233 6.22073 0
M  V30 5978 H 566.528 -0.920152 7.50379 0
M  V30 5979 H 567.796 -2.10932 7.50418 0
M  V30 5980 N 572.025 -1.5352 0.356285 0
M  V30 5981 C 573.436 -1.86282 -0.12492 0
M  V30 5982 C 573.787 -1.27717 -1.48939 0
M  V30 5983 O 572.912 -0.595614 -2.08042 0
M  V30 5984 C 573.507 -3.37995 -0.23345 0
M  V30 5985 C 572.066 -3.70588 -0.658899 0
M  V30 5986 C 571.213 -2.76581 0.199596 0
M  V30 5987 H 574.164 -1.47901 0.575423 0
M  V30 5988 H 574.185 -3.65475 -1.0587 0
M  V30 5989 H 573.697 -3.8059 0.759776 0
M  V30 5990 H 571.798 -3.33544 -1.66069 0
M  V30 5991 H 571.911 -4.77076 -0.439957 0
M  V30 5992 H 570.275 -2.52552 -0.330076 0
M  V30 5993 H 571.058 -3.22008 1.19019 0
M  V30 5994 N 573.503 -0.0852151 -1.57369 0
M  V30 5995 C 574.435 0.907099 -2.10486 0
M  V30 5996 C 575.448 1.25259 -1.03991 0
M  V30 5997 O 576.637 1.20743 -1.31467 0
M  V30 5998 C 573.737 2.21908 -2.56145 0
M  V30 5999 C 572.91 2.05042 -3.86363 0
M  V30 6000 C 571.969 3.19664 -4.17973 0
M  V30 6001 O 570.995 2.94062 -4.87356 0
M  V30 6002 N 572.197 4.45151 -3.72587 0
M  V30 6003 H 574.962 0.453505 -2.96249 0
M  V30 6004 H 572.523 0.100157 -1.6159 0
M  V30 6005 H 574.515 2.97519 -2.74343 0
M  V30 6006 H 573.085 2.58723 -1.75446 0
M  V30 6007 H 572.305 1.13819 -3.77411 0
M  V30 6008 H 573.593 1.91039 -4.71574 0
M  V30 6009 H 572.991 4.68834 -3.16561 0
M  V30 6010 H 571.548 5.17744 -3.9596 0
M  V30 6011 O 575.02 1.61406 0.0550718 0
M  V30 6012 H 575.711 1.81412 0.678922 0
M  V30 END ATOM
M  V30 BEGIN BOND
M  V30 END BOND
M  V30 END CTAB
M  END
$$$$
