drugbank_target|Q9C0B1 Alpha-ketoglutarate-dependent dioxygenase FTO (DB11638)
 OpenBabel12092121033D

  0  0  0     0  0            999 V3000
M  V30 BEGIN CTAB
M  V30 COUNTS 8081 8180 0 0 0
M  V30 BEGIN ATOM
M  V30 1 H -0.908 1.98254 -0.117106 0
M  V30 2 N 0 1.576 0 0
M  V30 3 C 0.933 2.03868 1.02534 0
M  V30 4 C 1.911 0.928543 1.3348 0
M  V30 5 O 3.095 1.19667 1.45644 0
M  V30 6 C 0.222 2.43627 2.35294 0
M  V30 7 C -0.732 3.65373 2.2001 0
M  V30 8 S 0.101 5.13292 1.52614 0
M  V30 9 C 1.257 5.56322 2.86805 0
M  V30 10 H 1.49 2.90518 0.631377 0
M  V30 11 H -0.977 1.52953 0.210867 0
M  V30 12 H 0.981 2.67203 3.11629 0
M  V30 13 H -0.358 1.57376 2.7183 0
M  V30 14 H -1.165 3.90944 3.18086 0
M  V30 15 H -1.563 3.418 1.51819 0
M  V30 16 H 0.729 5.58782 3.83104 0
M  V30 17 H 1.672 6.56266 2.65933 0
M  V30 18 H 2.08 4.83886 2.90714 0
M  V30 19 N 1.4781 -0.272755 1.55222 0
M  V30 20 C 2.4251 -1.33716 1.88119 0
M  V30 21 C 3.3951 -1.49066 0.73271 0
M  V30 22 O 4.5801 -1.63469 0.984002 0
M  V30 23 C 1.7201 -2.69238 2.15882 0
M  V30 24 C 0.8331 -2.62108 3.43399 0
M  V30 25 C -0.0319 -3.89811 3.60861 0
M  V30 26 C -0.9929 -3.77193 4.8207 0
M  V30 27 N -1.8559 -4.9673 4.96189 0
M  V30 28 H 2.9841 -1.04962 2.78903 0
M  V30 29 H 0.5211 -0.507088 1.38083 0
M  V30 30 H 2.4791 -3.48089 2.29978 0
M  V30 31 H 1.1091 -2.96194 1.28331 0
M  V30 32 H 0.1611 -1.74967 3.37773 0
M  V30 33 H 1.4731 -2.48685 4.32386 0
M  V30 34 H 0.6271 -4.77103 3.74777 0
M  V30 35 H -0.6339 -4.06102 2.7006 0
M  V30 36 H -1.6289 -2.88284 4.68159 0
M  V30 37 H -0.4039 -3.62421 5.74307 0
M  V30 38 H -2.4579 -5.13431 4.08319 0
M  V30 39 H -2.5409 -4.85839 5.79221 0
M  V30 40 H -1.2729 -5.85594 5.1449 0
M  V30 41 N 2.9562 -1.48159 -0.537278 0
M  V30 42 C 4.3722 -1.34118 -0.865129 0
M  V30 43 C 4.5722 -0.346678 -1.98495 0
M  V30 44 O 3.6282 0.234715 -2.51407 0
M  V30 45 C 4.9412 -2.73963 -1.23954 0
M  V30 46 C 6.4892 -2.82397 -1.34984 0
M  V30 47 C 6.9642 -4.22928 -1.75772 0
M  V30 48 N 8.4552 -4.25566 -1.82887 0
M  V30 49 C 9.1902 -5.31235 -2.15817 0
M  V30 50 N 8.6862 -6.47189 -2.47222 0
M  V30 51 N 10.4792 -5.18624 -2.16761 0
M  V30 52 H 2.6302 -2.1144 0.201715 0
M  V30 53 H 4.8932 -0.947598 0.0275949 0
M  V30 54 H 4.5992 -3.48264 -0.490381 0
M  V30 55 H 4.4732 -3.0702 -2.19132 0
M  V30 56 H 6.8602 -2.08356 -2.08978 0
M  V30 57 H 6.9412 -2.5297 -0.379448 0
M  V30 58 H 6.5852 -4.97482 -1.02341 0
M  V30 59 H 6.5152 -4.49794 -2.73848 0
M  V30 60 H 9.0062 -3.41924 -1.60924 0
M  V30 61 H 9.3192 -7.23564 -2.71433 0
M  V30 62 H 7.6642 -6.50476 -2.44757 0
M  V30 63 H 10.8552 -4.27056 -1.91679 0
M  V30 64 H 11.0282 -6.01078 -2.42093 0
M  V30 65 N 4.4343 0.785586 -1.36625 0
M  V30 66 C 5.6623 1.57448 -1.3423 0
M  V30 67 C 6.0773 1.88649 0.0755653 0
M  V30 68 O 5.4343 1.50414 1.03354 0
M  V30 69 C 5.4853 2.89316 -2.16745 0
M  V30 70 O 5.2063 2.59459 -3.53005 0
M  V30 71 C 6.7073 3.83606 -2.22174 0
M  V30 72 H 3.9273 0.488226 -0.4603 0
M  V30 73 H 6.4713 0.974733 -1.79775 0
M  V30 74 H 4.6263 3.4575 -1.74745 0
M  V30 75 H 5.0403 3.43804 -3.96105 0
M  V30 76 H 6.5143 4.73181 -2.8426 0
M  V30 77 H 6.9913 4.21734 -1.22627 0
M  V30 78 H 7.5973 3.33104 -2.64427 0
M  V30 79 N 5.9124 1.20967 1.01018 0
M  V30 80 C 7.3234 1.02319 1.56165 0
M  V30 81 C 7.6744 -0.418546 1.91684 0
M  V30 82 O 6.7994 -1.30096 1.72928 0
M  V30 83 C 7.3944 1.85109 2.8376 0
M  V30 84 C 5.9534 1.70809 3.35412 0
M  V30 85 C 5.1004 1.82643 2.08655 0
M  V30 86 H 8.0514 1.35065 0.833255 0
M  V30 87 H 8.0724 1.35827 3.55431 0
M  V30 88 H 7.5844 2.90035 2.57878 0
M  V30 89 H 5.6854 0.685464 3.66241 0
M  V30 90 H 5.7984 2.52467 4.07182 0
M  V30 91 H 4.1624 1.25896 2.21409 0
M  V30 92 H 4.9454 2.89066 1.85191 0
M  V30 93 N 7.3905 -1.2043 1.01659 0
M  V30 94 C 8.6185 -1.93777 0.725132 0
M  V30 95 C 9.0335 -1.74772 -0.714166 0
M  V30 96 O 8.3905 -1.06169 -1.4844 0
M  V30 97 C 8.4415 -3.45876 1.05129 0
M  V30 98 O 8.1625 -3.6426 2.43406 0
M  V30 99 C 9.6635 -4.36368 0.780891 0
M  V30 100 H 6.8835 -0.615901 0.266284 0
M  V30 101 H 9.4275 -1.52922 1.35776 0
M  V30 102 H 7.5825 -3.8461 0.464065 0
M  V30 103 H 7.9965 -4.58246 2.55169 0
M  V30 104 H 9.4705 -5.41743 1.05918 0
M  V30 105 H 9.9475 -4.38275 -0.284937 0
M  V30 106 H 10.5535 -4.03296 1.35027 0
M  V30 107 N 8.8686 -0.792821 -1.36206 0
M  V30 108 C 9.8316 -0.199459 -2.2833 0
M  V30 109 C 10.8316 0.605189 -1.48977 0
M  V30 110 O 12.0216 0.425685 -1.68919 0
M  V30 111 C 9.1536 0.723523 -3.33134 0
M  V30 112 H 10.3466 -1.01181 -2.82316 0
M  V30 113 H 7.8996 -0.562485 -1.45828 0
M  V30 114 H 8.6346 1.56008 -2.84309 0
M  V30 115 H 8.4196 0.148436 -3.91819 0
M  V30 116 H 9.9096 1.13344 -4.01924 0
M  V30 117 N 10.3467 1.47872 -0.545128 0
M  V30 118 C 11.2567 2.33633 0.212746 0
M  V30 119 C 12.2727 1.4744 0.923983 0
M  V30 120 O 13.4487 1.80393 0.895572 0
M  V30 121 C 10.5137 3.23884 1.23693 0
M  V30 122 C 9.5747 4.25961 0.534417 0
M  V30 123 C 8.8077 5.11899 1.5098 0
M  V30 124 O 9.0307 5.00077 2.7437 0
M  V30 125 O 7.9647 5.92831 1.0409 0
M  V30 126 H 11.7907 2.99714 -0.490416 0
M  V30 127 H 9.3757 1.46235 -0.305871 0
M  V30 128 H 11.2577 3.79666 1.82843 0
M  V30 129 H 9.9327 2.60446 1.92222 0
M  V30 130 H 8.8397 3.73972 -0.0979679 0
M  V30 131 H 10.1727 4.92079 -0.109213 0
M  V30 132 N 11.8248 0.280983 1.55075 0
M  V30 133 C 12.7348 -0.61388 2.26426 0
M  V30 134 C 13.7508 -1.16521 1.29224 0
M  V30 135 O 14.9268 -1.19426 1.62171 0
M  V30 136 C 11.9918 -1.7788 2.9759 0
M  V30 137 C 11.0528 -1.26355 4.10284 0
M  V30 138 C 10.2858 -2.37295 4.78045 0
M  V30 139 O 10.5088 -3.56777 4.45047 0
M  V30 140 O 9.4428 -2.05119 5.65871 0
M  V30 141 H 13.2688 -0.0356932 3.03679 0
M  V30 142 H 10.8538 0.0481686 1.49322 0
M  V30 143 H 12.7358 -2.45791 3.42293 0
M  V30 144 H 11.4108 -2.34397 2.23249 0
M  V30 145 H 10.3178 -0.550735 3.70024 0
M  V30 146 H 11.6508 -0.744065 4.86543 0
M  V30 147 N 13.3029 -1.57598 0.00835791 0
M  V30 148 C 14.7189 -1.55764 -0.347822 0
M  V30 149 C 14.9189 -1.01186 -1.74252 0
M  V30 150 O 13.9749 -0.649371 -2.44007 0
M  V30 151 C 15.2879 -2.99927 -0.215407 0
M  V30 152 C 16.8359 -3.11656 -0.289725 0
M  V30 153 C 17.3109 -4.57621 -0.18634 0
M  V30 154 N 18.8019 -4.62557 -0.243978 0
M  V30 155 C 19.5369 -5.73094 -0.18745 0
M  V30 156 N 19.0329 -6.92753 -0.0810331 0
M  V30 157 N 20.8259 -5.61588 -0.239925 0
M  V30 158 H 12.9769 -1.91411 0.92062 0
M  V30 159 H 15.2399 -0.879562 0.353659 0
M  V30 160 H 14.9459 -3.43729 0.744512 0
M  V30 161 H 14.8199 -3.63865 -0.994097 0
M  V30 162 H 17.2069 -2.67779 -1.24009 0
M  V30 163 H 17.2879 -2.5048 0.51898 0
M  V30 164 H 16.9319 -5.02174 0.760519 0
M  V30 165 H 16.8619 -5.16752 -1.01364 0
M  V30 166 H 19.3529 -3.76481 -0.327217 0
M  V30 167 H 19.6659 -7.72787 -0.0440241 0
M  V30 168 H 18.0109 -6.94984 -0.0465419 0
M  V30 169 H 21.2019 -4.66996 -0.321317 0
M  V30 170 H 21.3749 -6.47714 -0.192407 0
M  V30 171 N 14.781 0.264519 -1.55364 0
M  V30 172 C 15.691 1.34902 -1.91934 0
M  V30 173 C 16.707 1.53595 -0.817593 0
M  V30 174 O 17.883 1.67558 -1.11742 0
M  V30 175 C 14.948 2.68676 -2.19121 0
M  V30 176 C 14.009 2.58657 -3.4263 0
M  V30 177 C 13.242 3.86051 -3.68511 0
M  V30 178 O 13.465 4.87126 -2.96757 0
M  V30 179 O 12.399 3.85744 -4.62045 0
M  V30 180 H 16.225 1.06883 -2.8427 0
M  V30 181 H 13.81 0.463775 -1.42019 0
M  V30 182 H 15.692 3.47759 -2.37995 0
M  V30 183 H 14.367 2.96463 -1.29966 0
M  V30 184 H 13.274 1.7792 -3.29082 0
M  V30 185 H 14.607 2.35818 -4.32031 0
M  V30 186 N 16.2591 1.48442 0.529413 0
M  V30 187 C 17.6751 1.34575 0.858004 0
M  V30 188 C 17.8751 0.3572 1.98309 0
M  V30 189 O 16.9311 -0.221379 2.51528 0
M  V30 190 C 18.2441 2.74617 1.22499 0
M  V30 191 C 19.7921 2.83109 1.33484 0
M  V30 192 C 20.2671 4.23854 1.73526 0
M  V30 193 N 21.7581 4.2653 1.80628 0
M  V30 194 C 22.4931 5.32372 2.12997 0
M  V30 195 N 21.9891 6.48491 2.43786 0
M  V30 196 N 23.7821 5.19766 2.14008 0
M  V30 197 H 15.9331 2.1133 -0.212925 0
M  V30 198 H 18.1961 0.947439 -0.0326199 0
M  V30 199 H 17.9021 3.4852 0.471905 0
M  V30 200 H 17.7761 3.08177 2.17501 0
M  V30 201 H 20.1631 2.09462 2.0787 0
M  V30 202 H 20.2441 2.53168 0.366027 0
M  V30 203 H 19.8881 4.98018 0.997013 0
M  V30 204 H 19.8181 4.5124 2.71459 0
M  V30 205 H 22.3091 3.42772 1.59108 0
M  V30 206 H 22.6221 7.24993 2.67592 0
M  V30 207 H 20.9671 6.51765 2.41304 0
M  V30 208 H 24.1581 4.28066 1.89412 0
M  V30 209 H 24.3311 6.02354 2.38902 0
M  V30 210 N 17.7372 -0.778329 1.37039 0
M  V30 211 C 18.6472 -1.92253 1.34446 0
M  V30 212 C 19.6632 -1.72267 0.244991 0
M  V30 213 O 20.8392 -1.95615 0.479258 0
M  V30 214 C 17.9042 -3.27282 1.144 0
M  V30 215 C 16.9652 -3.59969 2.33925 0
M  V30 216 C 16.1982 -4.88555 2.14825 0
M  V30 217 O 16.4212 -5.59113 1.12912 0
M  V30 218 O 15.3552 -5.20153 3.02861 0
M  V30 219 H 19.1812 -1.97392 2.30803 0
M  V30 220 H 16.7662 -0.920154 1.17701 0
M  V30 221 H 18.6482 -4.08062 1.05182 0
M  V30 222 H 17.3232 -3.23011 0.211124 0
M  V30 223 H 16.2302 -2.7945 2.48714 0
M  V30 224 H 17.5632 -3.68976 3.25757 0
M  V30 225 N 19.2153 -1.21501 -1.00376 0
M  V30 226 C 20.1783 -0.976927 -2.07337 0
M  V30 227 C 21.1783 0.0525322 -1.60714 0
M  V30 228 O 22.3683 -0.184869 -1.73216 0
M  V30 229 C 19.5003 -0.473423 -3.37597 0
M  V30 230 H 20.6933 -1.92587 -2.29892 0
M  V30 231 H 18.2463 -1.03217 -1.17371 0
M  V30 232 H 18.9813 0.480379 -3.20722 0
M  V30 233 H 18.7663 -1.216 -3.72768 0
M  V30 234 H 20.2563 -0.32675 -4.1632 0
M  V30 235 N 20.6934 1.19889 -1.02296 0
M  V30 236 C 21.6404 2.22901 -0.598651 0
M  V30 237 C 22.6104 1.61588 0.384521 0
M  V30 238 O 23.7954 1.88697 0.282522 0
M  V30 239 C 20.9354 3.45063 0.0504476 0
M  V30 240 C 20.0484 4.20783 -0.978053 0
M  V30 241 C 19.1834 5.30356 -0.299338 0
M  V30 242 C 18.2224 5.97826 -1.31416 0
M  V30 243 N 17.3594 6.98975 -0.661667 0
M  V30 244 H 22.1994 2.58554 -1.48169 0
M  V30 245 H 19.7364 1.27039 -0.741584 0
M  V30 246 H 21.6944 4.14831 0.443971 0
M  V30 247 H 20.3244 3.10084 0.897097 0
M  V30 248 H 19.3764 3.50018 -1.48969 0
M  V30 249 H 20.6884 4.67109 -1.74958 0
M  V30 250 H 19.8424 6.06516 0.149347 0
M  V30 251 H 18.5814 4.85084 0.504445 0
M  V30 252 H 17.5864 5.20422 -1.77317 0
M  V30 253 H 18.8114 6.45183 -2.11933 0
M  V30 254 H 16.7574 6.55886 0.122132 0
M  V30 255 H 16.6744 7.43461 -1.37117 0
M  V30 256 H 17.9424 7.7914 -0.236785 0
M  V30 257 N 22.1715 0.800033 1.35784 0
M  V30 258 C 23.1185 0.203848 2.29898 0
M  V30 259 C 24.0885 -0.658375 1.52495 0
M  V30 260 O 25.2735 -0.604832 1.8096 0
M  V30 261 C 22.4135 -0.64688 3.38983 0
M  V30 262 C 21.5265 0.235054 4.3136 0
M  V30 263 C 20.6615 -0.623054 5.27533 0
M  V30 264 C 19.7005 0.259682 6.11549 0
M  V30 265 N 18.8375 -0.558019 6.99879 0
M  V30 266 H 23.6775 1.01186 2.80295 0
M  V30 267 H 21.2145 0.51053 1.37957 0
M  V30 268 H 23.1725 -1.15521 4.00887 0
M  V30 269 H 21.8025 -1.42021 2.89879 0
M  V30 270 H 20.8545 0.861438 3.70518 0
M  V30 271 H 22.1665 0.914768 4.9034 0
M  V30 272 H 21.3205 -1.19678 5.94779 0
M  V30 273 H 20.0595 -1.33636 4.69034 0
M  V30 274 H 19.0645 0.845726 5.43256 0
M  V30 275 H 20.2895 0.970748 6.72126 0
M  V30 276 H 18.2355 -1.25542 6.43875 0
M  V30 277 H 18.1525 0.0637872 7.55973 0
M  V30 278 H 19.4205 -1.11523 7.71481 0
M  V30 279 N 23.6496 -1.47581 0.552962 0
M  V30 280 C 24.5796 -2.32762 -0.185451 0
M  V30 281 C 25.5606 -1.43527 -0.912905 0
M  V30 282 O 26.7456 -1.72388 -0.894201 0
M  V30 283 C 23.8756 -3.25219 -1.21859 0
M  V30 284 C 22.8296 -4.23661 -0.607864 0
M  V30 285 C 22.1556 -5.05413 -1.74533 0
M  V30 286 C 23.4556 -5.20481 0.435582 0
M  V30 287 H 25.1496 -2.94749 0.525684 0
M  V30 288 H 22.6956 -1.41738 0.254251 0
M  V30 289 H 24.6486 -3.8365 -1.7433 0
M  V30 290 H 23.3726 -2.61279 -1.95961 0
M  V30 291 H 22.0316 -3.66451 -0.104489 0
M  V30 292 H 21.6796 -4.3788 -2.47529 0
M  V30 293 H 21.3796 -5.72059 -1.34249 0
M  V30 294 H 22.9036 -5.66701 -2.27338 0
M  V30 295 H 24.3176 -5.733 -0.00290157 0
M  V30 296 H 22.7146 -5.95305 0.757067 0
M  V30 297 H 23.7846 -4.66217 1.33303 0
M  V30 298 N 25.1277 -0.289203 -1.54924 0
M  V30 299 C 26.5437 0.0645403 -1.59469 0
M  V30 300 C 26.7437 1.53419 -1.30632 0
M  V30 301 O 25.7997 2.2852 -1.074 0
M  V30 302 C 27.1127 -0.32278 -2.98963 0
M  V30 303 C 28.6607 -0.270564 -3.11828 0
M  V30 304 C 29.1357 -0.632532 -4.53611 0
M  V30 305 N 30.6267 -0.584617 -4.59496 0
M  V30 306 C 31.3617 -0.837314 -5.67254 0
M  V30 307 N 30.8577 -1.15536 -6.83098 0
M  V30 308 N 32.6507 -0.765166 -5.56868 0
M  V30 309 H 24.8017 -1.24714 -1.71931 0
M  V30 310 H 27.0647 -0.504809 -0.802416 0
M  V30 311 H 26.7707 -1.34541 -3.24948 0
M  V30 312 H 26.6447 0.32944 -3.75759 0
M  V30 313 H 29.0317 0.742805 -2.85598 0
M  V30 314 H 29.1127 -0.957242 -2.37214 0
M  V30 315 H 28.7567 -1.64365 -4.80569 0
M  V30 316 H 28.6867 0.07609 -5.26545 0
M  V30 317 H 31.1777 -0.349248 -3.76283 0
M  V30 318 H 31.4907 -1.33447 -7.61191 0
M  V30 319 H 29.8357 -1.19328 -6.84679 0
M  V30 320 H 33.0267 -0.516432 -4.65243 0
M  V30 321 H 33.1997 -0.965477 -6.40767 0
M  V30 322 N 26.6058 1.57591 -0.0167156 0
M  V30 323 C 27.5358 2.12496 0.967858 0
M  V30 324 C 28.5168 1.03807 1.34752 0
M  V30 325 O 29.7018 1.31577 1.42833 0
M  V30 326 C 26.8318 2.64194 2.25431 0
M  V30 327 C 25.7858 3.77559 2.01576 0
M  V30 328 C 25.1118 4.15636 3.36379 0
M  V30 329 C 26.4118 5.04151 1.36489 0
M  V30 330 H 28.1058 2.95013 0.510643 0
M  V30 331 H 25.6518 1.41915 0.244181 0
M  V30 332 H 27.6048 3.01236 2.94678 0
M  V30 333 H 26.3288 1.78821 2.73296 0
M  V30 334 H 24.9878 3.40937 1.34751 0
M  V30 335 H 24.6358 3.27263 3.81979 0
M  V30 336 H 24.3358 4.92022 3.21229 0
M  V30 337 H 25.8598 4.5525 4.06915 0
M  V30 338 H 27.2738 5.38857 1.95718 0
M  V30 339 H 25.6708 5.85453 1.31776 0
M  V30 340 H 26.7408 4.83733 0.336219 0
M  V30 341 N 28.0839 -0.256276 1.55502 0
M  V30 342 C 29.0139 -1.32102 1.92539 0
M  V30 343 C 29.9949 -1.50684 0.789194 0
M  V30 344 O 31.1799 -1.63449 1.04872 0
M  V30 345 C 28.3099 -2.67752 2.21192 0
M  V30 346 C 27.2639 -2.63878 3.36975 0
M  V30 347 C 26.5899 -4.03236 3.51147 0
M  V30 348 C 27.8899 -2.21682 4.72921 0
M  V30 349 H 29.5839 -1.01351 2.81724 0
M  V30 350 H 27.1299 -0.486105 1.35547 0
M  V30 351 H 29.0829 -3.42365 2.45691 0
M  V30 352 H 27.8069 -3.0012 1.28824 0
M  V30 353 H 26.4659 -1.91722 3.12471 0
M  V30 354 H 26.1139 -4.32854 2.56216 0
M  V30 355 H 25.8139 -4.01535 4.29003 0
M  V30 356 H 27.3379 -4.79563 3.77957 0
M  V30 357 H 28.7519 -2.86023 4.96854 0
M  V30 358 H 27.1489 -2.3111 5.53812 0
M  V30 359 H 28.2189 -1.16833 4.70615 0
M  V30 360 N 29.562 -1.4872 -0.521534 0
M  V30 361 C 30.472 -1.66569 -1.65203 0
M  V30 362 C 31.488 -0.548197 -1.65139 0
M  V30 363 O 32.664 -0.820339 -1.83936 0
M  V30 364 C 29.729 -1.70917 -3.01642 0
M  V30 365 C 28.79 -2.94356 -3.12495 0
M  V30 366 C 28.023 -2.98487 -4.42426 0
M  V30 367 O 28.246 -2.10786 -5.30024 0
M  V30 368 O 27.18 -3.90746 -4.57822 0
M  V30 369 H 31.006 -2.62298 -1.5308 0
M  V30 370 H 28.591 -1.3222 -0.695565 0
M  V30 371 H 30.473 -1.7625 -3.82771 0
M  V30 372 H 29.148 -0.783633 -3.14071 0
M  V30 373 H 28.055 -2.94552 -2.3063 0
M  V30 374 H 29.388 -3.86322 -3.04986 0
M  V30 375 N 31.0401 0.771051 -1.3745 0
M  V30 376 C 31.9501 1.91538 -1.35464 0
M  V30 377 C 32.9661 1.72134 -0.254123 0
M  V30 378 O 34.1421 1.95358 -0.489626 0
M  V30 379 C 31.2071 3.26671 -1.16134 0
M  V30 380 C 30.2681 3.58723 -2.35831 0
M  V30 381 C 29.5011 4.87409 -2.17413 0
M  V30 382 O 29.7241 5.58506 -1.15876 0
M  V30 383 O 28.6581 5.18539 -3.05615 0
M  V30 384 H 32.4841 1.96165 -2.31847 0
M  V30 385 H 30.0691 0.9139 -1.18187 0
M  V30 386 H 31.9511 4.07499 -1.07345 0
M  V30 387 H 30.6261 3.22894 -0.228251 0
M  V30 388 H 29.5331 2.78127 -2.50192 0
M  V30 389 H 30.8661 3.67243 -3.27709 0
M  V30 390 N 32.5182 1.22032 0.997298 0
M  V30 391 C 33.4482 1.01065 2.10495 0
M  V30 392 C 34.4292 -0.0669542 1.69968 0
M  V30 393 O 35.6142 0.0943987 1.9397 0
M  V30 394 C 32.7442 0.582874 3.42374 0
M  V30 395 C 31.6982 1.60592 3.96729 0
M  V30 396 C 31.0242 1.03412 5.24605 0
M  V30 397 C 32.3242 2.99478 4.27914 0
M  V30 398 H 34.0182 1.93708 2.28292 0
M  V30 399 H 31.5642 0.932761 1.09707 0
M  V30 400 H 33.5172 0.423332 4.19268 0
M  V30 401 H 32.2412 -0.379213 3.24391 0
M  V30 402 H 30.9002 1.75316 3.21963 0
M  V30 403 H 30.5482 0.063518 5.0296 0
M  V30 404 H 30.2482 1.71754 5.61938 0
M  V30 405 H 31.7722 0.886066 6.04137 0
M  V30 406 H 33.1862 2.88153 4.95622 0
M  V30 407 H 31.5832 3.64903 4.76409 0
M  V30 408 H 32.6532 3.49742 3.3587 0
M  V30 409 N 33.9963 -1.19345 1.0293 0
M  V30 410 C 34.9063 -2.26245 0.620515 0
M  V30 411 C 35.9223 -1.70486 -0.347928 0
M  V30 412 O 37.0983 -2.00347 -0.205704 0
M  V30 413 C 34.1633 -3.46693 -0.0218957 0
M  V30 414 C 33.2243 -4.17632 0.994102 0
M  V30 415 C 32.4573 -5.32329 0.382253 0
M  V30 416 O 32.6803 -5.64552 -0.814676 0
M  V30 417 O 31.6143 -5.91664 1.10531 0
M  V30 418 H 35.4403 -2.63453 1.51083 0
M  V30 419 H 33.0253 -1.26207 0.799513 0
M  V30 420 H 34.9073 -4.19683 -0.380072 0
M  V30 421 H 33.5823 -3.11333 -0.886209 0
M  V30 422 H 32.4893 -3.4676 1.40387 0
M  V30 423 H 33.8223 -4.56964 1.8288 0
M  V30 424 N 35.4744 -0.807222 -1.35358 0
M  V30 425 C 36.7514 -0.311126 -1.9311 0
M  V30 426 C 37.1314 1.19937 -1.73719 0
M  V30 427 O 36.4794 1.99918 -1.10657 0
M  V30 428 C 36.6894 -0.723226 -3.41424 0
M  V30 429 C 38.0374 -0.713078 -4.18569 0
M  V30 430 O 39.0614 -0.664811 -3.49941 0
M  V30 431 O 37.9204 -0.772022 -5.41019 0
M  V30 432 H 35.0144 -0.081526 -0.822972 0
M  V30 433 H 37.5604 -0.890962 -1.4443 0
M  V30 434 H 36.3324 -1.76426 -3.4927 0
M  V30 435 H 35.9554 -0.118232 -3.97424 0
M  V30 436 N 36.9525 1.47285 -0.560781 0
M  V30 437 C 38.1805 2.06855 -0.0430262 0
M  V30 438 C 38.5955 1.41291 1.25229 0
M  V30 439 O 37.9525 0.510648 1.7521 0
M  V30 440 C 38.0035 3.61178 0.152518 0
M  V30 441 O 37.7245 4.24285 -1.0915 0
M  V30 442 C 39.2255 4.37624 0.707145 0
M  V30 443 H 36.4455 0.669319 -0.0474652 0
M  V30 444 H 38.9895 1.89237 -0.77521 0
M  V30 445 H 37.1445 3.78298 0.834843 0
M  V30 446 H 37.5585 5.16868 -0.891482 0
M  V30 447 H 39.0325 5.46271 0.793244 0
M  V30 448 H 39.5095 4.04152 1.71923 0
M  V30 449 H 40.1155 4.25257 0.0604027 0
M  V30 450 N 38.4306 0.297415 1.54768 0
M  V30 451 C 39.6766 -0.306263 2.01081 0
M  V30 452 C 40.0316 -1.518 1.18214 0
M  V30 453 O 39.3246 -1.89967 0.249613 0
M  V30 454 C 39.5186 -0.717561 3.50123 0
M  V30 455 C 39.3476 0.45277 4.47415 0
M  V30 456 C 38.1176 0.943651 4.9641 0
M  V30 457 C 40.3156 1.29657 4.97688 0
M  V30 458 N 38.2976 2.08112 5.77549 0
M  V30 459 C 39.6686 2.28158 5.76493 0
M  V30 460 C 41.7236 1.32735 4.79881 0
M  V30 461 C 40.4266 3.29509 6.39387 0
M  V30 462 C 42.4526 2.32943 5.43591 0
M  V30 463 C 41.8146 3.30174 6.22225 0
M  V30 464 H 37.9136 -0.0766274 0.778237 0
M  V30 465 H 40.4976 0.426515 1.89971 0
M  V30 466 H 38.6686 -1.41952 3.6153 0
M  V30 467 H 40.4006 -1.30047 3.83236 0
M  V30 468 H 37.1556 0.51922 4.70745 0
M  V30 469 H 37.5796 2.65414 6.22803 0
M  V30 470 H 42.2216 0.589375 4.18672 0
M  V30 471 H 39.9396 4.04228 6.99732 0
M  V30 472 H 43.5256 2.36094 5.31743 0
M  V30 473 H 42.4056 4.06445 6.7065 0
M  V30 474 N 39.9087 -1.5758 0.0250728 0
M  V30 475 C 40.8387 -2.13007 -0.956575 0
M  V30 476 C 41.8197 -1.0452 -1.342 0
M  V30 477 O 43.0047 -1.32332 -1.42133 0
M  V30 478 C 40.1347 -2.65386 -2.24026 0
M  V30 479 C 39.0887 -3.78623 -1.99571 0
M  V30 480 C 38.4147 -4.17414 -3.3417 0
M  V30 481 C 39.7147 -5.04867 -1.33814 0
M  V30 482 H 41.4087 -2.9528 -0.494991 0
M  V30 483 H 38.9547 -1.42042 -0.236651 0
M  V30 484 H 40.9077 -3.02794 -2.93076 0
M  V30 485 H 39.6317 -1.80268 -2.72343 0
M  V30 486 H 38.2907 -3.41646 -1.32941 0
M  V30 487 H 37.9387 -3.29284 -3.80238 0
M  V30 488 H 37.6387 -4.93719 -3.18615 0
M  V30 489 H 39.1627 -4.57402 -4.04495 0
M  V30 490 H 40.5767 -5.39888 -1.92857 0
M  V30 491 H 38.9737 -5.86144 -1.28669 0
M  V30 492 H 40.0437 -4.83904 -0.310561 0
M  V30 493 N 41.3868 0.248026 -1.55636 0
M  V30 494 C 42.7978 0.817177 -1.67866 0
M  V30 495 C 43.1488 1.86069 -0.622322 0
M  V30 496 O 42.2738 2.15157 0.231618 0
M  V30 497 C 42.8688 1.489 -3.04326 0
M  V30 498 C 41.4278 2.00587 -3.185 0
M  V30 499 C 40.5748 0.856573 -2.63739 0
M  V30 500 H 43.5258 0.0238579 -1.58682 0
M  V30 501 H 43.5468 2.35698 -2.98708 0
M  V30 502 H 43.0588 0.729279 -3.81186 0
M  V30 503 H 41.1598 2.79443 -2.4646 0
M  V30 504 H 41.2728 2.20402 -4.25393 0
M  V30 505 H 39.6368 1.25678 -2.21534 0
M  V30 506 H 40.4198 0.109953 -3.43124 0
M  V30 507 N 42.8649 1.48995 0.513639 0
M  V30 508 C 44.0949 1.61297 1.291 0
M  V30 509 C 44.5029 0.278656 1.87137 0
M  V30 510 O 43.8459 -0.744325 1.67945 0
M  V30 511 C 43.9079 2.61326 2.46879 0
M  V30 512 C 43.5719 4.05993 2.09807 0
M  V30 513 C 44.5689 4.93183 1.64519 0
M  V30 514 C 42.2539 4.51642 2.19829 0
M  V30 515 C 44.2479 6.24056 1.2974 0
M  V30 516 C 41.9349 5.82532 1.84662 0
M  V30 517 C 42.9329 6.68562 1.3969 0
M  V30 518 O 42.6209 7.97014 1.04992 0
M  V30 519 H 42.3529 0.546236 0.39825 0
M  V30 520 H 44.9069 1.95673 0.62459 0
M  V30 521 H 43.1369 2.22104 3.16554 0
M  V30 522 H 44.8259 2.6329 3.08923 0
M  V30 523 H 45.5919 4.59147 1.56233 0
M  V30 524 H 41.4709 3.84855 2.53786 0
M  V30 525 H 45.0149 6.91161 0.945659 0
M  V30 526 H 40.9119 6.16099 1.92594 0
M  V30 527 H 41.6799 8.09913 1.18249 0
M  V30 528 N 44.343 -0.763751 1.37857 0
M  V30 529 C 45.273 -1.89103 1.36975 0
M  V30 530 C 46.254 -1.68439 0.237152 0
M  V30 531 O 47.439 -1.8918 0.438713 0
M  V30 532 C 44.569 -3.26496 1.18395 0
M  V30 533 C 43.523 -3.61741 2.28751 0
M  V30 534 C 42.849 -4.97762 1.95286 0
M  V30 535 C 44.149 -3.67665 3.70972 0
M  V30 536 H 45.843 -1.90099 2.31307 0
M  V30 537 H 43.389 -0.91319 1.11341 0
M  V30 538 H 45.342 -4.05003 1.16406 0
M  V30 539 H 44.066 -3.25955 0.205215 0
M  V30 540 H 42.725 -2.85547 2.29909 0
M  V30 541 H 42.373 -4.93769 0.959221 0
M  V30 542 H 42.073 -5.22313 2.69189 0
M  V30 543 H 43.597 -5.7866 1.94898 0
M  V30 544 H 45.011 -4.36307 3.719 0
M  V30 545 H 43.408 -4.03718 4.43995 0
M  V30 546 H 44.478 -2.68134 4.0402 0
M  V30 547 N 45.8211 -1.22559 -0.990812 0
M  V30 548 C 47.0491 -1.07779 -1.76611 0
M  V30 549 C 47.4641 0.371513 -1.85109 0
M  V30 550 O 46.8211 1.25737 -1.32274 0
M  V30 551 C 46.8721 -1.68512 -3.19822 0
M  V30 552 O 46.5931 -3.07774 -3.1178 0
M  V30 553 C 48.0941 -1.59035 -4.13791 0
M  V30 554 H 45.3141 -0.377729 -0.554583 0
M  V30 555 H 47.8581 -1.62195 -1.24551 0
M  V30 556 H 46.0131 -1.18154 -3.68942 0
M  V30 557 H 46.4271 -3.37062 -4.01858 0
M  V30 558 H 47.9011 -2.0625 -5.1202 0
M  V30 559 H 48.3781 -0.547273 -4.35777 0
M  V30 560 H 48.9841 -2.08709 -3.70568 0
M  V30 561 N 47.2992 1.18797 -1.03562 0
M  V30 562 C 48.7102 1.70322 -0.764676 0
M  V30 563 C 49.0612 1.82708 0.714996 0
M  V30 564 O 48.1862 1.50299 1.55689 0
M  V30 565 C 48.7812 3.09356 -1.38145 0
M  V30 566 C 47.3402 3.58114 -1.15895 0
M  V30 567 C 46.4872 2.34798 -1.4753 0
M  V30 568 H 49.4382 1.03543 -1.20268 0
M  V30 569 H 49.4592 3.72378 -0.781977 0
M  V30 570 H 48.9712 3.00309 -2.45837 0
M  V30 571 H 47.0722 3.72464 -0.100544 0
M  V30 572 H 47.1852 4.4184 -1.8524 0
M  V30 573 H 45.5492 2.38464 -0.894829 0
M  V30 574 H 46.3322 2.28375 -2.56319 0
M  V30 575 N 48.7773 0.814389 1.34928 0
M  V30 576 C 49.7243 0.22822 2.29669 0
M  V30 577 C 50.6943 -0.642164 1.53184 0
M  V30 578 O 51.8793 -0.585605 1.81591 0
M  V30 579 C 49.0193 -0.61089 3.3965 0
M  V30 580 C 48.1323 0.280792 4.31086 0
M  V30 581 C 47.2673 -0.567067 5.28165 0
M  V30 582 C 46.3063 0.324531 6.11239 0
M  V30 583 N 45.4433 -0.483756 7.00431 0
M  V30 584 H 50.2833 1.04153 2.79206 0
M  V30 585 H 47.8203 0.525133 1.37407 0
M  V30 586 H 49.7783 -1.11263 4.0209 0
M  V30 587 H 48.4083 -1.38939 2.91369 0
M  V30 588 H 47.4603 0.900688 3.69583 0
M  V30 589 H 48.7723 0.966723 4.89342 0
M  V30 590 H 47.9263 -1.13363 5.96015 0
M  V30 591 H 46.6653 -1.28654 4.70425 0
M  V30 592 H 45.6703 0.903298 5.42329 0
M  V30 593 H 46.8953 1.04198 6.71059 0
M  V30 594 H 44.8413 -1.18706 6.45171 0
M  V30 595 H 44.7583 0.143965 7.55863 0
M  V30 596 H 46.0263 -1.03334 7.7262 0
M  V30 597 N 50.2554 -1.46986 0.568584 0
M  V30 598 C 51.5324 -1.95592 -0.0174074 0
M  V30 599 C 51.9124 -1.51124 -1.47393 0
M  V30 600 O 51.2604 -0.755329 -2.15655 0
M  V30 601 C 51.4704 -3.48719 0.139913 0
M  V30 602 C 52.8184 -4.246 0.000426376 0
M  V30 603 O 53.8424 -3.56135 0.0680316 0
M  V30 604 O 52.7014 -5.46302 -0.146988 0
M  V30 605 H 49.7954 -0.82498 -0.0577599 0
M  V30 606 H 52.3414 -1.57335 0.635909 0
M  V30 607 H 51.1134 -3.73927 1.15301 0
M  V30 608 H 50.7364 -3.93771 -0.550491 0
M  V30 609 N 51.7335 -0.305618 -1.54608 0
M  V30 610 C 53.0105 0.355652 -1.92339 0
M  V30 611 C 53.3905 1.71324 -1.23335 0
M  V30 612 O 52.7385 2.25473 -0.370702 0
M  V30 613 C 52.9485 0.46572 -3.45879 0
M  V30 614 C 54.2965 0.734426 -4.182 0
M  V30 615 O 55.3205 0.54935 -3.51938 0
M  V30 616 O 54.1795 1.09024 -5.35515 0
M  V30 617 H 51.2735 0.199666 -0.802535 0
M  V30 618 H 53.8195 -0.354017 -1.65966 0
M  V30 619 H 52.5915 -0.488461 -3.88239 0
M  V30 620 H 52.2145 1.22367 -3.78301 0
M  V30 621 N 53.2116 1.57565 -0.0334293 0
M  V30 622 C 54.1216 2.13943 0.962572 0
M  V30 623 C 55.1376 1.09276 1.35406 0
M  V30 624 O 56.3136 1.41355 1.4346 0
M  V30 625 C 53.3786 2.65887 2.22497 0
M  V30 626 C 52.4396 3.85286 1.8935 0
M  V30 627 C 51.6726 4.34743 3.09571 0
M  V30 628 O 51.8956 3.83352 4.22371 0
M  V30 629 O 50.8296 5.26538 2.91618 0
M  V30 630 H 54.6556 2.99333 0.513169 0
M  V30 631 H 52.2406 1.4822 0.18743 0
M  V30 632 H 54.1226 2.99346 2.96598 0
M  V30 633 H 52.7976 1.83578 2.6661 0
M  V30 634 H 51.7046 3.56746 1.1262 0
M  V30 635 H 53.0376 4.68771 1.5005 0
M  V30 636 N 54.6897 -0.239769 1.55765 0
M  V30 637 C 55.9367 -0.966801 1.7793 0
M  V30 638 C 56.2647 -1.85046 0.599015 0
M  V30 639 O 55.5197 -1.91197 -0.417395 0
M  V30 640 C 55.8187 -1.852 3.05672 0
M  V30 641 C 55.4847 -1.1231 4.36689 0
M  V30 642 C 54.1467 -0.921689 4.72291 0
M  V30 643 C 56.4987 -0.607019 5.17653 0
M  V30 644 C 53.8267 -0.191996 5.86386 0
M  V30 645 C 56.1787 0.109241 6.32506 0
M  V30 646 C 54.8427 0.322073 6.66723 0
M  V30 647 H 54.1127 -0.353778 0.651093 0
M  V30 648 H 56.7597 -0.23634 1.90036 0
M  V30 649 H 55.0647 -2.64975 2.8861 0
M  V30 650 H 56.7617 -2.41635 3.20021 0
M  V30 651 H 53.3517 -1.29004 4.08725 0
M  V30 652 H 57.5357 -0.750153 4.90598 0
M  V30 653 H 52.7917 -0.0166949 6.11398 0
M  V30 654 H 56.9657 0.516737 6.9448 0
M  V30 655 H 54.5927 0.88944 7.54979 0
M  V30 656 N 56.1678 -1.49265 -0.50573 0
M  V30 657 C 57.3978 -1.61979 -1.28243 0
M  V30 658 C 57.8058 -0.288576 -1.86986 0
M  V30 659 O 57.1488 0.735408 -1.68337 0
M  V30 660 C 57.2108 -2.62632 -2.45489 0
M  V30 661 C 56.8748 -4.071 -2.07651 0
M  V30 662 C 57.8718 -4.94049 -1.61901 0
M  V30 663 C 55.5568 -4.52801 -2.17431 0
M  V30 664 C 57.5508 -6.24736 -1.26428 0
M  V30 665 C 55.2378 -5.83503 -1.8157 0
M  V30 666 C 56.2358 -6.69294 -1.36142 0
M  V30 667 O 55.9238 -7.9756 -1.00764 0
M  V30 668 H 55.6558 -0.54834 -0.395347 0
M  V30 669 H 58.2098 -1.96002 -0.614204 0
M  V30 670 H 56.4398 -2.2378 -3.15372 0
M  V30 671 H 58.1288 -2.64925 -3.07522 0
M  V30 672 H 58.8948 -4.5997 -1.53795 0
M  V30 673 H 54.7738 -3.86196 -2.51742 0
M  V30 674 H 58.3178 -6.91652 -0.908992 0
M  V30 675 H 54.2148 -6.17112 -1.89324 0
M  V30 676 H 54.9828 -8.10529 -1.13952 0
M  V30 677 N 57.6459 0.756429 -1.3826 0
M  V30 678 C 58.5779 1.87971 -1.31147 0
M  V30 679 C 59.5909 1.61248 -0.224239 0
M  V30 680 O 60.7799 1.71881 -0.481581 0
M  V30 681 C 57.8799 3.23545 -1.00857 0
M  V30 682 C 57.0529 3.77794 -2.20432 0
M  V30 683 C 56.1119 4.91877 -1.86931 0
M  V30 684 O 55.1379 5.06659 -2.59395 0
M  V30 685 N 56.3399 5.74643 -0.822568 0
M  V30 686 H 59.1049 1.94585 -2.2794 0
M  V30 687 H 56.6659 0.936234 -1.32084 0
M  V30 688 H 58.6579 3.97403 -0.765021 0
M  V30 689 H 57.2279 3.12335 -0.128687 0
M  V30 690 H 56.4479 2.95534 -2.6087 0
M  V30 691 H 57.7359 4.10771 -3.00241 0
M  V30 692 H 57.1339 5.65266 -0.221575 0
M  V30 693 H 55.6909 6.48661 -0.638899 0
M  V30 694 N 59.124 1.23083 0.984299 0
M  V30 695 C 60.056 0.96636 2.07832 0
M  V30 696 C 61.069 -0.0582135 1.62696 0
M  V30 697 O 62.258 0.176843 1.77622 0
M  V30 698 C 59.358 0.433397 3.36117 0
M  V30 699 C 58.531 1.51722 4.10243 0
M  V30 700 C 57.59 0.989821 5.16807 0
M  V30 701 O 56.616 1.67794 5.43906 0
M  V30 702 N 57.818 -0.184367 5.80207 0
M  V30 703 H 60.583 1.90824 2.31098 0
M  V30 704 H 58.144 1.13888 1.1507 0
M  V30 705 H 60.136 0.065699 4.04647 0
M  V30 706 H 58.706 -0.413806 3.09849 0
M  V30 707 H 57.926 2.05786 3.36223 0
M  V30 708 H 59.214 2.24619 4.56534 0
M  V30 709 H 58.612 -0.760062 5.60571 0
M  V30 710 H 57.169 -0.493366 6.4993 0
M  V30 711 N 60.6021 -1.18246 1.0419 0
M  V30 712 C 61.8481 -1.88793 0.75689 0
M  V30 713 C 62.2031 -1.78909 -0.707767 0
M  V30 714 O 61.4961 -1.1794 -1.50999 0
M  V30 715 C 61.6901 -3.38082 1.15911 0
M  V30 716 C 61.5191 -3.62496 2.66133 0
M  V30 717 C 60.2891 -3.7979 3.33298 0
M  V30 718 C 62.4871 -3.62976 3.64353 0
M  V30 719 N 60.4691 -3.91955 4.72487 0
M  V30 720 C 61.8401 -3.80869 4.89222 0
M  V30 721 C 63.8951 -3.46071 3.57965 0
M  V30 722 C 62.5981 -3.83608 6.08471 0
M  V30 723 C 64.6241 -3.50093 4.76643 0
M  V30 724 C 63.9861 -3.68484 6.00332 0
M  V30 725 H 60.0851 -0.709406 0.32904 0
M  V30 726 H 62.6691 -1.42022 1.33183 0
M  V30 727 H 60.8401 -3.83544 0.612238 0
M  V30 728 H 62.5721 -3.96202 0.824989 0
M  V30 729 H 59.3271 -3.79224 2.83701 0
M  V30 730 H 59.7511 -4.01857 5.44831 0
M  V30 731 H 64.3931 -3.30797 2.63311 0
M  V30 732 H 62.1111 -3.97669 7.0348 0
M  V30 733 H 65.6971 -3.38285 4.73344 0
M  V30 734 H 64.5771 -3.71488 6.90627 0
M  V30 735 N 62.0802 -0.821533 -1.34494 0
M  V30 736 C 63.0122 -0.199946 -2.28326 0
M  V30 737 C 64.0252 0.609377 -1.50965 0
M  V30 738 O 65.2142 0.439285 -1.7301 0
M  V30 739 C 62.3142 0.738431 -3.30757 0
M  V30 740 C 61.4872 -0.0277632 -4.37391 0
M  V30 741 C 60.5462 0.831332 -5.19591 0
M  V30 742 O 59.5722 0.276822 -5.68526 0
M  V30 743 N 60.7742 2.15132 -5.39165 0
M  V30 744 H 63.5392 -1.00609 -2.82308 0
M  V30 745 H 61.1002 -0.678366 -1.47003 0
M  V30 746 H 63.0922 1.31773 -3.82646 0
M  V30 747 H 61.6622 1.44533 -2.7718 0
M  V30 748 H 60.8822 -0.788359 -3.86236 0
M  V30 749 H 62.1702 -0.555251 -5.05761 0
M  V30 750 H 61.5682 2.62559 -5.01078 0
M  V30 751 H 60.1252 2.6795 -5.94177 0
M  V30 752 N 63.5583 1.46682 -0.576371 0
M  V30 753 C 64.4883 2.33028 0.148397 0
M  V30 754 C 65.4693 1.44961 0.889956 0
M  V30 755 O 66.6543 1.73789 0.866662 0
M  V30 756 C 63.7843 3.27117 1.1667 0
M  V30 757 C 62.7383 4.24575 0.540386 0
M  V30 758 C 62.0643 5.08126 1.6647 0
M  V30 759 C 63.3643 5.19722 -0.518331 0
M  V30 760 H 65.0583 2.93875 -0.572509 0
M  V30 761 H 62.6043 1.41315 -0.276768 0
M  V30 762 H 64.5573 3.86374 1.68204 0
M  V30 763 H 63.2813 2.64364 1.9178 0
M  V30 764 H 61.9403 3.66571 0.0461769 0
M  V30 765 H 61.5883 4.41762 2.40531 0
M  V30 766 H 61.2883 5.74122 1.25131 0
M  V30 767 H 62.8123 5.70246 2.18293 0
M  V30 768 H 64.2263 5.73232 -0.0883058 0
M  V30 769 H 62.6233 5.94026 -0.851679 0
M  V30 770 H 63.6933 4.64037 -1.40703 0
M  V30 771 N 65.0364 0.313813 1.54444 0
M  V30 772 C 65.9834 -0.55655 2.23989 0
M  V30 773 C 66.9534 -1.11943 1.22711 0
M  V30 774 O 68.1384 -1.16158 1.51367 0
M  V30 775 C 65.2784 -1.71635 2.99392 0
M  V30 776 C 64.3914 -1.18364 4.15468 0
M  V30 777 C 63.5264 -2.30834 4.78424 0
M  V30 778 C 62.5654 -1.74762 5.86622 0
M  V30 779 N 61.7024 -2.80855 6.43479 0
M  V30 780 H 66.5424 0.0430893 2.97969 0
M  V30 781 H 64.0794 0.0330359 1.47063 0
M  V30 782 H 66.0374 -2.39868 3.41349 0
M  V30 783 H 64.6674 -2.28742 2.27765 0
M  V30 784 H 63.7194 -0.393163 3.78363 0
M  V30 785 H 65.0314 -0.733262 4.93381 0
M  V30 786 H 64.1854 -3.0699 5.23299 0
M  V30 787 H 62.9244 -2.79204 3.99871 0
M  V30 788 H 61.9294 -0.970995 5.41158 0
M  V30 789 H 63.1544 -1.2728 6.67066 0
M  V30 790 H 61.1004 -3.28535 5.67804 0
M  V30 791 H 61.0174 -2.40351 7.16776 0
M  V30 792 H 62.2854 -3.5687 6.93011 0
M  V30 793 N 66.5145 -1.57545 0.0417849 0
M  V30 794 C 67.7445 -1.96339 -0.642995 0
M  V30 795 C 68.1525 -0.917536 -1.65463 0
M  V30 796 O 67.4955 0.107747 -1.83384 0
M  V30 797 C 67.5575 -3.31333 -1.39494 0
M  V30 798 C 67.2215 -4.53796 -0.540204 0
M  V30 799 C 68.2185 -5.19553 0.189806 0
M  V30 800 C 65.9035 -5.0006 -0.473886 0
M  V30 801 C 67.8975 -6.29904 0.974674 0
M  V30 802 C 65.5845 -6.10289 0.314677 0
M  V30 803 C 66.5825 -6.75072 1.03765 0
M  V30 804 O 66.2705 -7.83183 1.81327 0
M  V30 805 H 66.0025 -0.651241 -0.181277 0
M  V30 806 H 68.5565 -2.05148 0.101665 0
M  V30 807 H 66.7865 -3.19052 -2.18502 0
M  V30 808 H 68.4755 -3.54942 -1.96904 0
M  V30 809 H 69.2415 -4.84774 0.147981 0
M  V30 810 H 65.1205 -4.49433 -1.0262 0
M  V30 811 H 68.6645 -6.80401 1.5395 0
M  V30 812 H 64.5615 -6.44506 0.358174 0
M  V30 813 H 65.3295 -7.99913 1.73438 0
M  V30 814 N 67.9926 0.231505 -1.5589 0
M  V30 815 C 69.4036 0.799327 -1.68724 0
M  V30 816 C 69.7546 1.85398 -0.642022 0
M  V30 817 O 68.8796 2.1539 0.208784 0
M  V30 818 C 69.4746 1.45664 -3.05888 0
M  V30 819 C 68.0336 1.97197 -3.20609 0
M  V30 820 C 67.1806 0.828552 -2.64632 0
M  V30 821 H 70.1316 0.00702616 -1.58698 0
M  V30 822 H 70.1526 2.32517 -3.01191 0
M  V30 823 H 69.6646 0.688808 -3.81939 0
M  V30 824 H 67.7656 2.76813 -2.4941 0
M  V30 825 H 67.8786 2.15878 -4.27707 0
M  V30 826 H 66.2426 1.23321 -2.22854 0
M  V30 827 H 67.0256 0.0735544 -3.43221 0
M  V30 828 N 69.4707 1.49531 0.497807 0
M  V30 829 C 70.4177 1.66436 1.59899 0
M  V30 830 C 71.3877 0.505793 1.58212 0
M  V30 831 O 72.5727 0.733202 1.7615 0
M  V30 832 C 69.7127 1.7399 2.98029 0
M  V30 833 C 68.8257 3.01172 3.09708 0
M  V30 834 C 67.9607 2.99686 4.38591 0
M  V30 835 C 66.9997 4.21434 4.43914 0
M  V30 836 N 66.1367 4.1784 5.64229 0
M  V30 837 H 70.9767 2.60459 1.44793 0
M  V30 838 H 68.5137 1.29137 0.704423 0
M  V30 839 H 70.4717 1.76352 3.78095 0
M  V30 840 H 69.1017 0.834301 3.11832 0
M  V30 841 H 68.1537 3.08408 2.22685 0
M  V30 842 H 69.4657 3.91165 3.09502 0
M  V30 843 H 68.6197 3.00628 5.2698 0
M  V30 844 H 67.3587 2.07477 4.41367 0
M  V30 845 H 66.3637 4.20733 3.53926 0
M  V30 846 H 67.5887 5.14839 4.42851 0
M  V30 847 H 65.5347 3.28469 5.67841 0
M  V30 848 H 65.4517 5.01571 5.65652 0
M  V30 849 H 66.7197 4.22889 6.54817 0
M  V30 850 N 70.9488 -0.749086 1.3866 0
M  V30 851 C 71.8788 -1.8764 1.38973 0
M  V30 852 C 72.8598 -1.68178 0.255004 0
M  V30 853 O 74.0448 -1.88704 0.458754 0
M  V30 854 C 71.1748 -3.25222 1.21851 0
M  V30 855 C 70.1288 -3.59295 2.32575 0
M  V30 856 C 69.4548 -4.95663 2.00555 0
M  V30 857 C 70.7548 -3.63709 3.7485 0
M  V30 858 H 72.4488 -1.87635 2.3331 0
M  V30 859 H 69.9948 -0.901329 1.12303 0
M  V30 860 H 71.9478 -4.03746 1.20695 0
M  V30 861 H 70.6718 -3.25719 0.239775 0
M  V30 862 H 69.3308 -2.83093 2.32925 0
M  V30 863 H 68.9788 -4.92724 1.01154 0
M  V30 864 H 68.6788 -5.19429 2.74714 0
M  V30 865 H 70.2028 -5.7656 2.01024 0
M  V30 866 H 71.6168 -4.32338 3.76506 0
M  V30 867 H 70.0138 -3.98986 4.48252 0
M  V30 868 H 71.0838 -2.63834 4.06841 0
M  V30 869 N 72.4269 -1.23603 -0.977757 0
M  V30 870 C 73.6759 -1.06377 -1.71368 0
M  V30 871 C 73.9889 0.399062 -1.91486 0
M  V30 872 O 75.1949 0.691312 -2.62551 0
M  V30 873 C 73.6509 -1.85512 -3.08404 0
M  V30 874 C 73.2589 -3.36141 -2.96164 0
M  V30 875 C 75.0029 -1.76783 -3.85938 0
M  V30 876 C 72.9099 -4.07659 -4.28449 0
M  V30 877 H 71.8399 -0.394452 -0.642591 0
M  V30 878 H 74.4909 -1.47594 -1.09034 0
M  V30 879 H 72.8729 -1.37103 -3.71509 0
M  V30 880 H 74.0469 -3.92056 -2.42133 0
M  V30 881 H 72.3619 -3.45712 -2.32104 0
M  V30 882 H 74.9589 -2.27526 -4.83876 0
M  V30 883 H 75.3019 -0.731116 -4.0983 0
M  V30 884 H 75.8349 -2.22818 -3.2954 0
M  V30 885 H 72.5739 -5.11648 -4.09752 0
M  V30 886 H 72.0939 -3.5653 -4.82334 0
M  V30 887 H 73.7729 -4.141 -4.97122 0
M  V30 888 N 73.905 1.17692 -1.04816 0
M  V30 889 C 74.835 2.23777 -0.666791 0
M  V30 890 C 75.816 1.66796 0.33361 0
M  V30 891 O 77.001 1.93039 0.212042 0
M  V30 892 C 74.131 3.47281 -0.0367933 0
M  V30 893 C 73.085 4.17059 -0.961546 0
M  V30 894 C 72.411 5.34342 -0.195626 0
M  V30 895 C 73.711 4.69713 -2.28402 0
M  V30 896 H 75.405 2.55933 -1.55367 0
M  V30 897 H 72.951 1.23019 -0.748484 0
M  V30 898 H 74.904 4.20706 0.241775 0
M  V30 899 H 73.628 3.14381 0.885004 0
M  V30 900 H 72.287 3.45541 -1.22462 0
M  V30 901 H 71.935 4.97692 0.728816 0
M  V30 902 H 71.635 5.81966 -0.811775 0
M  V30 903 H 73.159 6.10553 0.0757473 0
M  V30 904 H 74.573 5.34794 -2.06563 0
M  V30 905 H 72.97 5.279 -2.8538 0
M  V30 906 H 74.04 3.86726 -2.92525 0
M  V30 907 N 75.3831 0.828654 1.34056 0
M  V30 908 C 76.7991 0.515135 1.51058 0
M  V30 909 C 76.9991 -0.959581 1.77184 0
M  V30 910 O 76.0551 -1.74382 1.82612 0
M  V30 911 C 77.3681 1.37963 2.67183 0
M  V30 912 C 78.9161 1.37735 2.81066 0
M  V30 913 C 79.3911 2.22645 4.00241 0
M  V30 914 N 80.8821 2.203 4.07458 0
M  V30 915 C 81.6171 2.82744 4.98842 0
M  V30 916 N 81.1131 3.54201 5.9541 0
M  V30 917 N 82.9061 2.72268 4.91759 0
M  V30 918 H 75.0571 1.78343 1.15358 0
M  V30 919 H 77.3201 0.760304 0.566252 0
M  V30 920 H 77.0261 2.42714 2.54525 0
M  V30 921 H 76.9001 1.0484 3.62338 0
M  V30 922 H 79.2871 0.337593 2.93163 0
M  V30 923 H 79.3681 1.74859 1.86703 0
M  V30 924 H 79.0121 3.26674 3.88905 0
M  V30 925 H 78.9421 1.82869 4.93829 0
M  V30 926 H 81.4331 1.68327 3.38341 0
M  V30 927 H 81.7461 3.9908 6.61782 0
M  V30 928 H 80.0911 3.58308 5.95517 0
M  V30 929 H 83.2821 2.16014 4.15278 0
M  V30 930 H 83.4551 3.21219 5.62781 0
M  V30 931 N 76.8612 -1.46375 0.584142 0
M  V30 932 C 77.7712 -2.34115 -0.150728 0
M  V30 933 C 78.7872 -1.49838 -0.884567 0
M  V30 934 O 79.9632 -1.82704 -0.847429 0
M  V30 935 C 77.0282 -3.2705 -1.15062 0
M  V30 936 C 76.0892 -4.27228 -0.421293 0
M  V30 937 C 75.3222 -5.15722 -1.37355 0
M  V30 938 O 75.5452 -5.07176 -2.61014 0
M  V30 939 O 74.4792 -5.95383 -0.883355 0
M  V30 940 H 78.3052 -2.98309 0.569708 0
M  V30 941 H 75.8902 -1.45373 0.344535 0
M  V30 942 H 77.7722 -3.84381 -1.72712 0
M  V30 943 H 76.4472 -2.65451 -1.8525 0
M  V30 944 H 75.3542 -3.7358 0.197085 0
M  V30 945 H 76.6872 -4.91616 0.239641 0
M  V30 946 N 78.3393 -0.321999 -1.54275 0
M  V30 947 C 79.3023 0.531975 -2.22941 0
M  V30 948 C 80.3023 1.04478 -1.22234 0
M  V30 949 O 81.4923 0.937452 -1.46825 0
M  V30 950 C 78.6243 1.73874 -2.93224 0
M  V30 951 H 79.8173 -0.0682612 -2.99822 0
M  V30 952 H 77.3703 -0.0730644 -1.56129 0
M  V30 953 H 78.1053 2.37825 -2.20476 0
M  V30 954 H 77.8903 1.37847 -3.6707 0
M  V30 955 H 79.3803 2.34496 -3.45545 0
M  V30 956 N 79.8174 1.5752 -0.0501392 0
M  V30 957 C 81.0424 1.97376 0.636997 0
M  V30 958 C 81.4674 0.927466 1.63645 0
M  V30 959 O 80.8254 -0.10941 1.8097 0
M  V30 960 C 80.8734 3.36304 1.30123 0
M  V30 961 O 79.9774 3.34156 2.41689 0
M  V30 962 H 79.3184 0.642998 0.165679 0
M  V30 963 H 81.8484 2.04258 -0.118233 0
M  V30 964 H 81.8584 3.73008 1.65315 0
M  V30 965 H 80.5334 4.11993 0.568746 0
M  V30 966 H 79.1104 3.09196 2.08451 0
M  V30 967 N 81.2955 -0.223234 1.56011 0
M  V30 968 C 82.5205 -0.968978 1.83373 0
M  V30 969 C 82.9455 -1.77227 0.630254 0
M  V30 970 O 82.3035 -1.76345 -0.420959 0
M  V30 971 C 82.3515 -1.86363 3.08709 0
M  V30 972 O 81.4555 -2.95873 2.87285 0
M  V30 973 H 80.7965 -0.274461 0.604622 0
M  V30 974 H 83.3265 -0.237056 2.03222 0
M  V30 975 H 83.3365 -2.27376 3.38768 0
M  V30 976 H 82.0115 -1.27319 3.95933 0
M  V30 977 H 80.5885 -2.58818 2.68454 0
M  V30 978 N 82.7736 -1.49793 -0.48987 0
M  V30 979 C 84.0196 -1.60078 -1.24511 0
M  V30 980 C 84.3526 -0.291608 -1.91998 0
M  V30 981 O 83.6276 0.705647 -1.81248 0
M  V30 982 C 83.9106 -2.76791 -2.30345 0
M  V30 983 C 83.7636 -4.17535 -1.67286 0
M  V30 984 C 85.0826 -2.89111 -3.31817 0
M  V30 985 H 82.2016 -0.582645 -0.451324 0
M  V30 986 H 84.8436 -1.82117 -0.541612 0
M  V30 987 H 82.9936 -2.5813 -2.90346 0
M  V30 988 H 84.6656 -4.4774 -1.11026 0
M  V30 989 H 82.9086 -4.22665 -0.976577 0
M  V30 990 H 83.5796 -4.95094 -2.44103 0
M  V30 991 H 86.0556 -3.06133 -2.81819 0
M  V30 992 H 84.9316 -3.72433 -4.03219 0
M  V30 993 H 85.1926 -1.9893 -3.94815 0
M  V30 994 N 84.2517 0.741722 -1.39055 0
M  V30 995 C 85.4767 1.53607 -1.39354 0
M  V30 996 C 85.9017 1.88096 0.0116905 0
M  V30 997 O 85.2597 1.5143 0.996924 0
M  V30 998 C 85.3077 2.80441 -2.26682 0
M  V30 999 O 84.4117 3.76088 -1.69208 0
M  V30 1000 H 83.7527 0.464142 -0.474835 0
M  V30 1001 H 86.2827 0.915665 -1.82967 0
M  V30 1002 H 86.2927 3.29246 -2.40959 0
M  V30 1003 H 84.9677 2.5467 -3.2881 0
M  V30 1004 H 83.5447 3.34833 -1.64138 0
M  V30 1005 N 85.7298 1.2412 0.971189 0
M  V30 1006 C 86.6398 1.04747 2.09917 0
M  V30 1007 C 87.6558 -0.0107162 1.73997 0
M  V30 1008 O 88.8318 0.186714 2.00533 0
M  V30 1009 C 85.8968 0.650828 3.40537 0
M  V30 1010 C 84.9578 1.7851 3.90426 0
M  V30 1011 C 84.1908 1.40729 5.14812 0
M  V30 1012 O 84.4138 0.29557 5.69634 0
M  V30 1013 O 83.3478 2.23168 5.58999 0
M  V30 1014 H 87.1738 1.99304 2.29154 0
M  V30 1015 H 84.7588 1.02908 1.08307 0
M  V30 1016 H 86.6408 0.440992 4.19086 0
M  V30 1017 H 85.3158 -0.265649 3.22608 0
M  V30 1018 H 84.2228 2.04966 3.12953 0
M  V30 1019 H 85.5558 2.68023 4.12825 0
M  V30 1020 N 87.2079 -1.17134 1.05439 0
M  V30 1021 C 88.1179 -2.24878 0.668365 0
M  V30 1022 C 89.1339 -1.71186 -0.311687 0
M  V30 1023 O 90.3099 -2.00738 -0.163161 0
M  V30 1024 C 87.3749 -3.46662 0.051648 0
M  V30 1025 C 86.4359 -4.15429 1.08246 0
M  V30 1026 C 85.6689 -5.31399 0.495082 0
M  V30 1027 O 85.8919 -5.66153 -0.694743 0
M  V30 1028 O 84.8259 -5.89187 1.23056 0
M  V30 1029 H 88.6519 -2.60189 1.56637 0
M  V30 1030 H 86.2369 -1.24482 0.826104 0
M  V30 1031 H 88.1189 -4.20394 -0.290966 0
M  V30 1032 H 86.7939 -3.13142 -0.819971 0
M  V30 1033 H 85.7009 -3.43704 1.47711 0
M  V30 1034 H 87.0339 -4.52982 1.92532 0
M  V30 1035 N 88.686 -0.835752 -1.33615 0
M  V30 1036 C 89.616 -0.281739 -2.31794 0
M  V30 1037 C 90.597 0.608833 -1.58831 0
M  V30 1038 O 91.782 0.533035 -1.86741 0
M  V30 1039 C 88.912 0.546612 -3.42971 0
M  V30 1040 C 87.866 -0.247904 -4.27281 0
M  V30 1041 C 87.192 0.704001 -5.30045 0
M  V30 1042 C 88.492 -1.46324 -5.01385 0
M  V30 1043 H 90.186 -1.10206 -2.78379 0
M  V30 1044 H 87.732 -0.531388 -1.33837 0
M  V30 1045 H 89.685 0.944467 -4.1068 0
M  V30 1046 H 88.409 1.40011 -2.95067 0
M  V30 1047 H 87.068 -0.627281 -3.61194 0
M  V30 1048 H 86.716 1.55381 -4.78399 0
M  V30 1049 H 86.416 0.176524 -5.87335 0
M  V30 1050 H 87.94 1.09944 -6.0062 0
M  V30 1051 H 89.354 -1.13871 -5.61877 0
M  V30 1052 H 87.751 -1.92728 -5.6831 0
M  V30 1053 H 88.821 -2.23467 -4.30338 0
M  V30 1054 N 90.1641 1.46063 -0.591896 0
M  V30 1055 C 91.1141 2.27458 0.157172 0
M  V30 1056 C 92.0981 1.3641 0.853301 0
M  V30 1057 O 93.2901 1.60517 0.74588 0
M  V30 1058 C 90.4191 3.22956 1.16423 0
M  V30 1059 C 89.5051 4.2149 0.469742 0
M  V30 1060 N 89.8961 5.03519 -0.479839 0
M  V30 1061 C 88.1941 4.40161 0.719319 0
M  V30 1062 C 88.8951 5.74904 -0.886591 0
M  V30 1063 N 87.8711 5.43097 -0.233731 0
M  V30 1064 H 91.6731 2.88272 -0.572392 0
M  V30 1065 H 89.1871 1.57024 -0.414375 0
M  V30 1066 H 91.1841 3.79986 1.71513 0
M  V30 1067 H 89.8441 2.63701 1.89451 0
M  V30 1068 H 90.8551 5.1078 -0.855823 0
M  V30 1069 H 87.5321 3.92046 1.43548 0
M  V30 1070 H 88.9221 6.50844 -1.66888 0
M  V30 1071 N 91.6422 0.330177 1.54103 0
M  V30 1072 C 92.5892 -0.532762 2.24567 0
M  V30 1073 C 93.5592 -1.10635 1.23892 0
M  V30 1074 O 94.7442 -1.14546 1.5259 0
M  V30 1075 C 91.8842 -1.6845 3.01195 0
M  V30 1076 C 90.9972 -1.13951 4.167 0
M  V30 1077 C 90.1322 -2.25746 4.80845 0
M  V30 1078 C 89.1712 -1.6853 5.88442 0
M  V30 1079 N 88.3082 -2.74014 6.46421 0
M  V30 1080 H 93.1482 0.0746905 2.97906 0
M  V30 1081 H 90.6852 0.048632 1.4702 0
M  V30 1082 H 92.6432 -2.36234 3.43874 0
M  V30 1083 H 91.2732 -2.26314 2.30178 0
M  V30 1084 H 90.3252 -0.35301 3.78758 0
M  V30 1085 H 91.6372 -0.680892 4.94131 0
M  V30 1086 H 90.7912 -3.01422 5.26526 0
M  V30 1087 H 89.5302 -2.74947 4.0281 0
M  V30 1088 H 88.5352 -0.913543 5.42157 0
M  V30 1089 H 89.7602 -1.20198 6.68378 0
M  V30 1090 H 87.7062 -3.22494 5.71256 0
M  V30 1091 H 87.6232 -2.32735 7.19285 0
M  V30 1092 H 88.8912 -3.49499 6.96757 0
M  V30 1093 N 93.1203 -1.57491 0.0584922 0
M  V30 1094 C 94.0303 -2.15448 -0.928414 0
M  V30 1095 C 95.0463 -1.11416 -1.3365 0
M  V30 1096 O 96.2223 -1.4362 -1.41193 0
M  V30 1097 C 93.2873 -2.69393 -2.18239 0
M  V30 1098 C 92.3483 -3.88249 -1.83196 0
M  V30 1099 C 91.5813 -4.39613 -3.02616 0
M  V30 1100 O 91.8043 -3.90023 -4.16219 0
M  V30 1101 O 90.7383 -5.31111 -2.83204 0
M  V30 1102 H 94.5643 -3.00112 -0.465483 0
M  V30 1103 H 92.1493 -1.48499 -0.163826 0
M  V30 1104 H 94.0313 -3.04026 -2.91798 0
M  V30 1105 H 92.7063 -1.87796 -2.63656 0
M  V30 1106 H 91.6133 -3.58492 -1.06931 0
M  V30 1107 H 92.9463 -4.71098 -1.42573 0
M  V30 1108 N 94.5984 0.214957 -1.56127 0
M  V30 1109 C 95.8444 0.939762 -1.79712 0
M  V30 1110 C 96.1774 1.83723 -0.629247 0
M  V30 1111 O 95.4524 1.90925 0.371197 0
M  V30 1112 C 95.7354 1.77306 -3.13424 0
M  V30 1113 C 95.5884 0.90164 -4.40671 0
M  V30 1114 C 96.9074 2.74956 -3.43638 0
M  V30 1115 H 94.0264 0.340214 -0.653776 0
M  V30 1116 H 96.6684 0.20824 -1.88855 0
M  V30 1117 H 94.8184 2.39673 -3.0576 0
M  V30 1118 H 96.4904 0.294206 -4.60361 0
M  V30 1119 H 94.7334 0.207368 -4.33304 0
M  V30 1120 H 95.4044 1.51923 -5.30682 0
M  V30 1121 H 97.8804 2.22724 -3.51473 0
M  V30 1122 H 96.7564 3.30358 -4.38355 0
M  V30 1123 H 97.0174 3.53023 -2.66134 0
M  V30 1124 N 96.0765 1.50051 0.48192 0
M  V30 1125 C 97.0085 1.64263 1.59844 0
M  V30 1126 C 98.0215 0.52451 1.54119 0
M  V30 1127 O 99.2105 0.797293 1.59704 0
M  V30 1128 C 96.3105 1.60102 2.98698 0
M  V30 1129 C 95.4835 2.87767 3.29407 0
M  V30 1130 C 94.5425 2.76397 4.47762 0
M  V30 1131 O 93.5685 3.50348 4.48603 0
M  V30 1132 N 94.7705 1.89222 5.48794 0
M  V30 1133 H 97.5355 2.60566 1.48073 0
M  V30 1134 H 95.0965 1.47379 0.670149 0
M  V30 1135 H 97.0885 1.50123 3.75826 0
M  V30 1136 H 95.6585 0.715798 3.04294 0
M  V30 1137 H 94.8785 3.11954 2.40994 0
M  V30 1138 H 96.1665 3.72365 3.4673 0
M  V30 1139 H 95.5645 1.28434 5.50928 0
M  V30 1140 H 94.1215 1.85154 6.24949 0
M  V30 1141 N 97.5546 -0.734337 1.39446 0
M  V30 1142 C 98.4646 -1.87879 1.40495 0
M  V30 1143 C 99.4806 -1.714 0.299672 0
M  V30 1144 O 100.657 -1.93991 0.541249 0
M  V30 1145 C 97.7216 -3.23477 1.24754 0
M  V30 1146 C 96.7826 -3.52344 2.45259 0
M  V30 1147 C 96.0156 -4.81473 2.30259 0
M  V30 1148 O 96.2386 -5.55237 1.30643 0
M  V30 1149 O 95.1726 -5.10254 3.19256 0
M  V30 1150 H 98.9986 -1.89949 2.36966 0
M  V30 1151 H 96.5836 -0.882243 1.20569 0
M  V30 1152 H 98.4656 -4.04509 1.18111 0
M  V30 1153 H 97.1406 -3.22176 0.313781 0
M  V30 1154 H 96.0476 -2.71396 2.57478 0
M  V30 1155 H 97.3806 -3.58426 3.37331 0
M  V30 1156 N 99.0327 -1.24633 -0.964593 0
M  V30 1157 C 99.9957 -1.0424 -2.04124 0
M  V30 1158 C 100.996 0.00137563 -1.608 0
M  V30 1159 O 102.186 -0.239883 -1.7254 0
M  V30 1160 C 99.3177 -0.580588 -3.3592 0
M  V30 1161 H 100.511 -1.99803 -2.23649 0
M  V30 1162 H 98.0637 -1.06899 -1.14027 0
M  V30 1163 H 98.7987 0.3781 -3.22088 0
M  V30 1164 H 98.5837 -1.33398 -3.6871 0
M  V30 1165 H 100.074 -0.459034 -4.15069 0
M  V30 1166 N 100.511 1.16574 -1.06058 0
M  V30 1167 C 101.758 1.87047 -0.775873 0
M  V30 1168 C 102.086 1.81562 0.697534 0
M  V30 1169 O 101.341 1.22445 1.52662 0
M  V30 1170 C 101.64 3.36195 -1.21275 0
M  V30 1171 C 101.306 3.6188 -2.68986 0
M  V30 1172 C 99.9678 3.68599 -3.09335 0
M  V30 1173 C 102.32 3.72648 -3.64394 0
M  V30 1174 C 99.6478 3.83584 -4.43937 0
M  V30 1175 C 102 3.89154 -4.98741 0
M  V30 1176 C 100.664 3.94114 -5.3873 0
M  V30 1177 H 99.9338 0.684452 -0.283912 0
M  V30 1178 H 102.581 1.37853 -1.32925 0
M  V30 1179 H 100.886 3.87505 -0.578528 0
M  V30 1180 H 102.583 3.89103 -0.969542 0
M  V30 1181 H 99.1728 3.57281 -2.36744 0
M  V30 1182 H 103.357 3.66769 -3.34356 0
M  V30 1183 H 98.6128 3.85677 -4.74409 0
M  V30 1184 H 102.787 3.96427 -5.72554 0
M  V30 1185 H 100.414 4.05478 -6.43033 0
M  V30 1186 N 101.989 0.842826 1.3317 0
M  V30 1187 C 102.919 0.294028 2.31641 0
M  V30 1188 C 103.9 -0.600401 1.59151 0
M  V30 1189 O 105.085 -0.523124 1.87022 0
M  V30 1190 C 102.215 -0.528416 3.43257 0
M  V30 1191 C 101.169 0.27056 4.27144 0
M  V30 1192 C 100.495 -0.675881 5.30411 0
M  V30 1193 C 101.795 1.48981 5.00602 0
M  V30 1194 H 103.489 1.11681 2.77791 0
M  V30 1195 H 101.035 0.538478 1.33553 0
M  V30 1196 H 102.988 -0.922674 4.11175 0
M  V30 1197 H 101.712 -1.38445 2.95805 0
M  V30 1198 H 100.371 0.646427 3.60856 0
M  V30 1199 H 100.019 -1.52842 4.79216 0
M  V30 1200 H 99.7189 -0.145374 5.8742 0
M  V30 1201 H 101.243 -1.06757 6.01195 0
M  V30 1202 H 102.657 1.16849 5.61266 0
M  V30 1203 H 101.054 1.95739 5.6728 0
M  V30 1204 H 102.124 2.25746 4.29147 0
M  V30 1205 N 103.467 -1.45747 0.599634 0
M  V30 1206 C 104.695 -2.06668 0.0978551 0
M  V30 1207 C 105.11 -1.44562 -1.21439 0
M  V30 1208 O 104.467 -0.556923 -1.73795 0
M  V30 1209 C 104.518 -3.61456 -0.0567044 0
M  V30 1210 O 104.239 -4.21242 1.20361 0
M  V30 1211 C 105.74 -4.39345 -0.590869 0
M  V30 1212 H 102.96 -0.667825 0.0651943 0
M  V30 1213 H 105.504 -1.87115 0.82511 0
M  V30 1214 H 103.659 -3.80378 -0.734251 0
M  V30 1215 H 104.073 -5.14323 1.02821 0
M  V30 1216 H 105.547 -5.48182 -0.648131 0
M  V30 1217 H 106.024 -4.08568 -1.61147 0
M  V30 1218 H 106.63 -4.25268 0.0523679 0
M  V30 1219 N 104.945 -0.338344 -1.53925 0
M  V30 1220 C 105.875 0.51328 -2.27789 0
M  V30 1221 C 106.856 1.107 -1.29149 0
M  V30 1222 O 108.041 1.12937 -1.57984 0
M  V30 1223 C 105.171 1.66697 -3.04679 0
M  V30 1224 C 104.125 1.20183 -4.1078 0
M  V30 1225 C 103.451 2.44363 -4.75595 0
M  V30 1226 C 104.751 0.30605 -5.21403 0
M  V30 1227 H 106.445 -0.102883 -2.99223 0
M  V30 1228 H 103.991 -0.0509219 -1.4391 0
M  V30 1229 H 105.944 2.26915 -3.55088 0
M  V30 1230 H 104.668 2.30995 -2.30887 0
M  V30 1231 H 103.327 0.622499 -3.61276 0
M  V30 1232 H 102.975 3.07057 -3.98403 0
M  V30 1233 H 102.675 2.13925 -5.47275 0
M  V30 1234 H 104.199 3.05317 -5.28786 0
M  V30 1235 H 105.613 0.814929 -5.67478 0
M  V30 1236 H 104.01 0.0937929 -6.00027 0
M  V30 1237 H 105.08 -0.65921 -4.80398 0
M  V30 1238 N 106.423 1.57458 -0.0668435 0
M  V30 1239 C 107.373 2.0896 0.912119 0
M  V30 1240 C 108.357 0.998186 1.26195 0
M  V30 1241 O 109.549 1.26133 1.24175 0
M  V30 1242 C 106.678 2.6508 2.18145 0
M  V30 1243 C 105.764 3.81218 1.85832 0
M  V30 1244 N 106.155 4.90378 1.23948 0
M  V30 1245 C 104.453 3.9042 2.15612 0
M  V30 1246 C 105.154 5.71279 1.09616 0
M  V30 1247 N 104.13 5.19389 1.60423 0
M  V30 1248 H 107.932 2.90749 0.42924 0
M  V30 1249 H 105.446 1.6182 0.137184 0
M  V30 1250 H 107.443 3.0029 2.89192 0
M  V30 1251 H 106.103 1.84736 2.67025 0
M  V30 1252 H 107.114 5.09847 0.909731 0
M  V30 1253 H 103.791 3.21043 2.66903 0
M  V30 1254 H 105.181 6.69085 0.614425 0
M  V30 1255 N 107.901 -0.206675 1.56239 0
M  V30 1256 C 108.848 -1.25617 1.93621 0
M  V30 1257 C 109.818 -1.45824 0.795274 0
M  V30 1258 O 111.003 -1.59148 1.05245 0
M  V30 1259 C 108.143 -2.59839 2.27107 0
M  V30 1260 C 107.256 -2.47308 3.54207 0
M  V30 1261 C 106.391 -3.74155 3.7707 0
M  V30 1262 C 105.43 -3.56407 4.97635 0
M  V30 1263 N 104.567 -4.75238 5.1681 0
M  V30 1264 H 109.407 -0.930383 2.83104 0
M  V30 1265 H 106.944 -0.448065 1.4011 0
M  V30 1266 H 108.902 -3.38021 2.44535 0
M  V30 1267 H 107.532 -2.90485 1.40778 0
M  V30 1268 H 106.584 -1.60483 3.4489 0
M  V30 1269 H 107.896 -2.30122 4.42544 0
M  V30 1270 H 107.05 -4.60778 3.94675 0
M  V30 1271 H 105.789 -3.94282 2.87042 0
M  V30 1272 H 104.794 -2.68168 4.79964 0
M  V30 1273 H 106.019 -3.37736 5.89161 0
M  V30 1274 H 103.965 -4.95651 4.29728 0
M  V30 1275 H 103.882 -4.60835 5.99306 0
M  V30 1276 H 105.15 -5.63246 5.38864 0
M  V30 1277 N 109.379 -1.50304 -0.473955 0
M  V30 1278 C 110.329 -1.65347 -1.56985 0
M  V30 1279 C 111.313 -0.508176 -1.52664 0
M  V30 1280 O 112.505 -0.762446 -1.59737 0
M  V30 1281 C 109.634 -1.74832 -2.95447 0
M  V30 1282 C 108.72 -2.95028 -3.04662 0
M  V30 1283 N 109.111 -4.18747 -2.83698 0
M  V30 1284 C 107.409 -2.93527 -3.35795 0
M  V30 1285 C 108.11 -4.99687 -2.97805 0
M  V30 1286 N 107.086 -4.33585 -3.2788 0
M  V30 1287 H 110.888 -2.58698 -1.39472 0
M  V30 1288 H 108.402 -1.47449 -0.680629 0
M  V30 1289 H 110.399 -1.83712 -3.7424 0
M  V30 1290 H 109.059 -0.826376 -3.14008 0
M  V30 1291 H 110.07 -4.48291 -2.59337 0
M  V30 1292 H 106.747 -2.10821 -3.60362 0
M  V30 1293 H 108.137 -6.08057 -2.85861 0
M  V30 1294 N 110.857 0.726932 -1.39834 0
M  V30 1295 C 112.105 1.4837 -1.37225 0
M  V30 1296 C 112.426 1.94979 0.0284857 0
M  V30 1297 O 111.696 1.69555 0.981213 0
M  V30 1298 H 110.276 0.55043 -0.505011 0
M  V30 1299 H 112.938 0.862468 -1.74778 0
M  V30 1300 H 112.034 2.36198 -2.04003 0
M  V30 1301 N 112.336 1.25143 0.95797 0
M  V30 1302 C 113.576 1.10893 1.71703 0
M  V30 1303 C 113.94 -0.34478 1.88879 0
M  V30 1304 O 115.141 -0.609014 2.6181 0
M  V30 1305 C 113.412 1.83889 3.06463 0
M  V30 1306 S 114.971 1.85491 3.97666 0
M  V30 1307 H 111.789 0.396428 0.590226 0
M  V30 1308 H 114.391 1.58618 1.14283 0
M  V30 1309 H 113.095 2.88756 2.9163 0
M  V30 1310 H 112.626 1.36538 3.68946 0
M  V30 1311 H 114.641 0.929553 4.87415 0
M  V30 1312 N 113.814 -1.1601 1.06675 0
M  V30 1313 C 114.744 -2.22688 0.702307 0
M  V30 1314 C 115.725 -1.67306 -0.307032 0
M  V30 1315 O 116.91 -1.93352 -0.181305 0
M  V30 1316 C 114.04 -3.47178 0.092038 0
M  V30 1317 C 112.994 -4.15477 1.02777 0
M  V30 1318 C 112.32 -5.33963 0.28061 0
M  V30 1319 C 113.62 -4.66019 2.35846 0
M  V30 1320 H 115.314 -2.53429 1.59419 0
M  V30 1321 H 112.86 -1.21813 0.767961 0
M  V30 1322 H 114.813 -4.21037 -0.174814 0
M  V30 1323 H 113.537 -3.15749 -0.834877 0
M  V30 1324 H 112.196 -3.43549 1.27944 0
M  V30 1325 H 111.844 -4.98788 -0.649545 0
M  V30 1326 H 111.544 -5.806 0.904258 0
M  V30 1327 H 113.068 -6.10596 0.021396 0
M  V30 1328 H 114.482 -5.3144 2.15045 0
M  V30 1329 H 112.879 -5.23293 2.93743 0
M  V30 1330 H 113.949 -3.82023 2.98641 0
M  V30 1331 N 115.292 -0.849877 -1.32721 0
M  V30 1332 C 116.539 -0.450923 -1.97416 0
M  V30 1333 C 116.867 0.992376 -1.67279 0
M  V30 1334 O 116.122 1.71048 -0.950845 0
M  V30 1335 C 116.421 -0.631272 -3.51781 0
M  V30 1336 C 116.087 -2.04432 -4.01894 0
M  V30 1337 C 114.749 -2.4308 -4.1529 0
M  V30 1338 C 117.101 -2.96679 -4.28522 0
M  V30 1339 C 114.429 -3.73257 -4.52654 0
M  V30 1340 C 116.781 -4.26349 -4.67343 0
M  V30 1341 C 115.445 -4.64939 -4.78945 0
M  V30 1342 H 114.715 -0.165004 -0.722395 0
M  V30 1343 H 117.362 -1.07901 -1.58207 0
M  V30 1344 H 115.667 0.0800767 -3.91718 0
M  V30 1345 H 117.364 -0.302709 -3.99856 0
M  V30 1346 H 113.954 -1.73419 -3.91949 0
M  V30 1347 H 118.138 -2.68054 -4.17685 0
M  V30 1348 H 113.394 -4.02946 -4.59831 0
M  V30 1349 H 117.568 -4.97895 -4.86902 0
M  V30 1350 H 115.195 -5.65855 -5.07654 0
M  V30 1351 N 116.77 1.45427 -0.607355 0
M  V30 1352 C 118.186 1.57283 -0.270985 0
M  V30 1353 C 118.386 1.59875 1.22647 0
M  V30 1354 O 117.442 1.52893 2.00948 0
M  V30 1355 C 118.755 2.85566 -0.941952 0
M  V30 1356 C 120.303 2.9924 -0.917849 0
M  V30 1357 C 120.778 4.30293 -1.56882 0
M  V30 1358 N 122.269 4.37051 -1.5343 0
M  V30 1359 C 123.004 5.37123 -2.00715 0
M  V30 1360 N 122.5 6.43734 -2.56084 0
M  V30 1361 N 124.293 5.28479 -1.91484 0
M  V30 1362 H 116.444 1.41988 -1.57966 0
M  V30 1363 H 118.707 0.67885 -0.661715 0
M  V30 1364 H 118.413 2.8955 -1.99633 0
M  V30 1365 H 118.287 3.74322 -0.465096 0
M  V30 1366 H 120.674 2.94822 0.127984 0
M  V30 1367 H 120.755 2.11895 -1.43297 0
M  V30 1368 H 120.399 4.35469 -2.61398 0
M  V30 1369 H 120.329 5.16454 -1.02873 0
M  V30 1370 H 122.82 3.60615 -1.12982 0
M  V30 1371 H 123.133 7.16341 -2.89958 0
M  V30 1372 H 121.478 6.44485 -2.60122 0
M  V30 1373 H 124.669 4.44098 -1.47967 0
M  V30 1374 H 124.842 6.0632 -2.28648 0
M  V30 1375 N 118.248 0.346503 1.53744 0
M  V30 1376 C 119.525 -0.304532 1.93215 0
M  V30 1377 C 119.905 -1.67993 1.27834 0
M  V30 1378 O 119.253 -2.24411 0.430352 0
M  V30 1379 C 119.463 -0.373852 3.46992 0
M  V30 1380 C 120.811 -0.62329 4.2 0
M  V30 1381 O 121.835 -0.455847 3.53271 0
M  V30 1382 O 120.694 -0.947879 5.38217 0
M  V30 1383 H 117.788 -0.178318 0.807547 0
M  V30 1384 H 120.334 0.397895 1.64969 0
M  V30 1385 H 119.106 0.591224 3.86808 0
M  V30 1386 H 118.729 -1.12294 3.81413 0
M  V30 1387 N 119.726 -1.57421 0.075193 0
M  V30 1388 C 120.656 -2.15942 -0.888324 0
M  V30 1389 C 121.637 -1.08737 -1.30806 0
M  V30 1390 O 122.822 -1.36787 -1.37851 0
M  V30 1391 C 119.952 -2.72379 -2.1547 0
M  V30 1392 C 118.906 -3.8478 -1.87425 0
M  V30 1393 C 118.232 -4.27834 -3.20721 0
M  V30 1394 C 119.532 -5.08869 -1.17684 0
M  V30 1395 H 121.226 -2.96705 -0.400799 0
M  V30 1396 H 118.772 -1.42723 -0.191342 0
M  V30 1397 H 120.725 -3.11965 -2.83295 0
M  V30 1398 H 119.449 -1.88841 -2.6647 0
M  V30 1399 H 118.108 -3.45703 -1.22004 0
M  V30 1400 H 117.756 -3.41214 -3.6957 0
M  V30 1401 H 117.456 -5.03605 -3.02746 0
M  V30 1402 H 118.98 -4.70039 -3.89738 0
M  V30 1403 H 120.394 -5.4575 -1.75584 0
M  V30 1404 H 118.791 -5.8994 -1.09956 0
M  V30 1405 H 119.861 -4.84648 -0.156453 0
M  V30 1406 N 121.204 0.198386 -1.56346 0
M  V30 1407 C 122.45 0.920648 -1.80698 0
M  V30 1408 C 122.783 1.83045 -0.648697 0
M  V30 1409 O 122.058 1.91308 0.350925 0
M  V30 1410 C 122.341 1.73971 -3.15287 0
M  V30 1411 C 122.194 0.85485 -4.41602 0
M  V30 1412 C 123.513 2.71296 -3.46535 0
M  V30 1413 H 120.632 0.333261 -0.657348 0
M  V30 1414 H 123.274 0.188198 -1.89066 0
M  V30 1415 H 121.424 2.36416 -3.08285 0
M  V30 1416 H 123.096 0.245362 -4.60647 0
M  V30 1417 H 121.339 0.161398 -4.335 0
M  V30 1418 H 122.01 1.46286 -5.32264 0
M  V30 1419 H 124.486 2.18983 -3.53816 0
M  V30 1420 H 123.362 3.2569 -4.41834 0
M  V30 1421 H 123.623 3.5018 -2.69864 0
M  V30 1422 N 122.682 1.50554 0.465978 0
M  V30 1423 C 124.098 1.38093 0.800154 0
M  V30 1424 C 124.298 0.440988 1.96615 0
M  V30 1425 O 123.354 -0.114499 2.5224 0
M  V30 1426 C 124.667 2.79565 1.10742 0
M  V30 1427 C 126.215 2.88516 1.21357 0
M  V30 1428 C 126.69 4.30833 1.55393 0
M  V30 1429 N 128.181 4.33807 1.62375 0
M  V30 1430 C 128.916 5.40927 1.90225 0
M  V30 1431 N 128.412 6.58247 2.16062 0
M  V30 1432 N 130.205 5.28376 1.9177 0
M  V30 1433 H 122.356 2.10237 -0.302366 0
M  V30 1434 H 124.619 0.945203 -0.0727746 0
M  V30 1435 H 124.325 3.50208 0.323661 0
M  V30 1436 H 124.199 3.17125 2.04234 0
M  V30 1437 H 126.586 2.1809 1.98799 0
M  V30 1438 H 126.667 2.54492 0.258321 0
M  V30 1439 H 126.311 5.01799 0.784889 0
M  V30 1440 H 126.241 4.62347 2.52076 0
M  V30 1441 H 128.732 3.49212 1.44427 0
M  V30 1442 H 129.045 7.3569 2.36601 0
M  V30 1443 H 127.39 6.61413 2.13444 0
M  V30 1444 H 130.581 4.35715 1.71085 0
M  V30 1445 H 130.754 6.11944 2.13139 0
M  V30 1446 N 124.16 -0.719506 1.40217 0
M  V30 1447 C 125.409 -1.47486 1.37589 0
M  V30 1448 C 125.722 -1.9559 -0.0201568 0
M  V30 1449 O 126.928 -2.70973 -0.169049 0
M  V30 1450 C 125.384 -2.66575 2.41796 0
M  V30 1451 C 124.992 -2.25358 3.87192 0
M  V30 1452 C 126.736 -3.4433 2.48269 0
M  V30 1453 C 124.643 -3.41262 4.83005 0
M  V30 1454 H 123.573 -0.553901 0.511576 0
M  V30 1455 H 126.224 -0.783427 1.65936 0
M  V30 1456 H 124.606 -3.3787 2.06543 0
M  V30 1457 H 125.78 -1.61509 4.31569 0
M  V30 1458 H 124.095 -1.60657 3.84159 0
M  V30 1459 H 126.692 -4.30569 3.17041 0
M  V30 1460 H 127.035 -3.87872 1.51198 0
M  V30 1461 H 127.568 -2.80076 2.82493 0
M  V30 1462 H 124.307 -3.02755 5.81394 0
M  V30 1463 H 123.827 -4.0404 4.43297 0
M  V30 1464 H 125.506 -4.07383 5.02641 0
M  V30 1465 N 125.638 -1.25649 -0.95132 0
M  V30 1466 C 126.57 -1.02112 -2.05197 0
M  V30 1467 C 127.583 0.0150571 -1.62793 0
M  V30 1468 O 128.772 -0.223874 -1.77091 0
M  V30 1469 C 125.872 -0.522361 -3.3485 0
M  V30 1470 C 125.045 -1.62546 -4.06076 0
M  V30 1471 C 124.104 -1.12649 -5.14001 0
M  V30 1472 O 123.13 -1.82156 -5.39266 0
M  V30 1473 N 124.332 0.03047 -5.80492 0
M  V30 1474 H 127.097 -1.96885 -2.25957 0
M  V30 1475 H 124.658 -1.16899 -1.1201 0
M  V30 1476 H 126.65 -0.172961 -4.0433 0
M  V30 1477 H 125.22 0.33151 -3.10837 0
M  V30 1478 H 124.44 -2.14628 -3.30649 0
M  V30 1479 H 125.728 -2.36644 -4.50419 0
M  V30 1480 H 125.126 0.611169 -5.62389 0
M  V30 1481 H 123.683 0.320875 -6.5101 0
M  V30 1482 N 127.117 1.15442 -1.07289 0
M  V30 1483 C 128.365 1.85845 -0.794096 0
M  V30 1484 C 128.686 1.82692 0.681809 0
M  V30 1485 O 127.956 1.26741 1.49377 0
M  V30 1486 H 126.536 0.688089 -0.290763 0
M  V30 1487 H 129.198 1.39947 -1.3565 0
M  V30 1488 H 128.294 2.91001 -1.12804 0
M  V30 1489 N 128.595 0.856903 1.32268 0
M  V30 1490 C 129.542 0.301172 2.28827 0
M  V30 1491 C 130.512 -0.593104 1.5515 0
M  V30 1492 O 131.697 -0.527537 1.83362 0
M  V30 1493 C 128.837 -0.502523 3.41422 0
M  V30 1494 C 127.95 0.417797 4.29975 0
M  V30 1495 C 127.085 -0.398749 5.29701 0
M  V30 1496 C 126.124 0.518827 6.09897 0
M  V30 1497 N 125.261 -0.260674 7.01616 0
M  V30 1498 H 130.101 1.12983 2.75751 0
M  V30 1499 H 127.638 0.568582 1.35667 0
M  V30 1500 H 129.596 -0.984141 4.05426 0
M  V30 1501 H 128.226 -1.29599 2.95642 0
M  V30 1502 H 127.278 1.01781 3.66531 0
M  V30 1503 H 128.59 1.12191 4.86019 0
M  V30 1504 H 127.744 -0.943435 5.9932 0
M  V30 1505 H 126.483 -1.13622 4.7428 0
M  V30 1506 H 125.488 1.07538 5.39181 0
M  V30 1507 H 126.713 1.25495 6.67404 0
M  V30 1508 H 124.659 -0.981198 6.4862 0
M  V30 1509 H 124.576 0.384364 7.55022 0
M  V30 1510 H 125.844 -0.787014 7.75517 0
M  V30 1511 N 130.073 -1.45103 0.615059 0
M  V30 1512 C 131.35 -1.95549 0.0448276 0
M  V30 1513 C 131.73 -1.55737 -1.4251 0
M  V30 1514 O 131.078 -0.823556 -2.13143 0
M  V30 1515 C 131.288 -3.48098 0.250785 0
M  V30 1516 C 132.636 -4.24384 0.135509 0
M  V30 1517 O 133.66 -3.55738 0.181299 0
M  V30 1518 O 132.519 -5.46493 0.0268878 0
M  V30 1519 H 129.613 -0.8264 -0.0314845 0
M  V30 1520 H 132.159 -1.55232 0.685642 0
M  V30 1521 H 130.931 -3.7007 1.27139 0
M  V30 1522 H 130.554 -3.95323 -0.424937 0
M  V30 1523 N 131.551 -0.354651 -1.53558 0
M  V30 1524 C 132.481 0.489091 -2.2832 0
M  V30 1525 C 133.462 1.09324 -1.30316 0
M  V30 1526 O 134.647 1.11255 -1.59173 0
M  V30 1527 C 131.777 1.63456 -3.0643 0
M  V30 1528 C 130.731 1.1582 -4.12031 0
M  V30 1529 C 130.057 2.39305 -4.7816 0
M  V30 1530 C 131.357 0.250731 -5.21698 0
M  V30 1531 H 133.051 -0.134614 -2.99097 0
M  V30 1532 H 130.597 -0.0661826 -1.43848 0
M  V30 1533 H 132.55 2.23136 -3.57475 0
M  V30 1534 H 131.274 2.28533 -2.33325 0
M  V30 1535 H 129.933 0.584146 -3.61916 0
M  V30 1536 H 129.581 3.02814 -4.01637 0
M  V30 1537 H 129.281 2.08109 -5.49513 0
M  V30 1538 H 130.805 2.99691 -5.31994 0
M  V30 1539 H 132.219 0.754695 -5.68311 0
M  V30 1540 H 130.616 0.0301468 -6.00092 0
M  V30 1541 H 131.686 -0.710125 -4.79672 0
M  V30 1542 N 133.029 1.57378 -0.0835403 0
M  V30 1543 C 133.959 2.1641 0.87686 0
M  V30 1544 C 134.94 1.09429 1.30228 0
M  V30 1545 O 136.125 1.37516 1.37124 0
M  V30 1546 C 133.255 2.73517 2.14022 0
M  V30 1547 C 132.209 3.85769 1.85381 0
M  V30 1548 C 131.535 4.29529 3.18448 0
M  V30 1549 C 132.835 5.09486 1.14984 0
M  V30 1550 H 134.529 2.96914 0.385059 0
M  V30 1551 H 132.075 1.42823 0.18377 0
M  V30 1552 H 134.028 3.13463 2.81636 0
M  V30 1553 H 132.752 1.90252 2.65465 0
M  V30 1554 H 131.411 3.46345 1.20169 0
M  V30 1555 H 131.059 3.43169 3.67755 0
M  V30 1556 H 130.759 5.05204 3.00071 0
M  V30 1557 H 132.283 4.72099 3.8724 0
M  V30 1558 H 133.697 5.46674 1.72687 0
M  V30 1559 H 132.094 5.90515 1.06826 0
M  V30 1560 H 133.164 4.84724 0.130749 0
M  V30 1561 N 134.507 -0.190092 1.56449 0
M  V30 1562 C 135.735 -0.925772 1.85033 0
M  V30 1563 C 136.15 -1.76638 0.666658 0
M  V30 1564 O 135.507 -1.78822 -0.364565 0
M  V30 1565 C 135.558 -1.81786 3.12468 0
M  V30 1566 O 135.279 -1.01118 4.26271 0
M  V30 1567 C 136.78 -2.6648 3.54265 0
M  V30 1568 H 134 -0.269872 0.614337 0
M  V30 1569 H 136.544 -0.195837 2.0356 0
M  V30 1570 H 134.699 -2.50136 2.95822 0
M  V30 1571 H 135.113 -1.61956 4.98869 0
M  V30 1572 H 136.587 -3.24722 4.46385 0
M  V30 1573 H 137.064 -3.40434 2.77491 0
M  V30 1574 H 137.67 -2.03493 3.73458 0
M  V30 1575 N 135.985 -1.50799 -0.457987 0
M  V30 1576 C 137.396 -1.55152 -1.0385 0
M  V30 1577 C 137.747 -0.362719 -1.92818 0
M  V30 1578 O 136.872 0.522915 -2.09987 0
M  V30 1579 C 137.467 -2.81173 -1.89017 0
M  V30 1580 C 136.026 -2.88164 -2.42154 0
M  V30 1581 C 135.173 -2.49591 -1.20829 0
M  V30 1582 H 138.124 -1.56874 -0.240068 0
M  V30 1583 H 138.145 -2.63769 -2.74238 0
M  V30 1584 H 137.657 -3.67677 -1.24238 0
M  V30 1585 H 135.758 -2.06042 -3.10447 0
M  V30 1586 H 135.871 -3.91356 -2.76364 0
M  V30 1587 H 134.235 -2.02322 -1.54719 0
M  V30 1588 H 135.018 -3.38418 -0.576927 0
M  V30 1589 N 137.463 0.71206 -1.40597 0
M  V30 1590 C 138.709 1.47416 -1.39271 0
M  V30 1591 C 139.042 1.942 0.00388791 0
M  V30 1592 O 138.317 1.68403 0.973179 0
M  V30 1593 C 138.6 2.69774 -2.38525 0
M  V30 1594 C 138.453 2.28861 -3.87224 0
M  V30 1595 C 139.772 3.71939 -2.35264 0
M  V30 1596 H 136.891 0.534713 -0.5072 0
M  V30 1597 H 139.533 0.812375 -1.71757 0
M  V30 1598 H 137.683 3.26238 -2.10953 0
M  V30 1599 H 139.355 1.77852 -4.25636 0
M  V30 1600 H 137.598 1.60824 -4.02887 0
M  V30 1601 H 138.269 3.16584 -4.52193 0
M  V30 1602 H 140.745 3.25113 -2.59694 0
M  V30 1603 H 139.621 4.55186 -3.06753 0
M  V30 1604 H 139.882 4.20484 -1.36549 0
M  V30 1605 N 138.941 1.26152 0.944643 0
M  V30 1606 C 140.166 1.14363 1.7302 0
M  V30 1607 C 140.591 -0.29772 1.85729 0
M  V30 1608 O 139.949 -1.2157 1.34501 0
M  V30 1609 C 139.997 1.81378 3.11664 0
M  V30 1610 O 139.101 1.10022 3.97453 0
M  V30 1611 H 138.442 0.398694 0.53098 0
M  V30 1612 H 140.972 1.66906 1.18337 0
M  V30 1613 H 140.982 1.88064 3.62072 0
M  V30 1614 H 139.657 2.86237 3.0173 0
M  V30 1615 H 138.234 1.11287 3.55907 0
M  V30 1616 N 140.419 -1.14872 1.07899 0
M  V30 1617 C 141.835 -1.37776 0.805606 0
M  V30 1618 C 142.035 -1.92743 -0.587555 0
M  V30 1619 O 141.091 -2.13678 -1.34528 0
M  V30 1620 C 142.404 -2.34361 1.88402 0
M  V30 1621 C 143.952 -2.48012 1.90942 0
M  V30 1622 C 144.427 -3.47893 2.97883 0
M  V30 1623 N 145.918 -3.55433 2.97021 0
M  V30 1624 C 146.653 -4.32553 3.76412 0
M  V30 1625 N 146.149 -5.12959 4.65666 0
M  V30 1626 N 147.942 -4.27697 3.64735 0
M  V30 1627 H 140.093 -0.775365 1.97742 0
M  V30 1628 H 142.356 -0.403521 0.857831 0
M  V30 1629 H 142.062 -2.01098 2.88535 0
M  V30 1630 H 141.936 -3.34206 1.74889 0
M  V30 1631 H 144.323 -2.8057 0.914579 0
M  V30 1632 H 144.404 -1.48147 2.08534 0
M  V30 1633 H 144.048 -3.16069 3.97571 0
M  V30 1634 H 143.978 -4.47527 2.77538 0
M  V30 1635 H 146.469 -2.98048 2.32326 0
M  V30 1636 H 146.782 -5.69065 5.22862 0
M  V30 1637 H 145.127 -5.12245 4.69712 0
M  V30 1638 H 148.318 -3.63949 2.94378 0
M  V30 1639 H 148.491 -4.8755 4.26848 0
M  V30 1640 N 141.898 -0.863906 -1.31812 0
M  V30 1641 C 143.147 -0.46801 -1.96195 0
M  V30 1642 C 143.46 0.983474 -1.69077 0
M  V30 1643 O 144.666 1.48523 -2.27273 0
M  V30 1644 C 143.122 -0.785995 -3.51212 0
M  V30 1645 C 142.73 -2.25383 -3.87178 0
M  V30 1646 C 144.474 -0.458274 -4.22019 0
M  V30 1647 C 142.381 -2.51455 -5.3528 0
M  V30 1648 H 141.311 -0.171283 -0.734287 0
M  V30 1649 H 143.962 -1.05597 -1.50072 0
M  V30 1650 H 142.344 -0.127359 -3.95795 0
M  V30 1651 H 143.518 -2.95502 -3.53575 0
M  V30 1652 H 141.833 -2.54698 -3.2942 0
M  V30 1653 H 144.43 -0.630369 -5.30971 0
M  V30 1654 H 144.773 0.600834 -4.11941 0
M  V30 1655 H 145.306 -1.07319 -3.8305 0
M  V30 1656 H 142.045 -3.56025 -5.50387 0
M  V30 1657 H 141.565 -1.85923 -5.70257 0
M  V30 1658 H 143.244 -2.35874 -6.02472 0
M  V30 1659 N 143.376 1.44774 -0.622745 0
M  V30 1660 C 144.306 2.33382 0.0741861 0
M  V30 1661 C 145.287 1.47719 0.843387 0
M  V30 1662 O 146.472 1.76458 0.810934 0
M  V30 1663 C 143.602 3.30663 1.06204 0
M  V30 1664 C 142.556 4.26079 0.405037 0
M  V30 1665 C 141.882 5.13165 1.5022 0
M  V30 1666 C 143.182 5.1781 -0.683414 0
M  V30 1667 H 144.876 2.91905 -0.665713 0
M  V30 1668 H 142.422 1.40363 -0.321587 0
M  V30 1669 H 144.375 3.9153 1.55827 0
M  V30 1670 H 143.099 2.70331 1.83272 0
M  V30 1671 H 141.758 3.66532 -0.0704683 0
M  V30 1672 H 141.406 4.49191 2.26355 0
M  V30 1673 H 141.106 5.77812 1.06803 0
M  V30 1674 H 142.63 5.76902 2.00041 0
M  V30 1675 H 144.044 5.72661 -0.270631 0
M  V30 1676 H 142.441 5.91015 -1.04023 0
M  V30 1677 H 143.511 4.59326 -1.55395 0
M  V30 1678 N 144.854 0.36279 1.53368 0
M  V30 1679 C 146.103 -0.22888 2.00397 0
M  V30 1680 C 146.416 -1.50096 1.25421 0
M  V30 1681 O 147.622 -2.17106 1.63025 0
M  V30 1682 C 146.078 -0.458417 3.56969 0
M  V30 1683 C 145.686 0.798877 4.4082 0
M  V30 1684 C 147.43 -1.00789 4.12361 0
M  V30 1685 C 145.337 0.539078 5.88938 0
M  V30 1686 H 144.267 -0.089305 0.748693 0
M  V30 1687 H 146.918 0.481099 1.77081 0
M  V30 1688 H 145.3 -1.22959 3.76427 0
M  V30 1689 H 146.474 1.57262 4.33134 0
M  V30 1690 H 144.789 1.27137 3.96516 0
M  V30 1691 H 147.386 -1.21754 5.20653 0
M  V30 1692 H 147.729 -1.9692 3.66781 0
M  V30 1693 H 148.262 -0.296961 3.9669 0
M  V30 1694 H 145.001 1.47064 6.3879 0
M  V30 1695 H 144.521 -0.196222 5.99479 0
M  V30 1696 H 146.2 0.163542 6.46793 0
M  V30 1697 N 146.332 -1.57332 0.0918853 0
M  V30 1698 C 147.58 -1.93853 -0.571446 0
M  V30 1699 C 147.901 -0.974212 -1.6892 0
M  V30 1700 O 147.171 -0.0257254 -1.95883 0
M  V30 1701 H 145.751 -0.715666 -0.214082 0
M  V30 1702 H 148.413 -1.94287 0.154464 0
M  V30 1703 H 147.509 -2.96191 -0.983729 0
M  V30 1704 N 147.81 0.181792 -1.56548 0
M  V30 1705 C 148.758 1.24461 -1.965 0
M  V30 1706 C 149.752 1.464 -0.852261 0
M  V30 1707 O 150.958 1.47103 -1.03733 0
M  V30 1708 H 147.333 0.418138 -0.625031 0
M  V30 1709 H 149.304 0.880714 -2.85107 0
M  V30 1710 C 148.053 2.57891 -2.33212 0
M  V30 1711 H 147.376 2.41829 -3.18369 0
M  V30 1712 H 148.816 3.3097 -2.65019 0
M  V30 1713 C 147.275 3.15871 -1.17163 0
M  V30 1714 O 147.805 3.9913 -0.453708 0
M  V30 1715 N 146.011 2.74808 -0.944936 0
M  V30 1716 H 145.558 2.07205 -1.53049 0
M  V30 1717 H 145.516 3.13939 -0.170286 0
M  V30 1718 N 149.288 1.51039 0.449983 0
M  V30 1719 C 150.699 1.557 1.03026 0
M  V30 1720 C 151.05 0.372939 1.92623 0
M  V30 1721 O 150.175 -0.511771 2.10261 0
M  V30 1722 C 150.77 2.82171 1.87523 0
M  V30 1723 C 149.329 2.89444 2.40622 0
M  V30 1724 C 148.476 2.50228 1.19504 0
M  V30 1725 H 151.427 1.56999 0.231745 0
M  V30 1726 H 151.448 2.65219 2.72835 0
M  V30 1727 H 150.96 3.68331 1.22286 0
M  V30 1728 H 149.061 2.07685 3.0935 0
M  V30 1729 H 149.174 3.92816 2.74285 0
M  V30 1730 H 147.538 2.03139 1.53644 0
M  V30 1731 H 148.321 3.38719 0.558972 0
M  V30 1732 N 150.766 -0.704594 1.40972 0
M  V30 1733 C 152.014 -1.46169 1.39568 0
M  V30 1734 C 152.335 -1.95 0.00253745 0
M  V30 1735 O 151.605 -1.71095 -0.954114 0
M  V30 1736 H 150.185 -0.542326 0.513704 0
M  V30 1737 H 152.847 -0.834553 1.76128 0
M  V30 1738 H 151.943 -2.32922 2.07735 0
M  V30 1739 N 152.244 -1.26651 -0.937939 0
M  V30 1740 C 153.484 -1.13611 -1.69917 0
M  V30 1741 C 153.848 0.314687 -1.89404 0
M  V30 1742 O 155.049 0.567285 -2.62746 0
M  V30 1743 C 153.32 -1.88742 -3.03498 0
M  V30 1744 S 154.879 -1.91794 -3.94665 0
M  V30 1745 H 151.697 -0.405767 -0.583844 0
M  V30 1746 H 154.299 -1.60416 -1.11745 0
M  V30 1747 H 153.003 -2.9336 -2.86999 0
M  V30 1748 H 152.534 -1.42391 -3.66727 0
M  V30 1749 H 154.549 -1.00698 -4.85875 0
M  V30 1750 N 153.722 1.14298 -1.08507 0
M  V30 1751 C 154.95 1.89219 -0.836876 0
M  V30 1752 C 155.365 1.78638 0.611054 0
M  V30 1753 O 154.722 1.14643 1.41998 0
M  V30 1754 C 154.773 3.39158 -1.25116 0
M  V30 1755 O 154.494 3.49449 -2.64229 0
M  V30 1756 C 155.995 4.31073 -1.03398 0
M  V30 1757 H 153.215 0.599328 -0.301739 0
M  V30 1758 H 155.759 1.44746 -1.44461 0
M  V30 1759 H 153.914 3.81251 -0.687514 0
M  V30 1760 H 154.328 4.42589 -2.81452 0
M  V30 1761 H 155.802 5.34646 -1.37323 0
M  V30 1762 H 156.279 4.3919 0.0289259 0
M  V30 1763 H 156.885 3.94738 -1.58311 0
M  V30 1764 N 155.201 0.870884 1.31352 0
M  V30 1765 C 156.431 0.496049 2.00557 0
M  V30 1766 C 156.839 -0.916241 1.65534 0
M  V30 1767 O 156.182 -1.61188 0.881134 0
M  V30 1768 C 156.244 0.574418 3.54881 0
M  V30 1769 C 155.908 1.94849 4.1338 0
M  V30 1770 C 156.905 2.91611 4.30417 0
M  V30 1771 C 154.59 2.25005 4.49086 0
M  V30 1772 C 156.584 4.16672 4.82352 0
M  V30 1773 C 154.271 3.50315 5.00722 0
M  V30 1774 C 155.269 4.45964 5.17306 0
M  V30 1775 O 154.957 5.69052 5.67833 0
M  V30 1776 H 154.689 0.191664 0.64826 0
M  V30 1777 H 157.243 1.17409 1.68536 0
M  V30 1778 H 155.473 -0.160549 3.86367 0
M  V30 1779 H 157.162 0.212879 4.05341 0
M  V30 1780 H 157.928 2.69622 4.03149 0
M  V30 1781 H 153.807 1.51332 4.35453 0
M  V30 1782 H 157.351 4.91336 4.95211 0
M  V30 1783 H 153.248 3.72147 5.27424 0
M  V30 1784 H 154.016 5.71236 5.86201 0
M  V30 1785 N 156.679 -1.44442 0.630414 0
M  V30 1786 C 157.626 -2.30678 -0.0749355 0
M  V30 1787 C 158.596 -1.4344 -0.837502 0
M  V30 1788 O 159.781 -1.72343 -0.818684 0
M  V30 1789 C 156.921 -3.28706 -1.05103 0
M  V30 1790 C 156.034 -4.31046 -0.286954 0
M  V30 1791 C 155.169 -5.16167 -1.2548 0
M  V30 1792 C 154.208 -6.10216 -0.479843 0
M  V30 1793 N 153.345 -6.88039 -1.39811 0
M  V30 1794 H 158.185 -2.90454 0.666386 0
M  V30 1795 H 155.722 -1.43107 0.340404 0
M  V30 1796 H 157.68 -3.84027 -1.63031 0
M  V30 1797 H 156.31 -2.70632 -1.75949 0
M  V30 1798 H 155.362 -3.78203 0.408243 0
M  V30 1799 H 156.674 -4.97794 0.316657 0
M  V30 1800 H 155.828 -5.76002 -1.90544 0
M  V30 1801 H 154.567 -4.49491 -1.89233 0
M  V30 1802 H 153.572 -5.49491 0.184295 0
M  V30 1803 H 154.797 -6.78928 0.152965 0
M  V30 1804 H 152.743 -6.24032 -2.02287 0
M  V30 1805 H 152.66 -7.51223 -0.848508 0
M  V30 1806 H 153.928 -7.52397 -2.03762 0
M  V30 1807 N 158.157 -0.370918 -1.53173 0
M  V30 1808 C 159.387 0.217389 -2.05453 0
M  V30 1809 C 159.795 1.42568 -1.24382 0
M  V30 1810 O 159.138 1.81571 -0.278839 0
M  V30 1811 C 159.2 0.669827 -3.53205 0
M  V30 1812 C 158.864 -0.4225 -4.55043 0
M  V30 1813 C 159.861 -1.27407 -5.04047 0
M  V30 1814 C 157.546 -0.58427 -4.9889 0
M  V30 1815 C 159.54 -2.27271 -5.95505 0
M  V30 1816 C 157.227 -1.58627 -5.90153 0
M  V30 1817 C 158.225 -2.42892 -6.38351 0
M  V30 1818 O 157.913 -3.41382 -7.27814 0
M  V30 1819 H 157.645 0.0408171 -0.674767 0
M  V30 1820 H 160.199 -0.5292 -1.98466 0
M  V30 1821 H 158.429 1.4681 -3.57748 0
M  V30 1822 H 160.118 1.18173 -3.88317 0
M  V30 1823 H 160.884 -1.16031 -4.70916 0
M  V30 1824 H 156.763 0.061851 -4.60959 0
M  V30 1825 H 160.307 -2.93079 -6.33049 0
M  V30 1826 H 156.204 -1.70048 -6.22699 0
M  V30 1827 H 156.972 -3.37173 -7.45826 0
M  V30 1828 N 159.635 1.57281 -0.100228 0
M  V30 1829 C 160.565 2.17328 0.853857 0
M  V30 1830 C 161.546 1.10804 1.2906 0
M  V30 1831 O 162.731 1.38963 1.35657 0
M  V30 1832 C 159.861 2.75772 2.11109 0
M  V30 1833 C 158.815 3.87713 1.81279 0
M  V30 1834 C 158.141 4.32882 3.13874 0
M  V30 1835 C 159.441 5.10677 1.09574 0
M  V30 1836 H 161.135 2.97305 0.353545 0
M  V30 1837 H 158.681 1.43009 0.168612 0
M  V30 1838 H 160.634 3.16433 2.78296 0
M  V30 1839 H 159.358 1.93057 2.63432 0
M  V30 1840 H 158.017 3.476 1.16489 0
M  V30 1841 H 157.665 3.47051 3.64095 0
M  V30 1842 H 157.365 5.08358 2.94696 0
M  V30 1843 H 158.889 4.7618 3.82211 0
M  V30 1844 H 160.303 5.48474 1.66879 0
M  V30 1845 H 158.7 5.91615 1.00557 0
M  V30 1846 H 159.77 4.84835 0.0793299 0
M  V30 1847 N 161.113 -0.173488 1.56642 0
M  V30 1848 C 162.061 -1.23417 1.97157 0
M  V30 1849 C 163.055 -1.45946 0.860013 0
M  V30 1850 O 164.261 -1.46551 1.04512 0
M  V30 1851 H 160.636 -0.414818 0.62724 0
M  V30 1852 H 162.607 -0.865582 2.8557 0
M  V30 1853 C 161.356 -2.5665 2.34576 0
M  V30 1854 H 160.679 -2.40137 3.19647 0
M  V30 1855 H 162.119 -3.2956 2.6677 0
M  V30 1856 C 160.578 -3.15245 1.18836 0
M  V30 1857 O 161.108 -3.98883 0.474869 0
M  V30 1858 N 159.314 -2.74303 0.959497 0
M  V30 1859 H 158.861 -2.0639 1.54146 0
M  V30 1860 H 158.819 -3.13844 0.186932 0
M  V30 1861 N 162.591 -1.51276 -0.441967 0
M  V30 1862 C 163.819 -1.67516 -1.21434 0
M  V30 1863 C 164.234 -0.37055 -1.85128 0
M  V30 1864 O 163.591 0.650498 -1.70513 0
M  V30 1865 C 163.642 -2.78748 -2.30177 0
M  V30 1866 O 163.363 -4.04154 -1.69089 0
M  V30 1867 C 164.864 -3.06217 -3.20541 0
M  V30 1868 H 162.084 -0.562276 -0.366178 0
M  V30 1869 H 164.628 -1.97666 -0.524244 0
M  V30 1870 H 162.783 -2.5121 -2.94911 0
M  V30 1871 H 163.197 -4.65894 -2.40922 0
M  V30 1872 H 164.671 -3.8764 -3.92987 0
M  V30 1873 H 165.148 -2.18439 -3.81026 0
M  V30 1874 H 165.754 -3.35397 -2.61513 0
M  V30 1875 N 164.069 0.697108 -1.41344 0
M  V30 1876 C 165.485 1.00751 -1.2378 0
M  V30 1877 C 165.685 2.01105 -0.126066 0
M  V30 1878 O 164.741 2.47295 0.51004 0
M  V30 1879 C 166.054 1.53359 -2.58653 0
M  V30 1880 C 167.602 1.6525 -2.65822 0
M  V30 1881 C 168.077 2.2126 -4.01009 0
M  V30 1882 N 169.568 2.28622 -4.02847 0
M  V30 1883 C 170.303 2.72984 -5.04249 0
M  V30 1884 N 169.799 3.16962 -6.16041 0
M  V30 1885 N 171.592 2.72534 -4.91611 0
M  V30 1886 H 163.743 0.0322662 -2.12375 0
M  V30 1887 H 166.006 0.0768853 -0.944877 0
M  V30 1888 H 165.712 0.870773 -3.4075 0
M  V30 1889 H 165.586 2.51597 -2.81032 0
M  V30 1890 H 167.973 2.30644 -1.84086 0
M  V30 1891 H 168.054 0.655614 -2.47256 0
M  V30 1892 H 167.698 1.56482 -4.83193 0
M  V30 1893 H 167.628 3.21698 -4.16915 0
M  V30 1894 H 170.119 1.97585 -3.22131 0
M  V30 1895 H 170.432 3.49434 -6.89287 0
M  V30 1896 H 168.777 3.14875 -6.1958 0
M  V30 1897 H 171.968 2.37525 -4.0336 0
M  V30 1898 H 172.141 3.06789 -5.70775 0
M  V30 1899 N 165.547 1.27147 0.931209 0
M  V30 1900 C 166.477 1.12081 2.04842 0
M  V30 1901 C 167.458 0.0232364 1.70084 0
M  V30 1902 O 168.643 0.197085 1.93197 0
M  V30 1903 C 165.773 0.76354 3.38803 0
M  V30 1904 C 164.727 1.81396 3.87659 0
M  V30 1905 C 164.053 1.31075 5.18385 0
M  V30 1906 C 165.353 3.21739 4.11438 0
M  V30 1907 H 167.047 2.05537 2.17703 0
M  V30 1908 H 164.593 0.989603 1.04608 0
M  V30 1909 H 166.546 0.644982 4.16435 0
M  V30 1910 H 165.27 -0.206727 3.25945 0
M  V30 1911 H 163.929 1.92136 3.12217 0
M  V30 1912 H 163.577 0.330037 5.01916 0
M  V30 1913 H 163.277 2.013 5.52044 0
M  V30 1914 H 164.801 1.20506 5.98591 0
M  V30 1915 H 166.215 3.14019 4.79651 0
M  V30 1916 H 164.612 3.89644 4.56397 0
M  V30 1917 H 165.682 3.67054 3.16859 0
M  V30 1918 N 167.025 -1.13721 1.09112 0
M  V30 1919 C 168.272 -1.84924 0.825192 0
M  V30 1920 C 168.6 -1.83347 -0.649151 0
M  V30 1921 O 167.855 -1.26449 -1.49362 0
M  V30 1922 C 168.154 -3.32861 1.30146 0
M  V30 1923 C 167.82 -3.54621 2.78486 0
M  V30 1924 C 166.482 -3.60268 3.18999 0
M  V30 1925 C 168.834 -3.62855 3.74146 0
M  V30 1926 C 166.162 -3.71679 4.53951 0
M  V30 1927 C 168.514 -3.75793 5.08883 0
M  V30 1928 C 167.178 -3.79692 5.4899 0
M  V30 1929 H 166.448 -0.676684 0.301959 0
M  V30 1930 H 169.095 -1.3428 1.36533 0
M  V30 1931 H 167.4 -3.85835 0.681064 0
M  V30 1932 H 169.097 -3.86395 1.07236 0
M  V30 1933 H 165.687 -3.50879 2.46134 0
M  V30 1934 H 169.871 -3.57775 3.43963 0
M  V30 1935 H 165.127 -3.72963 4.84467 0
M  V30 1936 H 169.301 -3.81107 5.82864 0
M  V30 1937 H 166.928 -3.88287 6.53558 0
M  V30 1938 N 168.503 -0.877838 -1.30888 0
M  V30 1939 C 169.731 -0.507414 -2.00581 0
M  V30 1940 C 170.146 0.902216 -1.65848 0
M  V30 1941 O 169.503 1.59225 -0.891831 0
M  V30 1942 C 169.554 -0.664162 -3.55347 0
M  V30 1943 O 169.275 -2.01829 -3.8884 0
M  V30 1944 C 170.776 -0.295787 -4.42312 0
M  V30 1945 H 167.996 -0.196866 -0.641471 0
M  V30 1946 H 170.54 -1.18117 -1.66939 0
M  V30 1947 H 168.695 -0.0378619 -3.87381 0
M  V30 1948 H 169.109 -2.03174 -4.8355 0
M  V30 1949 H 170.583 -0.456388 -5.5011 0
M  V30 1950 H 171.06 0.765663 -4.32475 0
M  V30 1951 H 171.666 -0.898113 -4.15709 0
M  V30 1952 N 169.982 1.44106 -0.638065 0
M  V30 1953 C 171.228 2.02277 -0.145546 0
M  V30 1954 C 171.561 1.50125 1.23191 0
M  V30 1955 O 170.836 0.688133 1.8192 0
M  V30 1956 C 171.119 3.59829 -0.139791 0
M  V30 1957 C 170.972 4.22247 -1.55008 0
M  V30 1958 C 172.291 4.36873 0.531966 0
M  V30 1959 H 169.41 0.734992 -0.0543632 0
M  V30 1960 H 172.052 1.71592 -0.815863 0
M  V30 1961 H 170.202 3.86102 0.431007 0
M  V30 1962 H 171.874 4.07057 -2.1703 0
M  V30 1963 H 170.117 3.79476 -2.10191 0
M  V30 1964 H 170.788 5.31284 -1.49804 0
M  V30 1965 H 173.264 4.16074 0.0464781 0
M  V30 1966 H 172.14 5.4657 0.505206 0
M  V30 1967 H 172.401 4.11995 1.60352 0
M  V30 1968 N 171.46 0.379036 1.52974 0
M  V30 1969 C 172.871 -0.0972525 1.86447 0
M  V30 1970 C 173.222 -1.47027 1.29914 0
M  V30 1971 O 172.347 -2.07135 0.626433 0
M  V30 1972 C 172.942 -0.183248 3.38304 0
M  V30 1973 C 171.501 -0.603812 3.71525 0
M  V30 1974 C 170.648 0.240632 2.76254 0
M  V30 1975 H 173.599 0.597316 1.4703 0
M  V30 1976 H 173.62 -1.00432 3.67006 0
M  V30 1977 H 173.132 0.816191 3.79421 0
M  V30 1978 H 171.233 -1.61099 3.35973 0
M  V30 1979 H 171.346 -0.369086 4.77676 0
M  V30 1980 H 169.71 -0.292548 2.53014 0
M  V30 1981 H 170.493 1.23786 3.20206 0
M  V30 1982 N 172.938 -1.57226 0.108567 0
M  V30 1983 C 174.184 -1.95919 -0.546564 0
M  V30 1984 C 174.539 -0.990417 -1.6495 0
M  V30 1985 O 173.832 -0.0186593 -1.91591 0
M  V30 1986 C 174.026 -3.38911 -1.13463 0
M  V30 1987 C 173.855 -4.4961 -0.0901926 0
M  V30 1988 C 172.625 -5.04168 0.338008 0
M  V30 1989 C 174.823 -5.09693 0.686808 0
M  V30 1990 N 172.805 -5.98434 1.36931 0
M  V30 1991 C 174.176 -5.99804 1.56958 0
M  V30 1992 C 176.231 -4.92388 0.738846 0
M  V30 1993 C 174.934 -6.74463 2.49983 0
M  V30 1994 C 176.96 -5.67719 1.65676 0
M  V30 1995 C 176.322 -6.57507 2.52713 0
M  V30 1996 H 172.421 -0.763312 -0.169936 0
M  V30 1997 H 175.005 -1.93728 0.194264 0
M  V30 1998 H 173.176 -3.41769 -1.84522 0
M  V30 1999 H 174.908 -3.64752 -1.75322 0
M  V30 2000 H 171.663 -4.73571 -0.0523673 0
M  V30 2001 H 172.087 -6.5027 1.88356 0
M  V30 2002 H 176.729 -4.22724 0.080084 0
M  V30 2003 H 174.447 -7.4338 3.16878 0
M  V30 2004 H 178.033 -5.56338 1.70233 0
M  V30 2005 H 176.913 -7.14778 3.22586 0
M  V30 2006 N 174.416 0.165178 -1.56732 0
M  V30 2007 C 175.827 0.727046 -1.71962 0
M  V30 2008 C 176.178 1.82508 -0.720078 0
M  V30 2009 O 175.303 2.16082 0.117242 0
M  V30 2010 C 175.898 1.32559 -3.11791 0
M  V30 2011 C 174.457 1.83422 -3.28684 0
M  V30 2012 C 173.604 0.715567 -2.67908 0
M  V30 2013 H 176.555 -0.0602896 -1.58585 0
M  V30 2014 H 176.576 2.19533 -3.10782 0
M  V30 2015 H 176.088 0.526195 -3.84516 0
M  V30 2016 H 174.189 2.65986 -2.60926 0
M  V30 2017 H 174.302 1.97543 -4.36478 0
M  V30 2018 H 172.666 1.13758 -2.27884 0
M  V30 2019 H 173.449 -0.0720836 -3.43224 0
M  V30 2020 N 175.894 1.51508 0.433938 0
M  V30 2021 C 177.14 1.64588 1.18484 0
M  V30 2022 C 177.473 0.362666 1.90784 0
M  V30 2023 O 176.748 -0.637892 1.83742 0
M  V30 2024 C 177.031 2.85149 2.19913 0
M  V30 2025 C 176.884 4.23456 1.51674 0
M  V30 2026 C 178.203 3.01227 3.20858 0
M  V30 2027 H 175.322 0.598994 0.429389 0
M  V30 2028 H 177.964 1.84002 0.473647 0
M  V30 2029 H 176.114 2.68729 2.80566 0
M  V30 2030 H 177.786 4.51552 0.943322 0
M  V30 2031 H 176.029 4.25998 0.819035 0
M  V30 2032 H 176.7 5.03812 2.2556 0
M  V30 2033 H 179.176 3.16382 2.70263 0
M  V30 2034 H 178.052 3.87141 3.89118 0
M  V30 2035 H 178.313 2.13447 3.8716 0
M  V30 2036 N 177.372 -0.689602 1.41712 0
M  V30 2037 C 178.319 -1.80345 1.44029 0
M  V30 2038 C 179.289 -1.63478 0.293948 0
M  V30 2039 O 180.474 -1.84244 0.495869 0
M  V30 2040 C 177.614 -3.18272 1.33405 0
M  V30 2041 C 176.727 -3.46529 2.57956 0
M  V30 2042 C 175.862 -4.74103 2.39582 0
M  V30 2043 C 174.901 -4.95347 3.5958 0
M  V30 2044 N 174.038 -6.14151 3.40239 0
M  V30 2045 H 178.878 -1.77698 2.39222 0
M  V30 2046 H 176.415 -0.867688 1.18784 0
M  V30 2047 H 178.373 -3.97956 1.25246 0
M  V30 2048 H 177.003 -3.2008 0.418164 0
M  V30 2049 H 176.055 -2.61207 2.76542 0
M  V30 2050 H 177.367 -3.58126 3.47199 0
M  V30 2051 H 176.521 -5.61853 2.28924 0
M  V30 2052 H 175.26 -4.64763 1.47805 0
M  V30 2053 H 174.265 -4.06044 3.70686 0
M  V30 2054 H 175.49 -5.06542 4.52318 0
M  V30 2055 H 173.436 -6.06013 2.51167 0
M  V30 2056 H 173.353 -6.26543 4.23061 0
M  V30 2057 H 174.621 -7.04619 3.33365 0
M  V30 2058 N 178.85 -1.27639 -0.924453 0
M  V30 2059 C 180.098 -1.13941 -1.66918 0
M  V30 2060 C 180.419 0.314589 -1.92446 0
M  V30 2061 O 179.689 1.21964 -1.53303 0
M  V30 2062 H 178.269 -0.418678 -0.618642 0
M  V30 2063 H 180.931 -1.60213 -1.10985 0
M  V30 2064 H 180.027 -1.67094 -2.63602 0
M  V30 2065 N 180.328 1.1314 -1.09713 0
M  V30 2066 C 181.553 1.88862 -0.857081 0
M  V30 2067 C 181.978 1.78729 0.586304 0
M  V30 2068 O 181.336 1.13692 1.41222 0
M  V30 2069 C 181.384 3.36325 -1.30069 0
M  V30 2070 O 180.488 4.09815 -0.461007 0
M  V30 2071 H 179.829 0.587108 -0.310162 0
M  V30 2072 H 182.359 1.43129 -1.46203 0
M  V30 2073 H 182.369 3.87157 -1.28738 0
M  V30 2074 H 181.044 3.43017 -2.35185 0
M  V30 2075 H 179.621 3.68986 -0.538888 0
M  V30 2076 N 181.806 0.884767 1.30421 0
M  V30 2077 C 182.754 0.340869 2.30089 0
M  V30 2078 C 183.748 -0.55201 1.60154 0
M  V30 2079 O 184.954 -0.436467 1.74628 0
M  V30 2080 H 181.329 0.0915739 0.746404 0
M  V30 2081 H 183.3 1.19513 2.73421 0
M  V30 2082 C 182.049 -0.429779 3.45034 0
M  V30 2083 H 181.372 0.248024 3.9903 0
M  V30 2084 H 182.812 -0.775445 4.16849 0
M  V30 2085 C 181.271 -1.62677 2.95022 0
M  V30 2086 O 181.801 -2.72614 2.95033 0
M  V30 2087 N 180.007 -1.46387 2.51036 0
M  V30 2088 H 179.554 -0.569506 2.51226 0
M  V30 2089 H 179.512 -2.26612 2.17932 0
M  V30 2090 N 183.284 -1.43765 0.645699 0
M  V30 2091 C 184.533 -2.01116 0.153412 0
M  V30 2092 C 184.846 -1.51493 -1.23731 0
M  V30 2093 O 186.052 -2.01067 -1.8244 0
M  V30 2094 C 184.508 -3.59206 0.223473 0
M  V30 2095 C 184.116 -4.17823 1.61642 0
M  V30 2096 C 185.86 -4.23972 -0.211597 0
M  V30 2097 C 183.767 -5.68183 1.64081 0
M  V30 2098 H 182.697 -0.752093 0.0535891 0
M  V30 2099 H 185.348 -1.6482 0.806633 0
M  V30 2100 H 183.73 -3.92867 -0.497118 0
M  V30 2101 H 184.904 -3.95674 2.36176 0
M  V30 2102 H 183.219 -3.65399 1.99681 0
M  V30 2103 H 185.816 -5.34275 -0.213112 0
M  V30 2104 H 186.159 -3.97352 -1.24165 0
M  V30 2105 H 186.692 -3.95166 0.456988 0
M  V30 2106 H 183.431 -5.99559 2.64971 0
M  V30 2107 H 182.951 -5.9241 0.938611 0
M  V30 2108 H 184.63 -6.32085 1.3812 0
M  V30 2109 N 184.763 -0.387143 -1.52771 0
M  V30 2110 C 185.71 0.449048 -2.26389 0
M  V30 2111 C 186.68 1.05961 -1.27912 0
M  V30 2112 O 187.865 1.08804 -1.56737 0
M  V30 2113 C 185.005 1.57155 -3.0724 0
M  V30 2114 C 184.118 0.984066 -4.20643 0
M  V30 2115 C 183.253 2.07745 -4.88892 0
M  V30 2116 C 182.292 1.46574 -5.94292 0
M  V30 2117 N 181.429 2.49834 -6.56146 0
M  V30 2118 H 186.269 -0.185205 -2.97424 0
M  V30 2119 H 183.806 -0.103164 -1.46738 0
M  V30 2120 H 185.764 2.23309 -3.52405 0
M  V30 2121 H 184.394 2.17615 -2.38419 0
M  V30 2122 H 183.446 0.212193 -3.79808 0
M  V30 2123 H 184.758 0.497029 -4.96318 0
M  V30 2124 H 183.912 2.81673 -5.3735 0
M  V30 2125 H 182.651 2.59807 -4.12737 0
M  V30 2126 H 181.656 0.711696 -5.45174 0
M  V30 2127 H 182.881 0.953088 -6.72379 0
M  V30 2128 H 180.827 3.0107 -5.82832 0
M  V30 2129 H 180.744 2.05879 -7.27427 0
M  V30 2130 H 182.012 3.23399 -7.09249 0
M  V30 2131 N 186.241 1.57166 -0.116904 0
M  V30 2132 C 187.191 2.11756 0.845178 0
M  V30 2133 C 188.175 1.03783 1.22955 0
M  V30 2134 O 189.367 1.3002 1.20099 0
M  V30 2135 C 186.496 2.71886 2.09602 0
M  V30 2136 C 185.582 3.86937 1.7361 0
M  V30 2137 N 185.973 4.94073 1.08284 0
M  V30 2138 C 184.271 3.97082 2.03082 0
M  V30 2139 C 184.972 5.74477 0.913855 0
M  V30 2140 N 183.948 5.2423 1.43818 0
M  V30 2141 H 187.75 2.91967 0.336523 0
M  V30 2142 H 185.264 1.62174 0.0856332 0
M  V30 2143 H 187.261 3.09338 2.79492 0
M  V30 2144 H 185.921 1.93138 2.61013 0
M  V30 2145 H 186.932 5.12483 0.747067 0
M  V30 2146 H 183.609 3.29372 2.56554 0
M  V30 2147 H 184.999 6.70701 0.40125 0
M  V30 2148 N 187.719 -0.156864 1.56817 0
M  V30 2149 C 188.947 -0.886316 1.86955 0
M  V30 2150 C 189.362 -1.75185 0.703975 0
M  V30 2151 O 188.719 -1.79555 -0.326552 0
M  V30 2152 C 188.77 -1.75117 3.16253 0
M  V30 2153 O 188.491 -0.920537 4.2832 0
M  V30 2154 C 189.992 -2.58905 3.59837 0
M  V30 2155 H 187.212 -0.25678 0.619923 0
M  V30 2156 H 189.756 -0.152615 2.0393 0
M  V30 2157 H 187.911 -2.43805 3.01062 0
M  V30 2158 H 188.325 -1.51337 5.02192 0
M  V30 2159 H 189.799 -3.1518 4.53172 0
M  V30 2160 H 190.276 -3.34472 2.84649 0
M  V30 2161 H 190.882 -1.95526 3.7769 0
M  V30 2162 N 189.197 -1.51736 -0.425897 0
M  V30 2163 C 190.107 -1.76738 -1.54275 0
M  V30 2164 C 191.123 -0.65211 -1.61318 0
M  V30 2165 O 192.299 -0.935654 -1.78346 0
M  V30 2166 C 189.364 -1.89755 -2.90162 0
M  V30 2167 C 188.425 -3.13633 -2.93143 0
M  V30 2168 C 187.658 -3.2602 -4.22548 0
M  V30 2169 O 187.881 -2.44067 -5.15546 0
M  V30 2170 O 186.815 -4.19071 -4.32046 0
M  V30 2171 H 190.641 -2.71502 -1.36089 0
M  V30 2172 H 188.226 -1.36376 -0.610069 0
M  V30 2173 H 190.108 -2.00236 -3.70788 0
M  V30 2174 H 188.783 -0.981785 -3.08452 0
M  V30 2175 H 187.69 -3.08622 -2.11431 0
M  V30 2176 H 189.023 -4.04936 -2.798 0
M  V30 2177 N 190.675 0.682077 -1.42076 0
M  V30 2178 C 191.638 1.77756 -1.44691 0
M  V30 2179 C 192.638 1.5726 -0.335535 0
M  V30 2180 O 193.828 1.63686 -0.596037 0
M  V30 2181 C 190.96 3.16301 -1.27146 0
M  V30 2182 H 192.153 1.76826 -2.42224 0
M  V30 2183 H 189.706 0.891012 -1.28416 0
M  V30 2184 H 190.441 3.22862 -0.305075 0
M  V30 2185 H 190.226 3.32581 -2.07683 0
M  V30 2186 H 191.716 3.96241 -1.31843 0
M  V30 2187 N 192.153 1.28127 0.917671 0
M  V30 2188 C 193.063 1.13556 2.05286 0
M  V30 2189 C 194.079 0.0630914 1.73886 0
M  V30 2190 O 195.255 0.271598 1.9956 0
M  V30 2191 C 192.32 0.794676 3.3747 0
M  V30 2192 C 191.381 1.94909 3.82504 0
M  V30 2193 C 190.614 1.62437 5.0838 0
M  V30 2194 O 190.837 0.536905 5.67867 0
M  V30 2195 O 189.771 2.46677 5.4903 0
M  V30 2196 H 193.597 2.08844 2.20495 0
M  V30 2197 H 191.182 1.07409 1.03845 0
M  V30 2198 H 193.064 0.618344 4.16839 0
M  V30 2199 H 191.739 -0.128581 3.23445 0
M  V30 2200 H 190.646 2.18055 3.03978 0
M  V30 2201 H 191.979 2.85291 4.01086 0
M  V30 2202 N 193.631 -1.12557 1.10312 0
M  V30 2203 C 194.88 -1.83395 0.839588 0
M  V30 2204 C 195.193 -1.84939 -0.636929 0
M  V30 2205 O 196.399 -2.51761 -1.01631 0
M  V30 2206 C 194.855 -3.29303 1.45215 0
M  V30 2207 C 194.463 -3.36122 2.96186 0
M  V30 2208 C 196.207 -4.05121 1.26796 0
M  V30 2209 C 194.114 -4.76357 3.50483 0
M  V30 2210 H 193.044 -0.687133 0.310425 0
M  V30 2211 H 195.695 -1.26746 1.32694 0
M  V30 2212 H 194.077 -3.85812 0.892469 0
M  V30 2213 H 195.251 -2.89559 3.58458 0
M  V30 2214 H 193.566 -2.73776 3.13745 0
M  V30 2215 H 196.163 -5.08668 1.64806 0
M  V30 2216 H 196.506 -4.15773 0.209409 0
M  V30 2217 H 197.039 -3.54967 1.79563 0
M  V30 2218 H 193.778 -4.70899 4.55998 0
M  V30 2219 H 193.298 -5.23377 2.92978 0
M  V30 2220 H 194.977 -5.45294 3.48228 0
M  V30 2221 N 195.109 -0.891671 -1.2995 0
M  V30 2222 C 196.072 -0.36828 -2.26222 0
M  V30 2223 C 197.072 0.493014 -1.53056 0
M  V30 2224 O 198.262 0.299213 -1.71611 0
M  V30 2225 C 195.394 0.47442 -3.37583 0
M  V30 2226 H 196.587 -1.21844 -2.74033 0
M  V30 2227 H 194.14 -0.669107 -1.41254 0
M  V30 2228 H 194.875 1.34489 -2.95099 0
M  V30 2229 H 194.66 -0.142615 -3.91841 0
M  V30 2230 H 196.15 0.83218 -4.09224 0
M  V30 2231 N 196.587 1.43421 -0.653314 0
M  V30 2232 C 197.55 2.29182 0.0287951 0
M  V30 2233 C 198.55 1.42213 0.750465 0
M  V30 2234 O 199.74 1.63843 0.591701 0
M  V30 2235 C 196.872 3.24278 1.05151 0
M  V30 2236 H 198.065 2.90985 -0.725786 0
M  V30 2237 H 195.618 1.50702 -0.414545 0
M  V30 2238 H 196.353 2.6737 1.83532 0
M  V30 2239 H 196.138 3.88396 0.537687 0
M  V30 2240 H 197.628 3.88647 1.52786 0
M  V30 2241 N 198.065 0.39524 1.52563 0
M  V30 2242 C 199.028 -0.425001 2.25225 0
M  V30 2243 C 200.028 -0.985266 1.27079 0
M  V30 2244 O 201.218 -0.866332 1.5113 0
M  V30 2245 C 198.35 -1.59686 3.01186 0
M  V30 2246 H 199.543 0.211233 2.99155 0
M  V30 2247 H 197.096 0.147472 1.55603 0
M  V30 2248 H 197.831 -2.27035 2.31572 0
M  V30 2249 H 197.616 -1.20176 3.73229 0
M  V30 2250 H 199.106 -2.17743 3.5634 0
M  V30 2251 N 199.544 -1.57102 0.125237 0
M  V30 2252 C 200.784 -1.97294 -0.534259 0
M  V30 2253 C 201.148 -1.0074 -1.63449 0
M  V30 2254 O 202.349 -1.29893 -2.35332 0
M  V30 2255 C 200.62 -3.41705 -1.04748 0
M  V30 2256 S 202.179 -4.03913 -1.71463 0
M  V30 2257 H 198.997 -0.689517 -0.173458 0
M  V30 2258 H 201.599 -1.94349 0.211797 0
M  V30 2259 H 200.303 -4.09723 -0.235649 0
M  V30 2260 H 199.834 -3.48315 -1.82867 0
M  V30 2261 H 201.849 -3.95182 -3.00077 0
M  V30 2262 N 201.022 0.148545 -1.56898 0
M  V30 2263 C 201.932 1.20293 -2.01412 0
M  V30 2264 C 202.948 1.47107 -0.929273 0
M  V30 2265 O 204.124 1.58807 -1.23863 0
M  V30 2266 C 201.189 2.51682 -2.38447 0
M  V30 2267 C 200.25 2.32529 -3.60872 0
M  V30 2268 C 199.483 3.57653 -3.96132 0
M  V30 2269 O 199.706 4.63771 -3.32073 0
M  V30 2270 O 198.64 3.50408 -4.89385 0
M  V30 2271 H 202.466 0.855025 -2.91416 0
M  V30 2272 H 200.051 0.357151 -1.45068 0
M  V30 2273 H 201.933 3.29147 -2.63135 0
M  V30 2274 H 200.608 2.86006 -1.51599 0
M  V30 2275 H 199.515 1.53019 -3.41373 0
M  V30 2276 H 200.848 2.03121 -4.48333 0
M  V30 2277 N 202.5 1.5196 0.417844 0
M  V30 2278 C 203.728 1.69426 1.18753 0
M  V30 2279 C 204.143 0.399955 1.84515 0
M  V30 2280 O 203.5 -0.623288 1.71527 0
M  V30 2281 C 203.551 2.82375 2.25714 0
M  V30 2282 O 203.272 4.06793 1.62638 0
M  V30 2283 C 204.773 3.11277 3.15628 0
M  V30 2284 H 201.993 0.568031 0.357186 0
M  V30 2285 H 204.537 1.98475 0.49273 0
M  V30 2286 H 202.692 2.5587 2.90877 0
M  V30 2287 H 203.106 4.69667 2.3348 0
M  V30 2288 H 204.58 3.93843 3.86771 0
M  V30 2289 H 205.057 2.24473 3.77503 0
M  V30 2290 H 205.663 3.39515 2.56144 0
M  V30 2291 N 203.978 -0.674533 1.42435 0
M  V30 2292 C 205.225 -1.43459 1.42919 0
M  V30 2293 C 205.553 -1.94446 0.0457312 0
M  V30 2294 O 204.808 -1.7132 -0.94593 0
M  V30 2295 C 205.107 -2.64767 2.40069 0
M  V30 2296 C 204.773 -2.3232 3.86443 0
M  V30 2297 C 203.435 -2.23182 4.26314 0
M  V30 2298 C 205.787 -2.05977 4.78773 0
M  V30 2299 C 203.115 -1.85827 5.56494 0
M  V30 2300 C 205.467 -1.70125 6.09295 0
M  V30 2301 C 204.131 -1.59498 6.48164 0
M  V30 2302 H 203.401 -0.524952 0.522978 0
M  V30 2303 H 206.048 -0.769097 1.75377 0
M  V30 2304 H 204.353 -3.36349 2.00939 0
M  V30 2305 H 206.05 -3.22949 2.37707 0
M  V30 2306 H 202.64 -2.40334 3.54877 0
M  V30 2307 H 206.824 -2.11969 4.48757 0
M  V30 2308 H 202.08 -1.76168 5.8547 0
M  V30 2309 H 206.254 -1.48767 6.80324 0
M  V30 2310 H 203.881 -1.30322 7.48946 0
M  V30 2311 N 205.456 -1.28612 -0.910864 0
M  V30 2312 C 206.386 -1.15326 -2.03032 0
M  V30 2313 C 207.367 -0.0502924 -1.70026 0
M  V30 2314 O 208.552 -0.227797 -1.92859 0
M  V30 2315 C 205.682 -0.817343 -3.37545 0
M  V30 2316 C 204.636 -1.8754 -3.84724 0
M  V30 2317 C 203.962 -1.39305 -5.16235 0
M  V30 2318 C 205.262 -3.28244 -4.06267 0
M  V30 2319 H 206.956 -2.08975 -2.14406 0
M  V30 2320 H 204.502 -1.00612 -1.03021 0
M  V30 2321 H 206.455 -0.711151 -4.15356 0
M  V30 2322 H 205.179 0.154846 -3.26233 0
M  V30 2323 H 203.838 -1.97079 -3.09121 0
M  V30 2324 H 203.486 -0.409846 -5.01328 0
M  V30 2325 H 203.186 -2.10057 -5.48771 0
M  V30 2326 H 204.71 -1.30014 -5.96598 0
M  V30 2327 H 206.124 -3.21611 -4.74594 0
M  V30 2328 H 204.521 -3.96855 -4.5014 0
M  V30 2329 H 205.591 -3.72048 -3.10979 0
M  V30 2330 N 206.934 1.1197 -1.10907 0
M  V30 2331 C 207.881 2.17846 -0.762345 0
M  V30 2332 C 208.851 1.63995 0.263599 0
M  V30 2333 O 210.036 1.90273 0.141773 0
M  V30 2334 C 207.176 3.44487 -0.205651 0
M  V30 2335 C 206.289 4.12369 -1.28748 0
M  V30 2336 C 205.424 5.26674 -0.691919 0
M  V30 2337 C 204.463 5.86431 -1.75399 0
M  V30 2338 N 203.6 6.92142 -1.17833 0
M  V30 2339 H 208.44 2.46851 -1.6694 0
M  V30 2340 H 205.977 1.21188 -0.833776 0
M  V30 2341 H 207.935 4.16981 0.135037 0
M  V30 2342 H 206.565 3.15884 0.664613 0
M  V30 2343 H 205.617 3.38003 -1.74522 0
M  V30 2344 H 206.929 4.52844 -2.09125 0
M  V30 2345 H 206.083 6.05953 -0.300963 0
M  V30 2346 H 204.822 4.8749 0.143232 0
M  V30 2347 H 203.827 5.05835 -2.15432 0
M  V30 2348 H 205.052 6.27685 -2.59208 0
M  V30 2349 H 202.998 6.54985 -0.364725 0
M  V30 2350 H 202.915 7.31242 -1.91887 0
M  V30 2351 H 204.183 7.75237 -0.81408 0
M  V30 2352 N 208.412 0.89855 1.29475 0
M  V30 2353 C 209.342 0.39201 2.30186 0
M  V30 2354 C 210.323 -0.532359 1.61555 0
M  V30 2355 O 211.508 -0.443331 1.89072 0
M  V30 2356 C 208.638 -0.382353 3.45189 0
M  V30 2357 C 207.592 0.451483 4.25612 0
M  V30 2358 C 206.918 -0.450307 5.328 0
M  V30 2359 C 208.218 1.70079 4.93832 0
M  V30 2360 H 209.912 1.23362 2.72804 0
M  V30 2361 H 207.458 0.594638 1.31149 0
M  V30 2362 H 209.411 -0.747451 4.14718 0
M  V30 2363 H 208.135 -1.25774 3.01411 0
M  V30 2364 H 206.794 0.798897 3.57789 0
M  V30 2365 H 206.442 -1.32379 4.85268 0
M  V30 2366 H 206.142 0.103902 5.87508 0
M  V30 2367 H 207.666 -0.811623 6.05182 0
M  V30 2368 H 209.08 1.40549 5.55805 0
M  V30 2369 H 207.477 2.19623 5.58467 0
M  V30 2370 H 208.547 2.43744 4.19186 0
M  V30 2371 N 209.89 -1.43072 0.660911 0
M  V30 2372 C 210.838 -2.32569 -0.0378199 0
M  V30 2373 C 211.832 -1.49046 -0.805092 0
M  V30 2374 O 213.038 -1.65206 -0.714624 0
M  V30 2375 H 209.413 -0.75136 -0.031019 0
M  V30 2376 H 211.384 -2.89216 0.734609 0
M  V30 2377 C 210.133 -3.33453 -0.985124 0
M  V30 2378 H 209.456 -3.97752 -0.404147 0
M  V30 2379 H 210.896 -3.98691 -1.44297 0
M  V30 2380 C 209.355 -2.64642 -2.08486 0
M  V30 2381 O 209.885 -2.46776 -3.16961 0
M  V30 2382 N 208.091 -2.23891 -1.8526 0
M  V30 2383 H 207.638 -2.38621 -0.970449 0
M  V30 2384 H 207.596 -1.78181 -2.59034 0
M  V30 2385 N 211.368 -0.403325 -1.52352 0
M  V30 2386 C 212.645 0.232611 -1.94212 0
M  V30 2387 C 213.025 1.63133 -1.33981 0
M  V30 2388 O 212.373 2.22659 -0.513344 0
M  V30 2389 C 212.583 0.244811 -3.4814 0
M  V30 2390 C 213.931 0.46698 -4.22024 0
M  V30 2391 O 214.955 0.324419 -3.5472 0
M  V30 2392 O 213.814 0.74747 -5.41364 0
M  V30 2393 H 210.908 0.148223 -0.813609 0
M  V30 2394 H 213.454 -0.458848 -1.63379 0
M  V30 2395 H 212.226 -0.734378 -3.84347 0
M  V30 2396 H 211.849 0.980611 -3.85318 0
M  V30 2397 N 212.846 1.57033 -0.133567 0
M  V30 2398 C 214.076 1.99754 0.527429 0
M  V30 2399 C 214.484 1.01245 1.59832 0
M  V30 2400 O 213.827 -0.000645496 1.837 0
M  V30 2401 C 213.889 3.38903 1.19939 0
M  V30 2402 C 213.553 4.56174 0.274709 0
M  V30 2403 C 214.55 5.17563 -0.492398 0
M  V30 2404 C 212.235 5.01972 0.18153 0
M  V30 2405 C 214.229 6.2315 -1.34027 0
M  V30 2406 C 211.916 6.07416 -0.669958 0
M  V30 2407 C 212.914 6.67874 -1.42947 0
M  V30 2408 O 212.602 7.71279 -2.2668 0
M  V30 2409 H 212.334 0.660702 0.142999 0
M  V30 2410 H 214.888 2.04207 -0.221099 0
M  V30 2411 H 213.118 3.31248 1.99528 0
M  V30 2412 H 214.807 3.65818 1.75875 0
M  V30 2413 H 215.573 4.83087 -0.430367 0
M  V30 2414 H 211.452 4.54652 0.762422 0
M  V30 2415 H 214.996 6.70268 -1.93357 0
M  V30 2416 H 210.893 6.41321 -0.73333 0
M  V30 2417 H 211.661 7.88441 -2.1978 0
M  V30 2418 N 214.325 -0.140222 1.56975 0
M  V30 2419 C 215.255 -1.17456 2.01808 0
M  V30 2420 C 216.236 -1.44415 0.898794 0
M  V30 2421 O 217.421 -1.5522 1.16707 0
M  V30 2422 C 214.551 -2.50607 2.40444 0
M  V30 2423 C 213.505 -2.38155 3.55621 0
M  V30 2424 C 212.831 -3.76078 3.80091 0
M  V30 2425 C 214.131 -1.85991 4.88062 0
M  V30 2426 H 215.825 -0.801743 2.88466 0
M  V30 2427 H 213.371 -0.38422 1.38779 0
M  V30 2428 H 215.324 -3.23197 2.7041 0
M  V30 2429 H 214.048 -2.89737 1.50732 0
M  V30 2430 H 212.707 -1.68016 3.25832 0
M  V30 2431 H 212.355 -4.12656 2.87618 0
M  V30 2432 H 212.055 -3.68606 4.57606 0
M  V30 2433 H 213.579 -4.50206 4.12488 0
M  V30 2434 H 214.993 -2.4838 5.16701 0
M  V30 2435 H 213.39 -1.89393 5.6943 0
M  V30 2436 H 214.46 -0.816023 4.77984 0
M  V30 2437 N 215.803 -1.52179 -0.40978 0
M  V30 2438 C 216.735 -1.71703 -1.51825 0
M  V30 2439 C 217.748 -0.597445 -1.51441 0
M  V30 2440 O 218.937 -0.872582 -1.55719 0
M  V30 2441 C 216.037 -1.74171 -2.90719 0
M  V30 2442 C 215.21 -3.03156 -3.15302 0
M  V30 2443 C 214.269 -2.97445 -4.34065 0
M  V30 2444 O 213.295 -3.71352 -4.31377 0
M  V30 2445 N 214.497 -2.15191 -5.39141 0
M  V30 2446 H 217.262 -2.67334 -1.35472 0
M  V30 2447 H 214.823 -1.50409 -0.599069 0
M  V30 2448 H 216.815 -1.67884 -3.68235 0
M  V30 2449 H 215.385 -0.860166 -3.00533 0
M  V30 2450 H 214.605 -3.23097 -2.25836 0
M  V30 2451 H 215.893 -3.88484 -3.28569 0
M  V30 2452 H 215.291 -1.54573 -5.44173 0
M  V30 2453 H 213.848 -2.1476 -6.15403 0
M  V30 2454 N 217.281 0.66697 -1.42791 0
M  V30 2455 C 218.53 1.42278 -1.42968 0
M  V30 2456 C 218.843 1.9553 -0.0524489 0
M  V30 2457 O 220.049 2.71414 0.068363 0
M  V30 2458 C 218.505 2.57418 -2.51524 0
M  V30 2459 C 218.113 2.10832 -3.9529 0
M  V30 2460 C 219.857 3.34878 -2.60877 0
M  V30 2461 C 217.764 3.23101 -4.95338 0
M  V30 2462 H 216.694 0.534533 -0.531781 0
M  V30 2463 H 219.345 0.721302 -1.68729 0
M  V30 2464 H 217.727 3.29971 -2.18941 0
M  V30 2465 H 218.901 1.4538 -4.37266 0
M  V30 2466 H 217.216 1.46289 -3.89857 0
M  V30 2467 H 219.813 4.18505 -3.32802 0
M  V30 2468 H 220.156 3.81993 -1.6549 0
M  V30 2469 H 220.689 2.69398 -2.92693 0
M  V30 2470 H 217.428 2.80969 -5.9223 0
M  V30 2471 H 216.948 3.87309 -4.57987 0
M  V30 2472 H 218.627 3.88447 -5.17415 0
M  V30 2473 N 218.759 1.29093 0.90403 0
M  V30 2474 C 219.669 1.15727 2.0407 0
M  V30 2475 C 220.685 0.0815308 1.73809 0
M  V30 2476 O 221.861 0.292749 1.99261 0
M  V30 2477 C 218.926 0.830424 3.36608 0
M  V30 2478 C 217.987 1.98955 3.80415 0
M  V30 2479 C 217.22 1.6782 5.06628 0
M  V30 2480 O 217.443 0.597105 5.67266 0
M  V30 2481 O 216.377 2.52486 5.46383 0
M  V30 2482 H 220.203 2.11171 2.18267 0
M  V30 2483 H 217.788 1.08504 1.027 0
M  V30 2484 H 219.67 0.662521 4.16159 0
M  V30 2485 H 218.345 -0.0942678 3.23563 0
M  V30 2486 H 217.252 2.21267 3.01648 0
M  V30 2487 H 218.585 2.89529 3.98037 0
M  V30 2488 N 220.237 -1.11381 1.11499 0
M  V30 2489 C 221.465 -1.86934 0.88675 0
M  V30 2490 C 221.88 -1.80195 -0.563476 0
M  V30 2491 O 221.237 -1.18367 -1.38908 0
M  V30 2492 C 221.288 -3.35722 1.34064 0
M  V30 2493 O 221.009 -3.4232 2.73401 0
M  V30 2494 C 222.51 -4.2818 1.14791 0
M  V30 2495 H 219.73 -0.591117 0.317523 0
M  V30 2496 H 222.274 -1.40865 1.48248 0
M  V30 2497 H 220.429 -3.79294 0.788355 0
M  V30 2498 H 220.843 -4.34971 2.93087 0
M  V30 2499 H 222.317 -5.30817 1.5145 0
M  V30 2500 H 222.794 -4.39113 0.0875279 0
M  V30 2501 H 223.4 -3.90402 1.68721 0
M  V30 2502 N 221.715 -0.905404 -1.28997 0
M  V30 2503 C 222.964 -0.530191 -1.94607 0
M  V30 2504 C 223.277 0.929185 -1.72121 0
M  V30 2505 O 224.483 1.41218 -2.31883 0
M  V30 2506 C 222.939 -0.897333 -3.48534 0
M  V30 2507 C 222.547 -2.37587 -3.79811 0
M  V30 2508 C 224.291 -0.592304 -4.20347 0
M  V30 2509 C 222.198 -2.68357 -5.27009 0
M  V30 2510 H 221.128 -0.194558 -0.728466 0
M  V30 2511 H 223.779 -1.10318 -1.46636 0
M  V30 2512 H 222.161 -0.253214 -3.9519 0
M  V30 2513 H 223.335 -3.06602 -3.43994 0
M  V30 2514 H 221.65 -2.6505 -3.2115 0
M  V30 2515 H 224.247 -0.798975 -5.28697 0
M  V30 2516 H 224.59 0.469474 -4.13644 0
M  V30 2517 H 225.123 -1.19452 -3.79442 0
M  V30 2518 H 221.862 -3.73355 -5.38782 0
M  V30 2519 H 221.382 -2.03971 -5.64053 0
M  V30 2520 H 223.061 -2.54922 -5.94663 0
M  V30 2521 N 223.193 1.4272 -0.668489 0
M  V30 2522 C 224.125 2.2914 0.052613 0
M  V30 2523 C 225.138 1.43339 0.771857 0
M  V30 2524 O 226.327 1.67123 0.627067 0
M  V30 2525 C 223.427 3.20618 1.09804 0
M  V30 2526 C 222.6 4.35039 0.45389 0
M  V30 2527 C 221.659 5.07282 1.39825 0
M  V30 2528 O 220.685 5.62024 0.900978 0
M  V30 2529 N 221.887 5.12206 2.73176 0
M  V30 2530 H 224.652 2.91668 -0.689209 0
M  V30 2531 H 222.213 1.53577 -0.512422 0
M  V30 2532 H 224.205 3.65815 1.73094 0
M  V30 2533 H 222.775 2.59585 1.74167 0
M  V30 2534 H 221.995 3.92567 -0.358396 0
M  V30 2535 H 223.283 5.088 0.00486972 0
M  V30 2536 H 222.681 4.6913 3.16122 0
M  V30 2537 H 221.238 5.61069 3.31729 0
M  V30 2538 N 224.671 0.411399 1.52136 0
M  V30 2539 C 225.634 -0.401089 2.25663 0
M  V30 2540 C 226.634 -0.971732 1.28117 0
M  V30 2541 O 227.824 -0.850254 1.52041 0
M  V30 2542 C 224.956 -1.56483 3.02863 0
M  V30 2543 H 226.149 0.24295 2.98914 0
M  V30 2544 H 223.702 0.163968 1.55438 0
M  V30 2545 H 224.437 -2.24567 2.33967 0
M  V30 2546 H 224.222 -1.16211 3.74483 0
M  V30 2547 H 225.712 -2.13951 3.58629 0
M  V30 2548 N 226.149 -1.5696 0.141893 0
M  V30 2549 C 227.079 -2.19516 -0.795936 0
M  V30 2550 C 228.06 -1.14187 -1.26077 0
M  V30 2551 O 229.245 -1.42511 -1.31925 0
M  V30 2552 C 226.375 -2.81272 -2.03723 0
M  V30 2553 C 225.329 -3.92384 -1.70936 0
M  V30 2554 C 224.655 -4.41052 -3.02287 0
M  V30 2555 C 225.955 -5.13403 -0.959954 0
M  V30 2556 H 227.649 -2.98138 -0.274596 0
M  V30 2557 H 225.195 -1.43406 -0.130636 0
M  V30 2558 H 227.148 -3.237 -2.69808 0
M  V30 2559 H 225.872 -1.99973 -2.58221 0
M  V30 2560 H 224.531 -3.50566 -1.07232 0
M  V30 2561 H 224.179 -3.56582 -3.54765 0
M  V30 2562 H 223.879 -5.15993 -2.81114 0
M  V30 2563 H 225.403 -4.86146 -3.69451 0
M  V30 2564 H 226.817 -5.52706 -1.52279 0
M  V30 2565 H 225.214 -5.94073 -0.848357 0
M  V30 2566 H 226.284 -4.84875 0.0492434 0
M  V30 2567 N 227.627 0.131896 -1.57047 0
M  V30 2568 C 228.537 1.1815 -2.02676 0
M  V30 2569 C 229.553 1.46113 -0.944824 0
M  V30 2570 O 230.729 1.57485 -1.25541 0
M  V30 2571 C 227.794 2.49139 -2.41103 0
M  V30 2572 C 226.855 2.28688 -3.63318 0
M  V30 2573 C 226.088 3.53431 -3.99903 0
M  V30 2574 O 226.311 4.60223 -3.36973 0
M  V30 2575 O 225.245 3.45198 -4.93074 0
M  V30 2576 H 229.071 0.824069 -2.92306 0
M  V30 2577 H 226.656 0.341745 -1.45439 0
M  V30 2578 H 228.538 3.26338 -2.66611 0
M  V30 2579 H 227.213 2.84382 -1.54624 0
M  V30 2580 H 226.12 1.4939 -3.42977 0
M  V30 2581 H 227.453 1.98355 -4.50462 0
M  V30 2582 N 229.106 1.52395 0.401703 0
M  V30 2583 C 230.016 1.7917 1.51444 0
M  V30 2584 C 231.032 0.677691 1.6026 0
M  V30 2585 O 232.208 0.963909 1.76835 0
M  V30 2586 C 229.273 1.94347 2.87107 0
M  V30 2587 C 228.334 3.18257 2.88116 0
M  V30 2588 C 227.567 3.32701 4.17308 0
M  V30 2589 O 227.79 2.52238 5.11598 0
M  V30 2590 O 226.724 4.25891 4.25324 0
M  V30 2591 H 230.55 2.73633 1.31752 0
M  V30 2592 H 228.135 1.3733 0.588296 0
M  V30 2593 H 230.017 2.06109 3.67555 0
M  V30 2594 H 228.692 1.03073 3.06851 0
M  V30 2595 H 227.599 3.11947 2.06494 0
M  V30 2596 H 228.932 4.09336 2.73322 0
M  V30 2597 N 230.584 -0.659388 1.43143 0
M  V30 2598 C 231.514 -1.78422 1.50625 0
M  V30 2599 C 232.495 -1.66216 0.361443 0
M  V30 2600 O 233.68 -1.85404 0.577834 0
M  V30 2601 C 230.81 -3.16815 1.42287 0
M  V30 2602 C 229.764 -3.43777 2.54954 0
M  V30 2603 C 229.09 -4.81905 2.31671 0
M  V30 2604 C 230.39 -3.39134 3.97222 0
M  V30 2605 H 232.084 -1.72417 2.44771 0
M  V30 2606 H 229.63 -0.828084 1.17808 0
M  V30 2607 H 231.583 -3.95253 1.46127 0
M  V30 2608 H 230.307 -3.23534 0.446435 0
M  V30 2609 H 228.966 -2.67707 2.50457 0
M  V30 2610 H 228.614 -4.85294 1.32284 0
M  V30 2611 H 228.314 -5.00906 3.07192 0
M  V30 2612 H 229.838 -5.62609 2.37284 0
M  V30 2613 H 231.252 -4.07518 4.03239 0
M  V30 2614 H 229.649 -3.69671 4.72719 0
M  V30 2615 H 230.719 -2.37426 4.22797 0
M  V30 2616 N 232.062 -1.29571 -0.897171 0
M  V30 2617 C 233.025 -1.14913 -1.98312 0
M  V30 2618 C 234.025 -0.0838629 -1.60581 0
M  V30 2619 O 235.215 -0.331006 -1.71026 0
M  V30 2620 C 232.347 -0.757835 -3.3237 0
M  V30 2621 H 233.54 -2.11377 -2.12743 0
M  V30 2622 H 231.093 -1.12793 -1.08201 0
M  V30 2623 H 231.828 0.206837 -3.2364 0
M  V30 2624 H 231.613 -1.52755 -3.61121 0
M  V30 2625 H 233.103 -0.678408 -4.12053 0
M  V30 2626 N 233.54 1.10788 -1.12088 0
M  V30 2627 C 234.503 2.15207 -0.788577 0
M  V30 2628 C 235.503 1.59609 0.195317 0
M  V30 2629 O 236.693 1.74174 -0.0300193 0
M  V30 2630 C 233.825 3.4047 -0.171174 0
M  V30 2631 H 235.018 2.46116 -1.71368 0
M  V30 2632 H 232.571 1.26089 -0.923652 0
M  V30 2633 H 233.306 3.15176 0.763832 0
M  V30 2634 H 233.091 3.82109 -0.879514 0
M  V30 2635 H 234.581 4.17576 0.04496 0
M  V30 2636 N 235.018 0.912232 1.28515 0
M  V30 2637 C 235.965 0.397954 2.27343 0
M  V30 2638 C 236.935 -0.526766 1.57526 0
M  V30 2639 O 238.12 -0.449292 1.85435 0
M  V30 2640 C 235.26 -0.357263 3.43246 0
M  V30 2641 C 234.373 0.599788 4.27816 0
M  V30 2642 C 233.508 -0.173725 5.30916 0
M  V30 2643 C 232.547 0.777039 6.07148 0
M  V30 2644 N 231.684 0.0371398 7.0209 0
M  V30 2645 H 236.524 1.24577 2.70711 0
M  V30 2646 H 234.061 0.625612 1.33133 0
M  V30 2647 H 236.019 -0.8113 4.09236 0
M  V30 2648 H 234.649 -1.16943 3.00872 0
M  V30 2649 H 233.701 1.17235 3.61884 0
M  V30 2650 H 235.013 1.32704 4.80823 0
M  V30 2651 H 234.167 -0.688394 6.02782 0
M  V30 2652 H 232.906 -0.934041 4.78672 0
M  V30 2653 H 231.911 1.3031 5.34134 0
M  V30 2654 H 233.136 1.53689 6.61481 0
M  V30 2655 H 231.082 -0.705213 6.52198 0
M  V30 2656 H 230.999 0.704249 7.52713 0
M  V30 2657 H 232.267 -0.457383 7.78157 0
M  V30 2658 N 236.496 -1.42363 0.676048 0
M  V30 2659 C 237.406 -2.346 -0.00153389 0
M  V30 2660 C 238.422 -1.5516 -0.787485 0
M  V30 2661 O 239.598 -1.87723 -0.729521 0
M  V30 2662 C 236.663 -3.33705 -0.940298 0
M  V30 2663 C 235.724 -4.29042 -0.148739 0
M  V30 2664 C 234.957 -5.23413 -1.04279 0
M  V30 2665 O 235.18 -5.22749 -2.28232 0
M  V30 2666 O 234.114 -5.99795 -0.502925 0
M  V30 2667 H 237.94 -2.94082 0.758268 0
M  V30 2668 H 235.525 -1.42888 0.436289 0
M  V30 2669 H 237.407 -3.94586 -1.47917 0
M  V30 2670 H 236.082 -2.76695 -1.67993 0
M  V30 2671 H 234.989 -3.71571 0.43427 0
M  V30 2672 H 236.322 -4.89097 0.551805 0
M  V30 2673 N 237.974 -0.419461 -1.51915 0
M  V30 2674 C 238.921 0.400927 -2.27291 0
M  V30 2675 C 239.891 1.03224 -1.30131 0
M  V30 2676 O 241.076 1.05455 -1.59009 0
M  V30 2677 C 238.216 1.50603 -3.10504 0
M  V30 2678 C 237.329 0.89462 -4.22635 0
M  V30 2679 C 236.464 1.97328 -4.93189 0
M  V30 2680 C 235.503 1.33935 -5.97267 0
M  V30 2681 N 234.64 2.3586 -6.61298 0
M  V30 2682 H 239.48 -0.248251 -2.96964 0
M  V30 2683 H 237.017 -0.134266 -1.46486 0
M  V30 2684 H 238.975 2.15783 -3.57062 0
M  V30 2685 H 237.605 2.12509 -2.42981 0
M  V30 2686 H 236.657 0.131583 -3.80172 0
M  V30 2687 H 237.969 0.391641 -4.9726 0
M  V30 2688 H 237.123 2.70211 -5.43204 0
M  V30 2689 H 235.862 2.50994 -4.18155 0
M  V30 2690 H 234.867 0.595896 -5.46561 0
M  V30 2691 H 236.092 0.810252 -6.74249 0
M  V30 2692 H 234.038 2.88639 -5.89087 0
M  V30 2693 H 233.955 1.90403 -7.3163 0
M  V30 2694 H 235.223 3.08282 -7.15949 0
M  V30 2695 N 239.452 1.56882 -0.150215 0
M  V30 2696 C 240.415 2.1573 0.774157 0
M  V30 2697 C 241.415 1.0999 1.17298 0
M  V30 2698 O 242.605 1.35613 1.09338 0
M  V30 2699 C 239.737 2.72302 2.05096 0
M  V30 2700 H 240.93 2.98752 0.262201 0
M  V30 2701 H 238.483 1.55985 0.099248 0
M  V30 2702 H 239.218 1.92956 2.6065 0
M  V30 2703 H 239.003 3.49665 1.77416 0
M  V30 2704 H 240.493 3.17632 2.71109 0
M  V30 2705 N 240.93 -0.123565 1.57115 0
M  V30 2706 C 241.878 -1.17082 2.00984 0
M  V30 2707 C 242.872 -1.43136 0.906009 0
M  V30 2708 O 244.078 -1.43152 1.09121 0
M  V30 2709 H 240.453 -0.394653 0.64012 0
M  V30 2710 H 242.424 -0.774292 2.88179 0
M  V30 2711 C 241.173 -2.49057 2.42623 0
M  V30 2712 H 240.496 -2.29846 3.27125 0
M  V30 2713 H 241.936 -3.20906 2.7712 0
M  V30 2714 C 240.395 -3.11305 1.28805 0
M  V30 2715 O 240.925 -3.97171 0.60153 0
M  V30 2716 N 239.131 -2.71111 1.04628 0
M  V30 2717 H 238.678 -2.01382 1.60634 0
M  V30 2718 H 238.636 -3.1309 0.286685 0
M  V30 2719 N 242.408 -1.52605 -0.393616 0
M  V30 2720 C 243.318 -1.79971 -1.50492 0
M  V30 2721 C 244.334 -0.686181 -1.59899 0
M  V30 2722 O 245.51 -0.973274 -1.76322 0
M  V30 2723 C 242.575 -1.95867 -2.86072 0
M  V30 2724 C 241.636 -3.19781 -2.86424 0
M  V30 2725 C 240.869 -3.34909 -4.15538 0
M  V30 2726 O 241.092 -2.54948 -5.10253 0
M  V30 2727 O 240.026 -4.28141 -4.23059 0
M  V30 2728 H 243.852 -2.74328 -1.30299 0
M  V30 2729 H 241.437 -1.3764 -0.581005 0
M  V30 2730 H 243.319 -2.08056 -3.66457 0
M  V30 2731 H 241.994 -1.04699 -3.063 0
M  V30 2732 H 240.901 -3.13038 -2.04837 0
M  V30 2733 H 242.234 -4.1078 -2.71147 0
M  V30 2734 N 243.887 0.651787 -1.4349 0
M  V30 2735 C 245.164 1.40909 -1.35661 0
M  V30 2736 C 245.544 2.11099 -0.00511733 0
M  V30 2737 O 244.892 2.04892 1.0115 0
M  V30 2738 C 245.102 2.3926 -2.54078 0
M  V30 2739 C 246.45 3.03217 -2.97228 0
M  V30 2740 O 247.474 2.49588 -2.54135 0
M  V30 2741 O 246.333 4.00455 -3.71885 0
M  V30 2742 H 243.427 0.629625 -0.536191 0
M  V30 2743 H 245.973 0.678575 -1.55542 0
M  V30 2744 H 244.745 1.86352 -3.44076 0
M  V30 2745 H 244.368 3.1976 -2.36303 0
M  V30 2746 N 245.365 1.30045 0.890287 0
M  V30 2747 C 246.328 1.15963 1.977 0
M  V30 2748 C 247.328 0.0923777 1.60534 0
M  V30 2749 O 248.518 0.340071 1.70848 0
M  V30 2750 C 245.65 0.775451 3.31963 0
M  V30 2751 H 246.843 2.12502 2.11619 0
M  V30 2752 H 244.396 1.13366 1.07601 0
M  V30 2753 H 245.131 -0.189671 3.23745 0
M  V30 2754 H 244.916 1.54668 3.60306 0
M  V30 2755 H 246.406 0.700251 4.11687 0
M  V30 2756 N 246.843 -1.10192 1.12674 0
M  V30 2757 C 248.089 -1.82475 0.884915 0
M  V30 2758 C 248.422 -1.85093 -0.58773 0
M  V30 2759 O 247.697 -1.3134 -1.43457 0
M  V30 2760 C 247.98 -3.29018 1.46353 0
M  V30 2761 C 247.833 -3.34718 3.00473 0
M  V30 2762 C 249.152 -4.25473 1.12519 0
M  V30 2763 H 246.271 -0.662492 0.322915 0
M  V30 2764 H 248.913 -1.2913 1.39375 0
M  V30 2765 H 247.063 -3.74576 1.03077 0
M  V30 2766 H 248.735 -2.97622 3.52447 0
M  V30 2767 H 246.978 -2.74541 3.35872 0
M  V30 2768 H 247.649 -4.37918 3.36053 0
M  V30 2769 H 250.125 -3.88161 1.499 0
M  V30 2770 H 249.001 -5.26365 1.55663 0
M  V30 2771 H 249.262 -4.42084 0.0377407 0
M  V30 2772 N 248.321 -0.919034 -1.28029 0
M  V30 2773 C 249.732 -0.600735 -1.76771 0
M  V30 2774 C 250.083 0.884024 -1.75156 0
M  V30 2775 O 249.208 1.69163 -1.34956 0
M  V30 2776 C 249.803 -1.08372 -3.21 0
M  V30 2777 C 248.362 -0.816248 -3.67443 0
M  V30 2778 C 247.509 -1.24742 -2.47658 0
M  V30 2779 H 250.46 -1.09974 -1.14418 0
M  V30 2780 H 250.481 -0.427512 -3.78091 0
M  V30 2781 H 249.993 -2.16437 -3.22144 0
M  V30 2782 H 248.094 0.250968 -3.71754 0
M  V30 2783 H 248.207 -1.4277 -4.57333 0
M  V30 2784 H 246.571 -0.666083 -2.45836 0
M  V30 2785 H 247.354 -2.33653 -2.51518 0
M  V30 2786 N 249.799 1.42003 -0.683588 0
M  V30 2787 C 250.729 2.33487 -0.024866 0
M  V30 2788 C 251.71 1.51163 0.779975 0
M  V30 2789 O 252.895 1.79739 0.735362 0
M  V30 2790 C 250.025 3.3487 0.920836 0
M  V30 2791 C 248.979 4.27414 0.223958 0
M  V30 2792 C 248.305 5.19074 1.2832 0
M  V30 2793 C 249.605 5.14445 -0.90242 0
M  V30 2794 H 251.299 2.88819 -0.788921 0
M  V30 2795 H 248.845 1.38873 -0.38083 0
M  V30 2796 H 250.798 3.97787 1.39081 0
M  V30 2797 H 249.522 2.77861 1.71642 0
M  V30 2798 H 248.181 3.65904 -0.225864 0
M  V30 2799 H 247.829 4.58387 2.071 0
M  V30 2800 H 247.529 5.81822 0.821995 0
M  V30 2801 H 249.053 5.84867 1.75392 0
M  V30 2802 H 250.467 5.70998 -0.513272 0
M  V30 2803 H 248.864 5.86072 -1.28997 0
M  V30 2804 H 249.934 4.52322 -1.74737 0
M  V30 2805 N 251.277 0.427512 1.51691 0
M  V30 2806 C 252.517 -0.141524 2.03909 0
M  V30 2807 C 252.881 -1.40811 1.30523 0
M  V30 2808 O 254.082 -2.05676 1.73063 0
M  V30 2809 C 252.353 -0.364962 3.55532 0
M  V30 2810 S 253.912 -0.898812 4.29496 0
M  V30 2811 H 250.73 -0.0364542 0.710065 0
M  V30 2812 H 253.332 0.584659 1.86553 0
M  V30 2813 H 252.036 0.56336 4.06515 0
M  V30 2814 H 251.567 -1.1185 3.77164 0
M  V30 2815 H 253.582 -2.17747 4.45871 0
M  V30 2816 N 252.755 -1.56801 0.158532 0
M  V30 2817 C 253.688 -2.13148 -0.815065 0
M  V30 2818 C 254.666 -1.0581 -1.23462 0
M  V30 2819 O 255.85 -1.3371 -1.32868 0
M  V30 2820 C 252.977 -2.6606 -2.09594 0
M  V30 2821 C 252.023 -3.85651 -1.82141 0
M  V30 2822 S 252.856 -5.26041 -1.00207 0
M  V30 2823 C 254.012 -5.8235 -2.29389 0
M  V30 2824 H 254.245 -2.95396 -0.335937 0
M  V30 2825 H 251.778 -1.54299 -0.0559391 0
M  V30 2826 H 253.736 -2.97195 -2.8317 0
M  V30 2827 H 252.397 -1.83921 -2.54621 0
M  V30 2828 H 251.59 -4.20958 -2.77147 0
M  V30 2829 H 251.192 -3.55338 -1.16667 0
M  V30 2830 H 253.484 -5.94485 -3.24952 0
M  V30 2831 H 254.427 -6.79688 -1.9857 0
M  V30 2832 H 254.835 -5.10675 -2.40564 0
M  V30 2833 N 254.233 0.115231 -1.57178 0
M  V30 2834 C 255.458 0.840354 -1.89612 0
M  V30 2835 C 255.883 1.72464 -0.750845 0
M  V30 2836 O 255.241 1.78826 0.298478 0
M  V30 2837 C 255.289 1.64654 -3.20814 0
M  V30 2838 O 254.393 2.7538 -3.06985 0
M  V30 2839 H 253.734 0.232158 -0.622092 0
M  V30 2840 H 256.264 0.0964977 -2.04372 0
M  V30 2841 H 256.274 2.03499 -3.53627 0
M  V30 2842 H 254.949 0.997416 -4.03763 0
M  V30 2843 H 253.526 2.3971 -2.85646 0
M  V30 2844 N 255.711 1.52812 0.385517 0
M  V30 2845 C 256.674 1.77188 1.45386 0
M  V30 2846 C 257.674 0.641953 1.4743 0
M  V30 2847 O 258.864 0.910033 1.4854 0
M  V30 2848 C 255.996 1.87582 2.8465 0
M  V30 2849 H 257.189 2.72583 1.25054 0
M  V30 2850 H 254.742 1.43586 0.617467 0
M  V30 2851 H 255.477 0.941849 3.10322 0
M  V30 2852 H 255.262 2.69748 2.84567 0
M  V30 2853 H 256.752 2.08102 3.62054 0
M  V30 2854 N 257.189 -0.644168 1.43834 0
M  V30 2855 C 258.466 -1.40188 1.36406 0
M  V30 2856 C 258.846 -2.11094 0.0163124 0
M  V30 2857 O 258.194 -2.05426 -1.00062 0
M  V30 2858 C 258.404 -2.3791 2.55343 0
M  V30 2859 C 259.752 -3.01637 2.98832 0
M  V30 2860 O 260.776 -2.48237 2.55455 0
M  V30 2861 O 259.635 -3.98477 3.74003 0
M  V30 2862 H 256.729 -0.626773 0.539523 0
M  V30 2863 H 259.275 -0.670317 1.559 0
M  V30 2864 H 258.047 -1.84525 3.4506 0
M  V30 2865 H 257.67 -3.18503 2.37995 0
M  V30 2866 N 258.668 -1.30515 -0.883378 0
M  V30 2867 C 259.915 -1.1943 -1.63532 0
M  V30 2868 C 260.243 0.250627 -1.92878 0
M  V30 2869 O 259.498 1.19556 -1.54935 0
M  V30 2870 C 259.797 -1.96994 -2.98209 0
M  V30 2871 C 259.463 -3.466 -2.88408 0
M  V30 2872 C 258.125 -3.87397 -2.85442 0
M  V30 2873 C 260.477 -4.41863 -2.76418 0
M  V30 2874 C 257.805 -5.21745 -2.68327 0
M  V30 2875 C 260.157 -5.7632 -2.60841 0
M  V30 2876 C 258.821 -6.16354 -2.56251 0
M  V30 2877 H 258.091 -0.437025 -0.598406 0
M  V30 2878 H 260.738 -1.61635 -1.02696 0
M  V30 2879 H 259.043 -1.47429 -3.63004 0
M  V30 2880 H 260.74 -1.85808 -3.55354 0
M  V30 2881 H 257.33 -3.14182 -2.91527 0
M  V30 2882 H 261.514 -4.11285 -2.77775 0
M  V30 2883 H 256.77 -5.51853 -2.63189 0
M  V30 2884 H 260.944 -6.49772 -2.50538 0
M  V30 2885 H 258.571 -7.20401 -2.42748 0
M  V30 2886 N 260.146 1.09593 -1.13257 0
M  V30 2887 C 261.557 1.63229 -0.906274 0
M  V30 2888 C 261.908 1.8811 0.557578 0
M  V30 2889 O 261.033 1.62953 1.42391 0
M  V30 2890 C 261.628 2.96535 -1.63867 0
M  V30 2891 C 260.187 3.47003 -1.45828 0
M  V30 2892 C 259.334 2.2145 -1.66898 0
M  V30 2893 H 262.285 0.92978 -1.28611 0
M  V30 2894 H 262.306 3.64411 -1.09476 0
M  V30 2895 H 261.818 2.78394 -2.70404 0
M  V30 2896 H 259.919 3.70272 -0.415848 0
M  V30 2897 H 260.032 4.24551 -2.2202 0
M  V30 2898 H 258.396 2.30022 -1.09371 0
M  V30 2899 H 259.179 2.0583 -2.74752 0
M  V30 2900 N 261.624 0.925811 1.2754 0
M  V30 2901 C 263.04 0.625767 1.46821 0
M  V30 2902 C 263.24 -0.825506 1.83814 0
M  V30 2903 O 262.296 -1.60356 1.95044 0
M  V30 2904 C 263.609 1.57402 2.56213 0
M  V30 2905 C 265.157 1.58204 2.70075 0
M  V30 2906 C 265.632 2.51721 3.82623 0
M  V30 2907 N 267.123 2.49917 3.89994 0
M  V30 2908 C 267.858 3.18968 4.76494 0
M  V30 2909 N 267.354 3.97391 5.67496 0
M  V30 2910 N 269.147 3.07996 4.70208 0
M  V30 2911 H 261.298 1.86409 1.01811 0
M  V30 2912 H 263.561 0.800213 0.508295 0
M  V30 2913 H 263.267 2.60925 2.35819 0
M  V30 2914 H 263.141 1.31428 3.53563 0
M  V30 2915 H 265.528 0.554124 2.89851 0
M  V30 2916 H 265.609 1.88226 1.73218 0
M  V30 2917 H 265.253 3.54622 3.63601 0
M  V30 2918 H 265.183 2.18996 4.78903 0
M  V30 2919 H 267.674 1.9296 3.24923 0
M  V30 2920 H 267.987 4.4707 6.30356 0
M  V30 2921 H 266.332 4.01495 5.67298 0
M  V30 2922 H 269.523 2.46223 3.9811 0
M  V30 2923 H 269.696 3.6208 5.37403 0
M  V30 2924 N 263.102 -1.41638 0.69111 0
M  V30 2925 C 264.348 -2.01598 0.220519 0
M  V30 2926 C 264.681 -1.54594 -1.17535 0
M  V30 2927 O 263.956 -0.755177 -1.79241 0
M  V30 2928 C 264.239 -3.59062 0.273243 0
M  V30 2929 C 264.092 -4.16203 1.70573 0
M  V30 2930 C 265.411 -4.38546 -0.369457 0
M  V30 2931 H 262.53 -0.732468 0.0816045 0
M  V30 2932 H 265.172 -1.68445 0.878986 0
M  V30 2933 H 263.322 -3.87435 -0.287411 0
M  V30 2934 H 264.994 -3.98722 2.31989 0
M  V30 2935 H 263.237 -3.71414 2.2413 0
M  V30 2936 H 263.908 -5.25358 1.69419 0
M  V30 2937 H 266.384 -4.1596 0.107977 0
M  V30 2938 H 265.26 -5.48069 -0.302002 0
M  V30 2939 H 265.521 -4.17662 -1.44951 0
M  V30 2940 N 264.58 -0.43555 -1.51462 0
M  V30 2941 C 265.828 0.131254 -2.01673 0
M  V30 2942 C 266.149 1.43368 -1.32177 0
M  V30 2943 O 265.419 1.90524 -0.455769 0
M  V30 2944 H 263.999 0.0514954 -0.745223 0
M  V30 2945 H 266.661 -0.577847 -1.86137 0
M  V30 2946 H 265.757 0.308446 -3.10572 0
M  V30 2947 N 266.058 1.56714 -0.166846 0
M  V30 2948 C 266.991 2.13577 0.80375 0
M  V30 2949 C 267.969 1.06464 1.22899 0
M  V30 2950 O 269.153 1.34413 1.32157 0
M  V30 2951 C 266.28 2.67168 2.0818 0
M  V30 2952 C 265.326 3.86612 1.80093 0
M  V30 2953 S 266.159 5.26565 0.97416 0
M  V30 2954 C 267.315 5.83558 2.26297 0
M  V30 2955 H 267.548 2.9557 0.320267 0
M  V30 2956 H 265.081 1.54326 0.0477555 0
M  V30 2957 H 267.039 2.98692 2.8159 0
M  V30 2958 H 265.7 1.85269 2.53642 0
M  V30 2959 H 264.893 4.22422 2.7491 0
M  V30 2960 H 264.495 3.55951 1.14781 0
M  V30 2961 H 266.787 5.962 3.21795 0
M  V30 2962 H 267.73 6.80731 1.94962 0
M  V30 2963 H 268.138 5.11944 2.37853 0
M  V30 2964 N 267.536 -0.106894 1.57237 0
M  V30 2965 C 268.784 -0.810921 1.85117 0
M  V30 2966 C 269.105 -1.7984 0.753827 0
M  V30 2967 O 268.375 -1.94649 -0.221056 0
M  V30 2968 H 266.955 -0.302466 0.683025 0
M  V30 2969 H 269.617 -0.0913324 1.94686 0
M  V30 2970 H 268.713 -1.34875 2.81452 0
M  V30 2971 N 269.014 -1.53014 -0.377408 0
M  V30 2972 C 270.239 -1.72818 -1.14668 0
M  V30 2973 C 270.664 -0.450725 -1.8262 0
M  V30 2974 O 270.022 0.59439 -1.7128 0
M  V30 2975 C 270.07 -2.88627 -2.16164 0
M  V30 2976 O 269.174 -2.56409 -3.22998 0
M  V30 2977 H 268.515 -0.574301 -0.333278 0
M  V30 2978 H 271.045 -1.99853 -0.438152 0
M  V30 2979 H 271.055 -3.14455 -2.59966 0
M  V30 2980 H 269.73 -3.81294 -1.66095 0
M  V30 2981 H 268.307 -2.4136 -2.84253 0
M  V30 2982 N 270.492 0.636531 -1.44174 0
M  V30 2983 C 271.717 1.42847 -1.50364 0
M  V30 2984 C 272.142 1.87665 -0.127867 0
M  V30 2985 O 271.5 1.58408 0.88185 0
M  V30 2986 C 271.548 2.62854 -2.4686 0
M  V30 2987 O 270.652 3.62501 -1.9664 0
M  V30 2988 H 269.993 0.427642 -0.507955 0
M  V30 2989 H 272.523 0.777422 -1.89255 0
M  V30 2990 H 272.533 3.10465 -2.64718 0
M  V30 2991 H 271.208 2.29578 -3.46795 0
M  V30 2992 H 269.785 3.21735 -1.88523 0
M  V30 2993 N 271.97 1.30982 0.876444 0
M  V30 2994 C 273.2 1.23063 1.65949 0
M  V30 2995 C 273.608 -0.207537 1.88058 0
M  V30 2996 O 272.951 -1.14781 1.43426 0
M  V30 2997 C 273.013 1.89768 3.05333 0
M  V30 2998 C 272.677 3.39106 3.0636 0
M  V30 2999 C 273.674 4.3496 2.84791 0
M  V30 3000 C 271.359 3.80693 3.27686 0
M  V30 3001 C 273.353 5.70375 2.84519 0
M  V30 3002 C 271.04 5.16223 3.27043 0
M  V30 3003 C 272.038 6.10875 3.05485 0
M  V30 3004 O 271.726 7.43928 3.04674 0
M  V30 3005 H 271.458 0.426685 0.524324 0
M  V30 3006 H 274.012 1.7329 1.10271 0
M  V30 3007 H 272.242 1.34082 3.6271 0
M  V30 3008 H 273.931 1.75853 3.65829 0
M  V30 3009 H 274.697 4.0416 2.68103 0
M  V30 3010 H 270.576 3.07457 3.43499 0
M  V30 3011 H 274.12 6.44228 2.67611 0
M  V30 3012 H 270.017 5.4666 3.43269 0
M  V30 3013 H 270.785 7.53022 3.2078 0
M  V30 3014 N 273.449 -1.08991 1.13837 0
M  V30 3015 C 274.397 -2.17841 0.815347 0
M  V30 3016 C 275.391 -1.68164 -0.204233 0
M  V30 3017 O 276.597 -1.79897 -0.0609304 0
M  V30 3018 H 272.972 -0.710654 0.245915 0
M  V30 3019 H 274.943 -2.42315 1.74143 0
M  V30 3020 C 273.692 -3.46381 0.302614 0
M  V30 3021 H 273.015 -3.84979 1.0785 0
M  V30 3022 H 274.455 -4.23844 0.115074 0
M  V30 3023 C 272.914 -3.22556 -0.972591 0
M  V30 3024 O 273.444 -3.45599 -2.04754 0
M  V30 3025 N 271.65 -2.76134 -0.905455 0
M  V30 3026 H 271.197 -2.57582 -0.0305421 0
M  V30 3027 H 271.155 -2.60571 -1.75926 0
M  V30 3028 N 274.927 -0.932562 -1.27047 0
M  V30 3029 C 276.175 -0.574422 -1.93765 0
M  V30 3030 C 276.496 0.887993 -1.73608 0
M  V30 3031 O 275.766 1.62999 -1.08665 0
M  V30 3032 H 274.346 -0.209451 -0.717035 0
M  V30 3033 H 277.008 -1.18601 -1.5466 0
M  V30 3034 H 276.104 -0.784841 -3.02071 0
M  V30 3035 N 276.405 1.4127 -0.698611 0
M  V30 3036 C 277.337 2.292 0.00399731 0
M  V30 3037 C 278.35 1.44944 0.741279 0
M  V30 3038 O 279.539 1.68416 0.591477 0
M  V30 3039 C 276.639 3.22875 1.02979 0
M  V30 3040 C 275.812 4.35904 0.36151 0
M  V30 3041 C 274.871 5.10134 1.29033 0
M  V30 3042 O 273.897 5.63809 0.781562 0
M  V30 3043 N 275.099 5.17885 2.6225 0
M  V30 3044 H 277.864 2.9014 -0.750921 0
M  V30 3045 H 275.425 1.52455 -0.544882 0
M  V30 3046 H 277.417 3.69404 1.65296 0
M  V30 3047 H 275.987 2.63221 1.68622 0
M  V30 3048 H 275.207 3.91719 -0.441584 0
M  V30 3049 H 276.495 5.08696 -0.103055 0
M  V30 3050 H 275.893 4.7573 3.061 0
M  V30 3051 H 274.45 5.6798 3.19754 0
M  V30 3052 N 277.883 0.443576 1.51229 0
M  V30 3053 C 279.16 -0.181038 1.9476 0
M  V30 3054 C 279.54 -1.59523 1.38259 0
M  V30 3055 O 278.888 -2.2122 0.572198 0
M  V30 3056 C 279.098 -0.152422 3.48667 0
M  V30 3057 C 280.446 -0.354923 4.23114 0
M  V30 3058 O 281.47 -0.230257 3.55455 0
M  V30 3059 O 280.329 -0.603674 5.43156 0
M  V30 3060 H 277.423 -0.1266 0.817252 0
M  V30 3061 H 279.969 0.502004 1.62105 0
M  V30 3062 H 278.741 0.836022 3.82265 0
M  V30 3063 H 278.364 -0.878107 3.87782 0
M  V30 3064 N 279.361 -1.56624 0.175154 0
M  V30 3065 C 280.271 -2.21741 -0.766042 0
M  V30 3066 C 281.287 -1.21023 -1.25018 0
M  V30 3067 O 282.463 -1.53697 -1.3015 0
M  V30 3068 C 279.528 -2.84839 -1.97655 0
M  V30 3069 C 278.589 -4.00769 -1.53892 0
M  V30 3070 C 277.822 -4.60849 -2.69173 0
M  V30 3071 O 278.045 -4.19823 -3.86141 0
M  V30 3072 O 276.979 -5.50655 -2.43028 0
M  V30 3073 H 280.805 -3.02738 -0.241585 0
M  V30 3074 H 278.39 -1.49305 -0.053222 0
M  V30 3075 H 280.272 -3.24834 -2.68442 0
M  V30 3076 H 278.947 -2.06836 -2.48999 0
M  V30 3077 H 277.854 -3.65436 -0.80044 0
M  V30 3078 H 279.187 -4.80376 -1.07236 0
M  V30 3079 N 280.839 0.0985539 -1.57292 0
M  V30 3080 C 282.085 0.803867 -1.86188 0
M  V30 3081 C 282.418 1.78549 -0.763794 0
M  V30 3082 O 281.693 1.93153 0.22855 0
M  V30 3083 C 281.976 1.53568 -3.25713 0
M  V30 3084 C 281.829 0.572277 -4.46145 0
M  V30 3085 C 283.148 2.48708 -3.63087 0
M  V30 3086 H 280.267 0.290781 -0.677211 0
M  V30 3087 H 282.909 0.0675783 -1.8988 0
M  V30 3088 H 281.059 2.16332 -3.22696 0
M  V30 3089 H 282.731 -0.0480894 -4.61275 0
M  V30 3090 H 280.974 -0.114618 -4.33649 0
M  V30 3091 H 281.645 1.12139 -5.40489 0
M  V30 3092 H 284.121 1.96039 -3.67026 0
M  V30 3093 H 282.997 2.96932 -4.61652 0
M  V30 3094 H 283.258 3.32309 -2.91588 0
M  V30 3095 N 282.317 1.53212 0.369288 0
M  V30 3096 C 283.594 1.59815 1.12776 0
M  V30 3097 C 283.974 0.403402 2.0721 0
M  V30 3098 O 283.322 -0.606667 2.20299 0
M  V30 3099 C 283.532 2.94664 1.87013 0
M  V30 3100 C 284.88 3.49109 2.41677 0
M  V30 3101 O 285.904 2.96669 1.97144 0
M  V30 3102 O 284.763 4.40775 3.23079 0
M  V30 3103 H 281.857 0.645376 0.517125 0
M  V30 3104 H 284.403 1.65553 0.37285 0
M  V30 3105 H 283.175 3.73061 1.18071 0
M  V30 3106 H 282.798 2.92401 2.69421 0
M  V30 3107 N 283.795 -0.628877 1.44509 0
M  V30 3108 C 285.044 -1.38437 1.4669 0
M  V30 3109 C 285.357 -1.95322 0.104272 0
M  V30 3110 O 286.563 -2.715 0.00362163 0
M  V30 3111 C 285.019 -2.50659 2.5826 0
M  V30 3112 C 284.627 -2.00277 4.0074 0
M  V30 3113 C 286.371 -3.27844 2.69664 0
M  V30 3114 C 284.278 -3.09854 5.0373 0
M  V30 3115 H 283.208 -0.520245 0.545766 0
M  V30 3116 H 285.859 -0.676313 1.70582 0
M  V30 3117 H 284.241 -3.2405 2.27612 0
M  V30 3118 H 285.415 -1.33736 4.40966 0
M  V30 3119 H 283.73 -1.35901 3.93599 0
M  V30 3120 H 286.327 -4.09534 3.43781 0
M  V30 3121 H 286.67 -3.77471 1.75559 0
M  V30 3122 H 287.203 -2.61543 2.99733 0
M  V30 3123 H 283.942 -2.65168 5.99472 0
M  V30 3124 H 283.462 -3.7503 4.68095 0
M  V30 3125 H 285.141 -3.74592 5.27532 0
M  V30 3126 N 285.273 -1.31445 -0.869486 0
M  V30 3127 C 286.22 -1.19135 -1.97675 0
M  V30 3128 C 287.19 -0.0770266 -1.65921 0
M  V30 3129 O 288.375 -0.249972 -1.89155 0
M  V30 3130 C 285.515 -0.905149 -3.33018 0
M  V30 3131 C 284.628 -2.10285 -3.77365 0
M  V30 3132 C 283.763 -1.75339 -5.01427 0
M  V30 3133 C 282.802 -2.91515 -5.38224 0
M  V30 3134 N 281.939 -2.56762 -6.53466 0
M  V30 3135 H 286.779 -2.13853 -2.07535 0
M  V30 3136 H 284.316 -1.06379 -1.01597 0
M  V30 3137 H 286.274 -0.719765 -4.10944 0
M  V30 3138 H 284.904 0.00519624 -3.228 0
M  V30 3139 H 283.956 -2.39899 -2.95216 0
M  V30 3140 H 285.268 -2.97237 -4.00564 0
M  V30 3141 H 284.422 -1.53266 -5.87022 0
M  V30 3142 H 283.161 -0.855801 -4.80133 0
M  V30 3143 H 282.166 -3.14237 -4.51149 0
M  V30 3144 H 283.391 -3.81985 -5.61484 0
M  V30 3145 H 281.337 -1.69526 -6.33717 0
M  V30 3146 H 281.254 -3.37243 -6.76612 0
M  V30 3147 H 282.522 -2.38083 -7.42251 0
M  V30 3148 N 286.751 1.08385 -1.14413 0
M  V30 3149 C 287.976 1.85057 -0.936413 0
M  V30 3150 C 288.401 1.81055 0.509971 0
M  V30 3151 O 287.759 1.1958 1.36273 0
M  V30 3152 C 287.807 3.30505 -1.44217 0
M  V30 3153 O 286.911 4.07491 -0.634409 0
M  V30 3154 H 286.252 0.573425 -0.334784 0
M  V30 3155 H 288.782 1.36799 -1.52142 0
M  V30 3156 H 288.792 3.81348 -1.45043 0
M  V30 3157 H 287.467 3.32734 -2.49522 0
M  V30 3158 H 286.044 3.66368 -0.694902 0
M  V30 3159 N 288.23 0.939286 1.26551 0
M  V30 3160 C 289.646 0.641304 1.46149 0
M  V30 3161 C 289.846 -0.805964 1.84679 0
M  V30 3162 O 288.902 -1.58278 1.96734 0
M  V30 3163 C 290.215 1.6011 2.54529 0
M  V30 3164 C 291.763 1.6106 2.68382 0
M  V30 3165 C 292.238 2.55765 3.79932 0
M  V30 3166 N 293.729 2.5404 3.87322 0
M  V30 3167 C 294.464 3.24004 4.73085 0
M  V30 3168 N 293.96 4.03388 5.63249 0
M  V30 3169 N 295.753 3.12965 4.66914 0
M  V30 3170 H 287.904 1.87478 0.998285 0
M  V30 3171 H 290.167 0.805559 0.499779 0
M  V30 3172 H 289.873 2.63412 2.33039 0
M  V30 3173 H 289.747 1.35171 3.52149 0
M  V30 3174 H 292.134 0.584835 2.89247 0
M  V30 3175 H 292.215 1.90053 1.71212 0
M  V30 3176 H 291.859 3.58458 3.5982 0
M  V30 3177 H 291.789 2.24063 4.76554 0
M  V30 3178 H 294.28 1.96396 3.22858 0
M  V30 3179 H 294.593 4.5373 6.25579 0
M  V30 3180 H 292.938 4.07489 5.63008 0
M  V30 3181 H 296.129 2.50432 3.95476 0
M  V30 3182 H 296.302 3.67759 5.33533 0
M  V30 3183 N 289.708 -1.40897 0.706093 0
M  V30 3184 C 290.671 -2.29131 0.0562841 0
M  V30 3185 C 291.671 -1.44901 -0.697166 0
M  V30 3186 O 292.861 -1.65926 -0.530484 0
M  V30 3187 C 289.993 -3.27957 -0.93043 0
M  V30 3188 H 291.186 -2.88091 0.833284 0
M  V30 3189 H 288.739 -1.4906 0.470192 0
M  V30 3190 H 289.474 -2.73997 -1.73482 0
M  V30 3191 H 289.259 -3.90124 -0.393166 0
M  V30 3192 H 290.749 -3.94049 -1.38256 0
M  V30 3193 N 291.186 -0.45159 -1.50991 0
M  V30 3194 C 292.149 0.341117 -2.26647 0
M  V30 3195 C 293.149 0.937422 -1.30649 0
M  V30 3196 O 294.339 0.809644 -1.54241 0
M  V30 3197 C 291.471 1.48398 -3.06905 0
M  V30 3198 H 292.664 -0.322117 -2.98165 0
M  V30 3199 H 290.217 -0.205122 -1.54948 0
M  V30 3200 H 290.952 2.18284 -2.39838 0
M  V30 3201 H 290.737 1.06241 -3.77432 0
M  V30 3202 H 292.227 2.04367 -3.64176 0
M  V30 3203 N 292.664 1.56529 -0.183458 0
M  V30 3204 C 293.894 2.01331 0.463612 0
M  V30 3205 C 294.302 1.06278 1.5653 0
M  V30 3206 O 293.645 0.0577976 1.83609 0
M  V30 3207 C 293.707 3.42547 1.09096 0
M  V30 3208 C 293.371 4.56817 0.129442 0
M  V30 3209 C 294.368 5.15734 -0.656807 0
M  V30 3210 C 292.053 5.02295 0.02174 0
M  V30 3211 C 294.047 6.1857 -1.53784 0
M  V30 3212 C 291.734 6.04978 -0.862864 0
M  V30 3213 C 292.732 6.62988 -1.64123 0
M  V30 3214 O 292.42 7.63677 -2.51103 0
M  V30 3215 H 292.152 0.664917 0.121907 0
M  V30 3216 H 294.706 2.034 -0.285954 0
M  V30 3217 H 292.936 3.37428 1.88889 0
M  V30 3218 H 294.625 3.71228 1.64148 0
M  V30 3219 H 295.391 4.81473 -0.583839 0
M  V30 3220 H 291.27 4.56847 0.617392 0
M  V30 3221 H 294.814 6.63777 -2.14583 0
M  V30 3222 H 290.711 6.38663 -0.93699 0
M  V30 3223 H 291.479 7.81049 -2.44753 0
M  V30 3224 N 294.142 -0.090211 1.57342 0
M  V30 3225 C 295.09 -1.12792 2.03422 0
M  V30 3226 C 296.084 -1.41182 0.936166 0
M  V30 3227 O 297.29 -1.40805 1.12133 0
M  V30 3228 H 293.665 -0.380986 0.648347 0
M  V30 3229 H 295.636 -0.71299 2.89757 0
M  V30 3230 C 294.385 -2.43855 2.47851 0
M  V30 3231 H 293.708 -2.22855 3.31927 0
M  V30 3232 H 295.148 -3.14955 2.83865 0
M  V30 3233 C 293.607 -3.08503 1.3538 0
M  V30 3234 O 294.137 -3.95805 0.685641 0
M  V30 3235 N 292.343 -2.68831 1.10355 0
M  V30 3236 H 291.89 -1.97929 1.64869 0
M  V30 3237 H 291.848 -3.12412 0.353031 0
M  V30 3238 N 295.62 -1.53406 -0.361157 0
M  V30 3239 C 296.866 -1.70054 -1.10496 0
M  V30 3240 C 297.199 -0.453278 -1.88836 0
M  V30 3241 O 296.474 0.5495 -1.86576 0
M  V30 3242 C 296.757 -2.95317 -2.06058 0
M  V30 3243 C 296.61 -4.3021 -1.31298 0
M  V30 3244 C 297.929 -3.16193 -3.06121 0
M  V30 3245 H 295.048 -0.618799 -0.400321 0
M  V30 3246 H 297.69 -1.86052 -0.385318 0
M  V30 3247 H 295.84 -2.81809 -2.67425 0
M  V30 3248 H 297.512 -4.55538 -0.726807 0
M  V30 3249 H 295.755 -4.29421 -0.614853 0
M  V30 3250 H 296.426 -5.14 -2.01265 0
M  V30 3251 H 298.902 -3.28916 -2.5486 0
M  V30 3252 H 297.778 -4.05266 -3.70204 0
M  V30 3253 H 298.039 -2.31676 -3.76535 0
M  V30 3254 N 297.098 0.621204 -1.44841 0
M  V30 3255 C 298.326 1.40752 -1.51646 0
M  V30 3256 C 298.741 1.88246 -0.144549 0
M  V30 3257 O 298.098 1.61422 0.851416 0
M  V30 3258 C 298.149 2.62119 -2.4895 0
M  V30 3259 O 297.87 2.16602 -3.80808 0
M  V30 3260 C 299.371 3.55135 -2.65319 0
M  V30 3261 H 296.591 0.431325 -0.514004 0
M  V30 3262 H 299.135 0.758835 -1.899 0
M  V30 3263 H 297.29 3.23058 -2.13805 0
M  V30 3264 H 297.704 2.95358 -4.33433 0
M  V30 3265 H 299.178 4.36874 -3.37409 0
M  V30 3266 H 299.655 4.04592 -1.70886 0
M  V30 3267 H 300.261 3.00058 -3.01405 0
M  V30 3268 N 298.576 1.31904 0.862503 0
M  V30 3269 C 299.506 1.22782 1.98612 0
M  V30 3270 C 300.487 0.113362 1.69722 0
M  V30 3271 O 301.672 0.299218 1.91881 0
M  V30 3272 C 298.802 0.942058 3.34279 0
M  V30 3273 C 297.756 2.0169 3.77499 0
M  V30 3274 C 297.082 1.58369 5.10709 0
M  V30 3275 C 298.382 3.43096 3.93805 0
M  V30 3276 H 300.076 2.16788 2.06502 0
M  V30 3277 H 297.622 1.04366 0.992154 0
M  V30 3278 H 299.575 0.864818 4.1243 0
M  V30 3279 H 298.299 -0.0336603 3.26583 0
M  V30 3280 H 296.958 2.08416 3.01593 0
M  V30 3281 H 296.606 0.595628 4.99461 0
M  V30 3282 H 296.306 2.30279 5.40597 0
M  V30 3283 H 297.83 1.52067 5.91361 0
M  V30 3284 H 299.244 3.39003 4.62331 0
M  V30 3285 H 297.641 4.13288 4.35101 0
M  V30 3286 H 298.711 3.83334 2.96957 0
M  V30 3287 N 300.054 -1.07777 1.14986 0
M  V30 3288 C 300.984 -2.16865 0.865557 0
M  V30 3289 C 301.965 -1.69123 -0.182083 0
M  V30 3290 O 303.15 -1.94164 -0.0373815 0
M  V30 3291 C 300.28 -3.45539 0.349313 0
M  V30 3292 C 299.234 -4.06708 1.33313 0
M  V30 3293 C 298.56 -5.30411 0.675918 0
M  V30 3294 C 299.86 -4.47241 2.69764 0
M  V30 3295 H 301.554 -2.40905 1.77778 0
M  V30 3296 H 299.1 -1.15781 0.856203 0
M  V30 3297 H 301.053 -4.21174 0.137983 0
M  V30 3298 H 299.777 -3.21072 -0.598362 0
M  V30 3299 H 298.436 -3.33112 1.53075 0
M  V30 3300 H 298.084 -5.02232 -0.277767 0
M  V30 3301 H 297.784 -5.72293 1.33244 0
M  V30 3302 H 299.308 -6.08755 0.474262 0
M  V30 3303 H 300.722 -5.14025 2.53873 0
M  V30 3304 H 299.119 -5.00062 3.3175 0
M  V30 3305 H 300.189 -3.58818 3.26156 0
M  V30 3306 N 301.532 -0.945985 -1.26051 0
M  V30 3307 C 302.48 -0.450259 -2.282 0
M  V30 3308 C 303.474 0.47497 -1.62605 0
M  V30 3309 O 304.68 0.352653 -1.76512 0
M  V30 3310 H 301.055 -0.127081 -0.741184 0
M  V30 3311 H 303.026 -1.32422 -2.67408 0
M  V30 3312 C 301.775 0.26467 -3.46691 0
M  V30 3313 H 301.098 -0.438123 -3.97392 0
M  V30 3314 H 302.538 0.575678 -4.20074 0
M  V30 3315 C 300.997 1.48416 -3.02447 0
M  V30 3316 O 301.527 2.58227 -3.07704 0
M  V30 3317 N 299.733 1.34243 -2.57735 0
M  V30 3318 H 299.28 0.448994 -2.53657 0
M  V30 3319 H 299.238 2.15957 -2.28495 0
M  V30 3320 N 303.011 1.40521 -0.713556 0
M  V30 3321 C 304.258 2.00923 -0.25219 0
M  V30 3322 C 304.586 1.56571 1.15395 0
M  V30 3323 O 303.841 0.775874 1.79663 0
M  V30 3324 C 304.14 3.56317 -0.278 0
M  V30 3325 C 303.806 4.20246 -1.63415 0
M  V30 3326 C 302.468 4.37422 -2.00538 0
M  V30 3327 C 304.82 4.55923 -2.52554 0
M  V30 3328 C 302.148 4.87558 -3.2635 0
M  V30 3329 C 304.5 5.07458 -3.77716 0
M  V30 3330 C 303.164 5.22843 -4.14959 0
M  V30 3331 H 302.434 0.735231 -0.0922829 0
M  V30 3332 H 305.081 1.68161 -0.916188 0
M  V30 3333 H 303.386 3.88976 0.469567 0
M  V30 3334 H 305.083 4.00883 0.0967819 0
M  V30 3335 H 301.673 4.07263 -1.33546 0
M  V30 3336 H 305.857 4.42291 -2.25149 0
M  V30 3337 H 301.113 4.97654 -3.55176 0
M  V30 3338 H 305.287 5.34041 -4.4696 0
M  V30 3339 H 302.914 5.61454 -5.12516 0
M  V30 3340 N 304.489 0.459591 1.5075 0
M  V30 3341 C 305.422 -0.386257 2.24907 0
M  V30 3342 C 306.4 -1.006 1.27744 0
M  V30 3343 O 307.584 -1.04416 1.56938 0
M  V30 3344 C 304.711 -1.54021 3.01654 0
M  V30 3345 C 303.757 -1.03898 4.13651 0
M  V30 3346 S 304.59 0.0370501 5.35487 0
M  V30 3347 C 305.746 -1.12105 6.15779 0
M  V30 3348 H 305.979 0.243272 2.96303 0
M  V30 3349 H 303.512 0.244339 1.52454 0
M  V30 3350 H 305.47 -2.20163 3.46466 0
M  V30 3351 H 304.131 -2.14121 2.29806 0
M  V30 3352 H 303.324 -1.90254 4.66711 0
M  V30 3353 H 302.926 -0.45545 3.71216 0
M  V30 3354 H 305.218 -2.03501 6.46215 0
M  V30 3355 H 306.161 -0.62995 7.05292 0
M  V30 3356 H 306.569 -1.36967 5.47631 0
M  V30 3357 N 305.967 -1.56429 0.191757 0
M  V30 3358 C 307.244 -1.89224 -0.495332 0
M  V30 3359 C 307.624 -1.10478 -1.79883 0
M  V30 3360 O 306.972 -0.204852 -2.2758 0
M  V30 3361 C 307.182 -3.41548 -0.717367 0
M  V30 3362 C 308.53 -4.11711 -1.03823 0
M  V30 3363 O 309.554 -3.4698 -0.805204 0
M  V30 3364 O 308.413 -5.2611 -1.47887 0
M  V30 3365 H 305.507 -0.785788 -0.25781 0
M  V30 3366 H 308.053 -1.68111 0.231721 0
M  V30 3367 H 306.825 -3.90772 0.203287 0
M  V30 3368 H 306.448 -3.68342 -1.497 0
M  V30 3369 N 307.445 0.0818655 -1.57387 0
M  V30 3370 C 308.856 0.634871 -1.75574 0
M  V30 3371 C 309.207 1.78435 -0.815809 0
M  V30 3372 O 308.332 2.164 0.0025366 0
M  V30 3373 C 308.927 1.15845 -3.18379 0
M  V30 3374 C 307.486 1.65741 -3.37945 0
M  V30 3375 C 306.633 0.572549 -2.71325 0
M  V30 3376 H 309.584 -0.144268 -1.58043 0
M  V30 3377 H 309.605 2.02751 -3.21982 0
M  V30 3378 H 309.117 0.321631 -3.86765 0
M  V30 3379 H 307.218 2.51781 -2.74658 0
M  V30 3380 H 307.331 1.74129 -4.46336 0
M  V30 3381 H 305.695 1.01518 -2.33594 0
M  V30 3382 H 306.478 -0.253918 -3.4236 0
M  V30 3383 N 308.923 1.53595 0.353017 0
M  V30 3384 C 309.855 1.77219 1.45348 0
M  V30 3385 C 310.868 0.65324 1.49119 0
M  V30 3386 O 312.057 0.929775 1.52373 0
M  V30 3387 C 309.157 1.84841 2.84055 0
M  V30 3388 C 308.33 3.14649 3.03833 0
M  V30 3389 C 307.389 3.13351 4.22727 0
M  V30 3390 O 306.415 3.87107 4.17297 0
M  V30 3391 N 307.617 2.35052 5.30783 0
M  V30 3392 H 310.382 2.72178 1.25457 0
M  V30 3393 H 307.943 1.52528 0.542833 0
M  V30 3394 H 309.935 1.81435 3.61751 0
M  V30 3395 H 308.505 0.971114 2.97133 0
M  V30 3396 H 307.725 3.31256 2.13689 0
M  V30 3397 H 309.013 4.00411 3.13925 0
M  V30 3398 H 308.411 1.74663 5.38061 0
M  V30 3399 H 306.968 2.37453 6.07009 0
M  V30 3400 N 310.401 -0.613514 1.45168 0
M  V30 3401 C 311.348 -1.72456 1.53387 0
M  V30 3402 C 312.318 -1.6169 0.380191 0
M  V30 3403 O 313.503 -1.81356 0.592836 0
M  V30 3404 C 310.643 -3.10753 1.50088 0
M  V30 3405 C 309.756 -3.32368 2.75963 0
M  V30 3406 C 308.891 -4.60737 2.64376 0
M  V30 3407 C 307.93 -4.7559 3.85332 0
M  V30 3408 N 307.067 -5.95253 3.72315 0
M  V30 3409 H 311.907 -1.64768 2.48305 0
M  V30 3410 H 309.444 -0.803503 1.23216 0
M  V30 3411 H 311.402 -3.90758 1.46164 0
M  V30 3412 H 310.032 -3.17413 0.587243 0
M  V30 3413 H 309.084 -2.4618 2.89999 0
M  V30 3414 H 310.396 -3.39218 3.65695 0
M  V30 3415 H 309.55 -5.48928 2.58385 0
M  V30 3416 H 308.289 -4.56275 1.72233 0
M  V30 3417 H 307.294 -3.85824 3.91688 0
M  V30 3418 H 308.519 -4.81854 4.78533 0
M  V30 3419 H 306.465 -5.91847 2.82937 0
M  V30 3420 H 306.382 -6.03236 4.55677 0
M  V30 3421 H 307.65 -6.85958 3.70246 0
M  V30 3422 N 311.879 -1.3236 -0.855495 0
M  V30 3423 C 312.812 -1.15559 -1.96777 0
M  V30 3424 C 313.79 -0.0552681 -1.62506 0
M  V30 3425 O 314.974 -0.214419 -1.87277 0
M  V30 3426 C 312.101 -0.768851 -3.29858 0
M  V30 3427 C 311.147 -1.87429 -3.83109 0
M  V30 3428 S 311.98 -3.48243 -4.06801 0
M  V30 3429 C 313.136 -3.11539 -5.42858 0
M  V30 3430 H 313.369 -2.09717 -2.10727 0
M  V30 3431 H 310.902 -1.17011 -1.00737 0
M  V30 3432 H 312.86 -0.55248 -4.06765 0
M  V30 3433 H 311.521 0.153857 -3.13723 0
M  V30 3434 H 310.714 -1.55667 -4.79358 0
M  V30 3435 H 310.316 -2.04647 -3.13042 0
M  V30 3436 H 312.608 -2.61331 -6.2507 0
M  V30 3437 H 313.551 -4.06806 -5.79582 0
M  V30 3438 H 313.959 -2.48582 -5.06821 0
M  V30 3439 N 313.357 1.07166 -1.15556 0
M  V30 3440 C 314.768 1.6127 -0.940693 0
M  V30 3441 C 315.119 1.89251 0.517551 0
M  V30 3442 O 314.244 1.65937 1.38903 0
M  V30 3443 C 314.839 2.92993 -1.7012 0
M  V30 3444 C 313.398 3.43832 -1.53156 0
M  V30 3445 C 312.545 2.1786 -1.71558 0
M  V30 3446 H 315.496 0.90229 -1.30554 0
M  V30 3447 H 315.517 3.62007 -1.17181 0
M  V30 3448 H 315.029 2.72596 -2.76248 0
M  V30 3449 H 313.13 3.69307 -0.494294 0
M  V30 3450 H 313.243 4.19747 -2.30975 0
M  V30 3451 H 311.607 2.2765 -1.14225 0
M  V30 3452 H 312.39 1.99956 -2.79056 0
M  V30 3453 N 314.835 0.952656 1.25548 0
M  V30 3454 C 316.065 0.622592 1.96996 0
M  V30 3455 C 316.473 -0.809112 1.71026 0
M  V30 3456 O 315.816 -1.55258 0.981861 0
M  V30 3457 C 315.878 0.798946 3.5051 0
M  V30 3458 C 315.542 2.20744 4.00151 0
M  V30 3459 C 316.539 3.18394 4.11001 0
M  V30 3460 C 314.224 2.5311 4.33867 0
M  V30 3461 C 316.218 4.46504 4.54877 0
M  V30 3462 C 313.905 3.8145 4.7743 0
M  V30 3463 C 314.903 4.77959 4.87897 0
M  V30 3464 O 314.591 6.04012 5.30494 0
M  V30 3465 H 314.323 0.232503 0.634758 0
M  V30 3466 H 316.877 1.2789 1.60728 0
M  V30 3467 H 315.107 0.0854903 3.86605 0
M  V30 3468 H 316.796 0.47023 4.03167 0
M  V30 3469 H 317.562 2.94715 3.85186 0
M  V30 3470 H 313.441 1.78719 4.24948 0
M  V30 3471 H 316.985 5.21835 4.62962 0
M  V30 3472 H 312.882 4.04936 5.0269 0
M  V30 3473 H 313.65 6.0736 5.48685 0
M  V30 3474 N 316.313 -1.40141 0.720998 0
M  V30 3475 C 317.243 -2.33339 0.0867621 0
M  V30 3476 C 318.224 -1.53178 -0.739622 0
M  V30 3477 O 319.409 -1.81625 -0.687449 0
M  V30 3478 C 316.539 -3.37194 -0.831728 0
M  V30 3479 C 315.493 -4.27857 -0.110558 0
M  V30 3480 C 314.819 -5.22294 -1.14513 0
M  V30 3481 C 316.119 -5.11872 1.0385 0
M  V30 3482 H 317.813 -2.86626 0.865219 0
M  V30 3483 H 315.359 -1.37814 0.417516 0
M  V30 3484 H 317.312 -4.01335 -1.28485 0
M  V30 3485 H 316.036 -2.82314 -1.64214 0
M  V30 3486 H 314.695 -3.65176 0.322797 0
M  V30 3487 H 314.343 -4.63717 -1.94874 0
M  V30 3488 H 314.043 -5.83797 -0.667446 0
M  V30 3489 H 315.567 -5.89312 -1.59824 0
M  V30 3490 H 316.981 -5.69436 0.664482 0
M  V30 3491 H 315.378 -5.82445 1.4449 0
M  V30 3492 H 316.448 -4.4753 1.86668 0
M  V30 3493 N 317.792 -0.46758 -1.50504 0
M  V30 3494 C 318.739 0.328413 -2.28452 0
M  V30 3495 C 319.709 0.990313 -1.33349 0
M  V30 3496 O 320.894 1.00343 -1.62284 0
M  V30 3497 C 318.034 1.40648 -3.15138 0
M  V30 3498 C 317.147 0.759709 -4.25267 0
M  V30 3499 C 316.282 1.81537 -4.99217 0
M  V30 3500 C 315.321 1.14866 -6.01226 0
M  V30 3501 N 314.458 2.14702 -6.68467 0
M  V30 3502 H 319.298 -0.342603 -2.96024 0
M  V30 3503 H 316.835 -0.180801 -1.45985 0
M  V30 3504 H 318.793 2.04315 -3.63746 0
M  V30 3505 H 317.423 2.04671 -2.49619 0
M  V30 3506 H 316.475 0.0105671 -3.80399 0
M  V30 3507 H 317.787 0.233243 -4.98254 0
M  V30 3508 H 316.941 2.52793 -5.51526 0
M  V30 3509 H 315.68 2.37564 -4.25928 0
M  V30 3510 H 314.685 0.42171 -5.4818 0
M  V30 3511 H 315.91 0.595334 -6.76485 0
M  V30 3512 H 313.856 2.69752 -5.97972 0
M  V30 3513 H 313.773 1.6703 -7.37317 0
M  V30 3514 H 315.041 2.85348 -7.25394 0
M  V30 3515 N 319.27 1.56325 -0.20005 0
M  V30 3516 C 320.18 2.22931 0.730668 0
M  V30 3517 C 321.196 1.22997 1.23076 0
M  V30 3518 O 322.372 1.55748 1.27689 0
M  V30 3519 C 319.437 2.87948 1.93098 0
M  V30 3520 C 318.498 4.03166 1.47497 0
M  V30 3521 C 317.731 4.65073 2.61807 0
M  V30 3522 O 317.954 4.25913 3.79413 0
M  V30 3523 O 316.888 5.54452 2.34237 0
M  V30 3524 H 320.714 3.03084 0.193391 0
M  V30 3525 H 318.299 1.49371 0.0294621 0
M  V30 3526 H 320.181 3.29063 2.6324 0
M  V30 3527 H 318.856 2.10771 2.45677 0
M  V30 3528 H 317.763 3.66664 0.742201 0
M  V30 3529 H 319.096 4.82022 0.995796 0
M  V30 3530 N 320.748 -0.0735177 1.57428 0
M  V30 3531 C 321.658 -1.10547 2.06922 0
M  V30 3532 C 322.674 -1.42506 0.998402 0
M  V30 3533 O 323.85 -1.52717 1.31299 0
M  V30 3534 C 320.915 -2.40019 2.50184 0
M  V30 3535 C 319.976 -2.15046 3.71556 0
M  V30 3536 C 319.209 -3.38345 4.12745 0
M  V30 3537 O 319.432 -4.47399 3.53822 0
M  V30 3538 O 318.366 -3.2666 5.05546 0
M  V30 3539 H 322.192 -0.715013 2.95163 0
M  V30 3540 H 319.777 -0.287531 1.46607 0
M  V30 3541 H 321.659 -3.16218 2.78539 0
M  V30 3542 H 320.334 -2.78447 1.65072 0
M  V30 3543 H 319.241 -1.36558 3.48285 0
M  V30 3544 H 320.574 -1.81499 4.57514 0
M  V30 3545 N 322.226 -1.5378 -0.344866 0
M  V30 3546 C 323.637 -1.62428 -0.920552 0
M  V30 3547 C 323.988 -0.504747 -1.89596 0
M  V30 3548 O 323.113 0.365711 -2.13287 0
M  V30 3549 C 323.708 -2.94419 -1.67639 0
M  V30 3550 C 322.267 -3.05333 -2.20111 0
M  V30 3551 C 321.414 -2.57866 -1.01982 0
M  V30 3552 H 324.365 -1.58222 -0.123042 0
M  V30 3553 H 324.386 -2.83384 -2.53917 0
M  V30 3554 H 323.898 -3.7588 -0.966224 0
M  V30 3555 H 321.999 -2.28502 -2.94308 0
M  V30 3556 H 322.112 -4.10778 -2.46573 0
M  V30 3557 H 320.476 -2.13241 -1.39285 0
M  V30 3558 H 321.259 -3.41765 -0.324308 0
M  V30 3559 N 323.704 0.605807 -1.45491 0
M  V30 3560 C 324.934 1.38934 -1.52908 0
M  V30 3561 C 325.342 1.88513 -0.161086 0
M  V30 3562 O 324.685 1.62962 0.847891 0
M  V30 3563 C 324.747 2.62737 -2.45376 0
M  V30 3564 C 324.411 2.34785 -3.92078 0
M  V30 3565 C 325.408 1.95038 -4.8193 0
M  V30 3566 C 323.093 2.47642 -4.37011 0
M  V30 3567 C 325.087 1.68511 -6.14722 0
M  V30 3568 C 322.774 2.20728 -5.69844 0
M  V30 3569 C 323.772 1.81225 -6.58519 0
M  V30 3570 O 323.46 1.54627 -7.88889 0
M  V30 3571 H 323.192 0.431629 -0.520262 0
M  V30 3572 H 325.746 0.74573 -1.91384 0
M  V30 3573 H 323.976 3.29824 -2.01874 0
M  V30 3574 H 325.665 3.24783 -2.43456 0
M  V30 3575 H 326.431 1.84639 -4.48479 0
M  V30 3576 H 322.31 2.77356 -3.68232 0
M  V30 3577 H 325.854 1.37602 -6.83894 0
M  V30 3578 H 321.751 2.30744 -6.02849 0
M  V30 3579 H 322.519 1.68665 -8.00933 0
M  V30 3580 N 325.182 1.32811 0.848464 0
M  V30 3581 C 326.429 1.23724 1.60308 0
M  V30 3582 C 326.757 -0.1994 1.93475 0
M  V30 3583 O 326.012 -1.15406 1.5805 0
M  V30 3584 C 326.311 2.04831 2.92881 0
M  V30 3585 C 325.977 3.54125 2.79117 0
M  V30 3586 C 324.639 3.94829 2.7507 0
M  V30 3587 C 326.991 4.49036 2.64606 0
M  V30 3588 C 324.319 5.28675 2.544 0
M  V30 3589 C 326.671 5.83033 2.4547 0
M  V30 3590 C 325.335 6.22931 2.39819 0
M  V30 3591 H 324.605 0.452737 0.586609 0
M  V30 3592 H 327.252 1.64301 0.983743 0
M  V30 3593 H 325.557 1.57001 3.58968 0
M  V30 3594 H 327.254 1.95164 3.50303 0
M  V30 3595 H 323.844 3.21801 2.83094 0
M  V30 3596 H 328.028 4.18505 2.66772 0
M  V30 3597 H 323.284 5.58637 2.48465 0
M  V30 3598 H 327.458 6.56186 2.33222 0
M  V30 3599 H 325.085 7.26584 2.23562 0
M  V30 3600 N 326.66 -1.06551 1.16123 0
M  V30 3601 C 327.908 -1.78947 0.939267 0
M  V30 3602 C 328.229 -1.87532 -0.534476 0
M  V30 3603 O 327.499 -1.38211 -1.38833 0
M  V30 3604 H 326.079 -0.662807 0.344523 0
M  V30 3605 H 328.741 -1.28725 1.46342 0
M  V30 3606 H 327.837 -2.81117 1.35572 0
M  V30 3607 N 328.138 -0.959301 -1.25041 0
M  V30 3608 C 329.071 -0.427418 -2.24161 0
M  V30 3609 C 330.049 0.493837 -1.54919 0
M  V30 3610 O 331.233 0.427144 -1.83597 0
M  V30 3611 C 328.36 0.383893 -3.36517 0
M  V30 3612 C 327.406 -0.478431 -4.23808 0
M  V30 3613 S 328.239 -1.91353 -5.00144 0
M  V30 3614 C 329.395 -1.11077 -6.15965 0
M  V30 3615 H 329.628 -1.26743 -2.6893 0
M  V30 3616 H 327.161 -0.763714 -1.34189 0
M  V30 3617 H 329.119 0.846039 -4.01687 0
M  V30 3618 H 327.78 1.19878 -2.90324 0
M  V30 3619 H 326.973 0.14406 -5.03794 0
M  V30 3620 H 326.575 -0.87597 -3.63597 0
M  V30 3621 H 328.867 -0.361699 -6.76534 0
M  V30 3622 H 329.81 -1.88472 -6.82557 0
M  V30 3623 H 330.218 -0.638843 -5.60873 0
M  V30 3624 N 329.616 1.39756 -0.72842 0
M  V30 3625 C 330.864 2.00248 -0.272946 0
M  V30 3626 C 331.185 1.58077 1.14178 0
M  V30 3627 O 330.455 0.826014 1.77634 0
M  V30 3628 H 329.035 0.740554 -0.0979247 0
M  V30 3629 H 331.697 1.70903 -0.936912 0
M  V30 3630 H 330.793 3.10495 -0.316142 0
M  V30 3631 N 331.094 0.475555 1.50254 0
M  V30 3632 C 332.041 -0.316293 2.28622 0
M  V30 3633 C 333.011 -0.983227 1.33873 0
M  V30 3634 O 334.196 -0.994805 1.62814 0
M  V30 3635 C 331.336 -1.38975 3.1588 0
M  V30 3636 C 330.449 -0.737146 4.25664 0
M  V30 3637 C 329.584 -1.78887 5.00173 0
M  V30 3638 C 328.623 -1.11676 6.01826 0
M  V30 3639 N 327.76 -2.11154 6.69596 0
M  V30 3640 H 332.6 0.358297 2.95838 0
M  V30 3641 H 330.137 0.188541 1.45887 0
M  V30 3642 H 332.095 -2.02383 3.64825 0
M  V30 3643 H 330.725 -2.03344 2.50701 0
M  V30 3644 H 329.777 0.0096065 3.80399 0
M  V30 3645 H 331.089 -0.206816 4.98371 0
M  V30 3646 H 330.243 -2.49865 5.52859 0
M  V30 3647 H 328.982 -2.35302 4.27182 0
M  V30 3648 H 327.987 -0.392633 5.48396 0
M  V30 3649 H 329.212 -0.55945 6.76792 0
M  V30 3650 H 327.158 -2.66577 5.99394 0
M  V30 3651 H 327.075 -1.63118 7.38193 0
M  V30 3652 H 328.343 -2.81497 7.26897 0
M  V30 3653 N 332.573 -1.56217 0.208337 0
M  V30 3654 C 333.506 -2.15633 -0.746842 0
M  V30 3655 C 334.484 -1.09685 -1.20034 0
M  V30 3656 O 335.668 -1.3787 -1.28547 0
M  V30 3657 C 332.795 -2.72594 -2.01023 0
M  V30 3658 C 331.841 -3.91251 -1.69779 0
M  V30 3659 S 332.674 -5.28962 -0.834209 0
M  V30 3660 C 333.83 -5.89353 -2.10745 0
M  V30 3661 H 334.063 -2.96315 -0.241789 0
M  V30 3662 H 331.596 -1.54398 -0.00682183 0
M  V30 3663 H 333.554 -3.06053 -2.73572 0
M  V30 3664 H 332.215 -1.91929 -2.48641 0
M  V30 3665 H 331.408 -4.29562 -2.63614 0
M  V30 3666 H 331.01 -3.58869 -1.05303 0
M  V30 3667 H 333.302 -6.04522 -3.05875 0
M  V30 3668 H 334.245 -6.85661 -1.76845 0
M  V30 3669 H 334.653 -5.1807 -2.24196 0
M  V30 3670 N 334.051 0.0651679 -1.57465 0
M  V30 3671 C 335.014 1.06117 -2.03155 0
M  V30 3672 C 336.014 1.31204 -0.929632 0
M  V30 3673 O 337.204 1.26813 -1.19432 0
M  V30 3674 C 334.336 2.4032 -2.41783 0
M  V30 3675 H 335.529 0.667231 -2.92383 0
M  V30 3676 H 333.082 0.311075 -1.53173 0
M  V30 3677 H 333.817 2.84532 -1.55601 0
M  V30 3678 H 333.602 2.23451 -3.22199 0
M  V30 3679 H 335.092 3.11898 -2.77685 0
M  V30 3680 N 335.529 1.53961 0.336706 0
M  V30 3681 C 336.775 1.7179 1.07777 0
M  V30 3682 C 337.108 0.483263 1.88091 0
M  V30 3683 O 336.383 -0.519747 1.87427 0
M  V30 3684 C 336.666 2.98558 2.01334 0
M  V30 3685 C 336.519 4.32245 1.24437 0
M  V30 3686 C 337.838 3.21023 3.01052 0
M  V30 3687 H 334.957 0.625089 0.390426 0
M  V30 3688 H 337.599 1.86641 0.35567 0
M  V30 3689 H 335.749 2.86028 2.62908 0
M  V30 3690 H 337.421 4.56637 0.654243 0
M  V30 3691 H 335.664 4.30344 0.546458 0
M  V30 3692 H 336.335 5.17137 1.93063 0
M  V30 3693 H 338.811 3.32929 2.49595 0
M  V30 3694 H 337.687 4.11104 3.6371 0
M  V30 3695 H 337.948 2.37637 3.72802 0
M  V30 3696 N 337.007 -0.598083 1.45811 0
M  V30 3697 C 338.232 -1.3881 1.54099 0
M  V30 3698 C 338.657 -1.8726 0.177578 0
M  V30 3699 O 338.015 -1.6069 -0.839541 0
M  V30 3700 C 338.063 -2.56217 2.53743 0
M  V30 3701 O 337.167 -3.5716 2.06182 0
M  V30 3702 H 336.508 -0.414024 0.519115 0
M  V30 3703 H 339.038 -0.726971 1.91249 0
M  V30 3704 H 339.048 -3.03337 2.72856 0
M  V30 3705 H 337.723 -2.20303 3.5276 0
M  V30 3706 H 336.3 -3.16624 1.96987 0
M  V30 3707 N 338.485 -1.33259 -0.841409 0
M  V30 3708 C 339.731 -1.25766 -1.59857 0
M  V30 3709 C 340.086 0.175602 -1.91597 0
M  V30 3710 O 339.379 1.117 -1.55672 0
M  V30 3711 C 339.573 -2.06381 -2.9179 0
M  V30 3712 C 339.402 -3.57401 -2.72937 0
M  V30 3713 C 338.172 -4.26718 -2.70628 0
M  V30 3714 C 340.37 -4.51786 -2.45753 0
M  V30 3715 N 338.352 -5.63705 -2.43125 0
M  V30 3716 C 339.723 -5.76643 -2.27777 0
M  V30 3717 C 341.778 -4.40898 -2.31329 0
M  V30 3718 C 340.481 -6.91842 -1.96841 0
M  V30 3719 C 342.507 -5.55911 -2.01786 0
M  V30 3720 C 341.869 -6.79776 -1.8462 0
M  V30 3721 H 337.968 -0.515406 -0.588117 0
M  V30 3722 H 340.552 -1.67772 -0.987955 0
M  V30 3723 H 338.723 -1.667 -3.50807 0
M  V30 3724 H 340.455 -1.90678 -3.56965 0
M  V30 3725 H 337.21 -3.78968 -2.84043 0
M  V30 3726 H 337.634 -6.35911 -2.32265 0
M  V30 3727 H 342.276 -3.45772 -2.43314 0
M  V30 3728 H 339.994 -7.86968 -1.83594 0
M  V30 3729 H 343.58 -5.49421 -1.91384 0
M  V30 3730 H 342.46 -7.67266 -1.62088 0
M  V30 3731 N 339.963 1.05934 -1.16686 0
M  V30 3732 C 340.913 2.11764 -0.844978 0
M  V30 3733 C 341.897 1.59922 0.177178 0
M  V30 3734 O 343.089 1.76983 -0.0241768 0
M  V30 3735 C 340.218 3.41493 -0.351812 0
M  V30 3736 C 339.304 4.00152 -1.40496 0
M  V30 3737 N 339.695 4.32874 -2.61636 0
M  V30 3738 C 337.993 4.278 -1.26106 0
M  V30 3739 C 338.694 4.79552 -3.29249 0
M  V30 3740 N 337.67 4.79211 -2.56628 0
M  V30 3741 H 341.472 2.34916 -1.76612 0
M  V30 3742 H 338.986 1.23511 -1.05446 0
M  V30 3743 H 340.983 4.16773 -0.102796 0
M  V30 3744 H 339.643 3.19778 0.56322 0
M  V30 3745 H 340.654 4.23109 -2.98663 0
M  V30 3746 H 337.331 4.15511 -0.407081 0
M  V30 3747 H 338.721 5.14045 -4.32675 0
M  V30 3748 N 341.441 0.965919 1.2453 0
M  V30 3749 C 342.391 0.465731 2.23193 0
M  V30 3750 C 343.375 -0.451277 1.54442 0
M  V30 3751 O 344.567 -0.282489 1.74731 0
M  V30 3752 C 341.696 -0.244511 3.42428 0
M  V30 3753 C 340.782 0.691222 4.18429 0
M  V30 3754 N 341.173 1.82771 4.71623 0
M  V30 3755 C 339.471 0.501649 4.4317 0
M  V30 3756 C 340.172 2.41285 5.29298 0
M  V30 3757 N 339.148 1.69819 5.16394 0
M  V30 3758 H 342.95 1.33291 2.61937 0
M  V30 3759 H 340.464 0.824789 1.39896 0
M  V30 3760 H 342.461 -0.620056 4.12263 0
M  V30 3761 H 341.121 -1.10815 3.05205 0
M  V30 3762 H 342.132 2.20929 4.68413 0
M  V30 3763 H 338.809 -0.318177 4.16286 0
M  V30 3764 H 340.199 3.37181 5.8117 0
M  V30 3765 N 342.919 -1.39368 0.735821 0
M  V30 3766 C 344.196 -1.94465 0.210395 0
M  V30 3767 C 344.576 -1.67254 -1.28799 0
M  V30 3768 O 343.924 -1.00123 -2.05396 0
M  V30 3769 C 344.134 -3.4472 0.544897 0
M  V30 3770 C 345.482 -4.21708 0.494689 0
M  V30 3771 O 346.506 -3.52922 0.482136 0
M  V30 3772 O 345.365 -5.44299 0.489947 0
M  V30 3773 H 342.459 -0.826096 0.0386666 0
M  V30 3774 H 345.005 -1.48863 0.814735 0
M  V30 3775 H 343.777 -3.57963 1.58045 0
M  V30 3776 H 343.4 -3.97502 -0.08837 0
M  V30 3777 N 344.397 -0.483516 -1.5 0
M  V30 3778 C 345.307 0.309172 -2.32554 0
M  V30 3779 C 346.323 0.984159 -1.43493 0
M  V30 3780 O 347.499 0.969399 -1.76535 0
M  V30 3781 C 344.564 1.36979 -3.18493 0
M  V30 3782 C 343.625 0.710095 -4.23387 0
M  V30 3783 C 342.858 1.72018 -5.05218 0
M  V30 3784 O 343.081 2.94813 -4.88305 0
M  V30 3785 O 342.015 1.28515 -5.8802 0
M  V30 3786 H 345.841 -0.366064 -3.01486 0
M  V30 3787 H 343.426 -0.24514 -1.47375 0
M  V30 3788 H 345.308 1.98385 -3.71781 0
M  V30 3789 H 343.983 2.02828 -2.52275 0
M  V30 3790 H 342.89 0.0567539 -3.74057 0
M  V30 3791 H 344.223 0.0943557 -4.9211 0
M  V30 3792 N 345.875 1.56104 -0.216619 0
M  V30 3793 C 346.823 2.21434 0.712036 0
M  V30 3794 C 347.817 1.19218 1.20348 0
M  V30 3795 O 349.023 1.3731 1.16387 0
M  V30 3796 H 345.398 0.70992 0.248026 0
M  V30 3797 H 347.369 2.98083 0.137558 0
M  V30 3798 C 346.118 2.90434 1.91163 0
M  V30 3799 H 345.441 3.68842 1.54258 0
M  V30 3800 H 346.881 3.39552 2.5393 0
M  V30 3801 C 345.34 1.92635 2.76394 0
M  V30 3802 O 345.87 1.44017 3.74996 0
M  V30 3803 N 344.076 1.60392 2.42328 0
M  V30 3804 H 343.623 2.00122 1.622 0
M  V30 3805 H 343.581 0.952159 2.99635 0
M  V30 3806 N 347.353 -0.0568162 1.57498 0
M  V30 3807 C 348.283 -1.06593 2.0775 0
M  V30 3808 C 349.264 -1.39448 0.974082 0
M  V30 3809 O 350.449 -1.48815 1.24771 0
M  V30 3810 C 347.579 -2.37509 2.5339 0
M  V30 3811 C 346.533 -2.1897 3.67745 0
M  V30 3812 C 345.859 -3.55402 3.99492 0
M  V30 3813 C 347.159 -1.59859 4.97235 0
M  V30 3814 H 348.853 -0.647706 2.9231 0
M  V30 3815 H 346.399 -0.310116 1.40621 0
M  V30 3816 H 348.352 -3.08409 2.87162 0
M  V30 3817 H 347.076 -2.8134 1.65878 0
M  V30 3818 H 345.735 -1.50508 3.3428 0
M  V30 3819 H 345.383 -3.9683 3.09088 0
M  V30 3820 H 345.083 -3.43831 4.76502 0
M  V30 3821 H 346.607 -4.27708 4.35773 0
M  V30 3822 H 348.021 -2.20642 5.29141 0
M  V30 3823 H 346.418 -1.58942 5.78669 0
M  V30 3824 H 347.488 -0.561506 4.81638 0
M  V30 3825 N 348.832 -1.54138 -0.328536 0
M  V30 3826 C 350.078 -1.7236 -1.06865 0
M  V30 3827 C 350.411 -0.493231 -1.87832 0
M  V30 3828 O 349.686 0.5098 -1.877 0
M  V30 3829 C 349.969 -2.99621 -1.99747 0
M  V30 3830 C 349.822 -4.32899 -1.22143 0
M  V30 3831 C 351.141 -3.22615 -2.99345 0
M  V30 3832 H 348.26 -0.627151 -0.387105 0
M  V30 3833 H 350.902 -1.86827 -0.345767 0
M  V30 3834 H 349.052 -2.87418 -2.61387 0
M  V30 3835 H 350.724 -4.56978 -0.630017 0
M  V30 3836 H 348.967 -4.30628 -0.523628 0
M  V30 3837 H 349.638 -5.18154 -1.90318 0
M  V30 3838 H 352.114 -3.34248 -2.47826 0
M  V30 3839 H 350.99 -4.13027 -3.61524 0
M  V30 3840 H 351.251 -2.3961 -3.71536 0
M  V30 3841 N 350.31 0.590341 -1.46126 0
M  V30 3842 C 351.587 1.35029 -1.41515 0
M  V30 3843 C 351.967 2.10888 -0.0946472 0
M  V30 3844 O 351.315 2.08998 0.923693 0
M  V30 3845 C 351.525 2.28269 -2.63997 0
M  V30 3846 C 352.873 2.90338 -3.09821 0
M  V30 3847 O 353.897 2.38585 -2.64492 0
M  V30 3848 O 352.756 3.84321 -3.88535 0
M  V30 3849 H 349.85 0.606317 -0.562413 0
M  V30 3850 H 352.396 0.611994 -1.58281 0
M  V30 3851 H 351.168 1.71591 -3.51671 0
M  V30 3852 H 350.791 3.0945 -2.49652 0
M  V30 3853 N 351.788 1.33704 0.83433 0
M  V30 3854 C 353.204 1.13137 1.12571 0
M  V30 3855 C 353.404 -0.0747261 2.01361 0
M  V30 3856 O 352.46 -0.753647 2.4099 0
M  V30 3857 C 353.773 2.42105 1.78342 0
M  V30 3858 C 355.321 2.48054 1.90888 0
M  V30 3859 C 355.796 3.76995 2.60075 0
M  V30 3860 N 357.287 3.78092 2.67584 0
M  V30 3861 C 358.022 4.74574 3.21818 0
M  V30 3862 N 357.518 5.81434 3.76705 0
M  V30 3863 N 359.311 4.62044 3.20112 0
M  V30 3864 H 351.462 2.11 0.243489 0
M  V30 3865 H 353.725 0.932532 0.17055 0
M  V30 3866 H 353.431 3.30391 1.20561 0
M  V30 3867 H 353.305 2.54594 2.7832 0
M  V30 3868 H 355.692 1.60215 2.47821 0
M  V30 3869 H 355.773 2.39502 0.898459 0
M  V30 3870 H 355.417 4.65219 2.03799 0
M  V30 3871 H 355.347 3.82825 3.61597 0
M  V30 3872 H 357.838 3.00865 2.28667 0
M  V30 3873 H 358.151 6.51084 4.16305 0
M  V30 3874 H 356.496 5.85163 3.7498 0
M  V30 3875 H 359.687 3.77716 2.76493 0
M  V30 3876 H 359.86 5.37406 3.62076 0
M  V30 3877 N 353.266 -1.05314 1.17247 0
M  V30 3878 C 354.491 -1.82509 0.985148 0
M  V30 3879 C 354.916 -1.82343 -0.461788 0
M  V30 3880 O 354.274 -1.23151 -1.33055 0
M  V30 3881 C 354.322 -3.26566 1.52929 0
M  V30 3882 O 353.426 -4.05666 0.742225 0
M  V30 3883 H 352.767 -0.564347 0.349869 0
M  V30 3884 H 355.297 -1.32718 1.55715 0
M  V30 3885 H 355.307 -3.77369 1.55103 0
M  V30 3886 H 353.982 -3.26001 2.58256 0
M  V30 3887 H 352.559 -3.64397 0.791794 0
M  V30 3888 N 354.744 -0.972509 -1.24016 0
M  V30 3889 C 355.707 -0.511403 -2.23422 0
M  V30 3890 C 356.707 0.394679 -1.55881 0
M  V30 3891 O 357.897 0.189469 -1.73167 0
M  V30 3892 C 355.029 0.258769 -3.39916 0
M  V30 3893 H 356.222 -1.39024 -2.6573 0
M  V30 3894 H 353.775 -0.757585 -1.36713 0
M  V30 3895 H 354.51 1.1545 -3.03054 0
M  V30 3896 H 354.295 -0.391522 -3.9014 0
M  V30 3897 H 355.785 0.570244 -4.13688 0
M  V30 3898 N 356.222 1.38976 -0.743202 0
M  V30 3899 C 357.468 2.0064 -0.295189 0
M  V30 3900 C 357.801 1.5885 1.11716 0
M  V30 3901 O 357.076 0.821181 1.76315 0
M  V30 3902 C 357.359 3.578 -0.406318 0
M  V30 3903 C 357.212 4.09586 -1.85903 0
M  V30 3904 C 358.531 4.39616 0.206439 0
M  V30 3905 H 355.65 0.728935 -0.108733 0
M  V30 3906 H 358.292 1.65067 -0.940897 0
M  V30 3907 H 356.442 3.88235 0.143419 0
M  V30 3908 H 358.114 3.89837 -2.46627 0
M  V30 3909 H 356.357 3.6284 -2.3776 0
M  V30 3910 H 357.028 5.18708 -1.888 0
M  V30 3911 H 359.504 4.15273 -0.262283 0
M  V30 3912 H 358.38 5.48812 0.0983819 0
M  V30 3913 H 358.641 4.22754 1.2935 0
M  V30 3914 N 357.7 0.491464 1.49741 0
M  V30 3915 C 358.663 -0.280906 2.27472 0
M  V30 3916 C 359.663 -0.902454 1.33088 0
M  V30 3917 O 360.853 -0.768465 1.56334 0
M  V30 3918 C 357.985 -1.40209 3.10732 0
M  V30 3919 H 359.178 0.401056 2.97206 0
M  V30 3920 H 356.731 0.246131 1.5435 0
M  V30 3921 H 357.466 -2.11849 2.45541 0
M  V30 3922 H 357.251 -0.961969 3.80117 0
M  V30 3923 H 358.741 -1.9464 3.69466 0
M  V30 3924 N 359.178 -1.55987 0.224894 0
M  V30 3925 C 360.424 -1.98684 -0.406502 0
M  V30 3926 C 360.757 -1.11248 -1.59177 0
M  V30 3927 O 360.032 -0.170909 -1.93748 0
M  V30 3928 C 360.315 -3.50218 -0.837808 0
M  V30 3929 C 360.168 -4.48426 0.351332 0
M  V30 3930 C 361.487 -4.06243 -1.69278 0
M  V30 3931 H 358.606 -0.722337 -0.146283 0
M  V30 3932 H 361.248 -1.87255 0.321799 0
M  V30 3933 H 359.398 -3.60089 -1.45837 0
M  V30 3934 H 361.07 -4.50562 0.989526 0
M  V30 3935 H 359.313 -4.22159 0.998207 0
M  V30 3936 H 359.984 -5.52 0.00655905 0
M  V30 3937 H 362.46 -3.99337 -1.16914 0
M  V30 3938 H 361.336 -5.12581 -1.96346 0
M  V30 3939 H 361.597 -3.53332 -2.65723 0
M  V30 3940 N 360.656 0.0484629 -1.57525 0
M  V30 3941 C 361.886 0.754326 -1.92337 0
M  V30 3942 C 362.294 1.70443 -0.82132 0
M  V30 3943 O 361.637 1.82466 0.21254 0
M  V30 3944 C 361.699 1.58231 -3.22805 0
M  V30 3945 C 361.363 0.799074 -4.4996 0
M  V30 3946 C 362.36 0.1079 -5.19788 0
M  V30 3947 C 360.045 0.759345 -4.96527 0
M  V30 3948 C 362.039 -0.612516 -6.3445 0
M  V30 3949 C 359.726 0.0351713 -6.1109 0
M  V30 3950 C 360.724 -0.649537 -6.79904 0
M  V30 3951 O 360.412 -1.36199 -7.92278 0
M  V30 3952 H 360.144 0.218257 -0.639797 0
M  V30 3953 H 362.698 0.0159295 -2.05394 0
M  V30 3954 H 360.928 2.36406 -3.06021 0
M  V30 3955 H 362.617 2.16898 -3.43089 0
M  V30 3956 H 363.383 0.129748 -4.84826 0
M  V30 3957 H 359.262 1.28177 -4.42822 0
M  V30 3958 H 362.806 -1.14751 -6.88097 0
M  V30 3959 H 358.703 0.0113314 -6.45499 0
M  V30 3960 H 359.471 -1.27366 -8.0853 0
M  V30 3961 N 362.134 1.5431 0.320358 0
M  V30 3962 C 363.359 1.76954 1.08175 0
M  V30 3963 C 363.784 0.518193 1.80821 0
M  V30 3964 O 363.142 -0.530411 1.73368 0
M  V30 3965 C 363.19 2.96451 2.05303 0
M  V30 3966 O 362.294 2.68221 3.13259 0
M  V30 3967 H 361.635 0.586275 0.311733 0
M  V30 3968 H 364.165 2.01342 0.363676 0
M  V30 3969 H 364.175 3.23887 2.48116 0
M  V30 3970 H 362.85 3.87196 1.51829 0
M  V30 3971 H 361.427 2.51744 2.75099 0
M  V30 3972 N 363.613 -0.582584 1.46437 0
M  V30 3973 C 364.843 -1.36484 1.55099 0
M  V30 3974 C 365.251 -1.88233 0.191056 0
M  V30 3975 O 364.594 -1.6429 -0.821858 0
M  V30 3976 C 364.656 -2.588 2.49525 0
M  V30 3977 C 364.32 -2.28517 3.95764 0
M  V30 3978 C 365.317 -1.87346 4.84972 0
M  V30 3979 C 363.002 -2.40658 4.40896 0
M  V30 3980 C 364.996 -1.5871 6.17325 0
M  V30 3981 C 362.683 -2.11635 5.73284 0
M  V30 3982 C 363.681 -1.70725 6.61318 0
M  V30 3983 O 363.369 -1.42057 7.91249 0
M  V30 3984 H 363.101 -0.423297 0.527063 0
M  V30 3985 H 365.655 -0.715188 1.92547 0
M  V30 3986 H 363.885 -3.26571 2.07095 0
M  V30 3987 H 365.574 -3.20868 2.48593 0
M  V30 3988 H 366.34 -1.77481 4.5136 0
M  V30 3989 H 362.219 -2.71463 3.72598 0
M  V30 3990 H 365.763 -1.26704 6.85997 0
M  V30 3991 H 361.66 -2.21124 6.06444 0
M  V30 3992 H 362.428 -1.55901 8.03515 0
M  V30 3993 N 365.091 -1.34144 -0.827227 0
M  V30 3994 C 366.316 -1.29476 -1.62021 0
M  V30 3995 C 366.741 0.129292 -1.87655 0
M  V30 3996 O 366.099 1.08967 -1.449 0
M  V30 3997 C 366.147 -2.08702 -2.94068 0
M  V30 3998 O 365.251 -1.45359 -3.85933 0
M  V30 3999 H 364.592 -0.444881 -0.492927 0
M  V30 4000 H 367.122 -1.76882 -1.02829 0
M  V30 4001 H 367.132 -2.19898 -3.43669 0
M  V30 4002 H 365.807 -3.12241 -2.74734 0
M  V30 4003 H 364.384 -1.42879 -3.44442 0
M  V30 4004 N 366.569 1.04691 -1.17803 0
M  V30 4005 C 367.809 1.79352 -0.980423 0
M  V30 4006 C 368.173 1.85853 0.481958 0
M  V30 4007 O 369.374 2.56656 0.798809 0
M  V30 4008 C 367.645 3.19088 -1.6099 0
M  V30 4009 S 369.204 4.10164 -1.55918 0
M  V30 4010 H 366.022 0.617631 -0.352211 0
M  V30 4011 H 368.624 1.25575 -1.49837 0
M  V30 4012 H 367.328 3.11962 -2.66661 0
M  V30 4013 H 366.859 3.77941 -1.09197 0
M  V30 4014 H 368.874 4.92907 -0.570685 0
M  V30 4015 N 368.047 0.979072 1.23499 0
M  V30 4016 C 368.957 0.526431 2.28617 0
M  V30 4017 C 369.973 -0.418126 1.68901 0
M  V30 4018 O 371.149 -0.288372 1.99325 0
M  V30 4019 C 368.214 -0.165235 3.46306 0
M  V30 4020 C 367.275 0.82056 4.21385 0
M  V30 4021 C 366.508 0.161807 5.33455 0
M  V30 4022 O 366.731 -1.04742 5.60701 0
M  V30 4023 O 365.665 0.859708 5.95729 0
M  V30 4024 H 369.491 1.4006 2.69475 0
M  V30 4025 H 367.076 0.746643 1.29405 0
M  V30 4026 H 368.958 -0.553287 4.17752 0
M  V30 4027 H 367.633 -1.01419 3.07402 0
M  V30 4028 H 366.54 1.25929 3.52268 0
M  V30 4029 H 367.873 1.63828 4.64135 0
M  V30 4030 N 369.525 -1.3858 0.750561 0
M  V30 4031 C 370.773 -1.99789 0.30477 0
M  V30 4032 C 371.094 -1.59874 -1.11649 0
M  V30 4033 O 370.364 -0.85417 -1.76297 0
M  V30 4034 H 368.944 -0.738902 0.109694 0
M  V30 4035 H 371.606 -1.69391 0.963983 0
M  V30 4036 H 370.702 -3.09952 0.365499 0
M  V30 4037 N 371.003 -0.499398 -1.49478 0
M  V30 4038 C 372.414 -0.051215 -1.8663 0
M  V30 4039 C 372.765 1.36238 -1.41186 0
M  V30 4040 O 371.89 2.01502 -0.789051 0
M  V30 4041 C 372.485 -0.0861651 -3.3869 0
M  V30 4042 C 371.044 0.30667 -3.75149 0
M  V30 4043 C 370.191 -0.459397 -2.73468 0
M  V30 4044 H 373.142 -0.712264 -1.41818 0
M  V30 4045 H 373.163 0.709507 -3.73826 0
M  V30 4046 H 372.675 -1.11512 -3.71735 0
M  V30 4047 H 370.776 1.33892 -3.47712 0
M  V30 4048 H 370.889 -0.0116669 -4.79099 0
M  V30 4049 H 369.253 0.0905645 -2.54539 0
M  V30 4050 H 370.036 -1.4884 -3.09357 0
M  V30 4051 N 372.481 1.55866 -0.233164 0
M  V30 4052 C 373.391 2.24431 0.683217 0
M  V30 4053 C 374.407 1.2558 1.2044 0
M  V30 4054 O 375.583 1.58422 1.24356 0
M  V30 4055 C 372.648 2.91979 1.86947 0
M  V30 4056 C 371.709 4.06204 1.38912 0
M  V30 4057 C 370.942 4.70522 2.51883 0
M  V30 4058 O 371.165 4.33865 3.70293 0
M  V30 4059 O 370.099 5.59296 2.22423 0
M  V30 4060 H 373.925 3.03426 0.129059 0
M  V30 4061 H 371.51 1.494 -0.0022283 0
M  V30 4062 H 373.392 3.34573 2.56201 0
M  V30 4063 H 372.067 2.15935 2.41151 0
M  V30 4064 H 370.974 3.68155 0.664259 0
M  V30 4065 H 372.307 4.84025 0.893328 0
M  V30 4066 N 373.959 -0.0401083 1.57549 0
M  V30 4067 C 374.869 -1.06133 2.0922 0
M  V30 4068 C 375.885 -1.40356 1.0284 0
M  V30 4069 O 377.061 -1.49897 1.34509 0
M  V30 4070 C 374.126 -2.34658 2.55218 0
M  V30 4071 C 373.187 -2.07117 3.76033 0
M  V30 4072 C 372.42 -3.29514 4.19829 0
M  V30 4073 O 372.643 -4.39794 3.63232 0
M  V30 4074 O 371.577 -3.15863 5.12362 0
M  V30 4075 H 375.403 -0.652244 2.96613 0
M  V30 4076 H 372.988 -0.256368 1.47184 0
M  V30 4077 H 374.87 -3.10239 2.85184 0
M  V30 4078 H 373.545 -2.74883 1.70941 0
M  V30 4079 H 372.452 -1.29139 3.51104 0
M  V30 4080 H 373.785 -1.71754 4.61261 0
M  V30 4081 N 375.437 -1.54477 -0.31217 0
M  V30 4082 C 376.347 -1.87695 -1.4074 0
M  V30 4083 C 377.363 -0.769975 -1.56036 0
M  V30 4084 O 378.539 -1.06537 -1.70915 0
M  V30 4085 C 375.604 -2.10755 -2.75287 0
M  V30 4086 C 374.665 -3.34514 -2.69071 0
M  V30 4087 C 373.898 -3.56465 -3.97201 0
M  V30 4088 O 374.121 -2.81637 -4.96021 0
M  V30 4089 O 373.055 -4.49964 -3.9977 0
M  V30 4090 H 376.881 -2.80849 -1.15574 0
M  V30 4091 H 374.466 -1.40526 -0.507228 0
M  V30 4092 H 376.348 -2.27188 -3.54913 0
M  V30 4093 H 375.023 -1.20788 -3.0032 0
M  V30 4094 H 373.93 -3.23456 -1.87955 0
M  V30 4095 H 375.263 -4.24575 -2.48992 0
M  V30 4096 N 376.915 0.57481 -1.46744 0
M  V30 4097 C 378.14 1.36341 -1.56288 0
M  V30 4098 C 378.565 1.86954 -0.207347 0
M  V30 4099 O 377.923 1.62006 0.813871 0
M  V30 4100 C 377.971 2.52147 -2.57787 0
M  V30 4101 O 377.075 3.53834 -2.11838 0
M  V30 4102 H 376.416 0.405713 -0.525636 0
M  V30 4103 H 378.946 0.696453 -1.92382 0
M  V30 4104 H 378.956 2.98958 -2.77648 0
M  V30 4105 H 377.631 2.14663 -3.5622 0
M  V30 4106 H 376.208 3.1345 -2.01999 0
M  V30 4107 N 378.394 1.34581 0.820102 0
M  V30 4108 C 379.304 1.28471 1.96297 0
M  V30 4109 C 380.32 0.191902 1.72939 0
M  V30 4110 O 381.496 0.418879 1.96996 0
M  V30 4111 C 378.561 1.04281 3.30645 0
M  V30 4112 C 377.622 2.22745 3.66992 0
M  V30 4113 C 376.855 1.997 4.9493 0
M  V30 4114 O 377.078 0.956656 5.6232 0
M  V30 4115 O 376.012 2.86723 5.2922 0
M  V30 4116 H 379.838 2.24624 2.04396 0
M  V30 4117 H 377.423 1.14816 0.955913 0
M  V30 4118 H 379.305 0.925841 4.11104 0
M  V30 4119 H 377.98 0.111697 3.23507 0
M  V30 4120 H 376.887 2.40003 2.86966 0
M  V30 4121 H 378.22 3.14257 3.78819 0
M  V30 4122 N 379.872 -1.04064 1.18357 0
M  V30 4123 C 381.149 -1.74252 0.888581 0
M  V30 4124 C 381.529 -2.02138 -0.60856 0
M  V30 4125 O 380.877 -1.66656 -1.56327 0
M  V30 4126 C 381.087 -3.0277 1.73584 0
M  V30 4127 C 382.435 -3.76506 1.96286 0
M  V30 4128 O 383.459 -3.12668 1.70637 0
M  V30 4129 O 382.318 -4.91243 2.39464 0
M  V30 4130 H 379.412 -0.758271 0.330082 0
M  V30 4131 H 381.958 -1.1013 1.2911 0
M  V30 4132 H 380.73 -2.78299 2.75073 0
M  V30 4133 H 380.353 -3.74631 1.33183 0
M  V30 4134 N 381.35 -0.985608 -1.22978 0
M  V30 4135 C 382.627 -0.573599 -1.87001 0
M  V30 4136 C 383.007 0.949213 -1.88555 0
M  V30 4137 O 382.355 1.82811 -1.37086 0
M  V30 4138 C 382.565 -1.18564 -3.28243 0
M  V30 4139 C 383.913 -1.28163 -4.04796 0
M  V30 4140 O 384.937 -1.13949 -3.37482 0
M  V30 4141 O 383.796 -1.50832 -5.25273 0
M  V30 4142 H 380.89 -0.193868 -0.803955 0
M  V30 4143 H 383.436 -1.08102 -1.30813 0
M  V30 4144 H 382.208 -2.22758 -3.21706 0
M  V30 4145 H 381.831 -0.663363 -3.92027 0
M  V30 4146 N 382.828 1.3818 -0.7579 0
M  V30 4147 C 384.053 2.04827 -0.325679 0
M  V30 4148 C 384.478 1.56788 1.03919 0
M  V30 4149 O 383.836 0.721811 1.66312 0
M  V30 4150 C 383.884 3.58774 -0.362447 0
M  V30 4151 O 382.988 4.07372 0.642033 0
M  V30 4152 H 382.329 0.64833 -0.143402 0
M  V30 4153 H 384.859 1.7677 -1.03023 0
M  V30 4154 H 384.869 4.07434 -0.214844 0
M  V30 4155 H 383.544 3.93096 -1.35824 0
M  V30 4156 H 382.121 3.70068 0.458688 0
M  V30 4157 N 384.306 0.507319 1.49211 0
M  V30 4158 C 385.256 -0.287112 2.26185 0
M  V30 4159 C 386.24 -0.929983 1.31302 0
M  V30 4160 O 387.432 -0.836538 1.55984 0
M  V30 4161 C 384.561 -1.34718 3.15763 0
M  V30 4162 C 383.647 -0.710235 4.18111 0
M  V30 4163 N 384.038 0.190836 5.0544 0
M  V30 4164 C 382.336 -0.97009 4.35322 0
M  V30 4165 C 383.037 0.55606 5.79036 0
M  V30 4166 N 382.013 -0.0775232 5.43545 0
M  V30 4167 H 385.815 0.406445 2.91076 0
M  V30 4168 H 383.329 0.323814 1.59139 0
M  V30 4169 H 385.326 -1.92982 3.69545 0
M  V30 4170 H 383.986 -2.04235 2.52424 0
M  V30 4171 H 384.997 0.562047 5.14841 0
M  V30 4172 H 381.674 -1.65753 3.83187 0
M  V30 4173 H 383.064 1.2936 6.5933 0
M  V30 4174 N 385.784 -1.5574 0.241426 0
M  V30 4175 C 386.714 -2.24133 -0.654722 0
M  V30 4176 C 387.695 -1.21974 -1.1856 0
M  V30 4177 O 388.88 -1.50612 -1.22595 0
M  V30 4178 C 386.01 -2.93659 -1.85423 0
M  V30 4179 C 384.964 -4.0246 -1.45636 0
M  V30 4180 C 384.29 -4.59383 -2.73626 0
M  V30 4181 C 385.59 -5.18468 -0.631506 0
M  V30 4182 H 387.284 -2.99281 -0.0844353 0
M  V30 4183 H 384.83 -1.43947 -0.0391707 0
M  V30 4184 H 386.783 -3.40203 -2.48676 0
M  V30 4185 H 385.507 -2.15991 -2.44981 0
M  V30 4186 H 384.166 -3.56676 -0.847202 0
M  V30 4187 H 383.814 -3.78422 -3.3137 0
M  V30 4188 H 383.514 -5.32826 -2.4773 0
M  V30 4189 H 385.038 -5.08658 -3.37786 0
M  V30 4190 H 386.452 -5.61272 -1.1682 0
M  V30 4191 H 384.849 -5.98266 -0.468831 0
M  V30 4192 H 385.919 -4.8358 0.357506 0
M  V30 4193 N 387.262 0.0317525 -1.57568 0
M  V30 4194 C 388.172 1.05021 -2.0978 0
M  V30 4195 C 389.188 1.39809 -1.03583 0
M  V30 4196 O 390.364 1.49182 -1.35302 0
M  V30 4197 C 387.429 2.33301 -2.56459 0
M  V30 4198 C 386.49 2.0512 -3.77127 0
M  V30 4199 C 385.723 3.27283 -4.2157 0
M  V30 4200 O 385.946 4.37861 -3.65559 0
M  V30 4201 O 384.88 3.13141 -5.14029 0
M  V30 4202 H 388.706 0.636505 -2.96955 0
M  V30 4203 H 386.291 0.248559 -1.47318 0
M  V30 4204 H 388.173 3.08722 -2.86825 0
M  V30 4205 H 386.848 2.73973 -1.72397 0
M  V30 4206 H 385.755 1.27276 -3.51784 0
M  V30 4207 H 387.088 1.69305 -4.62165 0
M  V30 4208 N 388.74 1.54641 0.303973 0
M  V30 4209 C 389.988 1.73437 1.0375 0
M  V30 4210 C 390.309 0.521449 1.87899 0
M  V30 4211 O 389.579 -0.46432 1.90318 0
M  V30 4212 H 388.159 0.639518 0.386039 0
M  V30 4213 H 390.821 1.91988 0.335675 0
M  V30 4214 H 389.917 2.62235 1.69231 0
M  V30 4215 N 390.218 -0.567019 1.47046 0
M  V30 4216 C 391.634 -0.891975 1.32348 0
M  V30 4217 C 391.834 -1.99154 0.306616 0
M  V30 4218 O 390.89 -2.50883 -0.28532 0
M  V30 4219 C 392.203 -1.29449 2.7141 0
M  V30 4220 C 393.751 -1.40646 2.79621 0
M  V30 4221 C 394.226 -1.84257 4.19301 0
M  V30 4222 N 395.717 -1.91424 4.21795 0
M  V30 4223 C 396.452 -2.26476 5.26779 0
M  V30 4224 N 395.948 -2.60211 6.42077 0
M  V30 4225 N 397.741 -2.27166 5.14152 0
M  V30 4226 H 389.892 0.159074 2.11803 0
M  V30 4227 H 392.155 0.00849752 0.947962 0
M  V30 4228 H 391.861 -0.560448 3.47206 0
M  V30 4229 H 391.735 -2.25273 3.02542 0
M  V30 4230 H 394.122 -2.13133 2.04104 0
M  V30 4231 H 394.203 -0.430339 2.52154 0
M  V30 4232 H 393.847 -1.12343 4.95319 0
M  V30 4233 H 393.777 -2.82855 4.44185 0
M  V30 4234 H 396.268 -1.6778 3.38612 0
M  V30 4235 H 396.581 -2.85956 7.17948 0
M  V30 4236 H 394.926 -2.57813 6.45413 0
M  V30 4237 H 398.117 -2.00244 4.23107 0
M  V30 4238 H 398.29 -2.54154 5.96079 0
M  V30 4239 N 391.696 -1.35014 -0.812953 0
M  V30 4240 C 392.973 -1.18502 -1.55617 0
M  V30 4241 C 393.353 0.238421 -2.09749 0
M  V30 4242 O 392.701 1.2411 -1.91857 0
M  V30 4243 C 392.911 -2.24783 -2.66971 0
M  V30 4244 C 394.259 -2.60268 -3.35478 0
M  V30 4245 O 395.283 -2.23648 -2.77236 0
M  V30 4246 O 394.142 -3.2321 -4.40678 0
M  V30 4247 H 391.236 -0.459984 -0.687272 0
M  V30 4248 H 393.782 -1.46677 -0.853464 0
M  V30 4249 H 392.554 -3.20284 -2.24798 0
M  V30 4250 H 392.177 -1.97841 -3.44884 0
M  V30 4251 N 393.175 1.03435 -1.18907 0
M  V30 4252 C 394.586 1.58195 -0.991523 0
M  V30 4253 C 394.937 1.90801 0.457081 0
M  V30 4254 O 394.062 1.70272 1.33553 0
M  V30 4255 C 394.657 2.87432 -1.79355 0
M  V30 4256 C 393.216 3.38785 -1.64017 0
M  V30 4257 C 392.363 2.12292 -1.78402 0
M  V30 4258 H 395.314 0.860299 -1.33359 0
M  V30 4259 H 395.335 3.58096 -1.28638 0
M  V30 4260 H 394.847 2.63669 -2.84781 0
M  V30 4261 H 392.948 3.67547 -0.611536 0
M  V30 4262 H 393.061 4.12186 -2.44212 0
M  V30 4263 H 391.425 2.23901 -1.2141 0
M  V30 4264 H 392.208 1.90977 -2.85277 0
M  V30 4265 N 394.653 0.992116 1.22453 0
M  V30 4266 C 395.93 0.583508 1.86694 0
M  V30 4267 C 396.31 -0.9392 1.89056 0
M  V30 4268 O 395.658 -1.82081 1.38053 0
M  V30 4269 C 395.868 1.20304 3.2761 0
M  V30 4270 C 397.216 1.30308 4.0411 0
M  V30 4271 O 398.24 1.15737 3.36873 0
M  V30 4272 O 397.099 1.53615 5.24466 0
M  V30 4273 H 394.193 0.198129 0.802916 0
M  V30 4274 H 396.739 1.08794 1.30238 0
M  V30 4275 H 395.511 2.24461 3.2052 0
M  V30 4276 H 395.134 0.684144 3.9167 0
M  V30 4277 N 396.131 -1.37776 0.765217 0
M  V30 4278 C 397.38 -1.99092 0.323307 0
M  V30 4279 C 397.693 -1.61434 -1.10446 0
M  V30 4280 O 398.899 -2.15805 -1.64743 0
M  V30 4281 C 397.355 -3.56019 0.527098 0
M  V30 4282 C 396.963 -4.0262 1.96471 0
M  V30 4283 C 398.707 -4.2424 0.148483 0
M  V30 4284 C 396.614 -5.52233 2.11644 0
M  V30 4285 H 395.544 -0.744846 0.117137 0
M  V30 4286 H 398.195 -1.57391 0.943417 0
M  V30 4287 H 396.577 -3.95667 -0.162372 0
M  V30 4288 H 397.751 -3.74234 2.68859 0
M  V30 4289 H 396.066 -3.47161 2.29931 0
M  V30 4290 H 398.663 -5.34159 0.240456 0
M  V30 4291 H 399.006 -4.06446 -0.900422 0
M  V30 4292 H 399.539 -3.89872 0.79025 0
M  V30 4293 H 396.278 -5.74945 3.1483 0
M  V30 4294 H 395.798 -5.82324 1.4373 0
M  V30 4295 H 397.477 -6.18106 1.91193 0
M  V30 4296 N 397.609 -0.515225 -1.4894 0
M  V30 4297 C 398.855 0.016187 -2.03394 0
M  V30 4298 C 399.21 1.33377 -1.38666 0
M  V30 4299 O 398.503 1.84461 -0.518141 0
M  V30 4300 C 398.697 0.210595 -3.56779 0
M  V30 4301 C 398.526 -1.08659 -4.36375 0
M  V30 4302 C 397.296 -1.64237 -4.77864 0
M  V30 4303 C 399.494 -1.9935 -4.74093 0
M  V30 4304 N 397.476 -2.88398 -5.41941 0
M  V30 4305 C 398.847 -3.08088 -5.38035 0
M  V30 4306 C 400.902 -1.99856 -4.56029 0
M  V30 4307 C 399.605 -4.17377 -5.85823 0
M  V30 4308 C 401.631 -3.08129 -5.04787 0
M  V30 4309 C 400.993 -4.15586 -5.68742 0
M  V30 4310 H 397.092 -0.0352107 -0.781207 0
M  V30 4311 H 399.676 -0.693237 -1.8194 0
M  V30 4312 H 397.847 0.889088 -3.78087 0
M  V30 4313 H 399.579 0.740287 -3.97872 0
M  V30 4314 H 396.334 -1.18566 -4.58518 0
M  V30 4315 H 396.758 -3.51572 -5.78555 0
M  V30 4316 H 401.4 -1.18079 -4.05977 0
M  V30 4317 H 399.118 -4.99943 -6.34888 0
M  V30 4318 H 402.704 -3.09557 -4.92611 0
M  V30 4319 H 401.584 -4.97987 -6.05787 0
M  V30 4320 N 399.087 1.5561 -0.249682 0
M  V30 4321 C 400.037 2.18157 0.662673 0
M  V30 4322 C 401.021 1.1383 1.13717 0
M  V30 4323 O 402.213 1.39731 1.08648 0
M  V30 4324 C 399.342 2.88672 1.85805 0
M  V30 4325 C 398.428 4.00258 1.40193 0
M  V30 4326 N 398.819 5.01473 0.660213 0
M  V30 4327 C 397.117 4.12864 1.68698 0
M  V30 4328 C 397.818 5.80155 0.423695 0
M  V30 4329 N 396.794 5.34533 0.988721 0
M  V30 4330 H 400.596 2.93769 0.0878688 0
M  V30 4331 H 398.11 1.62316 -0.0521183 0
M  V30 4332 H 400.107 3.31912 2.5227 0
M  V30 4333 H 398.767 2.14564 2.43705 0
M  V30 4334 H 399.778 5.16971 0.310047 0
M  V30 4335 H 396.455 3.4993 2.27717 0
M  V30 4336 H 397.845 6.71688 -0.168616 0
M  V30 4337 N 400.565 -0.0233959 1.57583 0
M  V30 4338 C 401.811 -0.714119 1.89811 0
M  V30 4339 C 402.144 -1.74702 0.848113 0
M  V30 4340 O 401.419 -1.94023 -0.136135 0
M  V30 4341 C 401.702 -1.37853 3.32669 0
M  V30 4342 C 401.555 -0.358764 4.48367 0
M  V30 4343 C 402.874 -2.31101 3.7454 0
M  V30 4344 H 399.993 -0.25814 0.690314 0
M  V30 4345 H 402.635 0.0230927 1.89986 0
M  V30 4346 H 400.785 -2.00689 3.3265 0
M  V30 4347 H 402.457 0.268115 4.6052 0
M  V30 4348 H 400.7 0.321387 4.32608 0
M  V30 4349 H 401.371 -0.862242 5.45224 0
M  V30 4350 H 403.847 -1.78304 3.75961 0
M  V30 4351 H 402.723 -2.74567 4.75294 0
M  V30 4352 H 402.984 -3.18018 3.0711 0
M  V30 4353 N 402.043 -1.548 -0.295768 0
M  V30 4354 C 403.291 -1.73985 -1.02828 0
M  V30 4355 C 403.612 -0.531406 -1.87619 0
M  V30 4356 O 402.882 0.454221 -1.90561 0
M  V30 4357 H 401.462 -0.641556 -0.382642 0
M  V30 4358 H 404.124 -1.92163 -0.325489 0
M  V30 4359 H 403.22 -2.63129 -1.67838 0
M  V30 4360 N 403.521 0.559213 -1.47345 0
M  V30 4361 C 404.768 1.31648 -1.53867 0
M  V30 4362 C 405.096 1.93468 -0.200104 0
M  V30 4363 O 404.351 1.78295 0.806799 0
M  V30 4364 C 404.65 2.44853 -2.6035 0
M  V30 4365 C 404.316 2.00876 -4.03683 0
M  V30 4366 C 402.978 1.88599 -4.42701 0
M  V30 4367 C 405.33 1.67279 -4.93626 0
M  V30 4368 C 402.658 1.41017 -5.69501 0
M  V30 4369 C 405.01 1.21169 -6.20887 0
M  V30 4370 C 403.674 1.07487 -6.58789 0
M  V30 4371 H 402.944 0.481734 -0.56304 0
M  V30 4372 H 405.591 0.627301 -1.80934 0
M  V30 4373 H 403.896 3.19318 -2.27032 0
M  V30 4374 H 405.593 3.03039 -2.62619 0
M  V30 4375 H 402.183 2.11374 -3.72853 0
M  V30 4376 H 406.367 1.75638 -4.64182 0
M  V30 4377 H 401.623 1.29086 -5.97618 0
M  V30 4378 H 405.797 0.942345 -6.89995 0
M  V30 4379 H 403.424 0.703946 -7.56934 0
M  V30 4380 N 404.999 1.35443 0.805782 0
M  V30 4381 C 405.946 1.28431 1.91766 0
M  V30 4382 C 406.916 0.156102 1.65365 0
M  V30 4383 O 408.101 0.339936 1.87747 0
M  V30 4384 C 405.241 1.06301 3.2832 0
M  V30 4385 C 404.354 2.2805 3.66902 0
M  V30 4386 C 403.489 1.99064 4.92491 0
M  V30 4387 C 402.528 3.16863 5.23703 0
M  V30 4388 N 401.665 2.87647 6.40471 0
M  V30 4389 H 406.505 2.23511 1.97096 0
M  V30 4390 H 404.042 1.11105 0.964054 0
M  V30 4391 H 406 0.915012 4.07042 0
M  V30 4392 H 404.63 0.148822 3.22457 0
M  V30 4393 H 403.682 2.53711 2.83434 0
M  V30 4394 H 404.994 3.1601 3.85927 0
M  V30 4395 H 404.148 1.81099 5.7904 0
M  V30 4396 H 402.887 1.0839 4.75503 0
M  V30 4397 H 401.892 3.35404 4.35642 0
M  V30 4398 H 403.117 4.08339 5.4262 0
M  V30 4399 H 401.063 1.99568 6.24907 0
M  V30 4400 H 400.98 3.69141 6.59751 0
M  V30 4401 H 402.248 2.73226 7.30047 0
M  V30 4402 N 406.477 -1.02803 1.19454 0
M  V30 4403 C 407.726 -1.7562 0.991996 0
M  V30 4404 C 408.039 -1.89672 -0.477901 0
M  V30 4405 O 409.245 -2.59468 -0.799287 0
M  V30 4406 C 407.701 -3.15812 1.72601 0
M  V30 4407 C 407.309 -3.0981 3.23607 0
M  V30 4408 C 409.053 -3.92918 1.60674 0
M  V30 4409 C 406.96 -4.44939 3.89594 0
M  V30 4410 H 405.89 -0.658352 0.367543 0
M  V30 4411 H 408.541 -1.15044 1.42959 0
M  V30 4412 H 406.923 -3.7686 1.21624 0
M  V30 4413 H 408.097 -2.58138 3.81709 0
M  V30 4414 H 406.412 -2.46201 3.35819 0
M  V30 4415 H 409.009 -4.9287 2.07323 0
M  V30 4416 H 409.352 -4.12502 0.561025 0
M  V30 4417 H 409.885 -3.38472 2.09001 0
M  V30 4418 H 406.624 -4.30559 4.94267 0
M  V30 4419 H 406.144 -4.96664 3.36281 0
M  V30 4420 H 407.823 -5.1382 3.93189 0
M  V30 4421 N 407.956 -0.998596 -1.21925 0
M  V30 4422 C 409.181 -0.696015 -1.95372 0
M  V30 4423 C 409.606 0.733826 -1.73195 0
M  V30 4424 O 408.964 1.50242 -1.01474 0
M  V30 4425 C 409.012 -1.01466 -3.4603 0
M  V30 4426 O 408.116 -0.116415 -4.12236 0
M  V30 4427 H 407.457 -0.259938 -0.611006 0
M  V30 4428 H 409.987 -1.33711 -1.54863 0
M  V30 4429 H 409.997 -0.958855 -3.96573 0
M  V30 4430 H 408.672 -2.05653 -3.61497 0
M  V30 4431 H 407.249 -0.228193 -3.72201 0
M  V30 4432 N 409.434 1.37368 -0.772513 0
M  V30 4433 C 410.68 2.00423 -0.3467 0
M  V30 4434 C 411.035 1.60224 1.06518 0
M  V30 4435 O 410.328 0.838712 1.72268 0
M  V30 4436 C 410.522 3.54817 -0.428876 0
M  V30 4437 C 410.351 4.10011 -1.84719 0
M  V30 4438 C 409.121 4.40927 -2.46803 0
M  V30 4439 C 411.319 4.30955 -2.80681 0
M  V30 4440 N 409.301 4.8184 -3.80399 0
M  V30 4441 C 410.672 4.74486 -3.99078 0
M  V30 4442 C 412.727 4.1309 -2.77958 0
M  V30 4443 C 411.43 5.02023 -5.15136 0
M  V30 4444 C 413.456 4.41764 -3.9319 0
M  V30 4445 C 412.818 4.85535 -5.10328 0
M  V30 4446 H 408.917 0.762413 -0.173927 0
M  V30 4447 H 411.501 1.66666 -1.00651 0
M  V30 4448 H 409.672 3.87881 0.200757 0
M  V30 4449 H 411.404 4.04696 0.0190668 0
M  V30 4450 H 408.159 4.30033 -1.98415 0
M  V30 4451 H 408.583 5.06604 -4.49089 0
M  V30 4452 H 413.225 3.7842 -1.88568 0
M  V30 4453 H 410.943 5.35582 -6.05126 0
M  V30 4454 H 414.529 4.29528 -3.92425 0
M  V30 4455 H 413.409 5.07296 -5.98013 0
M  V30 4456 N 410.912 0.523116 1.48665 0
M  V30 4457 C 412.189 -0.0775449 1.95446 0
M  V30 4458 C 412.569 -1.5197 1.4652 0
M  V30 4459 O 411.917 -2.17876 0.688657 0
M  V30 4460 C 412.127 0.0326135 3.48985 0
M  V30 4461 C 413.475 -0.130141 4.24401 0
M  V30 4462 O 414.499 -0.0415142 3.56176 0
M  V30 4463 O 413.358 -0.31491 5.45592 0
M  V30 4464 H 410.452 -0.0831012 0.822814 0
M  V30 4465 H 412.998 0.587227 1.59216 0
M  V30 4466 H 411.77 1.03748 3.77296 0
M  V30 4467 H 411.393 -0.671317 3.91892 0
M  V30 4468 N 412.39 -1.55475 0.257931 0
M  V30 4469 C 413.639 -1.98383 -0.364275 0
M  V30 4470 C 413.952 -1.14952 -1.58258 0
M  V30 4471 O 415.158 -1.47924 -2.27664 0
M  V30 4472 C 413.614 -3.53037 -0.699479 0
M  V30 4473 C 413.222 -4.45223 0.498046 0
M  V30 4474 C 414.966 -4.04575 -1.28526 0
M  V30 4475 C 412.873 -5.91238 0.138383 0
M  V30 4476 H 411.803 -0.740911 -0.13988 0
M  V30 4477 H 414.454 -1.79936 0.359883 0
M  V30 4478 H 412.836 -3.6722 -1.48207 0
M  V30 4479 H 414.01 -4.42803 1.27522 0
M  V30 4480 H 412.325 -4.04226 0.999503 0
M  V30 4481 H 414.922 -5.11196 -1.56788 0
M  V30 4482 H 415.265 -3.5258 -2.21344 0
M  V30 4483 H 415.798 -3.93762 -0.565337 0
M  V30 4484 H 412.537 -6.47294 1.03398 0
M  V30 4485 H 412.057 -5.96768 -0.602374 0
M  V30 4486 H 413.736 -6.46413 -0.27553 0
M  V30 4487 N 413.868 0.0150385 -1.57593 0
M  V30 4488 C 414.778 1.02791 -2.10882 0
M  V30 4489 C 415.794 1.38702 -1.0506 0
M  V30 4490 O 416.97 1.47739 -1.36877 0
M  V30 4491 C 414.035 2.30568 -2.58919 0
M  V30 4492 C 413.096 2.01108 -3.79281 0
M  V30 4493 C 412.329 3.22794 -4.25018 0
M  V30 4494 O 412.552 4.33959 -3.70183 0
M  V30 4495 O 411.486 3.07672 -5.17322 0
M  V30 4496 H 415.312 0.604973 -2.97613 0
M  V30 4497 H 412.897 0.23292 -1.47573 0
M  V30 4498 H 414.779 3.05662 -2.90084 0
M  V30 4499 H 413.454 2.72129 -1.75293 0
M  V30 4500 H 412.361 1.23537 -3.53114 0
M  V30 4501 H 413.694 1.64394 -4.63935 0
M  V30 4502 N 415.346 1.54954 0.287554 0
M  V30 4503 C 416.574 1.78881 1.03967 0
M  V30 4504 C 416.989 0.554894 1.80462 0
M  V30 4505 O 416.346 -0.475676 1.76192 0
M  V30 4506 C 416.397 3.00488 2.0097 0
M  V30 4507 O 416.118 4.19113 1.27577 0
M  V30 4508 C 417.619 3.36907 2.88112 0
M  V30 4509 H 414.839 0.596259 0.307761 0
M  V30 4510 H 417.383 2.01937 0.322749 0
M  V30 4511 H 415.538 2.79601 2.68145 0
M  V30 4512 H 415.952 4.87765 1.92835 0
M  V30 4513 H 417.426 4.25205 3.52001 0
M  V30 4514 H 417.903 2.55659 3.57121 0
M  V30 4515 H 418.509 3.60001 2.26449 0
M  V30 4516 N 416.824 -0.551391 1.4764 0
M  V30 4517 C 418.235 -1.13349 1.48354 0
M  V30 4518 C 418.586 -1.94709 0.241432 0
M  V30 4519 O 417.711 -2.06306 -0.653205 0
M  V30 4520 C 418.306 -2.0623 2.68802 0
M  V30 4521 C 416.865 -2.597 2.72457 0
M  V30 4522 C 416.012 -1.36201 2.41546 0
M  V30 4523 H 418.963 -0.337698 1.55065 0
M  V30 4524 H 418.984 -2.90196 2.46103 0
M  V30 4525 H 418.496 -1.46987 3.59188 0
M  V30 4526 H 416.597 -3.22724 1.86225 0
M  V30 4527 H 416.71 -3.00296 3.73308 0
M  V30 4528 H 415.074 -1.67068 1.9225 0
M  V30 4529 H 415.857 -0.787425 3.34147 0
M  V30 4530 N 418.302 -1.35869 -0.798587 0
M  V30 4531 C 419.55 -1.29332 -1.55298 0
M  V30 4532 C 419.871 0.129729 -1.94568 0
M  V30 4533 O 419.141 1.06796 -1.6423 0
M  V30 4534 H 417.721 -0.475737 -0.57592 0
M  V30 4535 H 420.383 -1.70062 -0.952093 0
M  V30 4536 H 419.479 -1.91458 -2.46476 0
M  V30 4537 N 419.78 1.02168 -1.19998 0
M  V30 4538 C 420.71 2.12488 -0.96804 0
M  V30 4539 C 421.691 1.69799 0.101185 0
M  V30 4540 O 422.876 1.94121 -0.0552993 0
M  V30 4541 C 420.006 3.43479 -0.513776 0
M  V30 4542 C 418.96 3.99884 -1.52566 0
M  V30 4543 C 418.286 5.26582 -0.928214 0
M  V30 4544 C 419.586 4.33861 -2.90795 0
M  V30 4545 H 421.28 2.32149 -1.89069 0
M  V30 4546 H 418.826 1.11564 -0.910468 0
M  V30 4547 H 420.779 4.20036 -0.338774 0
M  V30 4548 H 419.503 3.23561 0.444493 0
M  V30 4549 H 418.162 3.25429 -1.68794 0
M  V30 4550 H 417.81 5.02986 0.0378289 0
M  V30 4551 H 417.51 5.65284 -1.60397 0
M  V30 4552 H 419.034 6.05799 -0.764167 0
M  V30 4553 H 420.448 5.01327 -2.78109 0
M  V30 4554 H 418.845 4.83664 -3.55231 0
M  V30 4555 H 419.915 3.42848 -3.42904 0
M  V30 4556 N 421.258 1.00505 1.21394 0
M  V30 4557 C 422.221 0.570459 2.21987 0
M  V30 4558 C 423.221 -0.353211 1.56873 0
M  V30 4559 O 424.411 -0.14349 1.73608 0
M  V30 4560 C 421.543 -0.168555 3.40483 0
M  V30 4561 H 422.736 1.46021 2.6195 0
M  V30 4562 H 420.289 0.793565 1.34656 0
M  V30 4563 H 421.024 -1.07374 3.06009 0
M  V30 4564 H 420.809 0.494823 3.88965 0
M  V30 4565 H 422.299 -0.460362 4.15055 0
M  V30 4566 N 422.737 -1.36956 0.779787 0
M  V30 4567 C 423.986 -1.98738 0.344405 0
M  V30 4568 C 424.299 -1.62596 -1.08728 0
M  V30 4569 O 425.505 -2.1754 -1.62445 0
M  V30 4570 C 423.961 -3.5544 0.564829 0
M  V30 4571 C 423.569 -4.00514 2.0073 0
M  V30 4572 C 425.313 -4.24059 0.193471 0
M  V30 4573 C 423.22 -5.49957 2.17489 0
M  V30 4574 H 422.15 -0.743561 0.12503 0
M  V30 4575 H 424.801 -1.56381 0.960057 0
M  V30 4576 H 423.183 -3.95817 -0.120397 0
M  V30 4577 H 424.357 -3.71362 2.72814 0
M  V30 4578 H 422.672 -3.44703 2.336 0
M  V30 4579 H 425.269 -5.33874 0.297097 0
M  V30 4580 H 425.612 -4.07378 -0.857263 0
M  V30 4581 H 426.145 -3.89012 0.831556 0
M  V30 4582 H 422.884 -5.71574 3.2091 0
M  V30 4583 H 422.404 -5.80767 1.49899 0
M  V30 4584 H 424.083 -6.16043 1.97738 0
M  V30 4585 N 424.215 -0.530993 -1.48385 0
M  V30 4586 C 425.626 -0.0907905 -1.86479 0
M  V30 4587 C 425.977 1.33213 -1.44044 0
M  V30 4588 O 425.102 1.99783 -0.831615 0
M  V30 4589 C 425.697 -0.157987 -3.38431 0
M  V30 4590 C 424.256 0.227026 -3.75715 0
M  V30 4591 C 423.403 -0.5173 -2.72432 0
M  V30 4592 H 426.354 -0.742186 -1.40276 0
M  V30 4593 H 426.375 0.630053 -3.75247 0
M  V30 4594 H 425.887 -1.19372 -3.69286 0
M  V30 4595 H 423.988 1.26486 -3.50474 0
M  V30 4596 H 424.101 -0.113288 -4.78966 0
M  V30 4597 H 422.465 0.0365527 -2.54674 0
M  V30 4598 H 423.248 -1.55368 -3.0613 0
M  V30 4599 N 425.693 1.55336 -0.266172 0
M  V30 4600 C 426.623 2.25146 0.618981 0
M  V30 4601 C 427.604 1.23845 1.16604 0
M  V30 4602 O 428.789 1.52544 1.20183 0
M  V30 4603 C 425.919 2.96572 1.80728 0
M  V30 4604 C 424.873 4.04726 1.39215 0
M  V30 4605 C 424.199 4.63678 2.66283 0
M  V30 4606 C 425.499 5.19407 0.548942 0
M  V30 4607 H 427.193 2.99377 0.0368116 0
M  V30 4608 H 424.739 1.43991 0.0162651 0
M  V30 4609 H 426.692 3.44116 2.43232 0
M  V30 4610 H 425.416 2.19861 2.41514 0
M  V30 4611 H 424.075 3.57979 0.790351 0
M  V30 4612 H 423.723 3.83646 3.25308 0
M  V30 4613 H 423.423 5.367 2.39222 0
M  V30 4614 H 424.947 5.13967 3.29651 0
M  V30 4615 H 426.361 5.63059 1.07876 0
M  V30 4616 H 424.758 5.98936 0.373593 0
M  V30 4617 H 425.828 4.8295 -0.434394 0
M  V30 4618 N 427.171 -0.0066808 1.57599 0
M  V30 4619 C 428.121 -1.0086 2.04478 0
M  V30 4620 C 429.105 -1.30714 0.938231 0
M  V30 4621 O 430.297 -1.29924 1.20203 0
M  V30 4622 C 427.426 -2.30273 2.54615 0
M  V30 4623 C 426.512 -2.03413 3.72134 0
M  V30 4624 N 426.903 -1.46688 4.84062 0
M  V30 4625 C 425.201 -2.33589 3.79937 0
M  V30 4626 C 425.902 -1.36146 5.65543 0
M  V30 4627 N 424.878 -1.84477 5.1134 0
M  V30 4628 H 428.68 -0.564402 2.8843 0
M  V30 4629 H 426.194 -0.212521 1.61003 0
M  V30 4630 H 428.191 -3.02885 2.86472 0
M  V30 4631 H 426.851 -2.75352 1.72079 0
M  V30 4632 H 427.862 -1.14658 5.05049 0
M  V30 4633 H 424.539 -2.81589 3.08243 0
M  V30 4634 H 425.929 -0.925873 6.6549 0
M  V30 4635 N 428.649 -1.55105 -0.279332 0
M  V30 4636 C 429.581 -1.83952 -1.36727 0
M  V30 4637 C 430.594 -0.723642 -1.45833 0
M  V30 4638 O 431.783 -1.00141 -1.47763 0
M  V30 4639 C 428.883 -1.98183 -2.74912 0
M  V30 4640 C 428.056 -3.28787 -2.88475 0
M  V30 4641 C 427.115 -3.33162 -4.07295 0
M  V30 4642 O 426.141 -4.06576 -3.98353 0
M  V30 4643 N 427.343 -2.60109 -5.18964 0
M  V30 4644 H 430.108 -2.77853 -1.12328 0
M  V30 4645 H 427.669 -1.54945 -0.469442 0
M  V30 4646 H 429.661 -1.98488 -3.52682 0
M  V30 4647 H 428.231 -1.11177 -2.92162 0
M  V30 4648 H 427.451 -3.41075 -1.97641 0
M  V30 4649 H 428.739 -4.14933 -2.94463 0
M  V30 4650 H 428.137 -2.00136 -5.29115 0
M  V30 4651 H 426.694 -2.66143 -5.94988 0
M  V30 4652 N 430.127 0.543554 -1.4793 0
M  V30 4653 C 431.375 1.29752 -1.54948 0
M  V30 4654 C 431.696 1.93764 -0.219242 0
M  V30 4655 O 430.966 1.80639 0.75805 0
M  V30 4656 H 429.546 0.481874 -0.570795 0
M  V30 4657 H 432.208 0.633636 -1.84312 0
M  V30 4658 H 431.304 2.08392 -2.32334 0
M  V30 4659 N 431.605 1.3629 0.791371 0
M  V30 4660 C 432.882 1.20962 1.53712 0
M  V30 4661 C 433.262 -0.205021 2.10102 0
M  V30 4662 O 432.61 -1.21042 1.93807 0
M  V30 4663 C 432.82 2.29002 2.63361 0
M  V30 4664 C 434.168 2.65572 3.31295 0
M  V30 4665 O 435.192 2.2803 2.73643 0
M  V30 4666 O 434.051 3.3018 4.35481 0
M  V30 4667 H 431.145 0.47086 0.679867 0
M  V30 4668 H 433.691 1.48016 0.830021 0
M  V30 4669 H 432.463 3.2382 2.19674 0
M  V30 4670 H 432.086 2.03303 3.41692 0
M  V30 4671 N 433.083 -1.0153 1.20538 0
M  V30 4672 C 434.323 -1.76689 1.02763 0
M  V30 4673 C 434.687 -1.87065 -0.432513 0
M  V30 4674 O 435.888 -2.58684 -0.730481 0
M  V30 4675 C 434.159 -3.14707 1.69393 0
M  V30 4676 S 435.718 -4.05886 1.66738 0
M  V30 4677 H 432.536 -0.608076 0.368463 0
M  V30 4678 H 435.138 -1.21558 1.53114 0
M  V30 4679 H 433.842 -3.04782 2.74838 0
M  V30 4680 H 433.373 -3.74913 1.19179 0
M  V30 4681 H 435.388 -4.91221 0.70117 0
M  V30 4682 N 434.561 -1.01147 -1.20859 0
M  V30 4683 C 435.791 -0.715872 -1.93801 0
M  V30 4684 C 436.199 0.726592 -1.74692 0
M  V30 4685 O 435.542 1.50397 -1.05482 0
M  V30 4686 C 435.604 -0.965269 -3.46299 0
M  V30 4687 C 435.268 -2.39584 -3.89164 0
M  V30 4688 C 436.265 -3.3764 -3.95342 0
M  V30 4689 C 433.95 -2.73522 -4.21297 0
M  V30 4690 C 435.944 -4.67698 -4.33056 0
M  V30 4691 C 433.631 -4.03794 -4.58687 0
M  V30 4692 C 434.629 -5.00693 -4.64538 0
M  V30 4693 O 434.317 -6.28635 -5.01072 0
M  V30 4694 H 434.049 -0.262524 -0.622942 0
M  V30 4695 H 436.603 -1.35413 -1.54443 0
M  V30 4696 H 434.833 -0.269847 -3.85757 0
M  V30 4697 H 436.522 -0.662051 -4.00464 0
M  V30 4698 H 437.288 -3.12757 -3.70686 0
M  V30 4699 H 433.167 -1.9879 -4.15937 0
M  V30 4700 H 436.711 -5.4333 -4.37537 0
M  V30 4701 H 432.608 -4.28459 -4.82797 0
M  V30 4702 H 433.376 -6.32847 -5.19083 0
M  V30 4703 N 436.039 1.36541 -0.78704 0
M  V30 4704 C 437.286 1.99304 -0.358341 0
M  V30 4705 C 437.614 1.62467 1.06933 0
M  V30 4706 O 436.869 0.870019 1.75297 0
M  V30 4707 C 437.168 3.54343 -0.466485 0
M  V30 4708 C 436.834 4.10993 -1.85461 0
M  V30 4709 C 435.496 4.26177 -2.23443 0
M  V30 4710 C 437.848 4.41895 -2.76366 0
M  V30 4711 C 435.176 4.69573 -3.51736 0
M  V30 4712 C 437.528 4.86722 -4.04084 0
M  V30 4713 C 436.192 5.00112 -4.42091 0
M  V30 4714 H 435.462 0.729306 -0.131126 0
M  V30 4715 H 438.109 1.63068 -1.00404 0
M  V30 4716 H 436.414 3.90918 0.262719 0
M  V30 4717 H 438.111 4.00833 -0.115854 0
M  V30 4718 H 434.701 3.99612 -1.54946 0
M  V30 4719 H 438.885 4.29735 -2.48277 0
M  V30 4720 H 434.141 4.78127 -3.81057 0
M  V30 4721 H 438.315 5.09598 -4.7464 0
M  V30 4722 H 435.942 5.33498 -5.41557 0
M  V30 4723 N 437.518 0.538854 1.48102 0
M  V30 4724 C 438.451 -0.266495 2.26639 0
M  V30 4725 C 439.429 -0.93687 1.32897 0
M  V30 4726 O 440.613 -0.959507 1.62252 0
M  V30 4727 C 437.74 -1.37814 3.09394 0
M  V30 4728 C 436.786 -0.818247 4.18577 0
M  V30 4729 S 437.619 0.320848 5.34538 0
M  V30 4730 C 438.775 -0.793059 6.20855 0
M  V30 4731 H 439.008 0.399994 2.94597 0
M  V30 4732 H 436.541 0.324808 1.50945 0
M  V30 4733 H 438.499 -2.01488 3.57649 0
M  V30 4734 H 437.16 -2.01639 2.40833 0
M  V30 4735 H 436.353 -1.65247 4.7614 0
M  V30 4736 H 435.955 -0.258036 3.73109 0
M  V30 4737 H 438.247 -1.68961 6.56093 0
M  V30 4738 H 439.19 -0.255204 7.0764 0
M  V30 4739 H 439.598 -1.07746 5.54122 0
M  V30 4740 N 438.996 -1.55193 0.274407 0
M  V30 4741 C 439.926 -2.25471 -0.607032 0
M  V30 4742 C 440.907 -1.24461 -1.15946 0
M  V30 4743 O 442.092 -1.53179 -1.19373 0
M  V30 4744 C 439.222 -2.97526 -1.79153 0
M  V30 4745 C 438.176 -4.05459 -1.37067 0
M  V30 4746 C 437.502 -4.65084 -2.6382 0
M  V30 4747 C 438.802 -5.19691 -0.521389 0
M  V30 4748 H 440.496 -2.99393 -0.0209343 0
M  V30 4749 H 438.042 -1.43997 -0.00862866 0
M  V30 4750 H 439.995 -3.45402 -2.41404 0
M  V30 4751 H 438.719 -2.21138 -2.40344 0
M  V30 4752 H 437.378 -3.58393 -0.771355 0
M  V30 4753 H 437.026 -3.85365 -3.23268 0
M  V30 4754 H 436.726 -5.37961 -2.36372 0
M  V30 4755 H 438.25 -5.15708 -3.26921 0
M  V30 4756 H 439.664 -5.63623 -1.04889 0
M  V30 4757 H 438.061 -5.99126 -0.341825 0
M  V30 4758 H 439.131 -4.82713 0.46 0
M  V30 4759 N 440.474 -0.00167713 -1.576 0
M  V30 4760 C 441.751 0.719951 -1.81868 0
M  V30 4761 C 442.131 1.91895 -0.879747 0
M  V30 4762 O 441.479 2.28389 0.0711423 0
M  V30 4763 C 441.689 1.12409 -3.30402 0
M  V30 4764 C 443.037 1.52724 -3.96182 0
M  V30 4765 O 444.061 1.21784 -3.34734 0
M  V30 4766 O 442.92 2.10265 -5.04431 0
M  V30 4767 H 440.014 0.350707 -0.748955 0
M  V30 4768 H 442.56 -0.0272597 -1.69678 0
M  V30 4769 H 441.332 0.269532 -3.90371 0
M  V30 4770 H 440.955 1.93035 -3.47596 0
M  V30 4771 N 441.952 1.55251 0.271103 0
M  V30 4772 C 443.229 1.66664 1.02384 0
M  V30 4773 C 443.609 0.534363 2.04225 0
M  V30 4774 O 442.957 -0.465337 2.23712 0
M  V30 4775 C 443.167 3.05961 1.67895 0
M  V30 4776 C 444.515 3.63772 2.18986 0
M  V30 4777 O 445.539 3.08606 1.77878 0
M  V30 4778 O 444.398 4.60429 2.94393 0
M  V30 4779 H 441.492 0.676957 0.475035 0
M  V30 4780 H 444.038 1.67589 0.26681 0
M  V30 4781 H 442.81 3.79815 0.941071 0
M  V30 4782 H 442.433 3.08943 2.5028 0
M  V30 4783 N 443.43 -0.535701 1.48216 0
M  V30 4784 C 444.36 -1.65014 1.65204 0
M  V30 4785 C 445.341 -1.62554 0.501011 0
M  V30 4786 O 446.526 -1.7984 0.732886 0
M  V30 4787 C 443.656 -3.03616 1.68626 0
M  V30 4788 C 442.61 -3.20932 2.83172 0
M  V30 4789 C 441.936 -4.60537 2.71679 0
M  V30 4790 C 443.236 -3.04249 4.24535 0
M  V30 4791 H 444.93 -1.51053 2.58502 0
M  V30 4792 H 442.476 -0.725262 1.24402 0
M  V30 4793 H 444.429 -3.81446 1.79099 0
M  V30 4794 H 443.153 -3.18587 0.719026 0
M  V30 4795 H 441.812 -2.45517 2.72244 0
M  V30 4796 H 441.46 -4.72336 1.72937 0
M  V30 4797 H 441.16 -4.73069 3.48538 0
M  V30 4798 H 442.684 -5.40475 2.84112 0
M  V30 4799 H 444.098 -3.71877 4.36326 0
M  V30 4800 H 442.495 -3.28278 5.02348 0
M  V30 4801 H 443.565 -2.00739 4.41397 0
M  V30 4802 N 444.908 -1.36708 -0.784132 0
M  V30 4803 C 445.856 -1.31533 -1.91838 0
M  V30 4804 C 446.85 -0.206205 -1.6814 0
M  V30 4805 O 448.056 -0.373519 -1.76082 0
M  V30 4806 H 444.431 -0.409613 -0.630651 0
M  V30 4807 H 446.402 -2.2731 -1.9332 0
M  V30 4808 C 445.151 -1.12679 -3.28936 0
M  V30 4809 H 444.474 -1.97274 -3.4774 0
M  V30 4810 H 445.914 -1.13106 -4.08636 0
M  V30 4811 C 444.373 0.168281 -3.36479 0
M  V30 4812 O 444.903 1.15625 -3.84699 0
M  V30 4813 N 443.109 0.214762 -2.89805 0
M  V30 4814 H 442.656 -0.589852 -2.50756 0
M  V30 4815 H 442.614 1.08094 -2.95234 0
M  V30 4816 N 446.386 1.0089 -1.21074 0
M  V30 4817 C 447.349 2.0775 -0.968129 0
M  V30 4818 C 448.349 1.6069 0.0593445 0
M  V30 4819 O 449.539 1.73293 -0.177525 0
M  V30 4820 C 446.671 3.37794 -0.459108 0
M  V30 4821 H 447.864 2.30707 -1.9161 0
M  V30 4822 H 445.417 1.17807 -1.02719 0
M  V30 4823 H 446.152 3.20516 0.49397 0
M  V30 4824 H 445.937 3.7328 -1.20019 0
M  V30 4825 H 447.427 4.16454 -0.309099 0
M  V30 4826 N 447.864 1.01787 1.20321 0
M  V30 4827 C 449.092 0.727194 1.937 0
M  V30 4828 C 449.507 -0.712305 1.74848 0
M  V30 4829 O 448.864 -1.48327 1.06327 0
M  V30 4830 C 448.915 1.05497 3.45764 0
M  V30 4831 O 448.636 2.43794 3.64 0
M  V30 4832 C 450.137 0.785534 4.36285 0
M  V30 4833 H 447.357 0.266939 0.615617 0
M  V30 4834 H 449.901 1.35939 1.52777 0
M  V30 4835 H 448.056 0.468158 3.84561 0
M  V30 4836 H 448.47 2.55656 4.57974 0
M  V30 4837 H 449.944 1.06495 5.4163 0
M  V30 4838 H 450.421 -0.280273 4.38305 0
M  V30 4839 H 451.027 1.35456 4.03152 0
M  V30 4840 N 449.342 -1.36122 0.79427 0
M  V30 4841 C 450.292 -2.27373 0.169017 0
M  V30 4842 C 451.276 -1.4719 -0.649913 0
M  V30 4843 O 452.468 -1.69518 -0.50919 0
M  V30 4844 C 449.597 -3.36264 -0.691455 0
M  V30 4845 C 448.683 -4.2388 0.13653 0
M  V30 4846 N 449.074 -4.91519 1.19345 0
M  V30 4847 C 447.372 -4.45921 -0.0838499 0
M  V30 4848 C 448.073 -5.56369 1.6979 0
M  V30 4849 N 447.049 -5.34204 1.00634 0
M  V30 4850 H 450.851 -2.77154 0.977897 0
M  V30 4851 H 448.365 -1.49504 0.634208 0
M  V30 4852 H 450.362 -4.00572 -1.15534 0
M  V30 4853 H 449.022 -2.88037 -1.49883 0
M  V30 4854 H 450.033 -4.9334 1.57594 0
M  V30 4855 H 446.71 -4.08518 -0.861341 0
M  V30 4856 H 448.1 -6.20368 2.58055 0
M  V30 4857 N 450.82 -0.546701 -1.47814 0
M  V30 4858 C 451.752 0.244196 -2.27895 0
M  V30 4859 C 452.765 0.88911 -1.36377 0
M  V30 4860 O 453.954 0.764733 -1.61289 0
M  V30 4861 C 451.054 1.36252 -3.10304 0
M  V30 4862 C 450.227 0.816382 -4.29714 0
M  V30 4863 C 449.286 1.81789 -4.93801 0
M  V30 4864 O 448.312 1.36818 -5.52512 0
M  V30 4865 N 449.514 3.15085 -4.87547 0
M  V30 4866 H 452.279 -0.442694 -2.96412 0
M  V30 4867 H 449.84 -0.382095 -1.57327 0
M  V30 4868 H 451.832 2.03102 -3.50045 0
M  V30 4869 H 450.402 1.95281 -2.44099 0
M  V30 4870 H 449.622 -0.0285981 -3.9419 0
M  V30 4871 H 450.91 0.430668 -5.06974 0
M  V30 4872 H 450.308 3.54275 -4.41028 0
M  V30 4873 H 448.865 3.77522 -5.31339 0
M  V30 4874 N 452.299 1.55045 -0.282633 0
M  V30 4875 C 453.249 2.19514 0.616249 0
M  V30 4876 C 454.233 1.16216 1.11277 0
M  V30 4877 O 455.425 1.42004 1.05659 0
M  V30 4878 C 452.554 2.92548 1.7964 0
M  V30 4879 C 451.64 4.03142 1.31671 0
M  V30 4880 N 452.031 5.0276 0.553695 0
M  V30 4881 C 450.329 4.1635 1.59903 0
M  V30 4882 C 451.03 5.80923 0.30054 0
M  V30 4883 N 450.006 5.3651 0.875116 0
M  V30 4884 H 453.808 2.93889 0.0255363 0
M  V30 4885 H 451.322 1.62169 -0.0865362 0
M  V30 4886 H 453.319 3.37188 2.45173 0
M  V30 4887 H 451.979 2.19685 2.39099 0
M  V30 4888 H 452.99 5.17512 0.20032 0
M  V30 4889 H 449.667 3.54682 2.20243 0
M  V30 4890 H 451.057 6.7118 -0.311053 0
M  V30 4891 N 453.777 0.010035 1.57597 0
M  V30 4892 C 455.017 -0.677084 1.9286 0
M  V30 4893 C 455.381 -1.70377 0.885192 0
M  V30 4894 O 456.582 -2.44199 1.12339 0
M  V30 4895 C 454.853 -1.29452 3.33132 0
M  V30 4896 S 456.412 -2.00537 3.90295 0
M  V30 4897 H 453.23 -0.223409 0.674989 0
M  V30 4898 H 455.832 0.0691289 1.95378 0
M  V30 4899 H 454.536 -0.534593 4.06903 0
M  V30 4900 H 454.067 -2.07845 3.34012 0
M  V30 4901 H 456.082 -3.28168 3.72183 0
M  V30 4902 N 455.255 -1.55392 -0.262866 0
M  V30 4903 C 456.501 -1.76737 -0.99458 0
M  V30 4904 C 456.834 -0.572453 -1.85571 0
M  V30 4905 O 456.109 0.429732 -1.89693 0
M  V30 4906 C 456.392 -3.07824 -1.8686 0
M  V30 4907 C 456.245 -4.3769 -1.03672 0
M  V30 4908 C 457.564 -3.35021 -2.85393 0
M  V30 4909 H 454.683 -0.643005 -0.360157 0
M  V30 4910 H 457.325 -1.88126 -0.266216 0
M  V30 4911 H 455.475 -2.98245 -2.48962 0
M  V30 4912 H 457.147 -4.59238 -0.43563 0
M  V30 4913 H 455.39 -4.32461 -0.340513 0
M  V30 4914 H 456.061 -5.25759 -1.6817 0
M  V30 4915 H 458.537 -3.44458 -2.33426 0
M  V30 4916 H 457.413 -4.27989 -3.43681 0
M  V30 4917 H 457.674 -2.55153 -3.61039 0
M  V30 4918 N 456.733 0.527833 -1.48498 0
M  V30 4919 C 457.663 1.64136 -1.66077 0
M  V30 4920 C 458.644 1.62286 -0.509625 0
M  V30 4921 O 459.829 1.79449 -0.742413 0
M  V30 4922 C 456.959 3.02717 -1.70234 0
M  V30 4923 C 455.913 3.19426 -2.8487 0
M  V30 4924 C 455.239 4.5909 -2.74118 0
M  V30 4925 C 456.539 3.01993 -4.26142 0
M  V30 4926 H 458.233 1.4968 -2.593 0
M  V30 4927 H 455.779 0.718654 -1.24785 0
M  V30 4928 H 457.732 3.80491 -1.8112 0
M  V30 4929 H 456.456 3.18201 -0.735911 0
M  V30 4930 H 455.115 2.4407 -2.73542 0
M  V30 4931 H 454.763 4.71413 -1.7544 0
M  V30 4932 H 454.463 4.71214 -3.51042 0
M  V30 4933 H 455.987 5.3896 -2.86974 0
M  V30 4934 H 457.401 3.69558 -4.38292 0
M  V30 4935 H 455.798 3.2561 -5.04082 0
M  V30 4936 H 456.868 1.98396 -4.42456 0
M  V30 4937 N 458.211 1.37122 0.776871 0
M  V30 4938 C 459.174 1.32301 1.8716 0
M  V30 4939 C 460.174 0.228099 1.59174 0
M  V30 4940 O 461.364 0.483642 1.67352 0
M  V30 4941 C 458.496 1.054 3.24197 0
M  V30 4942 H 459.689 2.29673 1.92848 0
M  V30 4943 H 457.242 1.22077 0.97606 0
M  V30 4944 H 457.977 0.0853872 3.24188 0
M  V30 4945 H 457.762 1.84648 3.45901 0
M  V30 4946 H 459.252 1.04664 4.04271 0
M  V30 4947 N 459.689 -1.00246 1.21608 0
M  V30 4948 C 460.937 -1.73717 1.0328 0
M  V30 4949 C 461.258 -1.90102 -0.434318 0
M  V30 4950 O 460.528 -1.45376 -1.31311 0
M  V30 4951 H 459.108 -0.643613 0.379172 0
M  V30 4952 H 461.77 -1.20787 1.52959 0
M  V30 4953 H 460.866 -2.73535 1.50283 0
M  V30 4954 N 461.167 -1.02423 -1.1978 0
M  V30 4955 C 462.392 -0.7373 -1.93852 0
M  V30 4956 C 462.817 0.696923 -1.74713 0
M  V30 4957 O 462.175 1.48056 -1.04638 0
M  V30 4958 C 462.223 -1.08783 -3.438 0
M  V30 4959 O 461.327 -0.20383 -4.11896 0
M  V30 4960 H 460.668 -0.27284 -0.605355 0
M  V30 4961 H 463.198 -1.36966 -1.51992 0
M  V30 4962 H 463.208 -1.04276 -3.9445 0
M  V30 4963 H 461.883 -2.13274 -3.57053 0
M  V30 4964 H 460.46 -0.307091 -3.71633 0
M  V30 4965 N 462.645 1.35699 -0.801477 0
M  V30 4966 C 463.577 2.28598 -0.166028 0
M  V30 4967 C 464.59 1.50044 0.631721 0
M  V30 4968 O 465.779 1.72339 0.464921 0
M  V30 4969 C 462.879 3.29625 0.787451 0
M  V30 4970 C 462.052 4.37384 0.037171 0
M  V30 4971 C 461.111 5.183 0.908375 0
M  V30 4972 O 460.137 5.68053 0.361189 0
M  V30 4973 N 461.339 5.35912 2.23112 0
M  V30 4974 H 464.104 2.83771 -0.964071 0
M  V30 4975 H 461.665 1.47994 -0.656469 0
M  V30 4976 H 463.657 3.80648 1.37439 0
M  V30 4977 H 462.227 2.75004 1.48632 0
M  V30 4978 H 461.447 3.87364 -0.730935 0
M  V30 4979 H 462.735 5.0653 -0.480109 0
M  V30 4980 H 462.133 4.97125 2.69968 0
M  V30 4981 H 460.69 5.90133 2.76741 0
M  V30 4982 N 464.123 0.554532 1.47522 0
M  V30 4983 C 465.534 0.120446 1.86311 0
M  V30 4984 C 465.885 -1.30904 1.46145 0
M  V30 4985 O 465.01 -1.98434 0.863294 0
M  V30 4986 C 465.605 0.211808 3.38137 0
M  V30 4987 C 464.164 -0.167224 3.76028 0
M  V30 4988 C 463.311 0.560576 2.71575 0
M  V30 4989 H 466.262 0.764408 1.39077 0
M  V30 4990 H 466.283 -0.570275 3.76202 0
M  V30 4991 H 465.795 1.25232 3.6734 0
M  V30 4992 H 463.896 -1.20894 3.52442 0
M  V30 4993 H 464.009 0.189473 4.78725 0
M  V30 4994 H 462.373 0.00396836 2.547 0
M  V30 4995 H 463.156 1.60219 3.0362 0
M  V30 4996 N 465.601 -1.54893 0.290851 0
M  V30 4997 C 467.017 -1.59476 -0.0628432 0
M  V30 4998 C 467.217 -1.30795 -1.5328 0
M  V30 4999 O 466.273 -1.07644 -2.28406 0
M  V30 5000 C 467.586 -2.98928 0.325962 0
M  V30 5001 C 469.134 -3.11799 0.273882 0
M  V30 5002 C 469.609 -4.53544 0.637359 0
M  V30 5003 N 471.1 -4.59433 0.589507 0
M  V30 5004 C 471.835 -5.67164 0.84335 0
M  V30 5005 N 471.331 -6.82975 1.16263 0
M  V30 5006 N 473.124 -5.56786 0.771091 0
M  V30 5007 H 465.275 -1.71798 1.24896 0
M  V30 5008 H 467.538 -0.801879 0.505663 0
M  V30 5009 H 467.244 -3.24805 1.34887 0
M  V30 5010 H 467.118 -3.75793 -0.325441 0
M  V30 5011 H 469.505 -2.85677 -0.739765 0
M  V30 5012 H 469.586 -2.37112 0.959766 0
M  V30 5013 H 469.23 -4.80394 1.64877 0
M  V30 5014 H 469.16 -5.26553 -0.0704866 0
M  V30 5015 H 471.651 -3.76245 0.353252 0
M  V30 5016 H 471.964 -7.61048 1.34257 0
M  V30 5017 H 470.309 -6.84552 1.20057 0
M  V30 5018 H 473.5 -4.65187 0.521383 0
M  V30 5019 H 473.673 -6.40664 0.972295 0
M  V30 5020 N 467.08 -0.0183926 -1.57589 0
M  V30 5021 C 468.327 0.662562 -1.91354 0
M  V30 5022 C 468.655 1.72747 -0.893788 0
M  V30 5023 O 467.91 1.9545 0.0988509 0
M  V30 5024 C 468.209 1.32676 -3.31861 0
M  V30 5025 C 467.875 0.393267 -4.49182 0
M  V30 5026 C 466.537 0.136302 -4.81007 0
M  V30 5027 C 468.889 -0.248366 -5.20608 0
M  V30 5028 C 466.217 -0.770282 -5.81621 0
M  V30 5029 C 468.569 -1.14294 -6.22189 0
M  V30 5030 C 467.233 -1.4089 -6.52462 0
M  V30 5031 H 466.503 0.242448 -0.700214 0
M  V30 5032 H 469.15 -0.0778629 -1.91342 0
M  V30 5033 H 467.455 2.14168 -3.28084 0
M  V30 5034 H 469.152 1.86001 -3.55253 0
M  V30 5035 H 465.742 0.603723 -4.24327 0
M  V30 5036 H 469.926 -0.062883 -4.9626 0
M  V30 5037 H 465.182 -0.984154 -6.03427 0
M  V30 5038 H 469.356 -1.64637 -6.76659 0
M  V30 5039 H 466.983 -2.11306 -7.30242 0
M  V30 5040 N 468.558 1.5553 0.254621 0
M  V30 5041 C 469.783 1.81383 1.00573 0
M  V30 5042 C 470.208 0.594419 1.78461 0
M  V30 5043 O 469.566 -0.456403 1.75461 0
M  V30 5044 C 469.614 3.04892 1.92545 0
M  V30 5045 O 468.718 2.81266 3.01601 0
M  V30 5046 H 468.059 0.598969 0.286587 0
M  V30 5047 H 470.589 2.02703 0.277952 0
M  V30 5048 H 470.599 3.34119 2.34155 0
M  V30 5049 H 469.274 3.93287 1.3527 0
M  V30 5050 H 467.851 2.63185 2.64174 0
M  V30 5051 N 470.036 -0.519951 1.48776 0
M  V30 5052 C 471.261 -1.30447 1.6124 0
M  V30 5053 C 471.686 -1.86055 0.276591 0
M  V30 5054 O 471.044 -1.64915 -0.753183 0
M  V30 5055 C 471.092 -2.42406 2.66967 0
M  V30 5056 O 470.196 -3.45728 2.24824 0
M  V30 5057 H 469.537 -0.385924 0.540332 0
M  V30 5058 H 472.067 -0.624572 1.94834 0
M  V30 5059 H 472.077 -2.88447 2.88552 0
M  V30 5060 H 470.752 -2.01294 3.63941 0
M  V30 5061 H 469.329 -3.05737 2.13494 0
M  V30 5062 N 471.514 -1.37532 -0.769588 0
M  V30 5063 C 472.742 -1.36059 -1.55871 0
M  V30 5064 C 473.157 0.053544 -1.88724 0
M  V30 5065 O 472.514 1.01591 -1.5161 0
M  V30 5066 C 472.565 -2.20107 -2.86767 0
M  V30 5067 O 472.286 -3.56009 -2.55321 0
M  V30 5068 C 473.787 -2.26636 -3.80987 0
M  V30 5069 H 471.007 -0.465967 -0.482821 0
M  V30 5070 H 473.551 -1.80901 -0.953686 0
M  V30 5071 H 471.706 -1.78768 -3.43687 0
M  V30 5072 H 472.12 -4.0009 -3.39158 0
M  V30 5073 H 473.594 -2.89763 -4.69831 0
M  V30 5074 H 474.071 -1.2754 -4.20274 0
M  V30 5075 H 474.677 -2.68296 -3.29996 0
M  V30 5076 N 472.992 0.995999 -1.22138 0
M  V30 5077 C 473.942 2.06988 -0.956042 0
M  V30 5078 C 474.926 1.60636 0.0921576 0
M  V30 5079 O 476.118 1.76607 -0.117958 0
M  V30 5080 C 473.247 3.39148 -0.532335 0
M  V30 5081 C 472.333 3.92142 -1.61509 0
M  V30 5082 N 472.724 4.18397 -2.84214 0
M  V30 5083 C 471.022 4.20514 -1.48606 0
M  V30 5084 C 471.723 4.61425 -3.54206 0
M  V30 5085 N 470.699 4.64934 -2.81669 0
M  V30 5086 H 474.501 2.25223 -1.88816 0
M  V30 5087 H 472.015 1.17748 -1.11845 0
M  V30 5088 H 474.012 4.15642 -0.323574 0
M  V30 5089 H 472.672 3.22314 0.392921 0
M  V30 5090 H 473.683 4.06682 -3.20671 0
M  V30 5091 H 470.36 4.12769 -0.626762 0
M  V30 5092 H 471.75 4.90387 -4.59315 0
M  V30 5093 N 474.47 1.03057 1.19235 0
M  V30 5094 C 475.886 0.747947 1.40989 0
M  V30 5095 C 476.086 -0.666752 1.90149 0
M  V30 5096 O 475.142 -1.43249 2.07933 0
M  V30 5097 C 476.455 1.7855 2.41951 0
M  V30 5098 C 478.003 1.80524 2.55695 0
M  V30 5099 C 478.478 2.83243 3.59913 0
M  V30 5100 N 479.969 2.8207 3.67411 0
M  V30 5101 C 480.704 3.58204 4.47747 0
M  V30 5102 N 480.2 4.44057 5.31775 0
M  V30 5103 N 481.993 3.46738 4.42413 0
M  V30 5104 H 474.144 1.94367 0.856468 0
M  V30 5105 H 476.407 0.840412 0.438647 0
M  V30 5106 H 476.113 2.79973 2.12857 0
M  V30 5107 H 475.987 1.6092 3.41152 0
M  V30 5108 H 478.374 0.79778 2.84112 0
M  V30 5109 H 478.455 2.02229 1.56643 0
M  V30 5110 H 478.099 3.84161 3.32239 0
M  V30 5111 H 478.029 2.58795 4.5862 0
M  V30 5112 H 480.52 2.19803 3.074 0
M  V30 5113 H 480.833 4.98884 5.90199 0
M  V30 5114 H 479.178 4.48129 5.3123 0
M  V30 5115 H 482.369 2.79077 3.75811 0
M  V30 5116 H 482.542 4.06322 5.04783 0
M  V30 5117 N 475.948 -1.35272 0.808662 0
M  V30 5118 C 477.194 -1.99003 0.390581 0
M  V30 5119 C 477.527 -1.63999 -1.0401 0
M  V30 5120 O 476.802 -0.904368 -1.72196 0
M  V30 5121 C 477.085 -3.55454 0.576566 0
M  V30 5122 C 476.938 -4.00249 2.05233 0
M  V30 5123 C 478.257 -4.401 0.00354277 0
M  V30 5124 H 475.376 -0.722917 0.143388 0
M  V30 5125 H 478.018 -1.6039 1.01858 0
M  V30 5126 H 476.168 -3.88477 0.0419766 0
M  V30 5127 H 477.84 -3.77626 2.64946 0
M  V30 5128 H 476.083 -3.51082 2.54801 0
M  V30 5129 H 476.754 -5.0911 2.13333 0
M  V30 5130 H 479.23 -4.13548 0.460117 0
M  V30 5131 H 478.106 -5.48656 0.163575 0
M  V30 5132 H 478.367 -4.28444 -1.09032 0
M  V30 5133 N 477.426 -0.562348 -1.47226 0
M  V30 5134 C 478.389 0.172056 -2.28553 0
M  V30 5135 C 479.389 0.837928 -1.37242 0
M  V30 5136 O 480.579 0.693001 -1.59822 0
M  V30 5137 C 477.711 1.25223 -3.17068 0
M  V30 5138 H 478.904 -0.542401 -2.94954 0
M  V30 5139 H 476.457 -0.319493 -1.53 0
M  V30 5140 H 477.192 1.99892 -2.55369 0
M  V30 5141 H 476.977 0.779515 -3.84273 0
M  V30 5142 H 478.467 1.76791 -3.78332 0
M  V30 5143 N 478.904 1.54736 -0.299062 0
M  V30 5144 C 479.814 2.27127 0.587413 0
M  V30 5145 C 480.83 1.30575 1.15005 0
M  V30 5146 O 482.006 1.63554 1.17525 0
M  V30 5147 C 479.071 2.99645 1.74395 0
M  V30 5148 C 478.132 4.11731 1.21559 0
M  V30 5149 C 477.365 4.80781 2.317 0
M  V30 5150 O 477.588 4.4918 3.51558 0
M  V30 5151 O 476.522 5.68226 1.98501 0
M  V30 5152 H 480.348 3.037 0.000250109 0
M  V30 5153 H 477.933 1.49256 -0.0655919 0
M  V30 5154 H 479.815 3.45138 2.4178 0
M  V30 5155 H 478.49 2.25969 2.31775 0
M  V30 5156 H 477.397 3.70641 0.507514 0
M  V30 5157 H 478.73 4.87379 0.687233 0
M  V30 5158 N 480.382 0.0267497 1.57577 0
M  V30 5159 C 481.622 -0.65659 1.93567 0
M  V30 5160 C 481.986 -1.69429 0.903213 0
M  V30 5161 O 483.187 -2.42994 1.14923 0
M  V30 5162 C 481.458 -1.25912 3.34486 0
M  V30 5163 S 483.017 -1.96386 3.924 0
M  V30 5164 H 479.835 -0.216237 0.67732 0
M  V30 5165 H 482.437 0.0898475 1.95293 0
M  V30 5166 H 481.141 -0.491405 4.07447 0
M  V30 5167 H 480.672 -2.04291 3.36198 0
M  V30 5168 H 482.687 -3.24202 3.75643 0
M  V30 5169 N 481.861 -1.55662 -0.24637 0
M  V30 5170 C 483.086 -1.81914 -0.996093 0
M  V30 5171 C 483.511 -0.603875 -1.78143 0
M  V30 5172 O 482.869 0.447091 -1.75701 0
M  V30 5173 C 482.917 -3.05908 -1.90925 0
M  V30 5174 O 482.021 -2.82861 -3.00105 0
M  V30 5175 H 481.362 -0.600481 -0.283406 0
M  V30 5176 H 483.892 -2.02848 -0.267199 0
M  V30 5177 H 483.902 -3.35356 -2.3238 0
M  V30 5178 H 482.577 -3.93999 -1.33183 0
M  V30 5179 H 481.154 -2.64583 -2.62775 0
M  V30 5180 N 483.339 0.512053 -1.4905 0
M  V30 5181 C 484.567 1.29116 -1.61669 0
M  V30 5182 C 484.982 1.86655 -0.283787 0
M  V30 5183 O 484.339 1.67293 0.729331 0
M  V30 5184 C 484.39 2.4293 -2.67707 0
M  V30 5185 O 484.111 1.87758 -3.95826 0
M  V30 5186 C 485.612 3.34476 -2.90931 0
M  V30 5187 H 482.832 0.392009 -0.544583 0
M  V30 5188 H 485.376 0.615881 -1.95006 0
M  V30 5189 H 483.531 3.06308 -2.37179 0
M  V30 5190 H 483.945 2.62393 -4.54148 0
M  V30 5191 H 485.419 4.10642 -3.68886 0
M  V30 5192 H 485.896 3.90801 -2.00427 0
M  V30 5193 H 486.502 2.76874 -3.22832 0
M  V30 5194 N 484.817 1.37938 0.762283 0
M  V30 5195 C 486.065 1.33404 1.51815 0
M  V30 5196 C 486.386 -0.0780975 1.94844 0
M  V30 5197 O 485.656 -1.02405 1.67003 0
M  V30 5198 H 484.236 0.490839 0.563104 0
M  V30 5199 H 486.898 1.72527 0.906669 0
M  V30 5200 H 485.994 1.97926 2.41313 0
M  V30 5201 N 486.295 -0.989507 1.22664 0
M  V30 5202 C 487.523 -1.76496 1.07967 0
M  V30 5203 C 487.938 -1.85148 -0.369543 0
M  V30 5204 O 487.295 -1.32408 -1.25596 0
M  V30 5205 C 487.346 -3.19642 1.68853 0
M  V30 5206 O 487.067 -3.11453 3.08105 0
M  V30 5207 C 488.568 -4.13621 1.59475 0
M  V30 5208 H 485.788 -0.55418 0.378319 0
M  V30 5209 H 488.332 -1.24378 1.62328 0
M  V30 5210 H 486.487 -3.68816 1.18547 0
M  V30 5211 H 486.901 -4.01499 3.37489 0
M  V30 5212 H 488.375 -5.11801 2.06795 0
M  V30 5213 H 488.852 -4.35718 0.55191 0
M  V30 5214 H 489.458 -3.70346 2.09103 0
M  V30 5215 N 487.773 -1.03688 -1.18687 0
M  V30 5216 C 488.703 -0.645407 -2.24403 0
M  V30 5217 C 489.684 0.349511 -1.66471 0
M  V30 5218 O 490.869 0.230453 -1.92828 0
M  V30 5219 C 487.999 -0.00365337 -3.473 0
M  V30 5220 C 486.953 -0.921705 -4.17958 0
M  V30 5221 C 486.279 -0.144629 -5.34504 0
M  V30 5222 C 487.579 -2.23909 -4.71871 0
M  V30 5223 H 489.273 -1.52917 -2.57404 0
M  V30 5224 H 486.819 -0.736711 -1.23728 0
M  V30 5225 H 488.772 0.281908 -4.20456 0
M  V30 5226 H 487.496 0.914963 -3.13522 0
M  V30 5227 H 486.155 -1.19159 -3.46694 0
M  V30 5228 H 485.803 0.776274 -4.96974 0
M  V30 5229 H 485.503 -0.756206 -5.82714 0
M  V30 5230 H 487.027 0.134004 -6.10453 0
M  V30 5231 H 488.441 -2.0145 -5.36741 0
M  V30 5232 H 486.838 -2.8033 -5.30599 0
M  V30 5233 H 487.908 -2.88822 -3.895 0
M  V30 5234 N 489.251 1.34841 -0.815825 0
M  V30 5235 C 490.528 1.92908 -0.323416 0
M  V30 5236 C 490.908 1.74479 1.18828 0
M  V30 5237 O 490.256 1.11928 1.99209 0
M  V30 5238 C 490.466 3.40957 -0.744952 0
M  V30 5239 C 491.814 4.18107 -0.739716 0
M  V30 5240 O 492.838 3.49511 -0.68708 0
M  V30 5241 O 491.697 5.40517 -0.806456 0
M  V30 5242 H 488.791 0.822436 -0.0867646 0
M  V30 5243 H 491.337 1.4386 -0.90014 0
M  V30 5244 H 490.109 3.4814 -1.78646 0
M  V30 5245 H 489.732 3.97341 -0.143535 0
M  V30 5246 N 490.729 0.570148 1.46925 0
M  V30 5247 C 491.959 0.0561151 2.06524 0
M  V30 5248 C 492.367 -1.24874 1.42137 0
M  V30 5249 O 491.71 -1.76292 0.516417 0
M  V30 5250 C 491.772 -0.197035 3.5896 0
M  V30 5251 C 491.436 1.02033 4.45464 0
M  V30 5252 C 492.433 1.92921 4.82781 0
M  V30 5253 C 490.118 1.23864 4.86788 0
M  V30 5254 C 492.112 3.03999 5.60235 0
M  V30 5255 C 489.799 2.35249 5.64004 0
M  V30 5256 C 490.797 3.25146 6.0064 0
M  V30 5257 O 490.485 4.34598 6.76299 0
M  V30 5258 H 490.217 0.0487409 0.674241 0
M  V30 5259 H 492.771 0.786915 1.89728 0
M  V30 5260 H 491.001 -0.982299 3.74016 0
M  V30 5261 H 492.69 -0.658032 4.00531 0
M  V30 5262 H 493.456 1.77265 4.51444 0
M  V30 5263 H 489.335 0.54805 4.57731 0
M  V30 5264 H 492.879 3.74192 5.8875 0
M  V30 5265 H 488.776 2.50873 5.94755 0
M  V30 5266 H 489.544 4.32808 6.94708 0
M  V30 5267 N 492.207 -1.54576 0.307264 0
M  V30 5268 C 493.456 -1.99442 -0.300976 0
M  V30 5269 C 493.769 -1.19928 -1.5452 0
M  V30 5270 O 494.975 -1.55092 -2.22842 0
M  V30 5271 C 493.431 -3.55084 -0.586809 0
M  V30 5272 C 493.039 -4.43413 0.639438 0
M  V30 5273 C 494.783 -4.0846 -1.1559 0
M  V30 5274 C 492.69 -5.90499 0.326411 0
M  V30 5275 H 491.62 -0.744986 -0.116238 0
M  V30 5276 H 494.271 -1.787 0.416947 0
M  V30 5277 H 492.653 -3.71749 -1.36449 0
M  V30 5278 H 493.827 -4.38522 1.41545 0
M  V30 5279 H 492.142 -4.00842 1.1276 0
M  V30 5280 H 494.739 -5.15926 -1.40445 0
M  V30 5281 H 495.082 -3.59443 -2.10015 0
M  V30 5282 H 495.615 -3.95362 -0.439778 0
M  V30 5283 H 492.354 -6.43676 1.23939 0
M  V30 5284 H 491.874 -5.98382 -0.412212 0
M  V30 5285 H 493.553 -6.46962 -0.0697393 0
M  V30 5286 N 493.685 -0.035106 -1.57561 0
M  V30 5287 C 494.615 0.942993 -2.13612 0
M  V30 5288 C 495.596 1.33531 -1.05373 0
M  V30 5289 O 496.781 1.41287 -1.33235 0
M  V30 5290 C 493.911 2.22332 -2.66807 0
M  V30 5291 C 492.865 1.97156 -3.79886 0
M  V30 5292 C 492.191 3.31506 -4.19533 0
M  V30 5293 C 493.491 1.30596 -5.05709 0
M  V30 5294 H 495.185 0.476179 -2.95589 0
M  V30 5295 H 492.731 0.227602 -1.4219 0
M  V30 5296 H 494.684 2.91142 -3.04654 0
M  V30 5297 H 493.408 2.7119 -1.81999 0
M  V30 5298 H 492.067 1.30763 -3.42486 0
M  V30 5299 H 491.715 3.78134 -3.31698 0
M  V30 5300 H 491.415 3.15465 -4.95738 0
M  V30 5301 H 492.939 4.01574 -4.59968 0
M  V30 5302 H 494.353 1.89416 -5.41105 0
M  V30 5303 H 492.75 1.24934 -5.86951 0
M  V30 5304 H 493.82 0.279742 -4.84092 0
M  V30 5305 N 495.163 1.55791 0.238111 0
M  V30 5306 C 496.095 1.87513 1.31802 0
M  V30 5307 C 497.108 0.762053 1.43863 0
M  V30 5308 O 498.297 1.04024 1.45056 0
M  V30 5309 C 495.397 2.05402 2.69561 0
M  V30 5310 C 494.57 3.3632 2.79656 0
M  V30 5311 C 493.629 3.43844 3.98319 0
M  V30 5312 O 492.655 4.16994 3.87433 0
M  V30 5313 N 493.857 2.73777 5.11885 0
M  V30 5314 H 496.622 2.80734 1.04922 0
M  V30 5315 H 494.183 1.56135 0.428196 0
M  V30 5316 H 496.175 2.07769 3.47296 0
M  V30 5317 H 494.745 1.18884 2.89111 0
M  V30 5318 H 493.965 3.46195 1.88528 0
M  V30 5319 H 495.253 4.22594 2.83358 0
M  V30 5320 H 494.651 2.14094 5.23622 0
M  V30 5321 H 493.208 2.81825 5.87723 0
M  V30 5322 N 496.642 -0.504142 1.49319 0
M  V30 5323 C 498.058 -0.835039 1.36012 0
M  V30 5324 C 498.258 -1.97674 0.390808 0
M  V30 5325 O 497.314 -2.51867 -0.178655 0
M  V30 5326 C 498.627 -1.17821 2.76656 0
M  V30 5327 C 500.175 -1.2866 2.85334 0
M  V30 5328 C 500.65 -1.66307 4.26739 0
M  V30 5329 N 502.141 -1.73362 4.29534 0
M  V30 5330 C 502.876 -2.0393 5.35911 0
M  V30 5331 N 502.372 -2.32744 6.52535 0
M  V30 5332 N 504.165 -2.05155 5.23324 0
M  V30 5333 H 496.316 0.248764 2.10938 0
M  V30 5334 H 498.579 0.0486962 0.946748 0
M  V30 5335 H 498.285 -0.412682 3.4927 0
M  V30 5336 H 498.159 -2.12239 3.11825 0
M  V30 5337 H 500.546 -2.04285 2.1296 0
M  V30 5338 H 500.627 -0.323004 2.53752 0
M  V30 5339 H 500.271 -0.91234 4.99639 0
M  V30 5340 H 500.201 -2.63761 4.55782 0
M  V30 5341 H 502.692 -1.53268 3.45424 0
M  V30 5342 H 503.005 -2.55248 7.2943 0
M  V30 5343 H 501.35 -2.30207 6.55767 0
M  V30 5344 H 504.541 -1.82119 4.3122 0
M  V30 5345 H 504.714 -2.28644 6.06322 0
M  V30 5346 N 498.12 -1.38341 -0.754957 0
M  V30 5347 C 499.36 -1.35888 -1.52689 0
M  V30 5348 C 499.724 0.0513682 -1.91931 0
M  V30 5349 O 500.925 0.200761 -2.68049 0
M  V30 5350 C 499.196 -2.28666 -2.74676 0
M  V30 5351 S 500.755 -2.4422 -3.64558 0
M  V30 5352 H 497.573 -0.482165 -0.522531 0
M  V30 5353 H 500.175 -1.74253 -0.886358 0
M  V30 5354 H 498.879 -3.30023 -2.43953 0
M  V30 5355 H 498.41 -1.91445 -3.43675 0
M  V30 5356 H 500.425 -1.66525 -4.67423 0
M  V30 5357 N 499.598 0.982988 -1.23187 0
M  V30 5358 C 500.53 2.07729 -0.968572 0
M  V30 5359 C 501.543 1.62702 0.0564821 0
M  V30 5360 O 502.732 1.77603 -0.178733 0
M  V30 5361 C 499.832 3.36071 -0.436974 0
M  V30 5362 C 499.005 4.10081 -1.52159 0
M  V30 5363 C 498.064 5.16701 -0.99532 0
M  V30 5364 O 497.09 5.43727 -1.68373 0
M  V30 5365 N 498.292 5.80226 0.178192 0
M  V30 5366 H 501.057 2.30894 -1.9107 0
M  V30 5367 H 498.618 1.14949 -1.1401 0
M  V30 5368 H 500.61 4.04639 -0.0700051 0
M  V30 5369 H 499.18 3.09893 0.410509 0
M  V30 5370 H 498.4 3.36004 -2.06144 0
M  V30 5371 H 499.688 4.56295 -2.25105 0
M  V30 5372 H 499.086 5.60651 0.754096 0
M  V30 5373 H 497.643 6.49982 0.486449 0
M  V30 5374 N 501.076 1.04316 1.18135 0
M  V30 5375 C 502.006 0.657299 2.24058 0
M  V30 5376 C 502.987 -0.340678 1.66654 0
M  V30 5377 O 504.172 -0.220223 1.92947 0
M  V30 5378 C 501.302 0.0220715 3.47293 0
M  V30 5379 C 500.256 0.943857 4.17463 0
M  V30 5380 C 499.582 0.172973 5.3442 0
M  V30 5381 C 500.882 2.26409 4.70677 0
M  V30 5382 H 502.576 1.5428 2.56589 0
M  V30 5383 H 500.122 0.743263 1.23335 0
M  V30 5384 H 502.075 -0.259607 4.206 0
M  V30 5385 H 500.799 -0.898323 3.14003 0
M  V30 5386 H 499.458 1.20996 3.46057 0
M  V30 5387 H 499.106 -0.749907 4.97379 0
M  V30 5388 H 498.806 0.787098 5.82304 0
M  V30 5389 H 500.33 -0.101628 6.10515 0
M  V30 5390 H 501.744 2.04294 5.35665 0
M  V30 5391 H 500.141 2.8314 5.29105 0
M  V30 5392 H 501.211 2.90883 3.87962 0
M  V30 5393 N 502.554 -1.34406 0.822964 0
M  V30 5394 C 503.517 -2.2783 0.250271 0
M  V30 5395 C 504.517 -1.50288 -0.571854 0
M  V30 5396 O 505.707 -1.69825 -0.387952 0
M  V30 5397 C 502.839 -3.34663 -0.649137 0
M  V30 5398 H 504.032 -2.79992 1.07444 0
M  V30 5399 H 501.585 -1.44539 0.594829 0
M  V30 5400 H 502.32 -2.87714 -1.49637 0
M  V30 5401 H 502.105 -3.92052 -0.0611199 0
M  V30 5402 H 503.595 -4.04349 -1.04363 0
M  V30 5403 N 504.032 -0.577932 -1.46621 0
M  V30 5404 C 504.962 0.145917 -2.33044 0
M  V30 5405 C 505.943 0.888412 -1.45056 0
M  V30 5406 O 507.128 0.864812 -1.73881 0
M  V30 5407 C 504.258 1.16322 -3.27241 0
M  V30 5408 C 503.212 0.535868 -4.24632 0
M  V30 5409 C 502.538 1.65929 -5.08303 0
M  V30 5410 C 503.838 -0.523861 -5.19666 0
M  V30 5411 H 505.532 -0.575636 -2.93814 0
M  V30 5412 H 503.078 -0.278272 -1.41286 0
M  V30 5413 H 505.031 1.67793 -3.86553 0
M  V30 5414 H 503.755 1.91498 -2.64567 0
M  V30 5415 H 502.414 0.0422759 -3.66576 0
M  V30 5416 H 502.062 2.40061 -4.42018 0
M  V30 5417 H 501.762 1.2452 -5.74255 0
M  V30 5418 H 503.286 2.17686 -5.70478 0
M  V30 5419 H 504.7 -0.0944059 -5.73222 0
M  V30 5420 H 503.097 -0.858 -5.93935 0
M  V30 5421 H 504.167 -1.41197 -4.63887 0
M  V30 5422 N 505.51 1.54411 -0.315457 0
M  V30 5423 C 506.442 2.21527 0.588067 0
M  V30 5424 C 507.455 1.21263 1.08624 0
M  V30 5425 O 508.644 1.47777 1.00121 0
M  V30 5426 C 505.744 2.85963 1.81875 0
M  V30 5427 C 504.917 4.12291 1.46063 0
M  V30 5428 C 503.976 4.60396 2.54799 0
M  V30 5429 O 503.002 5.25265 2.19283 0
M  V30 5430 N 504.204 4.33935 3.85591 0
M  V30 5431 H 506.969 2.99697 0.013414 0
M  V30 5432 H 504.53 1.61308 -0.138295 0
M  V30 5433 H 506.522 3.15071 2.53993 0
M  V30 5434 H 505.092 2.11548 2.30144 0
M  V30 5435 H 504.312 3.90036 0.571445 0
M  V30 5436 H 505.6 4.9452 1.19695 0
M  V30 5437 H 504.998 3.81996 4.17248 0
M  V30 5438 H 503.555 4.67718 4.53964 0
M  V30 5439 N 506.988 0.0434614 1.5754 0
M  V30 5440 C 507.936 -0.951465 2.1225 0
M  V30 5441 C 508.93 -1.3274 1.05245 0
M  V30 5442 O 510.136 -1.30795 1.23663 0
M  V30 5443 H 506.511 -0.324667 0.678303 0
M  V30 5444 H 508.482 -0.464855 2.94757 0
M  V30 5445 C 507.231 -2.21972 2.67626 0
M  V30 5446 H 506.554 -1.93923 3.4962 0
M  V30 5447 H 507.994 -2.89765 3.09536 0
M  V30 5448 C 506.453 -2.95919 1.61038 0
M  V30 5449 O 506.983 -3.8857 1.01862 0
M  V30 5450 N 505.189 -2.58511 1.32741 0
M  V30 5451 H 504.736 -1.83244 1.81051 0
M  V30 5452 H 504.694 -3.08296 0.616531 0
M  V30 5453 N 508.466 -1.55915 -0.229846 0
M  V30 5454 C 509.712 -1.78807 -0.956868 0
M  V30 5455 C 510.045 -0.611687 -1.84315 0
M  V30 5456 O 509.32 0.389398 -1.90562 0
M  V30 5457 C 509.603 -3.11718 -1.80288 0
M  V30 5458 C 509.456 -4.3979 -0.943649 0
M  V30 5459 C 510.775 -3.40999 -2.78222 0
M  V30 5460 H 507.894 -0.6505 -0.346437 0
M  V30 5461 H 510.536 -1.88648 -0.226252 0
M  V30 5462 H 508.686 -3.03459 -2.42579 0
M  V30 5463 H 510.358 -4.60059 -0.338121 0
M  V30 5464 H 508.601 -4.33086 -0.248705 0
M  V30 5465 H 509.272 -5.29208 -1.5698 0
M  V30 5466 H 511.748 -3.49332 -2.26067 0
M  V30 5467 H 510.624 -4.35183 -3.34526 0
M  V30 5468 H 510.885 -2.62754 -3.55546 0
M  V30 5469 N 509.944 0.496216 -1.49584 0
M  V30 5470 C 511.184 1.26015 -1.60933 0
M  V30 5471 C 511.548 1.89772 -0.291646 0
M  V30 5472 O 512.749 2.67334 -0.280357 0
M  V30 5473 C 511.02 2.29506 -2.73974 0
M  V30 5474 S 512.579 3.15175 -3.05303 0
M  V30 5475 H 509.397 0.428194 -0.567601 0
M  V30 5476 H 511.999 0.561484 -1.87263 0
M  V30 5477 H 510.703 1.81205 -3.68229 0
M  V30 5478 H 510.234 3.04036 -2.49651 0
M  V30 5479 H 512.249 4.30244 -2.47193 0
M  V30 5480 N 511.423 1.38739 0.74761 0
M  V30 5481 C 512.7 1.25791 1.49786 0
M  V30 5482 C 513.08 -0.138075 2.10648 0
M  V30 5483 O 512.428 -1.14815 1.9756 0
M  V30 5484 C 512.638 2.37265 2.55942 0
M  V30 5485 C 513.986 2.75978 3.22679 0
M  V30 5486 O 515.01 2.36621 2.6625 0
M  V30 5487 O 513.869 3.43867 4.24756 0
M  V30 5488 H 510.963 0.492251 0.664543 0
M  V30 5489 H 513.509 1.50582 0.782511 0
M  V30 5490 H 512.281 3.30644 2.0926 0
M  V30 5491 H 511.904 2.14071 3.35051 0
M  V30 5492 N 512.901 -0.976442 1.23707 0
M  V30 5493 C 514.178 -1.69296 0.979699 0
M  V30 5494 C 514.558 -2.0508 -0.500555 0
M  V30 5495 O 513.906 -1.74708 -1.47273 0
M  V30 5496 C 514.116 -2.93143 1.89389 0
M  V30 5497 C 515.464 -3.65572 2.15968 0
M  V30 5498 O 516.488 -3.03184 1.86971 0
M  V30 5499 O 515.347 -4.77859 2.65167 0
M  V30 5500 H 512.441 -0.739708 0.369812 0
M  V30 5501 H 514.987 -1.03131 1.34767 0
M  V30 5502 H 513.759 -2.63327 2.89439 0
M  V30 5503 H 513.382 -3.67044 1.52854 0
M  V30 5504 N 514.379 -1.04941 -1.1758 0
M  V30 5505 C 515.625 -0.759112 -1.88057 0
M  V30 5506 C 515.958 0.711918 -1.8068 0
M  V30 5507 O 515.233 1.52035 -1.21308 0
M  V30 5508 C 515.516 -1.237 -3.38187 0
M  V30 5509 C 515.369 -2.77078 -3.54327 0
M  V30 5510 C 516.688 -0.834014 -4.32125 0
M  V30 5511 H 513.807 -0.277237 -0.682868 0
M  V30 5512 H 516.449 -1.30296 -1.38286 0
M  V30 5513 H 514.599 -0.774337 -3.80705 0
M  V30 5514 H 516.271 -3.31449 -3.20842 0
M  V30 5515 H 514.514 -3.16477 -2.96689 0
M  V30 5516 H 515.185 -3.05577 -4.59703 0
M  V30 5517 H 517.661 -1.23228 -3.97434 0
M  V30 5518 H 516.537 -1.19603 -5.35711 0
M  V30 5519 H 516.798 0.262195 -4.41322 0
M  V30 5520 N 515.857 1.33968 -0.830081 0
M  V30 5521 C 517.134 1.92554 -0.343858 0
M  V30 5522 C 517.514 1.7573 1.16971 0
M  V30 5523 O 516.862 1.14035 1.98011 0
M  V30 5524 C 517.072 3.40147 -0.781073 0
M  V30 5525 C 518.42 4.17299 -0.78402 0
M  V30 5526 O 519.444 3.48762 -0.724112 0
M  V30 5527 O 518.303 5.39631 -0.863739 0
M  V30 5528 H 515.397 0.821469 -0.0954827 0
M  V30 5529 H 517.943 1.42897 -0.915348 0
M  V30 5530 H 516.715 3.46225 -1.82329 0
M  V30 5531 H 516.338 3.97166 -0.18567 0
M  V30 5532 N 517.335 0.585699 1.46312 0
M  V30 5533 C 518.283 -0.158577 2.32059 0
M  V30 5534 C 519.277 -0.881427 1.44662 0
M  V30 5535 O 520.483 -0.799476 1.61271 0
M  V30 5536 H 516.858 -0.0700066 0.748734 0
M  V30 5537 H 518.829 0.583383 2.92642 0
M  V30 5538 C 517.578 -1.15701 3.27885 0
M  V30 5539 H 516.901 -0.610215 3.95116 0
M  V30 5540 H 518.341 -1.64812 3.90657 0
M  V30 5541 C 516.8 -2.21951 2.53455 0
M  V30 5542 O 517.33 -3.29352 2.29978 0
M  V30 5543 N 515.536 -1.9664 2.13965 0
M  V30 5544 H 515.083 -1.09309 2.33258 0
M  V30 5545 H 515.041 -2.6794 1.64485 0
M  V30 5546 N 518.813 -1.54241 0.323641 0
M  V30 5547 C 520.09 -1.92741 -0.333181 0
M  V30 5548 C 520.47 -1.25326 -1.69872 0
M  V30 5549 O 519.818 -0.396991 -2.25025 0
M  V30 5550 C 520.028 -3.46399 -0.425322 0
M  V30 5551 C 521.376 -4.19029 -0.68557 0
M  V30 5552 O 522.4 -3.52555 -0.50824 0
M  V30 5553 O 521.259 -5.36751 -1.02767 0
M  V30 5554 H 518.353 -0.804811 -0.190286 0
M  V30 5555 H 520.899 -1.65542 0.373361 0
M  V30 5556 H 519.671 -3.87643 0.533737 0
M  V30 5557 H 519.294 -3.79704 -1.17944 0
M  V30 5558 N 520.291 -0.0518155 -1.57515 0
M  V30 5559 C 521.568 0.661727 -1.84067 0
M  V30 5560 C 521.948 1.88999 -0.940351 0
M  V30 5561 O 521.296 2.285 -0.00155404 0
M  V30 5562 C 521.506 1.01841 -3.3381 0
M  V30 5563 C 522.854 1.40043 -4.00841 0
M  V30 5564 O 523.878 1.11073 -3.38439 0
M  V30 5565 O 522.737 1.94111 -5.10865 0
M  V30 5566 H 519.831 0.326702 -0.759733 0
M  V30 5567 H 522.377 -0.0812277 -1.69505 0
M  V30 5568 H 521.149 0.145202 -3.91031 0
M  V30 5569 H 520.772 1.81879 -3.53562 0
M  V30 5570 N 521.769 1.56035 0.221574 0
M  V30 5571 C 523.015 1.79312 0.947372 0
M  V30 5572 C 523.348 0.621453 1.83988 0
M  V30 5573 O 522.623 -0.379287 1.90766 0
M  V30 5574 C 522.906 3.1267 1.78633 0
M  V30 5575 C 522.759 4.40284 0.920312 0
M  V30 5576 C 524.078 3.4247 2.7641 0
M  V30 5577 H 521.197 0.652328 0.342982 0
M  V30 5578 H 523.839 1.88765 0.216244 0
M  V30 5579 H 521.989 3.04741 2.40967 0
M  V30 5580 H 523.661 4.60232 0.313718 0
M  V30 5581 H 521.904 4.33212 0.225734 0
M  V30 5582 H 522.575 5.30033 1.54171 0
M  V30 5583 H 525.051 3.50526 2.24211 0
M  V30 5584 H 523.927 4.3695 3.32213 0
M  V30 5585 H 524.188 2.64635 3.54148 0
M  V30 5586 N 523.247 -0.488276 1.49845 0
M  V30 5587 C 524.472 -1.26997 1.63971 0
M  V30 5588 C 524.897 -1.85427 0.315994 0
M  V30 5589 O 524.255 -1.66475 -0.718032 0
M  V30 5590 C 524.303 -2.36689 2.72049 0
M  V30 5591 O 523.407 -3.40882 2.32107 0
M  V30 5592 H 522.748 -0.374376 0.548396 0
M  V30 5593 H 525.278 -0.583104 1.96115 0
M  V30 5594 H 525.288 -2.82262 2.94605 0
M  V30 5595 H 523.963 -1.93529 3.68129 0
M  V30 5596 H 522.54 -3.01139 2.19931 0
M  V30 5597 N 524.725 -1.39134 -0.740242 0
M  V30 5598 C 525.655 -1.40165 -1.86751 0
M  V30 5599 C 526.636 -0.265708 -1.68012 0
M  V30 5600 O 527.821 -0.47076 -1.88408 0
M  V30 5601 C 524.951 -1.2392 -3.2444 0
M  V30 5602 C 523.905 -2.34858 -3.57807 0
M  V30 5603 C 523.231 -2.03707 -4.94376 0
M  V30 5604 C 524.531 -3.77159 -3.61315 0
M  V30 5605 H 526.225 -2.345 -1.86145 0
M  V30 5606 H 523.771 -1.12875 -0.89416 0
M  V30 5607 H 525.724 -1.23263 -4.02969 0
M  V30 5608 H 524.448 -0.26051 -3.25559 0
M  V30 5609 H 523.107 -2.34723 -2.81604 0
M  V30 5610 H 522.755 -1.04289 -4.9207 0
M  V30 5611 H 522.455 -2.78016 -5.17669 0
M  V30 5612 H 523.979 -2.04691 -5.75268 0
M  V30 5613 H 525.393 -3.79252 -4.29931 0
M  V30 5614 H 523.79 -4.50784 -3.96124 0
M  V30 5615 H 524.86 -4.08513 -2.61238 0
M  V30 5616 N 526.204 0.969867 -1.24223 0
M  V30 5617 C 527.151 2.06407 -1.0327 0
M  V30 5618 C 528.121 1.66014 0.0533 0
M  V30 5619 O 529.306 1.90533 -0.100896 0
M  V30 5620 C 526.446 3.3909 -0.641262 0
M  V30 5621 C 525.559 3.9269 -1.80051 0
M  V30 5622 C 524.694 5.13631 -1.35486 0
M  V30 5623 C 523.733 5.59423 -2.48419 0
M  V30 5624 N 522.87 6.71586 -2.04737 0
M  V30 5625 H 527.71 2.23663 -1.96923 0
M  V30 5626 H 525.247 1.09624 -0.980862 0
M  V30 5627 H 527.205 4.15323 -0.395351 0
M  V30 5628 H 525.835 3.21765 0.258269 0
M  V30 5629 H 524.887 3.13116 -2.16014 0
M  V30 5630 H 526.199 4.22636 -2.64916 0
M  V30 5631 H 525.353 5.97231 -1.0677 0
M  V30 5632 H 524.092 4.85364 -0.476722 0
M  V30 5633 H 523.097 4.74398 -2.77897 0
M  V30 5634 H 524.322 5.89705 -3.36786 0
M  V30 5635 H 522.268 6.45058 -1.19318 0
M  V30 5636 H 522.185 7.0097 -2.83156 0
M  V30 5637 H 523.453 7.58633 -1.79154 0
M  V30 5638 N 527.682 1.05563 1.17022 0
M  V30 5639 C 528.907 0.788437 1.91829 0
M  V30 5640 C 529.332 -0.650356 1.76499 0
M  V30 5641 O 528.69 -1.45229 1.08527 0
M  V30 5642 C 528.738 1.1786 3.40795 0
M  V30 5643 O 527.842 0.312965 4.11211 0
M  V30 5644 H 527.183 0.288794 0.597908 0
M  V30 5645 H 529.713 1.40948 1.48307 0
M  V30 5646 H 529.723 1.14697 3.91546 0
M  V30 5647 H 528.398 2.22666 3.51273 0
M  V30 5648 H 526.975 0.405515 3.70689 0
M  V30 5649 N 529.16 -1.33526 0.837174 0
M  V30 5650 C 530.407 -1.97837 0.432064 0
M  V30 5651 C 530.735 -1.66324 -1.00829 0
M  V30 5652 O 529.99 -0.93448 -1.71948 0
M  V30 5653 C 530.289 -3.52367 0.597675 0
M  V30 5654 C 529.955 -4.03826 2.00587 0
M  V30 5655 C 528.617 -4.1759 2.39106 0
M  V30 5656 C 530.969 -4.31333 2.92576 0
M  V30 5657 C 528.297 -4.56195 3.68921 0
M  V30 5658 C 530.649 -4.7139 4.2187 0
M  V30 5659 C 529.313 -4.8336 4.60347 0
M  V30 5660 H 528.583 -0.723937 0.158104 0
M  V30 5661 H 531.23 -1.5923 1.06387 0
M  V30 5662 H 529.535 -3.91624 -0.117452 0
M  V30 5663 H 531.232 -4.00126 0.26454 0
M  V30 5664 H 527.822 -3.93586 1.69671 0
M  V30 5665 H 532.006 -4.20224 2.64056 0
M  V30 5666 H 527.262 -4.63655 3.9854 0
M  V30 5667 H 531.436 -4.91631 4.93226 0
M  V30 5668 H 529.063 -5.1303 5.60985 0
M  V30 5669 N 530.638 -0.59345 -1.46 0
M  V30 5670 C 531.548 0.135817 -2.34207 0
M  V30 5671 C 532.564 0.875008 -1.50398 0
M  V30 5672 O 533.74 0.835778 -1.83239 0
M  V30 5673 C 530.805 1.12977 -3.27776 0
M  V30 5674 C 529.866 0.394081 -4.27487 0
M  V30 5675 C 529.099 1.34068 -5.16586 0
M  V30 5676 O 529.322 2.5778 -5.08828 0
M  V30 5677 O 528.256 0.845426 -5.95933 0
M  V30 5678 H 532.082 -0.588691 -2.9794 0
M  V30 5679 H 529.667 -0.353784 -1.45151 0
M  V30 5680 H 531.549 1.70261 -3.85473 0
M  V30 5681 H 530.224 1.83556 -2.66625 0
M  V30 5682 H 529.131 -0.220869 -3.73447 0
M  V30 5683 H 530.464 -0.270939 -4.91454 0
M  V30 5684 N 532.116 1.54067 -0.331816 0
M  V30 5685 C 533.527 1.86059 0.15454 0
M  V30 5686 C 533.878 1.25331 1.50952 0
M  V30 5687 O 533.003 0.562441 2.08963 0
M  V30 5688 C 533.598 3.37581 0.287192 0
M  V30 5689 C 532.157 3.69493 0.717773 0
M  V30 5690 C 531.304 2.76863 -0.155569 0
M  V30 5691 H 534.255 1.48797 -0.55182 0
M  V30 5692 H 534.276 3.63744 1.11671 0
M  V30 5693 H 533.788 3.81751 -0.699131 0
M  V30 5694 H 531.889 3.3086 1.71354 0
M  V30 5695 H 532.002 4.76315 0.5158 0
M  V30 5696 H 530.366 2.51995 0.370213 0
M  V30 5697 H 531.149 3.23861 -1.13881 0
M  V30 5698 N 533.594 0.0601682 1.57485 0
M  V30 5699 C 534.557 -0.896373 2.10945 0
M  V30 5700 C 535.557 -1.23402 1.03095 0
M  V30 5701 O 536.747 -1.16921 1.29132 0
M  V30 5702 C 533.879 -2.20346 2.60116 0
M  V30 5703 H 535.072 -0.432778 2.96761 0
M  V30 5704 H 532.625 -0.188372 1.55161 0
M  V30 5705 H 533.36 -2.71268 1.7772 0
M  V30 5706 H 533.145 -1.9714 3.38937 0
M  V30 5707 H 534.635 -2.88846 3.01592 0
M  V30 5708 N 535.072 -1.5615 -0.213296 0
M  V30 5709 C 536.318 -1.79812 -0.937849 0
M  V30 5710 C 536.651 -0.631201 -1.83656 0
M  V30 5711 O 535.926 0.369165 -1.90964 0
M  V30 5712 C 536.209 -3.13613 -1.76972 0
M  V30 5713 C 536.062 -4.40766 -0.89695 0
M  V30 5714 C 537.381 -3.43931 -2.7459 0
M  V30 5715 H 534.5 -0.654138 -0.339518 0
M  V30 5716 H 537.142 -1.88877 -0.20623 0
M  V30 5717 H 535.292 -3.06015 -2.39347 0
M  V30 5718 H 536.964 -4.60392 -0.289306 0
M  V30 5719 H 535.207 -4.33326 -0.202756 0
M  V30 5720 H 535.878 -5.30843 -1.51358 0
M  V30 5721 H 538.354 -3.5171 -2.22349 0
M  V30 5722 H 537.23 -4.38706 -3.29891 0
M  V30 5723 H 537.491 -2.6651 -3.52739 0
M  V30 5724 N 536.55 0.480323 -1.50102 0
M  V30 5725 C 537.48 1.58769 -1.71215 0
M  V30 5726 C 538.461 1.60583 -0.560997 0
M  V30 5727 O 539.646 1.76996 -0.799127 0
M  V30 5728 C 536.776 2.97148 -1.79778 0
M  V30 5729 C 535.73 3.10201 -2.94888 0
M  V30 5730 C 535.056 4.50137 -2.88584 0
M  V30 5731 C 536.356 2.88283 -4.35534 0
M  V30 5732 H 538.05 1.41354 -2.6393 0
M  V30 5733 H 535.596 0.678591 -1.27008 0
M  V30 5734 H 537.549 3.74536 -1.93133 0
M  V30 5735 H 536.273 3.15699 -0.836772 0
M  V30 5736 H 534.932 2.35244 -2.81169 0
M  V30 5737 H 534.58 4.65593 -1.90349 0
M  V30 5738 H 534.28 4.59808 -3.65856 0
M  V30 5739 H 535.804 5.29558 -3.03976 0
M  V30 5740 H 537.218 3.55427 -4.49827 0
M  V30 5741 H 535.615 3.09408 -5.14186 0
M  V30 5742 H 536.685 1.84219 -4.48544 0
M  V30 5743 N 538.028 1.39524 0.732853 0
M  V30 5744 C 538.975 1.38416 1.84688 0
M  V30 5745 C 539.945 0.243539 1.64305 0
M  V30 5746 O 541.13 0.438979 1.85681 0
M  V30 5747 C 538.27 1.23555 3.22224 0
M  V30 5748 C 537.383 2.47179 3.54298 0
M  V30 5749 C 536.518 2.2489 4.81246 0
M  V30 5750 C 535.557 3.44178 5.0617 0
M  V30 5751 N 534.694 3.21192 6.24323 0
M  V30 5752 H 539.534 2.33645 1.84971 0
M  V30 5753 H 537.071 1.16059 0.903804 0
M  V30 5754 H 539.029 1.12949 4.0162 0
M  V30 5755 H 537.659 0.31954 3.21215 0
M  V30 5756 H 536.711 2.68379 2.69587 0
M  V30 5757 H 538.023 3.36022 3.68633 0
M  V30 5758 H 537.177 2.11538 5.68627 0
M  V30 5759 H 535.916 1.33443 4.69089 0
M  V30 5760 H 534.921 3.58025 4.17251 0
M  V30 5761 H 536.146 4.36528 5.20212 0
M  V30 5762 H 534.092 2.32413 6.1345 0
M  V30 5763 H 534.009 4.03594 6.39256 0
M  V30 5764 H 535.277 3.1154 7.14537 0
M  V30 5765 N 539.506 -0.963266 1.24736 0
M  V30 5766 C 540.438 -2.06162 1.0015 0
M  V30 5767 C 541.451 -1.62771 -0.0305905 0
M  V30 5768 O 542.64 -1.77296 0.206966 0
M  V30 5769 C 539.74 -3.35333 0.490385 0
M  V30 5770 C 538.913 -4.07609 1.58663 0
M  V30 5771 C 537.972 -5.15052 1.0774 0
M  V30 5772 O 536.998 -5.4098 1.77002 0
M  V30 5773 N 538.2 -5.80436 -0.0858605 0
M  V30 5774 H 540.965 -2.27825 1.94719 0
M  V30 5775 H 538.526 -1.13121 1.15825 0
M  V30 5776 H 540.518 -4.04477 0.134371 0
M  V30 5777 H 539.088 -3.10507 -0.361155 0
M  V30 5778 H 538.308 -3.32681 2.11463 0
M  V30 5779 H 539.596 -4.52656 2.32336 0
M  V30 5780 H 538.994 -5.6178 -0.664806 0
M  V30 5781 H 537.551 -6.50674 -0.382981 0
M  V30 5782 N 540.985 -1.06182 -1.16461 0
M  V30 5783 C 542.233 -0.776326 -1.86595 0
M  V30 5784 C 542.554 0.69921 -1.82033 0
M  V30 5785 O 541.824 1.50579 -1.2531 0
M  V30 5786 H 540.404 -0.284184 -0.690832 0
M  V30 5787 H 543.066 -1.34308 -1.41235 0
M  V30 5788 H 542.162 -1.10022 -2.92064 0
M  V30 5789 N 542.463 1.3308 -0.844243 0
M  V30 5790 C 543.373 2.32876 -0.283922 0
M  V30 5791 C 544.389 1.63589 0.592846 0
M  V30 5792 O 545.565 1.95205 0.495693 0
M  V30 5793 C 542.63 3.42667 0.527283 0
M  V30 5794 C 541.691 4.27664 -0.374394 0
M  V30 5795 C 540.924 5.32212 0.39819 0
M  V30 5796 O 541.147 5.46635 1.62932 0
M  V30 5797 O 540.081 6.01458 -0.2306 0
M  V30 5798 H 543.907 2.82671 -1.11045 0
M  V30 5799 H 541.492 1.36518 -0.606903 0
M  V30 5800 H 543.374 4.09652 0.988078 0
M  V30 5801 H 542.049 2.95079 1.33078 0
M  V30 5802 H 540.956 3.63526 -0.883144 0
M  V30 5803 H 542.289 4.78749 -1.1428 0
M  V30 5804 N 543.941 0.601185 1.45683 0
M  V30 5805 C 544.851 -0.123395 2.34275 0
M  V30 5806 C 545.867 -0.86702 1.5086 0
M  V30 5807 O 547.043 -0.826049 1.8368 0
M  V30 5808 C 544.108 -1.11237 3.2837 0
M  V30 5809 C 543.169 -0.371405 4.2769 0
M  V30 5810 C 542.402 -1.31327 5.1729 0
M  V30 5811 O 542.625 -2.55078 5.10188 0
M  V30 5812 O 541.559 -0.813811 5.96373 0
M  V30 5813 H 545.385 0.604483 2.97623 0
M  V30 5814 H 542.97 0.361477 1.44961 0
M  V30 5815 H 544.852 -1.68214 3.8637 0
M  V30 5816 H 543.527 -1.82139 2.67595 0
M  V30 5817 H 542.434 0.24067 3.73325 0
M  V30 5818 H 543.767 0.296998 4.91303 0
M  V30 5819 N 545.419 -1.53889 0.339982 0
M  V30 5820 C 546.668 -2.00035 -0.258604 0
M  V30 5821 C 546.981 -1.23179 -1.51942 0
M  V30 5822 O 548.187 -1.59784 -2.19503 0
M  V30 5823 C 546.643 -3.56249 -0.511359 0
M  V30 5824 C 546.251 -4.41957 0.733349 0
M  V30 5825 C 547.995 -4.1082 -1.069 0
M  V30 5826 C 545.902 -5.89673 0.451591 0
M  V30 5827 H 544.832 -0.747284 -0.10041 0
M  V30 5828 H 547.483 -1.77776 0.454758 0
M  V30 5829 H 545.865 -3.7456 -1.28533 0
M  V30 5830 H 547.039 -4.35421 1.50815 0
M  V30 5831 H 545.354 -3.9836 1.21237 0
M  V30 5832 H 547.951 -5.18789 -1.2947 0
M  V30 5833 H 548.294 -3.63817 -2.02343 0
M  V30 5834 H 548.827 -3.96205 -0.355817 0
M  V30 5835 H 545.566 -6.40903 1.37565 0
M  V30 5836 H 545.086 -5.99122 -0.285193 0
M  V30 5837 H 546.765 -6.46965 0.0675067 0
M  V30 5838 N 546.897 -0.0685191 -1.57451 0
M  V30 5839 C 547.847 0.909895 -2.09057 0
M  V30 5840 C 548.831 1.26088 -0.999528 0
M  V30 5841 O 550.023 1.24041 -1.26265 0
M  V30 5842 C 547.152 2.17863 -2.65312 0
M  V30 5843 C 546.238 1.85427 -3.81415 0
M  V30 5844 N 546.629 1.23426 -4.9051 0
M  V30 5845 C 544.927 2.15196 -3.90649 0
M  V30 5846 C 545.628 1.09008 -5.71395 0
M  V30 5847 N 544.604 1.59871 -5.1956 0
M  V30 5848 H 548.406 0.426145 -2.90794 0
M  V30 5849 H 545.92 0.135462 -1.61834 0
M  V30 5850 H 547.917 2.88872 -3.00597 0
M  V30 5851 H 546.577 2.66829 -1.85021 0
M  V30 5852 H 547.588 0.904305 -5.09944 0
M  V30 5853 H 544.265 2.66562 -3.21327 0
M  V30 5854 H 545.655 0.607305 -6.6915 0
M  V30 5855 N 548.375 1.56261 0.205012 0
M  V30 5856 C 549.323 1.94631 1.27364 0
M  V30 5857 C 550.317 0.830434 1.47649 0
M  V30 5858 O 551.523 1.01538 1.48627 0
M  V30 5859 H 547.898 0.618755 0.427371 0
M  V30 5860 H 549.869 2.83768 0.922941 0
M  V30 5861 C 548.618 2.29358 2.61324 0
M  V30 5862 H 547.941 3.14744 2.46528 0
M  V30 5863 H 549.381 2.60076 3.34868 0
M  V30 5864 C 547.84 1.12461 3.17575 0
M  V30 5865 O 548.37 0.394407 3.99759 0
M  V30 5866 N 546.576 0.904036 2.7618 0
M  V30 5867 H 546.123 1.49956 2.09454 0
M  V30 5868 H 546.081 0.123662 3.14157 0
M  V30 5869 N 549.853 -0.472356 1.50355 0
M  V30 5870 C 550.763 -1.59637 1.7191 0
M  V30 5871 C 551.779 -1.63247 0.602195 0
M  V30 5872 O 552.955 -1.81139 0.880369 0
M  V30 5873 C 550.02 -2.9586 1.80742 0
M  V30 5874 C 549.081 -3.02649 3.04471 0
M  V30 5875 C 548.314 -4.32374 3.12872 0
M  V30 5876 O 548.537 -5.22807 2.28099 0
M  V30 5877 O 547.471 -4.44728 4.05587 0
M  V30 5878 H 551.297 -1.44373 2.67189 0
M  V30 5879 H 548.882 -0.651717 1.34436 0
M  V30 5880 H 550.764 -3.7677 1.88739 0
M  V30 5881 H 549.439 -3.11325 0.88647 0
M  V30 5882 H 548.346 -2.20821 3.01975 0
M  V30 5883 H 549.679 -2.92119 3.9614 0
M  V30 5884 N 551.331 -1.39911 -0.725443 0
M  V30 5885 C 552.577 -1.37858 -1.48738 0
M  V30 5886 C 552.91 0.0224187 -1.94187 0
M  V30 5887 O 552.185 0.989204 -1.67466 0
M  V30 5888 C 552.468 -2.3594 -2.72038 0
M  V30 5889 C 552.321 -3.85023 -2.32546 0
M  V30 5890 C 553.64 -2.31704 -3.74167 0
M  V30 5891 H 550.759 -0.502074 -0.539528 0
M  V30 5892 H 553.401 -1.70974 -0.828728 0
M  V30 5893 H 551.551 -2.0783 -3.28236 0
M  V30 5894 H 553.223 -4.2392 -1.81905 0
M  V30 5895 H 551.466 -4.01334 -1.64661 0
M  V30 5896 H 552.137 -4.49152 -3.20884 0
M  V30 5897 H 554.613 -2.5658 -3.27576 0
M  V30 5898 H 553.489 -3.02395 -4.58092 0
M  V30 5899 H 553.75 -1.3253 -4.21768 0
M  V30 5900 N 552.809 0.956637 -1.25245 0
M  V30 5901 C 553.719 2.0868 -1.0719 0
M  V30 5902 C 554.735 1.73997 -0.00959074 0
M  V30 5903 O 555.911 2.00301 -0.210104 0
M  V30 5904 C 552.976 3.39754 -0.690526 0
M  V30 5905 C 552.037 3.88316 -1.83055 0
M  V30 5906 C 551.27 5.13134 -1.46728 0
M  V30 5907 O 551.493 5.6925 -0.362029 0
M  V30 5908 O 550.427 5.56356 -2.29677 0
M  V30 5909 H 554.253 2.26813 -2.01965 0
M  V30 5910 H 551.838 1.07098 -1.04165 0
M  V30 5911 H 553.72 4.18543 -0.489871 0
M  V30 5912 H 552.395 3.22896 0.227981 0
M  V30 5913 H 551.302 3.1054 -2.08604 0
M  V30 5914 H 552.635 4.09669 -2.72822 0
M  V30 5915 N 554.287 1.06798 1.15896 0
M  V30 5916 C 555.534 0.787767 1.86549 0
M  V30 5917 C 555.862 -0.685959 1.82002 0
M  V30 5918 O 555.117 -1.5188 1.23414 0
M  V30 5919 C 555.416 1.23414 3.35416 0
M  V30 5920 C 555.082 2.71285 3.6016 0
M  V30 5921 C 553.744 3.11676 3.66622 0
M  V30 5922 C 556.096 3.6676 3.7032 0
M  V30 5923 C 553.424 4.4637 3.8075 0
M  V30 5924 C 555.776 5.01209 3.8597 0
M  V30 5925 C 554.44 5.41229 3.90676 0
M  V30 5926 H 553.71 0.288264 0.682631 0
M  V30 5927 H 556.357 1.338 1.37003 0
M  V30 5928 H 554.662 0.60319 3.87129 0
M  V30 5929 H 556.359 0.994298 3.88477 0
M  V30 5930 H 552.949 2.39015 3.55767 0
M  V30 5931 H 557.133 3.36685 3.64633 0
M  V30 5932 H 552.389 4.76855 3.82648 0
M  V30 5933 H 556.563 5.75067 3.92773 0
M  V30 5934 H 554.19 6.45602 4.01375 0
M  V30 5935 N 555.766 -1.3263 0.851289 0
M  V30 5936 C 556.676 -2.32722 0.296268 0
M  V30 5937 C 557.692 -1.63901 -0.584162 0
M  V30 5938 O 558.868 -1.95465 -0.485334 0
M  V30 5939 C 555.933 -3.42942 -0.509103 0
M  V30 5940 C 554.994 -4.2746 0.397069 0
M  V30 5941 C 554.227 -5.32416 -0.36996 0
M  V30 5942 O 554.45 -5.47491 -1.6003 0
M  V30 5943 O 553.384 -6.01327 0.262493 0
M  V30 5944 H 557.21 -2.82078 1.12543 0
M  V30 5945 H 554.795 -1.36194 0.614135 0
M  V30 5946 H 556.677 -4.1017 -0.96634 0
M  V30 5947 H 555.352 -2.95781 -1.31512 0
M  V30 5948 H 554.259 -3.63053 0.902411 0
M  V30 5949 H 555.592 -4.78136 1.16818 0
M  V30 5950 N 557.244 -0.608902 -1.45362 0
M  V30 5951 C 558.49 -0.113196 -2.03085 0
M  V30 5952 C 558.845 1.24288 -1.46868 0
M  V30 5953 O 558.138 1.80792 -0.634402 0
M  V30 5954 C 558.332 -0.0167296 -3.57396 0
M  V30 5955 C 558.161 -1.36191 -4.28581 0
M  V30 5956 C 556.931 -1.94295 -4.66452 0
M  V30 5957 C 559.129 -2.29097 -4.60455 0
M  V30 5958 N 557.111 -3.2228 -5.22503 0
M  V30 5959 C 558.482 -3.41681 -5.17353 0
M  V30 5960 C 560.537 -2.28453 -4.42395 0
M  V30 5961 C 559.24 -4.53789 -5.58093 0
M  V30 5962 C 561.266 -3.39608 -4.8417 0
M  V30 5963 C 560.628 -4.50915 -5.41161 0
M  V30 5964 H 556.727 -0.0848213 -0.777386 0
M  V30 5965 H 559.311 -0.807541 -1.77163 0
M  V30 5966 H 557.482 0.646839 -3.82976 0
M  V30 5967 H 559.214 0.485757 -4.01774 0
M  V30 5968 H 555.969 -1.47486 -4.5005 0
M  V30 5969 H 556.393 -3.87654 -5.55025 0
M  V30 5970 H 561.035 -1.43658 -3.97646 0
M  V30 5971 H 558.753 -5.39307 -6.01808 0
M  V30 5972 H 562.339 -3.40259 -4.71927 0
M  V30 5973 H 561.219 -5.35505 -5.72891 0
M  V30 5974 N 558.722 1.53707 -0.348139 0
M  V30 5975 C 559.652 2.28111 0.498766 0
M  V30 5976 C 560.633 1.29851 1.09876 0
M  V30 5977 O 561.818 1.587 1.11928 0
M  V30 5978 C 558.948 3.05735 1.64753 0
M  V30 5979 C 557.902 4.11537 1.17565 0
M  V30 5980 C 557.228 4.77142 2.4133 0
M  V30 5981 C 558.528 5.21587 0.272844 0
M  V30 5982 H 560.222 2.99152 -0.121934 0
M  V30 5983 H 557.768 1.43875 -0.0600842 0
M  V30 5984 H 559.721 3.56526 2.24649 0
M  V30 5985 H 558.445 2.32354 2.2952 0
M  V30 5986 H 557.104 3.61665 0.599483 0
M  V30 5987 H 556.752 4.0035 3.04514 0
M  V30 5988 H 556.452 5.48626 2.10436 0
M  V30 5989 H 557.976 5.30719 3.01943 0
M  V30 5990 H 559.39 5.67986 0.778779 0
M  V30 5991 H 557.787 6.00074 0.0555849 0
M  V30 5992 H 558.857 4.79969 -0.689785 0
M  V30 5993 N 560.2 0.0768682 1.57412 0
M  V30 5994 C 561.616 -0.279772 1.57129 0
M  V30 5995 C 561.816 -1.69688 1.08666 0
M  V30 5996 O 560.872 -2.40953 0.754843 0
M  V30 5997 C 562.185 -0.0848055 3.0058 0
M  V30 5998 C 563.733 -0.153954 3.12621 0
M  V30 5999 C 564.208 0.0127946 4.57998 0
M  V30 6000 N 565.699 -0.0426435 4.6318 0
M  V30 6001 C 566.434 0.0618892 5.73367 0
M  V30 6002 N 565.93 0.220229 6.9245 0
M  V30 6003 N 567.723 0.00446072 5.621 0
M  V30 6004 H 559.874 1.00297 1.87228 0
M  V30 6005 H 562.137 0.391565 0.863354 0
M  V30 6006 H 561.843 0.89325 3.40168 0
M  V30 6007 H 561.717 -0.834961 3.67843 0
M  V30 6008 H 564.104 -1.1225 2.72917 0
M  V30 6009 H 564.185 0.627389 2.47987 0
M  V30 6010 H 563.829 0.978128 4.98392 0
M  V30 6011 H 563.759 -0.788016 5.20671 0
M  V30 6012 H 566.25 -0.163226 3.77547 0
M  V30 6013 H 566.563 0.291999 7.72248 0
M  V30 6014 H 564.908 0.255658 6.9453 0
M  V30 6015 H 568.099 -0.117979 4.67951 0
M  V30 6016 H 568.272 0.0893796 6.47938 0
M  V30 6017 N 561.678 -1.56367 -0.196722 0
M  V30 6018 C 562.61 -1.90941 -1.26784 0
M  V30 6019 C 563.623 -0.799928 -1.41792 0
M  V30 6020 O 564.812 -1.07833 -1.42247 0
M  V30 6021 C 561.912 -2.12477 -2.6402 0
M  V30 6022 C 561.085 -3.43616 -2.70641 0
M  V30 6023 C 560.144 -3.54284 -3.89062 0
M  V30 6024 O 559.17 -4.2712 -3.76241 0
M  V30 6025 N 560.372 -2.87252 -5.04447 0
M  V30 6026 H 563.137 -2.83417 -0.974417 0
M  V30 6027 H 560.698 -1.57215 -0.386649 0
M  V30 6028 H 562.69 -2.16904 -3.41665 0
M  V30 6029 H 561.26 -1.26508 -2.85857 0
M  V30 6030 H 560.48 -3.51072 -1.79283 0
M  V30 6031 H 561.768 -4.29958 -2.72054 0
M  V30 6032 H 561.166 -2.27901 -5.17762 0
M  V30 6033 H 559.723 -2.97308 -5.80044 0
M  V30 6034 N 563.156 0.464375 -1.50603 0
M  V30 6035 C 564.403 1.21596 -1.61928 0
M  V30 6036 C 564.731 1.91804 -0.322737 0
M  V30 6037 O 563.986 1.83065 0.691776 0
M  V30 6038 C 564.285 2.278 -2.75394 0
M  V30 6039 C 563.951 1.74797 -4.1564 0
M  V30 6040 C 562.613 1.60063 -4.53799 0
M  V30 6041 C 564.965 1.35548 -5.03266 0
M  V30 6042 C 562.293 1.04514 -5.77316 0
M  V30 6043 C 564.645 0.814381 -6.27336 0
M  V30 6044 C 563.309 0.653726 -6.64291 0
M  V30 6045 H 562.579 0.444951 -0.592536 0
M  V30 6046 H 565.226 0.510964 -1.84557 0
M  V30 6047 H 563.531 3.04233 -2.46879 0
M  V30 6048 H 565.228 2.85723 -2.81359 0
M  V30 6049 H 561.818 1.87234 -3.8554 0
M  V30 6050 H 566.002 1.45763 -4.74412 0
M  V30 6051 H 561.258 0.908186 -6.04617 0
M  V30 6052 H 565.432 0.501626 -6.94591 0
M  V30 6053 H 563.059 0.22114 -7.59878 0
M  V30 6054 N 564.634 1.40294 0.718013 0
M  V30 6055 C 565.88 1.39648 1.47885 0
M  V30 6056 C 566.235 -0.0023879 1.924 0
M  V30 6057 O 565.528 -0.972304 1.65096 0
M  V30 6058 C 565.722 2.31814 2.72024 0
M  V30 6059 C 565.551 3.80523 2.3965 0
M  V30 6060 C 564.321 4.49351 2.3111 0
M  V30 6061 C 566.519 4.72077 2.04079 0
M  V30 6062 N 564.501 5.83305 1.91385 0
M  V30 6063 C 565.872 5.94809 1.74935 0
M  V30 6064 C 567.927 4.59935 1.90694 0
M  V30 6065 C 566.63 7.06755 1.33753 0
M  V30 6066 C 568.656 5.7182 1.50915 0
M  V30 6067 C 568.018 6.93637 1.22668 0
M  V30 6068 H 564.117 0.566263 0.539324 0
M  V30 6069 H 566.701 1.75986 0.832891 0
M  V30 6070 H 564.872 1.97607 3.34374 0
M  V30 6071 H 566.604 2.22042 3.38348 0
M  V30 6072 H 563.359 4.03002 2.4877 0
M  V30 6073 H 563.783 6.54239 1.74068 0
M  V30 6074 H 568.425 3.66274 2.11194 0
M  V30 6075 H 566.143 8.00302 1.11995 0
M  V30 6076 H 569.729 5.64421 1.4114 0
M  V30 6077 H 568.609 7.78743 0.923502 0
M  V30 6078 N 566.112 -0.949982 1.2575 0
M  V30 6079 C 567.359 -1.69515 1.10774 0
M  V30 6080 C 567.687 -1.91316 -0.350479 0
M  V30 6081 O 566.942 -1.48515 -1.27443 0
M  V30 6082 C 567.241 -3.08039 1.81237 0
M  V30 6083 C 566.907 -3.06023 3.31151 0
M  V30 6084 C 565.569 -3.0518 3.72047 0
M  V30 6085 C 567.921 -2.98998 4.26907 0
M  V30 6086 C 565.249 -2.95067 5.07102 0
M  V30 6087 C 567.601 -2.90426 5.61992 0
M  V30 6088 C 566.265 -2.87922 6.0221 0
M  V30 6089 H 565.535 -0.6203 0.405351 0
M  V30 6090 H 568.182 -1.10953 1.56082 0
M  V30 6091 H 566.487 -3.70172 1.28373 0
M  V30 6092 H 568.184 -3.64526 1.67098 0
M  V30 6093 H 564.774 -3.07453 2.98614 0
M  V30 6094 H 568.958 -2.98764 3.963 0
M  V30 6095 H 564.214 -2.915 5.37436 0
M  V30 6096 H 568.388 -2.83952 6.35881 0
M  V30 6097 H 566.015 -2.79841 7.06819 0
M  V30 6098 N 567.59 -1.07411 -1.15328 0
M  V30 6099 C 568.522 -0.652924 -2.19703 0
M  V30 6100 C 569.535 0.294869 -1.60107 0
M  V30 6101 O 570.724 0.0840932 -1.78302 0
M  V30 6102 C 567.824 0.061434 -3.38844 0
M  V30 6103 C 566.997 -0.902696 -4.27984 0
M  V30 6104 C 566.056 -0.225521 -5.25717 0
M  V30 6105 O 565.082 -0.86676 -5.62562 0
M  V30 6106 N 566.284 1.02858 -5.71315 0
M  V30 6107 H 569.049 -1.55081 -2.56457 0
M  V30 6108 H 566.61 -0.958883 -1.30449 0
M  V30 6109 H 568.602 0.525145 -4.01278 0
M  V30 6110 H 567.172 0.861269 -3.00501 0
M  V30 6111 H 566.392 -1.54551 -3.6264 0
M  V30 6112 H 567.68 -1.55636 -4.84412 0
M  V30 6113 H 567.078 1.56948 -5.43492 0
M  V30 6114 H 565.635 1.43596 -6.35786 0
M  V30 6115 N 569.068 1.32177 -0.85831 0
M  V30 6116 C 570.316 1.96735 -0.462568 0
M  V30 6117 C 570.637 1.6824 0.985911 0
M  V30 6118 O 569.907 0.991564 1.68952 0
M  V30 6119 H 568.487 0.727849 -0.168064 0
M  V30 6120 H 571.149 1.61195 -1.09554 0
M  V30 6121 H 570.245 3.06068 -0.610647 0
M  V30 6122 N 570.547 0.616602 1.45037 0
M  V30 6123 C 571.495 -0.109318 2.32343 0
M  V30 6124 C 572.489 -0.850543 1.465 0
M  V30 6125 O 573.695 -0.765088 1.62931 0
M  V30 6126 H 570.07 -0.0541091 0.750051 0
M  V30 6127 H 572.041 0.645326 2.91338 0
M  V30 6128 C 570.79 -1.0872 3.30266 0
M  V30 6129 H 570.113 -0.526267 3.96321 0
M  V30 6130 H 571.553 -1.56489 3.94065 0
M  V30 6131 C 570.012 -2.16525 2.58105 0
M  V30 6132 O 570.542 -3.244 2.36913 0
M  V30 6133 N 568.748 -1.92057 2.18088 0
M  V30 6134 H 568.295 -1.04337 2.35524 0
M  V30 6135 H 568.253 -2.64391 1.70131 0
M  V30 6136 N 572.025 -1.5352 0.356285 0
M  V30 6137 C 573.441 -1.59599 0.00485267 0
M  V30 6138 C 573.641 -1.37179 -1.47595 0
M  V30 6139 O 572.697 -1.17234 -2.23635 0
M  V30 6140 C 574.01 -2.97277 0.452454 0
M  V30 6141 C 575.558 -3.10357 0.405881 0
M  V30 6142 C 576.033 -4.50432 0.829148 0
M  V30 6143 N 577.524 -4.5652 0.783838 0
M  V30 6144 C 578.259 -5.63077 1.08315 0
M  V30 6145 N 577.755 -6.77429 1.45126 0
M  V30 6146 N 579.548 -5.53014 1.00655 0
M  V30 6147 H 571.699 -1.66346 1.32071 0
M  V30 6148 H 573.962 -0.77971 0.539218 0
M  V30 6149 H 573.668 -3.18792 1.48542 0
M  V30 6150 H 573.542 -3.76836 -0.165762 0
M  V30 6151 H 575.929 -2.88558 -0.617934 0
M  V30 6152 H 576.01 -2.32828 1.05947 0
M  V30 6153 H 575.654 -4.72968 1.85103 0
M  V30 6154 H 575.584 -5.26378 0.152906 0
M  V30 6155 H 578.075 -3.74408 0.512513 0
M  V30 6156 H 578.388 -7.54669 1.66415 0
M  V30 6157 H 576.733 -6.78844 1.48983 0
M  V30 6158 H 579.924 -4.62557 0.718215 0
M  V30 6159 H 580.097 -6.35964 1.24315 0
M  V30 6160 N 573.503 -0.0852151 -1.57369 0
M  V30 6161 C 574.733 0.588605 -1.98038 0
M  V30 6162 C 575.141 1.62869 -0.962817 0
M  V30 6163 O 574.484 1.83611 0.057134 0
M  V30 6164 C 574.546 1.30303 -3.35054 0
M  V30 6165 C 574.21 0.414855 -4.55113 0
M  V30 6166 C 575.207 -0.333011 -5.18832 0
M  V30 6167 C 572.892 0.335804 -5.01176 0
M  V30 6168 C 574.886 -1.14801 -6.26976 0
M  V30 6169 C 572.573 -0.482857 -6.09189 0
M  V30 6170 C 573.571 -1.22342 -6.71953 0
M  V30 6171 O 573.259 -2.02855 -7.77885 0
M  V30 6172 H 572.991 0.163249 -0.655992 0
M  V30 6173 H 575.545 -0.1582 -2.0479 0
M  V30 6174 H 573.775 2.0962 -3.24956 0
M  V30 6175 H 575.464 1.87041 -3.60237 0
M  V30 6176 H 576.23 -0.281611 -4.84182 0
M  V30 6177 H 572.109 0.901869 -4.52092 0
M  V30 6178 H 575.653 -1.72654 -6.75897 0
M  V30 6179 H 571.55 -0.535773 -6.43273 0
M  V30 6180 H 572.318 -1.95432 -7.94826 0
M  V30 6181 N 574.981 1.5647 0.188427 0
M  V30 6182 C 576.397 1.50204 0.539532 0
M  V30 6183 C 576.597 0.78644 1.85519 0
M  V30 6184 O 575.653 0.339714 2.50204 0
M  V30 6185 C 576.966 2.94893 0.588103 0
M  V30 6186 C 578.514 3.05602 0.67648 0
M  V30 6187 C 578.989 4.51716 0.756101 0
M  V30 6188 N 580.48 4.55894 0.819451 0
M  V30 6189 C 581.215 5.66272 0.90134 0
M  V30 6190 N 580.711 6.86323 0.945118 0
M  V30 6191 N 582.504 5.54201 0.939043 0
M  V30 6192 H 574.655 2.01406 -0.674493 0
M  V30 6193 H 576.918 0.916828 -0.241103 0
M  V30 6194 H 576.624 3.50334 -0.309633 0
M  V30 6195 H 576.498 3.4861 1.44051 0
M  V30 6196 H 578.885 2.50206 1.56465 0
M  V30 6197 H 578.966 2.54999 -0.202262 0
M  V30 6198 H 578.61 5.07739 -0.12774 0
M  V30 6199 H 578.54 5.00058 1.65074 0
M  V30 6200 H 581.031 3.69452 0.794594 0
M  V30 6201 H 581.344 7.66194 1.0083 0
M  V30 6202 H 579.689 6.88968 0.913683 0
M  V30 6203 H 582.88 4.59333 0.901725 0
M  V30 6204 H 583.053 6.40247 0.999402 0
M  V30 6205 N 576.459 -0.456382 1.50847 0
M  V30 6206 C 577.406 -1.55249 1.70782 0
M  V30 6207 C 578.376 -1.56757 0.549231 0
M  V30 6208 O 579.561 -1.74061 0.7815 0
M  V30 6209 C 576.701 -2.93118 1.82143 0
M  V30 6210 C 575.814 -3.01285 3.09598 0
M  V30 6211 C 574.949 -4.30159 3.11667 0
M  V30 6212 C 573.988 -4.32124 4.33515 0
M  V30 6213 N 573.125 -5.52492 4.3324 0
M  V30 6214 H 577.965 -1.37555 2.64353 0
M  V30 6215 H 575.502 -0.668543 1.3103 0
M  V30 6216 H 577.46 -3.73088 1.86711 0
M  V30 6217 H 576.09 -3.09413 0.919978 0
M  V30 6218 H 575.142 -2.14096 3.14431 0
M  V30 6219 H 576.454 -2.98597 3.99551 0
M  V30 6220 H 575.608 -5.18489 3.15046 0
M  V30 6221 H 574.347 -4.35477 2.1957 0
M  V30 6222 H 573.352 -3.42189 4.30333 0
M  V30 6223 H 574.577 -4.28485 5.26856 0
M  V30 6224 H 572.523 -5.58567 3.44004 0
M  V30 6225 H 572.44 -5.51605 5.16979 0
M  V30 6226 H 573.708 -6.42906 4.40786 0
M  V30 6227 N 577.937 -1.40673 -0.710563 0
M  V30 6228 C 579.177 -1.40677 -1.48288 0
M  V30 6229 C 579.541 -0.0097193 -1.91998 0
M  V30 6230 O 580.742 0.115381 -2.68552 0
M  V30 6231 C 579.013 -2.37289 -2.67262 0
M  V30 6232 S 580.572 -2.55694 -3.56603 0
M  V30 6233 H 577.39 -0.498545 -0.506926 0
M  V30 6234 H 579.992 -1.76984 -0.830472 0
M  V30 6235 H 578.696 -3.37617 -2.3333 0
M  V30 6236 H 578.227 -2.02282 -3.3741 0
M  V30 6237 H 580.242 -1.81311 -4.61888 0
M  V30 6238 N 579.415 0.9433 -1.26252 0
M  V30 6239 C 580.643 1.72367 -1.14443 0
M  V30 6240 C 581.058 1.86392 0.300572 0
M  V30 6241 O 580.415 1.36978 1.20596 0
M  V30 6242 C 580.466 3.13155 -1.806 0
M  V30 6243 O 580.187 2.99803 -3.19452 0
M  V30 6244 C 581.688 4.07417 -1.74717 0
M  V30 6245 H 578.908 0.539758 -0.398626 0
M  V30 6246 H 581.452 1.18268 -1.66832 0
M  V30 6247 H 579.607 3.64162 -1.32154 0
M  V30 6248 H 580.021 3.88697 -3.52158 0
M  V30 6249 H 581.495 5.03773 -2.25647 0
M  V30 6250 H 581.972 4.3337 -0.713244 0
M  V30 6251 H 582.578 3.6233 -2.22704 0
M  V30 6252 N 580.893 1.08022 1.14757 0
M  V30 6253 C 582.17 0.720386 1.81851 0
M  V30 6254 C 582.55 -0.796375 1.95502 0
M  V30 6255 O 581.898 -1.71339 1.51179 0
M  V30 6256 C 582.108 1.44273 3.17783 0
M  V30 6257 C 583.456 1.59925 3.93331 0
M  V30 6258 O 584.48 1.40407 3.2736 0
M  V30 6259 O 583.339 1.92096 5.11626 0
M  V30 6260 H 580.433 0.257142 0.786007 0
M  V30 6261 H 582.979 1.18155 1.21809 0
M  V30 6262 H 581.751 2.47618 3.02987 0
M  V30 6263 H 581.374 0.97279 3.85516 0
M  V30 6264 N 582.371 -1.3172 0.865308 0
M  V30 6265 C 583.617 -1.97559 0.483944 0
M  V30 6266 C 583.972 -1.67181 -0.95227 0
M  V30 6267 O 583.265 -0.955392 -1.66081 0
M  V30 6268 C 583.459 -3.5102 0.672283 0
M  V30 6269 C 583.288 -3.96312 2.12525 0
M  V30 6270 C 582.058 -4.22877 2.76591 0
M  V30 6271 C 584.256 -4.10596 3.09702 0
M  V30 6272 N 582.238 -4.5449 4.12689 0
M  V30 6273 C 583.609 -4.45867 4.30816 0
M  V30 6274 C 585.664 -3.92961 3.05755 0
M  V30 6275 C 584.367 -4.65344 5.48495 0
M  V30 6276 C 586.393 -4.13628 4.22688 0
M  V30 6277 C 585.755 -4.49227 5.42563 0
M  V30 6278 H 581.854 -0.74862 0.226035 0
M  V30 6279 H 584.438 -1.59336 1.11893 0
M  V30 6280 H 582.609 -3.88342 0.0669224 0
M  V30 6281 H 584.341 -4.03865 0.259765 0
M  V30 6282 H 581.096 -4.15343 2.27567 0
M  V30 6283 H 581.52 -4.74464 4.82921 0
M  V30 6284 H 586.162 -3.64531 2.14188 0
M  V30 6285 H 583.88 -4.92624 6.40584 0
M  V30 6286 H 587.466 -4.01474 4.21082 0
M  V30 6287 H 586.346 -4.64895 6.31539 0
M  V30 6288 N 583.85 -0.624285 -1.44708 0
M  V30 6289 C 585.096 -0.13473 -2.02953 0
M  V30 6290 C 585.451 1.22724 -1.48178 0
M  V30 6291 O 584.744 1.80109 -0.653542 0
M  V30 6292 C 584.938 -0.0546353 -3.57358 0
M  V30 6293 C 584.767 -1.40729 -4.27113 0
M  V30 6294 C 583.537 -1.99231 -4.64365 0
M  V30 6295 C 585.735 -2.33968 -4.58 0
M  V30 6296 N 583.716 -3.27803 -5.19055 0
M  V30 6297 C 585.088 -3.47149 -5.137 0
M  V30 6298 C 587.143 -2.33132 -4.39948 0
M  V30 6299 C 585.846 -4.59682 -5.53249 0
M  V30 6300 C 587.872 -3.44724 -4.8054 0
M  V30 6301 C 587.234 -4.56629 -5.36348 0
M  V30 6302 H 583.332 -0.0930617 -0.776443 0
M  V30 6303 H 585.917 -0.826286 -1.76297 0
M  V30 6304 H 584.088 0.606183 -3.8364 0
M  V30 6305 H 585.82 0.443116 -4.02267 0
M  V30 6306 H 582.575 -1.52251 -4.4846 0
M  V30 6307 H 582.999 -3.93519 -5.50883 0
M  V30 6308 H 587.641 -1.47868 -3.961 0
M  V30 6309 H 585.359 -5.4566 -5.96054 0
M  V30 6310 H 588.945 -3.45245 -4.68291 0
M  V30 6311 H 587.825 -5.41551 -5.67179 0
M  V30 6312 N 585.328 1.53329 -0.364422 0
M  V30 6313 C 586.568 2.0315 0.22572 0
M  V30 6314 C 586.932 1.24589 1.46087 0
M  V30 6315 O 588.133 1.64411 2.12656 0
M  V30 6316 C 586.404 3.53718 0.511663 0
M  V30 6317 S 587.963 4.25412 1.07564 0
M  V30 6318 H 584.781 0.70795 0.0657843 0
M  V30 6319 H 587.383 1.88811 -0.507019 0
M  V30 6320 H 586.087 4.08497 -0.394784 0
M  V30 6321 H 585.618 3.72217 1.27351 0
M  V30 6322 H 587.633 4.36486 2.35997 0
M  V30 6323 N 586.806 0.0935595 1.57322 0
M  V30 6324 C 587.738 -0.895923 2.10964 0
M  V30 6325 C 588.751 -1.24705 1.04654 0
M  V30 6326 O 589.94 -1.20044 1.32105 0
M  V30 6327 C 587.04 -2.20546 2.57318 0
M  V30 6328 C 586.213 -2.0299 3.87445 0
M  V30 6329 C 585.272 -3.17443 4.19662 0
M  V30 6330 O 584.298 -2.91474 4.88909 0
M  V30 6331 N 585.5 -4.43168 3.74943 0
M  V30 6332 H 588.265 -0.437788 2.96485 0
M  V30 6333 H 585.826 -0.0915863 1.61641 0
M  V30 6334 H 587.818 -2.9606 2.75917 0
M  V30 6335 H 586.388 -2.57789 1.76816 0
M  V30 6336 H 585.608 -1.11815 3.78009 0
M  V30 6337 H 586.896 -1.88535 4.7258 0
M  V30 6338 H 586.294 -4.67149 3.19043 0
M  V30 6339 H 584.851 -5.15637 3.987 0
M  V30 6340 N 588.284 -1.56567 -0.180126 0
M  V30 6341 C 589.695 -1.7126 -0.743422 0
M  V30 6342 C 590.046 -0.70263 -1.83187 0
M  V30 6343 O 589.171 0.137856 -2.1596 0
M  V30 6344 C 589.766 -3.10512 -1.35528 0
M  V30 6345 C 588.325 -3.26919 -1.8655 0
M  V30 6346 C 587.472 -2.67213 -0.741099 0
M  V30 6347 H 590.423 -1.58636 0.0451543 0
M  V30 6348 H 590.444 -3.08673 -2.22489 0
M  V30 6349 H 589.956 -3.83997 -0.562862 0
M  V30 6350 H 588.057 -2.58376 -2.68464 0
M  V30 6351 H 588.17 -4.34574 -2.01699 0
M  V30 6352 H 586.534 -2.26788 -1.15927 0
M  V30 6353 H 587.317 -3.43277 0.0393291 0
M  V30 6354 N 589.762 0.448376 -1.51087 0
M  V30 6355 C 590.695 1.56298 -1.66272 0
M  V30 6356 C 591.673 1.54381 -0.510419 0
M  V30 6357 O 592.857 1.73671 -0.732854 0
M  V30 6358 C 589.984 2.94883 -1.66618 0
M  V30 6359 C 589.03 3.14868 -2.87681 0
M  V30 6360 S 589.863 2.9234 -4.48662 0
M  V30 6361 C 591.019 4.33227 -4.51735 0
M  V30 6362 H 591.252 1.43182 -2.6055 0
M  V30 6363 H 588.785 0.637309 -1.40633 0
M  V30 6364 H 590.743 3.74771 -1.67502 0
M  V30 6365 H 589.404 3.05371 -0.735358 0
M  V30 6366 H 588.597 4.16166 -2.84292 0
M  V30 6367 H 588.199 2.42788 -2.84482 0
M  V30 6368 H 590.491 5.26247 -4.26697 0
M  V30 6369 H 591.434 4.41653 -5.53487 0
M  V30 6370 H 591.842 4.16367 -3.81181 0
M  V30 6371 N 591.24 1.41047 0.703093 0
M  V30 6372 C 592.203 1.42036 1.79884 0
M  V30 6373 C 593.203 0.312153 1.57741 0
M  V30 6374 O 594.393 0.571672 1.64553 0
M  V30 6375 C 591.525 1.22437 3.18154 0
M  V30 6376 H 592.718 2.39572 1.80403 0
M  V30 6377 H 590.271 1.27079 0.909977 0
M  V30 6378 H 591.006 0.257112 3.23279 0
M  V30 6379 H 590.791 2.02723 3.35627 0
M  V30 6380 H 592.281 1.25946 3.98155 0
M  V30 6381 N 592.718 -0.936591 1.26751 0
M  V30 6382 C 593.65 -2.03991 1.045 0
M  V30 6383 C 594.663 -1.628 0.00394261 0
M  V30 6384 O 595.852 -1.76817 0.244526 0
M  V30 6385 C 592.952 -3.34218 0.561403 0
M  V30 6386 C 592.125 -4.04151 1.67274 0
M  V30 6387 C 591.184 -5.12651 1.1864 0
M  V30 6388 O 590.21 -5.37104 1.88437 0
M  V30 6389 N 591.412 -5.80488 0.037278 0
M  V30 6390 H 594.177 -2.23644 1.99508 0
M  V30 6391 H 591.738 -1.10638 1.18198 0
M  V30 6392 H 593.73 -4.04101 0.220136 0
M  V30 6393 H 592.3 -3.11203 -0.295211 0
M  V30 6394 H 591.52 -3.28121 2.18472 0
M  V30 6395 H 592.808 -4.47626 2.41885 0
M  V30 6396 H 592.206 -5.63064 -0.545494 0
M  V30 6397 H 590.763 -6.5134 -0.244877 0
M  V30 6398 N 594.196 -1.08629 -1.14182 0
M  V30 6399 C 595.126 -0.740003 -2.21464 0
M  V30 6400 C 596.107 0.278591 -1.67803 0
M  V30 6401 O 597.292 0.148461 -1.93632 0
M  V30 6402 C 594.422 -0.150952 -3.46972 0
M  V30 6403 C 593.376 -1.09815 -4.13672 0
M  V30 6404 C 592.702 -0.3712 -5.3341 0
M  V30 6405 C 594.002 -2.43722 -4.61949 0
M  V30 6406 H 595.696 -1.63697 -2.50686 0
M  V30 6407 H 593.242 -0.788526 -1.20492 0
M  V30 6408 H 595.195 0.103325 -4.21273 0
M  V30 6409 H 593.919 0.781164 -3.1712 0
M  V30 6410 H 592.578 -1.33756 -3.41328 0
M  V30 6411 H 592.226 0.564792 -4.99819 0
M  V30 6412 H 591.926 -1.00267 -5.78982 0
M  V30 6413 H 593.45 -0.12503 -6.10472 0
M  V30 6414 H 594.864 -2.24034 -5.27714 0
M  V30 6415 H 593.261 -3.02582 -5.18232 0
M  V30 6416 H 594.331 -3.05082 -3.76899 0
M  V30 6417 N 595.674 1.31259 -0.872281 0
M  V30 6418 C 596.584 2.32221 -0.333255 0
M  V30 6419 C 597.6 1.6481 0.558013 0
M  V30 6420 O 598.776 1.96212 0.454175 0
M  V30 6421 C 595.841 3.43708 0.454479 0
M  V30 6422 C 594.902 4.26774 -0.465024 0
M  V30 6423 C 594.135 5.32937 0.28521 0
M  V30 6424 O 594.358 5.49968 1.513 0
M  V30 6425 O 593.292 6.00834 -0.358126 0
M  V30 6426 H 597.118 2.80252 -1.17016 0
M  V30 6427 H 594.703 1.352 -0.635724 0
M  V30 6428 H 596.585 4.11656 0.900963 0
M  V30 6429 H 595.26 2.97836 1.26789 0
M  V30 6430 H 594.167 3.61571 -0.960055 0
M  V30 6431 H 595.5 4.76217 -1.2441 0
M  V30 6432 N 597.152 0.631951 1.44375 0
M  V30 6433 C 598.115 -0.0628142 2.29114 0
M  V30 6434 C 599.115 -0.771494 1.41084 0
M  V30 6435 O 600.305 -0.615959 1.62947 0
M  V30 6436 C 597.437 -1.09953 3.22681 0
M  V30 6437 H 598.63 0.682509 2.92031 0
M  V30 6438 H 596.183 0.392128 1.51301 0
M  V30 6439 H 596.918 -1.87481 2.64616 0
M  V30 6440 H 596.703 -0.595286 3.87555 0
M  V30 6441 H 598.193 -1.58538 3.86336 0
M  V30 6442 N 598.631 -1.53133 0.372548 0
M  V30 6443 C 599.561 -2.28876 -0.462412 0
M  V30 6444 C 600.542 -1.31583 -1.07796 0
M  V30 6445 O 601.727 -1.60461 -1.09389 0
M  V30 6446 C 598.857 -3.08317 -1.59868 0
M  V30 6447 C 597.811 -4.13355 -1.11003 0
M  V30 6448 C 597.137 -4.8092 -2.33708 0
M  V30 6449 C 598.437 -5.21955 -0.18983 0
M  V30 6450 H 600.131 -2.9892 0.169511 0
M  V30 6451 H 597.677 -1.43761 0.0829658 0
M  V30 6452 H 599.63 -3.60055 -2.18949 0
M  V30 6453 H 598.354 -2.35976 -2.25794 0
M  V30 6454 H 597.013 -3.62573 -0.541869 0
M  V30 6455 H 596.661 -4.05144 -2.98106 0
M  V30 6456 H 596.361 -5.51904 -2.01682 0
M  V30 6457 H 597.885 -5.35455 -2.93462 0
M  V30 6458 H 599.299 -5.69153 -0.688319 0
M  V30 6459 H 597.696 -6.00087 0.0398887 0
M  V30 6460 H 598.766 -4.78811 0.766057 0
M  V30 6461 N 600.109 -0.101901 -1.5727 0
M  V30 6462 C 601.355 0.554864 -1.95686 0
M  V30 6463 C 601.71 1.65368 -0.983415 0
M  V30 6464 O 601.003 1.91597 -0.0105374 0
M  V30 6465 C 601.197 1.14898 -3.38427 0
M  V30 6466 C 601.026 0.109251 -4.49567 0
M  V30 6467 C 599.796 -0.316633 -5.04307 0
M  V30 6468 C 601.994 -0.665196 -5.0998 0
M  V30 6469 N 599.976 -1.34393 -5.99009 0
M  V30 6470 C 601.347 -1.54413 -6.00464 0
M  V30 6471 C 603.402 -0.717966 -4.92696 0
M  V30 6472 C 602.105 -2.47122 -6.75517 0
M  V30 6473 C 604.131 -1.63268 -5.68417 0
M  V30 6474 C 603.493 -2.49923 -6.58572 0
M  V30 6475 H 599.592 0.17317 -0.762585 0
M  V30 6476 H 602.176 -0.18605 -1.93809 0
M  V30 6477 H 600.347 1.85969 -3.40984 0
M  V30 6478 H 602.079 1.76867 -3.64006 0
M  V30 6479 H 598.834 0.0724419 -4.73545 0
M  V30 6480 H 599.258 -1.85598 -6.51062 0
M  V30 6481 H 603.9 -0.0621637 -4.22754 0
M  V30 6482 H 601.618 -3.13724 -7.44717 0
M  V30 6483 H 605.204 -1.67874 -5.57054 0
M  V30 6484 H 604.084 -3.19553 -7.16139 0
M  V30 6485 N 601.587 1.56661 0.17182 0
M  V30 6486 C 602.534 1.96371 1.21273 0
M  V30 6487 C 603.504 0.82756 1.44016 0
M  V30 6488 O 604.689 1.08764 1.56764 0
M  V30 6489 C 601.829 2.32838 2.54716 0
M  V30 6490 C 600.942 3.59628 2.39356 0
M  V30 6491 C 600.077 3.85311 3.65662 0
M  V30 6492 C 599.116 5.0545 3.45234 0
M  V30 6493 N 598.253 5.27268 4.63608 0
M  V30 6494 H 603.093 2.85106 0.86709 0
M  V30 6495 H 600.63 1.41073 0.416744 0
M  V30 6496 H 602.588 2.52004 3.3249 0
M  V30 6497 H 601.218 1.47214 2.87277 0
M  V30 6498 H 600.27 3.4838 1.52761 0
M  V30 6499 H 601.582 4.4756 2.20207 0
M  V30 6500 H 600.736 4.04841 4.51872 0
M  V30 6501 H 599.475 2.95753 3.8779 0
M  V30 6502 H 598.48 4.85819 2.5741 0
M  V30 6503 H 599.705 5.96538 3.24529 0
M  V30 6504 H 597.651 4.40662 4.85956 0
M  V30 6505 H 597.568 6.09422 4.4737 0
M  V30 6506 H 598.836 5.51277 5.51103 0
M  V30 6507 N 603.065 -0.440357 1.51323 0
M  V30 6508 C 604.012 -1.53429 1.72419 0
M  V30 6509 C 604.982 -1.56165 0.565826 0
M  V30 6510 O 606.167 -1.73222 0.799917 0
M  V30 6511 C 603.307 -2.91169 1.85242 0
M  V30 6512 C 602.42 -2.97985 3.12777 0
M  V30 6513 C 601.555 -4.26829 3.16212 0
M  V30 6514 C 600.594 -4.27501 4.38074 0
M  V30 6515 N 599.731 -5.47866 4.39076 0
M  V30 6516 H 604.571 -1.34743 2.65797 0
M  V30 6517 H 602.108 -0.654608 1.31732 0
M  V30 6518 H 604.066 -3.71087 1.90658 0
M  V30 6519 H 602.696 -3.0842 0.952744 0
M  V30 6520 H 601.748 -2.10749 3.16685 0
M  V30 6521 H 603.06 -2.94342 4.02696 0
M  V30 6522 H 602.214 -5.15118 3.20527 0
M  V30 6523 H 600.953 -4.33124 2.24176 0
M  V30 6524 H 599.958 -3.37606 4.33938 0
M  V30 6525 H 601.183 -4.22873 5.31371 0
M  V30 6526 H 599.129 -5.54887 3.49909 0
M  V30 6527 H 599.046 -5.46091 5.22801 0
M  V30 6528 H 600.314 -6.38195 4.4758 0
M  V30 6529 N 604.543 -1.41418 -0.695603 0
M  V30 6530 C 605.476 -1.3768 -1.81988 0
M  V30 6531 C 606.454 -0.244061 -1.60758 0
M  V30 6532 O 607.638 -0.430965 -1.83507 0
M  V30 6533 C 604.765 -1.1476 -3.18666 0
M  V30 6534 C 603.811 -2.30752 -3.58686 0
M  V30 6535 S 604.644 -3.9323 -3.63498 0
M  V30 6536 C 605.8 -3.72613 -5.02902 0
M  V30 6537 H 606.033 -2.32822 -1.84882 0
M  V30 6538 H 603.566 -1.27942 -0.86431 0
M  V30 6539 H 605.524 -1.02223 -3.97569 0
M  V30 6540 H 604.185 -0.212385 -3.13381 0
M  V30 6541 H 603.378 -2.10409 -4.57978 0
M  V30 6542 H 602.98 -2.39696 -2.87092 0
M  V30 6543 H 605.272 -3.32317 -5.904 0
M  V30 6544 H 606.215 -4.71507 -5.28286 0
M  V30 6545 H 606.623 -3.0589 -4.74438 0
M  V30 6546 N 606.021 0.929856 -1.27246 0
M  V30 6547 C 606.931 2.0636 -1.11592 0
M  V30 6548 C 607.947 1.73938 -0.046496 0
M  V30 6549 O 609.123 1.9981 -0.252544 0
M  V30 6550 C 606.188 3.38213 -0.762437 0
M  V30 6551 C 605.249 3.84346 -1.9125 0
M  V30 6552 C 604.482 5.09906 -1.57579 0
M  V30 6553 O 604.705 5.68354 -0.482694 0
M  V30 6554 O 603.639 5.51359 -2.41426 0
M  V30 6555 H 607.465 2.22478 -2.0673 0
M  V30 6556 H 605.05 1.04865 -1.06413 0
M  V30 6557 H 606.932 4.1741 -0.57854 0
M  V30 6558 H 605.607 3.23307 0.159439 0
M  V30 6559 H 604.514 3.06045 -2.15144 0
M  V30 6560 H 605.847 4.0379 -2.81451 0
M  V30 6561 N 607.499 1.09233 1.13605 0
M  V30 6562 C 608.747 0.825525 1.84471 0
M  V30 6563 C 609.068 -0.650702 1.83823 0
M  V30 6564 O 608.338 -1.47204 1.29259 0
M  V30 6565 H 606.918 0.3024 0.683054 0
M  V30 6566 H 609.58 1.38006 1.37624 0
M  V30 6567 H 608.676 1.17727 2.89045 0
M  V30 6568 N 608.977 -1.30795 0.87923 0
M  V30 6569 C 610.223 -1.96653 0.495519 0
M  V30 6570 C 610.556 -1.69282 -0.951703 0
M  V30 6571 O 609.831 -0.994374 -1.6716 0
M  V30 6572 C 610.114 -3.51898 0.764174 0
M  V30 6573 C 609.967 -3.88808 2.2616 0
M  V30 6574 C 611.286 -4.39462 0.236825 0
M  V30 6575 H 608.405 -0.7143 0.181507 0
M  V30 6576 H 611.047 -1.54765 1.10217 0
M  V30 6577 H 609.197 -3.87709 0.247841 0
M  V30 6578 H 610.869 -3.63051 2.8459 0
M  V30 6579 H 609.112 -3.37082 2.73053 0
M  V30 6580 H 609.783 -4.97086 2.4002 0
M  V30 6581 H 612.259 -4.10528 0.678683 0
M  V30 6582 H 611.135 -5.47018 0.454176 0
M  V30 6583 H 611.396 -4.33621 -0.861683 0
M  V30 6584 N 610.455 -0.639598 -1.44038 0
M  V30 6585 C 611.683 -0.154811 -2.0632 0
M  V30 6586 C 612.098 1.17406 -1.47856 0
M  V30 6587 O 611.455 1.72193 -0.604638 0
M  V30 6588 C 611.506 -0.0429958 -3.61474 0
M  V30 6589 O 611.227 -1.31932 -4.17763 0
M  V30 6590 C 612.728 0.469486 -4.40807 0
M  V30 6591 H 609.948 -0.0835862 -0.665773 0
M  V30 6592 H 612.492 -0.876397 -1.84769 0
M  V30 6593 H 610.647 0.629075 -3.82258 0
M  V30 6594 H 611.061 -1.16965 -5.11292 0
M  V30 6595 H 612.535 0.496712 -5.49761 0
M  V30 6596 H 613.012 1.49819 -4.12857 0
M  V30 6597 H 613.618 -0.169624 -4.24962 0
M  V30 6598 N 611.933 1.52934 -0.380664 0
M  V30 6599 C 612.881 2.27727 0.47361 0
M  V30 6600 C 613.875 1.31288 1.0705 0
M  V30 6601 O 615.081 1.4886 1.01197 0
M  V30 6602 H 611.456 0.732189 0.171475 0
M  V30 6603 H 613.427 2.97864 -0.178785 0
M  V30 6604 C 612.176 3.0904 1.59341 0
M  V30 6605 H 611.499 3.831 1.14343 0
M  V30 6606 H 612.939 3.64527 2.16555 0
M  V30 6607 C 611.398 2.20813 2.54447 0
M  V30 6608 O 611.928 1.82907 3.57642 0
M  V30 6609 N 610.134 1.85145 2.23986 0
M  V30 6610 H 609.681 2.16169 1.40103 0
M  V30 6611 H 609.639 1.26402 2.87871 0
M  V30 6612 N 613.412 0.11024 1.57214 0
M  V30 6613 C 614.375 -0.828808 2.1369 0
M  V30 6614 C 615.375 -1.20059 1.06969 0
M  V30 6615 O 616.565 -1.12754 1.32786 0
M  V30 6616 C 613.697 -2.11959 2.66994 0
M  V30 6617 H 614.89 -0.338146 2.97988 0
M  V30 6618 H 612.443 -0.138913 1.55681 0
M  V30 6619 H 613.178 -2.65476 1.8626 0
M  V30 6620 H 612.963 -1.86258 3.45037 0
M  V30 6621 H 614.453 -2.79105 3.10629 0
M  V30 6622 N 614.89 -1.56749 -0.16351 0
M  V30 6623 C 616.136 -1.82704 -0.880168 0
M  V30 6624 C 616.469 -0.689311 -1.81555 0
M  V30 6625 O 615.744 0.308224 -1.92042 0
M  V30 6626 C 616.027 -3.19084 -1.66905 0
M  V30 6627 C 615.88 -4.43397 -0.756269 0
M  V30 6628 C 617.199 -3.52493 -2.63509 0
M  V30 6629 H 614.318 -0.664608 -0.318535 0
M  V30 6630 H 616.96 -1.89438 -0.146036 0
M  V30 6631 H 615.11 -3.13475 -2.2949 0
M  V30 6632 H 616.782 -4.61079 -0.14269 0
M  V30 6633 H 615.025 -4.33752 -0.0647944 0
M  V30 6634 H 615.696 -5.3539 -1.34393 0
M  V30 6635 H 618.172 -3.58606 -2.11047 0
M  V30 6636 H 617.048 -4.48979 -3.15767 0
M  V30 6637 H 617.309 -2.77597 -3.44082 0
M  V30 6638 N 616.368 0.432326 -1.51554 0
M  V30 6639 C 617.298 1.53242 -1.76179 0
M  V30 6640 C 618.279 1.58717 -0.611801 0
M  V30 6641 O 619.464 1.74364 -0.855033 0
M  V30 6642 C 616.594 2.91278 -1.89141 0
M  V30 6643 C 615.548 3.00663 -3.04608 0
M  V30 6644 C 614.874 4.40728 -3.02759 0
M  V30 6645 C 616.174 2.74281 -4.44485 0
M  V30 6646 H 617.868 1.32886 -2.68294 0
M  V30 6647 H 615.414 0.637841 -1.29103 0
M  V30 6648 H 617.367 3.68203 -2.04951 0
M  V30 6649 H 616.091 3.12877 -0.936785 0
M  V30 6650 H 614.75 2.26179 -2.88511 0
M  V30 6651 H 614.398 4.59301 -2.05065 0
M  V30 6652 H 614.098 4.47936 -3.80299 0
M  V30 6653 H 615.622 5.19619 -3.20669 0
M  V30 6654 H 617.036 3.40936 -4.60907 0
M  V30 6655 H 615.433 2.92893 -5.23769 0
M  V30 6656 H 616.503 1.69856 -4.54177 0
M  V30 6657 N 617.846 1.41785 0.688094 0
M  V30 6658 C 618.796 1.40684 1.79421 0
M  V30 6659 C 619.78 0.280096 1.58443 0
M  V30 6660 O 620.972 0.521332 1.69148 0
M  V30 6661 C 618.101 1.29874 3.17785 0
M  V30 6662 C 617.187 2.47442 3.44432 0
M  V30 6663 N 617.578 3.72895 3.41736 0
M  V30 6664 C 615.876 2.41416 3.75013 0
M  V30 6665 C 616.577 4.50912 3.67496 0
M  V30 6666 N 615.553 3.81131 3.87608 0
M  V30 6667 H 619.355 2.35591 1.7571 0
M  V30 6668 H 616.869 1.35946 0.888393 0
M  V30 6669 H 618.866 1.27168 3.97031 0
M  V30 6670 H 617.526 0.359587 3.22703 0
M  V30 6671 H 618.537 4.05676 3.21943 0
M  V30 6672 H 615.214 1.56011 3.87256 0
M  V30 6673 H 616.604 5.59865 3.71484 0
M  V30 6674 N 619.324 -0.923095 1.27737 0
M  V30 6675 C 620.234 -2.05765 1.12685 0
M  V30 6676 C 621.25 -1.73911 0.0557197 0
M  V30 6677 O 622.426 -1.99674 0.263137 0
M  V30 6678 C 619.491 -3.37804 0.780363 0
M  V30 6679 C 618.552 -3.83326 1.93286 0
M  V30 6680 C 617.785 -5.09064 1.60281 0
M  V30 6681 O 618.008 -5.6809 0.512828 0
M  V30 6682 O 616.942 -5.50071 2.44347 0
M  V30 6683 H 620.768 -2.21378 2.07907 0
M  V30 6684 H 618.353 -1.04299 1.06968 0
M  V30 6685 H 620.235 -4.17097 0.600668 0
M  V30 6686 H 618.91 -3.23387 -0.142291 0
M  V30 6687 H 617.817 -3.049 2.16764 0
M  V30 6688 H 619.15 -4.02292 2.83588 0
M  V30 6689 N 620.802 -1.09834 -1.13024 0
M  V30 6690 C 622.048 -0.83819 -1.84668 0
M  V30 6691 C 622.381 0.634645 -1.83537 0
M  V30 6692 O 621.656 1.46753 -1.27647 0
M  V30 6693 C 621.939 -1.37933 -3.32636 0
M  V30 6694 C 621.792 -2.91857 -3.42257 0
M  V30 6695 C 623.111 -1.01654 -4.28199 0
M  V30 6696 H 620.23 -0.30595 -0.670495 0
M  V30 6697 H 622.872 -1.36044 -1.32635 0
M  V30 6698 H 621.022 -0.935111 -3.77078 0
M  V30 6699 H 622.694 -3.44759 -3.06495 0
M  V30 6700 H 620.937 -3.28776 -2.83 0
M  V30 6701 H 621.608 -3.24799 -4.46329 0
M  V30 6702 H 624.084 -1.39973 -3.9185 0
M  V30 6703 H 622.96 -1.42217 -5.30156 0
M  V30 6704 H 623.221 0.0747794 -4.42037 0
M  V30 6705 N 622.28 1.30327 -0.886154 0
M  V30 6706 C 623.227 2.28099 -0.352069 0
M  V30 6707 C 624.197 1.56433 0.558397 0
M  V30 6708 O 625.382 1.84492 0.486561 0
M  V30 6709 C 622.522 3.42456 0.426346 0
M  V30 6710 C 621.635 4.28938 -0.513472 0
M  V30 6711 C 620.77 5.30458 0.280657 0
M  V30 6712 C 619.809 6.0859 -0.654556 0
M  V30 6713 N 618.946 7.02022 0.104322 0
M  V30 6714 H 623.786 2.73166 -1.19097 0
M  V30 6715 H 621.323 1.34367 -0.598662 0
M  V30 6716 H 623.281 4.07518 0.893587 0
M  V30 6717 H 621.911 2.98455 1.22981 0
M  V30 6718 H 620.963 3.64173 -1.09921 0
M  V30 6719 H 622.275 4.83399 -1.2299 0
M  V30 6720 H 621.429 6.01273 0.8097 0
M  V30 6721 H 620.168 4.76693 1.03029 0
M  V30 6722 H 619.173 5.36651 -1.19522 0
M  V30 6723 H 620.398 6.64443 -1.4033 0
M  V30 6724 H 618.344 6.50645 0.836472 0
M  V30 6725 H 618.261 7.53979 -0.552453 0
M  V30 6726 H 619.529 7.77077 0.614069 0
M  V30 6727 N 623.758 0.647228 1.43697 0
M  V30 6728 C 625.174 0.314256 1.56476 0
M  V30 6729 C 625.374 -1.18191 1.63196 0
M  V30 6730 O 624.43 -1.96655 1.58376 0
M  V30 6731 C 625.743 1.02034 2.82859 0
M  V30 6732 C 627.291 1.00002 2.96595 0
M  V30 6733 C 627.766 1.68689 4.25803 0
M  V30 6734 N 629.257 1.65424 4.32654 0
M  V30 6735 C 629.992 2.1545 5.31384 0
M  V30 6736 N 629.488 2.73738 6.36427 0
M  V30 6737 N 631.281 2.05985 5.22998 0
M  V30 6738 H 623.432 1.61821 1.37578 0
M  V30 6739 H 625.695 0.680184 0.660344 0
M  V30 6740 H 625.401 2.07542 2.83935 0
M  V30 6741 H 625.275 0.568146 3.72897 0
M  V30 6742 H 627.662 -0.0466319 2.95063 0
M  V30 6743 H 627.743 1.49086 2.07863 0
M  V30 6744 H 627.387 2.73308 4.28095 0
M  V30 6745 H 627.317 1.17076 5.13421 0
M  V30 6746 H 629.808 1.22884 3.57363 0
M  V30 6747 H 630.121 3.09602 7.08072 0
M  V30 6748 H 628.466 2.77796 6.37067 0
M  V30 6749 H 631.657 1.60157 4.39849 0
M  V30 6750 H 631.83 2.45281 5.99784 0
M  V30 6751 N 625.236 -1.5273 0.388769 0
M  V30 6752 C 626.146 -2.30165 -0.453993 0
M  V30 6753 C 627.162 -1.37058 -1.07197 0
M  V30 6754 O 628.338 -1.70127 -1.0779 0
M  V30 6755 C 625.403 -3.09303 -1.56628 0
M  V30 6756 C 624.464 -4.18117 -0.973467 0
M  V30 6757 C 623.697 -4.93472 -2.03275 0
M  V30 6758 O 623.92 -4.68913 -3.24772 0
M  V30 6759 O 622.854 -5.78833 -1.65034 0
M  V30 6760 H 626.68 -3.03185 0.176816 0
M  V30 6761 H 624.265 -1.4862 0.152501 0
M  V30 6762 H 626.147 -3.58648 -2.21246 0
M  V30 6763 H 624.822 -2.39098 -2.18206 0
M  V30 6764 H 623.729 -3.7297 -0.290556 0
M  V30 6765 H 625.062 -4.90556 -0.401908 0
M  V30 6766 N 626.714 -0.118576 -1.57153 0
M  V30 6767 C 627.962 0.538461 -1.94795 0
M  V30 6768 C 628.283 1.67243 -1.00274 0
M  V30 6769 O 627.553 1.95811 -0.0589692 0
M  V30 6770 H 626.133 0.201904 -0.719197 0
M  V30 6771 H 628.795 -0.187418 -1.93997 0
M  V30 6772 H 627.891 0.933315 -2.97818 0
M  V30 6773 N 628.193 1.56834 0.155195 0
M  V30 6774 C 629.123 2.00678 1.19376 0
M  V30 6775 C 630.104 0.884973 1.45266 0
M  V30 6776 O 631.289 1.1522 1.56326 0
M  V30 6777 C 628.419 2.38042 2.5289 0
M  V30 6778 C 627.373 3.53332 2.41538 0
M  V30 6779 C 626.699 3.76485 3.79688 0
M  V30 6780 C 627.999 4.86265 1.9064 0
M  V30 6781 H 629.693 2.87688 0.829232 0
M  V30 6782 H 627.239 1.38407 0.397445 0
M  V30 6783 H 629.192 2.67314 3.25763 0
M  V30 6784 H 627.916 1.4796 2.91162 0
M  V30 6785 H 626.575 3.24213 1.71117 0
M  V30 6786 H 626.223 2.83667 4.15382 0
M  V30 6787 H 625.923 4.54068 3.72956 0
M  V30 6788 H 627.447 4.08174 4.54122 0
M  V30 6789 H 628.861 5.14308 2.53299 0
M  V30 6790 H 627.258 5.67597 1.94818 0
M  V30 6791 H 628.328 4.77184 0.861596 0
M  V30 6792 N 629.671 -0.424282 1.51781 0
M  V30 6793 C 631.082 -1.00368 1.57427 0
M  V30 6794 C 631.433 -1.91962 0.40558 0
M  V30 6795 O 630.558 -2.111 -0.47601 0
M  V30 6796 C 631.153 -1.82707 2.85313 0
M  V30 6797 C 629.712 -2.35675 2.93487 0
M  V30 6798 C 628.859 -1.1524 2.5222 0
M  V30 6799 H 631.81 -0.205064 1.5737 0
M  V30 6800 H 631.831 -2.68294 2.69812 0
M  V30 6801 H 631.343 -1.16017 3.70353 0
M  V30 6802 H 629.444 -3.05781 2.12906 0
M  V30 6803 H 629.557 -2.67578 3.97415 0
M  V30 6804 H 627.921 -1.50174 2.05718 0
M  V30 6805 H 628.704 -0.5014 3.39619 0
M  V30 6806 N 631.149 -1.42148 -0.680565 0
M  V30 6807 C 632.395 -1.42521 -1.44277 0
M  V30 6808 C 632.728 -0.0393718 -1.9416 0
M  V30 6809 O 632.003 0.935425 -1.70529 0
M  V30 6810 C 632.286 -2.44475 -2.64394 0
M  V30 6811 C 632.139 -3.92226 -2.20179 0
M  V30 6812 C 633.458 -2.43491 -3.66606 0
M  V30 6813 H 630.577 -0.518985 -0.523282 0
M  V30 6814 H 633.219 -1.73524 -0.773914 0
M  V30 6815 H 631.369 -2.18168 -3.21458 0
M  V30 6816 H 633.041 -4.29493 -1.68327 0
M  V30 6817 H 631.284 -4.0637 -1.5181 0
M  V30 6818 H 631.955 -4.59133 -3.06433 0
M  V30 6819 H 634.431 -2.66872 -3.19247 0
M  V30 6820 H 633.307 -3.16816 -4.4824 0
M  V30 6821 H 633.568 -1.45881 -4.17338 0
M  V30 6822 N 632.627 0.916307 -1.28225 0
M  V30 6823 C 633.537 2.05165 -1.13775 0
M  V30 6824 C 634.553 1.73879 -0.0649418 0
M  V30 6825 O 635.729 1.99531 -0.273722 0
M  V30 6826 C 632.794 3.37385 -0.798267 0
M  V30 6827 C 631.855 3.82296 -1.95316 0
M  V30 6828 C 631.088 5.08206 -1.62978 0
M  V30 6829 O 631.311 5.6781 -0.542948 0
M  V30 6830 O 630.245 5.48768 -2.47261 0
M  V30 6831 H 634.071 2.20273 -2.09078 0
M  V30 6832 H 631.656 1.0373 -1.07519 0
M  V30 6833 H 633.538 4.16773 -0.62278 0
M  V30 6834 H 632.213 3.23458 0.125139 0
M  V30 6835 H 631.12 3.03746 -2.18378 0
M  V30 6836 H 632.453 4.00782 -2.85718 0
M  V30 6837 N 634.105 1.10431 1.1244 0
M  V30 6838 C 635.037 0.710945 2.17895 0
M  V30 6839 C 636.05 -0.252315 1.60833 0
M  V30 6840 O 637.239 -0.03679 1.78462 0
M  V30 6841 C 634.339 0.0284262 3.38888 0
M  V30 6842 C 633.512 1.01585 4.2544 0
M  V30 6843 C 632.571 0.364826 5.24934 0
M  V30 6844 O 631.597 1.01561 5.60066 0
M  V30 6845 N 632.799 -0.87674 5.73841 0
M  V30 6846 H 635.564 1.61826 2.52255 0
M  V30 6847 H 633.125 0.993132 1.27861 0
M  V30 6848 H 635.117 -0.418568 4.0253 0
M  V30 6849 H 633.687 -0.781294 3.02679 0
M  V30 6850 H 632.907 1.64111 3.58415 0
M  V30 6851 H 634.195 1.68425 4.80115 0
M  V30 6852 H 633.593 -1.42483 5.47462 0
M  V30 6853 H 632.15 -1.26688 6.39369 0
M  V30 6854 N 635.583 -1.29855 0.893053 0
M  V30 6855 C 636.999 -1.48366 0.588199 0
M  V30 6856 C 637.199 -1.81654 -0.872018 0
M  V30 6857 O 636.255 -1.909 -1.65268 0
M  V30 6858 C 637.568 -2.60136 1.5083 0
M  V30 6859 C 639.116 -2.74014 1.51279 0
M  V30 6860 C 639.591 -3.88905 2.41902 0
M  V30 6861 N 641.082 -3.96228 2.39911 0
M  V30 6862 C 641.817 -4.84458 3.06738 0
M  V30 6863 N 641.313 -5.77426 3.8282 0
M  V30 6864 N 643.106 -4.77894 2.95929 0
M  V30 6865 H 635.257 -1.06522 1.83757 0
M  V30 6866 H 637.52 -0.528495 0.787018 0
M  V30 6867 H 637.226 -2.42383 2.54839 0
M  V30 6868 H 637.1 -3.56793 1.22388 0
M  V30 6869 H 639.487 -2.91167 0.480179 0
M  V30 6870 H 639.568 -1.77952 1.83757 0
M  V30 6871 H 639.212 -3.72508 3.45253 0
M  V30 6872 H 639.142 -4.84322 2.06737 0
M  V30 6873 H 641.633 -3.29728 1.84629 0
M  V30 6874 H 641.946 -6.41529 4.30883 0
M  V30 6875 H 640.291 -5.77332 3.86927 0
M  V30 6876 H 643.482 -4.04248 2.36012 0
M  V30 6877 H 643.655 -5.46444 3.48286 0
M  V30 6878 N 637.061 -0.65484 -1.43351 0
M  V30 6879 C 638.009 0.0476784 -2.32551 0
M  V30 6880 C 639.003 0.811403 -1.48703 0
M  V30 6881 O 640.209 0.721621 -1.64902 0
M  V30 6882 H 636.584 0.0342038 -0.751222 0
M  V30 6883 H 638.555 -0.722342 -2.89525 0
M  V30 6884 C 637.304 0.999251 -3.33032 0
M  V30 6885 H 636.627 0.421005 -3.97577 0
M  V30 6886 H 638.067 1.45986 -3.98076 0
M  V30 6887 C 636.526 2.09606 -2.63756 0
M  V30 6888 O 637.056 3.18004 -2.4543 0
M  V30 6889 N 635.262 1.86207 -2.23103 0
M  V30 6890 H 634.809 0.980555 -2.38208 0
M  V30 6891 H 634.767 2.59787 -1.77081 0
M  V30 6892 N 638.539 1.52521 -0.396863 0
M  V30 6893 C 639.449 2.30403 0.44178 0
M  V30 6894 C 640.465 1.37625 1.06468 0
M  V30 6895 O 641.641 1.70697 1.06886 0
M  V30 6896 C 638.706 3.1013 1.54986 0
M  V30 6897 C 637.767 4.18628 0.951279 0
M  V30 6898 C 637 4.94543 2.00655 0
M  V30 6899 O 637.223 4.70629 3.22281 0
M  V30 6900 O 636.157 5.797 1.61962 0
M  V30 6901 H 639.983 3.03087 -0.192892 0
M  V30 6902 H 637.568 1.48537 -0.16038 0
M  V30 6903 H 639.45 3.59816 2.19341 0
M  V30 6904 H 638.125 2.40251 2.16935 0
M  V30 6905 H 637.032 3.73119 0.270773 0
M  V30 6906 H 638.365 4.90763 0.375887 0
M  V30 6907 N 640.017 0.126909 1.57088 0
M  V30 6908 C 641.266 -0.529024 1.94639 0
M  V30 6909 C 641.579 -1.67323 1.01304 0
M  V30 6910 O 642.785 -2.39245 1.28352 0
M  V30 6911 C 641.241 -0.992483 3.45945 0
M  V30 6912 C 640.849 0.123691 4.47829 0
M  V30 6913 C 642.593 -1.61934 3.924 0
M  V30 6914 C 640.5 -0.356911 5.90322 0
M  V30 6915 H 639.43 -0.201397 0.726605 0
M  V30 6916 H 642.081 0.208032 1.82317 0
M  V30 6917 H 640.463 -1.7842 3.53528 0
M  V30 6918 H 641.637 0.900168 4.51922 0
M  V30 6919 H 639.952 0.657699 4.11173 0
M  V30 6920 H 642.549 -1.9902 4.96281 0
M  V30 6921 H 642.892 -2.50075 3.32819 0
M  V30 6922 H 643.425 -0.892894 3.8765 0
M  V30 6923 H 640.164 0.488636 6.53676 0
M  V30 6924 H 639.684 -1.0997 5.89633 0
M  V30 6925 H 641.363 -0.815547 6.41839 0
M  V30 6926 N 641.495 -1.56914 -0.146875 0
M  V30 6927 C 642.425 -2.01308 -1.1831 0
M  V30 6928 C 643.406 -0.892664 -1.44795 0
M  V30 6929 O 644.591 -1.16048 -1.55713 0
M  V30 6930 C 641.721 -2.3938 -2.51624 0
M  V30 6931 C 640.675 -3.54608 -2.3966 0
M  V30 6932 C 640.001 -3.78493 -3.77686 0
M  V30 6933 C 641.301 -4.87269 -1.88058 0
M  V30 6934 H 642.995 -2.88123 -0.813964 0
M  V30 6935 H 640.541 -1.38615 -0.3901 0
M  V30 6936 H 642.494 -2.69037 -3.24341 0
M  V30 6937 H 641.218 -1.49502 -2.90373 0
M  V30 6938 H 639.877 -3.25116 -1.69396 0
M  V30 6939 H 639.525 -2.85866 -4.13871 0
M  V30 6940 H 639.225 -4.56039 -3.70543 0
M  V30 6941 H 640.749 -4.10576 -4.51951 0
M  V30 6942 H 642.163 -5.15644 -2.50568 0
M  V30 6943 H 640.56 -5.68622 -1.91805 0
M  V30 6944 H 641.63 -4.77634 -0.836277 0
M  V30 6945 N 642.974 0.416227 -1.52004 0
M  V30 6946 C 644.202 1.18573 -1.69553 0
M  V30 6947 C 644.617 1.84472 -0.401919 0
M  V30 6948 O 643.974 1.71593 0.621463 0
M  V30 6949 C 644.025 2.25413 -2.82615 0
M  V30 6950 O 643.746 1.62205 -4.06966 0
M  V30 6951 C 645.247 3.15297 -3.11613 0
M  V30 6952 H 642.467 0.356582 -0.56841 0
M  V30 6953 H 645.011 0.490618 -1.98528 0
M  V30 6954 H 643.166 2.90604 -2.56179 0
M  V30 6955 H 643.58 2.3298 -4.69916 0
M  V30 6956 H 645.054 3.86351 -3.94255 0
M  V30 6957 H 645.531 3.77264 -2.24874 0
M  V30 6958 H 646.137 2.55783 -3.39787 0
M  V30 6959 N 644.452 1.42507 0.673017 0
M  V30 6960 C 645.415 1.4582 1.76831 0
M  V30 6961 C 646.415 0.345542 1.57043 0
M  V30 6962 O 647.605 0.606447 1.63303 0
M  V30 6963 C 644.737 1.29158 3.15485 0
M  V30 6964 H 645.93 2.43345 1.7528 0
M  V30 6965 H 643.483 1.28981 0.882817 0
M  V30 6966 H 644.218 0.325626 3.22661 0
M  V30 6967 H 644.003 2.09797 3.31252 0
M  V30 6968 H 645.493 1.34363 3.95394 0
M  V30 6969 N 645.93 -0.909495 1.28709 0
M  V30 6970 C 647.179 -1.65365 1.15487 0
M  V30 6971 C 647.492 -1.93364 -0.294941 0
M  V30 6972 O 648.698 -2.65905 -0.548338 0
M  V30 6973 C 647.154 -2.97923 2.01916 0
M  V30 6974 C 646.762 -2.77556 3.51663 0
M  V30 6975 C 648.506 -3.75814 1.97393 0
M  V30 6976 C 646.413 -4.0578 4.30229 0
M  V30 6977 H 645.343 -0.620323 0.42862 0
M  V30 6978 H 647.994 -1.00894 1.53273 0
M  V30 6979 H 646.376 -3.63552 1.5699 0
M  V30 6980 H 647.55 -2.2058 4.04575 0
M  V30 6981 H 645.865 -2.13072 3.57756 0
M  V30 6982 H 648.462 -4.70866 2.53357 0
M  V30 6983 H 648.805 -4.05277 0.951643 0
M  V30 6984 H 649.338 -3.1701 2.40311 0
M  V30 6985 H 646.077 -3.81488 5.33055 0
M  V30 6986 H 645.597 -4.62351 3.82089 0
M  V30 6987 H 647.276 -4.74004 4.40374 0
M  V30 6988 N 647.408 -1.11026 -1.11852 0
M  V30 6989 C 648.338 -0.786812 -2.19844 0
M  V30 6990 C 649.319 0.242935 -1.68356 0
M  V30 6991 O 650.504 0.107355 -1.93903 0
M  V30 6992 C 647.634 -0.224516 -3.46574 0
M  V30 6993 C 646.588 -1.18564 -4.1125 0
M  V30 6994 C 645.914 -0.484261 -5.32503 0
M  V30 6995 C 647.214 -2.53465 -4.56676 0
M  V30 6996 H 648.908 -1.68978 -2.47158 0
M  V30 6997 H 646.454 -0.813906 -1.18792 0
M  V30 6998 H 648.407 0.0139435 -4.21398 0
M  V30 6999 H 647.131 0.713722 -3.18706 0
M  V30 7000 H 645.79 -1.40966 -3.38414 0
M  V30 7001 H 645.438 0.458646 -5.00905 0
M  V30 7002 H 645.138 -1.12526 -5.76725 0
M  V30 7003 H 646.662 -0.254492 -6.10069 0
M  V30 7004 H 648.076 -2.35177 -5.22843 0
M  V30 7005 H 646.473 -3.13507 -5.11697 0
M  V30 7006 H 647.543 -3.13008 -3.70343 0
M  V30 7007 N 648.886 1.2938 -0.899927 0
M  V30 7008 C 649.849 2.25983 -0.382677 0
M  V30 7009 C 650.849 1.53366 0.483259 0
M  V30 7010 O 652.039 1.71798 0.28828 0
M  V30 7011 C 649.171 3.37878 0.452915 0
M  V30 7012 H 650.364 2.73252 -1.23586 0
M  V30 7013 H 647.917 1.40825 -0.678088 0
M  V30 7014 H 648.652 2.95949 1.32608 0
M  V30 7015 H 648.437 3.91742 -0.167562 0
M  V30 7016 H 649.927 4.09746 0.806107 0
M  V30 7017 N 650.364 0.662433 1.43002 0
M  V30 7018 C 651.589 0.186003 2.06564 0
M  V30 7019 C 652.014 -1.14314 1.49379 0
M  V30 7020 O 651.372 -1.70824 0.607346 0
M  V30 7021 C 651.42 0.118269 3.60406 0
M  V30 7022 O 650.524 -0.916859 4.02079 0
M  V30 7023 H 649.865 0.0990981 0.656563 0
M  V30 7024 H 652.395 0.907958 1.8335 0
M  V30 7025 H 652.405 -0.0619981 4.07953 0
M  V30 7026 H 651.08 1.08849 4.01403 0
M  V30 7027 H 649.657 -0.708635 3.66105 0
M  V30 7028 N 651.842 -1.52309 0.404946 0
M  V30 7029 C 652.772 -2.29805 -0.41376 0
M  V30 7030 C 653.753 -1.3384 -1.0498 0
M  V30 7031 O 654.938 -1.62745 -1.05961 0
M  V30 7032 C 652.068 -3.11639 -1.53292 0
M  V30 7033 C 651.022 -4.15616 -1.02211 0
M  V30 7034 C 650.348 -4.8577 -2.23455 0
M  V30 7035 C 651.648 -5.2224 -0.0790725 0
M  V30 7036 H 653.342 -2.98493 0.232878 0
M  V30 7037 H 650.888 -1.43552 0.113441 0
M  V30 7038 H 652.841 -3.64618 -2.11262 0
M  V30 7039 H 651.565 -2.40712 -2.20738 0
M  V30 7040 H 650.224 -3.63641 -0.46484 0
M  V30 7041 H 649.872 -4.11376 -2.89445 0
M  V30 7042 H 649.572 -5.56058 -1.89929 0
M  V30 7043 H 651.096 -5.4156 -2.82038 0
M  V30 7044 H 652.51 -5.70485 -0.567438 0
M  V30 7045 H 650.907 -5.99867 0.167167 0
M  V30 7046 H 651.977 -4.77078 0.867447 0
M  V30 7047 N 653.32 -0.135238 -1.57019 0
M  V30 7048 C 654.548 0.526066 -2.001 0
M  V30 7049 C 654.963 1.59184 -1.01519 0
M  V30 7050 O 654.32 1.82497 -0.0104258 0
M  V30 7051 C 654.371 1.13744 -3.43139 0
M  V30 7052 O 654.092 0.114259 -4.37951 0
M  V30 7053 C 655.593 1.8805 -4.01438 0
M  V30 7054 H 652.813 0.137962 -0.656664 0
M  V30 7055 H 655.357 -0.226359 -2.03243 0
M  V30 7056 H 653.512 1.84056 -3.40885 0
M  V30 7057 H 653.926 0.56058 -5.21496 0
M  V30 7058 H 655.4 2.26133 -5.03555 0
M  V30 7059 H 655.877 2.76194 -3.41487 0
M  V30 7060 H 656.483 1.22464 -4.07287 0
M  V30 7061 N 654.798 1.5699 0.138552 0
M  V30 7062 C 655.761 1.97984 1.15478 0
M  V30 7063 C 656.761 0.867416 1.35398 0
M  V30 7064 O 657.951 1.13387 1.32246 0
M  V30 7065 C 655.083 2.3031 2.51337 0
M  V30 7066 H 656.276 2.88953 0.802896 0
M  V30 7067 H 653.829 1.51555 0.382189 0
M  V30 7068 H 654.564 1.42159 2.91481 0
M  V30 7069 H 654.349 3.11425 2.38237 0
M  V30 7070 H 655.839 2.62834 3.24512 0
M  V30 7071 N 656.276 -0.40816 1.52223 0
M  V30 7072 C 657.692 -0.74685 1.41047 0
M  V30 7073 C 657.892 -1.94788 0.51573 0
M  V30 7074 O 656.948 -2.52494 -0.0181156 0
M  V30 7075 C 658.261 -0.999878 2.83589 0
M  V30 7076 C 659.809 -1.10253 2.92939 0
M  V30 7077 C 660.284 -1.38832 4.36451 0
M  V30 7078 N 661.775 -1.45694 4.3969 0
M  V30 7079 C 662.51 -1.69435 5.47795 0
M  V30 7080 N 662.006 -1.90774 6.66016 0
M  V30 7081 N 663.799 -1.71458 5.35312 0
M  V30 7082 H 655.95 0.382409 2.08929 0
M  V30 7083 H 658.213 0.108807 0.941735 0
M  V30 7084 H 657.919 -0.189723 3.51188 0
M  V30 7085 H 657.793 -1.91978 3.24691 0
M  V30 7086 H 660.18 -1.90328 2.2552 0
M  V30 7087 H 660.261 -0.160973 2.55293 0
M  V30 7088 H 659.905 -0.592741 5.04429 0
M  V30 7089 H 659.835 -2.34241 4.71634 0
M  V30 7090 H 662.326 -1.3099 3.54472 0
M  V30 7091 H 662.639 -2.08342 7.44186 0
M  V30 7092 H 660.984 -1.88037 6.69079 0
M  V30 7093 H 664.175 -1.54326 4.41929 0
M  V30 7094 H 664.348 -1.89621 6.19635 0
M  V30 7095 N 657.755 -1.42862 -0.66545 0
M  V30 7096 C 658.687 -1.43026 -1.79098 0
M  V30 7097 C 659.7 -0.32803 -1.59461 0
M  V30 7098 O 660.889 -0.591709 -1.68407 0
M  V30 7099 C 657.989 -1.21566 -3.16346 0
M  V30 7100 C 657.162 -2.44399 -3.62751 0
M  V30 7101 C 656.221 -2.18344 -4.78761 0
M  V30 7102 O 655.247 -2.91611 -4.88827 0
M  V30 7103 N 656.449 -1.1924 -5.68122 0
M  V30 7104 H 659.214 -2.40045 -1.79439 0
M  V30 7105 H 656.775 -1.37861 -0.848872 0
M  V30 7106 H 658.767 -1.02037 -3.91625 0
M  V30 7107 H 657.337 -0.330368 -3.10849 0
M  V30 7108 H 656.557 -2.79433 -2.78048 0
M  V30 7109 H 657.845 -3.26173 -3.90498 0
M  V30 7110 H 657.243 -0.586603 -5.6265 0
M  V30 7111 H 655.8 -1.05698 -6.43173 0
M  V30 7112 N 659.233 0.902656 -1.29189 0
M  V30 7113 C 660.181 2.0278 -1.13943 0
M  V30 7114 C 661.175 1.69308 -0.055787 0
M  V30 7115 O 662.381 1.78707 -0.215371 0
M  V30 7116 H 658.756 0.664595 -0.351877 0
M  V30 7117 H 660.727 2.12778 -2.09208 0
M  V30 7118 C 659.476 3.37657 -0.82966 0
M  V30 7119 H 658.799 3.63913 -1.65551 0
M  V30 7120 H 660.239 4.17078 -0.762998 0
M  V30 7121 C 658.698 3.33648 0.466991 0
M  V30 7122 O 659.228 3.72886 1.49395 0
M  V30 7123 N 657.434 2.86745 0.471761 0
M  V30 7124 H 656.981 2.55009 -0.364406 0
M  V30 7125 H 656.939 2.84446 1.33933 0
M  V30 7126 N 660.711 1.11618 1.11262 0
M  V30 7127 C 661.641 0.79846 2.19424 0
M  V30 7128 C 662.622 -0.234003 1.68483 0
M  V30 7129 O 663.807 -0.0970704 1.93957 0
M  V30 7130 C 660.937 0.242892 3.4645 0
M  V30 7131 C 659.891 1.20744 4.10615 0
M  V30 7132 C 659.217 0.512494 5.32238 0
M  V30 7133 C 660.517 2.55884 4.55325 0
M  V30 7134 H 662.211 1.70286 2.46258 0
M  V30 7135 H 659.757 0.820195 1.18359 0
M  V30 7136 H 661.71 0.00840447 4.21399 0
M  V30 7137 H 660.434 -0.696811 3.1908 0
M  V30 7138 H 659.093 1.42759 3.37662 0
M  V30 7139 H 658.741 -0.432075 5.01141 0
M  V30 7140 H 658.441 1.15583 5.7612 0
M  V30 7141 H 659.965 0.286842 6.09926 0
M  V30 7142 H 661.379 2.37946 5.21588 0
M  V30 7143 H 659.776 3.16216 5.10027 0
M  V30 7144 H 660.846 3.14968 3.68678 0
M  V30 7145 N 662.189 -1.289 0.906776 0
M  V30 7146 C 663.605 -1.47733 0.603902 0
M  V30 7147 C 663.805 -1.82568 -0.852702 0
M  V30 7148 O 662.861 -1.92642 -1.63234 0
M  V30 7149 C 664.174 -2.58522 1.53581 0
M  V30 7150 C 665.722 -2.72394 1.54177 0
M  V30 7151 C 666.197 -3.86318 2.46013 0
M  V30 7152 N 667.688 -3.93661 2.441 0
M  V30 7153 C 668.423 -4.81177 3.11859 0
M  V30 7154 N 667.919 -5.73333 3.88923 0
M  V30 7155 N 669.712 -4.74728 3.00981 0
M  V30 7156 H 661.863 -1.04567 1.84877 0
M  V30 7157 H 664.126 -0.520118 0.792579 0
M  V30 7158 H 663.832 -2.39667 2.57396 0
M  V30 7159 H 663.706 -3.55475 1.26165 0
M  V30 7160 H 666.093 -2.90641 0.511034 0
M  V30 7161 H 666.174 -1.75993 1.85634 0
M  V30 7162 H 665.818 -3.68826 3.49185 0
M  V30 7163 H 665.748 -4.82102 2.11862 0
M  V30 7164 H 668.239 -3.27751 1.88115 0
M  V30 7165 H 668.552 -6.36923 4.37663 0
M  V30 7166 H 666.897 -5.73196 3.93029 0
M  V30 7167 H 670.088 -4.01722 2.40286 0
M  V30 7168 H 670.261 -5.42719 3.54062 0
M  V30 7169 N 663.667 -0.670007 -1.42649 0
M  V30 7170 C 665.083 -0.33911 -1.55956 0
M  V30 7171 C 665.283 1.1558 -1.65056 0
M  V30 7172 O 664.339 1.94111 -1.61485 0
M  V30 7173 C 665.652 -1.06522 -2.812 0
M  V30 7174 C 667.2 -1.04708 -2.94966 0
M  V30 7175 C 667.675 -1.75442 -4.23065 0
M  V30 7176 N 669.166 -1.72286 -4.29967 0
M  V30 7177 C 669.901 -2.23877 -5.27889 0
M  V30 7178 N 669.397 -2.83829 -6.31991 0
M  V30 7179 N 671.19 -2.14279 -5.19654 0
M  V30 7180 H 663.341 -1.6399 -1.34986 0
M  V30 7181 H 665.604 -0.690603 -0.649439 0
M  V30 7182 H 665.31 -2.12033 -2.80597 0
M  V30 7183 H 665.184 -0.627398 -3.71946 0
M  V30 7184 H 667.571 -0.000315966 -2.951 0
M  V30 7185 H 667.652 -1.52374 -2.05465 0
M  V30 7186 H 667.296 -2.80084 -4.23693 0
M  V30 7187 H 667.226 -1.25229 -5.11493 0
M  V30 7188 H 669.717 -1.28554 -3.55362 0
M  V30 7189 H 670.03 -3.20827 -7.03057 0
M  V30 7190 H 668.375 -2.87896 -6.32567 0
M  V30 7191 H 671.566 -1.67135 -4.37245 0
M  V30 7192 H 671.739 -2.54792 -5.95806 0
M  V30 7193 N 665.145 1.52092 -0.413018 0
M  V30 7194 C 666.055 2.30858 0.417318 0
M  V30 7195 C 667.071 1.38746 1.05003 0
M  V30 7196 O 668.247 1.71821 1.05069 0
M  V30 7197 C 665.312 3.11756 1.51687 0
M  V30 7198 C 664.373 4.19613 0.906825 0
M  V30 7199 C 663.606 4.96644 1.95399 0
M  V30 7200 O 663.829 4.7402 3.17271 0
M  V30 7201 O 662.763 5.81385 1.55805 0
M  V30 7202 H 666.589 3.02865 -0.225028 0
M  V30 7203 H 664.174 1.48358 -0.176126 0
M  V30 7204 H 666.056 3.62122 2.15512 0
M  V30 7205 H 664.731 2.42539 2.14375 0
M  V30 7206 H 663.638 3.73385 0.231183 0
M  V30 7207 H 664.971 4.91134 0.323814 0
M  V30 7208 N 666.623 0.143563 1.56945 0
M  V30 7209 C 667.869 -0.502787 1.97088 0
M  V30 7210 C 668.224 -1.62703 1.02691 0
M  V30 7211 O 667.517 -1.91502 0.0613323 0
M  V30 7212 C 667.711 -1.05885 3.41355 0
M  V30 7213 C 667.54 0.00998209 4.49699 0
M  V30 7214 C 666.31 0.450229 5.0329 0
M  V30 7215 C 668.508 0.800174 5.08037 0
M  V30 7216 N 666.49 1.50227 5.95235 0
M  V30 7217 C 667.861 1.70279 5.96158 0
M  V30 7218 C 669.916 0.848344 4.9062 0
M  V30 7219 C 668.619 2.64945 6.68728 0
M  V30 7220 C 670.645 1.78281 5.63888 0
M  V30 7221 C 670.007 2.67296 6.51715 0
M  V30 7222 H 666.106 -0.152891 0.766908 0
M  V30 7223 H 668.69 0.23737 1.93248 0
M  V30 7224 H 666.861 -1.76863 3.45795 0
M  V30 7225 H 668.593 -1.67154 3.68567 0
M  V30 7226 H 665.348 0.0531355 4.7357 0
M  V30 7227 H 665.772 2.02795 6.45913 0
M  V30 7228 H 670.414 0.174228 4.22441 0
M  V30 7229 H 668.132 3.33358 7.36137 0
M  V30 7230 H 671.718 1.82584 5.52408 0
M  V30 7231 H 670.598 3.38428 7.07415 0
M  V30 7232 N 668.101 -1.57061 -0.130224 0
M  V30 7233 C 669.051 -1.95941 -1.16582 0
M  V30 7234 C 670.035 -0.832858 -1.37667 0
M  V30 7235 O 671.227 -1.09647 -1.38948 0
M  V30 7236 C 668.356 -2.35777 -2.49528 0
M  V30 7237 C 667.442 -3.5504 -2.31964 0
M  V30 7238 N 667.833 -4.71071 -1.84189 0
M  V30 7239 C 666.131 -3.60453 -2.62659 0
M  V30 7240 C 666.832 -5.53128 -1.80068 0
M  V30 7241 N 665.808 -4.95303 -2.24001 0
M  V30 7242 H 669.61 -2.83117 -0.788806 0
M  V30 7243 H 667.124 -1.58842 -0.3381 0
M  V30 7244 H 669.121 -2.61843 -3.24413 0
M  V30 7245 H 667.781 -1.49961 -2.87996 0
M  V30 7246 H 668.792 -4.94504 -1.53903 0
M  V30 7247 H 665.469 -2.85217 -3.0489 0
M  V30 7248 H 666.859 -6.56182 -1.4448 0
M  V30 7249 N 669.579 0.400081 -1.52437 0
M  V30 7250 C 670.542 1.4707 -1.75793 0
M  V30 7251 C 671.542 1.48036 -0.627856 0
M  V30 7252 O 672.732 1.49401 -0.895817 0
M  V30 7253 C 669.864 2.86427 -1.84858 0
M  V30 7254 H 671.057 1.27649 -2.71377 0
M  V30 7255 H 668.61 0.631141 -1.42991 0
M  V30 7256 H 669.345 3.11207 -0.912194 0
M  V30 7257 H 669.13 2.87128 -2.6702 0
M  V30 7258 H 670.62 3.64023 -2.04638 0
M  V30 7259 N 671.057 1.43213 0.657864 0
M  V30 7260 C 672.473 1.26511 0.972992 0
M  V30 7261 C 672.673 0.181477 2.00681 0
M  V30 7262 O 671.729 -0.441649 2.48608 0
M  V30 7263 C 673.042 2.62784 1.46168 0
M  V30 7264 C 674.59 2.70278 1.57857 0
M  V30 7265 C 675.065 4.06958 2.10117 0
M  V30 7266 N 676.556 4.08999 2.17426 0
M  V30 7267 C 677.291 5.11585 2.58975 0
M  V30 7268 N 676.787 6.24548 2.99853 0
M  V30 7269 N 678.58 4.9894 2.58873 0
M  V30 7270 H 670.731 2.12384 -0.0263129 0
M  V30 7271 H 672.994 0.946638 0.0507992 0
M  V30 7272 H 672.7 3.43022 0.776474 0
M  V30 7273 H 672.574 2.87863 2.43751 0
M  V30 7274 H 674.961 1.90376 2.25479 0
M  V30 7275 H 675.042 2.4897 0.587179 0
M  V30 7276 H 674.686 4.87325 1.43098 0
M  V30 7277 H 674.616 4.25628 3.10078 0
M  V30 7278 H 677.107 3.27457 1.88627 0
M  V30 7279 H 677.42 6.98661 3.30292 0
M  V30 7280 H 675.765 6.28027 2.97669 0
M  V30 7281 H 678.956 4.09757 2.26311 0
M  V30 7282 H 679.129 5.79019 2.90932 0
M  V30 7283 N 672.536 -0.895792 1.29666 0
M  V30 7284 C 673.776 -1.6609 1.19136 0
M  V30 7285 C 674.14 -1.90336 -0.252245 0
M  V30 7286 O 675.341 -2.64469 -0.480593 0
M  V30 7287 C 673.612 -2.97129 1.98618 0
M  V30 7288 S 675.171 -3.88146 2.04666 0
M  V30 7289 H 671.989 -0.570188 0.424744 0
M  V30 7290 H 674.591 -1.06411 1.64003 0
M  V30 7291 H 673.295 -2.77199 3.02637 0
M  V30 7292 H 672.826 -3.61847 1.54371 0
M  V30 7293 H 674.841 -4.82301 1.16618 0
M  V30 7294 N 674.014 -1.12206 -1.10668 0
M  V30 7295 C 674.946 -0.74552 -2.16736 0
M  V30 7296 C 675.959 0.226696 -1.61214 0
M  V30 7297 O 677.148 0.0083936 -1.78498 0
M  V30 7298 C 674.248 -0.0823368 -3.388 0
M  V30 7299 C 673.421 -1.08341 -4.2377 0
M  V30 7300 C 672.48 -0.448292 -5.24287 0
M  V30 7301 O 671.506 -1.10458 -5.58379 0
M  V30 7302 N 672.708 0.785336 -5.75163 0
M  V30 7303 H 675.473 -1.65818 -2.49649 0
M  V30 7304 H 673.034 -1.01335 -1.26265 0
M  V30 7305 H 675.026 0.354476 -4.03145 0
M  V30 7306 H 673.596 0.733041 -3.03884 0
M  V30 7307 H 672.816 -1.69792 -3.55759 0
M  V30 7308 H 674.104 -1.76042 -4.77375 0
M  V30 7309 H 673.502 1.33755 -5.4966 0
M  V30 7310 H 672.059 1.16501 -6.41304 0
M  V30 7311 N 675.492 1.28418 -0.913599 0
M  V30 7312 C 676.717 1.99643 -0.561899 0
M  V30 7313 C 677.142 1.67819 0.849608 0
M  V30 7314 O 676.5 0.910503 1.56779 0
M  V30 7315 C 676.548 3.52116 -0.777622 0
M  V30 7316 O 675.652 4.12076 0.163457 0
M  V30 7317 H 674.993 0.627229 -0.217898 0
M  V30 7318 H 677.523 1.63575 -1.229 0
M  V30 7319 H 677.533 4.02163 -0.687666 0
M  V30 7320 H 676.208 3.74613 -1.8066 0
M  V30 7321 H 674.785 3.72892 0.0247827 0
M  V30 7322 N 676.97 0.677563 1.42291 0
M  V30 7323 C 678.386 0.347376 1.55774 0
M  V30 7324 C 678.586 -1.14703 1.65667 0
M  V30 7325 O 677.642 -1.93252 1.62512 0
M  V30 7326 C 678.955 1.08011 2.80631 0
M  V30 7327 C 680.503 1.06271 2.94407 0
M  V30 7328 C 680.978 1.77683 4.22129 0
M  V30 7329 N 682.469 1.74564 4.29047 0
M  V30 7330 C 683.204 2.26673 5.26694 0
M  V30 7331 N 682.7 2.87176 6.30477 0
M  V30 7332 N 684.493 2.17032 5.18511 0
M  V30 7333 H 676.644 1.64703 1.34114 0
M  V30 7334 H 678.907 0.694038 0.645768 0
M  V30 7335 H 678.613 2.13518 2.79469 0
M  V30 7336 H 678.487 0.647115 3.71608 0
M  V30 7337 H 680.874 0.0159658 2.95096 0
M  V30 7338 H 680.955 1.53461 2.04654 0
M  V30 7339 H 680.599 2.82327 4.22201 0
M  V30 7340 H 680.529 1.2794 5.10822 0
M  V30 7341 H 683.02 1.30436 3.54676 0
M  V30 7342 H 683.333 3.24551 7.01346 0
M  V30 7343 H 681.678 2.91247 6.31031 0
M  V30 7344 H 684.869 1.69451 4.36353 0
M  V30 7345 H 685.042 2.57948 5.94446 0
M  V30 7346 N 678.448 -1.51871 0.421078 0
M  V30 7347 C 679.697 -2.01125 -0.152206 0
M  V30 7348 C 680.01 -1.3106 -1.45199 0
M  V30 7349 O 681.216 -1.71195 -2.10724 0
M  V30 7350 C 679.672 -3.58458 -0.3218 0
M  V30 7351 C 679.28 -4.37448 0.96659 0
M  V30 7352 C 681.024 -4.15908 -0.84973 0
M  V30 7353 C 678.931 -5.86451 0.763529 0
M  V30 7354 H 677.861 -0.751556 -0.0606565 0
M  V30 7355 H 680.512 -1.75115 0.548354 0
M  V30 7356 H 678.894 -3.80847 -1.08498 0
M  V30 7357 H 680.068 -4.26814 1.73684 0
M  V30 7358 H 678.383 -3.91373 1.42183 0
M  V30 7359 H 680.98 -5.24922 -1.01788 0
M  V30 7360 H 681.323 -3.74031 -1.82774 0
M  V30 7361 H 681.856 -3.97535 -0.145297 0
M  V30 7362 H 678.595 -6.3271 1.71344 0
M  V30 7363 H 678.115 -5.99791 0.0327889 0
M  V30 7364 H 679.794 -6.45697 0.410354 0
M  V30 7365 N 679.926 -0.151884 -1.56866 0
M  V30 7366 C 680.889 0.771861 -2.15812 0
M  V30 7367 C 681.889 1.17181 -1.10115 0
M  V30 7368 O 683.079 1.09194 -1.35729 0
M  V30 7369 C 680.211 2.04806 -2.7252 0
M  V30 7370 H 681.404 0.259021 -2.98779 0
M  V30 7371 H 678.957 0.097588 -1.55995 0
M  V30 7372 H 679.692 2.60445 -1.93233 0
M  V30 7373 H 679.477 1.77044 -3.49854 0
M  V30 7374 H 680.967 2.70771 -3.1792 0
M  V30 7375 N 681.404 1.57128 0.121893 0
M  V30 7376 C 682.82 1.52357 0.47534 0
M  V30 7377 C 683.02 0.864417 1.82017 0
M  V30 7378 O 682.076 0.445529 2.48538 0
M  V30 7379 C 683.389 2.97122 0.4625 0
M  V30 7380 C 684.937 3.08196 0.546255 0
M  V30 7381 C 685.412 4.54516 0.563833 0
M  V30 7382 N 686.903 4.58959 0.625353 0
M  V30 7383 C 687.638 5.69585 0.660354 0
M  V30 7384 N 687.134 6.89714 0.653175 0
M  V30 7385 N 688.927 5.57685 0.703143 0
M  V30 7386 H 681.078 1.98364 -0.75931 0
M  V30 7387 H 683.341 0.905777 -0.279772 0
M  V30 7388 H 683.047 3.48706 -0.457943 0
M  V30 7389 H 682.921 3.54406 1.29136 0
M  V30 7390 H 685.308 2.56617 1.45712 0
M  V30 7391 H 685.389 2.53912 -0.310234 0
M  V30 7392 H 685.033 5.06741 -0.342974 0
M  V30 7393 H 684.963 5.06609 1.43716 0
M  V30 7394 H 687.454 3.72489 0.637182 0
M  V30 7395 H 687.767 7.69781 0.682425 0
M  V30 7396 H 686.112 6.92223 0.620646 0
M  V30 7397 H 689.303 4.62744 0.706095 0
M  V30 7398 H 689.476 6.43909 0.726952 0
M  V30 7399 N 682.882 -0.391992 1.52647 0
M  V30 7400 C 684.11 -1.1586 1.71418 0
M  V30 7401 C 684.525 -1.8381 0.431216 0
M  V30 7402 O 683.882 -1.7256 -0.594085 0
M  V30 7403 C 683.933 -2.20888 2.86165 0
M  V30 7404 O 683.654 -1.5571 4.09495 0
M  V30 7405 C 685.155 -3.103 3.1659 0
M  V30 7406 H 682.375 -0.347494 0.574011 0
M  V30 7407 H 684.919 -0.458972 1.99283 0
M  V30 7408 H 683.074 -2.86492 2.6077 0
M  V30 7409 H 683.488 -2.25474 4.73563 0
M  V30 7410 H 684.962 -3.8003 4.00351 0
M  V30 7411 H 685.439 -3.73639 2.30848 0
M  V30 7412 H 686.045 -2.50345 3.43813 0
M  V30 7413 N 684.36 -1.4356 -0.65026 0
M  V30 7414 C 685.29 -1.51758 -1.77459 0
M  V30 7415 C 686.271 -0.372019 -1.65982 0
M  V30 7416 O 687.456 -0.589627 -1.85033 0
M  V30 7417 C 684.586 -1.44302 -3.15902 0
M  V30 7418 C 683.54 -2.57138 -3.42146 0
M  V30 7419 C 682.866 -2.34735 -4.8042 0
M  V30 7420 C 684.166 -3.99373 -3.36598 0
M  V30 7421 H 685.86 -2.45863 -1.70855 0
M  V30 7422 H 683.406 -1.18333 -0.820566 0
M  V30 7423 H 685.359 -1.48641 -3.94314 0
M  V30 7424 H 684.083 -0.467026 -3.23244 0
M  V30 7425 H 682.742 -2.52157 -2.66106 0
M  V30 7426 H 682.39 -1.35372 -4.84441 0
M  V30 7427 H 682.09 -3.10375 -4.9894 0
M  V30 7428 H 683.614 -2.40862 -5.61086 0
M  V30 7429 H 685.028 -4.05826 -4.04942 0
M  V30 7430 H 683.425 -4.75063 -3.66654 0
M  V30 7431 H 684.495 -4.243 -2.34729 0
M  V30 7432 N 685.838 0.888903 -1.30139 0
M  V30 7433 C 687.249 1.45578 -1.16893 0
M  V30 7434 C 687.6 1.94825 0.231866 0
M  V30 7435 O 686.725 1.84661 1.12824 0
M  V30 7436 C 687.32 2.646 -2.11595 0
M  V30 7437 C 685.879 3.17389 -2.02339 0
M  V30 7438 C 685.026 1.90081 -2.01902 0
M  V30 7439 H 687.977 0.69921 -1.42467 0
M  V30 7440 H 687.998 3.40687 -1.69449 0
M  V30 7441 H 687.51 2.28726 -3.13538 0
M  V30 7442 H 685.611 3.5793 -1.03523 0
M  V30 7443 H 685.724 3.80955 -2.90534 0
M  V30 7444 H 684.088 2.08246 -1.46648 0
M  V30 7445 H 684.871 1.5647 -3.05568 0
M  V30 7446 N 687.317 1.12792 1.10072 0
M  V30 7447 C 688.28 0.802264 2.14701 0
M  V30 7448 C 689.28 -0.18515 1.59731 0
M  V30 7449 O 690.47 0.041109 1.74151 0
M  V30 7450 C 687.602 0.19285 3.40354 0
M  V30 7451 H 688.795 1.72932 2.45019 0
M  V30 7452 H 686.348 0.931662 1.25498 0
M  V30 7453 H 687.083 -0.743748 3.15656 0
M  V30 7454 H 686.868 0.903827 3.81541 0
M  V30 7455 H 688.358 -0.0183704 4.17596 0
M  V30 7456 N 688.795 -1.27931 0.920396 0
M  V30 7457 C 690.072 -1.89728 0.475687 0
M  V30 7458 C 690.452 -1.8337 -1.04588 0
M  V30 7459 O 689.8 -1.27404 -1.89685 0
M  V30 7460 C 690.01 -3.33959 1.01354 0
M  V30 7461 C 691.358 -4.10907 1.06963 0
M  V30 7462 O 692.382 -3.42945 0.962646 0
M  V30 7463 O 691.241 -5.32399 1.23343 0
M  V30 7464 H 688.335 -0.81294 0.151845 0
M  V30 7465 H 690.881 -1.36252 1.01161 0
M  V30 7466 H 689.653 -3.32843 2.05746 0
M  V30 7467 H 689.276 -3.94944 0.458829 0
M  V30 7468 N 690.273 -0.685099 -1.4193 0
M  V30 7469 C 691.205 0.0258679 -2.29185 0
M  V30 7470 C 692.218 0.755076 -1.44231 0
M  V30 7471 O 693.407 0.60752 -1.67844 0
M  V30 7472 C 690.507 1.06055 -3.21878 0
M  V30 7473 C 689.68 0.403088 -4.35539 0
M  V30 7474 C 688.739 1.33895 -5.0888 0
M  V30 7475 O 687.765 0.835326 -5.63037 0
M  V30 7476 N 688.967 2.6718 -5.15359 0
M  V30 7477 H 691.732 -0.723201 -2.90843 0
M  V30 7478 H 689.293 -0.53031 -1.52968 0
M  V30 7479 H 691.285 1.68813 -3.6781 0
M  V30 7480 H 689.855 1.71126 -2.616 0
M  V30 7481 H 689.075 -0.404185 -3.92122 0
M  V30 7482 H 690.363 -0.0545098 -5.08771 0
M  V30 7483 H 689.761 3.10626 -4.72788 0
M  V30 7484 H 688.318 3.25159 -5.64903 0
M  V30 7485 N 691.751 1.51645 -0.429126 0
M  V30 7486 C 692.698 2.27542 0.386446 0
M  V30 7487 C 693.668 1.30786 1.02393 0
M  V30 7488 O 694.853 1.59678 1.0444 0
M  V30 7489 C 691.993 3.11457 1.48623 0
M  V30 7490 C 691.106 4.23196 0.867691 0
M  V30 7491 C 690.241 4.94435 1.94183 0
M  V30 7492 C 689.28 5.98108 1.30129 0
M  V30 7493 N 688.417 6.62786 2.31644 0
M  V30 7494 H 693.257 2.968 -0.267155 0
M  V30 7495 H 690.794 1.46397 -0.143591 0
M  V30 7496 H 692.752 3.58429 2.13506 0
M  V30 7497 H 691.382 2.44329 2.10957 0
M  V30 7498 H 690.434 3.80248 0.107373 0
M  V30 7499 H 691.746 4.97499 0.35997 0
M  V30 7500 H 690.9 5.44914 2.66747 0
M  V30 7501 H 689.639 4.19744 2.48326 0
M  V30 7502 H 688.644 5.4693 0.561082 0
M  V30 7503 H 689.869 6.74751 0.767303 0
M  V30 7504 H 687.815 5.90913 2.84883 0
M  V30 7505 H 687.732 7.32828 1.85741 0
M  V30 7506 H 689 7.17897 3.03717 0
M  V30 7507 N 693.229 0.160201 1.56784 0
M  V30 7508 C 694.64 -0.358417 1.83227 0
M  V30 7509 C 694.991 -1.63831 1.07952 0
M  V30 7510 O 694.116 -2.13885 0.328995 0
M  V30 7511 C 694.711 -0.657058 3.32368 0
M  V30 7512 C 693.27 -1.12015 3.59346 0
M  V30 7513 C 692.417 -0.15015 2.76893 0
M  V30 7514 H 695.368 0.384669 1.53967 0
M  V30 7515 H 695.389 -1.51033 3.49241 0
M  V30 7516 H 694.901 0.274647 3.87127 0
M  V30 7517 H 693.002 -2.06734 3.09987 0
M  V30 7518 H 693.115 -1.037 4.67743 0
M  V30 7519 H 691.479 -0.645361 2.46388 0
M  V30 7520 H 692.262 0.775379 3.34429 0
M  V30 7521 N 694.707 -1.5719 -0.113559 0
M  V30 7522 C 695.617 -2.04041 -1.15777 0
M  V30 7523 C 696.633 -0.961812 -1.45001 0
M  V30 7524 O 697.809 -1.2737 -1.56009 0
M  V30 7525 C 694.874 -2.43994 -2.46308 0
M  V30 7526 C 693.935 -3.65962 -2.24433 0
M  V30 7527 C 693.168 -4.04 -3.4874 0
M  V30 7528 O 693.391 -3.42321 -4.56259 0
M  V30 7529 O 692.325 -4.97069 -3.3942 0
M  V30 7530 H 696.151 -2.93248 -0.789899 0
M  V30 7531 H 693.736 -1.45828 -0.324748 0
M  V30 7532 H 695.618 -2.70401 -3.23204 0
M  V30 7533 H 694.293 -1.57932 -2.82558 0
M  V30 7534 H 693.2 -3.44697 -1.45377 0
M  V30 7535 H 694.533 -4.52746 -1.93084 0
M  V30 7536 N 696.185 0.383891 -1.52853 0
M  V30 7537 C 697.425 1.13731 -1.69837 0
M  V30 7538 C 697.789 1.87086 -0.431611 0
M  V30 7539 O 698.99 2.64518 -0.477886 0
M  V30 7540 C 697.261 2.08551 -2.90243 0
M  V30 7541 S 698.82 2.9166 -3.27841 0
M  V30 7542 H 695.638 0.384911 -0.5978 0
M  V30 7543 H 698.24 0.42103 -1.90913 0
M  V30 7544 H 696.944 1.53392 -3.80656 0
M  V30 7545 H 696.475 2.8468 -2.71516 0
M  V30 7546 H 698.49 4.10723 -2.78426 0
M  V30 7547 N 697.663 1.43903 0.642637 0
M  V30 7548 C 699.079 1.27536 0.959519 0
M  V30 7549 C 699.279 0.202751 2.00477 0
M  V30 7550 O 698.335 -0.415256 2.49062 0
M  V30 7551 C 699.648 2.6432 1.43372 0
M  V30 7552 C 701.196 2.71937 1.54981 0
M  V30 7553 C 701.671 4.09164 2.05789 0
M  V30 7554 N 703.162 4.11282 2.13076 0
M  V30 7555 C 703.897 5.14303 2.53534 0
M  V30 7556 N 703.393 6.27693 2.93212 0
M  V30 7557 N 705.186 5.01657 2.53567 0
M  V30 7558 H 697.337 2.12344 -0.0488376 0
M  V30 7559 H 699.6 0.947124 0.0407559 0
M  V30 7560 H 699.306 3.43826 0.740048 0
M  V30 7561 H 699.18 2.90432 2.40685 0
M  V30 7562 H 701.567 1.92757 2.23448 0
M  V30 7563 H 701.648 2.49578 0.560739 0
M  V30 7564 H 701.292 4.88815 1.37921 0
M  V30 7565 H 701.222 4.28893 3.05546 0
M  V30 7566 H 703.713 3.2944 1.85143 0
M  V30 7567 H 704.026 7.02125 3.22863 0
M  V30 7568 H 702.371 6.31149 2.90991 0
M  V30 7569 H 705.562 4.12134 2.21952 0
M  V30 7570 H 705.735 5.82072 2.84774 0
M  V30 7571 N 699.141 -0.881989 1.30609 0
M  V30 7572 C 700.552 -1.44956 1.17664 0
M  V30 7573 C 700.903 -1.94945 -0.221531 0
M  V30 7574 O 700.028 -1.85257 -1.11844 0
M  V30 7575 C 700.623 -2.63474 2.12995 0
M  V30 7576 C 699.182 -3.16312 2.04019 0
M  V30 7577 C 698.329 -1.89008 2.02907 0
M  V30 7578 H 701.28 -0.691645 1.42835 0
M  V30 7579 H 701.301 -3.39783 1.71253 0
M  V30 7580 H 700.813 -2.2706 3.14746 0
M  V30 7581 H 698.914 -3.57376 1.0542 0
M  V30 7582 H 699.027 -3.79409 2.9255 0
M  V30 7583 H 697.391 -2.07465 1.47751 0
M  V30 7584 H 698.174 -1.54848 3.06394 0
M  V30 7585 N 700.619 -1.13374 -1.09472 0
M  V30 7586 C 701.849 -0.917019 -1.85133 0
M  V30 7587 C 702.257 0.537568 -1.81402 0
M  V30 7588 O 701.6 1.38385 -1.20811 0
M  V30 7589 C 701.662 -1.32646 -3.34134 0
M  V30 7590 C 701.326 -2.79437 -3.61613 0
M  V30 7591 C 702.323 -3.77596 -3.57375 0
M  V30 7592 C 700.008 -3.16586 -3.89973 0
M  V30 7593 C 702.002 -5.10916 -3.81108 0
M  V30 7594 C 699.689 -4.50085 -4.13361 0
M  V30 7595 C 700.687 -5.47059 -4.0892 0
M  V30 7596 O 700.375 -6.78149 -4.31705 0
M  V30 7597 H 700.107 -0.326997 -0.591649 0
M  V30 7598 H 702.661 -1.51002 -1.39239 0
M  V30 7599 H 700.891 -0.676719 -3.80733 0
M  V30 7600 H 702.58 -1.08229 -3.91205 0
M  V30 7601 H 703.346 -3.50242 -3.35493 0
M  V30 7602 H 699.225 -2.41707 -3.92554 0
M  V30 7603 H 702.769 -5.86597 -3.77558 0
M  V30 7604 H 698.666 -4.77163 -4.34724 0
M  V30 7605 H 699.434 -6.84244 -4.49168 0
M  V30 7606 N 702.098 1.27442 -0.927168 0
M  V30 7607 C 703.344 1.95025 -0.577651 0
M  V30 7608 C 703.699 1.71534 0.871421 0
M  V30 7609 O 702.992 1.03354 1.61333 0
M  V30 7610 C 703.186 3.47413 -0.838994 0
M  V30 7611 C 703.015 3.85721 -2.31192 0
M  V30 7612 C 701.785 4.09199 -2.96452 0
M  V30 7613 C 703.983 3.95352 -3.28939 0
M  V30 7614 N 701.965 4.34283 -4.33903 0
M  V30 7615 C 703.336 4.24805 -4.51598 0
M  V30 7616 C 705.391 3.77926 -3.24155 0
M  V30 7617 C 704.094 4.38645 -5.70073 0
M  V30 7618 C 706.12 3.9299 -4.41942 0
M  V30 7619 C 705.482 4.22829 -5.63379 0
M  V30 7620 H 701.581 0.736983 -0.261495 0
M  V30 7621 H 704.165 1.53816 -1.19368 0
M  V30 7622 H 702.336 3.87581 -0.252129 0
M  V30 7623 H 704.068 4.02166 -0.452158 0
M  V30 7624 H 700.823 4.04013 -2.47125 0
M  V30 7625 H 701.247 4.50883 -5.05008 0
M  V30 7626 H 705.889 3.53897 -2.31337 0
M  V30 7627 H 703.607 4.615 -6.63358 0
M  V30 7628 H 707.193 3.80926 -4.39757 0
M  V30 7629 H 706.073 4.34234 -6.53001 0
M  V30 7630 N 703.576 0.692616 1.41565 0
M  V30 7631 C 704.486 0.0258451 2.34586 0
M  V30 7632 C 705.502 -0.769324 1.56069 0
M  V30 7633 O 706.678 -0.707563 1.88562 0
M  V30 7634 C 703.743 -0.901289 3.3478 0
M  V30 7635 C 702.804 -0.0986579 4.29187 0
M  V30 7636 C 702.037 -0.981634 5.24595 0
M  V30 7637 O 702.26 -2.22115 5.25377 0
M  V30 7638 O 701.194 -0.432892 6.00341 0
M  V30 7639 H 705.02 0.792537 2.93177 0
M  V30 7640 H 702.605 0.452935 1.42369 0
M  V30 7641 H 704.487 -1.43302 3.96286 0
M  V30 7642 H 703.162 -1.64752 2.78637 0
M  V30 7643 H 702.069 0.477604 3.71039 0
M  V30 7644 H 703.402 0.608848 4.8842 0
M  V30 7645 N 705.054 -1.51416 0.437162 0
M  V30 7646 C 706.001 -2.27743 -0.374374 0
M  V30 7647 C 706.971 -1.31327 -1.01698 0
M  V30 7648 O 708.156 -1.60229 -1.03592 0
M  V30 7649 C 705.296 -3.12241 -1.46969 0
M  V30 7650 C 704.409 -4.23651 -0.845236 0
M  V30 7651 C 703.544 -4.95458 -1.91559 0
M  V30 7652 C 702.583 -5.98789 -1.26956 0
M  V30 7653 N 701.72 -6.64005 -2.28126 0
M  V30 7654 H 706.56 -2.96654 0.282892 0
M  V30 7655 H 704.097 -1.46319 0.151352 0
M  V30 7656 H 706.055 -3.59556 -2.11602 0
M  V30 7657 H 704.685 -2.45445 -2.09659 0
M  V30 7658 H 703.737 -3.803 -0.0872059 0
M  V30 7659 H 705.049 -4.97683 -0.333582 0
M  V30 7660 H 704.203 -5.46321 -2.63854 0
M  V30 7661 H 702.942 -4.21055 -2.46097 0
M  V30 7662 H 701.947 -5.47219 -0.53207 0
M  V30 7663 H 703.172 -6.75149 -0.731509 0
M  V30 7664 H 701.118 -5.92415 -2.81745 0
M  V30 7665 H 701.035 -7.33802 -1.81852 0
M  V30 7666 H 702.303 -7.19498 -2.99905 0
M  V30 7667 N 706.532 -0.168513 -1.56696 0
M  V30 7668 C 707.809 0.523367 -1.88468 0
M  V30 7669 C 708.189 1.81503 -1.07796 0
M  V30 7670 O 707.537 2.27859 -0.171045 0
M  V30 7671 C 707.747 0.767991 -3.40445 0
M  V30 7672 C 709.095 1.09924 -4.10124 0
M  V30 7673 O 710.119 0.856625 -3.45746 0
M  V30 7674 O 708.978 1.55681 -5.23856 0
M  V30 7675 H 706.072 0.269447 -0.781874 0
M  V30 7676 H 708.618 -0.206739 -1.68436 0
M  V30 7677 H 707.39 -0.145254 -3.9103 0
M  V30 7678 H 707.013 1.55151 -3.66079 0
M  V30 7679 N 708.01 1.57248 0.105221 0
M  V30 7680 C 709.287 1.76566 0.841647 0
M  V30 7681 C 709.667 0.747566 1.9742 0
M  V30 7682 O 709.015 -0.225886 2.27381 0
M  V30 7683 C 709.225 3.22016 1.3456 0
M  V30 7684 C 710.573 3.84911 1.79244 0
M  V30 7685 O 711.597 3.25703 1.44207 0
M  V30 7686 O 710.456 4.89008 2.43995 0
M  V30 7687 H 707.55 0.723443 0.400698 0
M  V30 7688 H 710.096 1.69472 0.0878893 0
M  V30 7689 H 708.868 3.87644 0.533685 0
M  V30 7690 H 708.491 3.33703 2.16167 0
M  V30 7691 N 709.488 -0.375779 1.53054 0
M  V30 7692 C 710.451 -1.44254 1.7811 0
M  V30 7693 C 711.451 -1.47018 0.651328 0
M  V30 7694 O 712.641 -1.47957 0.919472 0
M  V30 7695 C 709.773 -2.8345 1.89391 0
M  V30 7696 H 710.966 -1.23316 2.73374 0
M  V30 7697 H 708.519 -0.608312 1.43977 0
M  V30 7698 H 709.254 -3.09716 0.961589 0
M  V30 7699 H 709.039 -2.82844 2.71555 0
M  V30 7700 H 710.529 -3.60722 2.10404 0
M  V30 7701 N 710.966 -1.44241 -0.634997 0
M  V30 7702 C 712.191 -1.50516 -1.42687 0
M  V30 7703 C 712.616 -0.129864 -1.87651 0
M  V30 7704 O 711.974 0.880164 -1.58502 0
M  V30 7705 C 712.022 -2.4714 -2.62591 0
M  V30 7706 O 711.126 -1.97025 -3.62291 0
M  V30 7707 H 710.467 -0.50841 -0.427101 0
M  V30 7708 H 712.997 -1.89337 -0.775408 0
M  V30 7709 H 713.007 -2.65048 -3.10183 0
M  V30 7710 H 711.682 -3.47039 -2.29209 0
M  V30 7711 H 710.259 -1.88866 -3.21534 0
M  V30 7712 N 712.444 0.87505 -1.31075 0
M  V30 7713 C 713.377 1.98471 -1.12625 0
M  V30 7714 C 714.355 1.6257 -0.0311379 0
M  V30 7715 O 715.539 1.87574 -0.186594 0
M  V30 7716 C 712.666 3.30963 -0.719799 0
M  V30 7717 C 711.712 3.85849 -1.81722 0
M  V30 7718 S 712.545 4.11926 -3.42165 0
M  V30 7719 C 713.701 5.47423 -3.03445 0
M  V30 7720 H 713.934 2.13817 -2.06566 0
M  V30 7721 H 711.467 1.02463 -1.15502 0
M  V30 7722 H 713.425 4.07541 -0.492035 0
M  V30 7723 H 712.086 3.1346 0.200413 0
M  V30 7724 H 711.279 4.81616 -1.48533 0
M  V30 7725 H 710.881 3.16046 -1.99977 0
M  V30 7726 H 713.173 6.28881 -2.52023 0
M  V30 7727 H 714.116 5.85557 -3.98157 0
M  V30 7728 H 714.524 5.10455 -2.41031 0
M  V30 7729 N 713.922 1.13953 1.08869 0
M  V30 7730 C 715.333 0.916649 1.62648 0
M  V30 7731 C 715.684 -0.545589 1.88462 0
M  V30 7732 O 714.809 -1.41351 1.63856 0
M  V30 7733 C 715.404 1.65751 2.95486 0
M  V30 7734 C 713.963 1.48034 3.46068 0
M  V30 7735 C 713.11 1.68305 2.20383 0
M  V30 7736 H 716.061 1.292 0.921572 0
M  V30 7737 H 716.082 1.11794 3.63707 0
M  V30 7738 H 715.594 2.72171 2.76667 0
M  V30 7739 H 713.695 0.439416 3.7 0
M  V30 7740 H 713.808 2.24719 4.23129 0
M  V30 7741 H 712.172 1.10833 2.29321 0
M  V30 7742 H 712.955 2.76057 2.04077 0
M  V30 7743 N 715.4 -1.26948 0.933913 0
M  V30 7744 C 716.33 -2.29017 0.45534 0
M  V30 7745 C 717.311 -1.62961 -0.487605 0
M  V30 7746 O 718.496 -1.90223 -0.391022 0
M  V30 7747 C 715.626 -3.46112 -0.287015 0
M  V30 7748 C 714.58 -4.24205 0.568682 0
M  V30 7749 C 713.906 -5.3384 -0.303206 0
M  V30 7750 C 715.206 -4.88954 1.83633 0
M  V30 7751 H 716.9 -2.69298 1.30839 0
M  V30 7752 H 714.446 -1.29459 0.630579 0
M  V30 7753 H 716.399 -4.16622 -0.6328 0
M  V30 7754 H 715.123 -3.04765 -1.17414 0
M  V30 7755 H 713.782 -3.5545 0.897261 0
M  V30 7756 H 713.43 -4.88734 -1.18947 0
M  V30 7757 H 713.13 -5.86998 0.265879 0
M  V30 7758 H 714.654 -6.0719 -0.644423 0
M  V30 7759 H 716.068 -5.51717 1.55823 0
M  V30 7760 H 714.465 -5.52198 2.34941 0
M  V30 7761 H 715.535 -4.12305 2.55211 0
M  V30 7762 N 716.879 -0.700114 -1.41195 0
M  V30 7763 C 718.29 -0.307249 -1.84154 0
M  V30 7764 C 718.641 1.15539 -1.58572 0
M  V30 7765 O 717.766 1.88744 -1.05852 0
M  V30 7766 C 718.361 -0.550872 -3.34292 0
M  V30 7767 C 716.92 -0.211877 -3.75803 0
M  V30 7768 C 716.067 -0.830915 -2.64558 0
M  V30 7769 H 719.018 -0.900431 -1.30683 0
M  V30 7770 H 719.039 0.188954 -3.80031 0
M  V30 7771 H 718.551 -1.61548 -3.5288 0
M  V30 7772 H 716.652 0.848283 -3.62815 0
M  V30 7773 H 716.765 -0.67007 -4.74391 0
M  V30 7774 H 715.129 -0.260155 -2.53368 0
M  V30 7775 H 715.912 -1.89948 -2.85963 0
M  V30 7776 N 718.357 1.51182 -0.445186 0
M  V30 7777 C 719.604 2.02152 0.118645 0
M  V30 7778 C 719.932 1.32888 1.42025 0
M  V30 7779 O 719.187 0.435041 1.90803 0
M  V30 7780 C 719.486 3.55408 0.376797 0
M  V30 7781 C 719.152 4.43008 -0.839945 0
M  V30 7782 C 717.814 4.66669 -1.17361 0
M  V30 7783 C 720.166 4.9435 -1.65127 0
M  V30 7784 C 717.494 5.38919 -2.31913 0
M  V30 7785 C 719.846 5.67857 -2.78786 0
M  V30 7786 C 718.51 5.89779 -3.12597 0
M  V30 7787 H 717.78 0.739727 0.0434152 0
M  V30 7788 H 720.427 1.82055 -0.593984 0
M  V30 7789 H 718.732 3.73879 1.1714 0
M  V30 7790 H 720.429 3.92388 0.826602 0
M  V30 7791 H 717.019 4.24793 -0.569958 0
M  V30 7792 H 721.203 4.75947 -1.4067 0
M  V30 7793 H 716.459 5.54105 -2.58413 0
M  V30 7794 H 720.633 6.06628 -3.42017 0
M  V30 7795 H 718.26 6.45542 -4.01471 0
M  V30 7796 N 719.835 0.176821 1.56605 0
M  V30 7797 C 721.112 -0.513365 1.88743 0
M  V30 7798 C 721.492 -1.80929 1.08757 0
M  V30 7799 O 720.84 -2.27765 0.183127 0
M  V30 7800 C 721.05 -0.749925 3.40848 0
M  V30 7801 C 722.398 -1.07747 4.10701 0
M  V30 7802 O 723.422 -0.838277 3.46196 0
M  V30 7803 O 722.281 -1.52901 5.24675 0
M  V30 7804 H 719.375 -0.265296 0.783292 0
M  V30 7805 H 721.921 0.215669 1.68324 0
M  V30 7806 H 720.693 0.16599 3.90948 0
M  V30 7807 H 720.316 -1.53208 3.66897 0
M  V30 7808 N 721.313 -1.57302 -0.09688 0
M  V30 7809 C 722.243 -2.0497 -1.11846 0
M  V30 7810 C 723.224 -0.938278 -1.41882 0
M  V30 7811 O 724.409 -1.20943 -1.51942 0
M  V30 7812 C 721.539 -2.47264 -2.43881 0
M  V30 7813 C 720.493 -3.62053 -2.28257 0
M  V30 7814 C 719.819 -3.90318 -3.65453 0
M  V30 7815 C 721.119 -4.93005 -1.72461 0
M  V30 7816 H 722.813 -2.90567 -0.721888 0
M  V30 7817 H 720.359 -1.39786 -0.345803 0
M  V30 7818 H 722.312 -2.7922 -3.15617 0
M  V30 7819 H 721.036 -1.58664 -2.8547 0
M  V30 7820 H 719.695 -3.30341 -1.58967 0
M  V30 7821 H 719.343 -2.98889 -4.04567 0
M  V30 7822 H 719.043 -4.67597 -3.55846 0
M  V30 7823 H 720.567 -4.24747 -4.3866 0
M  V30 7824 H 721.981 -5.23354 -2.34036 0
M  V30 7825 H 720.378 -5.74436 -1.73618 0
M  V30 7826 H 721.448 -4.80053 -0.683898 0
M  V30 7827 N 722.791 0.367657 -1.53252 0
M  V30 7828 C 724.019 1.13119 -1.73239 0
M  V30 7829 C 724.434 1.831 -0.460404 0
M  V30 7830 O 723.791 1.73483 0.566557 0
M  V30 7831 C 723.842 2.16308 -2.89643 0
M  V30 7832 O 723.563 1.49175 -4.1192 0
M  V30 7833 C 725.064 3.05224 -3.21486 0
M  V30 7834 H 722.284 0.338318 -0.579467 0
M  V30 7835 H 724.828 0.42721 -1.99988 0
M  V30 7836 H 722.983 2.82307 -2.65295 0
M  V30 7837 H 723.397 2.17912 -4.7709 0
M  V30 7838 H 724.871 3.73613 -4.06346 0
M  V30 7839 H 725.348 3.69919 -2.36763 0
M  V30 7840 H 725.954 2.44843 -3.47753 0
M  V30 7841 N 724.269 1.44576 0.627338 0
M  V30 7842 C 725.546 1.38033 1.38586 0
M  V30 7843 C 725.926 0.0409468 2.1106 0
M  V30 7844 O 725.274 -0.976582 2.0658 0
M  V30 7845 C 725.484 2.58102 2.34913 0
M  V30 7846 C 726.832 3.02332 2.98129 0
M  V30 7847 O 727.856 2.58334 2.45238 0
M  V30 7848 O 726.715 3.78628 3.94085 0
M  V30 7849 H 723.809 0.546801 0.620434 0
M  V30 7850 H 726.355 1.56672 0.652077 0
M  V30 7851 H 725.127 3.4719 1.80485 0
M  V30 7852 H 724.75 2.41696 3.15703 0
M  V30 7853 N 725.747 -0.868086 1.31537 0
M  V30 7854 C 726.996 -1.61607 1.20689 0
M  V30 7855 C 727.309 -1.94204 -0.233275 0
M  V30 7856 O 728.515 -2.67515 -0.463465 0
M  V30 7857 C 726.971 -2.91348 2.11292 0
M  V30 7858 C 726.579 -2.66227 3.60315 0
M  V30 7859 C 728.323 -3.69344 2.09249 0
M  V30 7860 C 726.23 -3.91887 4.42921 0
M  V30 7861 H 725.16 -0.606373 0.448138 0
M  V30 7862 H 727.811 -0.959666 1.56405 0
M  V30 7863 H 726.193 -3.58374 1.68477 0
M  V30 7864 H 727.367 -2.07597 4.11388 0
M  V30 7865 H 725.682 -2.01582 3.64354 0
M  V30 7866 H 728.279 -4.62567 2.68209 0
M  V30 7867 H 728.622 -4.02044 1.0801 0
M  V30 7868 H 729.155 -3.09205 2.50274 0
M  V30 7869 H 725.894 -3.64336 5.44922 0
M  V30 7870 H 725.414 -4.49961 3.96605 0
M  V30 7871 H 727.093 -4.59754 4.55231 0
M  V30 7872 N 727.225 -1.14528 -1.08264 0
M  V30 7873 C 728.471 -0.91576 -1.80947 0
M  V30 7874 C 728.804 0.55623 -1.86064 0
M  V30 7875 O 728.079 1.41207 -1.33756 0
M  V30 7876 C 728.362 -1.51917 -3.26486 0
M  V30 7877 C 728.215 -3.06111 -3.2957 0
M  V30 7878 C 729.534 -1.19724 -4.23502 0
M  V30 7879 H 726.653 -0.334113 -0.656915 0
M  V30 7880 H 729.295 -1.41547 -1.26746 0
M  V30 7881 H 727.445 -1.0942 -3.72773 0
M  V30 7882 H 729.117 -3.57448 -2.91597 0
M  V30 7883 H 727.36 -3.40483 -2.688 0
M  V30 7884 H 728.031 -3.43438 -4.32151 0
M  V30 7885 H 730.507 -1.56467 -3.85561 0
M  V30 7886 H 729.383 -1.64575 -5.23647 0
M  V30 7887 H 729.644 -0.112771 -4.41956 0
M  V30 7888 N 728.703 1.26451 -0.940633 0
M  V30 7889 C 729.928 1.98407 -0.60412 0
M  V30 7890 C 730.353 1.69584 0.81382 0
M  V30 7891 O 729.711 0.943553 1.54812 0
M  V30 7892 C 729.759 3.50387 -0.852136 0
M  V30 7893 O 728.863 4.1233 0.076013 0
M  V30 7894 H 728.204 0.622466 -0.231153 0
M  V30 7895 H 730.734 1.60932 -1.26342 0
M  V30 7896 H 730.744 4.00614 -0.772816 0
M  V30 7897 H 729.419 3.70696 -1.88566 0
M  V30 7898 H 727.996 3.7286 -0.0543187 0
M  V30 7899 N 730.181 0.707592 1.40822 0
M  V30 7900 C 731.091 0.0507246 2.34545 0
M  V30 7901 C 732.107 -0.752727 1.56876 0
M  V30 7902 O 733.283 -0.687524 1.89302 0
M  V30 7903 C 730.348 -0.865731 3.35717 0
M  V30 7904 C 729.409 -0.0531313 4.29267 0
M  V30 7905 C 728.642 -0.925939 5.25606 0
M  V30 7906 O 728.865 -2.16531 5.27703 0
M  V30 7907 O 727.799 -0.369194 6.00767 0
M  V30 7908 H 731.625 0.823587 2.9232 0
M  V30 7909 H 729.21 0.46801 1.4188 0
M  V30 7910 H 731.092 -1.39091 3.97783 0
M  V30 7911 H 729.767 -1.61788 2.80368 0
M  V30 7912 H 728.674 0.516931 3.70511 0
M  V30 7913 H 730.007 0.660617 4.87747 0
M  V30 7914 N 731.66 -1.50943 0.453197 0
M  V30 7915 C 732.59 -2.31005 -0.34044 0
M  V30 7916 C 733.571 -1.37112 -1.00669 0
M  V30 7917 O 734.756 -1.66033 -1.0073 0
M  V30 7918 C 731.886 -3.16358 -1.433 0
M  V30 7919 C 730.84 -4.18658 -0.889363 0
M  V30 7920 C 730.166 -4.92633 -2.07887 0
M  V30 7921 C 731.466 -5.22227 0.0871142 0
M  V30 7922 H 733.16 -2.97601 0.327723 0
M  V30 7923 H 730.706 -1.43119 0.159054 0
M  V30 7924 H 732.659 -3.71155 -1.99555 0
M  V30 7925 H 731.383 -2.47613 -2.12968 0
M  V30 7926 H 730.042 -3.64936 -0.348915 0
M  V30 7927 H 729.69 -4.20376 -2.76211 0
M  V30 7928 H 729.39 -5.61819 -1.72143 0
M  V30 7929 H 730.914 -5.50258 -2.64666 0
M  V30 7930 H 732.328 -5.72001 -0.385656 0
M  V30 7931 H 730.725 -5.99032 0.357926 0
M  V30 7932 H 731.795 -4.74077 1.01879 0
M  V30 7933 N 733.138 -0.185124 -1.56509 0
M  V30 7934 C 734.554 0.170865 -1.58683 0
M  V30 7935 C 734.754 1.61799 -1.20098 0
M  V30 7936 O 733.81 2.35181 -0.919038 0
M  V30 7937 C 735.123 -0.122459 -3.00451 0
M  V30 7938 C 736.671 -0.0617699 -3.12939 0
M  V30 7939 C 737.146 -0.328269 -4.56822 0
M  V30 7940 N 738.637 -0.276533 -4.62374 0
M  V30 7941 C 739.372 -0.456722 -5.71578 0
M  V30 7942 N 738.868 -0.69672 -6.89288 0
M  V30 7943 N 740.661 -0.391669 -5.60734 0
M  V30 7944 H 732.812 -1.12956 -1.79874 0
M  V30 7945 H 735.075 -0.45011 -0.834329 0
M  V30 7946 H 734.781 -1.12546 -3.33206 0
M  V30 7947 H 734.655 0.579578 -3.72721 0
M  V30 7948 H 737.042 0.931826 -2.80002 0
M  V30 7949 H 737.123 -0.796732 -2.43076 0
M  V30 7950 H 736.767 -1.31914 -4.9047 0
M  V30 7951 H 736.697 0.427465 -5.24862 0
M  V30 7952 H 739.188 -0.0972458 -3.77775 0
M  V30 7953 H 739.501 -0.823291 -7.68402 0
M  V30 7954 H 737.846 -0.733497 -6.91119 0
M  V30 7955 H 741.037 -0.204663 -4.67652 0
M  V30 7956 H 741.21 -0.535518 -6.45783 0
M  V30 7957 N 734.616 1.57351 0.0885366 0
M  V30 7958 C 735.864 1.86051 0.789262 0
M  V30 7959 C 736.185 0.774763 1.78948 0
M  V30 7960 O 735.455 -0.198324 1.94894 0
M  V30 7961 H 734.035 0.686508 0.294475 0
M  V30 7962 H 736.697 1.94779 0.0686055 0
M  V30 7963 H 735.793 2.83007 1.31581 0
M  V30 7964 N 736.094 -0.359525 1.53444 0
M  V30 7965 C 737.026 -1.46098 1.76602 0
M  V30 7966 C 738.039 -1.49395 0.646912 0
M  V30 7967 O 739.228 -1.52765 0.923307 0
M  V30 7968 C 736.328 -2.84836 1.83635 0
M  V30 7969 C 735.501 -3.05164 3.13358 0
M  V30 7970 C 734.56 -4.24051 3.11556 0
M  V30 7971 O 733.586 -4.18935 3.85334 0
M  V30 7972 N 734.788 -5.31775 2.328 0
M  V30 7973 H 737.553 -1.2661 2.71643 0
M  V30 7974 H 735.114 -0.549294 1.52297 0
M  V30 7975 H 737.106 -3.62516 1.799 0
M  V30 7976 H 735.676 -2.97542 0.958509 0
M  V30 7977 H 734.896 -2.15091 3.30348 0
M  V30 7978 H 736.184 -3.15619 3.99076 0
M  V30 7979 H 735.582 -5.38796 1.7238 0
M  V30 7980 H 734.139 -6.0801 2.34877 0
M  V30 7981 N 737.572 -1.44907 -0.619662 0
M  V30 7982 C 738.502 -1.55488 -1.742 0
M  V30 7983 C 739.483 -0.407143 -1.65156 0
M  V30 7984 O 740.668 -0.628743 -1.8374 0
M  V30 7985 C 737.798 -1.5097 -3.1277 0
M  V30 7986 C 736.752 -2.64337 -3.36615 0
M  V30 7987 C 736.078 -2.44872 -4.75333 0
M  V30 7988 C 737.378 -4.06423 -3.28051 0
M  V30 7989 H 739.072 -2.49432 -1.65602 0
M  V30 7990 H 736.618 -1.20047 -0.795281 0
M  V30 7991 H 738.571 -1.56971 -3.91073 0
M  V30 7992 H 737.295 -0.535486 -3.2218 0
M  V30 7993 H 735.954 -2.57744 -2.60698 0
M  V30 7994 H 735.602 -1.45617 -4.81461 0
M  V30 7995 H 735.302 -3.20888 -4.92244 0
M  V30 7996 H 736.826 -2.52709 -5.55851 0
M  V30 7997 H 738.24 -4.14324 -3.96243 0
M  V30 7998 H 736.637 -4.82733 -3.56495 0
M  V30 7999 H 737.707 -4.29183 -2.25676 0
M  V30 8000 N 739.05 0.861098 -1.31996 0
M  V30 8001 C 739.98 1.98482 -1.22993 0
M  V30 8002 C 740.961 1.6971 -0.115168 0
M  V30 8003 O 742.146 1.91849 -0.30126 0
M  V30 8004 C 739.276 3.34179 -0.945615 0
M  V30 8005 C 738.23 3.77284 -2.02091 0
M  V30 8006 C 737.556 5.1054 -1.58912 0
M  V30 8007 C 738.856 3.93439 -3.43515 0
M  V30 8008 H 740.55 2.06271 -2.17008 0
M  V30 8009 H 738.096 0.991043 -1.04472 0
M  V30 8010 H 740.049 4.12338 -0.869206 0
M  V30 8011 H 738.773 3.26586 0.0301849 0
M  V30 8012 H 737.432 3.01371 -2.08737 0
M  V30 8013 H 737.08 4.99397 -0.600942 0
M  V30 8014 H 736.78 5.40352 -2.30854 0
M  V30 8015 H 738.304 5.91199 -1.52696 0
M  V30 8016 H 739.718 4.6197 -3.39495 0
M  V30 8017 H 738.115 4.34661 -4.13751 0
M  V30 8018 H 739.185 2.96548 -3.8365 0
M  V30 8019 N 740.528 1.15101 1.07655 0
M  V30 8020 C 741.438 0.858869 2.18313 0
M  V30 8021 C 742.454 -0.163641 1.73229 0
M  V30 8022 O 743.63 0.00969541 2.01398 0
M  V30 8023 C 740.695 0.34893 3.4494 0
M  V30 8024 C 739.756 1.43495 4.04608 0
M  V30 8025 C 738.989 0.949253 5.2519 0
M  V30 8026 O 739.212 -0.20636 5.70027 0
M  V30 8027 O 738.146 1.73161 5.76454 0
M  V30 8028 H 741.972 1.78386 2.45788 0
M  V30 8029 H 739.557 0.929876 1.16934 0
M  V30 8030 H 741.439 0.070851 4.2134 0
M  V30 8031 H 740.114 -0.548237 3.19024 0
M  V30 8032 H 739.021 1.7666 3.29761 0
M  V30 8033 H 740.354 2.30692 4.3479 0
M  V30 8034 N 742.006 -1.2595 0.947325 0
M  V30 8035 C 742.969 -2.24407 0.466285 0
M  V30 8036 C 743.969 -1.55054 -0.426005 0
M  V30 8037 O 745.159 -1.7275 -0.224319 0
M  V30 8038 C 742.291 -3.39326 -0.327201 0
M  V30 8039 H 743.484 -2.68477 1.33642 0
M  V30 8040 H 741.037 -1.38211 0.729887 0
M  V30 8041 H 741.772 -3.00667 -1.21532 0
M  V30 8042 H 741.557 -3.9085 0.312839 0
M  V30 8043 H 743.047 -4.12455 -0.653477 0
M  V30 8044 N 743.484 -0.715051 -1.40445 0
M  V30 8045 C 744.431 -0.0621393 -2.30716 0
M  V30 8046 C 745.401 0.750871 -1.48159 0
M  V30 8047 O 746.586 0.714928 -1.76899 0
M  V30 8048 C 743.726 0.854036 -3.34365 0
M  V30 8049 C 742.839 0.0305565 -4.31989 0
M  V30 8050 C 741.974 0.946162 -5.22706 0
M  V30 8051 C 741.013 0.116741 -6.11989 0
M  V30 8052 N 740.15 0.987194 -6.95125 0
M  V30 8053 H 744.99 -0.83764 -2.85985 0
M  V30 8054 H 742.527 -0.424759 -1.40834 0
M  V30 8055 H 744.485 1.39946 -3.93028 0
M  V30 8056 H 743.115 1.59572 -2.806 0
M  V30 8057 H 742.167 -0.632044 -3.75112 0
M  V30 8058 H 743.479 -0.611615 -4.95036 0
M  V30 8059 H 742.633 1.56014 -5.86297 0
M  V30 8060 H 741.372 1.62216 -4.59932 0
M  V30 8061 H 740.377 -0.510176 -5.47428 0
M  V30 8062 H 741.602 -0.555742 -6.76822 0
M  V30 8063 H 739.548 1.64885 -6.3494 0
M  V30 8064 H 739.465 0.401046 -7.54936 0
M  V30 8065 H 740.733 1.58737 -7.63166 0
M  V30 8066 N 744.962 1.50701 -0.461195 0
M  V30 8067 C 746.373 1.867 -0.00370227 0
M  V30 8068 C 746.724 1.37673 1.39787 0
M  V30 8069 O 745.849 0.737515 2.03445 0
M  V30 8070 C 746.444 3.388 5.75786e-05 0
M  V30 8071 C 745.003 3.74247 0.402044 0
M  V30 8072 C 744.15 2.74549 -0.389652 0
M  V30 8073 H 747.101 1.43585 -0.675942 0
M  V30 8074 H 747.122 3.719 0.804414 0
M  V30 8075 H 746.634 3.74452 -1.02015 0
M  V30 8076 H 744.735 3.44192 1.42697 0
M  V30 8077 H 744.848 4.78973 0.110265 0
M  V30 8078 H 743.212 2.54226 0.155314 0
M  V30 8079 H 743.995 3.13044 -1.40919 0
M  V30 8080 O 746.479 0.334734 1.57993 0
M  V30 8081 H 747.17 -0.222689 1.92416 0
M  V30 END ATOM
M  V30 BEGIN BOND
M  V30 END BOND
M  V30 END CTAB
M  END
$$$$
