drugbank_target|P60844 Aquaporin Z (DB03152; DB07349; DB07923; DB07924)
 OpenBabel12092120423D

  0  0  0     0  0            999 V3000
M  V30 BEGIN CTAB
M  V30 COUNTS 3390 3436 0 0 0
M  V30 BEGIN ATOM
M  V30 1 H -0.908 1.98254 -0.117106 0
M  V30 2 N 0 1.576 0 0
M  V30 3 C 0.933 2.03868 1.02534 0
M  V30 4 C 1.911 0.928543 1.3348 0
M  V30 5 O 3.095 1.19667 1.45644 0
M  V30 6 C 0.222 2.43627 2.35294 0
M  V30 7 C -0.732 3.65373 2.2001 0
M  V30 8 S 0.101 5.13292 1.52614 0
M  V30 9 C 1.257 5.56322 2.86805 0
M  V30 10 H 1.49 2.90518 0.631377 0
M  V30 11 H -0.977 1.52953 0.210867 0
M  V30 12 H 0.981 2.67203 3.11629 0
M  V30 13 H -0.358 1.57376 2.7183 0
M  V30 14 H -1.165 3.90944 3.18086 0
M  V30 15 H -1.563 3.418 1.51819 0
M  V30 16 H 0.729 5.58782 3.83104 0
M  V30 17 H 1.672 6.56266 2.65933 0
M  V30 18 H 2.08 4.83886 2.90714 0
M  V30 19 N 1.4781 -0.272755 1.55222 0
M  V30 20 C 2.7251 -1.00433 1.7584 0
M  V30 21 C 3.0531 -1.86275 0.559629 0
M  V30 22 O 2.3081 -1.90269 -0.457857 0
M  V30 23 C 2.6071 -1.91642 3.01675 0
M  V30 24 C 2.2731 -1.21548 4.34208 0
M  V30 25 C 0.9351 -1.02166 4.70229 0
M  V30 26 C 3.2871 -0.716684 5.16249 0
M  V30 27 C 0.6151 -0.316334 5.85847 0
M  V30 28 C 2.9671 -0.0249476 6.32595 0
M  V30 29 C 1.6311 0.180579 6.67256 0
M  V30 30 H 0.9011 -0.367509 0.643443 0
M  V30 31 H 3.5481 -0.276596 1.89492 0
M  V30 32 H 1.8531 -2.71037 2.82924 0
M  V30 33 H 3.5501 -2.48369 3.14824 0
M  V30 34 H 0.1401 -1.37645 4.05896 0
M  V30 35 H 4.3241 -0.854047 4.88896 0
M  V30 36 H -0.4199 -0.146378 6.11225 0
M  V30 37 H 3.7541 0.369311 6.9542 0
M  V30 38 H 1.3811 0.729098 7.56696 0
M  V30 39 N 2.9562 -1.48159 -0.537278 0
M  V30 40 C 4.3722 -1.34118 -0.865129 0
M  V30 41 C 4.5722 -0.346678 -1.98495 0
M  V30 42 O 3.6282 0.234715 -2.51407 0
M  V30 43 C 4.9412 -2.73963 -1.23954 0
M  V30 44 C 6.4892 -2.82397 -1.34984 0
M  V30 45 C 6.9642 -4.22928 -1.75772 0
M  V30 46 N 8.4552 -4.25566 -1.82887 0
M  V30 47 C 9.1902 -5.31235 -2.15817 0
M  V30 48 N 8.6862 -6.47189 -2.47222 0
M  V30 49 N 10.4792 -5.18624 -2.16761 0
M  V30 50 H 2.6302 -2.1144 0.201715 0
M  V30 51 H 4.8932 -0.947598 0.0275949 0
M  V30 52 H 4.5992 -3.48264 -0.490381 0
M  V30 53 H 4.4732 -3.0702 -2.19132 0
M  V30 54 H 6.8602 -2.08356 -2.08978 0
M  V30 55 H 6.9412 -2.5297 -0.379448 0
M  V30 56 H 6.5852 -4.97482 -1.02341 0
M  V30 57 H 6.5152 -4.49794 -2.73848 0
M  V30 58 H 9.0062 -3.41924 -1.60924 0
M  V30 59 H 9.3192 -7.23564 -2.71433 0
M  V30 60 H 7.6642 -6.50476 -2.44757 0
M  V30 61 H 10.8552 -4.27056 -1.91679 0
M  V30 62 H 11.0282 -6.01078 -2.42093 0
M  V30 63 N 4.4343 0.785586 -1.36625 0
M  V30 64 C 5.3813 1.89838 -1.31264 0
M  V30 65 C 6.3513 1.65115 -0.180633 0
M  V30 66 O 7.5363 1.87222 -0.36777 0
M  V30 67 C 4.6763 3.26706 -1.11163 0
M  V30 68 C 3.7893 3.63476 -2.33472 0
M  V30 69 C 2.9243 4.89481 -2.06353 0
M  V30 70 C 1.9633 5.18941 -3.24602 0
M  V30 71 N 1.1003 6.36131 -2.97123 0
M  V30 72 H 5.9403 1.93756 -2.26413 0
M  V30 73 H 3.4773 0.947454 -1.12524 0
M  V30 74 H 5.4353 4.05639 -0.975337 0
M  V30 75 H 4.0653 3.222 -0.196674 0
M  V30 76 H 3.1173 2.79636 -2.57891 0
M  V30 77 H 4.4293 3.81193 -3.21704 0
M  V30 78 H 3.5833 5.76288 -1.89675 0
M  V30 79 H 2.3223 4.73841 -1.15437 0
M  V30 80 H 1.3273 4.30615 -3.41834 0
M  V30 81 H 2.5523 5.36498 -4.16349 0
M  V30 82 H 0.4983 6.21875 -2.08823 0
M  V30 83 H 0.4153 6.54198 -3.78894 0
M  V30 84 H 1.6833 7.2591 -2.84033 0
M  V30 85 N 5.9124 1.20967 1.01018 0
M  V30 86 C 6.8424 0.988272 2.11555 0
M  V30 87 C 7.8234 -0.0849778 1.69888 0
M  V30 88 O 9.0084 0.0738202 1.9406 0
M  V30 89 C 6.1384 0.546528 3.42973 0
M  V30 90 C 5.0924 1.56375 3.9841 0
M  V30 91 C 4.4184 0.97842 5.25672 0
M  V30 92 C 5.7184 2.94922 4.31066 0
M  V30 93 H 7.4124 1.91276 2.30334 0
M  V30 94 H 4.9584 0.921073 1.1069 0
M  V30 95 H 6.9114 0.378839 4.19694 0
M  V30 96 H 5.6354 -0.413598 3.23971 0
M  V30 97 H 4.2944 1.71891 3.23804 0
M  V30 98 H 3.9424 0.0101688 5.02999 0
M  V30 99 H 3.6424 1.65784 5.63728 0
M  V30 100 H 5.1664 0.821939 6.05043 0
M  V30 101 H 6.5804 2.8288 4.9865 0
M  V30 102 H 4.9774 3.5983 4.80253 0
M  V30 103 H 6.0474 3.4616 3.39561 0
M  V30 104 N 7.3905 -1.2043 1.01659 0
M  V30 105 C 8.3535 -2.21433 0.591616 0
M  V30 106 C 9.3535 -1.57203 -0.338226 0
M  V30 107 O 10.5435 -1.73737 -0.126918 0
M  V30 108 C 7.6755 -3.40628 -0.136058 0
M  V30 109 H 8.8685 -2.60545 1.48514 0
M  V30 110 H 6.4215 -1.33893 0.806379 0
M  V30 111 H 7.1565 -3.07019 -1.04449 0
M  V30 112 H 6.9415 -3.88475 0.531917 0
M  V30 113 H 8.4315 -4.15475 -0.420735 0
M  V30 114 N 8.8686 -0.792821 -1.36206 0
M  V30 115 C 9.8316 -0.199459 -2.2833 0
M  V30 116 C 10.8316 0.605189 -1.48977 0
M  V30 117 O 12.0216 0.425685 -1.68919 0
M  V30 118 C 9.1536 0.723523 -3.33134 0
M  V30 119 H 10.3466 -1.01181 -2.82316 0
M  V30 120 H 7.8996 -0.562485 -1.45828 0
M  V30 121 H 8.6346 1.56008 -2.84309 0
M  V30 122 H 8.4196 0.148436 -3.91819 0
M  V30 123 H 9.9096 1.13344 -4.01924 0
M  V30 124 N 10.3467 1.47872 -0.545128 0
M  V30 125 C 11.2567 2.33633 0.212746 0
M  V30 126 C 12.2727 1.4744 0.923983 0
M  V30 127 O 13.4487 1.80393 0.895572 0
M  V30 128 C 10.5137 3.23884 1.23693 0
M  V30 129 C 9.5747 4.25961 0.534417 0
M  V30 130 C 8.8077 5.11899 1.5098 0
M  V30 131 O 9.0307 5.00077 2.7437 0
M  V30 132 O 7.9647 5.92831 1.0409 0
M  V30 133 H 11.7907 2.99714 -0.490416 0
M  V30 134 H 9.3757 1.46235 -0.305871 0
M  V30 135 H 11.2577 3.79666 1.82843 0
M  V30 136 H 9.9327 2.60446 1.92222 0
M  V30 137 H 8.8397 3.73972 -0.0979679 0
M  V30 138 H 10.1727 4.92079 -0.109213 0
M  V30 139 N 11.8248 0.280983 1.55075 0
M  V30 140 C 13.0648 -0.335234 2.01632 0
M  V30 141 C 13.4288 -1.5261 1.16508 0
M  V30 142 O 14.6298 -2.21235 1.52672 0
M  V30 143 C 12.9008 -0.702172 3.50434 0
M  V30 144 S 14.4598 -1.30409 4.18974 0
M  V30 145 H 11.2778 -0.103967 0.703358 0
M  V30 146 H 13.8798 0.404187 1.91276 0
M  V30 147 H 12.5838 0.17333 4.10034 0
M  V30 148 H 12.1148 -1.4729 3.64786 0
M  V30 149 H 14.1298 -2.59253 4.23087 0
M  V30 150 N 13.3029 -1.57598 0.00835791 0
M  V30 151 C 14.5499 -1.90928 -0.674732 0
M  V30 152 C 14.8779 -0.88277 -1.73313 0
M  V30 153 O 14.1329 0.111294 -1.95383 0
M  V30 154 C 14.4319 -3.3101 -1.34787 0
M  V30 155 C 14.0979 -4.48922 -0.421861 0
M  V30 156 C 12.7599 -4.8091 -0.166927 0
M  V30 157 C 15.1119 -5.20755 0.215211 0
M  V30 158 C 12.4399 -5.821 0.733232 0
M  V30 159 C 14.7919 -6.22905 1.1033 0
M  V30 160 C 13.4559 -6.53346 1.36733 0
M  V30 161 H 12.7259 -0.698656 -0.246902 0
M  V30 162 H 15.3729 -1.91387 0.0656779 0
M  V30 163 H 13.6779 -3.26714 -2.16253 0
M  V30 164 H 15.3749 -3.54061 -1.8826 0
M  V30 165 H 11.9649 -4.23934 -0.630729 0
M  V30 166 H 16.1489 -4.9629 0.0312829 0
M  V30 167 H 11.4049 -6.04042 0.945712 0
M  V30 168 H 15.5789 -6.77694 1.60325 0
M  V30 169 H 13.2059 -7.31573 2.06652 0
M  V30 170 N 14.781 0.264519 -1.55364 0
M  V30 171 C 16.029 0.993021 -1.76021 0
M  V30 172 C 16.35 1.86511 -0.569099 0
M  V30 173 O 15.62 1.91438 0.415735 0
M  V30 174 H 14.2 0.369639 -0.649135 0
M  V30 175 H 16.862 0.286707 -1.9278 0
M  V30 176 H 15.958 1.62502 -2.66457 0
M  V30 177 N 16.2591 1.48442 0.529413 0
M  V30 178 C 17.4871 1.60151 1.30994 0
M  V30 179 C 17.9021 0.261985 1.86973 0
M  V30 180 O 17.2591 -0.748805 1.66431 0
M  V30 181 C 17.3101 2.64854 2.46038 0
M  V30 182 O 17.0311 3.93608 1.92365 0
M  V30 183 C 18.5321 2.87007 3.37849 0
M  V30 184 H 15.7521 0.539971 0.398338 0
M  V30 185 H 18.2961 1.94273 0.638597 0
M  V30 186 H 16.4511 2.33589 3.09055 0
M  V30 187 H 16.8651 4.51055 2.67675 0
M  V30 188 H 18.3391 3.64068 4.14919 0
M  V30 189 H 18.8161 1.95852 3.93114 0
M  V30 190 H 19.4221 3.19579 2.80623 0
M  V30 191 N 17.7372 -0.778329 1.37039 0
M  V30 192 C 18.9842 -1.53665 1.31884 0
M  V30 193 C 19.3122 -1.9425 -0.0986303 0
M  V30 194 O 18.5672 -1.63832 -1.07041 0
M  V30 195 C 18.8662 -2.81845 2.19768 0
M  V30 196 C 18.5322 -2.60345 3.68146 0
M  V30 197 C 17.1942 -2.5419 4.08584 0
M  V30 198 C 19.5462 -2.40923 4.62175 0
M  V30 199 C 16.8742 -2.26594 5.41177 0
M  V30 200 C 19.2262 -2.14852 5.94997 0
M  V30 201 C 17.8902 -2.07137 6.34547 0
M  V30 202 H 17.1602 -0.562299 0.482598 0
M  V30 203 H 19.8072 -0.897069 1.69189 0
M  V30 204 H 18.1122 -3.50328 1.75436 0
M  V30 205 H 19.8092 -3.39692 2.13097 0
M  V30 206 H 16.3992 -2.65996 3.36072 0
M  V30 207 H 20.5832 -2.44673 4.31797 0
M  V30 208 H 15.8392 -2.19111 5.70789 0
M  V30 209 H 20.0132 -1.98822 6.67415 0
M  V30 210 H 17.6402 -1.85518 7.37216 0
M  V30 211 N 19.2153 -1.21501 -1.00376 0
M  V30 212 C 20.4613 -1.04457 -1.74529 0
M  V30 213 C 20.8163 0.417386 -1.87818 0
M  V30 214 O 20.1093 1.30556 -1.40234 0
M  V30 215 C 20.3033 -1.67673 -3.15627 0
M  V30 216 C 20.1323 -3.19865 -3.16096 0
M  V30 217 C 18.9023 -3.88915 -3.22604 0
M  V30 218 C 21.1003 -4.16936 -3.01112 0
M  V30 219 N 19.0823 -5.28284 -3.12712 0
M  V30 220 C 20.4533 -5.43066 -2.99131 0
M  V30 221 C 22.5083 -4.07968 -2.85423 0
M  V30 222 C 21.2113 -6.6126 -2.83068 0
M  V30 223 C 23.2373 -5.258 -2.70718 0
M  V30 224 C 22.5993 -6.50842 -2.69414 0
M  V30 225 H 18.6983 -0.436584 -0.648782 0
M  V30 226 H 21.2823 -1.53875 -1.19293 0
M  V30 227 H 19.4533 -1.20822 -3.6913 0
M  V30 228 H 21.1853 -1.43824 -3.78281 0
M  V30 229 H 17.9403 -3.39847 -3.2985 0
M  V30 230 H 18.3643 -6.01284 -3.11105 0
M  V30 231 H 23.0063 -3.1209 -2.85236 0
M  V30 232 H 20.7243 -7.57298 -2.82002 0
M  V30 233 H 24.3103 -5.20683 -2.59577 0
M  V30 234 H 23.1903 -7.40485 -2.5817 0
M  V30 235 N 20.6934 1.19889 -1.02296 0
M  V30 236 C 21.6234 2.25141 -0.619174 0
M  V30 237 C 22.6044 1.66051 0.368915 0
M  V30 238 O 23.7894 1.92546 0.252941 0
M  V30 239 C 20.9194 3.4728 0.0368783 0
M  V30 240 C 19.8734 4.19005 -0.872865 0
M  V30 241 C 19.1994 5.34637 -0.0822402 0
M  V30 242 C 20.4994 4.74452 -2.18387 0
M  V30 243 H 22.1934 2.59171 -1.49903 0
M  V30 244 H 19.7394 1.24579 -0.722222 0
M  V30 245 H 21.6924 4.20098 0.330958 0
M  V30 246 H 20.4164 3.12433 0.95149 0
M  V30 247 H 19.0754 3.48061 -1.15105 0
M  V30 248 H 18.7234 4.96034 0.83422 0
M  V30 249 H 18.4234 5.83557 -0.688149 0
M  V30 250 H 19.9474 6.10255 0.205238 0
M  V30 251 H 21.3614 5.39055 -1.95172 0
M  V30 252 H 19.7584 5.33834 -2.74119 0
M  V30 253 H 20.8284 3.92844 -2.84257 0
M  V30 254 N 22.1715 0.800033 1.35784 0
M  V30 255 C 23.4175 0.377901 1.99248 0
M  V30 256 C 23.7505 -1.05052 1.63333 0
M  V30 257 O 23.0255 -1.72768 0.893385 0
M  V30 258 C 23.3085 0.553922 3.55814 0
M  V30 259 C 23.1615 2.0268 4.01548 0
M  V30 260 C 24.4805 -0.0244802 4.40093 0
M  V30 261 H 21.5995 0.138782 0.723815 0
M  V30 262 H 24.2415 1.00835 1.61035 0
M  V30 263 H 22.3915 0.0172398 3.88496 0
M  V30 264 H 24.0635 2.62536 3.79305 0
M  V30 265 H 22.3065 2.5256 3.52698 0
M  V30 266 H 22.9775 2.10087 5.10458 0
M  V30 267 H 25.4535 0.433775 4.13833 0
M  V30 268 H 24.3295 0.128637 5.48749 0
M  V30 269 H 24.5905 -1.11758 4.27741 0
M  V30 270 N 23.6496 -1.47581 0.552962 0
M  V30 271 C 24.8966 -2.02482 0.0273243 0
M  V30 272 C 25.2246 -1.42776 -1.32081 0
M  V30 273 O 24.4796 -0.571393 -1.87173 0
M  V30 274 C 24.7786 -3.57199 -0.119728 0
M  V30 275 C 24.4446 -4.35804 1.15697 0
M  V30 276 C 23.1066 -4.57 1.50681 0
M  V30 277 C 25.4586 -4.81167 2.00319 0
M  V30 278 C 22.7866 -5.20807 2.70142 0
M  V30 279 C 25.1386 -5.46293 3.18978 0
M  V30 280 C 23.8026 -5.65722 3.54281 0
M  V30 281 H 23.0726 -0.740933 0.00999866 0
M  V30 282 H 25.7196 -1.77302 0.72362 0
M  V30 283 H 24.0246 -3.81348 -0.89896 0
M  V30 284 H 25.7216 -3.97324 -0.541718 0
M  V30 285 H 22.3116 -4.19582 0.874561 0
M  V30 286 H 26.4956 -4.64574 1.74599 0
M  V30 287 H 21.7516 -5.34045 2.97668 0
M  V30 288 H 25.9256 -5.80407 3.84838 0
M  V30 289 H 23.5526 -6.14936 4.46942 0
M  V30 290 N 25.1277 -0.289203 -1.54924 0
M  V30 291 C 26.3757 0.322879 -1.99504 0
M  V30 292 C 26.6967 1.55313 -1.1791 0
M  V30 293 O 25.9667 1.94001 -0.272097 0
M  V30 294 H 24.5467 0.122291 -0.736922 0
M  V30 295 H 27.2087 -0.397802 -1.90797 0
M  V30 296 H 26.3047 0.603061 -3.06218 0
M  V30 297 N 26.6058 1.57591 -0.0167156 0
M  V30 298 C 27.8538 1.90906 0.663285 0
M  V30 299 C 28.1748 0.892509 1.73376 0
M  V30 300 O 27.4448 -0.0677623 1.95783 0
M  V30 301 H 26.0248 0.704637 0.247983 0
M  V30 302 H 28.6868 1.94803 -0.0615909 0
M  V30 303 H 27.7828 2.9116 1.12393 0
M  V30 304 N 28.0839 -0.256276 1.55502 0
M  V30 305 C 29.3239 -0.993081 1.78654 0
M  V30 306 C 29.6879 -1.8288 0.584724 0
M  V30 307 O 30.8889 -2.59665 0.694822 0
M  V30 308 C 29.1599 -1.83856 3.06483 0
M  V30 309 S 30.7189 -2.63573 3.5082 0
M  V30 310 H 27.5369 -0.334199 0.62756 0
M  V30 311 H 30.1389 -0.26184 1.93739 0
M  V30 312 H 28.8429 -1.21414 3.92029 0
M  V30 313 H 28.3739 -2.61271 2.94111 0
M  V30 314 H 30.3889 -3.86312 3.11412 0
M  V30 315 N 29.562 -1.4872 -0.521534 0
M  V30 316 C 30.81 -1.56857 -1.27437 0
M  V30 317 C 31.131 -0.247982 -1.93417 0
M  V30 318 O 30.401 0.731151 -1.81744 0
M  V30 319 H 28.981 -0.577885 -0.473347 0
M  V30 320 H 31.643 -1.85233 -0.606205 0
M  V30 321 H 30.739 -2.35402 -2.0492 0
M  V30 322 N 31.0401 0.771051 -1.3745 0
M  V30 323 C 32.2651 1.56529 -1.36065 0
M  V30 324 C 32.6901 1.88029 0.0515859 0
M  V30 325 O 32.0481 1.49282 1.02882 0
M  V30 326 C 32.0961 2.85187 -2.20683 0
M  V30 327 O 31.2001 3.79593 -1.61193 0
M  V30 328 H 30.5411 0.47411 -0.464883 0
M  V30 329 H 33.0711 0.954269 -1.80983 0
M  V30 330 H 33.0811 3.34283 -2.33921 0
M  V30 331 H 31.7561 2.61588 -3.23334 0
M  V30 332 H 30.3331 3.38239 -1.56999 0
M  V30 333 N 32.5182 1.22032 0.997298 0
M  V30 334 C 33.4812 0.987909 2.06816 0
M  V30 335 C 34.4812 -0.0440084 1.6074 0
M  V30 336 O 35.6712 0.194053 1.73116 0
M  V30 337 C 32.8032 0.49132 3.37341 0
M  V30 338 H 33.9962 1.93803 2.28868 0
M  V30 339 H 31.5492 1.03838 1.16822 0
M  V30 340 H 32.2842 -0.463364 3.20973 0
M  V30 341 H 32.0692 1.23575 3.72118 0
M  V30 342 H 33.5592 0.348824 4.16141 0
M  V30 343 N 33.9963 -1.19345 1.0293 0
M  V30 344 C 35.2423 -1.89318 0.727083 0
M  V30 345 C 35.5753 -1.79446 -0.742483 0
M  V30 346 O 34.8503 -1.1871 -1.54072 0
M  V30 347 C 35.1333 -3.40238 1.17942 0
M  V30 348 C 34.9863 -3.58979 2.71024 0
M  V30 349 C 36.3053 -4.33479 0.760548 0
M  V30 350 H 33.4243 -0.687475 0.265606 0
M  V30 351 H 36.0663 -1.40477 1.2793 0
M  V30 352 H 34.2163 -3.81964 0.709608 0
M  V30 353 H 35.8883 -3.26421 3.25955 0
M  V30 354 H 34.1313 -3.02018 3.11396 0
M  V30 355 H 34.8023 -4.64823 2.9773 0
M  V30 356 H 37.2783 -3.99469 1.16464 0
M  V30 357 H 36.1543 -5.37664 1.10493 0
M  V30 358 H 36.4153 -4.40813 -0.337063 0
M  V30 359 N 35.4744 -0.807222 -1.35358 0
M  V30 360 C 36.4044 -0.232509 -2.3234 0
M  V30 361 C 37.3854 0.642386 -1.57504 0
M  V30 362 O 38.5704 0.572526 -1.85569 0
M  V30 363 C 35.7004 0.619238 -3.41735 0
M  V30 364 C 34.6544 -0.157215 -4.27711 0
M  V30 365 C 33.9804 0.816273 -5.28433 0
M  V30 366 C 35.2804 -1.35656 -5.04376 0
M  V30 367 H 36.9744 -1.04276 -2.80654 0
M  V30 368 H 34.5204 -0.50288 -1.34934 0
M  V30 369 H 36.4734 1.03137 -4.08584 0
M  V30 370 H 35.1974 1.46239 -2.92031 0
M  V30 371 H 33.8564 -0.550525 -3.62443 0
M  V30 372 H 33.5044 1.65494 -4.74996 0
M  V30 373 H 33.2044 0.301067 -5.86828 0
M  V30 374 H 34.7284 1.22659 -5.98153 0
M  V30 375 H 36.1424 -1.01927 -5.64166 0
M  V30 376 H 34.5394 -1.8063 -5.7227 0
M  V30 377 H 35.6094 -2.14288 -4.34981 0
M  V30 378 N 36.9525 1.47285 -0.560781 0
M  V30 379 C 37.9155 2.28535 0.174488 0
M  V30 380 C 38.9155 1.37153 0.839388 0
M  V30 381 O 40.1055 1.59748 0.694702 0
M  V30 382 C 37.2375 3.16934 1.25561 0
M  V30 383 H 38.4305 2.95012 -0.539262 0
M  V30 384 H 35.9835 1.53034 -0.317865 0
M  V30 385 H 36.7185 2.55157 2.00164 0
M  V30 386 H 36.5035 3.8419 0.783604 0
M  V30 387 H 37.9935 3.78143 1.77193 0
M  V30 388 N 38.4306 0.297415 1.54768 0
M  V30 389 C 39.3936 -0.567375 2.22066 0
M  V30 390 C 40.3936 -1.06409 1.20556 0
M  V30 391 O 41.5836 -0.960691 1.45315 0
M  V30 392 C 38.7156 -1.78517 2.90421 0
M  V30 393 H 39.9086 0.0205534 2.99893 0
M  V30 394 H 37.4616 0.0482163 1.56226 0
M  V30 395 H 38.1966 -2.41303 2.16664 0
M  V30 396 H 37.9816 -1.43669 3.64831 0
M  V30 397 H 39.4716 -2.39964 3.41771 0
M  V30 398 N 39.9087 -1.5758 0.0250728 0
M  V30 399 C 41.1567 -1.91255 -0.653151 0
M  V30 400 C 41.4777 -0.901691 -1.729 0
M  V30 401 O 40.7477 0.0573785 -1.95816 0
M  V30 402 H 39.3277 -0.705942 -0.244243 0
M  V30 403 H 41.9897 -1.94767 0.0719209 0
M  V30 404 H 41.0857 -2.91752 -1.10847 0
M  V30 405 N 41.3868 0.248026 -1.55636 0
M  V30 406 C 42.6338 0.976224 -1.77415 0
M  V30 407 C 42.9618 1.85361 -0.589193 0
M  V30 408 O 42.2168 1.90973 0.427529 0
M  V30 409 C 42.5158 1.86819 -3.04686 0
M  V30 410 C 42.1818 1.14625 -4.36087 0
M  V30 411 C 40.8438 0.946723 -4.71795 0
M  V30 412 C 43.1958 0.634463 -5.17324 0
M  V30 413 C 40.5238 0.223091 -5.86276 0
M  V30 414 C 42.8758 -0.0756959 -6.32555 0
M  V30 415 C 41.5398 -0.286711 -6.66884 0
M  V30 416 H 40.8098 0.357226 -0.649208 0
M  V30 417 H 43.4568 0.246415 -1.89908 0
M  V30 418 H 41.7618 2.66502 -2.872 0
M  V30 419 H 43.4588 2.43329 -3.18735 0
M  V30 420 H 40.0488 1.3117 -4.08035 0
M  V30 421 H 44.2328 0.77616 -4.90193 0
M  V30 422 H 39.4888 0.0491185 -6.1138 0
M  V30 423 H 43.6628 -0.479899 -6.94745 0
M  V30 424 H 41.2898 -0.849389 -7.5544 0
M  V30 425 N 42.8649 1.48995 0.513639 0
M  V30 426 C 44.2759 1.5119 1.09537 0
M  V30 427 C 44.6269 0.290906 1.94031 0
M  V30 428 O 43.7519 -0.60049 2.07902 0
M  V30 429 C 44.3469 2.73964 1.99322 0
M  V30 430 C 42.9059 2.78978 2.52682 0
M  V30 431 C 42.0529 2.44934 1.30009 0
M  V30 432 H 45.0039 1.55875 0.298125 0
M  V30 433 H 45.0249 2.53409 2.83838 0
M  V30 434 H 44.5369 3.62813 1.37799 0
M  V30 435 H 42.6379 1.94378 3.1788 0
M  V30 436 H 42.7509 3.8083 2.90698 0
M  V30 437 H 41.1149 1.9644 1.62122 0
M  V30 438 H 41.8979 3.36043 0.702131 0
M  V30 439 N 44.343 -0.763751 1.37857 0
M  V30 440 C 45.253 -1.90817 1.36478 0
M  V30 441 C 46.269 -1.71997 0.263248 0
M  V30 442 O 47.445 -1.95095 0.499979 0
M  V30 443 C 44.51 -3.2605 1.17864 0
M  V30 444 C 43.571 -3.57467 2.3773 0
M  V30 445 C 42.804 -4.86249 2.19995 0
M  V30 446 O 43.027 -5.57884 1.18836 0
M  V30 447 O 41.961 -5.16911 3.08361 0
M  V30 448 H 45.787 -1.94933 2.32884 0
M  V30 449 H 43.372 -0.907619 1.1867 0
M  V30 450 H 45.254 -4.06924 1.09504 0
M  V30 451 H 43.929 -3.22769 0.245372 0
M  V30 452 H 42.836 -2.76796 2.51664 0
M  V30 453 H 44.169 -3.655 3.29652 0
M  V30 454 N 45.8211 -1.22559 -0.990812 0
M  V30 455 C 46.7511 -1.0218 -2.09956 0
M  V30 456 C 47.7321 0.0579394 -1.70001 0
M  V30 457 O 48.9171 -0.104684 -1.93918 0
M  V30 458 C 46.0471 -0.601023 -3.4206 0
M  V30 459 C 45.0011 -1.62694 -3.95872 0
M  V30 460 C 44.3271 -1.06193 -5.24049 0
M  V30 461 C 45.6271 -3.01743 -4.2632 0
M  V30 462 H 47.3211 -1.94916 -2.27262 0
M  V30 463 H 44.8671 -0.938566 -1.09211 0
M  V30 464 H 46.8201 -0.445561 -4.19038 0
M  V30 465 H 45.5441 0.362005 -3.24588 0
M  V30 466 H 44.2031 -1.77021 -3.21028 0
M  V30 467 H 43.8511 -0.0901903 -5.02919 0
M  V30 468 H 43.5511 -1.74732 -5.61019 0
M  V30 469 H 45.0751 -0.918092 -6.03658 0
M  V30 470 H 46.4891 -2.90777 -4.94087 0
M  V30 471 H 44.8861 -3.67425 -4.74467 0
M  V30 472 H 45.9561 -3.51518 -3.34011 0
M  V30 473 N 47.2992 1.18797 -1.03562 0
M  V30 474 C 48.5472 1.88278 -0.734569 0
M  V30 475 C 48.8682 1.8043 0.739586 0
M  V30 476 O 48.1382 1.21925 1.53333 0
M  V30 477 H 46.7182 0.696991 -0.268725 0
M  V30 478 H 49.3802 1.44192 -1.31129 0
M  V30 479 H 48.4762 2.94443 -1.03489 0
M  V30 480 N 48.7773 0.814389 1.34928 0
M  V30 481 C 50.0263 0.394871 1.97797 0
M  V30 482 C 50.3393 -1.04555 1.65311 0
M  V30 483 O 51.5453 -1.56856 2.21604 0
M  V30 484 C 50.0013 0.655103 3.53888 0
M  V30 485 C 49.6093 2.10858 3.95276 0
M  V30 486 C 51.3533 0.301329 4.23429 0
M  V30 487 C 49.2603 2.31415 5.44244 0
M  V30 488 H 48.1903 0.143913 0.740139 0
M  V30 489 H 50.8413 0.999544 1.53888 0
M  V30 490 H 49.2233 -0.0196253 3.95995 0
M  V30 491 H 50.3973 2.82176 3.64298 0
M  V30 492 H 48.7123 2.42297 3.38646 0
M  V30 493 H 51.3093 0.432869 5.32945 0
M  V30 494 H 51.6523 -0.75331 4.09428 0
M  V30 495 H 52.1853 0.930288 3.86769 0
M  V30 496 H 48.9243 3.35353 5.63222 0
M  V30 497 H 48.4443 1.6463 5.76764 0
M  V30 498 H 50.1233 2.13352 6.10811 0
M  V30 499 N 50.2554 -1.46986 0.568584 0
M  V30 500 C 51.5034 -2.02041 0.0487022 0
M  V30 501 C 51.8244 -1.44408 -1.31039 0
M  V30 502 O 51.0944 -0.623477 -1.85714 0
M  V30 503 H 49.6744 -0.746849 0.015014 0
M  V30 504 H 52.3364 -1.80257 0.741168 0
M  V30 505 H 51.4324 -3.12085 -0.0308961 0
M  V30 506 N 51.7335 -0.305618 -1.54608 0
M  V30 507 C 52.9805 0.302298 -2.00231 0
M  V30 508 C 53.3085 1.5354 -1.19398 0
M  V30 509 O 52.5635 1.93973 -0.259423 0
M  V30 510 C 52.8625 0.698983 -3.50498 0
M  V30 511 C 52.5285 -0.432903 -4.48817 0
M  V30 512 C 51.1905 -0.743622 -4.75419 0
M  V30 513 C 53.5425 -1.19409 -5.07337 0
M  V30 514 C 50.8705 -1.81857 -5.57804 0
M  V30 515 C 53.2225 -2.25899 -5.90891 0
M  V30 516 C 51.8865 -2.57572 -6.15803 0
M  V30 517 H 51.1565 0.110619 -0.732697 0
M  V30 518 H 53.8035 -0.425674 -1.86709 0
M  V30 519 H 52.1085 1.50711 -3.61654 0
M  V30 520 H 53.8055 1.1806 -3.83227 0
M  V30 521 H 50.3955 -0.18063 -4.28219 0
M  V30 522 H 54.5795 -0.967295 -4.86782 0
M  V30 523 H 49.8355 -2.06864 -5.75341 0
M  V30 524 H 54.0095 -2.85335 -6.35261 0
M  V30 525 H 51.6365 -3.40998 -6.7943 0
M  V30 526 N 53.2116 1.57565 -0.0334293 0
M  V30 527 C 54.1746 2.09393 0.932048 0
M  V30 528 C 55.1746 1.00986 1.25134 0
M  V30 529 O 56.3646 1.27129 1.19096 0
M  V30 530 C 53.4966 2.56338 2.2473 0
M  V30 531 H 54.6896 2.95984 0.483085 0
M  V30 532 H 52.2426 1.54819 0.21468 0
M  V30 533 H 52.9776 1.7309 2.74245 0
M  V30 534 H 52.7626 3.35542 2.02865 0
M  V30 535 H 54.2526 2.96646 2.93923 0
M  V30 536 N 54.6897 -0.239769 1.55765 0
M  V30 537 C 55.9377 -0.964892 1.77579 0
M  V30 538 C 56.2587 -1.85582 0.598699 0
M  V30 539 O 55.5287 -1.92075 -0.385226 0
M  V30 540 H 54.1087 -0.359265 0.654933 0
M  V30 541 H 56.7707 -0.256001 1.93211 0
M  V30 542 H 55.8667 -1.58243 2.69009 0
M  V30 543 N 56.1678 -1.49265 -0.50573 0
M  V30 544 C 57.4138 -1.58748 -1.26202 0
M  V30 545 C 57.7468 -0.271227 -1.92297 0
M  V30 546 O 57.0218 0.724831 -1.80489 0
M  V30 547 C 57.3048 -2.74332 -2.33268 0
M  V30 548 C 57.1578 -4.15737 -1.71705 0
M  V30 549 C 58.4768 -2.85576 -3.34865 0
M  V30 550 H 55.5958 -0.577826 -0.457478 0
M  V30 551 H 58.2378 -1.81532 -0.560897 0
M  V30 552 H 56.3878 -2.55036 -2.93068 0
M  V30 553 H 58.0598 -4.46537 -1.15769 0
M  V30 554 H 56.3028 -4.21605 -1.02135 0
M  V30 555 H 56.9738 -4.92477 -2.49341 0
M  V30 556 H 59.4498 -3.03127 -2.8505 0
M  V30 557 H 58.3258 -3.68135 -4.07146 0
M  V30 558 H 58.5868 -1.94732 -3.96903 0
M  V30 559 N 57.6459 0.756429 -1.3826 0
M  V30 560 C 58.6089 1.85176 -1.35065 0
M  V30 561 C 59.6089 1.58818 -0.251703 0
M  V30 562 O 60.7989 1.66615 -0.508433 0
M  V30 563 C 57.9309 3.22596 -1.10201 0
M  V30 564 H 59.1239 1.89417 -2.3251 0
M  V30 565 H 56.6769 0.95783 -1.23512 0
M  V30 566 H 57.4119 3.24025 -0.133504 0
M  V30 567 H 57.1969 3.43122 -1.89762 0
M  V30 568 H 58.6869 4.02673 -1.10654 0
M  V30 569 N 59.124 1.23083 0.984299 0
M  V30 570 C 60.054 1.03292 2.09411 0
M  V30 571 C 61.035 -0.048923 1.7003 0
M  V30 572 O 62.22 0.114967 1.93859 0
M  V30 573 C 59.35 0.619155 3.41736 0
M  V30 574 C 58.304 1.64791 3.95004 0
M  V30 575 C 57.63 1.0897 5.23478 0
M  V30 576 C 58.93 3.03999 4.24714 0
M  V30 577 H 60.624 1.96119 2.26225 0
M  V30 578 H 58.17 0.944344 1.08711 0
M  V30 579 H 60.123 0.467777 4.18796 0
M  V30 580 H 58.847 -0.344786 3.24775 0
M  V30 581 H 57.506 1.78721 3.20085 0
M  V30 582 H 57.154 0.11686 5.02864 0
M  V30 583 H 56.854 1.77704 5.60085 0
M  V30 584 H 58.378 0.950093 6.03163 0
M  V30 585 H 59.792 2.93393 4.92538 0
M  V30 586 H 58.189 3.69936 4.72512 0
M  V30 587 H 59.259 3.53285 3.32142 0
M  V30 588 N 60.6021 -1.18246 1.0419 0
M  V30 589 C 61.5651 -2.20128 0.638452 0
M  V30 590 C 62.5651 -1.57885 -0.304805 0
M  V30 591 O 63.7551 -1.73967 -0.0900369 0
M  V30 592 C 60.8871 -3.4084 -0.0637751 0
M  V30 593 H 62.0801 -2.57336 1.54007 0
M  V30 594 H 59.6331 -1.32152 0.834598 0
M  V30 595 H 60.3681 -3.09166 -0.979136 0
M  V30 596 H 60.1531 -3.8726 0.614198 0
M  V30 597 H 61.6431 -4.16274 -0.332512 0
M  V30 598 N 62.0802 -0.821533 -1.34494 0
M  V30 599 C 63.3272 -0.408946 -1.98328 0
M  V30 600 C 63.6552 1.02764 -1.65136 0
M  V30 601 O 62.9102 1.73026 -0.914349 0
M  V30 602 C 63.2092 -0.556512 -3.53041 0
M  V30 603 C 62.8752 -1.95861 -4.0614 0
M  V30 604 C 61.5372 -2.34217 -4.20352 0
M  V30 605 C 63.8892 -2.87523 -4.34718 0
M  V30 606 C 61.2172 -3.63572 -4.6047 0
M  V30 607 C 63.5692 -4.1634 -4.76281 0
M  V30 608 C 62.2332 -4.54675 -4.88699 0
M  V30 609 H 61.5032 -0.149644 -0.725732 0
M  V30 610 H 64.1502 -1.04521 -1.6046 0
M  V30 611 H 62.4552 0.163148 -3.9146 0
M  V30 612 H 64.1522 -0.217826 -4.00408 0
M  V30 613 H 60.7422 -1.65066 -3.95539 0
M  V30 614 H 64.9262 -2.59133 -4.23277 0
M  V30 615 H 60.1822 -3.93101 -4.68275 0
M  V30 616 H 64.3562 -4.87455 -4.97354 0
M  V30 617 H 61.9832 -5.54959 -5.19542 0
M  V30 618 N 63.5583 1.46682 -0.576371 0
M  V30 619 C 64.8063 2.02013 -0.0594163 0
M  V30 620 C 65.1273 1.45101 1.30271 0
M  V30 621 O 64.3973 0.633317 1.8538 0
M  V30 622 H 62.9773 0.746759 -0.0189745 0
M  V30 623 H 65.6393 1.79862 -0.750717 0
M  V30 624 H 64.7353 3.12097 0.014345 0
M  V30 625 N 65.0364 0.313813 1.54444 0
M  V30 626 C 65.9664 -0.549454 2.26943 0
M  V30 627 C 66.9474 -1.12741 1.27372 0
M  V30 628 O 68.1324 -1.15436 1.56167 0
M  V30 629 C 65.2624 -1.71523 3.01989 0
M  V30 630 C 64.2164 -1.26703 4.08816 0
M  V30 631 C 63.5424 -2.51898 4.71647 0
M  V30 632 C 64.8424 -0.388962 5.2085 0
M  V30 633 H 66.5364 0.0552661 2.99349 0
M  V30 634 H 64.0824 0.0280207 1.43973 0
M  V30 635 H 66.0354 -2.32535 3.51433 0
M  V30 636 H 64.7594 -2.34639 2.27183 0
M  V30 637 H 63.4184 -0.679896 3.6024 0
M  V30 638 H 63.0664 -3.13356 3.93468 0
M  V30 639 H 62.7664 -2.22605 5.43802 0
M  V30 640 H 64.2904 -3.1369 5.23861 0
M  V30 641 H 65.7044 -0.905107 5.6611 0
M  V30 642 H 64.1014 -0.18924 5.99802 0
M  V30 643 H 65.1714 0.582699 4.81386 0
M  V30 644 N 66.5145 -1.57545 0.0417849 0
M  V30 645 C 67.7425 -1.96624 -0.643928 0
M  V30 646 C 68.1575 -0.918897 -1.64929 0
M  V30 647 O 67.5145 0.0979323 -1.82237 0
M  V30 648 C 67.5655 -3.35781 -1.33914 0
M  V30 649 O 67.2865 -4.365 -0.374048 0
M  V30 650 C 68.7875 -3.89566 -2.1155 0
M  V30 651 H 66.0075 -0.647316 -0.176702 0
M  V30 652 H 68.5515 -2.04229 0.105304 0
M  V30 653 H 66.7065 -3.29357 -2.03968 0
M  V30 654 H 67.1205 -5.17248 -0.869179 0
M  V30 655 H 68.5945 -4.89242 -2.55628 0
M  V30 656 H 69.0715 -3.24488 -2.9598 0
M  V30 657 H 69.6775 -3.99298 -1.46427 0
M  V30 658 N 67.9926 0.231505 -1.5589 0
M  V30 659 C 69.2386 0.95877 -1.78705 0
M  V30 660 C 69.5716 1.8438 -0.609725 0
M  V30 661 O 68.8466 1.90521 0.391426 0
M  V30 662 C 69.1296 1.8062 -3.11526 0
M  V30 663 C 68.9826 0.948328 -4.39689 0
M  V30 664 C 70.3016 2.78585 -3.40703 0
M  V30 665 H 67.4206 0.347129 -0.650131 0
M  V30 666 H 70.0626 0.228259 -1.88624 0
M  V30 667 H 68.2126 2.42902 -3.03201 0
M  V30 668 H 69.8846 0.343016 -4.60023 0
M  V30 669 H 68.1276 0.253314 -4.3306 0
M  V30 670 H 68.7986 1.57543 -5.29041 0
M  V30 671 H 71.2746 2.26439 -3.49091 0
M  V30 672 H 70.1506 3.34988 -4.34826 0
M  V30 673 H 70.4116 3.55825 -2.62375 0
M  V30 674 N 69.4707 1.49531 0.497807 0
M  V30 675 C 70.4007 1.6935 1.60757 0
M  V30 676 C 71.3817 0.542218 1.61227 0
M  V30 677 O 72.5667 0.778417 1.77917 0
M  V30 678 C 69.6967 1.76298 2.99226 0
M  V30 679 C 68.6507 2.91248 3.13622 0
M  V30 680 C 67.9767 2.83312 4.53474 0
M  V30 681 C 69.2767 4.3214 2.93346 0
M  V30 682 H 70.9707 2.62263 1.44425 0
M  V30 683 H 68.5167 1.26208 0.693367 0
M  V30 684 H 70.4697 1.88749 3.76765 0
M  V30 685 H 69.1937 0.799871 3.16654 0
M  V30 686 H 67.8527 2.78404 2.38509 0
M  V30 687 H 67.5007 1.84902 4.67782 0
M  V30 688 H 67.2007 3.60465 4.64046 0
M  V30 689 H 68.7247 2.97775 5.33069 0
M  V30 690 H 70.1387 4.45649 3.60652 0
M  V30 691 H 68.5357 5.1054 3.15387 0
M  V30 692 H 69.6057 4.46363 1.89441 0
M  V30 693 N 70.9488 -0.749086 1.3866 0
M  V30 694 C 72.1768 -1.53834 1.38358 0
M  V30 695 C 72.5918 -1.88783 -0.0255219 0
M  V30 696 O 71.9488 -1.53101 -0.993292 0
M  V30 697 C 71.9998 -2.83468 2.2434 0
M  V30 698 O 71.7208 -2.50008 3.5976 0
M  V30 699 C 73.2218 -3.7758 2.32267 0
M  V30 700 H 70.4418 -0.47585 0.473083 0
M  V30 701 H 72.9858 -0.926726 1.82297 0
M  V30 702 H 71.1408 -3.40995 1.83851 0
M  V30 703 H 71.5548 -3.33182 4.05081 0
M  V30 704 H 73.0288 -4.65478 2.96706 0
M  V30 705 H 73.5058 -4.18334 1.33765 0
M  V30 706 H 74.1118 -3.25976 2.73166 0
M  V30 707 N 72.4269 -1.23603 -0.977757 0
M  V30 708 C 73.3599 -0.962772 -2.06896 0
M  V30 709 C 74.3379 0.0998743 -1.62293 0
M  V30 710 O 75.5219 -0.0349421 -1.88468 0
M  V30 711 C 72.6489 -0.45095 -3.35685 0
M  V30 712 C 71.6949 -1.50061 -3.99229 0
M  V30 713 S 72.5279 -3.07884 -4.38142 0
M  V30 714 C 73.6839 -2.58378 -5.7008 0
M  V30 715 H 73.9169 -1.88677 -2.29757 0
M  V30 716 H 71.4499 -1.06876 -1.11431 0
M  V30 717 H 73.4079 -0.162261 -4.10179 0
M  V30 718 H 72.0689 0.452179 -3.10828 0
M  V30 719 H 71.2619 -1.09269 -4.92013 0
M  V30 720 H 70.8639 -1.73878 -3.31123 0
M  V30 721 H 73.1559 -2.00563 -6.47133 0
M  V30 722 H 74.0989 -3.49711 -6.15717 0
M  V30 723 H 74.5069 -1.99143 -5.28207 0
M  V30 724 N 73.905 1.17692 -1.04816 0
M  V30 725 C 74.868 2.19787 -0.650117 0
M  V30 726 C 75.868 1.58044 0.296427 0
M  V30 727 O 77.058 1.74012 0.0808097 0
M  V30 728 C 74.19 3.40869 0.0456987 0
M  V30 729 H 75.383 2.56516 -1.5537 0
M  V30 730 H 72.936 1.31708 -0.841594 0
M  V30 731 H 73.671 3.09681 0.962726 0
M  V30 732 H 73.456 3.86928 -0.634727 0
M  V30 733 H 74.946 4.16445 0.310432 0
M  V30 734 N 75.3831 0.828654 1.34056 0
M  V30 735 C 76.6301 0.419458 1.98108 0
M  V30 736 C 76.9581 -1.01886 1.65679 0
M  V30 737 O 76.2131 -1.72539 0.923512 0
M  V30 738 C 76.5121 0.575226 3.52741 0
M  V30 739 C 76.1781 1.98012 4.05095 0
M  V30 740 C 74.8401 2.36442 4.19104 0
M  V30 741 C 77.1921 2.89824 4.33188 0
M  V30 742 C 74.5201 3.66009 4.58535 0
M  V30 743 C 76.8721 4.1886 4.74066 0
M  V30 744 C 75.5361 4.5726 4.86281 0
M  V30 745 H 74.8061 0.153491 0.724929 0
M  V30 746 H 77.4531 1.05371 1.59904 0
M  V30 747 H 75.7581 -0.142385 3.91541 0
M  V30 748 H 77.4551 0.239057 4.00287 0
M  V30 749 H 74.0451 1.67162 3.94658 0
M  V30 750 H 78.2291 2.61375 4.21897 0
M  V30 751 H 73.4851 3.95579 4.66184 0
M  V30 752 H 77.6591 4.90086 4.94761 0
M  V30 753 H 75.2861 5.57707 5.16592 0
M  V30 754 N 76.8612 -1.46375 0.584142 0
M  V30 755 C 77.8242 -2.28784 -0.138108 0
M  V30 756 C 78.8242 -1.38471 -0.817462 0
M  V30 757 O 80.0142 -1.60833 -0.669199 0
M  V30 758 C 77.1462 -3.18892 -1.20503 0
M  V30 759 H 78.3392 -2.94117 0.586127 0
M  V30 760 H 75.8922 -1.52509 0.342171 0
M  V30 761 H 76.6272 -2.58309 -1.96079 0
M  V30 762 H 76.4122 -3.85388 -0.722384 0
M  V30 763 H 77.9022 -3.80914 -1.71155 0
M  V30 764 N 78.3393 -0.321999 -1.54275 0
M  V30 765 C 79.5853 0.281461 -2.00837 0
M  V30 766 C 79.9183 1.51909 -1.20985 0
M  V30 767 O 79.1933 1.923 -0.291733 0
M  V30 768 C 79.4763 0.617162 -3.54772 0
M  V30 769 C 79.3293 -0.631064 -4.45351 0
M  V30 770 C 80.6483 1.43542 -4.16033 0
M  V30 771 H 77.7673 0.100826 -0.730071 0
M  V30 772 H 80.4093 -0.438268 -1.84876 0
M  V30 773 H 78.5593 1.23034 -3.68504 0
M  V30 774 H 80.2313 -1.26934 -4.43492 0
M  V30 775 H 78.4743 -1.26025 -4.15091 0
M  V30 776 H 79.1453 -0.351735 -5.50878 0
M  V30 777 H 81.6213 0.917134 -4.05867 0
M  V30 778 H 80.4973 1.63907 -5.23856 0
M  V30 779 H 80.7583 2.43108 -3.69257 0
M  V30 780 N 79.8174 1.5752 -0.0501392 0
M  V30 781 C 81.0654 1.9227 0.622642 0
M  V30 782 C 81.3864 0.929083 1.71444 0
M  V30 783 O 80.6564 -0.0262186 1.95882 0
M  V30 784 H 79.2364 0.709739 0.232981 0
M  V30 785 H 81.8984 1.94628 -0.102898 0
M  V30 786 H 80.9944 2.93479 1.06191 0
M  V30 787 N 81.2955 -0.223234 1.56011 0
M  V30 788 C 82.2455 -1.28008 1.88674 0
M  V30 789 C 83.2295 -1.42369 0.749663 0
M  V30 790 O 84.4215 -1.45212 1.01205 0
M  V30 791 C 81.5505 -2.63084 2.20548 0
M  V30 792 C 80.6365 -2.52632 3.40643 0
M  V30 793 N 81.0275 -2.11829 4.59306 0
M  V30 794 C 79.3255 -2.83594 3.44224 0
M  V30 795 C 80.0265 -2.12587 5.41463 0
M  V30 796 N 79.0025 -2.5301 4.81131 0
M  V30 797 H 82.8045 -0.955487 2.77935 0
M  V30 798 H 80.3185 -0.431801 1.56554 0
M  V30 799 H 82.3155 -3.39385 2.42122 0
M  V30 800 H 80.9755 -2.96391 1.32599 0
M  V30 801 H 81.9865 -1.82988 4.84496 0
M  V30 802 H 78.6635 -3.21284 2.66614 0
M  V30 803 H 80.0535 -1.83179 6.46448 0
M  V30 804 N 82.7736 -1.49793 -0.48987 0
M  V30 805 C 84.0226 -1.59085 -1.23995 0
M  V30 806 C 84.3356 -0.287907 -1.9347 0
M  V30 807 O 85.5416 -0.259506 -2.70257 0
M  V30 808 C 83.9976 -2.80736 -2.252 0
M  V30 809 C 83.6056 -4.17833 -1.61614 0
M  V30 810 C 85.3496 -2.99364 -3.00967 0
M  V30 811 C 83.2566 -5.30693 -2.60996 0
M  V30 812 H 82.1866 -0.592372 -0.466488 0
M  V30 813 H 84.8376 -1.76197 -0.51252 0
M  V30 814 H 83.2196 -2.57142 -3.01154 0
M  V30 815 H 84.3936 -4.51608 -0.915774 0
M  V30 816 H 82.7086 -4.04656 -0.981977 0
M  V30 817 H 85.3056 -3.80851 -3.75308 0
M  V30 818 H 85.6486 -2.10356 -3.59244 0
M  V30 819 H 86.1816 -3.2305 -2.32128 0
M  V30 820 H 82.9206 -6.21796 -2.07485 0
M  V30 821 H 82.4406 -5.01359 -3.2924 0
M  V30 822 H 84.1196 -5.6049 -3.23202 0
M  V30 823 N 84.2517 0.741722 -1.39055 0
M  V30 824 C 85.4767 1.53607 -1.39354 0
M  V30 825 C 85.9017 1.88096 0.0116905 0
M  V30 826 O 85.2597 1.5143 0.996924 0
M  V30 827 C 85.3077 2.80441 -2.26682 0
M  V30 828 O 84.4117 3.76088 -1.69208 0
M  V30 829 H 83.7527 0.464142 -0.474835 0
M  V30 830 H 86.2827 0.915665 -1.82967 0
M  V30 831 H 86.2927 3.29246 -2.40959 0
M  V30 832 H 84.9677 2.5467 -3.2881 0
M  V30 833 H 83.5447 3.34833 -1.64138 0
M  V30 834 N 85.7298 1.2412 0.971189 0
M  V30 835 C 86.9778 1.07668 1.71032 0
M  V30 836 C 87.2988 -0.385797 1.91146 0
M  V30 837 O 86.5688 -1.27569 1.4867 0
M  V30 838 H 85.1488 0.395429 0.633755 0
M  V30 839 H 87.8108 1.55984 1.16855 0
M  V30 840 H 86.9068 1.57195 2.69622 0
M  V30 841 N 87.2079 -1.17134 1.05439 0
M  V30 842 C 88.4559 -1.87085 0.764429 0
M  V30 843 C 88.7769 -1.81584 -0.710787 0
M  V30 844 O 88.0469 -1.24349 -1.51374 0
M  V30 845 H 86.6269 -0.692627 0.279779 0
M  V30 846 H 89.2889 -1.42087 1.33406 0
M  V30 847 H 88.3849 -2.92759 1.0816 0
M  V30 848 N 88.686 -0.835752 -1.33615 0
M  V30 849 C 89.636 -0.238856 -2.26745 0
M  V30 850 C 90.62 0.604343 -1.49119 0
M  V30 851 O 91.812 0.456822 -1.71003 0
M  V30 852 C 88.941 0.587725 -3.38232 0
M  V30 853 C 88.027 -0.266811 -4.2326 0
M  V30 854 N 88.418 -1.34403 -4.87616 0
M  V30 855 C 86.716 -0.0533131 -4.45968 0
M  V30 856 C 87.417 -1.86819 -5.50884 0
M  V30 857 N 86.393 -1.17013 -5.30857 0
M  V30 858 H 90.195 -1.06266 -2.74016 0
M  V30 859 H 87.709 -0.679881 -1.47483 0
M  V30 860 H 89.706 1.03161 -4.03935 0
M  V30 861 H 88.366 1.40954 -2.9251 0
M  V30 862 H 89.377 -1.7269 -4.88261 0
M  V30 863 H 86.054 0.735312 -4.10974 0
M  V30 864 H 87.444 -2.7701 -6.1214 0
M  V30 865 N 90.1641 1.46063 -0.591896 0
M  V30 866 C 91.4111 2.02338 -0.0809991 0
M  V30 867 C 91.7391 1.46228 1.28249 0
M  V30 868 O 90.9941 0.620818 1.85592 0
M  V30 869 C 91.2931 3.57391 0.0249813 0
M  V30 870 C 90.9591 4.32583 -1.27211 0
M  V30 871 C 89.6211 4.52844 -1.62745 0
M  V30 872 C 91.9731 4.75687 -2.13005 0
M  V30 873 C 89.3011 5.13462 -2.83855 0
M  V30 874 C 91.6531 5.37644 -3.3335 0
M  V30 875 C 90.3171 5.5613 -3.69155 0
M  V30 876 H 89.5871 0.740407 -0.0296397 0
M  V30 877 H 92.2341 1.75321 -0.770374 0
M  V30 878 H 90.5391 3.83597 0.797537 0
M  V30 879 H 92.2361 3.98621 0.436184 0
M  V30 880 H 88.8261 4.17116 -0.985499 0
M  V30 881 H 93.0101 4.59782 -1.86855 0
M  V30 882 H 88.2661 5.25965 -3.11722 0
M  V30 883 H 92.4401 5.7 -4.00092 0
M  V30 884 H 90.0671 6.0287 -4.63089 0
M  V30 885 N 91.6422 0.330177 1.54103 0
M  V30 886 C 92.5902 -0.548226 2.26047 0
M  V30 887 C 93.5842 -1.11309 1.27698 0
M  V30 888 O 94.7902 -1.06036 1.45452 0
M  V30 889 H 91.1652 -0.195456 0.726155 0
M  V30 890 H 93.1362 0.0807567 2.98291 0
M  V30 891 C 91.8852 -1.69415 3.03634 0
M  V30 892 H 91.2082 -1.26876 3.79134 0
M  V30 893 H 92.6482 -2.28423 3.5721 0
M  V30 894 C 91.1072 -2.61569 2.12328 0
M  V30 895 O 91.6372 -3.63462 1.7105 0
M  V30 896 N 89.8432 -2.29952 1.77681 0
M  V30 897 H 89.3902 -1.47134 2.11446 0
M  V30 898 H 89.3482 -2.91871 1.16869 0
M  V30 899 N 93.1203 -1.57491 0.0584922 0
M  V30 900 C 94.5313 -1.80526 -0.476138 0
M  V30 901 C 94.8823 -0.971334 -1.70469 0
M  V30 902 O 94.0073 -0.190012 -2.15564 0
M  V30 903 C 94.6023 -3.27424 -0.870587 0
M  V30 904 C 93.1613 -3.51351 -1.35015 0
M  V30 905 C 92.3083 -2.75343 -0.32887 0
M  V30 906 H 95.2593 -1.56133 0.284312 0
M  V30 907 H 95.2803 -3.38745 -1.73299 0
M  V30 908 H 94.7923 -3.88093 0.0237627 0
M  V30 909 H 92.8933 -2.95971 -2.26345 0
M  V30 910 H 93.0063 -4.60059 -1.33726 0
M  V30 911 H 91.3703 -2.417 -0.803321 0
M  V30 912 H 92.1533 -3.38743 0.557521 0
M  V30 913 N 94.5984 0.214957 -1.56127 0
M  V30 914 C 95.5614 1.24997 -1.92116 0
M  V30 915 C 96.5614 1.39467 -0.800344 0
M  V30 916 O 97.7514 1.37619 -1.06802 0
M  V30 917 C 94.8834 2.62271 -2.17777 0
M  V30 918 H 96.0764 0.942875 -2.84693 0
M  V30 919 H 93.6294 0.455654 -1.49511 0
M  V30 920 H 94.3644 2.98068 -1.27773 0
M  V30 921 H 94.1494 2.53143 -2.99434 0
M  V30 922 H 95.6394 3.36946 -2.46693 0
M  V30 923 N 96.0765 1.50051 0.48192 0
M  V30 924 C 97.3225 1.60736 1.2366 0
M  V30 925 C 97.6555 0.301786 1.91841 0
M  V30 926 O 96.9305 -0.696025 1.8162 0
M  V30 927 C 97.2135 2.78009 2.28874 0
M  V30 928 C 97.0665 4.18416 1.65069 0
M  V30 929 C 98.3855 2.90867 3.30279 0
M  V30 930 H 95.5045 0.585031 0.448228 0
M  V30 931 H 98.1465 1.82402 0.531946 0
M  V30 932 H 96.2965 2.59667 2.88973 0
M  V30 933 H 97.9685 4.48322 1.0865 0
M  V30 934 H 96.2115 4.23177 0.954148 0
M  V30 935 H 96.8825 4.96381 2.41474 0
M  V30 936 H 99.3585 3.07623 2.80191 0
M  V30 937 H 98.2345 3.74566 4.01238 0
M  V30 938 H 98.4955 2.01021 3.93755 0
M  V30 939 N 97.5546 -0.734337 1.39446 0
M  V30 940 C 98.7826 -1.52358 1.39981 0
M  V30 941 C 99.1976 -1.88799 -0.0054975 0
M  V30 942 O 98.5546 -1.54146 -0.976998 0
M  V30 943 C 98.6056 -2.81072 2.27333 0
M  V30 944 O 98.3266 -2.46178 3.62392 0
M  V30 945 C 99.8276 -3.75096 2.36259 0
M  V30 946 H 97.0476 -0.470806 0.478103 0
M  V30 947 H 99.5916 -0.907339 1.83269 0
M  V30 948 H 97.7466 -3.39026 1.87457 0
M  V30 949 H 98.1606 -3.28866 4.08592 0
M  V30 950 H 99.6346 -4.62305 3.01626 0
M  V30 951 H 100.112 -4.16892 1.38194 0
M  V30 952 H 100.718 -3.23061 2.76608 0
M  V30 953 N 99.0327 -1.24633 -0.964593 0
M  V30 954 C 100.282 -1.08188 -1.7023 0
M  V30 955 C 100.595 0.37873 -1.91898 0
M  V30 956 O 101.801 0.663427 -2.6327 0
M  V30 957 C 100.257 -1.88773 -3.06419 0
M  V30 958 C 99.8647 -3.39263 -2.92582 0
M  V30 959 C 101.609 -1.80867 -3.84041 0
M  V30 960 C 99.5157 -4.1218 -4.24101 0
M  V30 961 H 98.4457 -0.401245 -0.638372 0
M  V30 962 H 101.097 -1.48742 -1.07462 0
M  V30 963 H 99.4787 -1.41035 -3.70034 0
M  V30 964 H 100.653 -3.94603 -2.37961 0
M  V30 965 H 98.9677 -3.48154 -2.28424 0
M  V30 966 H 101.565 -2.32646 -4.81435 0
M  V30 967 H 101.908 -0.774543 -4.09031 0
M  V30 968 H 102.441 -2.26301 -3.27159 0
M  V30 969 H 99.1797 -5.15965 -4.04303 0
M  V30 970 H 98.6997 -3.61626 -4.78526 0
M  V30 971 H 100.379 -4.19349 -4.92702 0
M  V30 972 N 100.511 1.16574 -1.06058 0
M  V30 973 C 101.759 1.86677 -0.77434 0
M  V30 974 C 102.08 1.81959 0.701147 0
M  V30 975 O 101.35 1.2515 1.50713 0
M  V30 976 H 99.9298 0.691134 -0.283449 0
M  V30 977 H 102.592 1.41378 -1.34158 0
M  V30 978 H 101.688 2.92181 -1.09711 0
M  V30 979 N 101.989 0.842826 1.3317 0
M  V30 980 C 102.919 0.294028 2.31641 0
M  V30 981 C 103.9 -0.600401 1.59151 0
M  V30 982 O 105.085 -0.523124 1.87022 0
M  V30 983 C 102.215 -0.528416 3.43257 0
M  V30 984 C 101.169 0.27056 4.27144 0
M  V30 985 C 100.495 -0.675881 5.30411 0
M  V30 986 C 101.795 1.48981 5.00602 0
M  V30 987 H 103.489 1.11681 2.77791 0
M  V30 988 H 101.035 0.538478 1.33553 0
M  V30 989 H 102.988 -0.922674 4.11175 0
M  V30 990 H 101.712 -1.38445 2.95805 0
M  V30 991 H 100.371 0.646427 3.60856 0
M  V30 992 H 100.019 -1.52842 4.79216 0
M  V30 993 H 99.7189 -0.145374 5.8742 0
M  V30 994 H 101.243 -1.06757 6.01195 0
M  V30 995 H 102.657 1.16849 5.61266 0
M  V30 996 H 101.054 1.95739 5.6728 0
M  V30 997 H 102.124 2.25746 4.29147 0
M  V30 998 N 103.467 -1.45747 0.599634 0
M  V30 999 C 104.713 -2.03153 0.100263 0
M  V30 1000 C 105.068 -1.46073 -1.25221 0
M  V30 1001 O 104.361 -0.622878 -1.81193 0
M  V30 1002 C 104.555 -3.57399 -0.00602758 0
M  V30 1003 C 104.384 -4.2944 1.3346 0
M  V30 1004 C 103.154 -4.6768 1.91321 0
M  V30 1005 C 105.352 -4.61905 2.2616 0
M  V30 1006 N 103.334 -5.24544 3.18946 0
M  V30 1007 C 104.705 -5.19518 3.3838 0
M  V30 1008 C 106.76 -4.43841 2.25631 0
M  V30 1009 C 105.463 -5.60972 4.50226 0
M  V30 1010 C 107.489 -4.86322 3.36518 0
M  V30 1011 C 106.851 -5.44021 4.4746 0
M  V30 1012 H 102.95 -0.777911 0.0798696 0
M  V30 1013 H 105.534 -1.77674 0.796244 0
M  V30 1014 H 103.705 -3.82556 -0.671212 0
M  V30 1015 H 105.437 -4.01457 -0.51133 0
M  V30 1016 H 102.192 -4.5098 1.44617 0
M  V30 1017 H 102.616 -5.57483 3.84112 0
M  V30 1018 H 107.258 -3.98552 1.41123 0
M  V30 1019 H 104.976 -6.0523 5.35464 0
M  V30 1020 H 108.562 -4.74084 3.37247 0
M  V30 1021 H 107.442 -5.76289 5.31846 0
M  V30 1022 N 104.945 -0.338344 -1.53925 0
M  V30 1023 C 105.908 0.508299 -2.23493 0
M  V30 1024 C 106.908 1.03175 -1.23335 0
M  V30 1025 O 108.098 0.921826 -1.47811 0
M  V30 1026 C 105.23 1.70754 -2.95052 0
M  V30 1027 H 106.423 -0.100058 -2.99733 0
M  V30 1028 H 103.976 -0.0896198 -1.56043 0
M  V30 1029 H 104.711 2.35474 -2.22986 0
M  V30 1030 H 104.496 1.33946 -3.68512 0
M  V30 1031 H 105.986 2.30818 -3.48013 0
M  V30 1032 N 106.423 1.57458 -0.0668435 0
M  V30 1033 C 107.671 1.92919 0.602214 0
M  V30 1034 C 107.992 0.947215 1.70449 0
M  V30 1035 O 107.262 -0.00544117 1.95899 0
M  V30 1036 H 105.842 0.71217 0.22544 0
M  V30 1037 H 108.504 1.94508 -0.123535 0
M  V30 1038 H 107.6 2.94589 1.03073 0
M  V30 1039 N 107.901 -0.206675 1.56239 0
M  V30 1040 C 109.149 -0.927007 1.79586 0
M  V30 1041 C 109.47 -1.8427 0.637929 0
M  V30 1042 O 108.74 -1.92849 -0.344398 0
M  V30 1043 H 107.32 -0.345292 0.662407 0
M  V30 1044 H 109.982 -0.21496 1.93711 0
M  V30 1045 H 109.078 -1.52501 2.72305 0
M  V30 1046 N 109.379 -1.50304 -0.473955 0
M  V30 1047 C 110.795 -1.37667 -0.807466 0
M  V30 1048 C 110.995 -0.430555 -1.96846 0
M  V30 1049 O 110.051 0.127874 -2.52176 0
M  V30 1050 C 111.364 -2.78974 -1.12223 0
M  V30 1051 C 112.912 -2.87868 -1.22885 0
M  V30 1052 C 113.387 -4.30003 -1.57676 0
M  V30 1053 N 114.878 -4.3294 -1.64673 0
M  V30 1054 C 115.613 -5.3991 -1.93091 0
M  V30 1055 N 115.109 -6.57092 -2.1955 0
M  V30 1056 N 116.902 -5.27351 -1.94569 0
M  V30 1057 H 109.053 -2.10394 0.291212 0
M  V30 1058 H 111.316 -0.945575 0.0677609 0
M  V30 1059 H 111.022 -3.50031 -0.342229 0
M  V30 1060 H 110.896 -3.16038 -2.05913 0
M  V30 1061 H 113.283 -2.17032 -1.99953 0
M  V30 1062 H 113.364 -2.54352 -0.271814 0
M  V30 1063 H 113.008 -5.01375 -0.81149 0
M  V30 1064 H 112.938 -4.61004 -2.54525 0
M  V30 1065 H 115.429 -3.48441 -1.46277 0
M  V30 1066 H 115.742 -7.34425 -2.405 0
M  V30 1067 H 114.087 -6.60272 -2.16948 0
M  V30 1068 H 117.278 -4.34801 -1.73394 0
M  V30 1069 H 117.451 -6.10805 -2.16381 0
M  V30 1070 N 110.857 0.726932 -1.39834 0
M  V30 1071 C 112.104 1.48664 -1.37496 0
M  V30 1072 C 112.432 1.94482 0.0264678 0
M  V30 1073 O 111.687 1.67692 1.00886 0
M  V30 1074 C 111.986 2.73495 -2.30077 0
M  V30 1075 C 111.652 2.46502 -3.77555 0
M  V30 1076 C 110.314 2.3885 -4.17737 0
M  V30 1077 C 112.666 2.23604 -4.70798 0
M  V30 1078 C 109.994 2.06352 -5.49214 0
M  V30 1079 C 112.346 1.92622 -6.02561 0
M  V30 1080 C 111.01 1.83444 -6.41798 0
M  V30 1081 H 110.28 0.544001 -0.503135 0
M  V30 1082 H 112.927 0.833657 -1.72402 0
M  V30 1083 H 111.232 3.43575 -1.88317 0
M  V30 1084 H 112.929 3.31549 -2.25558 0
M  V30 1085 H 109.519 2.5334 -3.45712 0
M  V30 1086 H 113.703 2.28479 -4.40581 0
M  V30 1087 H 108.959 1.97776 -5.78528 0
M  V30 1088 H 113.133 1.73914 -6.74334 0
M  V30 1089 H 110.76 1.58029 -7.43593 0
M  V30 1090 N 112.336 1.25143 0.95797 0
M  V30 1091 C 113.747 1.08851 1.51685 0
M  V30 1092 C 114.098 -0.33687 1.93286 0
M  V30 1093 O 113.223 -1.22644 1.7829 0
M  V30 1094 C 113.818 1.96978 2.75654 0
M  V30 1095 C 112.377 1.84881 3.27866 0
M  V30 1096 C 111.524 1.91329 2.0072 0
M  V30 1097 H 114.475 1.38478 0.77522 0
M  V30 1098 H 114.496 1.5078 3.4935 0
M  V30 1099 H 114.008 3.00712 2.45345 0
M  V30 1100 H 112.109 0.840182 3.63004 0
M  V30 1101 H 112.222 2.6951 3.96107 0
M  V30 1102 H 110.586 1.35174 2.15871 0
M  V30 1103 H 111.369 2.96661 1.72764 0
M  V30 1104 N 113.814 -1.1601 1.06675 0
M  V30 1105 C 114.777 -2.18724 0.685001 0
M  V30 1106 C 115.777 -1.58496 -0.271246 0
M  V30 1107 O 116.967 -1.74119 -0.0531156 0
M  V30 1108 C 114.099 -3.40899 0.00853648 0
M  V30 1109 H 115.292 -2.54011 1.59431 0
M  V30 1110 H 112.845 -1.30352 0.862441 0
M  V30 1111 H 113.58 -3.11173 -0.913337 0
M  V30 1112 H 113.365 -3.8587 0.696204 0
M  V30 1113 H 114.855 -4.16886 -0.24414 0
M  V30 1114 N 115.292 -0.849877 -1.32721 0
M  V30 1115 C 116.239 -0.289033 -2.28983 0
M  V30 1116 C 117.209 0.601324 -1.54833 0
M  V30 1117 O 118.394 0.537253 -1.8308 0
M  V30 1118 C 115.534 0.520623 -3.4115 0
M  V30 1119 C 114.647 -0.394989 -4.3019 0
M  V30 1120 C 113.782 0.426834 -5.29482 0
M  V30 1121 C 112.821 -0.486476 -6.10164 0
M  V30 1122 N 111.958 0.297879 -7.01468 0
M  V30 1123 H 116.798 -1.11519 -2.76347 0
M  V30 1124 H 114.335 -0.56138 -1.35967 0
M  V30 1125 H 116.293 1.00563 -4.04899 0
M  V30 1126 H 114.923 1.31165 -2.9495 0
M  V30 1127 H 113.975 -0.99836 -3.67065 0
M  V30 1128 H 115.287 -1.09612 -4.86607 0
M  V30 1129 H 114.441 0.975205 -5.98811 0
M  V30 1130 H 113.18 1.16136 -4.73671 0
M  V30 1131 H 112.185 -1.04677 -5.39743 0
M  V30 1132 H 113.41 -1.21953 -6.6806 0
M  V30 1133 H 111.356 1.01558 -6.48091 0
M  V30 1134 H 111.273 -0.344318 -7.55216 0
M  V30 1135 H 112.541 0.828131 -7.75089 0
M  V30 1136 N 116.77 1.45427 -0.607355 0
M  V30 1137 C 117.68 2.34325 0.113463 0
M  V30 1138 C 118.696 1.51226 0.860617 0
M  V30 1139 O 119.872 1.84029 0.818255 0
M  V30 1140 C 116.937 3.28839 1.09844 0
M  V30 1141 C 115.998 4.27844 0.353271 0
M  V30 1142 C 115.231 5.17842 1.29133 0
M  V30 1143 O 115.454 5.11264 2.52913 0
M  V30 1144 O 114.388 5.96713 0.788523 0
M  V30 1145 H 118.214 2.97364 -0.617094 0
M  V30 1146 H 115.799 1.44807 -0.367619 0
M  V30 1147 H 117.681 3.8708 1.66575 0
M  V30 1148 H 116.356 2.68365 1.81003 0
M  V30 1149 H 115.263 3.7322 -0.256494 0
M  V30 1150 H 116.596 4.91173 -0.317822 0
M  V30 1151 N 118.248 0.346503 1.53744 0
M  V30 1152 C 119.494 -0.249473 2.0126 0
M  V30 1153 C 119.827 -1.49965 1.23386 0
M  V30 1154 O 119.102 -1.91811 0.32229 0
M  V30 1155 C 119.385 -0.560643 3.55709 0
M  V30 1156 C 119.238 0.701836 4.44291 0
M  V30 1157 C 120.557 -1.36905 4.18264 0
M  V30 1158 H 117.676 -0.0891987 0.731582 0
M  V30 1159 H 120.318 0.467624 1.84156 0
M  V30 1160 H 118.468 -1.17156 3.70414 0
M  V30 1161 H 120.14 1.33974 4.41417 0
M  V30 1162 H 118.383 1.32612 4.13033 0
M  V30 1163 H 119.054 0.43933 5.50249 0
M  V30 1164 H 121.53 -0.852448 4.07275 0
M  V30 1165 H 120.406 -1.55553 5.26398 0
M  V30 1166 H 120.667 -2.37203 3.73078 0
M  V30 1167 N 119.726 -1.57421 0.075193 0
M  V30 1168 C 120.972 -1.93905 -0.594025 0
M  V30 1169 C 121.305 -0.955701 -1.69056 0
M  V30 1170 O 120.58 0.0145373 -1.94495 0
M  V30 1171 C 120.863 -3.40638 -1.1678 0
M  V30 1172 C 120.716 -4.49733 -0.0776792 0
M  V30 1173 C 122.035 -3.88259 -2.07228 0
M  V30 1174 H 119.154 -0.705105 -0.214466 0
M  V30 1175 H 121.796 -1.8947 0.141854 0
M  V30 1176 H 119.946 -3.44549 -1.79494 0
M  V30 1177 H 121.618 -4.57942 0.555573 0
M  V30 1178 H 119.861 -4.29751 0.591286 0
M  V30 1179 H 120.532 -5.49549 -0.519603 0
M  V30 1180 H 123.008 -3.86376 -1.54445 0
M  V30 1181 H 121.884 -4.91533 -2.44308 0
M  V30 1182 H 122.145 -3.26396 -2.98191 0
M  V30 1183 N 121.204 0.198386 -1.56346 0
M  V30 1184 C 122.452 0.91747 -1.80075 0
M  V30 1185 C 122.773 1.83929 -0.647692 0
M  V30 1186 O 122.043 1.93029 0.334166 0
M  V30 1187 H 120.623 0.341774 -0.664228 0
M  V30 1188 H 123.285 0.204684 -1.93822 0
M  V30 1189 H 122.381 1.51055 -2.7311 0
M  V30 1190 N 122.682 1.50554 0.465978 0
M  V30 1191 C 123.912 1.65323 1.23903 0
M  V30 1192 C 124.32 0.338051 1.86155 0
M  V30 1193 O 123.663 -0.690518 1.70228 0
M  V30 1194 C 123.725 2.69048 2.3844 0
M  V30 1195 C 123.389 4.12462 1.96784 0
M  V30 1196 C 124.386 4.98168 1.48745 0
M  V30 1197 C 122.071 4.58407 2.05349 0
M  V30 1198 C 124.065 6.27868 1.0982 0
M  V30 1199 C 121.752 5.88112 1.66035 0
M  V30 1200 C 122.75 6.72668 1.18349 0
M  V30 1201 O 122.438 7.99951 0.795825 0
M  V30 1202 H 122.17 0.558629 0.38067 0
M  V30 1203 H 124.724 1.97561 0.562022 0
M  V30 1204 H 122.954 2.32062 3.09328 0
M  V30 1205 H 124.643 2.72985 3.0039 0
M  V30 1206 H 125.409 4.63885 1.41546 0
M  V30 1207 H 121.288 3.92735 2.41414 0
M  V30 1208 H 124.832 6.93819 0.725293 0
M  V30 1209 H 120.729 6.21914 1.72895 0
M  V30 1210 H 121.497 8.13265 0.924222 0
M  V30 1211 N 124.16 -0.719506 1.40217 0
M  V30 1212 C 125.406 -1.48152 1.38488 0
M  V30 1213 C 125.739 -1.94195 -0.0141867 0
M  V30 1214 O 125.014 -1.67884 -0.982096 0
M  V30 1215 C 125.297 -2.71035 2.37091 0
M  V30 1216 C 125.15 -2.30912 3.86005 0
M  V30 1217 C 126.469 -3.73182 2.33288 0
M  V30 1218 H 123.588 -0.537395 0.504357 0
M  V30 1219 H 126.23 -0.821472 1.71324 0
M  V30 1220 H 124.38 -3.27352 2.0922 0
M  V30 1221 H 126.052 -1.80107 4.24687 0
M  V30 1222 H 124.295 -1.62958 4.02029 0
M  V30 1223 H 124.966 -3.18978 4.50508 0
M  V30 1224 H 127.442 -3.26485 2.57966 0
M  V30 1225 H 126.318 -4.56806 3.04334 0
M  V30 1226 H 126.579 -4.21202 1.34317 0
M  V30 1227 N 125.638 -1.25649 -0.95132 0
M  V30 1228 C 126.887 -1.09988 -1.69073 0
M  V30 1229 C 127.2 0.358355 -1.92289 0
M  V30 1230 O 128.406 0.635466 -2.63958 0
M  V30 1231 C 126.862 -1.92012 -3.044 0
M  V30 1232 C 126.47 -3.42347 -2.88968 0
M  V30 1233 C 128.214 -1.8493 -3.82101 0
M  V30 1234 C 126.121 -4.16655 -4.19705 0
M  V30 1235 H 125.051 -0.407993 -0.63408 0
M  V30 1236 H 127.702 -1.49873 -1.05879 0
M  V30 1237 H 126.084 -1.44952 -3.68517 0
M  V30 1238 H 127.258 -3.97104 -2.33762 0
M  V30 1239 H 125.573 -3.50557 -2.24719 0
M  V30 1240 H 128.17 -2.37739 -4.78941 0
M  V30 1241 H 128.513 -0.817883 -4.08187 0
M  V30 1242 H 129.046 -2.29758 -3.2474 0
M  V30 1243 H 125.785 -5.20224 -3.98807 0
M  V30 1244 H 125.305 -3.66681 -4.74663 0
M  V30 1245 H 126.984 -4.24551 -4.88227 0
M  V30 1246 N 127.117 1.15442 -1.07289 0
M  V30 1247 C 128.08 2.18358 -0.696591 0
M  V30 1248 C 129.08 1.58637 0.262837 0
M  V30 1249 O 130.27 1.74145 0.0438809 0
M  V30 1250 C 127.402 3.4089 -0.0266151 0
M  V30 1251 H 128.595 2.53162 -1.60776 0
M  V30 1252 H 126.148 1.29893 -0.869342 0
M  V30 1253 H 126.883 3.11653 0.896822 0
M  V30 1254 H 126.668 3.85495 -0.716657 0
M  V30 1255 H 128.158 4.17009 0.222028 0
M  V30 1256 N 128.595 0.856903 1.32268 0
M  V30 1257 C 129.527 0.260412 2.27716 0
M  V30 1258 C 130.54 -0.569137 1.52528 0
M  V30 1259 O 131.729 -0.39326 1.74114 0
M  V30 1260 C 128.829 -0.650477 3.32599 0
M  V30 1261 C 128.002 0.14372 4.37164 0
M  V30 1262 C 127.061 -0.69328 5.21613 0
M  V30 1263 O 126.087 -0.12599 5.69061 0
M  V30 1264 N 127.289 -2.00761 5.44679 0
M  V30 1265 H 130.054 1.08059 2.79541 0
M  V30 1266 H 127.615 0.717103 1.45152 0
M  V30 1267 H 129.607 -1.21581 3.86005 0
M  V30 1268 H 128.177 -1.37133 2.80915 0
M  V30 1269 H 127.397 0.890486 3.8401 0
M  V30 1270 H 128.685 0.68915 5.04111 0
M  V30 1271 H 128.083 -2.49181 5.07863 0
M  V30 1272 H 126.64 -2.52103 6.01072 0
M  V30 1273 N 130.073 -1.45103 0.615059 0
M  V30 1274 C 131.319 -2.02483 0.113347 0
M  V30 1275 C 131.652 -1.48146 -1.25564 0
M  V30 1276 O 130.927 -0.659104 -1.82992 0
M  V30 1277 C 131.21 -3.60005 0.0825278 0
M  V30 1278 C 131.063 -4.2466 1.48271 0
M  V30 1279 C 132.382 -4.35972 -0.601401 0
M  V30 1280 H 129.501 -0.735764 0.0426632 0
M  V30 1281 H 132.143 -1.72868 0.788461 0
M  V30 1282 H 130.293 -3.85367 -0.492378 0
M  V30 1283 H 131.965 -4.10458 2.10527 0
M  V30 1284 H 130.208 -3.82772 2.04127 0
M  V30 1285 H 130.879 -5.336 1.41332 0
M  V30 1286 H 133.355 -4.15947 -0.112666 0
M  V30 1287 H 132.231 -5.45697 -0.592097 0
M  V30 1288 H 132.492 -4.09391 -1.66887 0
M  V30 1289 N 131.551 -0.354651 -1.53558 0
M  V30 1290 C 132.797 0.238797 -2.01389 0
M  V30 1291 C 133.13 1.49309 -1.2418 0
M  V30 1292 O 132.405 1.91638 -0.332457 0
M  V30 1293 C 132.688 0.541771 -3.56001 0
M  V30 1294 C 132.541 -0.725388 -4.43912 0
M  V30 1295 C 133.86 1.34685 -4.18984 0
M  V30 1296 H 130.979 0.0853177 -0.732045 0
M  V30 1297 H 133.621 -0.477384 -1.83905 0
M  V30 1298 H 131.771 1.15189 -3.71031 0
M  V30 1299 H 133.443 -1.36313 -4.407 0
M  V30 1300 H 131.686 -1.34801 -4.12324 0
M  V30 1301 H 132.357 -0.468505 -5.50008 0
M  V30 1302 H 134.833 0.830837 -4.07721 0
M  V30 1303 H 133.709 1.52759 -5.27215 0
M  V30 1304 H 133.97 2.35221 -3.74331 0
M  V30 1305 N 133.029 1.57378 -0.0835403 0
M  V30 1306 C 134.277 1.93547 0.581718 0
M  V30 1307 C 134.598 0.96524 1.69435 0
M  V30 1308 O 133.868 0.0153369 1.95894 0
M  V30 1309 H 132.448 0.714521 0.217874 0
M  V30 1310 H 135.11 1.94366 -0.144158 0
M  V30 1311 H 134.206 2.95665 0.999423 0
M  V30 1312 N 134.507 -0.190092 1.56449 0
M  V30 1313 C 135.755 -0.907908 1.80559 0
M  V30 1314 C 136.076 -1.83583 0.657438 0
M  V30 1315 O 135.346 -1.93203 -0.323924 0
M  V30 1316 H 133.926 -0.338247 0.666032 0
M  V30 1317 H 136.588 -0.194403 1.93928 0
M  V30 1318 H 135.684 -1.49604 2.73907 0
M  V30 1319 N 135.985 -1.50799 -0.457987 0
M  V30 1320 C 137.234 -1.6168 -1.20593 0
M  V30 1321 C 137.547 -0.32888 -1.92815 0
M  V30 1322 O 138.753 -0.316773 -2.69646 0
M  V30 1323 C 137.209 -2.8545 -2.19195 0
M  V30 1324 C 136.817 -4.21168 -1.52715 0
M  V30 1325 C 138.561 -3.05681 -2.94549 0
M  V30 1326 C 136.468 -5.3611 -2.4968 0
M  V30 1327 H 135.398 -0.602134 -0.453818 0
M  V30 1328 H 138.049 -1.77245 -0.475031 0
M  V30 1329 H 136.431 -2.63472 -2.95632 0
M  V30 1330 H 137.605 -4.53449 -0.819775 0
M  V30 1331 H 135.92 -4.06648 -0.895922 0
M  V30 1332 H 138.517 -3.88727 -3.67145 0
M  V30 1333 H 138.86 -2.17929 -3.54701 0
M  V30 1334 H 139.393 -3.27901 -2.25223 0
M  V30 1335 H 136.132 -6.26057 -1.94249 0
M  V30 1336 H 135.652 -5.0823 -3.18532 0
M  V30 1337 H 137.331 -5.6722 -3.11241 0
M  V30 1338 N 137.463 0.71206 -1.40597 0
M  V30 1339 C 138.709 1.47416 -1.39271 0
M  V30 1340 C 139.042 1.942 0.00388791 0
M  V30 1341 O 138.317 1.68403 0.973179 0
M  V30 1342 C 138.6 2.69774 -2.38525 0
M  V30 1343 C 138.453 2.28861 -3.87224 0
M  V30 1344 C 139.772 3.71939 -2.35264 0
M  V30 1345 H 136.891 0.534713 -0.5072 0
M  V30 1346 H 139.533 0.812375 -1.71757 0
M  V30 1347 H 137.683 3.26238 -2.10953 0
M  V30 1348 H 139.355 1.77852 -4.25636 0
M  V30 1349 H 137.598 1.60824 -4.02887 0
M  V30 1350 H 138.269 3.16584 -4.52193 0
M  V30 1351 H 140.745 3.25113 -2.59694 0
M  V30 1352 H 139.621 4.55186 -3.06753 0
M  V30 1353 H 139.882 4.20484 -1.36549 0
M  V30 1354 N 138.941 1.26152 0.944643 0
M  V30 1355 C 139.904 1.07474 2.0244 0
M  V30 1356 C 140.904 0.0242064 1.60782 0
M  V30 1357 O 142.094 0.267302 1.72137 0
M  V30 1358 C 139.226 0.633956 3.34953 0
M  V30 1359 H 140.419 2.03336 2.20442 0
M  V30 1360 H 137.972 1.087 1.12312 0
M  V30 1361 H 138.707 -0.326811 3.22649 0
M  V30 1362 H 138.492 1.39247 3.66542 0
M  V30 1363 H 139.982 0.52501 4.14287 0
M  V30 1364 N 140.419 -1.14872 1.07899 0
M  V30 1365 C 141.382 -2.17986 0.708161 0
M  V30 1366 C 142.382 -1.58775 -0.25442 0
M  V30 1367 O 143.572 -1.74166 -0.034645 0
M  V30 1368 C 140.704 -3.40871 0.0446929 0
M  V30 1369 H 141.897 -2.52306 1.62116 0
M  V30 1370 H 139.45 -1.2943 0.876218 0
M  V30 1371 H 140.185 -3.12124 -0.880281 0
M  V30 1372 H 139.97 -3.8511 0.737091 0
M  V30 1373 H 141.46 -4.17121 -0.19991 0
M  V30 1374 N 141.898 -0.863906 -1.31812 0
M  V30 1375 C 142.861 -0.320212 -2.26952 0
M  V30 1376 C 143.861 0.525369 -1.51975 0
M  V30 1377 O 145.051 0.335547 -1.70938 0
M  V30 1378 C 142.183 0.545919 -3.365 0
M  V30 1379 H 143.376 -1.16004 -2.76556 0
M  V30 1380 H 140.929 -0.638995 -1.42641 0
M  V30 1381 H 141.664 1.40718 -2.92179 0
M  V30 1382 H 141.449 -0.0594674 -3.92055 0
M  V30 1383 H 142.939 0.918796 -4.07367 0
M  V30 1384 N 143.376 1.44774 -0.622745 0
M  V30 1385 C 144.306 2.33382 0.0741861 0
M  V30 1386 C 145.287 1.47719 0.843387 0
M  V30 1387 O 146.472 1.76458 0.810934 0
M  V30 1388 C 143.602 3.30663 1.06204 0
M  V30 1389 C 142.556 4.26079 0.405037 0
M  V30 1390 C 141.882 5.13165 1.5022 0
M  V30 1391 C 143.182 5.1781 -0.683414 0
M  V30 1392 H 144.876 2.91905 -0.665713 0
M  V30 1393 H 142.422 1.40363 -0.321587 0
M  V30 1394 H 144.375 3.9153 1.55827 0
M  V30 1395 H 143.099 2.70331 1.83272 0
M  V30 1396 H 141.758 3.66532 -0.0704683 0
M  V30 1397 H 141.406 4.49191 2.26355 0
M  V30 1398 H 141.106 5.77812 1.06803 0
M  V30 1399 H 142.63 5.76902 2.00041 0
M  V30 1400 H 144.044 5.72661 -0.270631 0
M  V30 1401 H 142.441 5.91015 -1.04023 0
M  V30 1402 H 143.511 4.59326 -1.55395 0
M  V30 1403 N 144.854 0.36279 1.53368 0
M  V30 1404 C 145.784 -0.476976 2.28576 0
M  V30 1405 C 146.765 -1.08631 1.30894 0
M  V30 1406 O 147.95 -1.10409 1.59761 0
M  V30 1407 C 145.08 -1.61828 3.07293 0
M  V30 1408 C 144.034 -1.13633 4.1264 0
M  V30 1409 C 143.36 -2.36766 4.79423 0
M  V30 1410 C 144.66 -0.223061 5.21823 0
M  V30 1411 H 146.354 0.150474 2.99022 0
M  V30 1412 H 143.9 0.0738103 1.43811 0
M  V30 1413 H 145.853 -2.21237 3.58653 0
M  V30 1414 H 144.577 -2.27292 2.34533 0
M  V30 1415 H 143.236 -0.564945 3.62221 0
M  V30 1416 H 142.884 -3.0068 4.03238 0
M  V30 1417 H 142.584 -2.05192 5.50609 0
M  V30 1418 H 144.108 -2.96865 5.33576 0
M  V30 1419 H 145.522 -0.724545 5.68703 0
M  V30 1420 H 143.919 0.001678 6.001 0
M  V30 1421 H 144.989 0.735553 4.79289 0
M  V30 1422 N 146.332 -1.57332 0.0918853 0
M  V30 1423 C 147.562 -1.98286 -0.580205 0
M  V30 1424 C 147.97 -0.969713 -1.6246 0
M  V30 1425 O 147.313 0.0493501 -1.83634 0
M  V30 1426 C 147.375 -3.35603 -1.28882 0
M  V30 1427 C 147.039 -4.55285 -0.395559 0
M  V30 1428 C 148.036 -5.18687 0.355002 0
M  V30 1429 C 145.721 -5.01314 -0.314556 0
M  V30 1430 C 147.715 -6.26484 1.17458 0
M  V30 1431 C 145.402 -6.08979 0.508677 0
M  V30 1432 C 146.4 -6.71429 1.2519 0
M  V30 1433 O 146.088 -7.77018 2.06151 0
M  V30 1434 H 145.82 -0.656678 -0.160466 0
M  V30 1435 H 148.374 -2.04721 0.16688 0
M  V30 1436 H 146.604 -3.25842 -2.08241 0
M  V30 1437 H 148.293 -3.61026 -1.85512 0
M  V30 1438 H 149.059 -4.84058 0.302134 0
M  V30 1439 H 144.938 -4.5247 -0.882697 0
M  V30 1440 H 148.482 -6.75159 1.75518 0
M  V30 1441 H 144.379 -6.4304 0.563037 0
M  V30 1442 H 145.147 -7.93991 1.98799 0
M  V30 1443 N 147.81 0.181792 -1.56548 0
M  V30 1444 C 148.74 1.22765 -1.98623 0
M  V30 1445 C 149.721 1.46747 -0.860189 0
M  V30 1446 O 150.906 1.58259 -1.12551 0
M  V30 1447 C 148.036 2.56894 -2.33715 0
M  V30 1448 C 146.99 2.475 -3.49182 0
M  V30 1449 C 146.316 3.86023 -3.69986 0
M  V30 1450 C 147.616 1.98866 -4.82959 0
M  V30 1451 H 149.31 0.877942 -2.86239 0
M  V30 1452 H 146.856 0.42088 -1.37712 0
M  V30 1453 H 148.809 3.30253 -2.61746 0
M  V30 1454 H 147.533 2.93632 -1.42997 0
M  V30 1455 H 146.192 1.76596 -3.21262 0
M  V30 1456 H 145.84 4.20136 -2.76576 0
M  V30 1457 H 145.54 3.80609 -4.47672 0
M  V30 1458 H 147.064 4.60984 -4.00407 0
M  V30 1459 H 148.478 2.61992 -5.09934 0
M  V30 1460 H 146.875 2.04424 -5.64208 0
M  V30 1461 H 147.945 0.942465 -4.75653 0
M  V30 1462 N 149.288 1.51039 0.449983 0
M  V30 1463 C 150.537 1.62317 1.19733 0
M  V30 1464 C 150.85 0.339101 1.92638 0
M  V30 1465 O 152.056 0.331069 2.69474 0
M  V30 1466 C 150.512 2.86608 2.17678 0
M  V30 1467 C 150.12 4.21972 1.50479 0
M  V30 1468 C 151.864 3.07239 2.92924 0
M  V30 1469 C 149.771 5.37426 2.46834 0
M  V30 1470 H 148.701 0.604532 0.450619 0
M  V30 1471 H 151.352 1.77494 0.465625 0
M  V30 1472 H 149.734 2.65037 2.94231 0
M  V30 1473 H 150.908 4.53878 0.795716 0
M  V30 1474 H 149.223 4.07117 0.874344 0
M  V30 1475 H 151.82 3.90668 3.65079 0
M  V30 1476 H 152.163 2.19807 3.5354 0
M  V30 1477 H 152.696 3.29091 2.23481 0
M  V30 1478 H 149.435 6.27079 1.90926 0
M  V30 1479 H 148.955 5.09912 3.15832 0
M  V30 1480 H 150.634 5.68862 3.08228 0
M  V30 1481 N 150.766 -0.704594 1.40972 0
M  V30 1482 C 151.729 -1.80035 1.41845 0
M  V30 1483 C 152.729 -1.57774 0.310474 0
M  V30 1484 O 153.919 -1.64613 0.56992 0
M  V30 1485 C 151.051 -3.18284 1.22098 0
M  V30 1486 H 152.244 -1.80658 2.3938 0
M  V30 1487 H 149.797 -0.911329 1.26982 0
M  V30 1488 H 150.532 -3.23306 0.253672 0
M  V30 1489 H 150.317 -3.35843 2.02366 0
M  V30 1490 H 151.807 -3.98289 1.25522 0
M  V30 1491 N 152.244 -1.26651 -0.937939 0
M  V30 1492 C 153.469 -1.15279 -1.72411 0
M  V30 1493 C 153.894 0.287866 -1.85884 0
M  V30 1494 O 153.252 1.20855 -1.35143 0
M  V30 1495 C 153.3 -1.83028 -3.10698 0
M  V30 1496 O 152.404 -1.12128 -3.96864 0
M  V30 1497 H 151.745 -0.401504 -0.528858 0
M  V30 1498 H 154.275 -1.67531 -1.1745 0
M  V30 1499 H 154.285 -1.89981 -3.6107 0
M  V30 1500 H 152.96 -2.87833 -3.00208 0
M  V30 1501 H 151.537 -1.13173 -3.55312 0
M  V30 1502 N 153.722 1.14298 -1.08507 0
M  V30 1503 C 154.97 1.84993 -0.813763 0
M  V30 1504 C 155.291 1.83405 0.662393 0
M  V30 1505 O 154.561 1.28319 1.48024 0
M  V30 1506 H 153.141 0.684966 -0.298045 0
M  V30 1507 H 155.803 1.385 -1.37126 0
M  V30 1508 H 154.899 2.89788 -1.15884 0
M  V30 1509 N 155.201 0.870884 1.31352 0
M  V30 1510 C 156.148 0.325425 2.28494 0
M  V30 1511 C 157.118 -0.576615 1.5577 0
M  V30 1512 O 158.303 -0.508059 1.83911 0
M  V30 1513 C 155.443 -0.466283 3.41935 0
M  V30 1514 C 154.556 0.463378 4.29508 0
M  V30 1515 C 153.691 -0.342544 5.30094 0
M  V30 1516 C 152.73 0.583486 6.09313 0
M  V30 1517 N 151.867 -0.186244 7.01853 0
M  V30 1518 H 156.707 1.15901 2.74538 0
M  V30 1519 H 154.244 0.58294 1.35056 0
M  V30 1520 H 156.202 -0.941085 4.06447 0
M  V30 1521 H 154.832 -1.26456 2.97 0
M  V30 1522 H 153.884 1.05663 3.65431 0
M  V30 1523 H 155.196 1.1734 4.84802 0
M  V30 1524 H 154.35 -0.879816 6.00287 0
M  V30 1525 H 153.089 -1.08585 4.75458 0
M  V30 1526 H 152.094 1.13251 5.3801 0
M  V30 1527 H 153.319 1.32566 6.66035 0
M  V30 1528 H 151.265 -0.912348 6.49625 0
M  V30 1529 H 151.182 0.464422 7.54572 0
M  V30 1530 H 152.45 -0.704716 7.76308 0
M  V30 1531 N 156.679 -1.44442 0.630414 0
M  V30 1532 C 157.907 -2.06414 0.141671 0
M  V30 1533 C 158.322 -1.47105 -1.18345 0
M  V30 1534 O 157.679 -0.593662 -1.72574 0
M  V30 1535 C 157.73 -3.61494 0.0199784 0
M  V30 1536 O 157.451 -4.18594 1.29269 0
M  V30 1537 C 158.952 -4.40499 -0.497544 0
M  V30 1538 H 156.172 -0.666292 0.0793452 0
M  V30 1539 H 158.716 -1.85323 0.864614 0
M  V30 1540 H 156.871 -3.8185 -0.653402 0
M  V30 1541 H 157.285 -5.12026 1.13707 0
M  V30 1542 H 158.759 -5.49433 -0.531708 0
M  V30 1543 H 159.236 -4.11895 -1.52445 0
M  V30 1544 H 159.842 -4.25061 0.142562 0
M  V30 1545 N 158.157 -0.370918 -1.53173 0
M  V30 1546 C 159.405 0.216673 -2.00935 0
M  V30 1547 C 159.726 1.48845 -1.25977 0
M  V30 1548 O 158.996 1.92286 -0.374551 0
M  V30 1549 H 157.576 0.0830565 -0.742368 0
M  V30 1550 H 160.238 -0.49838 -1.8842 0
M  V30 1551 H 159.334 0.439893 -3.08984 0
M  V30 1552 N 159.635 1.57281 -0.100228 0
M  V30 1553 C 160.882 1.94537 0.562268 0
M  V30 1554 C 161.21 0.982315 1.67871 0
M  V30 1555 O 160.465 0.00280936 1.957 0
M  V30 1556 C 160.764 3.38305 1.15259 0
M  V30 1557 C 160.43 4.50618 0.159409 0
M  V30 1558 C 159.092 4.81066 -0.113741 0
M  V30 1559 C 161.444 5.18615 -0.518461 0
M  V30 1560 C 158.772 5.76835 -1.07137 0
M  V30 1561 C 161.124 6.15412 -1.46459 0
M  V30 1562 C 159.788 6.44262 -1.74592 0
M  V30 1563 H 159.058 0.711863 0.205748 0
M  V30 1564 H 161.705 1.90679 -0.17715 0
M  V30 1565 H 160.01 3.38766 1.96836 0
M  V30 1566 H 161.707 3.64435 1.67297 0
M  V30 1567 H 158.297 4.2689 0.382491 0
M  V30 1568 H 162.481 4.95264 -0.320581 0
M  V30 1569 H 157.737 5.975 -1.29628 0
M  V30 1570 H 161.911 6.67194 -1.99564 0
M  V30 1571 H 159.538 7.1828 -2.48953 0
M  V30 1572 N 161.113 -0.173488 1.56642 0
M  V30 1573 C 162.39 -0.917617 1.7274 0
M  V30 1574 C 162.77 -2.00484 0.661027 0
M  V30 1575 O 162.118 -2.26184 -0.32453 0
M  V30 1576 C 162.328 -1.48433 3.15862 0
M  V30 1577 C 163.676 -1.95809 3.76754 0
M  V30 1578 O 164.7 -1.58231 3.19126 0
M  V30 1579 O 163.559 -2.65024 4.77938 0
M  V30 1580 H 160.653 -0.431772 0.705338 0
M  V30 1581 H 163.199 -0.161487 1.6893 0
M  V30 1582 H 161.971 -0.701715 3.84957 0
M  V30 1583 H 161.594 -2.30471 3.23989 0
M  V30 1584 N 162.591 -1.51276 -0.441967 0
M  V30 1585 C 163.554 -1.7167 -1.51862 0
M  V30 1586 C 164.554 -0.586793 -1.49711 0
M  V30 1587 O 165.744 -0.854276 -1.51815 0
M  V30 1588 C 162.876 -1.76889 -2.91416 0
M  V30 1589 H 164.069 -2.67754 -1.35084 0
M  V30 1590 H 161.622 -1.41196 -0.670333 0
M  V30 1591 H 162.357 -0.826026 -3.13604 0
M  V30 1592 H 162.142 -2.59001 -2.94382 0
M  V30 1593 H 163.632 -1.94522 -3.69528 0
M  V30 1594 N 164.069 0.697108 -1.41344 0
M  V30 1595 C 165.032 1.79281 -1.42797 0
M  V30 1596 C 166.032 1.57607 -0.318837 0
M  V30 1597 O 167.222 1.64309 -0.578642 0
M  V30 1598 C 164.354 3.17632 -1.23785 0
M  V30 1599 H 165.547 1.79385 -2.40335 0
M  V30 1600 H 163.1 0.904582 -1.27464 0
M  V30 1601 H 163.835 3.23167 -0.270814 0
M  V30 1602 H 163.62 3.34765 -2.04144 0
M  V30 1603 H 165.11 3.97617 -1.27633 0
M  V30 1604 N 165.547 1.27147 0.931209 0
M  V30 1605 C 166.51 1.09615 2.01289 0
M  V30 1606 C 167.51 0.0412581 1.60747 0
M  V30 1607 O 168.7 0.285545 1.71844 0
M  V30 1608 C 165.832 0.669447 3.34262 0
M  V30 1609 H 167.025 2.05662 2.18273 0
M  V30 1610 H 164.578 1.09885 1.11153 0
M  V30 1611 H 165.313 -0.292572 3.22978 0
M  V30 1612 H 165.098 1.43127 3.65044 0
M  V30 1613 H 166.588 0.568921 4.13706 0
M  V30 1614 N 167.025 -1.13721 1.09112 0
M  V30 1615 C 168.25 -1.89314 0.847053 0
M  V30 1616 C 168.675 -1.78416 -0.595774 0
M  V30 1617 O 168.033 -1.12942 -1.41823 0
M  V30 1618 C 168.081 -3.3701 1.28284 0
M  V30 1619 O 167.185 -4.10054 0.439267 0
M  V30 1620 H 166.526 -0.588745 0.307044 0
M  V30 1621 H 169.056 -1.43902 1.45442 0
M  V30 1622 H 169.066 -3.87834 1.26683 0
M  V30 1623 H 167.741 -3.4426 2.33363 0
M  V30 1624 H 166.318 -3.69266 0.519312 0
M  V30 1625 N 168.503 -0.877838 -1.30888 0
M  V30 1626 C 169.751 -0.491723 -1.96027 0
M  V30 1627 C 170.072 0.960827 -1.69685 0
M  V30 1628 O 169.342 1.67462 -1.01654 0
M  V30 1629 H 167.922 -0.17885 -0.725273 0
M  V30 1630 H 170.584 -1.11935 -1.59551 0
M  V30 1631 H 169.68 -0.656016 -3.05128 0
M  V30 1632 N 169.982 1.44106 -0.638065 0
M  V30 1633 C 171.229 2.01978 -0.14533 0
M  V30 1634 C 171.557 1.50234 1.23532 0
M  V30 1635 O 170.812 0.679548 1.83523 0
M  V30 1636 C 171.111 3.5729 -0.0887327 0
M  V30 1637 C 170.777 4.28317 -1.40909 0
M  V30 1638 C 169.439 4.47437 -1.77069 0
M  V30 1639 C 171.791 4.6867 -2.28031 0
M  V30 1640 C 169.119 5.04171 -3.00047 0
M  V30 1641 C 171.471 5.26766 -3.50286 0
M  V30 1642 C 170.135 5.44104 -3.86661 0
M  V30 1643 H 169.405 0.739089 -0.0531801 0
M  V30 1644 H 172.052 1.72781 -0.825761 0
M  V30 1645 H 170.357 3.8594 0.675095 0
M  V30 1646 H 172.054 3.99807 0.309145 0
M  V30 1647 H 168.644 4.1377 -1.1177 0
M  V30 1648 H 172.828 4.53604 -2.01388 0
M  V30 1649 H 168.084 5.15782 -3.28298 0
M  V30 1650 H 172.258 5.56983 -4.18023 0
M  V30 1651 H 169.885 5.87832 -4.82034 0
M  V30 1652 N 171.46 0.379036 1.52974 0
M  V30 1653 C 172.423 -0.448865 2.24762 0
M  V30 1654 C 173.423 -0.998689 1.26027 0
M  V30 1655 O 174.613 -0.882313 1.50203 0
M  V30 1656 C 171.745 -1.62872 2.99476 0
M  V30 1657 H 172.938 0.179491 2.99362 0
M  V30 1658 H 170.491 0.13096 1.5575 0
M  V30 1659 H 171.226 -2.29479 2.29151 0
M  V30 1660 H 171.011 -1.24128 3.71934 0
M  V30 1661 H 172.501 -2.2151 3.5401 0
M  V30 1662 N 172.938 -1.57226 0.108567 0
M  V30 1663 C 174.163 -1.99604 -0.563303 0
M  V30 1664 C 174.588 -0.987563 -1.6009 0
M  V30 1665 O 173.946 0.0421687 -1.81251 0
M  V30 1666 C 173.994 -3.40902 -1.17552 0
M  V30 1667 O 173.098 -3.42896 -2.2912 0
M  V30 1668 H 172.439 -0.648704 -0.1417 0
M  V30 1669 H 174.969 -2.03679 0.193961 0
M  V30 1670 H 174.979 -3.78886 -1.51357 0
M  V30 1671 H 173.654 -4.1382 -0.415445 0
M  V30 1672 H 172.231 -3.1672 -1.96832 0
M  V30 1673 N 174.416 0.165178 -1.56732 0
M  V30 1674 C 175.364 1.22369 -1.97809 0
M  V30 1675 C 176.358 1.45488 -0.867741 0
M  V30 1676 O 177.564 1.45995 -1.05288 0
M  V30 1677 H 173.939 0.411486 -0.629431 0
M  V30 1678 H 175.91 0.850425 -2.86025 0
M  V30 1679 C 174.659 2.55403 -2.35934 0
M  V30 1680 H 173.982 2.38438 -3.20916 0
M  V30 1681 H 175.422 3.2814 -2.68514 0
M  V30 1682 C 173.881 3.14611 -1.20506 0
M  V30 1683 O 174.411 3.98626 -0.496016 0
M  V30 1684 N 172.617 2.7379 -0.97403 0
M  V30 1685 H 172.164 2.0557 -1.55238 0
M  V30 1686 H 172.122 3.1374 -0.203573 0
M  V30 1687 N 175.894 1.51508 0.433938 0
M  V30 1688 C 177.142 1.6402 1.18075 0
M  V30 1689 C 177.463 0.360328 1.91642 0
M  V30 1690 O 176.733 -0.623945 1.85698 0
M  V30 1691 H 175.313 0.6045 0.43885 0
M  V30 1692 H 177.975 1.88452 0.497178 0
M  V30 1693 H 177.071 2.46949 1.90847 0
M  V30 1694 N 177.372 -0.689602 1.41712 0
M  V30 1695 C 178.602 -1.47613 1.44548 0
M  V30 1696 C 179.01 -1.89132 0.0509034 0
M  V30 1697 O 178.353 -1.57741 -0.94146 0
M  V30 1698 C 178.415 -2.76596 2.2964 0
M  V30 1699 C 178.079 -2.57245 3.77722 0
M  V30 1700 C 179.076 -2.22804 4.69739 0
M  V30 1701 C 176.761 -2.727 4.2183 0
M  V30 1702 C 178.755 -2.04064 6.03851 0
M  V30 1703 C 176.442 -2.53576 5.56006 0
M  V30 1704 C 177.44 -2.1931 6.46832 0
M  V30 1705 O 177.128 -2.00359 7.78532 0
M  V30 1706 H 176.86 -0.461227 0.494212 0
M  V30 1707 H 179.414 -0.856045 1.86711 0
M  V30 1708 H 177.644 -3.41033 1.82301 0
M  V30 1709 H 179.333 -3.38424 2.24107 0
M  V30 1710 H 180.099 -2.10473 4.36951 0
M  V30 1711 H 175.978 -2.98353 3.51435 0
M  V30 1712 H 179.522 -1.77241 6.74708 0
M  V30 1713 H 175.419 -2.65499 5.88371 0
M  V30 1714 H 176.187 -2.15075 7.89737 0
M  V30 1715 N 178.85 -1.27639 -0.924453 0
M  V30 1716 C 180.098 -1.13941 -1.66918 0
M  V30 1717 C 180.419 0.314589 -1.92446 0
M  V30 1718 O 179.689 1.21964 -1.53303 0
M  V30 1719 H 178.269 -0.418678 -0.618642 0
M  V30 1720 H 180.931 -1.60213 -1.10985 0
M  V30 1721 H 180.027 -1.67094 -2.63602 0
M  V30 1722 N 180.328 1.1314 -1.09713 0
M  V30 1723 C 181.238 2.22242 -0.751367 0
M  V30 1724 C 182.254 1.72224 0.247938 0
M  V30 1725 O 183.43 2.01205 0.0885463 0
M  V30 1726 C 180.495 3.46231 -0.180274 0
M  V30 1727 C 179.556 4.11125 -1.2359 0
M  V30 1728 C 178.789 5.29195 -0.691966 0
M  V30 1729 O 179.012 5.68342 0.48414 0
M  V30 1730 O 177.946 5.84214 -1.44838 0
M  V30 1731 H 181.772 2.54197 -1.66186 0
M  V30 1732 H 179.357 1.21331 -0.871735 0
M  V30 1733 H 181.239 4.21185 0.134739 0
M  V30 1734 H 179.914 3.1597 0.703185 0
M  V30 1735 H 178.821 3.37985 -1.60366 0
M  V30 1736 H 180.154 4.45524 -2.09211 0
M  V30 1737 N 181.806 0.884767 1.30421 0
M  V30 1738 C 182.756 0.322846 2.25703 0
M  V30 1739 C 183.74 -0.548582 1.51259 0
M  V30 1740 O 184.932 -0.39304 1.72581 0
M  V30 1741 C 182.061 -0.461787 3.4018 0
M  V30 1742 C 181.147 0.423717 4.21978 0
M  V30 1743 N 181.538 1.52408 4.82292 0
M  V30 1744 C 179.836 0.218795 4.45463 0
M  V30 1745 C 180.537 2.07136 5.43571 0
M  V30 1746 N 179.513 1.36635 5.26148 0
M  V30 1747 H 183.315 1.16363 2.69883 0
M  V30 1748 H 180.829 0.73415 1.44859 0
M  V30 1749 H 182.826 -0.880985 4.07485 0
M  V30 1750 H 181.486 -1.30001 2.9754 0
M  V30 1751 H 182.497 1.90693 4.81515 0
M  V30 1752 H 179.174 -0.582275 4.1342 0
M  V30 1753 H 180.564 2.99538 6.01437 0
M  V30 1754 N 183.284 -1.43765 0.645699 0
M  V30 1755 C 184.509 -2.06767 0.161883 0
M  V30 1756 C 184.934 -1.48034 -1.16049 0
M  V30 1757 O 184.292 -0.587369 -1.71522 0
M  V30 1758 C 184.34 -3.60519 0.0762003 0
M  V30 1759 O 183.444 -4.00982 -0.963721 0
M  V30 1760 H 182.785 -0.657675 0.091429 0
M  V30 1761 H 185.315 -1.84397 0.886499 0
M  V30 1762 H 185.325 -4.07853 -0.109604 0
M  V30 1763 H 184 -4.02646 1.04157 0
M  V30 1764 H 182.577 -3.65253 -0.751312 0
M  V30 1765 N 184.763 -0.387143 -1.52771 0
M  V30 1766 C 186.174 0.0873634 -1.86495 0
M  V30 1767 C 186.525 1.46336 -1.30691 0
M  V30 1768 O 185.65 2.068 -0.637409 0
M  V30 1769 C 186.245 0.165305 -3.38396 0
M  V30 1770 C 184.804 0.584101 -3.7184 0
M  V30 1771 C 183.951 -0.255279 -2.76122 0
M  V30 1772 H 186.902 -0.605104 -1.46711 0
M  V30 1773 H 186.923 0.984848 -3.67534 0
M  V30 1774 H 186.435 -0.836301 -3.78982 0
M  V30 1775 H 184.536 1.59315 -3.36823 0
M  V30 1776 H 184.649 0.343749 -4.77865 0
M  V30 1777 H 183.013 0.279126 -2.53166 0
M  V30 1778 H 183.796 -1.25482 -3.19545 0
M  V30 1779 N 186.241 1.57166 -0.116904 0
M  V30 1780 C 187.489 1.94737 0.540533 0
M  V30 1781 C 187.81 1.00096 1.67349 0
M  V30 1782 O 187.08 0.0568854 1.95817 0
M  V30 1783 H 185.66 0.718981 0.202669 0
M  V30 1784 H 188.322 1.94017 -0.185353 0
M  V30 1785 H 187.418 2.97719 0.936483 0
M  V30 1786 N 187.719 -0.156864 1.56817 0
M  V30 1787 C 188.967 -0.869404 1.82444 0
M  V30 1788 C 189.288 -1.82147 0.69623 0
M  V30 1789 O 188.558 -1.93847 -0.28287 0
M  V30 1790 H 187.138 -0.324043 0.673056 0
M  V30 1791 H 189.8 -0.153224 1.94297 0
M  V30 1792 H 188.896 -1.43761 2.77019 0
M  V30 1793 N 189.197 -1.51736 -0.425897 0
M  V30 1794 C 190.427 -1.68549 -1.19476 0
M  V30 1795 C 190.835 -0.387288 -1.85194 0
M  V30 1796 O 190.178 0.645142 -1.71999 0
M  V30 1797 C 190.24 -2.75275 -2.31223 0
M  V30 1798 C 189.904 -4.17534 -1.8578 0
M  V30 1799 C 190.901 -5.01936 -1.35485 0
M  V30 1800 C 188.586 -4.6369 -1.93123 0
M  V30 1801 C 190.58 -6.30559 -0.931347 0
M  V30 1802 C 188.267 -5.92307 -1.50384 0
M  V30 1803 C 189.265 -6.75569 -1.00473 0
M  V30 1804 O 188.953 -8.0178 -0.583452 0
M  V30 1805 H 188.685 -0.568525 -0.365725 0
M  V30 1806 H 191.239 -1.98982 -0.509444 0
M  V30 1807 H 189.469 -2.40182 -3.03067 0
M  V30 1808 H 191.158 -2.80853 -2.93047 0
M  V30 1809 H 191.924 -4.67475 -1.29197 0
M  V30 1810 H 187.803 -3.98997 -2.30916 0
M  V30 1811 H 191.347 -6.95498 -0.541084 0
M  V30 1812 H 187.244 -6.2628 -1.56346 0
M  V30 1813 H 188.012 -8.1543 -0.708275 0
M  V30 1814 N 190.675 0.682077 -1.42076 0
M  V30 1815 C 191.9 1.47558 -1.45744 0
M  V30 1816 C 192.325 1.87977 -0.0680981 0
M  V30 1817 O 191.683 1.55522 0.9318 0
M  V30 1818 C 191.731 2.70575 -2.38373 0
M  V30 1819 O 190.835 3.68573 -1.85007 0
M  V30 1820 H 190.176 0.443585 -0.494093 0
M  V30 1821 H 192.706 0.837238 -1.86686 0
M  V30 1822 H 192.716 3.18729 -2.54707 0
M  V30 1823 H 191.391 2.40495 -3.39315 0
M  V30 1824 H 189.968 3.2757 -1.78192 0
M  V30 1825 N 192.153 1.28127 0.917671 0
M  V30 1826 C 193.086 1.06039 2.02067 0
M  V30 1827 C 194.064 -0.0223285 1.62585 0
M  V30 1828 O 195.248 0.124823 1.88086 0
M  V30 1829 C 192.375 0.610596 3.33151 0
M  V30 1830 C 191.421 1.68937 3.91615 0
M  V30 1831 S 192.254 3.28437 4.22953 0
M  V30 1832 C 193.41 2.85283 5.57103 0
M  V30 1833 H 193.643 1.99425 2.20493 0
M  V30 1834 H 191.176 1.12071 1.06205 0
M  V30 1835 H 193.134 0.357778 4.08938 0
M  V30 1836 H 191.795 -0.303364 3.12632 0
M  V30 1837 H 190.988 1.32619 4.86239 0
M  V30 1838 H 190.59 1.89478 3.2245 0
M  V30 1839 H 192.882 2.3121 6.36827 0
M  V30 1840 H 193.825 3.7869 5.98331 0
M  V30 1841 H 194.233 2.24118 5.18104 0
M  V30 1842 N 193.631 -1.12557 1.10312 0
M  V30 1843 C 194.561 -2.20341 0.772798 0
M  V30 1844 C 195.542 -1.68198 -0.25365 0
M  V30 1845 O 196.727 -1.93831 -0.119699 0
M  V30 1846 C 193.857 -3.46709 0.202443 0
M  V30 1847 C 192.811 -4.11996 1.15943 0
M  V30 1848 C 192.137 -5.328 0.450345 0
M  V30 1849 C 193.437 -4.5828 2.50552 0
M  V30 1850 H 195.131 -2.48229 1.674 0
M  V30 1851 H 192.677 -1.19308 0.806326 0
M  V30 1852 H 194.63 -4.2138 -0.0407752 0
M  V30 1853 H 193.354 -3.18245 -0.734001 0
M  V30 1854 H 192.013 -3.39305 1.38808 0
M  V30 1855 H 191.661 -5.00602 -0.490531 0
M  V30 1856 H 191.361 -5.7743 1.08851 0
M  V30 1857 H 192.885 -6.10219 0.215642 0
M  V30 1858 H 194.299 -5.2433 2.31843 0
M  V30 1859 H 192.696 -5.13683 3.10242 0
M  V30 1860 H 193.766 -3.72329 3.10643 0
M  V30 1861 N 195.109 -0.891671 -1.2995 0
M  V30 1862 C 196.334 -0.527932 -2.00568 0
M  V30 1863 C 196.759 0.877969 -1.66353 0
M  V30 1864 O 196.117 1.58301 -0.883762 0
M  V30 1865 C 196.165 -0.717745 -3.53385 0
M  V30 1866 O 195.269 0.233376 -4.11739 0
M  V30 1867 H 194.61 -0.20722 -0.630837 0
M  V30 1868 H 197.14 -1.20105 -1.65638 0
M  V30 1869 H 197.15 -0.619307 -4.03272 0
M  V30 1870 H 195.825 -1.74276 -3.77625 0
M  V30 1871 H 194.402 0.0880706 -3.72796 0
M  V30 1872 N 196.587 1.43421 -0.653314 0
M  V30 1873 C 197.55 2.29182 0.0287951 0
M  V30 1874 C 198.55 1.42213 0.750465 0
M  V30 1875 O 199.74 1.63843 0.591701 0
M  V30 1876 C 196.872 3.24278 1.05151 0
M  V30 1877 H 198.065 2.90985 -0.725786 0
M  V30 1878 H 195.618 1.50702 -0.414545 0
M  V30 1879 H 196.353 2.6737 1.83532 0
M  V30 1880 H 196.138 3.88396 0.537687 0
M  V30 1881 H 197.628 3.88647 1.52786 0
M  V30 1882 N 198.065 0.39524 1.52563 0
M  V30 1883 C 198.995 -0.428384 2.29537 0
M  V30 1884 C 199.976 -1.05831 1.33169 0
M  V30 1885 O 201.161 -1.06995 1.62067 0
M  V30 1886 C 198.291 -1.55274 3.10656 0
M  V30 1887 C 197.245 -1.04855 4.14957 0
M  V30 1888 C 196.571 -2.26543 4.84337 0
M  V30 1889 C 197.871 -0.112324 5.22179 0
M  V30 1890 H 199.565 0.213867 2.98635 0
M  V30 1891 H 197.111 0.104298 1.43622 0
M  V30 1892 H 199.064 -2.1358 3.63265 0
M  V30 1893 H 197.788 -2.22266 2.39302 0
M  V30 1894 H 196.447 -0.487985 3.63338 0
M  V30 1895 H 196.095 -2.92059 4.09525 0
M  V30 1896 H 195.795 -1.93466 5.54837 0
M  V30 1897 H 197.319 -2.85481 5.39753 0
M  V30 1898 H 198.733 -0.603752 5.70112 0
M  V30 1899 H 197.13 0.128968 5.99961 0
M  V30 1900 H 198.2 0.837052 4.77621 0
M  V30 1901 N 199.544 -1.57102 0.125237 0
M  V30 1902 C 200.79 -1.95697 -0.532035 0
M  V30 1903 C 201.123 -1.009 -1.6593 0
M  V30 1904 O 200.398 -0.047347 -1.94442 0
M  V30 1905 C 200.681 -3.44181 -1.05884 0
M  V30 1906 C 200.534 -4.49752 0.0654392 0
M  V30 1907 C 201.853 -3.94655 -1.9477 0
M  V30 1908 H 198.972 -0.711571 -0.191925 0
M  V30 1909 H 201.614 -1.88923 0.20206 0
M  V30 1910 H 199.764 -3.50085 -1.68442 0
M  V30 1911 H 201.436 -4.55943 0.700982 0
M  V30 1912 H 199.679 -4.27653 0.727709 0
M  V30 1913 H 200.35 -5.50924 -0.344505 0
M  V30 1914 H 202.826 -3.91094 -1.42074 0
M  V30 1915 H 201.702 -4.99057 -2.28546 0
M  V30 1916 H 201.963 -3.35718 -2.87656 0
M  V30 1917 N 201.022 0.148545 -1.56898 0
M  V30 1918 C 202.268 0.862694 -1.83536 0
M  V30 1919 C 202.601 1.80889 -0.706604 0
M  V30 1920 O 201.876 1.92328 0.289885 0
M  V30 1921 C 202.159 1.63853 -3.20662 0
M  V30 1922 C 202.012 0.713925 -4.44098 0
M  V30 1923 C 203.331 2.60133 -3.54991 0
M  V30 1924 H 200.45 0.312179 -0.667618 0
M  V30 1925 H 203.092 0.127953 -1.89569 0
M  V30 1926 H 201.242 2.26489 -3.1565 0
M  V30 1927 H 202.914 0.098686 -4.61194 0
M  V30 1928 H 201.157 0.0234019 -4.33794 0
M  V30 1929 H 201.828 1.29278 -5.36648 0
M  V30 1930 H 204.304 2.07616 -3.60603 0
M  V30 1931 H 203.18 3.11468 -4.51972 0
M  V30 1932 H 203.441 3.41417 -2.80868 0
M  V30 1933 N 202.5 1.5196 0.417844 0
M  V30 1934 C 203.41 1.77554 1.53336 0
M  V30 1935 C 204.426 0.660655 1.6097 0
M  V30 1936 O 205.602 0.945099 1.77848 0
M  V30 1937 C 202.667 1.91291 2.89152 0
M  V30 1938 C 201.728 3.15183 2.91475 0
M  V30 1939 C 200.961 3.28256 4.20813 0
M  V30 1940 O 201.184 2.46798 5.14244 0
M  V30 1941 O 200.118 4.21356 4.29817 0
M  V30 1942 H 203.944 2.7222 1.34647 0
M  V30 1943 H 201.529 1.36698 0.602828 0
M  V30 1944 H 203.411 2.02199 3.69721 0
M  V30 1945 H 202.086 0.998129 3.07927 0
M  V30 1946 H 200.993 3.09739 2.09791 0
M  V30 1947 H 202.326 4.06414 2.77648 0
M  V30 1948 N 203.978 -0.674533 1.42435 0
M  V30 1949 C 204.908 -1.80009 1.48724 0
M  V30 1950 C 205.889 -1.6659 0.343793 0
M  V30 1951 O 207.074 -1.86007 0.558137 0
M  V30 1952 C 204.204 -3.18306 1.38919 0
M  V30 1953 C 203.158 -3.46461 2.51294 0
M  V30 1954 C 202.484 -4.84335 2.26547 0
M  V30 1955 C 203.784 -3.43328 3.93603 0
M  V30 1956 H 205.478 -1.75004 2.42928 0
M  V30 1957 H 203.024 -0.840533 1.16923 0
M  V30 1958 H 204.977 -3.9678 1.41927 0
M  V30 1959 H 203.701 -3.2399 0.412094 0
M  V30 1960 H 202.36 -2.70348 2.47604 0
M  V30 1961 H 202.008 -4.86669 1.2713 0
M  V30 1962 H 201.708 -5.04136 3.01861 0
M  V30 1963 H 203.232 -5.65094 2.31304 0
M  V30 1964 H 204.646 -4.11772 3.98894 0
M  V30 1965 H 203.043 -3.74664 4.68771 0
M  V30 1966 H 204.113 -2.41897 4.20255 0
M  V30 1967 N 205.456 -1.28612 -0.910864 0
M  V30 1968 C 206.702 -1.16106 -1.66274 0
M  V30 1969 C 207.035 0.289113 -1.92036 0
M  V30 1970 O 206.31 1.21 -1.52281 0
M  V30 1971 C 206.593 -1.96309 -3.01885 0
M  V30 1972 C 206.446 -3.49405 -2.8326 0
M  V30 1973 C 207.765 -1.78076 -4.02463 0
M  V30 1974 H 204.884 -0.423152 -0.603417 0
M  V30 1975 H 207.526 -1.57961 -1.05586 0
M  V30 1976 H 205.676 -1.60742 -3.53687 0
M  V30 1977 H 207.348 -3.94894 -2.38446 0
M  V30 1978 H 205.591 -3.74893 -2.18261 0
M  V30 1979 H 206.262 -4.00784 -3.79574 0
M  V30 1980 H 208.738 -2.0912 -3.59733 0
M  V30 1981 H 207.614 -2.36561 -4.95308 0
M  V30 1982 H 207.875 -0.733008 -4.35981 0
M  V30 1983 N 206.934 1.1197 -1.10907 0
M  V30 1984 C 207.864 2.19928 -0.784473 0
M  V30 1985 C 208.845 1.6833 0.244726 0
M  V30 1986 O 210.03 1.93892 0.109418 0
M  V30 1987 C 207.16 3.46597 -0.220827 0
M  V30 1988 C 206.114 4.11376 -1.18127 0
M  V30 1989 C 205.44 5.32554 -0.478594 0
M  V30 1990 C 206.74 4.56945 -2.52979 0
M  V30 1991 H 208.434 2.47337 -1.68715 0
M  V30 1992 H 205.98 1.18879 -0.812642 0
M  V30 1993 H 207.933 4.21396 0.0184278 0
M  V30 1994 H 206.657 3.1863 0.717113 0
M  V30 1995 H 205.316 3.38564 -1.40606 0
M  V30 1996 H 204.964 5.00856 0.463976 0
M  V30 1997 H 204.664 5.76844 -1.11912 0
M  V30 1998 H 206.188 6.10096 -0.248 0
M  V30 1999 H 207.602 5.23093 -2.3462 0
M  V30 2000 H 205.999 5.1203 -3.12962 0
M  V30 2001 H 207.069 3.70676 -3.12614 0
M  V30 2002 N 208.412 0.89855 1.29475 0
M  V30 2003 C 209.637 0.538561 2.00285 0
M  V30 2004 C 210.062 -0.869135 1.66816 0
M  V30 2005 O 209.42 -1.57831 0.892145 0
M  V30 2006 C 209.468 0.736475 3.52999 0
M  V30 2007 O 208.572 -0.211537 4.11857 0
M  V30 2008 H 207.913 0.210563 0.62973 0
M  V30 2009 H 210.443 1.20982 1.64998 0
M  V30 2010 H 210.453 0.640685 4.02938 0
M  V30 2011 H 209.128 1.76276 3.76696 0
M  V30 2012 H 207.705 -0.0682991 3.72837 0
M  V30 2013 N 209.89 -1.43072 0.660911 0
M  V30 2014 C 210.853 -2.29194 -0.0166406 0
M  V30 2015 C 211.853 -1.42609 -0.742912 0
M  V30 2016 O 213.043 -1.64155 -0.583004 0
M  V30 2017 C 210.175 -3.24831 -1.0343 0
M  V30 2018 H 211.368 -2.90596 0.741208 0
M  V30 2019 H 208.921 -1.5048 0.422532 0
M  V30 2020 H 209.656 -2.68339 -1.82111 0
M  V30 2021 H 209.441 -3.88676 -0.517082 0
M  V30 2022 H 210.931 -3.89451 -1.50723 0
M  V30 2023 N 211.368 -0.403325 -1.52352 0
M  V30 2024 C 212.616 0.174003 -2.0135 0
M  V30 2025 C 212.937 1.46139 -1.29106 0
M  V30 2026 O 212.207 1.91448 -0.415253 0
M  V30 2027 H 210.787 0.0672911 -0.743963 0
M  V30 2028 H 213.449 -0.538235 -1.87321 0
M  V30 2029 H 212.545 0.374254 -3.09848 0
M  V30 2030 N 212.846 1.57033 -0.133567 0
M  V30 2031 C 214.093 1.95686 0.520877 0
M  V30 2032 C 214.421 1.0177 1.6575 0
M  V30 2033 O 213.676 0.0443195 1.9565 0
M  V30 2034 C 213.975 3.40674 1.08057 0
M  V30 2035 C 213.641 4.50855 0.0637899 0
M  V30 2036 C 212.303 4.80716 -0.215757 0
M  V30 2037 C 214.655 5.17398 -0.62835 0
M  V30 2038 C 211.983 5.74433 -1.19348 0
M  V30 2039 C 214.335 6.12167 -1.5948 0
M  V30 2040 C 212.999 6.40414 -1.88218 0
M  V30 2041 H 212.269 0.716067 0.190602 0
M  V30 2042 H 214.916 1.9026 -0.217556 0
M  V30 2043 H 213.221 3.42865 1.89606 0
M  V30 2044 H 214.918 3.67902 1.59529 0
M  V30 2045 H 211.508 4.27605 0.291855 0
M  V30 2046 H 215.692 4.94472 -0.425562 0
M  V30 2047 H 210.948 5.94616 -1.42272 0
M  V30 2048 H 215.122 6.6281 -2.13671 0
M  V30 2049 H 212.749 7.12838 -2.64133 0
M  V30 2050 N 214.325 -0.140222 1.56975 0
M  V30 2051 C 215.255 -1.17456 2.01808 0
M  V30 2052 C 216.236 -1.44415 0.898794 0
M  V30 2053 O 217.421 -1.5522 1.16707 0
M  V30 2054 C 214.551 -2.50607 2.40444 0
M  V30 2055 C 213.505 -2.38155 3.55621 0
M  V30 2056 C 212.831 -3.76078 3.80091 0
M  V30 2057 C 214.131 -1.85991 4.88062 0
M  V30 2058 H 215.825 -0.801743 2.88466 0
M  V30 2059 H 213.371 -0.38422 1.38779 0
M  V30 2060 H 215.324 -3.23197 2.7041 0
M  V30 2061 H 214.048 -2.89737 1.50732 0
M  V30 2062 H 212.707 -1.68016 3.25832 0
M  V30 2063 H 212.355 -4.12656 2.87618 0
M  V30 2064 H 212.055 -3.68606 4.57606 0
M  V30 2065 H 213.579 -4.50206 4.12488 0
M  V30 2066 H 214.993 -2.4838 5.16701 0
M  V30 2067 H 213.39 -1.89393 5.6943 0
M  V30 2068 H 214.46 -0.816023 4.77984 0
M  V30 2069 N 215.803 -1.52179 -0.40978 0
M  V30 2070 C 216.733 -1.78435 -1.5061 0
M  V30 2071 C 217.714 -0.635295 -1.57791 0
M  V30 2072 O 218.899 -0.880823 -1.73076 0
M  V30 2073 C 216.029 -1.93444 -2.88439 0
M  V30 2074 C 214.983 -3.09038 -2.96108 0
M  V30 2075 C 214.309 -3.09268 -4.36185 0
M  V30 2076 C 215.609 -4.48508 -2.67652 0
M  V30 2077 H 217.303 -2.70237 -1.28889 0
M  V30 2078 H 214.849 -1.30036 -0.618605 0
M  V30 2079 H 216.802 -2.10394 -3.65119 0
M  V30 2080 H 215.526 -0.983129 -3.11452 0
M  V30 2081 H 214.185 -2.91837 -2.21872 0
M  V30 2082 H 213.833 -2.11861 -4.56206 0
M  V30 2083 H 213.533 -3.86907 -4.42241 0
M  V30 2084 H 215.057 -3.28348 -5.14801 0
M  V30 2085 H 216.471 -4.65918 -3.34056 0
M  V30 2086 H 214.868 -5.28059 -2.85085 0
M  V30 2087 H 215.938 -4.56649 -1.63095 0
M  V30 2088 N 217.281 0.66697 -1.42791 0
M  V30 2089 C 218.527 1.4291 -1.43891 0
M  V30 2090 C 218.86 1.94114 -0.0578972 0
M  V30 2091 O 218.135 1.71414 0.91911 0
M  V30 2092 C 218.418 2.62049 -2.46987 0
M  V30 2093 C 218.271 2.16426 -3.94309 0
M  V30 2094 C 219.59 3.64266 -2.46978 0
M  V30 2095 H 216.709 0.518306 -0.523954 0
M  V30 2096 H 219.351 0.757321 -1.74255 0
M  V30 2097 H 217.501 3.19361 -2.21225 0
M  V30 2098 H 219.173 1.64221 -4.31079 0
M  V30 2099 H 217.416 1.47925 -4.078 0
M  V30 2100 H 218.087 3.02038 -4.62036 0
M  V30 2101 H 220.563 3.16686 -2.69906 0
M  V30 2102 H 219.439 4.45196 -3.21079 0
M  V30 2103 H 219.7 4.15927 -1.49857 0
M  V30 2104 N 218.759 1.29093 0.90403 0
M  V30 2105 C 220.008 1.16187 1.64874 0
M  V30 2106 C 220.321 -0.286742 1.93487 0
M  V30 2107 O 221.527 -0.537062 2.66135 0
M  V30 2108 C 219.983 2.03177 2.97064 0
M  V30 2109 C 219.591 3.52836 2.76062 0
M  V30 2110 C 221.335 1.98984 3.74974 0
M  V30 2111 C 219.242 4.31945 4.03952 0
M  V30 2112 H 218.172 0.431246 0.618501 0
M  V30 2113 H 220.823 1.53699 1.00243 0
M  V30 2114 H 219.205 1.5853 3.62883 0
M  V30 2115 H 220.379 4.05507 2.18863 0
M  V30 2116 H 218.694 3.58656 2.11553 0
M  V30 2117 H 221.291 2.55351 4.69787 0
M  V30 2118 H 221.634 0.968815 4.0487 0
M  V30 2119 H 222.167 2.41652 3.15989 0
M  V30 2120 H 218.906 5.34667 3.79225 0
M  V30 2121 H 218.426 3.84045 4.60727 0
M  V30 2122 H 220.105 4.42379 4.72133 0
M  V30 2123 N 220.237 -1.11381 1.11499 0
M  V30 2124 C 221.187 -2.15555 0.74298 0
M  V30 2125 C 222.171 -1.58894 -0.253276 0
M  V30 2126 O 223.363 -1.76897 -0.0602918 0
M  V30 2127 C 220.492 -3.42782 0.188481 0
M  V30 2128 C 219.578 -4.064 1.21244 0
M  V30 2129 N 219.969 -4.44864 2.40685 0
M  V30 2130 C 218.267 -4.3333 1.05552 0
M  V30 2131 C 218.968 -4.94715 3.05994 0
M  V30 2132 N 217.944 -4.90909 2.33472 0
M  V30 2133 H 221.746 -2.43074 1.65203 0
M  V30 2134 H 219.26 -1.28401 0.994329 0
M  V30 2135 H 221.257 -4.16789 -0.0961693 0
M  V30 2136 H 219.917 -3.16727 -0.715149 0
M  V30 2137 H 220.928 -4.36876 2.78136 0
M  V30 2138 H 217.605 -4.1698 0.208372 0
M  V30 2139 H 218.995 -5.34103 4.07656 0
M  V30 2140 N 221.715 -0.905404 -1.28997 0
M  V30 2141 C 222.963 -0.533192 -1.9494 0
M  V30 2142 C 223.284 0.924618 -1.71685 0
M  V30 2143 O 222.554 1.65268 -1.05183 0
M  V30 2144 H 221.134 -0.194194 -0.721317 0
M  V30 2145 H 223.796 -1.15294 -1.57141 0
M  V30 2146 H 222.892 -0.72059 -3.03667 0
M  V30 2147 N 223.193 1.4272 -0.668489 0
M  V30 2148 C 224.156 2.292 0.00448567 0
M  V30 2149 C 225.156 1.43001 0.735339 0
M  V30 2150 O 226.346 1.64461 0.57429 0
M  V30 2151 C 223.478 3.25375 1.01705 0
M  V30 2152 H 224.671 2.90199 -0.756608 0
M  V30 2153 H 222.224 1.50254 -0.430506 0
M  V30 2154 H 222.959 2.69301 1.80686 0
M  V30 2155 H 222.744 3.88944 0.496463 0
M  V30 2156 H 224.234 3.90245 1.48655 0
M  V30 2157 N 224.671 0.411399 1.52136 0
M  V30 2158 C 225.899 -0.163076 2.06256 0
M  V30 2159 C 226.314 -1.3867 1.28125 0
M  V30 2160 O 225.671 -1.79423 0.333721 0
M  V30 2161 C 225.722 -0.511252 3.57867 0
M  V30 2162 O 225.443 0.66378 4.33042 0
M  V30 2163 C 226.944 -1.13921 4.28412 0
M  V30 2164 H 224.164 -0.0193897 0.67072 0
M  V30 2165 H 226.708 0.583007 1.96013 0
M  V30 2166 H 224.863 -1.20723 3.6811 0
M  V30 2167 H 225.277 0.372601 5.23175 0
M  V30 2168 H 226.751 -1.33302 5.35663 0
M  V30 2169 H 227.228 -2.11296 3.85033 0
M  V30 2170 H 227.834 -0.483373 4.22544 0
M  V30 2171 N 226.149 -1.5696 0.141893 0
M  V30 2172 C 227.426 -1.87553 -0.555281 0
M  V30 2173 C 227.806 -1.04699 -1.83306 0
M  V30 2174 O 227.154 -0.132346 -2.28116 0
M  V30 2175 C 227.364 -3.39093 -0.825664 0
M  V30 2176 C 228.712 -4.08199 -1.16869 0
M  V30 2177 O 229.736 -3.44242 -0.915185 0
M  V30 2178 O 228.595 -5.21139 -1.6455 0
M  V30 2179 H 225.689 -0.777188 -0.282679 0
M  V30 2180 H 228.235 -1.68763 0.17812 0
M  V30 2181 H 227.007 -3.91221 0.0788633 0
M  V30 2182 H 226.63 -3.63393 -1.61343 0
M  V30 2183 N 227.627 0.131896 -1.57047 0
M  V30 2184 C 228.574 1.16236 -1.99393 0
M  V30 2185 C 229.544 1.41863 -0.863943 0
M  V30 2186 O 230.729 1.53946 -1.12718 0
M  V30 2187 C 227.869 2.48708 -2.39245 0
M  V30 2188 C 226.982 2.30127 -3.65603 0
M  V30 2189 C 226.117 3.55738 -3.94492 0
M  V30 2190 C 225.156 3.32259 -5.14073 0
M  V30 2191 N 224.293 4.50039 -5.38896 0
M  V30 2192 H 229.133 0.794251 -2.87221 0
M  V30 2193 H 226.67 0.380707 -1.42088 0
M  V30 2194 H 228.628 3.25969 -2.60384 0
M  V30 2195 H 227.258 2.83437 -1.54478 0
M  V30 2196 H 226.31 1.43845 -3.52154 0
M  V30 2197 H 227.622 2.08746 -4.5302 0
M  V30 2198 H 226.776 4.41423 -4.1621 0
M  V30 2199 H 225.515 3.80138 -3.05526 0
M  V30 2200 H 224.52 2.44963 -4.92212 0
M  V30 2201 H 225.745 3.09242 -6.04604 0
M  V30 2202 H 223.691 4.74584 -4.52886 0
M  V30 2203 H 223.608 4.31716 -6.2061 0
M  V30 2204 H 224.876 5.36895 -5.65123 0
M  V30 2205 N 229.106 1.52395 0.401703 0
M  V30 2206 C 230.353 1.66817 1.14796 0
M  V30 2207 C 230.681 0.401772 1.90305 0
M  V30 2208 O 229.936 -0.615487 1.85769 0
M  V30 2209 C 230.235 2.84578 2.16217 0
M  V30 2210 C 229.901 4.22513 1.5746 0
M  V30 2211 C 228.563 4.60029 1.41161 0
M  V30 2212 C 230.915 5.0844 1.14622 0
M  V30 2213 C 228.243 5.81144 0.80552 0
M  V30 2214 C 230.595 6.30167 0.55428 0
M  V30 2215 C 229.259 6.66426 0.378482 0
M  V30 2216 H 228.529 0.610428 0.420069 0
M  V30 2217 H 231.176 1.86512 0.434212 0
M  V30 2218 H 229.481 2.59248 2.93764 0
M  V30 2219 H 231.178 2.92933 2.73845 0
M  V30 2220 H 227.768 3.92953 1.71132 0
M  V30 2221 H 231.952 4.80034 1.26021 0
M  V30 2222 H 227.208 6.07855 0.657399 0
M  V30 2223 H 231.382 6.96071 0.213983 0
M  V30 2224 H 229.009 7.60143 -0.0932606 0
M  V30 2225 N 230.584 -0.659388 1.43143 0
M  V30 2226 C 231.547 -1.75432 1.47501 0
M  V30 2227 C 232.547 -1.56707 0.360512 0
M  V30 2228 O 233.737 -1.62717 0.622002 0
M  V30 2229 C 230.869 -3.14239 1.32162 0
M  V30 2230 H 232.062 -1.7295 2.45006 0
M  V30 2231 H 229.615 -0.870469 1.29817 0
M  V30 2232 H 230.35 -3.22336 0.356401 0
M  V30 2233 H 230.135 -3.29235 2.12948 0
M  V30 2234 H 231.625 -3.94094 1.3813 0
M  V30 2235 N 232.062 -1.29571 -0.897171 0
M  V30 2236 C 233.473 -1.15964 -1.46319 0
M  V30 2237 C 233.824 0.244267 -1.94674 0
M  V30 2238 O 232.949 1.13998 -1.83939 0
M  V30 2239 C 233.544 -2.09906 -2.65942 0
M  V30 2240 C 232.103 -2.00314 -3.18671 0
M  V30 2241 C 231.25 -2.00687 -1.91363 0
M  V30 2242 H 234.201 -1.42019 -0.708268 0
M  V30 2243 H 234.222 -1.67276 -3.41759 0
M  V30 2244 H 233.734 -3.12075 -2.30718 0
M  V30 2245 H 231.835 -1.01242 -3.58582 0
M  V30 2246 H 231.948 -2.88102 -3.82798 0
M  V30 2247 H 230.312 -1.45319 -2.09175 0
M  V30 2248 H 231.095 -3.04566 -1.58413 0
M  V30 2249 N 233.54 1.10788 -1.12088 0
M  V30 2250 C 234.503 2.15207 -0.788577 0
M  V30 2251 C 235.503 1.59609 0.195317 0
M  V30 2252 O 236.693 1.74174 -0.0300193 0
M  V30 2253 C 233.825 3.4047 -0.171174 0
M  V30 2254 H 235.018 2.46116 -1.71368 0
M  V30 2255 H 232.571 1.26089 -0.923652 0
M  V30 2256 H 233.306 3.15176 0.763832 0
M  V30 2257 H 233.091 3.82109 -0.879514 0
M  V30 2258 H 234.581 4.17576 0.04496 0
M  V30 2259 N 235.018 0.912232 1.28515 0
M  V30 2260 C 236.266 0.543523 1.94654 0
M  V30 2261 C 236.587 -0.9155 1.72173 0
M  V30 2262 O 235.857 -1.64708 1.06058 0
M  V30 2263 H 234.437 0.198017 0.720277 0
M  V30 2264 H 237.099 1.16126 1.56527 0
M  V30 2265 H 236.195 0.736684 3.03281 0
M  V30 2266 N 236.496 -1.42363 0.676048 0
M  V30 2267 C 237.743 -2.01522 0.19883 0
M  V30 2268 C 238.071 -1.53456 -1.19505 0
M  V30 2269 O 237.326 -0.727967 -1.81657 0
M  V30 2270 C 237.625 -3.56929 0.183431 0
M  V30 2271 C 237.291 -4.24431 1.52215 0
M  V30 2272 C 235.953 -4.42585 1.8887 0
M  V30 2273 C 238.305 -4.62459 2.40377 0
M  V30 2274 C 235.633 -4.96039 3.13309 0
M  V30 2275 C 237.985 -5.17294 3.64129 0
M  V30 2276 C 236.649 -5.33661 4.00951 0
M  V30 2277 H 235.919 -0.737419 0.0727571 0
M  V30 2278 H 238.566 -1.70531 0.871281 0
M  V30 2279 H 236.871 -3.87594 -0.572532 0
M  V30 2280 H 238.568 -4.00486 -0.203035 0
M  V30 2281 H 235.158 -4.10661 1.22701 0
M  V30 2282 H 239.342 -4.48105 2.13343 0
M  V30 2283 H 234.598 -5.06896 3.41857 0
M  V30 2284 H 238.772 -5.45704 4.32644 0
M  V30 2285 H 236.399 -5.74845 4.9745 0
M  V30 2286 N 237.974 -0.419461 -1.51915 0
M  V30 2287 C 238.937 0.389116 -2.25873 0
M  V30 2288 C 239.937 0.964924 -1.28631 0
M  V30 2289 O 241.127 0.842179 -1.52489 0
M  V30 2290 C 238.259 1.54874 -3.03689 0
M  V30 2291 H 239.452 -0.258799 -2.98781 0
M  V30 2292 H 237.005 -0.172209 -1.55348 0
M  V30 2293 H 237.74 2.23323 -2.35154 0
M  V30 2294 H 237.525 1.14223 -3.75094 0
M  V30 2295 H 239.015 2.12046 -3.59759 0
M  V30 2296 N 239.452 1.56882 -0.150215 0
M  V30 2297 C 240.863 1.82995 0.370076 0
M  V30 2298 C 241.214 1.06907 1.64515 0
M  V30 2299 O 240.339 0.315369 2.1409 0
M  V30 2300 C 240.934 3.31942 0.678208 0
M  V30 2301 C 239.493 3.58625 1.14301 0
M  V30 2302 C 238.64 2.76792 0.167778 0
M  V30 2303 H 241.591 1.54209 -0.374858 0
M  V30 2304 H 241.612 3.48272 1.53254 0
M  V30 2305 H 241.124 3.87294 -0.249991 0
M  V30 2306 H 239.225 3.08664 2.08704 0
M  V30 2307 H 239.338 4.67073 1.06676 0
M  V30 2308 H 237.702 2.45972 0.661037 0
M  V30 2309 H 238.485 3.34916 -0.754069 0
M  V30 2310 N 240.93 -0.123565 1.57115 0
M  V30 2311 C 242.179 -0.830704 1.83799 0
M  V30 2312 C 242.492 -1.81259 0.735158 0
M  V30 2313 O 243.698 -2.56558 0.888278 0
M  V30 2314 C 242.154 -1.52802 3.25852 0
M  V30 2315 C 241.762 -0.587356 4.44133 0
M  V30 2316 C 243.506 -2.22056 3.61789 0
M  V30 2317 C 241.413 -1.28764 5.77212 0
M  V30 2318 H 240.343 -0.313967 0.685522 0
M  V30 2319 H 242.994 -0.0834359 1.8331 0
M  V30 2320 H 241.376 -2.32175 3.20797 0
M  V30 2321 H 242.55 0.172829 4.60476 0
M  V30 2322 H 240.865 -0.00201892 4.164 0
M  V30 2323 H 243.462 -2.75131 4.58483 0
M  V30 2324 H 243.805 -2.99644 2.88997 0
M  V30 2325 H 244.338 -1.49576 3.68608 0
M  V30 2326 H 241.077 -0.55314 6.53162 0
M  V30 2327 H 240.597 -2.01995 5.64764 0
M  V30 2328 H 242.276 -1.8221 6.20813 0
M  V30 2329 N 242.408 -1.52605 -0.393616 0
M  V30 2330 C 243.371 -1.76415 -1.46323 0
M  V30 2331 C 244.371 -0.634126 -1.47768 0
M  V30 2332 O 245.561 -0.902142 -1.4902 0
M  V30 2333 C 242.693 -1.8607 -2.85641 0
M  V30 2334 H 243.886 -2.71916 -1.26498 0
M  V30 2335 H 241.439 -1.43257 -0.625073 0
M  V30 2336 H 242.174 -0.925378 -3.10817 0
M  V30 2337 H 241.959 -2.68235 -2.85993 0
M  V30 2338 H 243.449 -2.06179 -3.63153 0
M  V30 2339 N 243.887 0.651787 -1.4349 0
M  V30 2340 C 245.136 1.40754 -1.44469 0
M  V30 2341 C 245.449 1.95463 -0.0731845 0
M  V30 2342 O 246.655 2.71471 0.0395721 0
M  V30 2343 C 245.111 2.54735 -2.5424 0
M  V30 2344 C 244.719 2.06628 -3.97504 0
M  V30 2345 C 246.463 3.32092 -2.64414 0
M  V30 2346 C 244.37 3.17829 -4.98737 0
M  V30 2347 H 243.3 0.528862 -0.53742 0
M  V30 2348 H 245.951 0.703365 -1.69485 0
M  V30 2349 H 244.333 3.2763 -2.22428 0
M  V30 2350 H 245.507 1.40734 -4.38783 0
M  V30 2351 H 243.822 1.42146 -3.91387 0
M  V30 2352 H 246.419 4.14952 -3.37223 0
M  V30 2353 H 246.762 3.80217 -1.69532 0
M  V30 2354 H 247.295 2.66279 -2.95534 0
M  V30 2355 H 244.034 2.74671 -5.95177 0
M  V30 2356 H 243.554 3.82429 -4.62069 0
M  V30 2357 H 245.233 3.82937 -5.21505 0
M  V30 2358 N 245.365 1.30045 0.890287 0
M  V30 2359 C 246.613 1.18327 1.63839 0
M  V30 2360 C 246.934 -0.263455 1.93212 0
M  V30 2361 O 246.204 -1.17856 1.56482 0
M  V30 2362 H 244.784 0.434933 0.607324 0
M  V30 2363 H 247.446 1.631 1.06698 0
M  V30 2364 H 246.542 1.74024 2.59079 0
M  V30 2365 N 246.843 -1.10192 1.12674 0
M  V30 2366 C 247.773 -2.18652 0.819362 0
M  V30 2367 C 248.754 -1.68698 -0.217915 0
M  V30 2368 O 249.939 -1.94041 -0.0785581 0
M  V30 2369 C 247.069 -3.46202 0.27594 0
M  V30 2370 C 246.023 -4.09444 1.24656 0
M  V30 2371 C 245.349 -5.31725 0.563258 0
M  V30 2372 C 246.649 -4.52863 2.60217 0
M  V30 2373 H 248.343 -2.44622 1.72628 0
M  V30 2374 H 245.889 -1.17571 0.831451 0
M  V30 2375 H 247.842 -4.21372 0.0486149 0
M  V30 2376 H 246.566 -3.1973 -0.666331 0
M  V30 2377 H 245.225 -3.36284 1.45974 0
M  V30 2378 H 244.873 -5.0153 -0.384235 0
M  V30 2379 H 244.573 -5.74991 1.21075 0
M  V30 2380 H 246.097 -6.09624 0.34503 0
M  V30 2381 H 247.511 -5.19294 2.42913 0
M  V30 2382 H 245.908 -5.06986 3.21068 0
M  V30 2383 H 246.978 -3.65656 3.18471 0
M  V30 2384 N 248.321 -0.919034 -1.28029 0
M  V30 2385 C 249.284 -0.416182 -2.2539 0
M  V30 2386 C 250.284 0.460438 -1.54067 0
M  V30 2387 O 251.474 0.262744 -1.72207 0
M  V30 2388 C 248.606 0.402707 -3.38513 0
M  V30 2389 H 249.799 -1.27629 -2.71387 0
M  V30 2390 H 247.352 -0.698919 -1.39803 0
M  V30 2391 H 248.087 1.282 -2.97885 0
M  V30 2392 H 247.872 -0.225698 -3.9145 0
M  V30 2393 H 249.362 0.745191 -4.10897 0
M  V30 2394 N 249.799 1.42003 -0.683588 0
M  V30 2395 C 250.729 2.33487 -0.024866 0
M  V30 2396 C 251.71 1.51163 0.779975 0
M  V30 2397 O 252.895 1.79739 0.735362 0
M  V30 2398 C 250.025 3.3487 0.920836 0
M  V30 2399 C 248.979 4.27414 0.223958 0
M  V30 2400 C 248.305 5.19074 1.2832 0
M  V30 2401 C 249.605 5.14445 -0.90242 0
M  V30 2402 H 251.299 2.88819 -0.788921 0
M  V30 2403 H 248.845 1.38873 -0.38083 0
M  V30 2404 H 250.798 3.97787 1.39081 0
M  V30 2405 H 249.522 2.77861 1.71642 0
M  V30 2406 H 248.181 3.65904 -0.225864 0
M  V30 2407 H 247.829 4.58387 2.071 0
M  V30 2408 H 247.529 5.81822 0.821995 0
M  V30 2409 H 249.053 5.84867 1.75392 0
M  V30 2410 H 250.467 5.70998 -0.513272 0
M  V30 2411 H 248.864 5.86072 -1.28997 0
M  V30 2412 H 249.934 4.52322 -1.74737 0
M  V30 2413 N 251.277 0.427512 1.51691 0
M  V30 2414 C 252.505 -0.141191 2.06418 0
M  V30 2415 C 252.92 -1.37303 1.29589 0
M  V30 2416 O 252.277 -1.79059 0.352732 0
M  V30 2417 C 252.328 -0.473266 3.58389 0
M  V30 2418 O 252.049 0.709673 4.32314 0
M  V30 2419 C 253.55 -1.09371 4.29596 0
M  V30 2420 H 250.77 -0.0122747 0.670888 0
M  V30 2421 H 253.314 0.603764 1.95384 0
M  V30 2422 H 251.469 -1.16812 3.69369 0
M  V30 2423 H 251.883 0.42807 5.2275 0
M  V30 2424 H 253.357 -1.27613 5.37046 0
M  V30 2425 H 253.834 -2.072 3.87253 0
M  V30 2426 H 254.44 -0.43853 4.23033 0
M  V30 2427 N 252.755 -1.56801 0.158532 0
M  V30 2428 C 253.685 -2.20347 -0.772609 0
M  V30 2429 C 254.666 -1.15518 -1.24859 0
M  V30 2430 O 255.851 -1.43902 -1.30406 0
M  V30 2431 C 252.981 -2.83417 -2.00729 0
M  V30 2432 C 251.935 -3.94174 -1.66765 0
M  V30 2433 C 251.261 -4.44233 -2.97592 0
M  V30 2434 C 252.561 -5.14392 -0.905447 0
M  V30 2435 H 254.255 -2.98413 -0.242959 0
M  V30 2436 H 251.801 -1.43537 -0.115419 0
M  V30 2437 H 253.754 -3.26543 -2.6636 0
M  V30 2438 H 252.478 -2.02701 -2.56086 0
M  V30 2439 H 251.137 -3.51684 -1.03508 0
M  V30 2440 H 250.785 -3.60325 -3.50963 0
M  V30 2441 H 250.485 -5.18945 -2.75626 0
M  V30 2442 H 252.009 -4.90037 -3.64274 0
M  V30 2443 H 253.423 -5.5429 -1.46408 0
M  V30 2444 H 251.82 -5.9494 -0.7853 0
M  V30 2445 H 252.89 -4.84795 0.100668 0
M  V30 2446 N 254.233 0.115231 -1.57178 0
M  V30 2447 C 255.482 0.820945 -1.84237 0
M  V30 2448 C 255.795 1.80866 -0.744761 0
M  V30 2449 O 257.001 2.56083 -0.901871 0
M  V30 2450 C 255.457 1.51072 -3.26658 0
M  V30 2451 C 255.065 0.563795 -4.44438 0
M  V30 2452 C 256.809 2.20134 -3.62962 0
M  V30 2453 C 254.716 1.25701 -5.77887 0
M  V30 2454 H 253.646 0.310328 -0.687177 0
M  V30 2455 H 256.297 0.0737134 -1.83352 0
M  V30 2456 H 254.679 2.30471 -3.22024 0
M  V30 2457 H 255.853 -0.197247 -4.60378 0
M  V30 2458 H 254.168 -0.0200638 -4.16395 0
M  V30 2459 H 256.765 2.72696 -4.59936 0
M  V30 2460 H 257.108 2.98107 -2.90582 0
M  V30 2461 H 257.641 1.47619 -3.69396 0
M  V30 2462 H 254.38 0.518493 -6.53446 0
M  V30 2463 H 253.9 1.98997 -5.65827 0
M  V30 2464 H 255.579 1.78915 -6.2177 0
M  V30 2465 N 255.711 1.52812 0.385517 0
M  V30 2466 C 256.661 1.74219 1.47078 0
M  V30 2467 C 257.645 0.59632 1.49442 0
M  V30 2468 O 258.837 0.85428 1.5502 0
M  V30 2469 C 255.966 1.9176 2.84751 0
M  V30 2470 C 255.052 3.12289 2.86943 0
M  V30 2471 N 255.443 4.34575 2.58802 0
M  V30 2472 C 253.741 3.12605 3.1811 0
M  V30 2473 C 254.442 5.162 2.68166 0
M  V30 2474 N 253.418 4.51964 3.02043 0
M  V30 2475 H 257.22 2.6639 1.24152 0
M  V30 2476 H 254.734 1.51166 0.593504 0
M  V30 2477 H 256.731 2.05218 3.62893 0
M  V30 2478 H 255.391 1.00805 3.08656 0
M  V30 2479 H 256.402 4.62649 2.32759 0
M  V30 2480 H 253.079 2.31472 3.47458 0
M  V30 2481 H 254.469 6.23689 2.49923 0
M  V30 2482 N 257.189 -0.644168 1.43834 0
M  V30 2483 C 258.119 -1.76814 1.52509 0
M  V30 2484 C 259.1 -1.65823 0.379052 0
M  V30 2485 O 260.285 -1.84781 0.597466 0
M  V30 2486 C 257.415 -3.15288 1.4564 0
M  V30 2487 C 256.369 -3.41053 2.58586 0
M  V30 2488 C 255.695 -4.79421 2.36769 0
M  V30 2489 C 256.995 -3.34902 4.00797 0
M  V30 2490 H 258.689 -1.69812 2.46586 0
M  V30 2491 H 256.235 -0.815542 1.1868 0
M  V30 2492 H 258.188 -3.93681 1.50311 0
M  V30 2493 H 256.912 -3.23043 0.480725 0
M  V30 2494 H 255.571 -2.65035 2.53282 0
M  V30 2495 H 255.219 -4.83863 1.37424 0
M  V30 2496 H 254.919 -4.9762 3.12487 0
M  V30 2497 H 256.443 -5.6006 2.43238 0
M  V30 2498 H 257.857 -4.03218 4.07539 0
M  V30 2499 H 256.254 -3.64637 4.76613 0
M  V30 2500 H 257.324 -2.32928 4.25291 0
M  V30 2501 N 258.668 -1.30515 -0.883378 0
M  V30 2502 C 259.917 -1.18795 -1.63005 0
M  V30 2503 C 260.23 0.255923 -1.93919 0
M  V30 2504 O 261.436 0.494654 -2.66956 0
M  V30 2505 C 259.892 -2.07878 -2.93794 0
M  V30 2506 C 259.5 -3.57184 -2.70414 0
M  V30 2507 C 261.244 -2.04924 -3.71761 0
M  V30 2508 C 259.151 -4.38317 -3.97029 0
M  V30 2509 H 258.081 -0.441031 -0.611562 0
M  V30 2510 H 260.732 -1.55275 -0.977854 0
M  V30 2511 H 259.114 -1.64283 -3.60315 0
M  V30 2512 H 260.288 -4.08937 -2.12384 0
M  V30 2513 H 258.603 -3.61976 -2.0582 0
M  V30 2514 H 261.2 -2.62792 -4.65665 0
M  V30 2515 H 261.543 -1.0331 -4.03277 0
M  V30 2516 H 262.076 -2.46649 -3.12104 0
M  V30 2517 H 258.815 -5.40632 -3.70671 0
M  V30 2518 H 258.335 -3.91326 -4.54559 0
M  V30 2519 H 260.014 -4.49834 -4.65036 0
M  V30 2520 N 260.146 1.09593 -1.13257 0
M  V30 2521 C 261.371 1.8604 -0.916732 0
M  V30 2522 C 261.796 1.80504 0.529146 0
M  V30 2523 O 261.154 1.18127 1.37534 0
M  V30 2524 C 261.202 3.32017 -1.40703 0
M  V30 2525 O 260.306 4.08141 -0.591153 0
M  V30 2526 H 259.647 0.576943 -0.328683 0
M  V30 2527 H 262.177 1.38405 -1.50682 0
M  V30 2528 H 262.187 3.82865 -1.4099 0
M  V30 2529 H 260.862 3.35361 -2.45979 0
M  V30 2530 H 259.439 3.67084 -0.656005 0
M  V30 2531 N 261.624 0.925811 1.2754 0
M  V30 2532 C 262.873 0.561084 1.93739 0
M  V30 2533 C 263.186 -0.901685 1.73577 0
M  V30 2534 O 264.392 -1.37511 2.34101 0
M  V30 2535 C 262.848 0.952668 3.47062 0
M  V30 2536 C 262.456 2.43599 3.75983 0
M  V30 2537 C 264.2 0.659103 4.19352 0
M  V30 2538 C 262.107 2.76707 5.22673 0
M  V30 2539 H 261.037 0.206122 0.725279 0
M  V30 2540 H 263.688 1.12637 1.44863 0
M  V30 2541 H 262.07 0.316053 3.94737 0
M  V30 2542 H 263.244 3.12035 3.39073 0
M  V30 2543 H 261.559 2.70125 3.16893 0
M  V30 2544 H 264.156 0.882985 5.27359 0
M  V30 2545 H 264.499 -0.403607 4.14339 0
M  V30 2546 H 265.032 1.25473 3.77494 0
M  V30 2547 H 261.771 3.8188 5.32774 0
M  V30 2548 H 261.291 2.12919 5.60737 0
M  V30 2549 H 262.97 2.6435 5.90532 0
M  V30 2550 N 263.102 -1.41638 0.69111 0
M  V30 2551 C 264.513 -1.84346 0.295517 0
M  V30 2552 C 264.864 -1.57833 -1.16547 0
M  V30 2553 O 263.989 -1.04648 -1.89414 0
M  V30 2554 C 264.584 -3.34636 0.529575 0
M  V30 2555 C 263.143 -3.7593 0.187944 0
M  V30 2556 C 262.29 -2.65082 0.814052 0
M  V30 2557 H 265.241 -1.31253 0.892092 0
M  V30 2558 H 265.262 -3.79903 -0.213148 0
M  V30 2559 H 264.774 -3.53901 1.59297 0
M  V30 2560 H 262.875 -3.62268 -0.871367 0
M  V30 2561 H 262.988 -4.74808 0.63985 0
M  V30 2562 H 261.352 -2.53528 0.244017 0
M  V30 2563 H 262.135 -2.87167 1.88123 0
M  V30 2564 N 264.58 -0.43555 -1.51462 0
M  V30 2565 C 265.826 0.131709 -2.02372 0
M  V30 2566 C 266.159 1.42516 -1.3192 0
M  V30 2567 O 265.434 1.89606 -0.433573 0
M  V30 2568 C 265.717 0.352301 -3.58373 0
M  V30 2569 C 265.57 -0.959676 -4.39443 0
M  V30 2570 C 266.889 1.12286 -4.25535 0
M  V30 2571 H 264.008 0.0463936 -0.735538 0
M  V30 2572 H 266.65 -0.574197 -1.81116 0
M  V30 2573 H 264.8 0.9536 -3.76615 0
M  V30 2574 H 266.472 -1.59482 -4.32855 0
M  V30 2575 H 264.715 -1.56468 -4.04599 0
M  V30 2576 H 265.386 -0.759394 -5.46752 0
M  V30 2577 H 267.862 0.613545 -4.11552 0
M  V30 2578 H 266.738 1.24598 -5.34571 0
M  V30 2579 H 266.999 2.15048 -3.86273 0
M  V30 2580 N 266.058 1.56714 -0.166846 0
M  V30 2581 C 267.286 2.0112 0.485644 0
M  V30 2582 C 267.701 1.04705 1.57106 0
M  V30 2583 O 267.058 0.0471923 1.82439 0
M  V30 2584 C 267.109 3.45361 1.06808 0
M  V30 2585 O 266.83 4.38092 0.0259995 0
M  V30 2586 C 268.331 4.05145 1.79924 0
M  V30 2587 H 265.551 0.65931 0.124704 0
M  V30 2588 H 268.095 2.02746 -0.267262 0
M  V30 2589 H 266.25 3.44524 1.7715 0
M  V30 2590 H 266.664 5.22519 0.455398 0
M  V30 2591 H 268.138 5.08009 2.15942 0
M  V30 2592 H 268.615 3.46982 2.69258 0
M  V30 2593 H 269.221 4.09672 1.14234 0
M  V30 2594 N 267.536 -0.106894 1.57237 0
M  V30 2595 C 268.484 -1.14944 2.02215 0
M  V30 2596 C 269.478 -1.42167 0.92114 0
M  V30 2597 O 270.684 -1.41987 1.10634 0
M  V30 2598 H 267.059 -0.387841 0.64427 0
M  V30 2599 H 269.03 -0.743683 2.88984 0
M  V30 2600 C 267.779 -2.4647 2.4525 0
M  V30 2601 H 267.102 -2.26363 3.29545 0
M  V30 2602 H 268.542 -3.17948 2.80508 0
M  V30 2603 C 267.001 -3.09921 1.321 0
M  V30 2604 O 267.531 -3.9651 0.643622 0
M  V30 2605 N 265.737 -2.69986 1.07497 0
M  V30 2606 H 265.284 -1.99667 1.62761 0
M  V30 2607 H 265.242 -3.12769 0.319876 0
M  V30 2608 N 269.014 -1.53014 -0.377408 0
M  V30 2609 C 270.242 -1.72515 -1.14219 0
M  V30 2610 C 270.657 -0.448735 -1.8339 0
M  V30 2611 O 270.014 0.577592 -1.73119 0
M  V30 2612 C 270.065 -2.8826 -2.18148 0
M  V30 2613 O 269.786 -4.10962 -1.51795 0
M  V30 2614 C 271.287 -3.19536 -3.07264 0
M  V30 2615 H 268.507 -0.577301 -0.342001 0
M  V30 2616 H 271.051 -1.99712 -0.439935 0
M  V30 2617 H 269.206 -2.63492 -2.83991 0
M  V30 2618 H 269.62 -4.75693 -2.20945 0
M  V30 2619 H 271.094 -4.03959 -3.76193 0
M  V30 2620 H 271.571 -2.34403 -3.71419 0
M  V30 2621 H 272.177 -3.46186 -2.47053 0
M  V30 2622 N 270.492 0.636531 -1.44174 0
M  V30 2623 C 271.717 1.42847 -1.50364 0
M  V30 2624 C 272.142 1.87665 -0.127867 0
M  V30 2625 O 271.5 1.58408 0.88185 0
M  V30 2626 C 271.548 2.62854 -2.4686 0
M  V30 2627 O 270.652 3.62501 -1.9664 0
M  V30 2628 H 269.993 0.427642 -0.507955 0
M  V30 2629 H 272.523 0.777422 -1.89255 0
M  V30 2630 H 272.533 3.10465 -2.64718 0
M  V30 2631 H 271.208 2.29578 -3.46795 0
M  V30 2632 H 269.785 3.21735 -1.88523 0
M  V30 2633 N 271.97 1.30982 0.876444 0
M  V30 2634 C 273.216 1.20474 1.63138 0
M  V30 2635 C 273.549 -0.238096 1.92735 0
M  V30 2636 O 272.824 -1.1692 1.55435 0
M  V30 2637 C 273.107 2.04244 2.96574 0
M  V30 2638 C 272.96 3.56793 2.73896 0
M  V30 2639 C 274.279 1.88684 3.97601 0
M  V30 2640 H 271.398 0.439001 0.591985 0
M  V30 2641 H 274.04 1.60704 1.01361 0
M  V30 2642 H 272.19 1.70063 3.493 0
M  V30 2643 H 273.862 4.01077 2.27892 0
M  V30 2644 H 272.105 3.80548 2.08245 0
M  V30 2645 H 272.776 4.10706 3.68815 0
M  V30 2646 H 275.252 2.18584 3.54062 0
M  V30 2647 H 274.128 2.4961 4.88862 0
M  V30 2648 H 274.389 0.848343 4.33884 0
M  V30 2649 N 273.449 -1.08991 1.13837 0
M  V30 2650 C 274.397 -2.17841 0.815347 0
M  V30 2651 C 275.391 -1.68164 -0.204233 0
M  V30 2652 O 276.597 -1.79897 -0.0609304 0
M  V30 2653 H 272.972 -0.710654 0.245915 0
M  V30 2654 H 274.943 -2.42315 1.74143 0
M  V30 2655 C 273.692 -3.46381 0.302614 0
M  V30 2656 H 273.015 -3.84979 1.0785 0
M  V30 2657 H 274.455 -4.23844 0.115074 0
M  V30 2658 C 272.914 -3.22556 -0.972591 0
M  V30 2659 O 273.444 -3.45599 -2.04754 0
M  V30 2660 N 271.65 -2.76134 -0.905455 0
M  V30 2661 H 271.197 -2.57582 -0.0305421 0
M  V30 2662 H 271.155 -2.60571 -1.75926 0
M  V30 2663 N 274.927 -0.932562 -1.27047 0
M  V30 2664 C 276.338 -0.619451 -1.76124 0
M  V30 2665 C 276.689 0.865397 -1.76083 0
M  V30 2666 O 275.814 1.67722 -1.36742 0
M  V30 2667 C 276.409 -1.11771 -3.19832 0
M  V30 2668 C 274.968 -0.855174 -3.66557 0
M  V30 2669 C 274.115 -1.27362 -2.46321 0
M  V30 2670 H 277.066 -1.11181 -1.13245 0
M  V30 2671 H 277.087 -0.46759 -3.77616 0
M  V30 2672 H 276.599 -2.19842 -3.1983 0
M  V30 2673 H 274.7 0.211524 -3.71999 0
M  V30 2674 H 274.813 -1.47613 -4.55793 0
M  V30 2675 H 273.177 -0.692119 -2.45116 0
M  V30 2676 H 273.96 -2.36307 -2.49025 0
M  V30 2677 N 276.405 1.4127 -0.698611 0
M  V30 2678 C 277.368 2.29158 -0.044132 0
M  V30 2679 C 278.368 1.44529 0.704841 0
M  V30 2680 O 279.558 1.65643 0.539276 0
M  V30 2681 C 276.69 3.27459 0.947809 0
M  V30 2682 H 277.883 2.88529 -0.817994 0
M  V30 2683 H 275.436 1.49307 -0.46228 0
M  V30 2684 H 276.171 2.73073 1.74933 0
M  V30 2685 H 275.956 3.8991 0.41385 0
M  V30 2686 H 277.446 3.93311 1.40344 0
M  V30 2687 N 277.883 0.443576 1.51229 0
M  V30 2688 C 279.299 0.0962001 1.5931 0
M  V30 2689 C 279.499 -1.39501 1.45402 0
M  V30 2690 O 278.555 -2.16557 1.29843 0
M  V30 2691 C 279.868 0.621875 2.94199 0
M  V30 2692 C 281.416 0.582865 3.07525 0
M  V30 2693 C 281.891 1.08562 4.44948 0
M  V30 2694 N 283.382 1.04387 4.51284 0
M  V30 2695 C 284.117 1.40368 5.55954 0
M  V30 2696 N 283.613 1.83664 6.68011 0
M  V30 2697 N 285.406 1.32145 5.46346 0
M  V30 2698 H 277.557 1.41376 1.58514 0
M  V30 2699 H 279.82 0.582965 0.747567 0
M  V30 2700 H 279.526 1.66546 3.09767 0
M  V30 2701 H 279.4 0.0502125 3.77167 0
M  V30 2702 H 281.787 -0.451749 2.91622 0
M  V30 2703 H 281.868 1.191 2.26382 0
M  V30 2704 H 281.512 2.11873 4.61598 0
M  V30 2705 H 281.442 0.453956 5.2464 0
M  V30 2706 H 283.933 0.725986 3.70861 0
M  V30 2707 H 284.246 2.0934 7.43906 0
M  V30 2708 H 282.591 1.87596 6.69203 0
M  V30 2709 H 285.782 0.981808 4.57688 0
M  V30 2710 H 285.955 1.60514 6.27805 0
M  V30 2711 N 279.361 -1.56624 0.175154 0
M  V30 2712 C 280.586 -2.01813 -0.478137 0
M  V30 2713 C 281.011 -1.05457 -1.55757 0
M  V30 2714 O 280.369 -0.0347439 -1.81267 0
M  V30 2715 C 280.417 -3.45581 -1.02987 0
M  V30 2716 O 279.521 -3.52305 -2.14371 0
M  V30 2717 H 278.862 -0.65413 -0.114059 0
M  V30 2718 H 281.392 -2.02673 0.280173 0
M  V30 2719 H 281.402 -3.84965 -1.35151 0
M  V30 2720 H 280.077 -4.1521 -0.239556 0
M  V30 2721 H 278.654 -3.24783 -1.83222 0
M  V30 2722 N 280.839 0.0985539 -1.57292 0
M  V30 2723 C 282.067 0.816318 -1.90115 0
M  V30 2724 C 282.482 1.72451 -0.768509 0
M  V30 2725 O 281.839 1.80643 0.259687 0
M  V30 2726 C 281.89 1.63259 -3.22535 0
M  V30 2727 O 281.611 0.760934 -4.31441 0
M  V30 2728 C 283.112 2.45372 -3.69199 0
M  V30 2729 H 280.332 0.233595 -0.629027 0
M  V30 2730 H 282.876 0.0768229 -2.04356 0
M  V30 2731 H 281.031 2.32463 -3.09903 0
M  V30 2732 H 281.445 1.32595 -5.07463 0
M  V30 2733 H 282.919 2.98144 -4.64558 0
M  V30 2734 H 283.396 3.23677 -2.96867 0
M  V30 2735 H 284.002 1.81373 -3.84687 0
M  V30 2736 N 282.317 1.53212 0.369288 0
M  V30 2737 C 283.28 1.7872 1.43498 0
M  V30 2738 C 284.28 0.657554 1.46741 0
M  V30 2739 O 285.47 0.925736 1.47566 0
M  V30 2740 C 282.602 1.90591 2.82645 0
M  V30 2741 H 283.795 2.73894 1.22156 0
M  V30 2742 H 281.348 1.44233 0.602203 0
M  V30 2743 H 282.083 0.974709 3.09306 0
M  V30 2744 H 281.868 2.72751 2.8169 0
M  V30 2745 H 283.358 2.11931 3.59826 0
M  V30 2746 N 283.795 -0.628877 1.44509 0
M  V30 2747 C 285.041 -1.39045 1.47629 0
M  V30 2748 C 285.374 -1.93892 0.109343 0
M  V30 2749 O 284.649 -1.7379 -0.87334 0
M  V30 2750 C 284.932 -2.55408 2.53848 0
M  V30 2751 C 284.785 -2.05896 3.99909 0
M  V30 2752 C 286.104 -3.5759 2.56549 0
M  V30 2753 H 283.223 -0.504232 0.537512 0
M  V30 2754 H 285.865 -0.710854 1.76201 0
M  V30 2755 H 284.015 -3.13384 2.29615 0
M  V30 2756 H 285.687 -1.52734 4.35282 0
M  V30 2757 H 283.93 -1.37061 4.11578 0
M  V30 2758 H 284.601 -2.89681 4.69882 0
M  V30 2759 H 287.077 -3.09419 2.78207 0
M  V30 2760 H 285.953 -4.36527 3.32769 0
M  V30 2761 H 286.214 -4.11808 1.60832 0
M  V30 2762 N 285.273 -1.31445 -0.869486 0
M  V30 2763 C 286.236 -1.19094 -1.9583 0
M  V30 2764 C 287.236 -0.117906 -1.60367 0
M  V30 2765 O 288.426 -0.367208 -1.70286 0
M  V30 2766 C 285.558 -0.828165 -3.30688 0
M  V30 2767 H 286.751 -2.15842 -2.08212 0
M  V30 2768 H 284.304 -1.15063 -1.05784 0
M  V30 2769 H 285.039 0.138142 -3.24006 0
M  V30 2770 H 284.824 -1.6038 -3.578 0
M  V30 2771 H 286.314 -0.765658 -4.10521 0
M  V30 2772 N 286.751 1.08385 -1.14413 0
M  V30 2773 C 288 1.80153 -0.907076 0
M  V30 2774 C 288.313 1.87176 0.567851 0
M  V30 2775 O 289.519 2.55359 0.922172 0
M  V30 2776 C 287.975 3.23687 -1.57336 0
M  V30 2777 C 287.583 3.24897 -3.08457 0
M  V30 2778 C 289.327 4.00136 -1.41744 0
M  V30 2779 C 287.234 4.6302 -3.67921 0
M  V30 2780 H 286.164 0.675139 -0.335714 0
M  V30 2781 H 288.815 1.21733 -1.37307 0
M  V30 2782 H 287.197 3.82234 -1.03505 0
M  V30 2783 H 288.371 2.76055 -3.68958 0
M  V30 2784 H 286.686 2.61943 -3.2369 0
M  V30 2785 H 289.283 5.02201 -1.83572 0
M  V30 2786 H 289.626 4.14709 -0.363576 0
M  V30 2787 H 290.159 3.48058 -1.92614 0
M  V30 2788 H 286.898 4.5365 -4.73161 0
M  V30 2789 H 286.418 5.12143 -3.12201 0
M  V30 2790 H 288.097 5.31994 -3.68227 0
M  V30 2791 N 288.23 0.939286 1.26551 0
M  V30 2792 C 289.477 0.585847 1.9384 0
M  V30 2793 C 289.805 -0.874784 1.73718 0
M  V30 2794 O 289.06 -1.64092 1.06642 0
M  V30 2795 C 289.359 0.872106 3.46596 0
M  V30 2796 C 289.025 2.31632 3.86856 0
M  V30 2797 C 287.687 2.71111 3.97558 0
M  V30 2798 C 290.039 3.25494 4.07066 0
M  V30 2799 C 287.367 4.03553 4.25866 0
M  V30 2800 C 289.719 4.57531 4.36862 0
M  V30 2801 C 288.383 4.96828 4.45778 0
M  V30 2802 H 287.653 0.214377 0.709312 0
M  V30 2803 H 290.3 1.18544 1.50398 0
M  V30 2804 H 288.605 0.18996 3.91339 0
M  V30 2805 H 290.302 0.577442 3.96821 0
M  V30 2806 H 286.892 2.00008 3.79071 0
M  V30 2807 H 291.076 2.9619 3.98227 0
M  V30 2808 H 286.332 4.33665 4.30981 0
M  V30 2809 H 290.506 5.30254 4.51446 0
M  V30 2810 H 288.133 5.99482 4.67468 0
M  V30 2811 N 289.708 -1.40897 0.706093 0
M  V30 2812 C 290.64 -2.29199 0.00815776 0
M  V30 2813 C 291.653 -1.45336 -0.733582 0
M  V30 2814 O 292.842 -1.68727 -0.582537 0
M  V30 2815 C 289.942 -3.23417 -1.01265 0
M  V30 2816 C 289.115 -4.36089 -0.338387 0
M  V30 2817 C 288.174 -5.10811 -1.26326 0
M  V30 2818 O 287.2 -5.64215 -0.751651 0
M  V30 2819 N 288.402 -5.19269 -2.595 0
M  V30 2820 H 291.167 -2.89738 0.766297 0
M  V30 2821 H 288.728 -1.52164 0.55296 0
M  V30 2822 H 290.72 -3.70276 -1.63334 0
M  V30 2823 H 289.29 -2.64112 -1.67223 0
M  V30 2824 H 288.51 -3.91479 0.462352 0
M  V30 2825 H 289.798 -5.08634 0.130031 0
M  V30 2826 H 289.196 -4.77347 -3.03573 0
M  V30 2827 H 287.753 -5.69667 -3.16737 0
M  V30 2828 N 291.186 -0.45159 -1.50991 0
M  V30 2829 C 292.434 0.109857 -2.01801 0
M  V30 2830 C 292.755 1.41958 -1.3369 0
M  V30 2831 O 292.025 1.9003 -0.475951 0
M  V30 2832 H 290.605 0.0435884 -0.745727 0
M  V30 2833 H 293.267 -0.597557 -1.85514 0
M  V30 2834 H 292.363 0.275489 -3.10882 0
M  V30 2835 N 292.664 1.56529 -0.183458 0
M  V30 2836 C 293.912 1.96855 0.457452 0
M  V30 2837 C 294.233 1.07104 1.62953 0
M  V30 2838 O 293.503 0.139887 1.954 0
M  V30 2839 H 292.083 0.72693 0.171992 0
M  V30 2840 H 294.745 1.93056 -0.267476 0
M  V30 2841 H 293.841 3.01423 0.809368 0
M  V30 2842 N 294.142 -0.090211 1.57342 0
M  V30 2843 C 295.388 -0.788838 1.8748 0
M  V30 2844 C 295.743 -1.76105 0.7749 0
M  V30 2845 O 295.036 -1.90302 -0.222663 0
M  V30 2846 C 295.23 -1.55222 3.21933 0
M  V30 2847 C 295.059 -0.655441 4.44898 0
M  V30 2848 C 293.829 -0.299325 5.04413 0
M  V30 2849 C 296.027 0.0397458 5.14285 0
M  V30 2850 N 294.009 0.605108 6.10911 0
M  V30 2851 C 295.38 0.802061 6.1479 0
M  V30 2852 C 297.435 0.113154 4.97771 0
M  V30 2853 C 296.138 1.63093 7.00566 0
M  V30 2854 C 298.164 0.928942 5.84059 0
M  V30 2855 C 297.526 1.67936 6.84088 0
M  V30 2856 H 293.625 -0.26467 0.735849 0
M  V30 2857 H 296.209 -0.0511453 1.94633 0
M  V30 2858 H 294.38 -2.26076 3.15823 0
M  V30 2859 H 296.112 -2.19843 3.39781 0
M  V30 2860 H 292.867 -0.648079 4.69145 0
M  V30 2861 H 293.291 1.05002 6.68808 0
M  V30 2862 H 297.933 -0.452676 4.2037 0
M  V30 2863 H 295.651 2.20781 7.77355 0
M  V30 2864 H 299.237 0.988478 5.73341 0
M  V30 2865 H 298.117 2.30044 7.49699 0
M  V30 2866 N 295.62 -1.53406 -0.361157 0
M  V30 2867 C 296.583 -1.79479 -1.42548 0
M  V30 2868 C 297.583 -0.665327 -1.4639 0
M  V30 2869 O 298.773 -0.933549 -1.47073 0
M  V30 2870 C 295.905 -1.92087 -2.8163 0
M  V30 2871 H 297.098 -2.74538 -1.20701 0
M  V30 2872 H 294.651 -1.4455 -0.594546 0
M  V30 2873 H 295.386 -0.991099 -3.08784 0
M  V30 2874 H 295.171 -2.74241 -2.80239 0
M  V30 2875 H 296.661 -2.13836 -3.58697 0
M  V30 2876 N 297.098 0.621204 -1.44841 0
M  V30 2877 C 298.028 1.74366 -1.55303 0
M  V30 2878 C 299.009 1.65199 -0.405385 0
M  V30 2879 O 300.194 1.83807 -0.626787 0
M  V30 2880 C 297.324 3.12931 -1.50637 0
M  V30 2881 C 296.278 3.36896 -2.63979 0
M  V30 2882 C 295.604 4.75594 -2.44366 0
M  V30 2883 C 296.904 3.28483 -4.06074 0
M  V30 2884 H 298.598 1.65867 -2.49256 0
M  V30 2885 H 296.144 0.796558 -1.19962 0
M  V30 2886 H 298.097 3.9124 -1.56555 0
M  V30 2887 H 296.821 3.22237 -0.532057 0
M  V30 2888 H 295.48 2.60972 -2.57467 0
M  V30 2889 H 295.128 4.81616 -1.45105 0
M  V30 2890 H 294.828 4.92586 -3.20364 0
M  V30 2891 H 296.352 5.5612 -2.52117 0
M  V30 2892 H 297.766 3.96684 -4.13902 0
M  V30 2893 H 296.163 3.57008 -4.82354 0
M  V30 2894 H 297.233 2.26133 -4.28943 0
M  V30 2895 N 298.576 1.31904 0.862503 0
M  V30 2896 C 299.486 1.22161 2.00285 0
M  V30 2897 C 300.502 0.136785 1.73462 0
M  V30 2898 O 301.678 0.355994 1.98229 0
M  V30 2899 C 298.743 0.937093 3.33796 0
M  V30 2900 C 297.804 2.10957 3.73893 0
M  V30 2901 C 297.037 1.83853 5.01033 0
M  V30 2902 O 297.26 0.777274 5.65079 0
M  V30 2903 O 296.194 2.69741 5.38074 0
M  V30 2904 H 300.02 2.18008 2.11439 0
M  V30 2905 H 297.605 1.11716 0.991957 0
M  V30 2906 H 299.487 0.794583 4.13841 0
M  V30 2907 H 298.162 0.00871894 3.23699 0
M  V30 2908 H 297.069 2.30752 2.94456 0
M  V30 2909 H 298.402 3.02046 3.88625 0
M  V30 2910 N 300.054 -1.07777 1.14986 0
M  V30 2911 C 300.986 -2.14769 0.800436 0
M  V30 2912 C 301.999 -1.61739 -0.185595 0
M  V30 2913 O 303.188 -1.78462 0.0370358 0
M  V30 2914 C 300.288 -3.38481 0.168533 0
M  V30 2915 C 299.461 -4.20876 1.1909 0
M  V30 2916 C 298.52 -5.22976 0.581575 0
M  V30 2917 O 297.546 -5.55388 1.24633 0
M  V30 2918 N 298.748 -5.76976 -0.638706 0
M  V30 2919 H 301.513 -2.45348 1.72118 0
M  V30 2920 H 299.074 -1.23645 1.04515 0
M  V30 2921 H 301.066 -4.03916 -0.251764 0
M  V30 2922 H 299.636 -3.05651 -0.655467 0
M  V30 2923 H 298.856 -3.51322 1.78791 0
M  V30 2924 H 300.144 -4.7274 1.88133 0
M  V30 2925 H 299.542 -5.52886 -1.19723 0
M  V30 2926 H 298.099 -6.44061 -1.00142 0
M  V30 2927 N 301.532 -0.945985 -1.26051 0
M  V30 2928 C 302.462 -0.477172 -2.28572 0
M  V30 2929 C 303.443 0.472032 -1.63419 0
M  V30 2930 O 304.628 0.372853 -1.90587 0
M  V30 2931 C 301.758 0.253975 -3.4637 0
M  V30 2932 C 300.712 -0.609135 -4.23643 0
M  V30 2933 C 300.038 0.252252 -5.34105 0
M  V30 2934 C 301.338 -1.8829 -4.8718 0
M  V30 2935 H 303.032 -1.33402 -2.68038 0
M  V30 2936 H 300.578 -0.642904 -1.28852 0
M  V30 2937 H 302.531 0.593016 -4.17207 0
M  V30 2938 H 301.255 1.145 -3.05871 0
M  V30 2939 H 299.914 -0.931138 -3.54578 0
M  V30 2940 H 299.562 1.14278 -4.89846 0
M  V30 2941 H 299.262 -0.32188 -5.86718 0
M  V30 2942 H 300.786 0.586454 -6.07777 0
M  V30 2943 H 302.2 -1.61081 -5.50205 0
M  V30 2944 H 300.597 -2.40199 -5.49931 0
M  V30 2945 H 301.667 -2.59134 -4.09851 0
M  V30 2946 N 303.011 1.40521 -0.713556 0
M  V30 2947 C 304.257 2.01714 -0.261382 0
M  V30 2948 C 304.612 1.55562 1.13217 0
M  V30 2949 O 303.905 0.764893 1.7567 0
M  V30 2950 C 304.099 3.56317 -0.278 0
M  V30 2951 C 303.928 4.17476 -1.67163 0
M  V30 2952 C 302.698 4.50998 -2.2788 0
M  V30 2953 C 304.896 4.42472 -2.6215 0
M  V30 2954 N 302.878 4.9754 -3.5962 0
M  V30 2955 C 304.249 4.90985 -3.78594 0
M  V30 2956 C 306.304 4.24508 -2.60188 0
M  V30 2957 C 305.007 5.2342 -4.9338 0
M  V30 2958 C 307.033 4.58043 -3.741 0
M  V30 2959 C 306.395 5.06743 -4.89276 0
M  V30 2960 H 302.494 0.769104 -0.141434 0
M  V30 2961 H 305.078 1.70785 -0.934915 0
M  V30 2962 H 303.249 3.8668 0.36509 0
M  V30 2963 H 304.981 4.0425 0.190695 0
M  V30 2964 H 301.736 4.38062 -1.79997 0
M  V30 2965 H 302.16 5.25196 -4.27198 0
M  V30 2966 H 306.802 3.86078 -1.72348 0
M  V30 2967 H 304.52 5.60765 -5.81866 0
M  V30 2968 H 308.106 4.45785 -3.73854 0
M  V30 2969 H 306.986 5.32204 -5.75959 0
M  V30 2970 N 304.489 0.459591 1.5075 0
M  V30 2971 C 305.736 -0.0993495 2.02256 0
M  V30 2972 C 306.064 -1.40751 1.34237 0
M  V30 2973 O 305.319 -1.90379 0.453228 0
M  V30 2974 C 305.618 -0.342866 3.55752 0
M  V30 2975 C 305.284 0.88218 4.42186 0
M  V30 2976 C 303.946 1.21808 4.65528 0
M  V30 2977 C 306.298 1.69837 4.92752 0
M  V30 2978 C 303.626 2.37045 5.36681 0
M  V30 2979 C 305.978 2.84192 5.65171 0
M  V30 2980 C 304.642 3.1821 5.8677 0
M  V30 2981 H 303.912 -0.0363545 0.740108 0
M  V30 2982 H 306.559 0.611329 1.8148 0
M  V30 2983 H 304.864 -1.13567 3.7498 0
M  V30 2984 H 306.561 -0.789121 3.93159 0
M  V30 2985 H 303.151 0.610467 4.2423 0
M  V30 2986 H 307.335 1.45205 4.74583 0
M  V30 2987 H 302.591 2.63689 5.51614 0
M  V30 2988 H 306.765 3.4779 6.03337 0
M  V30 2989 H 304.392 4.07613 6.41682 0
M  V30 2990 N 305.967 -1.56429 0.191757 0
M  V30 2991 C 307.214 -1.97485 -0.447891 0
M  V30 2992 C 307.542 -1.07852 -1.61859 0
M  V30 2993 O 306.797 -0.116903 -1.95351 0
M  V30 2994 C 307.096 -3.44449 -0.953384 0
M  V30 2995 C 306.762 -4.50781 0.103586 0
M  V30 2996 C 305.424 -4.79584 0.394023 0
M  V30 2997 C 307.776 -5.1471 0.819946 0
M  V30 2998 C 305.104 -5.69607 1.40585 0
M  V30 2999 C 307.456 -6.05827 1.8209 0
M  V30 3000 C 306.12 -6.32987 2.11857 0
M  V30 3001 H 305.39 -0.722648 -0.163895 0
M  V30 3002 H 308.037 -1.89322 0.28802 0
M  V30 3003 H 306.342 -3.49666 -1.76751 0
M  V30 3004 H 308.039 -3.73569 -1.45765 0
M  V30 3005 H 304.629 -4.28394 -0.132951 0
M  V30 3006 H 308.813 -4.92552 0.608789 0
M  V30 3007 H 304.069 -5.88926 1.64243 0
M  V30 3008 H 308.243 -6.54424 2.38123 0
M  V30 3009 H 305.87 -7.02544 2.90407 0
M  V30 3010 N 307.445 0.0818655 -1.57387 0
M  V30 3011 C 308.691 0.778884 -1.87896 0
M  V30 3012 C 309.046 1.75692 -0.784229 0
M  V30 3013 O 308.339 1.90417 0.212567 0
M  V30 3014 C 308.533 1.53513 -3.22752 0
M  V30 3015 C 308.362 0.631838 -4.45239 0
M  V30 3016 C 307.132 0.272571 -5.04564 0
M  V30 3017 C 309.33 -0.0670191 -5.14256 0
M  V30 3018 N 307.312 -0.637498 -6.10581 0
M  V30 3019 C 308.683 -0.834653 -6.14356 0
M  V30 3020 C 310.738 -0.139551 -4.97704 0
M  V30 3021 C 309.441 -1.66806 -6.99691 0
M  V30 3022 C 311.467 -0.959903 -5.83558 0
M  V30 3023 C 310.829 -1.71561 -6.83188 0
M  V30 3024 H 306.928 0.260764 -0.737242 0
M  V30 3025 H 309.512 0.0408227 -1.94657 0
M  V30 3026 H 307.683 2.24398 -3.17018 0
M  V30 3027 H 309.415 2.18038 -3.40942 0
M  V30 3028 H 306.17 0.62319 -4.69482 0
M  V30 3029 H 306.594 -1.08548 -6.68241 0
M  V30 3030 H 311.236 0.430376 -4.20604 0
M  V30 3031 H 308.954 -2.249 -7.76174 0
M  V30 3032 H 312.54 -1.01887 -5.72809 0
M  V30 3033 H 311.42 -2.34017 -7.48469 0
M  V30 3034 N 308.923 1.53595 0.353017 0
M  V30 3035 C 310.169 1.70638 1.09593 0
M  V30 3036 C 310.502 0.463286 1.88593 0
M  V30 3037 O 309.777 -0.539597 1.86865 0
M  V30 3038 C 310.06 2.96406 2.04489 0
M  V30 3039 C 309.913 4.30901 1.29014 0
M  V30 3040 C 311.232 3.17812 3.0444 0
M  V30 3041 H 308.351 0.620913 0.397034 0
M  V30 3042 H 310.993 1.86254 0.375446 0
M  V30 3043 H 309.143 2.83223 2.65927 0
M  V30 3044 H 310.815 4.55917 0.702638 0
M  V30 3045 H 309.058 4.29741 0.592071 0
M  V30 3046 H 309.729 5.1506 1.98537 0
M  V30 3047 H 312.205 3.30263 2.53112 0
M  V30 3048 H 311.081 4.07223 3.6805 0
M  V30 3049 H 311.342 2.33669 3.75301 0
M  V30 3050 N 310.401 -0.613514 1.45168 0
M  V30 3051 C 311.647 -1.37471 1.49096 0
M  V30 3052 C 311.98 -1.93765 0.129901 0
M  V30 3053 O 311.255 -1.74707 -0.854858 0
M  V30 3054 C 311.538 -2.52701 2.56542 0
M  V30 3055 C 311.391 -2.01643 4.0207 0
M  V30 3056 C 312.71 -3.54849 2.60327 0
M  V30 3057 H 309.829 -0.498502 0.54283 0
M  V30 3058 H 312.471 -0.692125 1.76945 0
M  V30 3059 H 310.621 -3.10931 2.32926 0
M  V30 3060 H 312.293 -1.48108 4.36877 0
M  V30 3061 H 310.536 -1.32688 4.13009 0
M  V30 3062 H 311.207 -2.84681 4.72928 0
M  V30 3063 H 313.683 -3.0645 2.81474 0
M  V30 3064 H 312.559 -4.32973 3.37381 0
M  V30 3065 H 312.82 -4.10079 1.6519 0
M  V30 3066 N 311.879 -1.3236 -0.855495 0
M  V30 3067 C 313.29 -1.2056 -1.42556 0
M  V30 3068 C 313.641 0.182209 -1.95352 0
M  V30 3069 O 312.766 1.08088 -1.87472 0
M  V30 3070 C 313.361 -2.1826 -2.59129 0
M  V30 3071 C 311.92 -2.10351 -3.12137 0
M  V30 3072 C 311.067 -2.06674 -1.84882 0
M  V30 3073 H 314.018 -1.442 -0.662727 0
M  V30 3074 H 314.039 -1.78064 -3.36264 0
M  V30 3075 H 313.551 -3.19257 -2.20673 0
M  V30 3076 H 311.652 -1.12599 -3.55179 0
M  V30 3077 H 311.765 -3.00135 -3.73438 0
M  V30 3078 H 310.129 -1.51901 -2.04446 0
M  V30 3079 H 310.912 -3.09451 -1.48643 0
M  V30 3080 N 313.357 1.07166 -1.15556 0
M  V30 3081 C 314.606 1.79181 -0.926132 0
M  V30 3082 C 314.919 1.87768 0.547967 0
M  V30 3083 O 316.125 2.56323 0.895036 0
M  V30 3084 C 314.581 3.22 -1.60761 0
M  V30 3085 C 314.189 3.21607 -3.11886 0
M  V30 3086 C 315.933 3.9861 -1.4598 0
M  V30 3087 C 313.84 4.59092 -3.72812 0
M  V30 3088 H 312.77 0.67154 -0.342856 0
M  V30 3089 H 315.421 1.2027 -1.3859 0
M  V30 3090 H 313.803 3.81115 -1.07553 0
M  V30 3091 H 314.977 2.72127 -3.71865 0
M  V30 3092 H 313.292 2.58495 -3.2645 0
M  V30 3093 H 315.889 5.00225 -1.88888 0
M  V30 3094 H 316.232 4.143 -0.407541 0
M  V30 3095 H 316.765 3.45996 -1.96295 0
M  V30 3096 H 313.504 4.48606 -4.77946 0
M  V30 3097 H 313.024 5.08803 -3.17616 0
M  V30 3098 H 314.703 5.28059 -3.73848 0
M  V30 3099 N 314.835 0.952656 1.25548 0
M  V30 3100 C 316.081 0.607272 1.93494 0
M  V30 3101 C 316.414 -0.853245 1.74452 0
M  V30 3102 O 315.689 -1.61194 1.08843 0
M  V30 3103 C 315.972 0.96435 3.46947 0
M  V30 3104 C 315.825 2.48045 3.75225 0
M  V30 3105 C 317.144 0.487987 4.37386 0
M  V30 3106 H 314.263 0.222096 0.702739 0
M  V30 3107 H 316.905 1.18895 1.48203 0
M  V30 3108 H 315.055 0.469361 3.85654 0
M  V30 3109 H 316.727 3.04905 3.46166 0
M  V30 3110 H 314.97 2.919 3.209 0
M  V30 3111 H 315.641 2.6808 4.82532 0
M  V30 3112 H 318.117 0.912558 4.0597 0
M  V30 3113 H 316.993 0.766547 5.43521 0
M  V30 3114 H 317.254 -0.612063 4.37843 0
M  V30 3115 N 316.313 -1.40141 0.720998 0
M  V30 3116 C 317.561 -2.0039 0.262323 0
M  V30 3117 C 317.882 -1.57469 -1.15015 0
M  V30 3118 O 317.152 -0.816582 -1.78069 0
M  V30 3119 H 315.732 -0.741063 0.093996 0
M  V30 3120 H 318.394 -1.71398 0.927835 0
M  V30 3121 H 317.49 -3.10658 0.299671 0
M  V30 3122 N 317.792 -0.46758 -1.50504 0
M  V30 3123 C 319.04 0.0884469 -2.01906 0
M  V30 3124 C 319.361 1.40532 -1.35188 0
M  V30 3125 O 318.631 1.89515 -0.496079 0
M  V30 3126 H 317.211 0.0356765 -0.746148 0
M  V30 3127 H 319.873 -0.6172 -1.84869 0
M  V30 3128 H 318.969 0.2425 -3.11156 0
M  V30 3129 N 319.27 1.56325 -0.20005 0
M  V30 3130 C 320.519 1.96895 0.437652 0
M  V30 3131 C 320.832 1.08999 1.62415 0
M  V30 3132 O 322.038 1.39372 2.32997 0
M  V30 3133 C 320.494 3.50198 0.830025 0
M  V30 3134 C 320.102 4.46765 -0.332461 0
M  V30 3135 C 321.846 3.99526 1.43453 0
M  V30 3136 C 319.753 5.91344 0.0811468 0
M  V30 3137 H 318.683 0.735209 0.167282 0
M  V30 3138 H 321.334 1.81148 -0.292853 0
M  V30 3139 H 319.716 3.61467 1.61734 0
M  V30 3140 H 320.89 4.47231 -1.11 0
M  V30 3141 H 319.205 4.07657 -0.848789 0
M  V30 3142 H 321.802 5.05025 1.75652 0
M  V30 3143 H 322.145 3.44122 2.34277 0
M  V30 3144 H 322.678 3.91393 0.71109 0
M  V30 3145 H 319.417 6.50685 -0.793033 0
M  V30 3146 H 318.937 5.94121 0.823445 0
M  V30 3147 H 320.616 6.44945 0.515252 0
M  V30 3148 N 320.748 -0.0735177 1.57428 0
M  V30 3149 C 321.997 -0.771809 1.86349 0
M  V30 3150 C 322.31 -1.78828 0.792452 0
M  V30 3151 O 323.516 -2.53602 0.96945 0
M  V30 3152 C 321.972 -1.42358 3.30548 0
M  V30 3153 C 321.58 -0.445761 4.45777 0
M  V30 3154 C 323.324 -2.10434 3.6867 0
M  V30 3155 C 321.231 -1.10335 5.81016 0
M  V30 3156 H 320.161 -0.291999 0.695164 0
M  V30 3157 H 322.812 -0.0250749 1.83483 0
M  V30 3158 H 321.194 -2.21852 3.28021 0
M  V30 3159 H 322.368 0.319239 4.59693 0
M  V30 3160 H 320.683 0.130457 4.16196 0
M  V30 3161 H 323.28 -2.60405 4.67004 0
M  V30 3162 H 323.623 -2.90298 2.98383 0
M  V30 3163 H 324.156 -1.37773 3.7318 0
M  V30 3164 H 320.895 -0.345061 6.54591 0
M  V30 3165 H 320.415 -1.83925 5.70904 0
M  V30 3166 H 322.094 -1.62367 6.26295 0
M  V30 3167 N 322.226 -1.5378 -0.344866 0
M  V30 3168 C 323.474 -1.70625 -1.08311 0
M  V30 3169 C 323.795 -0.471447 -1.89215 0
M  V30 3170 O 323.065 0.514616 -1.8902 0
M  V30 3171 H 321.645 -0.629058 -0.402859 0
M  V30 3172 H 324.307 -1.9103 -0.386459 0
M  V30 3173 H 323.403 -2.57656 -1.76124 0
M  V30 3174 N 323.704 0.605807 -1.45491 0
M  V30 3175 C 324.952 1.36207 -1.49305 0
M  V30 3176 C 325.273 1.94519 -0.136863 0
M  V30 3177 O 324.543 1.77261 0.833983 0
M  V30 3178 H 323.123 0.50565 -0.549843 0
M  V30 3179 H 325.785 0.711239 -1.81459 0
M  V30 3180 H 324.881 2.18058 -2.23287 0
M  V30 3181 N 325.182 1.32811 0.848464 0
M  V30 3182 C 326.112 1.24882 1.97299 0
M  V30 3183 C 327.093 0.131357 1.69592 0
M  V30 3184 O 328.278 0.319553 1.91553 0
M  V30 3185 C 325.408 0.97746 3.33261 0
M  V30 3186 C 324.362 2.05682 3.75338 0
M  V30 3187 C 323.688 1.63777 5.09 0
M  V30 3188 C 324.988 3.47254 3.90144 0
M  V30 3189 H 326.682 2.18966 2.04191 0
M  V30 3190 H 324.228 1.05413 0.981029 0
M  V30 3191 H 326.181 0.908513 4.1149 0
M  V30 3192 H 324.905 0.000980011 3.266 0
M  V30 3193 H 323.564 2.11603 2.99366 0
M  V30 3194 H 323.212 0.648569 4.98801 0
M  V30 3195 H 322.912 2.36 5.38124 0
M  V30 3196 H 324.436 1.5833 5.89715 0
M  V30 3197 H 325.85 3.43888 4.58709 0
M  V30 3198 H 324.247 4.1788 4.30693 0
M  V30 3199 H 325.317 3.86462 2.92874 0
M  V30 3200 N 326.66 -1.06551 1.16123 0
M  V30 3201 C 327.909 -1.78687 0.935622 0
M  V30 3202 C 328.222 -1.88056 -0.538001 0
M  V30 3203 O 329.428 -2.56794 -0.88143 0
M  V30 3204 C 327.884 -3.21143 1.62466 0
M  V30 3205 C 327.492 -3.19949 3.13587 0
M  V30 3206 C 329.236 -3.9783 1.48092 0
M  V30 3207 C 327.143 -4.57108 3.75241 0
M  V30 3208 H 326.073 -0.669712 0.346412 0
M  V30 3209 H 328.724 -1.19534 1.39226 0
M  V30 3210 H 327.106 -3.80539 1.09572 0
M  V30 3211 H 328.28 -2.70151 3.73303 0
M  V30 3212 H 326.595 -2.5676 3.27816 0
M  V30 3213 H 329.192 -4.99217 1.91538 0
M  V30 3214 H 329.535 -4.14078 0.429507 0
M  V30 3215 H 330.068 -3.4495 1.98127 0
M  V30 3216 H 326.807 -4.46065 4.80319 0
M  V30 3217 H 326.327 -5.07111 3.20309 0
M  V30 3218 H 328.006 -5.26069 3.76644 0
M  V30 3219 N 328.138 -0.959301 -1.25041 0
M  V30 3220 C 329.368 -0.63303 -1.96663 0
M  V30 3221 C 329.776 0.800031 -1.71453 0
M  V30 3222 O 329.119 1.54736 -0.99008 0
M  V30 3223 C 329.181 -0.817523 -3.50081 0
M  V30 3224 C 328.845 -2.22863 -3.98975 0
M  V30 3225 C 329.842 -3.20569 -4.09306 0
M  V30 3226 C 327.527 -2.55407 -4.32519 0
M  V30 3227 C 329.521 -4.4891 -4.52503 0
M  V30 3228 C 327.208 -3.83976 -4.754 0
M  V30 3229 C 328.206 -4.8054 -4.85356 0
M  V30 3230 O 327.894 -6.06817 -5.27284 0
M  V30 3231 H 327.626 -0.235866 -0.633516 0
M  V30 3232 H 330.18 -1.2874 -1.60047 0
M  V30 3233 H 328.41 -0.105992 -3.86555 0
M  V30 3234 H 330.099 -0.491604 -4.02912 0
M  V30 3235 H 330.865 -2.96753 -3.83618 0
M  V30 3236 H 326.744 -1.8097 -4.23994 0
M  V30 3237 H 330.288 -5.24283 -4.60188 0
M  V30 3238 H 326.185 -4.07596 -5.00535 0
M  V30 3239 H 326.953 -6.10262 -5.45457 0
M  V30 3240 N 329.616 1.39756 -0.72842 0
M  V30 3241 C 331.032 1.5442 -0.403308 0
M  V30 3242 C 331.232 1.69694 1.08656 0
M  V30 3243 O 330.288 1.69373 1.87267 0
M  V30 3244 C 331.601 2.76555 -1.18058 0
M  V30 3245 C 333.149 2.90384 -1.16815 0
M  V30 3246 C 333.624 4.15449 -1.92785 0
M  V30 3247 N 335.115 4.22475 -1.89918 0
M  V30 3248 C 335.85 5.1818 -2.45514 0
M  V30 3249 N 335.346 6.19714 -3.09719 0
M  V30 3250 N 337.139 5.1035 -2.35584 0
M  V30 3251 H 329.29 1.28089 -1.69431 0
M  V30 3252 H 331.553 0.620327 -0.716867 0
M  V30 3253 H 331.259 2.7159 -2.23455 0
M  V30 3254 H 331.133 3.69033 -0.780662 0
M  V30 3255 H 333.52 2.94846 -0.12234 0
M  V30 3256 H 333.601 1.98988 -1.6074 0
M  V30 3257 H 333.245 4.11749 -2.97364 0
M  V30 3258 H 333.175 5.05877 -1.46272 0
M  V30 3259 H 335.666 3.49743 -1.43138 0
M  V30 3260 H 335.979 6.8919 -3.49625 0
M  V30 3261 H 334.324 6.20121 -3.13807 0
M  V30 3262 H 337.515 4.2996 -1.85072 0
M  V30 3263 H 337.688 5.84761 -2.79211 0
M  V30 3264 N 331.094 0.475555 1.50254 0
M  V30 3265 C 332.322 -0.0754493 2.06762 0
M  V30 3266 C 332.737 -1.33111 1.33891 0
M  V30 3267 O 332.094 -1.77846 0.40952 0
M  V30 3268 C 332.145 -0.359008 3.59713 0
M  V30 3269 O 331.866 0.846851 4.29837 0
M  V30 3270 C 333.367 -0.956484 4.32858 0
M  V30 3271 H 330.587 0.00907525 0.670939 0
M  V30 3272 H 333.131 0.665618 1.93364 0
M  V30 3273 H 331.286 -1.05001 3.72899 0
M  V30 3274 H 331.7 0.594162 5.21124 0
M  V30 3275 H 333.174 -1.10463 5.40834 0
M  V30 3276 H 333.651 -1.94775 3.93649 0
M  V30 3277 H 334.257 -0.303723 4.24214 0
M  V30 3278 N 332.573 -1.56217 0.208337 0
M  V30 3279 C 333.503 -2.22694 -0.702116 0
M  V30 3280 C 334.484 -1.19432 -1.2112 0
M  V30 3281 O 335.669 -1.47978 -1.25762 0
M  V30 3282 C 332.799 -2.8966 -1.9161 0
M  V30 3283 C 331.753 -3.9928 -1.5414 0
M  V30 3284 C 331.079 -4.53476 -2.83308 0
M  V30 3285 C 332.379 -5.17012 -0.741339 0
M  V30 3286 H 334.073 -2.99034 -0.147898 0
M  V30 3287 H 331.619 -1.43831 -0.0696951 0
M  V30 3288 H 333.572 -3.34852 -2.55836 0
M  V30 3289 H 332.296 -2.10746 -2.49507 0
M  V30 3290 H 330.955 -3.54799 -0.922668 0
M  V30 3291 H 330.603 -3.71308 -3.39322 0
M  V30 3292 H 330.303 -5.27451 -2.58976 0
M  V30 3293 H 331.827 -5.01378 -3.485 0
M  V30 3294 H 333.241 -5.58667 -1.28699 0
M  V30 3295 H 331.638 -5.97137 -0.595627 0
M  V30 3296 H 332.708 -4.8423 0.254851 0
M  V30 3297 N 334.051 0.0651679 -1.57465 0
M  V30 3298 C 334.981 1.07693 -2.07182 0
M  V30 3299 C 335.962 1.39962 -0.966673 0
M  V30 3300 O 337.147 1.49475 -1.2398 0
M  V30 3301 C 334.277 2.3885 -2.52127 0
M  V30 3302 C 333.231 2.20917 -3.66579 0
M  V30 3303 C 332.557 3.57515 -3.97601 0
M  V30 3304 C 333.857 1.62493 -4.9638 0
M  V30 3305 H 335.551 0.663199 -2.91962 0
M  V30 3306 H 333.097 0.317569 -1.40455 0
M  V30 3307 H 335.05 3.09928 -2.85522 0
M  V30 3308 H 333.774 2.82215 -1.64384 0
M  V30 3309 H 332.433 1.52279 -3.33477 0
M  V30 3310 H 332.081 3.98463 -3.06979 0
M  V30 3311 H 331.781 3.46353 -4.74672 0
M  V30 3312 H 333.305 4.30013 -4.33499 0
M  V30 3313 H 334.719 2.23445 -5.27963 0
M  V30 3314 H 333.116 1.62009 -5.77818 0
M  V30 3315 H 334.186 0.587041 -4.81333 0
M  V30 3316 N 335.529 1.53961 0.336706 0
M  V30 3317 C 336.439 1.85432 1.43708 0
M  V30 3318 C 337.455 0.745053 1.57242 0
M  V30 3319 O 338.631 1.03804 1.72588 0
M  V30 3320 C 335.696 2.06349 2.78605 0
M  V30 3321 C 334.757 3.30191 2.74358 0
M  V30 3322 C 333.99 3.50101 4.02822 0
M  V30 3323 O 334.213 2.7371 5.00439 0
M  V30 3324 O 333.147 4.43547 4.06878 0
M  V30 3325 H 336.973 2.78975 1.20028 0
M  V30 3326 H 334.558 1.39701 0.52952 0
M  V30 3327 H 336.44 2.21513 3.58483 0
M  V30 3328 H 335.115 1.15995 3.02203 0
M  V30 3329 H 334.022 3.20425 1.93078 0
M  V30 3330 H 335.355 4.2056 2.55715 0
M  V30 3331 N 337.007 -0.598083 1.45811 0
M  V30 3332 C 337.954 -1.7082 1.55207 0
M  V30 3333 C 338.924 -1.61278 0.39732 0
M  V30 3334 O 340.109 -1.80717 0.612038 0
M  V30 3335 C 337.249 -3.09144 1.53376 0
M  V30 3336 C 336.362 -3.29423 2.79472 0
M  V30 3337 C 335.497 -4.57907 2.69248 0
M  V30 3338 C 334.536 -4.71476 3.90354 0
M  V30 3339 N 333.673 -5.9127 3.78608 0
M  V30 3340 H 338.513 -1.62125 2.50039 0
M  V30 3341 H 336.05 -0.790389 1.24062 0
M  V30 3342 H 338.008 -3.89186 1.50301 0
M  V30 3343 H 336.638 -3.16773 0.620876 0
M  V30 3344 H 335.69 -2.43091 2.92594 0
M  V30 3345 H 337.002 -3.3532 3.69272 0
M  V30 3346 H 336.156 -5.46157 2.64192 0
M  V30 3347 H 334.895 -4.54423 1.77063 0
M  V30 3348 H 333.9 -3.81648 3.95759 0
M  V30 3349 H 335.125 -4.76751 4.83617 0
M  V30 3350 H 333.071 -5.88813 2.89199 0
M  V30 3351 H 332.988 -5.98369 4.6205 0
M  V30 3352 H 334.256 -6.81992 3.77501 0
M  V30 3353 N 338.485 -1.33259 -0.841409 0
M  V30 3354 C 339.901 -1.12538 -1.13169 0
M  V30 3355 C 340.101 0.0854037 -2.01319 0
M  V30 3356 O 339.157 0.766417 -2.40587 0
M  V30 3357 C 340.47 -2.41156 -1.79623 0
M  V30 3358 C 342.018 -2.47038 -1.922 0
M  V30 3359 C 342.493 -3.7561 -2.6207 0
M  V30 3360 N 343.984 -3.76667 -2.69585 0
M  V30 3361 C 344.719 -4.72861 -3.2433 0
M  V30 3362 N 344.215 -5.79428 -3.79783 0
M  V30 3363 N 346.008 -4.6034 -3.22558 0
M  V30 3364 H 338.159 -2.10868 -0.254676 0
M  V30 3365 H 340.422 -0.931615 -0.175493 0
M  V30 3366 H 340.128 -3.29747 -1.22311 0
M  V30 3367 H 340.002 -2.53114 -2.79666 0
M  V30 3368 H 342.389 -1.58898 -2.48667 0
M  V30 3369 H 342.47 -2.39022 -0.911148 0
M  V30 3370 H 342.114 -4.64131 -2.06263 0
M  V30 3371 H 342.044 -3.80902 -3.63622 0
M  V30 3372 H 344.535 -2.99648 -2.30259 0
M  V30 3373 H 344.848 -6.48867 -4.19752 0
M  V30 3374 H 343.193 -5.83166 -3.78078 0
M  V30 3375 H 346.384 -3.76244 -2.78492 0
M  V30 3376 H 346.557 -5.35478 -3.64921 0
M  V30 3377 N 339.963 1.05934 -1.16686 0
M  V30 3378 C 341.24 1.75643 -0.860747 0
M  V30 3379 C 341.62 2.01144 0.640641 0
M  V30 3380 O 340.968 1.64147 1.58959 0
M  V30 3381 C 341.178 3.05493 -1.68745 0
M  V30 3382 C 342.526 3.79581 -1.90271 0
M  V30 3383 O 343.55 3.15344 -1.65641 0
M  V30 3384 O 342.409 4.9499 -2.31618 0
M  V30 3385 H 339.503 0.763426 -0.317977 0
M  V30 3386 H 342.049 1.1217 -1.27342 0
M  V30 3387 H 340.821 2.8264 -2.70611 0
M  V30 3388 H 340.444 3.76702 -1.27206 0
M  V30 3389 O 341.48 1.09547 1.18667 0
M  V30 3390 H 342.171 0.792406 1.7675 0
M  V30 END ATOM
M  V30 BEGIN BOND
M  V30 END BOND
M  V30 END CTAB
M  END
$$$$
