drugbank_target|Q47Q21 o-succinylbenzoate synthase (DB02251)
 OpenBabel12092120503D

  0  0  0     0  0            999 V3000
M  V30 BEGIN CTAB
M  V30 COUNTS 4809 4855 0 0 0
M  V30 BEGIN ATOM
M  V30 1 H -0.908 1.98254 -0.117106 0
M  V30 2 N 0 1.576 0 0
M  V30 3 C 0.933 2.03868 1.02534 0
M  V30 4 C 1.911 0.928543 1.3348 0
M  V30 5 O 3.095 1.19667 1.45644 0
M  V30 6 C 0.222 2.43627 2.35294 0
M  V30 7 C -0.732 3.65373 2.2001 0
M  V30 8 S 0.101 5.13292 1.52614 0
M  V30 9 C 1.257 5.56322 2.86805 0
M  V30 10 H 1.49 2.90518 0.631377 0
M  V30 11 H -0.977 1.52953 0.210867 0
M  V30 12 H 0.981 2.67203 3.11629 0
M  V30 13 H -0.358 1.57376 2.7183 0
M  V30 14 H -1.165 3.90944 3.18086 0
M  V30 15 H -1.563 3.418 1.51819 0
M  V30 16 H 0.729 5.58782 3.83104 0
M  V30 17 H 1.672 6.56266 2.65933 0
M  V30 18 H 2.08 4.83886 2.90714 0
M  V30 19 N 1.4781 -0.272755 1.55222 0
M  V30 20 C 2.7061 -1.02255 1.79865 0
M  V30 21 C 3.1211 -1.79924 0.572088 0
M  V30 22 O 2.4781 -1.76638 -0.458842 0
M  V30 23 C 2.5291 -1.98094 3.02392 0
M  V30 24 O 2.2501 -1.23572 4.20311 0
M  V30 25 C 3.7511 -2.84884 3.39641 0
M  V30 26 H 0.9711 -0.302057 0.599168 0
M  V30 27 H 3.5151 -0.303465 2.02236 0
M  V30 28 H 1.6701 -2.65465 2.82147 0
M  V30 29 H 2.0841 -1.88172 4.89583 0
M  V30 30 H 3.5581 -3.47927 4.28545 0
M  V30 31 H 4.0351 -3.54665 2.59055 0
M  V30 32 H 4.6411 -2.23003 3.62146 0
M  V30 33 N 2.9562 -1.48159 -0.537278 0
M  V30 34 C 4.2042 -1.55497 -1.29094 0
M  V30 35 C 4.5252 -0.227454 -1.93669 0
M  V30 36 O 3.7952 0.750386 -1.80959 0
M  V30 37 H 2.3752 -0.572832 -0.47945 0
M  V30 38 H 5.0372 -1.84579 -0.625818 0
M  V30 39 H 4.1332 -2.33216 -2.07405 0
M  V30 40 N 4.4343 0.785586 -1.36625 0
M  V30 41 C 5.8503 1.08419 -1.17122 0
M  V30 42 C 6.0503 2.015 0.00208491 0
M  V30 43 O 5.1063 2.43551 0.666278 0
M  V30 44 C 6.4193 1.69498 -2.48377 0
M  V30 45 C 7.9673 1.81821 -2.54775 0
M  V30 46 C 8.4423 2.46315 -3.86126 0
M  V30 47 N 9.9333 2.53779 -3.87492 0
M  V30 48 C 10.6683 3.045 -4.85868 0
M  V30 49 N 10.1643 3.55499 -5.94637 0
M  V30 50 N 11.9573 3.03247 -4.73284 0
M  V30 51 H 4.1083 0.167264 -2.1174 0
M  V30 52 H 6.3713 0.13682 -0.938075 0
M  V30 53 H 6.0773 1.08571 -3.34522 0
M  V30 54 H 5.9513 2.6896 -2.64462 0
M  V30 55 H 8.3383 2.41884 -1.69045 0
M  V30 56 H 8.4193 0.811532 -2.42586 0
M  V30 57 H 8.0633 1.86895 -4.72263 0
M  V30 58 H 7.9933 3.47561 -3.95612 0
M  V30 59 H 10.4843 2.17672 -3.08913 0
M  V30 60 H 10.7973 3.92562 -6.65669 0
M  V30 61 H 9.1423 3.5364 -5.98301 0
M  V30 62 H 12.3333 2.62696 -3.87438 0
M  V30 63 H 12.5063 3.42467 -5.50109 0
M  V30 64 N 5.9124 1.20967 1.01018 0
M  V30 65 C 6.8754 0.965918 2.07853 0
M  V30 66 C 7.8754 -0.0610545 1.60684 0
M  V30 67 O 9.0654 0.175681 1.73312 0
M  V30 68 C 6.1974 0.455513 3.37843 0
M  V30 69 H 7.3904 1.91365 2.3091 0
M  V30 70 H 4.9434 1.02594 1.17916 0
M  V30 71 H 5.6784 -0.497381 3.20463 0
M  V30 72 H 5.4634 1.19622 3.73407 0
M  V30 73 H 6.9534 0.304667 4.16487 0
M  V30 74 N 7.3905 -1.2043 1.01659 0
M  V30 75 C 8.6375 -1.89797 0.705917 0
M  V30 76 C 8.9655 -1.78848 -0.764439 0
M  V30 77 O 8.2205 -1.16694 -1.57102 0
M  V30 78 C 8.5195 -3.40464 1.08714 0
M  V30 79 C 8.1855 -3.71614 2.5537 0
M  V30 80 C 6.8475 -3.79826 2.95441 0
M  V30 81 C 9.1995 -3.85915 3.50313 0
M  V30 82 C 6.5275 -3.99797 4.29394 0
M  V30 83 C 8.8795 -4.07396 4.83954 0
M  V30 84 C 7.5435 -4.13837 5.23732 0
M  V30 85 H 6.8135 -0.694518 0.258313 0
M  V30 86 H 9.4605 -1.42691 1.27717 0
M  V30 87 H 7.7655 -3.89385 0.434309 0
M  V30 88 H 9.4625 -3.92433 0.824461 0
M  V30 89 H 6.0525 -3.65822 2.23321 0
M  V30 90 H 10.2365 -3.78926 3.20513 0
M  V30 91 H 5.4925 -4.03018 4.59768 0
M  V30 92 H 9.6665 -4.17404 5.57447 0
M  V30 93 H 7.2935 -4.29064 6.27541 0
M  V30 94 N 8.8686 -0.792821 -1.36206 0
M  V30 95 C 9.8316 -0.199459 -2.2833 0
M  V30 96 C 10.8316 0.605189 -1.48977 0
M  V30 97 O 12.0216 0.425685 -1.68919 0
M  V30 98 C 9.1536 0.723523 -3.33134 0
M  V30 99 H 10.3466 -1.01181 -2.82316 0
M  V30 100 H 7.8996 -0.562485 -1.45828 0
M  V30 101 H 8.6346 1.56008 -2.84309 0
M  V30 102 H 8.4196 0.148436 -3.91819 0
M  V30 103 H 9.9096 1.13344 -4.01924 0
M  V30 104 N 10.3467 1.47872 -0.545128 0
M  V30 105 C 11.5957 2.01695 -0.0145033 0
M  V30 106 C 11.9087 1.42609 1.33873 0
M  V30 107 O 13.1147 1.88021 1.95858 0
M  V30 108 C 11.5707 3.59892 0.0245068 0
M  V30 109 C 11.1787 4.27966 -1.32475 0
M  V30 110 C 12.9227 4.21507 0.50316 0
M  V30 111 C 10.8297 5.78136 -1.2455 0
M  V30 112 H 9.7597 0.753998 -0.00165172 0
M  V30 113 H 12.4107 1.69985 -0.691175 0
M  V30 114 H 10.7927 3.88509 0.766575 0
M  V30 115 H 11.9667 4.11003 -2.08357 0
M  V30 116 H 10.2817 3.78286 -1.74036 0
M  V30 117 H 12.8787 5.31538 0.580656 0
M  V30 118 H 13.2217 3.87855 1.51243 0
M  V30 119 H 13.7547 3.97376 -0.183681 0
M  V30 120 H 10.4937 6.16388 -2.23039 0
M  V30 121 H 10.0137 5.97469 -0.528282 0
M  V30 122 H 11.6927 6.40099 -0.942488 0
M  V30 123 N 11.8248 0.280983 1.55075 0
M  V30 124 C 13.2358 -0.215629 1.85451 0
M  V30 125 C 13.5868 -1.54991 1.203 0
M  V30 126 O 12.7118 -2.10699 0.493435 0
M  V30 127 C 13.3068 -0.398026 3.36454 0
M  V30 128 C 11.8658 -0.838866 3.66933 0
M  V30 129 C 11.0128 0.064458 2.77225 0
M  V30 130 H 13.9638 0.502601 1.50531 0
M  V30 131 H 13.9848 -1.23569 3.59876 0
M  V30 132 H 13.4968 0.573241 3.83843 0
M  V30 133 H 11.5978 -1.8214 3.25048 0
M  V30 134 H 11.7108 -0.672123 4.74362 0
M  V30 135 H 10.0748 -0.452863 2.50642 0
M  V30 136 H 10.8578 1.03172 3.2743 0
M  V30 137 N 13.3029 -1.57598 0.00835791 0
M  V30 138 C 14.2329 -2.1198 -0.979113 0
M  V30 139 C 15.2139 -1.03091 -1.35301 0
M  V30 140 O 16.3989 -1.30818 -1.43528 0
M  V30 141 C 13.5289 -2.62995 -2.26828 0
M  V30 142 C 12.4829 -3.76485 -2.03576 0
M  V30 143 C 11.8089 -4.13846 -3.38579 0
M  V30 144 C 13.1089 -5.0342 -1.39161 0
M  V30 145 H 14.8029 -2.94738 -0.526281 0
M  V30 146 H 12.3489 -1.41783 -0.251704 0
M  V30 147 H 14.3019 -2.99669 -2.96271 0
M  V30 148 H 13.0259 -1.7737 -2.7424 0
M  V30 149 H 11.6849 -3.40217 -1.36557 0
M  V30 150 H 11.3329 -3.25232 -3.83709 0
M  V30 151 H 11.0329 -4.90312 -3.23834 0
M  V30 152 H 12.5569 -4.53086 -4.09323 0
M  V30 153 H 13.9709 -5.37812 -1.98573 0
M  V30 154 H 12.3679 -5.84746 -1.34878 0
M  V30 155 H 13.4379 -4.83548 -0.361868 0
M  V30 156 N 14.781 0.264519 -1.55364 0
M  V30 157 C 16.197 0.61215 -1.47394 0
M  V30 158 C 16.397 1.89134 -0.695018 0
M  V30 159 O 15.453 2.51563 -0.217275 0
M  V30 160 C 16.766 0.731235 -2.91674 0
M  V30 161 C 18.314 0.82473 -3.01939 0
M  V30 162 C 18.789 0.975522 -4.4749 0
M  V30 163 N 20.28 1.04083 -4.51354 0
M  V30 164 C 21.015 1.17646 -5.61201 0
M  V30 165 N 20.511 1.27874 -6.80896 0
M  V30 166 N 22.304 1.20823 -5.48961 0
M  V30 167 H 14.455 -0.575456 -2.04456 0
M  V30 168 H 16.718 -0.196099 -0.927496 0
M  V30 169 H 16.424 -0.138392 -3.51428 0
M  V30 170 H 16.298 1.60883 -3.41169 0
M  V30 171 H 18.685 1.68482 -2.42276 0
M  V30 172 H 18.766 -0.0776479 -2.55682 0
M  V30 173 H 18.41 0.120058 -5.07758 0
M  V30 174 H 18.34 1.89268 -4.91412 0
M  V30 175 H 20.831 0.973846 -3.65136 0
M  V30 176 H 21.144 1.38081 -7.60364 0
M  V30 177 H 19.489 1.24863 -6.83692 0
M  V30 178 H 22.68 1.12469 -4.54388 0
M  V30 179 H 22.853 1.31049 -6.3461 0
M  V30 180 N 16.2591 1.48442 0.529413 0
M  V30 181 C 17.4871 1.60151 1.30994 0
M  V30 182 C 17.9021 0.261985 1.86973 0
M  V30 183 O 17.2591 -0.748805 1.66431 0
M  V30 184 C 17.3101 2.64854 2.46038 0
M  V30 185 O 17.0311 3.93608 1.92365 0
M  V30 186 C 18.5321 2.87007 3.37849 0
M  V30 187 H 15.7521 0.539971 0.398338 0
M  V30 188 H 18.2961 1.94273 0.638597 0
M  V30 189 H 16.4511 2.33589 3.09055 0
M  V30 190 H 16.8651 4.51055 2.67675 0
M  V30 191 H 18.3391 3.64068 4.14919 0
M  V30 192 H 18.8161 1.95852 3.93114 0
M  V30 193 H 19.4221 3.19579 2.80623 0
M  V30 194 N 17.7372 -0.778329 1.37039 0
M  V30 195 C 19.1532 -1.07796 1.17695 0
M  V30 196 C 19.3532 -2.01498 0.00860115 0
M  V30 197 O 18.4092 -2.43901 -0.653352 0
M  V30 198 C 19.7222 -1.68178 2.49272 0
M  V30 199 C 21.2702 -1.80467 2.55735 0
M  V30 200 C 21.7452 -2.44263 3.87427 0
M  V30 201 N 23.2362 -2.51721 3.88833 0
M  V30 202 C 23.9712 -3.01919 4.87476 0
M  V30 203 N 23.4672 -3.5234 5.96513 0
M  V30 204 N 25.2602 -3.00733 4.74885 0
M  V30 205 H 17.4112 -0.156032 2.11826 0
M  V30 206 H 19.6742 -0.131844 0.938787 0
M  V30 207 H 19.3802 -1.06796 3.35093 0
M  V30 208 H 19.2542 -2.67554 2.65885 0
M  V30 209 H 21.6412 -2.40984 1.70325 0
M  V30 210 H 21.7222 -0.798656 2.43013 0
M  V30 211 H 21.3662 -1.84388 4.73248 0
M  V30 212 H 21.2962 -3.45458 3.9745 0
M  V30 213 H 23.7872 -2.1603 3.10063 0
M  V30 214 H 24.1002 -3.89027 6.67741 0
M  V30 215 H 22.4452 -3.50462 6.00168 0
M  V30 216 H 25.6362 -2.60638 3.88826 0
M  V30 217 H 25.8092 -3.39545 5.51918 0
M  V30 218 N 19.2153 -1.21501 -1.00376 0
M  V30 219 C 20.4623 -1.03299 -1.74171 0
M  V30 220 C 20.7903 0.433326 -1.89612 0
M  V30 221 O 20.0453 1.33779 -1.42834 0
M  V30 222 C 20.3443 -1.67673 -3.15627 0
M  V30 223 C 20.0103 -3.17533 -3.2013 0
M  V30 224 C 18.6723 -3.58427 -3.21067 0
M  V30 225 C 21.0243 -4.13504 -3.17275 0
M  V30 226 C 18.3523 -4.93794 -3.16835 0
M  V30 227 C 20.7043 -5.48834 -3.14585 0
M  V30 228 C 19.3683 -5.89123 -3.13831 0
M  V30 229 H 18.6383 -0.377999 -0.637336 0
M  V30 230 H 21.2853 -1.51111 -1.17634 0
M  V30 231 H 19.5903 -1.12158 -3.75404 0
M  V30 232 H 21.2873 -1.51091 -3.71446 0
M  V30 233 H 17.8773 -2.84965 -3.20145 0
M  V30 234 H 22.0613 -3.82936 -3.15711 0
M  V30 235 H 17.3173 -5.24255 -3.1459 0
M  V30 236 H 21.4913 -6.22934 -3.1133 0
M  V30 237 H 19.1183 -6.93984 -3.10307 0
M  V30 238 N 20.6934 1.19889 -1.02296 0
M  V30 239 C 22.1094 1.41462 -0.738954 0
M  V30 240 C 22.3094 1.89721 0.678846 0
M  V30 241 O 21.3654 2.07016 1.4457 0
M  V30 242 C 22.6784 2.43083 -1.77005 0
M  V30 243 C 24.2264 2.5684 -1.78892 0
M  V30 244 C 24.7014 3.61709 -2.80945 0
M  V30 245 N 26.1924 3.69199 -2.79725 0
M  V30 246 C 26.9274 4.50019 -3.55345 0
M  V30 247 N 26.4234 5.34592 -4.40662 0
M  V30 248 N 28.2164 4.44612 -3.43914 0
M  V30 249 H 20.3674 0.868827 -1.93817 0
M  V30 250 H 22.6304 0.44399 -0.837602 0
M  V30 251 H 22.3364 2.14636 -2.78612 0
M  V30 252 H 22.2104 3.4217 -1.58744 0
M  V30 253 H 24.5974 2.84614 -0.779674 0
M  V30 254 H 24.6784 1.57927 -2.01228 0
M  V30 255 H 24.3224 3.34678 -3.82038 0
M  V30 256 H 24.2524 4.60259 -2.5587 0
M  V30 257 H 26.7434 3.08794 -2.17842 0
M  V30 258 H 27.0564 5.93363 -4.95116 0
M  V30 259 H 25.4014 5.34073 -4.44737 0
M  V30 260 H 28.5924 3.7758 -2.76679 0
M  V30 261 H 28.7654 5.0736 -4.031 0
M  V30 262 N 22.1715 0.800033 1.35784 0
M  V30 263 C 23.4195 0.376597 1.9856 0
M  V30 264 C 23.7405 -1.05812 1.63795 0
M  V30 265 O 23.0105 -1.73103 0.917171 0
M  V30 266 H 21.5905 0.136261 0.734467 0
M  V30 267 H 24.2525 1.02442 1.65806 0
M  V30 268 H 23.3485 0.477002 3.08433 0
M  V30 269 N 23.6496 -1.47581 0.552962 0
M  V30 270 C 24.8986 -2.01684 0.0251995 0
M  V30 271 C 25.2116 -1.43317 -1.33115 0
M  V30 272 O 26.4176 -1.89057 -1.94858 0
M  V30 273 C 24.8736 -3.599 -0.00542052 0
M  V30 274 C 24.4816 -4.27257 1.34742 0
M  V30 275 C 26.2256 -4.21768 -0.4808 0
M  V30 276 C 24.1326 -5.77467 1.27614 0
M  V30 277 H 23.0626 -0.753979 0.00565033 0
M  V30 278 H 25.7136 -1.69616 0.70018 0
M  V30 279 H 24.0956 -3.88911 -0.745961 0
M  V30 280 H 25.2696 -4.09893 2.10534 0
M  V30 281 H 23.5846 -3.77358 1.76039 0
M  V30 282 H 26.1816 -5.31838 -0.55246 0
M  V30 283 H 26.5246 -3.88651 -1.49184 0
M  V30 284 H 27.0576 -3.97273 0.204752 0
M  V30 285 H 23.7966 -6.15196 2.26304 0
M  V30 286 H 23.3166 -5.9718 0.55996 0
M  V30 287 H 24.9956 -6.3959 0.976421 0
M  V30 288 N 25.1277 -0.289203 -1.54924 0
M  V30 289 C 26.3557 0.326463 -2.04308 0
M  V30 290 C 26.7707 1.48413 -1.16701 0
M  V30 291 O 26.1277 1.81507 -0.190087 0
M  V30 292 C 26.1787 0.794014 -3.52672 0
M  V30 293 O 25.8997 -0.317564 -4.36948 0
M  V30 294 C 27.4007 1.47605 -4.18004 0
M  V30 295 H 24.6207 0.0726272 -0.667058 0
M  V30 296 H 27.1647 -0.425401 -2.00026 0
M  V30 297 H 25.3197 1.49593 -3.57352 0
M  V30 298 H 25.7337 0.0443186 -5.24481 0
M  V30 299 H 27.2077 1.75447 -5.23376 0
M  V30 300 H 27.6847 2.41224 -3.67025 0
M  V30 301 H 28.2907 0.81762 -4.17367 0
M  V30 302 N 26.6058 1.57591 -0.0167156 0
M  V30 303 C 27.8518 1.91567 0.665582 0
M  V30 304 C 28.1848 0.892298 1.72487 0
M  V30 305 O 27.4598 -0.0867127 1.94307 0
M  V30 306 C 27.7428 3.36069 1.29342 0
M  V30 307 C 27.5958 4.49135 0.244541 0
M  V30 308 C 28.9148 3.803 2.21495 0
M  V30 309 H 26.0338 0.69666 0.240488 0
M  V30 310 H 28.6758 1.89866 -0.0714356 0
M  V30 311 H 26.8258 3.3765 1.92158 0
M  V30 312 H 28.4978 4.59689 -0.385228 0
M  V30 313 H 26.7408 4.3165 -0.431379 0
M  V30 314 H 27.4118 5.47242 0.723207 0
M  V30 315 H 29.8878 3.80377 1.68678 0
M  V30 316 H 28.7638 4.82127 2.62382 0
M  V30 317 H 29.0248 3.15104 3.101 0
M  V30 318 N 28.0839 -0.256276 1.55502 0
M  V30 319 C 29.4999 -0.604325 1.47716 0
M  V30 320 C 29.6999 -1.88763 0.705039 0
M  V30 321 O 28.7559 -2.51445 0.230613 0
M  V30 322 C 30.0689 -0.715756 2.92057 0
M  V30 323 C 31.6169 -0.808706 3.02372 0
M  V30 324 C 32.0919 -0.951777 4.48001 0
M  V30 325 N 33.5829 -1.01688 4.519 0
M  V30 326 C 34.3179 -1.14668 5.61817 0
M  V30 327 N 33.8139 -1.24261 6.81565 0
M  V30 328 N 35.6069 -1.1791 5.49594 0
M  V30 329 H 27.7579 0.586291 2.04148 0
M  V30 330 H 30.0209 0.201015 0.926443 0
M  V30 331 H 29.7269 0.157027 3.51349 0
M  V30 332 H 29.6009 -1.59071 3.42018 0
M  V30 333 H 31.9879 -1.67195 2.43166 0
M  V30 334 H 32.0689 0.0912063 2.55637 0
M  V30 335 H 31.7129 -0.0931291 5.07815 0
M  V30 336 H 31.6429 -1.86659 4.92408 0
M  V30 337 H 34.1339 -0.954468 3.65648 0
M  V30 338 H 34.4469 -1.34046 7.61086 0
M  V30 339 H 32.7919 -1.21236 6.84344 0
M  V30 340 H 35.9829 -1.10057 4.54978 0
M  V30 341 H 36.1559 -1.27681 6.35296 0
M  V30 342 N 29.562 -1.4872 -0.521534 0
M  V30 343 C 30.472 -1.66569 -1.65203 0
M  V30 344 C 31.488 -0.548197 -1.65139 0
M  V30 345 O 32.664 -0.820339 -1.83936 0
M  V30 346 C 29.729 -1.70917 -3.01642 0
M  V30 347 C 28.79 -2.94356 -3.12495 0
M  V30 348 C 28.023 -2.98487 -4.42426 0
M  V30 349 O 28.246 -2.10786 -5.30024 0
M  V30 350 O 27.18 -3.90746 -4.57822 0
M  V30 351 H 31.006 -2.62298 -1.5308 0
M  V30 352 H 28.591 -1.3222 -0.695565 0
M  V30 353 H 30.473 -1.7625 -3.82771 0
M  V30 354 H 29.148 -0.783633 -3.14071 0
M  V30 355 H 28.055 -2.94552 -2.3063 0
M  V30 356 H 29.388 -3.86322 -3.04986 0
M  V30 357 N 31.0401 0.771051 -1.3745 0
M  V30 358 C 32.2881 1.52661 -1.32435 0
M  V30 359 C 32.6091 1.9479 0.0905024 0
M  V30 360 O 31.8791 1.66348 1.03466 0
M  V30 361 H 30.4591 0.566218 -0.487244 0
M  V30 362 H 33.1211 0.917636 -1.71946 0
M  V30 363 H 32.2171 2.42568 -1.96385 0
M  V30 364 N 32.5182 1.22032 0.997298 0
M  V30 365 C 33.4512 0.929735 2.08401 0
M  V30 366 C 34.4292 -0.125681 1.62114 0
M  V30 367 O 35.6132 0.00495409 1.88499 0
M  V30 368 C 32.7402 0.397488 3.3636 0
M  V30 369 C 31.7862 1.4369 4.01566 0
M  V30 370 S 32.6192 3.00874 4.42984 0
M  V30 371 C 33.7752 2.49276 5.74119 0
M  V30 372 H 34.0082 1.84998 2.32729 0
M  V30 373 H 31.5412 1.0509 1.13117 0
M  V30 374 H 33.4992 0.0969846 4.10385 0
M  V30 375 H 32.1602 -0.501571 3.10069 0
M  V30 376 H 31.3532 1.01427 4.93689 0
M  V30 377 H 30.9552 1.68588 3.33847 0
M  V30 378 H 33.2472 1.90242 6.50242 0
M  V30 379 H 34.1902 3.39872 6.21203 0
M  V30 380 H 34.5982 1.90714 5.31308 0
M  V30 381 N 33.9963 -1.19345 1.0293 0
M  V30 382 C 34.9263 -2.2481 0.631105 0
M  V30 383 C 35.9073 -1.66245 -0.360104 0
M  V30 384 O 37.0923 -1.92677 -0.242726 0
M  V30 385 C 34.2223 -3.47295 -0.0184607 0
M  V30 386 C 33.1763 -4.18536 0.895073 0
M  V30 387 C 32.5023 -5.34586 0.110592 0
M  V30 388 C 33.8023 -4.73287 2.209 0
M  V30 389 H 35.4963 -2.58372 1.51275 0
M  V30 390 H 33.0423 -1.24194 0.728818 0
M  V30 391 H 34.9953 -4.20268 -0.308675 0
M  V30 392 H 33.7193 -3.12933 -0.934907 0
M  V30 393 H 32.3783 -3.47446 1.16949 0
M  V30 394 H 32.0263 -4.96469 -0.807902 0
M  V30 395 H 31.7263 -5.83183 0.719087 0
M  V30 396 H 33.2503 -6.10355 -0.172871 0
M  V30 397 H 34.6643 -5.38013 1.98028 0
M  V30 398 H 33.0613 -5.32373 2.76946 0
M  V30 399 H 34.1313 -3.91331 2.86336 0
M  V30 400 N 35.4744 -0.807222 -1.35358 0
M  V30 401 C 36.7204 -0.388463 -1.99045 0
M  V30 402 C 37.0534 1.04184 -1.63888 0
M  V30 403 O 36.3284 1.72292 -0.902535 0
M  V30 404 C 36.6114 -0.572783 -3.55515 0
M  V30 405 C 36.4644 -2.04807 -4.00468 0
M  V30 406 C 37.7834 0.00114064 -4.401 0
M  V30 407 H 34.9024 -0.142619 -0.723069 0
M  V30 408 H 37.5444 -1.01687 -1.60498 0
M  V30 409 H 35.6944 -0.0378425 -3.88482 0
M  V30 410 H 37.3664 -2.64544 -3.77908 0
M  V30 411 H 35.6094 -2.54427 -3.51353 0
M  V30 412 H 36.2804 -2.12792 -5.09337 0
M  V30 413 H 38.7564 -0.455716 -4.13597 0
M  V30 414 H 37.6324 -0.157737 -5.48673 0
M  V30 415 H 37.8934 1.09488 -4.28328 0
M  V30 416 N 36.9525 1.47285 -0.560781 0
M  V30 417 C 38.3685 1.58065 -0.22081 0
M  V30 418 C 38.5685 1.55892 1.27671 0
M  V30 419 O 37.6245 1.46422 2.0571 0
M  V30 420 C 38.9375 2.88418 -0.850625 0
M  V30 421 C 40.4855 3.02009 -0.822184 0
M  V30 422 C 40.9605 4.35066 -1.43113 0
M  V30 423 N 42.4515 4.41711 -1.39448 0
M  V30 424 C 43.1865 5.43237 -1.83525 0
M  V30 425 N 42.6825 6.51555 -2.35474 0
M  V30 426 N 44.4755 5.34304 -1.74574 0
M  V30 427 H 36.6265 1.46941 -1.53369 0
M  V30 428 H 38.8895 0.699558 -0.639783 0
M  V30 429 H 38.5955 2.95755 -1.9032 0
M  V30 430 H 38.4695 3.75612 -0.345773 0
M  V30 431 H 40.8565 2.94266 0.221714 0
M  V30 432 H 40.9375 2.16347 -1.36483 0
M  V30 433 H 40.5815 4.43565 -2.47412 0
M  V30 434 H 40.5115 5.19465 -0.863899 0
M  V30 435 H 43.0025 3.64027 -1.01452 0
M  V30 436 H 43.3155 7.25203 -2.67021 0
M  V30 437 H 41.6605 6.52435 -2.39487 0
M  V30 438 H 44.8515 4.48581 -1.33763 0
M  V30 439 H 45.0245 6.13288 -2.09242 0
M  V30 440 N 38.4306 0.297415 1.54768 0
M  V30 441 C 39.6786 -0.312295 1.99673 0
M  V30 442 C 39.9996 -1.54686 1.18732 0
M  V30 443 O 39.2696 -1.93854 0.282382 0
M  V30 444 H 37.8496 -0.118381 0.73756 0
M  V30 445 H 40.5116 0.407915 1.90583 0
M  V30 446 H 39.6076 -0.586813 3.06534 0
M  V30 447 N 39.9087 -1.5758 0.0250728 0
M  V30 448 C 40.8717 -2.08896 -0.943139 0
M  V30 449 C 41.8717 -1.00321 -1.25668 0
M  V30 450 O 43.0617 -1.26495 -1.19769 0
M  V30 451 C 40.1937 -2.55143 -2.26086 0
M  V30 452 H 41.3867 -2.95723 -0.498775 0
M  V30 453 H 38.9397 -1.54703 -0.222888 0
M  V30 454 H 39.6747 -1.71633 -2.75159 0
M  V30 455 H 39.4597 -3.34461 -2.04641 0
M  V30 456 H 40.9497 -2.95083 -2.95492 0
M  V30 457 N 41.3868 0.248026 -1.55636 0
M  V30 458 C 42.3498 1.29044 -1.89421 0
M  V30 459 C 43.3498 1.41134 -0.770581 0
M  V30 460 O 44.5398 1.39854 -1.03858 0
M  V30 461 C 41.6718 2.66831 -2.12165 0
M  V30 462 H 42.8648 1.00305 -2.82629 0
M  V30 463 H 40.4178 0.487265 -1.48511 0
M  V30 464 H 41.1528 3.00711 -1.21422 0
M  V30 465 H 40.9378 2.59438 -2.93997 0
M  V30 466 H 42.4278 3.42103 -2.3949 0
M  V30 467 N 42.8649 1.48995 0.513639 0
M  V30 468 C 44.1129 1.57531 1.26604 0
M  V30 469 C 44.4339 0.258236 1.93283 0
M  V30 470 O 43.7039 -0.721502 1.8213 0
M  V30 471 H 42.2839 0.580387 0.470276 0
M  V30 472 H 44.9459 1.85552 0.596373 0
M  V30 473 H 44.0419 2.36486 2.03669 0
M  V30 474 N 44.343 -0.763751 1.37857 0
M  V30 475 C 45.589 -1.52396 1.3471 0
M  V30 476 C 45.944 -1.92288 -0.0656435 0
M  V30 477 O 45.237 -1.6181 -1.02606 0
M  V30 478 C 45.431 -2.79499 2.22745 0
M  V30 479 C 45.26 -2.52031 3.72438 0
M  V30 480 C 44.03 -2.45759 4.4151 0
M  V30 481 C 46.228 -2.19489 4.65112 0
M  V30 482 N 44.21 -2.1046 5.76697 0
M  V30 483 C 45.581 -1.94396 5.88736 0
M  V30 484 C 47.636 -2.05712 4.53417 0
M  V30 485 C 46.339 -1.56917 7.01975 0
M  V30 486 C 48.365 -1.69634 5.66549 0
M  V30 487 C 47.727 -1.45407 6.89229 0
M  V30 488 H 43.826 -0.55765 0.548225 0
M  V30 489 H 46.41 -0.890302 1.73152 0
M  V30 490 H 44.581 -3.4069 1.86507 0
M  V30 491 H 46.313 -3.45465 2.10798 0
M  V30 492 H 43.068 -2.61885 3.94605 0
M  V30 493 H 43.492 -1.95484 6.48163 0
M  V30 494 H 48.134 -2.23123 3.59133 0
M  V30 495 H 45.852 -1.38246 7.96187 0
M  V30 496 H 49.438 -1.59621 5.59475 0
M  V30 497 H 48.318 -1.17904 7.75286 0
M  V30 498 N 45.8211 -1.22559 -0.990812 0
M  V30 499 C 47.0691 -1.04933 -1.72724 0
M  V30 500 C 47.3901 0.416158 -1.90508 0
M  V30 501 O 46.6601 1.29918 -1.46622 0
M  V30 502 H 45.2401 -0.385296 -0.639965 0
M  V30 503 H 47.9021 -1.54105 -1.19322 0
M  V30 504 H 46.9981 -1.52886 -2.72089 0
M  V30 505 N 47.2992 1.18797 -1.03562 0
M  V30 506 C 48.2092 2.25913 -0.632505 0
M  V30 507 C 49.2252 1.70668 0.338882 0
M  V30 508 O 50.4012 2.00453 0.195076 0
M  V30 509 C 47.4662 3.467 0.00350942 0
M  V30 510 C 46.5272 4.17098 -1.01624 0
M  V30 511 C 45.7602 5.32119 -0.410478 0
M  V30 512 O 45.9832 5.64976 0.784725 0
M  V30 513 O 44.9172 5.9107 -1.13667 0
M  V30 514 H 48.7432 2.62648 -1.52478 0
M  V30 515 H 46.3282 1.25781 -0.806195 0
M  V30 516 H 48.2102 4.19878 0.35781 0
M  V30 517 H 46.8852 3.11798 0.869686 0
M  V30 518 H 45.7922 3.4601 -1.42224 0
M  V30 519 H 47.1252 4.55987 -1.85301 0
M  V30 520 N 48.7773 0.814389 1.34928 0
M  V30 521 C 50.0243 0.398423 1.98542 0
M  V30 522 C 50.3523 -1.03638 1.64589 0
M  V30 523 O 49.6073 -1.73509 0.90516 0
M  V30 524 C 49.9063 0.537781 3.53331 0
M  V30 525 C 49.5723 1.93704 4.07172 0
M  V30 526 C 48.2343 2.31984 4.21589 0
M  V30 527 C 50.5863 2.85213 4.36237 0
M  V30 528 C 47.9143 3.61125 4.62391 0
M  V30 529 C 50.2663 4.13809 4.78482 0
M  V30 530 C 48.9303 4.52077 4.91104 0
M  V30 531 H 48.2003 0.145793 0.726516 0
M  V30 532 H 50.8473 1.03669 1.61012 0
M  V30 533 H 49.1523 -0.183906 3.91368 0
M  V30 534 H 50.8493 0.196588 4.00518 0
M  V30 535 H 47.4393 1.62966 3.96409 0
M  V30 536 H 51.6233 2.56885 4.24645 0
M  V30 537 H 46.8793 3.90612 4.70353 0
M  V30 538 H 51.0533 4.84811 4.99932 0
M  V30 539 H 48.6803 5.52196 5.22478 0
M  V30 540 N 50.2554 -1.46986 0.568584 0
M  V30 541 C 51.4804 -2.07335 0.0520528 0
M  V30 542 C 51.9054 -1.41675 -1.23733 0
M  V30 543 O 51.2634 -0.495623 -1.74394 0
M  V30 544 C 51.3114 -3.60417 -0.11501 0
M  V30 545 O 50.4154 -3.95309 -1.17492 0
M  V30 546 H 49.7564 -0.661597 0.0564385 0
M  V30 547 H 52.2864 -1.88837 0.787507 0
M  V30 548 H 52.2964 -4.06698 -0.325644 0
M  V30 549 H 50.9714 -4.07601 0.826675 0
M  V30 550 H 49.5484 -3.60757 -0.943869 0
M  V30 551 N 51.7335 -0.305618 -1.54608 0
M  V30 552 C 53.1445 0.186098 -1.8577 0
M  V30 553 C 53.4955 1.53058 -1.22751 0
M  V30 554 O 52.6205 2.09888 -0.526893 0
M  V30 555 C 53.2155 0.344449 -3.37044 0
M  V30 556 C 51.7745 0.780384 -3.68221 0
M  V30 557 C 50.9215 -0.108554 -2.77087 0
M  V30 558 H 53.8725 -0.526485 -1.49712 0
M  V30 559 H 53.8935 1.17828 -3.61796 0
M  V30 560 H 53.4055 -0.634235 -3.82883 0
M  V30 561 H 51.5065 1.76945 -3.27904 0
M  V30 562 H 51.6195 0.596572 -4.75371 0
M  V30 563 H 49.9835 0.412931 -2.5133 0
M  V30 564 H 50.7665 -1.08368 -3.25747 0
M  V30 565 N 53.2116 1.57565 -0.0334293 0
M  V30 566 C 54.4586 1.91978 0.644272 0
M  V30 567 C 54.7866 0.910231 1.71887 0
M  V30 568 O 54.0416 -0.0801961 1.95536 0
M  V30 569 C 54.3406 3.33112 1.29504 0
M  V30 570 C 54.0066 4.49537 0.350388 0
M  V30 571 C 52.6686 4.81115 0.0903974 0
M  V30 572 C 55.0206 5.20347 -0.298032 0
M  V30 573 C 52.3486 5.8086 -0.825746 0
M  V30 574 C 54.7006 6.2107 -1.20226 0
M  V30 575 C 53.3646 6.51088 -1.4711 0
M  V30 576 H 52.6346 0.702496 0.235756 0
M  V30 577 H 55.2816 1.91259 -0.0961176 0
M  V30 578 H 53.5866 3.30113 2.11028 0
M  V30 579 H 55.2836 3.57011 1.82603 0
M  V30 580 H 51.8736 4.24883 0.563205 0
M  V30 581 H 56.0576 4.96178 -0.110234 0
M  V30 582 H 51.3136 6.02461 -1.04169 0
M  V30 583 H 55.4876 6.75057 -1.71086 0
M  V30 584 H 53.1146 7.28193 -2.18264 0
M  V30 585 N 54.6897 -0.239769 1.55765 0
M  V30 586 C 55.6527 -1.28038 1.90103 0
M  V30 587 C 56.6527 -1.40723 0.778055 0
M  V30 588 O 57.8427 -1.39301 1.04599 0
M  V30 589 C 54.9747 -2.65702 2.13577 0
M  V30 590 H 56.1677 -0.988048 2.83157 0
M  V30 591 H 53.7207 -0.479382 1.48767 0
M  V30 592 H 54.4557 -3.00063 1.23015 0
M  V30 593 H 54.2407 -2.57875 2.95369 0
M  V30 594 H 55.7307 -3.40828 2.41301 0
M  V30 595 N 56.1678 -1.49265 -0.50573 0
M  V30 596 C 57.0778 -1.68312 -1.63427 0
M  V30 597 C 58.0938 -0.565682 -1.64548 0
M  V30 598 O 59.2698 -0.839801 -1.83055 0
M  V30 599 C 56.3348 -1.74107 -2.99813 0
M  V30 600 C 55.3958 -2.97653 -3.09356 0
M  V30 601 C 54.6288 -3.03163 -4.39236 0
M  V30 602 O 54.8518 -2.16396 -5.27758 0
M  V30 603 O 53.7858 -3.9558 -4.53652 0
M  V30 604 H 57.6118 -2.63907 -1.50289 0
M  V30 605 H 55.1968 -1.32951 -0.681502 0
M  V30 606 H 57.0788 -1.803 -3.80881 0
M  V30 607 H 55.7538 -0.816901 -3.13223 0
M  V30 608 H 54.6608 -2.96981 -2.27493 0
M  V30 609 H 55.9938 -3.89535 -3.00871 0
M  V30 610 N 57.6459 0.756429 -1.3826 0
M  V30 611 C 58.8759 1.54341 -1.3734 0
M  V30 612 C 59.2839 1.89159 0.0393917 0
M  V30 613 O 58.6269 1.5307 1.01565 0
M  V30 614 C 58.6889 2.87238 -2.16182 0
M  V30 615 C 58.3529 2.74973 -3.65019 0
M  V30 616 C 59.3499 2.44962 -4.58574 0
M  V30 617 C 57.0349 2.92515 -4.08338 0
M  V30 618 C 59.0289 2.32642 -5.93428 0
M  V30 619 C 56.7159 2.79815 -5.43274 0
M  V30 620 C 57.7139 2.49921 -6.35632 0
M  V30 621 O 57.4019 2.37275 -7.68086 0
M  V30 622 H 57.1339 0.484281 -0.471643 0
M  V30 623 H 59.6879 0.944152 -1.82414 0
M  V30 624 H 57.9179 3.49342 -1.65822 0
M  V30 625 H 59.6069 3.48731 -2.07705 0
M  V30 626 H 60.3729 2.31081 -4.26412 0
M  V30 627 H 56.2519 3.14781 -3.368 0
M  V30 628 H 59.7959 2.0923 -6.65484 0
M  V30 629 H 55.6929 2.93269 -5.75034 0
M  V30 630 H 56.4609 2.52509 -7.78577 0
M  V30 631 N 59.124 1.23083 0.984299 0
M  V30 632 C 60.372 1.05848 1.72165 0
M  V30 633 C 60.693 -0.406049 1.90726 0
M  V30 634 O 59.963 -1.29139 1.47309 0
M  V30 635 H 58.543 0.388685 0.637913 0
M  V30 636 H 61.205 1.54736 1.18503 0
M  V30 637 H 60.301 1.54327 2.71274 0
M  V30 638 N 60.6021 -1.18246 1.0419 0
M  V30 639 C 62.0131 -1.69914 0.773698 0
M  V30 640 C 62.3641 -1.83085 -0.705297 0
M  V30 641 O 61.4891 -1.51123 -1.5489 0
M  V30 642 C 62.0841 -3.08619 1.39784 0
M  V30 643 C 60.6431 -3.57494 1.17792 0
M  V30 644 C 59.7901 -2.34013 1.48773 0
M  V30 645 H 62.7411 -1.02904 1.20816 0
M  V30 646 H 62.7621 -3.71958 0.801714 0
M  V30 647 H 62.2741 -2.99001 2.47426 0
M  V30 648 H 60.3751 -3.72406 0.120295 0
M  V30 649 H 60.4881 -4.40852 1.87581 0
M  V30 650 H 58.8521 -2.37986 0.907463 0
M  V30 651 H 59.6351 -2.27013 2.57527 0
M  V30 652 N 62.0802 -0.821533 -1.34494 0
M  V30 653 C 63.4962 -0.507117 -1.51329 0
M  V30 654 C 63.6962 0.968964 -1.76673 0
M  V30 655 O 62.7522 1.75348 -1.81685 0
M  V30 656 C 64.0652 -1.36544 -2.67911 0
M  V30 657 C 65.6132 -1.36242 -2.81793 0
M  V30 658 C 66.0882 -2.2052 -4.01416 0
M  V30 659 N 67.5792 -2.18136 -4.08621 0
M  V30 660 C 68.3142 -2.80095 -5.00334 0
M  V30 661 N 67.8102 -3.51039 -5.9728 0
M  V30 662 N 69.6032 -2.69656 -4.93196 0
M  V30 663 H 61.7542 -1.77729 -1.16302 0
M  V30 664 H 64.0172 -0.757291 -0.570276 0
M  V30 665 H 63.7232 -2.41361 -2.55808 0
M  V30 666 H 63.5972 -1.02917 -3.62888 0
M  V30 667 H 65.9842 -0.322041 -2.93338 0
M  V30 668 H 66.0652 -1.73866 -1.87628 0
M  V30 669 H 65.7092 -3.24607 -3.90631 0
M  V30 670 H 65.6392 -1.80247 -4.94791 0
M  V30 671 H 68.1302 -1.6653 -3.39229 0
M  V30 672 H 68.4432 -3.95565 -6.63889 0
M  V30 673 H 66.7882 -3.55145 -5.97409 0
M  V30 674 H 69.9792 -2.13808 -4.16418 0
M  V30 675 H 70.1522 -3.1823 -5.64476 0
M  V30 676 N 63.5583 1.46682 -0.576371 0
M  V30 677 C 64.4683 2.34032 0.163141 0
M  V30 678 C 65.4843 1.49367 0.892501 0
M  V30 679 O 66.6603 1.82252 0.857106 0
M  V30 680 C 63.7253 3.26435 1.16795 0
M  V30 681 C 62.7863 4.26998 0.443944 0
M  V30 682 C 62.0193 5.14986 1.40088 0
M  V30 683 O 62.2423 5.05785 2.637 0
M  V30 684 O 61.1763 5.94906 0.914917 0
M  V30 685 H 65.0023 2.98607 -0.55388 0
M  V30 686 H 62.5873 1.45554 -0.336821 0
M  V30 687 H 64.4693 3.83459 1.74748 0
M  V30 688 H 63.1443 2.64465 1.86655 0
M  V30 689 H 62.0513 3.7368 -0.177271 0
M  V30 690 H 63.3843 4.91736 -0.213566 0
M  V30 691 N 65.0364 0.313813 1.54444 0
M  V30 692 C 66.2764 -0.292389 2.02298 0
M  V30 693 C 66.6404 -1.50105 1.19719 0
M  V30 694 O 67.8414 -2.17947 1.5733 0
M  V30 695 C 66.1124 -0.627682 3.51845 0
M  V30 696 S 67.6714 -1.21493 4.21646 0
M  V30 697 H 64.4894 -0.0890247 0.705405 0
M  V30 698 H 67.0914 0.444668 1.90376 0
M  V30 699 H 65.7954 0.260265 4.09574 0
M  V30 700 H 65.3264 -1.39519 3.67829 0
M  V30 701 H 67.3414 -2.5022 4.28491 0
M  V30 702 N 66.5145 -1.57545 0.0417849 0
M  V30 703 C 67.4775 -2.09885 -0.92093 0
M  V30 704 C 68.4775 -1.01648 -1.24596 0
M  V30 705 O 69.6675 -1.27759 -1.1842 0
M  V30 706 C 66.7995 -2.57527 -2.23367 0
M  V30 707 H 67.9925 -2.96236 -0.467382 0
M  V30 708 H 65.5455 -1.5493 -0.206467 0
M  V30 709 H 66.2805 -1.74542 -2.73323 0
M  V30 710 H 66.0655 -3.36613 -2.01083 0
M  V30 711 H 67.5555 -2.98201 -2.92346 0
M  V30 712 N 67.9926 0.231505 -1.5589 0
M  V30 713 C 69.4086 0.580748 -1.48659 0
M  V30 714 C 69.6086 1.87617 -0.73498 0
M  V30 715 O 68.6646 2.51046 -0.270586 0
M  V30 716 C 69.9776 0.669202 -2.93159 0
M  V30 717 C 71.5256 0.760499 -3.03621 0
M  V30 718 C 72.0006 0.880383 -4.49459 0
M  V30 719 N 73.4916 0.944861 -4.53461 0
M  V30 720 C 74.2266 1.05716 -5.63571 0
M  V30 721 N 73.7226 1.13403 -6.83456 0
M  V30 722 N 75.5156 1.09152 -5.514 0
M  V30 723 H 67.6666 -0.618695 -2.03189 0
M  V30 724 H 69.9296 -0.215728 -0.923128 0
M  V30 725 H 69.6356 -0.212904 -3.51055 0
M  V30 726 H 69.5096 1.5361 -3.44505 0
M  V30 727 H 71.8966 1.63305 -2.45796 0
M  V30 728 H 71.9776 -0.131864 -2.5546 0
M  V30 729 H 71.6216 0.0123284 -5.07899 0
M  V30 730 H 71.5516 1.78802 -4.95316 0
M  V30 731 H 74.0426 0.896176 -3.6712 0
M  V30 732 H 74.3556 1.21921 -7.63122 0
M  V30 733 H 72.7006 1.10333 -6.86186 0
M  V30 734 H 75.8916 1.02805 -4.56671 0
M  V30 735 H 76.0646 1.17558 -6.37247 0
M  V30 736 N 69.4707 1.49531 0.497807 0
M  V30 737 C 70.7167 1.60388 1.25089 0
M  V30 738 C 71.0717 0.288328 1.90227 0
M  V30 739 O 70.3647 -0.711706 1.77891 0
M  V30 740 C 70.5587 2.70252 2.33878 0
M  V30 741 C 70.3877 4.12363 1.79408 0
M  V30 742 C 69.1577 4.7911 1.60566 0
M  V30 743 C 71.3557 4.97491 1.30412 0
M  V30 744 N 69.3377 6.05525 1.01059 0
M  V30 745 C 70.7087 6.14411 0.830595 0
M  V30 746 C 72.7637 4.83466 1.19015 0
M  V30 747 C 71.4667 7.1885 0.254371 0
M  V30 748 C 73.4927 5.88057 0.627892 0
M  V30 749 C 72.8547 7.04208 0.16461 0
M  V30 750 H 68.9537 0.641246 0.447579 0
M  V30 751 H 71.5377 1.86549 0.557441 0
M  V30 752 H 69.7087 2.45858 3.0068 0
M  V30 753 H 71.4407 2.70613 3.00917 0
M  V30 754 H 68.1957 4.35961 1.85026 0
M  V30 755 H 68.6197 6.73028 0.732236 0
M  V30 756 H 73.2617 3.93978 1.53431 0
M  V30 757 H 70.9797 8.08036 -0.102052 0
M  V30 758 H 74.5657 5.79266 0.542444 0
M  V30 759 H 73.4457 7.83757 -0.263669 0
M  V30 760 N 70.9488 -0.749086 1.3866 0
M  V30 761 C 72.1948 -1.50959 1.36319 0
M  V30 762 C 72.5498 -1.92347 -0.0452451 0
M  V30 763 O 71.8428 -1.6289 -1.00884 0
M  V30 764 C 72.0368 -2.7712 2.25697 0
M  V30 765 C 71.8658 -2.48067 3.7509 0
M  V30 766 C 70.6358 -2.41062 4.44091 0
M  V30 767 C 72.8338 -2.14544 4.67414 0
M  V30 768 N 70.8158 -2.04331 5.78897 0
M  V30 769 C 72.1868 -1.88141 5.90765 0
M  V30 770 C 74.2418 -2.00892 4.55573 0
M  V30 771 C 72.9448 -1.49463 7.036 0
M  V30 772 C 74.9708 -1.63616 5.68317 0
M  V30 773 C 74.3328 -1.38088 6.90732 0
M  V30 774 H 70.4318 -0.551804 0.554108 0
M  V30 775 H 73.0158 -0.871886 1.74087 0
M  V30 776 H 71.1868 -3.38693 1.9011 0
M  V30 777 H 72.9188 -3.4321 2.1445 0
M  V30 778 H 69.6738 -2.57685 3.9736 0
M  V30 779 H 70.0978 -1.88598 6.502 0
M  V30 780 H 74.7398 -2.19301 3.61479 0
M  V30 781 H 72.4578 -1.29794 7.97608 0
M  V30 782 H 76.0438 -1.53678 5.61137 0
M  V30 783 H 74.9238 -1.09674 7.76493 0
M  V30 784 N 72.4269 -1.23603 -0.977757 0
M  V30 785 C 73.3899 -1.02069 -2.05218 0
M  V30 786 C 74.3899 0.0184305 -1.60789 0
M  V30 787 O 75.5799 -0.221569 -1.72785 0
M  V30 788 C 72.7119 -0.544926 -3.36517 0
M  V30 789 H 73.9049 -1.9742 -2.25755 0
M  V30 790 H 71.4579 -1.05684 -1.15155 0
M  V30 791 H 72.1929 0.412241 -3.21669 0
M  V30 792 H 71.9779 -1.2948 -3.70105 0
M  V30 793 H 73.4679 -0.414985 -4.15533 0
M  V30 794 N 73.905 1.17692 -1.04816 0
M  V30 795 C 74.868 2.19787 -0.650117 0
M  V30 796 C 75.868 1.58044 0.296427 0
M  V30 797 O 77.058 1.74012 0.0808097 0
M  V30 798 C 74.19 3.40869 0.0456987 0
M  V30 799 H 75.383 2.56516 -1.5537 0
M  V30 800 H 72.936 1.31708 -0.841594 0
M  V30 801 H 73.671 3.09681 0.962726 0
M  V30 802 H 73.456 3.86928 -0.634727 0
M  V30 803 H 74.946 4.16445 0.310432 0
M  V30 804 N 75.3831 0.828654 1.34056 0
M  V30 805 C 76.6231 0.425394 1.99924 0
M  V30 806 C 76.9871 -0.994294 1.64249 0
M  V30 807 O 78.1881 -1.50074 2.23005 0
M  V30 808 C 76.4591 0.628071 3.51838 0
M  V30 809 S 78.0181 0.318511 4.37642 0
M  V30 810 H 74.8361 0.160465 0.692656 0
M  V30 811 H 77.4381 1.07572 1.63244 0
M  V30 812 H 76.1421 1.66089 3.7529 0
M  V30 813 H 75.6731 -0.0367799 3.93383 0
M  V30 814 H 77.6881 -0.865632 4.88591 0
M  V30 815 N 76.8612 -1.46375 0.584142 0
M  V30 816 C 78.0912 -2.06461 0.0758195 0
M  V30 817 C 78.4992 -1.43322 -1.23512 0
M  V30 818 O 77.8422 -0.533216 -1.75791 0
M  V30 819 C 77.9042 -3.59131 -0.162773 0
M  V30 820 C 77.5682 -4.4447 1.06279 0
M  V30 821 C 78.5652 -4.80918 1.97519 0
M  V30 822 C 76.2502 -4.85584 1.28504 0
M  V30 823 C 78.2442 -5.57309 3.09331 0
M  V30 824 C 75.9312 -5.61734 2.4062 0
M  V30 825 C 76.9292 -5.9751 3.30863 0
M  V30 826 O 76.6172 -6.72121 4.41032 0
M  V30 827 H 76.3492 -0.673745 0.0551725 0
M  V30 828 H 78.9032 -1.88969 0.804984 0
M  V30 829 H 77.1332 -3.74936 -0.946565 0
M  V30 830 H 78.8222 -4.0114 -0.619782 0
M  V30 831 H 79.5882 -4.49732 1.81565 0
M  V30 832 H 75.4672 -4.57187 0.591702 0
M  V30 833 H 79.0112 -5.85152 3.79793 0
M  V30 834 H 74.9082 -5.92334 2.56537 0
M  V30 835 H 75.6762 -6.90547 4.39417 0
M  V30 836 N 78.3393 -0.321999 -1.54275 0
M  V30 837 C 79.2493 0.553631 -2.27974 0
M  V30 838 C 80.2653 1.13054 -1.32268 0
M  V30 839 O 81.4413 1.15084 -1.6528 0
M  V30 840 C 78.5063 1.69927 -3.02201 0
M  V30 841 C 77.5673 1.15433 -4.1349 0
M  V30 842 C 76.8003 2.24537 -4.84168 0
M  V30 843 O 77.0233 3.44852 -4.5435 0
M  V30 844 O 75.9573 1.90044 -5.7111 0
M  V30 845 H 79.7833 -0.0448345 -3.03667 0
M  V30 846 H 77.3683 -0.0877418 -1.49142 0
M  V30 847 H 79.2503 2.3663 -3.48689 0
M  V30 848 H 77.9253 2.28395 -2.29385 0
M  V30 849 H 76.8323 0.452436 -3.71354 0
M  V30 850 H 78.1653 0.614805 -4.88345 0
M  V30 851 N 79.8174 1.5752 -0.0501392 0
M  V30 852 C 80.7804 2.1037 0.909786 0
M  V30 853 C 81.7804 1.02308 1.24056 0
M  V30 854 O 82.9704 1.28385 1.17741 0
M  V30 855 C 80.1024 2.58708 2.21998 0
M  V30 856 H 81.2954 2.96479 0.451665 0
M  V30 857 H 78.8484 1.55038 0.198248 0
M  V30 858 H 79.5834 1.75989 2.72394 0
M  V30 859 H 79.3684 3.37675 1.99295 0
M  V30 860 H 80.8584 2.99747 2.9076 0
M  V30 861 N 81.2955 -0.223234 1.56011 0
M  V30 862 C 82.2585 -1.26014 1.9145 0
M  V30 863 C 83.2585 -1.3989 0.792937 0
M  V30 864 O 84.4485 -1.38184 1.0607 0
M  V30 865 C 81.5805 -2.63422 2.16383 0
M  V30 866 H 82.7735 -0.95796 2.84189 0
M  V30 867 H 80.3265 -0.463576 1.49267 0
M  V30 868 H 81.0615 -2.98741 1.2619 0
M  V30 869 H 80.8465 -2.54728 2.98088 0
M  V30 870 H 82.3365 -3.38249 2.44903 0
M  V30 871 N 82.7736 -1.49793 -0.48987 0
M  V30 872 C 83.6836 -1.70036 -1.61632 0
M  V30 873 C 84.6996 -0.583102 -1.63939 0
M  V30 874 O 85.8756 -0.859169 -1.82154 0
M  V30 875 C 82.9406 -1.77277 -2.97949 0
M  V30 876 C 82.0016 -3.00918 -3.06181 0
M  V30 877 C 81.2346 -3.07804 -4.35996 0
M  V30 878 O 81.4576 -2.21982 -5.25433 0
M  V30 879 O 80.3916 -4.00369 -4.49431 0
M  V30 880 H 84.2176 -2.65486 -1.47482 0
M  V30 881 H 81.8026 -1.33666 -0.667362 0
M  V30 882 H 83.6846 -1.84329 -3.78947 0
M  V30 883 H 82.3596 -0.850076 -3.12339 0
M  V30 884 H 81.2666 -2.99377 -2.2433 0
M  V30 885 H 82.5996 -3.92704 -2.96723 0
M  V30 886 N 84.2517 0.741722 -1.39055 0
M  V30 887 C 85.1817 1.869 -1.39966 0
M  V30 888 C 86.1627 1.6804 -0.26392 0
M  V30 889 O 87.3477 1.88458 -0.468755 0
M  V30 890 C 84.4777 3.24572 -1.23574 0
M  V30 891 C 83.4317 3.58056 -2.34477 0
M  V30 892 C 82.7577 4.94593 -2.0318 0
M  V30 893 C 84.0577 3.61716 -3.76774 0
M  V30 894 H 85.7517 1.86395 -2.34302 0
M  V30 895 H 83.2977 0.895361 -1.1278 0
M  V30 896 H 85.2507 4.031 -1.22834 0
M  V30 897 H 83.9747 3.25587 -0.257045 0
M  V30 898 H 82.6337 2.81854 -2.34423 0
M  V30 899 H 82.2817 4.92181 -1.03765 0
M  V30 900 H 81.9817 5.17964 -2.77465 0
M  V30 901 H 83.5057 5.75486 -2.04079 0
M  V30 902 H 84.9197 4.30335 -3.78794 0
M  V30 903 H 83.3167 3.96603 -4.50362 0
M  V30 904 H 84.3867 2.61672 -4.08235 0
M  V30 905 N 85.7298 1.2412 0.971189 0
M  V30 906 C 86.9778 1.07668 1.71032 0
M  V30 907 C 87.2988 -0.385797 1.91146 0
M  V30 908 O 86.5688 -1.27569 1.4867 0
M  V30 909 H 85.1488 0.395429 0.633755 0
M  V30 910 H 87.8108 1.55984 1.16855 0
M  V30 911 H 86.9068 1.57195 2.69622 0
M  V30 912 N 87.2079 -1.17134 1.05439 0
M  V30 913 C 88.4539 -1.87979 0.776872 0
M  V30 914 C 88.8089 -1.7965 -0.688751 0
M  V30 915 O 88.1019 -1.19535 -1.4974 0
M  V30 916 C 88.2959 -3.36833 1.19491 0
M  V30 917 C 88.1249 -3.59653 2.69963 0
M  V30 918 C 86.8949 -3.76234 3.37307 0
M  V30 919 C 89.0929 -3.59091 3.68182 0
M  V30 920 N 87.0749 -3.86922 4.76618 0
M  V30 921 C 88.4459 -3.75659 4.93235 0
M  V30 922 C 90.5009 -3.42255 3.61616 0
M  V30 923 C 89.2039 -3.77133 6.12506 0
M  V30 924 C 91.2299 -3.45018 4.8033 0
M  V30 925 C 90.5919 -3.62096 6.04207 0
M  V30 926 H 86.6909 -0.705876 0.336546 0
M  V30 927 H 89.2749 -1.40602 1.34682 0
M  V30 928 H 87.4459 -3.82873 0.652884 0
M  V30 929 H 89.1779 -3.95305 0.866966 0
M  V30 930 H 85.9329 -3.76193 2.87708 0
M  V30 931 H 86.3569 -3.96055 5.49062 0
M  V30 932 H 90.9989 -3.27986 2.66805 0
M  V30 933 H 88.7169 -3.90186 7.07659 0
M  V30 934 H 92.3029 -3.33246 4.76905 0
M  V30 935 H 91.1829 -3.64142 6.94529 0
M  V30 936 N 88.686 -0.835752 -1.33615 0
M  V30 937 C 90.097 -0.487099 -1.80234 0
M  V30 938 C 90.448 0.993627 -1.69179 0
M  V30 939 O 89.573 1.77403 -1.23924 0
M  V30 940 C 90.168 -0.877385 -3.27242 0
M  V30 941 C 88.727 -0.580915 -3.7189 0
M  V30 942 C 87.874 -1.0874 -2.5509 0
M  V30 943 H 90.825 -1.02474 -1.2118 0
M  V30 944 H 90.846 -0.186195 -3.80044 0
M  V30 945 H 90.358 -1.95512 -3.35256 0
M  V30 946 H 88.459 0.486881 -3.69405 0
M  V30 947 H 88.572 -1.13396 -4.65487 0
M  V30 948 H 86.936 -0.508392 -2.49575 0
M  V30 949 H 87.719 -2.17184 -2.65868 0
M  V30 950 N 90.1641 1.46063 -0.591896 0
M  V30 951 C 91.1271 2.28854 0.125973 0
M  V30 952 C 92.1271 1.38903 0.810107 0
M  V30 953 O 93.3171 1.61186 0.66066 0
M  V30 954 C 90.4491 3.19526 1.1881 0
M  V30 955 H 91.6421 2.93802 -0.601717 0
M  V30 956 H 89.1951 1.52325 -0.350254 0
M  V30 957 H 89.9301 2.59345 1.94707 0
M  V30 958 H 89.7151 3.85766 0.701936 0
M  V30 959 H 91.2051 3.81817 1.69132 0
M  V30 960 N 91.6422 0.330177 1.54103 0
M  V30 961 C 93.0532 -0.15652 1.86043 0
M  V30 962 C 93.4042 -1.51086 1.2517 0
M  V30 963 O 92.5292 -2.09023 0.560217 0
M  V30 964 C 93.1242 -0.290784 3.3755 0
M  V30 965 C 91.6832 -0.721705 3.69416 0
M  V30 966 C 90.8302 0.152622 2.7688 0
M  V30 967 H 93.7812 0.550237 1.48856 0
M  V30 968 H 93.8022 -1.12058 3.63625 0
M  V30 969 H 93.3142 0.695068 3.81825 0
M  V30 970 H 91.4152 -1.71706 3.30678 0
M  V30 971 H 91.5282 -0.520869 4.7626 0
M  V30 972 H 89.8922 -0.372894 2.51956 0
M  V30 973 H 90.6752 1.13536 3.23982 0
M  V30 974 N 93.1203 -1.57491 0.0584922 0
M  V30 975 C 94.3663 -1.93264 -0.614558 0
M  V30 976 C 94.6993 -0.937717 -1.7006 0
M  V30 977 O 93.9743 0.0351652 -1.94468 0
M  V30 978 C 94.2573 -3.3938 -1.20386 0
M  V30 979 C 94.1103 -4.49625 -0.125375 0
M  V30 980 C 95.4293 -3.86039 -2.11334 0
M  V30 981 H 92.5483 -0.702791 -0.221933 0
M  V30 982 H 95.1903 -1.8961 0.12175 0
M  V30 983 H 93.3403 -3.42626 -1.83139 0
M  V30 984 H 95.0123 -4.58506 0.506971 0
M  V30 985 H 93.2553 -4.30354 0.545672 0
M  V30 986 H 93.9263 -5.48967 -0.577861 0
M  V30 987 H 96.4023 -3.84716 -1.58534 0
M  V30 988 H 95.2783 -4.88914 -2.49507 0
M  V30 989 H 95.5393 -3.23215 -3.01636 0
M  V30 990 N 94.5984 0.214957 -1.56127 0
M  V30 991 C 96.0144 0.564948 -1.49267 0
M  V30 992 C 96.2144 1.86827 -0.754838 0
M  V30 993 O 95.2704 2.50745 -0.297198 0
M  V30 994 C 96.5834 0.638071 -2.93852 0
M  V30 995 C 98.1314 0.728253 -3.0441 0
M  V30 996 C 98.6064 0.832663 -4.50367 0
M  V30 997 N 100.097 0.896712 -4.54437 0
M  V30 998 C 100.832 0.997324 -5.6466 0
M  V30 999 N 100.328 1.06147 -6.8462 0
M  V30 1000 N 102.121 1.03297 -5.52527 0
M  V30 1001 H 94.2724 -0.640211 -2.02522 0
M  V30 1002 H 96.5354 -0.225507 -0.920788 0
M  V30 1003 H 96.2414 -0.250126 -3.50809 0
M  V30 1004 H 96.1154 1.49947 -3.46115 0
M  V30 1005 H 98.5024 1.60689 -2.47514 0
M  V30 1006 H 98.5834 -0.158952 -2.55306 0
M  V30 1007 H 98.2274 -0.0415417 -5.07883 0
M  V30 1008 H 98.1574 1.73538 -4.97184 0
M  V30 1009 H 100.648 0.857188 -3.6805 0
M  V30 1010 H 100.961 1.1382 -7.64372 0
M  V30 1011 H 99.3064 1.03049 -6.87318 0
M  V30 1012 H 102.497 0.979558 -4.57736 0
M  V30 1013 H 102.67 1.10793 -6.38458 0
M  V30 1014 N 96.0765 1.50051 0.48192 0
M  V30 1015 C 97.3535 1.51009 1.2432 0
M  V30 1016 C 97.7335 0.248587 2.09631 0
M  V30 1017 O 97.0815 -0.768409 2.15192 0
M  V30 1018 C 97.2915 2.79981 2.08355 0
M  V30 1019 C 98.6395 3.3022 2.66908 0
M  V30 1020 O 99.6635 2.81228 2.18607 0
M  V30 1021 O 98.5225 4.15595 3.54884 0
M  V30 1022 H 95.6165 0.605239 0.563573 0
M  V30 1023 H 98.1625 1.62332 0.494627 0
M  V30 1024 H 96.9345 3.63275 1.45419 0
M  V30 1025 H 96.5575 2.7161 2.90368 0
M  V30 1026 N 97.5546 -0.734337 1.39446 0
M  V30 1027 C 98.7826 -1.52358 1.39981 0
M  V30 1028 C 99.1976 -1.88799 -0.0054975 0
M  V30 1029 O 98.5546 -1.54146 -0.976998 0
M  V30 1030 C 98.6056 -2.81072 2.27333 0
M  V30 1031 O 98.3266 -2.46178 3.62392 0
M  V30 1032 C 99.8276 -3.75096 2.36259 0
M  V30 1033 H 97.0476 -0.470806 0.478103 0
M  V30 1034 H 99.5916 -0.907339 1.83269 0
M  V30 1035 H 97.7466 -3.39026 1.87457 0
M  V30 1036 H 98.1606 -3.28866 4.08592 0
M  V30 1037 H 99.6346 -4.62305 3.01626 0
M  V30 1038 H 100.112 -4.16892 1.38194 0
M  V30 1039 H 100.718 -3.23061 2.76608 0
M  V30 1040 N 99.0327 -1.24633 -0.964593 0
M  V30 1041 C 100.279 -1.08949 -1.71049 0
M  V30 1042 C 100.612 0.370302 -1.90637 0
M  V30 1043 O 99.8867 1.27349 -1.47011 0
M  V30 1044 C 100.17 -1.83329 -3.0994 0
M  V30 1045 C 100.023 -3.37077 -2.97824 0
M  V30 1046 C 101.342 -1.60846 -4.09654 0
M  V30 1047 H 98.4607 -0.397178 -0.620821 0
M  V30 1048 H 101.103 -1.5334 -1.12191 0
M  V30 1049 H 99.2527 -1.45597 -3.60186 0
M  V30 1050 H 100.925 -3.84425 -2.5498 0
M  V30 1051 H 99.1677 -3.65298 -2.33965 0
M  V30 1052 H 99.8387 -3.84324 -3.96231 0
M  V30 1053 H 102.315 -1.93674 -3.68279 0
M  V30 1054 H 101.191 -2.1534 -5.04896 0
M  V30 1055 H 101.452 -0.547434 -4.38698 0
M  V30 1056 N 100.511 1.16574 -1.06058 0
M  V30 1057 C 101.922 1.68662 -0.800632 0
M  V30 1058 C 102.273 1.84184 0.67608 0
M  V30 1059 O 101.398 1.53568 1.52466 0
M  V30 1060 C 101.993 3.06356 -1.44676 0
M  V30 1061 C 100.552 3.55575 -1.23465 0
M  V30 1062 C 99.6988 2.31616 -1.52477 0
M  V30 1063 H 102.65 1.00969 -1.22438 0
M  V30 1064 H 102.671 3.70636 -0.860788 0
M  V30 1065 H 102.183 2.95027 -2.52152 0
M  V30 1066 H 100.284 3.72167 -0.179527 0
M  V30 1067 H 100.397 4.37812 -1.94571 0
M  V30 1068 H 98.7608 2.36512 -0.945209 0
M  V30 1069 H 99.5438 2.22887 -2.61106 0
M  V30 1070 N 101.989 0.842826 1.3317 0
M  V30 1071 C 103.235 0.441099 1.97945 0
M  V30 1072 C 103.568 -0.998024 1.66593 0
M  V30 1073 O 102.843 -1.69839 0.947898 0
M  V30 1074 C 103.126 0.666841 3.53872 0
M  V30 1075 C 102.979 2.15352 3.94897 0
M  V30 1076 C 104.298 0.115544 4.39948 0
M  V30 1077 H 101.417 0.161739 0.719034 0
M  V30 1078 H 104.059 1.05907 1.57746 0
M  V30 1079 H 102.209 0.140828 3.88245 0
M  V30 1080 H 103.881 2.7447 3.70761 0
M  V30 1081 H 102.124 2.63653 3.44484 0
M  V30 1082 H 102.795 2.26221 5.03516 0
M  V30 1083 H 105.271 0.565213 4.12243 0
M  V30 1084 H 104.147 0.303152 5.48062 0
M  V30 1085 H 104.408 -0.980935 4.3108 0
M  V30 1086 N 103.467 -1.45747 0.599634 0
M  V30 1087 C 104.415 -2.322 -0.136426 0
M  V30 1088 C 105.409 -1.45497 -0.867583 0
M  V30 1089 O 106.615 -1.62027 -0.78405 0
M  V30 1090 H 102.99 -0.749368 -0.0628588 0
M  V30 1091 H 104.961 -2.92072 0.611281 0
M  V30 1092 C 103.71 -3.28974 -1.12567 0
M  V30 1093 H 103.033 -3.9568 -0.572484 0
M  V30 1094 H 104.473 -3.92212 -1.61077 0
M  V30 1095 C 102.932 -2.55561 -2.19523 0
M  V30 1096 O 103.462 -2.33111 -3.27143 0
M  V30 1097 N 101.668 -2.15832 -1.94589 0
M  V30 1098 H 101.215 -2.3429 -1.07078 0
M  V30 1099 H 101.173 -1.67034 -2.66359 0
M  V30 1100 N 104.945 -0.338344 -1.53925 0
M  V30 1101 C 105.908 0.508299 -2.23493 0
M  V30 1102 C 106.908 1.03175 -1.23335 0
M  V30 1103 O 108.098 0.921826 -1.47811 0
M  V30 1104 C 105.23 1.70754 -2.95052 0
M  V30 1105 H 106.423 -0.100058 -2.99733 0
M  V30 1106 H 103.976 -0.0896198 -1.56043 0
M  V30 1107 H 104.711 2.35474 -2.22986 0
M  V30 1108 H 104.496 1.33946 -3.68512 0
M  V30 1109 H 105.986 2.30818 -3.48013 0
M  V30 1110 N 106.423 1.57458 -0.0668435 0
M  V30 1111 C 107.651 1.97624 0.612565 0
M  V30 1112 C 108.066 0.94502 1.63447 0
M  V30 1113 O 107.423 -0.0689276 1.8237 0
M  V30 1114 C 107.474 3.37869 1.28555 0
M  V30 1115 O 107.195 4.3704 0.304557 0
M  V30 1116 C 108.696 3.92882 2.05325 0
M  V30 1117 H 105.916 0.650045 0.166381 0
M  V30 1118 H 108.46 2.04035 -0.137782 0
M  V30 1119 H 106.615 3.3256 1.98702 0
M  V30 1120 H 107.029 5.18565 0.786779 0
M  V30 1121 H 108.503 4.93247 2.47812 0
M  V30 1122 H 108.98 3.29156 2.9078 0
M  V30 1123 H 109.586 4.01577 1.40056 0
M  V30 1124 N 107.901 -0.206675 1.56239 0
M  V30 1125 C 109.147 -0.930218 1.80208 0
M  V30 1126 C 109.48 -1.83387 0.638981 0
M  V30 1127 O 108.755 -1.91119 -0.361066 0
M  V30 1128 C 109.038 -1.75641 3.1436 0
M  V30 1129 C 108.891 -0.878257 4.41142 0
M  V30 1130 C 110.21 -2.73129 3.45092 0
M  V30 1131 H 107.329 -0.336742 0.655571 0
M  V30 1132 H 109.971 -0.198222 1.88963 0
M  V30 1133 H 108.121 -2.38048 3.07027 0
M  V30 1134 H 109.793 -0.269787 4.6051 0
M  V30 1135 H 108.036 -0.184385 4.33408 0
M  V30 1136 H 108.707 -1.49106 5.3148 0
M  V30 1137 H 111.183 -2.20856 3.52649 0
M  V30 1138 H 110.059 -3.28028 4.40101 0
M  V30 1139 H 110.32 -3.51606 2.68003 0
M  V30 1140 N 109.379 -1.50304 -0.473955 0
M  V30 1141 C 110.79 -1.54042 -1.0549 0
M  V30 1142 C 111.141 -0.342248 -1.93192 0
M  V30 1143 O 110.266 0.545157 -2.09421 0
M  V30 1144 C 110.861 -2.79152 -1.91989 0
M  V30 1145 C 109.42 -2.8558 -2.45196 0
M  V30 1146 C 108.567 -2.48295 -1.2347 0
M  V30 1147 H 111.518 -1.5661 -0.256693 0
M  V30 1148 H 111.539 -2.60845 -2.7702 0
M  V30 1149 H 111.051 -3.66339 -1.28131 0
M  V30 1150 H 109.152 -2.02738 -3.12615 0
M  V30 1151 H 109.265 -3.88403 -2.80499 0
M  V30 1152 H 107.629 -2.00669 -1.56856 0
M  V30 1153 H 108.412 -3.37787 -0.612789 0
M  V30 1154 N 110.857 0.726932 -1.39834 0
M  V30 1155 C 111.82 1.82269 -1.38962 0
M  V30 1156 C 112.82 1.58248 -0.285334 0
M  V30 1157 O 114.01 1.65499 -0.54366 0
M  V30 1158 C 111.142 3.20186 -1.17019 0
M  V30 1159 H 112.335 1.84443 -2.36476 0
M  V30 1160 H 109.888 0.931416 -1.25516 0
M  V30 1161 H 110.623 3.23669 -0.202204 0
M  V30 1162 H 110.408 3.3902 -1.96998 0
M  V30 1163 H 111.898 4.00235 -1.1917 0
M  V30 1164 N 112.336 1.25143 0.95797 0
M  V30 1165 C 113.582 1.09855 1.70469 0
M  V30 1166 C 113.915 -0.360187 1.90831 0
M  V30 1167 O 113.19 -1.26568 1.47685 0
M  V30 1168 C 113.473 1.8497 3.08963 0
M  V30 1169 C 113.326 3.38652 2.96032 0
M  V30 1170 C 114.645 1.63016 4.08795 0
M  V30 1171 H 111.764 0.400465 0.618706 0
M  V30 1172 H 114.406 1.53933 1.11376 0
M  V30 1173 H 112.556 1.47505 3.59409 0
M  V30 1174 H 114.228 3.85772 2.52938 0
M  V30 1175 H 112.471 3.66534 2.32025 0
M  V30 1176 H 113.142 3.8642 3.94187 0
M  V30 1177 H 115.618 1.95625 3.67247 0
M  V30 1178 H 114.494 2.18015 5.03747 0
M  V30 1179 H 114.755 0.570692 4.38401 0
M  V30 1180 N 113.814 -1.1601 1.06675 0
M  V30 1181 C 115.062 -1.86264 0.784229 0
M  V30 1182 C 115.383 -1.82328 -0.691488 0
M  V30 1183 O 114.653 -1.25947 -1.50047 0
M  V30 1184 H 113.233 -0.689621 0.28711 0
M  V30 1185 H 115.895 -1.40664 1.34906 0
M  V30 1186 H 114.991 -2.91595 1.11259 0
M  V30 1187 N 115.292 -0.849877 -1.32721 0
M  V30 1188 C 116.703 -0.506188 -1.79707 0
M  V30 1189 C 117.054 0.975627 -1.70223 0
M  V30 1190 O 116.179 1.76078 -1.25799 0
M  V30 1191 C 116.774 -0.912044 -3.26293 0
M  V30 1192 C 115.333 -0.620326 -3.71253 0
M  V30 1193 C 114.48 -1.11439 -2.53922 0
M  V30 1194 H 117.431 -1.03754 -1.20087 0
M  V30 1195 H 117.452 -0.226493 -3.79825 0
M  V30 1196 H 116.964 -1.99057 -3.33164 0
M  V30 1197 H 115.065 0.447674 -3.69901 0
M  V30 1198 H 115.178 -1.18327 -4.64258 0
M  V30 1199 H 113.542 -0.534834 -2.49021 0
M  V30 1200 H 114.325 -2.19992 -2.6355 0
M  V30 1201 N 116.77 1.45427 -0.607355 0
M  V30 1202 C 117.68 2.34325 0.113463 0
M  V30 1203 C 118.696 1.51226 0.860617 0
M  V30 1204 O 119.872 1.84029 0.818255 0
M  V30 1205 C 116.937 3.28839 1.09844 0
M  V30 1206 C 115.998 4.27844 0.353271 0
M  V30 1207 C 115.231 5.17842 1.29133 0
M  V30 1208 O 115.454 5.11264 2.52913 0
M  V30 1209 O 114.388 5.96713 0.788523 0
M  V30 1210 H 118.214 2.97364 -0.617094 0
M  V30 1211 H 115.799 1.44807 -0.367619 0
M  V30 1212 H 117.681 3.8708 1.66575 0
M  V30 1213 H 116.356 2.68365 1.81003 0
M  V30 1214 H 115.263 3.7322 -0.256494 0
M  V30 1215 H 116.596 4.91173 -0.317822 0
M  V30 1216 N 118.248 0.346503 1.53744 0
M  V30 1217 C 119.158 -0.517293 2.28826 0
M  V30 1218 C 120.174 -1.10935 1.3405 0
M  V30 1219 O 121.35 -1.1244 1.6709 0
M  V30 1220 C 118.415 -1.65098 3.04866 0
M  V30 1221 C 117.476 -1.0884 4.15274 0
M  V30 1222 C 116.709 -2.16806 4.87679 0
M  V30 1223 O 116.932 -3.3758 4.59778 0
M  V30 1224 O 115.866 -1.80934 5.74061 0
M  V30 1225 H 119.692 0.0931396 3.03557 0
M  V30 1226 H 117.277 0.111458 1.48984 0
M  V30 1227 H 119.159 -2.31053 3.5241 0
M  V30 1228 H 117.834 -2.24717 2.32989 0
M  V30 1229 H 116.741 -0.3933 3.72027 0
M  V30 1230 H 118.074 -0.537036 4.89261 0
M  V30 1231 N 119.726 -1.57421 0.075193 0
M  V30 1232 C 120.689 -2.11791 -0.876203 0
M  V30 1233 C 121.689 -1.04268 -1.22412 0
M  V30 1234 O 122.879 -1.30242 -1.15684 0
M  V30 1235 C 120.011 -2.62207 -2.17854 0
M  V30 1236 H 121.204 -2.9716 -0.40444 0
M  V30 1237 H 118.757 -1.55333 -0.173557 0
M  V30 1238 H 119.492 -1.803 -2.6956 0
M  V30 1239 H 119.277 -3.40802 -1.93897 0
M  V30 1240 H 120.767 -3.04335 -2.85955 0
M  V30 1241 N 121.204 0.198386 -1.56346 0
M  V30 1242 C 122.167 1.22952 -1.93431 0
M  V30 1243 C 123.167 1.38611 -0.815092 0
M  V30 1244 O 124.357 1.36479 -1.08255 0
M  V30 1245 C 121.489 2.59946 -2.20546 0
M  V30 1246 H 122.682 0.912626 -2.85677 0
M  V30 1247 H 120.235 0.43977 -1.49986 0
M  V30 1248 H 120.97 2.96696 -1.30927 0
M  V30 1249 H 120.755 2.49953 -3.02102 0
M  V30 1250 H 122.245 3.3431 -2.50253 0
M  V30 1251 N 122.682 1.50554 0.465978 0
M  V30 1252 C 124.098 1.38093 0.800154 0
M  V30 1253 C 124.298 0.440988 1.96615 0
M  V30 1254 O 123.354 -0.114499 2.5224 0
M  V30 1255 C 124.667 2.79565 1.10742 0
M  V30 1256 C 126.215 2.88516 1.21357 0
M  V30 1257 C 126.69 4.30833 1.55393 0
M  V30 1258 N 128.181 4.33807 1.62375 0
M  V30 1259 C 128.916 5.40927 1.90225 0
M  V30 1260 N 128.412 6.58247 2.16062 0
M  V30 1261 N 130.205 5.28376 1.9177 0
M  V30 1262 H 122.356 2.10237 -0.302366 0
M  V30 1263 H 124.619 0.945203 -0.0727746 0
M  V30 1264 H 124.325 3.50208 0.323661 0
M  V30 1265 H 124.199 3.17125 2.04234 0
M  V30 1266 H 126.586 2.1809 1.98799 0
M  V30 1267 H 126.667 2.54492 0.258321 0
M  V30 1268 H 126.311 5.01799 0.784889 0
M  V30 1269 H 126.241 4.62347 2.52076 0
M  V30 1270 H 128.732 3.49212 1.44427 0
M  V30 1271 H 129.045 7.3569 2.36601 0
M  V30 1272 H 127.39 6.61413 2.13444 0
M  V30 1273 H 130.581 4.35715 1.71085 0
M  V30 1274 H 130.754 6.11944 2.13139 0
M  V30 1275 N 124.16 -0.719506 1.40217 0
M  V30 1276 C 125.409 -1.47486 1.37589 0
M  V30 1277 C 125.722 -1.9559 -0.0201568 0
M  V30 1278 O 126.928 -2.70973 -0.169049 0
M  V30 1279 C 125.384 -2.66575 2.41796 0
M  V30 1280 C 124.992 -2.25358 3.87192 0
M  V30 1281 C 126.736 -3.4433 2.48269 0
M  V30 1282 C 124.643 -3.41262 4.83005 0
M  V30 1283 H 123.573 -0.553901 0.511576 0
M  V30 1284 H 126.224 -0.783427 1.65936 0
M  V30 1285 H 124.606 -3.3787 2.06543 0
M  V30 1286 H 125.78 -1.61509 4.31569 0
M  V30 1287 H 124.095 -1.60657 3.84159 0
M  V30 1288 H 126.692 -4.30569 3.17041 0
M  V30 1289 H 127.035 -3.87872 1.51198 0
M  V30 1290 H 127.568 -2.80076 2.82493 0
M  V30 1291 H 124.307 -3.02755 5.81394 0
M  V30 1292 H 123.827 -4.0404 4.43297 0
M  V30 1293 H 125.506 -4.07383 5.02641 0
M  V30 1294 N 125.638 -1.25649 -0.95132 0
M  V30 1295 C 126.884 -1.10757 -1.69884 0
M  V30 1296 C 127.217 0.350061 -1.91019 0
M  V30 1297 O 126.492 1.25783 -1.48354 0
M  V30 1298 C 126.775 -1.86606 -3.07978 0
M  V30 1299 C 126.628 -3.40217 -2.94232 0
M  V30 1300 C 127.947 -1.65182 -4.07925 0
M  V30 1301 H 125.066 -0.40374 -0.616574 0
M  V30 1302 H 127.708 -1.54521 -1.10558 0
M  V30 1303 H 125.858 -1.49409 -3.58621 0
M  V30 1304 H 127.53 -3.87108 -2.50889 0
M  V30 1305 H 125.773 -3.67759 -2.30078 0
M  V30 1306 H 126.444 -3.88505 -3.92133 0
M  V30 1307 H 128.92 -1.9757 -3.66204 0
M  V30 1308 H 127.796 -2.20683 -5.02583 0
M  V30 1309 H 128.057 -0.593933 -4.38092 0
M  V30 1310 N 127.117 1.15442 -1.07289 0
M  V30 1311 C 128.08 2.18358 -0.696591 0
M  V30 1312 C 129.08 1.58637 0.262837 0
M  V30 1313 O 130.27 1.74145 0.0438809 0
M  V30 1314 C 127.402 3.4089 -0.0266151 0
M  V30 1315 H 128.595 2.53162 -1.60776 0
M  V30 1316 H 126.148 1.29893 -0.869342 0
M  V30 1317 H 126.883 3.11653 0.896822 0
M  V30 1318 H 126.668 3.85495 -0.716657 0
M  V30 1319 H 128.158 4.17009 0.222028 0
M  V30 1320 N 128.595 0.856903 1.32268 0
M  V30 1321 C 129.82 0.474569 2.01897 0
M  V30 1322 C 130.245 -0.921766 1.63967 0
M  V30 1323 O 129.603 -1.60589 0.84148 0
M  V30 1324 C 129.651 0.623799 3.55164 0
M  V30 1325 O 128.755 -0.342459 4.10976 0
M  V30 1326 H 128.096 0.190422 0.63611 0
M  V30 1327 H 130.626 1.15672 1.68764 0
M  V30 1328 H 130.636 0.512169 4.04773 0
M  V30 1329 H 129.311 1.64202 3.82113 0
M  V30 1330 H 127.888 -0.18688 3.72431 0
M  V30 1331 N 130.073 -1.45103 0.615059 0
M  V30 1332 C 131.298 -2.07064 0.117988 0
M  V30 1333 C 131.723 -1.4554 -1.19163 0
M  V30 1334 O 131.081 -0.550855 -1.72729 0
M  V30 1335 C 131.129 -3.606 -0.000288387 0
M  V30 1336 O 130.233 -3.98847 -1.04856 0
M  V30 1337 H 129.574 -0.659467 0.0774581 0
M  V30 1338 H 132.104 -1.86236 0.847186 0
M  V30 1339 H 132.114 -4.07529 -0.196091 0
M  V30 1340 H 130.789 -4.04765 0.955932 0
M  V30 1341 H 129.366 -3.63577 -0.828619 0
M  V30 1342 N 131.551 -0.354651 -1.53558 0
M  V30 1343 C 132.799 0.237972 -2.00694 0
M  V30 1344 C 133.12 1.50173 -1.24391 0
M  V30 1345 O 132.39 1.92673 -0.354135 0
M  V30 1346 H 130.97 0.0909256 -0.741446 0
M  V30 1347 H 133.632 -0.478368 -1.88938 0
M  V30 1348 H 132.728 0.47264 -3.085 0
M  V30 1349 N 133.029 1.57378 -0.0835403 0
M  V30 1350 C 134.269 1.95808 0.586381 0
M  V30 1351 C 134.633 0.963706 1.66062 0
M  V30 1352 O 135.834 1.23608 2.38693 0
M  V30 1353 C 134.105 3.38808 1.13771 0
M  V30 1354 S 135.664 3.99225 1.82112 0
M  V30 1355 H 132.482 0.684675 0.191679 0
M  V30 1356 H 135.084 1.94843 -0.160194 0
M  V30 1357 H 133.788 4.08954 0.344197 0
M  V30 1358 H 133.319 3.43344 1.92038 0
M  V30 1359 H 135.334 3.87087 3.10449 0
M  V30 1360 N 134.507 -0.190092 1.56449 0
M  V30 1361 C 135.735 -0.925772 1.85033 0
M  V30 1362 C 136.15 -1.76638 0.666658 0
M  V30 1363 O 135.507 -1.78822 -0.364565 0
M  V30 1364 C 135.558 -1.81786 3.12468 0
M  V30 1365 O 135.279 -1.01118 4.26271 0
M  V30 1366 C 136.78 -2.6648 3.54265 0
M  V30 1367 H 134 -0.269872 0.614337 0
M  V30 1368 H 136.544 -0.195837 2.0356 0
M  V30 1369 H 134.699 -2.50136 2.95822 0
M  V30 1370 H 135.113 -1.61956 4.98869 0
M  V30 1371 H 136.587 -3.24722 4.46385 0
M  V30 1372 H 137.064 -3.40434 2.77491 0
M  V30 1373 H 137.67 -2.03493 3.73458 0
M  V30 1374 N 135.985 -1.50799 -0.457987 0
M  V30 1375 C 137.213 -1.66218 -1.23203 0
M  V30 1376 C 137.628 -0.350894 -1.85511 0
M  V30 1377 O 136.985 0.668546 -1.69814 0
M  V30 1378 C 137.036 -2.76291 -2.33121 0
M  V30 1379 O 136.757 -4.02338 -1.73366 0
M  V30 1380 C 138.258 -3.028 -3.2377 0
M  V30 1381 H 135.478 -0.558361 -0.372121 0
M  V30 1382 H 138.022 -1.97099 -0.545179 0
M  V30 1383 H 136.177 -2.48068 -2.97558 0
M  V30 1384 H 136.591 -4.63312 -2.4585 0
M  V30 1385 H 138.065 -3.8345 -3.97077 0
M  V30 1386 H 138.542 -2.14385 -3.83322 0
M  V30 1387 H 139.148 -3.32604 -2.65056 0
M  V30 1388 N 137.463 0.71206 -1.40597 0
M  V30 1389 C 138.426 1.80785 -1.40888 0
M  V30 1390 C 139.426 1.57937 -0.302103 0
M  V30 1391 O 140.616 1.64913 -0.561182 0
M  V30 1392 C 137.748 3.18927 -1.20409 0
M  V30 1393 H 138.941 1.81924 -2.38419 0
M  V30 1394 H 136.494 0.91805 -1.26497 0
M  V30 1395 H 137.229 3.23436 -0.236522 0
M  V30 1396 H 137.014 3.36911 -2.00582 0
M  V30 1397 H 138.504 3.98949 -1.23408 0
M  V30 1398 N 138.941 1.26152 0.944643 0
M  V30 1399 C 139.888 1.07408 2.04285 0
M  V30 1400 C 140.858 -0.0198413 1.66088 0
M  V30 1401 O 142.043 0.139264 1.90291 0
M  V30 1402 C 139.183 0.70945 3.37729 0
M  V30 1403 C 138.296 1.87926 3.88983 0
M  V30 1404 C 137.431 1.45807 5.10797 0
M  V30 1405 C 136.47 2.5964 5.54305 0
M  V30 1406 N 135.607 2.18226 6.67324 0
M  V30 1407 H 140.447 2.01389 2.1965 0
M  V30 1408 H 137.984 1.00275 1.07626 0
M  V30 1409 H 139.942 0.478948 4.14442 0
M  V30 1410 H 138.572 -0.193389 3.2222 0
M  V30 1411 H 137.624 2.22279 3.08701 0
M  V30 1412 H 138.936 2.73377 4.17213 0
M  V30 1413 H 138.09 1.18781 5.94959 0
M  V30 1414 H 136.829 0.574414 4.84305 0
M  V30 1415 H 135.834 2.87399 4.68702 0
M  V30 1416 H 137.059 3.48599 5.828 0
M  V30 1417 H 135.005 1.3229 6.42523 0
M  V30 1418 H 134.922 2.97221 6.95123 0
M  V30 1419 H 136.19 1.94403 7.54869 0
M  V30 1420 N 140.419 -1.14872 1.07899 0
M  V30 1421 C 141.665 -1.86064 0.806725 0
M  V30 1422 C 141.998 -1.82434 -0.665706 0
M  V30 1423 O 141.273 -1.25138 -1.48899 0
M  V30 1424 C 141.556 -3.34929 1.32267 0
M  V30 1425 C 141.409 -3.47161 2.86006 0
M  V30 1426 C 142.728 -4.29863 0.943717 0
M  V30 1427 H 139.847 -0.675591 0.294526 0
M  V30 1428 H 142.489 -1.34925 1.33773 0
M  V30 1429 H 140.639 -3.78611 0.870974 0
M  V30 1430 H 142.311 -3.12302 3.39507 0
M  V30 1431 H 140.554 -2.88539 3.23925 0
M  V30 1432 H 141.225 -4.51777 3.17177 0
M  V30 1433 H 143.701 -3.9417 1.33302 0
M  V30 1434 H 142.577 -5.32494 1.33198 0
M  V30 1435 H 142.838 -4.41846 -0.149796 0
M  V30 1436 N 141.898 -0.863906 -1.31812 0
M  V30 1437 C 142.845 -0.313303 -2.28664 0
M  V30 1438 C 143.815 0.584868 -1.55462 0
M  V30 1439 O 145 0.517805 -1.83639 0
M  V30 1440 C 142.14 0.48441 -3.41683 0
M  V30 1441 C 141.253 -0.440594 -4.29747 0
M  V30 1442 C 140.388 0.370652 -5.29905 0
M  V30 1443 C 139.427 -0.551164 -6.09613 0
M  V30 1444 N 138.564 0.223462 -7.01744 0
M  V30 1445 H 143.404 -1.14444 -2.75148 0
M  V30 1446 H 140.941 -0.575769 -1.35364 0
M  V30 1447 H 142.899 0.962627 -4.05943 0
M  V30 1448 H 141.529 1.28029 -2.96325 0
M  V30 1449 H 140.581 -1.03724 -3.65986 0
M  V30 1450 H 141.893 -1.14767 -4.85417 0
M  V30 1451 H 141.047 0.911638 -5.99812 0
M  V30 1452 H 139.786 1.11105 -4.74876 0
M  V30 1453 H 138.791 -1.10396 -5.38603 0
M  V30 1454 H 140.016 -1.29032 -6.66729 0
M  V30 1455 H 137.962 0.946787 -6.49132 0
M  V30 1456 H 137.879 -0.424399 -7.54808 0
M  V30 1457 H 139.147 0.745876 -7.75923 0
M  V30 1458 N 143.376 1.44774 -0.622745 0
M  V30 1459 C 144.622 2.0242 -0.124083 0
M  V30 1460 C 144.955 1.4881 1.24777 0
M  V30 1461 O 144.23 0.668799 1.8264 0
M  V30 1462 C 144.513 3.59957 -0.101619 0
M  V30 1463 C 144.366 4.23867 -1.50521 0
M  V30 1464 C 145.685 4.36284 0.578272 0
M  V30 1465 H 142.804 0.735528 -0.0465645 0
M  V30 1466 H 145.446 1.72447 -0.797617 0
M  V30 1467 H 143.596 3.85623 0.471934 0
M  V30 1468 H 145.268 4.09336 -2.12701 0
M  V30 1469 H 143.511 3.81684 -2.06154 0
M  V30 1470 H 144.182 5.32843 -1.4416 0
M  V30 1471 H 146.658 4.16001 0.0906057 0
M  V30 1472 H 145.534 5.46004 0.563149 0
M  V30 1473 H 145.795 4.10271 1.64713 0
M  V30 1474 N 144.854 0.36279 1.53368 0
M  V30 1475 C 145.817 -0.472679 2.24273 0
M  V30 1476 C 146.817 -1.012 1.24961 0
M  V30 1477 O 148.007 -0.898194 1.49259 0
M  V30 1478 C 145.139 -1.66039 2.97731 0
M  V30 1479 H 146.332 0.14773 2.99536 0
M  V30 1480 H 143.885 0.114434 1.55881 0
M  V30 1481 H 144.62 -2.31896 2.26704 0
M  V30 1482 H 144.405 -1.28066 3.70596 0
M  V30 1483 H 145.895 -2.25252 3.51641 0
M  V30 1484 N 146.332 -1.57332 0.0918853 0
M  V30 1485 C 147.242 -2.17368 -0.882505 0
M  V30 1486 C 148.258 -1.14226 -1.31257 0
M  V30 1487 O 149.434 -1.46582 -1.38115 0
M  V30 1488 C 146.499 -2.73962 -2.12476 0
M  V30 1489 C 145.56 -3.92048 -1.7492 0
M  V30 1490 C 144.793 -4.45933 -2.93223 0
M  V30 1491 O 145.016 -3.98764 -4.07852 0
M  V30 1492 O 143.95 -5.36999 -2.71875 0
M  V30 1493 H 147.776 -3.01031 -0.40172 0
M  V30 1494 H 145.361 -1.48813 -0.132291 0
M  V30 1495 H 147.243 -3.10147 -2.85283 0
M  V30 1496 H 145.918 -1.93347 -2.59613 0
M  V30 1497 H 144.825 -3.6068 -0.993025 0
M  V30 1498 H 146.158 -4.74017 -1.32548 0
M  V30 1499 N 147.81 0.181792 -1.56548 0
M  V30 1500 C 149.226 0.53316 -1.50431 0
M  V30 1501 C 149.426 1.85184 -0.794297 0
M  V30 1502 O 148.482 2.50058 -0.350318 0
M  V30 1503 C 149.795 0.575597 -2.9514 0
M  V30 1504 C 151.343 0.663519 -3.05886 0
M  V30 1505 C 151.818 0.736946 -4.52032 0
M  V30 1506 N 153.309 0.800118 -4.56237 0
M  V30 1507 C 154.044 0.877327 -5.66649 0
M  V30 1508 N 153.54 0.916016 -6.86718 0
M  V30 1509 N 155.333 0.915542 -5.54594 0
M  V30 1510 H 147.484 -0.683025 -2.01118 0
M  V30 1511 H 149.747 -0.244988 -0.915797 0
M  V30 1512 H 149.453 -0.324482 -3.502 0
M  V30 1513 H 149.327 1.42572 -3.49218 0
M  V30 1514 H 151.714 1.55403 -2.50867 0
M  V30 1515 H 151.795 -0.21307 -2.54911 0
M  V30 1516 H 151.439 -0.149262 -5.07681 0
M  V30 1517 H 151.369 1.62953 -5.00753 0
M  V30 1518 H 153.86 0.778926 -3.69785 0
M  V30 1519 H 154.173 0.975813 -7.66614 0
M  V30 1520 H 152.518 0.884469 -6.89349 0
M  V30 1521 H 155.709 0.882245 -4.59711 0
M  V30 1522 H 155.882 0.972253 -6.40665 0
M  V30 1523 N 149.288 1.51039 0.449983 0
M  V30 1524 C 150.536 1.62759 1.19808 0
M  V30 1525 C 150.857 0.339981 1.92013 0
M  V30 1526 O 150.127 -0.643606 1.85026 0
M  V30 1527 H 148.707 0.599811 0.445237 0
M  V30 1528 H 151.369 1.87914 0.517138 0
M  V30 1529 H 150.465 2.44911 1.93455 0
M  V30 1530 N 150.766 -0.704594 1.40972 0
M  V30 1531 C 151.698 -1.82974 1.38033 0
M  V30 1532 C 152.711 -1.60305 0.283931 0
M  V30 1533 O 153.9 -1.69975 0.545042 0
M  V30 1534 C 151 -3.19578 1.12795 0
M  V30 1535 C 150.173 -3.69352 2.34302 0
M  V30 1536 C 149.232 -4.84601 2.05058 0
M  V30 1537 O 148.258 -4.96682 2.7802 0
M  V30 1538 N 149.46 -5.71194 1.03528 0
M  V30 1539 H 152.225 -1.85991 2.35005 0
M  V30 1540 H 149.786 -0.886567 1.35468 0
M  V30 1541 H 151.778 -3.9429 0.911987 0
M  V30 1542 H 150.348 -3.11642 0.24452 0
M  V30 1543 H 149.568 -2.85649 2.71659 0
M  V30 1544 H 150.856 -3.99345 3.1528 0
M  V30 1545 H 150.254 -5.64054 0.431217 0
M  V30 1546 H 148.811 -6.45843 0.879205 0
M  V30 1547 N 152.244 -1.26651 -0.937939 0
M  V30 1548 C 153.469 -1.15279 -1.72411 0
M  V30 1549 C 153.894 0.287866 -1.85884 0
M  V30 1550 O 153.252 1.20855 -1.35143 0
M  V30 1551 C 153.3 -1.83028 -3.10698 0
M  V30 1552 O 152.404 -1.12128 -3.96864 0
M  V30 1553 H 151.745 -0.401504 -0.528858 0
M  V30 1554 H 154.275 -1.67531 -1.1745 0
M  V30 1555 H 154.285 -1.89981 -3.6107 0
M  V30 1556 H 152.96 -2.87833 -3.00208 0
M  V30 1557 H 151.537 -1.13173 -3.55312 0
M  V30 1558 N 153.722 1.14298 -1.08507 0
M  V30 1559 C 154.632 2.23027 -0.727753 0
M  V30 1560 C 155.648 1.71952 0.26619 0
M  V30 1561 O 156.824 2.011 0.109882 0
M  V30 1562 C 153.889 3.46403 -0.143541 0
M  V30 1563 C 152.95 4.12413 -1.19223 0
M  V30 1564 C 152.183 5.29899 -0.635798 0
M  V30 1565 O 152.406 5.67796 0.544393 0
M  V30 1566 O 151.34 5.85717 -1.38634 0
M  V30 1567 H 155.166 2.55945 -1.63481 0
M  V30 1568 H 152.751 1.22248 -0.858817 0
M  V30 1569 H 154.633 4.21018 0.179404 0
M  V30 1570 H 153.308 3.15206 0.736659 0
M  V30 1571 H 152.215 3.39667 -1.56772 0
M  V30 1572 H 153.548 4.47718 -2.04474 0
M  V30 1573 N 155.201 0.870884 1.31352 0
M  V30 1574 C 156.164 0.332243 2.26779 0
M  V30 1575 C 157.164 -0.517302 1.52252 0
M  V30 1576 O 158.354 -0.326477 1.71113 0
M  V30 1577 C 155.486 -0.528066 3.36785 0
M  V30 1578 H 156.679 1.17469 2.75937 0
M  V30 1579 H 154.232 0.64655 1.423 0
M  V30 1580 H 154.967 -1.39167 2.92922 0
M  V30 1581 H 154.752 0.0802582 3.92018 0
M  V30 1582 H 156.242 -0.897179 4.07849 0
M  V30 1583 N 156.679 -1.44442 0.630414 0
M  V30 1584 C 157.627 -2.32437 -0.0871428 0
M  V30 1585 C 158.621 -1.47304 -0.836525 0
M  V30 1586 O 159.827 -1.63653 -0.749506 0
M  V30 1587 H 156.202 -0.750533 -0.0469495 0
M  V30 1588 H 158.173 -2.90709 0.673096 0
M  V30 1589 C 156.922 -3.31288 -1.05563 0
M  V30 1590 H 156.245 -3.96805 -0.488426 0
M  V30 1591 H 157.685 -3.9554 -1.52721 0
M  V30 1592 C 156.144 -2.6016 -2.14052 0
M  V30 1593 O 156.674 -2.39997 -3.22124 0
M  V30 1594 N 154.88 -2.19911 -1.89967 0
M  V30 1595 H 154.427 -2.36509 -1.02085 0
M  V30 1596 H 154.385 -1.72646 -2.62756 0
M  V30 1597 N 158.157 -0.370918 -1.53173 0
M  V30 1598 C 159.434 0.273754 -1.93675 0
M  V30 1599 C 159.814 1.65938 -1.3049 0
M  V30 1600 O 159.162 2.23698 -0.465999 0
M  V30 1601 C 159.372 0.318602 -3.47543 0
M  V30 1602 C 160.72 0.556392 -4.20939 0
M  V30 1603 O 161.744 0.399587 -3.53952 0
M  V30 1604 O 160.603 0.862133 -5.39657 0
M  V30 1605 H 157.697 0.165448 -0.810281 0
M  V30 1606 H 160.243 -0.42409 -1.64315 0
M  V30 1607 H 159.015 -0.652687 -3.85818 0
M  V30 1608 H 158.638 1.06212 -3.83151 0
M  V30 1609 N 159.635 1.57281 -0.100228 0
M  V30 1610 C 160.881 1.94826 0.563101 0
M  V30 1611 C 161.214 0.982475 1.67514 0
M  V30 1612 O 160.489 0.0164069 1.94493 0
M  V30 1613 C 160.772 3.42453 1.11346 0
M  V30 1614 C 160.625 4.498 0.00612081 0
M  V30 1615 C 161.944 3.91506 2.01024 0
M  V30 1616 H 159.063 0.708428 0.203221 0
M  V30 1617 H 161.705 1.8922 -0.171979 0
M  V30 1618 H 159.855 3.47361 1.7399 0
M  V30 1619 H 161.527 4.57 -0.628357 0
M  V30 1620 H 159.77 4.28756 -0.659581 0
M  V30 1621 H 160.441 5.50306 0.432109 0
M  V30 1622 H 162.917 3.88784 1.48278 0
M  V30 1623 H 161.793 4.95358 2.36457 0
M  V30 1624 H 162.054 3.31099 2.92961 0
M  V30 1625 N 161.113 -0.173488 1.56642 0
M  V30 1626 C 162.076 -1.19859 1.95362 0
M  V30 1627 C 163.076 -1.37296 0.83704 0
M  V30 1628 O 164.266 -1.34739 1.10413 0
M  V30 1629 C 161.398 -2.56405 2.24654 0
M  V30 1630 H 162.591 -0.867062 2.87092 0
M  V30 1631 H 160.144 -0.415853 1.50666 0
M  V30 1632 H 160.879 -2.94576 1.35631 0
M  V30 1633 H 160.664 -2.45115 3.06041 0
M  V30 1634 H 162.154 -3.30287 2.5554 0
M  V30 1635 N 162.591 -1.51276 -0.441967 0
M  V30 1636 C 164.007 -1.39349 -0.778083 0
M  V30 1637 C 164.207 -0.472212 -1.95889 0
M  V30 1638 O 163.263 0.0743551 -2.5239 0
M  V30 1639 C 164.576 -2.81292 -1.0628 0
M  V30 1640 C 166.124 -2.9041 -1.16751 0
M  V30 1641 C 166.599 -4.33251 -1.48519 0
M  V30 1642 N 168.09 -4.36336 -1.55453 0
M  V30 1643 C 168.825 -5.43885 -1.81596 0
M  V30 1644 N 168.321 -6.61601 -2.05562 0
M  V30 1645 N 170.114 -5.3136 -1.8334 0
M  V30 1646 H 162.265 -2.09729 0.335774 0
M  V30 1647 H 164.528 -0.943925 0.0878028 0
M  V30 1648 H 164.234 -3.50678 -0.267905 0
M  V30 1649 H 164.108 -3.20334 -1.99163 0
M  V30 1650 H 166.495 -2.21225 -1.95304 0
M  V30 1651 H 166.576 -2.54871 -0.217801 0
M  V30 1652 H 166.22 -5.02984 -0.704958 0
M  V30 1653 H 166.15 -4.66299 -2.44689 0
M  V30 1654 H 168.641 -3.51466 -1.38853 0
M  V30 1655 H 168.954 -7.39361 -2.24867 0
M  V30 1656 H 167.299 -6.64725 -2.02894 0
M  V30 1657 H 170.49 -4.38382 -1.64132 0
M  V30 1658 H 170.663 -6.15258 -2.03377 0
M  V30 1659 N 164.069 0.697108 -1.41344 0
M  V30 1660 C 165.315 1.4593 -1.40827 0
M  V30 1661 C 165.648 1.94193 -0.0167098 0
M  V30 1662 O 164.923 1.69425 0.955263 0
M  V30 1663 C 165.206 2.67229 -2.41373 0
M  V30 1664 C 165.059 2.24741 -3.8963 0
M  V30 1665 C 166.378 3.69423 -2.39196 0
M  V30 1666 H 163.497 0.529303 -0.512842 0
M  V30 1667 H 166.139 0.794112 -1.72609 0
M  V30 1668 H 164.289 3.23982 -2.14401 0
M  V30 1669 H 165.961 1.73327 -4.27499 0
M  V30 1670 H 164.204 1.56542 -4.0457 0
M  V30 1671 H 164.875 3.1177 -4.55525 0
M  V30 1672 H 167.351 3.2234 -2.63128 0
M  V30 1673 H 166.227 4.51907 -3.11563 0
M  V30 1674 H 166.488 4.19012 -1.41001 0
M  V30 1675 N 165.547 1.27147 0.931209 0
M  V30 1676 C 166.457 1.11372 2.06478 0
M  V30 1677 C 167.473 0.044645 1.73943 0
M  V30 1678 O 168.649 0.250417 1.99837 0
M  V30 1679 C 165.714 0.758838 3.38294 0
M  V30 1680 C 164.775 1.90841 3.84549 0
M  V30 1681 C 164.008 1.57036 5.10074 0
M  V30 1682 O 164.231 0.476645 5.68405 0
M  V30 1683 O 163.165 2.40839 5.51616 0
M  V30 1684 H 166.991 2.06493 2.22698 0
M  V30 1685 H 164.576 1.06301 1.04978 0
M  V30 1686 H 166.458 0.574098 4.17471 0
M  V30 1687 H 165.133 -0.162879 3.2329 0
M  V30 1688 H 164.04 2.14819 3.06274 0
M  V30 1689 H 165.373 2.81021 4.04089 0
M  V30 1690 N 167.025 -1.13721 1.09112 0
M  V30 1691 C 167.988 -2.17222 0.731241 0
M  V30 1692 C 168.988 -1.59035 -0.237566 0
M  V30 1693 O 170.178 -1.74192 -0.0161704 0
M  V30 1694 C 167.31 -3.40804 0.0808443 0
M  V30 1695 H 168.503 -2.50573 1.64783 0
M  V30 1696 H 166.056 -1.28493 0.889897 0
M  V30 1697 H 166.791 -3.1304 -0.847127 0
M  V30 1698 H 166.576 -3.84306 0.777896 0
M  V30 1699 H 168.066 -4.1731 -0.155657 0
M  V30 1700 N 168.503 -0.877838 -1.30888 0
M  V30 1701 C 169.749 -0.493426 -1.96706 0
M  V30 1702 C 170.082 0.953504 -1.6918 0
M  V30 1703 O 169.357 1.67266 -0.992594 0
M  V30 1704 C 169.64 -0.760429 -3.51979 0
M  V30 1705 C 169.493 -2.25747 -3.89048 0
M  V30 1706 C 170.812 -0.232148 -4.39487 0
M  V30 1707 H 167.931 -0.180746 -0.714493 0
M  V30 1708 H 170.573 -1.10052 -1.54882 0
M  V30 1709 H 168.723 -0.243715 -3.87735 0
M  V30 1710 H 170.395 -2.84204 -3.63354 0
M  V30 1711 H 168.638 -2.72694 -3.37373 0
M  V30 1712 H 169.309 -2.39491 -4.97341 0
M  V30 1713 H 171.785 -0.674314 -4.106 0
M  V30 1714 H 170.661 -0.448355 -5.47066 0
M  V30 1715 H 170.922 0.866297 -4.33529 0
M  V30 1716 N 169.982 1.44106 -0.638065 0
M  V30 1717 C 171.398 1.56672 -0.304286 0
M  V30 1718 C 171.598 1.6244 1.19228 0
M  V30 1719 O 170.654 1.57121 1.9766 0
M  V30 1720 C 171.967 2.83503 -1.00231 0
M  V30 1721 C 173.515 2.97226 -0.981116 0
M  V30 1722 C 173.99 4.26868 -1.65974 0
M  V30 1723 N 175.481 4.33698 -1.62666 0
M  V30 1724 C 176.216 5.32745 -2.12063 0
M  V30 1725 N 175.712 6.38157 -2.6968 0
M  V30 1726 N 177.505 5.24299 -2.02651 0
M  V30 1727 H 169.656 1.38605 -1.60942 0
M  V30 1728 H 171.919 0.664661 -0.675965 0
M  V30 1729 H 171.625 2.85251 -2.0573 0
M  V30 1730 H 171.499 3.73251 -0.54439 0
M  V30 1731 H 173.886 2.95027 0.0654188 0
M  V30 1732 H 173.967 2.08808 -1.47759 0
M  V30 1733 H 173.611 4.29826 -2.70576 0
M  V30 1734 H 173.541 5.14156 -1.13804 0
M  V30 1735 H 176.032 3.58138 -1.20606 0
M  V30 1736 H 176.345 7.10029 -3.05087 0
M  V30 1737 H 174.69 6.38823 -2.73734 0
M  V30 1738 H 177.881 4.4086 -1.57353 0
M  V30 1739 H 178.054 6.01334 -2.41457 0
M  V30 1740 N 171.46 0.379036 1.52974 0
M  V30 1741 C 172.737 -0.263479 1.93817 0
M  V30 1742 C 173.117 -1.65244 1.31368 0
M  V30 1743 O 172.465 -2.23448 0.477856 0
M  V30 1744 C 172.675 -0.300166 3.47707 0
M  V30 1745 C 174.023 -0.534061 4.21228 0
M  V30 1746 O 175.047 -0.38081 3.54159 0
M  V30 1747 O 173.906 -0.833501 5.40106 0
M  V30 1748 H 171 -0.161149 0.811147 0
M  V30 1749 H 173.546 0.432798 1.64088 0
M  V30 1750 H 172.318 0.673138 3.85467 0
M  V30 1751 H 171.941 -1.04179 3.83709 0
M  V30 1752 N 172.938 -1.57226 0.108567 0
M  V30 1753 C 173.901 -2.13602 -0.831082 0
M  V30 1754 C 174.901 -1.06841 -1.20173 0
M  V30 1755 O 176.091 -1.32666 -1.12895 0
M  V30 1756 C 173.223 -2.66769 -2.12243 0
M  V30 1757 H 174.416 -2.97951 -0.341317 0
M  V30 1758 H 171.969 -1.55667 -0.14057 0
M  V30 1759 H 172.704 -1.85977 -2.65675 0
M  V30 1760 H 172.489 -3.44839 -1.86625 0
M  V30 1761 H 173.979 -3.10332 -2.79435 0
M  V30 1762 N 174.416 0.165178 -1.56732 0
M  V30 1763 C 175.346 1.20651 -1.99914 0
M  V30 1764 C 176.327 1.45827 -0.875705 0
M  V30 1765 O 177.512 1.57057 -1.14223 0
M  V30 1766 C 174.642 2.54401 -2.36427 0
M  V30 1767 C 173.596 2.43782 -3.51787 0
M  V30 1768 C 172.922 3.82078 -3.7406 0
M  V30 1769 C 174.222 1.93732 -4.85041 0
M  V30 1770 H 175.916 0.847534 -2.87154 0
M  V30 1771 H 173.462 0.40625 -1.38151 0
M  V30 1772 H 175.415 3.27458 -2.65234 0
M  V30 1773 H 174.139 2.92098 -1.46103 0
M  V30 1774 H 172.798 1.73178 -3.23117 0
M  V30 1775 H 172.446 4.17179 -2.81017 0
M  V30 1776 H 172.146 3.7584 -4.51684 0
M  V30 1777 H 173.67 4.56712 -4.05274 0
M  V30 1778 H 175.084 2.56569 -5.12684 0
M  V30 1779 H 173.481 1.98428 -5.66345 0
M  V30 1780 H 174.551 0.891962 -4.76626 0
M  V30 1781 N 175.894 1.51508 0.433938 0
M  V30 1782 C 177.142 1.6402 1.18075 0
M  V30 1783 C 177.463 0.360328 1.91642 0
M  V30 1784 O 176.733 -0.623945 1.85698 0
M  V30 1785 H 175.313 0.6045 0.43885 0
M  V30 1786 H 177.975 1.88452 0.497178 0
M  V30 1787 H 177.071 2.46949 1.90847 0
M  V30 1788 N 177.372 -0.689602 1.41712 0
M  V30 1789 C 178.783 -1.26973 1.36875 0
M  V30 1790 C 179.134 -1.96124 0.054748 0
M  V30 1791 O 178.259 -1.99141 -0.84687 0
M  V30 1792 C 178.854 -2.30912 2.47922 0
M  V30 1793 C 177.413 -2.84486 2.46464 0
M  V30 1794 C 176.56 -1.58603 2.27465 0
M  V30 1795 H 179.511 -0.48396 1.51141 0
M  V30 1796 H 179.532 -3.12331 2.17323 0
M  V30 1797 H 179.044 -1.80554 3.43543 0
M  V30 1798 H 177.145 -3.39005 1.54617 0
M  V30 1799 H 177.258 -3.34511 3.42986 0
M  V30 1800 H 175.622 -1.84632 1.75451 0
M  V30 1801 H 176.405 -1.10233 3.25121 0
M  V30 1802 N 178.85 -1.27639 -0.924453 0
M  V30 1803 C 180.266 -1.05113 -1.20097 0
M  V30 1804 C 180.466 0.213262 -2.00368 0
M  V30 1805 O 179.522 0.91787 -2.35226 0
M  V30 1806 C 180.835 -2.29244 -1.94596 0
M  V30 1807 C 182.383 -2.34315 -2.07522 0
M  V30 1808 C 182.858 -3.58183 -2.85427 0
M  V30 1809 N 184.349 -3.5876 -2.92994 0
M  V30 1810 C 185.084 -4.51277 -3.53746 0
M  V30 1811 N 184.58 -5.54102 -4.15863 0
M  V30 1812 N 186.373 -4.38894 -3.51181 0
M  V30 1813 H 178.524 -2.08821 -0.388264 0
M  V30 1814 H 180.787 -0.918568 -0.234385 0
M  V30 1815 H 180.493 -3.21301 -1.43034 0
M  V30 1816 H 180.367 -2.34816 -2.95197 0
M  V30 1817 H 182.754 -1.42762 -2.58269 0
M  V30 1818 H 182.835 -2.32744 -1.06131 0
M  V30 1819 H 182.479 -4.50074 -2.35363 0
M  V30 1820 H 182.409 -3.57006 -3.8711 0
M  V30 1821 H 184.9 -2.84398 -2.4885 0
M  V30 1822 H 185.213 -6.20859 -4.60168 0
M  V30 1823 H 183.558 -5.57941 -4.144 0
M  V30 1824 H 186.749 -3.57772 -3.01856 0
M  V30 1825 H 186.922 -5.11186 -3.98237 0
M  V30 1826 N 180.328 1.1314 -1.09713 0
M  V30 1827 C 181.576 1.84119 -0.833338 0
M  V30 1828 C 181.897 1.84097 0.642904 0
M  V30 1829 O 181.167 1.29881 1.46655 0
M  V30 1830 H 179.747 0.681766 -0.305293 0
M  V30 1831 H 182.409 1.37038 -1.38588 0
M  V30 1832 H 181.505 2.88543 -1.18951 0
M  V30 1833 N 181.806 0.884767 1.30421 0
M  V30 1834 C 183.222 0.57874 1.48737 0
M  V30 1835 C 183.422 -0.883567 1.81095 0
M  V30 1836 O 182.478 -1.6648 1.89844 0
M  V30 1837 C 183.791 1.49171 2.61091 0
M  V30 1838 C 185.339 1.49532 2.74971 0
M  V30 1839 C 185.814 2.39421 3.90438 0
M  V30 1840 N 187.305 2.37383 3.97748 0
M  V30 1841 C 188.04 3.03647 4.86401 0
M  V30 1842 N 187.536 3.79136 5.79852 0
M  V30 1843 N 189.329 2.9288 4.79768 0
M  V30 1844 H 181.48 1.83075 1.0769 0
M  V30 1845 H 183.743 0.783637 0.533495 0
M  V30 1846 H 183.449 2.53291 2.44001 0
M  V30 1847 H 183.323 1.20113 3.57565 0
M  V30 1848 H 185.71 0.46163 2.91467 0
M  V30 1849 H 185.791 1.8262 1.79119 0
M  V30 1850 H 185.435 3.42874 3.74699 0
M  V30 1851 H 185.365 2.03649 4.85628 0
M  V30 1852 H 187.856 1.82525 3.30897 0
M  V30 1853 H 188.169 4.26789 6.4426 0
M  V30 1854 H 186.514 3.83243 5.79784 0
M  V30 1855 H 189.705 2.33433 4.05742 0
M  V30 1856 H 189.878 3.448 5.4865 0
M  V30 1857 N 183.284 -1.43765 0.645699 0
M  V30 1858 C 184.53 -2.02197 0.156271 0
M  V30 1859 C 184.863 -1.50776 -1.22393 0
M  V30 1860 O 184.138 -0.697771 -1.81553 0
M  V30 1861 C 184.421 -3.59749 0.158872 0
M  V30 1862 C 184.274 -4.21419 1.57245 0
M  V30 1863 C 185.593 -4.37149 -0.50879 0
M  V30 1864 H 182.712 -0.734694 0.0582602 0
M  V30 1865 H 185.354 -1.71157 0.824951 0
M  V30 1866 H 183.504 -3.86325 -0.410525 0
M  V30 1867 H 185.176 -4.059 2.19186 0
M  V30 1868 H 183.419 -3.78356 2.122 0
M  V30 1869 H 184.09 -5.30482 1.52619 0
M  V30 1870 H 186.566 -4.16093 -0.024412 0
M  V30 1871 H 185.442 -5.4683 -0.476213 0
M  V30 1872 H 185.703 -4.12839 -1.58165 0
M  V30 1873 N 184.763 -0.387143 -1.52771 0
M  V30 1874 C 186.179 -0.037007 -1.59557 0
M  V30 1875 C 186.379 1.44801 -1.40124 0
M  V30 1876 O 185.435 2.21227 -1.21716 0
M  V30 1877 C 186.748 -0.512256 -2.96305 0
M  V30 1878 C 188.296 -0.468328 -3.09476 0
M  V30 1879 C 188.771 -0.919731 -4.4867 0
M  V30 1880 N 190.262 -0.875656 -4.54848 0
M  V30 1881 C 190.997 -1.19637 -5.6078 0
M  V30 1882 N 190.493 -1.58745 -6.74368 0
M  V30 1883 N 192.286 -1.11776 -5.50874 0
M  V30 1884 H 184.437 -1.35395 -1.63652 0
M  V30 1885 H 186.7 -0.554818 -0.768688 0
M  V30 1886 H 186.406 -1.54935 -3.15734 0
M  V30 1887 H 186.28 0.089805 -3.77093 0
M  V30 1888 H 188.667 0.559671 -2.89744 0
M  V30 1889 H 188.748 -1.10616 -2.30646 0
M  V30 1890 H 188.392 -1.94595 -4.69143 0
M  V30 1891 H 188.322 -0.258927 -5.25963 0
M  V30 1892 H 190.813 -0.587843 -3.733 0
M  V30 1893 H 191.126 -1.81586 -7.51163 0
M  V30 1894 H 189.471 -1.6263 -6.75705 0
M  V30 1895 H 192.662 -0.811264 -4.61016 0
M  V30 1896 H 192.835 -1.37103 -6.3333 0
M  V30 1897 N 186.241 1.57166 -0.116904 0
M  V30 1898 C 187.49 1.94298 0.541407 0
M  V30 1899 C 187.803 1.00236 1.67964 0
M  V30 1900 O 189.009 1.26826 2.40057 0
M  V30 1901 C 187.465 3.45306 1.01449 0
M  V30 1902 C 187.073 4.47899 -0.0951738 0
M  V30 1903 C 188.817 3.91361 1.6443 0
M  V30 1904 C 186.724 5.90083 0.394491 0
M  V30 1905 H 185.654 0.725308 0.206019 0
M  V30 1906 H 188.305 1.82446 -0.196419 0
M  V30 1907 H 186.687 3.52385 1.80667 0
M  V30 1908 H 187.861 4.52486 -0.871374 0
M  V30 1909 H 186.176 4.11583 -0.631505 0
M  V30 1910 H 188.773 4.95004 2.02176 0
M  V30 1911 H 189.116 3.3122 2.52189 0
M  V30 1912 H 189.649 3.87073 0.917559 0
M  V30 1913 H 186.388 6.53974 -0.447004 0
M  V30 1914 H 185.908 5.88921 1.13722 0
M  V30 1915 H 187.587 6.41307 0.856399 0
M  V30 1916 N 187.719 -0.156864 1.56817 0
M  V30 1917 C 188.996 -0.899244 1.73704 0
M  V30 1918 C 189.376 -1.99771 0.682254 0
M  V30 1919 O 188.724 -2.26515 -0.300522 0
M  V30 1920 C 188.934 -1.45075 3.17418 0
M  V30 1921 C 190.282 -1.91802 3.7881 0
M  V30 1922 O 191.306 -1.54838 3.20786 0
M  V30 1923 O 190.165 -2.5994 4.80722 0
M  V30 1924 H 187.259 -0.424267 0.709878 0
M  V30 1925 H 189.805 -0.143561 1.69092 0
M  V30 1926 H 188.577 -0.660846 3.85679 0
M  V30 1927 H 188.2 -2.27021 3.26416 0
M  V30 1928 N 189.197 -1.51736 -0.425897 0
M  V30 1929 C 190.443 -1.65214 -1.1761 0
M  V30 1930 C 190.776 -0.372778 -1.90589 0
M  V30 1931 O 190.051 0.628139 -1.84078 0
M  V30 1932 C 190.334 -2.86312 -2.18398 0
M  V30 1933 C 190.187 -4.24254 -1.49426 0
M  V30 1934 C 191.506 -3.02925 -3.19256 0
M  V30 1935 H 188.625 -0.601263 -0.426206 0
M  V30 1936 H 191.267 -1.8425 -0.463882 0
M  V30 1937 H 189.417 -2.70213 -2.79137 0
M  V30 1938 H 191.089 -4.52046 -0.919362 0
M  V30 1939 H 189.332 -4.26426 -0.796432 0
M  V30 1940 H 190.003 -5.05001 -2.22885 0
M  V30 1941 H 192.479 -3.1781 -2.68581 0
M  V30 1942 H 191.355 -3.89199 -3.8706 0
M  V30 1943 H 191.616 -2.15497 -3.86023 0
M  V30 1944 N 190.675 0.682077 -1.42076 0
M  V30 1945 C 191.623 1.81707 -1.45208 0
M  V30 1946 C 192.617 1.66183 -0.328591 0
M  V30 1947 O 193.823 1.7288 -0.501264 0
M  V30 1948 H 190.198 0.599014 -0.454628 0
M  V30 1949 H 192.169 1.76183 -2.40836 0
M  V30 1950 C 190.918 3.19816 -1.36428 0
M  V30 1951 H 190.241 3.32385 -2.22171 0
M  V30 1952 H 191.681 3.99272 -1.42681 0
M  V30 1953 C 190.14 3.36809 -0.078191 0
M  V30 1954 O 190.67 3.92124 0.87188 0
M  V30 1955 N 188.876 2.906 0.00229266 0
M  V30 1956 H 188.423 2.45772 -0.771616 0
M  V30 1957 H 188.381 3.02347 0.862179 0
M  V30 1958 N 192.153 1.28127 0.917671 0
M  V30 1959 C 193.401 1.14825 1.66312 0
M  V30 1960 C 193.722 -0.304379 1.9261 0
M  V30 1961 O 192.992 -1.21149 1.53947 0
M  V30 1962 H 191.572 0.421953 0.616413 0
M  V30 1963 H 194.234 1.608 1.10134 0
M  V30 1964 H 193.33 1.68489 2.62712 0
M  V30 1965 N 193.631 -1.12557 1.10312 0
M  V30 1966 C 194.594 -2.16434 0.75424 0
M  V30 1967 C 195.594 -1.59278 -0.220685 0
M  V30 1968 O 196.784 -1.742 0.00230591 0
M  V30 1969 C 193.916 -3.40699 0.116987 0
M  V30 1970 H 195.109 -2.48811 1.67431 0
M  V30 1971 H 192.662 -1.27542 0.903475 0
M  V30 1972 H 193.397 -3.13921 -0.813877 0
M  V30 1973 H 193.182 -3.83459 0.818613 0
M  V30 1974 H 194.672 -4.17451 -0.111387 0
M  V30 1975 N 195.109 -0.891671 -1.2995 0
M  V30 1976 C 196.355 -0.523649 -1.96544 0
M  V30 1977 C 196.71 0.918394 -1.69066 0
M  V30 1978 O 196.003 1.64122 -0.988659 0
M  V30 1979 C 196.197 -0.742868 -3.49594 0
M  V30 1980 C 196.026 -2.20467 -3.9195 0
M  V30 1981 C 194.796 -2.85055 -4.17219 0
M  V30 1982 C 196.994 -3.17912 -4.04273 0
M  V30 1983 N 194.976 -4.21762 -4.46083 0
M  V30 1984 C 196.347 -4.39712 -4.37097 0
M  V30 1985 C 198.402 -3.1361 -3.86721 0
M  V30 1986 C 197.105 -5.5776 -4.54199 0
M  V30 1987 C 199.131 -4.30936 -4.05028 0
M  V30 1988 C 198.493 -5.51504 -4.38204 0
M  V30 1989 H 194.592 -0.241072 -0.743914 0
M  V30 1990 H 197.176 -1.15081 -1.5705 0
M  V30 1991 H 195.347 -0.14515 -3.88129 0
M  V30 1992 H 197.079 -0.341081 -4.0326 0
M  V30 1993 H 193.834 -2.35889 -4.10674 0
M  V30 1994 H 194.258 -4.92382 -4.64638 0
M  V30 1995 H 198.9 -2.21489 -3.60142 0
M  V30 1996 H 196.618 -6.50379 -4.79618 0
M  V30 1997 H 200.204 -4.29085 -3.92909 0
M  V30 1998 H 199.084 -6.40778 -4.52077 0
M  V30 1999 N 196.587 1.43421 -0.653314 0
M  V30 2000 C 197.864 1.95361 -0.0966581 0
M  V30 2001 C 198.244 1.59461 1.38331 0
M  V30 2002 O 197.592 0.879777 2.10884 0
M  V30 2003 C 197.802 3.47311 -0.342988 0
M  V30 2004 C 199.15 4.23875 -0.24798 0
M  V30 2005 O 200.174 3.55133 -0.275553 0
M  V30 2006 O 199.033 5.4623 -0.171771 0
M  V30 2007 H 196.127 0.826945 0.00956291 0
M  V30 2008 H 198.673 1.5336 -0.726558 0
M  V30 2009 H 197.445 3.66569 -1.36906 0
M  V30 2010 H 197.068 3.9631 0.319975 0
M  V30 2011 N 198.065 0.39524 1.52563 0
M  V30 2012 C 199.311 -0.185318 2.01952 0
M  V30 2013 C 199.644 -1.45964 1.28095 0
M  V30 2014 O 198.919 -1.90689 0.38315 0
M  V30 2015 C 199.202 -0.447193 3.57312 0
M  V30 2016 C 199.055 0.842828 4.41833 0
M  V30 2017 C 200.374 -1.23529 4.22408 0
M  V30 2018 H 197.493 -0.0658788 0.73405 0
M  V30 2019 H 200.135 0.525975 1.82575 0
M  V30 2020 H 198.285 -1.05312 3.73954 0
M  V30 2021 H 199.957 1.4795 4.36931 0
M  V30 2022 H 198.2 1.45686 4.08605 0
M  V30 2023 H 198.871 0.614165 5.48573 0
M  V30 2024 H 201.347 -0.722445 4.0978 0
M  V30 2025 H 200.223 -1.38727 5.3108 0
M  V30 2026 H 200.484 -2.25213 3.80436 0
M  V30 2027 N 199.544 -1.57102 0.125237 0
M  V30 2028 C 200.821 -1.86953 -0.575142 0
M  V30 2029 C 201.201 -1.02749 -1.84407 0
M  V30 2030 O 200.549 -0.108144 -2.28244 0
M  V30 2031 C 200.759 -3.38198 -0.861583 0
M  V30 2032 C 202.107 -4.06937 -1.21192 0
M  V30 2033 O 203.131 -3.43252 -0.951645 0
M  V30 2034 O 201.99 -5.19364 -1.70068 0
M  V30 2035 H 199.084 -0.774147 -0.290906 0
M  V30 2036 H 201.63 -1.68942 0.160211 0
M  V30 2037 H 200.402 -3.91282 0.0373647 0
M  V30 2038 H 200.025 -3.61661 -1.65188 0
M  V30 2039 N 201.022 0.148545 -1.56898 0
M  V30 2040 C 202.25 0.876389 -1.87422 0
M  V30 2041 C 202.665 1.74809 -0.713256 0
M  V30 2042 O 202.022 1.79725 0.317025 0
M  V30 2043 C 202.073 1.73438 -3.17178 0
M  V30 2044 O 201.794 0.897809 -4.28802 0
M  V30 2045 C 203.295 2.56993 -3.61205 0
M  V30 2046 H 200.515 0.253489 -0.621277 0
M  V30 2047 H 203.059 0.141798 -2.04008 0
M  V30 2048 H 201.214 2.42205 -3.0235 0
M  V30 2049 H 201.628 1.48672 -5.02988 0
M  V30 2050 H 203.102 3.12773 -4.54838 0
M  V30 2051 H 203.579 3.32958 -2.86419 0
M  V30 2052 H 204.185 1.9352 -3.78722 0
M  V30 2053 N 202.5 1.5196 0.417844 0
M  V30 2054 C 203.463 1.74065 1.49111 0
M  V30 2055 C 204.463 0.610537 1.48758 0
M  V30 2056 O 205.653 0.87832 1.50437 0
M  V30 2057 C 202.785 1.81502 2.88565 0
M  V30 2058 H 203.978 2.69869 1.30807 0
M  V30 2059 H 201.531 1.42244 0.647785 0
M  V30 2060 H 202.266 0.875813 3.1225 0
M  V30 2061 H 202.051 2.63651 2.90225 0
M  V30 2062 H 203.541 2.00376 3.66387 0
M  V30 2063 N 203.978 -0.674533 1.42435 0
M  V30 2064 C 205.224 -1.43671 1.43131 0
M  V30 2065 C 205.557 -1.94142 0.0476021 0
M  V30 2066 O 204.832 -1.70924 -0.928188 0
M  V30 2067 C 205.115 -2.63355 2.45594 0
M  V30 2068 C 204.968 -2.18514 3.93156 0
M  V30 2069 C 206.287 -3.65571 2.45043 0
M  V30 2070 H 203.406 -0.521077 0.521198 0
M  V30 2071 H 206.048 -0.766551 1.7385 0
M  V30 2072 H 204.198 -3.2053 2.19528 0
M  V30 2073 H 205.87 -1.66504 4.30202 0
M  V30 2074 H 204.113 -1.50086 4.07009 0
M  V30 2075 H 204.784 -3.04484 4.60428 0
M  V30 2076 H 207.26 -3.18113 2.68223 0
M  V30 2077 H 206.136 -4.46893 3.18713 0
M  V30 2078 H 206.397 -4.16716 1.47649 0
M  V30 2079 N 205.456 -1.28612 -0.910864 0
M  V30 2080 C 206.872 -1.06381 -1.18976 0
M  V30 2081 C 207.072 0.191998 -2.00583 0
M  V30 2082 O 206.128 0.892869 -2.36187 0
M  V30 2083 C 207.441 -2.31295 -1.92154 0
M  V30 2084 C 208.989 -2.36503 -2.05025 0
M  V30 2085 C 209.464 -3.61191 -2.81612 0
M  V30 2086 N 210.955 -3.61847 -2.89172 0
M  V30 2087 C 211.69 -4.55004 -3.4894 0
M  V30 2088 N 211.186 -5.58482 -4.09963 0
M  V30 2089 N 212.979 -4.42594 -3.46506 0
M  V30 2090 H 205.13 -2.09221 -0.366094 0
M  V30 2091 H 207.393 -0.921003 -0.224629 0
M  V30 2092 H 207.099 -3.228 -1.39618 0
M  V30 2093 H 206.973 -2.37934 -2.9269 0
M  V30 2094 H 209.36 -1.45494 -2.5674 0
M  V30 2095 H 209.441 -2.33857 -1.03657 0
M  V30 2096 H 209.085 -4.52545 -2.30576 0
M  V30 2097 H 209.015 -3.61092 -3.83302 0
M  V30 2098 H 211.506 -2.87022 -2.45819 0
M  V30 2099 H 211.819 -6.25704 -4.53557 0
M  V30 2100 H 210.164 -5.62305 -4.08459 0
M  V30 2101 H 213.355 -3.60953 -2.98045 0
M  V30 2102 H 213.528 -5.15381 -3.92793 0
M  V30 2103 N 206.934 1.1197 -1.10907 0
M  V30 2104 C 207.867 2.16998 -0.706192 0
M  V30 2105 C 208.845 1.59903 0.294897 0
M  V30 2106 O 210.029 1.87513 0.192636 0
M  V30 2107 C 207.156 3.38673 -0.0427664 0
M  V30 2108 C 206.202 4.14414 -1.00811 0
M  V30 2109 S 207.035 4.72079 -2.52789 0
M  V30 2110 C 208.191 5.97083 -1.87731 0
M  V30 2111 H 208.424 2.50837 -1.59587 0
M  V30 2112 H 205.957 1.23508 -0.926555 0
M  V30 2113 H 207.915 4.09142 0.333668 0
M  V30 2114 H 206.576 3.03105 0.823788 0
M  V30 2115 H 205.769 5.016 -0.491259 0
M  V30 2116 H 205.371 3.49678 -1.3267 0
M  V30 2117 H 207.663 6.66599 -1.21044 0
M  V30 2118 H 208.606 6.53403 -2.72892 0
M  V30 2119 H 209.014 5.4837 -1.33979 0
M  V30 2120 N 208.412 0.89855 1.29475 0
M  V30 2121 C 209.661 0.519863 1.94885 0
M  V30 2122 C 209.974 -0.9383 1.71625 0
M  V30 2123 O 211.18 -1.42445 2.31131 0
M  V30 2124 C 209.636 0.878836 3.49005 0
M  V30 2125 C 209.244 2.35569 3.81066 0
M  V30 2126 C 210.988 0.570004 4.20656 0
M  V30 2127 C 208.895 2.65558 5.28425 0
M  V30 2128 H 207.825 0.190692 0.729488 0
M  V30 2129 H 210.476 1.09539 1.47219 0
M  V30 2130 H 208.858 0.232253 3.95318 0
M  V30 2131 H 210.032 3.04773 3.45616 0
M  V30 2132 H 208.347 2.63343 3.22552 0
M  V30 2133 H 210.944 0.770925 5.29113 0
M  V30 2134 H 211.287 -0.491404 4.1339 0
M  V30 2135 H 211.82 1.17438 3.8007 0
M  V30 2136 H 208.559 3.70493 5.40754 0
M  V30 2137 H 208.079 2.00977 5.65127 0
M  V30 2138 H 209.758 2.51765 5.96006 0
M  V30 2139 N 209.89 -1.43072 0.660911 0
M  V30 2140 C 211.306 -1.56169 0.329173 0
M  V30 2141 C 211.506 -1.64317 -1.16629 0
M  V30 2142 O 210.562 -1.60245 -1.95135 0
M  V30 2143 C 211.875 -2.81873 1.04729 0
M  V30 2144 C 213.423 -2.95627 1.02828 0
M  V30 2145 C 213.898 -4.24174 1.72744 0
M  V30 2146 N 215.389 -4.31055 1.69545 0
M  V30 2147 C 216.124 -5.29304 2.20511 0
M  V30 2148 N 215.62 -6.33786 2.79799 0
M  V30 2149 N 217.413 -5.21008 2.10966 0
M  V30 2150 H 209.564 -1.36027 1.63127 0
M  V30 2151 H 211.827 -0.653823 0.686454 0
M  V30 2152 H 211.533 -2.81942 2.10242 0
M  V30 2153 H 211.407 -3.72338 0.603702 0
M  V30 2154 H 213.794 -2.95094 -0.0184742 0
M  V30 2155 H 213.875 -2.06431 1.51063 0
M  V30 2156 H 213.519 -4.25467 2.7738 0
M  V30 2157 H 213.449 -5.1228 1.2197 0
M  V30 2158 H 215.94 -3.56174 1.26288 0
M  V30 2159 H 216.253 -7.05086 3.16344 0
M  V30 2160 H 214.598 -6.34387 2.83863 0
M  V30 2161 H 217.789 -4.38301 1.64347 0
M  V30 2162 H 217.962 -5.97416 2.50993 0
M  V30 2163 N 211.368 -0.403325 -1.52352 0
M  V30 2164 C 212.298 0.416205 -2.29761 0
M  V30 2165 C 213.279 1.05123 -1.33728 0
M  V30 2166 O 214.464 1.06134 -1.62632 0
M  V30 2167 C 211.594 1.53624 -3.11475 0
M  V30 2168 C 210.548 1.02653 -4.15507 0
M  V30 2169 C 209.874 2.23971 -4.85532 0
M  V30 2170 C 211.174 0.08463 -5.22231 0
M  V30 2171 H 212.868 -0.229701 -2.98518 0
M  V30 2172 H 210.414 -0.111913 -1.43564 0
M  V30 2173 H 212.367 2.1165 -3.64393 0
M  V30 2174 H 211.091 2.20994 -2.40477 0
M  V30 2175 H 209.75 0.46871 -3.63591 0
M  V30 2176 H 209.398 2.89883 -4.11068 0
M  V30 2177 H 209.098 1.90521 -5.55856 0
M  V30 2178 H 210.622 2.82614 -5.41259 0
M  V30 2179 H 212.036 0.573509 -5.70424 0
M  V30 2180 H 210.433 -0.160783 -5.99885 0
M  V30 2181 H 211.503 -0.86237 -4.7717 0
M  V30 2182 N 212.846 1.57033 -0.133567 0
M  V30 2183 C 213.776 2.1909 0.807567 0
M  V30 2184 C 214.757 1.13517 1.26681 0
M  V30 2185 O 215.942 1.41809 1.32679 0
M  V30 2186 C 213.072 2.80188 2.05212 0
M  V30 2187 C 212.026 3.91471 1.73015 0
M  V30 2188 C 211.352 4.39443 3.04622 0
M  V30 2189 C 212.652 5.12886 0.987168 0
M  V30 2190 H 214.346 2.97988 0.290403 0
M  V30 2191 H 211.892 1.43335 0.138239 0
M  V30 2192 H 213.845 3.22264 2.71521 0
M  V30 2193 H 212.569 1.98601 2.59278 0
M  V30 2194 H 211.228 3.49993 1.0909 0
M  V30 2195 H 210.876 3.54695 3.56651 0
M  V30 2196 H 210.576 5.14495 2.83847 0
M  V30 2197 H 212.1 4.8418 3.72024 0
M  V30 2198 H 213.514 5.51891 1.55208 0
M  V30 2199 H 211.911 5.93615 0.87985 0
M  V30 2200 H 212.981 4.84894 -0.0235286 0
M  V30 2201 N 214.325 -0.140222 1.56975 0
M  V30 2202 C 215.602 -0.880769 1.74648 0
M  V30 2203 C 215.982 -1.99036 0.703404 0
M  V30 2204 O 215.33 -2.26821 -0.27648 0
M  V30 2205 C 215.54 -1.417 3.18939 0
M  V30 2206 C 216.888 -1.87774 3.80823 0
M  V30 2207 O 217.912 -1.51427 3.2241 0
M  V30 2208 O 216.771 -2.54827 4.83452 0
M  V30 2209 H 213.865 -0.416713 0.714338 0
M  V30 2210 H 216.411 -0.125618 1.69234 0
M  V30 2211 H 215.183 -0.619902 3.86359 0
M  V30 2212 H 214.806 -2.23546 3.28805 0
M  V30 2213 N 215.803 -1.52179 -0.40978 0
M  V30 2214 C 217.219 -1.40968 -0.74835 0
M  V30 2215 C 217.419 -0.513657 -1.94843 0
M  V30 2216 O 216.475 0.0208026 -2.52491 0
M  V30 2217 C 217.788 -2.83483 -1.0029 0
M  V30 2218 C 219.336 -2.92821 -1.10565 0
M  V30 2219 C 219.811 -4.36303 -1.39296 0
M  V30 2220 N 221.302 -4.39535 -1.46162 0
M  V30 2221 C 222.037 -5.47614 -1.70018 0
M  V30 2222 N 221.533 -6.65812 -1.91483 0
M  V30 2223 N 223.326 -5.35129 -1.72027 0
M  V30 2224 H 215.477 -2.0897 0.380186 0
M  V30 2225 H 217.74 -0.94185 0.107805 0
M  V30 2226 H 217.446 -3.51168 -0.193461 0
M  V30 2227 H 217.32 -3.24487 -1.92323 0
M  V30 2228 H 219.707 -2.25318 -1.90568 0
M  V30 2229 H 219.788 -2.55276 -0.16369 0
M  V30 2230 H 219.432 -5.04366 -0.598109 0
M  V30 2231 H 219.362 -4.71385 -2.34743 0
M  V30 2232 H 221.853 -3.54332 -1.31367 0
M  V30 2233 H 222.166 -7.43964 -2.09134 0
M  V30 2234 H 220.511 -6.68879 -1.88749 0
M  V30 2235 H 223.702 -4.41764 -1.54796 0
M  V30 2236 H 223.875 -6.19433 -1.9028 0
M  V30 2237 N 217.281 0.66697 -1.42791 0
M  V30 2238 C 218.528 1.42699 -1.43678 0
M  V30 2239 C 218.856 1.94419 -0.0560425 0
M  V30 2240 O 218.111 1.7182 0.936831 0
M  V30 2241 C 218.41 2.6349 -2.4147 0
M  V30 2242 C 218.076 2.30267 -3.8767 0
M  V30 2243 C 216.738 2.20918 -4.27491 0
M  V30 2244 C 219.09 2.03435 -4.79858 0
M  V30 2245 C 216.418 1.82873 -5.57471 0
M  V30 2246 C 218.77 1.66892 -6.10188 0
M  V30 2247 C 217.434 1.56058 -6.49001 0
M  V30 2248 H 216.704 0.522171 -0.525755 0
M  V30 2249 H 219.351 0.759785 -1.75783 0
M  V30 2250 H 217.656 3.35279 -2.0272 0
M  V30 2251 H 219.353 3.21684 -2.39417 0
M  V30 2252 H 215.943 2.38449 -3.56146 0
M  V30 2253 H 220.127 2.09586 -4.49875 0
M  V30 2254 H 215.383 1.7306 -5.86396 0
M  V30 2255 H 219.557 1.45157 -6.81104 0
M  V30 2256 H 217.184 1.26348 -7.49627 0
M  V30 2257 N 218.759 1.29093 0.90403 0
M  V30 2258 C 219.669 1.15727 2.0407 0
M  V30 2259 C 220.685 0.0815308 1.73809 0
M  V30 2260 O 221.861 0.292749 1.99261 0
M  V30 2261 C 218.926 0.830424 3.36608 0
M  V30 2262 C 217.987 1.98955 3.80415 0
M  V30 2263 C 217.22 1.6782 5.06628 0
M  V30 2264 O 217.443 0.597105 5.67266 0
M  V30 2265 O 216.377 2.52486 5.46383 0
M  V30 2266 H 220.203 2.11171 2.18267 0
M  V30 2267 H 217.788 1.08504 1.027 0
M  V30 2268 H 219.67 0.662521 4.16159 0
M  V30 2269 H 218.345 -0.0942678 3.23563 0
M  V30 2270 H 217.252 2.21267 3.01648 0
M  V30 2271 H 218.585 2.89529 3.98037 0
M  V30 2272 N 220.237 -1.11381 1.11499 0
M  V30 2273 C 221.167 -2.19509 0.796125 0
M  V30 2274 C 222.148 -1.68458 -0.235796 0
M  V30 2275 O 223.333 -1.93947 -0.0991344 0
M  V30 2276 C 220.463 -3.46475 0.239205 0
M  V30 2277 C 219.417 -4.10744 1.20307 0
M  V30 2278 C 218.743 -5.32293 0.50683 0
M  V30 2279 C 220.043 -4.55597 2.55399 0
M  V30 2280 H 221.737 -2.46439 1.70024 0
M  V30 2281 H 219.283 -1.18446 0.818935 0
M  V30 2282 H 221.236 -4.214 0.00392006 0
M  V30 2283 H 219.96 -3.19006 -0.700206 0
M  V30 2284 H 218.619 -3.37813 1.42399 0
M  V30 2285 H 218.267 -5.01095 -0.437408 0
M  V30 2286 H 217.967 -5.76243 1.1497 0
M  V30 2287 H 219.491 -6.09956 0.280351 0
M  V30 2288 H 220.905 -5.21841 2.37391 0
M  V30 2289 H 219.302 -5.10363 3.15673 0
M  V30 2290 H 220.372 -3.69013 3.14575 0
M  V30 2291 N 221.715 -0.905404 -1.28997 0
M  V30 2292 C 222.625 -0.392246 -2.31298 0
M  V30 2293 C 223.641 0.515889 -1.66176 0
M  V30 2294 O 224.817 0.404093 -1.97304 0
M  V30 2295 C 221.882 0.36686 -3.44754 0
M  V30 2296 C 220.943 -0.573485 -4.25452 0
M  V30 2297 C 220.176 0.149488 -5.33491 0
M  V30 2298 O 220.399 1.37255 -5.5364 0
M  V30 2299 O 219.333 -0.510919 -5.99728 0
M  V30 2300 H 223.159 -1.2411 -2.77183 0
M  V30 2301 H 220.744 -0.669926 -1.33538 0
M  V30 2302 H 222.626 0.795907 -4.13816 0
M  V30 2303 H 221.301 1.19169 -3.00966 0
M  V30 2304 H 220.208 -1.05176 -3.59011 0
M  V30 2305 H 221.541 -1.36489 -4.72897 0
M  V30 2306 N 223.193 1.4272 -0.668489 0
M  V30 2307 C 224.423 2.05668 -0.196063 0
M  V30 2308 C 224.831 1.5028 1.14946 0
M  V30 2309 O 224.174 0.6348 1.72383 0
M  V30 2310 C 224.236 3.59469 -0.0468879 0
M  V30 2311 C 223.9 4.37518 -1.32012 0
M  V30 2312 C 224.897 4.68584 -2.25222 0
M  V30 2313 C 222.582 4.77266 -1.56596 0
M  V30 2314 C 224.576 5.38326 -3.41297 0
M  V30 2315 C 222.263 5.4675 -2.72962 0
M  V30 2316 C 223.261 5.77204 -3.65137 0
M  V30 2317 O 222.949 6.45264 -4.79468 0
M  V30 2318 H 222.681 0.669382 -0.0943599 0
M  V30 2319 H 225.235 1.83954 -0.913788 0
M  V30 2320 H 223.465 3.79817 0.726357 0
M  V30 2321 H 225.154 4.04071 0.384852 0
M  V30 2322 H 225.92 4.38382 -2.07477 0
M  V30 2323 H 221.799 4.52959 -0.857249 0
M  V30 2324 H 225.343 5.62014 -4.13263 0
M  V30 2325 H 221.24 5.76369 -2.90635 0
M  V30 2326 H 222.008 6.63753 -4.78931 0
M  V30 2327 N 224.671 0.411399 1.52136 0
M  V30 2328 C 225.917 -0.163888 2.02137 0
M  V30 2329 C 226.25 -1.44597 1.29636 0
M  V30 2330 O 225.525 -1.90272 0.403353 0
M  V30 2331 C 225.808 -0.40927 3.57767 0
M  V30 2332 C 225.661 0.889643 4.40914 0
M  V30 2333 C 226.98 -1.19042 4.23694 0
M  V30 2334 H 224.099 -0.0580896 0.734707 0
M  V30 2335 H 226.741 0.54531 1.82007 0
M  V30 2336 H 224.891 -1.0134 3.7505 0
M  V30 2337 H 226.563 1.52575 4.35337 0
M  V30 2338 H 224.806 1.50011 4.07037 0
M  V30 2339 H 225.477 0.672314 5.4789 0
M  V30 2340 H 227.953 -0.678942 4.10524 0
M  V30 2341 H 226.829 -1.33086 5.32522 0
M  V30 2342 H 227.09 -2.21166 3.82803 0
M  V30 2343 N 226.149 -1.5696 0.141893 0
M  V30 2344 C 227.059 -2.20066 -0.812905 0
M  V30 2345 C 228.075 -1.18344 -1.27557 0
M  V30 2346 O 229.251 -1.50902 -1.33381 0
M  V30 2347 C 226.316 -2.80583 -2.03652 0
M  V30 2348 C 225.377 -3.97414 -1.62359 0
M  V30 2349 C 224.61 -4.55036 -2.78887 0
M  V30 2350 O 224.833 -4.11538 -3.94959 0
M  V30 2351 O 223.767 -5.45376 -2.54653 0
M  V30 2352 H 227.593 -3.02157 -0.305746 0
M  V30 2353 H 225.178 -1.49159 -0.0848799 0
M  V30 2354 H 227.06 -3.19067 -2.75272 0
M  V30 2355 H 225.735 -2.01508 -2.5333 0
M  V30 2356 H 224.642 -3.63656 -0.877775 0
M  V30 2357 H 225.975 -4.77994 -1.17401 0
M  V30 2358 N 227.627 0.131896 -1.57047 0
M  V30 2359 C 228.559 1.1878 -1.9602 0
M  V30 2360 C 229.572 1.38363 -0.857875 0
M  V30 2361 O 230.761 1.37666 -1.13623 0
M  V30 2362 C 227.861 2.55008 -2.23213 0
M  V30 2363 C 227.034 2.56201 -3.54513 0
M  V30 2364 C 226.093 3.7408 -3.70069 0
M  V30 2365 O 225.119 3.58258 -4.42312 0
M  V30 2366 N 226.321 4.92137 -3.07866 0
M  V30 2367 H 229.086 0.85639 -2.87204 0
M  V30 2368 H 226.647 0.321309 -1.5868 0
M  V30 2369 H 228.639 3.32404 -2.30846 0
M  V30 2370 H 227.209 2.80382 -1.3822 0
M  V30 2371 H 226.429 1.64613 -3.58185 0
M  V30 2372 H 227.717 2.54043 -4.4084 0
M  V30 2373 H 227.115 5.07895 -2.49116 0
M  V30 2374 H 225.672 5.67254 -3.21039 0
M  V30 2375 N 229.106 1.52395 0.401703 0
M  V30 2376 C 230.517 1.58899 0.980202 0
M  V30 2377 C 230.868 0.434032 1.91339 0
M  V30 2378 O 229.993 -0.444619 2.11783 0
M  V30 2379 C 230.588 2.87994 1.78451 0
M  V30 2380 C 229.147 2.96953 2.31292 0
M  V30 2381 C 228.294 2.53903 1.11483 0
M  V30 2382 H 231.245 1.57657 0.18168 0
M  V30 2383 H 231.266 2.73765 2.64259 0
M  V30 2384 H 230.778 3.72035 1.10506 0
M  V30 2385 H 228.879 2.17422 3.02586 0
M  V30 2386 H 228.992 4.01344 2.61649 0
M  V30 2387 H 227.356 2.07925 1.47104 0
M  V30 2388 H 228.139 3.40326 0.450928 0
M  V30 2389 N 230.584 -0.659388 1.43143 0
M  V30 2390 C 231.824 -1.43121 1.45931 0
M  V30 2391 C 232.188 -1.91838 0.0789298 0
M  V30 2392 O 233.389 -2.68794 -0.018491 0
M  V30 2393 C 231.66 -2.58534 2.46769 0
M  V30 2394 S 233.219 -3.47154 2.68384 0
M  V30 2395 H 230.037 -0.488624 0.516496 0
M  V30 2396 H 232.639 -0.766128 1.79863 0
M  V30 2397 H 231.343 -2.21007 3.45809 0
M  V30 2398 H 230.874 -3.29898 2.14315 0
M  V30 2399 H 232.889 -4.55051 1.97845 0
M  V30 2400 N 232.062 -1.29571 -0.897171 0
M  V30 2401 C 233.025 -1.14913 -1.98312 0
M  V30 2402 C 234.025 -0.0838629 -1.60581 0
M  V30 2403 O 235.215 -0.331006 -1.71026 0
M  V30 2404 C 232.347 -0.757835 -3.3237 0
M  V30 2405 H 233.54 -2.11377 -2.12743 0
M  V30 2406 H 231.093 -1.12793 -1.08201 0
M  V30 2407 H 231.828 0.206837 -3.2364 0
M  V30 2408 H 231.613 -1.52755 -3.61121 0
M  V30 2409 H 233.103 -0.678408 -4.12053 0
M  V30 2410 N 233.54 1.10788 -1.12088 0
M  V30 2411 C 234.768 1.86461 -0.896651 0
M  V30 2412 C 235.183 1.80492 0.553912 0
M  V30 2413 O 234.54 1.19102 1.38278 0
M  V30 2414 C 234.591 3.35006 -1.35843 0
M  V30 2415 O 234.312 3.40866 -2.75213 0
M  V30 2416 C 235.813 4.27565 -1.1706 0
M  V30 2417 H 233.033 0.589425 -0.320654 0
M  V30 2418 H 235.577 1.40076 -1.48993 0
M  V30 2419 H 233.732 3.7887 -0.808458 0
M  V30 2420 H 234.146 4.33411 -2.9539 0
M  V30 2421 H 235.62 5.30007 -1.54263 0
M  V30 2422 H 236.097 4.3906 -0.110814 0
M  V30 2423 H 236.703 3.89501 -1.70789 0
M  V30 2424 N 235.018 0.912232 1.28515 0
M  V30 2425 C 236.264 0.545405 1.95328 0
M  V30 2426 C 236.597 -0.908313 1.71649 0
M  V30 2427 O 235.872 -1.64575 1.03659 0
M  V30 2428 C 236.155 0.853483 3.4984 0
M  V30 2429 C 236.008 2.35982 3.82926 0
M  V30 2430 C 237.327 0.348589 4.38717 0
M  V30 2431 H 234.446 0.199626 0.709449 0
M  V30 2432 H 237.088 1.1412 1.5191 0
M  V30 2433 H 235.238 0.34643 3.86952 0
M  V30 2434 H 236.91 2.93738 3.55691 0
M  V30 2435 H 235.153 2.81543 3.30024 0
M  V30 2436 H 235.824 2.52593 4.90816 0
M  V30 2437 H 238.3 0.78294 4.08668 0
M  V30 2438 H 237.176 0.593242 5.45685 0
M  V30 2439 H 237.437 -0.751049 4.35674 0
M  V30 2440 N 236.496 -1.42363 0.676048 0
M  V30 2441 C 237.773 -1.95183 0.127726 0
M  V30 2442 C 238.153 -1.61641 -1.35777 0
M  V30 2443 O 237.501 -0.913216 -2.09458 0
M  V30 2444 C 237.711 -3.46721 0.398199 0
M  V30 2445 C 239.059 -4.23427 0.315383 0
M  V30 2446 O 240.083 -3.54649 0.332016 0
M  V30 2447 O 238.942 -5.45888 0.25865 0
M  V30 2448 H 236.036 -0.826992 0.00359427 0
M  V30 2449 H 238.582 -1.52184 0.750864 0
M  V30 2450 H 237.354 -3.64344 1.4272 0
M  V30 2451 H 236.977 -3.96769 -0.256885 0
M  V30 2452 N 237.974 -0.419461 -1.51915 0
M  V30 2453 C 238.884 0.407528 -2.31033 0
M  V30 2454 C 239.9 1.04413 -1.3919 0
M  V30 2455 O 241.076 1.0434 -1.72265 0
M  V30 2456 C 238.141 1.50365 -3.12396 0
M  V30 2457 C 237.202 0.889029 -4.19994 0
M  V30 2458 C 236.435 1.93291 -4.97468 0
M  V30 2459 O 236.658 3.15259 -4.75361 0
M  V30 2460 O 235.592 1.53339 -5.8204 0
M  V30 2461 H 239.418 -0.237865 -3.02767 0
M  V30 2462 H 237.003 -0.182413 -1.48282 0
M  V30 2463 H 238.885 2.13975 -3.63032 0
M  V30 2464 H 237.56 2.13345 -2.43445 0
M  V30 2465 H 236.467 0.215353 -3.7348 0
M  V30 2466 H 237.8 0.302991 -4.91267 0
M  V30 2467 N 239.452 1.56882 -0.150215 0
M  V30 2468 C 240.382 2.19935 0.784284 0
M  V30 2469 C 241.363 1.14854 1.25469 0
M  V30 2470 O 242.548 1.43209 1.31168 0
M  V30 2471 C 239.678 2.82349 2.02229 0
M  V30 2472 C 238.632 3.93285 1.68853 0
M  V30 2473 C 237.958 4.42649 2.99944 0
M  V30 2474 C 239.258 5.13904 0.932714 0
M  V30 2475 H 240.952 2.9828 0.258781 0
M  V30 2476 H 238.498 1.43473 0.123029 0
M  V30 2477 H 240.451 3.25126 2.68088 0
M  V30 2478 H 239.175 2.0134 2.57157 0
M  V30 2479 H 237.834 3.5113 1.05371 0
M  V30 2480 H 237.482 3.58458 3.52869 0
M  V30 2481 H 237.182 5.17476 2.78374 0
M  V30 2482 H 238.706 4.88099 3.66868 0
M  V30 2483 H 240.12 5.53506 1.49345 0
M  V30 2484 H 238.517 5.94515 0.81684 0
M  V30 2485 H 239.587 4.84842 -0.0749568 0
M  V30 2486 N 240.93 -0.123565 1.57115 0
M  V30 2487 C 241.893 -1.13583 1.99076 0
M  V30 2488 C 242.893 -1.34564 0.880296 0
M  V30 2489 O 244.083 -1.31158 1.14644 0
M  V30 2490 C 241.215 -2.49128 2.32698 0
M  V30 2491 H 242.408 -0.775287 2.89706 0
M  V30 2492 H 239.961 -0.36771 1.51913 0
M  V30 2493 H 240.696 -2.90111 1.44934 0
M  V30 2494 H 240.481 -2.35255 3.13684 0
M  V30 2495 H 241.971 -3.2199 2.65918 0
M  V30 2496 N 242.408 -1.52605 -0.393616 0
M  V30 2497 C 243.318 -1.79971 -1.50492 0
M  V30 2498 C 244.334 -0.686181 -1.59899 0
M  V30 2499 O 245.51 -0.973274 -1.76322 0
M  V30 2500 C 242.575 -1.95867 -2.86072 0
M  V30 2501 C 241.636 -3.19781 -2.86424 0
M  V30 2502 C 240.869 -3.34909 -4.15538 0
M  V30 2503 O 241.092 -2.54948 -5.10253 0
M  V30 2504 O 240.026 -4.28141 -4.23059 0
M  V30 2505 H 243.852 -2.74328 -1.30299 0
M  V30 2506 H 241.437 -1.3764 -0.581005 0
M  V30 2507 H 243.319 -2.08056 -3.66457 0
M  V30 2508 H 241.994 -1.04699 -3.063 0
M  V30 2509 H 240.901 -3.13038 -2.04837 0
M  V30 2510 H 242.234 -4.1078 -2.71147 0
M  V30 2511 N 243.887 0.651787 -1.4349 0
M  V30 2512 C 245.133 1.41376 -1.45398 0
M  V30 2513 C 245.466 1.94041 -0.0784823 0
M  V30 2514 O 244.741 1.72379 0.900878 0
M  V30 2515 C 245.024 2.59414 -2.49752 0
M  V30 2516 C 244.877 2.12232 -3.96582 0
M  V30 2517 C 246.196 3.61626 -2.50827 0
M  V30 2518 H 243.315 0.512719 -0.529422 0
M  V30 2519 H 245.957 0.738796 -1.75048 0
M  V30 2520 H 244.107 3.16997 -2.246 0
M  V30 2521 H 245.779 1.59639 -4.32797 0
M  V30 2522 H 244.022 1.43592 -4.09346 0
M  V30 2523 H 244.693 2.9712 -4.65214 0
M  V30 2524 H 247.169 3.13805 -2.7325 0
M  V30 2525 H 246.045 4.41766 -3.25783 0
M  V30 2526 H 246.306 4.14314 -1.5426 0
M  V30 2527 N 245.365 1.30045 0.890287 0
M  V30 2528 C 246.781 1.08261 1.17268 0
M  V30 2529 C 246.981 -0.160063 2.00863 0
M  V30 2530 O 246.037 -0.855181 2.37577 0
M  V30 2531 C 247.35 2.34323 1.8845 0
M  V30 2532 C 248.898 2.39735 2.01237 0
M  V30 2533 C 249.373 3.65625 2.7583 0
M  V30 2534 N 250.864 3.66402 2.83379 0
M  V30 2535 C 251.599 4.60498 3.41657 0
M  V30 2536 N 251.095 5.64933 4.01026 0
M  V30 2537 N 252.888 4.48051 3.39421 0
M  V30 2538 H 245.039 2.09777 0.332762 0
M  V30 2539 H 247.302 0.92446 0.209948 0
M  V30 2540 H 247.008 3.2498 1.34465 0
M  V30 2541 H 246.882 2.4256 2.88867 0
M  V30 2542 H 249.269 1.4956 2.54393 0
M  V30 2543 H 249.35 2.35476 0.999232 0
M  V30 2544 H 248.994 4.56156 2.23347 0
M  V30 2545 H 248.924 3.67144 3.77509 0
M  V30 2546 H 251.415 2.90896 2.41222 0
M  V30 2547 H 251.728 6.32841 4.43545 0
M  V30 2548 H 250.073 5.68732 3.99461 0
M  V30 2549 H 253.264 3.65649 2.92264 0
M  V30 2550 H 253.437 5.21565 3.84544 0
M  V30 2551 N 246.843 -1.10192 1.12674 0
M  V30 2552 C 248.259 -1.34235 0.863317 0
M  V30 2553 C 248.459 -1.95062 -0.505277 0
M  V30 2554 O 247.515 -2.19192 -1.25345 0
M  V30 2555 C 248.828 -2.2616 1.98172 0
M  V30 2556 C 250.376 -2.3969 2.0129 0
M  V30 2557 C 250.851 -3.34946 3.1237 0
M  V30 2558 N 252.342 -3.42515 3.11829 0
M  V30 2559 C 253.077 -4.16199 3.94419 0
M  V30 2560 N 252.573 -4.92747 4.87004 0
M  V30 2561 N 254.366 -4.11843 3.82547 0
M  V30 2562 H 246.517 -0.690798 2.00853 0
M  V30 2563 H 248.78 -0.366774 0.874174 0
M  V30 2564 H 248.486 -1.8868 2.96804 0
M  V30 2565 H 248.36 -3.26488 1.88906 0
M  V30 2566 H 250.747 -2.76438 1.03276 0
M  V30 2567 H 250.828 -1.39169 2.14629 0
M  V30 2568 H 250.472 -2.98923 4.10619 0
M  V30 2569 H 250.402 -4.35353 2.96269 0
M  V30 2570 H 252.893 -2.87926 2.44759 0
M  V30 2571 H 253.206 -5.46376 5.46528 0
M  V30 2572 H 251.551 -4.91862 4.91016 0
M  V30 2573 H 254.742 -3.51136 3.0955 0
M  V30 2574 H 254.915 -4.69007 4.47142 0
M  V30 2575 N 248.321 -0.919034 -1.28029 0
M  V30 2576 C 249.737 -0.617972 -1.4715 0
M  V30 2577 C 249.937 0.835242 -1.83374 0
M  V30 2578 O 248.993 1.61388 -1.94191 0
M  V30 2579 C 250.306 -1.56041 -2.57044 0
M  V30 2580 C 251.854 -1.56769 -2.7091 0
M  V30 2581 C 252.329 -2.49688 -3.83953 0
M  V30 2582 N 253.82 -2.47845 -3.91314 0
M  V30 2583 C 254.555 -3.16437 -4.78179 0
M  V30 2584 N 254.051 -3.94376 -5.69596 0
M  V30 2585 N 255.844 -3.05498 -4.71834 0
M  V30 2586 H 247.995 -1.85866 -1.02798 0
M  V30 2587 H 250.258 -0.797506 -0.512531 0
M  V30 2588 H 249.964 -2.59671 -2.372 0
M  V30 2589 H 249.838 -1.29551 -3.54255 0
M  V30 2590 H 252.225 -0.538745 -2.90141 0
M  V30 2591 H 252.306 -1.87305 -1.74214 0
M  V30 2592 H 251.95 -3.52688 -3.65477 0
M  V30 2593 H 251.88 -2.16453 -4.80058 0
M  V30 2594 H 254.371 -1.91234 -3.25941 0
M  V30 2595 H 254.684 -4.43721 -6.32718 0
M  V30 2596 H 253.029 -3.98481 -5.69419 0
M  V30 2597 H 256.22 -2.44108 -3.99411 0
M  V30 2598 H 256.393 -3.59225 -5.39316 0
M  V30 2599 N 249.799 1.42003 -0.683588 0
M  V30 2600 C 251.045 2.01712 -0.209825 0
M  V30 2601 C 251.378 1.53968 1.18353 0
M  V30 2602 O 250.653 0.745661 1.79639 0
M  V30 2603 C 250.936 3.59202 -0.254197 0
M  V30 2604 C 250.789 4.17102 -1.68363 0
M  V30 2605 C 252.108 4.38344 0.392709 0
M  V30 2606 H 249.227 0.732891 -0.0777189 0
M  V30 2607 H 251.869 1.68909 -0.87004 0
M  V30 2608 H 250.019 3.87278 0.307954 0
M  V30 2609 H 251.691 3.99946 -2.29871 0
M  V30 2610 H 249.934 3.72597 -2.22157 0
M  V30 2611 H 250.605 5.26249 -1.6663 0
M  V30 2612 H 253.081 4.16011 -0.0859162 0
M  V30 2613 H 251.957 5.47901 0.331063 0
M  V30 2614 H 252.218 4.16887 1.47164 0
M  V30 2615 N 251.277 0.427512 1.51691 0
M  V30 2616 C 252.502 -0.143601 2.06902 0
M  V30 2617 C 252.927 -1.36536 1.29382 0
M  V30 2618 O 252.285 -1.78289 0.329043 0
M  V30 2619 C 252.333 -0.454207 3.57728 0
M  V30 2620 O 251.437 -1.54228 3.82475 0
M  V30 2621 H 250.778 -0.00617128 0.663971 0
M  V30 2622 H 253.308 0.606014 1.95419 0
M  V30 2623 H 253.318 -0.707525 4.01818 0
M  V30 2624 H 251.993 0.438812 4.13579 0
M  V30 2625 H 250.57 -1.2797 3.50254 0
M  V30 2626 N 252.755 -1.56801 0.158532 0
M  V30 2627 C 254.001 -1.96781 -0.490405 0
M  V30 2628 C 254.334 -1.04397 -1.63753 0
M  V30 2629 O 253.609 -0.0885805 -1.94298 0
M  V30 2630 C 253.892 -3.4635 -0.985594 0
M  V30 2631 C 253.745 -4.49512 0.160824 0
M  V30 2632 C 255.064 -3.98697 -1.86355 0
M  V30 2633 H 252.183 -0.715482 -0.176788 0
M  V30 2634 H 254.825 -1.88451 0.242088 0
M  V30 2635 H 252.975 -3.53579 -1.60978 0
M  V30 2636 H 254.647 -4.54353 0.797537 0
M  V30 2637 H 252.89 -4.26013 0.818256 0
M  V30 2638 H 253.561 -5.51531 -0.227569 0
M  V30 2639 H 256.037 -3.94019 -1.33746 0
M  V30 2640 H 254.913 -5.03792 -2.17909 0
M  V30 2641 H 255.174 -3.41744 -2.8047 0
M  V30 2642 N 254.233 0.115231 -1.57178 0
M  V30 2643 C 255.644 0.67197 -1.74188 0
M  V30 2644 C 255.995 1.80125 -0.777777 0
M  V30 2645 O 255.12 2.16346 0.0484376 0
M  V30 2646 C 255.715 1.22573 -3.1585 0
M  V30 2647 C 254.274 1.72872 -3.34353 0
M  V30 2648 C 253.421 0.629972 -2.70049 0
M  V30 2649 H 256.372 -0.110712 -1.58313 0
M  V30 2650 H 256.393 2.09535 -3.17609 0
M  V30 2651 H 255.905 0.403598 -3.85996 0
M  V30 2652 H 254.006 2.5755 -2.69256 0
M  V30 2653 H 254.119 1.83557 -4.42542 0
M  V30 2654 H 252.483 1.0645 -2.31388 0
M  V30 2655 H 253.266 -0.181241 -3.42821 0
M  V30 2656 N 255.711 1.52812 0.385517 0
M  V30 2657 C 256.96 1.67249 1.12741 0
M  V30 2658 C 257.273 0.4205 1.91027 0
M  V30 2659 O 258.479 0.445064 2.67827 0
M  V30 2660 C 256.935 2.95583 2.05326 0
M  V30 2661 C 256.543 4.27974 1.32447 0
M  V30 2662 C 258.287 3.19386 2.7963 0
M  V30 2663 C 256.194 5.47412 2.23818 0
M  V30 2664 H 255.124 0.6231 0.424573 0
M  V30 2665 H 257.775 1.79309 0.389924 0
M  V30 2666 H 256.157 2.77277 2.82725 0
M  V30 2667 H 257.331 4.56844 0.602495 0
M  V30 2668 H 255.646 4.10459 0.700885 0
M  V30 2669 H 258.243 4.05801 3.48181 0
M  V30 2670 H 258.586 2.34604 3.43899 0
M  V30 2671 H 259.119 3.38274 2.09322 0
M  V30 2672 H 255.858 6.34612 1.64157 0
M  V30 2673 H 255.378 5.22849 2.93921 0
M  V30 2674 H 257.057 5.81423 2.83824 0
M  V30 2675 N 257.189 -0.644168 1.43834 0
M  V30 2676 C 258.152 -1.73857 1.49353 0
M  V30 2677 C 259.152 -1.56315 0.377112 0
M  V30 2678 O 260.342 -1.62048 0.639226 0
M  V30 2679 C 257.474 -3.12819 1.35488 0
M  V30 2680 H 258.667 -1.70342 2.46827 0
M  V30 2681 H 256.22 -0.856652 1.30733 0
M  V30 2682 H 256.955 -3.2194 0.390569 0
M  V30 2683 H 256.74 -3.26958 2.16428 0
M  V30 2684 H 258.23 -3.92606 1.42302 0
M  V30 2685 N 258.668 -1.30515 -0.883378 0
M  V30 2686 C 259.631 -1.1701 -1.97082 0
M  V30 2687 C 260.631 -0.10089 -1.60483 0
M  V30 2688 O 261.821 -0.349127 -1.70666 0
M  V30 2689 C 258.953 -0.793045 -3.31547 0
M  V30 2690 H 260.146 -2.13622 -2.10489 0
M  V30 2691 H 257.699 -1.13935 -1.06998 0
M  V30 2692 H 258.434 0.172499 -3.23841 0
M  V30 2693 H 258.219 -1.56576 -3.5948 0
M  V30 2694 H 259.709 -0.722073 -4.1131 0
M  V30 2695 N 260.146 1.09593 -1.13257 0
M  V30 2696 C 261.423 1.78293 -0.804432 0
M  V30 2697 C 261.803 1.99004 0.70431 0
M  V30 2698 O 261.151 1.59007 1.641 0
M  V30 2699 C 261.361 3.10707 -1.5894 0
M  V30 2700 C 262.709 3.85443 -1.78099 0
M  V30 2701 O 263.733 3.20454 -1.55525 0
M  V30 2702 O 262.592 5.02108 -2.15753 0
M  V30 2703 H 259.686 0.773156 -0.293528 0
M  V30 2704 H 262.232 1.16164 -1.23709 0
M  V30 2705 H 261.004 2.91106 -2.61482 0
M  V30 2706 H 260.627 3.80558 -1.15157 0
M  V30 2707 N 261.624 0.925811 1.2754 0
M  V30 2708 C 262.534 0.428993 2.30644 0
M  V30 2709 C 263.55 -0.489387 1.66976 0
M  V30 2710 O 264.726 -0.372653 1.97922 0
M  V30 2711 C 261.791 -0.311967 3.45294 0
M  V30 2712 C 260.852 0.641098 4.24486 0
M  V30 2713 C 260.085 -0.0645955 5.33661 0
M  V30 2714 O 260.308 -1.28429 5.55754 0
M  V30 2715 O 259.242 0.606265 5.98839 0
M  V30 2716 H 263.068 1.28504 2.75173 0
M  V30 2717 H 260.653 0.691086 1.32455 0
M  V30 2718 H 262.535 -0.729972 4.15029 0
M  V30 2719 H 261.21 -1.14365 3.02824 0
M  V30 2720 H 260.117 1.10874 3.57292 0
M  V30 2721 H 261.45 1.43995 4.70666 0
M  V30 2722 N 263.102 -1.41638 0.69111 0
M  V30 2723 C 264.327 -2.06148 0.227583 0
M  V30 2724 C 264.752 -1.51652 -1.11281 0
M  V30 2725 O 264.11 -0.64164 -1.69566 0
M  V30 2726 C 264.158 -3.60095 0.190858 0
M  V30 2727 O 263.262 -4.03845 -0.835664 0
M  V30 2728 H 262.603 -0.654434 0.112306 0
M  V30 2729 H 265.133 -1.81484 0.944714 0
M  V30 2730 H 265.143 -4.07995 0.020207 0
M  V30 2731 H 263.818 -3.99129 1.16915 0
M  V30 2732 H 262.395 -3.67458 -0.63473 0
M  V30 2733 N 264.58 -0.43555 -1.51462 0
M  V30 2734 C 265.829 0.133007 -2.01261 0
M  V30 2735 C 266.142 1.43942 -1.32439 0
M  V30 2736 O 267.348 2.09081 -1.73198 0
M  V30 2737 C 265.804 0.287581 -3.58749 0
M  V30 2738 C 265.412 -1.00829 -4.36506 0
M  V30 2739 C 267.156 0.810004 -4.167 0
M  V30 2740 C 265.063 -0.819454 -5.85695 0
M  V30 2741 H 263.993 0.0534822 -0.752101 0
M  V30 2742 H 266.644 -0.565038 -1.74584 0
M  V30 2743 H 265.026 1.04859 -3.81865 0
M  V30 2744 H 266.2 -1.77749 -4.25138 0
M  V30 2745 H 264.515 -1.45911 -3.89999 0
M  V30 2746 H 267.112 0.967743 -5.2587 0
M  V30 2747 H 267.455 1.79196 -3.75758 0
M  V30 2748 H 267.988 0.107357 -3.97655 0
M  V30 2749 H 264.727 -1.77374 -6.31046 0
M  V30 2750 H 264.247 -0.0900208 -5.99732 0
M  V30 2751 H 265.926 -0.471949 -6.45276 0
M  V30 2752 N 266.058 1.56714 -0.166846 0
M  V30 2753 C 267.474 1.58473 0.189372 0
M  V30 2754 C 267.674 1.18201 1.63189 0
M  V30 2755 O 266.73 0.891528 2.36237 0
M  V30 2756 C 268.043 3.00573 -0.0873872 0
M  V30 2757 C 269.591 3.1299 -0.0252443 0
M  V30 2758 C 270.066 4.57174 -0.274934 0
M  V30 2759 N 271.557 4.62665 -0.222553 0
M  V30 2760 C 272.292 5.72072 -0.389985 0
M  V30 2761 N 271.788 6.90054 -0.616229 0
M  V30 2762 N 273.581 5.61153 -0.326202 0
M  V30 2763 H 265.732 1.8118 -1.10849 0
M  V30 2764 H 267.995 0.839525 -0.440342 0
M  V30 2765 H 267.701 3.34497 -1.0865 0
M  V30 2766 H 267.575 3.72019 0.623037 0
M  V30 2767 H 269.962 2.78895 0.96444 0
M  V30 2768 H 270.043 2.43989 -0.768309 0
M  V30 2769 H 269.687 4.91976 -1.26181 0
M  V30 2770 H 269.617 5.24328 0.48869 0
M  V30 2771 H 272.108 3.77863 -0.0531512 0
M  V30 2772 H 272.421 7.69311 -0.733559 0
M  V30 2773 H 270.766 6.91927 -0.652791 0
M  V30 2774 H 273.957 4.67859 -0.150072 0
M  V30 2775 H 274.13 6.46364 -0.460116 0
M  V30 2776 N 267.536 -0.106894 1.57237 0
M  V30 2777 C 268.952 -0.46078 1.52804 0
M  V30 2778 C 269.152 -1.81184 0.881746 0
M  V30 2779 O 268.208 -2.48102 0.469224 0
M  V30 2780 C 269.521 -0.434127 2.9755 0
M  V30 2781 C 271.069 -0.516821 3.08704 0
M  V30 2782 C 271.544 -0.520436 4.55033 0
M  V30 2783 N 273.035 -0.58153 4.59535 0
M  V30 2784 C 273.77 -0.605973 5.70189 0
M  V30 2785 N 273.266 -0.587331 6.90306 0
M  V30 2786 N 275.059 -0.649895 5.5833 0
M  V30 2787 H 267.21 0.778203 1.9763 0
M  V30 2788 H 269.473 0.288403 0.903066 0
M  V30 2789 H 269.179 0.491197 3.48253 0
M  V30 2790 H 269.053 -1.25748 3.55622 0
M  V30 2791 H 271.44 -1.43256 2.57995 0
M  V30 2792 H 271.521 0.334449 2.53604 0
M  V30 2793 H 271.165 0.391313 5.0639 0
M  V30 2794 H 271.095 -1.38876 5.07958 0
M  V30 2795 H 273.586 -0.60161 3.73081 0
M  V30 2796 H 273.899 -0.60894 7.70397 0
M  V30 2797 H 272.244 -0.554564 6.92784 0
M  V30 2798 H 275.435 -0.661907 4.63397 0
M  V30 2799 H 275.608 -0.665476 6.44574 0
M  V30 2800 N 269.014 -1.53014 -0.377408 0
M  V30 2801 C 269.977 -1.77957 -1.44444 0
M  V30 2802 C 270.977 -0.649763 -1.47087 0
M  V30 2803 O 272.167 -0.917897 -1.48055 0
M  V30 2804 C 269.299 -1.89089 -2.83651 0
M  V30 2805 H 270.492 -2.73243 -1.23606 0
M  V30 2806 H 268.045 -1.43912 -0.609844 0
M  V30 2807 H 268.78 -0.958293 -3.09818 0
M  V30 2808 H 268.565 -2.71254 -2.83132 0
M  V30 2809 H 270.055 -2.1002 -3.60945 0
M  V30 2810 N 270.492 0.636531 -1.44174 0
M  V30 2811 C 271.402 1.77754 -1.53103 0
M  V30 2812 C 272.418 1.68928 -0.417034 0
M  V30 2813 O 273.594 1.89801 -0.6736 0
M  V30 2814 C 270.659 3.14115 -1.46741 0
M  V30 2815 C 269.72 3.34612 -2.68948 0
M  V30 2816 C 268.953 4.64467 -2.6288 0
M  V30 2817 O 269.176 5.44919 -1.68581 0
M  V30 2818 O 268.11 4.87049 -3.53648 0
M  V30 2819 H 271.936 1.73174 -2.49489 0
M  V30 2820 H 269.521 0.79709 -1.2636 0
M  V30 2821 H 271.403 3.95412 -1.45696 0
M  V30 2822 H 270.078 3.19249 -0.534975 0
M  V30 2823 H 268.985 2.53014 -2.75562 0
M  V30 2824 H 270.318 3.34336 -3.61221 0
M  V30 2825 N 271.97 1.30982 0.876444 0
M  V30 2826 C 273.247 1.10942 1.61094 0
M  V30 2827 C 273.627 -0.338223 2.08373 0
M  V30 2828 O 272.975 -1.33122 1.85717 0
M  V30 2829 C 273.185 2.11789 2.77392 0
M  V30 2830 C 274.533 2.43965 3.47514 0
M  V30 2831 O 275.557 2.10166 2.87591 0
M  V30 2832 O 274.416 3.01817 4.55597 0
M  V30 2833 H 271.51 0.42667 0.708436 0
M  V30 2834 H 274.056 1.42438 0.922474 0
M  V30 2835 H 272.828 3.09194 2.39823 0
M  V30 2836 H 272.451 1.81161 3.5393 0
M  V30 2837 N 273.449 -1.08991 1.13837 0
M  V30 2838 C 274.86 -1.62746 0.914917 0
M  V30 2839 C 275.211 -1.88403 -0.547594 0
M  V30 2840 O 274.336 -1.63706 -1.41525 0
M  V30 2841 C 274.931 -2.95662 1.65437 0
M  V30 2842 C 273.49 -3.46225 1.47666 0
M  V30 2843 C 272.637 -2.20562 1.6807 0
M  V30 2844 H 275.588 -0.922946 1.29102 0
M  V30 2845 H 275.609 -3.63825 1.11407 0
M  V30 2846 H 275.121 -2.76956 2.71877 0
M  V30 2847 H 273.222 -3.70046 0.435478 0
M  V30 2848 H 273.335 -4.23368 2.24268 0
M  V30 2849 H 271.699 -2.29439 1.10589 0
M  V30 2850 H 272.482 -2.0437 2.7584 0
M  V30 2851 N 274.927 -0.932562 -1.27047 0
M  V30 2852 C 275.857 -0.452902 -2.29066 0
M  V30 2853 C 276.838 0.489338 -1.62909 0
M  V30 2854 O 278.023 0.393046 -1.90181 0
M  V30 2855 C 275.153 0.290698 -3.46081 0
M  V30 2856 C 274.107 -0.564168 -4.24265 0
M  V30 2857 C 273.433 0.308886 -5.33807 0
M  V30 2858 C 274.733 -1.83112 -4.89149 0
M  V30 2859 H 276.427 -1.30552 -2.69437 0
M  V30 2860 H 273.973 -0.629201 -1.29526 0
M  V30 2861 H 275.926 0.637233 -4.16554 0
M  V30 2862 H 274.65 1.17738 -3.0464 0
M  V30 2863 H 273.309 -0.893477 -3.55545 0
M  V30 2864 H 272.957 1.19467 -4.88607 0
M  V30 2865 H 272.657 -0.259633 -5.87026 0
M  V30 2866 H 274.181 0.650884 -6.07121 0
M  V30 2867 H 275.595 -1.55236 -5.51883 0
M  V30 2868 H 273.992 -2.34353 -5.52448 0
M  V30 2869 H 275.062 -2.54772 -4.12576 0
M  V30 2870 N 276.405 1.4127 -0.698611 0
M  V30 2871 C 277.821 1.55241 -0.370462 0
M  V30 2872 C 278.021 1.67351 1.12231 0
M  V30 2873 O 277.077 1.65363 1.90818 0
M  V30 2874 C 278.39 2.78997 -1.12165 0
M  V30 2875 C 279.938 2.92797 -1.1063 0
M  V30 2876 C 280.413 4.19445 -1.8393 0
M  V30 2877 N 281.904 4.26409 -1.80914 0
M  V30 2878 C 282.639 5.23271 -2.34467 0
M  V30 2879 N 282.135 6.26145 -2.96504 0
M  V30 2880 N 283.928 5.15232 -2.24706 0
M  V30 2881 H 276.079 1.31654 -1.66676 0
M  V30 2882 H 278.342 0.635393 -0.703548 0
M  V30 2883 H 278.048 2.76268 -2.17644 0
M  V30 2884 H 277.922 3.70606 -0.702209 0
M  V30 2885 H 280.309 2.95039 -0.0597713 0
M  V30 2886 H 280.39 2.02353 -1.56483 0
M  V30 2887 H 280.034 4.17964 -2.88563 0
M  V30 2888 H 279.964 5.08866 -1.35509 0
M  V30 2889 H 282.455 3.527 -1.35687 0
M  V30 2890 H 282.768 6.96451 -3.34927 0
M  V30 2891 H 281.113 6.26638 -3.00583 0
M  V30 2892 H 284.304 4.33789 -1.7591 0
M  V30 2893 H 284.477 5.90552 -2.66745 0
M  V30 2894 N 277.883 0.443576 1.51229 0
M  V30 2895 C 279.129 -0.120975 2.02439 0
M  V30 2896 C 279.462 -1.41815 1.32674 0
M  V30 2897 O 278.737 -1.89373 0.443622 0
M  V30 2898 C 279.02 -0.333291 3.58554 0
M  V30 2899 C 278.873 0.982968 4.38928 0
M  V30 2900 C 280.192 -1.10028 4.26124 0
M  V30 2901 H 277.311 -0.0424923 0.735774 0
M  V30 2902 H 279.953 0.583794 1.80809 0
M  V30 2903 H 278.103 -0.933614 3.77115 0
M  V30 2904 H 279.775 1.61775 4.32003 0
M  V30 2905 H 278.018 1.58611 4.03763 0
M  V30 2906 H 278.689 0.788379 5.46341 0
M  V30 2907 H 281.165 -0.591711 4.11871 0
M  V30 2908 H 280.041 -1.21761 5.35225 0
M  V30 2909 H 280.302 -2.12996 3.87408 0
M  V30 2910 N 279.361 -1.56624 0.175154 0
M  V30 2911 C 280.777 -1.58571 -0.180966 0
M  V30 2912 C 280.977 -1.19065 -1.6256 0
M  V30 2913 O 280.033 -0.904044 -2.35761 0
M  V30 2914 C 281.346 -3.00522 0.103326 0
M  V30 2915 C 282.894 -3.12972 0.0418426 0
M  V30 2916 C 283.369 -4.57022 0.299175 0
M  V30 2917 N 284.86 -4.62541 0.247086 0
M  V30 2918 C 285.595 -5.71857 0.420318 0
M  V30 2919 N 285.091 -6.89717 0.652816 0
M  V30 2920 N 286.884 -5.60972 0.355957 0
M  V30 2921 H 279.035 -1.80589 1.11809 0
M  V30 2922 H 281.298 -0.837178 0.444788 0
M  V30 2923 H 281.004 -3.33916 1.10422 0
M  V30 2924 H 280.878 -3.72344 -0.603299 0
M  V30 2925 H 283.265 -2.79403 -0.949636 0
M  V30 2926 H 283.346 -2.43578 0.781238 0
M  V30 2927 H 282.99 -4.913 1.28788 0
M  V30 2928 H 282.92 -5.24579 -0.460876 0
M  V30 2929 H 285.411 -3.77829 0.0731895 0
M  V30 2930 H 285.724 -7.68911 0.774347 0
M  V30 2931 H 284.069 -6.91572 0.689476 0
M  V30 2932 H 287.26 -4.67773 0.174882 0
M  V30 2933 H 287.433 -6.46111 0.494388 0
M  V30 2934 N 280.839 0.0985539 -1.57292 0
M  V30 2935 C 282.116 0.834155 -1.76921 0
M  V30 2936 C 282.496 1.97101 -0.755928 0
M  V30 2937 O 281.844 2.27474 0.216245 0
M  V30 2938 C 282.054 1.33194 -3.22584 0
M  V30 2939 C 283.402 1.77611 -3.85668 0
M  V30 2940 O 284.426 1.42825 -3.26312 0
M  V30 2941 O 283.285 2.4192 -4.90038 0
M  V30 2942 H 280.379 0.397628 -0.725135 0
M  V30 2943 H 282.925 0.0807044 -1.69508 0
M  V30 2944 H 281.697 0.517248 -3.87866 0
M  V30 2945 H 281.32 2.1475 -3.34616 0
M  V30 2946 N 282.317 1.53212 0.369288 0
M  V30 2947 C 283.28 1.7872 1.43498 0
M  V30 2948 C 284.28 0.657554 1.46741 0
M  V30 2949 O 285.47 0.925736 1.47566 0
M  V30 2950 C 282.602 1.90591 2.82645 0
M  V30 2951 H 283.795 2.73894 1.22156 0
M  V30 2952 H 281.348 1.44233 0.602203 0
M  V30 2953 H 282.083 0.974709 3.09306 0
M  V30 2954 H 281.868 2.72751 2.8169 0
M  V30 2955 H 283.358 2.11931 3.59826 0
M  V30 2956 N 283.795 -0.628877 1.44509 0
M  V30 2957 C 284.705 -1.7694 1.54044 0
M  V30 2958 C 285.721 -1.68705 0.425987 0
M  V30 2959 O 286.897 -1.89442 0.683656 0
M  V30 2960 C 283.962 -3.13332 1.48405 0
M  V30 2961 C 283.023 -3.33181 2.70719 0
M  V30 2962 C 282.256 -4.63067 2.6534 0
M  V30 2963 O 282.479 -5.44017 1.71469 0
M  V30 2964 O 281.413 -4.85167 3.56226 0
M  V30 2965 H 285.239 -1.71848 2.50403 0
M  V30 2966 H 282.824 -0.790378 1.26781 0
M  V30 2967 H 284.706 -3.94634 1.47791 0
M  V30 2968 H 283.381 -3.1896 0.551898 0
M  V30 2969 H 282.288 -2.51549 2.769 0
M  V30 2970 H 283.621 -3.32416 3.62988 0
M  V30 2971 N 285.273 -1.31445 -0.869486 0
M  V30 2972 C 286.236 -1.19094 -1.9583 0
M  V30 2973 C 287.236 -0.117906 -1.60367 0
M  V30 2974 O 288.426 -0.367208 -1.70286 0
M  V30 2975 C 285.558 -0.828165 -3.30688 0
M  V30 2976 H 286.751 -2.15842 -2.08212 0
M  V30 2977 H 284.304 -1.15063 -1.05784 0
M  V30 2978 H 285.039 0.138142 -3.24006 0
M  V30 2979 H 284.824 -1.6038 -3.578 0
M  V30 2980 H 286.314 -0.765658 -4.10521 0
M  V30 2981 N 286.751 1.08385 -1.14413 0
M  V30 2982 C 287.714 2.13486 -0.834048 0
M  V30 2983 C 288.714 1.59988 0.161418 0
M  V30 2984 O 289.904 1.74071 -0.0669575 0
M  V30 2985 C 287.036 3.4003 -0.243354 0
M  V30 2986 H 288.229 2.42425 -1.7655 0
M  V30 2987 H 285.782 1.24101 -0.950189 0
M  V30 2988 H 286.517 3.16726 0.696807 0
M  V30 2989 H 286.302 3.80157 -0.960367 0
M  V30 2990 H 287.792 4.17577 -0.0436242 0
M  V30 2991 N 288.23 0.939286 1.26551 0
M  V30 2992 C 289.507 0.5038 1.89001 0
M  V30 2993 C 289.887 -1.01854 1.84903 0
M  V30 2994 O 289.235 -1.87773 1.30206 0
M  V30 2995 C 289.445 1.063 3.32417 0
M  V30 2996 C 290.793 1.13051 4.09273 0
M  V30 2997 O 291.817 1.01345 3.41479 0
M  V30 2998 O 290.676 1.31233 5.30509 0
M  V30 2999 H 287.77 0.163897 0.810597 0
M  V30 3000 H 290.316 1.03173 1.34735 0
M  V30 3001 H 289.088 2.10665 3.29752 0
M  V30 3002 H 288.711 0.517408 3.94219 0
M  V30 3003 N 289.708 -1.40897 0.706093 0
M  V30 3004 C 290.954 -2.01352 0.241889 0
M  V30 3005 C 291.287 -1.55832 -1.15888 0
M  V30 3006 O 290.562 -0.774145 -1.7843 0
M  V30 3007 C 290.845 -3.58752 0.311311 0
M  V30 3008 C 290.698 -4.1437 1.74978 0
M  V30 3009 C 292.017 -4.38914 -0.322922 0
M  V30 3010 H 289.136 -0.731562 0.0893687 0
M  V30 3011 H 291.778 -1.67504 0.896802 0
M  V30 3012 H 289.928 -3.87718 -0.246302 0
M  V30 3013 H 291.6 -3.96239 2.36205 0
M  V30 3014 H 289.843 -3.69016 2.28057 0
M  V30 3015 H 290.514 -5.23532 1.74981 0
M  V30 3016 H 292.99 -4.15822 0.152089 0
M  V30 3017 H 291.866 -5.48358 -0.243855 0
M  V30 3018 H 292.127 -4.19176 -1.40513 0
M  V30 3019 N 291.186 -0.45159 -1.50991 0
M  V30 3020 C 292.432 0.110237 -2.025 0
M  V30 3021 C 292.765 1.41109 -1.33424 0
M  V30 3022 O 292.04 1.89135 -0.453659 0
M  V30 3023 C 292.323 0.314271 -3.58726 0
M  V30 3024 C 292.176 -1.00623 -4.38401 0
M  V30 3025 C 293.495 1.07767 -4.26702 0
M  V30 3026 H 290.614 0.0385897 -0.735989 0
M  V30 3027 H 293.256 -0.593374 -1.80497 0
M  V30 3028 H 291.406 0.913601 -3.77605 0
M  V30 3029 H 293.078 -1.64064 -4.31139 0
M  V30 3030 H 291.321 -1.6075 -4.02917 0
M  V30 3031 H 291.992 -0.817341 -5.45915 0
M  V30 3032 H 294.468 0.56986 -4.12179 0
M  V30 3033 H 293.344 1.18921 -5.35863 0
M  V30 3034 H 293.605 2.10939 -3.88532 0
M  V30 3035 N 292.664 1.56529 -0.183458 0
M  V30 3036 C 293.91 1.97537 0.459036 0
M  V30 3037 C 294.243 1.06989 1.62071 0
M  V30 3038 O 293.518 0.11948 1.94133 0
M  V30 3039 C 293.801 3.47874 0.930368 0
M  V30 3040 C 293.654 4.492 -0.232317 0
M  V30 3041 C 294.973 4.01612 1.79989 0
M  V30 3042 H 292.092 0.718204 0.165383 0
M  V30 3043 H 294.734 1.88042 -0.272038 0
M  V30 3044 H 292.884 3.56095 1.55333 0
M  V30 3045 H 294.556 4.53027 -0.86972 0
M  V30 3046 H 292.799 4.24657 -0.885928 0
M  V30 3047 H 293.47 5.51823 0.139796 0
M  V30 3048 H 295.946 3.96097 1.27461 0
M  V30 3049 H 294.822 5.07195 2.09867 0
M  V30 3050 H 295.083 3.46163 2.74998 0
M  V30 3051 N 294.142 -0.090211 1.57342 0
M  V30 3052 C 295.072 -1.10976 2.05443 0
M  V30 3053 C 296.053 -1.41482 0.944284 0
M  V30 3054 O 297.238 -1.51428 1.21586 0
M  V30 3055 C 294.368 -2.42831 2.48295 0
M  V30 3056 C 293.322 -2.26721 3.63018 0
M  V30 3057 C 292.648 -3.63796 3.91863 0
M  V30 3058 C 293.948 -1.7037 4.93732 0
M  V30 3059 H 295.642 -0.709564 2.9087 0
M  V30 3060 H 293.188 -0.339874 1.39932 0
M  V30 3061 H 295.141 -3.14431 2.80555 0
M  V30 3062 H 293.865 -2.84795 1.59873 0
M  V30 3063 H 292.524 -1.57565 3.31012 0
M  V30 3064 H 292.172 -4.03297 3.00601 0
M  V30 3065 H 291.872 -3.53861 4.69101 0
M  V30 3066 H 293.396 -4.36855 4.26603 0
M  V30 3067 H 294.81 -2.31816 5.24342 0
M  V30 3068 H 293.207 -1.71181 5.75167 0
M  V30 3069 H 294.277 -0.663542 4.80339 0
M  V30 3070 N 295.62 -1.53406 -0.361157 0
M  V30 3071 C 296.567 -1.80156 -1.44265 0
M  V30 3072 C 297.537 -0.646183 -1.53015 0
M  V30 3073 O 298.722 -0.888818 -1.68833 0
M  V30 3074 C 295.862 -2.00116 -2.81154 0
M  V30 3075 C 294.975 -3.27833 -2.81335 0
M  V30 3076 C 294.11 -3.37957 -4.09828 0
M  V30 3077 C 293.149 -4.59689 -4.04168 0
M  V30 3078 N 292.286 -4.66942 -5.24318 0
M  V30 3079 H 297.126 -2.72438 -1.20754 0
M  V30 3080 H 294.663 -1.34954 -0.585296 0
M  V30 3081 H 296.621 -2.09677 -3.60682 0
M  V30 3082 H 295.251 -1.11167 -3.03054 0
M  V30 3083 H 294.303 -3.27204 -1.94014 0
M  V30 3084 H 295.615 -4.17442 -2.73027 0
M  V30 3085 H 294.769 -3.46853 -4.97773 0
M  V30 3086 H 293.508 -2.46372 -4.20894 0
M  V30 3087 H 292.513 -4.50889 -3.14609 0
M  V30 3088 H 293.738 -5.5262 -3.947 0
M  V30 3089 H 291.684 -3.7826 -5.35962 0
M  V30 3090 H 291.601 -5.50462 -5.18197 0
M  V30 3091 H 292.869 -4.80127 -6.14084 0
M  V30 3092 N 297.098 0.621204 -1.44841 0
M  V30 3093 C 298.344 1.3826 -1.48365 0
M  V30 3094 C 298.677 1.93831 -0.119624 0
M  V30 3095 O 297.952 1.74251 0.864111 0
M  V30 3096 C 298.235 2.54058 -2.55199 0
M  V30 3097 C 298.088 2.03772 -4.00995 0
M  V30 3098 C 299.407 3.56225 -2.58442 0
M  V30 3099 H 296.526 0.501374 -0.540179 0
M  V30 3100 H 299.168 0.7015 -1.76576 0
M  V30 3101 H 297.318 3.12162 -2.31274 0
M  V30 3102 H 298.99 1.50423 -4.36086 0
M  V30 3103 H 297.233 1.34876 -4.12299 0
M  V30 3104 H 297.904 2.87185 -4.71411 0
M  V30 3105 H 300.38 3.07939 -2.79844 0
M  V30 3106 H 299.256 4.34756 -3.3508 0
M  V30 3107 H 299.517 4.10949 -1.63013 0
M  V30 3108 N 298.576 1.31904 0.862503 0
M  V30 3109 C 299.508 1.16005 1.97675 0
M  V30 3110 C 300.521 0.0971234 1.6251 0
M  V30 3111 O 301.71 0.345337 1.75128 0
M  V30 3112 C 298.81 0.751791 3.30456 0
M  V30 3113 C 297.983 1.90133 3.93914 0
M  V30 3114 C 297.042 1.4779 5.05019 0
M  V30 3115 O 296.068 2.18872 5.25437 0
M  V30 3116 N 297.27 0.369491 5.79323 0
M  V30 3117 H 300.035 2.11982 2.11857 0
M  V30 3118 H 297.596 1.24337 1.03691 0
M  V30 3119 H 299.588 0.451084 4.02178 0
M  V30 3120 H 298.158 -0.116593 3.12382 0
M  V30 3121 H 297.378 2.36896 3.15078 0
M  V30 3122 H 298.666 2.67111 4.33047 0
M  V30 3123 H 298.064 -0.222299 5.65263 0
M  V30 3124 H 296.621 0.128354 6.51674 0
M  V30 3125 N 300.054 -1.07777 1.14986 0
M  V30 3126 C 301.465 -1.61766 0.932127 0
M  V30 3127 C 301.816 -1.88974 -0.527581 0
M  V30 3128 O 300.941 -1.65198 -1.39781 0
M  V30 3129 C 301.536 -2.93891 1.68563 0
M  V30 3130 C 300.095 -3.44639 1.5133 0
M  V30 3131 C 299.242 -2.18767 1.704 0
M  V30 3132 H 302.193 -0.909201 1.30074 0
M  V30 3133 H 302.214 -3.62623 1.15259 0
M  V30 3134 H 301.726 -2.74057 2.74799 0
M  V30 3135 H 299.827 -3.69564 0.474702 0
M  V30 3136 H 299.94 -4.20966 2.28746 0
M  V30 3137 H 298.304 -2.28253 1.13016 0
M  V30 3138 H 299.087 -2.01433 2.77992 0
M  V30 3139 N 301.532 -0.945985 -1.26051 0
M  V30 3140 C 302.462 -0.477172 -2.28572 0
M  V30 3141 C 303.443 0.472032 -1.63419 0
M  V30 3142 O 304.628 0.372853 -1.90587 0
M  V30 3143 C 301.758 0.253975 -3.4637 0
M  V30 3144 C 300.712 -0.609135 -4.23643 0
M  V30 3145 C 300.038 0.252252 -5.34105 0
M  V30 3146 C 301.338 -1.8829 -4.8718 0
M  V30 3147 H 303.032 -1.33402 -2.68038 0
M  V30 3148 H 300.578 -0.642904 -1.28852 0
M  V30 3149 H 302.531 0.593016 -4.17207 0
M  V30 3150 H 301.255 1.145 -3.05871 0
M  V30 3151 H 299.914 -0.931138 -3.54578 0
M  V30 3152 H 299.562 1.14278 -4.89846 0
M  V30 3153 H 299.262 -0.32188 -5.86718 0
M  V30 3154 H 300.786 0.586454 -6.07777 0
M  V30 3155 H 302.2 -1.61081 -5.50205 0
M  V30 3156 H 300.597 -2.40199 -5.49931 0
M  V30 3157 H 301.667 -2.59134 -4.09851 0
M  V30 3158 N 303.011 1.40521 -0.713556 0
M  V30 3159 C 304.259 2.00527 -0.251692 0
M  V30 3160 C 304.58 1.56857 1.15848 0
M  V30 3161 O 303.85 0.807127 1.785 0
M  V30 3162 H 302.43 0.741551 -0.0900646 0
M  V30 3163 H 305.092 1.71887 -0.918733 0
M  V30 3164 H 304.188 3.10813 -0.283192 0
M  V30 3165 N 304.489 0.459591 1.5075 0
M  V30 3166 C 305.737 -0.0991532 2.01857 0
M  V30 3167 C 306.058 -1.41247 1.34441 0
M  V30 3168 O 305.328 -1.89775 0.486022 0
M  V30 3169 H 303.908 -0.039633 0.745948 0
M  V30 3170 H 306.57 0.607387 1.85194 0
M  V30 3171 H 305.666 -0.258998 3.11023 0
M  V30 3172 N 305.967 -1.56429 0.191757 0
M  V30 3173 C 307.213 -1.97777 -0.448554 0
M  V30 3174 C 307.546 -1.07847 -1.61501 0
M  V30 3175 O 306.821 -0.129774 -1.94067 0
M  V30 3176 C 307.104 -3.48362 -0.911906 0
M  V30 3177 C 306.957 -4.4907 0.256136 0
M  V30 3178 C 308.276 -4.02561 -1.77857 0
M  V30 3179 H 305.395 -0.719071 -0.161572 0
M  V30 3180 H 308.037 -1.87896 0.282007 0
M  V30 3181 H 306.187 -3.56914 -1.53442 0
M  V30 3182 H 307.859 -4.5256 0.893733 0
M  V30 3183 H 306.102 -4.24181 0.908436 0
M  V30 3184 H 306.773 -5.51889 -0.11053 0
M  V30 3185 H 309.249 -3.96767 -1.25359 0
M  V30 3186 H 308.125 -5.08301 -2.07174 0
M  V30 3187 H 308.386 -3.47616 -2.73158 0
M  V30 3188 N 307.445 0.0818655 -1.57387 0
M  V30 3189 C 308.861 0.436412 -1.53517 0
M  V30 3190 C 309.061 1.79758 -0.910459 0
M  V30 3191 O 308.117 2.47324 -0.508636 0
M  V30 3192 C 309.43 0.386734 -2.98203 0
M  V30 3193 C 310.978 0.467644 -3.09487 0
M  V30 3194 C 311.453 0.447978 -4.55804 0
M  V30 3195 N 312.944 0.508348 -4.60402 0
M  V30 3196 C 313.679 0.515184 -5.71081 0
M  V30 3197 N 313.175 0.477435 -6.91153 0
M  V30 3198 N 314.968 0.560988 -5.59294 0
M  V30 3199 H 307.119 -0.809546 -1.96367 0
M  V30 3200 H 309.382 -0.302733 -0.898363 0
M  V30 3201 H 309.088 -0.546539 -3.47427 0
M  V30 3202 H 308.962 1.20075 -3.57578 0
M  V30 3203 H 311.349 1.39134 -2.60242 0
M  V30 3204 H 311.43 -0.374753 -2.5304 0
M  V30 3205 H 311.074 -0.471826 -5.05704 0
M  V30 3206 H 311.004 1.30777 -5.10103 0
M  V30 3207 H 313.495 0.54218 -3.7399 0
M  V30 3208 H 313.808 0.486299 -7.71268 0
M  V30 3209 H 312.153 0.444278 -6.93579 0
M  V30 3210 H 315.344 0.5881 -4.64391 0
M  V30 3211 H 315.517 0.562846 -6.45551 0
M  V30 3212 N 308.923 1.53595 0.353017 0
M  V30 3213 C 309.886 1.80232 1.41594 0
M  V30 3214 C 310.886 0.673081 1.46035 0
M  V30 3215 O 312.076 0.941335 1.46576 0
M  V30 3216 C 309.208 1.93578 2.80607 0
M  V30 3217 H 310.401 2.75174 1.19244 0
M  V30 3218 H 307.954 1.44864 0.586872 0
M  V30 3219 H 308.689 1.00746 3.08254 0
M  V30 3220 H 308.474 2.75724 2.78781 0
M  V30 3221 H 309.964 2.15735 3.57558 0
M  V30 3222 N 310.401 -0.613514 1.45168 0
M  V30 3223 C 311.364 -1.7065 1.53007 0
M  V30 3224 C 312.364 -1.5548 0.410184 0
M  V30 3225 O 313.554 -1.60656 0.673455 0
M  V30 3226 C 310.686 -3.09875 1.42093 0
M  V30 3227 H 311.879 -1.65068 2.50385 0
M  V30 3228 H 309.432 -0.828728 1.32521 0
M  V30 3229 H 310.167 -3.21039 0.458769 0
M  V30 3230 H 309.952 -3.22293 2.23315 0
M  V30 3231 H 311.442 -3.895 1.50598 0
M  V30 3232 N 311.879 -1.3236 -0.855495 0
M  V30 3233 C 312.809 -1.23833 -1.97958 0
M  V30 3234 C 313.79 -0.122361 -1.69659 0
M  V30 3235 O 314.975 -0.30939 -1.9172 0
M  V30 3236 C 312.105 -0.959772 -3.33775 0
M  V30 3237 C 311.059 -2.03689 -3.76424 0
M  V30 3238 C 310.385 -1.61075 -5.09862 0
M  V30 3239 C 311.685 -3.4518 -3.9198 0
M  V30 3240 H 313.379 -2.1788 -2.0535 0
M  V30 3241 H 310.925 -1.04891 -0.986605 0
M  V30 3242 H 312.878 -0.886678 -4.11966 0
M  V30 3243 H 311.602 0.0163404 -3.26596 0
M  V30 3244 H 310.261 -2.10012 -3.00484 0
M  V30 3245 H 309.909 -0.622107 -4.99138 0
M  V30 3246 H 309.609 -2.33143 -5.39368 0
M  V30 3247 H 311.133 -1.55201 -5.90546 0
M  V30 3248 H 312.547 -3.4145 -4.60526 0
M  V30 3249 H 310.944 -4.1559 -4.32903 0
M  V30 3250 H 312.014 -3.84903 -2.94919 0
M  V30 3251 N 313.357 1.07166 -1.15556 0
M  V30 3252 C 314.773 1.31899 -0.898603 0
M  V30 3253 C 314.973 1.96333 0.453383 0
M  V30 3254 O 314.029 2.22438 1.19489 0
M  V30 3255 C 315.342 2.20826 -2.04099 0
M  V30 3256 C 316.89 2.34269 -2.07574 0
M  V30 3257 C 317.365 3.26546 -3.21141 0
M  V30 3258 N 318.856 3.34127 -3.20801 0
M  V30 3259 C 319.591 4.05595 -4.05315 0
M  V30 3260 N 319.087 4.79661 -4.99897 0
M  V30 3261 N 320.88 4.01555 -3.93332 0
M  V30 3262 H 313.031 0.637302 -2.02613 0
M  V30 3263 H 315.294 0.343468 -0.883591 0
M  V30 3264 H 315 1.80744 -3.01703 0
M  V30 3265 H 314.874 3.21364 -1.97496 0
M  V30 3266 H 317.261 2.73603 -1.10568 0
M  V30 3267 H 317.342 1.33429 -2.18244 0
M  V30 3268 H 316.986 2.87931 -4.184 0
M  V30 3269 H 316.916 4.27345 -3.07708 0
M  V30 3270 H 319.407 2.81336 -2.52306 0
M  V30 3271 H 319.72 5.31694 -5.60822 0
M  V30 3272 H 318.065 4.78671 -5.03884 0
M  V30 3273 H 321.256 3.42806 -3.18751 0
M  V30 3274 H 321.429 4.56987 -4.5942 0
M  V30 3275 N 314.835 0.952656 1.25548 0
M  V30 3276 C 315.765 0.489287 2.28316 0
M  V30 3277 C 316.746 -0.463359 1.63667 0
M  V30 3278 O 317.931 -0.36274 1.90782 0
M  V30 3279 C 315.061 -0.235603 3.465 0
M  V30 3280 C 314.015 0.631593 4.23314 0
M  V30 3281 C 313.341 -0.223923 5.34231 0
M  V30 3282 C 314.641 1.90871 4.86174 0
M  V30 3283 H 316.335 1.34822 2.67326 0
M  V30 3284 H 313.881 0.649728 1.28509 0
M  V30 3285 H 315.834 -0.570882 4.17515 0
M  V30 3286 H 314.558 -1.12877 3.06474 0
M  V30 3287 H 313.217 0.949929 3.54079 0
M  V30 3288 H 312.865 -1.11678 4.90446 0
M  V30 3289 H 312.565 0.35299 5.86539 0
M  V30 3290 H 314.089 -0.554214 6.0808 0
M  V30 3291 H 315.503 1.63997 5.49343 0
M  V30 3292 H 313.9 2.43112 5.4865 0
M  V30 3293 H 314.97 2.61304 4.08471 0
M  V30 3294 N 316.313 -1.40141 0.720998 0
M  V30 3295 C 317.276 -2.29058 0.0805834 0
M  V30 3296 C 318.276 -1.45632 -0.681758 0
M  V30 3297 O 319.466 -1.6648 -0.512856 0
M  V30 3298 C 316.598 -3.28925 -0.895593 0
M  V30 3299 H 317.791 -2.87191 0.863793 0
M  V30 3300 H 315.344 -1.48553 0.485975 0
M  V30 3301 H 316.079 -2.75822 -1.70566 0
M  V30 3302 H 315.864 -3.90519 -0.351766 0
M  V30 3303 H 317.354 -3.95494 -1.34069 0
M  V30 3304 N 317.792 -0.46758 -1.50504 0
M  V30 3305 C 318.702 0.33382 -2.32213 0
M  V30 3306 C 319.718 0.999323 -1.42441 0
M  V30 3307 O 320.894 0.988068 -1.75497 0
M  V30 3308 C 317.959 1.4035 -3.17022 0
M  V30 3309 C 317.02 0.754961 -4.2261 0
M  V30 3310 C 316.253 1.77367 -5.03365 0
M  V30 3311 O 316.476 2.99976 -4.8515 0
M  V30 3312 O 315.41 1.34744 -5.86624 0
M  V30 3313 H 319.236 -0.334067 -3.01857 0
M  V30 3314 H 316.821 -0.229496 -1.47627 0
M  V30 3315 H 318.703 2.02318 -3.69656 0
M  V30 3316 H 317.378 2.05492 -2.5011 0
M  V30 3317 H 316.285 0.0964244 -3.73976 0
M  V30 3318 H 317.618 0.146545 -4.91982 0
M  V30 3319 N 319.27 1.56325 -0.20005 0
M  V30 3320 C 320.18 2.22931 0.730668 0
M  V30 3321 C 321.196 1.22997 1.23076 0
M  V30 3322 O 322.372 1.55748 1.27689 0
M  V30 3323 C 319.437 2.87948 1.93098 0
M  V30 3324 C 318.498 4.03166 1.47497 0
M  V30 3325 C 317.731 4.65073 2.61807 0
M  V30 3326 O 317.954 4.25913 3.79413 0
M  V30 3327 O 316.888 5.54452 2.34237 0
M  V30 3328 H 320.714 3.03084 0.193391 0
M  V30 3329 H 318.299 1.49371 0.0294621 0
M  V30 3330 H 320.181 3.29063 2.6324 0
M  V30 3331 H 318.856 2.10771 2.45677 0
M  V30 3332 H 317.763 3.66664 0.742201 0
M  V30 3333 H 319.096 4.82022 0.995796 0
M  V30 3334 N 320.748 -0.0735177 1.57428 0
M  V30 3335 C 321.988 -0.778363 1.89 0
M  V30 3336 C 322.352 -1.7483 0.793634 0
M  V30 3337 O 323.553 -2.49811 0.992367 0
M  V30 3338 C 321.824 -1.46929 3.25802 0
M  V30 3339 S 323.383 -2.20943 3.79117 0
M  V30 3340 H 320.201 -0.258874 0.662197 0
M  V30 3341 H 322.803 -0.0345338 1.95469 0
M  V30 3342 H 321.507 -0.749532 4.03497 0
M  V30 3343 H 321.038 -2.25258 3.22525 0
M  V30 3344 H 323.053 -3.47435 3.54265 0
M  V30 3345 N 322.226 -1.5378 -0.344866 0
M  V30 3346 C 323.474 -1.70625 -1.08311 0
M  V30 3347 C 323.795 -0.471447 -1.89215 0
M  V30 3348 O 323.065 0.514616 -1.8902 0
M  V30 3349 H 321.645 -0.629058 -0.402859 0
M  V30 3350 H 324.307 -1.9103 -0.386459 0
M  V30 3351 H 323.403 -2.57656 -1.76124 0
M  V30 3352 N 323.704 0.605807 -1.45491 0
M  V30 3353 C 324.634 1.72709 -1.57143 0
M  V30 3354 C 325.615 1.6476 -0.422884 0
M  V30 3355 O 326.8 1.83132 -0.646247 0
M  V30 3356 C 323.93 3.11316 -1.53948 0
M  V30 3357 C 322.884 3.34077 -2.67537 0
M  V30 3358 C 322.21 4.72975 -2.49397 0
M  V30 3359 C 323.51 3.24158 -4.09535 0
M  V30 3360 H 325.204 1.63214 -2.51001 0
M  V30 3361 H 322.75 0.78379 -1.208 0
M  V30 3362 H 324.703 3.89557 -1.60696 0
M  V30 3363 H 323.427 3.21655 -0.566205 0
M  V30 3364 H 322.086 2.58227 -2.6022 0
M  V30 3365 H 321.734 4.8005 -1.50205 0
M  V30 3366 H 321.434 4.8916 -3.25571 0
M  V30 3367 H 322.958 5.53414 -2.58002 0
M  V30 3368 H 324.372 3.92271 -4.18086 0
M  V30 3369 H 322.769 3.51872 -4.86113 0
M  V30 3370 H 323.839 2.2157 -4.31317 0
M  V30 3371 N 325.182 1.32811 0.848464 0
M  V30 3372 C 326.593 1.21315 1.41914 0
M  V30 3373 C 326.944 -0.171847 1.95446 0
M  V30 3374 O 326.069 -1.07093 1.88043 0
M  V30 3375 C 326.664 2.19631 2.57968 0
M  V30 3376 C 325.223 2.12003 3.11017 0
M  V30 3377 C 324.37 2.07651 1.83783 0
M  V30 3378 H 327.321 1.44549 0.655071 0
M  V30 3379 H 327.342 1.79845 3.35315 0
M  V30 3380 H 326.854 3.20423 2.18976 0
M  V30 3381 H 324.955 1.14481 3.54577 0
M  V30 3382 H 325.068 3.02111 3.71841 0
M  V30 3383 H 323.432 1.52983 2.03638 0
M  V30 3384 H 324.215 3.10235 1.47 0
M  V30 3385 N 326.66 -1.06551 1.16123 0
M  V30 3386 C 327.906 -1.79567 0.94252 0
M  V30 3387 C 328.239 -1.86869 -0.528547 0
M  V30 3388 O 327.514 -1.35838 -1.39206 0
M  V30 3389 C 327.797 -3.24195 1.56747 0
M  V30 3390 C 327.65 -3.24989 3.10969 0
M  V30 3391 C 328.969 -4.21678 1.25998 0
M  V30 3392 H 326.088 -0.651883 0.343828 0
M  V30 3393 H 328.73 -1.2463 1.43413 0
M  V30 3394 H 326.88 -3.71107 1.14942 0
M  V30 3395 H 328.552 -2.86258 3.61737 0
M  V30 3396 H 326.795 -2.63716 3.44436 0
M  V30 3397 H 327.466 -4.27005 3.49815 0
M  V30 3398 H 329.942 -3.83196 1.62174 0
M  V30 3399 H 328.818 -5.21146 1.7233 0
M  V30 3400 H 329.079 -4.4174 0.178367 0
M  V30 3401 N 328.138 -0.959301 -1.25041 0
M  V30 3402 C 329.384 -0.617525 -1.9317 0
M  V30 3403 C 329.717 0.843981 -1.74902 0
M  V30 3404 O 328.992 1.60615 -1.09696 0
M  V30 3405 C 329.275 -0.982736 -3.46431 0
M  V30 3406 C 329.128 -2.50032 -3.73904 0
M  V30 3407 C 330.447 -0.511176 -4.37121 0
M  V30 3408 H 327.566 -0.22582 -0.701552 0
M  V30 3409 H 330.208 -1.19679 -1.4757 0
M  V30 3410 H 328.358 -0.489806 -3.854 0
M  V30 3411 H 330.03 -3.06737 -3.44544 0
M  V30 3412 H 328.273 -2.93598 -3.19348 0
M  V30 3413 H 328.944 -2.70635 -4.81103 0
M  V30 3414 H 331.42 -0.934075 -4.0548 0
M  V30 3415 H 330.296 -0.795361 -5.43107 0
M  V30 3416 H 330.557 0.588834 -4.38161 0
M  V30 3417 N 329.616 1.39756 -0.72842 0
M  V30 3418 C 330.862 2.00942 -0.273892 0
M  V30 3419 C 331.195 1.57656 1.13394 0
M  V30 3420 O 330.47 0.802434 1.77176 0
M  V30 3421 C 330.753 3.58211 -0.368346 0
M  V30 3422 C 330.606 4.11534 -1.81548 0
M  V30 3423 C 331.925 4.39372 0.253054 0
M  V30 3424 H 329.044 0.730047 -0.100996 0
M  V30 3425 H 331.686 1.66056 -0.923337 0
M  V30 3426 H 329.836 3.88061 0.184588 0
M  V30 3427 H 331.508 3.92431 -2.42478 0
M  V30 3428 H 329.751 3.65341 -2.33898 0
M  V30 3429 H 330.422 5.20682 -1.83288 0
M  V30 3430 H 332.898 4.15527 -0.218224 0
M  V30 3431 H 331.774 5.48677 0.156585 0
M  V30 3432 H 332.035 4.21358 1.33826 0
M  V30 3433 N 331.094 0.475555 1.50254 0
M  V30 3434 C 332.319 -0.0777042 2.07254 0
M  V30 3435 C 332.744 -1.3235 1.3366 0
M  V30 3436 O 332.102 -1.77152 0.385597 0
M  V30 3437 C 332.15 -0.340169 3.58992 0
M  V30 3438 O 331.254 -1.41982 3.87188 0
M  V30 3439 H 330.595 0.0149556 0.663832 0
M  V30 3440 H 333.125 0.667878 1.93392 0
M  V30 3441 H 333.135 -0.579332 4.03866 0
M  V30 3442 H 331.81 0.570167 4.11973 0
M  V30 3443 H 330.387 -1.16762 3.54148 0
M  V30 3444 N 332.573 -1.56217 0.208337 0
M  V30 3445 C 333.798 -2.02782 -0.435222 0
M  V30 3446 C 334.223 -1.08738 -1.53485 0
M  V30 3447 O 333.581 -0.0731855 -1.81152 0
M  V30 3448 C 333.629 -3.47687 -0.956335 0
M  V30 3449 O 332.733 -3.56773 -2.06849 0
M  V30 3450 H 332.074 -0.656403 -0.100158 0
M  V30 3451 H 334.604 -2.02033 0.3231 0
M  V30 3452 H 334.614 -3.87745 -1.26955 0
M  V30 3453 H 333.289 -4.15624 -0.15143 0
M  V30 3454 H 331.866 -3.28597 -1.76292 0
M  V30 3455 N 334.051 0.0651679 -1.57465 0
M  V30 3456 C 335.014 1.06117 -2.03155 0
M  V30 3457 C 336.014 1.31204 -0.929632 0
M  V30 3458 O 337.204 1.26813 -1.19432 0
M  V30 3459 C 334.336 2.4032 -2.41783 0
M  V30 3460 H 335.529 0.667231 -2.92383 0
M  V30 3461 H 333.082 0.311075 -1.53173 0
M  V30 3462 H 333.817 2.84532 -1.55601 0
M  V30 3463 H 333.602 2.23451 -3.22199 0
M  V30 3464 H 335.092 3.11898 -2.77685 0
M  V30 3465 N 335.529 1.53961 0.336706 0
M  V30 3466 C 336.775 1.7179 1.07777 0
M  V30 3467 C 337.108 0.483263 1.88091 0
M  V30 3468 O 336.383 -0.519747 1.87427 0
M  V30 3469 C 336.666 2.98558 2.01334 0
M  V30 3470 C 336.519 4.32245 1.24437 0
M  V30 3471 C 337.838 3.21023 3.01052 0
M  V30 3472 H 334.957 0.625089 0.390426 0
M  V30 3473 H 337.599 1.86641 0.35567 0
M  V30 3474 H 335.749 2.86028 2.62908 0
M  V30 3475 H 337.421 4.56637 0.654243 0
M  V30 3476 H 335.664 4.30344 0.546458 0
M  V30 3477 H 336.335 5.17137 1.93063 0
M  V30 3478 H 338.811 3.32929 2.49595 0
M  V30 3479 H 337.687 4.11104 3.6371 0
M  V30 3480 H 337.948 2.37637 3.72802 0
M  V30 3481 N 337.007 -0.598083 1.45811 0
M  V30 3482 C 337.917 -1.73632 1.57763 0
M  V30 3483 C 338.933 -1.67763 0.461676 0
M  V30 3484 O 340.109 -1.87949 0.723685 0
M  V30 3485 C 337.174 -3.10114 1.55018 0
M  V30 3486 C 336.235 -3.27364 2.77726 0
M  V30 3487 C 335.468 -4.57334 2.75102 0
M  V30 3488 O 335.691 -5.40258 1.8297 0
M  V30 3489 O 334.625 -4.77502 3.66437 0
M  V30 3490 H 338.451 -1.66498 2.53992 0
M  V30 3491 H 336.036 -0.763308 1.28429 0
M  V30 3492 H 337.918 -3.9141 1.56129 0
M  V30 3493 H 336.593 -3.17718 0.619431 0
M  V30 3494 H 335.5 -2.45619 2.82174 0
M  V30 3495 H 336.833 -3.24641 3.69958 0
M  V30 3496 N 338.485 -1.33259 -0.841409 0
M  V30 3497 C 339.713 -1.27605 -1.62864 0
M  V30 3498 C 340.128 0.153507 -1.88175 0
M  V30 3499 O 339.485 1.09485 -1.46011 0
M  V30 3500 C 339.536 -2.04596 -2.98031 0
M  V30 3501 O 339.257 -3.41975 -2.73834 0
M  V30 3502 C 340.758 -2.06122 -3.92465 0
M  V30 3503 H 337.978 -0.439718 -0.506842 0
M  V30 3504 H 340.522 -1.75591 -1.04824 0
M  V30 3505 H 338.677 -1.60299 -3.5268 0
M  V30 3506 H 339.091 -3.81549 -3.59889 0
M  V30 3507 H 340.565 -2.64451 -4.84531 0
M  V30 3508 H 341.042 -1.05083 -4.26444 0
M  V30 3509 H 341.648 -2.50427 -3.43753 0
M  V30 3510 N 339.963 1.05934 -1.16686 0
M  V30 3511 C 341.188 1.83029 -0.975455 0
M  V30 3512 C 341.613 1.82096 0.471452 0
M  V30 3513 O 340.971 1.22443 1.33706 0
M  V30 3514 C 341.019 3.27372 -1.51195 0
M  V30 3515 O 340.123 4.06054 -0.720701 0
M  V30 3516 H 339.464 0.566194 -0.346872 0
M  V30 3517 H 341.994 1.33541 -1.55009 0
M  V30 3518 H 342.004 3.78186 -1.53099 0
M  V30 3519 H 340.679 3.27366 -2.56523 0
M  V30 3520 H 339.256 3.64812 -0.772458 0
M  V30 3521 N 341.441 0.965919 1.2453 0
M  V30 3522 C 342.687 0.62776 1.92839 0
M  V30 3523 C 343.02 -0.834694 1.75347 0
M  V30 3524 O 342.295 -1.60031 1.10546 0
M  V30 3525 C 342.578 1.00109 3.45905 0
M  V30 3526 C 342.431 2.52011 3.72573 0
M  V30 3527 C 343.75 0.53435 4.36844 0
M  V30 3528 H 340.869 0.229537 0.700344 0
M  V30 3529 H 343.511 1.2046 1.46933 0
M  V30 3530 H 341.661 0.510238 3.85135 0
M  V30 3531 H 343.333 3.08559 3.42912 0
M  V30 3532 H 341.576 2.95287 3.17786 0
M  V30 3533 H 342.247 2.73183 4.79661 0
M  V30 3534 H 344.723 0.955565 4.04979 0
M  V30 3535 H 343.599 0.824152 5.42678 0
M  V30 3536 H 343.86 -0.565589 4.38467 0
M  V30 3537 N 342.919 -1.39368 0.735821 0
M  V30 3538 C 344.167 -2.00101 0.283562 0
M  V30 3539 C 344.488 -1.5868 -1.13338 0
M  V30 3540 O 343.758 -0.835423 -1.77193 0
M  V30 3541 H 342.338 -0.740024 0.101851 0
M  V30 3542 H 345 -1.70404 0.945962 0
M  V30 3543 H 344.096 -3.10323 0.332604 0
M  V30 3544 N 344.397 -0.483516 -1.5 0
M  V30 3545 C 345.327 0.293829 -2.31644 0
M  V30 3546 C 346.308 0.978864 -1.39112 0
M  V30 3547 O 347.493 0.973644 -1.68029 0
M  V30 3548 C 344.623 1.36897 -3.19181 0
M  V30 3549 C 343.577 0.804833 -4.20365 0
M  V30 3550 C 342.903 1.9792 -4.96721 0
M  V30 3551 C 344.203 -0.192313 -5.21946 0
M  V30 3552 H 345.897 -0.387616 -2.9688 0
M  V30 3553 H 343.443 -0.187856 -1.42769 0
M  V30 3554 H 345.396 1.92037 -3.751 0
M  V30 3555 H 344.12 2.07936 -2.51853 0
M  V30 3556 H 342.779 0.275319 -3.65565 0
M  V30 3557 H 342.427 2.67686 -4.25856 0
M  V30 3558 H 342.127 1.60789 -5.65173 0
M  V30 3559 H 343.651 2.53526 -5.55479 0
M  V30 3560 H 345.065 0.270333 -5.72662 0
M  V30 3561 H 343.462 -0.478543 -5.98189 0
M  V30 3562 H 344.532 -1.11409 -4.71928 0
M  V30 3563 N 345.875 1.56104 -0.216619 0
M  V30 3564 C 346.838 2.18819 0.681962 0
M  V30 3565 C 347.838 1.14866 1.12528 0
M  V30 3566 O 349.028 1.40128 1.03488 0
M  V30 3567 C 346.16 2.80756 1.93362 0
M  V30 3568 H 347.353 2.99595 0.135254 0
M  V30 3569 H 344.906 1.56265 0.0330003 0
M  V30 3570 H 345.641 2.03837 2.52232 0
M  V30 3571 H 345.426 3.56876 1.62426 0
M  V30 3572 H 346.916 3.28844 2.57393 0
M  V30 3573 N 347.353 -0.0568162 1.57498 0
M  V30 3574 C 348.316 -1.05038 2.03715 0
M  V30 3575 C 349.316 -1.30709 0.936577 0
M  V30 3576 O 350.506 -1.26178 1.20103 0
M  V30 3577 C 347.638 -2.39034 2.43055 0
M  V30 3578 H 348.831 -0.651715 2.92733 0
M  V30 3579 H 346.384 -0.302947 1.53336 0
M  V30 3580 H 347.119 -2.83703 1.57108 0
M  V30 3581 H 346.904 -2.21739 3.2338 0
M  V30 3582 H 348.394 -3.10421 2.79336 0
M  V30 3583 N 348.832 -1.54138 -0.328536 0
M  V30 3584 C 350.08 -1.71765 -1.06496 0
M  V30 3585 C 350.401 -0.49149 -1.88704 0
M  V30 3586 O 349.671 0.494539 -1.89555 0
M  V30 3587 H 348.251 -0.633295 -0.396164 0
M  V30 3588 H 350.913 -1.91429 -0.366176 0
M  V30 3589 H 350.009 -2.5951 -1.73381 0
M  V30 3590 N 350.31 0.590341 -1.46126 0
M  V30 3591 C 351.556 1.35082 -1.51264 0
M  V30 3592 C 351.889 1.93534 -0.160711 0
M  V30 3593 O 351.164 1.76045 0.826956 0
M  V30 3594 C 351.447 2.48588 -2.6053 0
M  V30 3595 C 351.3 1.95221 -4.05227 0
M  V30 3596 C 352.619 3.50662 -2.6594 0
M  V30 3597 H 349.738 0.489803 -0.550692 0
M  V30 3598 H 352.38 0.663887 -1.78024 0
M  V30 3599 H 350.53 3.07186 -2.37843 0
M  V30 3600 H 352.202 1.41139 -4.39178 0
M  V30 3601 H 350.445 1.26101 -4.15068 0
M  V30 3602 H 351.116 2.77121 -4.77397 0
M  V30 3603 H 353.592 3.01934 -2.86313 0
M  V30 3604 H 352.468 4.27551 -3.44226 0
M  V30 3605 H 352.729 4.07399 -1.71694 0
M  V30 3606 N 351.788 1.33704 0.83433 0
M  V30 3607 C 352.751 1.24244 1.92603 0
M  V30 3608 C 353.751 0.160383 1.59998 0
M  V30 3609 O 354.941 0.412228 1.69252 0
M  V30 3610 C 352.073 0.91555 3.28376 0
M  V30 3611 H 353.266 2.21287 2.02416 0
M  V30 3612 H 350.819 1.17827 1.02696 0
M  V30 3613 H 351.554 -0.0521886 3.24258 0
M  V30 3614 H 351.339 1.69811 3.53422 0
M  V30 3615 H 352.829 0.874231 4.08347 0
M  V30 3616 N 353.266 -1.05314 1.17247 0
M  V30 3617 C 354.196 -2.1498 0.911362 0
M  V30 3618 C 355.177 -1.69471 -0.146169 0
M  V30 3619 O 356.362 -1.942 0.003812 0
M  V30 3620 C 353.492 -3.4472 0.422528 0
M  V30 3621 C 352.446 -4.03789 1.4191 0
M  V30 3622 C 351.772 -5.28858 0.788274 0
M  V30 3623 C 353.072 -4.41418 2.7919 0
M  V30 3624 H 354.766 -2.3708 1.82848 0
M  V30 3625 H 352.312 -1.13938 0.880569 0
M  V30 3626 H 354.265 -4.20787 0.227289 0
M  V30 3627 H 352.989 -3.22269 -0.530123 0
M  V30 3628 H 351.648 -3.2979 1.60106 0
M  V30 3629 H 351.296 -5.02709 -0.171173 0
M  V30 3630 H 350.996 -5.69338 1.45353 0
M  V30 3631 H 352.52 -6.07612 0.603282 0
M  V30 3632 H 353.934 -5.08524 2.64719 0
M  V30 3633 H 352.331 -4.92913 3.42282 0
M  V30 3634 H 353.401 -3.51819 3.33693 0
M  V30 3635 N 354.744 -0.972509 -1.24016 0
M  V30 3636 C 355.707 -0.511403 -2.23422 0
M  V30 3637 C 356.707 0.394679 -1.55881 0
M  V30 3638 O 357.897 0.189469 -1.73167 0
M  V30 3639 C 355.029 0.258769 -3.39916 0
M  V30 3640 H 356.222 -1.39024 -2.6573 0
M  V30 3641 H 353.775 -0.757585 -1.36713 0
M  V30 3642 H 354.51 1.1545 -3.03054 0
M  V30 3643 H 354.295 -0.391522 -3.9014 0
M  V30 3644 H 355.785 0.570244 -4.13688 0
M  V30 3645 N 356.222 1.38976 -0.743202 0
M  V30 3646 C 357.185 2.28901 -0.117014 0
M  V30 3647 C 358.185 1.46698 0.658503 0
M  V30 3648 O 359.375 1.67274 0.486305 0
M  V30 3649 C 356.507 3.30309 0.84315 0
M  V30 3650 H 357.7 2.8578 -0.909373 0
M  V30 3651 H 355.253 1.47761 -0.509547 0
M  V30 3652 H 355.988 2.785 1.66157 0
M  V30 3653 H 355.773 3.91029 0.289594 0
M  V30 3654 H 357.263 3.97577 1.2776 0
M  V30 3655 N 357.7 0.491464 1.49741 0
M  V30 3656 C 358.663 -0.280906 2.27472 0
M  V30 3657 C 359.663 -0.902454 1.33088 0
M  V30 3658 O 360.853 -0.768465 1.56334 0
M  V30 3659 C 357.985 -1.40209 3.10732 0
M  V30 3660 H 359.178 0.401056 2.97206 0
M  V30 3661 H 356.731 0.246131 1.5435 0
M  V30 3662 H 357.466 -2.11849 2.45541 0
M  V30 3663 H 357.251 -0.961969 3.80117 0
M  V30 3664 H 358.741 -1.9464 3.69466 0
M  V30 3665 N 359.178 -1.55987 0.224894 0
M  V30 3666 C 360.108 -2.23426 -0.678457 0
M  V30 3667 C 361.089 -1.20709 -1.19847 0
M  V30 3668 O 362.274 -1.49304 -1.24186 0
M  V30 3669 C 359.404 -2.91676 -1.88527 0
M  V30 3670 C 358.358 -4.00893 -1.49896 0
M  V30 3671 C 357.684 -4.56455 -2.78483 0
M  V30 3672 C 358.984 -5.17769 -0.686461 0
M  V30 3673 H 360.678 -2.99175 -0.116173 0
M  V30 3674 H 358.224 -1.43897 -0.054436 0
M  V30 3675 H 360.177 -3.37547 -2.5227 0
M  V30 3676 H 358.901 -2.1338 -2.47258 0
M  V30 3677 H 357.56 -3.55758 -0.884985 0
M  V30 3678 H 357.208 -3.74886 -3.35365 0
M  V30 3679 H 356.908 -5.30169 -2.53368 0
M  V30 3680 H 358.432 -5.05047 -3.43162 0
M  V30 3681 H 359.846 -5.60001 -1.22767 0
M  V30 3682 H 358.243 -5.97735 -0.532259 0
M  V30 3683 H 359.313 -4.83932 0.306196 0
M  V30 3684 N 360.656 0.0484629 -1.57525 0
M  V30 3685 C 362.067 0.597486 -1.76881 0
M  V30 3686 C 362.418 1.76664 -0.853475 0
M  V30 3687 O 361.543 2.16357 -0.0433656 0
M  V30 3688 C 362.138 1.09066 -3.20765 0
M  V30 3689 C 360.697 1.58535 -3.41385 0
M  V30 3690 C 359.844 0.514868 -2.72478 0
M  V30 3691 H 362.795 -0.177758 -1.57701 0
M  V30 3692 H 362.816 1.95875 -3.2621 0
M  V30 3693 H 362.328 0.239521 -3.8736 0
M  V30 3694 H 360.429 2.45898 -2.79937 0
M  V30 3695 H 360.542 1.64622 -4.49929 0
M  V30 3696 H 358.906 0.965407 -2.35695 0
M  V30 3697 H 359.689 -0.32648 -3.41744 0
M  V30 3698 N 362.134 1.5431 0.320358 0
M  V30 3699 C 363.044 1.86946 1.41734 0
M  V30 3700 C 364.06 0.761689 1.56443 0
M  V30 3701 O 365.236 1.05629 1.71477 0
M  V30 3702 C 362.301 2.09293 2.76401 0
M  V30 3703 C 361.362 3.33082 2.70841 0
M  V30 3704 C 360.595 3.54353 3.99086 0
M  V30 3705 O 360.818 2.79002 4.97508 0
M  V30 3706 O 359.752 4.47838 4.0215 0
M  V30 3707 H 363.578 2.80232 1.17062 0
M  V30 3708 H 361.163 1.40255 0.514673 0
M  V30 3709 H 363.045 2.25303 3.56113 0
M  V30 3710 H 361.72 1.19194 3.00956 0
M  V30 3711 H 360.627 3.22454 1.89668 0
M  V30 3712 H 361.96 4.23249 2.5124 0
M  V30 3713 N 363.613 -0.582584 1.46437 0
M  V30 3714 C 364.543 -1.70187 1.59871 0
M  V30 3715 C 365.524 -1.64066 0.449042 0
M  V30 3716 O 366.709 -1.82081 0.6753 0
M  V30 3717 C 363.839 -3.08827 1.58881 0
M  V30 3718 C 362.793 -3.29779 2.72819 0
M  V30 3719 C 362.119 -4.68947 2.5689 0
M  V30 3720 C 363.419 -3.17601 4.1464 0
M  V30 3721 H 365.113 -1.592 2.53566 0
M  V30 3722 H 362.659 -0.764472 1.22032 0
M  V30 3723 H 364.612 -3.86951 1.66873 0
M  V30 3724 H 363.336 -3.20713 0.617306 0
M  V30 3725 H 361.995 -2.54054 2.64296 0
M  V30 3726 H 361.643 -4.77599 1.57823 0
M  V30 3727 H 361.343 -4.83919 3.33312 0
M  V30 3728 H 362.867 -5.4924 2.66773 0
M  V30 3729 H 364.281 -3.8557 4.24274 0
M  V30 3730 H 362.678 -3.44094 4.9165 0
M  V30 3731 H 363.748 -2.14681 4.34788 0
M  V30 3732 N 365.091 -1.34144 -0.827227 0
M  V30 3733 C 366.502 -1.23557 -1.39966 0
M  V30 3734 C 366.853 0.140731 -1.95695 0
M  V30 3735 O 365.978 1.04087 -1.89723 0
M  V30 3736 C 366.573 -2.23708 -2.54441 0
M  V30 3737 C 365.132 -2.16924 -3.07605 0
M  V30 3738 C 364.279 -2.10549 -1.80456 0
M  V30 3739 H 367.23 -1.45573 -0.631991 0
M  V30 3740 H 367.251 -1.85157 -3.32411 0
M  V30 3741 H 366.763 -3.23866 -2.13851 0
M  V30 3742 H 364.864 -1.20107 -3.52711 0
M  V30 3743 H 364.977 -3.07988 -3.66988 0
M  V30 3744 H 363.341 -1.56203 -2.01178 0
M  V30 3745 H 364.124 -3.12535 -1.42046 0
M  V30 3746 N 366.569 1.04691 -1.17803 0
M  V30 3747 C 367.799 1.81183 -0.992788 0
M  V30 3748 C 368.207 1.8347 0.462098 0
M  V30 3749 O 367.55 1.2643 1.33271 0
M  V30 3750 C 367.612 3.28363 -1.46349 0
M  V30 3751 C 367.276 3.49749 -2.94151 0
M  V30 3752 C 368.273 3.41456 -3.92051 0
M  V30 3753 C 365.958 3.76548 -3.32441 0
M  V30 3754 C 367.952 3.59656 -5.26238 0
M  V30 3755 C 365.639 3.94396 -4.66792 0
M  V30 3756 C 366.637 3.8595 -5.635 0
M  V30 3757 O 366.325 4.03294 -6.9542 0
M  V30 3758 H 366.057 0.577622 -0.351182 0
M  V30 3759 H 368.611 1.32876 -1.5663 0
M  V30 3760 H 366.841 3.77609 -0.833574 0
M  V30 3761 H 368.53 3.86395 -1.24313 0
M  V30 3762 H 369.296 3.20723 -3.63815 0
M  V30 3763 H 365.175 3.82224 -2.57732 0
M  V30 3764 H 368.719 3.52979 -6.01707 0
M  V30 3765 H 364.616 4.14622 -4.94731 0
M  V30 3766 H 365.384 4.2049 -7.02232 0
M  V30 3767 N 368.047 0.979072 1.23499 0
M  V30 3768 C 369.01 0.523244 2.23147 0
M  V30 3769 C 370.01 -0.386406 1.56088 0
M  V30 3770 O 371.2 -0.180283 1.73265 0
M  V30 3771 C 368.332 -0.240739 3.40049 0
M  V30 3772 H 369.525 1.40432 2.64989 0
M  V30 3773 H 367.078 0.764824 1.36309 0
M  V30 3774 H 367.813 -1.13841 3.03662 0
M  V30 3775 H 367.598 0.412207 3.89927 0
M  V30 3776 H 369.088 -0.548297 4.13985 0
M  V30 3777 N 369.525 -1.3858 0.750561 0
M  V30 3778 C 370.765 -2.02032 0.310258 0
M  V30 3779 C 371.129 -1.58288 -1.08668 0
M  V30 3780 O 372.33 -2.14049 -1.62593 0
M  V30 3781 C 370.601 -3.54856 0.425647 0
M  V30 3782 S 372.16 -4.38748 0.0674797 0
M  V30 3783 H 368.978 -0.700705 0.120554 0
M  V30 3784 H 371.58 -1.69134 0.980512 0
M  V30 3785 H 370.284 -3.84182 1.44335 0
M  V30 3786 H 369.815 -3.92527 -0.261894 0
M  V30 3787 H 371.83 -4.82835 -1.14388 0
M  V30 3788 N 371.003 -0.499398 -1.49478 0
M  V30 3789 C 372.251 0.0455996 -2.02049 0
M  V30 3790 C 372.572 1.37633 -1.38138 0
M  V30 3791 O 371.842 1.8842 -0.536166 0
M  V30 3792 H 370.422 0.0198416 -0.746736 0
M  V30 3793 H 373.084 -0.656274 -1.83519 0
M  V30 3794 H 372.18 0.176445 -3.11601 0
M  V30 3795 N 372.481 1.55866 -0.233164 0
M  V30 3796 C 373.411 2.23783 0.666599 0
M  V30 3797 C 374.392 1.21343 1.19205 0
M  V30 3798 O 375.577 1.4996 1.23392 0
M  V30 3799 C 372.707 2.92671 1.86978 0
M  V30 3800 C 371.661 4.01682 1.47768 0
M  V30 3801 C 370.987 4.57926 2.76058 0
M  V30 3802 C 372.287 5.18126 0.658993 0
M  V30 3803 H 373.981 2.99232 0.100306 0
M  V30 3804 H 371.527 1.43924 0.046804 0
M  V30 3805 H 373.48 3.3888 2.50476 0
M  V30 3806 H 372.204 2.14688 2.46123 0
M  V30 3807 H 370.863 3.56222 0.866106 0
M  V30 3808 H 370.511 3.76659 3.33372 0
M  V30 3809 H 370.211 5.31505 2.50552 0
M  V30 3810 H 371.735 5.06859 3.40479 0
M  V30 3811 H 373.149 5.60644 1.19795 0
M  V30 3812 H 371.546 5.98009 0.500552 0
M  V30 3813 H 372.616 4.83763 -0.331856 0
M  V30 3814 N 373.959 -0.0401083 1.57549 0
M  V30 3815 C 374.922 -1.02871 2.04817 0
M  V30 3816 C 375.922 -1.29708 0.950388 0
M  V30 3817 O 377.112 -1.24897 1.21435 0
M  V30 3818 C 374.244 -2.36443 2.45576 0
M  V30 3819 H 375.437 -0.620631 2.93408 0
M  V30 3820 H 372.99 -0.286667 1.53649 0
M  V30 3821 H 373.725 -2.82021 1.60108 0
M  V30 3822 H 373.51 -2.18296 3.25713 0
M  V30 3823 H 375 -3.07441 2.82612 0
M  V30 3824 N 375.437 -1.54477 -0.31217 0
M  V30 3825 C 376.665 -1.77205 -1.068 0
M  V30 3826 C 377.08 -0.526114 -1.81321 0
M  V30 3827 O 376.437 0.503647 -1.75413 0
M  V30 3828 C 376.488 -2.97253 -2.05725 0
M  V30 3829 O 376.209 -4.1703 -1.34228 0
M  V30 3830 C 377.71 -3.32281 -2.93435 0
M  V30 3831 H 374.93 -0.591287 -0.317208 0
M  V30 3832 H 377.474 -2.01398 -0.354834 0
M  V30 3833 H 375.629 -2.753 -2.72559 0
M  V30 3834 H 376.043 -4.84636 -2.00571 0
M  V30 3835 H 377.517 -4.19551 -3.58721 0
M  V30 3836 H 377.994 -2.49945 -3.61143 0
M  V30 3837 H 378.6 -3.56353 -2.32147 0
M  V30 3838 N 376.915 0.57481 -1.46744 0
M  V30 3839 C 377.845 1.69337 -1.60771 0
M  V30 3840 C 378.826 1.63825 -0.457736 0
M  V30 3841 O 380.011 1.8172 -0.684947 0
M  V30 3842 C 377.141 3.0798 -1.60517 0
M  V30 3843 C 376.095 3.28327 -2.74564 0
M  V30 3844 C 375.421 4.67578 -2.59373 0
M  V30 3845 C 376.721 3.15398 -4.16319 0
M  V30 3846 H 378.415 1.57853 -2.54407 0
M  V30 3847 H 375.961 0.75799 -1.22436 0
M  V30 3848 H 377.914 3.86061 -1.68923 0
M  V30 3849 H 376.638 3.20381 -0.634305 0
M  V30 3850 H 375.297 2.52649 -2.65639 0
M  V30 3851 H 374.945 4.76755 -1.60353 0
M  V30 3852 H 374.645 4.82144 -3.35873 0
M  V30 3853 H 376.169 5.47817 -2.69682 0
M  V30 3854 H 377.583 3.83315 -4.26313 0
M  V30 3855 H 375.98 3.41482 -4.93468 0
M  V30 3856 H 377.05 2.12372 -4.3592 0
M  V30 3857 N 378.394 1.34581 0.820102 0
M  V30 3858 C 379.81 1.14325 1.11364 0
M  V30 3859 C 380.01 -0.0533648 2.01429 0
M  V30 3860 O 379.066 -0.728044 2.41776 0
M  V30 3861 C 380.379 2.43983 1.75764 0
M  V30 3862 C 381.927 2.50065 1.88246 0
M  V30 3863 C 382.402 3.79732 2.56061 0
M  V30 3864 N 383.893 3.80908 2.63558 0
M  V30 3865 C 384.628 4.77961 3.16766 0
M  V30 3866 N 384.124 5.85397 3.70517 0
M  V30 3867 N 385.917 4.65413 3.15194 0
M  V30 3868 H 378.068 2.11246 0.221096 0
M  V30 3869 H 380.331 0.934289 0.160649 0
M  V30 3870 H 380.037 3.31651 1.1705 0
M  V30 3871 H 379.911 2.57531 2.75604 0
M  V30 3872 H 382.298 1.62834 2.46108 0
M  V30 3873 H 382.379 2.40442 0.873006 0
M  V30 3874 H 382.023 4.67354 1.98853 0
M  V30 3875 H 381.953 3.86639 3.57516 0
M  V30 3876 H 384.444 3.03274 2.25463 0
M  V30 3877 H 384.757 6.55463 4.09376 0
M  V30 3878 H 383.102 5.89107 3.68752 0
M  V30 3879 H 386.293 3.80627 2.72471 0
M  V30 3880 H 386.466 5.41216 3.56356 0
M  V30 3881 N 379.872 -1.04064 1.18357 0
M  V30 3882 C 380.802 -2.14001 0.934113 0
M  V30 3883 C 381.783 -1.69616 -0.128186 0
M  V30 3884 O 382.968 -1.94185 0.0244093 0
M  V30 3885 C 380.098 -3.44253 0.459066 0
M  V30 3886 C 379.052 -4.02261 1.46185 0
M  V30 3887 C 378.378 -5.27992 0.844322 0
M  V30 3888 C 379.678 -4.38432 2.83856 0
M  V30 3889 H 381.372 -2.35127 1.85352 0
M  V30 3890 H 378.918 -1.12998 0.892604 0
M  V30 3891 H 380.871 -4.20522 0.271907 0
M  V30 3892 H 379.595 -3.22813 -0.495912 0
M  V30 3893 H 378.254 -3.28074 1.63595 0
M  V30 3894 H 377.902 -5.02862 -0.117845 0
M  V30 3895 H 377.602 -5.67765 1.51384 0
M  V30 3896 H 379.126 -6.06938 0.667693 0
M  V30 3897 H 380.54 -5.05688 2.70098 0
M  V30 3898 H 378.937 -4.89254 3.47491 0
M  V30 3899 H 380.007 -3.4826 3.37406 0
M  V30 3900 N 381.35 -0.985608 -1.22978 0
M  V30 3901 C 382.28 -0.549649 -2.26939 0
M  V30 3902 C 383.261 0.419803 -1.64838 0
M  V30 3903 O 384.446 0.31203 -1.91677 0
M  V30 3904 C 381.576 0.143652 -3.47003 0
M  V30 3905 C 380.53 -0.743606 -4.21491 0
M  V30 3906 C 379.856 0.0822027 -5.34637 0
M  V30 3907 C 381.156 -2.03694 -4.80943 0
M  V30 3908 H 382.85 -1.41862 -2.63658 0
M  V30 3909 H 380.396 -0.683571 -1.26741 0
M  V30 3910 H 382.349 0.459985 -4.18882 0
M  V30 3911 H 381.073 1.04711 -3.09359 0
M  V30 3912 H 379.732 -1.04347 -3.51436 0
M  V30 3913 H 379.38 0.986359 -4.93234 0
M  V30 3914 H 379.08 -0.508377 -5.85397 0
M  V30 3915 H 380.604 0.392797 -6.09335 0
M  V30 3916 H 382.018 -1.78504 -5.44802 0
M  V30 3917 H 380.415 -2.57573 -5.42011 0
M  V30 3918 H 381.485 -2.72042 -4.01399 0
M  V30 3919 N 382.828 1.3818 -0.7579 0
M  V30 3920 C 383.778 2.27741 -0.108674 0
M  V30 3921 C 384.762 1.45415 0.688709 0
M  V30 3922 O 385.954 1.68108 0.553956 0
M  V30 3923 C 383.083 3.34313 0.780367 0
M  V30 3924 C 382.169 4.24093 -0.0240977 0
M  V30 3925 N 382.56 4.9451 -1.06271 0
M  V30 3926 C 380.858 4.45542 0.202049 0
M  V30 3927 C 381.559 5.60675 -1.54979 0
M  V30 3928 N 380.535 5.36684 -0.864348 0
M  V30 3929 H 384.337 2.79649 -0.904071 0
M  V30 3930 H 381.851 1.51133 -0.594346 0
M  V30 3931 H 383.848 3.97368 1.26114 0
M  V30 3932 H 382.508 2.83962 1.57467 0
M  V30 3933 H 383.519 4.97345 -1.44459 0
M  V30 3934 H 380.196 4.06091 0.96935 0
M  V30 3935 H 381.586 6.26992 -2.41517 0
M  V30 3936 N 384.306 0.507319 1.49211 0
M  V30 3937 C 385.269 -0.256763 2.27757 0
M  V30 3938 C 386.269 -0.888287 1.34038 0
M  V30 3939 O 387.459 -0.751841 1.5714 0
M  V30 3940 C 384.591 -1.36905 3.12202 0
M  V30 3941 H 385.784 0.432557 2.96764 0
M  V30 3942 H 383.337 0.262488 1.5408 0
M  V30 3943 H 384.072 -2.09233 2.47775 0
M  V30 3944 H 383.857 -0.921599 3.81115 0
M  V30 3945 H 385.347 -1.9071 3.7151 0
M  V30 3946 N 385.784 -1.5574 0.241426 0
M  V30 3947 C 387.061 -1.90704 -0.434881 0
M  V30 3948 C 387.441 -1.16145 -1.76277 0
M  V30 3949 O 386.789 -0.277152 -2.26813 0
M  V30 3950 C 386.999 -3.43657 -0.608343 0
M  V30 3951 C 388.347 -4.14806 -0.906725 0
M  V30 3952 O 389.371 -3.49366 -0.694408 0
M  V30 3953 O 388.23 -5.30548 -1.31075 0
M  V30 3954 H 385.324 -0.793592 -0.23268 0
M  V30 3955 H 387.87 -1.67288 0.285086 0
M  V30 3956 H 386.642 -3.89927 0.327505 0
M  V30 3957 H 386.265 -3.72918 -1.37906 0
M  V30 3958 N 387.262 0.0317525 -1.57568 0
M  V30 3959 C 388.508 0.724175 -1.8943 0
M  V30 3960 C 388.841 1.75149 -0.838836 0
M  V30 3961 O 388.116 1.93948 0.146422 0
M  V30 3962 C 388.399 1.39615 -3.31933 0
M  V30 3963 C 388.252 0.382537 -4.4817 0
M  V30 3964 C 389.571 2.33084 -3.73309 0
M  V30 3965 H 386.69 0.261797 -0.688935 0
M  V30 3966 H 389.332 -0.013017 -1.89996 0
M  V30 3967 H 387.482 2.02451 -3.31581 0
M  V30 3968 H 389.154 -0.243689 -4.60656 0
M  V30 3969 H 387.397 -0.29844 -4.32772 0
M  V30 3970 H 388.068 0.891145 -5.44759 0
M  V30 3971 H 390.544 1.80295 -3.7501 0
M  V30 3972 H 389.42 2.77084 -4.73831 0
M  V30 3973 H 389.681 3.19643 -3.05419 0
M  V30 3974 N 388.74 1.54641 0.303973 0
M  V30 3975 C 389.98 1.75516 1.04755 0
M  V30 3976 C 390.344 0.528211 1.84591 0
M  V30 3977 O 391.545 0.614645 2.61678 0
M  V30 3978 C 389.816 3.00685 1.93193 0
M  V30 3979 S 391.375 3.42549 2.74237 0
M  V30 3980 H 388.193 0.616987 0.353339 0
M  V30 3981 H 390.795 1.92842 0.321292 0
M  V30 3982 H 389.499 3.8811 1.33411 0
M  V30 3983 H 389.03 2.85937 2.70191 0
M  V30 3984 H 391.045 2.99386 3.95705 0
M  V30 3985 N 390.218 -0.567019 1.47046 0
M  V30 3986 C 391.495 -1.3276 1.43646 0
M  V30 3987 C 391.875 -2.1071 0.128186 0
M  V30 3988 O 391.223 -2.10441 -0.890326 0
M  V30 3989 C 391.433 -2.2404 2.67595 0
M  V30 3990 C 392.781 -2.85372 3.14401 0
M  V30 3991 O 393.805 -2.34346 2.68254 0
M  V30 3992 O 392.664 -3.78091 3.946 0
M  V30 3993 H 389.758 -0.597293 0.571988 0
M  V30 3994 H 392.304 -0.586735 1.59234 0
M  V30 3995 H 391.076 -1.65975 3.54356 0
M  V30 3996 H 390.699 -3.05439 2.54544 0
M  V30 3997 N 391.696 -1.35014 -0.812953 0
M  V30 3998 C 392.973 -1.18502 -1.55617 0
M  V30 3999 C 393.353 0.238421 -2.09749 0
M  V30 4000 O 392.701 1.2411 -1.91857 0
M  V30 4001 C 392.911 -2.24783 -2.66971 0
M  V30 4002 C 394.259 -2.60268 -3.35478 0
M  V30 4003 O 395.283 -2.23648 -2.77236 0
M  V30 4004 O 394.142 -3.2321 -4.40678 0
M  V30 4005 H 391.236 -0.459984 -0.687272 0
M  V30 4006 H 393.782 -1.46677 -0.853464 0
M  V30 4007 H 392.554 -3.20284 -2.24798 0
M  V30 4008 H 392.177 -1.97841 -3.44884 0
M  V30 4009 N 393.175 1.03435 -1.18907 0
M  V30 4010 C 394.586 1.58195 -0.991523 0
M  V30 4011 C 394.937 1.90801 0.457081 0
M  V30 4012 O 394.062 1.70272 1.33553 0
M  V30 4013 C 394.657 2.87432 -1.79355 0
M  V30 4014 C 393.216 3.38785 -1.64017 0
M  V30 4015 C 392.363 2.12292 -1.78402 0
M  V30 4016 H 395.314 0.860299 -1.33359 0
M  V30 4017 H 395.335 3.58096 -1.28638 0
M  V30 4018 H 394.847 2.63669 -2.84781 0
M  V30 4019 H 392.948 3.67547 -0.611536 0
M  V30 4020 H 393.061 4.12186 -2.44212 0
M  V30 4021 H 391.425 2.23901 -1.2141 0
M  V30 4022 H 392.208 1.90977 -2.85277 0
M  V30 4023 N 394.653 0.992116 1.22453 0
M  V30 4024 C 395.583 0.561677 2.26644 0
M  V30 4025 C 396.564 -0.411055 1.65059 0
M  V30 4026 O 397.749 -0.301861 1.9184 0
M  V30 4027 C 394.879 -0.125247 3.47074 0
M  V30 4028 C 393.833 0.765948 4.21091 0
M  V30 4029 C 393.159 -0.0538484 5.34673 0
M  V30 4030 C 394.459 2.06242 4.79856 0
M  V30 4031 H 396.153 1.43259 2.62902 0
M  V30 4032 H 393.699 0.690283 1.26377 0
M  V30 4033 H 395.652 -0.437764 4.1912 0
M  V30 4034 H 394.376 -1.03069 3.0991 0
M  V30 4035 H 393.035 1.0621 3.50878 0
M  V30 4036 H 392.683 -0.960188 4.9375 0
M  V30 4037 H 392.383 0.539415 5.85119 0
M  V30 4038 H 393.907 -0.360477 6.09535 0
M  V30 4039 H 395.321 1.8139 5.43848 0
M  V30 4040 H 393.718 2.60444 5.40638 0
M  V30 4041 H 394.788 2.74167 3.99951 0
M  V30 4042 N 396.131 -1.37776 0.765217 0
M  V30 4043 C 397.061 -2.32945 0.160953 0
M  V30 4044 C 398.042 -1.55454 -0.690516 0
M  V30 4045 O 399.227 -1.83721 -0.629318 0
M  V30 4046 C 396.357 -3.39669 -0.724031 0
M  V30 4047 C 395.311 -4.27992 0.0256173 0
M  V30 4048 C 394.637 -5.25673 -0.978383 0
M  V30 4049 C 395.937 -5.08309 1.20082 0
M  V30 4050 H 397.631 -2.83728 0.955969 0
M  V30 4051 H 395.177 -1.36416 0.461149 0
M  V30 4052 H 397.13 -4.05219 -1.15652 0
M  V30 4053 H 395.854 -2.87396 -1.5515 0
M  V30 4054 H 394.513 -3.63964 0.438812 0
M  V30 4055 H 394.161 -4.69682 -1.80022 0
M  V30 4056 H 393.861 -5.85625 -0.481378 0
M  V30 4057 H 395.385 -5.94098 -1.40995 0
M  V30 4058 H 396.799 -5.67034 0.845307 0
M  V30 4059 H 395.196 -5.77554 1.62947 0
M  V30 4060 H 396.266 -4.41365 2.00811 0
M  V30 4061 N 397.609 -0.515225 -1.4894 0
M  V30 4062 C 399.02 -0.0710067 -1.86565 0
M  V30 4063 C 399.371 1.34733 -1.42623 0
M  V30 4064 O 398.496 2.00653 -0.810379 0
M  V30 4065 C 399.091 -0.122083 -3.3858 0
M  V30 4066 C 397.65 0.266863 -3.75453 0
M  V30 4067 C 396.797 -0.488376 -2.72966 0
M  V30 4068 H 399.748 -0.727266 -1.41055 0
M  V30 4069 H 399.769 0.669818 -3.74558 0
M  V30 4070 H 399.281 -1.15448 -3.70531 0
M  V30 4071 H 397.382 1.30196 -3.49113 0
M  V30 4072 H 397.495 -0.0624811 -4.79059 0
M  V30 4073 H 395.859 0.0635622 -2.54621 0
M  V30 4074 H 396.642 -1.52113 -3.07761 0
M  V30 4075 N 399.087 1.5561 -0.249682 0
M  V30 4076 C 400.333 1.99306 0.374841 0
M  V30 4077 C 400.666 1.13767 1.57387 0
M  V30 4078 O 399.941 0.201711 1.93451 0
M  V30 4079 C 400.224 3.51507 0.781986 0
M  V30 4080 C 400.077 4.4781 -0.422629 0
M  V30 4081 C 401.396 4.08884 1.62793 0
M  V30 4082 H 398.515 0.724572 0.134773 0
M  V30 4083 H 401.157 1.86719 -0.351549 0
M  V30 4084 H 399.307 3.62363 1.4009 0
M  V30 4085 H 400.979 4.48931 -1.06108 0
M  V30 4086 H 399.222 4.20518 -1.06524 0
M  V30 4087 H 399.893 5.51919 -0.0943766 0
M  V30 4088 H 402.369 4.01147 1.10547 0
M  V30 4089 H 401.245 5.1564 1.88166 0
M  V30 4090 H 401.506 3.57515 2.60068 0
M  V30 4091 N 400.565 -0.0233959 1.57583 0
M  V30 4092 C 401.515 -1.03023 2.03397 0
M  V30 4093 C 402.499 -1.31701 0.924315 0
M  V30 4094 O 403.691 -1.31191 1.18819 0
M  V30 4095 C 400.82 -2.32961 2.52159 0
M  V30 4096 C 399.906 -2.07349 3.69956 0
M  V30 4097 N 400.297 -1.51814 4.82479 0
M  V30 4098 C 398.595 -2.37606 3.77438 0
M  V30 4099 C 399.296 -1.42136 5.64068 0
M  V30 4100 N 398.272 -1.89891 5.09355 0
M  V30 4101 H 402.074 -0.594962 2.87815 0
M  V30 4102 H 399.588 -0.229586 1.60769 0
M  V30 4103 H 401.585 -3.05906 2.83244 0
M  V30 4104 H 400.245 -2.77162 1.69149 0
M  V30 4105 H 401.256 -1.20008 5.03804 0
M  V30 4106 H 397.933 -2.84842 3.05239 0
M  V30 4107 H 399.323 -0.996405 6.64471 0
M  V30 4108 N 402.043 -1.548 -0.295768 0
M  V30 4109 C 403.291 -1.73985 -1.02828 0
M  V30 4110 C 403.612 -0.531406 -1.87619 0
M  V30 4111 O 402.882 0.454221 -1.90561 0
M  V30 4112 H 401.462 -0.641556 -0.382642 0
M  V30 4113 H 404.124 -1.92163 -0.325489 0
M  V30 4114 H 403.22 -2.63129 -1.67838 0
M  V30 4115 N 403.521 0.559213 -1.47345 0
M  V30 4116 C 404.767 1.31843 -1.54095 0
M  V30 4117 C 405.1 1.93149 -0.201726 0
M  V30 4118 O 404.375 1.77759 0.789428 0
M  V30 4119 C 404.658 2.43006 -2.65744 0
M  V30 4120 C 404.511 1.86581 -4.09277 0
M  V30 4121 C 405.83 3.44943 -2.73318 0
M  V30 4122 H 402.949 0.478012 -0.560957 0
M  V30 4123 H 405.591 0.625977 -1.79392 0
M  V30 4124 H 403.741 3.02072 -2.44305 0
M  V30 4125 H 405.413 1.31792 -4.42073 0
M  V30 4126 H 403.656 1.17268 -4.17649 0
M  V30 4127 H 404.327 2.66933 -4.83168 0
M  V30 4128 H 406.803 2.95793 -2.92653 0
M  V30 4129 H 405.679 4.20153 -3.53218 0
M  V30 4130 H 405.94 4.03665 -1.80296 0
M  V30 4131 N 404.999 1.35443 0.805782 0
M  V30 4132 C 405.929 1.31095 1.93226 0
M  V30 4133 C 406.91 0.185244 1.69088 0
M  V30 4134 O 408.095 0.380332 1.90439 0
M  V30 4135 C 405.225 1.08299 3.29983 0
M  V30 4136 C 404.179 2.17519 3.68605 0
M  V30 4137 C 403.505 1.79887 5.03532 0
M  V30 4138 C 404.805 3.5949 3.78898 0
M  V30 4139 H 406.499 2.25352 1.97122 0
M  V30 4140 H 404.045 1.0848 0.946996 0
M  V30 4141 H 405.998 1.03897 4.08391 0
M  V30 4142 H 404.722 0.104885 3.26432 0
M  V30 4143 H 403.381 2.2102 2.92482 0
M  V30 4144 H 403.029 0.80693 4.96485 0
M  V30 4145 H 402.729 2.53001 5.30344 0
M  V30 4146 H 404.253 1.77011 5.84379 0
M  V30 4147 H 405.667 3.58307 4.47536 0
M  V30 4148 H 404.064 4.31371 4.1718 0
M  V30 4149 H 405.134 3.95584 2.80431 0
M  V30 4150 N 406.477 -1.02803 1.19454 0
M  V30 4151 C 407.888 -1.57667 0.999899 0
M  V30 4152 C 408.239 -1.91041 -0.446956 0
M  V30 4153 O 407.364 -1.70978 -1.32648 0
M  V30 4154 C 407.959 -2.86477 1.80877 0
M  V30 4155 C 406.518 -3.37911 1.65811 0
M  V30 4156 C 405.665 -2.11343 1.79526 0
M  V30 4157 H 408.616 -0.853214 1.33813 0
M  V30 4158 H 408.637 -3.57408 1.30536 0
M  V30 4159 H 408.149 -2.62155 2.86175 0
M  V30 4160 H 406.25 -3.67218 0.63102 0
M  V30 4161 H 406.363 -4.10885 2.46395 0
M  V30 4162 H 404.727 -2.23254 1.22596 0
M  V30 4163 H 405.51 -1.89461 2.86285 0
M  V30 4164 N 407.956 -0.998596 -1.21925 0
M  V30 4165 C 409.202 -0.678667 -1.91107 0
M  V30 4166 C 409.535 0.78791 -1.77498 0
M  V30 4167 O 408.81 1.57043 -1.1475 0
M  V30 4168 C 409.093 -1.09245 -3.43129 0
M  V30 4169 C 408.946 -2.61801 -3.6576 0
M  V30 4170 C 410.265 -0.649984 -4.35274 0
M  V30 4171 H 407.384 -0.248025 -0.694012 0
M  V30 4172 H 410.026 -1.24314 -1.43688 0
M  V30 4173 H 408.176 -0.612171 -3.83647 0
M  V30 4174 H 409.848 -3.17543 -3.34611 0
M  V30 4175 H 408.091 -3.03609 -3.09845 0
M  V30 4176 H 408.762 -2.85804 -4.7225 0
M  V30 4177 H 411.238 -1.0626 -4.02303 0
M  V30 4178 H 410.114 -0.967743 -5.40302 0
M  V30 4179 H 410.375 0.449139 -4.39813 0
M  V30 4180 N 409.434 1.37368 -0.772513 0
M  V30 4181 C 410.85 1.53059 -0.452231 0
M  V30 4182 C 411.05 1.73065 1.03203 0
M  V30 4183 O 410.106 1.75245 1.81784 0
M  V30 4184 C 411.419 2.72659 -1.26797 0
M  V30 4185 C 412.967 2.86521 -1.25995 0
M  V30 4186 C 413.442 4.09105 -2.05905 0
M  V30 4187 N 414.933 4.16219 -2.03263 0
M  V30 4188 C 415.668 5.10107 -2.61875 0
M  V30 4189 N 415.164 6.09547 -3.29278 0
M  V30 4190 N 416.957 5.02596 -2.51701 0
M  V30 4191 H 409.108 1.22634 -1.7342 0
M  V30 4192 H 411.371 0.597206 -0.736239 0
M  V30 4193 H 411.077 2.64343 -2.31982 0
M  V30 4194 H 410.951 3.66363 -0.897672 0
M  V30 4195 H 413.338 2.94308 -0.216081 0
M  V30 4196 H 413.419 1.93774 -1.66989 0
M  V30 4197 H 413.063 4.0208 -3.10313 0
M  V30 4198 H 412.993 5.00968 -1.62292 0
M  V30 4199 H 415.484 3.45012 -1.54192 0
M  V30 4200 H 415.797 6.77718 -3.71374 0
M  V30 4201 H 414.142 6.09824 -3.33377 0
M  V30 4202 H 417.333 4.23855 -1.98657 0
M  V30 4203 H 417.506 5.75582 -2.97673 0
M  V30 4204 N 410.912 0.523116 1.48665 0
M  V30 4205 C 412.328 0.180511 1.58576 0
M  V30 4206 C 412.528 -1.31597 1.52592 0
M  V30 4207 O 411.584 -2.0937 1.4114 0
M  V30 4208 C 412.897 0.776949 2.90489 0
M  V30 4209 C 414.445 0.745058 3.04003 0
M  V30 4210 C 414.92 1.31995 4.38567 0
M  V30 4211 N 416.411 1.28162 4.45117 0
M  V30 4212 C 417.146 1.6964 5.47731 0
M  V30 4213 N 416.642 2.18816 6.57337 0
M  V30 4214 N 418.435 1.6092 5.38573 0
M  V30 4215 H 410.586 1.4958 1.50797 0
M  V30 4216 H 412.849 0.621772 0.715614 0
M  V30 4217 H 412.555 1.82732 3.00503 0
M  V30 4218 H 412.429 0.25007 3.7637 0
M  V30 4219 H 414.816 -0.296532 2.93606 0
M  V30 4220 H 414.897 1.30933 2.1975 0
M  V30 4221 H 414.541 2.36043 4.49718 0
M  V30 4222 H 414.471 0.731418 5.21496 0
M  V30 4223 H 416.962 0.92155 3.66491 0
M  V30 4224 H 417.275 2.48478 7.31764 0
M  V30 4225 H 415.62 2.22805 6.58318 0
M  V30 4226 H 418.811 1.22304 4.5184 0
M  V30 4227 H 418.984 1.93567 6.18414 0
M  V30 4228 N 412.39 -1.55475 0.257931 0
M  V30 4229 C 413.636 -1.99502 -0.364266 0
M  V30 4230 C 413.969 -1.146 -1.56782 0
M  V30 4231 O 413.244 -0.211968 -1.93342 0
M  V30 4232 C 413.527 -3.51917 -0.763333 0
M  V30 4233 C 413.38 -4.4758 0.446371 0
M  V30 4234 C 414.699 -4.09742 -1.60623 0
M  V30 4235 H 411.818 -0.725277 -0.130929 0
M  V30 4236 H 414.46 -1.8653 0.361446 0
M  V30 4237 H 412.61 -3.63101 -1.38166 0
M  V30 4238 H 414.282 -4.48362 1.08487 0
M  V30 4239 H 412.525 -4.19947 1.08753 0
M  V30 4240 H 413.196 -5.51862 0.123645 0
M  V30 4241 H 415.672 -4.01727 -1.08418 0
M  V30 4242 H 414.548 -5.16631 -1.85429 0
M  V30 4243 H 414.809 -3.58889 -2.58169 0
M  V30 4244 N 413.868 0.0150385 -1.57593 0
M  V30 4245 C 415.145 0.7392 -1.81094 0
M  V30 4246 C 415.525 1.92817 -0.859344 0
M  V30 4247 O 414.873 2.28301 0.095362 0
M  V30 4248 C 415.083 1.15907 -3.29191 0
M  V30 4249 C 416.431 1.56918 -3.9454 0
M  V30 4250 O 417.455 1.25328 -3.33424 0
M  V30 4251 O 416.314 2.15604 -5.02173 0
M  V30 4252 H 413.408 0.358631 -0.745193 0
M  V30 4253 H 415.954 -0.00926156 -1.69697 0
M  V30 4254 H 414.726 0.310921 -3.90063 0
M  V30 4255 H 414.349 1.96711 -3.45529 0
M  V30 4256 N 415.346 1.54954 0.287554 0
M  V30 4257 C 416.592 1.75132 1.02257 0
M  V30 4258 C 416.925 0.542858 1.86458 0
M  V30 4259 O 416.2 -0.459856 1.88986 0
M  V30 4260 C 416.483 3.04812 1.91733 0
M  V30 4261 C 416.336 4.35985 1.10622 0
M  V30 4262 C 417.655 3.30438 2.90687 0
M  V30 4263 H 414.774 0.637194 0.370341 0
M  V30 4264 H 417.416 1.87678 0.296111 0
M  V30 4265 H 415.566 2.94247 2.53675 0
M  V30 4266 H 417.238 4.58487 0.508636 0
M  V30 4267 H 415.481 4.31865 0.409271 0
M  V30 4268 H 416.152 5.23017 1.76513 0
M  V30 4269 H 418.628 3.40701 2.38877 0
M  V30 4270 H 417.504 4.22467 3.50447 0
M  V30 4271 H 417.765 2.49377 3.65053 0
M  V30 4272 N 416.824 -0.551391 1.4764 0
M  V30 4273 C 418.049 -1.33837 1.58437 0
M  V30 4274 C 418.474 -1.866 0.237063 0
M  V30 4275 O 417.832 -1.6328 -0.787994 0
M  V30 4276 C 417.88 -2.48014 2.61766 0
M  V30 4277 O 416.984 -3.50419 2.1744 0
M  V30 4278 H 416.325 -0.397299 0.532024 0
M  V30 4279 H 418.855 -0.665759 1.93465 0
M  V30 4280 H 418.865 -2.94503 2.82369 0
M  V30 4281 H 417.54 -2.08969 3.5959 0
M  V30 4282 H 416.117 -3.10196 2.06961 0
M  V30 4283 N 418.302 -1.35869 -0.798587 0
M  V30 4284 C 419.212 -1.31578 -1.94228 0
M  V30 4285 C 420.228 -0.21939 -1.72611 0
M  V30 4286 O 421.404 -0.450167 -1.96305 0
M  V30 4287 C 418.469 -1.09528 -3.28944 0
M  V30 4288 C 417.53 -2.28556 -3.63402 0
M  V30 4289 C 416.763 -2.07549 -4.9169 0
M  V30 4290 O 416.986 -1.046 -5.60727 0
M  V30 4291 O 415.92 -2.95106 -5.24591 0
M  V30 4292 H 419.746 -2.27847 -2.00796 0
M  V30 4293 H 417.331 -1.16322 -0.937526 0
M  V30 4294 H 419.213 -0.991127 -4.09579 0
M  V30 4295 H 417.888 -0.16315 -3.23289 0
M  V30 4296 H 416.795 -2.44538 -2.83112 0
M  V30 4297 H 418.128 -3.20244 -3.73771 0
M  V30 4298 N 419.78 1.02168 -1.19998 0
M  V30 4299 C 420.712 2.10705 -0.901994 0
M  V30 4300 C 421.725 1.6244 0.108216 0
M  V30 4301 O 422.914 1.78082 -0.12214 0
M  V30 4302 C 420.014 3.37291 -0.329834 0
M  V30 4303 C 419.187 4.14714 -1.39035 0
M  V30 4304 C 418.246 5.19606 -0.830432 0
M  V30 4305 O 417.272 5.48809 -1.50989 0
M  V30 4306 N 418.474 5.79366 0.362696 0
M  V30 4307 H 421.239 2.36856 -1.83628 0
M  V30 4308 H 418.8 1.18518 -1.10296 0
M  V30 4309 H 420.792 4.04657 0.0587633 0
M  V30 4310 H 419.362 3.0843 0.508891 0
M  V30 4311 H 418.582 3.42392 -1.9535 0
M  V30 4312 H 419.87 4.63226 -2.10474 0
M  V30 4313 H 419.268 5.57968 0.932081 0
M  V30 4314 H 417.825 6.48106 0.69299 0
M  V30 4315 N 421.258 1.00505 1.21394 0
M  V30 4316 C 422.674 0.717873 1.42544 0
M  V30 4317 C 422.874 -0.706936 1.88692 0
M  V30 4318 O 421.93 -1.47627 2.04847 0
M  V30 4319 C 423.243 1.73377 2.45684 0
M  V30 4320 C 424.791 1.75059 2.59467 0
M  V30 4321 C 425.266 2.75545 3.6584 0
M  V30 4322 N 426.757 2.74213 3.73311 0
M  V30 4323 C 427.492 3.48626 4.55245 0
M  V30 4324 N 426.988 4.32678 5.41075 0
M  V30 4325 N 428.781 3.37276 4.49668 0
M  V30 4326 H 420.932 1.92506 0.897503 0
M  V30 4327 H 423.195 0.830919 0.456375 0
M  V30 4328 H 422.901 2.75395 2.18748 0
M  V30 4329 H 422.775 1.53647 3.44489 0
M  V30 4330 H 425.162 0.737337 2.8574 0
M  V30 4331 H 425.243 1.98861 1.60897 0
M  V30 4332 H 424.887 3.77028 3.40313 0
M  V30 4333 H 424.817 2.49009 4.64007 0
M  V30 4334 H 427.308 2.13234 3.11993 0
M  V30 4335 H 427.621 4.86253 6.00648 0
M  V30 4336 H 425.966 4.3676 5.40616 0
M  V30 4337 H 429.157 2.71043 3.81646 0
M  V30 4338 H 429.33 3.95524 5.13288 0
M  V30 4339 N 422.737 -1.36956 0.779787 0
M  V30 4340 C 423.667 -2.32761 0.185651 0
M  V30 4341 C 424.648 -1.56177 -0.673989 0
M  V30 4342 O 425.833 -1.84378 -0.609797 0
M  V30 4343 C 422.963 -3.40418 -0.687964 0
M  V30 4344 C 421.917 -4.27941 0.0710102 0
M  V30 4345 C 421.243 -5.26681 -0.922573 0
M  V30 4346 C 422.543 -5.07006 1.25467 0
M  V30 4347 H 424.237 -2.82698 0.986008 0
M  V30 4348 H 421.783 -1.3592 0.475592 0
M  V30 4349 H 423.736 -4.06423 -1.11348 0
M  V30 4350 H 422.46 -2.89025 -1.52093 0
M  V30 4351 H 421.119 -3.63478 0.47739 0
M  V30 4352 H 420.767 -4.71565 -1.7503 0
M  V30 4353 H 420.467 -5.86103 -0.419237 0
M  V30 4354 H 421.991 -5.9556 -1.34686 0
M  V30 4355 H 423.405 -5.66105 0.905401 0
M  V30 4356 H 421.802 -5.75793 1.69063 0
M  V30 4357 H 422.872 -4.3921 2.05481 0
M  V30 4358 N 424.215 -0.530993 -1.48385 0
M  V30 4359 C 425.178 0.220497 -2.28137 0
M  V30 4360 C 426.178 0.866851 -1.35434 0
M  V30 4361 O 427.368 0.726746 -1.58316 0
M  V30 4362 C 424.5 1.31921 -3.1434 0
M  V30 4363 H 425.693 -0.479714 -2.96038 0
M  V30 4364 H 423.246 -0.286968 -1.53643 0
M  V30 4365 H 423.981 2.05264 -2.51072 0
M  V30 4366 H 423.766 0.86085 -3.82533 0
M  V30 4367 H 425.256 1.84776 -3.74497 0
M  V30 4368 N 425.693 1.55336 -0.266172 0
M  V30 4369 C 426.603 2.2583 0.635458 0
M  V30 4370 C 427.619 1.28106 1.17749 0
M  V30 4371 O 428.795 1.61024 1.20968 0
M  V30 4372 C 425.86 2.95879 1.80712 0
M  V30 4373 C 424.921 4.09059 1.30265 0
M  V30 4374 C 424.154 4.75759 2.41846 0
M  V30 4375 O 424.377 4.41622 3.61007 0
M  V30 4376 O 423.311 5.63888 2.1051 0
M  V30 4377 H 427.137 3.03631 0.0646693 0
M  V30 4378 H 424.722 1.49361 -0.0339177 0
M  V30 4379 H 426.604 3.39932 2.49047 0
M  V30 4380 H 425.279 2.21002 2.36516 0
M  V30 4381 H 424.186 3.69482 0.586019 0
M  V30 4382 H 425.519 4.85811 0.790458 0
M  V30 4383 N 427.171 -0.0066808 1.57599 0
M  V30 4384 C 428.417 -0.693947 1.90558 0
M  V30 4385 C 428.75 -1.73792 0.866594 0
M  V30 4386 O 428.025 -1.94156 -0.115548 0
M  V30 4387 C 428.308 -1.34317 3.34112 0
M  V30 4388 C 428.161 -0.311189 4.48722 0
M  V30 4389 C 429.48 -2.27116 3.7697 0
M  V30 4390 H 426.599 -0.250803 0.693013 0
M  V30 4391 H 429.241 0.043242 1.89951 0
M  V30 4392 H 427.391 -1.9715 3.3476 0
M  V30 4393 H 429.063 0.316944 4.6021 0
M  V30 4394 H 427.306 0.367253 4.32243 0
M  V30 4395 H 427.977 -0.804366 5.46108 0
M  V30 4396 H 430.453 -1.74306 3.77831 0
M  V30 4397 H 429.329 -2.69511 4.78179 0
M  V30 4398 H 429.59 -3.14743 3.10466 0
M  V30 4399 N 428.649 -1.55105 -0.279332 0
M  V30 4400 C 429.559 -1.90638 -1.36727 0
M  V30 4401 C 430.575 -0.802899 -1.54368 0
M  V30 4402 O 431.751 -1.10138 -1.68616 0
M  V30 4403 C 428.816 -2.16547 -2.70755 0
M  V30 4404 C 427.877 -3.40146 -2.61915 0
M  V30 4405 C 427.11 -3.6481 -3.8955 0
M  V30 4406 O 427.333 -2.92095 -4.89935 0
M  V30 4407 O 426.267 -4.58343 -3.90135 0
M  V30 4408 H 430.093 -2.83237 -1.09591 0
M  V30 4409 H 427.678 -1.4157 -0.477306 0
M  V30 4410 H 429.56 -2.34665 -3.50014 0
M  V30 4411 H 428.235 -1.27131 -2.9769 0
M  V30 4412 H 427.142 -3.2737 -1.81052 0
M  V30 4413 H 428.475 -4.29761 -2.3993 0
M  V30 4414 N 430.127 0.543554 -1.4793 0
M  V30 4415 C 431.376 1.29649 -1.54512 0
M  V30 4416 C 431.689 1.94382 -0.217973 0
M  V30 4417 O 432.895 2.71017 -0.161908 0
M  V30 4418 C 431.351 2.35175 -2.72435 0
M  V30 4419 C 430.959 1.76572 -4.11736 0
M  V30 4420 C 432.703 3.11564 -2.8832 0
M  V30 4421 C 430.61 2.79958 -5.20939 0
M  V30 4422 H 429.54 0.487541 -0.57517 0
M  V30 4423 H 432.191 0.575708 -1.74235 0
M  V30 4424 H 430.573 3.10229 -2.46118 0
M  V30 4425 H 431.747 1.07799 -4.48013 0
M  V30 4426 H 430.062 1.12722 -4.00852 0
M  V30 4427 H 432.659 3.88794 -3.67074 0
M  V30 4428 H 433.002 3.66594 -1.97268 0
M  V30 4429 H 433.535 2.43623 -3.14472 0
M  V30 4430 H 430.274 2.29766 -6.13912 0
M  V30 4431 H 429.794 3.47101 -4.89164 0
M  V30 4432 H 431.473 3.43198 -5.48474 0
M  V30 4433 N 431.605 1.3629 0.791371 0
M  V30 4434 C 432.882 1.20962 1.53712 0
M  V30 4435 C 433.262 -0.205021 2.10102 0
M  V30 4436 O 432.61 -1.21042 1.93807 0
M  V30 4437 C 432.82 2.29002 2.63361 0
M  V30 4438 C 434.168 2.65572 3.31295 0
M  V30 4439 O 435.192 2.2803 2.73643 0
M  V30 4440 O 434.051 3.3018 4.35481 0
M  V30 4441 H 431.145 0.47086 0.679867 0
M  V30 4442 H 433.691 1.48016 0.830021 0
M  V30 4443 H 432.463 3.2382 2.19674 0
M  V30 4444 H 432.086 2.03303 3.41692 0
M  V30 4445 N 433.083 -1.0153 1.20538 0
M  V30 4446 C 434.494 -1.56598 1.01657 0
M  V30 4447 C 434.845 -1.91505 -0.426668 0
M  V30 4448 O 433.97 -1.72375 -1.30827 0
M  V30 4449 C 434.565 -2.84542 1.83905 0
M  V30 4450 C 433.124 -3.36133 1.69386 0
M  V30 4451 C 432.271 -2.09427 1.81757 0
M  V30 4452 H 435.222 -0.838974 1.34711 0
M  V30 4453 H 435.243 -3.56004 1.34319 0
M  V30 4454 H 434.755 -2.59105 2.8894 0
M  V30 4455 H 432.856 -3.66528 0.669933 0
M  V30 4456 H 432.969 -4.08248 2.50739 0
M  V30 4457 H 431.333 -2.21941 1.24957 0
M  V30 4458 H 432.116 -1.86414 2.88279 0
M  V30 4459 N 434.561 -1.01147 -1.20859 0
M  V30 4460 C 435.524 -0.582224 -2.21682 0
M  V30 4461 C 436.524 0.344887 -1.57058 0
M  V30 4462 O 437.714 0.134281 -1.73682 0
M  V30 4463 C 434.846 0.150496 -3.40568 0
M  V30 4464 H 436.039 -1.47408 -2.61172 0
M  V30 4465 H 433.592 -0.800695 -1.34233 0
M  V30 4466 H 434.327 1.0575 -3.06574 0
M  V30 4467 H 434.112 -0.515444 -3.88697 0
M  V30 4468 H 435.602 0.438344 -4.15293 0
M  V30 4469 N 436.039 1.36541 -0.78704 0
M  V30 4470 C 437.002 2.28413 -0.189778 0
M  V30 4471 C 438.002 1.48719 0.611499 0
M  V30 4472 O 439.192 1.68737 0.432842 0
M  V30 4473 C 436.324 3.32824 0.737638 0
M  V30 4474 H 437.517 2.82743 -0.999831 0
M  V30 4475 H 435.07 1.46065 -0.556298 0
M  V30 4476 H 435.805 2.83646 1.57212 0
M  V30 4477 H 435.59 3.91752 0.165044 0
M  V30 4478 H 437.08 4.0144 1.15047 0
M  V30 4479 N 437.518 0.538854 1.48102 0
M  V30 4480 C 438.764 0.0161732 2.03394 0
M  V30 4481 C 439.119 -1.31154 1.40771 0
M  V30 4482 O 438.412 -1.83613 0.547421 0
M  V30 4483 C 438.606 -0.153808 3.57069 0
M  V30 4484 C 438.435 1.15588 4.34591 0
M  V30 4485 C 437.205 1.71818 4.75191 0
M  V30 4486 C 439.403 2.06867 4.70861 0
M  V30 4487 N 437.385 2.96983 5.37284 0
M  V30 4488 C 438.756 3.16609 5.33066 0
M  V30 4489 C 440.811 2.07085 4.52791 0
M  V30 4490 C 439.514 4.26645 5.79109 0
M  V30 4491 C 441.54 3.16121 4.99821 0
M  V30 4492 C 440.902 4.24582 5.62058 0
M  V30 4493 H 437.001 0.0476346 0.780548 0
M  V30 4494 H 439.585 0.722094 1.80815 0
M  V30 4495 H 437.756 -0.828825 3.79454 0
M  V30 4496 H 439.488 -0.676896 3.98999 0
M  V30 4497 H 436.243 1.25845 4.56574 0
M  V30 4498 H 436.667 3.60732 5.72889 0
M  V30 4499 H 441.309 1.24522 4.04047 0
M  V30 4500 H 439.027 5.0998 6.26854 0
M  V30 4501 H 442.613 3.17355 4.87624 0
M  V30 4502 H 441.493 5.07562 5.97788 0
M  V30 4503 N 438.996 -1.55193 0.274407 0
M  V30 4504 C 439.928 -2.1989 -0.646595 0
M  V30 4505 C 440.941 -1.1834 -1.11801 0
M  V30 4506 O 442.13 -1.4507 -1.04004 0
M  V30 4507 C 439.23 -2.8104 -1.89393 0
M  V30 4508 C 438.403 -4.08274 -1.56943 0
M  V30 4509 C 437.462 -4.53478 -2.66916 0
M  V30 4510 O 436.488 -5.19267 -2.33132 0
M  V30 4511 N 437.69 -4.2356 -3.9696 0
M  V30 4512 H 440.455 -2.99556 -0.0928686 0
M  V30 4513 H 438.016 -1.61618 0.0954783 0
M  V30 4514 H 440.008 -3.08226 -2.62257 0
M  V30 4515 H 438.578 -2.05372 -2.35672 0
M  V30 4516 H 437.798 -3.88384 -0.674655 0
M  V30 4517 H 439.086 -4.91173 -1.32764 0
M  V30 4518 H 438.484 -3.70799 -4.27229 0
M  V30 4519 H 437.041 -4.55518 -4.66205 0
M  V30 4520 N 440.474 -0.00167713 -1.576 0
M  V30 4521 C 441.437 0.974046 -2.07473 0
M  V30 4522 C 442.437 1.27143 -0.984444 0
M  V30 4523 O 443.627 1.21633 -1.24703 0
M  V30 4524 C 440.759 2.29849 -2.51759 0
M  V30 4525 H 441.952 0.54262 -2.9495 0
M  V30 4526 H 439.505 0.245829 -1.54355 0
M  V30 4527 H 440.24 2.77677 -1.67529 0
M  V30 4528 H 440.025 2.09584 -3.31386 0
M  V30 4529 H 441.515 2.9984 -2.90664 0
M  V30 4530 N 441.952 1.55251 0.271103 0
M  V30 4531 C 443.368 1.47133 0.618393 0
M  V30 4532 C 443.568 0.686994 1.89427 0
M  V30 4533 O 442.624 0.206609 2.51653 0
M  V30 4534 C 443.937 2.91361 0.743593 0
M  V30 4535 C 445.485 3.01587 0.837522 0
M  V30 4536 C 445.96 4.47073 0.994483 0
M  V30 4537 N 447.451 4.50909 1.05996 0
M  V30 4538 C 448.186 5.60698 1.20024 0
M  V30 4539 N 447.682 6.80348 1.30759 0
M  V30 4540 N 449.475 5.48444 1.23149 0
M  V30 4541 H 441.626 2.04698 -0.566784 0
M  V30 4542 H 443.889 0.928319 -0.192165 0
M  V30 4543 H 443.595 3.51483 -0.123493 0
M  V30 4544 H 443.469 3.40484 1.62328 0
M  V30 4545 H 445.856 2.4156 1.69507 0
M  V30 4546 H 445.937 2.55713 -0.0668086 0
M  V30 4547 H 445.581 5.07703 0.141582 0
M  V30 4548 H 445.511 4.90605 1.91349 0
M  V30 4549 H 448.002 3.6472 0.989316 0
M  V30 4550 H 448.315 7.59772 1.41303 0
M  V30 4551 H 446.66 6.83156 1.27761 0
M  V30 4552 H 449.851 4.53907 1.14394 0
M  V30 4553 H 450.024 6.34049 1.33738 0
M  V30 4554 N 443.43 -0.535701 1.48216 0
M  V30 4555 C 444.36 -1.65014 1.65204 0
M  V30 4556 C 445.341 -1.62554 0.501011 0
M  V30 4557 O 446.526 -1.7984 0.732886 0
M  V30 4558 C 443.656 -3.03616 1.68626 0
M  V30 4559 C 442.61 -3.20932 2.83172 0
M  V30 4560 C 441.936 -4.60537 2.71679 0
M  V30 4561 C 443.236 -3.04249 4.24535 0
M  V30 4562 H 444.93 -1.51053 2.58502 0
M  V30 4563 H 442.476 -0.725262 1.24402 0
M  V30 4564 H 444.429 -3.81446 1.79099 0
M  V30 4565 H 443.153 -3.18587 0.719026 0
M  V30 4566 H 441.812 -2.45517 2.72244 0
M  V30 4567 H 441.46 -4.72336 1.72937 0
M  V30 4568 H 441.16 -4.73069 3.48538 0
M  V30 4569 H 442.684 -5.40475 2.84112 0
M  V30 4570 H 444.098 -3.71877 4.36326 0
M  V30 4571 H 442.495 -3.28278 5.02348 0
M  V30 4572 H 443.565 -2.00739 4.41397 0
M  V30 4573 N 444.908 -1.36708 -0.784132 0
M  V30 4574 C 445.871 -1.31307 -1.87859 0
M  V30 4575 C 446.871 -0.219654 -1.59293 0
M  V30 4576 O 448.061 -0.47476 -1.67606 0
M  V30 4577 C 445.193 -1.03679 -3.24751 0
M  V30 4578 H 446.386 -2.28647 -1.94064 0
M  V30 4579 H 443.939 -1.21558 -0.98252 0
M  V30 4580 H 444.674 -0.0681936 -3.24228 0
M  V30 4581 H 444.459 -1.82811 -3.46876 0
M  V30 4582 H 445.949 -1.02518 -4.04821 0
M  V30 4583 N 446.386 1.0089 -1.21074 0
M  V30 4584 C 447.349 2.0775 -0.968129 0
M  V30 4585 C 448.349 1.6069 0.0593445 0
M  V30 4586 O 449.539 1.73293 -0.177525 0
M  V30 4587 C 446.671 3.37794 -0.459108 0
M  V30 4588 H 447.864 2.30707 -1.9161 0
M  V30 4589 H 445.417 1.17807 -1.02719 0
M  V30 4590 H 446.152 3.20516 0.49397 0
M  V30 4591 H 445.937 3.7328 -1.20019 0
M  V30 4592 H 447.427 4.16454 -0.309099 0
M  V30 4593 N 447.864 1.01787 1.20321 0
M  V30 4594 C 448.827 0.593972 2.2137 0
M  V30 4595 C 449.827 -0.336553 1.57239 0
M  V30 4596 O 451.017 -0.125069 1.7375 0
M  V30 4597 C 448.149 -0.132433 3.40643 0
M  V30 4598 H 449.342 1.48791 2.60387 0
M  V30 4599 H 446.895 0.807803 1.33807 0
M  V30 4600 H 447.63 -1.04123 3.0713 0
M  V30 4601 H 447.415 0.53605 3.88418 0
M  V30 4602 H 448.905 -0.416314 4.1552 0
M  V30 4603 N 449.342 -1.36122 0.79427 0
M  V30 4604 C 450.758 -1.5232 0.476525 0
M  V30 4605 C 450.958 -1.74685 -1.00436 0
M  V30 4606 O 450.014 -1.78115 -1.78973 0
M  V30 4607 C 451.327 -2.70607 1.31119 0
M  V30 4608 C 452.875 -2.8448 1.30537 0
M  V30 4609 C 453.35 -4.05778 2.12387 0
M  V30 4610 N 454.841 -4.12933 2.09859 0
M  V30 4611 C 455.576 -5.05876 2.69957 0
M  V30 4612 N 455.072 -6.04232 3.38934 0
M  V30 4613 N 456.865 -4.98528 2.59665 0
M  V30 4614 H 449.016 -1.1986 1.75349 0
M  V30 4615 H 451.279 -0.585418 0.745647 0
M  V30 4616 H 450.985 -2.60619 2.36158 0
M  V30 4617 H 450.859 -3.64888 0.955843 0
M  V30 4618 H 453.246 -2.93927 0.262876 0
M  V30 4619 H 453.327 -1.91093 1.70051 0
M  V30 4620 H 452.971 -3.97092 3.1667 0
M  V30 4621 H 452.901 -4.98323 1.70242 0
M  V30 4622 H 455.392 -3.42515 1.59662 0
M  V30 4623 H 455.705 -6.71724 3.82109 0
M  V30 4624 H 454.05 -6.04443 3.43036 0
M  V30 4625 H 457.241 -4.20641 2.05375 0
M  V30 4626 H 457.414 -5.70773 3.06793 0
M  V30 4627 N 450.82 -0.546701 -1.47814 0
M  V30 4628 C 451.783 0.196287 -2.28358 0
M  V30 4629 C 452.783 0.852437 -1.36346 0
M  V30 4630 O 453.973 0.709913 -1.59078 0
M  V30 4631 C 451.105 1.28579 -3.15722 0
M  V30 4632 H 452.298 -0.511086 -2.95513 0
M  V30 4633 H 449.851 -0.303248 -1.5333 0
M  V30 4634 H 450.586 2.0259 -2.53235 0
M  V30 4635 H 450.371 0.820229 -3.83425 0
M  V30 4636 H 451.861 1.80793 -3.76435 0
M  V30 4637 N 452.299 1.55045 -0.282633 0
M  V30 4638 C 453.262 2.21515 0.588539 0
M  V30 4639 C 454.262 1.19535 1.07554 0
M  V30 4640 O 455.452 1.44391 0.974514 0
M  V30 4641 C 452.584 2.88704 1.8128 0
M  V30 4642 H 453.777 2.99899 0.00806397 0
M  V30 4643 H 451.33 1.56265 -0.0333067 0
M  V30 4644 H 452.065 2.14352 2.43359 0
M  V30 4645 H 451.85 3.63443 1.47144 0
M  V30 4646 H 453.34 3.39465 2.43214 0
M  V30 4647 N 453.777 0.010035 1.57597 0
M  V30 4648 C 455.023 -0.668011 1.92118 0
M  V30 4649 C 455.378 -1.70821 0.885328 0
M  V30 4650 O 454.671 -1.91333 -0.101187 0
M  V30 4651 C 454.865 -1.34434 3.31153 0
M  V30 4652 C 454.694 -0.371176 4.48166 0
M  V30 4653 C 453.464 0.0220686 5.05295 0
M  V30 4654 C 455.662 0.366731 5.12991 0
M  V30 4655 N 453.644 0.9924 6.05826 0
M  V30 4656 C 455.015 1.19142 6.08445 0
M  V30 4657 C 457.07 0.429489 4.96044 0
M  V30 4658 C 455.773 2.07317 6.88776 0
M  V30 4659 C 457.799 1.2985 5.76969 0
M  V30 4660 C 457.161 2.11101 6.72023 0
M  V30 4661 H 453.26 -0.217337 0.751192 0
M  V30 4662 H 455.844 0.0727375 1.94564 0
M  V30 4663 H 454.015 -2.05533 3.29561 0
M  V30 4664 H 455.747 -1.97789 3.53075 0
M  V30 4665 H 452.502 -0.348409 4.72317 0
M  V30 4666 H 452.926 1.47324 6.60776 0
M  V30 4667 H 457.568 -0.18442 4.22398 0
M  V30 4668 H 455.286 2.69771 7.61741 0
M  V30 4669 H 458.872 1.3511 5.65894 0
M  V30 4670 H 457.752 2.77257 7.33552 0
M  V30 4671 N 455.255 -1.55392 -0.262866 0
M  V30 4672 C 456.165 -1.92077 -1.34698 0
M  V30 4673 C 457.181 -0.819227 -1.53508 0
M  V30 4674 O 458.357 -1.11921 -1.67439 0
M  V30 4675 C 455.422 -2.19407 -2.68443 0
M  V30 4676 C 454.483 -3.42905 -2.58292 0
M  V30 4677 C 453.716 -3.68921 -3.85659 0
M  V30 4678 O 453.939 -2.97275 -4.8681 0
M  V30 4679 O 452.873 -4.62455 -3.85252 0
M  V30 4680 H 456.699 -2.84384 -1.06581 0
M  V30 4681 H 454.284 -1.42069 -0.462264 0
M  V30 4682 H 456.166 -2.38365 -3.47506 0
M  V30 4683 H 454.841 -1.30282 -2.96325 0
M  V30 4684 H 453.748 -3.29272 -1.7757 0
M  V30 4685 H 455.081 -4.32282 -2.35358 0
M  V30 4686 N 456.733 0.527833 -1.48498 0
M  V30 4687 C 457.665 1.6482 -1.5927 0
M  V30 4688 C 458.678 1.55659 -0.476869 0
M  V30 4689 O 459.867 1.62081 -0.747806 0
M  V30 4690 C 456.967 3.0348 -1.50842 0
M  V30 4691 C 456.14 3.381 -2.77502 0
M  V30 4692 C 455.199 4.5605 -2.62497 0
M  V30 4693 O 454.225 4.59165 -3.36387 0
M  V30 4694 N 455.427 5.54353 -1.72257 0
M  V30 4695 H 458.192 1.56015 -2.55889 0
M  V30 4696 H 455.753 0.715152 -1.45249 0
M  V30 4697 H 457.745 3.80264 -1.38496 0
M  V30 4698 H 456.315 3.06352 -0.621887 0
M  V30 4699 H 455.535 2.50473 -3.04396 0
M  V30 4700 H 456.823 3.58017 -3.61527 0
M  V30 4701 H 456.221 5.54617 -1.11431 0
M  V30 4702 H 454.778 6.30347 -1.65849 0
M  V30 4703 N 458.211 1.37122 0.776871 0
M  V30 4704 C 459.457 1.32243 1.53752 0
M  V30 4705 C 459.79 -0.0944745 1.9397 0
M  V30 4706 O 459.065 -1.05068 1.6368 0
M  V30 4707 C 459.348 2.25681 2.80607 0
M  V30 4708 C 459.201 3.76127 2.46676 0
M  V30 4709 C 460.52 2.17657 3.82509 0
M  V30 4710 H 457.639 0.481704 0.557791 0
M  V30 4711 H 460.281 1.6778 0.891612 0
M  V30 4712 H 458.431 1.95505 3.35723 0
M  V30 4713 H 460.103 4.16877 1.97513 0
M  V30 4714 H 458.346 3.94946 1.79443 0
M  V30 4715 H 459.017 4.36933 3.37333 0
M  V30 4716 H 461.493 2.44245 3.36873 0
M  V30 4717 H 460.369 2.85185 4.69 0
M  V30 4718 H 460.63 1.16785 4.26396 0
M  V30 4719 N 459.689 -1.00246 1.21608 0
M  V30 4720 C 460.599 -2.12515 0.993709 0
M  V30 4721 C 461.615 -1.73913 -0.0549939 0
M  V30 4722 O 462.791 -2.00943 0.135619 0
M  V30 4723 C 459.856 -3.42083 0.563953 0
M  V30 4724 C 458.917 -3.94843 1.68516 0
M  V30 4725 C 458.15 -5.18226 1.27582 0
M  V30 4726 O 458.373 -5.70201 0.150506 0
M  V30 4727 O 457.307 -5.64497 2.0887 0
M  V30 4728 H 461.133 -2.34152 1.93407 0
M  V30 4729 H 458.718 -1.10891 1.00118 0
M  V30 4730 H 460.6 -4.20073 0.334194 0
M  V30 4731 H 459.275 -3.21828 -0.347665 0
M  V30 4732 H 458.182 -3.18068 1.96935 0
M  V30 4733 H 459.515 -4.19512 2.5743 0
M  V30 4734 N 461.167 -1.02423 -1.1978 0
M  V30 4735 C 462.583 -0.740459 -1.41384 0
M  V30 4736 C 462.783 0.676827 -1.89793 0
M  V30 4737 O 461.839 1.4435 -2.0717 0
M  V30 4738 C 463.152 -1.77264 -2.42895 0
M  V30 4739 C 464.7 -1.79165 -2.56649 0
M  V30 4740 C 465.175 -2.8133 -3.6141 0
M  V30 4741 N 466.666 -2.80118 -3.68901 0
M  V30 4742 C 467.401 -3.55824 -4.49641 0
M  V30 4743 N 466.897 -4.41231 -5.34123 0
M  V30 4744 N 468.69 -3.44387 -4.44246 0
M  V30 4745 H 460.841 -1.9391 -0.866764 0
M  V30 4746 H 463.104 -0.838074 -0.443098 0
M  V30 4747 H 462.81 -2.7884 -2.14339 0
M  V30 4748 H 462.684 -1.59108 -3.42001 0
M  V30 4749 H 465.071 -0.782702 -2.84531 0
M  V30 4750 H 465.152 -2.01396 -1.57713 0
M  V30 4751 H 464.796 -3.82394 -3.34271 0
M  V30 4752 H 464.726 -2.56359 -4.59986 0
M  V30 4753 H 467.217 -2.1817 -3.08562 0
M  V30 4754 H 467.53 -4.95747 -5.92836 0
M  V30 4755 H 465.875 -4.45306 -5.33599 0
M  V30 4756 H 469.066 -2.7708 -3.77285 0
M  V30 4757 H 469.239 -4.0364 -5.06931 0
M  V30 4758 N 462.645 1.35699 -0.801477 0
M  V30 4759 C 463.555 2.33661 -0.209691 0
M  V30 4760 C 464.571 1.6162 0.644591 0
M  V30 4761 O 465.747 1.93529 0.557545 0
M  V30 4762 C 462.812 3.40816 0.636033 0
M  V30 4763 C 461.873 4.28639 -0.238147 0
M  V30 4764 C 461.106 5.30676 0.567307 0
M  V30 4765 O 461.329 5.41174 1.8024 0
M  V30 4766 O 460.263 6.01887 -0.0391336 0
M  V30 4767 H 464.089 2.8606 -1.01996 0
M  V30 4768 H 461.674 1.38379 -0.563164 0
M  V30 4769 H 463.556 4.06301 1.11791 0
M  V30 4770 H 462.231 2.90696 1.42399 0
M  V30 4771 H 461.138 3.66152 -0.767044 0
M  V30 4772 H 462.471 4.82143 -0.989915 0
M  V30 4773 N 464.123 0.554532 1.47522 0
M  V30 4774 C 465.534 0.120446 1.86311 0
M  V30 4775 C 465.885 -1.30904 1.46145 0
M  V30 4776 O 465.01 -1.98434 0.863294 0
M  V30 4777 C 465.605 0.211808 3.38137 0
M  V30 4778 C 464.164 -0.167224 3.76028 0
M  V30 4779 C 463.311 0.560576 2.71575 0
M  V30 4780 H 466.262 0.764408 1.39077 0
M  V30 4781 H 466.283 -0.570275 3.76202 0
M  V30 4782 H 465.795 1.25232 3.6734 0
M  V30 4783 H 463.896 -1.20894 3.52442 0
M  V30 4784 H 464.009 0.189473 4.78725 0
M  V30 4785 H 462.373 0.00396836 2.547 0
M  V30 4786 H 463.156 1.60219 3.0362 0
M  V30 4787 N 465.601 -1.54893 0.290851 0
M  V30 4788 C 466.849 -1.99538 -0.320756 0
M  V30 4789 C 467.17 -1.18075 -1.55188 0
M  V30 4790 O 466.44 -0.274162 -1.93972 0
M  V30 4791 H 465.02 -0.737052 -0.121507 0
M  V30 4792 H 467.682 -1.90755 0.399832 0
M  V30 4793 H 466.778 -3.06282 -0.599802 0
M  V30 4794 N 467.08 -0.0183926 -1.57589 0
M  V30 4795 C 468.491 0.521927 -1.79256 0
M  V30 4796 C 468.842 1.72885 -0.927636 0
M  V30 4797 O 467.967 2.15978 -0.135091 0
M  V30 4798 C 468.562 0.953632 -3.25102 0
M  V30 4799 C 467.121 1.43913 -3.47801 0
M  V30 4800 C 466.268 0.398837 -2.74417 0
M  V30 4801 H 469.219 -0.244485 -1.56805 0
M  V30 4802 H 469.24 1.81863 -3.34224 0
M  V30 4803 H 468.752 0.0750123 -3.88028 0
M  V30 4804 H 466.853 2.33804 -2.90115 0
M  V30 4805 H 466.966 1.45391 -4.56507 0
M  V30 4806 H 465.33 0.864572 -2.39577 0
M  V30 4807 H 466.113 -0.471132 -3.40052 0
M  V30 4808 O 468.597 1.61027 0.12348 0
M  V30 4809 H 469.288 1.78369 0.755254 0
M  V30 END ATOM
M  V30 BEGIN BOND
M  V30 END BOND
M  V30 END CTAB
M  END
$$$$
