drugbank_target|Q02928 Cytochrome P450 4A11 (DB00157)
 OpenBabel12092119313D

  0  0  0     0  0            999 V3000
M  V30 BEGIN CTAB
M  V30 COUNTS 8407 8520 0 0 0
M  V30 BEGIN ATOM
M  V30 1 H -0.908 1.98254 -0.117106 0
M  V30 2 N 0 1.576 0 0
M  V30 3 C 0.933 2.03868 1.02534 0
M  V30 4 C 1.911 0.928543 1.3348 0
M  V30 5 O 3.095 1.19667 1.45644 0
M  V30 6 C 0.222 2.43627 2.35294 0
M  V30 7 C -0.732 3.65373 2.2001 0
M  V30 8 S 0.101 5.13292 1.52614 0
M  V30 9 C 1.257 5.56322 2.86805 0
M  V30 10 H 1.49 2.90518 0.631377 0
M  V30 11 H -0.977 1.52953 0.210867 0
M  V30 12 H 0.981 2.67203 3.11629 0
M  V30 13 H -0.358 1.57376 2.7183 0
M  V30 14 H -1.165 3.90944 3.18086 0
M  V30 15 H -1.563 3.418 1.51819 0
M  V30 16 H 0.729 5.58782 3.83104 0
M  V30 17 H 1.672 6.56266 2.65933 0
M  V30 18 H 2.08 4.83886 2.90714 0
M  V30 19 N 1.4781 -0.272755 1.55222 0
M  V30 20 C 2.7031 -1.02683 1.80197 0
M  V30 21 C 3.1281 -1.79142 0.573551 0
M  V30 22 O 2.4861 -1.74917 -0.476849 0
M  V30 23 C 2.5341 -1.9609 3.02624 0
M  V30 24 O 1.6381 -3.04863 2.77727 0
M  V30 25 H 0.9791 -0.293557 0.595584 0
M  V30 26 H 3.5091 -0.30159 2.02365 0
M  V30 27 H 3.5191 -2.38039 3.31363 0
M  V30 28 H 2.1941 -1.39851 3.91682 0
M  V30 29 H 0.7711 -2.67228 2.60084 0
M  V30 30 N 2.9562 -1.48159 -0.537278 0
M  V30 31 C 4.2022 -1.56035 -1.29541 0
M  V30 32 C 4.5352 -0.230377 -1.92829 0
M  V30 33 O 3.8102 0.762952 -1.78911 0
M  V30 34 C 4.0932 -2.69323 -2.39034 0
M  V30 35 C 3.9462 -4.12002 -1.80485 0
M  V30 36 C 5.2652 -2.78408 -3.40847 0
M  V30 37 H 2.3842 -0.567992 -0.469632 0
M  V30 38 H 5.0262 -1.80302 -0.599277 0
M  V30 39 H 3.1762 -2.48763 -2.98412 0
M  V30 40 H 4.8482 -4.43981 -1.25215 0
M  V30 41 H 3.0912 -4.19344 -1.11055 0
M  V30 42 H 3.7622 -4.87077 -2.59731 0
M  V30 43 H 6.2382 -2.97012 -2.91416 0
M  V30 44 H 5.1142 -3.59416 -4.14863 0
M  V30 45 H 5.3752 -1.86269 -4.00944 0
M  V30 46 N 4.4343 0.785586 -1.36625 0
M  V30 47 C 5.6593 1.57963 -1.34397 0
M  V30 48 C 6.0843 1.87964 0.071526 0
M  V30 49 O 5.4423 1.48182 1.0446 0
M  V30 50 C 5.4903 2.87511 -2.17646 0
M  V30 51 O 4.5943 3.81281 -1.57158 0
M  V30 52 H 3.9353 0.479014 -0.459828 0
M  V30 53 H 6.4653 0.973411 -1.79961 0
M  V30 54 H 6.4753 3.36745 -2.30362 0
M  V30 55 H 5.1503 2.65002 -3.20541 0
M  V30 56 H 3.7273 3.39885 -1.53403 0
M  V30 57 N 5.9124 1.20967 1.01018 0
M  V30 58 C 7.1584 1.02526 1.74975 0
M  V30 59 C 7.4914 -0.4408 1.89131 0
M  V30 60 O 6.7664 -1.32718 1.42184 0
M  V30 61 C 7.0494 1.71699 3.1653 0
M  V30 62 C 6.9024 3.25791 3.10129 0
M  V30 63 C 8.2214 1.45531 4.15342 0
M  V30 64 H 5.3404 0.373863 0.635134 0
M  V30 65 H 7.9824 1.49071 1.17805 0
M  V30 66 H 6.1324 1.32128 3.65341 0
M  V30 67 H 7.8044 3.74697 2.69072 0
M  V30 68 H 6.0474 3.56363 2.47362 0
M  V30 69 H 6.7184 3.69353 4.10222 0
M  V30 70 H 9.1944 1.79872 3.75213 0
M  V30 71 H 8.0704 1.96453 5.1254 0
M  V30 72 H 8.3314 0.384237 4.40427 0
M  V30 73 N 7.3905 -1.2043 1.01659 0
M  V30 74 C 8.3205 -2.25466 0.607226 0
M  V30 75 C 9.3015 -1.65853 -0.377716 0
M  V30 76 O 10.4865 -1.92409 -0.263149 0
M  V30 77 C 7.6165 -3.47256 -0.0552949 0
M  V30 78 C 6.5705 -4.19462 0.850632 0
M  V30 79 C 5.8965 -5.34673 0.0538859 0
M  V30 80 C 7.1965 -4.75603 2.15868 0
M  V30 81 H 8.8905 -2.59962 1.48526 0
M  V30 82 H 6.4365 -1.2496 0.715605 0
M  V30 83 H 8.3895 -4.19917 -0.353233 0
M  V30 84 H 7.1135 -3.11924 -0.968045 0
M  V30 85 H 5.7725 -3.48667 1.13257 0
M  V30 86 H 5.4205 -4.95585 -0.860514 0
M  V30 87 H 5.1205 -5.83913 0.657192 0
M  V30 88 H 6.6445 -6.10138 -0.237598 0
M  V30 89 H 8.0585 -5.40083 1.92311 0
M  V30 90 H 6.4555 -5.3528 2.71284 0
M  V30 91 H 7.5255 -3.94346 2.82169 0
M  V30 92 N 8.8686 -0.792821 -1.36206 0
M  V30 93 C 10.0936 -0.377701 -2.03932 0
M  V30 94 C 10.5186 0.998947 -1.59382 0
M  V30 95 O 9.8766 1.64421 -0.763903 0
M  V30 96 C 9.9246 -0.453635 -3.57735 0
M  V30 97 O 9.0286 0.538151 -4.08874 0
M  V30 98 H 8.3696 -0.159855 -0.644471 0
M  V30 99 H 10.8996 -1.07488 -1.7409 0
M  V30 100 H 10.9096 -0.318464 -4.06755 0
M  V30 101 H 9.5846 -1.45784 -3.89512 0
M  V30 102 H 8.1616 0.364359 -3.71116 0
M  V30 103 N 10.3467 1.47872 -0.545128 0
M  V30 104 C 11.7577 1.86384 -0.108581 0
M  V30 105 C 12.1087 1.45309 1.31832 0
M  V30 106 O 11.2337 0.850641 1.9898 0
M  V30 107 C 11.8287 3.38265 -0.190274 0
M  V30 108 C 10.3877 3.75914 0.191164 0
M  V30 109 C 9.5347 2.71926 -0.543273 0
M  V30 110 H 12.4857 1.39561 -0.755537 0
M  V30 111 H 12.5067 3.75831 0.594217 0
M  V30 112 H 12.0187 3.6813 -1.2289 0
M  V30 113 H 10.1197 3.51665 1.23136 0
M  V30 114 H 10.2327 4.78836 -0.158987 0
M  V30 115 H 8.5967 2.54697 0.0122495 0
M  V30 116 H 9.3797 3.04634 -1.58282 0
M  V30 117 N 11.8248 0.280983 1.55075 0
M  V30 118 C 13.0498 -0.340154 2.04592 0
M  V30 119 C 13.4748 -1.48246 1.15779 0
M  V30 120 O 12.8328 -1.80614 0.15761 0
M  V30 121 C 12.8808 -0.793104 3.5177 0
M  V30 122 O 11.9848 -1.89981 3.66034 0
M  V30 123 H 11.3258 -0.0694289 0.66036 0
M  V30 124 H 13.8558 0.416993 2.00306 0
M  V30 125 H 13.8658 -1.08729 3.93245 0
M  V30 126 H 12.5408 0.0426163 4.15878 0
M  V30 127 H 11.1178 -1.60771 3.36463 0
M  V30 128 N 13.3029 -1.57598 0.00835791 0
M  V30 129 C 14.7189 -1.55764 -0.347822 0
M  V30 130 C 14.9189 -1.01186 -1.74252 0
M  V30 131 O 13.9749 -0.649371 -2.44007 0
M  V30 132 C 15.2879 -2.99927 -0.215407 0
M  V30 133 C 16.8359 -3.11656 -0.289725 0
M  V30 134 C 17.3109 -4.57621 -0.18634 0
M  V30 135 N 18.8019 -4.62557 -0.243978 0
M  V30 136 C 19.5369 -5.73094 -0.18745 0
M  V30 137 N 19.0329 -6.92753 -0.0810331 0
M  V30 138 N 20.8259 -5.61588 -0.239925 0
M  V30 139 H 12.9769 -1.91411 0.92062 0
M  V30 140 H 15.2399 -0.879562 0.353659 0
M  V30 141 H 14.9459 -3.43729 0.744512 0
M  V30 142 H 14.8199 -3.63865 -0.994097 0
M  V30 143 H 17.2069 -2.67779 -1.24009 0
M  V30 144 H 17.2879 -2.5048 0.51898 0
M  V30 145 H 16.9319 -5.02174 0.760519 0
M  V30 146 H 16.8619 -5.16752 -1.01364 0
M  V30 147 H 19.3529 -3.76481 -0.327217 0
M  V30 148 H 19.6659 -7.72787 -0.0440241 0
M  V30 149 H 18.0109 -6.94984 -0.0465419 0
M  V30 150 H 21.2019 -4.66996 -0.321317 0
M  V30 151 H 21.3749 -6.47714 -0.192407 0
M  V30 152 N 14.781 0.264519 -1.55364 0
M  V30 153 C 15.711 1.33121 -1.91836 0
M  V30 154 C 16.692 1.51101 -0.781192 0
M  V30 155 O 17.877 1.64003 -1.04003 0
M  V30 156 C 15.007 2.68921 -2.19769 0
M  V30 157 C 13.961 2.65661 -3.35571 0
M  V30 158 C 13.287 4.05093 -3.49004 0
M  V30 159 C 14.587 2.24187 -4.71739 0
M  V30 160 H 16.281 1.02844 -2.81182 0
M  V30 161 H 13.827 0.493286 -1.35287 0
M  V30 162 H 15.78 3.43663 -2.43872 0
M  V30 163 H 14.504 3.00799 -1.27231 0
M  V30 164 H 13.163 1.93377 -3.1145 0
M  V30 165 H 12.811 4.34206 -2.53917 0
M  V30 166 H 12.511 4.03804 -4.26868 0
M  V30 167 H 14.035 4.81561 -3.75408 0
M  V30 168 H 15.449 2.88654 -4.9533 0
M  V30 169 H 13.846 2.34044 -5.52579 0
M  V30 170 H 14.916 1.19327 -4.69988 0
M  V30 171 N 16.2591 1.48442 0.529413 0
M  V30 172 C 17.1891 1.65902 1.64313 0
M  V30 173 C 18.1701 0.507897 1.6234 0
M  V30 174 O 19.3551 0.740503 1.79528 0
M  V30 175 C 16.4851 1.69911 3.02898 0
M  V30 176 C 15.4391 2.8453 3.19729 0
M  V30 177 C 14.7651 2.73629 4.59381 0
M  V30 178 C 16.0651 4.25821 3.02447 0
M  V30 179 H 17.7591 2.5914 1.49955 0
M  V30 180 H 15.3051 1.24709 0.719982 0
M  V30 181 H 17.2581 1.80715 3.80684 0
M  V30 182 H 15.9821 0.732524 3.18279 0
M  V30 183 H 14.6411 2.73283 2.44361 0
M  V30 184 H 14.2891 1.74938 4.71599 0
M  V30 185 H 13.9891 3.50541 4.71588 0
M  V30 186 H 15.5131 2.86401 5.39265 0
M  V30 187 H 16.9271 4.37898 3.70024 0
M  V30 188 H 15.3241 5.03735 3.26146 0
M  V30 189 H 16.3941 4.42244 1.98867 0
M  V30 190 N 17.7372 -0.778329 1.37039 0
M  V30 191 C 18.9852 -1.53361 1.31623 0
M  V30 192 C 19.3062 -1.94739 -0.100831 0
M  V30 193 O 18.5762 -1.65797 -1.04347 0
M  V30 194 H 17.1562 -0.568794 0.484234 0
M  V30 195 H 19.8182 -0.926742 1.71457 0
M  V30 196 H 18.9142 -2.43606 1.95096 0
M  V30 197 N 19.2153 -1.21501 -1.00376 0
M  V30 198 C 20.4923 -0.941745 -1.71437 0
M  V30 199 C 20.8723 0.546114 -2.03914 0
M  V30 200 O 20.2203 1.51128 -1.71384 0
M  V30 201 C 20.4303 -1.82812 -2.97289 0
M  V30 202 C 21.7783 -2.07771 -3.70292 0
M  V30 203 O 22.8023 -1.80171 -3.07273 0
M  V30 204 O 21.6613 -2.54456 -4.83647 0
M  V30 205 H 18.7553 -0.353243 -0.747762 0
M  V30 206 H 21.3013 -1.32436 -1.06108 0
M  V30 207 H 20.0733 -2.83501 -2.69709 0
M  V30 208 H 19.6963 -1.4464 -3.70358 0
M  V30 209 N 20.6934 1.19889 -1.02296 0
M  V30 210 C 21.9394 1.89701 -0.717033 0
M  V30 211 C 22.2724 1.7905 0.751989 0
M  V30 212 O 21.5474 1.17891 1.547 0
M  V30 213 C 21.8304 3.40858 -1.16136 0
M  V30 214 C 21.6834 3.60411 -2.69117 0
M  V30 215 C 23.0024 4.33876 -0.737549 0
M  V30 216 H 20.1214 0.688874 -0.261957 0
M  V30 217 H 22.7634 1.41154 -1.27183 0
M  V30 218 H 20.9134 3.82335 -0.689342 0
M  V30 219 H 22.5854 3.28145 -3.2422 0
M  V30 220 H 20.8284 3.03665 -3.0979 0
M  V30 221 H 21.4994 4.66396 -2.95261 0
M  V30 222 H 23.9754 4.00081 -1.14344 0
M  V30 223 H 22.8514 5.38242 -1.0764 0
M  V30 224 H 23.1124 4.40628 0.360436 0
M  V30 225 N 22.1715 0.800033 1.35784 0
M  V30 226 C 23.3965 0.388511 2.03729 0
M  V30 227 C 23.8215 -0.990481 1.5991 0
M  V30 228 O 23.1795 -1.64013 0.772612 0
M  V30 229 C 23.2275 0.4726 3.5749 0
M  V30 230 O 22.3315 -0.51646 4.09153 0
M  V30 231 H 21.6725 0.163271 0.643614 0
M  V30 232 H 24.2025 1.0841 1.73518 0
M  V30 233 H 24.2125 0.34003 4.06581 0
M  V30 234 H 22.8875 1.47848 3.88734 0
M  V30 235 H 21.4645 -0.344673 3.71304 0
M  V30 236 N 23.6496 -1.47581 0.552962 0
M  V30 237 C 24.8976 -2.02082 0.0272703 0
M  V30 238 C 25.2186 -1.4301 -1.32563 0
M  V30 239 O 24.4886 -0.603745 -1.86365 0
M  V30 240 H 23.0686 -0.746966 0.00709182 0
M  V30 241 H 25.7306 -1.81033 0.722008 0
M  V30 242 H 24.8266 -3.12034 -0.0639951 0
M  V30 243 N 25.1277 -0.289203 -1.54924 0
M  V30 244 C 26.3767 0.324231 -1.99077 0
M  V30 245 C 26.6897 1.5591 -1.18117 0
M  V30 246 O 27.8957 2.24637 -1.52481 0
M  V30 247 C 26.3517 0.628209 -3.54375 0
M  V30 248 C 25.9597 -0.587647 -4.44129 0
M  V30 249 C 27.7037 1.20349 -4.07083 0
M  V30 250 C 25.6107 -0.257475 -5.90839 0
M  V30 251 H 24.5407 0.124924 -0.743579 0
M  V30 252 H 27.1917 -0.396063 -1.79175 0
M  V30 253 H 25.5737 1.40778 -3.70132 0
M  V30 254 H 26.7477 -1.36418 -4.40144 0
M  V30 255 H 25.0627 -1.08074 -4.0213 0
M  V30 256 H 27.6597 1.46456 -5.14252 0
M  V30 257 H 28.0027 2.14195 -3.56968 0
M  V30 258 H 28.5357 0.485889 -3.94821 0
M  V30 259 H 25.2747 -1.16419 -6.45079 0
M  V30 260 H 24.7947 0.482018 -5.9786 0
M  V30 261 H 26.4737 0.145238 -6.46837 0
M  V30 262 N 26.6058 1.57591 -0.0167156 0
M  V30 263 C 27.5358 2.12496 0.967858 0
M  V30 264 C 28.5168 1.03807 1.34752 0
M  V30 265 O 29.7018 1.31577 1.42833 0
M  V30 266 C 26.8318 2.64194 2.25431 0
M  V30 267 C 25.7858 3.77559 2.01576 0
M  V30 268 C 25.1118 4.15636 3.36379 0
M  V30 269 C 26.4118 5.04151 1.36489 0
M  V30 270 H 28.1058 2.95013 0.510643 0
M  V30 271 H 25.6518 1.41915 0.244181 0
M  V30 272 H 27.6048 3.01236 2.94678 0
M  V30 273 H 26.3288 1.78821 2.73296 0
M  V30 274 H 24.9878 3.40937 1.34751 0
M  V30 275 H 24.6358 3.27263 3.81979 0
M  V30 276 H 24.3358 4.92022 3.21229 0
M  V30 277 H 25.8598 4.5525 4.06915 0
M  V30 278 H 27.2738 5.38857 1.95718 0
M  V30 279 H 25.6708 5.85453 1.31776 0
M  V30 280 H 26.7408 4.83733 0.336219 0
M  V30 281 N 28.0839 -0.256276 1.55502 0
M  V30 282 C 29.0159 -1.33981 1.85962 0
M  V30 283 C 30.0289 -1.44743 0.745212 0
M  V30 284 O 31.2179 -1.4626 1.02324 0
M  V30 285 C 28.3179 -2.7194 2.02242 0
M  V30 286 C 27.4909 -2.83562 3.33033 0
M  V30 287 C 26.5499 -4.02304 3.39172 0
M  V30 288 O 25.5759 -3.92273 4.12444 0
M  V30 289 N 26.7779 -5.15045 2.67784 0
M  V30 290 H 29.5429 -1.08191 2.7949 0
M  V30 291 H 27.1039 -0.446388 1.55624 0
M  V30 292 H 29.0959 -3.49697 2.03701 0
M  V30 293 H 27.6659 -2.90479 1.15502 0
M  V30 294 H 26.8859 -1.92555 3.43971 0
M  V30 295 H 28.1739 -2.88271 4.19258 0
M  V30 296 H 27.5719 -5.26085 2.07968 0
M  V30 297 H 26.1289 -5.90972 2.74947 0
M  V30 298 N 29.562 -1.4872 -0.521534 0
M  V30 299 C 30.525 -1.63379 -1.60748 0
M  V30 300 C 31.525 -0.50661 -1.52611 0
M  V30 301 O 32.715 -0.772601 -1.5613 0
M  V30 302 C 29.847 -1.61192 -3.00383 0
M  V30 303 H 31.04 -2.60217 -1.49087 0
M  V30 304 H 28.593 -1.37444 -0.744235 0
M  V30 305 H 29.328 -0.65863 -3.17541 0
M  V30 306 H 29.113 -2.43032 -3.07698 0
M  V30 307 H 30.603 -1.7466 -3.7932 0
M  V30 308 N 31.0401 0.771051 -1.3745 0
M  V30 309 C 32.0031 1.86598 -1.33093 0
M  V30 310 C 33.0031 1.59076 -0.234845 0
M  V30 311 O 34.1931 1.67145 -0.490732 0
M  V30 312 C 31.3251 3.23747 -1.06773 0
M  V30 313 H 32.5181 1.91873 -2.30488 0
M  V30 314 H 30.0711 0.970876 -1.2249 0
M  V30 315 H 30.8061 3.24148 -0.099129 0
M  V30 316 H 30.5911 3.45115 -1.86112 0
M  V30 317 H 32.0811 4.03824 -1.06377 0
M  V30 318 N 32.5182 1.22032 0.997298 0
M  V30 319 C 33.7432 1.06921 1.77715 0
M  V30 320 C 34.1682 -0.376226 1.84299 0
M  V30 321 O 33.5262 -1.27165 1.29223 0
M  V30 322 C 33.5742 1.67996 3.19076 0
M  V30 323 O 32.6782 0.930653 4.01762 0
M  V30 324 H 32.0192 0.375814 0.547412 0
M  V30 325 H 34.5492 1.61737 1.25309 0
M  V30 326 H 34.5592 1.72538 3.69723 0
M  V30 327 H 33.2342 2.73182 3.13599 0
M  V30 328 H 31.8112 0.960917 3.60307 0
M  V30 329 N 33.9963 -1.19345 1.0293 0
M  V30 330 C 34.9263 -2.2481 0.631105 0
M  V30 331 C 35.9073 -1.66245 -0.360104 0
M  V30 332 O 37.0923 -1.92677 -0.242726 0
M  V30 333 C 34.2223 -3.47295 -0.0184607 0
M  V30 334 C 33.1763 -4.18536 0.895073 0
M  V30 335 C 32.5023 -5.34586 0.110592 0
M  V30 336 C 33.8023 -4.73287 2.209 0
M  V30 337 H 35.4963 -2.58372 1.51275 0
M  V30 338 H 33.0423 -1.24194 0.728818 0
M  V30 339 H 34.9953 -4.20268 -0.308675 0
M  V30 340 H 33.7193 -3.12933 -0.934907 0
M  V30 341 H 32.3783 -3.47446 1.16949 0
M  V30 342 H 32.0263 -4.96469 -0.807902 0
M  V30 343 H 31.7263 -5.83183 0.719087 0
M  V30 344 H 33.2503 -6.10355 -0.172871 0
M  V30 345 H 34.6643 -5.38013 1.98028 0
M  V30 346 H 33.0613 -5.32373 2.76946 0
M  V30 347 H 34.1313 -3.91331 2.86336 0
M  V30 348 N 35.4744 -0.807222 -1.35358 0
M  V30 349 C 36.4044 -0.232509 -2.3234 0
M  V30 350 C 37.3854 0.642386 -1.57504 0
M  V30 351 O 38.5704 0.572526 -1.85569 0
M  V30 352 C 35.7004 0.619238 -3.41735 0
M  V30 353 C 34.6544 -0.157215 -4.27711 0
M  V30 354 C 33.9804 0.816273 -5.28433 0
M  V30 355 C 35.2804 -1.35656 -5.04376 0
M  V30 356 H 36.9744 -1.04276 -2.80654 0
M  V30 357 H 34.5204 -0.50288 -1.34934 0
M  V30 358 H 36.4734 1.03137 -4.08584 0
M  V30 359 H 35.1974 1.46239 -2.92031 0
M  V30 360 H 33.8564 -0.550525 -3.62443 0
M  V30 361 H 33.5044 1.65494 -4.74996 0
M  V30 362 H 33.2044 0.301067 -5.86828 0
M  V30 363 H 34.7284 1.22659 -5.98153 0
M  V30 364 H 36.1424 -1.01927 -5.64166 0
M  V30 365 H 34.5394 -1.8063 -5.7227 0
M  V30 366 H 35.6094 -2.14288 -4.34981 0
M  V30 367 N 36.9525 1.47285 -0.560781 0
M  V30 368 C 38.2015 2.01668 -0.035895 0
M  V30 369 C 38.5145 1.44021 1.32353 0
M  V30 370 O 39.7205 1.90088 1.93853 0
M  V30 371 C 38.1765 3.59897 -0.0136659 0
M  V30 372 C 37.7845 4.26536 -1.37006 0
M  V30 373 C 39.5285 4.22017 0.458425 0
M  V30 374 C 37.4355 5.76782 -1.30675 0
M  V30 375 H 36.3655 0.753938 -0.00964879 0
M  V30 376 H 39.0165 1.69243 -0.709166 0
M  V30 377 H 37.3985 3.89301 0.725325 0
M  V30 378 H 38.5725 4.0877 -2.12705 0
M  V30 379 H 36.8875 3.76419 -1.78038 0
M  V30 380 H 39.4845 5.32124 0.524247 0
M  V30 381 H 39.8275 3.89437 1.4712 0
M  V30 382 H 40.3605 3.97159 -0.225818 0
M  V30 383 H 37.0995 6.13988 -2.29564 0
M  V30 384 H 36.6195 5.96875 -0.591622 0
M  V30 385 H 38.2985 6.39063 -1.01033 0
M  V30 386 N 38.4306 0.297415 1.54768 0
M  V30 387 C 39.3606 -0.573494 2.26348 0
M  V30 388 C 40.3416 -1.14085 1.26169 0
M  V30 389 O 41.5266 -1.17086 1.54934 0
M  V30 390 C 38.6566 -1.74716 3.00153 0
M  V30 391 C 37.6106 -1.31032 4.07449 0
M  V30 392 C 36.9366 -2.56887 4.68949 0
M  V30 393 C 38.2366 -0.444183 5.20408 0
M  V30 394 H 39.9306 0.0235131 2.99391 0
M  V30 395 H 37.4766 0.0127488 1.43994 0
M  V30 396 H 39.4296 -2.3625 3.48947 0
M  V30 397 H 38.1536 -2.37035 2.24682 0
M  V30 398 H 36.8126 -0.718066 3.59499 0
M  V30 399 H 36.4606 -3.17512 3.90122 0
M  V30 400 H 36.1606 -2.2836 5.41411 0
M  V30 401 H 37.6846 -3.19229 5.20505 0
M  V30 402 H 39.0986 -0.9651 5.65118 0
M  V30 403 H 37.4956 -0.252846 5.99567 0
M  V30 404 H 38.5656 0.531609 4.81977 0
M  V30 405 N 39.9087 -1.5758 0.0250728 0
M  V30 406 C 40.8387 -2.13007 -0.956575 0
M  V30 407 C 41.8197 -1.0452 -1.342 0
M  V30 408 O 43.0047 -1.32332 -1.42133 0
M  V30 409 C 40.1347 -2.65386 -2.24026 0
M  V30 410 C 39.0887 -3.78623 -1.99571 0
M  V30 411 C 38.4147 -4.17414 -3.3417 0
M  V30 412 C 39.7147 -5.04867 -1.33814 0
M  V30 413 H 41.4087 -2.9528 -0.494991 0
M  V30 414 H 38.9547 -1.42042 -0.236651 0
M  V30 415 H 40.9077 -3.02794 -2.93076 0
M  V30 416 H 39.6317 -1.80268 -2.72343 0
M  V30 417 H 38.2907 -3.41646 -1.32941 0
M  V30 418 H 37.9387 -3.29284 -3.80238 0
M  V30 419 H 37.6387 -4.93719 -3.18615 0
M  V30 420 H 39.1627 -4.57402 -4.04495 0
M  V30 421 H 40.5767 -5.39888 -1.92857 0
M  V30 422 H 38.9737 -5.86144 -1.28669 0
M  V30 423 H 40.0437 -4.83904 -0.310561 0
M  V30 424 N 41.3868 0.248026 -1.55636 0
M  V30 425 C 42.3168 1.31079 -1.93237 0
M  V30 426 C 43.2978 1.50264 -0.797174 0
M  V30 427 O 44.4828 1.62891 -1.05737 0
M  V30 428 C 41.6128 2.66575 -2.22609 0
M  V30 429 C 40.5668 2.62087 -3.3837 0
M  V30 430 C 39.8928 4.01369 -3.53281 0
M  V30 431 C 41.1928 2.19171 -4.7409 0
M  V30 432 H 42.8868 0.998556 -2.82257 0
M  V30 433 H 40.4328 0.47891 -1.35803 0
M  V30 434 H 42.3858 3.41057 -2.47503 0
M  V30 435 H 41.1098 2.99432 -1.30414 0
M  V30 436 H 39.7688 1.90063 -3.13483 0
M  V30 437 H 39.4168 4.31489 -2.58508 0
M  V30 438 H 39.1168 3.99254 -4.31127 0
M  V30 439 H 40.6408 4.77552 -3.80495 0
M  V30 440 H 42.0548 2.83384 -4.98363 0
M  V30 441 H 40.4518 2.2817 -5.5503 0
M  V30 442 H 41.5218 1.14336 -4.71227 0
M  V30 443 N 42.8649 1.48995 0.513639 0
M  V30 444 C 43.7949 1.67636 1.62544 0
M  V30 445 C 44.7759 0.525087 1.61793 0
M  V30 446 O 45.9609 0.759502 1.78732 0
M  V30 447 C 43.0909 1.73114 3.01079 0
M  V30 448 C 42.0449 2.87905 3.16693 0
M  V30 449 C 41.3709 2.78486 4.56453 0
M  V30 450 C 42.6709 4.29005 2.97913 0
M  V30 451 H 44.3649 2.60716 1.47198 0
M  V30 452 H 41.9109 1.25465 0.706714 0
M  V30 453 H 43.8639 1.84742 3.78746 0
M  V30 454 H 42.5879 0.766241 3.17484 0
M  V30 455 H 41.2469 2.75859 2.41448 0
M  V30 456 H 40.8949 1.7993 4.69717 0
M  V30 457 H 40.5949 3.55523 4.67843 0
M  V30 458 H 42.1189 2.92104 5.36197 0
M  V30 459 H 43.5329 4.41798 3.65359 0
M  V30 460 H 41.9299 5.07166 3.20785 0
M  V30 461 H 42.9999 4.44329 1.94165 0
M  V30 462 N 44.343 -0.763751 1.37857 0
M  V30 463 C 45.273 -1.89103 1.36975 0
M  V30 464 C 46.254 -1.68439 0.237152 0
M  V30 465 O 47.439 -1.8918 0.438713 0
M  V30 466 C 44.569 -3.26496 1.18395 0
M  V30 467 C 43.523 -3.61741 2.28751 0
M  V30 468 C 42.849 -4.97762 1.95286 0
M  V30 469 C 44.149 -3.67665 3.70972 0
M  V30 470 H 45.843 -1.90099 2.31307 0
M  V30 471 H 43.389 -0.91319 1.11341 0
M  V30 472 H 45.342 -4.05003 1.16406 0
M  V30 473 H 44.066 -3.25955 0.205215 0
M  V30 474 H 42.725 -2.85547 2.29909 0
M  V30 475 H 42.373 -4.93769 0.959221 0
M  V30 476 H 42.073 -5.22313 2.69189 0
M  V30 477 H 43.597 -5.7866 1.94898 0
M  V30 478 H 45.011 -4.36307 3.719 0
M  V30 479 H 43.408 -4.03718 4.43995 0
M  V30 480 H 44.478 -2.68134 4.0402 0
M  V30 481 N 45.8211 -1.22559 -0.990812 0
M  V30 482 C 47.0701 -1.04553 -1.72486 0
M  V30 483 C 47.3831 0.419349 -1.91052 0
M  V30 484 O 48.5891 0.719121 -2.61803 0
M  V30 485 C 47.0451 -1.82231 -3.10355 0
M  V30 486 C 46.6531 -3.32981 -2.99713 0
M  V30 487 C 48.3971 -1.7268 -3.87791 0
M  V30 488 C 46.3041 -4.03091 -4.32748 0
M  V30 489 H 45.2341 -0.387614 -0.646739 0
M  V30 490 H 47.8851 -1.46429 -1.10593 0
M  V30 491 H 46.2671 -1.33155 -3.72942 0
M  V30 492 H 47.4411 -3.89466 -2.46278 0
M  V30 493 H 45.7561 -3.43231 -2.35758 0
M  V30 494 H 48.3531 -2.22381 -4.86262 0
M  V30 495 H 48.6961 -0.687607 -4.10582 0
M  V30 496 H 49.2291 -2.1931 -3.31885 0
M  V30 497 H 45.9681 -5.07273 -4.15156 0
M  V30 498 H 45.4881 -3.51394 -4.86089 0
M  V30 499 H 47.1671 -4.08804 -5.01486 0
M  V30 500 N 47.2992 1.18797 -1.03562 0
M  V30 501 C 48.2462 2.22253 -0.622259 0
M  V30 502 C 49.2162 1.61987 0.36736 0
M  V30 503 O 50.4012 1.88986 0.262492 0
M  V30 504 C 47.5412 3.45097 0.0138462 0
M  V30 505 C 46.6542 4.19722 -1.02263 0
M  V30 506 C 45.7892 5.30009 -0.355573 0
M  V30 507 C 44.8282 5.96399 -1.37749 0
M  V30 508 N 43.9652 6.98234 -0.735766 0
M  V30 509 H 48.8052 2.56968 -1.50903 0
M  V30 510 H 46.3422 1.26245 -0.755017 0
M  V30 511 H 48.3002 4.15279 0.399948 0
M  V30 512 H 46.9302 3.11018 0.864158 0
M  V30 513 H 45.9822 3.48418 -1.52673 0
M  V30 514 H 47.2942 4.65227 -1.79903 0
M  V30 515 H 46.4482 6.0664 0.0850095 0
M  V30 516 H 45.1872 4.85592 0.452967 0
M  V30 517 H 44.1922 5.18512 -1.82826 0
M  V30 518 H 45.4172 6.42899 -2.18764 0
M  V30 519 H 43.3632 6.55979 0.0525597 0
M  V30 520 H 43.2802 7.41965 -1.44995 0
M  V30 521 H 44.5482 7.78845 -0.31941 0
M  V30 522 N 48.7773 0.814389 1.34928 0
M  V30 523 C 49.7403 0.235759 2.27984 0
M  V30 524 C 50.7403 -0.581412 1.49921 0
M  V30 525 O 51.9303 -0.398758 1.69575 0
M  V30 526 C 49.0623 -0.670433 3.34242 0
M  V30 527 H 50.2553 1.05659 2.80671 0
M  V30 528 H 47.8083 0.585614 1.44915 0
M  V30 529 H 48.5433 -1.51466 2.86755 0
M  V30 530 H 48.3283 -0.0860822 3.92005 0
M  V30 531 H 49.8183 -1.06935 4.03676 0
M  V30 532 N 50.2554 -1.46986 0.568584 0
M  V30 533 C 51.5014 -2.02741 0.0488709 0
M  V30 534 C 51.8344 -1.44077 -1.30214 0
M  V30 535 O 51.1094 -0.600552 -1.84996 0
M  V30 536 C 51.3924 -3.60086 -0.032047 0
M  V30 537 C 51.2454 -4.29162 1.34686 0
M  V30 538 C 52.5644 -4.33838 -0.739798 0
M  V30 539 H 49.6834 -0.736749 0.0192338 0
M  V30 540 H 52.3254 -1.75289 0.733065 0
M  V30 541 H 50.4754 -3.83606 -0.61473 0
M  V30 542 H 52.1474 -4.16948 1.97362 0
M  V30 543 H 50.3904 -3.89073 1.91846 0
M  V30 544 H 51.0614 -5.37826 1.24285 0
M  V30 545 H 53.5374 -4.15378 -0.244939 0
M  V30 546 H 52.4134 -5.43537 -0.765406 0
M  V30 547 H 52.6744 -4.03875 -1.79827 0
M  V30 548 N 51.7335 -0.305618 -1.54608 0
M  V30 549 C 52.6655 0.602161 -2.21149 0
M  V30 550 C 53.6785 1.09394 -1.20569 0
M  V30 551 O 54.8675 1.0106 -1.47136 0
M  V30 552 C 51.9675 1.83692 -2.84799 0
M  V30 553 C 51.1405 1.48686 -4.11353 0
M  V30 554 C 50.1995 2.57725 -4.58764 0
M  V30 555 O 49.2255 2.22623 -5.23858 0
M  V30 556 N 50.4275 3.88346 -4.31471 0
M  V30 557 H 53.1925 0.0324966 -2.99682 0
M  V30 558 H 50.7535 -0.128021 -1.61393 0
M  V30 559 H 52.7455 2.55994 -3.13448 0
M  V30 560 H 51.3155 2.31486 -2.10078 0
M  V30 561 H 50.5355 0.596269 -3.89664 0
M  V30 562 H 51.8235 1.22842 -4.93748 0
M  V30 563 H 51.2215 4.19671 -3.79331 0
M  V30 564 H 49.7785 4.56932 -4.64818 0
M  V30 565 N 53.2116 1.57565 -0.0334293 0
M  V30 566 C 54.1416 2.13511 0.945265 0
M  V30 567 C 55.1226 1.05231 1.33643 0
M  V30 568 O 56.3076 1.33084 1.41429 0
M  V30 569 C 53.4376 2.6657 2.22616 0
M  V30 570 C 52.3916 3.79676 1.97561 0
M  V30 571 C 51.7176 4.1918 3.31952 0
M  V30 572 C 53.0176 5.0557 1.31135 0
M  V30 573 H 54.7116 2.95538 0.479325 0
M  V30 574 H 52.2576 1.42166 0.229115 0
M  V30 575 H 54.2106 3.04344 2.91466 0
M  V30 576 H 52.9346 1.8171 2.71384 0
M  V30 577 H 51.5936 3.42347 1.31127 0
M  V30 578 H 51.2416 3.31296 3.78487 0
M  V30 579 H 50.9416 4.95402 3.15992 0
M  V30 580 H 52.4656 4.59541 4.02063 0
M  V30 581 H 53.8796 5.40903 1.89992 0
M  V30 582 H 52.2766 5.86818 1.25559 0
M  V30 583 H 53.3466 4.84062 0.284894 0
M  V30 584 N 54.6897 -0.239769 1.55765 0
M  V30 585 C 55.9197 -0.982743 1.8173 0
M  V30 586 C 56.3277 -1.7917 0.607835 0
M  V30 587 O 55.6707 -1.78525 -0.432973 0
M  V30 588 C 55.7327 -1.96332 3.01155 0
M  V30 589 C 55.3967 -1.34062 4.36894 0
M  V30 590 C 56.3937 -0.739539 5.14613 0
M  V30 591 C 54.0787 -1.35784 4.83599 0
M  V30 592 C 56.0727 -0.163989 6.37189 0
M  V30 593 C 53.7597 -0.778441 6.06122 0
M  V30 594 C 54.7577 -0.182548 6.82756 0
M  V30 595 O 54.4457 0.387887 8.02964 0
M  V30 596 H 54.1777 -0.294481 0.608487 0
M  V30 597 H 56.7317 -0.26572 2.03674 0
M  V30 598 H 54.9617 -2.71884 2.74984 0
M  V30 599 H 56.6507 -2.57032 3.14149 0
M  V30 600 H 57.4167 -0.718687 4.79646 0
M  V30 601 H 53.2957 -1.81105 4.23936 0
M  V30 602 H 56.8397 0.301753 6.96947 0
M  V30 603 H 52.7367 -0.796645 6.40565 0
M  V30 604 H 53.5047 0.28044 8.18019 0
M  V30 605 N 56.1678 -1.49265 -0.50573 0
M  V30 606 C 57.0978 -1.68495 -1.61653 0
M  V30 607 C 58.0788 -0.53366 -1.61512 0
M  V30 608 O 59.2638 -0.76897 -1.78327 0
M  V30 609 C 56.3938 -1.74709 -3.00157 0
M  V30 610 C 55.3478 -2.89581 -3.15162 0
M  V30 611 C 54.6738 -2.80903 -4.5497 0
M  V30 612 C 55.9738 -4.30578 -2.95634 0
M  V30 613 H 57.6678 -2.61493 -1.45814 0
M  V30 614 H 55.2138 -1.25838 -0.70005 0
M  V30 615 H 57.1668 -1.86748 -3.77761 0
M  V30 616 H 55.8908 -0.783067 -3.17074 0
M  V30 617 H 54.5498 -2.77136 -2.39982 0
M  V30 618 H 54.1978 -1.82419 -4.68756 0
M  V30 619 H 53.8978 -3.57999 -4.65951 0
M  V30 620 H 55.4218 -2.94944 -5.34641 0
M  V30 621 H 56.8358 -4.4373 -3.63011 0
M  V30 622 H 55.2328 -5.0886 -3.18091 0
M  V30 623 H 56.3028 -4.45352 -1.91806 0
M  V30 624 N 57.6459 0.756429 -1.3826 0
M  V30 625 C 58.5959 1.86069 -1.31766 0
M  V30 626 C 59.5799 1.59621 -0.202483 0
M  V30 627 O 60.7719 1.7149 -0.438211 0
M  V30 628 C 57.9009 3.23742 -1.1422 0
M  V30 629 C 56.9869 3.56091 -2.30348 0
M  V30 630 N 57.3779 3.59517 -3.55783 0
M  V30 631 C 55.6759 3.86341 -2.22838 0
M  V30 632 C 56.3769 3.89052 -4.32451 0
M  V30 633 N 55.3529 4.05736 -3.61772 0
M  V30 634 H 59.1549 1.86992 -2.26741 0
M  V30 635 H 56.6689 0.953643 -1.31451 0
M  V30 636 H 58.6659 4.02761 -1.07652 0
M  V30 637 H 57.3259 3.24073 -0.201763 0
M  V30 638 H 58.3369 3.41347 -3.89491 0
M  V30 639 H 55.0139 3.94404 -1.36937 0
M  V30 640 H 56.4039 3.98349 -5.4108 0
M  V30 641 N 59.124 1.23083 0.984299 0
M  V30 642 C 60.54 0.992637 1.24975 0
M  V30 643 C 60.74 -0.308618 1.99123 0
M  V30 644 O 59.796 -1.02905 2.30579 0
M  V30 645 C 61.109 2.19698 2.05312 0
M  V30 646 C 62.657 2.24147 2.18465 0
M  V30 647 C 63.132 3.44157 3.02192 0
M  V30 648 N 64.623 3.44372 3.09777 0
M  V30 649 C 65.358 4.33886 3.74874 0
M  V30 650 N 64.854 5.3363 4.41827 0
M  V30 651 N 66.647 4.21639 3.71721 0
M  V30 652 H 58.798 2.06731 0.487453 0
M  V30 653 H 61.061 0.906339 0.277944 0
M  V30 654 H 60.767 3.1411 1.58201 0
M  V30 655 H 60.641 2.20465 3.06064 0
M  V30 656 H 63.028 1.30277 2.64786 0
M  V30 657 H 63.109 2.27415 1.17115 0
M  V30 658 H 62.753 4.38332 2.56568 0
M  V30 659 H 62.683 3.3813 4.03702 0
M  V30 660 H 65.174 2.72201 2.62135 0
M  V30 661 H 65.487 5.98196 4.89266 0
M  V30 662 H 63.832 5.37534 4.40548 0
M  V30 663 H 67.023 3.42962 3.18582 0
M  V30 664 H 67.196 4.91604 4.22173 0
M  V30 665 N 60.6021 -1.18246 1.0419 0
M  V30 666 C 61.5341 -2.2142 0.592088 0
M  V30 667 C 62.5471 -1.59233 -0.338909 0
M  V30 668 O 63.7361 -1.78002 -0.133231 0
M  V30 669 C 60.8361 -3.38546 -0.154854 0
M  V30 670 C 60.0091 -4.3031 0.784328 0
M  V30 671 C 59.0681 -5.26138 0.0804583 0
M  V30 672 O 58.0941 -5.64738 0.711292 0
M  V30 673 N 59.2961 -5.68261 -1.18574 0
M  V30 674 H 62.0611 -2.60636 1.47949 0
M  V30 675 H 59.6221 -1.33044 0.922544 0
M  V30 676 H 61.6141 -3.99678 -0.635606 0
M  V30 677 H 60.1841 -2.98012 -0.943811 0
M  V30 678 H 59.4041 -3.66764 1.44491 0
M  V30 679 H 60.6921 -4.8852 1.42218 0
M  V30 680 H 60.0901 -5.38957 -1.71876 0
M  V30 681 H 58.6471 -6.31584 -1.61074 0
M  V30 682 N 62.0802 -0.821533 -1.34494 0
M  V30 683 C 63.3262 -0.418729 -1.99043 0
M  V30 684 C 63.6812 1.00672 -1.6396 0
M  V30 685 O 62.9742 1.69132 -0.900271 0
M  V30 686 C 63.1682 -0.556512 -3.53041 0
M  V30 687 C 62.9972 -1.9938 -4.03085 0
M  V30 688 C 61.7672 -2.62539 -4.31742 0
M  V30 689 C 63.9652 -2.96035 -4.20556 0
M  V30 690 N 61.9472 -3.97523 -4.67813 0
M  V30 691 C 63.3182 -4.15924 -4.59791 0
M  V30 692 C 65.3732 -2.9267 -4.02801 0
M  V30 693 C 64.0762 -5.32899 -4.83126 0
M  V30 694 C 66.1022 -4.08861 -4.27302 0
M  V30 695 C 65.4642 -5.275 -4.66822 0
M  V30 696 H 61.5632 -0.201299 -0.755647 0
M  V30 697 H 64.1472 -1.06594 -1.62929 0
M  V30 698 H 62.3182 0.0607924 -3.88352 0
M  V30 699 H 64.0502 -0.126842 -4.04501 0
M  V30 700 H 60.8052 -2.13789 -4.22601 0
M  V30 701 H 61.2292 -4.67061 -4.90085 0
M  V30 702 H 65.8712 -2.02088 -3.71376 0
M  V30 703 H 63.5892 -6.24041 -5.13418 0
M  V30 704 H 67.1752 -4.07654 -4.15101 0
M  V30 705 H 66.0552 -6.15913 -4.85408 0
M  V30 706 N 63.5583 1.46682 -0.576371 0
M  V30 707 C 64.4883 2.33028 0.148397 0
M  V30 708 C 65.4693 1.44961 0.889956 0
M  V30 709 O 66.6543 1.73789 0.866662 0
M  V30 710 C 63.7843 3.27117 1.1667 0
M  V30 711 C 62.7383 4.24575 0.540386 0
M  V30 712 C 62.0643 5.08126 1.6647 0
M  V30 713 C 63.3643 5.19722 -0.518331 0
M  V30 714 H 65.0583 2.93875 -0.572509 0
M  V30 715 H 62.6043 1.41315 -0.276768 0
M  V30 716 H 64.5573 3.86374 1.68204 0
M  V30 717 H 63.2813 2.64364 1.9178 0
M  V30 718 H 61.9403 3.66571 0.0461769 0
M  V30 719 H 61.5883 4.41762 2.40531 0
M  V30 720 H 61.2883 5.74122 1.25131 0
M  V30 721 H 62.8123 5.70246 2.18293 0
M  V30 722 H 64.2263 5.73232 -0.0883058 0
M  V30 723 H 62.6233 5.94026 -0.851679 0
M  V30 724 H 63.6933 4.64037 -1.40703 0
M  V30 725 N 65.0364 0.313813 1.54444 0
M  V30 726 C 65.9664 -0.549454 2.26943 0
M  V30 727 C 66.9474 -1.12741 1.27372 0
M  V30 728 O 68.1324 -1.15436 1.56167 0
M  V30 729 C 65.2624 -1.71523 3.01989 0
M  V30 730 C 64.2164 -1.26703 4.08816 0
M  V30 731 C 63.5424 -2.51898 4.71647 0
M  V30 732 C 64.8424 -0.388962 5.2085 0
M  V30 733 H 66.5364 0.0552661 2.99349 0
M  V30 734 H 64.0824 0.0280207 1.43973 0
M  V30 735 H 66.0354 -2.32535 3.51433 0
M  V30 736 H 64.7594 -2.34639 2.27183 0
M  V30 737 H 63.4184 -0.679896 3.6024 0
M  V30 738 H 63.0664 -3.13356 3.93468 0
M  V30 739 H 62.7664 -2.22605 5.43802 0
M  V30 740 H 64.2904 -3.1369 5.23861 0
M  V30 741 H 65.7044 -0.905107 5.6611 0
M  V30 742 H 64.1014 -0.18924 5.99802 0
M  V30 743 H 65.1714 0.582699 4.81386 0
M  V30 744 N 66.5145 -1.57545 0.0417849 0
M  V30 745 C 67.4615 -2.10977 -0.935805 0
M  V30 746 C 68.4315 -1.01486 -1.31491 0
M  V30 747 O 69.6165 -1.2898 -1.40602 0
M  V30 748 C 66.7565 -2.65169 -2.2086 0
M  V30 749 C 65.8695 -3.88714 -1.88482 0
M  V30 750 C 65.0045 -4.31254 -3.1015 0
M  V30 751 C 64.0435 -5.47524 -2.7365 0
M  V30 752 N 63.1805 -5.85162 -3.87982 0
M  V30 753 H 68.0205 -2.94218 -0.473249 0
M  V30 754 H 65.5575 -1.45415 -0.221981 0
M  V30 755 H 67.5155 -2.94685 -2.95325 0
M  V30 756 H 66.1455 -1.8474 -2.64709 0
M  V30 757 H 65.1975 -3.65849 -1.04205 0
M  V30 758 H 66.5095 -4.73245 -1.57608 0
M  V30 759 H 65.6635 -4.62273 -3.92923 0
M  V30 760 H 64.4025 -3.45516 -3.44195 0
M  V30 761 H 63.4075 -5.16187 -1.89291 0
M  V30 762 H 64.6325 -6.34971 -2.40807 0
M  V30 763 H 62.5785 -5.02377 -4.21846 0
M  V30 764 H 62.4955 -6.64362 -3.60775 0
M  V30 765 H 63.7635 -6.20791 -4.71422 0
M  V30 766 N 67.9926 0.231505 -1.5589 0
M  V30 767 C 68.9556 1.27028 -1.90779 0
M  V30 768 C 69.9556 1.40308 -0.785507 0
M  V30 769 O 71.1456 1.38744 -1.05336 0
M  V30 770 C 68.2776 2.64566 -2.14983 0
M  V30 771 H 69.4706 0.973017 -2.83677 0
M  V30 772 H 67.0236 0.471486 -1.49019 0
M  V30 773 H 67.7586 2.99406 -1.24604 0
M  V30 774 H 67.5436 2.56305 -2.96732 0
M  V30 775 H 69.0336 3.39543 -2.43105 0
M  V30 776 N 69.4707 1.49531 0.497807 0
M  V30 777 C 70.4007 1.6935 1.60757 0
M  V30 778 C 71.3817 0.542218 1.61227 0
M  V30 779 O 72.5667 0.778417 1.77917 0
M  V30 780 C 69.6967 1.76298 2.99226 0
M  V30 781 C 68.6507 2.91248 3.13622 0
M  V30 782 C 67.9767 2.83312 4.53474 0
M  V30 783 C 69.2767 4.3214 2.93346 0
M  V30 784 H 70.9707 2.62263 1.44425 0
M  V30 785 H 68.5167 1.26208 0.693367 0
M  V30 786 H 70.4697 1.88749 3.76765 0
M  V30 787 H 69.1937 0.799871 3.16654 0
M  V30 788 H 67.8527 2.78404 2.38509 0
M  V30 789 H 67.5007 1.84902 4.67782 0
M  V30 790 H 67.2007 3.60465 4.64046 0
M  V30 791 H 68.7247 2.97775 5.33069 0
M  V30 792 H 70.1387 4.45649 3.60652 0
M  V30 793 H 68.5357 5.1054 3.15387 0
M  V30 794 H 69.6057 4.46363 1.89441 0
M  V30 795 N 70.9488 -0.749086 1.3866 0
M  V30 796 C 71.8808 -1.87273 1.32142 0
M  V30 797 C 72.8938 -1.61127 0.232787 0
M  V30 798 O 74.0828 -1.71623 0.49069 0
M  V30 799 C 71.1828 -3.23005 1.02571 0
M  V30 800 C 70.3558 -3.7662 2.22433 0
M  V30 801 C 69.4148 -4.90879 1.89537 0
M  V30 802 O 68.4408 -5.05276 2.62078 0
M  V30 803 N 69.6428 -5.74198 0.853031 0
M  V30 804 H 72.4078 -1.93373 2.28969 0
M  V30 805 H 69.9688 -0.929216 1.32579 0
M  V30 806 H 71.9608 -3.96992 0.786085 0
M  V30 807 H 70.5308 -3.12262 0.145249 0
M  V30 808 H 69.7508 -2.94147 2.62434 0
M  V30 809 H 71.0388 -4.09173 3.02415 0
M  V30 810 H 70.4368 -5.6514 0.25155 0
M  V30 811 H 68.9938 -6.48313 0.67329 0
M  V30 812 N 72.4269 -1.23603 -0.977757 0
M  V30 813 C 73.3589 -0.977369 -2.07317 0
M  V30 814 C 74.3719 0.0495845 -1.62724 0
M  V30 815 O 75.5609 -0.186261 -1.77526 0
M  V30 816 C 72.6609 -0.451216 -3.35883 0
M  V30 817 C 71.8339 -1.53896 -4.09432 0
M  V30 818 C 70.8929 -1.01721 -5.16274 0
M  V30 819 O 69.9189 -1.70676 -5.43009 0
M  V30 820 N 71.1209 0.153594 -5.80297 0
M  V30 821 H 73.8859 -1.92047 -2.30082 0
M  V30 822 H 71.4469 -1.14497 -1.14465 0
M  V30 823 H 73.4389 -0.0871574 -4.04606 0
M  V30 824 H 72.0089 0.397368 -3.10064 0
M  V30 825 H 71.2289 -2.07566 -3.35127 0
M  V30 826 H 72.5169 -2.27037 -4.55337 0
M  V30 827 H 71.9149 0.730323 -5.60966 0
M  V30 828 H 70.4719 0.458892 -6.50183 0
M  V30 829 N 73.905 1.17692 -1.04816 0
M  V30 830 C 75.152 1.87859 -0.75599 0
M  V30 831 C 75.48 1.80812 0.716752 0
M  V30 832 O 74.735 1.20819 1.53952 0
M  V30 833 C 75.034 3.37462 -1.17703 0
M  V30 834 C 74.7 3.64713 -2.65133 0
M  V30 835 C 73.362 3.71859 -3.05408 0
M  V30 836 C 75.714 3.76492 -3.60421 0
M  V30 837 C 73.042 3.88271 -4.39843 0
M  V30 838 C 75.394 3.94421 -4.94585 0
M  V30 839 C 74.058 3.99806 -5.3452 0
M  V30 840 H 73.328 0.687425 -0.276636 0
M  V30 841 H 75.975 1.39255 -1.31455 0
M  V30 842 H 74.28 3.88097 -0.537395 0
M  V30 843 H 75.977 3.90109 -0.928218 0
M  V30 844 H 72.567 3.59772 -2.32942 0
M  V30 845 H 76.751 3.70295 -3.30447 0
M  V30 846 H 72.007 3.90687 -4.70291 0
M  V30 847 H 76.181 4.02477 -5.68318 0
M  V30 848 H 73.808 4.12276 -6.38696 0
M  V30 849 N 75.3831 0.828654 1.34056 0
M  V30 850 C 76.7941 0.477534 1.8049 0
M  V30 851 C 77.1451 -1.00258 1.6865 0
M  V30 852 O 76.2701 -1.78057 1.22982 0
M  V30 853 C 76.8651 0.860018 3.27703 0
M  V30 854 C 75.4241 0.561185 3.72193 0
M  V30 855 C 74.5711 1.07385 2.55663 0
M  V30 856 H 77.5221 1.0183 1.21722 0
M  V30 857 H 77.5431 0.166038 3.80138 0
M  V30 858 H 77.0551 1.93731 3.36288 0
M  V30 859 H 75.1561 -0.506465 3.69142 0
M  V30 860 H 75.2691 1.10926 4.66082 0
M  V30 861 H 73.6331 0.495149 2.49841 0
M  V30 862 H 74.4161 2.15771 2.67016 0
M  V30 863 N 76.8612 -1.46375 0.584142 0
M  V30 864 C 78.1012 -2.0427 0.0729695 0
M  V30 865 C 78.4652 -1.44563 -1.26355 0
M  V30 866 O 79.6662 -1.93667 -1.86405 0
M  V30 867 C 77.9372 -3.57399 0.00967464 0
M  V30 868 S 79.4962 -4.36551 -0.443714 0
M  V30 869 H 76.3142 -0.709975 0.0381673 0
M  V30 870 H 78.9162 -1.79398 0.776962 0
M  V30 871 H 77.6202 -3.98372 0.986319 0
M  V30 872 H 77.1512 -3.8681 -0.717044 0
M  V30 873 H 79.1662 -4.66237 -1.69816 0
M  V30 874 N 78.3393 -0.321999 -1.54275 0
M  V30 875 C 79.7503 0.166384 -1.85957 0
M  V30 876 C 80.1013 1.51747 -1.24367 0
M  V30 877 O 79.2263 2.09317 -0.549124 0
M  V30 878 C 79.8213 0.308681 -3.37391 0
M  V30 879 C 78.3803 0.741286 -3.69028 0
M  V30 880 C 77.5273 -0.137937 -2.76957 0
M  V30 881 H 80.4783 -0.542335 -1.49146 0
M  V30 882 H 80.4993 1.13984 -3.63026 0
M  V30 883 H 80.0113 -0.674809 -3.82188 0
M  V30 884 H 78.1123 1.73458 -3.29762 0
M  V30 885 H 78.2253 0.546118 -4.75977 0
M  V30 886 H 76.5893 0.386251 -2.51754 0
M  V30 887 H 77.3723 -1.11816 -3.2458 0
M  V30 888 N 79.8174 1.5752 -0.0501392 0
M  V30 889 C 81.2284 1.80271 0.485705 0
M  V30 890 C 81.5794 0.96228 1.70981 0
M  V30 891 O 80.7044 0.178578 2.15662 0
M  V30 892 C 81.2994 3.26957 0.887938 0
M  V30 893 C 79.8584 3.5063 1.36877 0
M  V30 894 C 79.0054 2.75165 0.343468 0
M  V30 895 H 81.9564 1.56281 -0.276028 0
M  V30 896 H 81.9774 3.37821 1.75093 0
M  V30 897 H 81.4894 3.881 -0.0031809 0
M  V30 898 H 79.5904 2.94766 2.27911 0
M  V30 899 H 79.7034 4.59343 1.36164 0
M  V30 900 H 78.0674 2.4127 0.816128 0
M  V30 901 H 78.8504 3.39034 -0.539548 0
M  V30 902 N 81.2955 -0.223234 1.56011 0
M  V30 903 C 82.5205 -0.968978 1.83373 0
M  V30 904 C 82.9455 -1.77227 0.630254 0
M  V30 905 O 82.3035 -1.76345 -0.420959 0
M  V30 906 C 82.3515 -1.86363 3.08709 0
M  V30 907 O 81.4555 -2.95873 2.87285 0
M  V30 908 H 80.7965 -0.274461 0.604622 0
M  V30 909 H 83.3265 -0.237056 2.03222 0
M  V30 910 H 83.3365 -2.27376 3.38768 0
M  V30 911 H 82.0115 -1.27319 3.95933 0
M  V30 912 H 80.5885 -2.58818 2.68454 0
M  V30 913 N 82.7736 -1.49793 -0.48987 0
M  V30 914 C 83.7236 -1.63673 -1.5873 0
M  V30 915 C 84.7076 -0.491956 -1.53195 0
M  V30 916 O 85.8996 -0.745461 -1.60536 0
M  V30 917 C 83.0286 -1.71689 -2.97284 0
M  V30 918 C 82.1146 -2.91781 -3.07774 0
M  V30 919 N 82.5056 -4.15714 -2.88124 0
M  V30 920 C 80.8036 -2.89949 -3.38889 0
M  V30 921 C 81.5046 -4.965 -3.03088 0
M  V30 922 N 80.4806 -4.30083 -3.3246 0
M  V30 923 H 84.2826 -2.57204 -1.42208 0
M  V30 924 H 81.7966 -1.46719 -0.69623 0
M  V30 925 H 83.7936 -1.79732 -3.76168 0
M  V30 926 H 82.4536 -0.793024 -3.14867 0
M  V30 927 H 83.4646 -4.45515 -2.64077 0
M  V30 928 H 80.1416 -2.06987 -3.62578 0
M  V30 929 H 81.5316 -6.04991 -2.92294 0
M  V30 930 N 84.2517 0.741722 -1.39055 0
M  V30 931 C 85.4977 1.50234 -1.37118 0
M  V30 932 C 85.8527 1.92368 0.0350439 0
M  V30 933 O 85.1457 1.63422 1.00019 0
M  V30 934 C 85.3397 2.7592 -2.27163 0
M  V30 935 C 85.1687 2.46074 -3.76401 0
M  V30 936 C 83.9387 2.38704 -4.45364 0
M  V30 937 C 86.1367 2.12062 -4.68545 0
M  V30 938 N 84.1187 2.01258 -5.79973 0
M  V30 939 C 85.4897 1.85005 -5.91754 0
M  V30 940 C 87.5447 1.98473 -4.56632 0
M  V30 941 C 86.2477 1.4573 -7.04383 0
M  V30 942 C 88.2737 1.60599 -5.69176 0
M  V30 943 C 87.6357 1.34423 -6.91455 0
M  V30 944 H 83.7347 0.548858 -0.557027 0
M  V30 945 H 86.3187 0.862642 -1.74547 0
M  V30 946 H 84.4897 3.3768 -1.91904 0
M  V30 947 H 86.2217 3.42068 -2.16267 0
M  V30 948 H 82.9767 2.55574 -3.98721 0
M  V30 949 H 83.4007 1.85147 -6.51191 0
M  V30 950 H 88.0427 2.17381 -3.62637 0
M  V30 951 H 85.7607 1.25562 -7.98286 0
M  V30 952 H 89.3467 1.507 -5.61944 0
M  V30 953 H 88.2267 1.05555 -7.77064 0
M  V30 954 N 85.7298 1.2412 0.971189 0
M  V30 955 C 86.6598 1.05508 2.08304 0
M  V30 956 C 87.6408 -0.0308864 1.70072 0
M  V30 957 O 88.8258 0.135521 1.93727 0
M  V30 958 C 85.9558 0.655365 3.4106 0
M  V30 959 C 84.9098 1.68971 3.93234 0
M  V30 960 C 84.2358 1.14516 5.22293 0
M  V30 961 C 85.5358 3.08487 4.21465 0
M  V30 962 H 87.2298 1.98507 2.24132 0
M  V30 963 H 84.7758 0.955821 1.07704 0
M  V30 964 H 86.7288 0.51217 4.18276 0
M  V30 965 H 85.4528 -0.31032 3.25122 0
M  V30 966 H 84.1118 1.82106 3.18171 0
M  V30 967 H 83.7598 0.170189 5.02712 0
M  V30 968 H 83.4598 1.83635 5.58168 0
M  V30 969 H 84.9838 1.01401 6.02121 0
M  V30 970 H 86.3978 2.98601 4.89398 0
M  V30 971 H 84.7948 3.74926 4.68562 0
M  V30 972 H 85.8648 3.56787 3.28376 0
M  V30 973 N 87.2079 -1.17134 1.05439 0
M  V30 974 C 88.4549 -1.87456 0.765942 0
M  V30 975 C 88.7829 -1.81189 -0.707153 0
M  V30 976 O 88.0379 -1.21633 -1.5331 0
M  V30 977 C 88.3369 -3.36833 1.19491 0
M  V30 978 C 88.0029 -3.63301 2.67063 0
M  V30 979 C 86.6649 -3.70234 3.07376 0
M  V30 980 C 89.0169 -3.74575 3.62413 0
M  V30 981 C 86.3449 -3.85933 4.41896 0
M  V30 982 C 88.6969 -3.91793 4.9667 0
M  V30 983 C 87.3609 -3.96966 5.36633 0
M  V30 984 H 86.6309 -0.685948 0.280278 0
M  V30 985 H 89.2779 -1.38556 1.32192 0
M  V30 986 H 87.5829 -3.87807 0.557969 0
M  V30 987 H 89.2799 -3.89611 0.948893 0
M  V30 988 H 85.8699 -3.58532 2.34846 0
M  V30 989 H 90.0539 -3.68537 3.32406 0
M  V30 990 H 85.3099 -3.88187 4.72357 0
M  V30 991 H 89.4839 -3.99458 5.70444 0
M  V30 992 H 87.1109 -4.08883 6.40874 0
M  V30 993 N 88.686 -0.835752 -1.33615 0
M  V30 994 C 89.934 -0.429109 -1.97492 0
M  V30 995 C 90.255 1.01433 -1.66543 0
M  V30 996 O 89.525 1.70611 -0.962744 0
M  V30 997 H 88.105 -0.155686 -0.730596 0
M  V30 998 H 90.767 -1.06802 -1.63031 0
M  V30 999 H 89.863 -0.55861 -3.0706 0
M  V30 1000 N 90.1641 1.46063 -0.591896 0
M  V30 1001 C 91.1141 2.27458 0.157172 0
M  V30 1002 C 92.0981 1.3641 0.853301 0
M  V30 1003 O 93.2901 1.60517 0.74588 0
M  V30 1004 C 90.4191 3.22956 1.16423 0
M  V30 1005 C 89.5051 4.2149 0.469742 0
M  V30 1006 N 89.8961 5.03519 -0.479839 0
M  V30 1007 C 88.1941 4.40161 0.719319 0
M  V30 1008 C 88.8951 5.74904 -0.886591 0
M  V30 1009 N 87.8711 5.43097 -0.233731 0
M  V30 1010 H 91.6731 2.88272 -0.572392 0
M  V30 1011 H 89.1871 1.57024 -0.414375 0
M  V30 1012 H 91.1841 3.79986 1.71513 0
M  V30 1013 H 89.8441 2.63701 1.89451 0
M  V30 1014 H 90.8551 5.1078 -0.855823 0
M  V30 1015 H 87.5321 3.92046 1.43548 0
M  V30 1016 H 88.9221 6.50844 -1.66888 0
M  V30 1017 N 91.6422 0.330177 1.54103 0
M  V30 1018 C 92.8912 -0.271336 1.99867 0
M  V30 1019 C 93.2042 -1.52723 1.22209 0
M  V30 1020 O 94.4102 -2.20515 1.58383 0
M  V30 1021 C 92.8662 -0.534032 3.55916 0
M  V30 1022 C 92.4742 0.705193 4.42415 0
M  V30 1023 C 94.2182 -1.09514 4.1013 0
M  V30 1024 C 92.1252 0.414035 5.89949 0
M  V30 1025 H 91.0552 -0.105166 0.74663 0
M  V30 1026 H 93.7062 0.443429 1.78062 0
M  V30 1027 H 92.0882 -1.30915 3.73734 0
M  V30 1028 H 93.2622 1.4804 4.36372 0
M  V30 1029 H 91.5772 1.18698 3.99124 0
M  V30 1030 H 94.1742 -1.3277 5.17954 0
M  V30 1031 H 94.5172 -2.04656 3.62521 0
M  V30 1032 H 95.0502 -0.381038 3.95971 0
M  V30 1033 H 91.7892 1.33481 6.41766 0
M  V30 1034 H 91.3092 -0.323336 5.98928 0
M  V30 1035 H 92.9882 0.0263105 6.46995 0
M  V30 1036 N 93.1203 -1.57491 0.0584922 0
M  V30 1037 C 94.0523 -2.08916 -0.942694 0
M  V30 1038 C 95.0653 -1.0185 -1.27006 0
M  V30 1039 O 96.2543 -1.29398 -1.22957 0
M  V30 1040 C 93.3543 -2.52341 -2.26224 0
M  V30 1041 C 92.5273 -3.82827 -2.1157 0
M  V30 1042 C 91.5863 -4.12487 -3.26712 0
M  V30 1043 O 90.6123 -4.82295 -3.02292 0
M  V30 1044 N 91.8143 -3.64978 -4.5141 0
M  V30 1045 H 94.5793 -2.95437 -0.503722 0
M  V30 1046 H 92.1403 -1.61397 -0.12757 0
M  V30 1047 H 94.1323 -2.69254 -3.02133 0
M  V30 1048 H 92.7023 -1.7103 -2.61663 0
M  V30 1049 H 91.9223 -3.75425 -1.20208 0
M  V30 1050 H 93.2103 -4.68263 -1.99015 0
M  V30 1051 H 92.6083 -3.08558 -4.7414 0
M  V30 1052 H 91.1653 -3.87115 -5.2439 0
M  V30 1053 N 94.5984 0.214957 -1.56127 0
M  V30 1054 C 95.5084 1.28727 -1.96129 0
M  V30 1055 C 96.5244 1.50916 -0.866044 0
M  V30 1056 O 97.7004 1.63918 -1.17016 0
M  V30 1057 C 94.7654 2.61569 -2.27558 0
M  V30 1058 C 93.8264 2.47625 -3.50685 0
M  V30 1059 C 93.0594 3.74132 -3.80606 0
M  V30 1060 O 93.2824 4.77438 -3.12104 0
M  V30 1061 O 92.2164 3.70849 -4.74083 0
M  V30 1062 H 96.0424 0.977855 -2.87527 0
M  V30 1063 H 93.6274 0.418358 -1.43423 0
M  V30 1064 H 95.5094 3.40012 -2.48938 0
M  V30 1065 H 94.1844 2.92178 -1.39332 0
M  V30 1066 H 93.0914 1.67361 -3.34576 0
M  V30 1067 H 94.4244 2.21954 -4.39315 0
M  V30 1068 N 96.0765 1.50051 0.48192 0
M  V30 1069 C 97.0065 1.71046 1.58951 0
M  V30 1070 C 97.9875 0.559288 1.60642 0
M  V30 1071 O 99.1725 0.797243 1.77081 0
M  V30 1072 C 96.3025 1.79462 2.97339 0
M  V30 1073 C 95.2565 2.94558 3.10515 0
M  V30 1074 C 94.5825 2.88105 4.50444 0
M  V30 1075 C 95.8825 4.35227 2.88747 0
M  V30 1076 H 97.5765 2.6378 1.41635 0
M  V30 1077 H 95.1225 1.26936 0.679942 0
M  V30 1078 H 97.0755 1.92734 3.74742 0
M  V30 1079 H 95.7995 0.833412 3.15788 0
M  V30 1080 H 94.4585 2.80918 2.35543 0
M  V30 1081 H 94.1065 1.89853 4.65795 0
M  V30 1082 H 93.8065 3.65366 4.60197 0
M  V30 1083 H 95.3305 3.03412 5.29881 0
M  V30 1084 H 96.7445 4.49449 3.55905 0
M  V30 1085 H 95.1415 5.13856 3.09955 0
M  V30 1086 H 96.2115 4.48347 1.84696 0
M  V30 1087 N 97.5546 -0.734337 1.39446 0
M  V30 1088 C 98.4866 -1.85861 1.34121 0
M  V30 1089 C 99.4996 -1.60871 0.249864 0
M  V30 1090 O 100.689 -1.71093 0.508865 0
M  V30 1091 C 97.7886 -3.21899 1.05991 0
M  V30 1092 C 96.9616 -3.74239 2.26415 0
M  V30 1093 C 96.0206 -4.88841 1.94733 0
M  V30 1094 O 95.0466 -5.02468 2.67422 0
M  V30 1095 N 96.2486 -5.73261 0.913884 0
M  V30 1096 H 99.0136 -1.90934 2.31007 0
M  V30 1097 H 96.5746 -0.915102 1.33557 0
M  V30 1098 H 98.5666 -3.96136 0.828147 0
M  V30 1099 H 97.1366 -3.12091 0.178361 0
M  V30 1100 H 96.3566 -2.91347 2.65539 0
M  V30 1101 H 97.6446 -4.05942 3.06738 0
M  V30 1102 H 97.0426 -5.64842 0.311476 0
M  V30 1103 H 95.5996 -6.47563 0.742015 0
M  V30 1104 N 99.0327 -1.24633 -0.964593 0
M  V30 1105 C 99.9647 -0.999302 -2.06268 0
M  V30 1106 C 100.978 0.0323226 -1.62768 0
M  V30 1107 O 102.167 -0.205079 -1.77318 0
M  V30 1108 C 99.2667 -0.486816 -3.35385 0
M  V30 1109 C 98.4397 -1.5823 -4.07777 0
M  V30 1110 C 97.4987 -1.07191 -5.15166 0
M  V30 1111 O 96.5247 -1.76426 -5.41168 0
M  V30 1112 N 97.7267 0.0920373 -5.80427 0
M  V30 1113 H 100.492 -1.94477 -2.28033 0
M  V30 1114 H 98.0527 -1.15704 -1.13244 0
M  V30 1115 H 100.045 -0.130066 -4.04491 0
M  V30 1116 H 98.6147 0.364459 -3.10468 0
M  V30 1117 H 97.8347 -2.11109 -3.32906 0
M  V30 1118 H 99.1227 -2.31854 -4.52903 0
M  V30 1119 H 98.5207 0.670784 -5.61709 0
M  V30 1120 H 97.0777 0.389905 -6.50633 0
M  V30 1121 N 100.511 1.16574 -1.06058 0
M  V30 1122 C 101.788 1.83048 -0.689416 0
M  V30 1123 C 102.168 1.94122 0.829443 0
M  V30 1124 O 101.516 1.48249 1.7388 0
M  V30 1125 C 101.726 3.20186 -1.38859 0
M  V30 1126 C 103.074 3.95989 -1.53226 0
M  V30 1127 O 104.098 3.29696 -1.3483 0
M  V30 1128 O 102.957 5.14813 -1.83384 0
M  V30 1129 H 100.051 0.790258 -0.243764 0
M  V30 1130 H 102.597 1.23797 -1.16071 0
M  V30 1131 H 101.369 3.07146 -2.4244 0
M  V30 1132 H 100.992 3.87112 -0.907216 0
M  V30 1133 N 101.989 0.842826 1.3317 0
M  V30 1134 C 102.921 0.236245 2.27979 0
M  V30 1135 C 103.934 -0.585282 1.51915 0
M  V30 1136 O 105.123 -0.411705 1.73687 0
M  V30 1137 C 102.223 -0.685717 3.3189 0
M  V30 1138 C 101.396 0.0973448 4.37292 0
M  V30 1139 C 100.455 -0.748565 5.20848 0
M  V30 1140 O 99.4809 -0.186339 5.68895 0
M  V30 1141 N 100.683 -2.06527 5.42519 0
M  V30 1142 H 103.448 1.05088 2.80672 0
M  V30 1143 H 101.009 0.701667 1.45905 0
M  V30 1144 H 103.001 -1.25669 3.84694 0
M  V30 1145 H 101.571 -1.40105 2.79445 0
M  V30 1146 H 100.791 0.849706 3.84933 0
M  V30 1147 H 102.079 0.635643 5.04814 0
M  V30 1148 H 101.477 -2.54554 5.05192 0
M  V30 1149 H 100.034 -2.58464 5.98364 0
M  V30 1150 N 103.467 -1.45747 0.599634 0
M  V30 1151 C 104.377 -2.34262 -0.125888 0
M  V30 1152 C 105.393 -1.50768 -0.868625 0
M  V30 1153 O 106.569 -1.83592 -0.828003 0
M  V30 1154 C 103.634 -3.28252 -1.11587 0
M  V30 1155 C 102.695 -4.27651 -0.375956 0
M  V30 1156 C 101.928 -5.1715 -1.31877 0
M  V30 1157 O 102.151 -5.09916 -2.55621 0
M  V30 1158 O 101.085 -5.96286 -0.820157 0
M  V30 1159 H 104.911 -2.97688 0.601315 0
M  V30 1160 H 102.496 -1.44999 0.359934 0
M  V30 1161 H 104.378 -3.86191 -1.68626 0
M  V30 1162 H 103.053 -2.67401 -1.82424 0
M  V30 1163 H 101.96 -3.7335 0.236698 0
M  V30 1164 H 103.293 -4.91334 0.29177 0
M  V30 1165 N 104.945 -0.338344 -1.53925 0
M  V30 1166 C 105.875 0.51328 -2.27789 0
M  V30 1167 C 106.856 1.107 -1.29149 0
M  V30 1168 O 108.041 1.12937 -1.57984 0
M  V30 1169 C 105.171 1.66697 -3.04679 0
M  V30 1170 C 104.125 1.20183 -4.1078 0
M  V30 1171 C 103.451 2.44363 -4.75595 0
M  V30 1172 C 104.751 0.30605 -5.21403 0
M  V30 1173 H 106.445 -0.102883 -2.99223 0
M  V30 1174 H 103.991 -0.0509219 -1.4391 0
M  V30 1175 H 105.944 2.26915 -3.55088 0
M  V30 1176 H 104.668 2.30995 -2.30887 0
M  V30 1177 H 103.327 0.622499 -3.61276 0
M  V30 1178 H 102.975 3.07057 -3.98403 0
M  V30 1179 H 102.675 2.13925 -5.47275 0
M  V30 1180 H 104.199 3.05317 -5.28786 0
M  V30 1181 H 105.613 0.814929 -5.67478 0
M  V30 1182 H 104.01 0.0937929 -6.00027 0
M  V30 1183 H 105.08 -0.65921 -4.80398 0
M  V30 1184 N 106.423 1.57458 -0.0668435 0
M  V30 1185 C 107.355 2.09413 0.931601 0
M  V30 1186 C 108.368 1.02522 1.26464 0
M  V30 1187 O 109.557 1.30049 1.22269 0
M  V30 1188 C 106.657 2.53537 2.24882 0
M  V30 1189 C 105.83 3.83944 2.09537 0
M  V30 1190 C 104.889 4.14214 3.2452 0
M  V30 1191 O 103.915 4.83891 2.9973 0
M  V30 1192 N 105.117 3.67367 4.49469 0
M  V30 1193 H 107.882 2.95699 0.488048 0
M  V30 1194 H 105.443 1.61462 0.119009 0
M  V30 1195 H 107.435 2.70853 3.00701 0
M  V30 1196 H 106.005 1.72415 2.60753 0
M  V30 1197 H 105.225 3.76057 1.18215 0
M  V30 1198 H 106.513 4.69312 1.96529 0
M  V30 1199 H 105.911 3.11068 4.72497 0
M  V30 1200 H 104.468 3.89891 5.2233 0
M  V30 1201 N 107.901 -0.206675 1.56239 0
M  V30 1202 C 109.317 -0.557025 1.49564 0
M  V30 1203 C 109.517 -1.86424 0.764735 0
M  V30 1204 O 108.573 -2.50584 0.310491 0
M  V30 1205 C 109.886 -0.622478 2.94186 0
M  V30 1206 C 111.434 -0.712099 3.04792 0
M  V30 1207 C 111.909 -0.808767 4.50803 0
M  V30 1208 N 113.4 -0.8726 4.54907 0
M  V30 1209 C 114.135 -0.967365 5.65181 0
M  V30 1210 N 113.631 -1.02515 6.85173 0
M  V30 1211 N 115.424 -1.00366 5.53067 0
M  V30 1212 H 107.575 0.650943 2.02179 0
M  V30 1213 H 109.838 0.230387 0.919579 0
M  V30 1214 H 109.544 0.268727 3.50672 0
M  V30 1215 H 109.418 -1.4811 3.46905 0
M  V30 1216 H 111.805 -1.59374 2.48363 0
M  V30 1217 H 111.886 0.172489 2.55218 0
M  V30 1218 H 111.53 0.0684754 5.07854 0
M  V30 1219 H 111.46 -1.70899 4.98098 0
M  V30 1220 H 113.951 -0.837657 3.68499 0
M  V30 1221 H 114.264 -1.09765 7.64965 0
M  V30 1222 H 112.609 -0.994026 6.87855 0
M  V30 1223 H 115.8 -0.95527 4.58249 0
M  V30 1224 H 115.973 -1.07405 6.39037 0
M  V30 1225 N 109.379 -1.50304 -0.473955 0
M  V30 1226 C 110.628 -1.60392 -1.22301 0
M  V30 1227 C 110.941 -0.308411 -1.93153 0
M  V30 1228 O 112.147 -0.288156 -2.69966 0
M  V30 1229 C 110.603 -2.83109 -2.2221 0
M  V30 1230 C 110.211 -4.19524 -1.57173 0
M  V30 1231 C 111.955 -3.0254 -2.97775 0
M  V30 1232 C 109.862 -5.33431 -2.55353 0
M  V30 1233 H 108.792 -0.597286 -0.460179 0
M  V30 1234 H 111.443 -1.76731 -0.493803 0
M  V30 1235 H 109.825 -2.60322 -2.9841 0
M  V30 1236 H 110.999 -4.52554 -0.867824 0
M  V30 1237 H 109.314 -4.05674 -0.939002 0
M  V30 1238 H 111.911 -3.84811 -3.71248 0
M  V30 1239 H 112.254 -2.14154 -3.56992 0
M  V30 1240 H 112.787 -3.25494 -2.28688 0
M  V30 1241 H 109.526 -6.23962 -2.00878 0
M  V30 1242 H 109.046 -5.04823 -3.23904 0
M  V30 1243 H 110.725 -5.63887 -3.17239 0
M  V30 1244 N 110.857 0.726932 -1.39834 0
M  V30 1245 C 111.789 1.85147 -1.35104 0
M  V30 1246 C 112.802 1.60736 -0.258392 0
M  V30 1247 O 113.991 1.70821 -0.517931 0
M  V30 1248 C 111.091 3.21332 -1.07697 0
M  V30 1249 C 110.264 3.73033 -2.28396 0
M  V30 1250 C 109.323 4.87802 -1.97322 0
M  V30 1251 O 108.349 5.01043 -2.70083 0
M  V30 1252 N 109.551 5.72768 -0.944273 0
M  V30 1253 H 112.316 1.89706 -2.32017 0
M  V30 1254 H 109.877 0.908006 -1.3404 0
M  V30 1255 H 111.869 3.95691 -0.849144 0
M  V30 1256 H 110.439 3.11992 -0.194909 0
M  V30 1257 H 109.659 2.89934 -2.6708 0
M  V30 1258 H 110.947 4.0431 -3.08887 0
M  V30 1259 H 110.345 5.64669 -0.341427 0
M  V30 1260 H 108.902 6.4716 -0.776346 0
M  V30 1261 N 112.336 1.25143 0.95797 0
M  V30 1262 C 113.283 1.05235 2.05412 0
M  V30 1263 C 114.253 -0.0374561 1.66058 0
M  V30 1264 O 115.438 0.119073 1.90428 0
M  V30 1265 C 112.578 0.673589 3.38462 0
M  V30 1266 C 111.691 1.8379 3.90954 0
M  V30 1267 C 110.826 1.40381 5.12315 0
M  V30 1268 C 109.865 2.53746 5.57027 0
M  V30 1269 N 109.002 2.11136 6.69601 0
M  V30 1270 H 113.842 1.99048 2.21774 0
M  V30 1271 H 111.379 0.991277 1.08683 0
M  V30 1272 H 113.337 0.434964 4.14926 0
M  V30 1273 H 111.967 -0.227554 3.21997 0
M  V30 1274 H 111.019 2.18992 3.11041 0
M  V30 1275 H 112.331 2.68937 4.20089 0
M  V30 1276 H 111.485 1.12464 5.96185 0
M  V30 1277 H 110.224 0.523015 4.84887 0
M  V30 1278 H 109.229 2.82412 4.71724 0
M  V30 1279 H 110.454 3.42398 5.86464 0
M  V30 1280 H 108.4 1.25468 6.4389 0
M  V30 1281 H 108.317 2.89832 6.98236 0
M  V30 1282 H 109.585 1.86385 7.56889 0
M  V30 1283 N 113.814 -1.1601 1.06675 0
M  V30 1284 C 115.06 -1.87145 0.796766 0
M  V30 1285 C 115.415 -1.8037 -0.669658 0
M  V30 1286 O 114.708 -1.21116 -1.48463 0
M  V30 1287 C 114.902 -3.35547 1.23057 0
M  V30 1288 C 114.731 -3.56769 2.73762 0
M  V30 1289 C 113.501 -3.72635 3.41279 0
M  V30 1290 C 115.699 -3.55166 3.7197 0
M  V30 1291 N 113.681 -3.81845 4.80695 0
M  V30 1292 C 115.052 -3.70406 4.97191 0
M  V30 1293 C 117.107 -3.384 3.65226 0
M  V30 1294 C 115.81 -3.70615 6.16471 0
M  V30 1295 C 117.836 -3.39904 4.83962 0
M  V30 1296 C 117.198 -3.55667 6.08013 0
M  V30 1297 H 113.297 -0.702267 0.344014 0
M  V30 1298 H 115.881 -1.39165 1.36166 0
M  V30 1299 H 114.052 -3.82159 0.693456 0
M  V30 1300 H 115.784 -3.94363 0.908844 0
M  V30 1301 H 112.539 -3.73121 2.91681 0
M  V30 1302 H 112.963 -3.90209 5.53232 0
M  V30 1303 H 117.605 -3.25138 2.70269 0
M  V30 1304 H 115.323 -3.82658 7.11757 0
M  V30 1305 H 118.909 -3.28169 4.80413 0
M  V30 1306 H 117.789 -3.56755 6.98352 0
M  V30 1307 N 115.292 -0.849877 -1.32721 0
M  V30 1308 C 116.538 -0.451591 -1.97708 0
M  V30 1309 C 116.871 0.989175 -1.6712 0
M  V30 1310 O 116.146 1.69334 -0.956891 0
M  V30 1311 C 116.429 -0.685598 -3.53513 0
M  V30 1312 C 116.282 -2.17444 -3.93749 0
M  V30 1313 C 117.601 -0.138874 -4.39881 0
M  V30 1314 H 114.72 -0.16555 -0.718166 0
M  V30 1315 H 117.362 -1.06742 -1.57182 0
M  V30 1316 H 115.512 -0.161416 -3.88165 0
M  V30 1317 H 117.184 -2.76433 -3.693 0
M  V30 1318 H 115.427 -2.65476 -3.43081 0
M  V30 1319 H 116.098 -2.28888 -5.02309 0
M  V30 1320 H 118.574 -0.587068 -4.11938 0
M  V30 1321 H 117.45 -0.332213 -5.47894 0
M  V30 1322 H 117.711 0.95806 -4.31594 0
M  V30 1323 N 116.77 1.45427 -0.607355 0
M  V30 1324 C 117.68 2.34325 0.113463 0
M  V30 1325 C 118.696 1.51226 0.860617 0
M  V30 1326 O 119.872 1.84029 0.818255 0
M  V30 1327 C 116.937 3.28839 1.09844 0
M  V30 1328 C 115.998 4.27844 0.353271 0
M  V30 1329 C 115.231 5.17842 1.29133 0
M  V30 1330 O 115.454 5.11264 2.52913 0
M  V30 1331 O 114.388 5.96713 0.788523 0
M  V30 1332 H 118.214 2.97364 -0.617094 0
M  V30 1333 H 115.799 1.44807 -0.367619 0
M  V30 1334 H 117.681 3.8708 1.66575 0
M  V30 1335 H 116.356 2.68365 1.81003 0
M  V30 1336 H 115.263 3.7322 -0.256494 0
M  V30 1337 H 116.596 4.91173 -0.317822 0
M  V30 1338 N 118.248 0.346503 1.53744 0
M  V30 1339 C 119.476 -0.25041 2.05379 0
M  V30 1340 C 119.891 -1.43979 1.22129 0
M  V30 1341 O 119.248 -1.80677 0.257321 0
M  V30 1342 C 119.299 -0.662575 3.55376 0
M  V30 1343 O 119.02 0.479515 4.35468 0
M  V30 1344 C 120.521 -1.31989 4.23195 0
M  V30 1345 H 117.741 -0.0478198 0.669294 0
M  V30 1346 H 120.285 0.499346 1.9831 0
M  V30 1347 H 118.44 -1.36227 3.62658 0
M  V30 1348 H 118.854 0.15037 5.24284 0
M  V30 1349 H 120.328 -1.55902 5.29527 0
M  V30 1350 H 120.805 -2.27436 3.75725 0
M  V30 1351 H 121.411 -0.662154 4.20114 0
M  V30 1352 N 119.726 -1.57421 0.075193 0
M  V30 1353 C 120.973 -1.93618 -0.593146 0
M  V30 1354 C 121.301 -0.955484 -1.69413 0
M  V30 1355 O 120.556 0.0283251 -1.9568 0
M  V30 1356 C 120.855 -3.36428 -1.20626 0
M  V30 1357 C 120.521 -4.50307 -0.231078 0
M  V30 1358 C 119.183 -4.81186 0.0371936 0
M  V30 1359 C 121.535 -5.19374 0.435888 0
M  V30 1360 C 118.863 -5.78466 0.979461 0
M  V30 1361 C 121.215 -6.17665 1.3665 0
M  V30 1362 C 119.879 -6.46958 1.6432 0
M  V30 1363 H 119.149 -0.708499 -0.217047 0
M  V30 1364 H 121.796 -1.90937 0.146793 0
M  V30 1365 H 120.101 -3.35592 -2.02201 0
M  V30 1366 H 121.798 -3.61727 -1.73073 0
M  V30 1367 H 118.388 -4.26227 -0.450357 0
M  V30 1368 H 122.572 -4.95711 0.241748 0
M  V30 1369 H 117.828 -5.99487 1.20106 0
M  V30 1370 H 122.002 -6.70284 1.88924 0
M  V30 1371 H 119.629 -7.2215 2.37494 0
M  V30 1372 N 121.204 0.198386 -1.56346 0
M  V30 1373 C 122.615 0.763358 -1.70381 0
M  V30 1374 C 122.966 1.83995 -0.681203 0
M  V30 1375 O 122.091 2.15785 0.16305 0
M  V30 1376 C 122.686 1.39143 -3.08909 0
M  V30 1377 C 121.245 1.90352 -3.2472 0
M  V30 1378 C 120.392 0.772233 -2.6633 0
M  V30 1379 H 123.343 -0.0266377 -1.58678 0
M  V30 1380 H 123.364 2.26076 -3.06055 0
M  V30 1381 H 122.876 0.607638 -3.83314 0
M  V30 1382 H 120.977 2.71461 -2.55225 0
M  V30 1383 H 121.09 2.06757 -4.3219 0
M  V30 1384 H 119.454 1.18566 -2.2542 0
M  V30 1385 H 120.237 0.00073556 -3.433 0
M  V30 1386 N 122.682 1.50554 0.465978 0
M  V30 1387 C 123.907 1.65838 1.24549 0
M  V30 1388 C 124.332 0.343486 1.84937 0
M  V30 1389 O 123.69 -0.69324 1.67523 0
M  V30 1390 C 123.738 2.75533 2.32624 0
M  V30 1391 O 122.842 2.37142 3.37398 0
M  V30 1392 H 122.183 0.553893 0.366194 0
M  V30 1393 H 124.713 1.96959 0.553927 0
M  V30 1394 H 124.723 2.98763 2.77857 0
M  V30 1395 H 123.398 3.70962 1.88043 0
M  V30 1396 H 121.975 2.24377 2.97841 0
M  V30 1397 N 124.16 -0.719506 1.40217 0
M  V30 1398 C 125.123 -1.8153 1.39927 0
M  V30 1399 C 126.123 -1.58095 0.293723 0
M  V30 1400 O 127.313 -1.65209 0.552429 0
M  V30 1401 C 124.445 -3.19561 1.18716 0
M  V30 1402 H 125.638 -1.83186 2.37451 0
M  V30 1403 H 123.191 -0.924746 1.26008 0
M  V30 1404 H 123.926 -3.23557 0.219366 0
M  V30 1405 H 123.711 -3.3797 1.98793 0
M  V30 1406 H 125.201 -3.99598 1.21291 0
M  V30 1407 N 125.638 -1.25649 -0.95132 0
M  V30 1408 C 126.878 -1.11802 -1.71113 0
M  V30 1409 C 127.242 0.334758 -1.89059 0
M  V30 1410 O 128.443 0.595121 -2.62129 0
M  V30 1411 C 126.714 -1.85512 -3.05483 0
M  V30 1412 S 128.273 -1.87597 -3.96677 0
M  V30 1413 H 125.091 -0.399552 -0.588115 0
M  V30 1414 H 127.693 -1.59222 -1.1344 0
M  V30 1415 H 126.397 -2.90299 -2.90094 0
M  V30 1416 H 125.928 -1.38493 -3.68216 0
M  V30 1417 H 127.943 -0.955389 -4.86916 0
M  V30 1418 N 127.117 1.15442 -1.07289 0
M  V30 1419 C 128.528 1.67803 -0.818475 0
M  V30 1420 C 128.879 1.8489 0.656507 0
M  V30 1421 O 128.004 1.55176 1.50829 0
M  V30 1422 C 128.599 3.04805 -1.47917 0
M  V30 1423 C 127.158 3.54245 -1.27229 0
M  V30 1424 C 126.305 2.29986 -1.54925 0
M  V30 1425 H 129.256 0.996646 -1.23502 0
M  V30 1426 H 129.277 3.69702 -0.90005 0
M  V30 1427 H 128.789 2.92336 -2.55267 0
M  V30 1428 H 126.89 3.71956 -0.21899 0
M  V30 1429 H 127.003 4.35723 -1.99203 0
M  V30 1430 H 125.367 2.35496 -0.970242 0
M  V30 1431 H 126.15 2.20105 -2.63455 0
M  V30 1432 N 128.595 0.856903 1.32268 0
M  V30 1433 C 129.545 0.274899 2.26337 0
M  V30 1434 C 130.529 -0.580543 1.50062 0
M  V30 1435 O 131.721 -0.429559 1.71708 0
M  V30 1436 C 128.85 -0.533841 3.39124 0
M  V30 1437 C 127.936 0.334114 4.22782 0
M  V30 1438 N 128.327 1.42143 4.85416 0
M  V30 1439 C 126.625 0.124256 4.45827 0
M  V30 1440 C 127.326 1.95559 5.47843 0
M  V30 1441 N 126.302 1.25444 5.28928 0
M  V30 1442 H 130.104 1.10612 2.72291 0
M  V30 1443 H 127.618 0.703258 1.46383 0
M  V30 1444 H 129.615 -0.96722 4.05525 0
M  V30 1445 H 128.275 -1.36283 2.94715 0
M  V30 1446 H 129.286 1.80436 4.85451 0
M  V30 1447 H 125.963 -0.669837 4.12092 0
M  V30 1448 H 127.353 2.86714 6.07655 0
M  V30 1449 N 130.073 -1.45103 0.615059 0
M  V30 1450 C 131.319 -2.03035 0.121804 0
M  V30 1451 C 131.674 -1.47393 -1.23665 0
M  V30 1452 O 130.967 -0.642061 -1.80522 0
M  V30 1453 C 131.161 -3.57386 0.0318797 0
M  V30 1454 C 130.99 -4.28 1.38007 0
M  V30 1455 C 129.76 -4.65624 1.9627 0
M  V30 1456 C 131.958 -4.5948 2.31047 0
M  V30 1457 N 129.94 -5.21132 3.24492 0
M  V30 1458 C 131.311 -5.159 3.43872 0
M  V30 1459 C 133.366 -4.41423 2.30326 0
M  V30 1460 C 132.069 -5.56165 4.5615 0
M  V30 1461 C 134.095 -4.82726 3.41658 0
M  V30 1462 C 133.457 -5.39245 4.53205 0
M  V30 1463 H 129.556 -0.77702 0.0881159 0
M  V30 1464 H 132.14 -1.76819 0.815044 0
M  V30 1465 H 130.311 -3.83247 -0.630599 0
M  V30 1466 H 132.043 -4.01976 -0.468721 0
M  V30 1467 H 128.798 -4.49421 1.49392 0
M  V30 1468 H 129.222 -5.53377 3.90004 0
M  V30 1469 H 133.864 -3.97033 1.45343 0
M  V30 1470 H 131.582 -5.99517 5.41854 0
M  V30 1471 H 135.168 -4.7048 3.42257 0
M  V30 1472 H 134.048 -5.70616 5.37929 0
M  V30 1473 N 131.551 -0.354651 -1.53558 0
M  V30 1474 C 132.481 0.489091 -2.2832 0
M  V30 1475 C 133.462 1.09324 -1.30316 0
M  V30 1476 O 134.647 1.11255 -1.59173 0
M  V30 1477 C 131.777 1.63456 -3.0643 0
M  V30 1478 C 130.731 1.1582 -4.12031 0
M  V30 1479 C 130.057 2.39305 -4.7816 0
M  V30 1480 C 131.357 0.250731 -5.21698 0
M  V30 1481 H 133.051 -0.134614 -2.99097 0
M  V30 1482 H 130.597 -0.0661826 -1.43848 0
M  V30 1483 H 132.55 2.23136 -3.57475 0
M  V30 1484 H 131.274 2.28533 -2.33325 0
M  V30 1485 H 129.933 0.584146 -3.61916 0
M  V30 1486 H 129.581 3.02814 -4.01637 0
M  V30 1487 H 129.281 2.08109 -5.49513 0
M  V30 1488 H 130.805 2.99691 -5.31994 0
M  V30 1489 H 132.219 0.754695 -5.68311 0
M  V30 1490 H 130.616 0.0301468 -6.00092 0
M  V30 1491 H 131.686 -0.710125 -4.79672 0
M  V30 1492 N 133.029 1.57378 -0.0835403 0
M  V30 1493 C 134.275 1.95025 0.577664 0
M  V30 1494 C 134.63 0.964049 1.66505 0
M  V30 1495 O 133.923 -0.0118235 1.91596 0
M  V30 1496 C 134.117 3.37063 1.1884 0
M  V30 1497 C 133.946 4.49409 0.16171 0
M  V30 1498 C 132.716 5.04642 -0.257756 0
M  V30 1499 C 134.914 5.10722 -0.605634 0
M  V30 1500 N 132.896 6.00537 -1.27393 0
M  V30 1501 C 134.267 6.02225 -1.47395 0
M  V30 1502 C 136.322 4.93501 -0.660418 0
M  V30 1503 C 135.025 6.78355 -2.39221 0
M  V30 1504 C 137.051 5.70283 -1.56623 0
M  V30 1505 C 136.413 6.61444 -2.4222 0
M  V30 1506 H 132.512 0.760512 0.182058 0
M  V30 1507 H 135.096 1.94013 -0.163419 0
M  V30 1508 H 133.267 3.3879 1.89936 0
M  V30 1509 H 134.999 3.61917 1.81103 0
M  V30 1510 H 131.754 4.73428 0.127702 0
M  V30 1511 H 132.178 6.53184 -1.77987 0
M  V30 1512 H 136.82 4.22798 -0.0128221 0
M  V30 1513 H 134.538 7.48327 -3.05011 0
M  V30 1514 H 138.124 5.58976 -1.61361 0
M  V30 1515 H 137.004 7.1982 -3.11174 0
M  V30 1516 N 134.507 -0.190092 1.56449 0
M  V30 1517 C 135.755 -0.907908 1.80559 0
M  V30 1518 C 136.076 -1.83583 0.657438 0
M  V30 1519 O 135.346 -1.93203 -0.323924 0
M  V30 1520 H 133.926 -0.338247 0.666032 0
M  V30 1521 H 136.588 -0.194403 1.93928 0
M  V30 1522 H 135.684 -1.49604 2.73907 0
M  V30 1523 N 135.985 -1.50799 -0.457987 0
M  V30 1524 C 137.233 -1.62121 -1.2067 0
M  V30 1525 C 137.554 -0.329793 -1.92191 0
M  V30 1526 O 136.824 0.653409 -1.84682 0
M  V30 1527 H 135.404 -0.597441 -0.448411 0
M  V30 1528 H 138.066 -1.87637 -0.527096 0
M  V30 1529 H 137.162 -2.43882 -1.94751 0
M  V30 1530 N 137.463 0.71206 -1.40597 0
M  V30 1531 C 138.41 1.82613 -1.41142 0
M  V30 1532 C 139.38 1.63925 -0.267903 0
M  V30 1533 O 140.565 1.85009 -0.466495 0
M  V30 1534 C 137.705 3.20354 -1.28324 0
M  V30 1535 C 136.818 3.50589 -2.52411 0
M  V30 1536 C 135.953 4.77855 -2.32009 0
M  V30 1537 C 134.992 5.01005 -3.51654 0
M  V30 1538 N 134.129 6.19487 -3.30425 0
M  V30 1539 H 138.969 1.81482 -2.36365 0
M  V30 1540 H 136.506 0.886475 -1.17388 0
M  V30 1541 H 138.464 3.99899 -1.18899 0
M  V30 1542 H 137.094 3.20705 -0.367189 0
M  V30 1543 H 136.146 2.65573 -2.72351 0
M  V30 1544 H 137.458 3.63604 -3.41458 0
M  V30 1545 H 136.612 5.65424 -2.19956 0
M  V30 1546 H 135.351 4.67056 -1.40392 0
M  V30 1547 H 134.356 4.1189 -3.64179 0
M  V30 1548 H 135.581 5.13674 -4.44202 0
M  V30 1549 H 133.527 6.09932 -2.41494 0
M  V30 1550 H 133.444 6.33194 -4.13039 0
M  V30 1551 H 134.712 7.09834 -3.22113 0
M  V30 1552 N 138.941 1.26152 0.944643 0
M  V30 1553 C 140.187 1.11657 1.69294 0
M  V30 1554 C 140.52 -0.339926 1.91202 0
M  V30 1555 O 139.795 -1.24994 1.49019 0
M  V30 1556 C 140.078 1.88236 3.06984 0
M  V30 1557 C 139.931 3.41772 2.92424 0
M  V30 1558 C 141.25 1.67343 4.07043 0
M  V30 1559 H 138.369 0.407004 0.614424 0
M  V30 1560 H 141.011 1.55106 1.09737 0
M  V30 1561 H 139.161 1.51308 3.57824 0
M  V30 1562 H 140.833 3.88433 2.48832 0
M  V30 1563 H 139.076 3.68974 2.28124 0
M  V30 1564 H 139.747 3.90579 3.90067 0
M  V30 1565 H 142.223 1.99509 3.65151 0
M  V30 1566 H 141.099 2.23346 5.01406 0
M  V30 1567 H 141.36 0.617158 4.37771 0
M  V30 1568 N 140.419 -1.14872 1.07899 0
M  V30 1569 C 141.835 -1.37776 0.805606 0
M  V30 1570 C 142.035 -1.92743 -0.587555 0
M  V30 1571 O 141.091 -2.13678 -1.34528 0
M  V30 1572 C 142.404 -2.34361 1.88402 0
M  V30 1573 C 143.952 -2.48012 1.90942 0
M  V30 1574 C 144.427 -3.47893 2.97883 0
M  V30 1575 N 145.918 -3.55433 2.97021 0
M  V30 1576 C 146.653 -4.32553 3.76412 0
M  V30 1577 N 146.149 -5.12959 4.65666 0
M  V30 1578 N 147.942 -4.27697 3.64735 0
M  V30 1579 H 140.093 -0.775365 1.97742 0
M  V30 1580 H 142.356 -0.403521 0.857831 0
M  V30 1581 H 142.062 -2.01098 2.88535 0
M  V30 1582 H 141.936 -3.34206 1.74889 0
M  V30 1583 H 144.323 -2.8057 0.914579 0
M  V30 1584 H 144.404 -1.48147 2.08534 0
M  V30 1585 H 144.048 -3.16069 3.97571 0
M  V30 1586 H 143.978 -4.47527 2.77538 0
M  V30 1587 H 146.469 -2.98048 2.32326 0
M  V30 1588 H 146.782 -5.69065 5.22862 0
M  V30 1589 H 145.127 -5.12245 4.69712 0
M  V30 1590 H 148.318 -3.63949 2.94378 0
M  V30 1591 H 148.491 -4.8755 4.26848 0
M  V30 1592 N 141.898 -0.863906 -1.31812 0
M  V30 1593 C 143.144 -0.472535 -1.97218 0
M  V30 1594 C 143.477 0.971394 -1.68159 0
M  V30 1595 O 142.752 1.68309 -0.974798 0
M  V30 1596 C 143.035 -0.723054 -3.52766 0
M  V30 1597 C 142.888 -2.21608 -3.91421 0
M  V30 1598 C 144.207 -0.185522 -4.39709 0
M  V30 1599 H 141.326 -0.173158 -0.71637 0
M  V30 1600 H 143.968 -1.08403 -1.56041 0
M  V30 1601 H 142.118 -0.202577 -3.87971 0
M  V30 1602 H 143.79 -2.80334 -3.66347 0
M  V30 1603 H 142.033 -2.691 -3.40246 0
M  V30 1604 H 142.704 -2.34203 -4.99853 0
M  V30 1605 H 145.18 -0.630726 -4.11292 0
M  V30 1606 H 144.056 -0.390306 -5.47511 0
M  V30 1607 H 144.317 0.912229 -4.32586 0
M  V30 1608 N 143.376 1.44774 -0.622745 0
M  V30 1609 C 144.308 2.28856 0.125485 0
M  V30 1610 C 145.321 1.40811 0.817069 0
M  V30 1611 O 146.51 1.65044 0.679918 0
M  V30 1612 C 143.61 3.16963 1.19949 0
M  V30 1613 C 142.783 4.33374 0.592064 0
M  V30 1614 C 141.842 5.02577 1.55893 0
M  V30 1615 O 140.868 5.58873 1.07933 0
M  V30 1616 N 142.07 5.03256 2.89334 0
M  V30 1617 H 144.835 2.93713 -0.596068 0
M  V30 1618 H 142.396 1.55129 -0.463303 0
M  V30 1619 H 144.388 3.60123 1.84644 0
M  V30 1620 H 142.958 2.53913 1.82337 0
M  V30 1621 H 142.178 3.93509 -0.233322 0
M  V30 1622 H 143.466 5.08527 0.166738 0
M  V30 1623 H 142.864 4.58836 3.30887 0
M  V30 1624 H 141.421 5.50232 3.49412 0
M  V30 1625 N 144.854 0.36279 1.53368 0
M  V30 1626 C 145.784 -0.476976 2.28576 0
M  V30 1627 C 146.765 -1.08631 1.30894 0
M  V30 1628 O 147.95 -1.10409 1.59761 0
M  V30 1629 C 145.08 -1.61828 3.07293 0
M  V30 1630 C 144.034 -1.13633 4.1264 0
M  V30 1631 C 143.36 -2.36766 4.79423 0
M  V30 1632 C 144.66 -0.223061 5.21823 0
M  V30 1633 H 146.354 0.150474 2.99022 0
M  V30 1634 H 143.9 0.0738103 1.43811 0
M  V30 1635 H 145.853 -2.21237 3.58653 0
M  V30 1636 H 144.577 -2.27292 2.34533 0
M  V30 1637 H 143.236 -0.564945 3.62221 0
M  V30 1638 H 142.884 -3.0068 4.03238 0
M  V30 1639 H 142.584 -2.05192 5.50609 0
M  V30 1640 H 144.108 -2.96865 5.33576 0
M  V30 1641 H 145.522 -0.724545 5.68703 0
M  V30 1642 H 143.919 0.001678 6.001 0
M  V30 1643 H 144.989 0.735553 4.79289 0
M  V30 1644 N 146.332 -1.57332 0.0918853 0
M  V30 1645 C 147.562 -1.98286 -0.580205 0
M  V30 1646 C 147.97 -0.969713 -1.6246 0
M  V30 1647 O 147.313 0.0493501 -1.83634 0
M  V30 1648 C 147.375 -3.35603 -1.28882 0
M  V30 1649 C 147.039 -4.55285 -0.395559 0
M  V30 1650 C 148.036 -5.18687 0.355002 0
M  V30 1651 C 145.721 -5.01314 -0.314556 0
M  V30 1652 C 147.715 -6.26484 1.17458 0
M  V30 1653 C 145.402 -6.08979 0.508677 0
M  V30 1654 C 146.4 -6.71429 1.2519 0
M  V30 1655 O 146.088 -7.77018 2.06151 0
M  V30 1656 H 145.82 -0.656678 -0.160466 0
M  V30 1657 H 148.374 -2.04721 0.16688 0
M  V30 1658 H 146.604 -3.25842 -2.08241 0
M  V30 1659 H 148.293 -3.61026 -1.85512 0
M  V30 1660 H 149.059 -4.84058 0.302134 0
M  V30 1661 H 144.938 -4.5247 -0.882697 0
M  V30 1662 H 148.482 -6.75159 1.75518 0
M  V30 1663 H 144.379 -6.4304 0.563037 0
M  V30 1664 H 145.147 -7.93991 1.98799 0
M  V30 1665 N 147.81 0.181792 -1.56548 0
M  V30 1666 C 149.087 0.926765 -1.72251 0
M  V30 1667 C 149.467 2.00831 -0.650386 0
M  V30 1668 O 148.815 2.26008 0.336521 0
M  V30 1669 C 149.025 1.50106 -3.1507 0
M  V30 1670 C 150.373 1.97805 -3.75711 0
M  V30 1671 O 151.397 1.59922 -3.18282 0
M  V30 1672 O 150.256 2.67555 -4.76525 0
M  V30 1673 H 147.35 0.435506 -0.703039 0
M  V30 1674 H 149.896 0.170443 -1.68842 0
M  V30 1675 H 148.668 0.72212 -3.84579 0
M  V30 1676 H 148.291 2.32186 -3.22763 0
M  V30 1677 N 149.288 1.51039 0.449983 0
M  V30 1678 C 150.699 1.557 1.03026 0
M  V30 1679 C 151.05 0.372939 1.92623 0
M  V30 1680 O 150.175 -0.511771 2.10261 0
M  V30 1681 C 150.77 2.82171 1.87523 0
M  V30 1682 C 149.329 2.89444 2.40622 0
M  V30 1683 C 148.476 2.50228 1.19504 0
M  V30 1684 H 151.427 1.56999 0.231745 0
M  V30 1685 H 151.448 2.65219 2.72835 0
M  V30 1686 H 150.96 3.68331 1.22286 0
M  V30 1687 H 149.061 2.07685 3.0935 0
M  V30 1688 H 149.174 3.92816 2.74285 0
M  V30 1689 H 147.538 2.03139 1.53644 0
M  V30 1690 H 148.321 3.38719 0.558972 0
M  V30 1691 N 150.766 -0.704594 1.40972 0
M  V30 1692 C 152.043 -1.45847 1.30338 0
M  V30 1693 C 152.423 -2.10973 -0.0732344 0
M  V30 1694 O 151.771 -2.00997 -1.08685 0
M  V30 1695 C 151.981 -2.48525 2.45023 0
M  V30 1696 C 153.329 -3.1404 2.8577 0
M  V30 1697 O 154.353 -2.58848 2.44696 0
M  V30 1698 O 153.212 -4.13981 3.56766 0
M  V30 1699 H 150.306 -0.649092 0.512454 0
M  V30 1700 H 152.852 -0.735836 1.52917 0
M  V30 1701 H 151.624 -1.98994 3.36923 0
M  V30 1702 H 151.247 -3.2831 2.24272 0
M  V30 1703 N 152.244 -1.26651 -0.937939 0
M  V30 1704 C 153.474 -1.15006 -1.71631 0
M  V30 1705 C 153.882 0.297026 -1.86854 0
M  V30 1706 O 153.225 1.21493 -1.37786 0
M  V30 1707 C 153.287 -1.74984 -3.14039 0
M  V30 1708 C 152.951 -3.24103 -3.2219 0
M  V30 1709 C 153.948 -4.20877 -3.05219 0
M  V30 1710 C 151.633 -3.64625 -3.45476 0
M  V30 1711 C 153.627 -5.56151 -3.11408 0
M  V30 1712 C 151.314 -5.00032 -3.513 0
M  V30 1713 C 152.312 -5.95604 -3.34282 0
M  V30 1714 O 152 -7.28545 -3.3982 0
M  V30 1715 H 151.732 -0.401183 -0.544085 0
M  V30 1716 H 154.286 -1.67832 -1.18413 0
M  V30 1717 H 152.516 -1.16624 -3.68695 0
M  V30 1718 H 154.205 -1.58199 -3.73802 0
M  V30 1719 H 154.971 -3.90908 -2.87081 0
M  V30 1720 H 150.85 -2.90718 -3.57777 0
M  V30 1721 H 154.394 -6.30727 -2.98043 0
M  V30 1722 H 150.291 -5.29659 -3.68959 0
M  V30 1723 H 151.059 -7.3686 -3.56343 0
M  V30 1724 N 153.722 1.14298 -1.08507 0
M  V30 1725 C 154.655 2.18447 -0.660004 0
M  V30 1726 C 155.633 1.59242 0.328749 0
M  V30 1727 O 156.817 1.87062 0.232367 0
M  V30 1728 C 153.944 3.38688 0.0290807 0
M  V30 1729 C 152.99 4.1646 -0.919982 0
M  V30 1730 S 153.823 4.77334 -2.42718 0
M  V30 1731 C 154.979 6.00931 -1.75024 0
M  V30 1732 H 155.212 2.54166 -1.54231 0
M  V30 1733 H 152.745 1.25446 -0.900149 0
M  V30 1734 H 154.703 4.08342 0.420378 0
M  V30 1735 H 153.364 3.01289 0.887895 0
M  V30 1736 H 152.557 5.02529 -0.384751 0
M  V30 1737 H 152.159 3.52414 -1.25223 0
M  V30 1738 H 154.451 6.69017 -1.06877 0
M  V30 1739 H 155.394 6.59044 -2.58971 0
M  V30 1740 H 155.802 5.51089 -1.22317 0
M  V30 1741 N 155.201 0.870884 1.31352 0
M  V30 1742 C 156.148 0.325425 2.28494 0
M  V30 1743 C 157.118 -0.576615 1.5577 0
M  V30 1744 O 158.303 -0.508059 1.83911 0
M  V30 1745 C 155.443 -0.466283 3.41935 0
M  V30 1746 C 154.556 0.463378 4.29508 0
M  V30 1747 C 153.691 -0.342544 5.30094 0
M  V30 1748 C 152.73 0.583486 6.09313 0
M  V30 1749 N 151.867 -0.186244 7.01853 0
M  V30 1750 H 156.707 1.15901 2.74538 0
M  V30 1751 H 154.244 0.58294 1.35056 0
M  V30 1752 H 156.202 -0.941085 4.06447 0
M  V30 1753 H 154.832 -1.26456 2.97 0
M  V30 1754 H 153.884 1.05663 3.65431 0
M  V30 1755 H 155.196 1.1734 4.84802 0
M  V30 1756 H 154.35 -0.879816 6.00287 0
M  V30 1757 H 153.089 -1.08585 4.75458 0
M  V30 1758 H 152.094 1.13251 5.3801 0
M  V30 1759 H 153.319 1.32566 6.66035 0
M  V30 1760 H 151.265 -0.912348 6.49625 0
M  V30 1761 H 151.182 0.464422 7.54572 0
M  V30 1762 H 152.45 -0.704716 7.76308 0
M  V30 1763 N 156.679 -1.44442 0.630414 0
M  V30 1764 C 157.925 -2.02351 0.134816 0
M  V30 1765 C 158.258 -1.4947 -1.23986 0
M  V30 1766 O 157.533 -0.678475 -1.82283 0
M  V30 1767 C 157.816 -3.59898 0.120707 0
M  V30 1768 C 157.669 -4.23063 1.52767 0
M  V30 1769 C 158.988 -4.36585 -0.555127 0
M  V30 1770 H 156.107 -0.73527 0.0504646 0
M  V30 1771 H 158.749 -1.72022 0.806751 0
M  V30 1772 H 156.899 -3.85868 -0.451477 0
M  V30 1773 H 158.571 -4.08202 2.14869 0
M  V30 1774 H 156.814 -3.80586 2.08175 0
M  V30 1775 H 157.485 -5.32071 1.46984 0
M  V30 1776 H 159.961 -4.16044 -0.0685429 0
M  V30 1777 H 158.837 -5.46294 -0.534185 0
M  V30 1778 H 159.098 -4.11138 -1.62535 0
M  V30 1779 N 158.157 -0.370918 -1.53173 0
M  V30 1780 C 159.406 0.218249 -2.00516 0
M  V30 1781 C 159.719 1.49429 -1.26215 0
M  V30 1782 O 160.925 2.16239 -1.64174 0
M  V30 1783 C 159.381 0.43948 -3.57207 0
M  V30 1784 C 158.989 -0.822244 -4.4039 0
M  V30 1785 C 160.733 0.986012 -4.1289 0
M  V30 1786 C 158.64 -0.570304 -5.88644 0
M  V30 1787 H 157.57 0.0853333 -0.749156 0
M  V30 1788 H 160.221 -0.490483 -1.76823 0
M  V30 1789 H 158.603 1.20961 -3.77074 0
M  V30 1790 H 159.777 -1.59557 -4.32294 0
M  V30 1791 H 158.092 -1.29238 -3.95836 0
M  V30 1792 H 160.689 1.18991 -5.21292 0
M  V30 1793 H 161.032 1.94972 -3.6782 0
M  V30 1794 H 161.565 0.27592 -3.96842 0
M  V30 1795 H 158.304 -1.50449 -6.38001 0
M  V30 1796 H 157.824 0.164427 -5.99575 0
M  V30 1797 H 159.503 -0.19784 -6.46697 0
M  V30 1798 N 159.635 1.57281 -0.100228 0
M  V30 1799 C 160.565 2.17328 0.853857 0
M  V30 1800 C 161.546 1.10804 1.2906 0
M  V30 1801 O 162.731 1.38963 1.35657 0
M  V30 1802 C 159.861 2.75772 2.11109 0
M  V30 1803 C 158.815 3.87713 1.81279 0
M  V30 1804 C 158.141 4.32882 3.13874 0
M  V30 1805 C 159.441 5.10677 1.09574 0
M  V30 1806 H 161.135 2.97305 0.353545 0
M  V30 1807 H 158.681 1.43009 0.168612 0
M  V30 1808 H 160.634 3.16433 2.78296 0
M  V30 1809 H 159.358 1.93057 2.63432 0
M  V30 1810 H 158.017 3.476 1.16489 0
M  V30 1811 H 157.665 3.47051 3.64095 0
M  V30 1812 H 157.365 5.08358 2.94696 0
M  V30 1813 H 158.889 4.7618 3.82211 0
M  V30 1814 H 160.303 5.48474 1.66879 0
M  V30 1815 H 158.7 5.91615 1.00557 0
M  V30 1816 H 159.77 4.84835 0.0793299 0
M  V30 1817 N 161.113 -0.173488 1.56642 0
M  V30 1818 C 162.361 -0.888706 1.81512 0
M  V30 1819 C 162.682 -1.82875 0.676872 0
M  V30 1820 O 161.952 -1.93536 -0.303414 0
M  V30 1821 H 160.532 -0.331164 0.669582 0
M  V30 1822 H 163.194 -0.173823 1.94123 0
M  V30 1823 H 162.29 -1.46691 2.75478 0
M  V30 1824 N 162.591 -1.51276 -0.441967 0
M  V30 1825 C 164.007 -1.39349 -0.778083 0
M  V30 1826 C 164.207 -0.472212 -1.95889 0
M  V30 1827 O 163.263 0.0743551 -2.5239 0
M  V30 1828 C 164.576 -2.81292 -1.0628 0
M  V30 1829 C 166.124 -2.9041 -1.16751 0
M  V30 1830 C 166.599 -4.33251 -1.48519 0
M  V30 1831 N 168.09 -4.36336 -1.55453 0
M  V30 1832 C 168.825 -5.43885 -1.81596 0
M  V30 1833 N 168.321 -6.61601 -2.05562 0
M  V30 1834 N 170.114 -5.3136 -1.8334 0
M  V30 1835 H 162.265 -2.09729 0.335774 0
M  V30 1836 H 164.528 -0.943925 0.0878028 0
M  V30 1837 H 164.234 -3.50678 -0.267905 0
M  V30 1838 H 164.108 -3.20334 -1.99163 0
M  V30 1839 H 166.495 -2.21225 -1.95304 0
M  V30 1840 H 166.576 -2.54871 -0.217801 0
M  V30 1841 H 166.22 -5.02984 -0.704958 0
M  V30 1842 H 166.15 -4.66299 -2.44689 0
M  V30 1843 H 168.641 -3.51466 -1.38853 0
M  V30 1844 H 168.954 -7.39361 -2.24867 0
M  V30 1845 H 167.299 -6.64725 -2.02894 0
M  V30 1846 H 170.49 -4.38382 -1.64132 0
M  V30 1847 H 170.663 -6.15258 -2.03377 0
M  V30 1848 N 164.069 0.697108 -1.41344 0
M  V30 1849 C 165.294 1.49096 -1.44171 0
M  V30 1850 C 165.719 1.88038 -0.0481568 0
M  V30 1851 O 165.077 1.54525 0.948243 0
M  V30 1852 C 165.125 2.73088 -2.3549 0
M  V30 1853 O 164.229 3.70514 -1.81088 0
M  V30 1854 H 163.57 0.448801 -0.489361 0
M  V30 1855 H 166.1 0.856992 -1.85787 0
M  V30 1856 H 166.11 3.21413 -2.51312 0
M  V30 1857 H 164.785 2.44081 -3.36745 0
M  V30 1858 H 163.362 3.29441 -1.74708 0
M  V30 1859 N 165.547 1.27147 0.931209 0
M  V30 1860 C 166.824 1.0401 1.65654 0
M  V30 1861 C 167.204 -0.426297 2.06751 0
M  V30 1862 O 166.552 -1.40879 1.79904 0
M  V30 1863 C 166.762 1.99834 2.86125 0
M  V30 1864 C 168.11 2.29007 3.57549 0
M  V30 1865 O 169.134 1.97779 2.96246 0
M  V30 1866 O 167.993 2.82222 4.67989 0
M  V30 1867 H 165.087 0.396239 0.725895 0
M  V30 1868 H 167.633 1.38397 0.982056 0
M  V30 1869 H 166.405 2.98744 2.52721 0
M  V30 1870 H 166.028 1.65987 3.61295 0
M  V30 1871 N 167.025 -1.13721 1.09112 0
M  V30 1872 C 168.436 -1.6648 0.845068 0
M  V30 1873 C 168.787 -1.85911 -0.62701 0
M  V30 1874 O 167.912 -1.57556 -1.48341 0
M  V30 1875 C 168.507 -3.02413 1.52748 0
M  V30 1876 C 167.066 -3.52176 1.32849 0
M  V30 1877 C 166.213 -2.27492 1.58564 0
M  V30 1878 H 169.164 -0.976872 1.25072 0
M  V30 1879 H 169.185 -3.68223 0.958752 0
M  V30 1880 H 168.697 -2.88238 2.59885 0
M  V30 1881 H 166.798 -3.7156 0.278137 0
M  V30 1882 H 166.911 -4.32499 2.0611 0
M  V30 1883 H 165.275 -2.33923 1.00758 0
M  V30 1884 H 166.058 -2.15886 2.66924 0
M  V30 1885 N 168.503 -0.877838 -1.30888 0
M  V30 1886 C 169.45 -0.337538 -2.28318 0
M  V30 1887 C 170.42 0.568346 -1.56074 0
M  V30 1888 O 171.605 0.498298 -1.84178 0
M  V30 1889 C 168.745 0.448142 -3.42178 0
M  V30 1890 C 167.858 -0.48615 -4.29256 0
M  V30 1891 C 166.993 0.314427 -5.30269 0
M  V30 1892 C 166.032 -0.615791 -6.08995 0
M  V30 1893 N 165.169 0.14902 -7.01942 0
M  V30 1894 H 170.009 -1.17356 -2.73919 0
M  V30 1895 H 167.546 -0.590094 -1.34745 0
M  V30 1896 H 169.504 0.919517 -4.06941 0
M  V30 1897 H 168.134 1.24879 -2.97666 0
M  V30 1898 H 167.186 -1.076 -3.64865 0
M  V30 1899 H 168.498 -1.19909 -4.84173 0
M  V30 1900 H 167.652 0.847969 -6.00745 0
M  V30 1901 H 166.391 1.06062 -4.76027 0
M  V30 1902 H 165.396 -1.16102 -5.37401 0
M  V30 1903 H 166.621 -1.36097 -6.65323 0
M  V30 1904 H 164.567 0.877884 -6.50099 0
M  V30 1905 H 164.484 -0.504433 -7.54315 0
M  V30 1906 H 165.752 0.663537 -7.76671 0
M  V30 1907 N 169.982 1.44106 -0.638065 0
M  V30 1908 C 171.207 2.0685 -0.150916 0
M  V30 1909 C 171.632 1.47417 1.16833 0
M  V30 1910 O 170.99 0.578264 1.71831 0
M  V30 1911 C 171.038 3.60555 -0.05708 0
M  V30 1912 O 170.142 4.00465 0.984972 0
M  V30 1913 H 169.483 0.658151 -0.0879399 0
M  V30 1914 H 172.013 1.84865 -0.876707 0
M  V30 1915 H 172.023 4.07789 0.131232 0
M  V30 1916 H 170.698 4.03193 -1.02021 0
M  V30 1917 H 169.275 3.64849 0.770672 0
M  V30 1918 N 171.46 0.379036 1.52974 0
M  V30 1919 C 172.41 -0.477772 2.22938 0
M  V30 1920 C 173.394 -1.03792 1.22948 0
M  V30 1921 O 174.586 -0.965725 1.48333 0
M  V30 1922 C 171.715 -1.60994 3.03209 0
M  V30 1923 C 170.801 -1.06203 4.10587 0
M  V30 1924 N 171.192 -0.238214 5.05239 0
M  V30 1925 C 169.49 -1.33554 4.25534 0
M  V30 1926 C 170.191 0.0633235 5.81666 0
M  V30 1927 N 169.167 -0.537901 5.40932 0
M  V30 1928 H 172.969 0.158295 2.93473 0
M  V30 1929 H 170.483 0.187778 1.61311 0
M  V30 1930 H 172.48 -2.23607 3.5186 0
M  V30 1931 H 171.14 -2.24893 2.34207 0
M  V30 1932 H 172.151 0.123695 5.17752 0
M  V30 1933 H 168.828 -1.97632 3.6776 0
M  V30 1934 H 170.218 0.730161 6.67921 0
M  V30 1935 N 172.938 -1.57226 0.108567 0
M  V30 1936 C 174.186 -1.94448 -0.550853 0
M  V30 1937 C 174.507 -0.992074 -1.67878 0
M  V30 1938 O 173.777 -0.0465 -1.95845 0
M  V30 1939 H 172.357 -0.717897 -0.206479 0
M  V30 1940 H 175.019 -1.94112 0.175062 0
M  V30 1941 H 174.115 -2.97218 -0.952259 0
M  V30 1942 N 174.416 0.165178 -1.56732 0
M  V30 1943 C 175.641 0.900253 -1.86843 0
M  V30 1944 C 176.066 1.74766 -0.695596 0
M  V30 1945 O 175.424 1.77786 0.35522 0
M  V30 1946 C 175.472 1.74777 -3.15413 0
M  V30 1947 O 174.576 2.85007 -2.98068 0
M  V30 1948 H 173.917 0.251832 -0.614391 0
M  V30 1949 H 176.447 0.161468 -2.03962 0
M  V30 1950 H 176.457 2.14646 -3.46974 0
M  V30 1951 H 175.132 1.12537 -4.00385 0
M  V30 1952 H 173.709 2.48676 -2.77875 0
M  V30 1953 N 175.894 1.51508 0.433938 0
M  V30 1954 C 177.124 1.67914 1.20369 0
M  V30 1955 C 177.532 0.377461 1.85397 0
M  V30 1956 O 176.875 -0.654255 1.71654 0
M  V30 1957 C 176.937 2.74045 2.32679 0
M  V30 1958 C 176.601 4.16543 1.87991 0
M  V30 1959 C 177.598 5.01211 1.38145 0
M  V30 1960 C 175.283 4.6266 1.95579 0
M  V30 1961 C 177.277 6.30056 0.964774 0
M  V30 1962 C 174.964 5.91501 1.53523 0
M  V30 1963 C 175.962 6.75027 1.04055 0
M  V30 1964 O 175.65 8.01459 0.625964 0
M  V30 1965 H 175.382 0.566578 0.368735 0
M  V30 1966 H 177.936 1.98709 0.51999 0
M  V30 1967 H 176.166 2.38572 3.04336 0
M  V30 1968 H 177.855 2.79295 2.94532 0
M  V30 1969 H 178.621 4.66783 1.31675 0
M  V30 1970 H 174.5 3.97767 2.33029 0
M  V30 1971 H 178.044 6.95202 0.57796 0
M  V30 1972 H 173.941 6.25442 1.59665 0
M  V30 1973 H 174.709 8.15043 0.751509 0
M  V30 1974 N 177.372 -0.689602 1.41712 0
M  V30 1975 C 178.788 -1.00093 1.24312 0
M  V30 1976 C 178.988 -2.01036 0.136729 0
M  V30 1977 O 178.044 -2.47562 -0.496918 0
M  V30 1978 C 179.357 -1.51985 2.59463 0
M  V30 1979 C 180.905 -1.63838 2.66695 0
M  V30 1980 C 181.38 -2.1913 4.02177 0
M  V30 1981 N 182.871 -2.26483 4.04054 0
M  V30 1982 C 183.606 -2.70306 5.0569 0
M  V30 1983 N 183.102 -3.13691 6.17713 0
M  V30 1984 N 184.895 -2.69923 4.9305 0
M  V30 1985 H 177.046 -0.0210029 2.1239 0
M  V30 1986 H 179.309 -0.0718733 0.945272 0
M  V30 1987 H 179.015 -0.85269 3.41207 0
M  V30 1988 H 178.889 -2.50103 2.82362 0
M  V30 1989 H 181.276 -2.29664 1.85306 0
M  V30 1990 H 181.357 -0.642492 2.476 0
M  V30 1991 H 181.001 -1.53918 4.84016 0
M  V30 1992 H 180.931 -3.19482 4.18615 0
M  V30 1993 H 183.422 -1.95874 3.23174 0
M  V30 1994 H 183.735 -3.45773 6.9113 0
M  V30 1995 H 182.08 -3.11585 6.21241 0
M  V30 1996 H 185.271 -2.35382 4.04614 0
M  V30 1997 H 185.444 -3.03758 5.72394 0
M  V30 1998 N 178.85 -1.27639 -0.924453 0
M  V30 1999 C 180.097 -1.14167 -1.67249 0
M  V30 2000 C 180.425 0.311863 -1.91984 0
M  V30 2001 O 179.68 1.24425 -1.51053 0
M  V30 2002 C 179.979 -1.87407 -3.04325 0
M  V30 2003 C 179.645 -3.37249 -2.99289 0
M  V30 2004 C 178.307 -3.7812 -2.97622 0
M  V30 2005 C 180.659 -4.32845 -2.90336 0
M  V30 2006 C 177.987 -5.12944 -2.8479 0
M  V30 2007 C 180.339 -5.6773 -2.79045 0
M  V30 2008 C 179.003 -6.07889 -2.7573 0
M  V30 2009 H 178.273 -0.417766 -0.612007 0
M  V30 2010 H 180.92 -1.58286 -1.07786 0
M  V30 2011 H 179.225 -1.35805 -3.67511 0
M  V30 2012 H 180.922 -1.74408 -3.61086 0
M  V30 2013 H 177.512 -3.04748 -3.01374 0
M  V30 2014 H 181.696 -4.02239 -2.90719 0
M  V30 2015 H 176.952 -5.432 -2.80612 0
M  V30 2016 H 181.126 -6.41472 -2.71083 0
M  V30 2017 H 178.753 -7.12314 -2.65544 0
M  V30 2018 N 180.328 1.1314 -1.09713 0
M  V30 2019 C 181.258 2.20748 -0.761102 0
M  V30 2020 C 182.239 1.68061 0.262566 0
M  V30 2021 O 183.424 1.93765 0.129977 0
M  V30 2022 C 180.554 3.46812 -0.184054 0
M  V30 2023 C 179.508 4.12606 -1.13757 0
M  V30 2024 C 178.834 5.33031 -0.422083 0
M  V30 2025 C 180.134 4.59603 -2.48118 0
M  V30 2026 H 181.828 2.49113 -1.66082 0
M  V30 2027 H 179.374 1.19734 -0.799987 0
M  V30 2028 H 181.327 4.21353 0.0631215 0
M  V30 2029 H 180.051 3.17851 0.750868 0
M  V30 2030 H 178.71 3.40036 -1.37007 0
M  V30 2031 H 178.358 5.00335 0.517072 0
M  V30 2032 H 178.058 5.77999 -1.05788 0
M  V30 2033 H 179.582 6.10325 -0.183277 0
M  V30 2034 H 180.996 5.25552 -2.29059 0
M  V30 2035 H 179.393 5.15321 -3.07514 0
M  V30 2036 H 180.463 3.73971 -3.08665 0
M  V30 2037 N 181.806 0.884767 1.30421 0
M  V30 2038 C 182.769 0.356277 2.26414 0
M  V30 2039 C 183.769 -0.501124 1.52792 0
M  V30 2040 O 184.959 -0.30831 1.7145 0
M  V30 2041 C 182.091 -0.492316 3.37326 0
M  V30 2042 H 183.284 1.20389 2.74675 0
M  V30 2043 H 180.837 0.661607 1.41607 0
M  V30 2044 H 181.572 -1.36052 2.94381 0
M  V30 2045 H 181.357 0.121832 3.91911 0
M  V30 2046 H 182.847 -0.853871 4.08777 0
M  V30 2047 N 183.284 -1.43765 0.645699 0
M  V30 2048 C 184.695 -1.85193 0.236719 0
M  V30 2049 C 185.046 -1.54045 -1.21509 0
M  V30 2050 O 184.171 -0.985694 -1.92647 0
M  V30 2051 C 184.766 -3.36151 0.422845 0
M  V30 2052 C 183.325 -3.76338 0.0682492 0
M  V30 2053 C 182.472 -2.67538 0.729306 0
M  V30 2054 H 185.423 -1.34025 0.849883 0
M  V30 2055 H 185.444 -3.79032 -0.333904 0
M  V30 2056 H 184.956 -3.5879 1.47958 0
M  V30 2057 H 183.057 -3.59312 -0.986179 0
M  V30 2058 H 183.17 -4.76603 0.488469 0
M  V30 2059 H 181.534 -2.54176 0.163235 0
M  V30 2060 H 182.317 -2.93006 1.78892 0
M  V30 2061 N 184.763 -0.387143 -1.52771 0
M  V30 2062 C 186.009 0.188506 -2.02525 0
M  V30 2063 C 186.364 1.44649 -1.26864 0
M  V30 2064 O 185.657 1.88189 -0.359945 0
M  V30 2065 C 185.851 0.512209 -3.53711 0
M  V30 2066 C 185.68 -0.712855 -4.44014 0
M  V30 2067 C 184.45 -1.23147 -4.90064 0
M  V30 2068 C 186.648 -1.58453 -4.89282 0
M  V30 2069 N 184.63 -2.41431 -5.64433 0
M  V30 2070 C 186.001 -2.61381 -5.6221 0
M  V30 2071 C 188.056 -1.60488 -4.71326 0
M  V30 2072 C 186.759 -3.66227 -6.19088 0
M  V30 2073 C 188.785 -2.6424 -5.29085 0
M  V30 2074 C 188.147 -3.6589 -6.01917 0
M  V30 2075 H 184.246 0.0311236 -0.78138 0
M  V30 2076 H 186.83 -0.536548 -1.87161 0
M  V30 2077 H 185.001 1.20632 -3.69192 0
M  V30 2078 H 186.733 1.07482 -3.90166 0
M  V30 2079 H 183.488 -0.792795 -4.66917 0
M  V30 2080 H 183.912 -3.01274 -6.0627 0
M  V30 2081 H 188.554 -0.83247 -4.14524 0
M  V30 2082 H 186.272 -4.44337 -6.74974 0
M  V30 2083 H 189.858 -2.66695 -5.17074 0
M  V30 2084 H 188.738 -4.44855 -6.45813 0
M  V30 2085 N 186.241 1.57166 -0.116904 0
M  V30 2086 C 187.49 1.94298 0.541407 0
M  V30 2087 C 187.803 1.00236 1.67964 0
M  V30 2088 O 189.009 1.26826 2.40057 0
M  V30 2089 C 187.465 3.45306 1.01449 0
M  V30 2090 C 187.073 4.47899 -0.0951738 0
M  V30 2091 C 188.817 3.91361 1.6443 0
M  V30 2092 C 186.724 5.90083 0.394491 0
M  V30 2093 H 185.654 0.725308 0.206019 0
M  V30 2094 H 188.305 1.82446 -0.196419 0
M  V30 2095 H 186.687 3.52385 1.80667 0
M  V30 2096 H 187.861 4.52486 -0.871374 0
M  V30 2097 H 186.176 4.11583 -0.631505 0
M  V30 2098 H 188.773 4.95004 2.02176 0
M  V30 2099 H 189.116 3.3122 2.52189 0
M  V30 2100 H 189.649 3.87073 0.917559 0
M  V30 2101 H 186.388 6.53974 -0.447004 0
M  V30 2102 H 185.908 5.88921 1.13722 0
M  V30 2103 H 187.587 6.41307 0.856399 0
M  V30 2104 N 187.719 -0.156864 1.56817 0
M  V30 2105 C 188.967 -0.869404 1.82444 0
M  V30 2106 C 189.288 -1.82147 0.69623 0
M  V30 2107 O 188.558 -1.93847 -0.28287 0
M  V30 2108 H 187.138 -0.324043 0.673056 0
M  V30 2109 H 189.8 -0.153224 1.94297 0
M  V30 2110 H 188.896 -1.43761 2.77019 0
M  V30 2111 N 189.197 -1.51736 -0.425897 0
M  V30 2112 C 190.427 -1.68549 -1.19476 0
M  V30 2113 C 190.835 -0.387288 -1.85194 0
M  V30 2114 O 190.178 0.645142 -1.71999 0
M  V30 2115 C 190.24 -2.75275 -2.31223 0
M  V30 2116 C 189.904 -4.17534 -1.8578 0
M  V30 2117 C 190.901 -5.01936 -1.35485 0
M  V30 2118 C 188.586 -4.6369 -1.93123 0
M  V30 2119 C 190.58 -6.30559 -0.931347 0
M  V30 2120 C 188.267 -5.92307 -1.50384 0
M  V30 2121 C 189.265 -6.75569 -1.00473 0
M  V30 2122 O 188.953 -8.0178 -0.583452 0
M  V30 2123 H 188.685 -0.568525 -0.365725 0
M  V30 2124 H 191.239 -1.98982 -0.509444 0
M  V30 2125 H 189.469 -2.40182 -3.03067 0
M  V30 2126 H 191.158 -2.80853 -2.93047 0
M  V30 2127 H 191.924 -4.67475 -1.29197 0
M  V30 2128 H 187.803 -3.98997 -2.30916 0
M  V30 2129 H 191.347 -6.95498 -0.541084 0
M  V30 2130 H 187.244 -6.2628 -1.56346 0
M  V30 2131 H 188.012 -8.1543 -0.708275 0
M  V30 2132 N 190.675 0.682077 -1.42076 0
M  V30 2133 C 191.923 1.4393 -1.41876 0
M  V30 2134 C 192.244 1.94971 -0.0335599 0
M  V30 2135 O 191.514 1.72591 0.926773 0
M  V30 2136 H 190.094 0.534085 -0.522267 0
M  V30 2137 H 192.756 0.806427 -1.77434 0
M  V30 2138 H 191.852 2.29588 -2.11414 0
M  V30 2139 N 192.153 1.28127 0.917671 0
M  V30 2140 C 193.083 1.14248 2.03641 0
M  V30 2141 C 194.064 0.0412748 1.7005 0
M  V30 2142 O 195.249 0.217566 1.92977 0
M  V30 2143 C 192.379 0.799431 3.37974 0
M  V30 2144 C 191.333 1.85497 3.85713 0
M  V30 2145 C 190.659 1.36565 5.16966 0
M  V30 2146 C 191.959 3.26085 4.08002 0
M  V30 2147 H 193.653 2.07835 2.15511 0
M  V30 2148 H 191.199 1.00064 1.03553 0
M  V30 2149 H 193.152 0.689114 4.15727 0
M  V30 2150 H 191.876 -0.172145 3.26146 0
M  V30 2151 H 190.535 1.95437 3.10161 0
M  V30 2152 H 190.183 0.383253 5.01538 0
M  V30 2153 H 189.883 2.07143 5.49878 0
M  V30 2154 H 191.407 1.26848 5.97279 0
M  V30 2155 H 192.821 3.19089 4.76293 0
M  V30 2156 H 191.218 3.94462 4.52238 0
M  V30 2157 H 192.288 3.70394 3.12948 0
M  V30 2158 N 193.631 -1.12557 1.10312 0
M  V30 2159 C 194.561 -2.20341 0.772798 0
M  V30 2160 C 195.542 -1.68198 -0.25365 0
M  V30 2161 O 196.727 -1.93831 -0.119699 0
M  V30 2162 C 193.857 -3.46709 0.202443 0
M  V30 2163 C 192.811 -4.11996 1.15943 0
M  V30 2164 C 192.137 -5.328 0.450345 0
M  V30 2165 C 193.437 -4.5828 2.50552 0
M  V30 2166 H 195.131 -2.48229 1.674 0
M  V30 2167 H 192.677 -1.19308 0.806326 0
M  V30 2168 H 194.63 -4.2138 -0.0407752 0
M  V30 2169 H 193.354 -3.18245 -0.734001 0
M  V30 2170 H 192.013 -3.39305 1.38808 0
M  V30 2171 H 191.661 -5.00602 -0.490531 0
M  V30 2172 H 191.361 -5.7743 1.08851 0
M  V30 2173 H 192.885 -6.10219 0.215642 0
M  V30 2174 H 194.299 -5.2433 2.31843 0
M  V30 2175 H 192.696 -5.13683 3.10242 0
M  V30 2176 H 193.766 -3.72329 3.10643 0
M  V30 2177 N 195.109 -0.891671 -1.2995 0
M  V30 2178 C 196.039 -0.379797 -2.30391 0
M  V30 2179 C 197.02 0.540919 -1.6127 0
M  V30 2180 O 198.205 0.453352 -1.88834 0
M  V30 2181 C 195.335 0.400654 -3.44981 0
M  V30 2182 C 194.289 -0.428905 -4.25846 0
M  V30 2183 C 193.615 0.478557 -5.32554 0
M  V30 2184 C 194.915 -1.67458 -4.94727 0
M  V30 2185 H 196.609 -1.21914 -2.73454 0
M  V30 2186 H 194.155 -0.587675 -1.31462 0
M  V30 2187 H 196.108 0.769434 -4.14316 0
M  V30 2188 H 194.832 1.27371 -3.0074 0
M  V30 2189 H 193.491 -0.779911 -3.58208 0
M  V30 2190 H 193.139 1.34951 -4.84559 0
M  V30 2191 H 192.839 -0.0727433 -5.87555 0
M  V30 2192 H 194.363 0.843705 -6.04743 0
M  V30 2193 H 195.777 -1.376 -5.56542 0
M  V30 2194 H 194.174 -2.16659 -5.59624 0
M  V30 2195 H 195.244 -2.41518 -4.20473 0
M  V30 2196 N 196.587 1.43421 -0.653314 0
M  V30 2197 C 197.517 2.33487 0.0246656 0
M  V30 2198 C 198.498 1.49475 0.811863 0
M  V30 2199 O 199.683 1.78139 0.773322 0
M  V30 2200 C 196.813 3.32841 0.99166 0
M  V30 2201 C 195.767 4.26842 0.314568 0
M  V30 2202 C 195.093 5.16236 1.39302 0
M  V30 2203 C 196.393 5.16243 -0.793095 0
M  V30 2204 H 198.087 2.90427 -0.727481 0
M  V30 2205 H 195.633 1.39649 -0.351287 0
M  V30 2206 H 197.586 3.94747 1.47487 0
M  V30 2207 H 196.31 2.74158 1.77497 0
M  V30 2208 H 194.969 3.663 -0.148199 0
M  V30 2209 H 194.617 4.53891 2.16776 0
M  V30 2210 H 194.317 5.79948 0.945223 0
M  V30 2211 H 195.841 5.81015 1.87759 0
M  V30 2212 H 197.255 5.71958 -0.392039 0
M  V30 2213 H 195.652 5.88676 -1.16536 0
M  V30 2214 H 196.722 4.55927 -1.65103 0
M  V30 2215 N 198.065 0.39524 1.52563 0
M  V30 2216 C 199.013 -0.451859 2.28169 0
M  V30 2217 C 200.007 -1.05792 1.32304 0
M  V30 2218 O 201.213 -0.997718 1.49818 0
M  V30 2219 H 197.588 -0.164481 0.733792 0
M  V30 2220 H 199.559 0.207199 2.9768 0
M  V30 2221 C 198.308 -1.56385 3.10546 0
M  V30 2222 H 197.631 -1.10682 3.84174 0
M  V30 2223 H 199.071 -2.13067 3.66577 0
M  V30 2224 C 197.53 -2.52328 2.23231 0
M  V30 2225 O 198.06 -3.5588 1.86312 0
M  V30 2226 N 196.266 -2.22209 1.87274 0
M  V30 2227 H 195.813 -1.38033 2.17496 0
M  V30 2228 H 195.771 -2.86652 1.29143 0
M  V30 2229 N 199.544 -1.57102 0.125237 0
M  V30 2230 C 200.792 -1.95021 -0.530198 0
M  V30 2231 C 201.113 -1.00982 -1.66816 0
M  V30 2232 O 200.383 -0.0672693 -1.95784 0
M  V30 2233 H 198.963 -0.720046 -0.198853 0
M  V30 2234 H 201.625 -1.93916 0.19564 0
M  V30 2235 H 200.721 -2.98211 -0.920681 0
M  V30 2236 N 201.022 0.148545 -1.56898 0
M  V30 2237 C 201.954 1.20852 -1.9475 0
M  V30 2238 C 202.967 1.39265 -0.843152 0
M  V30 2239 O 204.156 1.38864 -1.12156 0
M  V30 2240 C 201.256 2.57362 -2.20495 0
M  V30 2241 C 200.429 2.59947 -3.51776 0
M  V30 2242 C 199.488 3.77984 -3.6608 0
M  V30 2243 O 198.514 3.62929 -4.38487 0
M  V30 2244 N 199.716 4.95375 -3.02629 0
M  V30 2245 H 202.481 0.886804 -2.86279 0
M  V30 2246 H 200.042 0.338121 -1.5833 0
M  V30 2247 H 202.034 3.34833 -2.27307 0
M  V30 2248 H 200.604 2.81832 -1.35238 0
M  V30 2249 H 199.824 1.68403 -3.56419 0
M  V30 2250 H 201.112 2.58704 -4.38121 0
M  V30 2251 H 200.51 5.10509 -2.43715 0
M  V30 2252 H 199.067 5.70627 -3.15004 0
M  V30 2253 N 202.5 1.5196 0.417844 0
M  V30 2254 C 203.728 1.69426 1.18753 0
M  V30 2255 C 204.143 0.399955 1.84515 0
M  V30 2256 O 203.5 -0.623288 1.71527 0
M  V30 2257 C 203.551 2.82375 2.25714 0
M  V30 2258 O 203.272 4.06793 1.62638 0
M  V30 2259 C 204.773 3.11277 3.15628 0
M  V30 2260 H 201.993 0.568031 0.357186 0
M  V30 2261 H 204.537 1.98475 0.49273 0
M  V30 2262 H 202.692 2.5587 2.90877 0
M  V30 2263 H 203.106 4.69667 2.3348 0
M  V30 2264 H 204.58 3.93843 3.86771 0
M  V30 2265 H 205.057 2.24473 3.77503 0
M  V30 2266 H 205.663 3.39515 2.56144 0
M  V30 2267 N 203.978 -0.674533 1.42435 0
M  V30 2268 C 205.224 -1.43521 1.4413 0
M  V30 2269 C 205.579 -1.92316 0.0567773 0
M  V30 2270 O 204.872 -1.68008 -0.921076 0
M  V30 2271 C 205.066 -2.64767 2.40069 0
M  V30 2272 C 204.895 -2.27836 3.87713 0
M  V30 2273 C 203.665 -2.17183 4.56245 0
M  V30 2274 C 205.863 -1.89466 4.78129 0
M  V30 2275 N 203.845 -1.73358 5.88915 0
M  V30 2276 C 205.216 -1.56561 5.99907 0
M  V30 2277 C 207.271 -1.7646 4.65582 0
M  V30 2278 C 205.974 -1.11957 7.10534 0
M  V30 2279 C 208 -1.3326 5.76191 0
M  V30 2280 C 207.362 -1.0128 6.97081 0
M  V30 2281 H 203.461 -0.521656 0.582579 0
M  V30 2282 H 206.045 -0.778381 1.78464 0
M  V30 2283 H 204.216 -3.28139 2.07796 0
M  V30 2284 H 205.948 -3.3136 2.32342 0
M  V30 2285 H 202.703 -2.3626 4.10461 0
M  V30 2286 H 203.127 -1.53867 6.59283 0
M  V30 2287 H 207.769 -1.99831 3.72595 0
M  V30 2288 H 205.487 -0.873318 8.03367 0
M  V30 2289 H 209.073 -1.23717 5.68494 0
M  V30 2290 H 207.953 -0.683597 7.81215 0
M  V30 2291 N 205.456 -1.28612 -0.910864 0
M  V30 2292 C 206.703 -1.15934 -1.66029 0
M  V30 2293 C 207.031 0.291483 -1.92303 0
M  V30 2294 O 206.286 1.22816 -1.52364 0
M  V30 2295 C 206.585 -1.90624 -3.0232 0
M  V30 2296 C 206.251 -3.40405 -2.95695 0
M  V30 2297 C 204.913 -3.81255 -2.93595 0
M  V30 2298 C 207.265 -4.359 -2.85728 0
M  V30 2299 C 204.593 -5.15936 -2.79334 0
M  V30 2300 C 206.945 -5.70657 -2.73007 0
M  V30 2301 C 205.609 -6.10779 -2.69267 0
M  V30 2302 H 204.879 -0.424234 -0.607541 0
M  V30 2303 H 207.526 -1.5942 -1.06101 0
M  V30 2304 H 205.831 -1.39696 -3.6605 0
M  V30 2305 H 207.528 -1.78228 -3.59215 0
M  V30 2306 H 204.118 -3.07927 -2.98125 0
M  V30 2307 H 208.302 -4.053 -2.86436 0
M  V30 2308 H 203.558 -5.46146 -2.74835 0
M  V30 2309 H 207.732 -6.44311 -2.64264 0
M  V30 2310 H 205.359 -7.1509 -2.57974 0
M  V30 2311 N 206.934 1.1197 -1.10907 0
M  V30 2312 C 207.866 2.17592 -0.720175 0
M  V30 2313 C 208.879 1.60938 0.245495 0
M  V30 2314 O 210.068 1.78476 0.0292245 0
M  V30 2315 C 207.168 3.38873 -0.0427917 0
M  V30 2316 C 206.341 4.25006 -1.03388 0
M  V30 2317 C 205.4 5.24774 -0.387075 0
M  V30 2318 O 204.426 5.59631 -1.03934 0
M  V30 2319 N 205.628 5.74208 0.852407 0
M  V30 2320 H 208.393 2.51567 -1.62893 0
M  V30 2321 H 205.954 1.27439 -0.998543 0
M  V30 2322 H 207.946 4.02703 0.401501 0
M  V30 2323 H 206.516 3.03007 0.768456 0
M  V30 2324 H 205.736 3.57716 -1.65629 0
M  V30 2325 H 207.024 4.79397 -1.70458 0
M  V30 2326 H 206.422 5.48062 1.40161 0
M  V30 2327 H 204.979 6.39901 1.23977 0
M  V30 2328 N 208.412 0.89855 1.29475 0
M  V30 2329 C 209.362 0.346767 2.25348 0
M  V30 2330 C 210.346 -0.532509 1.51833 0
M  V30 2331 O 211.538 -0.374714 1.72988 0
M  V30 2332 C 208.667 -0.425681 3.40651 0
M  V30 2333 C 207.753 0.46845 4.21505 0
M  V30 2334 N 208.144 1.57514 4.80648 0
M  V30 2335 C 206.442 0.26603 4.45206 0
M  V30 2336 C 207.143 2.12889 5.41344 0
M  V30 2337 N 206.119 1.42208 5.24669 0
M  V30 2338 H 209.921 1.19219 2.68634 0
M  V30 2339 H 207.435 0.749473 1.44072 0
M  V30 2340 H 209.432 -0.837716 4.08397 0
M  V30 2341 H 208.092 -1.26838 2.98902 0
M  V30 2342 H 209.103 1.95789 4.79465 0
M  V30 2343 H 205.78 -0.538394 4.14014 0
M  V30 2344 H 207.17 3.05901 5.98226 0
M  V30 2345 N 209.89 -1.43072 0.660911 0
M  V30 2346 C 211.306 -1.56169 0.329173 0
M  V30 2347 C 211.506 -1.64317 -1.16629 0
M  V30 2348 O 210.562 -1.60245 -1.95135 0
M  V30 2349 C 211.875 -2.81873 1.04729 0
M  V30 2350 C 213.423 -2.95627 1.02828 0
M  V30 2351 C 213.898 -4.24174 1.72744 0
M  V30 2352 N 215.389 -4.31055 1.69545 0
M  V30 2353 C 216.124 -5.29304 2.20511 0
M  V30 2354 N 215.62 -6.33786 2.79799 0
M  V30 2355 N 217.413 -5.21008 2.10966 0
M  V30 2356 H 209.564 -1.36027 1.63127 0
M  V30 2357 H 211.827 -0.653823 0.686454 0
M  V30 2358 H 211.533 -2.81942 2.10242 0
M  V30 2359 H 211.407 -3.72338 0.603702 0
M  V30 2360 H 213.794 -2.95094 -0.0184742 0
M  V30 2361 H 213.875 -2.06431 1.51063 0
M  V30 2362 H 213.519 -4.25467 2.7738 0
M  V30 2363 H 213.449 -5.1228 1.2197 0
M  V30 2364 H 215.94 -3.56174 1.26288 0
M  V30 2365 H 216.253 -7.05086 3.16344 0
M  V30 2366 H 214.598 -6.34387 2.83863 0
M  V30 2367 H 217.789 -4.38301 1.64347 0
M  V30 2368 H 217.962 -5.97416 2.50993 0
M  V30 2369 N 211.368 -0.403325 -1.52352 0
M  V30 2370 C 212.784 -0.0539281 -1.59509 0
M  V30 2371 C 212.984 1.43307 -1.41652 0
M  V30 2372 O 212.04 2.19924 -1.24056 0
M  V30 2373 C 213.353 -0.543654 -2.95745 0
M  V30 2374 C 214.901 -0.501125 -3.08962 0
M  V30 2375 C 215.376 -0.967267 -4.47669 0
M  V30 2376 N 216.867 -0.923849 -4.53893 0
M  V30 2377 C 217.602 -1.25578 -5.5948 0
M  V30 2378 N 217.098 -1.65889 -6.72646 0
M  V30 2379 N 218.891 -1.17613 -5.49658 0
M  V30 2380 H 211.042 -1.37123 -1.62206 0
M  V30 2381 H 213.305 -0.56294 -0.76276 0
M  V30 2382 H 213.011 -1.58275 -3.14073 0
M  V30 2383 H 212.885 0.0498042 -3.77167 0
M  V30 2384 H 215.272 0.528909 -2.90321 0
M  V30 2385 H 215.353 -1.13056 -2.2946 0
M  V30 2386 H 214.997 -1.9956 -4.67053 0
M  V30 2387 H 214.927 -0.314698 -5.25659 0
M  V30 2388 H 217.418 -0.627403 -3.72655 0
M  V30 2389 H 217.731 -1.89543 -7.49195 0
M  V30 2390 H 216.076 -1.69787 -6.73942 0
M  V30 2391 H 219.267 -0.860115 -4.6013 0
M  V30 2392 H 219.44 -1.43812 -6.3184 0
M  V30 2393 N 212.846 1.57033 -0.133567 0
M  V30 2394 C 213.779 2.11824 0.848872 0
M  V30 2395 C 214.757 1.03833 1.2513 0
M  V30 2396 O 215.941 1.31579 1.34978 0
M  V30 2397 C 213.068 2.62692 2.138 0
M  V30 2398 C 212.114 3.82705 1.88253 0
M  V30 2399 S 212.947 5.2438 1.08563 0
M  V30 2400 C 214.103 5.78627 2.38624 0
M  V30 2401 H 214.336 2.94824 0.38289 0
M  V30 2402 H 211.869 1.5419 0.0804796 0
M  V30 2403 H 213.827 2.92652 2.87863 0
M  V30 2404 H 212.488 1.79847 2.57515 0
M  V30 2405 H 211.681 4.16496 2.83809 0
M  V30 2406 H 211.283 3.53437 1.22305 0
M  V30 2407 H 213.575 5.8924 3.34369 0
M  V30 2408 H 214.518 6.76443 2.09358 0
M  V30 2409 H 214.926 5.06783 2.48658 0
M  V30 2410 N 214.325 -0.140222 1.56975 0
M  V30 2411 C 215.255 -1.17456 2.01808 0
M  V30 2412 C 216.236 -1.44415 0.898794 0
M  V30 2413 O 217.421 -1.5522 1.16707 0
M  V30 2414 C 214.551 -2.50607 2.40444 0
M  V30 2415 C 213.505 -2.38155 3.55621 0
M  V30 2416 C 212.831 -3.76078 3.80091 0
M  V30 2417 C 214.131 -1.85991 4.88062 0
M  V30 2418 H 215.825 -0.801743 2.88466 0
M  V30 2419 H 213.371 -0.38422 1.38779 0
M  V30 2420 H 215.324 -3.23197 2.7041 0
M  V30 2421 H 214.048 -2.89737 1.50732 0
M  V30 2422 H 212.707 -1.68016 3.25832 0
M  V30 2423 H 212.355 -4.12656 2.87618 0
M  V30 2424 H 212.055 -3.68606 4.57606 0
M  V30 2425 H 213.579 -4.50206 4.12488 0
M  V30 2426 H 214.993 -2.4838 5.16701 0
M  V30 2427 H 213.39 -1.89393 5.6943 0
M  V30 2428 H 214.46 -0.816023 4.77984 0
M  V30 2429 N 215.803 -1.52179 -0.40978 0
M  V30 2430 C 217.031 -1.70054 -1.17853 0
M  V30 2431 C 217.446 -0.409735 -1.843 0
M  V30 2432 O 216.803 0.614183 -1.71855 0
M  V30 2433 C 216.854 -2.83568 -2.24213 0
M  V30 2434 O 216.575 -4.0765 -1.60478 0
M  V30 2435 C 218.076 -3.12947 -3.13973 0
M  V30 2436 H 215.296 -0.569917 -0.354169 0
M  V30 2437 H 217.84 -1.98734 -0.482198 0
M  V30 2438 H 215.995 -2.57409 -2.89516 0
M  V30 2439 H 216.409 -4.70899 -2.30986 0
M  V30 2440 H 217.883 -3.95889 -3.84677 0
M  V30 2441 H 218.36 -2.26472 -3.76307 0
M  V30 2442 H 218.966 -3.40868 -2.5434 0
M  V30 2443 N 217.281 0.66697 -1.42791 0
M  V30 2444 C 218.692 1.2478 -1.38877 0
M  V30 2445 C 219.043 1.96012 -0.0859426 0
M  V30 2446 O 218.168 2.00463 0.815081 0
M  V30 2447 C 218.763 2.26938 -2.51564 0
M  V30 2448 C 217.322 2.80529 -2.50959 0
M  V30 2449 C 216.469 1.54965 -2.29959 0
M  V30 2450 H 219.42 0.459853 -1.51892 0
M  V30 2451 H 219.441 3.08834 -2.22265 0
M  V30 2452 H 218.953 1.75065 -3.46372 0
M  V30 2453 H 217.054 3.36502 -1.59991 0
M  V30 2454 H 217.167 3.29012 -3.48265 0
M  V30 2455 H 215.531 1.81817 -1.78366 0
M  V30 2456 H 216.314 1.05047 -3.26833 0
M  V30 2457 N 218.759 1.29093 0.90403 0
M  V30 2458 C 219.722 1.1386 1.98919 0
M  V30 2459 C 220.722 0.0753457 1.60623 0
M  V30 2460 O 221.912 0.321931 1.71199 0
M  V30 2461 C 219.044 0.740198 3.32767 0
M  V30 2462 H 220.237 2.10246 2.13861 0
M  V30 2463 H 217.79 1.12218 1.08797 0
M  V30 2464 H 218.525 -0.223997 3.23525 0
M  V30 2465 H 218.31 1.50838 3.61926 0
M  V30 2466 H 219.8 0.656546 4.12407 0
M  V30 2467 N 220.237 -1.11381 1.11499 0
M  V30 2468 C 221.484 -1.83132 0.864231 0
M  V30 2469 C 221.812 -1.84683 -0.610114 0
M  V30 2470 O 221.067 -1.29589 -1.46646 0
M  V30 2471 C 221.366 -3.30026 1.37177 0
M  V30 2472 C 221.032 -3.48634 2.85946 0
M  V30 2473 C 219.694 -3.53421 3.26569 0
M  V30 2474 C 222.046 -3.54837 3.81759 0
M  V30 2475 C 219.374 -3.61967 4.61733 0
M  V30 2476 C 221.726 -3.64915 5.1674 0
M  V30 2477 C 220.39 -3.67962 5.5692 0
M  V30 2478 H 219.66 -0.670127 0.316245 0
M  V30 2479 H 222.307 -1.31354 1.3935 0
M  V30 2480 H 220.612 -3.84304 0.762753 0
M  V30 2481 H 222.309 -3.84034 1.15408 0
M  V30 2482 H 218.899 -3.45579 2.53521 0
M  V30 2483 H 223.083 -3.50399 3.51474 0
M  V30 2484 H 218.339 -3.62603 4.92269 0
M  V30 2485 H 222.513 -3.68658 5.90816 0
M  V30 2486 H 220.14 -3.74336 6.61647 0
M  V30 2487 N 221.715 -0.905404 -1.28997 0
M  V30 2488 C 222.665 -0.358713 -2.25161 0
M  V30 2489 C 223.649 0.524449 -1.52113 0
M  V30 2490 O 224.841 0.365534 -1.73184 0
M  V30 2491 C 221.97 0.407609 -3.40872 0
M  V30 2492 C 221.056 -0.490797 -4.21251 0
M  V30 2493 N 221.447 -1.60061 -4.79806 0
M  V30 2494 C 219.745 -0.289636 -4.45059 0
M  V30 2495 C 220.446 -2.15757 -5.40207 0
M  V30 2496 N 219.422 -1.44988 -5.23908 0
M  V30 2497 H 223.224 -1.20642 -2.67998 0
M  V30 2498 H 220.738 -0.757103 -1.43672 0
M  V30 2499 H 222.735 0.816046 -4.08835 0
M  V30 2500 H 221.395 1.25251 -2.9957 0
M  V30 2501 H 222.406 -1.98329 -4.7842 0
M  V30 2502 H 219.083 0.51643 -4.14294 0
M  V30 2503 H 220.473 -3.09069 -5.96595 0
M  V30 2504 N 223.193 1.4272 -0.668489 0
M  V30 2505 C 224.423 2.05668 -0.196063 0
M  V30 2506 C 224.831 1.5028 1.14946 0
M  V30 2507 O 224.174 0.6348 1.72383 0
M  V30 2508 C 224.236 3.59469 -0.0468879 0
M  V30 2509 C 223.9 4.37518 -1.32012 0
M  V30 2510 C 224.897 4.68584 -2.25222 0
M  V30 2511 C 222.582 4.77266 -1.56596 0
M  V30 2512 C 224.576 5.38326 -3.41297 0
M  V30 2513 C 222.263 5.4675 -2.72962 0
M  V30 2514 C 223.261 5.77204 -3.65137 0
M  V30 2515 O 222.949 6.45264 -4.79468 0
M  V30 2516 H 222.681 0.669382 -0.0943599 0
M  V30 2517 H 225.235 1.83954 -0.913788 0
M  V30 2518 H 223.465 3.79817 0.726357 0
M  V30 2519 H 225.154 4.04071 0.384852 0
M  V30 2520 H 225.92 4.38382 -2.07477 0
M  V30 2521 H 221.799 4.52959 -0.857249 0
M  V30 2522 H 225.343 5.62014 -4.13263 0
M  V30 2523 H 221.24 5.76369 -2.90635 0
M  V30 2524 H 222.008 6.63753 -4.78931 0
M  V30 2525 N 224.671 0.411399 1.52136 0
M  V30 2526 C 225.948 -0.222308 1.94333 0
M  V30 2527 C 226.328 -1.6242 1.34844 0
M  V30 2528 O 225.676 -2.22384 0.525145 0
M  V30 2529 C 225.886 -0.226345 3.48265 0
M  V30 2530 C 227.234 -0.444592 4.22266 0
M  V30 2531 O 228.258 -0.305602 3.54887 0
M  V30 2532 O 227.117 -0.718749 5.41753 0
M  V30 2533 H 224.211 -0.143907 0.814383 0
M  V30 2534 H 226.757 0.467506 1.63133 0
M  V30 2535 H 225.529 0.75475 3.83952 0
M  V30 2536 H 225.152 -0.960163 3.85832 0
M  V30 2537 N 226.149 -1.5696 0.141893 0
M  V30 2538 C 227.398 -1.95135 -0.510427 0
M  V30 2539 C 227.711 -1.02896 -1.66348 0
M  V30 2540 O 228.917 -1.30629 -2.38009 0
M  V30 2541 C 227.373 -3.46876 -0.959427 0
M  V30 2542 C 226.981 -4.47691 0.166419 0
M  V30 2543 C 228.725 -3.93927 -1.58183 0
M  V30 2544 C 226.632 -5.90636 -0.300565 0
M  V30 2545 H 225.562 -0.728494 -0.194454 0
M  V30 2546 H 228.213 -1.8211 0.22542 0
M  V30 2547 H 226.595 -3.55215 -1.75038 0
M  V30 2548 H 227.769 -4.51043 0.94325 0
M  V30 2549 H 226.084 -4.10527 0.696905 0
M  V30 2550 H 228.681 -4.98158 -1.94275 0
M  V30 2551 H 229.024 -3.3519 -2.46888 0
M  V30 2552 H 229.557 -3.88484 -0.855863 0
M  V30 2553 H 226.296 -6.5318 0.550989 0
M  V30 2554 H 225.816 -5.90655 -1.04338 0
M  V30 2555 H 227.495 -6.42588 -0.754265 0
M  V30 2556 N 227.627 0.131896 -1.57047 0
M  V30 2557 C 228.557 1.16384 -2.02428 0
M  V30 2558 C 229.538 1.43936 -0.90644 0
M  V30 2559 O 230.723 1.54599 -1.17528 0
M  V30 2560 C 227.853 2.49328 -2.4177 0
M  V30 2561 C 226.807 2.36266 -3.56879 0
M  V30 2562 C 226.133 3.74057 -3.8208 0
M  V30 2563 C 227.433 1.834 -4.89042 0
M  V30 2564 H 229.127 0.786433 -2.88887 0
M  V30 2565 H 226.673 0.376855 -1.38981 0
M  V30 2566 H 228.626 3.21759 -2.7212 0
M  V30 2567 H 227.35 2.88934 -1.52266 0
M  V30 2568 H 226.009 1.66286 -3.26718 0
M  V30 2569 H 225.657 4.11125 -2.89803 0
M  V30 2570 H 225.357 3.66174 -4.59554 0
M  V30 2571 H 226.881 4.48012 -4.1487 0
M  V30 2572 H 228.295 2.45636 -5.18011 0
M  V30 2573 H 226.692 1.8637 -5.70426 0
M  V30 2574 H 227.762 0.790662 -4.7841 0
M  V30 2575 N 229.106 1.52395 0.401703 0
M  V30 2576 C 230.053 1.76268 1.48991 0
M  V30 2577 C 231.023 0.605386 1.54675 0
M  V30 2578 O 232.208 0.843742 1.7113 0
M  V30 2579 C 229.348 1.92592 2.86361 0
M  V30 2580 C 228.461 3.20259 2.89928 0
M  V30 2581 C 227.596 3.26972 4.18644 0
M  V30 2582 C 226.635 4.48812 4.16214 0
M  V30 2583 N 225.772 4.52877 5.36514 0
M  V30 2584 H 230.612 2.6914 1.27935 0
M  V30 2585 H 228.149 1.33355 0.620871 0
M  V30 2586 H 230.107 2.0004 3.66115 0
M  V30 2587 H 228.737 1.03093 3.05895 0
M  V30 2588 H 227.789 3.21945 2.02621 0
M  V30 2589 H 229.101 4.10056 2.83999 0
M  V30 2590 H 228.255 3.33533 5.06794 0
M  V30 2591 H 226.994 2.35126 4.27278 0
M  V30 2592 H 225.999 4.4239 3.26453 0
M  V30 2593 H 227.224 5.41961 4.09213 0
M  V30 2594 H 225.17 3.63917 5.45802 0
M  V30 2595 H 225.087 5.36529 5.32609 0
M  V30 2596 H 226.355 4.63676 6.26597 0
M  V30 2597 N 230.584 -0.659388 1.43143 0
M  V30 2598 C 231.995 -1.24041 1.39537 0
M  V30 2599 C 232.346 -1.95963 0.0963364 0
M  V30 2600 O 231.471 -2.00892 -0.804438 0
M  V30 2601 C 232.066 -2.25601 2.52764 0
M  V30 2602 C 230.625 -2.79195 2.52443 0
M  V30 2603 C 229.772 -1.53743 2.30778 0
M  V30 2604 H 232.723 -0.451792 1.52133 0
M  V30 2605 H 232.744 -3.07651 2.23899 0
M  V30 2606 H 232.256 -1.73226 3.47296 0
M  V30 2607 H 230.357 -3.35649 1.61773 0
M  V30 2608 H 230.47 -3.2716 3.50004 0
M  V30 2609 H 228.834 -1.80869 1.79328 0
M  V30 2610 H 229.617 -1.03312 3.27386 0
M  V30 2611 N 232.062 -1.29571 -0.897171 0
M  V30 2612 C 233.292 -1.20408 -1.67886 0
M  V30 2613 C 233.7 0.237429 -1.87704 0
M  V30 2614 O 233.043 1.17048 -1.41582 0
M  V30 2615 C 233.105 -1.84887 -3.08314 0
M  V30 2616 C 232.769 -3.34189 -3.11716 0
M  V30 2617 C 233.766 -4.30374 -2.91675 0
M  V30 2618 C 231.451 -3.75431 -3.33701 0
M  V30 2619 C 233.445 -5.65776 -2.93557 0
M  V30 2620 C 231.132 -5.10955 -3.35214 0
M  V30 2621 C 232.13 -6.05938 -3.15164 0
M  V30 2622 O 231.818 -7.38987 -3.1647 0
M  V30 2623 H 231.55 -0.418289 -0.531046 0
M  V30 2624 H 234.104 -1.71514 -1.13014 0
M  V30 2625 H 232.334 -1.28295 -3.64798 0
M  V30 2626 H 234.023 -1.70011 -3.6858 0
M  V30 2627 H 234.789 -3.99844 -2.74499 0
M  V30 2628 H 230.668 -3.01953 -3.48347 0
M  V30 2629 H 234.212 -6.39889 -2.77826 0
M  V30 2630 H 230.109 -5.4113 -3.51922 0
M  V30 2631 H 230.877 -7.47823 -3.3272 0
M  V30 2632 N 233.54 1.10788 -1.12088 0
M  V30 2633 C 234.786 1.82942 -0.875226 0
M  V30 2634 C 235.119 1.84779 0.597538 0
M  V30 2635 O 234.394 1.30578 1.44152 0
M  V30 2636 C 234.677 3.29789 -1.44606 0
M  V30 2637 C 234.53 3.36307 -2.98693 0
M  V30 2638 C 235.849 4.26064 -1.10261 0
M  V30 2639 H 232.968 0.664195 -0.319397 0
M  V30 2640 H 235.61 1.29867 -1.38689 0
M  V30 2641 H 233.76 3.75118 -1.01089 0
M  V30 2642 H 235.432 2.99487 -3.50864 0
M  V30 2643 H 233.675 2.76318 -3.34411 0
M  V30 2644 H 234.346 4.39694 -3.33726 0
M  V30 2645 H 236.822 3.88951 -1.4784 0
M  V30 2646 H 235.698 5.27183 -1.52869 0
M  V30 2647 H 235.959 4.42098 -0.0142953 0
M  V30 2648 N 235.018 0.912232 1.28515 0
M  V30 2649 C 236.266 0.543523 1.94654 0
M  V30 2650 C 236.587 -0.9155 1.72173 0
M  V30 2651 O 235.857 -1.64708 1.06058 0
M  V30 2652 H 234.437 0.198017 0.720277 0
M  V30 2653 H 237.099 1.16126 1.56527 0
M  V30 2654 H 236.195 0.736684 3.03281 0
M  V30 2655 N 236.496 -1.42363 0.676048 0
M  V30 2656 C 237.426 -2.33497 0.0124832 0
M  V30 2657 C 238.407 -1.50748 -0.787981 0
M  V30 2658 O 239.592 -1.79346 -0.744884 0
M  V30 2659 C 236.722 -3.34377 -0.938582 0
M  V30 2660 C 235.676 -4.27289 -0.246622 0
M  V30 2661 C 235.002 -5.18386 -1.31071 0
M  V30 2662 C 236.302 -5.14916 0.875125 0
M  V30 2663 H 237.996 -2.89233 0.773593 0
M  V30 2664 H 235.542 -1.39073 0.37346 0
M  V30 2665 H 237.495 -3.97044 -1.41188 0
M  V30 2666 H 236.219 -2.76947 -1.73113 0
M  V30 2667 H 234.878 -3.66018 0.206456 0
M  V30 2668 H 234.526 -4.57282 -2.09528 0
M  V30 2669 H 234.226 -5.81378 -0.852839 0
M  V30 2670 H 235.75 -5.83929 -1.78492 0
M  V30 2671 H 237.164 -5.71262 0.482983 0
M  V30 2672 H 235.561 -5.86747 1.25887 0
M  V30 2673 H 236.631 -4.53242 1.72335 0
M  V30 2674 N 237.974 -0.419461 -1.51915 0
M  V30 2675 C 238.907 0.445751 -2.23804 0
M  V30 2676 C 239.885 1.03951 -1.25031 0
M  V30 2677 O 241.069 1.08541 -1.54114 0
M  V30 2678 C 238.196 1.61964 -2.97465 0
M  V30 2679 C 237.242 1.14828 -4.10751 0
M  V30 2680 S 238.075 0.104938 -5.35397 0
M  V30 2681 C 239.231 1.28391 -6.1259 0
M  V30 2682 H 239.464 -0.164627 -2.96844 0
M  V30 2683 H 236.997 -0.203833 -1.53049 0
M  V30 2684 H 238.955 2.29271 -3.40507 0
M  V30 2685 H 237.616 2.20139 -2.24048 0
M  V30 2686 H 236.809 2.02561 -4.61503 0
M  V30 2687 H 236.411 0.553712 -3.69878 0
M  V30 2688 H 238.703 2.20563 -6.40592 0
M  V30 2689 H 239.646 0.816724 -7.03374 0
M  V30 2690 H 240.054 1.51439 -5.43807 0
M  V30 2691 N 239.452 1.56882 -0.150215 0
M  V30 2692 C 240.415 2.1573 0.774157 0
M  V30 2693 C 241.415 1.0999 1.17298 0
M  V30 2694 O 242.605 1.35613 1.09338 0
M  V30 2695 C 239.737 2.72302 2.05096 0
M  V30 2696 H 240.93 2.98752 0.262201 0
M  V30 2697 H 238.483 1.55985 0.099248 0
M  V30 2698 H 239.218 1.92956 2.6065 0
M  V30 2699 H 239.003 3.49665 1.77416 0
M  V30 2700 H 240.493 3.17632 2.71109 0
M  V30 2701 N 240.93 -0.123565 1.57115 0
M  V30 2702 C 242.207 -0.862196 1.75572 0
M  V30 2703 C 242.587 -1.98279 0.724475 0
M  V30 2704 O 241.935 -2.27102 -0.252407 0
M  V30 2705 C 242.145 -1.38309 3.20424 0
M  V30 2706 C 243.493 -1.83724 3.82793 0
M  V30 2707 O 244.517 -1.47999 3.23998 0
M  V30 2708 O 243.376 -2.49685 4.86127 0
M  V30 2709 H 240.47 -0.409113 0.718718 0
M  V30 2710 H 243.016 -0.107661 1.69358 0
M  V30 2711 H 241.788 -0.578889 3.86994 0
M  V30 2712 H 241.411 -2.20046 3.31158 0
M  V30 2713 N 242.408 -1.52605 -0.393616 0
M  V30 2714 C 243.633 -1.71592 -1.16495 0
M  V30 2715 C 244.058 -0.43133 -1.83088 0
M  V30 2716 O 243.416 0.612523 -1.7064 0
M  V30 2717 C 243.464 -2.86318 -2.19213 0
M  V30 2718 O 242.568 -2.52969 -3.257 0
M  V30 2719 H 241.909 -0.570734 -0.33935 0
M  V30 2720 H 244.439 -1.99377 -0.459324 0
M  V30 2721 H 244.449 -3.1168 -2.63286 0
M  V30 2722 H 243.124 -3.79511 -1.7013 0
M  V30 2723 H 241.701 -2.38332 -2.86797 0
M  V30 2724 N 243.887 0.651787 -1.4349 0
M  V30 2725 C 245.133 1.41376 -1.45398 0
M  V30 2726 C 245.466 1.94041 -0.0784823 0
M  V30 2727 O 244.741 1.72379 0.900878 0
M  V30 2728 C 245.024 2.59414 -2.49752 0
M  V30 2729 C 244.877 2.12232 -3.96582 0
M  V30 2730 C 246.196 3.61626 -2.50827 0
M  V30 2731 H 243.315 0.512719 -0.529422 0
M  V30 2732 H 245.957 0.738796 -1.75048 0
M  V30 2733 H 244.107 3.16997 -2.246 0
M  V30 2734 H 245.779 1.59639 -4.32797 0
M  V30 2735 H 244.022 1.43592 -4.09346 0
M  V30 2736 H 244.693 2.9712 -4.65214 0
M  V30 2737 H 247.169 3.13805 -2.7325 0
M  V30 2738 H 246.045 4.41766 -3.25783 0
M  V30 2739 H 246.306 4.14314 -1.5426 0
M  V30 2740 N 245.365 1.30045 0.890287 0
M  V30 2741 C 246.781 1.08261 1.17268 0
M  V30 2742 C 246.981 -0.160063 2.00863 0
M  V30 2743 O 246.037 -0.855181 2.37577 0
M  V30 2744 C 247.35 2.34323 1.8845 0
M  V30 2745 C 248.898 2.39735 2.01237 0
M  V30 2746 C 249.373 3.65625 2.7583 0
M  V30 2747 N 250.864 3.66402 2.83379 0
M  V30 2748 C 251.599 4.60498 3.41657 0
M  V30 2749 N 251.095 5.64933 4.01026 0
M  V30 2750 N 252.888 4.48051 3.39421 0
M  V30 2751 H 245.039 2.09777 0.332762 0
M  V30 2752 H 247.302 0.92446 0.209948 0
M  V30 2753 H 247.008 3.2498 1.34465 0
M  V30 2754 H 246.882 2.4256 2.88867 0
M  V30 2755 H 249.269 1.4956 2.54393 0
M  V30 2756 H 249.35 2.35476 0.999232 0
M  V30 2757 H 248.994 4.56156 2.23347 0
M  V30 2758 H 248.924 3.67144 3.77509 0
M  V30 2759 H 251.415 2.90896 2.41222 0
M  V30 2760 H 251.728 6.32841 4.43545 0
M  V30 2761 H 250.073 5.68732 3.99461 0
M  V30 2762 H 253.264 3.65649 2.92264 0
M  V30 2763 H 253.437 5.21565 3.84544 0
M  V30 2764 N 246.843 -1.10192 1.12674 0
M  V30 2765 C 248.089 -1.82475 0.884915 0
M  V30 2766 C 248.422 -1.85093 -0.58773 0
M  V30 2767 O 247.697 -1.3134 -1.43457 0
M  V30 2768 C 247.98 -3.29018 1.46353 0
M  V30 2769 C 247.833 -3.34718 3.00473 0
M  V30 2770 C 249.152 -4.25473 1.12519 0
M  V30 2771 H 246.271 -0.662492 0.322915 0
M  V30 2772 H 248.913 -1.2913 1.39375 0
M  V30 2773 H 247.063 -3.74576 1.03077 0
M  V30 2774 H 248.735 -2.97622 3.52447 0
M  V30 2775 H 246.978 -2.74541 3.35872 0
M  V30 2776 H 247.649 -4.37918 3.36053 0
M  V30 2777 H 250.125 -3.88161 1.499 0
M  V30 2778 H 249.001 -5.26365 1.55663 0
M  V30 2779 H 249.262 -4.42084 0.0377407 0
M  V30 2780 N 248.321 -0.919034 -1.28029 0
M  V30 2781 C 249.254 -0.355887 -2.25408 0
M  V30 2782 C 250.232 0.542874 -1.5327 0
M  V30 2783 O 251.416 0.485338 -1.82145 0
M  V30 2784 C 248.543 0.490759 -3.35126 0
M  V30 2785 C 247.589 -0.343358 -4.25116 0
M  V30 2786 S 248.422 -1.75344 -5.05979 0
M  V30 2787 C 249.578 -0.914244 -6.19187 0
M  V30 2788 H 249.811 -1.18123 -2.72826 0
M  V30 2789 H 247.344 -0.720636 -1.36551 0
M  V30 2790 H 249.302 0.973404 -3.98792 0
M  V30 2791 H 247.963 1.29054 -2.86363 0
M  V30 2792 H 247.156 0.304266 -5.03081 0
M  V30 2793 H 246.758 -0.759851 -3.662 0
M  V30 2794 H 249.05 -0.146282 -6.77342 0
M  V30 2795 H 249.993 -1.66661 -6.88208 0
M  V30 2796 H 250.401 -0.460082 -5.62622 0
M  V30 2797 N 249.799 1.42003 -0.683588 0
M  V30 2798 C 250.729 2.33487 -0.024866 0
M  V30 2799 C 251.71 1.51163 0.779975 0
M  V30 2800 O 252.895 1.79739 0.735362 0
M  V30 2801 C 250.025 3.3487 0.920836 0
M  V30 2802 C 248.979 4.27414 0.223958 0
M  V30 2803 C 248.305 5.19074 1.2832 0
M  V30 2804 C 249.605 5.14445 -0.90242 0
M  V30 2805 H 251.299 2.88819 -0.788921 0
M  V30 2806 H 248.845 1.38873 -0.38083 0
M  V30 2807 H 250.798 3.97787 1.39081 0
M  V30 2808 H 249.522 2.77861 1.71642 0
M  V30 2809 H 248.181 3.65904 -0.225864 0
M  V30 2810 H 247.829 4.58387 2.071 0
M  V30 2811 H 247.529 5.81822 0.821995 0
M  V30 2812 H 249.053 5.84867 1.75392 0
M  V30 2813 H 250.467 5.70998 -0.513272 0
M  V30 2814 H 248.864 5.86072 -1.28997 0
M  V30 2815 H 249.934 4.52322 -1.74737 0
M  V30 2816 N 251.277 0.427512 1.51691 0
M  V30 2817 C 252.554 -0.201684 1.94557 0
M  V30 2818 C 252.934 -1.60981 1.36559 0
M  V30 2819 O 252.282 -2.21814 0.548702 0
M  V30 2820 C 252.492 -0.189394 3.48486 0
M  V30 2821 C 253.84 -0.39978 4.22714 0
M  V30 2822 O 254.864 -0.267945 3.55191 0
M  V30 2823 O 253.723 -0.661249 5.42485 0
M  V30 2824 H 250.817 -0.135261 0.815864 0
M  V30 2825 H 253.363 0.484782 1.62628 0
M  V30 2826 H 252.135 0.795431 3.8313 0
M  V30 2827 H 251.758 -0.919187 3.86829 0
M  V30 2828 N 252.755 -1.56801 0.158532 0
M  V30 2829 C 253.702 -2.17337 -0.776729 0
M  V30 2830 C 254.672 -1.1096 -1.23601 0
M  V30 2831 O 255.857 -1.39054 -1.30647 0
M  V30 2832 C 252.997 -2.80822 -2.00582 0
M  V30 2833 C 252.11 -4.01624 -1.59129 0
M  V30 2834 C 251.245 -4.53072 -2.77306 0
M  V30 2835 C 250.284 -5.66314 -2.32282 0
M  V30 2836 N 249.421 -6.12329 -3.43508 0
M  V30 2837 H 254.261 -2.96918 -0.253701 0
M  V30 2838 H 251.798 -1.46661 -0.113504 0
M  V30 2839 H 253.756 -3.15779 -2.72652 0
M  V30 2840 H 252.386 -2.03866 -2.50277 0
M  V30 2841 H 251.438 -3.72571 -0.767806 0
M  V30 2842 H 252.75 -4.83633 -1.2207 0
M  V30 2843 H 251.904 -4.90145 -3.57551 0
M  V30 2844 H 250.643 -3.70095 -3.17617 0
M  V30 2845 H 249.648 -5.28806 -1.5048 0
M  V30 2846 H 250.873 -6.51085 -1.93043 0
M  V30 2847 H 248.819 -5.32284 -3.83418 0
M  V30 2848 H 248.736 -6.89293 -3.105 0
M  V30 2849 H 250.004 -6.5405 -4.24075 0
M  V30 2850 N 254.233 0.115231 -1.57178 0
M  V30 2851 C 255.479 0.818565 -1.86202 0
M  V30 2852 C 255.834 1.77316 -0.746785 0
M  V30 2853 O 255.127 1.89923 0.25291 0
M  V30 2854 C 255.321 1.60324 -3.19423 0
M  V30 2855 C 255.15 0.726138 -4.43799 0
M  V30 2856 C 253.92 0.379535 -5.03873 0
M  V30 2857 C 256.118 0.0420774 -5.14283 0
M  V30 2858 N 254.1 -0.507841 -6.11796 0
M  V30 2859 C 255.471 -0.704152 -6.15988 0
M  V30 2860 C 257.526 -0.0339486 -4.97888 0
M  V30 2861 C 256.229 -1.51927 -7.03072 0
M  V30 2862 C 258.255 -0.835906 -5.85463 0
M  V30 2863 C 257.617 -1.57031 -6.86673 0
M  V30 2864 H 253.716 0.276343 -0.731545 0
M  V30 2865 H 256.3 0.0821032 -1.94527 0
M  V30 2866 H 254.471 2.31072 -3.12186 0
M  V30 2867 H 256.203 2.2522 -3.36241 0
M  V30 2868 H 252.958 0.722634 -4.68054 0
M  V30 2869 H 253.382 -0.94349 -6.70393 0
M  V30 2870 H 258.024 0.519496 -4.19596 0
M  V30 2871 H 255.742 -2.08386 -7.80769 0
M  V30 2872 H 259.328 -0.89714 -5.74841 0
M  V30 2873 H 258.208 -2.18088 -7.53264 0
M  V30 2874 N 255.711 1.52812 0.385517 0
M  V30 2875 C 256.621 1.80766 1.49535 0
M  V30 2876 C 257.637 0.694651 1.59532 0
M  V30 2877 O 258.813 0.982611 1.75803 0
M  V30 2878 C 255.878 1.97381 2.85029 0
M  V30 2879 C 254.939 3.21295 2.84724 0
M  V30 2880 C 254.172 3.37108 4.13756 0
M  V30 2881 O 254.395 2.5765 5.08893 0
M  V30 2882 O 253.329 4.30378 4.20783 0
M  V30 2883 H 257.155 2.75015 1.28842 0
M  V30 2884 H 254.74 1.37946 0.573697 0
M  V30 2885 H 256.622 2.09996 3.65349 0
M  V30 2886 H 255.297 1.06322 3.05741 0
M  V30 2887 H 254.204 3.1412 2.03174 0
M  V30 2888 H 255.537 4.12212 2.68965 0
M  V30 2889 N 257.189 -0.644168 1.43834 0
M  V30 2890 C 258.099 -1.78563 1.52159 0
M  V30 2891 C 259.115 -1.69147 0.408069 0
M  V30 2892 O 260.291 -1.90156 0.663524 0
M  V30 2893 C 257.356 -3.14888 1.45073 0
M  V30 2894 C 256.417 -3.36034 2.6717 0
M  V30 2895 C 255.65 -4.65855 2.60413 0
M  V30 2896 O 255.873 -5.45805 1.65689 0
M  V30 2897 O 254.807 -4.88918 3.5106 0
M  V30 2898 H 258.633 -1.74494 2.48567 0
M  V30 2899 H 256.218 -0.80378 1.25935 0
M  V30 2900 H 258.1 -3.96179 1.43597 0
M  V30 2901 H 256.775 -3.19528 0.518037 0
M  V30 2902 H 255.682 -2.54472 2.74217 0
M  V30 2903 H 257.015 -3.36247 3.59442 0
M  V30 2904 N 258.668 -1.30515 -0.883378 0
M  V30 2905 C 259.598 -1.19607 -2.00541 0
M  V30 2906 C 260.579 -0.086346 -1.69881 0
M  V30 2907 O 261.764 -0.268654 -1.92333 0
M  V30 2908 C 258.894 -0.888758 -3.35736 0
M  V30 2909 C 257.848 -1.95659 -3.8066 0
M  V30 2910 C 257.174 -1.50224 -5.13164 0
M  V30 2911 C 258.474 -3.36788 -3.99213 0
M  V30 2912 H 260.168 -2.13476 -2.09925 0
M  V30 2913 H 257.714 -1.02775 -1.00863 0
M  V30 2914 H 259.667 -0.799094 -4.13754 0
M  V30 2915 H 258.391 0.0856125 -3.26488 0
M  V30 2916 H 257.05 -2.03591 -3.04871 0
M  V30 2917 H 256.698 -0.516092 -5.00345 0
M  V30 2918 H 256.398 -2.2165 -5.44192 0
M  V30 2919 H 257.922 -1.42639 -5.93706 0
M  V30 2920 H 259.336 -3.31605 -4.67665 0
M  V30 2921 H 257.733 -4.06314 -4.41621 0
M  V30 2922 H 258.803 -3.78561 -3.03017 0
M  V30 2923 N 260.146 1.09593 -1.13257 0
M  V30 2924 C 261.076 2.18214 -0.830946 0
M  V30 2925 C 262.057 1.68812 0.208966 0
M  V30 2926 O 263.242 1.9408 0.0682666 0
M  V30 2927 C 260.372 3.46051 -0.294296 0
M  V30 2928 C 259.326 4.08778 -1.26826 0
M  V30 2929 C 258.652 5.31419 -0.591449 0
M  V30 2930 C 259.952 4.51476 -2.62615 0
M  V30 2931 H 261.646 2.43703 -1.73923 0
M  V30 2932 H 259.192 1.17128 -0.837675 0
M  V30 2933 H 261.145 4.2134 -0.0709606 0
M  V30 2934 H 259.869 3.20079 0.649366 0
M  V30 2935 H 258.528 3.35505 -1.47756 0
M  V30 2936 H 258.176 5.01727 0.357633 0
M  V30 2937 H 257.876 5.74341 -1.24123 0
M  V30 2938 H 259.4 6.09433 -0.377355 0
M  V30 2939 H 260.814 5.17999 -2.45663 0
M  V30 2940 H 259.211 5.05277 -3.23752 0
M  V30 2941 H 260.281 3.63962 -3.20406 0
M  V30 2942 N 261.624 0.925811 1.2754 0
M  V30 2943 C 262.872 0.564138 1.94067 0
M  V30 2944 C 263.193 -0.897188 1.73134 0
M  V30 2945 O 262.463 -1.63573 1.07799 0
M  V30 2946 H 261.043 0.205645 0.718136 0
M  V30 2947 H 263.705 1.1778 1.55287 0
M  V30 2948 H 262.801 0.76881 3.02483 0
M  V30 2949 N 263.102 -1.41638 0.69111 0
M  V30 2950 C 264.034 -2.29194 -0.0161523 0
M  V30 2951 C 265.047 -1.44549 -0.748955 0
M  V30 2952 O 266.236 -1.681 -0.6004 0
M  V30 2953 C 263.336 -3.22325 -1.0469 0
M  V30 2954 C 262.509 -4.35706 -0.384621 0
M  V30 2955 C 261.568 -5.09443 -1.31737 0
M  V30 2956 O 260.594 -5.63386 -0.811451 0
M  V30 2957 N 261.796 -5.16487 -2.64993 0
M  V30 2958 H 264.561 -2.90534 0.735523 0
M  V30 2959 H 262.122 -1.52742 0.53679 0
M  V30 2960 H 264.114 -3.68522 -1.67252 0
M  V30 2961 H 262.684 -2.62323 -1.70015 0
M  V30 2962 H 261.904 -3.91948 0.420804 0
M  V30 2963 H 263.192 -5.08743 0.0760765 0
M  V30 2964 H 262.59 -4.741 -3.08619 0
M  V30 2965 H 261.147 -5.66276 -3.22761 0
M  V30 2966 N 264.58 -0.43555 -1.51462 0
M  V30 2967 C 265.857 0.191364 -1.94662 0
M  V30 2968 C 266.237 1.60254 -1.37411 0
M  V30 2969 O 265.585 2.2152 -0.560458 0
M  V30 2970 C 265.795 0.17091 -3.48581 0
M  V30 2971 C 267.143 0.377357 -4.2292 0
M  V30 2972 O 268.167 0.249104 -3.55328 0
M  V30 2973 O 267.026 0.63247 -5.42828 0
M  V30 2974 H 264.12 0.130932 -0.816569 0
M  V30 2975 H 266.666 -0.4934 -1.62369 0
M  V30 2976 H 265.438 -0.815738 -3.82703 0
M  V30 2977 H 265.061 0.898659 -3.87311 0
M  V30 2978 N 266.058 1.56714 -0.166846 0
M  V30 2979 C 267.283 2.01557 0.488833 0
M  V30 2980 C 267.708 1.0463 1.56314 0
M  V30 2981 O 267.066 0.0251304 1.81283 0
M  V30 2982 C 267.114 3.4503 1.04818 0
M  V30 2983 O 266.218 3.51163 2.16236 0
M  V30 2984 H 265.559 0.653516 0.117526 0
M  V30 2985 H 268.089 2.02818 -0.269421 0
M  V30 2986 H 268.099 3.84243 1.37191 0
M  V30 2987 H 266.774 4.15077 0.261572 0
M  V30 2988 H 265.351 3.23807 1.84942 0
M  V30 2989 N 267.536 -0.106894 1.57237 0
M  V30 2990 C 268.947 -0.662723 1.74542 0
M  V30 2991 C 269.298 -1.7971 0.787319 0
M  V30 2992 O 268.423 -2.16368 -0.0369636 0
M  V30 2993 C 269.018 -1.20896 3.16496 0
M  V30 2994 C 267.577 -1.71096 3.35266 0
M  V30 2995 C 266.724 -0.615642 2.7038 0
M  V30 2996 H 269.675 0.119106 1.58252 0
M  V30 2997 H 269.696 -2.07847 3.18716 0
M  V30 2998 H 269.208 -0.383122 3.86204 0
M  V30 2999 H 267.309 -2.56119 2.70618 0
M  V30 3000 H 267.422 -1.81208 4.43509 0
M  V30 3001 H 265.786 -1.05222 2.31949 0
M  V30 3002 H 266.569 0.199419 3.4272 0
M  V30 3003 N 269.014 -1.53014 -0.377408 0
M  V30 3004 C 269.944 -1.81589 -1.46791 0
M  V30 3005 C 270.925 -0.668622 -1.56408 0
M  V30 3006 O 272.11 -0.917337 -1.71168 0
M  V30 3007 C 269.24 -1.99519 -2.8427 0
M  V30 3008 C 268.194 -3.15249 -2.89486 0
M  V30 3009 C 267.52 -3.18451 -4.29527 0
M  V30 3010 C 268.82 -4.54084 -2.58079 0
M  V30 3011 H 270.514 -2.7291 -1.23127 0
M  V30 3012 H 268.06 -1.31319 -0.590883 0
M  V30 3013 H 270.013 -2.18092 -3.60575 0
M  V30 3014 H 268.737 -1.04897 -3.09296 0
M  V30 3015 H 267.396 -2.96477 -2.15631 0
M  V30 3016 H 267.044 -2.2149 -4.5161 0
M  V30 3017 H 266.744 -3.962 -4.33934 0
M  V30 3018 H 268.268 -3.39193 -5.07721 0
M  V30 3019 H 269.682 -4.72899 -3.24098 0
M  V30 3020 H 268.079 -5.33987 -2.7382 0
M  V30 3021 H 269.149 -4.60006 -1.53372 0
M  V30 3022 N 270.492 0.636531 -1.44174 0
M  V30 3023 C 271.402 1.77754 -1.53103 0
M  V30 3024 C 272.418 1.68928 -0.417034 0
M  V30 3025 O 273.594 1.89801 -0.6736 0
M  V30 3026 C 270.659 3.14115 -1.46741 0
M  V30 3027 C 269.72 3.34612 -2.68948 0
M  V30 3028 C 268.953 4.64467 -2.6288 0
M  V30 3029 O 269.176 5.44919 -1.68581 0
M  V30 3030 O 268.11 4.87049 -3.53648 0
M  V30 3031 H 271.936 1.73174 -2.49489 0
M  V30 3032 H 269.521 0.79709 -1.2636 0
M  V30 3033 H 271.403 3.95412 -1.45696 0
M  V30 3034 H 270.078 3.19249 -0.534975 0
M  V30 3035 H 268.985 2.53014 -2.75562 0
M  V30 3036 H 270.318 3.34336 -3.61221 0
M  V30 3037 N 271.97 1.30982 0.876444 0
M  V30 3038 C 273.216 1.20474 1.63138 0
M  V30 3039 C 273.549 -0.238096 1.92735 0
M  V30 3040 O 272.824 -1.1692 1.55435 0
M  V30 3041 C 273.107 2.04244 2.96574 0
M  V30 3042 C 272.96 3.56793 2.73896 0
M  V30 3043 C 274.279 1.88684 3.97601 0
M  V30 3044 H 271.398 0.439001 0.591985 0
M  V30 3045 H 274.04 1.60704 1.01361 0
M  V30 3046 H 272.19 1.70063 3.493 0
M  V30 3047 H 273.862 4.01077 2.27892 0
M  V30 3048 H 272.105 3.80548 2.08245 0
M  V30 3049 H 272.776 4.10706 3.68815 0
M  V30 3050 H 275.252 2.18584 3.54062 0
M  V30 3051 H 274.128 2.4961 4.88862 0
M  V30 3052 H 274.389 0.848343 4.33884 0
M  V30 3053 N 273.449 -1.08991 1.13837 0
M  V30 3054 C 274.696 -1.81258 0.902882 0
M  V30 3055 C 275.024 -1.85936 -0.570803 0
M  V30 3056 O 274.279 -1.3267 -1.43865 0
M  V30 3057 C 274.578 -3.27042 1.44147 0
M  V30 3058 C 274.244 -3.4249 2.93276 0
M  V30 3059 C 272.906 -3.46414 3.33992 0
M  V30 3060 C 275.258 -3.4666 3.892 0
M  V30 3061 C 272.586 -3.52091 4.69307 0
M  V30 3062 C 274.938 -3.53872 5.24364 0
M  V30 3063 C 273.602 -3.56066 5.646 0
M  V30 3064 H 272.872 -0.663268 0.330388 0
M  V30 3065 H 275.519 -1.28368 1.42105 0
M  V30 3066 H 273.824 -3.82599 0.844097 0
M  V30 3067 H 275.521 -3.81499 1.23528 0
M  V30 3068 H 272.111 -3.40124 2.60794 0
M  V30 3069 H 276.295 -3.42865 3.58828 0
M  V30 3070 H 271.551 -3.52079 4.9985 0
M  V30 3071 H 275.725 -3.56043 5.98503 0
M  V30 3072 H 273.352 -3.60218 6.69438 0
M  V30 3073 N 274.927 -0.932562 -1.27047 0
M  V30 3074 C 275.859 -0.392734 -2.2581 0
M  V30 3075 C 276.872 0.479241 -1.55586 0
M  V30 3076 O 278.061 0.291078 -1.76111 0
M  V30 3077 C 275.161 0.455456 -3.35826 0
M  V30 3078 C 274.334 -0.398355 -4.35582 0
M  V30 3079 C 273.393 0.387985 -5.24768 0
M  V30 3080 O 272.419 -0.206003 -5.68827 0
M  V30 3081 N 273.621 1.68664 -5.55457 0
M  V30 3082 H 276.386 -1.24173 -2.72766 0
M  V30 3083 H 273.947 -0.800511 -1.40725 0
M  V30 3084 H 275.939 0.988692 -3.92437 0
M  V30 3085 H 274.509 1.20522 -2.88432 0
M  V30 3086 H 273.729 -1.11286 -3.78165 0
M  V30 3087 H 275.017 -0.981889 -4.99236 0
M  V30 3088 H 274.415 2.19147 -5.21528 0
M  V30 3089 H 272.972 2.1663 -6.14748 0
M  V30 3090 N 276.405 1.4127 -0.698611 0
M  V30 3091 C 277.355 2.27997 -0.0119836 0
M  V30 3092 C 278.339 1.42363 0.749765 0
M  V30 3093 O 279.531 1.65607 0.624758 0
M  V30 3094 C 276.66 3.30702 0.921458 0
M  V30 3095 C 275.746 4.23814 0.155796 0
M  V30 3096 N 276.137 4.98572 -0.852015 0
M  V30 3097 C 274.435 4.44284 0.390836 0
M  V30 3098 C 275.136 5.66744 -1.3106 0
M  V30 3099 N 274.112 5.39867 -0.635944 0
M  V30 3100 H 277.914 2.83232 -0.784649 0
M  V30 3101 H 275.428 1.53518 -0.529711 0
M  V30 3102 H 277.425 3.91661 1.42854 0
M  V30 3103 H 276.085 2.77028 1.69369 0
M  V30 3104 H 277.096 5.03024 -1.23235 0
M  V30 3105 H 273.773 4.01614 1.14071 0
M  V30 3106 H 275.163 6.36672 -2.14707 0
M  V30 3107 N 277.883 0.443576 1.51229 0
M  V30 3108 C 279.129 -0.120975 2.02439 0
M  V30 3109 C 279.462 -1.41815 1.32674 0
M  V30 3110 O 278.737 -1.89373 0.443622 0
M  V30 3111 C 279.02 -0.333291 3.58554 0
M  V30 3112 C 278.873 0.982968 4.38928 0
M  V30 3113 C 280.192 -1.10028 4.26124 0
M  V30 3114 H 277.311 -0.0424923 0.735774 0
M  V30 3115 H 279.953 0.583794 1.80809 0
M  V30 3116 H 278.103 -0.933614 3.77115 0
M  V30 3117 H 279.775 1.61775 4.32003 0
M  V30 3118 H 278.018 1.58611 4.03763 0
M  V30 3119 H 278.689 0.788379 5.46341 0
M  V30 3120 H 281.165 -0.591711 4.11871 0
M  V30 3121 H 280.041 -1.21761 5.35225 0
M  V30 3122 H 280.302 -2.12996 3.87408 0
M  V30 3123 N 279.361 -1.56624 0.175154 0
M  V30 3124 C 280.586 -2.01813 -0.478137 0
M  V30 3125 C 281.011 -1.05457 -1.55757 0
M  V30 3126 O 280.369 -0.0347439 -1.81267 0
M  V30 3127 C 280.417 -3.45581 -1.02987 0
M  V30 3128 O 279.521 -3.52305 -2.14371 0
M  V30 3129 H 278.862 -0.65413 -0.114059 0
M  V30 3130 H 281.392 -2.02673 0.280173 0
M  V30 3131 H 281.402 -3.84965 -1.35151 0
M  V30 3132 H 280.077 -4.1521 -0.239556 0
M  V30 3133 H 278.654 -3.24783 -1.83222 0
M  V30 3134 N 280.839 0.0985539 -1.57292 0
M  V30 3135 C 281.769 1.12064 -2.04851 0
M  V30 3136 C 282.75 1.41981 -0.936767 0
M  V30 3137 O 283.935 1.52071 -1.20781 0
M  V30 3138 C 281.065 2.44144 -2.47004 0
M  V30 3139 C 280.019 2.28643 -3.6181 0
M  V30 3140 C 279.345 3.65869 -3.89929 0
M  V30 3141 C 280.645 1.72986 -4.92822 0
M  V30 3142 H 282.339 0.724979 -2.9049 0
M  V30 3143 H 279.885 0.34729 -1.39749 0
M  V30 3144 H 281.838 3.15914 -2.78884 0
M  V30 3145 H 280.562 2.85639 -1.5836 0
M  V30 3146 H 279.221 1.59318 -3.30172 0
M  V30 3147 H 278.869 4.04885 -2.98458 0
M  V30 3148 H 278.569 3.56344 -4.67218 0
M  V30 3149 H 280.093 4.39112 -4.2428 0
M  V30 3150 H 281.507 2.34593 -5.23105 0
M  V30 3151 H 279.904 1.74229 -5.74251 0
M  V30 3152 H 280.974 0.689007 -4.7998 0
M  V30 3153 N 282.317 1.53212 0.369288 0
M  V30 3154 C 283.25 1.74166 1.4745 0
M  V30 3155 C 284.228 0.589923 1.51521 0
M  V30 3156 O 285.412 0.822078 1.69629 0
M  V30 3157 C 282.539 1.81711 2.8583 0
M  V30 3158 C 281.585 3.03649 2.99499 0
M  V30 3159 S 282.418 4.63242 2.6864 0
M  V30 3160 C 283.574 4.7363 4.09177 0
M  V30 3161 H 283.807 2.67636 1.29454 0
M  V30 3162 H 281.34 1.43754 0.563396 0
M  V30 3163 H 283.298 1.86743 3.65564 0
M  V30 3164 H 281.959 0.89299 3.01139 0
M  V30 3165 H 281.152 3.05526 4.00836 0
M  V30 3166 H 280.754 2.9671 2.27683 0
M  V30 3167 H 283.046 4.53456 5.03372 0
M  V30 3168 H 283.989 5.75682 4.12306 0
M  V30 3169 H 284.397 4.02295 3.96004 0
M  V30 3170 N 283.795 -0.628877 1.44509 0
M  V30 3171 C 285.023 -1.41554 1.50897 0
M  V30 3172 C 285.438 -1.8832 0.134564 0
M  V30 3173 O 284.795 -1.60969 -0.859965 0
M  V30 3174 C 284.846 -2.63435 2.47556 0
M  V30 3175 O 284.567 -2.18619 3.79654 0
M  V30 3176 C 286.068 -3.56537 2.63431 0
M  V30 3177 H 283.288 -0.434044 0.511709 0
M  V30 3178 H 285.832 -0.768895 1.89495 0
M  V30 3179 H 283.987 -3.24187 2.12089 0
M  V30 3180 H 284.401 -2.97652 4.31861 0
M  V30 3181 H 285.875 -4.38657 3.35088 0
M  V30 3182 H 286.352 -4.05493 1.68738 0
M  V30 3183 H 286.958 -3.01653 2.9981 0
M  V30 3184 N 285.273 -1.31445 -0.869486 0
M  V30 3185 C 286.203 -1.21727 -1.99261 0
M  V30 3186 C 287.184 -0.104359 -1.6978 0
M  V30 3187 O 288.369 -0.289038 -1.92037 0
M  V30 3188 C 285.499 -0.924317 -3.34774 0
M  V30 3189 C 284.453 -1.99685 -3.78563 0
M  V30 3190 C 283.779 -1.55658 -5.11541 0
M  V30 3191 C 285.079 -3.41003 -3.95619 0
M  V30 3192 H 286.773 -2.1569 -2.07649 0
M  V30 3193 H 284.319 -1.03839 -0.997675 0
M  V30 3194 H 286.272 -0.842934 -4.12883 0
M  V30 3195 H 284.996 0.0509793 -3.2656 0
M  V30 3196 H 283.655 -2.06813 -3.02694 0
M  V30 3197 H 283.303 -0.569132 -4.9977 0
M  V30 3198 H 283.003 -2.27409 -5.41811 0
M  V30 3199 H 284.527 -1.48928 -5.92159 0
M  V30 3200 H 285.941 -3.36547 -4.64122 0
M  V30 3201 H 284.338 -4.10975 -4.37286 0
M  V30 3202 H 285.408 -3.81754 -2.98985 0
M  V30 3203 N 286.751 1.08385 -1.14413 0
M  V30 3204 C 288.028 1.77429 -0.823297 0
M  V30 3205 C 288.408 1.9974 0.683163 0
M  V30 3206 O 287.756 1.60739 1.62405 0
M  V30 3207 C 287.966 3.09004 -1.62227 0
M  V30 3208 C 289.314 3.83532 -1.82177 0
M  V30 3209 O 290.338 3.18786 -1.58915 0
M  V30 3210 O 289.197 4.99792 -2.21067 0
M  V30 3211 H 286.291 0.769999 -0.301712 0
M  V30 3212 H 288.837 1.14846 -1.24934 0
M  V30 3213 H 287.609 2.88316 -2.64555 0
M  V30 3214 H 287.232 3.79316 -1.19187 0
M  V30 3215 N 288.23 0.939286 1.26551 0
M  V30 3216 C 289.458 0.602536 1.97932 0
M  V30 3217 C 289.873 -0.82206 1.69964 0
M  V30 3218 O 289.23 -1.54789 0.966784 0
M  V30 3219 C 289.281 0.832946 3.51773 0
M  V30 3220 O 289.002 2.20151 3.78768 0
M  V30 3221 C 290.503 0.506483 4.40397 0
M  V30 3222 H 287.723 0.227248 0.631347 0
M  V30 3223 H 290.267 1.25948 1.61113 0
M  V30 3224 H 288.422 0.222644 3.8676 0
M  V30 3225 H 288.836 2.26013 4.73306 0
M  V30 3226 H 290.31 0.718333 5.47306 0
M  V30 3227 H 290.787 -0.558451 4.35635 0
M  V30 3228 H 291.393 1.09543 4.10951 0
M  V30 3229 N 289.708 -1.40897 0.706093 0
M  V30 3230 C 290.957 -2.00284 0.238574 0
M  V30 3231 C 291.27 -1.56604 -1.17194 0
M  V30 3232 O 292.476 -2.08624 -1.73748 0
M  V30 3233 C 290.932 -3.57934 0.375623 0
M  V30 3234 C 290.54 -4.10591 1.79217 0
M  V30 3235 C 292.284 -4.24488 -0.0315857 0
M  V30 3236 C 290.191 -5.60712 1.88032 0
M  V30 3237 H 289.121 -0.749144 0.0854398 0
M  V30 3238 H 291.772 -1.61251 0.875813 0
M  V30 3239 H 290.154 -3.94622 -0.330042 0
M  V30 3240 H 291.328 -3.85301 2.52745 0
M  V30 3241 H 289.643 -3.56601 2.15 0
M  V30 3242 H 292.24 -5.34698 0.0136842 0
M  V30 3243 H 292.583 -4.02261 -1.072 0
M  V30 3244 H 293.116 -3.92873 0.624181 0
M  V30 3245 H 289.855 -5.87781 2.90161 0
M  V30 3246 H 289.375 -5.87896 1.18903 0
M  V30 3247 H 291.054 -6.25658 1.64805 0
M  V30 3248 N 291.186 -0.45159 -1.50991 0
M  V30 3249 C 292.119 0.398179 -2.24699 0
M  V30 3250 C 293.097 1.01276 -1.27208 0
M  V30 3251 O 294.281 1.05247 -1.56382 0
M  V30 3252 C 291.408 1.55618 -3.00833 0
M  V30 3253 C 290.454 1.0609 -4.13095 0
M  V30 3254 S 291.287 -0.00865136 -5.35499 0
M  V30 3255 C 292.443 1.15369 -6.15175 0
M  V30 3256 H 292.676 -0.227555 -2.96428 0
M  V30 3257 H 290.209 -0.236251 -1.52582 0
M  V30 3258 H 292.167 2.21997 -3.45293 0
M  V30 3259 H 290.828 2.15337 -2.28667 0
M  V30 3260 H 290.021 1.92726 -4.65696 0
M  V30 3261 H 289.623 0.47513 -3.7097 0
M  V30 3262 H 291.915 2.06925 -6.45126 0
M  V30 3263 H 292.858 0.667344 -7.04948 0
M  V30 3264 H 293.266 1.3987 -5.46897 0
M  V30 3265 N 292.664 1.56529 -0.183458 0
M  V30 3266 C 293.611 2.18546 0.742055 0
M  V30 3267 C 294.581 1.12912 1.2182 0
M  V30 3268 O 295.766 1.41115 1.28418 0
M  V30 3269 C 292.906 2.83977 1.96089 0
M  V30 3270 C 292.019 4.04105 1.52719 0
M  V30 3271 C 291.154 4.57427 2.70063 0
M  V30 3272 C 290.193 5.69938 2.23243 0
M  V30 3273 N 289.33 6.17717 3.33722 0
M  V30 3274 H 294.17 2.97284 0.206432 0
M  V30 3275 H 291.707 1.46823 0.0901571 0
M  V30 3276 H 293.665 3.20077 2.67594 0
M  V30 3277 H 292.295 2.07822 2.47002 0
M  V30 3278 H 291.347 3.73745 0.708436 0
M  V30 3279 H 292.659 4.85513 1.1436 0
M  V30 3280 H 291.813 4.95772 3.49708 0
M  V30 3281 H 290.552 3.75101 3.11689 0
M  V30 3282 H 289.557 5.31133 1.42048 0
M  V30 3283 H 290.782 6.54073 1.82661 0
M  V30 3284 H 288.728 5.38317 3.74902 0
M  V30 3285 H 288.645 6.94146 2.99495 0
M  V30 3286 H 289.913 6.60713 4.13616 0
M  V30 3287 N 294.142 -0.090211 1.57342 0
M  V30 3288 C 295.382 -0.798365 1.88163 0
M  V30 3289 C 295.746 -1.75662 0.775046 0
M  V30 3290 O 296.947 -2.50849 0.965816 0
M  V30 3291 C 295.218 -1.50376 3.24225 0
M  V30 3292 S 296.777 -2.24952 3.76752 0
M  V30 3293 H 293.595 -0.265883 0.659414 0
M  V30 3294 H 296.197 -0.055264 1.95422 0
M  V30 3295 H 294.901 -0.792286 4.0268 0
M  V30 3296 H 294.432 -2.28666 3.20118 0
M  V30 3297 H 296.447 -3.51173 3.5056 0
M  V30 3298 N 295.62 -1.53406 -0.361157 0
M  V30 3299 C 296.583 -1.79479 -1.42548 0
M  V30 3300 C 297.583 -0.665327 -1.4639 0
M  V30 3301 O 298.773 -0.933549 -1.47073 0
M  V30 3302 C 295.905 -1.92087 -2.8163 0
M  V30 3303 H 297.098 -2.74538 -1.20701 0
M  V30 3304 H 294.651 -1.4455 -0.594546 0
M  V30 3305 H 295.386 -0.991099 -3.08784 0
M  V30 3306 H 295.171 -2.74241 -2.80239 0
M  V30 3307 H 296.661 -2.13836 -3.58697 0
M  V30 3308 N 297.098 0.621204 -1.44841 0
M  V30 3309 C 298.345 1.38055 -1.48145 0
M  V30 3310 C 298.673 1.94143 -0.117867 0
M  V30 3311 O 297.928 1.74713 0.881694 0
M  V30 3312 C 298.227 2.55675 -2.4973 0
M  V30 3313 C 297.893 2.17817 -3.94799 0
M  V30 3314 C 296.555 2.07205 -4.34303 0
M  V30 3315 C 298.907 1.88065 -4.86087 0
M  V30 3316 C 296.235 1.65045 -5.63007 0
M  V30 3317 C 298.587 1.47394 -6.15189 0
M  V30 3318 C 297.251 1.35331 -6.53637 0
M  V30 3319 H 296.521 0.505181 -0.542101 0
M  V30 3320 H 299.168 0.703477 -1.78111 0
M  V30 3321 H 297.473 3.2866 -2.13284 0
M  V30 3322 H 299.17 3.13904 -2.4953 0
M  V30 3323 H 295.76 2.26998 -3.63552 0
M  V30 3324 H 299.944 1.95168 -4.56315 0
M  V30 3325 H 295.2 1.54317 -5.91605 0
M  V30 3326 H 299.374 1.23415 -6.85377 0
M  V30 3327 H 297.001 1.02435 -7.53267 0
M  V30 3328 N 298.576 1.31904 0.862503 0
M  V30 3329 C 299.801 1.25135 1.65397 0
M  V30 3330 C 300.226 -0.179 1.87246 0
M  V30 3331 O 299.584 -1.1277 1.4196 0
M  V30 3332 C 299.632 2.00832 2.99498 0
M  V30 3333 O 298.736 1.35075 3.89652 0
M  V30 3334 H 298.077 0.431655 0.504549 0
M  V30 3335 H 300.607 1.74094 1.07483 0
M  V30 3336 H 300.617 2.10709 3.49379 0
M  V30 3337 H 299.292 3.04847 2.82916 0
M  V30 3338 H 297.869 1.33696 3.48109 0
M  V30 3339 N 300.054 -1.07777 1.14986 0
M  V30 3340 C 301.004 -2.13082 0.811181 0
M  V30 3341 C 301.988 -1.59619 -0.202597 0
M  V30 3342 O 303.18 -1.77 -0.00398275 0
M  V30 3343 C 300.309 -3.42009 0.297439 0
M  V30 3344 C 299.395 -4.02337 1.34112 0
M  V30 3345 N 299.786 -4.36982 2.54716 0
M  V30 3346 C 298.084 -4.29752 1.19285 0
M  V30 3347 C 298.785 -4.84729 3.21578 0
M  V30 3348 N 297.761 -4.83233 2.48972 0
M  V30 3349 H 301.563 -2.37696 1.72853 0
M  V30 3350 H 299.077 -1.25173 1.03468 0
M  V30 3351 H 301.074 -4.16884 0.0364777 0
M  V30 3352 H 299.734 -3.18841 -0.614022 0
M  V30 3353 H 300.745 -4.27807 2.91894 0
M  V30 3354 H 297.422 -4.16106 0.340926 0
M  V30 3355 H 298.812 -5.20863 4.24442 0
M  V30 3356 N 301.532 -0.945985 -1.26051 0
M  V30 3357 C 302.464 -0.416662 -2.25381 0
M  V30 3358 C 303.477 0.462712 -1.56086 0
M  V30 3359 O 304.666 0.272383 -1.7641 0
M  V30 3360 C 301.766 0.419812 -3.3629 0
M  V30 3361 C 300.939 -0.444531 -4.35135 0
M  V30 3362 C 299.998 0.332305 -5.2515 0
M  V30 3363 O 299.024 -0.266324 -5.68577 0
M  V30 3364 N 300.226 1.62763 -5.57215 0
M  V30 3365 H 302.991 -1.27059 -2.71433 0
M  V30 3366 H 300.552 -0.815392 -1.39868 0
M  V30 3367 H 302.544 0.947013 -3.93464 0
M  V30 3368 H 301.114 1.17456 -2.89694 0
M  V30 3369 H 300.334 -1.15291 -3.76964 0
M  V30 3370 H 301.622 -1.03478 -4.98166 0
M  V30 3371 H 301.02 2.13603 -5.23823 0
M  V30 3372 H 299.577 2.10097 -6.17011 0
M  V30 3373 N 303.011 1.40521 -0.713556 0
M  V30 3374 C 304.259 2.00527 -0.251692 0
M  V30 3375 C 304.58 1.56857 1.15848 0
M  V30 3376 O 303.85 0.807127 1.785 0
M  V30 3377 H 302.43 0.741551 -0.0900646 0
M  V30 3378 H 305.092 1.71887 -0.918733 0
M  V30 3379 H 304.188 3.10813 -0.283192 0
M  V30 3380 N 304.489 0.459591 1.5075 0
M  V30 3381 C 305.714 -0.0996819 2.0716 0
M  V30 3382 C 306.139 -1.33761 1.32249 0
M  V30 3383 O 305.497 -1.77551 0.366786 0
M  V30 3384 C 305.545 -0.378226 3.58611 0
M  V30 3385 O 304.649 -1.46081 3.85661 0
M  V30 3386 H 303.99 0.00791392 0.663953 0
M  V30 3387 H 306.52 0.647329 1.9409 0
M  V30 3388 H 306.53 -0.622135 4.03229 0
M  V30 3389 H 305.205 0.526439 4.12555 0
M  V30 3390 H 303.782 -1.20511 3.5289 0
M  V30 3391 N 305.967 -1.56429 0.191757 0
M  V30 3392 C 307.216 -1.9666 -0.448088 0
M  V30 3393 C 307.529 -1.08136 -1.62991 0
M  V30 3394 O 308.735 -1.38135 -2.33733 0
M  V30 3395 C 307.191 -3.49753 -0.848585 0
M  V30 3396 C 306.799 -4.46935 0.308764 0
M  V30 3397 C 308.543 -3.9876 -1.4557 0
M  V30 3398 C 306.45 -5.91293 -0.112506 0
M  V30 3399 H 305.38 -0.734312 -0.171179 0
M  V30 3400 H 308.031 -1.81301 0.283242 0
M  V30 3401 H 306.413 -3.60604 -1.63649 0
M  V30 3402 H 307.587 -4.47813 1.08627 0
M  V30 3403 H 305.902 -4.08102 0.827158 0
M  V30 3404 H 308.499 -5.04086 -1.78328 0
M  V30 3405 H 308.842 -3.42875 -2.36099 0
M  V30 3406 H 309.375 -3.9101 -0.731836 0
M  V30 3407 H 306.114 -6.51097 0.758514 0
M  V30 3408 H 305.634 -5.93676 -0.854941 0
M  V30 3409 H 307.313 -6.44663 -0.549448 0
M  V30 3410 N 307.445 0.0818655 -1.57387 0
M  V30 3411 C 308.377 1.12484 -1.997 0
M  V30 3412 C 309.39 1.35564 -0.90146 0
M  V30 3413 O 310.579 1.33982 -1.17945 0
M  V30 3414 C 307.679 2.47778 -2.31213 0
M  V30 3415 C 306.852 2.44793 -3.62485 0
M  V30 3416 C 305.911 3.62117 -3.81782 0
M  V30 3417 O 304.937 3.44005 -4.53486 0
M  V30 3418 N 306.139 4.82094 -3.23367 0
M  V30 3419 H 308.904 0.764585 -2.89783 0
M  V30 3420 H 306.465 0.270664 -1.59621 0
M  V30 3421 H 308.457 3.24891 -2.41304 0
M  V30 3422 H 307.027 2.75843 -1.4707 0
M  V30 3423 H 306.247 1.53134 -3.6324 0
M  V30 3424 H 307.535 2.39889 -4.48699 0
M  V30 3425 H 306.933 4.99713 -2.65148 0
M  V30 3426 H 305.49 5.56753 -3.38923 0
M  V30 3427 N 308.923 1.53595 0.353017 0
M  V30 3428 C 310.169 1.70638 1.09593 0
M  V30 3429 C 310.502 0.463286 1.88593 0
M  V30 3430 O 309.777 -0.539597 1.86865 0
M  V30 3431 C 310.06 2.96406 2.04489 0
M  V30 3432 C 309.913 4.30901 1.29014 0
M  V30 3433 C 311.232 3.17812 3.0444 0
M  V30 3434 H 308.351 0.620913 0.397034 0
M  V30 3435 H 310.993 1.86254 0.375446 0
M  V30 3436 H 309.143 2.83223 2.65927 0
M  V30 3437 H 310.815 4.55917 0.702638 0
M  V30 3438 H 309.058 4.29741 0.592071 0
M  V30 3439 H 309.729 5.1506 1.98537 0
M  V30 3440 H 312.205 3.30263 2.53112 0
M  V30 3441 H 311.081 4.07223 3.6805 0
M  V30 3442 H 311.342 2.33669 3.75301 0
M  V30 3443 N 310.401 -0.613514 1.45168 0
M  V30 3444 C 311.678 -1.37263 1.39349 0
M  V30 3445 C 312.058 -2.11012 0.0610848 0
M  V30 3446 O 311.406 -2.07502 -0.956825 0
M  V30 3447 C 311.616 -2.3244 2.60332 0
M  V30 3448 C 312.964 -2.9523 3.05163 0
M  V30 3449 O 313.988 -2.42762 2.60663 0
M  V30 3450 O 312.847 -3.90454 3.82372 0
M  V30 3451 H 309.941 -0.615188 0.552696 0
M  V30 3452 H 312.487 -0.637097 1.57287 0
M  V30 3453 H 311.259 -1.77164 3.48896 0
M  V30 3454 H 310.882 -3.13383 2.44698 0
M  V30 3455 N 311.879 -1.3236 -0.855495 0
M  V30 3456 C 313.295 -1.11332 -1.14356 0
M  V30 3457 C 313.495 0.106751 -2.01217 0
M  V30 3458 O 312.551 0.791891 -2.39761 0
M  V30 3459 C 313.864 -2.39237 -1.82171 0
M  V30 3460 C 315.412 -2.44986 -1.9481 0
M  V30 3461 C 315.887 -3.7281 -2.66039 0
M  V30 3462 N 317.378 -3.73787 -2.73565 0
M  V30 3463 C 318.113 -4.69394 -3.29327 0
M  V30 3464 N 317.609 -5.75367 -3.85907 0
M  V30 3465 N 319.402 -4.56893 -3.27423 0
M  V30 3466 H 311.553 -2.10586 -0.277027 0
M  V30 3467 H 313.816 -0.929701 -0.185364 0
M  V30 3468 H 313.522 -3.28431 -1.25802 0
M  V30 3469 H 313.396 -2.50134 -2.82335 0
M  V30 3470 H 315.783 -1.56252 -2.50338 0
M  V30 3471 H 315.864 -2.38043 -0.936448 0
M  V30 3472 H 315.508 -4.61918 -2.11174 0
M  V30 3473 H 315.438 -3.77024 -3.67642 0
M  V30 3474 H 317.929 -2.97189 -2.33424 0
M  V30 3475 H 318.242 -6.44378 -4.26611 0
M  V30 3476 H 316.587 -5.79123 -3.84242 0
M  V30 3477 H 319.778 -3.73269 -2.82467 0
M  V30 3478 H 319.951 -5.31577 -3.7058 0
M  V30 3479 N 313.357 1.07166 -1.15556 0
M  V30 3480 C 314.305 2.16517 -0.8499 0
M  V30 3481 C 315.299 1.68468 0.177454 0
M  V30 3482 O 316.505 1.79971 0.0323026 0
M  V30 3483 H 312.88 0.706652 -0.25719 0
M  V30 3484 H 314.851 2.39514 -1.77976 0
M  V30 3485 C 313.6 3.45855 -0.357682 0
M  V30 3486 H 312.923 3.83214 -1.13961 0
M  V30 3487 H 314.363 4.23607 -0.182489 0
M  V30 3488 C 312.822 3.24062 0.921152 0
M  V30 3489 O 313.352 3.48813 1.9923 0
M  V30 3490 N 311.558 2.77539 0.86141 0
M  V30 3491 H 311.105 2.57598 -0.0104408 0
M  V30 3492 H 311.063 2.63337 1.71758 0
M  V30 3493 N 314.835 0.952656 1.25548 0
M  V30 3494 C 316.06 0.623025 1.97821 0
M  V30 3495 C 316.485 -0.7976 1.70352 0
M  V30 3496 O 315.843 -1.53905 0.958283 0
M  V30 3497 C 315.891 0.885532 3.49558 0
M  V30 3498 O 314.995 -0.0366641 4.12384 0
M  V30 3499 H 314.336 0.237082 0.620232 0
M  V30 3500 H 316.866 1.27871 1.59719 0
M  V30 3501 H 316.876 0.811009 3.99858 0
M  V30 3502 H 315.551 1.92094 3.6888 0
M  V30 3503 H 314.128 0.0898954 3.72792 0
M  V30 3504 N 316.313 -1.40141 0.720998 0
M  V30 3505 C 317.245 -2.29177 0.0324669 0
M  V30 3506 C 318.258 -1.46105 -0.718126 0
M  V30 3507 O 319.447 -1.69335 -0.564608 0
M  V30 3508 C 316.547 -3.24473 -0.978292 0
M  V30 3509 C 315.72 -4.36423 -0.292115 0
M  V30 3510 C 314.779 -5.12122 -1.20901 0
M  V30 3511 O 313.805 -5.64981 -0.691766 0
M  V30 3512 N 315.007 -5.21992 -2.53978 0
M  V30 3513 H 317.772 -2.88909 0.796984 0
M  V30 3514 H 315.333 -1.51569 0.569068 0
M  V30 3515 H 317.325 -3.71987 -1.59398 0
M  V30 3516 H 315.895 -2.65871 -1.64413 0
M  V30 3517 H 315.115 -3.90967 0.503847 0
M  V30 3518 H 316.403 -5.08467 0.183971 0
M  V30 3519 H 315.801 -4.8054 -2.98493 0
M  V30 3520 H 314.358 -5.72995 -3.10677 0
M  V30 3521 N 317.792 -0.46758 -1.50504 0
M  V30 3522 C 319.017 0.0886943 -2.0721 0
M  V30 3523 C 319.442 1.33057 -1.32956 0
M  V30 3524 O 318.8 1.77354 -0.376197 0
M  V30 3525 C 318.848 0.359202 -3.58806 0
M  V30 3526 O 317.952 1.44034 -3.8643 0
M  V30 3527 H 317.293 -0.0114349 -0.663902 0
M  V30 3528 H 319.823 -0.657613 -1.93744 0
M  V30 3529 H 319.833 0.600742 -4.03553 0
M  V30 3530 H 318.508 -0.548311 -4.1227 0
M  V30 3531 H 317.085 1.18638 -3.53524 0
M  V30 3532 N 319.27 1.56325 -0.20005 0
M  V30 3533 C 320.5 2.01811 0.442232 0
M  V30 3534 C 320.908 1.07932 1.55394 0
M  V30 3535 O 320.251 0.0772685 1.83537 0
M  V30 3536 C 320.313 3.43685 1.05457 0
M  V30 3537 C 319.977 4.56928 0.0809833 0
M  V30 3538 C 320.974 5.15009 -0.711471 0
M  V30 3539 C 318.659 5.0229 -0.0315364 0
M  V30 3540 C 320.653 6.16904 -1.60336 0
M  V30 3541 C 318.34 6.04028 -0.926981 0
M  V30 3542 C 319.338 6.6121 -1.71146 0
M  V30 3543 O 319.026 7.60971 -2.59189 0
M  V30 3544 H 318.758 0.666173 0.114848 0
M  V30 3545 H 321.312 2.03085 -0.307511 0
M  V30 3546 H 319.542 3.39413 1.85299 0
M  V30 3547 H 321.231 3.72948 1.60201 0
M  V30 3548 H 321.997 4.80827 -0.634873 0
M  V30 3549 H 317.876 4.57476 0.568902 0
M  V30 3550 H 321.42 6.61464 -2.21611 0
M  V30 3551 H 317.317 6.37634 -1.00468 0
M  V30 3552 H 318.085 7.7841 -2.53023 0
M  V30 3553 N 320.748 -0.0735177 1.57428 0
M  V30 3554 C 321.997 -0.771809 1.86349 0
M  V30 3555 C 322.31 -1.78828 0.792452 0
M  V30 3556 O 323.516 -2.53602 0.96945 0
M  V30 3557 C 321.972 -1.42358 3.30548 0
M  V30 3558 C 321.58 -0.445761 4.45777 0
M  V30 3559 C 323.324 -2.10434 3.6867 0
M  V30 3560 C 321.231 -1.10335 5.81016 0
M  V30 3561 H 320.161 -0.291999 0.695164 0
M  V30 3562 H 322.812 -0.0250749 1.83483 0
M  V30 3563 H 321.194 -2.21852 3.28021 0
M  V30 3564 H 322.368 0.319239 4.59693 0
M  V30 3565 H 320.683 0.130457 4.16196 0
M  V30 3566 H 323.28 -2.60405 4.67004 0
M  V30 3567 H 323.623 -2.90298 2.98383 0
M  V30 3568 H 324.156 -1.37773 3.7318 0
M  V30 3569 H 320.895 -0.345061 6.54591 0
M  V30 3570 H 320.415 -1.83925 5.70904 0
M  V30 3571 H 322.094 -1.62367 6.26295 0
M  V30 3572 N 322.226 -1.5378 -0.344866 0
M  V30 3573 C 323.158 -1.77988 -1.44406 0
M  V30 3574 C 324.171 -0.661138 -1.48771 0
M  V30 3575 O 325.36 -0.937842 -1.51877 0
M  V30 3576 C 322.46 -1.86345 -2.8307 0
M  V30 3577 C 321.633 -3.16256 -3.0216 0
M  V30 3578 C 320.692 -3.15588 -4.21059 0
M  V30 3579 O 319.718 -3.89314 -4.15239 0
M  V30 3580 N 320.92 -2.37864 -5.29529 0
M  V30 3581 H 323.685 -2.72839 -1.24012 0
M  V30 3582 H 321.246 -1.52814 -0.534737 0
M  V30 3583 H 323.238 -1.83351 -3.60783 0
M  V30 3584 H 321.808 -0.986858 -2.96614 0
M  V30 3585 H 321.028 -3.32385 -2.11929 0
M  V30 3586 H 322.316 -4.0207 -3.11797 0
M  V30 3587 H 321.714 -1.77514 -5.37127 0
M  V30 3588 H 320.271 -2.40668 -6.05741 0
M  V30 3589 N 323.704 0.605807 -1.45491 0
M  V30 3590 C 324.667 1.69836 -1.5391 0
M  V30 3591 C 325.667 1.55261 -0.418424 0
M  V30 3592 O 326.857 1.60296 -0.681965 0
M  V30 3593 C 323.989 3.09117 -1.43734 0
M  V30 3594 H 325.182 1.63738 -2.51257 0
M  V30 3595 H 322.735 0.821689 -1.32959 0
M  V30 3596 H 323.47 3.20791 -0.475788 0
M  V30 3597 H 323.255 3.21104 -2.25021 0
M  V30 3598 H 324.745 3.88696 -1.52661 0
M  V30 3599 N 325.182 1.32811 0.848464 0
M  V30 3600 C 326.431 1.23075 1.59798 0
M  V30 3601 C 326.744 -0.204419 1.94529 0
M  V30 3602 O 327.95 -0.423701 2.68173 0
M  V30 3603 C 326.406 2.15594 2.88179 0
M  V30 3604 C 326.014 3.64228 2.60849 0
M  V30 3605 C 327.758 2.14709 3.66197 0
M  V30 3606 C 325.665 4.48689 3.85269 0
M  V30 3607 H 324.595 0.457091 0.599653 0
M  V30 3608 H 327.246 1.57813 0.936342 0
M  V30 3609 H 325.628 1.73778 3.55833 0
M  V30 3610 H 326.802 4.14424 2.01467 0
M  V30 3611 H 325.117 3.67306 1.96151 0
M  V30 3612 H 327.714 2.75046 4.58534 0
M  V30 3613 H 328.057 1.13966 4.00397 0
M  V30 3614 H 328.59 2.54837 3.05455 0
M  V30 3615 H 325.329 5.5027 3.56207 0
M  V30 3616 H 324.849 4.03241 4.44024 0
M  V30 3617 H 326.528 4.62006 4.52946 0
M  V30 3618 N 326.66 -1.06551 1.16123 0
M  V30 3619 C 327.885 -1.83544 0.965735 0
M  V30 3620 C 328.31 -1.81843 -0.481102 0
M  V30 3621 O 327.668 -1.21732 -1.34354 0
M  V30 3622 C 327.716 -3.28169 1.49457 0
M  V30 3623 O 326.82 -4.0643 0.699157 0
M  V30 3624 H 326.161 -0.568026 0.343864 0
M  V30 3625 H 328.691 -1.34362 1.54299 0
M  V30 3626 H 328.701 -3.78992 1.51092 0
M  V30 3627 H 327.376 -3.28722 2.54784 0
M  V30 3628 H 325.953 -3.65216 0.7531 0
M  V30 3629 N 328.138 -0.959301 -1.25041 0
M  V30 3630 C 329.415 -0.533805 -1.88175 0
M  V30 3631 C 329.795 0.988994 -1.865 0
M  V30 3632 O 329.143 1.85677 -1.33177 0
M  V30 3633 C 329.353 -1.11575 -3.30684 0
M  V30 3634 C 330.701 -1.19548 -4.07423 0
M  V30 3635 O 331.725 -1.06765 -3.39823 0
M  V30 3636 O 330.584 -1.39656 -5.28354 0
M  V30 3637 H 327.678 -0.176772 -0.807887 0
M  V30 3638 H 330.224 -1.05303 -1.33076 0
M  V30 3639 H 328.996 -2.15884 -3.26358 0
M  V30 3640 H 328.619 -0.580059 -3.93346 0
M  V30 3641 N 329.616 1.39756 -0.72842 0
M  V30 3642 C 330.546 2.33289 -0.0991354 0
M  V30 3643 C 331.527 1.53568 0.731489 0
M  V30 3644 O 332.712 1.81987 0.677807 0
M  V30 3645 C 329.842 3.3763 0.813834 0
M  V30 3646 C 328.796 4.2791 0.0878663 0
M  V30 3647 C 328.122 5.22894 1.11741 0
M  V30 3648 C 329.422 5.11314 -1.06563 0
M  V30 3649 H 331.116 2.86163 -0.880408 0
M  V30 3650 H 328.662 1.37591 -0.424819 0
M  V30 3651 H 330.615 4.0201 1.26355 0
M  V30 3652 H 329.339 2.83181 1.62715 0
M  V30 3653 H 327.998 3.65 -0.342159 0
M  V30 3654 H 327.646 4.64744 1.92412 0
M  V30 3655 H 327.346 5.84143 0.636477 0
M  V30 3656 H 328.87 5.90151 1.56697 0
M  V30 3657 H 330.284 5.69076 -0.694671 0
M  V30 3658 H 328.681 5.81671 -1.47577 0
M  V30 3659 H 329.751 4.46534 -1.89038 0
M  V30 3660 N 331.094 0.475555 1.50254 0
M  V30 3661 C 332.042 -0.330276 2.30243 0
M  V30 3662 C 333.036 -0.986306 1.37726 0
M  V30 3663 O 334.242 -0.9169 1.54897 0
M  V30 3664 H 330.617 -0.125353 0.741479 0
M  V30 3665 H 332.588 0.364702 2.96163 0
M  V30 3666 C 331.337 -1.39704 3.18399 0
M  V30 3667 H 330.66 -0.901621 3.89501 0
M  V30 3668 H 332.1 -1.93336 3.77355 0
M  V30 3669 C 330.559 -2.4014 2.36293 0
M  V30 3670 O 331.089 -3.45504 2.04914 0
M  V30 3671 N 329.295 -2.1197 1.98789 0
M  V30 3672 H 328.842 -1.2631 2.24507 0
M  V30 3673 H 328.8 -2.79403 1.44157 0
M  V30 3674 N 332.573 -1.56217 0.208337 0
M  V30 3675 C 333.521 -2.21053 -0.723769 0
M  V30 3676 C 334.515 -1.18578 -1.20978 0
M  V30 3677 O 335.721 -1.36691 -1.17114 0
M  V30 3678 H 332.096 -0.708595 -0.251788 0
M  V30 3679 H 334.067 -2.98006 -0.153365 0
M  V30 3680 C 332.816 -2.89417 -1.927 0
M  V30 3681 H 332.139 -3.68019 -1.56212 0
M  V30 3682 H 333.579 -3.38201 -2.55727 0
M  V30 3683 C 332.038 -1.91166 -2.77411 0
M  V30 3684 O 332.568 -1.42026 -3.75754 0
M  V30 3685 N 330.774 -1.59105 -2.43175 0
M  V30 3686 H 330.321 -1.99259 -1.63259 0
M  V30 3687 H 330.279 -0.936255 -3.00136 0
M  V30 3688 N 334.051 0.0651679 -1.57465 0
M  V30 3689 C 334.981 1.07693 -2.07182 0
M  V30 3690 C 335.962 1.39962 -0.966673 0
M  V30 3691 O 337.147 1.49475 -1.2398 0
M  V30 3692 C 334.277 2.3885 -2.52127 0
M  V30 3693 C 333.231 2.20917 -3.66579 0
M  V30 3694 C 332.557 3.57515 -3.97601 0
M  V30 3695 C 333.857 1.62493 -4.9638 0
M  V30 3696 H 335.551 0.663199 -2.91962 0
M  V30 3697 H 333.097 0.317569 -1.40455 0
M  V30 3698 H 335.05 3.09928 -2.85522 0
M  V30 3699 H 333.774 2.82215 -1.64384 0
M  V30 3700 H 332.433 1.52279 -3.33477 0
M  V30 3701 H 332.081 3.98463 -3.06979 0
M  V30 3702 H 331.781 3.46353 -4.74672 0
M  V30 3703 H 333.305 4.30013 -4.33499 0
M  V30 3704 H 334.719 2.23445 -5.27963 0
M  V30 3705 H 333.116 1.62009 -5.77818 0
M  V30 3706 H 334.186 0.587041 -4.81333 0
M  V30 3707 N 335.529 1.53961 0.336706 0
M  V30 3708 C 336.775 1.7179 1.07777 0
M  V30 3709 C 337.108 0.483263 1.88091 0
M  V30 3710 O 336.383 -0.519747 1.87427 0
M  V30 3711 C 336.666 2.98558 2.01334 0
M  V30 3712 C 336.519 4.32245 1.24437 0
M  V30 3713 C 337.838 3.21023 3.01052 0
M  V30 3714 H 334.957 0.625089 0.390426 0
M  V30 3715 H 337.599 1.86641 0.35567 0
M  V30 3716 H 335.749 2.86028 2.62908 0
M  V30 3717 H 337.421 4.56637 0.654243 0
M  V30 3718 H 335.664 4.30344 0.546458 0
M  V30 3719 H 336.335 5.17137 1.93063 0
M  V30 3720 H 338.811 3.32929 2.49595 0
M  V30 3721 H 337.687 4.11104 3.6371 0
M  V30 3722 H 337.948 2.37637 3.72802 0
M  V30 3723 N 337.007 -0.598083 1.45811 0
M  V30 3724 C 338.254 -1.35681 1.50323 0
M  V30 3725 C 338.582 -1.9393 0.148739 0
M  V30 3726 O 337.837 -1.76094 -0.853787 0
M  V30 3727 C 338.136 -2.51669 2.53766 0
M  V30 3728 C 337.802 -2.11508 3.98215 0
M  V30 3729 C 336.464 -2.0027 4.37545 0
M  V30 3730 C 338.816 -1.80308 4.89018 0
M  V30 3731 C 336.144 -1.56067 5.65562 0
M  V30 3732 C 338.496 -1.37589 6.17456 0
M  V30 3733 C 337.16 -1.24916 6.55708 0
M  V30 3734 H 336.43 -0.496492 0.550069 0
M  V30 3735 H 339.077 -0.675052 1.79207 0
M  V30 3736 H 337.382 -3.25225 2.18486 0
M  V30 3737 H 339.079 -3.09895 2.54492 0
M  V30 3738 H 335.669 -2.21185 3.67117 0
M  V30 3739 H 339.853 -1.87884 4.59362 0
M  V30 3740 H 335.109 -1.44886 5.93985 0
M  V30 3741 H 339.283 -1.12495 6.87254 0
M  V30 3742 H 336.91 -0.904386 7.54801 0
M  V30 3743 N 338.485 -1.33259 -0.841409 0
M  V30 3744 C 339.71 -1.2775 -1.63385 0
M  V30 3745 C 340.135 0.149188 -1.87507 0
M  V30 3746 O 339.493 1.10498 -1.43736 0
M  V30 3747 C 339.541 -2.05571 -2.96265 0
M  V30 3748 O 338.645 -1.41257 -3.87453 0
M  V30 3749 H 337.986 -0.439627 -0.497618 0
M  V30 3750 H 340.516 -1.75782 -1.04699 0
M  V30 3751 H 340.526 -2.16241 -3.45982 0
M  V30 3752 H 339.201 -3.09309 -2.7803 0
M  V30 3753 H 337.778 -1.39217 -3.45938 0
M  V30 3754 N 339.963 1.05934 -1.16686 0
M  V30 3755 C 341.379 1.30938 -0.912542 0
M  V30 3756 C 341.579 1.96803 0.432533 0
M  V30 3757 O 340.635 2.23693 1.17123 0
M  V30 3758 C 341.948 2.18649 -2.06429 0
M  V30 3759 C 343.496 2.32055 -2.10047 0
M  V30 3760 C 343.971 3.23122 -3.24586 0
M  V30 3761 N 345.462 3.30706 -3.24327 0
M  V30 3762 C 346.197 4.01273 -4.09594 0
M  V30 3763 N 345.693 4.74332 -5.04956 0
M  V30 3764 N 347.486 3.97361 -3.97569 0
M  V30 3765 H 339.637 0.615777 -2.03278 0
M  V30 3766 H 341.9 0.334077 -0.887185 0
M  V30 3767 H 341.606 1.77534 -3.03603 0
M  V30 3768 H 341.48 3.19252 -2.00894 0
M  V30 3769 H 343.867 2.72415 -1.13464 0
M  V30 3770 H 343.948 1.31107 -2.19647 0
M  V30 3771 H 343.592 2.83477 -4.2143 0
M  V30 3772 H 343.522 4.24057 -3.12223 0
M  V30 3773 H 346.013 2.78644 -2.55276 0
M  V30 3774 H 346.326 5.25716 -5.6643 0
M  V30 3775 H 344.671 4.733 -5.08933 0
M  V30 3776 H 347.862 3.39405 -3.22369 0
M  V30 3777 H 348.035 4.52089 -4.64241 0
M  V30 3778 N 341.441 0.965919 1.2453 0
M  V30 3779 C 342.687 0.62776 1.92839 0
M  V30 3780 C 343.02 -0.834694 1.75347 0
M  V30 3781 O 342.295 -1.60031 1.10546 0
M  V30 3782 C 342.578 1.00109 3.45905 0
M  V30 3783 C 342.431 2.52011 3.72573 0
M  V30 3784 C 343.75 0.53435 4.36844 0
M  V30 3785 H 340.869 0.229537 0.700344 0
M  V30 3786 H 343.511 1.2046 1.46933 0
M  V30 3787 H 341.661 0.510238 3.85135 0
M  V30 3788 H 343.333 3.08559 3.42912 0
M  V30 3789 H 341.576 2.95287 3.17786 0
M  V30 3790 H 342.247 2.73183 4.79661 0
M  V30 3791 H 344.723 0.955565 4.04979 0
M  V30 3792 H 343.599 0.824152 5.42678 0
M  V30 3793 H 343.86 -0.565589 4.38467 0
M  V30 3794 N 342.919 -1.39368 0.735821 0
M  V30 3795 C 344.335 -1.54204 0.411492 0
M  V30 3796 C 344.535 -1.70268 -1.07755 0
M  V30 3797 O 343.591 -1.70364 -1.86366 0
M  V30 3798 C 344.904 -2.75925 1.19523 0
M  V30 3799 C 346.452 -2.89761 1.18354 0
M  V30 3800 C 346.927 -4.14421 1.94986 0
M  V30 3801 N 348.418 -4.21462 1.92156 0
M  V30 3802 C 349.153 -5.16871 2.48258 0
M  V30 3803 N 348.649 -6.18063 3.13001 0
M  V30 3804 N 350.442 -5.09093 2.38287 0
M  V30 3805 H 342.593 -1.27189 1.70108 0
M  V30 3806 H 344.856 -0.616517 0.720147 0
M  V30 3807 H 344.562 -2.70401 2.24892 0
M  V30 3808 H 344.436 -3.68614 0.800222 0
M  V30 3809 H 346.823 -2.94777 0.137975 0
M  V30 3810 H 346.904 -1.98133 1.61793 0
M  V30 3811 H 346.548 -4.10166 2.99543 0
M  V30 3812 H 346.478 -5.05095 1.48953 0
M  V30 3813 H 348.969 -3.48979 1.44991 0
M  V30 3814 H 349.282 -6.87326 3.53275 0
M  V30 3815 H 347.627 -6.18448 3.17091 0
M  V30 3816 H 350.818 -4.28973 1.8735 0
M  V30 3817 H 350.991 -5.83272 2.82308 0
M  V30 3818 N 344.397 -0.483516 -1.5 0
M  V30 3819 C 345.345 0.318061 -2.30415 0
M  V30 3820 C 346.339 0.978988 -1.38247 0
M  V30 3821 O 347.545 0.908673 -1.55381 0
M  V30 3822 H 343.92 0.121419 -0.742133 0
M  V30 3823 H 345.891 -0.380403 -2.95965 0
M  V30 3824 C 344.64 1.38013 -3.19136 0
M  V30 3825 H 343.963 0.880952 -3.89973 0
M  V30 3826 H 345.403 1.91332 -3.78375 0
M  V30 3827 C 343.862 2.38884 -2.37563 0
M  V30 3828 O 344.392 3.44412 -2.06744 0
M  V30 3829 N 342.598 2.10912 -1.99911 0
M  V30 3830 H 342.145 1.25118 -2.25174 0
M  V30 3831 H 342.103 2.78635 -1.45636 0
M  V30 3832 N 345.875 1.56104 -0.216619 0
M  V30 3833 C 346.838 2.18819 0.681962 0
M  V30 3834 C 347.838 1.14866 1.12528 0
M  V30 3835 O 349.028 1.40128 1.03488 0
M  V30 3836 C 346.16 2.80756 1.93362 0
M  V30 3837 H 347.353 2.99595 0.135254 0
M  V30 3838 H 344.906 1.56265 0.0330003 0
M  V30 3839 H 345.641 2.03837 2.52232 0
M  V30 3840 H 345.426 3.56876 1.62426 0
M  V30 3841 H 346.916 3.28844 2.57393 0
M  V30 3842 N 347.353 -0.0568162 1.57498 0
M  V30 3843 C 348.6 -0.753104 1.87975 0
M  V30 3844 C 348.928 -1.76815 0.81035 0
M  V30 3845 O 348.183 -1.94756 -0.19199 0
M  V30 3846 C 348.482 -1.48359 3.25153 0
M  V30 3847 C 348.148 -0.60713 4.46794 0
M  V30 3848 C 346.81 -0.365642 4.79809 0
M  V30 3849 C 349.162 -0.000305978 5.212 0
M  V30 3850 C 346.49 0.491905 5.84634 0
M  V30 3851 C 348.842 0.844781 6.26934 0
M  V30 3852 C 347.506 1.096 6.58441 0
M  V30 3853 H 346.776 -0.27558 0.687849 0
M  V30 3854 H 349.423 -0.0135173 1.91495 0
M  V30 3855 H 347.728 -2.29577 3.17492 0
M  V30 3856 H 349.425 -2.02739 3.45974 0
M  V30 3857 H 346.015 -0.805487 4.20963 0
M  V30 3858 H 350.199 -0.173961 4.95995 0
M  V30 3859 H 345.455 0.695131 6.07436 0
M  V30 3860 H 349.629 1.32165 6.83744 0
M  V30 3861 H 347.256 1.76224 7.39492 0
M  V30 3862 N 348.832 -1.54138 -0.328536 0
M  V30 3863 C 349.782 -1.79557 -1.4051 0
M  V30 3864 C 350.766 -0.651373 -1.47126 0
M  V30 3865 O 351.958 -0.911226 -1.51742 0
M  V30 3866 C 349.087 -2.02196 -2.77438 0
M  V30 3867 C 348.173 -3.22724 -2.75155 0
M  V30 3868 N 348.564 -4.43881 -2.42494 0
M  V30 3869 C 346.862 -3.24196 -3.06289 0
M  V30 3870 C 347.563 -5.25797 -2.48822 0
M  V30 3871 N 346.539 -4.62862 -2.8506 0
M  V30 3872 H 350.341 -2.70814 -1.1418 0
M  V30 3873 H 347.855 -1.53265 -0.536991 0
M  V30 3874 H 349.852 -2.18546 -3.55026 0
M  V30 3875 H 348.512 -1.12191 -3.04702 0
M  V30 3876 H 349.523 -4.70969 -2.15428 0
M  V30 3877 H 346.2 -2.44208 -3.38627 0
M  V30 3878 H 347.59 -6.32535 -2.26603 0
M  V30 3879 N 350.31 0.590341 -1.46126 0
M  V30 3880 C 351.242 1.71427 -1.52136 0
M  V30 3881 C 352.255 1.57542 -0.41042 0
M  V30 3882 O 353.444 1.65106 -0.678389 0
M  V30 3883 C 350.544 3.09605 -1.37834 0
M  V30 3884 C 349.717 3.49566 -2.62912 0
M  V30 3885 C 348.776 4.66773 -2.42918 0
M  V30 3886 O 347.802 4.73019 -3.1661 0
M  V30 3887 N 349.004 5.61161 -1.4859 0
M  V30 3888 H 351.769 1.66728 -2.49042 0
M  V30 3889 H 349.33 0.776113 -1.42085 0
M  V30 3890 H 351.322 3.85796 -1.22243 0
M  V30 3891 H 349.892 3.08714 -0.491393 0
M  V30 3892 H 349.112 2.63158 -2.93499 0
M  V30 3893 H 350.4 3.73028 -3.46017 0
M  V30 3894 H 349.798 5.58844 -0.87808 0
M  V30 3895 H 348.355 6.36814 -1.38965 0
M  V30 3896 N 351.788 1.33704 0.83433 0
M  V30 3897 C 352.736 1.24323 1.96587 0
M  V30 3898 C 353.73 0.143659 1.6879 0
M  V30 3899 O 354.936 0.30791 1.77347 0
M  V30 3900 H 351.311 0.385925 0.645419 0
M  V30 3901 H 353.282 2.19978 2.01624 0
M  V30 3902 C 352.031 1.00394 3.32891 0
M  V30 3903 H 351.354 1.84231 3.54822 0
M  V30 3904 H 352.794 0.97862 4.12552 0
M  V30 3905 C 351.253 -0.293047 3.35623 0
M  V30 3906 O 351.783 -1.29823 3.80143 0
M  V30 3907 N 349.989 -0.322174 2.88809 0
M  V30 3908 H 349.536 0.496379 2.52772 0
M  V30 3909 H 349.494 -1.18977 2.91019 0
M  V30 3910 N 353.266 -1.05314 1.17247 0
M  V30 3911 C 354.543 -1.75184 0.87005 0
M  V30 3912 C 354.923 -2.01481 -0.629965 0
M  V30 3913 O 354.271 -1.64988 -1.58086 0
M  V30 3914 C 354.481 -3.04594 1.70363 0
M  V30 3915 C 355.829 -3.78567 1.92281 0
M  V30 3916 O 356.853 -3.14461 1.67311 0
M  V30 3917 O 355.712 -4.93755 2.3424 0
M  V30 3918 H 352.806 -0.761729 0.322021 0
M  V30 3919 H 355.352 -1.11493 1.27935 0
M  V30 3920 H 354.124 -2.81201 2.72106 0
M  V30 3921 H 353.747 -3.76022 1.29202 0
M  V30 3922 N 354.744 -0.972509 -1.24016 0
M  V30 3923 C 355.972 -0.654803 -1.96265 0
M  V30 3924 C 356.387 0.776708 -1.72083 0
M  V30 3925 O 355.744 1.52171 -1.00748 0
M  V30 3926 C 355.795 -0.92592 -3.49441 0
M  V30 3927 O 355.516 -2.30116 -3.72798 0
M  V30 3928 C 357.017 -0.623068 -4.38899 0
M  V30 3929 H 354.237 -0.243907 -0.6251 0
M  V30 3930 H 356.781 -1.30175 -1.57717 0
M  V30 3931 H 354.936 -0.325108 -3.86033 0
M  V30 3932 H 355.35 -2.38483 -4.67147 0
M  V30 3933 H 356.824 -0.863189 -5.45209 0
M  V30 3934 H 357.301 0.442754 -4.36963 0
M  V30 3935 H 357.907 -1.204 -4.07902 0
M  V30 3936 N 356.222 1.38976 -0.743202 0
M  V30 3937 C 357.471 1.99581 -0.291592 0
M  V30 3938 C 357.784 1.59656 1.13001 0
M  V30 3939 O 358.99 2.13157 1.68156 0
M  V30 3940 C 357.446 3.56813 -0.470391 0
M  V30 3941 C 357.054 4.05695 -1.90041 0
M  V30 3942 C 358.798 4.24423 -0.0809709 0
M  V30 3943 C 356.705 5.5553 -2.02832 0
M  V30 3944 H 355.635 0.746615 -0.105272 0
M  V30 3945 H 358.286 1.58872 -0.918258 0
M  V30 3946 H 356.668 3.95359 0.225299 0
M  V30 3947 H 357.842 3.78464 -2.62872 0
M  V30 3948 H 356.157 3.50775 -2.24379 0
M  V30 3949 H 358.754 5.34474 -0.155445 0
M  V30 3950 H 359.097 4.04962 0.96497 0
M  V30 3951 H 359.63 3.9108 -0.728124 0
M  V30 3952 H 356.369 5.79881 -3.05643 0
M  V30 3953 H 355.889 5.84537 -1.34448 0
M  V30 3954 H 357.568 6.21069 -1.81335 0
M  V30 3955 N 357.7 0.491464 1.49741 0
M  V30 3956 C 358.93 -0.0534375 2.06531 0
M  V30 3957 C 359.338 -1.32233 1.35318 0
M  V30 3958 O 358.681 -1.78781 0.422243 0
M  V30 3959 C 358.743 -0.387034 3.57411 0
M  V30 3960 C 358.407 0.782764 4.50246 0
M  V30 3961 C 359.404 1.67059 4.92329 0
M  V30 3962 C 357.089 0.978866 4.9267 0
M  V30 3963 C 359.083 2.73874 5.75562 0
M  V30 3964 C 356.77 2.05022 5.75682 0
M  V30 3965 C 357.768 2.92851 6.17031 0
M  V30 3966 O 357.456 3.98138 6.98385 0
M  V30 3967 H 357.188 0.0129324 0.675876 0
M  V30 3968 H 359.742 0.685238 1.93633 0
M  V30 3969 H 357.972 -1.17918 3.68283 0
M  V30 3970 H 359.661 -0.869419 3.96479 0
M  V30 3971 H 360.427 1.53086 4.60206 0
M  V30 3972 H 356.306 0.304646 4.59992 0
M  V30 3973 H 359.85 3.42458 6.07757 0
M  V30 3974 H 355.747 2.18993 6.07217 0
M  V30 3975 H 356.515 3.95374 7.16674 0
M  V30 3976 N 359.178 -1.55987 0.224894 0
M  V30 3977 C 360.403 -2.03232 -0.41369 0
M  V30 3978 C 360.828 -1.10359 -1.52323 0
M  V30 3979 O 360.186 -0.092395 -1.81064 0
M  V30 3980 C 360.234 -3.48682 -0.919405 0
M  V30 3981 O 359.338 -3.58947 -2.03054 0
M  V30 3982 H 358.679 -0.657428 -0.0931903 0
M  V30 3983 H 361.209 -2.01679 0.34451 0
M  V30 3984 H 361.219 -3.8907 -1.22835 0
M  V30 3985 H 359.894 -4.15761 -0.107339 0
M  V30 3986 H 358.471 -3.30448 -1.72796 0
M  V30 3987 N 360.656 0.0484629 -1.57525 0
M  V30 3988 C 361.586 1.0549 -2.08313 0
M  V30 3989 C 362.567 1.38929 -0.981463 0
M  V30 3990 O 363.752 1.48151 -1.25558 0
M  V30 3991 C 360.882 2.36162 -2.54646 0
M  V30 3992 C 359.836 2.17016 -3.68901 0
M  V30 3993 C 359.162 3.53278 -4.01371 0
M  V30 3994 C 360.462 1.57219 -4.98076 0
M  V30 3995 H 362.156 0.632195 -2.92649 0
M  V30 3996 H 359.702 0.302654 -1.40784 0
M  V30 3997 H 361.655 3.06882 -2.88793 0
M  V30 3998 H 360.379 2.80456 -1.67368 0
M  V30 3999 H 359.038 1.48733 -3.35073 0
M  V30 4000 H 358.686 3.95185 -3.11188 0
M  V30 4001 H 358.386 3.41299 -4.78318 0
M  V30 4002 H 359.91 4.25391 -4.38035 0
M  V30 4003 H 361.324 2.17832 -5.30304 0
M  V30 4004 H 359.721 1.55871 -5.79503 0
M  V30 4005 H 360.791 0.535956 -4.81929 0
M  V30 4006 N 362.134 1.5431 0.320358 0
M  V30 4007 C 363.362 1.76636 1.07738 0
M  V30 4008 C 363.777 0.51649 1.81598 0
M  V30 4009 O 363.134 -0.512942 1.75143 0
M  V30 4010 C 363.185 2.96158 2.07299 0
M  V30 4011 O 362.906 4.16313 1.36438 0
M  V30 4012 C 364.407 3.3072 2.95193 0
M  V30 4013 H 361.627 0.589597 0.320339 0
M  V30 4014 H 364.171 2.01207 0.36551 0
M  V30 4015 H 362.326 2.73851 2.74016 0
M  V30 4016 H 362.74 4.83565 2.03138 0
M  V30 4017 H 364.214 4.17643 3.60941 0
M  V30 4018 H 364.691 2.48026 3.62463 0
M  V30 4019 H 365.297 3.55117 2.34034 0
M  V30 4020 N 363.613 -0.582584 1.46437 0
M  V30 4021 C 364.838 -1.37168 1.55563 0
M  V30 4022 C 365.263 -1.87061 0.19743 0
M  V30 4023 O 364.621 -1.61572 -0.822451 0
M  V30 4024 C 364.669 -2.53511 2.56446 0
M  V30 4025 O 363.773 -3.54953 2.09958 0
M  V30 4026 H 363.114 -0.408494 0.523477 0
M  V30 4027 H 365.644 -0.706646 1.9201 0
M  V30 4028 H 365.654 -3.00426 2.76058 0
M  V30 4029 H 364.329 -2.16549 3.55076 0
M  V30 4030 H 362.906 -3.14516 2.00334 0
M  V30 4031 N 365.091 -1.34144 -0.827227 0
M  V30 4032 C 366.054 -1.25264 -1.91942 0
M  V30 4033 C 367.054 -0.168866 -1.59911 0
M  V30 4034 O 368.244 -0.421198 -1.69031 0
M  V30 4035 C 365.376 -0.932952 -3.27885 0
M  V30 4036 H 366.569 -2.22357 -2.0124 0
M  V30 4037 H 364.122 -1.1837 -1.0207 0
M  V30 4038 H 364.857 0.0349917 -3.24281 0
M  V30 4039 H 364.642 -1.71682 -3.52516 0
M  V30 4040 H 366.132 -0.895874 -4.07877 0
M  V30 4041 N 366.569 1.04691 -1.17803 0
M  V30 4042 C 367.817 1.7743 -0.967617 0
M  V30 4043 C 368.138 1.88359 0.504574 0
M  V30 4044 O 367.408 1.40402 1.36617 0
M  V30 4045 H 365.988 0.657242 -0.355024 0
M  V30 4046 H 368.65 1.2638 -1.48371 0
M  V30 4047 H 367.746 2.78924 -1.40027 0
M  V30 4048 N 368.047 0.979072 1.23499 0
M  V30 4049 C 369.463 0.687475 1.44034 0
M  V30 4050 C 369.663 -0.746801 1.8715 0
M  V30 4051 O 368.719 -1.51939 2.0167 0
M  V30 4052 C 370.032 1.68127 2.49307 0
M  V30 4053 C 371.58 1.69516 2.63122 0
M  V30 4054 C 372.055 2.67723 3.71603 0
M  V30 4055 N 373.546 2.66233 3.79044 0
M  V30 4056 C 374.281 3.38891 4.62537 0
M  V30 4057 N 373.777 4.21103 5.50131 0
M  V30 4058 N 375.57 3.27661 4.56721 0
M  V30 4059 H 367.721 1.90559 0.938135 0
M  V30 4060 H 369.984 0.821051 0.473897 0
M  V30 4061 H 369.69 2.70693 2.2454 0
M  V30 4062 H 369.564 1.46306 3.4767 0
M  V30 4063 H 371.951 0.676561 2.8724 0
M  V30 4064 H 372.032 1.95404 1.65079 0
M  V30 4065 H 371.676 3.69724 3.48233 0
M  V30 4066 H 371.606 2.39111 4.69184 0
M  V30 4067 H 374.097 2.06568 3.16446 0
M  V30 4068 H 374.41 4.73403 6.10827 0
M  V30 4069 H 372.755 4.25195 5.49759 0
M  V30 4070 H 375.946 2.62887 3.87309 0
M  V30 4071 H 376.119 3.84547 5.21562 0
M  V30 4072 N 369.525 -1.3858 0.750561 0
M  V30 4073 C 370.771 -2.0095 0.31477 0
M  V30 4074 C 371.126 -1.58509 -1.09053 0
M  V30 4075 O 370.419 -0.8112 -1.7358 0
M  V30 4076 C 370.613 -3.55455 0.372373 0
M  V30 4077 C 370.442 -4.12898 1.78173 0
M  V30 4078 C 369.212 -4.44797 2.39757 0
M  V30 4079 C 371.41 -4.35366 2.7379 0
M  V30 4080 N 369.392 -4.87831 3.72685 0
M  V30 4081 C 370.763 -4.80775 3.91478 0
M  V30 4082 C 372.818 -4.1746 2.71351 0
M  V30 4083 C 371.521 -5.10155 5.07084 0
M  V30 4084 C 373.547 -4.47963 3.86113 0
M  V30 4085 C 372.909 -4.93593 5.02539 0
M  V30 4086 H 369.008 -0.765083 0.161776 0
M  V30 4087 H 371.592 -1.68246 0.979867 0
M  V30 4088 H 369.763 -3.87512 -0.26244 0
M  V30 4089 H 371.495 -4.04614 -0.0834479 0
M  V30 4090 H 368.25 -4.33135 1.91548 0
M  V30 4091 H 368.674 -5.13685 4.40972 0
M  V30 4092 H 373.316 -3.81372 1.82524 0
M  V30 4093 H 371.034 -5.45141 5.96529 0
M  V30 4094 H 374.62 -4.35717 3.85542 0
M  V30 4095 H 373.5 -5.16746 5.89867 0
M  V30 4096 N 371.003 -0.499398 -1.49478 0
M  V30 4097 C 372.231 0.0425456 -2.06856 0
M  V30 4098 C 372.646 1.30964 -1.35992 0
M  V30 4099 O 372.003 1.77172 -0.437762 0
M  V30 4100 C 372.054 0.301735 -3.60239 0
M  V30 4101 O 371.775 -0.915127 -4.28436 0
M  V30 4102 C 373.276 0.887499 -4.34325 0
M  V30 4103 H 370.496 -0.0197482 -0.670709 0
M  V30 4104 H 373.04 -0.696297 -1.92281 0
M  V30 4105 H 371.195 0.990556 -3.74522 0
M  V30 4106 H 371.609 -0.676993 -5.20113 0
M  V30 4107 H 373.083 1.01845 -5.42523 0
M  V30 4108 H 373.56 1.88488 -3.96698 0
M  V30 4109 H 374.166 0.236196 -4.24644 0
M  V30 4110 N 372.481 1.55866 -0.233164 0
M  V30 4111 C 373.431 2.17442 0.685774 0
M  V30 4112 C 374.415 1.12617 1.14918 0
M  V30 4113 O 375.607 1.3857 1.10124 0
M  V30 4114 C 372.736 2.86685 1.88856 0
M  V30 4115 C 371.822 3.98749 1.4443 0
M  V30 4116 N 372.213 5.00744 0.713364 0
M  V30 4117 C 370.511 4.11052 1.73068 0
M  V30 4118 C 371.212 5.79673 0.485205 0
M  V30 4119 N 370.188 5.33454 1.04536 0
M  V30 4120 H 373.99 2.93659 0.119022 0
M  V30 4121 H 371.504 1.62362 -0.0348995 0
M  V30 4122 H 373.501 3.29218 2.55776 0
M  V30 4123 H 372.161 2.11967 2.45967 0
M  V30 4124 H 373.172 5.16613 0.364861 0
M  V30 4125 H 369.849 3.47495 2.31416 0
M  V30 4126 H 371.239 6.71829 -0.097365 0
M  V30 4127 N 373.959 -0.0401083 1.57549 0
M  V30 4128 C 375.375 -0.395556 1.54621 0
M  V30 4129 C 375.575 -1.77281 0.957799 0
M  V30 4130 O 374.631 -2.45888 0.574031 0
M  V30 4131 C 375.944 -0.307535 2.99123 0
M  V30 4132 C 377.492 -0.385425 3.10618 0
M  V30 4133 C 377.967 -0.326973 4.56831 0
M  V30 4134 N 379.458 -0.386102 4.61588 0
M  V30 4135 C 380.193 -0.363591 5.72246 0
M  V30 4136 N 379.689 -0.29402 6.92176 0
M  V30 4137 N 381.482 -0.412503 5.60584 0
M  V30 4138 H 373.633 0.861325 1.94152 0
M  V30 4139 H 375.896 0.326445 0.890021 0
M  V30 4140 H 375.602 0.638461 3.45856 0
M  V30 4141 H 375.476 -1.10552 3.60636 0
M  V30 4142 H 377.863 -1.32185 2.63839 0
M  V30 4143 H 377.944 0.44171 2.51957 0
M  V30 4144 H 377.588 0.605738 5.04275 0
M  V30 4145 H 377.518 -1.17207 5.13391 0
M  V30 4146 H 380.009 -0.442832 3.75296 0
M  V30 4147 H 380.322 -0.28164 7.72287 0
M  V30 4148 H 378.667 -0.260232 6.94513 0
M  V30 4149 H 381.858 -0.464769 4.65787 0
M  V30 4150 H 382.031 -0.391492 6.46816 0
M  V30 4151 N 375.437 -1.54477 -0.31217 0
M  V30 4152 C 376.4 -1.83923 -1.36766 0
M  V30 4153 C 377.4 -0.711563 -1.44199 0
M  V30 4154 O 378.59 -0.979866 -1.44029 0
M  V30 4155 C 375.722 -2.0095 -2.75376 0
M  V30 4156 H 376.915 -2.78239 -1.11906 0
M  V30 4157 H 374.468 -1.46369 -0.548257 0
M  V30 4158 H 375.203 -1.08883 -3.05475 0
M  V30 4159 H 374.988 -2.83018 -2.71373 0
M  V30 4160 H 376.478 -2.2514 -3.51713 0
M  V30 4161 N 376.915 0.57481 -1.46744 0
M  V30 4162 C 378.155 1.34369 -1.54027 0
M  V30 4163 C 378.519 1.91051 -0.190642 0
M  V30 4164 O 379.72 2.68444 -0.138255 0
M  V30 4165 C 377.991 2.43706 -2.61423 0
M  V30 4166 S 379.55 3.30915 -2.88167 0
M  V30 4167 H 376.368 0.45768 -0.544105 0
M  V30 4168 H 378.97 0.659959 -1.84024 0
M  V30 4169 H 377.674 2.0047 -3.58106 0
M  V30 4170 H 377.205 3.16842 -2.33184 0
M  V30 4171 H 379.22 4.42742 -2.24039 0
M  V30 4172 N 378.394 1.34581 0.820102 0
M  V30 4173 C 379.326 1.22236 1.93884 0
M  V30 4174 C 380.339 0.148776 1.62119 0
M  V30 4175 O 381.528 0.400877 1.7394 0
M  V30 4176 C 378.628 0.856542 3.27897 0
M  V30 4177 C 377.801 2.02569 3.87666 0
M  V30 4178 C 376.86 1.63782 5.00062 0
M  V30 4179 O 375.886 2.35477 5.18208 0
M  V30 4180 N 377.088 0.553611 5.77854 0
M  V30 4181 H 379.853 2.18615 2.05006 0
M  V30 4182 H 377.414 1.27573 0.99683 0
M  V30 4183 H 379.406 0.578806 4.0054 0
M  V30 4184 H 377.976 -0.0171518 3.12595 0
M  V30 4185 H 377.196 2.468 3.07382 0
M  V30 4186 H 378.484 2.80752 4.24329 0
M  V30 4187 H 377.882 -0.0423528 5.65684 0
M  V30 4188 H 376.439 0.335614 6.50935 0
M  V30 4189 N 379.872 -1.04064 1.18357 0
M  V30 4190 C 380.802 -2.14001 0.934113 0
M  V30 4191 C 381.783 -1.69616 -0.128186 0
M  V30 4192 O 382.968 -1.94185 0.0244093 0
M  V30 4193 C 380.098 -3.44253 0.459066 0
M  V30 4194 C 379.052 -4.02261 1.46185 0
M  V30 4195 C 378.378 -5.27992 0.844322 0
M  V30 4196 C 379.678 -4.38432 2.83856 0
M  V30 4197 H 381.372 -2.35127 1.85352 0
M  V30 4198 H 378.918 -1.12998 0.892604 0
M  V30 4199 H 380.871 -4.20522 0.271907 0
M  V30 4200 H 379.595 -3.22813 -0.495912 0
M  V30 4201 H 378.254 -3.28074 1.63595 0
M  V30 4202 H 377.902 -5.02862 -0.117845 0
M  V30 4203 H 377.602 -5.67765 1.51384 0
M  V30 4204 H 379.126 -6.06938 0.667693 0
M  V30 4205 H 380.54 -5.05688 2.70098 0
M  V30 4206 H 378.937 -4.89254 3.47491 0
M  V30 4207 H 380.007 -3.4826 3.37406 0
M  V30 4208 N 381.35 -0.985608 -1.22978 0
M  V30 4209 C 382.313 -0.535071 -2.22867 0
M  V30 4210 C 383.313 0.378123 -1.56291 0
M  V30 4211 O 384.503 0.171092 -1.73358 0
M  V30 4212 C 381.635 0.222702 -3.40172 0
M  V30 4213 H 382.828 -1.41835 -2.6424 0
M  V30 4214 H 380.381 -0.772042 -1.35901 0
M  V30 4215 H 381.116 1.12229 -3.04262 0
M  V30 4216 H 380.901 -0.43288 -3.89703 0
M  V30 4217 H 382.391 0.526335 -4.1427 0
M  V30 4218 N 382.828 1.3818 -0.7579 0
M  V30 4219 C 383.778 2.27741 -0.108674 0
M  V30 4220 C 384.762 1.45415 0.688709 0
M  V30 4221 O 385.954 1.68108 0.553956 0
M  V30 4222 C 383.083 3.34313 0.780367 0
M  V30 4223 C 382.169 4.24093 -0.0240977 0
M  V30 4224 N 382.56 4.9451 -1.06271 0
M  V30 4225 C 380.858 4.45542 0.202049 0
M  V30 4226 C 381.559 5.60675 -1.54979 0
M  V30 4227 N 380.535 5.36684 -0.864348 0
M  V30 4228 H 384.337 2.79649 -0.904071 0
M  V30 4229 H 381.851 1.51133 -0.594346 0
M  V30 4230 H 383.848 3.97368 1.26114 0
M  V30 4231 H 382.508 2.83962 1.57467 0
M  V30 4232 H 383.519 4.97345 -1.44459 0
M  V30 4233 H 380.196 4.06091 0.96935 0
M  V30 4234 H 381.586 6.26992 -2.41517 0
M  V30 4235 N 384.306 0.507319 1.49211 0
M  V30 4236 C 385.238 -0.304532 2.27168 0
M  V30 4237 C 386.251 -0.924956 1.33972 0
M  V30 4238 O 387.44 -0.807227 1.59205 0
M  V30 4239 C 384.54 -1.44431 3.06583 0
M  V30 4240 C 383.713 -0.930026 4.27398 0
M  V30 4241 C 382.772 -1.94817 4.88807 0
M  V30 4242 O 381.798 -1.51418 5.4869 0
M  V30 4243 N 383 -3.279 4.79022 0
M  V30 4244 H 385.765 0.36395 2.97482 0
M  V30 4245 H 383.326 0.340249 1.58284 0
M  V30 4246 H 385.318 -2.12311 3.44537 0
M  V30 4247 H 383.888 -2.01684 2.38835 0
M  V30 4248 H 383.108 -0.0759244 3.94127 0
M  V30 4249 H 384.396 -0.564932 5.05654 0
M  V30 4250 H 383.794 -3.65843 4.3148 0
M  V30 4251 H 382.351 -3.91476 5.21142 0
M  V30 4252 N 385.784 -1.5574 0.241426 0
M  V30 4253 C 386.734 -2.17803 -0.674233 0
M  V30 4254 C 387.718 -1.13225 -1.14319 0
M  V30 4255 O 388.91 -1.39153 -1.09387 0
M  V30 4256 C 386.039 -2.87682 -1.87333 0
M  V30 4257 C 385.125 -3.99509 -1.42313 0
M  V30 4258 N 385.516 -5.01115 -0.686798 0
M  V30 4259 C 383.814 -4.11964 -1.70885 0
M  V30 4260 C 384.515 -5.79922 -0.454456 0
M  V30 4261 N 383.491 -5.34001 -1.01705 0
M  V30 4262 H 387.293 -2.93718 -0.103447 0
M  V30 4263 H 384.807 -1.62342 0.0435095 0
M  V30 4264 H 386.804 -3.3057 -2.54026 0
M  V30 4265 H 385.464 -2.13269 -2.4484 0
M  V30 4266 H 386.475 -5.16799 -0.337459 0
M  V30 4267 H 383.152 -3.48718 -2.2957 0
M  V30 4268 H 384.542 -6.71768 0.132992 0
M  V30 4269 N 387.262 0.0317525 -1.57568 0
M  V30 4270 C 388.49 0.734949 -1.93407 0
M  V30 4271 C 388.905 1.69036 -0.84096 0
M  V30 4272 O 388.262 1.81582 0.182836 0
M  V30 4273 C 388.313 1.49432 -3.29169 0
M  V30 4274 O 388.034 0.577261 -4.3428 0
M  V30 4275 C 389.535 2.29492 -3.79273 0
M  V30 4276 H 386.755 0.206706 -0.638368 0
M  V30 4277 H 389.299 -0.00992046 -2.04498 0
M  V30 4278 H 387.454 2.1911 -3.19483 0
M  V30 4279 H 387.868 1.10952 -5.1263 0
M  V30 4280 H 389.342 2.78172 -4.76785 0
M  V30 4281 H 389.819 3.10794 -3.10328 0
M  V30 4282 H 390.425 1.64894 -3.92033 0
M  V30 4283 N 388.74 1.54641 0.303973 0
M  V30 4284 C 390.017 1.64455 1.05896 0
M  V30 4285 C 390.397 0.490923 2.05312 0
M  V30 4286 O 389.745 -0.512685 2.22674 0
M  V30 4287 C 389.955 3.02331 1.74347 0
M  V30 4288 C 391.303 3.59045 2.26653 0
M  V30 4289 O 392.327 3.04764 1.84384 0
M  V30 4290 O 391.186 4.54081 3.04093 0
M  V30 4291 H 388.28 0.666729 0.489287 0
M  V30 4292 H 390.826 1.66986 0.302298 0
M  V30 4293 H 389.598 3.77734 1.02142 0
M  V30 4294 H 389.221 3.03565 2.56777 0
M  V30 4295 N 390.218 -0.567019 1.47046 0
M  V30 4296 C 391.15 -1.68985 1.54844 0
M  V30 4297 C 392.163 -1.56869 0.435431 0
M  V30 4298 O 393.352 -1.64006 0.70457 0
M  V30 4299 C 390.452 -3.07373 1.42742 0
M  V30 4300 C 389.625 -3.45339 2.6844 0
M  V30 4301 C 388.684 -4.62849 2.50314 0
M  V30 4302 O 387.71 -4.67922 3.24095 0
M  V30 4303 N 388.912 -5.58726 1.57499 0
M  V30 4304 H 391.677 -1.62745 2.51663 0
M  V30 4305 H 389.238 -0.753411 1.43302 0
M  V30 4306 H 391.23 -3.83803 1.28365 0
M  V30 4307 H 389.8 -3.07893 0.540445 0
M  V30 4308 H 389.02 -2.58455 2.97648 0
M  V30 4309 H 390.308 -3.67476 3.51907 0
M  V30 4310 H 389.706 -5.57376 0.966876 0
M  V30 4311 H 388.263 -6.34523 1.49078 0
M  V30 4312 N 391.696 -1.35014 -0.812953 0
M  V30 4313 C 392.942 -1.2812 -1.57204 0
M  V30 4314 C 393.275 0.145869 -1.93651 0
M  V30 4315 O 392.55 1.0937 -1.60836 0
M  V30 4316 C 392.833 -2.18162 -2.86492 0
M  V30 4317 C 392.686 -3.69454 -2.56561 0
M  V30 4318 C 394.005 -2.07439 -3.88145 0
M  V30 4319 H 391.124 -0.466746 -0.570366 0
M  V30 4320 H 393.766 -1.65357 -0.935783 0
M  V30 4321 H 391.916 -1.86535 -3.40789 0
M  V30 4322 H 393.588 -4.11493 -2.08497 0
M  V30 4323 H 391.831 -3.9005 -1.89851 0
M  V30 4324 H 392.502 -4.27835 -3.48799 0
M  V30 4325 H 394.978 -2.35228 -3.4323 0
M  V30 4326 H 393.854 -2.7265 -4.76396 0
M  V30 4327 H 394.115 -1.05439 -4.29343 0
M  V30 4328 N 393.175 1.03435 -1.18907 0
M  V30 4329 C 394.424 1.76143 -0.982669 0
M  V30 4330 C 394.737 1.89416 0.487953 0
M  V30 4331 O 395.943 2.59041 0.813036 0
M  V30 4332 C 394.399 3.16722 -1.70924 0
M  V30 4333 C 394.007 3.11522 -3.21959 0
M  V30 4334 C 395.751 3.93764 -1.58588 0
M  V30 4335 C 393.658 4.46999 -3.87228 0
M  V30 4336 H 392.588 0.660292 -0.364047 0
M  V30 4337 H 395.239 1.158 -1.42347 0
M  V30 4338 H 393.621 3.775 -1.19623 0
M  V30 4339 H 394.795 2.60158 -3.80335 0
M  V30 4340 H 393.11 2.47978 -3.34508 0
M  V30 4341 H 395.707 4.93963 -2.04707 0
M  V30 4342 H 396.05 4.12794 -0.539142 0
M  V30 4343 H 396.583 3.39576 -2.07203 0
M  V30 4344 H 393.322 4.33174 -4.91976 0
M  V30 4345 H 392.842 4.98441 -3.33642 0
M  V30 4346 H 394.521 5.15898 -3.90459 0
M  V30 4347 N 394.653 0.992116 1.22453 0
M  V30 4348 C 395.585 0.500024 2.23679 0
M  V30 4349 C 396.598 -0.404463 1.57696 0
M  V30 4350 O 397.787 -0.206722 1.77299 0
M  V30 4351 C 394.887 -0.294711 3.37616 0
M  V30 4352 C 394.06 0.605723 4.33186 0
M  V30 4353 C 393.119 -0.13717 5.26021 0
M  V30 4354 O 392.145 0.477164 5.67196 0
M  V30 4355 N 393.347 -1.4197 5.62872 0
M  V30 4356 H 396.112 1.37045 2.66531 0
M  V30 4357 H 393.673 0.866741 1.36745 0
M  V30 4358 H 395.665 -0.800329 3.96707 0
M  V30 4359 H 394.235 -1.06623 2.93854 0
M  V30 4360 H 393.455 1.29202 3.72425 0
M  V30 4361 H 394.743 1.21896 4.93983 0
M  V30 4362 H 394.141 -1.94015 5.31389 0
M  V30 4363 H 392.698 -1.87052 6.24383 0
M  V30 4364 N 396.131 -1.37776 0.765217 0
M  V30 4365 C 397.061 -2.32945 0.160953 0
M  V30 4366 C 398.042 -1.55454 -0.690516 0
M  V30 4367 O 399.227 -1.83721 -0.629318 0
M  V30 4368 C 396.357 -3.39669 -0.724031 0
M  V30 4369 C 395.311 -4.27992 0.0256173 0
M  V30 4370 C 394.637 -5.25673 -0.978383 0
M  V30 4371 C 395.937 -5.08309 1.20082 0
M  V30 4372 H 397.631 -2.83728 0.955969 0
M  V30 4373 H 395.177 -1.36416 0.461149 0
M  V30 4374 H 397.13 -4.05219 -1.15652 0
M  V30 4375 H 395.854 -2.87396 -1.5515 0
M  V30 4376 H 394.513 -3.63964 0.438812 0
M  V30 4377 H 394.161 -4.69682 -1.80022 0
M  V30 4378 H 393.861 -5.85625 -0.481378 0
M  V30 4379 H 395.385 -5.94098 -1.40995 0
M  V30 4380 H 396.799 -5.67034 0.845307 0
M  V30 4381 H 395.196 -5.77554 1.62947 0
M  V30 4382 H 396.266 -4.41365 2.00811 0
M  V30 4383 N 397.609 -0.515225 -1.4894 0
M  V30 4384 C 399.025 -0.172099 -1.58669 0
M  V30 4385 C 399.225 1.32405 -1.51892 0
M  V30 4386 O 398.281 2.10116 -1.40027 0
M  V30 4387 C 399.594 -0.761533 -2.90897 0
M  V30 4388 C 401.142 -0.728926 -3.04394 0
M  V30 4389 C 401.617 -1.29667 -4.39261 0
M  V30 4390 N 403.108 -1.25799 -4.4579 0
M  V30 4391 C 403.843 -1.66733 -5.48623 0
M  V30 4392 N 403.339 -2.15327 -6.58488 0
M  V30 4393 N 405.132 -1.58061 -5.39419 0
M  V30 4394 H 397.283 -1.48778 -1.51588 0
M  V30 4395 H 399.546 -0.617968 -0.718901 0
M  V30 4396 H 399.252 -1.81136 -3.01468 0
M  V30 4397 H 399.126 -0.230106 -3.76497 0
M  V30 4398 H 401.513 0.312098 -2.93445 0
M  V30 4399 H 401.594 -1.29766 -2.20442 0
M  V30 4400 H 401.238 -2.33655 -4.50963 0
M  V30 4401 H 401.168 -0.703752 -5.21876 0
M  V30 4402 H 403.659 -0.902102 -3.66975 0
M  V30 4403 H 403.972 -2.44594 -7.33071 0
M  V30 4404 H 402.317 -2.19311 -6.59491 0
M  V30 4405 H 405.508 -1.19906 -4.52482 0
M  V30 4406 H 405.681 -1.90284 -6.19432 0
M  V30 4407 N 399.087 1.5561 -0.249682 0
M  V30 4408 C 400.034 2.21496 0.648694 0
M  V30 4409 C 401.004 1.17977 1.16921 0
M  V30 4410 O 402.189 1.46434 1.22318 0
M  V30 4411 C 399.329 2.92039 1.83868 0
M  V30 4412 C 398.442 4.10219 1.35442 0
M  V30 4413 C 397.577 4.6847 2.50419 0
M  V30 4414 C 396.616 5.78893 1.98869 0
M  V30 4415 N 395.753 6.31315 3.07223 0
M  V30 4416 H 400.593 2.97892 0.0801582 0
M  V30 4417 H 398.13 1.47074 0.0278031 0
M  V30 4418 H 400.088 3.31138 2.53778 0
M  V30 4419 H 398.718 2.18111 2.37965 0
M  V30 4420 H 397.77 3.76413 0.54928 0
M  V30 4421 H 399.082 4.89927 0.936649 0
M  V30 4422 H 398.236 5.10158 3.28366 0
M  V30 4423 H 396.975 3.87984 2.95499 0
M  V30 4424 H 395.98 5.3668 1.19393 0
M  V30 4425 H 397.205 6.61232 1.54755 0
M  V30 4426 H 395.151 5.53733 3.51732 0
M  V30 4427 H 395.068 7.06224 2.69784 0
M  V30 4428 H 396.336 6.77662 3.8522 0
M  V30 4429 N 400.565 -0.0233959 1.57583 0
M  V30 4430 C 401.528 -1.00693 2.05897 0
M  V30 4431 C 402.528 -1.28693 0.964092 0
M  V30 4432 O 403.718 -1.23602 1.22753 0
M  V30 4433 C 400.85 -2.33825 2.4807 0
M  V30 4434 H 402.043 -0.589476 2.9405 0
M  V30 4435 H 399.596 -0.270354 1.53944 0
M  V30 4436 H 400.331 -2.80307 1.6309 0
M  V30 4437 H 400.116 -2.1483 3.2801 0
M  V30 4438 H 401.606 -3.04426 2.85857 0
M  V30 4439 N 402.043 -1.548 -0.295768 0
M  V30 4440 C 402.975 -1.82492 -1.3867 0
M  V30 4441 C 403.988 -0.708134 -1.46592 0
M  V30 4442 O 405.177 -0.985686 -1.48817 0
M  V30 4443 C 402.277 -1.95256 -2.76999 0
M  V30 4444 C 401.45 -3.25709 -2.91946 0
M  V30 4445 C 400.509 -3.28824 -4.10806 0
M  V30 4446 O 399.535 -4.02328 -4.02643 0
M  V30 4447 N 400.737 -2.5459 -5.21694 0
M  V30 4448 H 403.502 -2.76646 -1.15269 0
M  V30 4449 H 401.063 -1.54438 -0.485849 0
M  V30 4450 H 403.055 -1.94736 -3.54768 0
M  V30 4451 H 401.625 -1.08072 -2.93324 0
M  V30 4452 H 400.845 -3.38959 -2.01247 0
M  V30 4453 H 402.133 -4.11786 -2.98847 0
M  V30 4454 H 401.531 -1.94512 -5.31208 0
M  V30 4455 H 400.088 -2.59818 -5.97778 0
M  V30 4456 N 403.521 0.559213 -1.47345 0
M  V30 4457 C 404.451 1.67622 -1.62558 0
M  V30 4458 C 405.432 1.63331 -0.475087 0
M  V30 4459 O 406.617 1.80983 -0.704182 0
M  V30 4460 C 403.747 3.0626 -1.63774 0
M  V30 4461 C 402.701 3.25397 -2.7803 0
M  V30 4462 C 402.027 4.64801 -2.64318 0
M  V30 4463 C 403.327 3.10965 -4.19641 0
M  V30 4464 H 405.021 1.55146 -2.56067 0
M  V30 4465 H 402.567 0.744961 -1.23233 0
M  V30 4466 H 404.52 3.84247 -1.73008 0
M  V30 4467 H 403.244 3.1969 -0.66825 0
M  V30 4468 H 401.903 2.49817 -2.68304 0
M  V30 4469 H 401.551 4.75028 -1.65401 0
M  V30 4470 H 401.251 4.78555 -3.40968 0
M  V30 4471 H 402.775 5.44926 -2.75478 0
M  V30 4472 H 404.189 3.78772 -4.30354 0
M  V30 4473 H 402.586 3.36229 -4.97062 0
M  V30 4474 H 403.656 2.07736 -4.38148 0
M  V30 4475 N 404.999 1.35443 0.805782 0
M  V30 4476 C 405.931 1.24285 1.92577 0
M  V30 4477 C 406.944 0.165962 1.61952 0
M  V30 4478 O 408.133 0.419303 1.73505 0
M  V30 4479 C 405.233 0.891272 3.2697 0
M  V30 4480 C 404.406 2.06669 3.85495 0
M  V30 4481 C 403.465 1.69077 4.98297 0
M  V30 4482 O 402.491 2.4096 5.15681 0
M  V30 4483 N 403.693 0.614869 5.77234 0
M  V30 4484 H 406.458 2.20777 2.02676 0
M  V30 4485 H 404.019 1.28623 0.983243 0
M  V30 4486 H 406.011 0.621256 3.99903 0
M  V30 4487 H 404.581 0.016004 3.12596 0
M  V30 4488 H 403.801 2.50046 3.04747 0
M  V30 4489 H 405.089 2.85237 4.21328 0
M  V30 4490 H 404.487 0.017648 5.65697 0
M  V30 4491 H 403.044 0.404636 6.50543 0
M  V30 4492 N 406.477 -1.02803 1.19454 0
M  V30 4493 C 407.424 -2.11099 0.933046 0
M  V30 4494 C 408.394 -1.65571 -0.132447 0
M  V30 4495 O 409.579 -1.90797 0.00987576 0
M  V30 4496 C 406.719 -3.41763 0.478747 0
M  V30 4497 C 405.832 -4.00833 1.6111 0
M  V30 4498 C 404.967 -5.19511 1.10825 0
M  V30 4499 C 404.006 -5.70639 2.21445 0
M  V30 4500 N 403.143 -6.80589 1.72461 0
M  V30 4501 H 407.983 -2.32804 1.86028 0
M  V30 4502 H 405.52 -1.14179 0.927441 0
M  V30 4503 H 407.478 -4.16736 0.196745 0
M  V30 4504 H 406.108 -3.20166 -0.411493 0
M  V30 4505 H 405.16 -3.23066 2.00829 0
M  V30 4506 H 406.472 -4.34794 2.4445 0
M  V30 4507 H 405.626 -6.01645 0.781533 0
M  V30 4508 H 404.365 -4.87086 0.244606 0
M  V30 4509 H 403.37 -4.87116 2.54947 0
M  V30 4510 H 404.595 -6.05102 3.08267 0
M  V30 4511 H 402.541 -6.50016 0.884056 0
M  V30 4512 H 402.458 -7.13681 2.49389 0
M  V30 4513 H 403.726 -7.66317 1.42755 0
M  V30 4514 N 407.956 -0.998596 -1.21925 0
M  V30 4515 C 408.866 -0.562736 -2.27751 0
M  V30 4516 C 409.882 0.391203 -1.69545 0
M  V30 4517 O 411.058 0.256625 -1.99758 0
M  V30 4518 C 408.123 0.11012 -3.46525 0
M  V30 4519 C 407.184 -0.887495 -4.20026 0
M  V30 4520 C 406.417 -0.246654 -5.3313 0
M  V30 4521 O 406.64 0.958088 -5.62296 0
M  V30 4522 O 405.574 -0.954374 -5.94286 0
M  V30 4523 H 409.4 -1.44329 -2.67213 0
M  V30 4524 H 406.985 -0.767135 -1.28201 0
M  V30 4525 H 408.867 0.486756 -4.18579 0
M  V30 4526 H 407.542 0.965154 -3.08976 0
M  V30 4527 H 406.449 -1.31517 -3.5022 0
M  V30 4528 H 407.782 -1.71191 -4.6147 0
M  V30 4529 N 409.434 1.37368 -0.772513 0
M  V30 4530 C 410.682 1.99279 -0.336516 0
M  V30 4531 C 411.003 1.6163 1.09091 0
M  V30 4532 O 410.273 0.882109 1.74916 0
M  V30 4533 H 408.853 0.737063 -0.121435 0
M  V30 4534 H 411.515 1.67836 -0.990809 0
M  V30 4535 H 410.611 3.09332 -0.414763 0
M  V30 4536 N 410.912 0.523116 1.48665 0
M  V30 4537 C 411.822 -0.247406 2.33292 0
M  V30 4538 C 412.838 -0.945769 1.46052 0
M  V30 4539 O 414.014 -0.922253 1.79043 0
M  V30 4540 C 411.079 -1.28487 3.22012 0
M  V30 4541 C 410.14 -0.597592 4.2512 0
M  V30 4542 C 409.373 -1.58563 5.09601 0
M  V30 4543 O 409.596 -2.81763 4.95949 0
M  V30 4544 O 408.53 -1.12879 5.91221 0
M  V30 4545 H 412.356 0.445869 3.00409 0
M  V30 4546 H 409.941 0.284128 1.46673 0
M  V30 4547 H 411.823 -1.88459 3.7691 0
M  V30 4548 H 410.498 -1.96068 2.57564 0
M  V30 4549 H 409.405 0.0424407 3.74076 0
M  V30 4550 H 410.738 0.0361517 4.92187 0
M  V30 4551 N 412.39 -1.55475 0.257931 0
M  V30 4552 C 413.32 -2.24815 -0.630912 0
M  V30 4553 C 414.301 -1.23224 -1.17259 0
M  V30 4554 O 415.486 -1.51904 -1.20991 0
M  V30 4555 C 412.616 -2.95609 -1.82298 0
M  V30 4556 C 411.57 -4.03982 -1.41359 0
M  V30 4557 C 410.896 -4.6226 -2.68738 0
M  V30 4558 C 412.196 -5.19109 -0.57648 0
M  V30 4559 H 413.89 -2.99354 -0.0526878 0
M  V30 4560 H 411.436 -1.4398 -0.023901 0
M  V30 4561 H 413.389 -3.42822 -2.45054 0
M  V30 4562 H 412.113 -2.18577 -2.42676 0
M  V30 4563 H 410.772 -3.57555 -0.809324 0
M  V30 4564 H 410.42 -3.81915 -3.27338 0
M  V30 4565 H 410.12 -5.35424 -2.42065 0
M  V30 4566 H 411.644 -5.12212 -3.32372 0
M  V30 4567 H 413.058 -5.62479 -1.10861 0
M  V30 4568 H 411.455 -5.98729 -0.405351 0
M  V30 4569 H 412.525 -4.83174 0.408776 0
M  V30 4570 N 413.868 0.0150385 -1.57593 0
M  V30 4571 C 414.778 1.02791 -2.10882 0
M  V30 4572 C 415.794 1.38702 -1.0506 0
M  V30 4573 O 416.97 1.47739 -1.36877 0
M  V30 4574 C 414.035 2.30568 -2.58919 0
M  V30 4575 C 413.096 2.01108 -3.79281 0
M  V30 4576 C 412.329 3.22794 -4.25018 0
M  V30 4577 O 412.552 4.33959 -3.70183 0
M  V30 4578 O 411.486 3.07672 -5.17322 0
M  V30 4579 H 415.312 0.604973 -2.97613 0
M  V30 4580 H 412.897 0.23292 -1.47573 0
M  V30 4581 H 414.779 3.05662 -2.90084 0
M  V30 4582 H 413.454 2.72129 -1.75293 0
M  V30 4583 H 412.361 1.23537 -3.53114 0
M  V30 4584 H 413.694 1.64394 -4.63935 0
M  V30 4585 N 415.346 1.54954 0.287554 0
M  V30 4586 C 416.293 1.86834 1.35505 0
M  V30 4587 C 417.263 0.718452 1.49758 0
M  V30 4588 O 418.448 0.968358 1.644 0
M  V30 4589 C 415.588 2.13303 2.71286 0
M  V30 4590 C 414.701 3.40883 2.65373 0
M  V30 4591 C 413.836 3.57125 3.93236 0
M  V30 4592 C 412.875 4.78449 3.81776 0
M  V30 4593 N 412.012 4.91426 5.01443 0
M  V30 4594 H 416.852 2.77889 1.07619 0
M  V30 4595 H 414.389 1.37593 0.520241 0
M  V30 4596 H 416.347 2.26646 3.50267 0
M  V30 4597 H 414.977 1.25499 2.97405 0
M  V30 4598 H 414.029 3.36088 1.78182 0
M  V30 4599 H 415.341 4.29993 2.52799 0
M  V30 4600 H 414.495 3.70207 4.80658 0
M  V30 4601 H 413.234 2.66173 4.0866 0
M  V30 4602 H 412.239 4.65386 2.92738 0
M  V30 4603 H 413.464 5.70822 3.67884 0
M  V30 4604 H 411.41 4.03401 5.17304 0
M  V30 4605 H 411.327 5.74559 4.91343 0
M  V30 4606 H 412.595 5.08879 5.90477 0
M  V30 4607 N 416.824 -0.551391 1.4764 0
M  V30 4608 C 418.073 -1.30467 1.53822 0
M  V30 4609 C 418.386 -1.94495 0.207661 0
M  V30 4610 O 419.592 -2.71099 0.147533 0
M  V30 4611 C 418.048 -2.36616 2.71184 0
M  V30 4612 C 417.656 -1.78754 4.10793 0
M  V30 4613 C 419.4 -3.13088 2.86663 0
M  V30 4614 C 417.307 -2.82717 5.19447 0
M  V30 4615 H 416.237 -0.490584 0.572576 0
M  V30 4616 H 418.888 -0.58494 1.73927 0
M  V30 4617 H 417.27 -3.11529 2.4447 0
M  V30 4618 H 418.444 -1.10173 4.47435 0
M  V30 4619 H 416.759 -1.14846 4.00249 0
M  V30 4620 H 419.356 -3.90736 3.65007 0
M  V30 4621 H 419.699 -3.67635 1.95321 0
M  V30 4622 H 420.232 -2.45288 3.13175 0
M  V30 4623 H 416.971 -2.33018 6.12685 0
M  V30 4624 H 416.491 -3.4969 4.87316 0
M  V30 4625 H 418.17 -3.46102 5.46646 0
M  V30 4626 N 418.302 -1.35869 -0.798587 0
M  V30 4627 C 419.249 -1.29446 -1.91082 0
M  V30 4628 C 420.219 -0.16487 -1.6528 0
M  V30 4629 O 421.404 -0.349888 -1.87564 0
M  V30 4630 C 418.544 -1.0804 -3.27752 0
M  V30 4631 C 417.657 -2.29993 -3.65687 0
M  V30 4632 C 416.792 -2.01673 -4.91428 0
M  V30 4633 C 415.831 -3.19636 -5.22015 0
M  V30 4634 N 414.968 -2.91039 -6.38937 0
M  V30 4635 H 419.808 -2.24553 -1.95907 0
M  V30 4636 H 417.345 -1.11615 -0.958148 0
M  V30 4637 H 419.303 -0.936586 -4.06551 0
M  V30 4638 H 417.933 -0.16592 -3.22373 0
M  V30 4639 H 416.985 -2.55211 -2.82085 0
M  V30 4640 H 418.297 -3.18052 -3.84245 0
M  V30 4641 H 417.451 -1.84168 -5.78072 0
M  V30 4642 H 416.19 -1.10911 -4.74921 0
M  V30 4643 H 415.195 -3.37709 -4.33858 0
M  V30 4644 H 416.42 -4.11211 -5.40447 0
M  V30 4645 H 414.366 -2.0288 -6.2384 0
M  V30 4646 H 414.283 -3.72635 -6.57784 0
M  V30 4647 H 415.551 -2.77093 -7.28587 0
M  V30 4648 N 419.78 1.02168 -1.19998 0
M  V30 4649 C 421.196 1.27969 -0.953737 0
M  V30 4650 C 421.396 1.98079 0.369703 0
M  V30 4651 O 420.452 2.27306 1.09947 0
M  V30 4652 C 421.765 2.11971 -2.13281 0
M  V30 4653 C 423.313 2.25255 -2.17323 0
M  V30 4654 C 423.788 3.12632 -3.34702 0
M  V30 4655 N 425.279 3.2022 -3.34684 0
M  V30 4656 C 426.014 3.88039 -4.22153 0
M  V30 4657 N 425.51 4.58027 -5.19791 0
M  V30 4658 N 427.303 3.84511 -4.10009 0
M  V30 4659 H 419.454 0.550794 -2.05134 0
M  V30 4660 H 421.717 0.305683 -0.897364 0
M  V30 4661 H 421.423 1.67785 -3.09097 0
M  V30 4662 H 421.297 3.12699 -2.10949 0
M  V30 4663 H 423.684 2.68667 -1.22073 0
M  V30 4664 H 423.765 1.24053 -2.23706 0
M  V30 4665 H 423.409 2.69926 -4.30235 0
M  V30 4666 H 423.339 4.13909 -3.25556 0
M  V30 4667 H 425.83 2.70382 -2.64012 0
M  V30 4668 H 426.143 5.07429 -5.82868 0
M  V30 4669 H 424.488 4.56869 -5.23733 0
M  V30 4670 H 427.679 3.28978 -3.33003 0
M  V30 4671 H 427.852 4.3709 -4.78389 0
M  V30 4672 N 421.258 1.00505 1.21394 0
M  V30 4673 C 422.205 0.565496 2.23765 0
M  V30 4674 C 423.175 -0.408466 1.60999 0
M  V30 4675 O 424.36 -0.310503 1.88257 0
M  V30 4676 C 421.5 -0.101667 3.4495 0
M  V30 4677 C 420.613 0.915479 4.22188 0
M  V30 4678 C 419.748 0.220574 5.30742 0
M  V30 4679 C 418.787 1.22527 5.99711 0
M  V30 4680 N 417.924 0.557831 6.9988 0
M  V30 4681 H 422.764 1.44314 2.60725 0
M  V30 4682 H 420.301 0.722643 1.28126 0
M  V30 4683 H 422.259 -0.505504 4.14126 0
M  V30 4684 H 420.889 -0.94303 3.08718 0
M  V30 4685 H 419.941 1.43756 3.52191 0
M  V30 4686 H 421.253 1.68005 4.69655 0
M  V30 4687 H 420.407 -0.239368 6.06228 0
M  V30 4688 H 419.146 -0.576401 4.84282 0
M  V30 4689 H 418.151 1.69571 5.22997 0
M  V30 4690 H 419.376 2.02332 6.48258 0
M  V30 4691 H 417.322 -0.219486 6.55633 0
M  V30 4692 H 417.239 1.26065 7.45415 0
M  V30 4693 H 418.507 0.121095 7.79406 0
M  V30 4694 N 422.737 -1.36956 0.779787 0
M  V30 4695 C 424.153 -1.52817 0.460342 0
M  V30 4696 C 424.353 -1.7361 -1.02283 0
M  V30 4697 O 423.409 -1.76207 -1.80852 0
M  V30 4698 C 424.722 -2.71983 1.28241 0
M  V30 4699 C 426.27 -2.85849 1.27512 0
M  V30 4700 C 426.745 -4.08008 2.08072 0
M  V30 4701 N 428.236 -4.15135 2.05467 0
M  V30 4702 C 428.971 -5.08711 2.64577 0
M  V30 4703 N 428.467 -6.07792 3.32506 0
M  V30 4704 N 430.26 -5.01254 2.54363 0
M  V30 4705 H 422.411 -1.21713 1.74068 0
M  V30 4706 H 424.674 -0.593294 0.739396 0
M  V30 4707 H 424.38 -2.63109 2.33381 0
M  V30 4708 H 424.254 -3.65882 0.917088 0
M  V30 4709 H 426.641 -2.94189 0.231686 0
M  V30 4710 H 426.722 -1.92886 1.68014 0
M  V30 4711 H 426.366 -4.00429 3.12441 0
M  V30 4712 H 426.296 -5.001 1.64947 0
M  V30 4713 H 428.787 -3.44189 1.5602 0
M  V30 4714 H 429.1 -6.75739 3.74963 0
M  V30 4715 H 427.445 -6.08047 3.36606 0
M  V30 4716 H 430.636 -4.22795 2.00902 0
M  V30 4717 H 430.809 -5.73995 3.00722 0
M  V30 4718 N 424.215 -0.530993 -1.48385 0
M  V30 4719 C 425.165 0.251092 -2.26613 0
M  V30 4720 C 426.149 0.908977 -1.32765 0
M  V30 4721 O 427.341 0.811616 -1.57295 0
M  V30 4722 C 424.47 1.29677 -3.17866 0
M  V30 4723 C 423.556 0.643627 -4.19188 0
M  V30 4724 N 423.947 -0.271223 -5.05072 0
M  V30 4725 C 422.245 0.900711 -4.3681 0
M  V30 4726 C 422.946 -0.648109 -5.78078 0
M  V30 4727 N 421.922 -0.00895987 -5.43599 0
M  V30 4728 H 425.724 -0.452702 -2.90393 0
M  V30 4729 H 423.238 -0.349091 -1.58604 0
M  V30 4730 H 425.235 1.87079 -3.72568 0
M  V30 4731 H 423.895 2.00193 -2.55642 0
M  V30 4732 H 424.906 -0.643883 -5.13882 0
M  V30 4733 H 421.583 1.59636 -3.85775 0
M  V30 4734 H 422.973 -1.39833 -6.57188 0
M  V30 4735 N 425.693 1.55336 -0.266172 0
M  V30 4736 C 426.623 2.25146 0.618981 0
M  V30 4737 C 427.604 1.23845 1.16604 0
M  V30 4738 O 428.789 1.52544 1.20183 0
M  V30 4739 C 425.919 2.96572 1.80728 0
M  V30 4740 C 424.873 4.04726 1.39215 0
M  V30 4741 C 424.199 4.63678 2.66283 0
M  V30 4742 C 425.499 5.19407 0.548942 0
M  V30 4743 H 427.193 2.99377 0.0368116 0
M  V30 4744 H 424.739 1.43991 0.0162651 0
M  V30 4745 H 426.692 3.44116 2.43232 0
M  V30 4746 H 425.416 2.19861 2.41514 0
M  V30 4747 H 424.075 3.57979 0.790351 0
M  V30 4748 H 423.723 3.83646 3.25308 0
M  V30 4749 H 423.423 5.367 2.39222 0
M  V30 4750 H 424.947 5.13967 3.29651 0
M  V30 4751 H 426.361 5.63059 1.07876 0
M  V30 4752 H 424.758 5.98936 0.373593 0
M  V30 4753 H 425.828 4.8295 -0.434394 0
M  V30 4754 N 427.171 -0.0066808 1.57599 0
M  V30 4755 C 428.448 -0.729586 1.81484 0
M  V30 4756 C 428.828 -1.92359 0.869558 0
M  V30 4757 O 428.176 -2.28348 -0.0832533 0
M  V30 4758 C 428.386 -1.1416 3.29801 0
M  V30 4759 C 429.734 -1.54823 3.95367 0
M  V30 4760 O 430.758 -1.23558 3.34084 0
M  V30 4761 O 429.617 -2.12937 5.03309 0
M  V30 4762 H 426.711 -0.354674 0.747085 0
M  V30 4763 H 429.257 0.0182609 1.6969 0
M  V30 4764 H 428.029 -0.290231 3.90222 0
M  V30 4765 H 427.652 -1.94876 3.46568 0
M  V30 4766 N 428.649 -1.55105 -0.279332 0
M  V30 4767 C 429.896 -1.75412 -1.01177 0
M  V30 4768 C 430.224 -0.551728 -1.86511 0
M  V30 4769 O 429.479 0.465919 -1.90073 0
M  V30 4770 C 429.778 -3.0086 -1.92919 0
M  V30 4771 C 429.444 -4.33689 -1.23387 0
M  V30 4772 C 428.106 -4.69792 -1.04159 0
M  V30 4773 C 430.458 -5.15941 -0.738562 0
M  V30 4774 C 427.786 -5.85707 -0.341166 0
M  V30 4775 C 430.138 -6.32579 -0.0517636 0
M  V30 4776 C 428.802 -6.67326 0.152292 0
M  V30 4777 H 428.072 -0.641879 -0.370233 0
M  V30 4778 H 430.719 -1.89373 -0.284627 0
M  V30 4779 H 429.024 -2.81773 -2.72234 0
M  V30 4780 H 430.721 -3.13768 -2.49701 0
M  V30 4781 H 427.311 -4.05309 -1.39364 0
M  V30 4782 H 431.495 -4.8853 -0.874764 0
M  V30 4783 H 426.751 -6.11157 -0.172287 0
M  V30 4784 H 430.925 -6.9557 0.339828 0
M  V30 4785 H 428.552 -7.56998 0.697014 0
M  V30 4786 N 430.127 0.543554 -1.4793 0
M  V30 4787 C 431.057 1.65888 -1.64327 0
M  V30 4788 C 432.038 1.62818 -0.492383 0
M  V30 4789 O 433.223 1.80226 -0.723338 0
M  V30 4790 C 430.353 3.04506 -1.67013 0
M  V30 4791 C 429.307 3.2243 -2.81466 0
M  V30 4792 C 428.633 4.61972 -2.69233 0
M  V30 4793 C 429.933 3.06496 -4.22915 0
M  V30 4794 H 431.627 1.52421 -2.57698 0
M  V30 4795 H 429.173 0.731849 -1.24016 0
M  V30 4796 H 431.126 3.82391 -1.77074 0
M  V30 4797 H 429.85 3.18964 -0.70212 0
M  V30 4798 H 428.509 2.46957 -2.70938 0
M  V30 4799 H 428.157 4.73247 -1.7043 0
M  V30 4800 H 427.857 4.74911 -3.46025 0
M  V30 4801 H 429.381 5.41974 -2.81242 0
M  V30 4802 H 430.795 3.74186 -4.34348 0
M  V30 4803 H 429.192 3.30938 -5.006 0
M  V30 4804 H 430.262 2.03077 -4.40327 0
M  V30 4805 N 431.605 1.3629 0.791371 0
M  V30 4806 C 432.882 1.20962 1.53712 0
M  V30 4807 C 433.262 -0.205021 2.10102 0
M  V30 4808 O 432.61 -1.21042 1.93807 0
M  V30 4809 C 432.82 2.29002 2.63361 0
M  V30 4810 C 434.168 2.65572 3.31295 0
M  V30 4811 O 435.192 2.2803 2.73643 0
M  V30 4812 O 434.051 3.3018 4.35481 0
M  V30 4813 H 431.145 0.47086 0.679867 0
M  V30 4814 H 433.691 1.48016 0.830021 0
M  V30 4815 H 432.463 3.2382 2.19674 0
M  V30 4816 H 432.086 2.03303 3.41692 0
M  V30 4817 N 433.083 -1.0153 1.20538 0
M  V30 4818 C 434.332 -1.74558 1.01057 0
M  V30 4819 C 434.645 -1.90168 -0.457756 0
M  V30 4820 O 435.851 -2.60301 -0.771722 0
M  V30 4821 C 434.307 -3.13963 1.75941 0
M  V30 4822 C 433.915 -3.06361 3.26875 0
M  V30 4823 C 435.659 -3.91191 1.64832 0
M  V30 4824 C 433.566 -4.40782 3.94291 0
M  V30 4825 H 432.496 -0.654417 0.374505 0
M  V30 4826 H 435.147 -1.13521 1.44171 0
M  V30 4827 H 433.529 -3.75549 1.25614 0
M  V30 4828 H 434.703 -2.54074 3.84425 0
M  V30 4829 H 433.018 -2.42625 3.38411 0
M  V30 4830 H 435.615 -4.90644 2.12539 0
M  V30 4831 H 435.958 -4.11884 0.604745 0
M  V30 4832 H 436.491 -3.36236 2.12579 0
M  V30 4833 H 433.23 -4.25292 4.98805 0
M  V30 4834 H 432.75 -4.9307 3.41529 0
M  V30 4835 H 434.429 -5.09621 3.98617 0
M  V30 4836 N 434.561 -1.01147 -1.20859 0
M  V30 4837 C 435.491 -0.597663 -2.25722 0
M  V30 4838 C 436.472 0.384744 -1.65692 0
M  V30 4839 O 437.657 0.271303 -1.92296 0
M  V30 4840 C 434.787 0.0700149 -3.47229 0
M  V30 4841 C 433.741 -0.832843 -4.19819 0
M  V30 4842 C 433.067 -0.0312202 -5.34691 0
M  V30 4843 C 434.367 -2.1385 -4.76514 0
M  V30 4844 H 436.061 -1.47423 -2.60589 0
M  V30 4845 H 433.607 -0.710301 -1.25263 0
M  V30 4846 H 435.56 0.37103 -4.19763 0
M  V30 4847 H 434.284 0.981259 -3.11511 0
M  V30 4848 H 432.943 -1.11778 -3.49144 0
M  V30 4849 H 432.591 0.881515 -4.95215 0
M  V30 4850 H 432.291 -0.632434 -5.84187 0
M  V30 4851 H 433.815 0.26346 -6.10031 0
M  V30 4852 H 435.229 -1.9002 -5.40893 0
M  V30 4853 H 433.626 -2.69012 -5.36426 0
M  V30 4854 H 434.696 -2.80495 -3.95538 0
M  V30 4855 N 436.039 1.36541 -0.78704 0
M  V30 4856 C 436.969 2.32659 -0.197992 0
M  V30 4857 C 437.95 1.56533 0.665697 0
M  V30 4858 O 439.135 1.84698 0.60001 0
M  V30 4859 C 436.265 3.40778 0.669901 0
M  V30 4860 C 435.219 4.27897 -0.0937039 0
M  V30 4861 C 434.545 5.27163 0.894629 0
M  V30 4862 C 435.845 5.06334 -1.28154 0
M  V30 4863 H 437.539 2.82171 -1.00099 0
M  V30 4864 H 435.085 1.35665 -0.482793 0
M  V30 4865 H 437.038 4.07008 1.09191 0
M  V30 4866 H 435.762 2.89827 1.50558 0
M  V30 4867 H 434.421 3.6322 -0.49666 0
M  V30 4868 H 434.069 4.72486 1.72527 0
M  V30 4869 H 433.769 5.86317 0.388149 0
M  V30 4870 H 435.293 5.96266 1.31525 0
M  V30 4871 H 436.707 5.65617 -0.93541 0
M  V30 4872 H 435.104 5.74888 -1.72115 0
M  V30 4873 H 436.174 4.38114 -2.07807 0
M  V30 4874 N 437.518 0.538854 1.48102 0
M  V30 4875 C 438.448 -0.207654 2.32575 0
M  V30 4876 C 439.429 -0.926559 1.4265 0
M  V30 4877 O 440.614 -0.91061 1.71527 0
M  V30 4878 C 437.744 -1.24957 3.24042 0
M  V30 4879 C 436.698 -0.648263 4.23062 0
M  V30 4880 C 436.024 -1.79348 5.03725 0
M  V30 4881 C 437.324 0.385897 5.20872 0
M  V30 4882 H 439.018 0.497534 2.95237 0
M  V30 4883 H 436.564 0.240715 1.41974 0
M  V30 4884 H 438.517 -1.77983 3.81969 0
M  V30 4885 H 437.241 -1.98446 2.59397 0
M  V30 4886 H 435.9 -0.139452 3.66335 0
M  V30 4887 H 435.548 -2.51696 4.35498 0
M  V30 4888 H 435.248 -1.39702 5.70751 0
M  V30 4889 H 436.772 -2.32735 5.64506 0
M  V30 4890 H 438.186 -0.057607 5.73271 0
M  V30 4891 H 436.583 0.700227 5.96001 0
M  V30 4892 H 437.653 1.28848 4.67468 0
M  V30 4893 N 438.996 -1.55193 0.274407 0
M  V30 4894 C 439.959 -2.212 -0.600279 0
M  V30 4895 C 440.959 -1.18963 -1.08187 0
M  V30 4896 O 442.149 -1.43873 -0.982158 0
M  V30 4897 C 439.281 -2.87739 -1.82809 0
M  V30 4898 H 440.474 -2.9989 -0.0239682 0
M  V30 4899 H 438.027 -1.5628 0.0250192 0
M  V30 4900 H 438.762 -2.13058 -2.44493 0
M  V30 4901 H 438.547 -3.62658 -1.49069 0
M  V30 4902 H 440.037 -3.38171 -2.45011 0
M  V30 4903 N 440.474 -0.00167713 -1.576 0
M  V30 4904 C 441.421 0.989195 -2.08527 0
M  V30 4905 C 442.391 1.34031 -0.981065 0
M  V30 4906 O 443.576 1.43839 -1.2536 0
M  V30 4907 C 440.716 2.27537 -2.59463 0
M  V30 4908 C 439.829 1.98314 -3.83791 0
M  V30 4909 C 438.964 3.21025 -4.23222 0
M  V30 4910 C 438.003 2.87495 -5.40382 0
M  V30 4911 N 437.14 4.02749 -5.75098 0
M  V30 4912 H 441.98 0.547973 -2.92919 0
M  V30 4913 H 439.517 0.258917 -1.44803 0
M  V30 4914 H 441.475 3.02729 -2.87073 0
M  V30 4915 H 440.105 2.69325 -1.77943 0
M  V30 4916 H 439.157 1.13482 -3.63078 0
M  V30 4917 H 440.469 1.69601 -4.69081 0
M  V30 4918 H 439.623 4.04561 -4.52123 0
M  V30 4919 H 438.362 3.52877 -3.36644 0
M  V30 4920 H 437.367 2.02367 -5.11202 0
M  V30 4921 H 438.592 2.56889 -6.28637 0
M  V30 4922 H 436.538 4.34494 -4.91478 0
M  V30 4923 H 436.455 3.77566 -6.54966 0
M  V30 4924 H 437.723 4.87068 -6.08592 0
M  V30 4925 N 441.952 1.55251 0.271103 0
M  V30 4926 C 442.885 1.83191 1.36075 0
M  V30 4927 C 443.863 0.685091 1.47463 0
M  V30 4928 O 445.047 0.928292 1.64058 0
M  V30 4929 C 442.174 1.99521 2.73696 0
M  V30 4930 C 441.22 3.22081 2.79582 0
M  V30 4931 S 442.053 4.79388 2.38636 0
M  V30 4932 C 443.209 4.98693 3.78228 0
M  V30 4933 H 443.442 2.75327 1.12171 0
M  V30 4934 H 440.975 1.47046 0.470833 0
M  V30 4935 H 442.933 2.09613 3.52948 0
M  V30 4936 H 441.594 1.0827 2.9485 0
M  V30 4937 H 440.787 3.304 3.80594 0
M  V30 4938 H 440.389 3.10589 2.08352 0
M  V30 4939 H 442.681 4.84551 4.73515 0
M  V30 4940 H 443.624 6.00738 3.7486 0
M  V30 4941 H 444.032 4.26665 3.69618 0
M  V30 4942 N 443.43 -0.535701 1.48216 0
M  V30 4943 C 444.34 -1.66785 1.64985 0
M  V30 4944 C 445.356 -1.65654 0.532414 0
M  V30 4945 O 446.532 -1.8471 0.80275 0
M  V30 4946 C 443.597 -3.0326 1.68031 0
M  V30 4947 C 442.658 -3.1529 2.9136 0
M  V30 4948 C 441.891 -4.45255 2.94252 0
M  V30 4949 O 442.114 -5.32011 2.05719 0
M  V30 4950 O 441.048 -4.6153 3.86359 0
M  V30 4951 H 444.874 -1.55576 2.60825 0
M  V30 4952 H 442.459 -0.70815 1.31551 0
M  V30 4953 H 444.341 -3.84436 1.72589 0
M  V30 4954 H 443.016 -3.14805 0.753628 0
M  V30 4955 H 441.923 -2.3343 2.92337 0
M  V30 4956 H 443.256 -3.08658 3.83394 0
M  V30 4957 N 444.908 -1.36708 -0.784132 0
M  V30 4958 C 445.856 -1.31533 -1.91838 0
M  V30 4959 C 446.85 -0.206205 -1.6814 0
M  V30 4960 O 448.056 -0.373519 -1.76082 0
M  V30 4961 H 444.431 -0.409613 -0.630651 0
M  V30 4962 H 446.402 -2.2731 -1.9332 0
M  V30 4963 C 445.151 -1.12679 -3.28936 0
M  V30 4964 H 444.474 -1.97274 -3.4774 0
M  V30 4965 H 445.914 -1.13106 -4.08636 0
M  V30 4966 C 444.373 0.168281 -3.36479 0
M  V30 4967 O 444.903 1.15625 -3.84699 0
M  V30 4968 N 443.109 0.214762 -2.89805 0
M  V30 4969 H 442.656 -0.589852 -2.50756 0
M  V30 4970 H 442.614 1.08094 -2.95234 0
M  V30 4971 N 446.386 1.0089 -1.21074 0
M  V30 4972 C 447.634 1.74262 -1.02358 0
M  V30 4973 C 447.955 1.89869 0.444393 0
M  V30 4974 O 447.225 1.44677 1.32081 0
M  V30 4975 H 445.805 0.645615 -0.375754 0
M  V30 4976 H 448.467 1.21596 -1.52317 0
M  V30 4977 H 447.563 2.74328 -1.4883 0
M  V30 4978 N 447.864 1.01787 1.20321 0
M  V30 4979 C 449.089 0.727009 1.9424 0
M  V30 4980 C 449.514 -0.706179 1.74341 0
M  V30 4981 O 448.872 -1.48609 1.03852 0
M  V30 4982 C 448.92 1.06958 3.44372 0
M  V30 4983 O 448.024 0.181983 4.11998 0
M  V30 4984 H 447.365 0.269626 0.606793 0
M  V30 4985 H 449.895 1.36158 1.52716 0
M  V30 4986 H 449.905 1.02182 3.94997 0
M  V30 4987 H 448.58 2.11378 3.58179 0
M  V30 4988 H 447.157 0.287378 3.71791 0
M  V30 4989 N 449.342 -1.36122 0.79427 0
M  V30 4990 C 450.591 -1.98361 0.365464 0
M  V30 4991 C 450.904 -1.6374 -1.06997 0
M  V30 4992 O 452.11 -2.19251 -1.60129 0
M  V30 4993 C 450.566 -3.54821 0.602496 0
M  V30 4994 C 450.174 -3.98362 2.04967 0
M  V30 4995 C 451.918 -4.2383 0.238437 0
M  V30 4996 C 449.825 -5.47619 2.2331 0
M  V30 4997 H 448.755 -0.742193 0.13291 0
M  V30 4998 H 451.406 -1.55354 0.976589 0
M  V30 4999 H 449.788 -3.95922 -0.078409 0
M  V30 5000 H 450.962 -3.68447 2.76737 0
M  V30 5001 H 449.277 -3.42206 2.37243 0
M  V30 5002 H 451.874 -5.33529 0.353705 0
M  V30 5003 H 452.217 -4.08264 -0.814006 0
M  V30 5004 H 452.75 -3.88108 0.872769 0
M  V30 5005 H 449.489 -5.68138 3.26955 0
M  V30 5006 H 449.009 -5.79145 1.5605 0
M  V30 5007 H 450.688 -6.13911 2.0426 0
M  V30 5008 N 450.82 -0.546701 -1.47814 0
M  V30 5009 C 451.75 0.195317 -2.32682 0
M  V30 5010 C 452.731 0.918981 -1.43139 0
M  V30 5011 O 453.916 0.901501 -1.72008 0
M  V30 5012 C 451.046 1.23237 -3.247 0
M  V30 5013 C 450 0.625818 -4.234 0
M  V30 5014 C 449.326 1.76674 -5.04669 0
M  V30 5015 C 450.626 -0.413515 -5.2066 0
M  V30 5016 H 452.32 -0.513184 -2.94969 0
M  V30 5017 H 449.866 -0.248241 -1.41844 0
M  V30 5018 H 451.819 1.75955 -3.82907 0
M  V30 5019 H 450.543 1.97067 -2.60446 0
M  V30 5020 H 449.202 0.120023 -3.66403 0
M  V30 5021 H 448.85 2.49383 -4.36826 0
M  V30 5022 H 448.55 1.36673 -5.71484 0
M  V30 5023 H 450.074 2.29738 -5.65732 0
M  V30 5024 H 451.488 0.0272042 -5.73294 0
M  V30 5025 H 449.885 -0.731825 -5.95621 0
M  V30 5026 H 450.955 -1.31325 -4.66778 0
M  V30 5027 N 452.299 1.55045 -0.282633 0
M  V30 5028 C 453.524 2.04628 0.337977 0
M  V30 5029 C 453.949 1.15937 1.48123 0
M  V30 5030 O 453.307 0.159532 1.80597 0
M  V30 5031 C 453.355 3.51854 0.78936 0
M  V30 5032 O 452.459 3.66236 1.89592 0
M  V30 5033 H 451.8 0.660434 0.0687261 0
M  V30 5034 H 454.33 2.00261 -0.419124 0
M  V30 5035 H 454.34 3.93361 1.08311 0
M  V30 5036 H 453.015 4.15873 -0.0470419 0
M  V30 5037 H 451.592 3.36633 1.60413 0
M  V30 5038 N 453.777 0.010035 1.57597 0
M  V30 5039 C 455.054 -0.710296 1.82248 0
M  V30 5040 C 455.434 -1.91426 0.889911 0
M  V30 5041 O 454.782 -2.28424 -0.0590292 0
M  V30 5042 C 454.992 -1.10655 3.30993 0
M  V30 5043 C 456.34 -1.50621 3.96987 0
M  V30 5044 O 457.364 -1.20007 3.35375 0
M  V30 5045 O 456.223 -2.07587 5.05539 0
M  V30 5046 H 453.317 -0.34673 0.750804 0
M  V30 5047 H 455.863 0.0362578 1.69661 0
M  V30 5048 H 454.635 -0.248826 3.90508 0
M  V30 5049 H 454.258 -1.91189 3.48615 0
M  V30 5050 N 455.255 -1.55392 -0.262866 0
M  V30 5051 C 456.202 -1.88966 -1.32516 0
M  V30 5052 C 457.172 -0.742187 -1.48596 0
M  V30 5053 O 458.357 -0.99439 -1.62839 0
M  V30 5054 C 455.497 -2.17592 -2.67858 0
M  V30 5055 C 454.61 -3.45061 -2.59917 0
M  V30 5056 C 453.745 -3.63336 -3.87505 0
M  V30 5057 C 452.784 -4.84462 -3.74116 0
M  V30 5058 N 451.921 -4.99342 -4.93561 0
M  V30 5059 H 456.761 -2.79566 -1.03184 0
M  V30 5060 H 454.298 -1.38404 -0.498285 0
M  V30 5061 H 456.256 -2.3219 -3.46617 0
M  V30 5062 H 454.886 -1.30215 -2.95371 0
M  V30 5063 H 453.938 -3.38881 -1.72812 0
M  V30 5064 H 455.25 -4.3396 -2.45926 0
M  V30 5065 H 454.404 -3.77807 -4.74707 0
M  V30 5066 H 453.143 -2.72641 -4.04374 0
M  V30 5067 H 452.148 -4.69985 -2.85297 0
M  V30 5068 H 453.373 -5.76603 -3.58757 0
M  V30 5069 H 451.319 -4.1158 -5.10821 0
M  V30 5070 H 451.236 -5.82303 -4.82141 0
M  V30 5071 H 452.504 -5.18208 -5.82306 0
M  V30 5072 N 456.733 0.527833 -1.48498 0
M  V30 5073 C 458.01 1.28905 -1.47115 0
M  V30 5074 C 458.39 2.10297 -0.184007 0
M  V30 5075 O 457.738 2.12728 0.834218 0
M  V30 5076 C 457.948 2.16866 -2.73441 0
M  V30 5077 C 459.296 2.76936 -3.21857 0
M  V30 5078 O 460.32 2.27152 -2.74373 0
M  V30 5079 O 459.179 3.67496 -4.04486 0
M  V30 5080 H 456.273 0.581918 -0.587623 0
M  V30 5081 H 458.819 0.544311 -1.60734 0
M  V30 5082 H 457.591 1.56521 -3.58632 0
M  V30 5083 H 457.214 2.98583 -2.62553 0
M  V30 5084 N 458.211 1.37122 0.776871 0
M  V30 5085 C 459.141 1.35164 1.90402 0
M  V30 5086 C 460.122 0.221069 1.68657 0
M  V30 5087 O 461.307 0.420642 1.8959 0
M  V30 5088 C 458.437 1.15274 3.27611 0
M  V30 5089 C 457.391 2.25289 3.63908 0
M  V30 5090 C 456.717 1.90527 4.99603 0
M  V30 5091 C 458.017 3.67446 3.71188 0
M  V30 5092 H 459.711 2.29482 1.92297 0
M  V30 5093 H 457.257 1.10465 0.923773 0
M  V30 5094 H 459.21 1.12536 4.06096 0
M  V30 5095 H 457.934 0.174102 3.26136 0
M  V30 5096 H 456.593 2.27174 2.87728 0
M  V30 5097 H 456.241 0.91206 4.94662 0
M  V30 5098 H 455.941 2.64193 5.24858 0
M  V30 5099 H 457.465 1.89367 5.80493 0
M  V30 5100 H 458.879 3.67719 4.39836 0
M  V30 5101 H 457.276 4.40123 4.07936 0
M  V30 5102 H 458.346 4.01443 2.71977 0
M  V30 5103 N 459.689 -1.00246 1.21608 0
M  V30 5104 C 461.105 -1.26435 0.973975 0
M  V30 5105 C 461.305 -1.98642 -0.338143 0
M  V30 5106 O 460.361 -2.29026 -1.06317 0
M  V30 5107 C 461.674 -2.08551 2.16626 0
M  V30 5108 C 463.222 -2.21769 2.20879 0
M  V30 5109 C 463.697 -3.07267 3.39633 0
M  V30 5110 N 465.188 -3.14855 3.39736 0
M  V30 5111 C 465.923 -3.81274 4.28273 0
M  V30 5112 N 465.419 -4.497 5.27012 0
M  V30 5113 N 467.212 -3.7794 4.16074 0
M  V30 5114 H 459.363 -0.518089 2.05984 0
M  V30 5115 H 461.626 -0.291368 0.902113 0
M  V30 5116 H 461.332 -1.62847 3.11727 0
M  V30 5117 H 461.206 -3.09303 2.15897 0
M  V30 5118 H 463.593 -2.66691 1.26332 0
M  V30 5119 H 463.674 -1.20478 2.25652 0
M  V30 5120 H 463.318 -2.63047 4.34475 0
M  V30 5121 H 463.248 -4.08678 3.321 0
M  V30 5122 H 465.739 -2.66147 2.6828 0
M  V30 5123 H 466.052 -4.98092 5.90867 0
M  V30 5124 H 464.397 -4.48479 5.30935 0
M  V30 5125 H 467.588 -3.23638 3.38195 0
M  V30 5126 H 467.761 -4.29424 4.85282 0
M  V30 5127 N 461.167 -1.02423 -1.1978 0
M  V30 5128 C 462.13 -0.605703 -2.21052 0
M  V30 5129 C 463.13 0.328209 -1.57415 0
M  V30 5130 O 464.32 0.115853 -1.73814 0
M  V30 5131 C 461.452 0.114366 -3.40708 0
M  V30 5132 H 462.645 -1.5017 -2.59594 0
M  V30 5133 H 460.198 -0.814888 -1.33376 0
M  V30 5134 H 460.933 1.02492 -3.07678 0
M  V30 5135 H 460.718 -0.556641 -3.88129 0
M  V30 5136 H 462.208 0.394272 -4.15735 0
M  V30 5137 N 462.645 1.35699 -0.801477 0
M  V30 5138 C 463.555 2.33661 -0.209691 0
M  V30 5139 C 464.571 1.6162 0.644591 0
M  V30 5140 O 465.747 1.93529 0.557545 0
M  V30 5141 C 462.812 3.40816 0.636033 0
M  V30 5142 C 461.873 4.28639 -0.238147 0
M  V30 5143 C 461.106 5.30676 0.567307 0
M  V30 5144 O 461.329 5.41174 1.8024 0
M  V30 5145 O 460.263 6.01887 -0.0391336 0
M  V30 5146 H 464.089 2.8606 -1.01996 0
M  V30 5147 H 461.674 1.38379 -0.563164 0
M  V30 5148 H 463.556 4.06301 1.11791 0
M  V30 5149 H 462.231 2.90696 1.42399 0
M  V30 5150 H 461.138 3.66152 -0.767044 0
M  V30 5151 H 462.471 4.82143 -0.989915 0
M  V30 5152 N 464.123 0.554532 1.47522 0
M  V30 5153 C 465.369 0.0295227 2.02779 0
M  V30 5154 C 465.702 -1.31582 1.42828 0
M  V30 5155 O 464.977 -1.85561 0.582872 0
M  V30 5156 C 465.26 -0.0664057 3.60039 0
M  V30 5157 C 465.113 1.30585 4.30427 0
M  V30 5158 C 466.432 -0.781162 4.33112 0
M  V30 5159 H 463.551 0.0122027 0.736899 0
M  V30 5160 H 466.193 0.716305 1.7598 0
M  V30 5161 H 464.343 -0.651307 3.83002 0
M  V30 5162 H 466.015 1.93374 4.18813 0
M  V30 5163 H 464.258 1.88125 3.90886 0
M  V30 5164 H 464.929 1.19147 5.38988 0
M  V30 5165 H 467.405 -0.284565 4.15126 0
M  V30 5166 H 466.281 -0.817237 5.42782 0
M  V30 5167 H 466.542 -1.83672 4.0214 0
M  V30 5168 N 465.601 -1.54893 0.290851 0
M  V30 5169 C 466.878 -1.91991 -0.373989 0
M  V30 5170 C 467.258 -1.21694 -1.72493 0
M  V30 5171 O 466.606 -0.34917 -2.25816 0
M  V30 5172 C 466.816 -3.45419 -0.498703 0
M  V30 5173 C 468.164 -4.1748 -0.774298 0
M  V30 5174 O 469.188 -3.51398 -0.582908 0
M  V30 5175 O 468.047 -5.3445 -1.14129 0
M  V30 5176 H 465.141 -0.800593 -0.207315 0
M  V30 5177 H 467.687 -1.66297 0.338164 0
M  V30 5178 H 466.459 -3.88688 0.451392 0
M  V30 5179 H 466.082 -3.77117 -1.25972 0
M  V30 5180 N 467.08 -0.0183926 -1.57589 0
M  V30 5181 C 468.308 0.673046 -1.95647 0
M  V30 5182 C 468.723 1.66275 -0.894312 0
M  V30 5183 O 468.08 1.82072 0.124975 0
M  V30 5184 C 468.131 1.38884 -3.33756 0
M  V30 5185 O 467.852 0.438806 -4.35897 0
M  V30 5186 C 469.353 2.1731 -3.86383 0
M  V30 5187 H 466.573 0.186292 -0.644621 0
M  V30 5188 H 469.117 -0.0749748 -2.04363 0
M  V30 5189 H 467.272 2.08835 -3.26293 0
M  V30 5190 H 467.686 0.945869 -5.15901 0
M  V30 5191 H 469.16 2.62863 -4.85394 0
M  V30 5192 H 469.637 3.00764 -3.20059 0
M  V30 5193 H 470.243 1.52339 -3.97081 0
M  V30 5194 N 468.558 1.5553 0.254621 0
M  V30 5195 C 469.805 1.77 0.983736 0
M  V30 5196 C 470.133 0.58133 1.85609 0
M  V30 5197 O 469.388 -0.435621 1.9079 0
M  V30 5198 C 469.687 3.03891 1.88109 0
M  V30 5199 C 469.353 4.35597 1.16472 0
M  V30 5200 C 468.015 4.7139 0.966714 0
M  V30 5201 C 470.367 5.1705 0.656387 0
M  V30 5202 C 467.695 5.86176 0.247942 0
M  V30 5203 C 470.047 6.32581 -0.0488807 0
M  V30 5204 C 468.711 6.67 -0.258438 0
M  V30 5205 H 467.981 0.647688 0.359974 0
M  V30 5206 H 470.628 1.89802 0.254463 0
M  V30 5207 H 468.933 2.86068 2.67717 0
M  V30 5208 H 470.63 3.17701 2.44677 0
M  V30 5209 H 467.22 4.07475 1.32899 0
M  V30 5210 H 471.404 4.8986 0.796933 0
M  V30 5211 H 466.66 6.11354 0.075035 0
M  V30 5212 H 470.834 6.94942 -0.450444 0
M  V30 5213 H 468.461 7.55793 -0.817358 0
M  V30 5214 N 470.036 -0.519951 1.48776 0
M  V30 5215 C 470.969 -1.64053 1.58625 0
M  V30 5216 C 471.947 -1.5664 0.43618 0
M  V30 5217 O 473.131 -1.76969 0.649159 0
M  V30 5218 C 470.258 -3.02497 1.52359 0
M  V30 5219 C 469.304 -3.28235 2.72331 0
M  V30 5220 S 470.137 -3.13414 4.34203 0
M  V30 5221 C 471.293 -4.54287 4.30551 0
M  V30 5222 H 471.526 -1.5545 2.53422 0
M  V30 5223 H 469.059 -0.703681 1.37433 0
M  V30 5224 H 471.017 -3.82336 1.4943 0
M  V30 5225 H 469.678 -3.08531 0.588824 0
M  V30 5226 H 468.871 -4.29256 2.64113 0
M  V30 5227 H 468.473 -2.56085 2.72574 0
M  V30 5228 H 470.765 -5.46006 4.01103 0
M  V30 5229 H 471.708 -4.67558 5.31785 0
M  V30 5230 H 472.116 -4.34079 3.60881 0
M  V30 5231 N 471.514 -1.37532 -0.769588 0
M  V30 5232 C 472.761 -1.3286 -1.52822 0
M  V30 5233 C 473.089 0.0862597 -1.94309 0
M  V30 5234 O 472.344 1.05995 -1.6451 0
M  V30 5235 C 472.643 -2.21558 -2.8044 0
M  V30 5236 C 472.309 -3.69796 -2.57996 0
M  V30 5237 C 470.971 -4.10194 -2.51583 0
M  V30 5238 C 473.323 -4.63699 -2.37976 0
M  V30 5239 C 470.651 -5.42608 -2.23144 0
M  V30 5240 C 473.003 -5.96353 -2.1106 0
M  V30 5241 C 471.667 -6.35853 -2.03093 0
M  V30 5242 H 470.937 -0.486168 -0.559215 0
M  V30 5243 H 473.584 -1.69757 -0.886277 0
M  V30 5244 H 471.889 -1.77663 -3.49204 0
M  V30 5245 H 473.586 -2.15256 -3.38328 0
M  V30 5246 H 470.176 -3.37759 -2.63851 0
M  V30 5247 H 474.36 -4.33346 -2.41919 0
M  V30 5248 H 469.616 -5.72173 -2.15472 0
M  V30 5249 H 473.79 -6.68667 -1.94568 0
M  V30 5250 H 471.417 -7.38382 -1.8082 0
M  V30 5251 N 472.992 0.995999 -1.22138 0
M  V30 5252 C 473.902 2.11985 -1.00496 0
M  V30 5253 C 474.918 1.7394 0.0457701 0
M  V30 5254 O 476.094 2.00868 -0.146273 0
M  V30 5255 C 473.159 3.41779 -0.582086 0
M  V30 5256 C 472.22 3.93943 -1.70608 0
M  V30 5257 C 471.453 5.17542 -1.30328 0
M  V30 5258 O 471.676 5.70114 -0.180743 0
M  V30 5259 O 470.61 5.63382 -2.11861 0
M  V30 5260 H 474.436 2.33123 -1.94647 0
M  V30 5261 H 472.021 1.10358 -1.00705 0
M  V30 5262 H 473.903 4.1989 -0.356467 0
M  V30 5263 H 472.578 3.22007 0.330592 0
M  V30 5264 H 471.485 3.17019 -1.98619 0
M  V30 5265 H 472.818 4.18141 -2.59651 0
M  V30 5266 N 474.47 1.03057 1.19235 0
M  V30 5267 C 475.718 0.726581 1.88587 0
M  V30 5268 C 476.039 -0.747227 1.80115 0
M  V30 5269 O 475.309 -1.53849 1.21274 0
M  V30 5270 H 473.889 0.265768 0.698124 0
M  V30 5271 H 476.551 1.30516 1.44746 0
M  V30 5272 H 475.647 1.0224 2.94879 0
M  V30 5273 N 475.948 -1.35272 0.808662 0
M  V30 5274 C 476.898 -2.27181 0.193124 0
M  V30 5275 C 477.882 -1.47871 -0.634265 0
M  V30 5276 O 479.074 -1.70048 -0.491182 0
M  V30 5277 C 476.203 -3.36979 -0.655751 0
M  V30 5278 C 475.289 -4.23712 0.181481 0
M  V30 5279 N 475.68 -4.90225 1.24551 0
M  V30 5280 C 473.978 -4.45985 -0.0365493 0
M  V30 5281 C 474.679 -5.54537 1.75682 0
M  V30 5282 N 473.655 -5.33107 1.06294 0
M  V30 5283 H 477.457 -2.76101 1.00724 0
M  V30 5284 H 474.971 -1.48823 0.650029 0
M  V30 5285 H 476.968 -4.01774 -1.11279 0
M  V30 5286 H 475.628 -2.89611 -1.46819 0
M  V30 5287 H 476.639 -4.91641 1.62818 0
M  V30 5288 H 473.316 -4.09409 -0.817964 0
M  V30 5289 H 474.706 -6.17597 2.64621 0
M  V30 5290 N 477.426 -0.562348 -1.47226 0
M  V30 5291 C 478.703 0.0256985 -1.95583 0
M  V30 5292 C 479.083 1.48032 -1.50498 0
M  V30 5293 O 478.431 2.15973 -0.746181 0
M  V30 5294 C 478.641 -0.125129 -3.48776 0
M  V30 5295 C 479.989 0.0175728 -4.24596 0
M  V30 5296 O 481.013 -0.0529341 -3.56161 0
M  V30 5297 O 479.872 0.170145 -5.46235 0
M  V30 5298 H 476.966 0.0612565 -0.824728 0
M  V30 5299 H 479.512 -0.629233 -1.57603 0
M  V30 5300 H 478.284 -1.13715 -3.74412 0
M  V30 5301 H 477.907 0.567178 -3.93534 0
M  V30 5302 N 478.904 1.54736 -0.299062 0
M  V30 5303 C 480.132 2.04512 0.313447 0
M  V30 5304 C 480.547 1.17643 1.47667 0
M  V30 5305 O 479.904 0.20164 1.81383 0
M  V30 5306 C 479.955 3.53171 0.771542 0
M  V30 5307 O 479.676 4.36736 -0.345379 0
M  V30 5308 C 481.177 4.18936 1.4494 0
M  V30 5309 H 478.397 0.667507 0.0683784 0
M  V30 5310 H 480.941 1.99752 -0.438129 0
M  V30 5311 H 479.096 3.58298 1.47314 0
M  V30 5312 H 479.51 5.24499 0.0109219 0
M  V30 5313 H 480.984 5.24482 1.72111 0
M  V30 5314 H 481.461 3.68554 2.38883 0
M  V30 5315 H 482.067 4.17879 0.791028 0
M  V30 5316 N 480.382 0.0267497 1.57577 0
M  V30 5317 C 481.61 -0.662661 1.96001 0
M  V30 5318 C 482.025 -1.65799 0.903117 0
M  V30 5319 O 481.382 -1.82135 -0.115317 0
M  V30 5320 C 481.433 -1.37112 3.34488 0
M  V30 5321 O 481.154 -0.415683 4.36123 0
M  V30 5322 C 482.655 -2.15257 3.8753 0
M  V30 5323 H 479.875 -0.18287 0.6456 0
M  V30 5324 H 482.419 0.0858116 2.0432 0
M  V30 5325 H 480.574 -2.07101 3.27395 0
M  V30 5326 H 480.988 -0.918496 5.16395 0
M  V30 5327 H 482.462 -2.60285 4.86781 0
M  V30 5328 H 482.939 -2.99063 3.21649 0
M  V30 5329 H 483.545 -1.50231 3.97883 0
M  V30 5330 N 481.861 -1.55662 -0.24637 0
M  V30 5331 C 482.824 -1.89558 -1.28842 0
M  V30 5332 C 483.824 -0.772082 -1.41052 0
M  V30 5333 O 485.014 -1.04007 -1.39743 0
M  V30 5334 C 482.146 -2.12449 -2.66605 0
M  V30 5335 H 483.339 -2.82735 -1.00004 0
M  V30 5336 H 480.892 -1.48562 -0.485684 0
M  V30 5337 H 481.627 -1.21742 -3.00582 0
M  V30 5338 H 481.412 -2.94273 -2.59125 0
M  V30 5339 H 482.902 -2.39854 -3.41847 0
M  V30 5340 N 483.339 0.512053 -1.4905 0
M  V30 5341 C 484.564 1.2959 -1.6193 0
M  V30 5342 C 484.989 1.85906 -0.286454 0
M  V30 5343 O 484.347 1.65312 0.744426 0
M  V30 5344 C 484.395 2.40987 -2.68249 0
M  V30 5345 O 483.499 3.44531 -2.26654 0
M  V30 5346 H 482.84 0.383053 -0.542371 0
M  V30 5347 H 485.37 0.614231 -1.95162 0
M  V30 5348 H 485.38 2.86913 -2.90078 0
M  V30 5349 H 484.055 1.99361 -3.65004 0
M  V30 5350 H 482.632 3.046 -2.15112 0
M  V30 5351 N 484.817 1.37938 0.762283 0
M  V30 5352 C 486.065 1.33404 1.51815 0
M  V30 5353 C 486.386 -0.0780975 1.94844 0
M  V30 5354 O 485.656 -1.02405 1.67003 0
M  V30 5355 H 484.236 0.490839 0.563104 0
M  V30 5356 H 486.898 1.72527 0.906669 0
M  V30 5357 H 485.994 1.97926 2.41313 0
M  V30 5358 N 486.295 -0.989507 1.22664 0
M  V30 5359 C 487.544 -1.72375 1.04737 0
M  V30 5360 C 487.857 -1.91096 -0.417316 0
M  V30 5361 O 489.063 -2.6188 -0.716334 0
M  V30 5362 C 487.519 -3.10161 1.82561 0
M  V30 5363 C 487.127 -2.99358 3.333 0
M  V30 5364 C 488.871 -3.87607 1.73093 0
M  V30 5365 C 486.778 -4.32319 4.03552 0
M  V30 5366 H 485.708 -0.646326 0.388302 0
M  V30 5367 H 488.359 -1.10437 1.46546 0
M  V30 5368 H 486.741 -3.728 1.33552 0
M  V30 5369 H 487.915 -2.45863 3.89728 0
M  V30 5370 H 486.23 -2.35392 3.43481 0
M  V30 5371 H 488.827 -4.86025 2.22899 0
M  V30 5372 H 489.17 -4.10509 0.691976 0
M  V30 5373 H 489.703 -3.31652 2.19663 0
M  V30 5374 H 486.442 -4.14616 5.07714 0
M  V30 5375 H 485.962 -4.85714 3.51911 0
M  V30 5376 H 487.641 -5.01051 4.09337 0
M  V30 5377 N 487.773 -1.03688 -1.18687 0
M  V30 5378 C 488.998 -0.757819 -1.93059 0
M  V30 5379 C 489.423 0.678353 -1.75442 0
M  V30 5380 O 488.781 1.46938 -1.06203 0
M  V30 5381 C 488.829 -1.12423 -3.42627 0
M  V30 5382 O 487.933 -0.247505 -4.11657 0
M  V30 5383 H 487.274 -0.279245 -0.602427 0
M  V30 5384 H 489.804 -1.3857 -1.5053 0
M  V30 5385 H 489.814 -1.08454 -3.93322 0
M  V30 5386 H 488.489 -2.17049 -3.54771 0
M  V30 5387 H 487.066 -0.34649 -3.71287 0
M  V30 5388 N 489.251 1.34841 -0.815825 0
M  V30 5389 C 490.497 1.99219 -0.410288 0
M  V30 5390 C 490.852 1.63532 1.01366 0
M  V30 5391 O 490.145 0.893093 1.69512 0
M  V30 5392 C 490.339 3.53273 -0.541541 0
M  V30 5393 C 490.168 4.03927 -1.9767 0
M  V30 5394 C 488.938 4.32852 -2.60706 0
M  V30 5395 C 491.136 4.21808 -2.9425 0
M  V30 5396 N 489.118 4.69494 -3.95536 0
M  V30 5397 C 490.489 4.6155 -4.13971 0
M  V30 5398 C 492.544 4.04038 -2.9096 0
M  V30 5399 C 491.247 4.85381 -5.30847 0
M  V30 5400 C 493.273 4.29031 -4.07046 0
M  V30 5401 C 492.635 4.69054 -5.25517 0
M  V30 5402 H 488.734 0.756494 -0.198094 0
M  V30 5403 H 491.318 1.63379 -1.05902 0
M  V30 5404 H 489.489 3.88323 0.0772544 0
M  V30 5405 H 491.221 4.04551 -0.109694 0
M  V30 5406 H 487.976 4.23503 -2.11995 0
M  V30 5407 H 488.4 4.92061 -4.64979 0
M  V30 5408 H 493.042 3.7223 -2.00512 0
M  V30 5409 H 490.76 5.16059 -6.21859 0
M  V30 5410 H 494.346 4.16826 -4.05891 0
M  V30 5411 H 493.226 4.88014 -6.1385 0
M  V30 5412 N 490.729 0.570148 1.46925 0
M  V30 5413 C 491.978 0.0487352 2.01641 0
M  V30 5414 C 492.291 -1.31433 1.44861 0
M  V30 5415 O 493.497 -1.92638 1.91318 0
M  V30 5416 C 491.953 0.0365817 3.59881 0
M  V30 5417 C 491.561 1.39719 4.25655 0
M  V30 5418 C 493.305 -0.431545 4.22301 0
M  V30 5419 C 491.212 1.34345 5.75939 0
M  V30 5420 H 490.142 0.0144492 0.753862 0
M  V30 5421 H 492.793 0.719928 1.68788 0
M  V30 5422 H 491.175 -0.700522 3.89755 0
M  V30 5423 H 492.349 2.15303 4.07408 0
M  V30 5424 H 490.664 1.80431 3.75278 0
M  V30 5425 H 493.261 -0.490354 5.32447 0
M  V30 5426 H 493.604 -1.44638 3.90366 0
M  V30 5427 H 494.137 0.251102 3.97007 0
M  V30 5428 H 490.876 2.33469 6.12513 0
M  V30 5429 H 490.396 0.629615 5.96486 0
M  V30 5430 H 492.075 1.051 6.38407 0
M  V30 5431 N 492.207 -1.54576 0.307264 0
M  V30 5432 C 493.137 -2.26708 -0.55907 0
M  V30 5433 C 494.118 -1.26893 -1.1328 0
M  V30 5434 O 495.303 -1.55677 -1.16097 0
M  V30 5435 C 492.433 -3.01259 -1.72801 0
M  V30 5436 C 491.387 -4.08275 -1.28435 0
M  V30 5437 C 490.713 -4.70575 -2.53895 0
M  V30 5438 C 492.013 -5.2068 -0.411038 0
M  V30 5439 H 493.707 -2.9937 0.042576 0
M  V30 5440 H 491.253 -1.43983 0.0219173 0
M  V30 5441 H 493.206 -3.50444 -2.34023 0
M  V30 5442 H 491.93 -2.26187 -2.356 0
M  V30 5443 H 490.589 -3.59949 -0.695161 0
M  V30 5444 H 490.237 -3.92136 -3.15021 0
M  V30 5445 H 489.937 -5.42854 -2.24908 0
M  V30 5446 H 491.461 -5.22527 -3.15908 0
M  V30 5447 H 492.875 -5.65721 -0.929097 0
M  V30 5448 H 491.272 -5.99716 -0.214664 0
M  V30 5449 H 492.342 -4.81629 0.562287 0
M  V30 5450 N 493.685 -0.035106 -1.57561 0
M  V30 5451 C 494.915 0.651312 -1.96065 0
M  V30 5452 C 495.323 1.6585 -0.910514 0
M  V30 5453 O 494.666 1.83336 0.11552 0
M  V30 5454 C 494.728 1.40897 -3.30739 0
M  V30 5455 C 494.392 0.559436 -4.53563 0
M  V30 5456 C 495.389 -0.16778 -5.19629 0
M  V30 5457 C 493.074 0.495079 -4.99854 0
M  V30 5458 C 495.068 -0.947963 -6.30311 0
M  V30 5459 C 492.755 -0.288804 -6.10417 0
M  V30 5460 C 493.753 -1.00903 -6.75505 0
M  V30 5461 O 493.441 -1.78005 -7.83945 0
M  V30 5462 H 493.173 0.184036 -0.650467 0
M  V30 5463 H 495.727 -0.0929677 -2.05189 0
M  V30 5464 H 493.957 2.19852 -3.18123 0
M  V30 5465 H 495.646 1.98407 -3.54104 0
M  V30 5466 H 496.412 -0.12743 -4.84833 0
M  V30 5467 H 492.291 1.04524 -4.48994 0
M  V30 5468 H 495.835 -1.51064 -6.81047 0
M  V30 5469 H 491.732 -0.33085 -6.44652 0
M  V30 5470 H 492.5 -1.70046 -8.00641 0
M  V30 5471 N 495.163 1.55791 0.238111 0
M  V30 5472 C 496.126 1.90239 1.27835 0
M  V30 5473 C 497.126 0.779552 1.4064 0
M  V30 5474 O 498.316 1.04747 1.3919 0
M  V30 5475 C 495.448 2.13859 2.65475 0
M  V30 5476 H 496.641 2.83262 0.985034 0
M  V30 5477 H 494.194 1.48818 0.477799 0
M  V30 5478 H 494.929 1.23334 2.99932 0
M  V30 5479 H 494.714 2.95643 2.57561 0
M  V30 5480 H 496.204 2.41664 3.40571 0
M  V30 5481 N 496.642 -0.504142 1.49319 0
M  V30 5482 C 497.572 -1.61473 1.68667 0
M  V30 5483 C 498.553 -1.61455 0.535378 0
M  V30 5484 O 499.738 -1.78245 0.770868 0
M  V30 5485 C 496.868 -2.99971 1.75028 0
M  V30 5486 C 495.822 -3.14854 2.89916 0
M  V30 5487 C 495.148 -4.54671 2.81387 0
M  V30 5488 C 496.448 -2.95176 4.30893 0
M  V30 5489 H 498.142 -1.45535 2.61648 0
M  V30 5490 H 495.688 -0.698711 1.25913 0
M  V30 5491 H 497.641 -3.77562 1.8715 0
M  V30 5492 H 496.365 -3.1699 0.786441 0
M  V30 5493 H 495.024 -2.39687 2.77391 0
M  V30 5494 H 494.672 -4.68562 1.82917 0
M  V30 5495 H 494.372 -4.6557 3.58494 0
M  V30 5496 H 495.896 -5.34327 2.95512 0
M  V30 5497 H 497.31 -3.62538 4.44116 0
M  V30 5498 H 495.707 -3.17549 5.09198 0
M  V30 5499 H 496.777 -1.91332 4.45556 0
M  V30 5500 N 498.12 -1.38341 -0.754957 0
M  V30 5501 C 499.083 -1.35262 -1.85032 0
M  V30 5502 C 500.083 -0.253393 -1.58791 0
M  V30 5503 O 501.273 -0.510205 -1.66561 0
M  V30 5504 C 498.405 -1.10544 -3.22479 0
M  V30 5505 H 499.598 -2.32712 -1.8917 0
M  V30 5506 H 497.151 -1.23614 -0.956515 0
M  V30 5507 H 497.886 -0.136952 -3.24011 0
M  V30 5508 H 497.671 -1.90127 -3.4292 0
M  V30 5509 H 499.161 -1.11082 -4.02555 0
M  V30 5510 N 499.598 0.982988 -1.23187 0
M  V30 5511 C 500.826 1.75921 -1.08901 0
M  V30 5512 C 501.241 1.85341 0.359719 0
M  V30 5513 O 500.598 1.33072 1.24892 0
M  V30 5514 C 500.649 3.18742 -1.70545 0
M  V30 5515 O 500.37 3.09814 -3.09753 0
M  V30 5516 C 501.871 4.1277 -1.61667 0
M  V30 5517 H 499.091 0.552166 -0.381252 0
M  V30 5518 H 501.635 1.23516 -1.62985 0
M  V30 5519 H 499.79 3.68182 -1.20501 0
M  V30 5520 H 500.204 3.99703 -3.39614 0
M  V30 5521 H 501.678 5.10697 -2.09506 0
M  V30 5522 H 502.155 4.3542 -0.575009 0
M  V30 5523 H 502.761 3.69232 -2.11064 0
M  V30 5524 N 501.076 1.04316 1.18135 0
M  V30 5525 C 502.026 0.606731 2.19779 0
M  V30 5526 C 503.01 -0.352144 1.56999 0
M  V30 5527 O 504.202 -0.170795 1.76174 0
M  V30 5528 C 501.331 -0.0262443 3.4329 0
M  V30 5529 C 500.417 0.955928 4.13186 0
M  V30 5530 N 500.808 2.12395 4.59045 0
M  V30 5531 C 499.106 0.782473 4.39082 0
M  V30 5532 C 499.807 2.74458 5.12882 0
M  V30 5533 N 498.783 2.02316 5.04548 0
M  V30 5534 H 502.585 1.49679 2.5293 0
M  V30 5535 H 500.099 0.912088 1.34368 0
M  V30 5536 H 502.096 -0.356617 4.15372 0
M  V30 5537 H 500.756 -0.911811 3.11635 0
M  V30 5538 H 501.767 2.50272 4.53414 0
M  V30 5539 H 498.444 -0.0527906 4.17467 0
M  V30 5540 H 499.834 3.73459 5.5855 0
M  V30 5541 N 502.554 -1.34406 0.822964 0
M  V30 5542 C 503.965 -1.8069 0.469879 0
M  V30 5543 C 504.316 -1.68223 -1.00972 0
M  V30 5544 O 503.441 -1.22226 -1.78577 0
M  V30 5545 C 504.036 -3.28064 0.846118 0
M  V30 5546 C 502.595 -3.72428 0.545402 0
M  V30 5547 C 501.742 -2.56116 1.06301 0
M  V30 5548 H 504.693 -1.22153 1.01313 0
M  V30 5549 H 504.714 -3.80205 0.149922 0
M  V30 5550 H 504.226 -3.37107 1.92304 0
M  V30 5551 H 502.327 -3.68924 -0.522109 0
M  V30 5552 H 502.44 -4.66548 1.0895 0
M  V30 5553 H 500.804 -2.50048 0.484554 0
M  V30 5554 H 501.587 -2.67928 2.14638 0
M  V30 5555 N 504.032 -0.577932 -1.46621 0
M  V30 5556 C 504.979 0.158048 -2.30258 0
M  V30 5557 C 505.949 0.888669 -1.40328 0
M  V30 5558 O 507.134 0.880283 -1.6928 0
M  V30 5559 C 504.274 1.16884 -3.24703 0
M  V30 5560 C 503.387 0.442163 -4.29731 0
M  V30 5561 C 502.522 1.44007 -5.11308 0
M  V30 5562 C 501.561 0.69952 -6.0809 0
M  V30 5563 N 500.698 1.64525 -6.82551 0
M  V30 5564 H 505.538 -0.561242 -2.92667 0
M  V30 5565 H 503.075 -0.288591 -1.44241 0
M  V30 5566 H 505.033 1.7677 -3.779 0
M  V30 5567 H 503.663 1.85591 -2.64113 0
M  V30 5568 H 502.715 -0.271632 -3.79429 0
M  V30 5569 H 504.027 -0.136992 -4.98612 0
M  V30 5570 H 503.181 2.11186 -5.68758 0
M  V30 5571 H 501.92 2.05315 -4.42377 0
M  V30 5572 H 500.925 0.0139217 -5.49798 0
M  V30 5573 H 502.15 0.091894 -6.79038 0
M  V30 5574 H 500.096 2.24653 -6.16334 0
M  V30 5575 H 500.013 1.11878 -7.47676 0
M  V30 5576 H 501.281 2.30754 -7.44562 0
M  V30 5577 N 505.51 1.54411 -0.315457 0
M  V30 5578 C 506.46 2.20772 0.569549 0
M  V30 5579 C 507.444 1.18551 1.08787 0
M  V30 5580 O 508.636 1.44213 1.02624 0
M  V30 5581 C 505.765 2.96293 1.73394 0
M  V30 5582 C 504.851 4.05844 1.2309 0
M  V30 5583 N 505.242 5.03822 0.446927 0
M  V30 5584 C 503.54 4.19648 1.51035 0
M  V30 5585 C 504.241 5.8143 0.17725 0
M  V30 5586 N 503.217 5.38245 0.761118 0
M  V30 5587 H 507.019 2.93877 -0.0368076 0
M  V30 5588 H 504.533 1.61949 -0.120915 0
M  V30 5589 H 506.53 3.42313 2.37965 0
M  V30 5590 H 505.19 2.24708 2.34386 0
M  V30 5591 H 506.201 5.17821 0.0905027 0
M  V30 5592 H 502.878 3.59274 2.1267 0
M  V30 5593 H 504.268 6.70369 -0.45335 0
M  V30 5594 N 506.988 0.0434614 1.5754 0
M  V30 5595 C 507.92 -0.962586 2.08007 0
M  V30 5596 C 508.933 -1.27972 1.00634 0
M  V30 5597 O 510.122 -1.24186 1.28219 0
M  V30 5598 C 507.222 -2.28621 2.50171 0
M  V30 5599 C 506.395 -2.15214 3.80791 0
M  V30 5600 C 505.454 -3.30633 4.09351 0
M  V30 5601 O 504.48 -3.0688 4.79388 0
M  V30 5602 N 505.682 -4.54873 3.60654 0
M  V30 5603 H 508.447 -0.531891 2.94942 0
M  V30 5604 H 506.008 -0.142965 1.61268 0
M  V30 5605 H 508 -3.04689 2.66359 0
M  V30 5606 H 506.57 -2.63283 1.68525 0
M  V30 5607 H 505.79 -1.23785 3.74261 0
M  V30 5608 H 507.078 -2.03475 4.66343 0
M  V30 5609 H 506.476 -4.77063 3.04019 0
M  V30 5610 H 505.033 -5.2806 3.82094 0
M  V30 5611 N 508.466 -1.55915 -0.229846 0
M  V30 5612 C 509.376 -1.94891 -1.30593 0
M  V30 5613 C 510.392 -0.851604 -1.51736 0
M  V30 5614 O 511.568 -1.15447 -1.65027 0
M  V30 5615 C 508.633 -2.25052 -2.63728 0
M  V30 5616 C 507.694 -3.48306 -2.5096 0
M  V30 5617 C 506.927 -3.77019 -3.77747 0
M  V30 5618 O 507.15 -3.07534 -4.80395 0
M  V30 5619 O 506.084 -4.70523 -3.75356 0
M  V30 5620 H 509.91 -2.86581 -1.00525 0
M  V30 5621 H 507.495 -1.43017 -0.432025 0
M  V30 5622 H 509.377 -2.45682 -3.42372 0
M  V30 5623 H 508.052 -1.36538 -2.93495 0
M  V30 5624 H 506.959 -3.32964 -1.70546 0
M  V30 5625 H 508.292 -4.37177 -2.26136 0
M  V30 5626 N 509.944 0.496216 -1.49584 0
M  V30 5627 C 511.36 0.827814 -1.36453 0
M  V30 5628 C 511.56 1.97464 -0.401285 0
M  V30 5629 O 510.616 2.51958 0.165296 0
M  V30 5630 C 511.929 1.16352 -2.77277 0
M  V30 5631 C 513.477 1.27145 -2.86013 0
M  V30 5632 C 513.952 1.64042 -4.27615 0
M  V30 5633 N 515.443 1.71082 -4.30448 0
M  V30 5634 C 516.178 2.01085 -5.36984 0
M  V30 5635 N 515.674 2.2928 -6.5376 0
M  V30 5636 N 517.467 2.02376 -5.24405 0
M  V30 5637 H 509.618 -0.259947 -2.10803 0
M  V30 5638 H 511.881 -0.0537163 -0.946477 0
M  V30 5639 H 511.587 0.394153 -3.49484 0
M  V30 5640 H 511.461 2.10582 -3.12946 0
M  V30 5641 H 513.848 2.03152 -2.1404 0
M  V30 5642 H 513.929 0.309542 -2.5392 0
M  V30 5643 H 513.573 0.88583 -5.00115 0
M  V30 5644 H 513.503 2.6134 -4.57175 0
M  V30 5645 H 515.994 1.51434 -3.46232 0
M  V30 5646 H 516.307 2.51376 -7.30774 0
M  V30 5647 H 514.652 2.26726 -6.56978 0
M  V30 5648 H 517.843 1.79829 -4.32179 0
M  V30 5649 H 518.016 2.25425 -6.07526 0
M  V30 5650 N 511.423 1.38739 0.74761 0
M  V30 5651 C 512.663 1.36695 1.51966 0
M  V30 5652 C 513.027 -0.0411889 1.91956 0
M  V30 5653 O 514.228 -0.186543 2.68152 0
M  V30 5654 C 512.499 2.30119 2.73459 0
M  V30 5655 S 514.058 2.4615 3.63257 0
M  V30 5656 H 510.876 0.484929 0.519966 0
M  V30 5657 H 513.478 1.7472 0.877104 0
M  V30 5658 H 512.182 3.31312 2.422 0
M  V30 5659 H 511.713 1.93265 3.42655 0
M  V30 5660 H 513.728 1.69001 4.66533 0
M  V30 5661 N 512.901 -0.976442 1.23707 0
M  V30 5662 C 514.317 -1.24341 1.00058 0
M  V30 5663 C 514.517 -1.99315 -0.295932 0
M  V30 5664 O 513.573 -2.3123 -1.01435 0
M  V30 5665 C 514.886 -2.03909 2.21001 0
M  V30 5666 C 516.434 -2.17034 2.25534 0
M  V30 5667 C 516.909 -2.99994 3.46075 0
M  V30 5668 N 518.4 -3.07578 3.46338 0
M  V30 5669 C 519.135 -3.72104 4.36264 0
M  V30 5670 N 518.631 -4.3842 5.36432 0
M  V30 5671 N 520.424 -3.69029 4.23998 0
M  V30 5672 H 512.575 -0.47428 2.07037 0
M  V30 5673 H 514.838 -0.272167 0.908091 0
M  V30 5674 H 514.544 -1.56198 3.15111 0
M  V30 5675 H 514.418 -3.04654 2.22409 0
M  V30 5676 H 516.805 -2.63951 1.31961 0
M  V30 5677 H 516.886 -1.15664 2.28156 0
M  V30 5678 H 516.53 -2.53772 4.39957 0
M  V30 5679 H 516.46 -4.01541 3.40694 0
M  V30 5680 H 518.951 -2.60397 2.73865 0
M  V30 5681 H 519.264 -4.85447 6.013 0
M  V30 5682 H 517.609 -4.37116 5.40328 0
M  V30 5683 H 520.8 -3.16392 3.44984 0
M  V30 5684 H 520.973 -4.19034 4.94282 0
M  V30 5685 N 514.379 -1.04941 -1.1758 0
M  V30 5686 C 515.289 -0.658826 -2.25159 0
M  V30 5687 C 516.305 0.318941 -1.71052 0
M  V30 5688 O 517.481 0.171669 -2.00667 0
M  V30 5689 C 514.546 -0.0369522 -3.4668 0
M  V30 5690 C 513.607 -1.06484 -4.15884 0
M  V30 5691 C 512.84 -0.472551 -5.31604 0
M  V30 5692 O 513.063 0.718736 -5.65854 0
M  V30 5693 O 511.997 -1.20557 -5.89703 0
M  V30 5694 H 515.823 -1.55533 -2.60851 0
M  V30 5695 H 513.408 -0.820819 -1.24832 0
M  V30 5696 H 515.29 0.308784 -4.20267 0
M  V30 5697 H 513.965 0.833238 -3.12792 0
M  V30 5698 H 512.872 -1.46253 -3.44327 0
M  V30 5699 H 514.205 -1.9061 -4.53794 0
M  V30 5700 N 515.857 1.33968 -0.830081 0
M  V30 5701 C 516.767 2.33164 -0.259207 0
M  V30 5702 C 517.783 1.62951 0.610164 0
M  V30 5703 O 518.959 1.94668 0.516369 0
M  V30 5704 C 516.024 3.42088 0.563598 0
M  V30 5705 C 515.085 4.28037 -0.329014 0
M  V30 5706 C 514.318 5.3176 0.454616 0
M  V30 5707 O 514.541 5.44876 1.6872 0
M  V30 5708 O 513.475 6.01669 -0.166794 0
M  V30 5709 H 517.301 2.83832 -1.08041 0
M  V30 5710 H 514.886 1.37154 -0.59239 0
M  V30 5711 H 516.768 4.08581 1.03147 0
M  V30 5712 H 515.443 2.93651 1.36201 0
M  V30 5713 H 514.35 3.64443 -0.844538 0
M  V30 5714 H 515.683 4.79934 -1.09196 0
M  V30 5715 N 517.335 0.585699 1.46312 0
M  V30 5716 C 518.584 0.0701192 2.01578 0
M  V30 5717 C 518.897 -1.29889 1.46247 0
M  V30 5718 O 520.103 -1.90598 1.93351 0
M  V30 5719 C 518.559 0.0747499 3.59822 0
M  V30 5720 C 518.167 1.44226 4.24149 0
M  V30 5721 C 519.911 -0.38673 4.22735 0
M  V30 5722 C 517.818 1.40446 5.74481 0
M  V30 5723 H 516.748 0.0224441 0.753666 0
M  V30 5724 H 519.399 0.737789 1.68015 0
M  V30 5725 H 517.781 -0.659144 3.90476 0
M  V30 5726 H 518.955 2.19612 4.05101 0
M  V30 5727 H 517.27 1.84401 3.73343 0
M  V30 5728 H 519.867 -0.433853 5.32937 0
M  V30 5729 H 520.21 -1.40489 3.91878 0
M  V30 5730 H 520.743 0.293195 3.96718 0
M  V30 5731 H 517.482 2.39952 6.10003 0
M  V30 5732 H 517.002 0.692845 5.95785 0
M  V30 5733 H 518.681 1.11865 6.37256 0
M  V30 5734 N 518.813 -1.54241 0.323641 0
M  V30 5735 C 519.763 -2.21071 -0.557833 0
M  V30 5736 C 520.747 -1.19126 -1.08157 0
M  V30 5737 O 521.939 -1.44755 -1.01857 0
M  V30 5738 C 519.068 -2.97208 -1.71821 0
M  V30 5739 C 518.154 -4.06491 -1.20936 0
M  V30 5740 N 518.545 -5.04052 -0.420202 0
M  V30 5741 C 516.843 -4.20443 -1.48808 0
M  V30 5742 C 517.544 -5.81516 -0.146413 0
M  V30 5743 N 516.52 -5.38641 -0.732562 0
M  V30 5744 H 520.322 -2.93853 0.0523921 0
M  V30 5745 H 517.836 -1.61883 0.129502 0
M  V30 5746 H 519.833 -3.4357 -2.36146 0
M  V30 5747 H 518.493 -2.25947 -2.33191 0
M  V30 5748 H 519.504 -5.17862 -0.0630401 0
M  V30 5749 H 516.181 -3.60396 -2.10762 0
M  V30 5750 H 517.571 -6.70119 0.488895 0
M  V30 5751 N 520.291 -0.0518155 -1.57515 0
M  V30 5752 C 521.516 0.634896 -1.97443 0
M  V30 5753 C 521.941 1.63546 -0.929207 0
M  V30 5754 O 521.299 1.80981 0.107484 0
M  V30 5755 C 521.347 1.29765 -3.36442 0
M  V30 5756 O 520.451 2.41333 -3.34413 0
M  V30 5757 H 519.792 0.164994 -0.643174 0
M  V30 5758 H 522.322 -0.120407 -2.04245 0
M  V30 5759 H 522.332 1.64918 -3.73184 0
M  V30 5760 H 521.007 0.564361 -4.12053 0
M  V30 5761 H 519.584 2.08122 -3.09418 0
M  V30 5762 N 521.769 1.56035 0.221574 0
M  V30 5763 C 522.699 1.95434 1.2778 0
M  V30 5764 C 523.68 0.822564 1.48889 0
M  V30 5765 O 524.865 1.08486 1.61072 0
M  V30 5766 C 521.995 2.27102 2.62759 0
M  V30 5767 C 520.949 3.4277 2.56306 0
M  V30 5768 C 520.275 3.60043 3.95314 0
M  V30 5769 C 521.575 4.77742 2.11093 0
M  V30 5770 H 523.269 2.83912 0.950504 0
M  V30 5771 H 520.815 1.36596 0.455791 0
M  V30 5772 H 522.768 2.53256 3.36807 0
M  V30 5773 H 521.492 1.35478 2.97176 0
M  V30 5774 H 520.151 3.16664 1.84715 0
M  V30 5775 H 519.799 2.65794 4.27039 0
M  V30 5776 H 519.499 4.37841 3.91879 0
M  V30 5777 H 521.023 3.88545 4.71025 0
M  V30 5778 H 522.437 5.03102 2.74885 0
M  V30 5779 H 520.834 5.58823 2.18716 0
M  V30 5780 H 521.904 4.731 1.06321 0
M  V30 5781 N 523.247 -0.488276 1.49845 0
M  V30 5782 C 524.177 -1.59675 1.70371 0
M  V30 5783 C 525.158 -1.60878 0.552473 0
M  V30 5784 O 526.343 -1.77417 0.78973 0
M  V30 5785 C 523.473 -2.98098 1.782 0
M  V30 5786 C 522.427 -3.11761 2.93239 0
M  V30 5787 C 521.753 -4.51661 2.86193 0
M  V30 5788 C 523.053 -2.90589 4.33999 0
M  V30 5789 H 524.747 -1.42752 2.63177 0
M  V30 5790 H 522.293 -0.685317 1.26647 0
M  V30 5791 H 524.246 -3.75555 1.91144 0
M  V30 5792 H 522.97 -3.16138 0.820018 0
M  V30 5793 H 521.629 -2.36732 2.79917 0
M  V30 5794 H 521.277 -4.66595 1.87877 0
M  V30 5795 H 520.977 -4.61742 3.63412 0
M  V30 5796 H 522.501 -5.31162 3.01163 0
M  V30 5797 H 523.915 -3.57807 4.47936 0
M  V30 5798 H 522.312 -3.1213 5.12538 0
M  V30 5799 H 523.382 -1.86595 4.4756 0
M  V30 5800 N 524.725 -1.39134 -0.740242 0
M  V30 5801 C 525.973 -1.35803 -1.49673 0
M  V30 5802 C 526.294 0.0470897 -1.94943 0
M  V30 5803 O 525.564 0.997347 -1.68611 0
M  V30 5804 H 524.144 -0.499736 -0.555224 0
M  V30 5805 H 526.806 -1.73947 -0.879107 0
M  V30 5806 H 525.902 -2.0174 -2.38133 0
M  V30 5807 N 526.204 0.969867 -1.24223 0
M  V30 5808 C 527.481 1.68774 -0.988664 0
M  V30 5809 C 527.861 2.05342 0.489673 0
M  V30 5810 O 527.209 1.75486 1.46345 0
M  V30 5811 C 527.419 2.92135 -1.90941 0
M  V30 5812 C 528.767 3.64422 -2.17903 0
M  V30 5813 O 529.791 3.02188 -1.88576 0
M  V30 5814 O 528.65 4.76446 -2.67697 0
M  V30 5815 H 525.744 0.737736 -0.37373 0
M  V30 5816 H 528.29 1.02415 -1.35312 0
M  V30 5817 H 527.062 2.61788 -2.90831 0
M  V30 5818 H 526.685 3.66228 -1.54798 0
M  V30 5819 N 527.682 1.05563 1.17022 0
M  V30 5820 C 528.93 0.76642 1.87004 0
M  V30 5821 C 529.251 -0.708854 1.8166 0
M  V30 5822 O 528.521 -1.51242 1.2451 0
M  V30 5823 H 527.101 0.280516 0.692329 0
M  V30 5824 H 529.763 1.33557 1.41945 0
M  V30 5825 H 528.859 1.08472 2.92644 0
M  V30 5826 N 529.16 -1.33526 0.837174 0
M  V30 5827 C 530.123 -2.27551 0.274421 0
M  V30 5828 C 531.123 -1.50886 -0.555881 0
M  V30 5829 O 532.313 -1.70227 -0.369918 0
M  V30 5830 C 529.445 -3.35332 -0.613605 0
M  V30 5831 H 530.638 -2.78837 1.10408 0
M  V30 5832 H 528.191 -1.439 0.610126 0
M  V30 5833 H 528.926 -2.89285 -1.46577 0
M  V30 5834 H 528.711 -3.92095 -0.0195341 0
M  V30 5835 H 530.201 -4.05433 -1.00068 0
M  V30 5836 N 530.638 -0.59345 -1.46 0
M  V30 5837 C 531.863 -0.0872365 -2.07216 0
M  V30 5838 C 532.288 1.2131 -1.43755 0
M  V30 5839 O 531.646 1.73528 -0.525152 0
M  V30 5840 C 531.694 0.0538197 -3.6056 0
M  V30 5841 O 530.798 1.10765 -3.97247 0
M  V30 5842 H 530.139 -0.0676598 -0.660544 0
M  V30 5843 H 532.669 -0.819445 -1.87473 0
M  V30 5844 H 532.679 0.256567 -4.07193 0
M  V30 5845 H 531.354 -0.895739 -4.0614 0
M  V30 5846 H 529.931 0.882501 -3.62307 0
M  V30 5847 N 532.116 1.54067 -0.331816 0
M  V30 5848 C 533.365 1.99895 0.269209 0
M  V30 5849 C 533.678 1.22371 1.52593 0
M  V30 5850 O 534.884 1.58618 2.20347 0
M  V30 5851 C 533.34 3.55972 0.530244 0
M  V30 5852 C 532.948 4.4234 -0.709901 0
M  V30 5853 C 534.692 4.10247 1.09077 0
M  V30 5854 C 532.599 5.89905 -0.420312 0
M  V30 5855 H 531.529 0.746741 0.104371 0
M  V30 5856 H 534.18 1.78014 -0.445324 0
M  V30 5857 H 532.562 3.73873 1.30518 0
M  V30 5858 H 533.736 4.36215 -1.48504 0
M  V30 5859 H 532.051 3.98997 -1.19123 0
M  V30 5860 H 534.648 5.18095 1.32219 0
M  V30 5861 H 534.991 3.62739 2.0427 0
M  V30 5862 H 535.524 3.96011 0.376824 0
M  V30 5863 H 532.263 6.41623 -1.34164 0
M  V30 5864 H 531.783 5.98962 0.316962 0
M  V30 5865 H 533.462 6.46991 -0.0331956 0
M  V30 5866 N 533.594 0.0601682 1.57485 0
M  V30 5867 C 534.822 -0.620937 1.97363 0
M  V30 5868 C 535.237 -1.63846 0.938082 0
M  V30 5869 O 534.594 -1.82339 -0.0766578 0
M  V30 5870 C 534.645 -1.29987 3.37321 0
M  V30 5871 O 534.366 -0.323081 4.36907 0
M  V30 5872 C 535.867 -2.06989 3.92008 0
M  V30 5873 H 533.087 -0.169135 0.649334 0
M  V30 5874 H 535.631 0.129132 2.04092 0
M  V30 5875 H 533.786 -2.0011 3.31715 0
M  V30 5876 H 534.2 -0.808754 5.18227 0
M  V30 5877 H 535.674 -2.49901 4.92192 0
M  V30 5878 H 536.151 -2.92173 3.2792 0
M  V30 5879 H 536.757 -1.41757 4.0098 0
M  V30 5880 N 535.072 -1.5615 -0.213296 0
M  V30 5881 C 536.318 -1.80718 -0.933402 0
M  V30 5882 C 536.673 -0.634441 -1.81639 0
M  V30 5883 O 535.966 0.371182 -1.8797 0
M  V30 5884 C 536.16 -3.08772 -1.79985 0
M  V30 5885 C 535.989 -4.38389 -1.00224 0
M  V30 5886 C 534.759 -5.00513 -0.693885 0
M  V30 5887 C 536.957 -5.13013 -0.363598 0
M  V30 5888 N 534.939 -6.13774 0.124266 0
M  V30 5889 C 536.31 -6.19186 0.31757 0
M  V30 5890 C 538.365 -4.97126 -0.277468 0
M  V30 5891 C 537.068 -7.11197 1.07664 0
M  V30 5892 C 539.094 -5.89544 0.468155 0
M  V30 5893 C 538.456 -6.95149 1.13784 0
M  V30 5894 H 534.555 -0.712833 -0.321549 0
M  V30 5895 H 537.139 -1.93633 -0.203588 0
M  V30 5896 H 535.31 -2.97126 -2.50142 0
M  V30 5897 H 537.042 -3.21499 -2.45806 0
M  V30 5898 H 533.797 -4.62619 -1.01391 0
M  V30 5899 H 534.221 -6.74981 0.522418 0
M  V30 5900 H 538.863 -4.15526 -0.78087 0
M  V30 5901 H 536.581 -7.92273 1.59153 0
M  V30 5902 H 540.167 -5.79327 0.535911 0
M  V30 5903 H 539.047 -7.65428 1.70557 0
M  V30 5904 N 536.55 0.480323 -1.50102 0
M  V30 5905 C 537.498 1.60024 -1.68805 0
M  V30 5906 C 538.492 1.60089 -0.553888 0
M  V30 5907 O 539.698 1.64349 -0.734127 0
M  V30 5908 H 536.073 0.530841 -0.532646 0
M  V30 5909 H 538.044 1.41408 -2.62767 0
M  V30 5910 C 536.793 2.98029 -1.79092 0
M  V30 5911 H 536.116 2.98694 -2.65748 0
M  V30 5912 H 537.556 3.75871 -1.96206 0
M  V30 5913 C 536.015 3.32538 -0.540388 0
M  V30 5914 O 536.545 4.00386 0.324637 0
M  V30 5915 N 534.751 2.87873 -0.397154 0
M  V30 5916 H 534.298 2.32834 -1.1021 0
M  V30 5917 H 534.256 3.11328 0.438425 0
M  V30 5918 N 538.028 1.39524 0.732853 0
M  V30 5919 C 538.978 1.34905 1.83806 0
M  V30 5920 C 539.962 0.229546 1.59254 0
M  V30 5921 O 541.154 0.467255 1.70721 0
M  V30 5922 C 538.283 1.19699 3.21756 0
M  V30 5923 C 537.369 2.36359 3.5213 0
M  V30 5924 N 537.76 3.61834 3.53426 0
M  V30 5925 C 536.058 2.29363 3.82503 0
M  V30 5926 C 536.759 4.38992 3.81655 0
M  V30 5927 N 535.735 3.68606 3.99538 0
M  V30 5928 H 539.537 2.29882 1.83116 0
M  V30 5929 H 537.051 1.33051 0.931194 0
M  V30 5930 H 539.048 1.14472 4.00876 0
M  V30 5931 H 537.708 0.256739 3.23683 0
M  V30 5932 H 538.719 3.95228 3.34686 0
M  V30 5933 H 535.396 1.43612 3.92023 0
M  V30 5934 H 536.786 5.47763 3.89108 0
M  V30 5935 N 539.506 -0.963266 1.24736 0
M  V30 5936 C 540.436 -2.07628 1.06832 0
M  V30 5937 C 541.417 -1.70088 -0.0200566 0
M  V30 5938 O 542.602 -1.93636 0.147854 0
M  V30 5939 C 539.732 -3.40636 0.677069 0
M  V30 5940 C 538.686 -3.9215 1.71471 0
M  V30 5941 C 538.012 -5.21553 1.1784 0
M  V30 5942 C 539.312 -4.19493 3.11164 0
M  V30 5943 H 541.006 -2.22864 1.9993 0
M  V30 5944 H 538.552 -1.07093 0.96266 0
M  V30 5945 H 540.505 -4.17941 0.538792 0
M  V30 5946 H 539.229 -3.25313 -0.289612 0
M  V30 5947 H 537.888 -3.17005 1.84128 0
M  V30 5948 H 537.536 -5.02593 0.202195 0
M  V30 5949 H 537.236 -5.56988 1.87185 0
M  V30 5950 H 538.76 -6.01463 1.05233 0
M  V30 5951 H 540.174 -4.87487 3.01711 0
M  V30 5952 H 538.571 -4.66165 3.77902 0
M  V30 5953 H 539.641 -3.26097 3.58871 0
M  V30 5954 N 540.985 -1.06182 -1.16461 0
M  V30 5955 C 542.262 -0.691364 -1.82974 0
M  V30 5956 C 542.642 0.827377 -1.9421 0
M  V30 5957 O 541.99 1.73723 -1.48434 0
M  V30 5958 C 542.2 -1.39199 -3.20038 0
M  V30 5959 C 543.548 -1.53647 -3.95825 0
M  V30 5960 O 544.572 -1.35181 -3.29552 0
M  V30 5961 O 543.431 -1.83932 -5.14618 0
M  V30 5962 H 540.525 -0.244605 -0.789998 0
M  V30 5963 H 543.071 -1.16203 -1.23673 0
M  V30 5964 H 541.843 -2.42766 -3.06888 0
M  V30 5965 H 541.466 -0.911335 -3.87015 0
M  V30 5966 N 542.463 1.3308 -0.844243 0
M  V30 5967 C 543.395 2.27954 -0.238671 0
M  V30 5968 C 544.408 1.51978 0.583665 0
M  V30 5969 O 545.597 1.73731 0.409857 0
M  V30 5970 C 542.697 3.31963 0.682185 0
M  V30 5971 C 541.87 4.37281 -0.101998 0
M  V30 5972 C 540.929 5.20928 0.743022 0
M  V30 5973 O 539.955 5.68914 0.180285 0
M  V30 5974 N 541.157 5.42738 2.0595 0
M  V30 5975 H 543.922 2.8056 -1.05386 0
M  V30 5976 H 541.483 1.4583 -0.70322 0
M  V30 5977 H 543.475 3.84828 1.25259 0
M  V30 5978 H 542.045 2.79594 1.39808 0
M  V30 5979 H 541.265 3.84843 -0.853802 0
M  V30 5980 H 542.553 5.04746 -0.641015 0
M  V30 5981 H 541.951 5.05463 2.54016 0
M  V30 5982 H 540.508 5.98639 2.57827 0
M  V30 5983 N 543.941 0.601185 1.45683 0
M  V30 5984 C 544.874 -0.17013 2.27565 0
M  V30 5985 C 545.852 -0.879661 1.36751 0
M  V30 5986 O 547.036 -0.889827 1.66176 0
M  V30 5987 C 544.163 -1.24568 3.14961 0
M  V30 5988 C 543.209 -0.639978 4.21671 0
M  V30 5989 S 544.042 0.547275 5.32696 0
M  V30 5990 C 545.198 -0.529019 6.2366 0
M  V30 5991 H 545.431 0.524583 2.92635 0
M  V30 5992 H 542.964 0.388537 1.49431 0
M  V30 5993 H 544.922 -1.86138 3.65873 0
M  V30 5994 H 543.583 -1.91243 2.49169 0
M  V30 5995 H 542.776 -1.44903 4.8272 0
M  V30 5996 H 542.378 -0.0995558 3.73867 0
M  V30 5997 H 544.67 -1.40981 6.62669 0
M  V30 5998 H 545.613 0.0451599 7.08086 0
M  V30 5999 H 546.021 -0.84147 5.58193 0
M  V30 6000 N 545.419 -1.53889 0.339982 0
M  V30 6001 C 546.83 -1.86139 -0.144671 0
M  V30 6002 C 547.181 -1.2613 -1.50285 0
M  V30 6003 O 546.306 -0.573515 -2.08662 0
M  V30 6004 C 546.901 -3.37728 -0.269285 0
M  V30 6005 C 545.46 -3.69868 -0.698168 0
M  V30 6006 C 544.607 -2.76777 0.170249 0
M  V30 6007 H 547.558 -1.48503 0.559704 0
M  V30 6008 H 547.579 -3.64331 -1.0974 0
M  V30 6009 H 547.091 -3.81375 0.719366 0
M  V30 6010 H 545.192 -3.31764 -1.69597 0
M  V30 6011 H 545.305 -4.76582 -0.490533 0
M  V30 6012 H 543.669 -2.52188 -0.356844 0
M  V30 6013 H 544.452 -3.23253 1.15597 0
M  V30 6014 N 546.897 -0.0685191 -1.57451 0
M  V30 6015 C 548.127 0.609577 -1.97402 0
M  V30 6016 C 548.535 1.63882 -0.945489 0
M  V30 6017 O 547.878 1.8354 0.0766052 0
M  V30 6018 C 547.94 1.3385 -3.33653 0
M  V30 6019 C 547.604 0.463103 -4.54648 0
M  V30 6020 C 548.601 -0.277964 -5.19156 0
M  V30 6021 C 546.286 0.388941 -5.00792 0
M  V30 6022 C 548.28 -1.08145 -6.28159 0
M  V30 6023 C 545.967 -0.418217 -6.09667 0
M  V30 6024 C 546.965 -1.15208 -6.73213 0
M  V30 6025 O 546.653 -1.94594 -7.79993 0
M  V30 6026 H 546.385 0.170197 -0.654224 0
M  V30 6027 H 548.939 -0.13647 -2.04946 0
M  V30 6028 H 547.169 2.13055 -3.22714 0
M  V30 6029 H 548.858 1.90851 -3.58233 0
M  V30 6030 H 549.624 -0.230241 -4.84453 0
M  V30 6031 H 545.503 0.949769 -4.5111 0
M  V30 6032 H 549.047 -1.65476 -6.7769 0
M  V30 6033 H 544.944 -0.467515 -6.43805 0
M  V30 6034 H 545.712 -1.8699 -7.96854 0
M  V30 6035 N 548.375 1.56261 0.205012 0
M  V30 6036 C 549.603 1.84141 0.943386 0
M  V30 6037 C 550.018 0.649772 1.77266 0
M  V30 6038 O 549.375 -0.381612 1.78466 0
M  V30 6039 C 549.426 3.10719 1.84759 0
M  V30 6040 O 549.147 4.25286 1.05181 0
M  V30 6041 C 550.648 3.51706 2.69848 0
M  V30 6042 H 547.868 0.611734 0.275721 0
M  V30 6043 H 550.412 2.03364 0.215253 0
M  V30 6044 H 548.567 2.93422 2.52947 0
M  V30 6045 H 548.981 4.97301 1.66709 0
M  V30 6046 H 550.455 4.43266 3.28967 0
M  V30 6047 H 550.932 2.7423 3.43067 0
M  V30 6048 H 551.538 3.71499 2.07047 0
M  V30 6049 N 549.853 -0.472356 1.50355 0
M  V30 6050 C 551.081 -1.24784 1.65035 0
M  V30 6051 C 551.496 -1.85837 0.333176 0
M  V30 6052 O 550.853 -1.69168 -0.68472 0
M  V30 6053 C 550.904 -2.35747 2.74054 0
M  V30 6054 O 550.625 -1.77197 4.00665 0
M  V30 6055 C 552.126 -3.26645 2.99696 0
M  V30 6056 H 549.346 -0.377432 0.554785 0
M  V30 6057 H 551.89 -0.563962 1.9657 0
M  V30 6058 H 550.045 -2.99912 2.45217 0
M  V30 6059 H 550.459 -2.5026 4.60945 0
M  V30 6060 H 551.933 -4.00718 3.79644 0
M  V30 6061 H 552.41 -3.8535 2.10718 0
M  V30 6062 H 553.016 -2.68218 3.3006 0
M  V30 6063 N 551.331 -1.39911 -0.725443 0
M  V30 6064 C 552.264 -1.33788 -1.84867 0
M  V30 6065 C 553.242 -0.209907 -1.61239 0
M  V30 6066 O 554.426 -0.391943 -1.8438 0
M  V30 6067 C 551.553 -1.07975 -3.21028 0
M  V30 6068 C 550.599 -2.23092 -3.635 0
M  V30 6069 S 551.432 -3.85431 -3.71757 0
M  V30 6070 C 552.588 -3.61862 -5.10692 0
M  V30 6071 H 552.821 -2.28848 -1.89779 0
M  V30 6072 H 550.354 -1.26079 -0.891254 0
M  V30 6073 H 552.312 -0.937669 -3.99647 0
M  V30 6074 H 550.973 -0.145865 -3.13761 0
M  V30 6075 H 550.166 -2.00647 -4.62338 0
M  V30 6076 H 549.768 -2.33553 -2.92112 0
M  V30 6077 H 552.06 -3.19719 -5.97316 0
M  V30 6078 H 553.003 -4.60196 -5.38169 0
M  V30 6079 H 553.411 -2.95757 -4.8082 0
M  V30 6080 N 552.809 0.956637 -1.25245 0
M  V30 6081 C 554.049 1.71585 -1.11076 0
M  V30 6082 C 554.413 1.88916 0.34277 0
M  V30 6083 O 555.614 2.61875 0.606227 0
M  V30 6084 C 553.885 3.06267 -1.84215 0
M  V30 6085 S 555.444 3.97469 -1.85914 0
M  V30 6086 H 552.262 0.589803 -0.397055 0
M  V30 6087 H 554.864 1.14114 -1.58739 0
M  V30 6088 H 553.568 2.91322 -2.89067 0
M  V30 6089 H 553.099 3.688 -1.36931 0
M  V30 6090 H 555.114 4.87316 -0.93474 0
M  V30 6091 N 554.287 1.06798 1.15896 0
M  V30 6092 C 555.536 0.782796 1.8589 0
M  V30 6093 C 555.849 -0.693498 1.82893 0
M  V30 6094 O 557.055 -1.09325 2.48516 0
M  V30 6095 C 555.511 1.3502 3.33613 0
M  V30 6096 C 555.119 2.8571 3.45071 0
M  V30 6097 C 556.863 1.14278 4.08829 0
M  V30 6098 C 554.77 3.35669 4.86909 0
M  V30 6099 H 553.7 0.289149 0.696354 0
M  V30 6100 H 556.351 1.28734 1.30766 0
M  V30 6101 H 554.733 0.773407 3.88374 0
M  V30 6102 H 555.907 3.49385 3.00445 0
M  V30 6103 H 554.222 3.05178 2.83294 0
M  V30 6104 H 556.819 1.49087 5.13495 0
M  V30 6105 H 557.162 0.0814575 4.1622 0
M  V30 6106 H 557.695 1.68563 3.60321 0
M  V30 6107 H 554.434 4.41302 4.84698 0
M  V30 6108 H 553.954 2.76745 5.32139 0
M  V30 6109 H 555.633 3.31296 5.55745 0
M  V30 6110 N 555.766 -1.3263 0.851289 0
M  V30 6111 C 556.713 -2.28952 0.291469 0
M  V30 6112 C 557.683 -1.54897 -0.599676 0
M  V30 6113 O 558.868 -1.83137 -0.535305 0
M  V30 6114 C 556.008 -3.41206 -0.516992 0
M  V30 6115 C 555.121 -4.30148 0.399566 0
M  V30 6116 C 554.256 -5.29527 -0.4212 0
M  V30 6117 C 553.295 -6.10112 0.492969 0
M  V30 6118 N 552.432 -7.01499 -0.290414 0
M  V30 6119 H 557.272 -2.76228 1.11813 0
M  V30 6120 H 554.809 -1.35907 0.562826 0
M  V30 6121 H 556.767 -4.05005 -1.00132 0
M  V30 6122 H 555.397 -2.9509 -1.30851 0
M  V30 6123 H 554.449 -3.66959 1.00227 0
M  V30 6124 H 555.761 -4.8649 1.1013 0
M  V30 6125 H 554.915 -5.98914 -0.968832 0
M  V30 6126 H 553.654 -4.73794 -1.15632 0
M  V30 6127 H 552.659 -5.39632 1.05251 0
M  V30 6128 H 553.884 -6.6793 1.22664 0
M  V30 6129 H 551.83 -6.48199 -1.00868 0
M  V30 6130 H 551.747 -7.55178 0.352354 0
M  V30 6131 H 553.015 -7.75176 -0.819882 0
M  V30 6132 N 557.244 -0.608902 -1.45362 0
M  V30 6133 C 558.154 0.110969 -2.34337 0
M  V30 6134 C 559.17 0.859007 -1.51318 0
M  V30 6135 O 560.346 0.816296 -1.84116 0
M  V30 6136 C 557.411 1.09494 -3.28956 0
M  V30 6137 C 556.472 0.348718 -4.27881 0
M  V30 6138 C 555.705 1.28582 -5.17979 0
M  V30 6139 O 555.928 2.52369 -5.11533 0
M  V30 6140 O 554.862 0.782172 -5.96796 0
M  V30 6141 H 558.688 -0.620258 -2.97299 0
M  V30 6142 H 556.273 -0.36916 -1.44767 0
M  V30 6143 H 558.155 1.66163 -3.87257 0
M  V30 6144 H 556.83 1.80717 -2.68557 0
M  V30 6145 H 555.737 -0.260465 -3.73192 0
M  V30 6146 H 557.07 -0.323049 -4.91139 0
M  V30 6147 N 558.722 1.53707 -0.348139 0
M  V30 6148 C 559.685 2.23812 0.494058 0
M  V30 6149 C 560.685 1.23989 1.02388 0
M  V30 6150 O 561.875 1.48395 0.912396 0
M  V30 6151 C 559.007 2.96133 1.68872 0
M  V30 6152 H 560.2 2.99663 -0.119141 0
M  V30 6153 H 557.753 1.55983 -0.0995539 0
M  V30 6154 H 558.488 2.24481 2.34049 0
M  V30 6155 H 558.273 3.69357 1.31596 0
M  V30 6156 H 559.763 3.49475 2.28597 0
M  V30 6157 N 560.2 0.0768682 1.57412 0
M  V30 6158 C 561.13 -0.886026 2.16037 0
M  V30 6159 C 562.111 -1.30691 1.08876 0
M  V30 6160 O 563.296 -1.37705 1.36934 0
M  V30 6161 C 560.426 -2.1518 2.72608 0
M  V30 6162 C 559.38 -1.87015 3.8498 0
M  V30 6163 C 558.706 -3.20266 4.28175 0
M  V30 6164 C 560.006 -1.17143 5.08994 0
M  V30 6165 H 561.7 -0.397642 2.96748 0
M  V30 6166 H 559.246 -0.189823 1.42743 0
M  V30 6167 H 561.199 -2.82962 3.12266 0
M  V30 6168 H 559.923 -2.66269 1.89125 0
M  V30 6169 H 558.582 -1.21636 3.45833 0
M  V30 6170 H 558.23 -3.69207 3.41607 0
M  V30 6171 H 557.93 -3.0221 5.03927 0
M  V30 6172 H 559.454 -3.89237 4.70454 0
M  V30 6173 H 560.868 -1.75003 5.45937 0
M  V30 6174 H 559.265 -1.09328 5.90057 0
M  V30 6175 H 560.335 -0.151295 4.84664 0
M  V30 6176 N 561.678 -1.56367 -0.196722 0
M  V30 6177 C 563.094 -1.49916 -0.54749 0
M  V30 6178 C 563.294 -0.77659 -1.85934 0
M  V30 6179 O 562.35 -0.32644 -2.50381 0
M  V30 6180 C 563.663 -2.94577 -0.603734 0
M  V30 6181 C 565.211 -3.05239 -0.692677 0
M  V30 6182 C 565.686 -4.51308 -0.780046 0
M  V30 6183 N 567.177 -4.55453 -0.843616 0
M  V30 6184 C 567.912 -5.65786 -0.931358 0
M  V30 6185 N 567.408 -6.85812 -0.981503 0
M  V30 6186 N 569.201 -5.53695 -0.968421 0
M  V30 6187 H 561.352 -2.01761 0.663803 0
M  V30 6188 H 563.615 -0.918094 0.236238 0
M  V30 6189 H 563.321 -3.50494 0.29105 0
M  V30 6190 H 563.195 -3.47841 -1.45898 0
M  V30 6191 H 565.582 -2.49372 -1.57789 0
M  V30 6192 H 565.663 -2.55103 0.188736 0
M  V30 6193 H 565.307 -5.078 0.100811 0
M  V30 6194 H 565.237 -4.99176 -1.67724 0
M  V30 6195 H 567.728 -3.69025 -0.814176 0
M  V30 6196 H 568.041 -7.65648 -1.04892 0
M  V30 6197 H 566.386 -6.88474 -0.950208 0
M  V30 6198 H 569.577 -4.58848 -0.926072 0
M  V30 6199 H 569.75 -6.39708 -1.03334 0
M  V30 6200 N 563.156 0.464375 -1.50603 0
M  V30 6201 C 564.086 1.56944 -1.72889 0
M  V30 6202 C 565.067 1.59979 -0.577997 0
M  V30 6203 O 566.252 1.76138 -0.817855 0
M  V30 6204 C 563.382 2.95225 -1.8292 0
M  V30 6205 C 562.336 3.07056 -2.98162 0
M  V30 6206 C 561.662 4.47051 -2.93343 0
M  V30 6207 C 562.962 2.83648 -4.38567 0
M  V30 6208 H 564.656 1.38547 -2.65415 0
M  V30 6209 H 562.202 0.665082 -1.27721 0
M  V30 6210 H 564.155 3.72467 -1.97095 0
M  V30 6211 H 562.879 3.14793 -0.870209 0
M  V30 6212 H 561.538 2.32248 -2.83648 0
M  V30 6213 H 561.186 4.63547 -1.95276 0
M  V30 6214 H 560.886 4.55902 -3.70712 0
M  V30 6215 H 562.41 5.26304 -3.09575 0
M  V30 6216 H 563.824 3.50636 -4.53572 0
M  V30 6217 H 562.221 3.03937 -5.17438 0
M  V30 6218 H 563.291 1.79451 -4.50472 0
M  V30 6219 N 564.634 1.40294 0.718013 0
M  V30 6220 C 565.864 1.41544 1.50495 0
M  V30 6221 C 566.272 0.0127877 1.89196 0
M  V30 6222 O 565.615 -0.97305 1.55812 0
M  V30 6223 C 565.677 2.24021 2.81167 0
M  V30 6224 C 565.341 3.72463 2.64803 0
M  V30 6225 C 566.338 4.65154 2.32223 0
M  V30 6226 C 564.023 4.1625 2.81143 0
M  V30 6227 C 566.017 5.99618 2.16189 0
M  V30 6228 C 563.704 5.50784 2.64727 0
M  V30 6229 C 564.702 6.42283 2.32297 0
M  V30 6230 O 564.39 7.74337 2.16004 0
M  V30 6231 H 564.122 0.484819 0.471091 0
M  V30 6232 H 566.676 1.84948 0.893488 0
M  V30 6233 H 564.906 1.75393 3.44636 0
M  V30 6234 H 566.595 2.17243 3.42871 0
M  V30 6235 H 567.361 4.32622 2.19234 0
M  V30 6236 H 563.24 3.45352 3.05373 0
M  V30 6237 H 566.784 6.71 1.90799 0
M  V30 6238 H 562.681 5.82902 2.773 0
M  V30 6239 H 563.449 7.85244 2.30942 0
M  V30 6240 N 566.112 -0.949982 1.2575 0
M  V30 6241 C 567.523 -1.50989 1.09815 0
M  V30 6242 C 567.874 -1.93497 -0.324556 0
M  V30 6243 O 566.999 -1.79068 -1.21506 0
M  V30 6244 C 567.594 -2.74394 1.98729 0
M  V30 6245 C 566.153 -3.26682 1.86965 0
M  V30 6246 C 565.3 -1.99498 1.92603 0
M  V30 6247 H 568.251 -0.766387 1.38968 0
M  V30 6248 H 568.272 -3.48383 1.53001 0
M  V30 6249 H 567.784 -2.43425 3.02268 0
M  V30 6250 H 565.885 -3.62461 0.863279 0
M  V30 6251 H 565.998 -3.94383 2.72027 0
M  V30 6252 H 564.362 -2.15005 1.36546 0
M  V30 6253 H 565.145 -1.70871 2.97755 0
M  V30 6254 N 567.59 -1.07411 -1.15328 0
M  V30 6255 C 569.001 -0.820261 -1.67716 0
M  V30 6256 C 569.352 0.654539 -1.8496 0
M  V30 6257 O 568.477 1.50664 -1.55337 0
M  V30 6258 C 569.072 -1.48242 -3.04647 0
M  V30 6259 C 567.631 -1.27606 -3.5411 0
M  V30 6260 C 566.778 -1.5517 -2.29821 0
M  V30 6261 H 569.729 -1.23608 -0.995332 0
M  V30 6262 H 569.75 -0.903984 -3.69606 0
M  V30 6263 H 569.262 -2.55578 -2.92064 0
M  V30 6264 H 567.363 -0.222948 -3.71932 0
M  V30 6265 H 567.476 -1.99667 -4.35511 0
M  V30 6266 H 565.84 -0.972747 -2.35393 0
M  V30 6267 H 566.623 -2.63689 -2.19824 0
M  V30 6268 N 569.068 1.32177 -0.85831 0
M  V30 6269 C 570.314 1.97417 -0.46417 0
M  V30 6270 C 570.647 1.67746 0.978514 0
M  V30 6271 O 569.922 0.967654 1.68721 0
M  V30 6272 C 570.205 3.53069 -0.708094 0
M  V30 6273 C 570.058 3.92357 -2.19946 0
M  V30 6274 C 571.377 4.39783 -0.166881 0
M  V30 6275 H 568.496 0.717097 -0.17012 0
M  V30 6276 H 571.138 1.56499 -1.07741 0
M  V30 6277 H 569.288 3.88054 -0.186128 0
M  V30 6278 H 570.96 3.67533 -2.78779 0
M  V30 6279 H 569.203 3.41384 -2.67656 0
M  V30 6280 H 569.874 5.00841 -2.32082 0
M  V30 6281 H 572.35 4.11556 -0.613285 0
M  V30 6282 H 571.226 5.47671 -0.367093 0
M  V30 6283 H 571.487 4.32196 0.930559 0
M  V30 6284 N 570.547 0.616602 1.45037 0
M  V30 6285 C 571.958 0.199359 1.85633 0
M  V30 6286 C 572.309 -1.24588 1.51566 0
M  V30 6287 O 571.434 -1.94594 0.94668 0
M  V30 6288 C 572.029 0.355033 3.36935 0
M  V30 6289 C 570.588 -0.00758748 3.76399 0
M  V30 6290 C 569.735 0.675256 2.68953 0
M  V30 6291 H 572.686 0.822708 1.3571 0
M  V30 6292 H 572.707 -0.410201 3.78282 0
M  V30 6293 H 572.219 1.40699 3.61698 0
M  V30 6294 H 570.32 -1.05837 3.57252 0
M  V30 6295 H 570.433 0.392346 4.77491 0
M  V30 6296 H 568.797 0.111992 2.54454 0
M  V30 6297 H 569.58 1.72952 2.96551 0
M  V30 6298 N 572.025 -1.5352 0.356285 0
M  V30 6299 C 573.273 -2.00719 -0.235837 0
M  V30 6300 C 573.594 -1.24551 -1.5004 0
M  V30 6301 O 572.864 -0.356185 -1.92635 0
M  V30 6302 H 571.444 -0.741542 -0.0901366 0
M  V30 6303 H 574.106 -1.88887 0.480378 0
M  V30 6304 H 573.202 -3.08551 -0.469357 0
M  V30 6305 N 573.503 -0.0852151 -1.57369 0
M  V30 6306 C 574.752 0.580443 -1.93168 0
M  V30 6307 C 575.065 1.6995 -0.968319 0
M  V30 6308 O 576.271 2.42564 -1.21963 0
M  V30 6309 C 574.727 1.08386 -3.43192 0
M  V30 6310 C 574.335 -0.00491388 -4.48 0
M  V30 6311 C 576.079 1.72281 -3.87968 0
M  V30 6312 C 573.986 0.513299 -5.89168 0
M  V30 6313 H 572.916 0.22059 -0.72101 0
M  V30 6314 H 575.567 -0.159621 -1.82804 0
M  V30 6315 H 573.949 1.8773 -3.48674 0
M  V30 6316 H 575.123 -0.780032 -4.5415 0
M  V30 6317 H 573.438 -0.548453 -4.12772 0
M  V30 6318 H 576.035 2.12108 -4.9083 0
M  V30 6319 H 576.378 2.58811 -3.26071 0
M  V30 6320 H 576.911 0.995359 -3.85146 0
M  V30 6321 H 573.65 -0.315153 -6.54742 0
M  V30 6322 H 573.17 1.25564 -5.8651 0
M  V30 6323 H 574.849 0.985433 -6.39451 0
M  V30 6324 N 574.981 1.5647 0.188427 0
M  V30 6325 C 576.229 1.80655 0.905986 0
M  V30 6326 C 576.55 0.659391 1.83513 0
M  V30 6327 O 575.82 -0.321868 1.93238 0
M  V30 6328 H 574.4 0.666391 0.337538 0
M  V30 6329 H 577.062 1.93949 0.192339 0
M  V30 6330 H 576.158 2.74066 1.49313 0
M  V30 6331 N 576.459 -0.456382 1.50847 0
M  V30 6332 C 577.875 -0.791345 1.386 0
M  V30 6333 C 578.075 -1.9633 0.453498 0
M  V30 6334 O 577.131 -2.52308 -0.0984353 0
M  V30 6335 C 578.444 -1.08959 2.80265 0
M  V30 6336 C 579.992 -1.19517 2.89283 0
M  V30 6337 C 580.467 -1.52647 4.31814 0
M  V30 6338 N 581.958 -1.59609 4.34832 0
M  V30 6339 C 582.693 -1.86777 5.42127 0
M  V30 6340 N 582.189 -2.11866 6.59609 0
M  V30 6341 N 583.982 -1.88402 5.29586 0
M  V30 6342 H 576.133 0.315746 2.1004 0
M  V30 6343 H 578.396 0.0787916 0.94472 0
M  V30 6344 H 578.102 -0.301355 3.50407 0
M  V30 6345 H 577.976 -2.02211 3.18419 0
M  V30 6346 H 580.363 -1.97406 2.19351 0
M  V30 6347 H 580.444 -0.242111 2.54652 0
M  V30 6348 H 580.088 -0.752922 5.02288 0
M  V30 6349 H 580.018 -2.49127 4.63943 0
M  V30 6350 H 582.509 -1.42201 3.50125 0
M  V30 6351 H 582.822 -2.31912 7.37182 0
M  V30 6352 H 581.167 -2.09228 6.62758 0
M  V30 6353 H 584.358 -1.68307 4.36795 0
M  V30 6354 H 584.531 -2.09238 6.13289 0
M  V30 6355 N 577.937 -1.40673 -0.710563 0
M  V30 6356 C 578.847 -1.43663 -1.85467 0
M  V30 6357 C 579.863 -0.328721 -1.70867 0
M  V30 6358 O 581.039 -0.574098 -1.93044 0
M  V30 6359 C 578.104 -1.30226 -3.21313 0
M  V30 6360 C 577.165 -2.51204 -3.48131 0
M  V30 6361 C 576.398 -2.38398 -4.77495 0
M  V30 6362 O 576.621 -1.40048 -5.5294 0
M  V30 6363 O 575.555 -3.2787 -5.04762 0
M  V30 6364 H 579.381 -2.40156 -1.859 0
M  V30 6365 H 576.966 -1.22049 -0.861652 0
M  V30 6366 H 578.848 -1.2496 -4.02446 0
M  V30 6367 H 577.523 -0.368419 -3.21597 0
M  V30 6368 H 576.43 -2.62048 -2.66987 0
M  V30 6369 H 577.763 -3.43366 -3.52648 0
M  V30 6370 N 579.415 0.9433 -1.26252 0
M  V30 6371 C 580.345 2.05902 -1.10122 0
M  V30 6372 C 581.326 1.70099 -0.00700552 0
M  V30 6373 O 582.511 1.93377 -0.178641 0
M  V30 6374 C 579.641 3.39516 -0.731175 0
M  V30 6375 C 578.595 3.89372 -1.77688 0
M  V30 6376 C 577.921 5.19613 -1.26122 0
M  V30 6377 C 579.221 4.14489 -3.17799 0
M  V30 6378 H 580.915 2.19655 -2.03451 0
M  V30 6379 H 578.461 1.05548 -0.979576 0
M  V30 6380 H 580.414 4.17031 -0.605215 0
M  V30 6381 H 579.138 3.25733 0.23782 0
M  V30 6382 H 577.797 3.14036 -1.89148 0
M  V30 6383 H 577.445 5.02208 -0.282128 0
M  V30 6384 H 577.145 5.53939 -1.96023 0
M  V30 6385 H 578.669 5.99713 -1.14789 0
M  V30 6386 H 580.083 4.82625 -3.09428 0
M  V30 6387 H 578.48 4.60094 -3.85271 0
M  V30 6388 H 579.55 3.20347 -3.64014 0
M  V30 6389 N 580.893 1.08022 1.14757 0
M  V30 6390 C 582.118 0.82895 1.90114 0
M  V30 6391 C 582.543 -0.612772 1.77839 0
M  V30 6392 O 581.901 -1.42895 1.11583 0
M  V30 6393 C 581.949 1.25062 3.38219 0
M  V30 6394 O 581.053 0.400119 4.10454 0
M  V30 6395 H 580.394 0.301412 0.591648 0
M  V30 6396 H 582.924 1.44062 1.45284 0
M  V30 6397 H 582.934 1.22977 3.89025 0
M  V30 6398 H 581.609 2.30067 3.46471 0
M  V30 6399 H 580.186 0.484052 3.69745 0
M  V30 6400 N 582.371 -1.3172 0.865308 0
M  V30 6401 C 583.599 -2.01057 0.488251 0
M  V30 6402 C 584.014 -1.64979 -0.918 0
M  V30 6403 O 583.371 -0.876597 -1.60069 0
M  V30 6404 C 583.422 -3.55964 0.630224 0
M  V30 6405 O 583.143 -3.90749 1.98109 0
M  V30 6406 C 584.644 -4.42574 0.253567 0
M  V30 6407 H 581.864 -0.64332 0.190736 0
M  V30 6408 H 584.408 -1.68058 1.16519 0
M  V30 6409 H 582.563 -3.874 0.000895422 0
M  V30 6410 H 582.977 -4.85467 1.9855 0
M  V30 6411 H 584.451 -5.50521 0.403875 0
M  V30 6412 H 584.928 -4.31724 -0.806895 0
M  V30 6413 H 585.534 -4.16547 0.858404 0
M  V30 6414 N 583.85 -0.624285 -1.44708 0
M  V30 6415 C 585.26 -0.2092 -1.85524 0
M  V30 6416 C 585.611 1.23783 -1.52225 0
M  V30 6417 O 584.736 1.94089 -0.956986 0
M  V30 6418 C 585.332 -0.372897 -3.36742 0
M  V30 6419 C 583.891 -0.012374 -3.76398 0
M  V30 6420 C 583.038 -0.68951 -2.68591 0
M  V30 6421 H 585.989 -0.829894 -1.35272 0
M  V30 6422 H 586.01 0.390134 -3.78495 0
M  V30 6423 H 585.522 -1.42615 -3.60947 0
M  V30 6424 H 583.623 1.03941 -3.57809 0
M  V30 6425 H 583.736 -0.417663 -4.77276 0
M  V30 6426 H 582.1 -0.125484 -2.54391 0
M  V30 6427 H 582.883 -1.74522 -2.9563 0
M  V30 6428 N 585.328 1.53329 -0.364422 0
M  V30 6429 C 586.574 2.01537 0.225969 0
M  V30 6430 C 586.907 1.25128 1.48515 0
M  V30 6431 O 586.182 0.344653 1.91422 0
M  V30 6432 C 586.465 3.56339 0.519092 0
M  V30 6433 C 586.318 4.43441 -0.753639 0
M  V30 6434 C 587.637 4.19833 1.32015 0
M  V30 6435 H 584.756 0.732573 0.0806548 0
M  V30 6436 H 587.398 1.83597 -0.489084 0
M  V30 6437 H 585.548 3.71756 1.12825 0
M  V30 6438 H 587.22 4.39823 -1.39116 0
M  V30 6439 H 585.463 4.11457 -1.37424 0
M  V30 6440 H 586.134 5.49699 -0.503517 0
M  V30 6441 H 588.61 4.08242 0.804859 0
M  V30 6442 H 587.486 5.28177 1.49399 0
M  V30 6443 H 587.747 3.75821 2.32832 0
M  V30 6444 N 586.806 0.0935595 1.57322 0
M  V30 6445 C 588.034 -0.578934 1.98635 0
M  V30 6446 C 588.449 -1.61819 0.972626 0
M  V30 6447 O 587.806 -1.82461 -0.0379638 0
M  V30 6448 C 587.857 -1.22802 3.40003 0
M  V30 6449 O 587.578 -0.230334 4.37494 0
M  V30 6450 C 589.079 -1.98627 3.96311 0
M  V30 6451 H 586.299 -0.155324 0.652775 0
M  V30 6452 H 588.843 0.172393 2.03772 0
M  V30 6453 H 586.998 -1.93029 3.35885 0
M  V30 6454 H 587.412 -0.698649 5.19826 0
M  V30 6455 H 588.886 -2.39405 4.97382 0
M  V30 6456 H 589.363 -2.85151 3.34044 0
M  V30 6457 H 589.969 -1.3322 4.03897 0
M  V30 6458 N 588.284 -1.56567 -0.180126 0
M  V30 6459 C 589.531 -1.81492 -0.898167 0
M  V30 6460 C 589.859 -0.669225 -1.82624 0
M  V30 6461 O 589.114 0.344096 -1.92651 0
M  V30 6462 C 589.413 -3.1252 -1.73395 0
M  V30 6463 C 589.079 -4.40658 -0.955567 0
M  V30 6464 C 587.741 -4.75465 -0.740707 0
M  V30 6465 C 590.093 -5.19593 -0.408948 0
M  V30 6466 C 587.421 -5.86691 0.0320128 0
M  V30 6467 C 589.773 -6.31627 0.350638 0
M  V30 6468 C 588.437 -6.65007 0.576378 0
M  V30 6469 H 587.707 -0.664125 -0.328662 0
M  V30 6470 H 590.354 -1.908 -0.163616 0
M  V30 6471 H 588.659 -2.98515 -2.53763 0
M  V30 6472 H 590.356 -3.29013 -2.29241 0
M  V30 6473 H 586.946 -4.13352 -1.13306 0
M  V30 6474 H 591.13 -4.93104 -0.562307 0
M  V30 6475 H 586.386 -6.11016 0.216735 0
M  V30 6476 H 590.56 -6.92001 0.781497 0
M  V30 6477 H 588.187 -7.51033 1.17703 0
M  V30 6478 N 589.762 0.448376 -1.51087 0
M  V30 6479 C 591.173 1.0286 -1.5581 0
M  V30 6480 C 591.524 1.92583 -0.374989 0
M  V30 6481 O 590.649 2.10316 0.509533 0
M  V30 6482 C 591.244 1.87223 -2.8237 0
M  V30 6483 C 589.803 2.40314 -2.897 0
M  V30 6484 C 588.95 1.19238 -2.50355 0
M  V30 6485 H 591.901 0.230075 -1.57023 0
M  V30 6486 H 591.922 2.72553 -2.6551 0
M  V30 6487 H 591.434 1.21894 -3.68461 0
M  V30 6488 H 589.535 3.09129 -2.08014 0
M  V30 6489 H 589.648 2.73866 -3.93108 0
M  V30 6490 H 588.012 1.53428 -2.03303 0
M  V30 6491 H 588.795 0.555367 -3.38778 0
M  V30 6492 N 591.24 1.41047 0.703093 0
M  V30 6493 C 592.517 1.30493 1.45708 0
M  V30 6494 C 592.897 -0.0709892 2.10981 0
M  V30 6495 O 592.245 -1.08471 2.01113 0
M  V30 6496 C 592.455 2.45287 2.48265 0
M  V30 6497 C 593.803 2.86104 3.13735 0
M  V30 6498 O 594.827 2.44971 2.58587 0
M  V30 6499 O 593.686 3.57206 4.13601 0
M  V30 6500 H 590.78 0.513144 0.648546 0
M  V30 6501 H 593.326 1.52995 0.734208 0
M  V30 6502 H 592.098 3.37135 1.98635 0
M  V30 6503 H 591.721 2.24622 3.28071 0
M  V30 6504 N 592.718 -0.936591 1.26751 0
M  V30 6505 C 593.966 -1.67998 1.12343 0
M  V30 6506 C 594.287 -1.92137 -0.332938 0
M  V30 6507 O 593.557 -1.52132 -1.23421 0
M  V30 6508 H 592.137 -0.622609 0.412756 0
M  V30 6509 H 594.799 -1.12509 1.59147 0
M  V30 6510 H 593.895 -2.65185 1.64571 0
M  V30 6511 N 594.196 -1.08629 -1.14182 0
M  V30 6512 C 595.612 -0.814363 -1.3726 0
M  V30 6513 C 595.812 0.575271 -1.93114 0
M  V30 6514 O 594.868 1.33165 -2.1453 0
M  V30 6515 C 596.181 -1.8989 -2.33157 0
M  V30 6516 C 597.729 -1.92518 -2.46791 0
M  V30 6517 C 598.204 -3.00092 -3.45989 0
M  V30 6518 N 599.695 -2.99279 -3.53534 0
M  V30 6519 C 600.43 -3.79158 -4.30147 0
M  V30 6520 N 599.926 -4.68923 -5.09983 0
M  V30 6521 N 601.719 -3.67451 -4.25366 0
M  V30 6522 H 593.87 -1.98232 -0.762758 0
M  V30 6523 H 596.133 -0.860383 -0.398051 0
M  V30 6524 H 595.839 -2.89809 -1.99257 0
M  V30 6525 H 595.713 -1.77013 -3.33086 0
M  V30 6526 H 598.1 -0.932425 -2.79982 0
M  V30 6527 H 598.181 -2.09473 -1.46816 0
M  V30 6528 H 597.825 -3.99575 -3.13532 0
M  V30 6529 H 597.755 -2.80382 -4.45751 0
M  V30 6530 H 600.246 -2.3422 -2.96563 0
M  V30 6531 H 600.559 -5.26475 -5.65724 0
M  V30 6532 H 598.904 -4.72964 -5.09244 0
M  V30 6533 H 602.095 -2.9669 -3.62067 0
M  V30 6534 H 602.268 -4.29944 -4.84822 0
M  V30 6535 N 595.674 1.31259 -0.872281 0
M  V30 6536 C 596.899 2.0133 -0.498099 0
M  V30 6537 C 597.324 1.65031 0.902568 0
M  V30 6538 O 596.682 0.860164 1.59596 0
M  V30 6539 C 596.73 3.54411 -0.665205 0
M  V30 6540 O 595.834 4.11347 0.294473 0
M  V30 6541 H 595.175 0.633844 -0.197832 0
M  V30 6542 H 597.705 1.67402 -1.17633 0
M  V30 6543 H 597.715 4.04147 -0.559373 0
M  V30 6544 H 596.39 3.80171 -1.68651 0
M  V30 6545 H 594.967 3.72624 0.143403 0
M  V30 6546 N 597.152 0.631951 1.44375 0
M  V30 6547 C 598.082 -0.0593243 2.33425 0
M  V30 6548 C 599.063 -0.833964 1.48253 0
M  V30 6549 O 600.248 -0.799682 1.76971 0
M  V30 6550 C 597.378 -1.04096 3.31333 0
M  V30 6551 C 596.332 -0.377899 4.26328 0
M  V30 6552 C 595.658 -1.4695 5.14111 0
M  V30 6553 C 596.958 0.716371 5.17364 0
M  V30 6554 H 598.652 0.684287 2.91475 0
M  V30 6555 H 596.198 0.330518 1.40156 0
M  V30 6556 H 598.151 -1.53331 3.92514 0
M  V30 6557 H 596.875 -1.81547 2.71493 0
M  V30 6558 H 595.534 0.0938054 3.6648 0
M  V30 6559 H 595.182 -2.2349 4.50623 0
M  V30 6560 H 594.882 -1.03121 5.78481 0
M  V30 6561 H 596.406 -1.96363 5.78164 0
M  V30 6562 H 597.82 0.307089 5.72477 0
M  V30 6563 H 596.217 1.07784 5.90341 0
M  V30 6564 H 597.287 1.58316 4.58327 0
M  V30 6565 N 598.631 -1.53133 0.372548 0
M  V30 6566 C 600.042 -1.86404 -0.105155 0
M  V30 6567 C 600.393 -1.29289 -1.47576 0
M  V30 6568 O 599.518 -0.617646 -2.07398 0
M  V30 6569 C 600.113 -3.38223 -0.197588 0
M  V30 6570 C 598.672 -3.71266 -0.619556 0
M  V30 6571 C 597.819 -2.76353 0.228919 0
M  V30 6572 H 600.77 -1.47282 0.591077 0
M  V30 6573 H 600.791 -3.66577 -1.01987 0
M  V30 6574 H 600.303 -3.79763 0.800099 0
M  V30 6575 H 598.404 -3.35287 -1.62522 0
M  V30 6576 H 598.517 -4.77515 -0.389332 0
M  V30 6577 H 596.881 -2.52888 -0.303271 0
M  V30 6578 H 597.664 -3.20728 1.22428 0
M  V30 6579 N 600.109 -0.101901 -1.5727 0
M  V30 6580 C 601.056 0.854577 -2.14396 0
M  V30 6581 C 602.026 1.27521 -1.06432 0
M  V30 6582 O 603.211 1.35575 -1.34253 0
M  V30 6583 C 600.351 2.10576 -2.73408 0
M  V30 6584 C 599.464 1.73504 -3.95626 0
M  V30 6585 C 598.599 2.9346 -4.42781 0
M  V30 6586 C 597.638 2.52547 -5.57572 0
M  V30 6587 N 596.775 3.65359 -5.99547 0
M  V30 6588 H 601.615 0.360578 -2.9581 0
M  V30 6589 H 599.152 0.166303 -1.46157 0
M  V30 6590 H 601.11 2.83859 -3.05745 0
M  V30 6591 H 599.74 2.57463 -1.94711 0
M  V30 6592 H 598.792 0.901622 -3.6956 0
M  V30 6593 H 600.104 1.39426 -4.78917 0
M  V30 6594 H 599.258 3.74988 -4.76937 0
M  V30 6595 H 597.997 3.30753 -3.58404 0
M  V30 6596 H 597.002 1.69446 -5.23037 0
M  V30 6597 H 598.227 2.1639 -6.43702 0
M  V30 6598 H 596.173 4.02358 -5.18116 0
M  V30 6599 H 596.09 3.35148 -6.77652 0
M  V30 6600 H 597.358 4.47378 -6.38336 0
M  V30 6601 N 601.587 1.56661 0.17182 0
M  V30 6602 C 602.835 1.81606 0.886774 0
M  V30 6603 C 603.156 0.678818 1.82803 0
M  V30 6604 O 602.426 -0.301354 1.93568 0
M  V30 6605 H 601.006 0.669934 0.330451 0
M  V30 6606 H 603.668 1.94142 0.171757 0
M  V30 6607 H 602.764 2.75634 1.46398 0
M  V30 6608 N 603.065 -0.440357 1.51323 0
M  V30 6609 C 604.314 -1.18697 1.63076 0
M  V30 6610 C 604.627 -1.92418 0.35136 0
M  V30 6611 O 605.833 -2.69258 0.348221 0
M  V30 6612 C 604.289 -2.15849 2.87988 0
M  V30 6613 C 603.897 -1.47789 4.22921 0
M  V30 6614 C 605.641 -2.90962 3.09098 0
M  V30 6615 C 603.548 -2.43407 5.38987 0
M  V30 6616 H 602.478 -0.44676 0.607389 0
M  V30 6617 H 605.129 -0.454313 1.77787 0
M  V30 6618 H 603.511 -2.92537 2.66905 0
M  V30 6619 H 604.685 -0.7668 4.54375 0
M  V30 6620 H 603 -0.848404 4.07665 0
M  V30 6621 H 605.597 -3.62584 3.92985 0
M  V30 6622 H 605.94 -3.52133 2.22053 0
M  V30 6623 H 606.473 -2.21381 3.30507 0
M  V30 6624 H 603.212 -1.86929 6.28282 0
M  V30 6625 H 602.732 -3.12579 5.11913 0
M  V30 6626 H 604.411 -3.046 5.70813 0
M  V30 6627 N 604.543 -1.41418 -0.695603 0
M  V30 6628 C 605.476 -1.3768 -1.81988 0
M  V30 6629 C 606.454 -0.244061 -1.60758 0
M  V30 6630 O 607.638 -0.430965 -1.83507 0
M  V30 6631 C 604.765 -1.1476 -3.18666 0
M  V30 6632 C 603.811 -2.30752 -3.58686 0
M  V30 6633 S 604.644 -3.9323 -3.63498 0
M  V30 6634 C 605.8 -3.72613 -5.02902 0
M  V30 6635 H 606.033 -2.32822 -1.84882 0
M  V30 6636 H 603.566 -1.27942 -0.86431 0
M  V30 6637 H 605.524 -1.02223 -3.97569 0
M  V30 6638 H 604.185 -0.212385 -3.13381 0
M  V30 6639 H 603.378 -2.10409 -4.57978 0
M  V30 6640 H 602.98 -2.39696 -2.87092 0
M  V30 6641 H 605.272 -3.32317 -5.904 0
M  V30 6642 H 606.215 -4.71507 -5.28286 0
M  V30 6643 H 606.623 -3.0589 -4.74438 0
M  V30 6644 N 606.021 0.929856 -1.27246 0
M  V30 6645 C 607.267 1.6798 -1.13625 0
M  V30 6646 C 607.6 1.91586 0.317589 0
M  V30 6647 O 606.875 1.50467 1.23247 0
M  V30 6648 C 607.158 3.04766 -1.91806 0
M  V30 6649 C 607.011 2.88415 -3.45162 0
M  V30 6650 C 608.33 4.05063 -1.72082 0
M  V30 6651 H 605.449 0.609632 -0.414147 0
M  V30 6652 H 608.091 1.0792 -1.56376 0
M  V30 6653 H 606.241 3.56034 -1.55474 0
M  V30 6654 H 607.913 2.44282 -3.91311 0
M  V30 6655 H 606.156 2.23802 -3.71611 0
M  V30 6656 H 606.827 3.85482 -3.95105 0
M  V30 6657 H 609.303 3.62798 -2.03757 0
M  V30 6658 H 608.179 4.98765 -2.29182 0
M  V30 6659 H 608.44 4.37021 -0.668206 0
M  V30 6660 N 607.499 1.09233 1.13605 0
M  V30 6661 C 608.429 0.751738 2.21068 0
M  V30 6662 C 609.41 -0.269688 1.67948 0
M  V30 6663 O 610.595 -0.13819 1.93708 0
M  V30 6664 C 607.725 0.16935 3.46887 0
M  V30 6665 C 606.679 1.12007 4.13084 0
M  V30 6666 C 606.005 0.399483 5.33206 0
M  V30 6667 C 607.305 2.46168 4.6065 0
M  V30 6668 H 608.999 1.65024 2.49815 0
M  V30 6669 H 606.545 0.794905 1.20072 0
M  V30 6670 H 608.498 -0.0809824 4.21322 0
M  V30 6671 H 607.222 -0.764335 3.1753 0
M  V30 6672 H 605.881 1.35564 3.40614 0
M  V30 6673 H 605.529 -0.538277 5.00112 0
M  V30 6674 H 605.229 1.03337 5.78442 0
M  V30 6675 H 606.753 0.157403 6.10397 0
M  V30 6676 H 608.167 2.26829 5.26518 0
M  V30 6677 H 606.564 3.05326 5.1662 0
M  V30 6678 H 607.634 3.07076 3.75276 0
M  V30 6679 N 608.977 -1.30795 0.87923 0
M  V30 6680 C 609.907 -2.30742 0.357796 0
M  V30 6681 C 610.888 -1.60747 -0.556283 0
M  V30 6682 O 612.073 -1.88393 -0.47135 0
M  V30 6683 C 609.203 -3.44583 -0.433555 0
M  V30 6684 C 608.157 -4.26235 0.388251 0
M  V30 6685 C 607.483 -5.32073 -0.529352 0
M  V30 6686 C 608.783 -4.96303 1.62729 0
M  V30 6687 H 610.477 -2.74605 1.19299 0
M  V30 6688 H 608.023 -1.32017 0.575104 0
M  V30 6689 H 609.976 -4.13563 -0.808934 0
M  V30 6690 H 608.7 -2.99511 -1.30234 0
M  V30 6691 H 607.359 -3.58936 0.745695 0
M  V30 6692 H 607.007 -4.83249 -1.39569 0
M  V30 6693 H 606.707 -5.87598 0.0166741 0
M  V30 6694 H 608.231 -6.0391 -0.901373 0
M  V30 6695 H 609.645 -5.5783 1.32283 0
M  V30 6696 H 608.042 -5.61666 2.11309 0
M  V30 6697 H 609.112 -4.22758 2.37494 0
M  V30 6698 N 610.455 -0.639598 -1.44038 0
M  V30 6699 C 611.68 -0.153117 -2.06834 0
M  V30 6700 C 612.105 1.16676 -1.47541 0
M  V30 6701 O 611.463 1.71769 -0.580093 0
M  V30 6702 C 611.511 -0.0609169 -3.60549 0
M  V30 6703 O 610.615 0.98071 -4.00569 0
M  V30 6704 H 609.956 -0.0886402 -0.658057 0
M  V30 6705 H 612.486 -0.878674 -1.84771 0
M  V30 6706 H 612.496 0.126892 -4.07803 0
M  V30 6707 H 611.171 -1.0245 -4.03084 0
M  V30 6708 H 609.748 0.766789 -3.64931 0
M  V30 6709 N 611.933 1.52934 -0.380664 0
M  V30 6710 C 613.182 2.00651 0.205477 0
M  V30 6711 C 613.495 1.27164 1.48623 0
M  V30 6712 O 614.701 1.65547 2.15189 0
M  V30 6713 C 613.157 3.57479 0.416726 0
M  V30 6714 C 612.765 4.39857 -0.850268 0
M  V30 6715 C 614.509 4.13509 0.959702 0
M  V30 6716 C 612.416 5.88269 -0.607773 0
M  V30 6717 H 611.346 0.749684 0.0805614 0
M  V30 6718 H 613.997 1.76508 -0.501732 0
M  V30 6719 H 612.379 3.77836 1.18557 0
M  V30 6720 H 613.553 4.31269 -1.62307 0
M  V30 6721 H 611.868 3.95005 -1.31756 0
M  V30 6722 H 614.465 5.22039 1.15669 0
M  V30 6723 H 614.808 3.69054 1.92626 0
M  V30 6724 H 615.341 3.9701 0.250645 0
M  V30 6725 H 612.08 6.3703 -1.54509 0
M  V30 6726 H 611.6 5.99667 0.126247 0
M  V30 6727 H 613.279 6.46558 -0.239014 0
M  V30 6728 N 613.412 0.11024 1.57214 0
M  V30 6729 C 614.642 -0.557025 1.98949 0
M  V30 6730 C 615.05 -1.61317 0.988606 0
M  V30 6731 O 614.393 -1.83679 -0.0279159 0
M  V30 6732 C 614.455 -1.24956 3.37085 0
M  V30 6733 C 614.119 -0.342398 4.55716 0
M  V30 6734 C 615.116 0.415511 5.18237 0
M  V30 6735 C 612.801 -0.256029 5.01647 0
M  V30 6736 C 614.795 1.24761 6.25071 0
M  V30 6737 C 612.482 0.579713 6.08344 0
M  V30 6738 C 613.48 1.33017 6.69922 0
M  V30 6739 O 613.168 2.15205 7.74559 0
M  V30 6740 H 612.9 -0.152792 0.658506 0
M  V30 6741 H 615.454 0.19076 2.04512 0
M  V30 6742 H 613.684 -2.04424 3.2825 0
M  V30 6743 H 615.373 -1.81286 3.63167 0
M  V30 6744 H 616.139 0.358605 4.83672 0
M  V30 6745 H 612.018 -0.829831 4.5347 0
M  V30 6746 H 615.562 1.83386 6.73064 0
M  V30 6747 H 611.459 0.638044 6.42339 0
M  V30 6748 H 612.227 2.08052 7.91617 0
M  V30 6749 N 614.89 -1.56749 -0.16351 0
M  V30 6750 C 616.138 -1.82074 -0.87713 0
M  V30 6751 C 616.459 -0.688503 -1.82441 0
M  V30 6752 O 615.729 0.291085 -1.93725 0
M  V30 6753 H 614.309 -0.671677 -0.326893 0
M  V30 6754 H 616.971 -1.9423 -0.161459 0
M  V30 6755 H 616.067 -2.76407 -1.44934 0
M  V30 6756 N 616.368 0.432326 -1.51554 0
M  V30 6757 C 617.298 1.53242 -1.76179 0
M  V30 6758 C 618.279 1.58717 -0.611801 0
M  V30 6759 O 619.464 1.74364 -0.855033 0
M  V30 6760 C 616.594 2.91278 -1.89141 0
M  V30 6761 C 615.548 3.00663 -3.04608 0
M  V30 6762 C 614.874 4.40728 -3.02759 0
M  V30 6763 C 616.174 2.74281 -4.44485 0
M  V30 6764 H 617.868 1.32886 -2.68294 0
M  V30 6765 H 615.414 0.637841 -1.29103 0
M  V30 6766 H 617.367 3.68203 -2.04951 0
M  V30 6767 H 616.091 3.12877 -0.936785 0
M  V30 6768 H 614.75 2.26179 -2.88511 0
M  V30 6769 H 614.398 4.59301 -2.05065 0
M  V30 6770 H 614.098 4.47936 -3.80299 0
M  V30 6771 H 615.622 5.19619 -3.20669 0
M  V30 6772 H 617.036 3.40936 -4.60907 0
M  V30 6773 H 615.433 2.92893 -5.23769 0
M  V30 6774 H 616.503 1.69856 -4.54177 0
M  V30 6775 N 617.846 1.41785 0.688094 0
M  V30 6776 C 618.796 1.40684 1.79421 0
M  V30 6777 C 619.78 0.280096 1.58443 0
M  V30 6778 O 620.972 0.521332 1.69148 0
M  V30 6779 C 618.101 1.29874 3.17785 0
M  V30 6780 C 617.187 2.47442 3.44432 0
M  V30 6781 N 617.578 3.72895 3.41736 0
M  V30 6782 C 615.876 2.41416 3.75013 0
M  V30 6783 C 616.577 4.50912 3.67496 0
M  V30 6784 N 615.553 3.81131 3.87608 0
M  V30 6785 H 619.355 2.35591 1.7571 0
M  V30 6786 H 616.869 1.35946 0.888393 0
M  V30 6787 H 618.866 1.27168 3.97031 0
M  V30 6788 H 617.526 0.359587 3.22703 0
M  V30 6789 H 618.537 4.05676 3.21943 0
M  V30 6790 H 615.214 1.56011 3.87256 0
M  V30 6791 H 616.604 5.59865 3.71484 0
M  V30 6792 N 619.324 -0.923095 1.27737 0
M  V30 6793 C 620.274 -2.01061 1.0751 0
M  V30 6794 C 621.258 -1.609 0.00165451 0
M  V30 6795 O 622.45 -1.75618 0.220724 0
M  V30 6796 C 619.579 -3.35467 0.729162 0
M  V30 6797 C 618.665 -3.82059 1.84098 0
M  V30 6798 N 619.056 -4.01115 3.08124 0
M  V30 6799 C 617.354 -4.11135 1.7287 0
M  V30 6800 C 618.055 -4.39989 3.80506 0
M  V30 6801 N 617.031 -4.47721 3.08297 0
M  V30 6802 H 620.833 -2.13832 2.01626 0
M  V30 6803 H 618.347 -1.11027 1.18519 0
M  V30 6804 H 620.344 -4.13049 0.565355 0
M  V30 6805 H 619.004 -3.24056 -0.204334 0
M  V30 6806 H 620.015 -3.87294 3.43836 0
M  V30 6807 H 616.692 -4.08412 0.866352 0
M  V30 6808 H 618.082 -4.62773 4.87125 0
M  V30 6809 N 620.802 -1.09834 -1.13024 0
M  V30 6810 C 621.75 -0.736283 -2.20639 0
M  V30 6811 C 622.744 0.264725 -1.67319 0
M  V30 6812 O 623.95 0.125745 -1.7956 0
M  V30 6813 H 620.325 -0.220136 -0.719058 0
M  V30 6814 H 622.296 -1.65295 -2.48436 0
M  V30 6815 C 621.045 -0.177544 -3.47246 0
M  V30 6816 H 620.368 -0.939009 -3.88616 0
M  V30 6817 H 621.808 0.0378007 -4.23983 0
M  V30 6818 C 620.267 1.08824 -3.1884 0
M  V30 6819 O 620.797 2.1708 -3.37993 0
M  V30 6820 N 619.003 1.00442 -2.7269 0
M  V30 6821 H 618.55 0.123383 -2.57304 0
M  V30 6822 H 618.508 1.85206 -2.5406 0
M  V30 6823 N 622.28 1.30327 -0.886154 0
M  V30 6824 C 623.691 1.78243 -0.555554 0
M  V30 6825 C 624.042 1.72849 0.928314 0
M  V30 6826 O 623.167 1.30607 1.72542 0
M  V30 6827 C 623.762 3.23654 -1.00168 0
M  V30 6828 C 622.321 3.69401 -0.722471 0
M  V30 6829 C 621.468 2.50753 -1.18399 0
M  V30 6830 H 624.419 1.1718 -1.07026 0
M  V30 6831 H 624.44 3.79056 -0.331152 0
M  V30 6832 H 623.952 3.27548 -2.08169 0
M  V30 6833 H 622.053 3.70995 0.345496 0
M  V30 6834 H 622.166 4.60818 -1.31085 0
M  V30 6835 H 620.53 2.47452 -0.603303 0
M  V30 6836 H 621.313 2.57383 -2.27176 0
M  V30 6837 N 623.758 0.647228 1.43697 0
M  V30 6838 C 624.705 -0.0480092 2.3075 0
M  V30 6839 C 625.675 -0.820705 1.44408 0
M  V30 6840 O 626.86 -0.798515 1.73287 0
M  V30 6841 C 624 -1.01259 3.2991 0
M  V30 6842 C 623.113 -0.236629 4.31351 0
M  V30 6843 C 622.248 -1.19447 5.17596 0
M  V30 6844 C 621.287 -0.408595 6.10735 0
M  V30 6845 N 620.424 -1.31772 6.89623 0
M  V30 6846 H 625.264 0.700238 2.89656 0
M  V30 6847 H 622.801 0.357082 1.427 0
M  V30 6848 H 624.759 -1.58538 3.85903 0
M  V30 6849 H 623.389 -1.72778 2.72667 0
M  V30 6850 H 622.441 0.452353 3.77701 0
M  V30 6851 H 623.753 0.374731 4.9739 0
M  V30 6852 H 622.907 -1.83809 5.78186 0
M  V30 6853 H 621.646 -1.83975 4.51669 0
M  V30 6854 H 620.651 0.24841 5.49239 0
M  V30 6855 H 621.876 0.232188 6.78703 0
M  V30 6856 H 619.822 -1.94991 6.2635 0
M  V30 6857 H 619.739 -0.760779 7.52162 0
M  V30 6858 H 621.007 -1.94967 7.54724 0
M  V30 6859 N 625.236 -1.5273 0.388769 0
M  V30 6860 C 626.482 -2.01871 -0.193877 0
M  V30 6861 C 626.815 -1.27475 -1.46505 0
M  V30 6862 O 626.09 -0.375063 -1.90849 0
M  V30 6863 C 626.373 -3.5712 -0.462336 0
M  V30 6864 C 626.226 -4.42186 0.824091 0
M  V30 6865 C 627.545 -4.21881 -1.25319 0
M  V30 6866 H 624.664 -0.733764 -0.0689899 0
M  V30 6867 H 627.306 -1.82796 0.518231 0
M  V30 6868 H 625.456 -3.73504 -1.06896 0
M  V30 6869 H 627.128 -4.37554 1.46096 0
M  V30 6870 H 625.371 -4.09219 1.43952 0
M  V30 6871 H 626.042 -5.48828 0.590905 0
M  V30 6872 H 628.518 -4.0947 -0.73981 0
M  V30 6873 H 627.394 -5.30487 -1.40977 0
M  V30 6874 H 627.655 -3.79478 -2.26824 0
M  V30 6875 N 626.714 -0.118576 -1.57153 0
M  V30 6876 C 627.96 0.534078 -1.96263 0
M  V30 6877 C 628.315 1.64316 -1.0009 0
M  V30 6878 O 627.608 1.91575 -0.0308582 0
M  V30 6879 C 627.802 1.11303 -3.39627 0
M  V30 6880 C 627.631 0.0615624 -4.49658 0
M  V30 6881 C 626.401 -0.370103 -5.03943 0
M  V30 6882 C 628.599 -0.719249 -5.09246 0
M  V30 6883 N 626.581 -1.40738 -5.9755 0
M  V30 6884 C 627.952 -1.60774 -5.98792 0
M  V30 6885 C 630.007 -0.770183 -4.91907 0
M  V30 6886 C 628.71 -2.54272 -6.72858 0
M  V30 6887 C 630.736 -1.69288 -5.66653 0
M  V30 6888 C 630.098 -2.56894 -6.55885 0
M  V30 6889 H 626.197 0.165072 -0.764379 0
M  V30 6890 H 628.781 -0.206596 -1.93601 0
M  V30 6891 H 626.952 1.82342 -3.42937 0
M  V30 6892 H 628.684 1.72996 -3.65861 0
M  V30 6893 H 625.439 0.0222121 -4.73595 0
M  V30 6894 H 625.863 -1.92493 -6.49057 0
M  V30 6895 H 630.505 -0.106999 -4.22665 0
M  V30 6896 H 628.223 -3.21605 -7.41347 0
M  V30 6897 H 631.809 -1.73772 -5.55243 0
M  V30 6898 H 630.689 -3.27131 -7.1271 0
M  V30 6899 N 628.193 1.56834 0.155195 0
M  V30 6900 C 629.604 1.72421 0.716082 0
M  V30 6901 C 629.955 0.731685 1.82046 0
M  V30 6902 O 629.08 -0.103481 2.16152 0
M  V30 6903 C 629.675 3.12629 1.30571 0
M  V30 6904 C 628.234 3.29846 1.81325 0
M  V30 6905 C 627.381 2.68359 0.698494 0
M  V30 6906 H 630.332 1.58544 -0.0703861 0
M  V30 6907 H 630.353 3.12174 2.1755 0
M  V30 6908 H 629.865 3.84844 0.501701 0
M  V30 6909 H 627.966 2.62614 2.64319 0
M  V30 6910 H 628.079 4.37727 1.9476 0
M  V30 6911 H 626.443 2.28604 1.12305 0
M  V30 6912 H 627.226 3.43171 -0.0939366 0
M  V30 6913 N 629.671 -0.424282 1.51781 0
M  V30 6914 C 630.619 -1.53649 1.74628 0
M  V30 6915 C 631.613 -1.57923 0.612922 0
M  V30 6916 O 632.819 -1.61511 0.794618 0
M  V30 6917 H 629.194 -0.510706 0.551981 0
M  V30 6918 H 631.165 -1.31558 2.67834 0
M  V30 6919 C 629.914 -2.91177 1.9003 0
M  V30 6920 H 629.237 -2.88625 2.76651 0
M  V30 6921 H 630.677 -3.6833 2.10021 0
M  V30 6922 C 629.136 -3.30303 0.663435 0
M  V30 6923 O 629.666 -4.01315 -0.175812 0
M  V30 6924 N 627.872 -2.86201 0.503723 0
M  V30 6925 H 627.419 -2.28583 1.18776 0
M  V30 6926 H 627.377 -3.12741 -0.322575 0
M  V30 6927 N 631.149 -1.42148 -0.680565 0
M  V30 6928 C 632.56 -1.3768 -1.26099 0
M  V30 6929 C 632.911 -0.0672348 -1.96085 0
M  V30 6930 O 632.036 0.834172 -1.99676 0
M  V30 6931 C 632.631 -2.49387 -2.29328 0
M  V30 6932 C 631.19 -2.4827 -2.82911 0
M  V30 6933 C 630.337 -2.2847 -1.57152 0
M  V30 6934 H 633.288 -1.51446 -0.474326 0
M  V30 6935 H 633.309 -2.19307 -3.10941 0
M  V30 6936 H 632.821 -3.44686 -1.78363 0
M  V30 6937 H 630.922 -1.56773 -3.38013 0
M  V30 6938 H 631.035 -3.45109 -3.3232 0
M  V30 6939 H 629.399 -1.76623 -1.83511 0
M  V30 6940 H 630.182 -3.25816 -1.0816 0
M  V30 6941 N 632.627 0.916307 -1.28225 0
M  V30 6942 C 633.537 2.05165 -1.13775 0
M  V30 6943 C 634.553 1.73879 -0.0649418 0
M  V30 6944 O 635.729 1.99531 -0.273722 0
M  V30 6945 C 632.794 3.37385 -0.798267 0
M  V30 6946 C 631.855 3.82296 -1.95316 0
M  V30 6947 C 631.088 5.08206 -1.62978 0
M  V30 6948 O 631.311 5.6781 -0.542948 0
M  V30 6949 O 630.245 5.48768 -2.47261 0
M  V30 6950 H 634.071 2.20273 -2.09078 0
M  V30 6951 H 631.656 1.0373 -1.07519 0
M  V30 6952 H 633.538 4.16773 -0.62278 0
M  V30 6953 H 632.213 3.23458 0.125139 0
M  V30 6954 H 631.12 3.03746 -2.18378 0
M  V30 6955 H 632.453 4.00782 -2.85718 0
M  V30 6956 N 634.105 1.10431 1.1244 0
M  V30 6957 C 635.351 0.847972 1.84221 0
M  V30 6958 C 635.684 -0.624903 1.83871 0
M  V30 6959 O 634.959 -1.46074 1.28423 0
M  V30 6960 C 635.242 1.39695 3.319 0
M  V30 6961 C 635.095 2.93668 3.40704 0
M  V30 6962 C 636.414 1.03924 4.27654 0
M  V30 6963 H 633.533 0.309502 0.668863 0
M  V30 6964 H 636.175 1.36745 1.31912 0
M  V30 6965 H 634.325 0.955095 3.76577 0
M  V30 6966 H 635.997 3.46379 3.04662 0
M  V30 6967 H 634.24 3.30272 2.81252 0
M  V30 6968 H 634.911 3.27162 4.446 0
M  V30 6969 H 637.387 1.42049 3.91102 0
M  V30 6970 H 636.263 1.45027 5.29394 0
M  V30 6971 H 636.524 -0.051336 4.4207 0
M  V30 6972 N 635.583 -1.29855 0.893053 0
M  V30 6973 C 636.83 -1.95826 0.515585 0
M  V30 6974 C 637.158 -1.70451 -0.936842 0
M  V30 6975 O 636.413 -1.00657 -1.67829 0
M  V30 6976 C 636.712 -3.49515 0.746588 0
M  V30 6977 C 636.378 -3.94955 2.17535 0
M  V30 6978 C 635.04 -4.07073 2.56603 0
M  V30 6979 C 637.392 -4.18536 3.10607 0
M  V30 6980 C 634.72 -4.40138 3.87938 0
M  V30 6981 C 637.072 -4.53073 4.41484 0
M  V30 6982 C 635.736 -4.634 4.80434 0
M  V30 6983 H 635.006 -0.71658 0.188666 0
M  V30 6984 H 637.653 -1.54574 1.13045 0
M  V30 6985 H 635.958 -3.9177 0.0487551 0
M  V30 6986 H 637.655 -3.98644 0.434009 0
M  V30 6987 H 634.245 -3.86035 1.86212 0
M  V30 6988 H 638.429 -4.08646 2.81641 0
M  V30 6989 H 633.685 -4.46335 4.17846 0
M  V30 6990 H 637.859 -4.70269 5.13634 0
M  V30 6991 H 635.486 -4.88775 5.82239 0
M  V30 6992 N 637.061 -0.65484 -1.43351 0
M  V30 6993 C 638.338 -0.0987371 -1.95351 0
M  V30 6994 C 638.718 1.38161 -1.59608 0
M  V30 6995 O 638.066 2.10791 -0.882021 0
M  V30 6996 C 638.276 -0.346684 -3.47274 0
M  V30 6997 C 639.624 -0.25249 -4.23849 0
M  V30 6998 O 640.648 -0.279332 -3.55103 0
M  V30 6999 O 639.507 -0.177584 -5.46211 0
M  V30 7000 H 636.601 0.0086829 -0.826954 0
M  V30 7001 H 639.147 -0.728189 -1.53282 0
M  V30 7002 H 637.919 -1.37296 -3.66423 0
M  V30 7003 H 637.542 0.315757 -3.96344 0
M  V30 7004 N 638.539 1.52521 -0.396863 0
M  V30 7005 C 639.95 1.86547 0.0754868 0
M  V30 7006 C 640.301 1.31621 1.45501 0
M  V30 7007 O 639.426 0.650563 2.0639 0
M  V30 7008 C 640.021 3.38495 0.143754 0
M  V30 7009 C 638.58 3.72205 0.560413 0
M  V30 7010 C 637.727 2.75954 -0.272856 0
M  V30 7011 H 640.678 1.46323 -0.614434 0
M  V30 7012 H 640.699 3.68153 0.961425 0
M  V30 7013 H 640.211 3.78442 -0.860415 0
M  V30 7014 H 638.312 3.3783 1.57167 0
M  V30 7015 H 638.425 4.78074 0.313314 0
M  V30 7016 H 636.789 2.53339 0.263 0
M  V30 7017 H 637.572 3.1874 -1.27515 0
M  V30 7018 N 640.017 0.126909 1.57088 0
M  V30 7019 C 641.264 -0.529168 1.95464 0
M  V30 7020 C 641.592 -1.6618 1.01067 0
M  V30 7021 O 640.847 -1.95667 0.0360254 0
M  V30 7022 C 641.146 -1.095 3.40212 0
M  V30 7023 C 640.812 -0.0829015 4.50824 0
M  V30 7024 C 639.474 0.195377 4.80803 0
M  V30 7025 C 641.826 0.606411 5.1766 0
M  V30 7026 C 639.154 1.16912 5.74933 0
M  V30 7027 C 641.506 1.56884 6.12838 0
M  V30 7028 C 640.17 1.85502 6.41206 0
M  V30 7029 H 639.44 -0.193636 0.715252 0
M  V30 7030 H 642.087 0.209489 1.90351 0
M  V30 7031 H 640.392 -1.91058 3.42059 0
M  V30 7032 H 642.089 -1.61087 3.67222 0
M  V30 7033 H 638.679 -0.309979 4.27478 0
M  V30 7034 H 642.863 0.404597 4.94648 0
M  V30 7035 H 638.119 1.3975 5.95214 0
M  V30 7036 H 642.293 2.10859 6.6371 0
M  V30 7037 H 639.92 2.61109 7.13951 0
M  V30 7038 N 641.495 -1.56914 -0.146875 0
M  V30 7039 C 642.911 -1.51582 -0.499518 0
M  V30 7040 C 643.111 -0.83535 -1.83369 0
M  V30 7041 O 642.167 -0.405932 -2.49216 0
M  V30 7042 C 643.48 -2.96349 -0.509711 0
M  V30 7043 C 645.028 -3.07288 -0.595217 0
M  V30 7044 C 645.503 -4.53562 -0.636071 0
M  V30 7045 N 646.994 -4.57906 -0.69829 0
M  V30 7046 C 647.729 -5.68462 -0.750886 0
M  V30 7047 N 647.225 -6.88588 -0.76282 0
M  V30 7048 N 649.018 -5.56496 -0.791777 0
M  V30 7049 H 641.169 -1.99547 0.727656 0
M  V30 7050 H 643.432 -0.910113 0.265327 0
M  V30 7051 H 643.138 -3.4939 0.402409 0
M  V30 7052 H 643.012 -3.52307 -1.34758 0
M  V30 7053 H 645.399 -2.54266 -1.49776 0
M  V30 7054 H 645.48 -2.54373 0.2698 0
M  V30 7055 H 645.124 -5.07222 0.262313 0
M  V30 7056 H 645.054 -5.04259 -1.51758 0
M  V30 7057 H 647.545 -3.71429 -0.696362 0
M  V30 7058 H 647.858 -7.68598 -0.804804 0
M  V30 7059 H 646.203 -6.91148 -0.730694 0
M  V30 7060 H 649.394 -4.61562 -0.779624 0
M  V30 7061 H 649.567 -6.42671 -0.829301 0
M  V30 7062 N 642.974 0.416227 -1.52004 0
M  V30 7063 C 644.221 1.16383 -1.65714 0
M  V30 7064 C 644.549 1.9068 -0.383594 0
M  V30 7065 O 643.804 1.85174 0.633185 0
M  V30 7066 C 644.103 2.18923 -2.82502 0
M  V30 7067 C 643.769 1.61485 -4.20991 0
M  V30 7068 C 642.431 1.45545 -4.58661 0
M  V30 7069 C 644.783 1.19468 -5.07323 0
M  V30 7070 C 642.111 0.860937 -5.80349 0
M  V30 7071 C 644.463 0.614386 -6.29609 0
M  V30 7072 C 643.127 0.442056 -6.66035 0
M  V30 7073 H 642.397 0.425875 -0.606392 0
M  V30 7074 H 645.044 0.45199 -1.8609 0
M  V30 7075 H 643.349 2.96225 -2.56433 0
M  V30 7076 H 645.046 2.76628 -2.90307 0
M  V30 7077 H 641.636 1.74873 -3.91302 0
M  V30 7078 H 645.82 1.30596 -4.78809 0
M  V30 7079 H 641.076 0.715372 -6.072 0
M  V30 7080 H 645.25 0.280393 -6.95835 0
M  V30 7081 H 642.877 -0.0207218 -7.60197 0
M  V30 7082 N 644.452 1.42507 0.673017 0
M  V30 7083 C 645.415 1.4582 1.76831 0
M  V30 7084 C 646.415 0.345542 1.57043 0
M  V30 7085 O 647.605 0.606447 1.63303 0
M  V30 7086 C 644.737 1.29158 3.15485 0
M  V30 7087 H 645.93 2.43345 1.7528 0
M  V30 7088 H 643.483 1.28981 0.882817 0
M  V30 7089 H 644.218 0.325626 3.22661 0
M  V30 7090 H 644.003 2.09797 3.31252 0
M  V30 7091 H 645.493 1.34363 3.95394 0
M  V30 7092 N 645.93 -0.909495 1.28709 0
M  V30 7093 C 647.341 -1.47419 1.14563 0
M  V30 7094 C 647.692 -1.94432 -0.262832 0
M  V30 7095 O 646.817 -1.82842 -1.15748 0
M  V30 7096 C 647.412 -2.67933 2.07358 0
M  V30 7097 C 645.971 -3.20568 1.97264 0
M  V30 7098 C 645.118 -1.93269 1.98852 0
M  V30 7099 H 648.069 -0.721787 1.41336 0
M  V30 7100 H 648.09 -3.43339 1.64007 0
M  V30 7101 H 647.602 -2.33685 3.09859 0
M  V30 7102 H 645.703 -3.59531 0.978157 0
M  V30 7103 H 645.816 -3.85529 2.84436 0
M  V30 7104 H 644.18 -2.10553 1.43317 0
M  V30 7105 H 644.963 -1.61312 3.0304 0
M  V30 7106 N 647.408 -1.11026 -1.11852 0
M  V30 7107 C 648.656 -0.854769 -1.83134 0
M  V30 7108 C 648.977 0.621375 -1.84835 0
M  V30 7109 O 648.247 1.45129 -1.31584 0
M  V30 7110 H 646.827 -0.313229 -0.678157 0
M  V30 7111 H 649.489 -1.40178 -1.35411 0
M  V30 7112 H 648.585 -1.22311 -2.87135 0
M  V30 7113 N 648.886 1.2938 -0.899927 0
M  V30 7114 C 650.111 2.00228 -0.540692 0
M  V30 7115 C 650.536 1.66909 0.867359 0
M  V30 7116 O 649.894 0.893824 1.57735 0
M  V30 7117 C 649.942 3.52921 -0.740232 0
M  V30 7118 O 649.046 4.11879 0.207154 0
M  V30 7119 H 648.387 0.629505 -0.211233 0
M  V30 7120 H 650.917 1.6487 -1.21158 0
M  V30 7121 H 650.927 4.0287 -0.644973 0
M  V30 7122 H 649.602 3.76508 -1.76677 0
M  V30 7123 H 648.179 3.72845 0.0643315 0
M  V30 7124 N 650.364 0.662433 1.43002 0
M  V30 7125 C 651.327 -0.0142016 2.29196 0
M  V30 7126 C 652.327 -0.741394 1.42688 0
M  V30 7127 O 653.517 -0.581257 1.64216 0
M  V30 7128 C 650.649 -1.03084 3.24941 0
M  V30 7129 H 651.842 0.7443 2.90517 0
M  V30 7130 H 649.395 0.424133 1.50435 0
M  V30 7131 H 650.13 -1.81826 2.68533 0
M  V30 7132 H 649.915 -0.512946 3.8873 0
M  V30 7133 H 651.405 -1.50308 3.89612 0
M  V30 7134 N 651.842 -1.52309 0.404946 0
M  V30 7135 C 652.774 -2.24579 -0.45791 0
M  V30 7136 C 653.787 -1.2739 -1.01369 0
M  V30 7137 O 654.976 -1.53363 -0.91335 0
M  V30 7138 C 652.076 -2.9608 -1.64893 0
M  V30 7139 C 651.249 -4.20106 -1.21777 0
M  V30 7140 C 650.308 -4.74468 -2.27523 0
M  V30 7141 O 649.334 -5.37157 -1.88285 0
M  V30 7142 N 650.536 -4.55678 -3.59635 0
M  V30 7143 H 653.301 -2.99265 0.161341 0
M  V30 7144 H 650.862 -1.60228 0.232107 0
M  V30 7145 H 652.854 -3.29344 -2.35191 0
M  V30 7146 H 651.424 -2.24606 -2.17419 0
M  V30 7147 H 650.644 -3.92704 -0.343071 0
M  V30 7148 H 651.932 -5.00658 -0.906596 0
M  V30 7149 H 651.33 -4.05673 -3.94266 0
M  V30 7150 H 649.887 -4.9339 -4.25922 0
M  V30 7151 N 653.32 -0.135238 -1.57019 0
M  V30 7152 C 654.27 0.820408 -2.12728 0
M  V30 7153 C 655.254 1.21735 -1.05211 0
M  V30 7154 O 656.446 1.18574 -1.31413 0
M  V30 7155 C 653.575 2.06414 -2.74314 0
M  V30 7156 C 652.661 1.69083 -3.88937 0
M  V30 7157 N 653.052 1.0251 -4.95303 0
M  V30 7158 C 651.35 1.98434 -3.99425 0
M  V30 7159 C 652.051 0.846749 -5.75504 0
M  V30 7160 N 651.027 1.3769 -5.25873 0
M  V30 7161 H 654.829 0.302426 -2.9234 0
M  V30 7162 H 652.343 0.0667009 -1.62263 0
M  V30 7163 H 654.34 2.75863 -3.12579 0
M  V30 7164 H 653 2.58741 -1.96171 0
M  V30 7165 H 654.011 0.687207 -5.1332 0
M  V30 7166 H 650.688 2.52693 -3.32344 0
M  V30 7167 H 652.078 0.322949 -6.71123 0
M  V30 7168 N 654.798 1.5699 0.138552 0
M  V30 7169 C 656.023 1.88344 0.86841 0
M  V30 7170 C 656.448 0.725159 1.7356 0
M  V30 7171 O 655.806 -0.324992 1.78363 0
M  V30 7172 C 655.854 3.18334 1.69398 0
M  V30 7173 O 654.958 3.02863 2.79907 0
M  V30 7174 H 654.299 0.618577 0.241367 0
M  V30 7175 H 656.829 2.04207 0.126826 0
M  V30 7176 H 656.839 3.50567 2.08726 0
M  V30 7177 H 655.514 4.02238 1.05725 0
M  V30 7178 H 654.091 2.82056 2.43924 0
M  V30 7179 N 656.276 -0.40816 1.52223 0
M  V30 7180 C 657.226 -1.49648 1.72016 0
M  V30 7181 C 658.21 -1.50311 0.574069 0
M  V30 7182 O 659.402 -1.56271 0.831173 0
M  V30 7183 C 656.531 -2.87566 1.87512 0
M  V30 7184 C 655.617 -2.91547 3.07995 0
M  V30 7185 N 656.008 -2.65225 4.30685 0
M  V30 7186 C 654.306 -3.22715 3.07849 0
M  V30 7187 C 655.007 -2.75799 5.12162 0
M  V30 7188 N 653.983 -3.08719 4.4743 0
M  V30 7189 H 657.785 -1.28093 2.64517 0
M  V30 7190 H 655.299 -0.61588 1.50269 0
M  V30 7191 H 657.296 -3.65899 1.99809 0
M  V30 7192 H 655.956 -3.10118 0.962114 0
M  V30 7193 H 656.967 -2.39601 4.59142 0
M  V30 7194 H 653.644 -3.50856 2.26289 0
M  V30 7195 H 655.034 -2.59155 6.1991 0
M  V30 7196 N 657.755 -1.42862 -0.66545 0
M  V30 7197 C 658.718 -1.46756 -1.76055 0
M  V30 7198 C 659.718 -0.353866 -1.56858 0
M  V30 7199 O 660.908 -0.615099 -1.62979 0
M  V30 7200 C 658.04 -1.30829 -3.14796 0
M  V30 7201 H 659.233 -2.44271 -1.73987 0
M  V30 7202 H 656.786 -1.29447 -0.875965 0
M  V30 7203 H 657.521 -0.342733 -3.22484 0
M  V30 7204 H 657.306 -2.11551 -3.30134 0
M  V30 7205 H 658.796 -1.36458 -3.94676 0
M  V30 7206 N 659.233 0.902656 -1.29189 0
M  V30 7207 C 660.48 1.65287 -1.16989 0
M  V30 7208 C 660.808 1.92485 0.279232 0
M  V30 7209 O 660.063 1.53143 1.21843 0
M  V30 7210 C 660.362 3.011 -1.92545 0
M  V30 7211 C 660.028 2.93521 -3.42281 0
M  V30 7212 C 658.69 2.91161 -3.83117 0
M  V30 7213 C 661.042 2.82947 -4.3771 0
M  V30 7214 C 658.37 2.76043 -5.17704 0
M  V30 7215 C 660.722 2.69368 -5.72384 0
M  V30 7216 C 659.386 2.65373 -6.12482 0
M  V30 7217 H 658.656 0.604828 -0.428094 0
M  V30 7218 H 661.303 1.05084 -1.60092 0
M  V30 7219 H 659.608 3.65153 -1.42024 0
M  V30 7220 H 661.305 3.58073 -1.80512 0
M  V30 7221 H 657.895 2.96158 -3.09819 0
M  V30 7222 H 662.079 2.83849 -4.07116 0
M  V30 7223 H 657.335 2.71352 -5.47885 0
M  V30 7224 H 661.509 2.60156 -6.45981 0
M  V30 7225 H 659.136 2.53415 -7.16718 0
M  V30 7226 N 660.711 1.11618 1.11262 0
M  V30 7227 C 661.641 0.79846 2.19424 0
M  V30 7228 C 662.622 -0.234003 1.68483 0
M  V30 7229 O 663.807 -0.0970704 1.93957 0
M  V30 7230 C 660.937 0.242892 3.4645 0
M  V30 7231 C 659.891 1.20744 4.10615 0
M  V30 7232 C 659.217 0.512494 5.32238 0
M  V30 7233 C 660.517 2.55884 4.55325 0
M  V30 7234 H 662.211 1.70286 2.46258 0
M  V30 7235 H 659.757 0.820195 1.18359 0
M  V30 7236 H 661.71 0.00840447 4.21399 0
M  V30 7237 H 660.434 -0.696811 3.1908 0
M  V30 7238 H 659.093 1.42759 3.37662 0
M  V30 7239 H 658.741 -0.432075 5.01141 0
M  V30 7240 H 658.441 1.15583 5.7612 0
M  V30 7241 H 659.965 0.286842 6.09926 0
M  V30 7242 H 661.379 2.37946 5.21588 0
M  V30 7243 H 659.776 3.16216 5.10027 0
M  V30 7244 H 660.846 3.14968 3.68678 0
M  V30 7245 N 662.189 -1.289 0.906776 0
M  V30 7246 C 663.6 -1.77336 0.58384 0
M  V30 7247 C 663.951 -1.74304 -0.900697 0
M  V30 7248 O 663.076 -1.33335 -1.70443 0
M  V30 7249 C 663.671 -3.22019 1.05304 0
M  V30 7250 C 662.23 -3.68205 0.781148 0
M  V30 7251 C 661.377 -2.48837 1.22373 0
M  V30 7252 H 664.328 -1.15462 1.08877 0
M  V30 7253 H 664.349 -3.78481 0.391414 0
M  V30 7254 H 663.861 -3.24194 2.13353 0
M  V30 7255 H 661.962 -3.71497 -0.28643 0
M  V30 7256 H 662.075 -4.58675 1.384 0
M  V30 7257 H 660.439 -2.46461 0.642594 0
M  V30 7258 H 661.222 -2.53736 2.31242 0
M  V30 7259 N 663.667 -0.670007 -1.42649 0
M  V30 7260 C 664.914 -0.190286 -2.01604 0
M  V30 7261 C 665.242 1.20155 -1.52948 0
M  V30 7262 O 664.497 1.81964 -0.72026 0
M  V30 7263 C 664.796 -0.168298 -3.57004 0
M  V30 7264 C 664.462 -1.50415 -4.25072 0
M  V30 7265 C 663.124 -1.86992 -4.43382 0
M  V30 7266 C 665.476 -2.38414 -4.63474 0
M  V30 7267 C 662.804 -3.11203 -4.97363 0
M  V30 7268 C 665.156 -3.61933 -5.18833 0
M  V30 7269 C 663.82 -3.98685 -5.35356 0
M  V30 7270 H 663.09 -0.0696305 -0.737721 0
M  V30 7271 H 665.737 -0.864044 -1.70899 0
M  V30 7272 H 664.042 0.588958 -3.87348 0
M  V30 7273 H 665.739 0.22001 -4.00396 0
M  V30 7274 H 662.329 -1.20959 -4.11177 0
M  V30 7275 H 666.513 -2.11442 -4.49006 0
M  V30 7276 H 661.769 -3.39705 -5.08341 0
M  V30 7277 H 665.943 -4.30326 -5.47533 0
M  V30 7278 H 663.57 -4.95009 -5.76949 0
M  V30 7279 N 665.145 1.52092 -0.413018 0
M  V30 7280 C 666.37 2.06756 0.163338 0
M  V30 7281 C 666.795 1.28073 1.37764 0
M  V30 7282 O 666.153 0.312015 1.78595 0
M  V30 7283 C 666.201 3.57278 0.488322 0
M  V30 7284 O 665.305 3.80986 1.57871 0
M  V30 7285 H 664.646 0.663882 0.0125068 0
M  V30 7286 H 667.176 1.95988 -0.587339 0
M  V30 7287 H 667.186 4.01125 0.745836 0
M  V30 7288 H 665.861 4.13978 -0.399327 0
M  V30 7289 H 664.438 3.49017 1.31306 0
M  V30 7290 N 666.623 0.143563 1.56945 0
M  V30 7291 C 667.871 -0.507402 1.95627 0
M  V30 7292 C 668.192 -1.65626 1.02922 0
M  V30 7293 O 667.462 -1.95693 0.0901136 0
M  V30 7294 H 666.042 -0.190436 0.722318 0
M  V30 7295 H 668.704 0.218257 1.93674 0
M  V30 7296 H 667.8 -0.885816 2.99265 0
M  V30 7297 N 668.101 -1.57061 -0.130224 0
M  V30 7298 C 669.349 -1.83893 -0.838313 0
M  V30 7299 C 669.67 -0.727046 -1.80939 0
M  V30 7300 O 668.94 0.249927 -1.94299 0
M  V30 7301 H 667.52 -0.67846 -0.312573 0
M  V30 7302 H 670.182 -1.94529 -0.120224 0
M  V30 7303 H 669.278 -2.79419 -1.39038 0
M  V30 7304 N 669.579 0.400081 -1.52437 0
M  V30 7305 C 670.804 1.17221 -1.71096 0
M  V30 7306 C 671.229 1.83269 -0.423565 0
M  V30 7307 O 670.587 1.70378 0.619751 0
M  V30 7308 C 670.635 2.20425 -2.85386 0
M  V30 7309 O 669.739 3.26769 -2.51586 0
M  V30 7310 H 669.08 0.341766 -0.569291 0
M  V30 7311 H 671.61 0.467772 -1.99181 0
M  V30 7312 H 671.62 2.64605 -3.10561 0
M  V30 7313 H 670.295 1.71737 -3.78786 0
M  V30 7314 H 668.872 2.87804 -2.37114 0
M  V30 7315 N 671.057 1.43213 0.657864 0
M  V30 7316 C 672.473 1.26511 0.972992 0
M  V30 7317 C 672.673 0.181477 2.00681 0
M  V30 7318 O 671.729 -0.441649 2.48608 0
M  V30 7319 C 673.042 2.62784 1.46168 0
M  V30 7320 C 674.59 2.70278 1.57857 0
M  V30 7321 C 675.065 4.06958 2.10117 0
M  V30 7322 N 676.556 4.08999 2.17426 0
M  V30 7323 C 677.291 5.11585 2.58975 0
M  V30 7324 N 676.787 6.24548 2.99853 0
M  V30 7325 N 678.58 4.9894 2.58873 0
M  V30 7326 H 670.731 2.12384 -0.0263129 0
M  V30 7327 H 672.994 0.946638 0.0507992 0
M  V30 7328 H 672.7 3.43022 0.776474 0
M  V30 7329 H 672.574 2.87863 2.43751 0
M  V30 7330 H 674.961 1.90376 2.25479 0
M  V30 7331 H 675.042 2.4897 0.587179 0
M  V30 7332 H 674.686 4.87325 1.43098 0
M  V30 7333 H 674.616 4.25628 3.10078 0
M  V30 7334 H 677.107 3.27457 1.88627 0
M  V30 7335 H 677.42 6.98661 3.30292 0
M  V30 7336 H 675.765 6.28027 2.97669 0
M  V30 7337 H 678.956 4.09757 2.26311 0
M  V30 7338 H 679.129 5.79019 2.90932 0
M  V30 7339 N 672.536 -0.895792 1.29666 0
M  V30 7340 C 673.484 -2.02173 1.15017 0
M  V30 7341 C 674.478 -1.69276 0.0647651 0
M  V30 7342 O 675.684 -1.7859 0.224846 0
M  V30 7343 H 672.059 -0.662719 0.355397 0
M  V30 7344 H 674.03 -2.11666 2.10334 0
M  V30 7345 C 672.779 -3.37212 0.847555 0
M  V30 7346 H 672.102 -3.6303 1.67479 0
M  V30 7347 H 673.542 -4.16668 0.785106 0
M  V30 7348 C 672.001 -3.33891 -0.44929 0
M  V30 7349 O 672.531 -3.73673 -1.47415 0
M  V30 7350 N 670.737 -2.86991 -0.456547 0
M  V30 7351 H 670.284 -2.54813 0.377925 0
M  V30 7352 H 670.242 -2.85152 -1.32423 0
M  V30 7353 N 674.014 -1.12206 -1.10668 0
M  V30 7354 C 675.254 -0.885935 -1.84202 0
M  V30 7355 C 675.618 0.577849 -1.83098 0
M  V30 7356 O 676.819 0.931051 -2.5216 0
M  V30 7357 C 675.09 -1.44197 -3.2702 0
M  V30 7358 S 676.649 -1.34402 -4.1771 0
M  V30 7359 H 673.467 -0.319653 -0.635093 0
M  V30 7360 H 676.069 -1.43112 -1.33189 0
M  V30 7361 H 674.773 -2.50096 -3.25392 0
M  V30 7362 H 674.304 -0.894173 -3.83103 0
M  V30 7363 H 676.319 -0.313873 -4.95206 0
M  V30 7364 N 675.492 1.28418 -0.913599 0
M  V30 7365 C 676.741 1.94265 -0.542572 0
M  V30 7366 C 677.054 1.72709 0.918207 0
M  V30 7367 O 678.26 2.32778 1.39738 0
M  V30 7368 C 676.716 3.47956 -0.919507 0
M  V30 7369 C 676.324 3.78291 -2.4 0
M  V30 7370 C 678.068 4.19962 -0.619057 0
M  V30 7371 C 675.975 5.2529 -2.71707 0
M  V30 7372 H 674.905 0.727213 -0.199192 0
M  V30 7373 H 677.556 1.45931 -1.11249 0
M  V30 7374 H 675.938 3.9502 -0.278372 0
M  V30 7375 H 677.112 3.42035 -3.08786 0
M  V30 7376 H 675.427 3.19456 -2.67089 0
M  V30 7377 H 678.024 5.28178 -0.832623 0
M  V30 7378 H 678.367 4.13935 0.443126 0
M  V30 7379 H 678.9 3.78674 -1.21865 0
M  V30 7380 H 675.639 5.36394 -3.76778 0
M  V30 7381 H 675.159 5.62743 -2.07559 0
M  V30 7382 H 676.838 5.93027 -2.58703 0
M  V30 7383 N 676.97 0.677563 1.42291 0
M  V30 7384 C 678.218 0.200578 2.01102 0
M  V30 7385 C 678.539 -1.19803 1.53858 0
M  V30 7386 O 677.809 -1.80496 0.761439 0
M  V30 7387 H 676.389 0.0711634 0.743603 0
M  V30 7388 H 679.051 0.874691 1.7417 0
M  V30 7389 H 678.147 0.204 3.11433 0
M  V30 7390 N 678.448 -1.51871 0.421078 0
M  V30 7391 C 679.395 -2.27334 -0.398508 0
M  V30 7392 C 680.365 -1.30241 -1.03085 0
M  V30 7393 O 681.55 -1.59121 -1.05285 0
M  V30 7394 C 678.69 -3.10664 -1.50272 0
M  V30 7395 C 677.803 -4.2273 -0.890122 0
M  V30 7396 C 676.938 -4.93399 -1.96803 0
M  V30 7397 C 675.977 -5.97409 -1.333 0
M  V30 7398 N 675.114 -6.61548 -2.35156 0
M  V30 7399 H 679.954 -2.96938 0.251411 0
M  V30 7400 H 677.491 -1.46472 0.135825 0
M  V30 7401 H 679.449 -3.57292 -2.15403 0
M  V30 7402 H 678.079 -2.43207 -2.1225 0
M  V30 7403 H 677.131 -3.80186 -0.127537 0
M  V30 7404 H 678.443 -4.97302 -0.386349 0
M  V30 7405 H 677.597 -5.43491 -2.69633 0
M  V30 7406 H 676.336 -4.18421 -2.50549 0
M  V30 7407 H 675.341 -5.46624 -0.59008 0
M  V30 7408 H 676.566 -6.74335 -0.803076 0
M  V30 7409 H 674.512 -5.89394 -2.88012 0
M  V30 7410 H 674.429 -7.31832 -1.89624 0
M  V30 7411 H 675.697 -7.16276 -3.0752 0
M  V30 7412 N 679.926 -0.151884 -1.56866 0
M  V30 7413 C 680.858 0.817008 -2.14144 0
M  V30 7414 C 681.871 1.20735 -1.0921 0
M  V30 7415 O 683.06 1.15058 -1.36469 0
M  V30 7416 C 680.16 2.10844 -2.65326 0
M  V30 7417 C 679.333 1.88471 -3.94712 0
M  V30 7418 C 678.392 3.01649 -4.31155 0
M  V30 7419 O 677.418 2.73127 -4.9939 0
M  V30 7420 N 678.62 4.28947 -3.91132 0
M  V30 7421 H 681.385 0.327448 -2.97906 0
M  V30 7422 H 678.946 0.0315313 -1.61869 0
M  V30 7423 H 680.938 2.85616 -2.86715 0
M  V30 7424 H 679.508 2.51049 -1.86262 0
M  V30 7425 H 678.728 0.977088 -3.81899 0
M  V30 7426 H 680.016 1.70866 -4.79252 0
M  V30 7427 H 679.414 4.54986 -3.36161 0
M  V30 7428 H 677.971 5.00484 -4.17563 0
M  V30 7429 N 681.404 1.57128 0.121893 0
M  V30 7430 C 682.651 1.847 0.830188 0
M  V30 7431 C 682.979 0.736543 1.80015 0
M  V30 7432 O 682.234 -0.272358 1.93796 0
M  V30 7433 C 682.533 3.1874 1.61677 0
M  V30 7434 C 682.199 4.43901 0.791361 0
M  V30 7435 C 680.861 4.77887 0.563731 0
M  V30 7436 C 683.213 5.20753 0.215823 0
M  V30 7437 C 680.541 5.86168 -0.249737 0
M  V30 7438 C 682.893 6.29891 -0.584821 0
M  V30 7439 C 681.557 6.6241 -0.822794 0
M  V30 7440 H 680.827 0.675866 0.303787 0
M  V30 7441 H 683.474 1.91276 0.0926894 0
M  V30 7442 H 681.779 3.07728 2.42509 0
M  V30 7443 H 683.476 3.37295 2.16872 0
M  V30 7444 H 680.066 4.17272 0.978867 0
M  V30 7445 H 684.25 4.94851 0.378907 0
M  V30 7446 H 679.506 6.0979 -0.44336 0
M  V30 7447 H 683.68 6.88624 -1.03779 0
M  V30 7448 H 681.307 7.46147 -1.45496 0
M  V30 7449 N 682.882 -0.391992 1.52647 0
M  V30 7450 C 683.845 -1.46135 1.7657 0
M  V30 7451 C 684.845 -1.47701 0.635698 0
M  V30 7452 O 686.035 -1.48924 0.903728 0
M  V30 7453 C 683.167 -2.85443 1.86374 0
M  V30 7454 H 684.36 -1.26208 2.72051 0
M  V30 7455 H 681.913 -0.623549 1.43323 0
M  V30 7456 H 682.648 -3.10718 0.928685 0
M  V30 7457 H 682.433 -2.85708 2.68539 0
M  V30 7458 H 683.923 -3.62933 2.06566 0
M  V30 7459 N 684.36 -1.4356 -0.65026 0
M  V30 7460 C 685.293 -1.434 -1.77515 0
M  V30 7461 C 686.271 -0.295082 -1.599 0
M  V30 7462 O 687.455 -0.489128 -1.82043 0
M  V30 7463 C 684.582 -1.2484 -3.14853 0
M  V30 7464 C 683.628 -2.42046 -3.51163 0
M  V30 7465 S 684.461 -4.04595 -3.50803 0
M  V30 7466 C 685.617 -3.88424 -4.90793 0
M  V30 7467 H 685.85 -2.38586 -1.77381 0
M  V30 7468 H 683.383 -1.30627 -0.823169 0
M  V30 7469 H 685.341 -1.14819 -3.94115 0
M  V30 7470 H 684.002 -0.311977 -3.12547 0
M  V30 7471 H 683.195 -2.24873 -4.51052 0
M  V30 7472 H 682.797 -2.48708 -2.79321 0
M  V30 7473 H 685.089 -3.50932 -5.79528 0
M  V30 7474 H 686.032 -4.88076 -5.13018 0
M  V30 7475 H 686.44 -3.20829 -4.64467 0
M  V30 7476 N 685.838 0.888903 -1.30139 0
M  V30 7477 C 686.786 2.0156 -1.16088 0
M  V30 7478 C 687.78 1.69239 -0.0737413 0
M  V30 7479 O 688.986 1.78468 -0.234313 0
M  V30 7480 H 685.361 0.660825 -0.358907 0
M  V30 7481 H 687.332 2.10547 -2.11453 0
M  V30 7482 C 686.081 3.36758 -0.865426 0
M  V30 7483 H 685.404 3.62137 -1.69402 0
M  V30 7484 H 686.844 4.16246 -0.807192 0
M  V30 7485 C 685.303 3.34124 0.431577 0
M  V30 7486 O 685.833 3.7445 1.45431 0
M  V30 7487 N 684.039 2.87229 0.441321 0
M  V30 7488 H 683.586 2.54609 -0.391433 0
M  V30 7489 H 683.544 2.8585 1.30909 0
M  V30 7490 N 687.317 1.12792 1.10072 0
M  V30 7491 C 688.227 0.812369 2.20086 0
M  V30 7492 C 689.243 -0.200349 1.72843 0
M  V30 7493 O 690.419 -0.0330262 2.01373 0
M  V30 7494 C 687.484 0.275685 3.45602 0
M  V30 7495 C 686.545 1.34881 4.07561 0
M  V30 7496 C 685.778 0.837639 5.27086 0
M  V30 7497 O 686.001 -0.327224 5.69461 0
M  V30 7498 O 684.935 1.60894 5.79997 0
M  V30 7499 H 688.761 1.73133 2.49517 0
M  V30 7500 H 686.346 0.904863 1.18881 0
M  V30 7501 H 688.228 -0.0185375 4.21396 0
M  V30 7502 H 686.903 -0.615783 3.17789 0
M  V30 7503 H 685.81 1.69625 3.33434 0
M  V30 7504 H 687.143 2.21418 4.39585 0
M  V30 7505 N 688.795 -1.27931 0.920396 0
M  V30 7506 C 689.725 -2.29487 0.431024 0
M  V30 7507 C 690.706 -1.62435 -0.504861 0
M  V30 7508 O 691.891 -1.89797 -0.411176 0
M  V30 7509 C 689.021 -3.45788 -0.323709 0
M  V30 7510 C 687.975 -4.24784 0.523658 0
M  V30 7511 C 687.301 -5.33488 -0.359809 0
M  V30 7512 C 688.601 -4.90874 1.78437 0
M  V30 7513 H 690.295 -2.70671 1.27975 0
M  V30 7514 H 687.841 -1.30121 0.616813 0
M  V30 7515 H 689.794 -4.15927 -0.676952 0
M  V30 7516 H 688.518 -3.03502 -1.2064 0
M  V30 7517 H 687.177 -3.56382 0.85951 0
M  V30 7518 H 686.825 -4.87445 -1.24124 0
M  V30 7519 H 686.525 -5.87247 0.203605 0
M  V30 7520 H 688.049 -6.06472 -0.708787 0
M  V30 7521 H 689.463 -5.53339 1.49963 0
M  V30 7522 H 687.86 -5.54659 2.29071 0
M  V30 7523 H 688.93 -4.14988 2.50824 0
M  V30 7524 N 690.273 -0.685099 -1.4193 0
M  V30 7525 C 691.22 -0.0131869 -2.30796 0
M  V30 7526 C 692.19 0.782129 -1.46533 0
M  V30 7527 O 693.375 0.75229 -1.75343 0
M  V30 7528 C 690.515 0.924768 -3.32479 0
M  V30 7529 C 689.628 0.122181 -4.31827 0
M  V30 7530 C 688.763 1.05682 -5.20581 0
M  V30 7531 C 687.802 0.246526 -6.11603 0
M  V30 7532 N 686.939 1.13442 -6.92875 0
M  V30 7533 H 691.779 -0.776789 -2.87698 0
M  V30 7534 H 689.316 -0.394791 -1.41703 0
M  V30 7535 H 691.274 1.48251 -3.89971 0
M  V30 7536 H 689.904 1.65488 -2.77152 0
M  V30 7537 H 688.956 -0.552335 -3.76369 0
M  V30 7538 H 690.268 -0.506473 -4.96222 0
M  V30 7539 H 689.422 1.68415 -5.82856 0
M  V30 7540 H 688.161 1.71935 -4.56388 0
M  V30 7541 H 687.166 -0.393944 -5.48387 0
M  V30 7542 H 688.391 -0.412053 -6.77849 0
M  V30 7543 H 686.337 1.78316 -6.313 0
M  V30 7544 H 686.254 0.561089 -7.53915 0
M  V30 7545 H 687.522 1.74889 -7.59628 0
M  V30 7546 N 691.751 1.51645 -0.429126 0
M  V30 7547 C 692.997 2.02314 0.140286 0
M  V30 7548 C 693.33 1.31314 1.43074 0
M  V30 7549 O 692.605 0.425531 1.89788 0
M  V30 7550 C 692.888 3.5822 0.36749 0
M  V30 7551 C 692.741 4.39846 -0.941039 0
M  V30 7552 C 694.06 4.25055 1.14089 0
M  V30 7553 H 691.179 0.735335 0.0495112 0
M  V30 7554 H 693.821 1.81358 -0.566514 0
M  V30 7555 H 691.971 3.76207 0.969556 0
M  V30 7556 H 693.643 4.33527 -1.57646 0
M  V30 7557 H 691.886 4.05259 -1.54751 0
M  V30 7558 H 692.557 5.47069 -0.73621 0
M  V30 7559 H 695.033 4.11288 0.630986 0
M  V30 7560 H 693.909 5.34038 1.26863 0
M  V30 7561 H 694.17 3.85358 2.16683 0
M  V30 7562 N 693.229 0.160201 1.56784 0
M  V30 7563 C 694.192 -0.760405 2.16219 0
M  V30 7564 C 695.192 -1.16595 1.10735 0
M  V30 7565 O 696.382 -1.08472 1.36306 0
M  V30 7566 C 693.514 -2.03358 2.73603 0
M  V30 7567 H 694.707 -0.243173 2.98912 0
M  V30 7568 H 692.26 -0.0893139 1.56045 0
M  V30 7569 H 692.995 -2.59416 1.94612 0
M  V30 7570 H 692.78 -1.75186 3.50788 0
M  V30 7571 H 694.27 -2.69081 3.19351 0
M  V30 7572 N 694.707 -1.5719 -0.113559 0
M  V30 7573 C 695.935 -1.89328 -0.834422 0
M  V30 7574 C 696.35 -0.752018 -1.73177 0
M  V30 7575 O 695.707 0.276912 -1.80387 0
M  V30 7576 C 695.758 -3.20962 -1.66329 0
M  V30 7577 O 695.479 -4.30695 -0.802069 0
M  V30 7578 C 696.98 -3.6684 -2.48884 0
M  V30 7579 H 694.2 -0.626769 -0.239587 0
M  V30 7580 H 696.744 -2.04273 -0.0963195 0
M  V30 7581 H 694.899 -3.0767 -2.35409 0
M  V30 7582 H 695.313 -5.06175 -1.37431 0
M  V30 7583 H 696.787 -4.61692 -3.02563 0
M  V30 7584 H 697.264 -2.93765 -3.26495 0
M  V30 7585 H 697.87 -3.82938 -1.85036 0
M  V30 7586 N 696.185 0.383891 -1.52853 0
M  V30 7587 C 697.148 1.45197 -1.77343 0
M  V30 7588 C 698.148 1.47362 -0.643522 0
M  V30 7589 O 699.338 1.48443 -0.911613 0
M  V30 7590 C 696.47 2.8445 -1.87885 0
M  V30 7591 H 697.663 1.24764 -2.72716 0
M  V30 7592 H 695.216 0.615939 -1.43652 0
M  V30 7593 H 695.951 3.10222 -0.94515 0
M  V30 7594 H 695.736 2.8428 -2.70051 0
M  V30 7595 H 697.226 3.61832 -2.08488 0
M  V30 7596 N 697.663 1.43903 0.642637 0
M  V30 7597 C 698.593 1.52697 1.76652 0
M  V30 7598 C 699.574 0.380816 1.65782 0
M  V30 7599 O 700.759 0.599432 1.84717 0
M  V30 7600 C 697.889 1.45975 3.15133 0
M  V30 7601 C 696.843 2.58949 3.40778 0
M  V30 7602 C 696.169 2.37279 4.79169 0
M  V30 7603 C 697.469 4.01153 3.34475 0
M  V30 7604 H 699.163 2.46766 1.69549 0
M  V30 7605 H 696.709 1.18767 0.814279 0
M  V30 7606 H 698.662 1.5073 3.93521 0
M  V30 7607 H 697.386 0.484162 3.22991 0
M  V30 7608 H 696.045 2.53564 2.64765 0
M  V30 7609 H 695.693 1.37939 4.83717 0
M  V30 7610 H 695.393 3.13016 4.97287 0
M  V30 7611 H 696.917 2.43834 5.59801 0
M  V30 7612 H 698.331 4.07968 4.02784 0
M  V30 7613 H 696.728 4.77001 3.64129 0
M  V30 7614 H 697.798 4.25539 2.32475 0
M  V30 7615 N 699.141 -0.881989 1.30609 0
M  V30 7616 C 700.369 -1.66711 1.22536 0
M  V30 7617 C 700.784 -1.87614 -0.2113 0
M  V30 7618 O 700.141 -1.42576 -1.13923 0
M  V30 7619 C 700.192 -3.04182 1.95335 0
M  V30 7620 O 699.913 -2.8422 3.33393 0
M  V30 7621 C 701.414 -3.98617 1.93956 0
M  V30 7622 H 698.634 -0.520124 0.423925 0
M  V30 7623 H 701.178 -1.10174 1.72285 0
M  V30 7624 H 699.333 -3.57442 1.49378 0
M  V30 7625 H 699.747 -3.71452 3.70302 0
M  V30 7626 H 701.221 -4.92433 2.49426 0
M  V30 7627 H 701.698 -4.29473 0.919198 0
M  V30 7628 H 702.304 -3.51292 2.39738 0
M  V30 7629 N 700.619 -1.13374 -1.09472 0
M  V30 7630 C 701.549 -0.833268 -2.18126 0
M  V30 7631 C 702.53 0.207169 -1.68834 0
M  V30 7632 O 703.715 0.0662012 -1.94087 0
M  V30 7633 C 700.845 -0.297979 -3.46019 0
M  V30 7634 C 699.799 -1.27261 -4.08642 0
M  V30 7635 C 699.125 -0.597104 -5.31356 0
M  V30 7636 C 700.425 -2.63095 -4.51197 0
M  V30 7637 H 702.119 -1.74182 -2.43518 0
M  V30 7638 H 699.665 -0.838921 -1.17039 0
M  V30 7639 H 701.618 -0.0754444 -4.21332 0
M  V30 7640 H 700.342 0.645959 -3.20148 0
M  V30 7641 H 699.001 -1.48113 -3.35348 0
M  V30 7642 H 698.649 0.352293 -5.01765 0
M  V30 7643 H 698.349 -1.24734 -5.74208 0
M  V30 7644 H 699.873 -0.38384 -6.09392 0
M  V30 7645 H 701.287 -2.46214 -5.17737 0
M  V30 7646 H 699.684 -3.2429 -5.04932 0
M  V30 7647 H 700.754 -3.20793 -3.6362 0
M  V30 7648 N 702.098 1.27442 -0.927168 0
M  V30 7649 C 703.028 2.29256 -0.443188 0
M  V30 7650 C 704.009 1.62701 0.49624 0
M  V30 7651 O 705.194 1.90013 0.401105 0
M  V30 7652 C 702.324 3.45955 0.305366 0
M  V30 7653 C 701.278 4.24501 -0.546178 0
M  V30 7654 C 700.604 5.33671 0.331512 0
M  V30 7655 C 701.904 4.89921 -1.81037 0
M  V30 7656 H 703.598 2.69988 -1.29409 0
M  V30 7657 H 701.144 1.29792 -0.623705 0
M  V30 7658 H 703.097 4.1628 0.654885 0
M  V30 7659 H 701.821 3.04138 1.19029 0
M  V30 7660 H 700.48 3.55921 -0.878398 0
M  V30 7661 H 700.128 4.88096 1.21537 0
M  V30 7662 H 699.828 5.87131 -0.234746 0
M  V30 7663 H 701.352 6.0684 0.676614 0
M  V30 7664 H 702.766 5.52536 -1.52895 0
M  V30 7665 H 701.163 5.53436 -2.32009 0
M  V30 7666 H 702.233 4.13652 -2.53021 0
M  V30 7667 N 703.576 0.692616 1.41565 0
M  V30 7668 C 704.992 0.363878 1.55397 0
M  V30 7669 C 705.192 -1.1294 1.66874 0
M  V30 7670 O 704.248 -1.91517 1.64552 0
M  V30 7671 C 705.561 1.10982 2.7947 0
M  V30 7672 C 707.109 1.09387 2.93263 0
M  V30 7673 C 707.584 1.8215 4.20221 0
M  V30 7674 N 709.075 1.79105 4.27172 0
M  V30 7675 C 709.81 2.32247 5.2426 0
M  V30 7676 N 709.306 2.93847 6.27396 0
M  V30 7677 N 711.099 2.22519 5.1618 0
M  V30 7678 H 703.25 1.66116 1.3236 0
M  V30 7679 H 705.513 0.700848 0.63837 0
M  V30 7680 H 705.219 2.1647 2.77188 0
M  V30 7681 H 705.093 0.686492 3.709 0
M  V30 7682 H 707.48 0.0472638 2.95062 0
M  V30 7683 H 707.561 1.55623 2.03015 0
M  V30 7684 H 707.205 2.86789 4.19183 0
M  V30 7685 H 707.135 1.33351 5.09436 0
M  V30 7686 H 709.626 1.34191 3.53272 0
M  V30 7687 H 709.939 3.31972 6.97864 0
M  V30 7688 H 708.284 2.97924 6.27906 0
M  V30 7689 H 711.475 1.7407 4.34531 0
M  V30 7690 H 711.648 2.64239 5.91677 0
M  V30 7691 N 705.054 -1.51416 0.437162 0
M  V30 7692 C 706.301 -2.02086 -0.129364 0
M  V30 7693 C 706.629 -1.32133 -1.42728 0
M  V30 7694 O 705.884 -0.424916 -1.91031 0
M  V30 7695 C 706.183 -3.55203 -0.39564 0
M  V30 7696 C 705.849 -4.43447 0.81644 0
M  V30 7697 C 704.511 -4.67285 1.14884 0
M  V30 7698 C 706.863 -4.95219 1.62503 0
M  V30 7699 C 704.191 -5.40141 2.29052 0
M  V30 7700 C 706.543 -5.69327 2.7577 0
M  V30 7701 C 705.207 -5.91429 3.09464 0
M  V30 7702 H 704.477 -0.739486 -0.0473375 0
M  V30 7703 H 707.124 -1.82368 0.584321 0
M  V30 7704 H 705.429 -3.73252 -1.19121 0
M  V30 7705 H 707.126 -3.91944 -0.847399 0
M  V30 7706 H 703.716 -4.2509 0.547422 0
M  V30 7707 H 707.9 -4.76686 1.38144 0
M  V30 7708 H 703.156 -5.55468 2.55471 0
M  V30 7709 H 707.33 -6.08433 3.38795 0
M  V30 7710 H 704.957 -6.47662 3.98042 0
M  V30 7711 N 706.532 -0.168513 -1.56696 0
M  V30 7712 C 707.442 0.775435 -2.21414 0
M  V30 7713 C 708.458 1.25529 -1.20492 0
M  V30 7714 O 709.634 1.30801 -1.53144 0
M  V30 7715 C 706.699 1.9886 -2.83999 0
M  V30 7716 C 705.76 1.5559 -4.00113 0
M  V30 7717 C 704.993 2.71124 -4.59704 0
M  V30 7718 O 705.216 3.87917 -4.18182 0
M  V30 7719 O 704.15 2.4536 -5.4962 0
M  V30 7720 H 707.976 0.254416 -3.02632 0
M  V30 7721 H 705.561 0.0595507 -1.49281 0
M  V30 7722 H 707.443 2.69816 -3.23693 0
M  V30 7723 H 706.118 2.49874 -2.05779 0
M  V30 7724 H 705.025 0.815924 -3.65094 0
M  V30 7725 H 706.358 1.09271 -4.79917 0
M  V30 7726 N 708.01 1.57248 0.105221 0
M  V30 7727 C 708.94 2.04374 1.12931 0
M  V30 7728 C 709.921 0.93074 1.42377 0
M  V30 7729 O 711.106 1.20136 1.52581 0
M  V30 7730 C 708.236 2.45967 2.45189 0
M  V30 7731 C 707.19 3.60838 2.30174 0
M  V30 7732 C 706.516 3.88374 3.67518 0
M  V30 7733 C 707.816 4.92084 1.75073 0
M  V30 7734 H 709.51 2.9018 0.737287 0
M  V30 7735 H 707.056 1.39601 0.353211 0
M  V30 7736 H 709.009 2.77542 3.17094 0
M  V30 7737 H 707.733 1.57148 2.86308 0
M  V30 7738 H 706.392 3.29493 1.60716 0
M  V30 7739 H 706.04 2.96739 4.06147 0
M  V30 7740 H 705.74 4.65703 3.58321 0
M  V30 7741 H 707.264 4.22415 4.40906 0
M  V30 7742 H 708.678 5.22106 2.36809 0
M  V30 7743 H 707.075 5.73507 1.76662 0
M  V30 7744 H 708.145 4.79684 0.709347 0
M  V30 7745 N 709.488 -0.375779 1.53054 0
M  V30 7746 C 710.418 -1.46598 1.81745 0
M  V30 7747 C 711.399 -1.56337 0.670286 0
M  V30 7748 O 712.584 -1.71071 0.919158 0
M  V30 7749 C 709.714 -2.84058 1.99821 0
M  V30 7750 C 708.668 -2.8915 3.15557 0
M  V30 7751 C 707.994 -4.29187 3.18908 0
M  V30 7752 C 709.294 -2.57595 4.54359 0
M  V30 7753 H 710.988 -1.22837 2.73041 0
M  V30 7754 H 708.534 -0.589485 1.31381 0
M  V30 7755 H 710.487 -3.60342 2.18475 0
M  V30 7756 H 709.211 -3.09184 1.05226 0
M  V30 7757 H 707.87 -2.15316 2.96706 0
M  V30 7758 H 707.518 -4.51374 2.2197 0
M  V30 7759 H 707.218 -4.33512 3.96662 0
M  V30 7760 H 708.742 -5.07359 3.39734 0
M  V30 7761 H 710.156 -3.23595 4.73243 0
M  V30 7762 H 708.553 -2.73252 5.34279 0
M  V30 7763 H 709.623 -1.52882 4.60169 0
M  V30 7764 N 710.966 -1.44241 -0.634997 0
M  V30 7765 C 712.377 -1.41622 -1.21655 0
M  V30 7766 C 712.728 -0.129584 -1.95772 0
M  V30 7767 O 711.853 0.770225 -2.02229 0
M  V30 7768 C 712.448 -2.56557 -2.21278 0
M  V30 7769 C 711.007 -2.57145 -2.7487 0
M  V30 7770 C 710.154 -2.33354 -1.49804 0
M  V30 7771 H 713.105 -1.52878 -0.425905 0
M  V30 7772 H 713.126 -2.29089 -3.03807 0
M  V30 7773 H 712.638 -3.50186 -1.67306 0
M  V30 7774 H 710.739 -1.67447 -3.32855 0
M  V30 7775 H 710.852 -3.55507 -3.21172 0
M  V30 7776 H 709.216 -1.82372 -1.77799 0
M  V30 7777 H 709.999 -3.29092 -0.977402 0
M  V30 7778 N 712.444 0.87505 -1.31075 0
M  V30 7779 C 713.721 1.60976 -1.11113 0
M  V30 7780 C 714.101 2.08409 0.336006 0
M  V30 7781 O 713.449 1.85858 1.32924 0
M  V30 7782 C 713.659 2.77166 -2.12085 0
M  V30 7783 C 715.007 3.47254 -2.44335 0
M  V30 7784 O 716.031 2.87367 -2.10472 0
M  V30 7785 O 714.89 4.55276 -3.02301 0
M  V30 7786 H 711.984 0.707982 -0.427424 0
M  V30 7787 H 714.53 0.920957 -1.42536 0
M  V30 7788 H 713.302 2.39494 -3.09449 0
M  V30 7789 H 712.925 3.53737 -1.81538 0
M  V30 7790 N 713.922 1.13953 1.08869 0
M  V30 7791 C 715.333 0.916649 1.62648 0
M  V30 7792 C 715.684 -0.545589 1.88462 0
M  V30 7793 O 714.809 -1.41351 1.63856 0
M  V30 7794 C 715.404 1.65751 2.95486 0
M  V30 7795 C 713.963 1.48034 3.46068 0
M  V30 7796 C 713.11 1.68305 2.20383 0
M  V30 7797 H 716.061 1.292 0.921572 0
M  V30 7798 H 716.082 1.11794 3.63707 0
M  V30 7799 H 715.594 2.72171 2.76667 0
M  V30 7800 H 713.695 0.439416 3.7 0
M  V30 7801 H 713.808 2.24719 4.23129 0
M  V30 7802 H 712.172 1.10833 2.29321 0
M  V30 7803 H 712.955 2.76057 2.04077 0
M  V30 7804 N 715.4 -1.26948 0.933913 0
M  V30 7805 C 716.628 -1.98186 0.59414 0
M  V30 7806 C 717.043 -1.69614 -0.829257 0
M  V30 7807 O 716.4 -0.960213 -1.55197 0
M  V30 7808 C 716.451 -3.52123 0.818026 0
M  V30 7809 O 716.172 -3.79698 2.18543 0
M  V30 7810 C 717.673 -4.40608 0.48781 0
M  V30 7811 H 714.893 -0.632305 0.224569 0
M  V30 7812 H 717.437 -1.61646 1.25263 0
M  V30 7813 H 715.592 -3.86851 0.206246 0
M  V30 7814 H 716.006 -4.7426 2.24005 0
M  V30 7815 H 717.48 -5.47606 0.695126 0
M  V30 7816 H 717.957 -4.35394 -0.576913 0
M  V30 7817 H 718.563 -4.11411 1.078 0
M  V30 7818 N 716.879 -0.700114 -1.41195 0
M  V30 7819 C 718.295 -0.372114 -1.55201 0
M  V30 7820 C 718.495 1.12053 -1.6747 0
M  V30 7821 O 717.551 1.90642 -1.65566 0
M  V30 7822 C 718.864 -1.12462 -2.78878 0
M  V30 7823 C 720.412 -1.10941 -2.92679 0
M  V30 7824 C 720.887 -1.84376 -4.19249 0
M  V30 7825 N 722.378 -1.81368 -4.26216 0
M  V30 7826 C 723.113 -2.35024 -5.23021 0
M  V30 7827 N 722.609 -2.9717 -6.25829 0
M  V30 7828 N 724.402 -2.25254 -5.14992 0
M  V30 7829 H 716.553 -1.66816 -1.31477 0
M  V30 7830 H 718.816 -0.704223 -0.634644 0
M  V30 7831 H 718.522 -2.17937 -2.76037 0
M  V30 7832 H 718.396 -0.706152 -3.70531 0
M  V30 7833 H 720.783 -0.062911 -2.95033 0
M  V30 7834 H 720.864 -1.56698 -2.02187 0
M  V30 7835 H 720.508 -2.89008 -4.17656 0
M  V30 7836 H 720.438 -1.3605 -5.08722 0
M  V30 7837 H 722.929 -1.36062 -3.52556 0
M  V30 7838 H 723.242 -3.35668 -6.96094 0
M  V30 7839 H 721.587 -3.01249 -6.26318 0
M  V30 7840 H 724.778 -1.76372 -4.33602 0
M  V30 7841 H 724.951 -2.67373 -5.90268 0
M  V30 7842 N 718.357 1.51182 -0.445186 0
M  V30 7843 C 719.606 2.01342 0.120189 0
M  V30 7844 C 719.919 1.33353 1.43095 0
M  V30 7845 O 721.125 1.74525 2.07974 0
M  V30 7846 C 719.581 3.58925 0.264732 0
M  V30 7847 C 719.189 4.35855 -1.03606 0
M  V30 7848 C 720.933 4.17208 0.783455 0
M  V30 7849 C 718.84 5.85162 -0.856731 0
M  V30 7850 H 717.77 0.752426 0.0486922 0
M  V30 7851 H 720.421 1.74221 -0.576143 0
M  V30 7852 H 718.803 3.82525 1.02425 0
M  V30 7853 H 719.977 4.23997 -1.80452 0
M  V30 7854 H 718.292 3.89062 -1.48391 0
M  V30 7855 H 720.889 5.26475 0.934239 0
M  V30 7856 H 721.232 3.76892 1.768 0
M  V30 7857 H 721.765 3.97715 0.0820346 0
M  V30 7858 H 718.504 6.29904 -1.81388 0
M  V30 7859 H 718.024 5.99663 -0.128206 0
M  V30 7860 H 719.703 6.44963 -0.513027 0
M  V30 7861 N 719.835 0.176821 1.56605 0
M  V30 7862 C 721.246 -0.338963 1.83597 0
M  V30 7863 C 721.597 -1.62677 1.09684 0
M  V30 7864 O 720.722 -2.13524 0.351661 0
M  V30 7865 C 721.317 -0.62177 3.33046 0
M  V30 7866 C 719.876 -1.08198 3.60514 0
M  V30 7867 C 719.023 -0.120774 2.77037 0
M  V30 7868 H 721.974 0.400978 1.53551 0
M  V30 7869 H 721.995 -1.47321 3.50823 0
M  V30 7870 H 721.507 0.315692 3.86814 0
M  V30 7871 H 719.608 -2.03435 3.12162 0
M  V30 7872 H 719.721 -0.987329 4.68816 0
M  V30 7873 H 718.085 -0.619192 2.47059 0
M  V30 7874 H 718.868 0.810806 3.33588 0
M  V30 7875 N 721.313 -1.57302 -0.09688 0
M  V30 7876 C 722.562 -1.85183 -0.799388 0
M  V30 7877 C 722.875 -0.765818 -1.79985 0
M  V30 7878 O 724.081 -0.931696 -2.55013 0
M  V30 7879 C 722.537 -3.28399 -1.47249 0
M  V30 7880 C 722.145 -4.45066 -0.511888 0
M  V30 7881 C 723.889 -3.65506 -2.15883 0
M  V30 7882 C 721.796 -5.79315 -1.18948 0
M  V30 7883 H 720.726 -0.690752 -0.302287 0
M  V30 7884 H 723.377 -1.83425 -0.0523104 0
M  V30 7885 H 721.759 -3.24692 -2.26697 0
M  V30 7886 H 722.933 -4.60116 0.250962 0
M  V30 7887 H 721.248 -4.16343 0.0686576 0
M  V30 7888 H 723.845 -4.63087 -2.67309 0
M  V30 7889 H 724.188 -2.94041 -2.94696 0
M  V30 7890 H 724.721 -3.71094 -1.43298 0
M  V30 7891 H 721.46 -6.54007 -0.442198 0
M  V30 7892 H 720.98 -5.68111 -1.9238 0
M  V30 7893 H 722.659 -6.23816 -1.71646 0
M  V30 7894 N 722.791 0.367657 -1.53252 0
M  V30 7895 C 724.202 0.944563 -1.61043 0
M  V30 7896 C 724.553 1.90325 -0.476546 0
M  V30 7897 O 723.678 2.12721 0.397333 0
M  V30 7898 C 724.273 1.71992 -2.91898 0
M  V30 7899 C 722.832 2.2462 -3.02031 0
M  V30 7900 C 721.979 1.05799 -2.56324 0
M  V30 7901 H 724.93 0.146516 -1.58022 0
M  V30 7902 H 724.951 2.58095 -2.79584 0
M  V30 7903 H 724.463 1.02192 -3.74404 0
M  V30 7904 H 722.564 2.97668 -2.24108 0
M  V30 7905 H 722.677 2.52644 -4.07073 0
M  V30 7906 H 721.041 1.42435 -2.1115 0
M  V30 7907 H 721.824 0.375008 -3.41246 0
M  V30 7908 N 724.269 1.44576 0.627338 0
M  V30 7909 C 725.518 1.46837 1.38281 0
M  V30 7910 C 725.831 0.10635 1.95311 0
M  V30 7911 O 727.037 0.00651084 2.71499 0
M  V30 7912 C 725.493 2.58527 2.50384 0
M  V30 7913 C 725.101 4.00953 1.99851 0
M  V30 7914 C 726.845 2.70013 3.27557 0
M  V30 7915 C 724.752 5.0406 3.09318 0
M  V30 7916 H 723.682 0.546319 0.519664 0
M  V30 7917 H 726.333 1.70654 0.674497 0
M  V30 7918 H 724.715 2.27957 3.23808 0
M  V30 7919 H 725.889 4.41108 1.33267 0
M  V30 7920 H 724.204 3.93743 1.35482 0
M  V30 7921 H 726.801 3.44217 4.09168 0
M  V30 7922 H 727.144 1.75961 3.77284 0
M  V30 7923 H 727.677 3.00011 2.61224 0
M  V30 7924 H 724.416 5.99753 2.6453 0
M  V30 7925 H 723.936 4.68493 3.74532 0
M  V30 7926 H 725.615 5.2793 3.74031 0
M  V30 7927 N 725.747 -0.868086 1.31537 0
M  V30 7928 C 726.71 -1.95703 1.19302 0
M  V30 7929 C 727.71 -1.60355 0.119612 0
M  V30 7930 O 728.9 -1.70247 0.36902 0
M  V30 7931 C 726.032 -3.30599 0.831684 0
M  V30 7932 H 727.225 -2.07982 2.16064 0
M  V30 7933 H 724.778 -1.05661 1.15176 0
M  V30 7934 H 725.513 -3.2402 -0.134694 0
M  V30 7935 H 725.298 -3.57629 1.60761 0
M  V30 7936 H 726.788 -4.10439 0.770026 0
M  V30 7937 N 727.225 -1.14528 -1.08264 0
M  V30 7938 C 728.641 -0.885976 -1.3275 0
M  V30 7939 C 728.841 0.472096 -1.95892 0
M  V30 7940 O 727.897 1.21606 -2.21288 0
M  V30 7941 C 729.21 -2.01982 -2.22764 0
M  V30 7942 C 730.758 -2.05329 -2.36239 0
M  V30 7943 C 731.233 -3.1801 -3.29596 0
M  V30 7944 N 732.724 -3.17598 -3.37173 0
M  V30 7945 C 733.459 -4.01426 -4.09444 0
M  V30 7946 N 732.955 -4.95297 -4.8441 0
M  V30 7947 N 734.748 -3.89482 -4.0529 0
M  V30 7948 H 726.899 -2.01996 -0.656607 0
M  V30 7949 H 729.162 -0.880274 -0.351884 0
M  V30 7950 H 728.868 -2.99964 -1.83615 0
M  V30 7951 H 728.742 -1.94421 -3.23234 0
M  V30 7952 H 731.129 -1.07953 -2.74646 0
M  V30 7953 H 731.21 -2.1696 -1.35506 0
M  V30 7954 H 730.854 -4.15633 -2.9191 0
M  V30 7955 H 730.784 -3.03616 -4.30261 0
M  V30 7956 H 733.275 -2.4961 -2.83731 0
M  V30 7957 H 733.588 -5.55723 -5.37021 0
M  V30 7958 H 731.933 -4.99293 -4.83457 0
M  V30 7959 H 735.124 -3.15465 -3.45832 0
M  V30 7960 H 735.297 -4.55039 -4.6135 0
M  V30 7961 N 728.703 1.26451 -0.940633 0
M  V30 7962 C 729.633 2.28773 -0.467479 0
M  V30 7963 C 730.614 1.63218 0.478955 0
M  V30 7964 O 731.799 1.90427 0.380929 0
M  V30 7965 C 728.929 3.46259 0.268656 0
M  V30 7966 C 727.883 4.23898 -0.591171 0
M  V30 7967 C 727.209 5.33993 0.274891 0
M  V30 7968 C 728.509 4.87974 -1.86223 0
M  V30 7969 H 730.203 2.68601 -1.32265 0
M  V30 7970 H 727.749 1.29123 -0.637436 0
M  V30 7971 H 729.702 4.16951 0.610696 0
M  V30 7972 H 728.426 3.05383 1.15796 0
M  V30 7973 H 727.085 3.54969 -0.916098 0
M  V30 7974 H 726.733 4.89358 1.16353 0
M  V30 7975 H 726.433 5.86849 -0.297006 0
M  V30 7976 H 727.957 6.07523 0.612213 0
M  V30 7977 H 729.371 5.50883 -1.58747 0
M  V30 7978 H 727.768 5.50945 -2.37866 0
M  V30 7979 H 728.838 4.10945 -2.57394 0
M  V30 7980 N 730.181 0.707592 1.40822 0
M  V30 7981 C 731.427 0.244031 2.01326 0
M  V30 7982 C 731.76 -1.15722 1.55955 0
M  V30 7983 O 731.035 -1.78347 0.776044 0
M  V30 7984 C 731.318 0.315128 3.58718 0
M  V30 7985 C 731.171 1.75419 4.14184 0
M  V30 7986 C 732.49 -0.318251 4.38948 0
M  V30 7987 H 729.609 0.0901471 0.731466 0
M  V30 7988 H 732.251 0.898584 1.67408 0
M  V30 7989 H 730.401 -0.242176 3.87744 0
M  V30 7990 H 732.073 2.36626 3.95987 0
M  V30 7991 H 730.316 2.28449 3.68773 0
M  V30 7992 H 730.987 1.75538 5.23345 0
M  V30 7993 H 733.463 0.156514 4.15806 0
M  V30 7994 H 732.339 -0.238019 5.48384 0
M  V30 7995 H 732.6 -1.40067 4.19325 0
M  V30 7996 N 731.66 -1.50943 0.453197 0
M  V30 7997 C 732.59 -2.31005 -0.34044 0
M  V30 7998 C 733.571 -1.37112 -1.00669 0
M  V30 7999 O 734.756 -1.66033 -1.0073 0
M  V30 8000 C 731.886 -3.16358 -1.433 0
M  V30 8001 C 730.84 -4.18658 -0.889363 0
M  V30 8002 C 730.166 -4.92633 -2.07887 0
M  V30 8003 C 731.466 -5.22227 0.0871142 0
M  V30 8004 H 733.16 -2.97601 0.327723 0
M  V30 8005 H 730.706 -1.43119 0.159054 0
M  V30 8006 H 732.659 -3.71155 -1.99555 0
M  V30 8007 H 731.383 -2.47613 -2.12968 0
M  V30 8008 H 730.042 -3.64936 -0.348915 0
M  V30 8009 H 729.69 -4.20376 -2.76211 0
M  V30 8010 H 729.39 -5.61819 -1.72143 0
M  V30 8011 H 730.914 -5.50258 -2.64666 0
M  V30 8012 H 732.328 -5.72001 -0.385656 0
M  V30 8013 H 730.725 -5.99032 0.357926 0
M  V30 8014 H 731.795 -4.74077 1.01879 0
M  V30 8015 N 733.138 -0.185124 -1.56509 0
M  V30 8016 C 734.085 0.739729 -2.18624 0
M  V30 8017 C 735.055 1.217 -1.13042 0
M  V30 8018 O 736.24 1.28268 -1.41251 0
M  V30 8019 C 733.38 1.95787 -2.84186 0
M  V30 8020 C 732.493 1.52289 -4.04267 0
M  V30 8021 C 731.628 2.69576 -4.57714 0
M  V30 8022 C 730.667 2.22636 -5.70175 0
M  V30 8023 N 729.804 3.33065 -6.18071 0
M  V30 8024 H 734.644 0.203269 -2.97306 0
M  V30 8025 H 732.181 0.0885946 -1.46833 0
M  V30 8026 H 734.139 2.67253 -3.20361 0
M  V30 8027 H 732.769 2.4678 -2.08085 0
M  V30 8028 H 731.821 0.704458 -3.7382 0
M  V30 8029 H 733.133 1.13843 -4.85635 0
M  V30 8030 H 732.287 3.4918 -4.96143 0
M  V30 8031 H 731.026 3.1129 -3.75433 0
M  V30 8032 H 730.031 1.41483 -5.31284 0
M  V30 8033 H 731.256 1.81964 -6.54267 0
M  V30 8034 H 729.202 3.74328 -5.38715 0
M  V30 8035 H 729.119 2.98756 -6.94464 0
M  V30 8036 H 730.387 4.12912 -6.61153 0
M  V30 8037 N 734.616 1.57351 0.0885366 0
M  V30 8038 C 735.841 1.91011 0.80805 0
M  V30 8039 C 736.266 0.780009 1.71165 0
M  V30 8040 O 735.624 -0.268083 1.79307 0
M  V30 8041 C 735.672 3.23562 1.59185 0
M  V30 8042 O 734.776 3.11615 2.7013 0
M  V30 8043 H 734.117 0.625943 0.221565 0
M  V30 8044 H 736.647 2.04507 0.0617954 0
M  V30 8045 H 736.657 3.5703 1.97468 0
M  V30 8046 H 735.332 4.05398 0.928741 0
M  V30 8047 H 733.909 2.89673 2.34827 0
M  V30 8048 N 736.094 -0.359525 1.53444 0
M  V30 8049 C 737.041 -1.44073 1.8031 0
M  V30 8050 C 738.011 -1.52946 0.647811 0
M  V30 8051 O 739.196 -1.68739 0.890614 0
M  V30 8052 C 736.336 -2.80941 2.00416 0
M  V30 8053 C 735.449 -2.80986 3.28132 0
M  V30 8054 C 734.584 -4.09468 3.38393 0
M  V30 8055 C 733.623 -4.03679 4.60119 0
M  V30 8056 N 732.76 -5.23821 4.675 0
M  V30 8057 H 737.6 -1.20464 2.72566 0
M  V30 8058 H 735.137 -0.583859 1.35017 0
M  V30 8059 H 737.095 -3.60459 2.1006 0
M  V30 8060 H 735.725 -3.02936 1.11489 0
M  V30 8061 H 734.777 -1.93666 3.27411 0
M  V30 8062 H 736.089 -2.72583 4.17732 0
M  V30 8063 H 735.243 -4.97404 3.47382 0
M  V30 8064 H 733.982 -4.20632 2.4682 0
M  V30 8065 H 732.987 -3.14129 4.51224 0
M  V30 8066 H 734.212 -3.94112 5.5304 0
M  V30 8067 H 732.158 -5.35559 3.7883 0
M  V30 8068 H 732.075 -5.17611 5.51013 0
M  V30 8069 H 733.343 -6.13572 4.8078 0
M  V30 8070 N 737.572 -1.44907 -0.619662 0
M  V30 8071 C 738.52 -1.52971 -1.75222 0
M  V30 8072 C 739.514 -0.400531 -1.64597 0
M  V30 8073 O 740.72 -0.575952 -1.70537 0
M  V30 8074 H 737.095 -0.480241 -0.578682 0
M  V30 8075 H 739.066 -2.48269 -1.65545 0
M  V30 8076 C 737.815 -1.50204 -3.13583 0
M  V30 8077 H 737.138 -2.36412 -3.22412 0
M  V30 8078 H 738.578 -1.59905 -3.92691 0
M  V30 8079 C 737.037 -0.22455 -3.36151 0
M  V30 8080 O 737.567 0.700574 -3.95544 0
M  V30 8081 N 735.773 -0.124052 -2.90335 0
M  V30 8082 H 735.32 -0.87774 -2.42185 0
M  V30 8083 H 735.278 0.729914 -3.0581 0
M  V30 8084 N 739.05 0.861098 -1.31996 0
M  V30 8085 C 740.298 1.61162 -1.21947 0
M  V30 8086 C 740.619 1.93751 0.220351 0
M  V30 8087 O 739.889 1.59069 1.14341 0
M  V30 8088 H 738.469 0.597485 -0.448353 0
M  V30 8089 H 741.131 1.03039 -1.65436 0
M  V30 8090 H 740.227 2.55138 -1.79752 0
M  V30 8091 N 740.528 1.15101 1.07655 0
M  V30 8092 C 741.777 0.918528 1.79572 0
M  V30 8093 C 742.09 -0.555922 1.87534 0
M  V30 8094 O 743.296 -0.905893 2.55941 0
M  V30 8095 C 741.752 1.59394 3.22679 0
M  V30 8096 C 741.36 3.1052 3.22927 0
M  V30 8097 C 743.104 1.44289 3.99225 0
M  V30 8098 C 741.011 3.70862 4.60668 0
M  V30 8099 H 739.941 0.340006 0.672987 0
M  V30 8100 H 742.592 1.38079 1.20857 0
M  V30 8101 H 740.974 1.05936 3.81567 0
M  V30 8102 H 742.148 3.70708 2.737 0
M  V30 8103 H 740.463 3.25351 2.59876 0
M  V30 8104 H 743.06 1.86766 5.01022 0
M  V30 8105 H 743.403 0.389975 4.14469 0
M  V30 8106 H 743.936 1.94826 3.46825 0
M  V30 8107 H 740.675 4.7604 4.50628 0
M  V30 8108 H 740.195 3.15456 5.10145 0
M  V30 8109 H 741.874 3.71607 5.29639 0
M  V30 8110 N 742.006 -1.2595 0.947325 0
M  V30 8111 C 742.956 -2.23859 0.432547 0
M  V30 8112 C 743.94 -1.53755 -0.474154 0
M  V30 8113 O 745.132 -1.74293 -0.308397 0
M  V30 8114 C 742.261 -3.42027 -0.295318 0
M  V30 8115 C 741.347 -4.19409 0.62903 0
M  V30 8116 N 741.738 -4.74284 1.7575 0
M  V30 8117 C 740.036 -4.43866 0.435805 0
M  V30 8118 C 740.737 -5.32821 2.33401 0
M  V30 8119 N 739.713 -5.18858 1.62135 0
M  V30 8120 H 743.515 -2.63886 1.29388 0
M  V30 8121 H 741.029 -1.41105 0.80393 0
M  V30 8122 H 743.026 -4.11297 -0.681188 0
M  V30 8123 H 741.686 -3.03526 -1.15334 0
M  V30 8124 H 742.697 -4.71641 2.13952 0
M  V30 8125 H 739.374 -4.15768 -0.37994 0
M  V30 8126 H 740.764 -5.86111 3.28517 0
M  V30 8127 N 743.484 -0.715051 -1.40445 0
M  V30 8128 C 744.414 -0.0768699 -2.33373 0
M  V30 8129 C 745.395 0.746109 -1.52863 0
M  V30 8130 O 746.58 0.695142 -1.81332 0
M  V30 8131 C 743.71 0.846014 -3.36838 0
M  V30 8132 C 742.664 0.128694 -4.27806 0
M  V30 8133 C 741.99 1.16726 -5.21804 0
M  V30 8134 C 743.29 -1.01679 -5.12307 0
M  V30 8135 H 744.984 -0.853061 -2.8699 0
M  V30 8136 H 742.53 -0.41167 -1.3799 0
M  V30 8137 H 744.483 1.30185 -4.00786 0
M  V30 8138 H 743.207 1.6541 -2.81615 0
M  V30 8139 H 741.866 -0.307314 -3.6531 0
M  V30 8140 H 741.514 1.96838 -4.62887 0
M  V30 8141 H 741.214 0.692188 -5.83509 0
M  V30 8142 H 742.738 1.62321 -5.88629 0
M  V30 8143 H 744.152 -0.640337 -5.69713 0
M  V30 8144 H 742.549 -1.4202 -5.83053 0
M  V30 8145 H 743.619 -1.84769 -4.48317 0
M  V30 8146 N 744.962 1.50701 -0.461195 0
M  V30 8147 C 746.378 1.59187 -0.114786 0
M  V30 8148 C 746.578 1.4702 1.37794 0
M  V30 8149 O 745.634 1.32361 2.15027 0
M  V30 8150 C 746.947 2.93453 -0.656167 0
M  V30 8151 C 748.495 3.06824 -0.618715 0
M  V30 8152 C 748.97 4.4365 -1.13747 0
M  V30 8153 N 750.461 4.50035 -1.09646 0
M  V30 8154 C 751.196 5.54278 -1.46846 0
M  V30 8155 N 750.692 6.65822 -1.91448 0
M  V30 8156 N 752.485 5.44767 -1.38512 0
M  V30 8157 H 744.636 1.56853 -1.43216 0
M  V30 8158 H 746.899 0.740712 -0.59165 0
M  V30 8159 H 746.605 3.07802 -1.7015 0
M  V30 8160 H 746.479 3.77082 -0.0942261 0
M  V30 8161 H 748.866 2.92129 0.417685 0
M  V30 8162 H 748.947 2.24976 -1.21734 0
M  V30 8163 H 748.591 4.59093 -2.17245 0
M  V30 8164 H 748.521 5.24074 -0.515153 0
M  V30 8165 H 751.012 3.69988 -0.769217 0
M  V30 8166 H 751.325 7.41413 -2.18007 0
M  V30 8167 H 749.67 6.66968 -1.95393 0
M  V30 8168 H 752.861 4.56511 -1.03516 0
M  V30 8169 H 753.034 6.25889 -1.6783 0
M  V30 8170 N 746.441 0.193421 1.56409 0
M  V30 8171 C 747.371 -0.723334 2.22014 0
M  V30 8172 C 748.352 -1.22254 1.1827 0
M  V30 8173 O 749.537 -1.27168 1.46771 0
M  V30 8174 C 746.667 -1.94366 2.87818 0
M  V30 8175 C 745.621 -1.57943 3.97791 0
M  V30 8176 C 744.947 -2.87623 4.50752 0
M  V30 8177 C 746.247 -0.790639 5.16281 0
M  V30 8178 H 747.941 -0.176426 2.9888 0
M  V30 8179 H 745.487 -0.0834166 1.43758 0
M  V30 8180 H 747.44 -2.5902 3.32396 0
M  V30 8181 H 746.164 -2.51507 2.08355 0
M  V30 8182 H 744.823 -0.956482 3.53903 0
M  V30 8183 H 744.471 -3.4285 3.68053 0
M  V30 8184 H 744.171 -2.63998 5.24956 0
M  V30 8185 H 745.695 -3.53268 4.9803 0
M  V30 8186 H 747.109 -1.34024 5.57414 0
M  V30 8187 H 745.506 -0.65258 5.96541 0
M  V30 8188 H 746.576 0.208633 4.84451 0
M  V30 8189 N 747.919 -1.57396 -0.0801906 0
M  V30 8190 C 749.335 -1.53564 -0.434778 0
M  V30 8191 C 749.535 -0.912372 -1.79661 0
M  V30 8192 O 748.591 -0.511268 -2.4727 0
M  V30 8193 C 749.904 -2.98244 -0.383561 0
M  V30 8194 C 751.452 -3.09536 -0.46435 0
M  V30 8195 C 751.927 -4.55851 -0.443128 0
M  V30 8196 N 753.418 -4.60456 -0.503448 0
M  V30 8197 C 754.153 -5.71135 -0.509106 0
M  V30 8198 N 753.649 -6.91203 -0.47008 0
M  V30 8199 N 755.442 -5.59353 -0.555035 0
M  V30 8200 H 747.593 -1.96281 0.811635 0
M  V30 8201 H 749.856 -0.898041 0.303689 0
M  V30 8202 H 749.562 -3.47369 0.550236 0
M  V30 8203 H 749.436 -3.57705 -1.19694 0
M  V30 8204 H 751.823 -2.6039 -1.38857 0
M  V30 8205 H 751.904 -2.53 0.377445 0
M  V30 8206 H 751.548 -5.05653 0.477207 0
M  V30 8207 H 751.478 -5.10242 -1.30234 0
M  V30 8208 H 753.969 -3.74048 -0.538199 0
M  V30 8209 H 754.282 -7.7132 -0.478091 0
M  V30 8210 H 752.627 -6.93625 -0.436897 0
M  V30 8211 H 755.818 -4.64453 -0.583158 0
M  V30 8212 H 755.991 -6.4561 -0.555976 0
M  V30 8213 N 749.397 0.351382 -1.53633 0
M  V30 8214 C 750.813 0.693987 -1.43722 0
M  V30 8215 C 751.013 1.9274 -0.587669 0
M  V30 8216 O 750.069 2.52387 -0.0756082 0
M  V30 8217 C 751.382 0.893937 -2.87105 0
M  V30 8218 C 752.93 0.993051 -2.96829 0
M  V30 8219 C 753.405 1.22537 -4.41303 0
M  V30 8220 N 754.896 1.29275 -4.44795 0
M  V30 8221 C 755.631 1.48988 -5.53706 0
M  V30 8222 N 755.127 1.65924 -6.72637 0
M  V30 8223 N 756.92 1.51472 -5.41306 0
M  V30 8224 H 749.071 -0.459688 -2.07366 0
M  V30 8225 H 751.334 -0.143684 -0.937048 0
M  V30 8226 H 751.04 0.0592517 -3.5165 0
M  V30 8227 H 750.914 1.79795 -3.31592 0
M  V30 8228 H 753.301 1.81827 -2.32429 0
M  V30 8229 H 753.382 0.0661119 -2.55715 0
M  V30 8230 H 753.026 0.405117 -5.06282 0
M  V30 8231 H 752.956 2.16575 -4.80003 0
M  V30 8232 H 755.447 1.17743 -3.59089 0
M  V30 8233 H 755.76 1.80578 -7.51406 0
M  V30 8234 H 754.105 1.63075 -6.75597 0
M  V30 8235 H 757.296 1.37818 -4.47352 0
M  V30 8236 H 757.469 1.66493 -6.26246 0
M  V30 8237 N 750.875 1.45233 0.611969 0
M  V30 8238 C 751.805 1.5641 1.73373 0
M  V30 8239 C 752.786 0.415896 1.64937 0
M  V30 8240 O 753.971 0.638478 1.83404 0
M  V30 8241 C 751.101 1.52627 3.11965 0
M  V30 8242 C 750.055 2.66119 3.35208 0
M  V30 8243 C 749.381 2.4739 4.74028 0
M  V30 8244 C 750.681 4.08157 3.25891 0
M  V30 8245 H 752.375 2.50307 1.64277 0
M  V30 8246 H 749.921 1.20467 0.788904 0
M  V30 8247 H 751.874 1.59043 3.90235 0
M  V30 8248 H 750.598 0.552564 3.21892 0
M  V30 8249 H 749.257 2.59123 2.59327 0
M  V30 8250 H 748.905 1.48168 4.80682 0
M  V30 8251 H 748.605 3.23494 4.90536 0
M  V30 8252 H 750.129 2.55653 5.54503 0
M  V30 8253 H 751.543 4.1642 3.9404 0
M  V30 8254 H 749.94 4.84617 3.5393 0
M  V30 8255 H 751.01 4.30374 2.23397 0
M  V30 8256 N 752.353 -0.854086 1.3245 0
M  V30 8257 C 753.764 -1.42427 1.20712 0
M  V30 8258 C 754.115 -1.95371 -0.18013 0
M  V30 8259 O 753.24 -1.87587 -1.07889 0
M  V30 8260 C 753.835 -2.58897 2.18536 0
M  V30 8261 C 752.394 -3.11913 2.10683 0
M  V30 8262 C 751.541 -1.84661 2.06871 0
M  V30 8263 H 754.492 -0.661192 1.4427 0
M  V30 8264 H 754.513 -3.36074 1.78422 0
M  V30 8265 H 754.025 -2.20333 3.19492 0
M  V30 8266 H 752.126 -3.55059 1.12977 0
M  V30 8267 H 752.239 -3.73119 3.00532 0
M  V30 8268 H 750.603 -2.04285 1.52118 0
M  V30 8269 H 751.386 -1.48314 3.09609 0
M  V30 8270 N 753.831 -1.1567 -1.07043 0
M  V30 8271 C 754.779 -0.852204 -2.16426 0
M  V30 8272 C 755.773 0.175661 -1.68487 0
M  V30 8273 O 756.979 0.0303874 -1.79974 0
M  V30 8274 H 753.354 -0.257942 -0.706378 0
M  V30 8275 H 755.325 -1.78231 -2.39324 0
M  V30 8276 C 754.074 -0.361362 -3.45817 0
M  V30 8277 H 753.397 -1.14369 -3.83092 0
M  V30 8278 H 754.837 -0.186997 -4.23587 0
M  V30 8279 C 753.296 0.917703 -3.2416 0
M  V30 8280 O 753.826 1.98858 -3.49025 0
M  V30 8281 N 752.032 0.858456 -2.77631 0
M  V30 8282 H 751.579 -0.0131821 -2.57597 0
M  V30 8283 H 751.537 1.71478 -2.6352 0
M  V30 8284 N 755.309 1.25446 -0.953992 0
M  V30 8285 C 756.72 1.75047 -0.649255 0
M  V30 8286 C 757.071 1.77527 0.835385 0
M  V30 8287 O 756.196 1.39569 1.65377 0
M  V30 8288 C 756.791 3.17889 -1.17183 0
M  V30 8289 C 755.35 3.65052 -0.917267 0
M  V30 8290 C 754.497 2.44124 -1.31525 0
M  V30 8291 H 757.448 1.11342 -1.13087 0
M  V30 8292 H 757.469 3.76768 -0.531616 0
M  V30 8293 H 756.981 3.16052 -2.25239 0
M  V30 8294 H 755.082 3.72305 0.148354 0
M  V30 8295 H 755.195 4.53222 -1.55328 0
M  V30 8296 H 753.559 2.43906 -0.733624 0
M  V30 8297 H 754.342 2.44979 -2.405 0
M  V30 8298 N 756.787 0.722489 1.40064 0
M  V30 8299 C 758.027 0.269491 2.02616 0
M  V30 8300 C 758.391 -1.11835 1.56067 0
M  V30 8301 O 759.592 -1.66873 2.1073 0
M  V30 8302 C 757.863 0.354066 3.55642 0
M  V30 8303 S 759.422 -0.0209309 4.38795 0
M  V30 8304 H 756.24 0.106412 0.702992 0
M  V30 8305 H 758.842 0.946237 1.71075 0
M  V30 8306 H 757.546 1.36565 3.87012 0
M  V30 8307 H 757.077 -0.340925 3.9192 0
M  V30 8308 H 759.092 -1.24093 4.80432 0
M  V30 8309 N 758.265 -1.50454 0.469181 0
M  V30 8310 C 759.175 -2.32248 -0.331349 0
M  V30 8311 C 760.191 -1.42548 -0.997807 0
M  V30 8312 O 761.367 -1.75602 -0.9862 0
M  V30 8313 C 758.432 -3.17171 -1.40012 0
M  V30 8314 C 757.493 -4.2269 -0.750463 0
M  V30 8315 C 756.726 -5.03554 -1.76831 0
M  V30 8316 O 756.949 -4.85469 -2.99459 0
M  V30 8317 O 755.883 -5.86767 -1.3412 0
M  V30 8318 H 759.709 -3.01821 0.337279 0
M  V30 8319 H 757.294 -1.47602 0.231066 0
M  V30 8320 H 759.176 -3.69871 -2.01924 0
M  V30 8321 H 757.851 -2.50328 -2.05226 0
M  V30 8322 H 756.758 -3.73986 -0.0924446 0
M  V30 8323 H 758.091 -4.91997 -0.14131 0
M  V30 8324 N 759.743 -0.201713 -1.56304 0
M  V30 8325 C 761.02 0.483273 -1.89536 0
M  V30 8326 C 761.4 1.79176 -1.11621 0
M  V30 8327 O 760.748 2.27445 -0.219339 0
M  V30 8328 C 760.958 0.695604 -3.41998 0
M  V30 8329 C 762.306 1.012 -4.12364 0
M  V30 8330 O 763.33 0.783094 -3.47485 0
M  V30 8331 O 762.189 1.44534 -5.27041 0
M  V30 8332 H 759.283 0.252801 -0.787414 0
M  V30 8333 H 761.829 -0.24242 -1.6796 0
M  V30 8334 H 760.601 -0.228165 -3.90634 0
M  V30 8335 H 760.224 1.47351 -3.69288 0
M  V30 8336 N 761.222 1.57436 0.0718424 0
M  V30 8337 C 762.169 2.03686 1.08539 0
M  V30 8338 C 763.139 0.917474 1.38462 0
M  V30 8339 O 764.324 1.18513 1.4953 0
M  V30 8340 C 761.464 2.48566 2.39393 0
M  V30 8341 C 760.577 3.74122 2.16001 0
M  V30 8342 C 759.712 4.07786 3.40418 0
M  V30 8343 C 758.751 5.26383 3.1239 0
M  V30 8344 N 757.888 5.55685 4.29138 0
M  V30 8345 H 762.728 2.90043 0.684018 0
M  V30 8346 H 760.265 1.43438 0.326183 0
M  V30 8347 H 762.223 2.72639 3.15791 0
M  V30 8348 H 760.853 1.65186 2.77333 0
M  V30 8349 H 759.905 3.57389 1.30296 0
M  V30 8350 H 761.217 4.60659 1.91298 0
M  V30 8351 H 760.371 4.32759 4.25211 0
M  V30 8352 H 759.11 3.19817 3.68197 0
M  V30 8353 H 758.115 5.01206 2.25993 0
M  V30 8354 H 759.34 6.1597 2.85934 0
M  V30 8355 H 757.286 4.70675 4.56948 0
M  V30 8356 H 757.203 6.3664 4.07708 0
M  V30 8357 H 758.471 5.85209 5.14928 0
M  V30 8358 N 762.7 -0.34323 1.53817 0
M  V30 8359 C 763.977 -1.10047 1.61706 0
M  V30 8360 C 764.357 -2.06495 0.438514 0
M  V30 8361 O 763.705 -2.21297 -0.569188 0
M  V30 8362 C 763.915 -1.81985 2.97796 0
M  V30 8363 C 765.263 -2.35717 3.53161 0
M  V30 8364 O 766.287 -1.9208 2.99973 0
M  V30 8365 O 765.146 -3.15551 4.46195 0
M  V30 8366 H 762.24 -0.506096 0.654061 0
M  V30 8367 H 764.786 -0.344697 1.66162 0
M  V30 8368 H 763.558 -1.11722 3.75012 0
M  V30 8369 H 763.181 -2.64419 2.96931 0
M  V30 8370 N 764.178 -1.45556 -0.604258 0
M  V30 8371 C 765.11 -1.50494 -1.72871 0
M  V30 8372 C 766.123 -0.395368 -1.57926 0
M  V30 8373 O 767.312 -0.662603 -1.65746 0
M  V30 8374 C 764.412 -1.34874 -3.10906 0
M  V30 8375 C 763.585 -2.59564 -3.52058 0
M  V30 8376 C 762.644 -2.38453 -4.6907 0
M  V30 8377 O 761.67 -3.12082 -4.76018 0
M  V30 8378 N 762.872 -1.43229 -5.62553 0
M  V30 8379 H 765.637 -2.4744 -1.69097 0
M  V30 8380 H 763.198 -1.41338 -0.789636 0
M  V30 8381 H 765.19 -1.18556 -3.86945 0
M  V30 8382 H 763.76 -0.461913 -3.09168 0
M  V30 8383 H 762.98 -2.90974 -2.65946 0
M  V30 8384 H 764.268 -3.42441 -3.76313 0
M  V30 8385 H 763.666 -0.824714 -5.59656 0
M  V30 8386 H 762.223 -1.32882 -6.38111 0
M  V30 8387 N 765.656 0.84705 -1.32902 0
M  V30 8388 C 766.586 1.97166 -1.25091 0
M  V30 8389 C 767.567 1.69578 -0.133161 0
M  V30 8390 O 768.752 1.91519 -0.321591 0
M  V30 8391 C 765.882 3.33157 -0.981006 0
M  V30 8392 C 764.836 3.75119 -2.06082 0
M  V30 8393 C 764.162 5.08826 -1.64318 0
M  V30 8394 C 765.462 3.89774 -3.47669 0
M  V30 8395 H 767.156 2.03958 -2.19184 0
M  V30 8396 H 764.702 0.979907 -1.05517 0
M  V30 8397 H 766.655 4.11393 -0.912891 0
M  V30 8398 H 765.379 3.266 -0.00445559 0
M  V30 8399 H 764.038 2.9914 -2.11921 0
M  V30 8400 H 763.686 4.98732 -0.653876 0
M  V30 8401 H 763.386 5.37873 -2.36572 0
M  V30 8402 H 764.91 5.89546 -1.58958 0
M  V30 8403 H 766.324 4.58343 -3.44376 0
M  V30 8404 H 764.721 4.30248 -4.18338 0
M  V30 8405 H 765.791 2.92463 -3.86773 0
M  V30 8406 O 767.173 1.28015 0.984606 0
M  V30 8407 H 767.864 1.07954 1.60828 0
M  V30 END ATOM
M  V30 BEGIN BOND
M  V30 END BOND
M  V30 END CTAB
M  END
$$$$
